20
Coordinates from ORCA-job PhN2+~CF3COO-_B3LYPG-6-31G_dp-NX-Scan-d89-09-n800
  C   -3.88288948797608     -1.25716485769655      0.19489333390575
  N   -3.66588360639314      0.07726216652536      0.70314161446315
  N   -4.33805939778226      0.99656383754855      0.06783698465650
  C   -4.71483220855947     -1.64673439021216     -0.86565050547783
  C   -4.79833226804079     -2.99618777782882     -1.22201973381143
  C   -4.06535409354600     -3.96216372513259     -0.53580103697209
  C   -3.23805220787933     -3.57229567603667      0.52157487319906
  C   -3.14599623208160     -2.23288122911402      0.88507803786742
  H   -5.30281832002909     -0.92898912372338     -1.42729955334969
  H   -5.44455157829799     -3.28479755713116     -2.04617479265352
  H   -4.13633297556420     -5.00734700429513     -0.82090741725472
  H   -2.66156006388339     -4.31431001833900      1.06624493134382
  H   -2.50940090788827     -1.91208399121304      1.70326364218880
  O   -4.92130377611504      1.15737131271110     -0.59847143345524
  C   -5.56521828172227      3.32386026316564     -0.98088917704336
  O   -6.29197000412201      3.90199748031013     -1.72192198487255
  C   -4.70957068437855      4.03924329906863      0.11667581065833
  F   -3.41717594348427      3.73228907670467     -0.11711661907740
  F   -4.83192292627735      5.36891554059577      0.18242683655170
  F   -5.05867503597915      3.51055237409261      1.30711618913335
