20
Coordinates from ORCA-job PhN2+~CF3COO-_B3LYPG-6-31G_dp-NX-Scan-d89-09-n800
  C   -5.10526153956049     -1.47058765225765      1.41062885320191
  N   -5.69765810444644     -1.42879911354323      2.58407589581510
  N   -6.20522798228913     -1.35577374797816      3.60226663327641
  C   -5.78679700046087     -0.94498315774553      0.24848837334798
  C   -5.09214246290892     -0.76850648641833     -0.89408470769362
  C   -3.60346036213293     -0.89873699912766     -0.90150367335652
  C   -3.10199274294824     -1.85868749835236      0.12920247885181
  C   -3.78258851323123     -2.04657653169811      1.27632194608129
  H   -6.85166455484653     -0.74249583506955      0.30824606344933
  H   -5.59175475152397     -0.44087949891744     -1.79752880517814
  H   -3.20524208802238     -1.09564982802486     -1.89621002584096
  H   -2.12675590634618     -2.30972941718025     -0.01570468365663
  H   -3.38330976091940     -2.64171925988684      2.09149946998096
  O   -3.66699159857963      2.37551691106283      0.36159395013950
  C   -3.58079075932866      1.59834851357129     -0.55503666428094
  O   -2.94852740126109      0.42566794400093     -0.47449119296333
  C   -4.11729263246254      2.03843821376294     -1.94523597487338
  F   -3.86702440120863      1.13343209430485     -2.91858626960057
  F   -5.44847597649304      2.23213964557021     -1.90043377408382
  F   -3.53694146102979      3.19268170392692     -2.30150789261631
