31
Coordinates from ORCA-job PhN2+~TsO-_B3LYPG-6-31G_dp-NX-Scan-d89-09-n800
  C   -4.54983080664003     -2.28018449625440     -1.21131991624709
  N   -5.76480595912500     -2.59762063934514     -1.83871574398412
  N   -6.61730825221057     -3.36547058336292     -1.95658987488310
  C   -4.00295293199465     -1.02883953432397     -1.52685657152101
  C   -2.80484104214245     -0.65372554057875     -0.93025755831557
  C   -2.17417722804430     -1.52269789106462     -0.03409488035786
  C   -2.73548982841479     -2.76726076892748      0.26903639327454
  C   -3.93264498202297     -3.16971871908329     -0.31557484086693
  H   -4.52146150458903     -0.37833228878916     -2.22260349585501
  H   -2.36563031388107      0.31093648863900     -1.16044008172521
  H   -1.23889285312142     -1.22758616644608      0.43128266795375
  H   -2.23999716653874     -3.43286791874987      0.96836385411708
  H   -4.39546619205534     -4.12527229201920     -0.10302971668408
  C   -9.67631373543299     -5.63385717249696     -0.77273136874513
  C   -10.67049931900883     -6.50646367539304     -1.21314936291501
  C   -10.51108035363186     -7.89556826935077     -1.11587469982830
  C   -9.32269748967700     -8.39276341032271     -0.56077417893472
  C   -8.32005619664910     -7.53401840858223     -0.11550069663780
  C   -8.50212224296711     -6.15479550664526     -0.22909235058291
  H   -9.80591560634684     -4.55865937874318     -0.83546293087943
  H   -11.58658088247252     -6.10233839020759     -1.63655526091615
  H   -9.18279783727576     -9.46770782096278     -0.47277300096406
  H   -7.40840860751638     -7.91989826052419      0.32748068578194
  S   -7.20098360725143     -5.04325851235021      0.30462703587185
  O   -7.81314737193230     -3.72761039355699      0.55873384457075
  O   -6.23998607920173     -4.94717294402903     -0.93328669314133
  O   -6.46649195115151     -5.70926019763029      1.39016140661274
  C   -11.60463253127398     -8.83399509826881     -1.56831598355189
  H   -12.27877685061110     -9.08401804202960     -0.73941495768761
  H   -12.21364753659716     -8.38587666281402     -2.35936758251076
  H   -11.19416274022194     -9.77469750578653     -1.94650414044753
