31
Coordinates from ORCA-job PhN2+~TsO-_B3LYPG-6-31G_dp-NX-Scan-d89-09-n800
  C   -4.92987646235637     -0.84601787082958     -0.94433597792372
  N   -5.00144179104029      0.40528676411522     -1.33369458329189
  N   -5.06487073875799      1.49670787745252     -1.67262626999600
  C   -4.39309686514527     -1.85365164238032     -1.83681300666154
  C   -4.31430657541444     -3.13651933566981     -1.43702054985802
  C   -4.80724571238992     -3.60203198124853     -0.10522306992282
  C   -5.28472145921841     -2.50198405574959      0.78937753453133
  C   -5.36476749795163     -1.22018611623515      0.38753006772083
  H   -4.04231728726462     -1.54684233481758     -2.81706780581918
  H   -3.90251374260398     -3.89306250267959     -2.09640281964109
  H   -4.05821889130078     -4.23207796491880      0.38875113869212
  H   -5.60208202631808     -2.78980888855894      1.78560009655848
  H   -5.73661789990336     -0.44443607039385      1.04961609138194
  C   -8.75964656617703     -6.25817913365628      0.31396016936575
  C   -9.89776107078947     -6.81864955592577     -0.25699291546803
  C   -9.80488388140622     -7.70549149193070     -1.34190416679257
  C   -8.53444043665723     -8.02400233553082     -1.83957096630641
  C   -7.38189889342953     -7.47267215089474     -1.28197863042643
  C   -7.50841744445054     -6.58875260313612     -0.21143272699672
  H   -8.82965275114180     -5.58517704413172      1.16138728876156
  H   -10.87489318746838     -6.56875699020060      0.14761907246457
  H   -8.44483470877227     -8.71585336574830     -2.67256618376031
  H   -6.39777742608923     -7.72926441451233     -1.65761684578422
  S   -6.04284011235643     -5.87886386366105      0.51023859000349
  O   -6.30656022237550     -5.50655075574119      1.90330960849614
  O   -5.97480821067061     -4.51944058353915     -0.39800613725755
  O   -4.88254530086293     -6.71691085651302      0.19581793568346
  C   -11.05122267557397     -8.30033152796155     -1.95171908566872
  H   -11.65398313947398     -8.81695617723485     -1.19645452618420
  H   -11.68499020948803     -7.52134112589806     -2.39141294421944
  H   -10.80856681315136     -9.01878190186985     -2.73896838168080
