14
Coordinates from ORCA-job PhN2+~Cl-_B3LYPG-6-31G_dp-NX-Scan-d89-09-n800
  C   -0.68863580868196     -0.54925989664215     -0.42008971925774
  N   -0.69622548081220     -1.71792811949205     -1.20468443818073
  N   -1.18963451359905     -2.23513243739892     -2.12865479143675
  C   -1.52065557820485      0.54809816396315     -0.69108871171938
  C   -1.43202852980050      1.65652044694600      0.14766680719934
  C   -0.54017733990866      1.66881251395582      1.22421255450407
  C   0.28103334811283      0.56610384898278      1.47958028474899
  C   0.21109601724858     -0.55160246067935      0.65562228448944
  H   -2.20107674754440      0.50996910881916     -1.53301260350755
  H   -2.06525455019540      2.51733518955366     -0.04306991048987
  H   -0.48435339422130      2.54249039583920      1.86710813784583
  H   0.97157096358580      0.57908111446440      2.31662250532424
  H   0.83381175747633     -1.42363860082642      0.82410503274583
  Cl  -2.72037014345531     -1.16014926748532     -3.21201743226572
