21
Coordinates from ORCA-job PhN2+~TfO-_B3LYPG-6-31G_dp-NX-Scan-d89-09-n800
  C   -1.13739722856473      1.62822816934603      0.07619870774628
  N   -2.44012687504393      1.92845993564059     -0.45205186333513
  N   -2.74949765368968      3.16065372090025     -0.37725122379597
  C   -0.20950878717151      2.52773438436264      0.62288251545392
  C   1.01882654937715      2.05129483215727      1.08823725240162
  C   1.33150842394632      0.69485807579404      1.01584008988630
  C   0.40422754191703     -0.19741756617461      0.47030803538994
  C   -0.82187234984130      0.26314680413945      0.00254291672210
  H   -0.40812622537125      3.59155992058653      0.69961031822576
  H   1.73199897903552      2.75407162945533      1.50820003979769
  H   2.28870883662297      0.33560543591115      1.37988323201904
  H   0.63646928910187     -1.25625724009181      0.40660595800117
  H   -1.55493357148807     -0.41158542442396     -0.42570081732854
  S   -4.97655601865900      4.55620805746088     -1.25708183192947
  C   -6.70126136314257      3.99779272946618     -0.73481599605231
  O   -2.51551137813534      3.99246732241377     -0.12558367585761
  O   -5.08328116611741      4.99901127450569     -2.67236344065239
  O   -4.38055778659917      3.06061425076998     -1.10253208991606
  F   -6.64979839586271      3.57810037569796      0.53621771249485
  F   -7.51570582799153      5.05985959417918     -0.80419915855928
  F   -7.18040499232288      3.02839371790333     -1.50854668071190
