21
Coordinates from ORCA-job PhN2+~TfO-_B3LYPG-6-31G_dp-NX-Scan-d89-09-n800
  C   -1.52810291995105     -0.58776428831839     -0.43925762877918
  N   -1.59435624733459     -1.79226653193199     -1.06333667290828
  N   -1.66586375112727     -2.78428479182646     -1.58198943611410
  C   -2.72916211589505      0.15075258984999     -0.27987410860479
  C   -2.64033089107300      1.38591449129226      0.33083259626710
  C   -1.39124053944820      1.86845225989220      0.77063361035960
  C   -0.21808181651842      1.10891943779674      0.60974412559237
  C   -0.26098075511218     -0.13034409634272      0.00014946998059
  H   -3.66963538751649     -0.24558860589285     -0.64608442248217
  H   -3.51642984610175      2.03150234026671      0.43188819488211
  H   -1.36127972201768      2.87454216331910      1.19278654392815
  H   0.73279313335668      1.50271302556562      0.95176144019280
  H   0.62516123669083     -0.73645424667616     -0.15144168978882
  S   -3.13068069839471      4.67618744046079     -0.16744761088594
  C   -3.76202285627258      6.41791155444602     -0.28386502440063
  O   -2.61493873535741      4.36053121498699     -1.51516936557455
  O   -4.33335970062528      3.89652417698726      0.23838704511816
  O   -2.08678418983689      4.76013815173595      0.89370544919177
  F   -2.77578903131985      7.25360195463084     -0.64461402020303
  F   -4.74174045054968      6.50485061911475     -1.19743916110331
  F   -4.24997471559546      6.82696114064332      0.89703066533214
