21
Coordinates from ORCA-job PhN2+~TfO-_B3LYPG-6-31G_dp-NX-Scan-d89-09-n800
  C   -1.24814611497141      1.10325560410561     -0.51648084204234
  N   -2.15641279744661      1.01782089485829     -1.56600197503998
  N   -3.04080715417060      1.16423037891190     -2.24437520970515
  C   -1.24100219496219      2.28048951866403      0.24876022333008
  C   -0.32430013076844      2.33350698652441      1.29578907437866
  C   0.53017616331128      1.25761913207806      1.55458936801213
  C   0.49797435704898      0.10048310686114      0.76416433559331
  C   -0.39294444720599      0.01173083806780     -0.29617477390704
  H   -1.91026747604049      3.10711936788096     -0.00688642774174
  H   -0.28098196867642      3.22623244381180      1.91098141087817
  H   1.23434612027091      1.31958952876683      2.37887166339452
  H   1.16803662086549     -0.72609800124021      0.97480704543873
  H   -0.44565724209522     -0.86695217902632     -0.92950304789955
  S   -4.33034152709809      3.88695537764064     -1.34206354065961
  C   -5.45573688886609      4.61122038386290     -0.05042963161586
  O   -2.98468970333644      4.41304418415361     -0.98940752390601
  O   -4.88390063657425      4.30777386333270     -2.63114285396677
  O   -4.44819127006772      2.41007970170799     -1.03687759138191
  F   -5.03767111533625      4.26616030161581      1.17922675281225
  F   -5.45373601534280      5.94704498594634     -0.13878821384751
  F   -6.70854657853785      4.17149358147566     -0.21265824212435
