21
Coordinates from ORCA-job PhN2+~TfO-_B3LYPG-6-31G_dp-NX-Scan-d89-09-n800
  C   -1.25174936535229      1.19889711470971     -0.47429526851190
  N   -2.11222787935900      1.09488912439049     -1.57688902959528
  N   -2.97133744316518      1.58223540934285     -2.17632759823667
  C   -1.40026954467327      2.21785962172053      0.48184213375290
  C   -0.51568329218168      2.22946080455155      1.55597612803650
  C   0.48877077223665      1.26187729281585      1.66542027296079
  C   0.61880319257699      0.25577459803778      0.70312446457559
  C   -0.25936409373420      0.21360539880623     -0.37389584739240
  H   -2.19008072698481      2.94908043884271      0.37478247027225
  H   -0.61108302298225      3.00234300406655      2.31208617767263
  H   1.17205276096345      1.29060101928373      2.50904786892604
  H   1.39738770843064     -0.49432135516999      0.79547947452189
  H   -0.19277714442826     -0.55771582833609     -1.13363290418874
  S   -4.86545233253937      3.59337182921896     -1.60455582504806
  C   -4.98229827949262      4.64995202650309     -0.07069189060554
  O   -3.33920106949597      3.25806187464967     -1.50833598199334
  O   -5.17572706159010      4.47673594498277     -2.72430942388585
  O   -5.68751742813237      2.41049972160049     -1.34799525940896
  F   -4.51895747753532      3.96975111514375      0.99528552566994
  F   -4.25946829726425      5.76448436036989     -0.20769078456911
  F   -6.25661997529700      4.97535648446932      0.15197529704735
