21
Coordinates from ORCA-job PhN2+~TfO-_B3LYPG-6-31G_dp-NX-Scan-d89-09-n800
  C   -1.41378688046920      1.07654298014999     -0.52386894479311
  N   -2.32908522630864      0.86943468321522     -1.54827103717185
  N   -2.97572896847266      0.53021465847284     -2.38982188621994
  C   -1.17624995256178      2.36941764766906     -0.03897040755934
  C   -0.21770995560265      2.48954012874240      0.96505564016042
  C   0.45427271869612      1.36784653586657      1.45485183243688
  C   0.18816933283151      0.08670276167856      0.94775992153703
  C   -0.75127849035893     -0.07838562714443     -0.05692491968528
  H   -1.73193564129460      3.23386353417796     -0.40873368054989
  H   -0.01269331866425      3.47497712519520      1.36872236054098
  H   1.19218153297172      1.48531677001959      2.24275710809410
  H   0.71286356252438     -0.77839776774416      1.33774767707195
  H   -0.98042456781178     -1.05367795772687     -0.47146302238841
  S   -4.01354189351879      4.24725222128165     -1.21927859464287
  C   -5.40147151770220      4.34732641335461      0.00952957054061
  O   -2.85366758529296      4.82021433990244     -0.48676666223642
  O   -4.49073132483628      4.98341563771877     -2.39309965428104
  O   -3.85728961055341      2.76632103286480     -1.41908794718675
  F   -5.08563366595131      3.67009954996366      1.12996550060967
  F   -5.64671218081969      5.62072220814222      0.34388018614705
  F   -6.52234636680473      3.81405312419982     -0.49758304042376
