21
Coordinates from ORCA-job PhN2+~TfO-_B3LYPG-6-31G_dp-NX-Scan-d89-09-n800
  C   -1.50224151902463      1.43147459308925     -0.27859030778954
  N   -2.53654454238296      1.33190647944571     -1.21481101085259
  N   -3.26546197046834      0.92676834027816     -1.96091284587290
  C   -1.33661462814729      2.59222397092078      0.48455918985797
  C   -0.30510283018671      2.59827879406391      1.41942352753913
  C   0.52328704713118      1.48368920189201      1.57402614853470
  C   0.33441593229538      0.33534444341315      0.79528631485138
  C   -0.68691647805957      0.29366914816752     -0.14388903802380
  H   -1.98809567794922      3.43776584695956      0.30932111726906
  H   -0.14764132903992      3.48336897953136      2.02646902781084
  H   1.32528097969855      1.50727470447741      2.30565970300807
  H   0.98172398545391     -0.52627238135563      0.92073477187534
  H   -0.86033559853539     -0.58237489464128     -0.75893598608780
  S   -4.38640886427814      3.80685382905542     -1.82397552967893
  C   -4.98737765285369      3.98097258355973     -0.07433675094945
  O   -2.91557410232630      3.60312446925094     -1.60666326175345
  O   -4.76214974763954      5.05235217062849     -2.48865838247657
  O   -5.03652822481392      2.55481140469085     -2.28805707245082
  F   -4.66710302070694      2.86274727576394      0.62490880691905
  F   -4.38537044690534      5.01724429261078      0.53432670716883
  F   -6.30804131126133      4.15157674819783     -0.00948512889849
