21
Coordinates from ORCA-job PhN2+~TfO-_B3LYPG-6-31G_dp-NX-Scan-d89-09-n800
  C   -1.61883585133195      1.05407647785193     -0.11282407510596
  N   -2.90616079245598      0.98151278130301     -0.63480638049910
  N   -3.99716077537371      1.24476083907680     -0.76465949936669
  C   -1.39667482216706      1.89519969065350      0.98997374743340
  C   -0.10461978431697      1.94250746441944      1.50051265236775
  C   0.91679432078487      1.18309841904988      0.91888028683570
  C   0.66451270544923      0.35412386265962     -0.18040975285674
  C   -0.61834226534781      0.27586562600340     -0.70890719547727
  H   -2.22074814191245      2.46768287198944      1.39979353437874
  H   0.10601183177065      2.58194776994487      2.35096332895635
  H   1.92159950485629      1.23783722457019      1.32626286607657
  H   1.46587533433010     -0.22723548878782     -0.62271482851401
  H   -0.84994500471118     -0.35367453924276     -1.56070494949428
  S   -3.97915467081158      4.18521119703101     -0.18175878027345
  C   -5.51019807102207      4.52721323564495     -1.17551962344396
  O   -3.81034253758336      5.33997153589391      0.70313906824738
  O   -2.93203714523668      3.91184530834655     -1.18588416696336
  O   -4.36892710336560      2.91868667926836      0.57381006225790
  F   -6.55817053225256      4.73921093437059     -0.37292734633526
  F   -5.33122618449914      5.60610201178068     -1.94652525323967
  F   -5.78505001480320      3.47685609817237     -1.96929369498397
