21
Coordinates from ORCA-job PhN2+~TfO-_B3LYPG-6-31G_dp-NX-Scan-d89-09-n800
  C   -1.41691741989427      1.07754783699517     -0.52312922940167
  N   -2.33471064219551      0.86754057175063     -1.54514617724048
  N   -2.97926913150709      0.51756925000640     -2.38392659296266
  C   -1.17643571748768      2.37074242033795     -0.04041107784576
  C   -0.21606309062049      2.49085225281159      0.96181935356921
  C   0.45516626590067      1.36900290857822      1.45227505376486
  C   0.18630203092843      0.08759063280963      0.94756333310051
  C   -0.75520689943654     -0.07752577745720     -0.05518235021344
  H   -1.73095635395883      3.23567106137398     -0.40995061913280
  H   -0.00902070362553      3.47661424641330      1.36363948068715
  H   1.19450916536275      1.48660615606522      2.23881688375211
  H   0.71029780969499     -0.77777007737490      1.33792204037422
  H   -0.98656419762884     -1.05317967839360     -0.46764326145490
  S   -4.00867794032518      4.25321423264447     -1.21652003233195
  C   -5.40139768731870      4.34266545869063      0.00775038625246
  O   -2.85362983216874      4.82777143585050     -0.47725057882332
  O   -4.48445013328061      4.99226825817545     -2.38908541787439
  O   -3.84786145289309      2.77285971178049     -1.42248533636868
  F   -5.08681584234668      3.66194897482466      1.12640736046608
  F   -5.65275498829573      5.61365022544295      0.34652519467922
  F   -6.51834323890346      3.80715989867435     -0.50558841299573
