21
Coordinates from ORCA-job PhN2+~TfO-_B3LYPG-6-31G_dp-NX-Scan-d89-09-n800
  C   -1.50528940220577     -0.33454848363024     -0.35723620532911
  N   -1.43340639138900     -1.57841114877512     -0.85704181978870
  N   -1.37995138530817     -2.62298357877416     -1.28104870302100
  C   -2.61331167860628      0.01137785318615      0.47345696619705
  C   -2.67846553140197      1.29015884701171      0.95843480249617
  C   -1.68605421473947      2.24388603263438      0.61011101698029
  C   -0.56272724814834      1.86008343324388     -0.16512097299394
  C   -0.46812749910845      0.59032191658630     -0.67343225328911
  H   -3.37279425145231     -0.72959414608572      0.69720989356573
  H   -3.51554825715145      1.61961061206879      1.56216823552380
  H   -1.69677486435530      3.20721251635723      1.09792690928361
  H   0.20608436639991      2.59076234092220     -0.38838388769733
  H   0.36553245526496      0.27703313981827     -1.29219916418939
  S   -3.87849111586146      4.31533500326357     -0.35017945376747
  C   -2.86393686607037      5.86250062709878     -0.17042328515613
  O   -2.87107200559074      3.36259562663040     -0.96523971553727
  O   -4.97408821228849      4.67223348878855     -1.25439018989496
  O   -4.20913376496653      3.96083768169290      1.04577874708369
  F   -1.76347694596509      5.60231634890234      0.57771458375231
  F   -2.45219328209116      6.31457341383504     -1.36093715384655
  F   -3.55957390496457      6.82749847522472      0.43923164962833
