21
Coordinates from ORCA-job PhN2+~TfO-_B3LYPG-6-31G_dp-NX-Scan-d89-09-n800
  C   -1.49040927267517      1.42723075821192     -0.28191634123733
  N   -2.52676802833538      1.33480710532099     -1.21118024227408
  N   -3.29894202472327      0.97105857621641     -1.93840895670689
  C   -1.22288061431810      2.63790064488751      0.36850796343414
  C   -0.18899553000932      2.64363888509012      1.30086977636700
  C   0.54019443679827      1.48117144208860      1.56352249690508
  C   0.25037494955443      0.28359958157221      0.89664762159790
  C   -0.77342845476564      0.24044836029187     -0.03868726318422
  H   -1.80934944548948      3.51168007558043      0.10818742180859
  H   0.04707957720861      3.56493192867361      1.82215090740225
  H   1.34381285645599      1.50426355601274      2.29338266084827
  H   0.82160545733893     -0.61409765107557      1.10732907844375
  H   -1.02362180659956     -0.67144555133283     -0.56908254009805
  S   -4.36318786439630      3.95281945628994     -1.80481117222209
  C   -5.03318072803358      3.85310283264145     -0.07460707067450
  O   -2.88968477970282      3.91024141081947     -1.55180613831077
  O   -4.89120802118870      5.19843633316150     -2.35673516433743
  O   -4.85158625507436      2.68389694951592     -2.41858508955513
  F   -4.56749132094823      2.72236080202320      0.52039969039153
  F   -4.61860680550970      4.89328145737512      0.66365842382370
  F   -6.36652632558681      3.81347304663533     -0.05243606242168
