33
Coordinates from ORCA-job 4-NO2PhN2+~TsO-_B3LYPG-6-31G_dp-NX-Scan-d89-09-n800
  C   -4.59540682818192     -1.56728096301215      0.40131108819942
  N   -5.58557842624181     -1.35745515711565      1.35870074375651
  N   -6.56337483223679     -1.34673717054161      1.93908715756290
  C   -3.27916140216437     -1.28292170805670      0.79870223112855
  C   -2.25566099215142     -1.45185944660964     -0.12203282169431
  C   -2.58690654534681     -1.87602985758664     -1.40864880612505
  N   -1.49394284313314     -2.04411022398345     -2.39441353868300
  O   -0.35115265043387     -1.81119720420833     -2.00915051788462
  O   -1.80629040779387     -2.40181592771719     -3.52538738930065
  C   -3.89402337568727     -2.14437723372071     -1.80716603550250
  C   -4.93212112645802     -1.99879429399446     -0.89155128519216
  H   -3.07730003625594     -0.94463270091202      1.80828957081228
  H   -1.22176213957951     -1.25606745167168      0.13052711739179
  H   -4.08922554688379     -2.47634462990444     -2.81870962690894
  H   -5.95888378340841     -2.22733114186514     -1.16831928203882
  C   -8.67443614463213     -5.89541390303388      1.47245089816956
  C   -9.64888654149905     -6.86318621650585      1.71817264398843
  C   -10.90318204922379     -6.80336327012542      1.09743729445931
  C   -11.15824408002142     -5.74784362452405      0.20757788368916
  C   -10.19599069943776     -4.77596468487571     -0.05149971480575
  C   -8.95624076243829     -4.85609614601922      0.58747653249969
  H   -7.69807661539777     -5.94860255382219      1.94084843192998
  H   -9.42845414877918     -7.68134266585296      2.39940719328113
  H   -12.12181468082585     -5.69165121705050     -0.29256698421982
  H   -10.38848904568126     -3.97162534255528     -0.75344922539297
  S   -7.72359351981324     -3.59611885766818      0.28562707879023
  O   -6.39486411248889     -4.15251061431772      0.63936979998910
  O   -8.09364327440812     -2.45920957548073      1.25617404195255
  O   -7.87271190071526     -3.16192072975138     -1.12470317254117
  C   -11.96334313547034     -7.84178287181846      1.37936723087276
  H   -11.55425690953551     -8.69336074873774      1.92947963154886
  H   -12.77944307391320     -7.42029067581332      1.97915093886831
  H   -12.40813836976307     -8.21986119114768      0.45294089139930
