33
Coordinates from ORCA-job 4-NO2PhN2+~TsO-_B3LYPG-6-31G_dp-NX-Scan-d89-09-n800
  C   -4.19768963690164     -2.80964818349748      0.33370172655927
  N   -4.81040882163444     -3.58686840584598      1.36548111778046
  N   -4.78718549536398     -3.84427882256900      2.46188908271988
  C   -3.29789817990436     -1.83007265860310      0.78427932814794
  C   -2.64617138460473     -1.05359158063807     -0.16173208074213
  C   -2.90812173231655     -1.28735134204657     -1.51241836680789
  N   -2.20275154152200     -0.45946333317984     -2.51836158035393
  O   -1.42931337573035      0.39602258805766     -2.09633051895122
  O   -2.43762271010884     -0.68925863375033     -3.69998073494876
  C   -3.79997200224227     -2.25959121293401     -1.95177456694246
  C   -4.46784332278954     -3.04316243472393     -1.01236367402030
  H   -3.12875586990679     -1.68319267256295      1.84469631945005
  H   -1.94722409853733     -0.27785654453301      0.12420171284505
  H   -3.97297579579674     -2.39154395920349     -3.01226812189567
  H   -5.19157920990313     -3.79645727438187     -1.29345729510699
  C   -9.33082481174248     -4.94276412779614      1.90721342783406
  C   -10.39140390909303     -5.79611602767253      2.20428867742279
  C   -11.03964603310336     -6.52547565342558      1.19706810482010
  C   -10.59491257004006     -6.37800592116893     -0.12468336489237
  C   -9.53643846809238     -5.52768223765002     -0.43855872255687
  C   -8.90850168026683     -4.81485089836793      0.58336533211389
  H   -8.84162259348663     -4.36694690533623      2.68526185356885
  H   -10.72606092127835     -5.89413197711485      3.23394654770120
  H   -11.08738586687351     -6.93266142566356     -0.91929487205487
  H   -9.20280699527139     -5.40102195296405     -1.46262374571867
  S   -7.53122968894092     -3.73752867662202      0.19280252768911
  O   -6.29706859019903     -4.66733018566617      0.37010294360065
  O   -7.48542052348923     -2.66101991743256      1.20576112866305
  O   -7.66675162036315     -3.33319138951466     -1.22058239725543
  C   -12.21178636108993     -7.42027102719197      1.52272312547146
  H   -12.15657586076295     -7.79586262752491      2.54855478582539
  H   -13.15985973285259     -6.87614792159267      1.42573124277386
  H   -12.26079059579251     -8.27977665688331      0.84786105726053
