33
Coordinates from ORCA-job 4-NO2PhN2+~TsO-_B3LYPG-6-31G_dp-NX-Scan-d89-09-n800
  C   -4.37407074784665     -2.46197378011875     -0.40603083194327
  N   -5.43975057769521     -3.33272083828833     -0.09638646129494
  N   -6.22735833134925     -3.66336678898797     -1.05385193344253
  C   -3.60597146135024     -2.12606555329395      0.72908085859444
  C   -2.51232251553184     -1.28224430321885      0.62979387357368
  C   -2.17650697409192     -0.76699101228420     -0.62334835374050
  N   -1.02076725798217      0.12940056680859     -0.74271594083045
  O   -0.39322774607444      0.39025260462932      0.28394679143186
  O   -0.74856657191558      0.56659052326643     -1.86110301196605
  C   -2.91075666444272     -1.08245873828483     -1.76297962481270
  C   -4.01139946023805     -1.92840722893006     -1.66136344238501
  H   -3.89844713706613     -2.54969686274332      1.68302380482294
  H   -1.91708335109775     -1.01615706929373      1.49395351810777
  H   -2.61473301969614     -0.66328230624551     -2.71620593294590
  H   -4.56739361245513     -2.16277984349870     -2.55731913010229
  C   -10.11138309565473     -4.68209378022747      0.61874299005704
  C   -10.97970862184542     -5.10737620008532      1.62019438852151
  C   -11.24833655009546     -6.47194681138153      1.81613987900191
  C   -10.61808607215747     -7.40499967303596      0.98165693214126
  C   -9.74592234410313     -6.99747835621536     -0.02728571688439
  C   -9.49627181730292     -5.63789653232079     -0.19204902537999
  H   -9.90252488590533     -3.62452839424044      0.48556220709450
  H   -11.45505437541801     -4.37134248471741      2.26298921273172
  H   -10.81295843821383     -8.46485830796527      1.12271724538267
  H   -9.25622991775641     -7.71110833683490     -0.68227655098670
  S   -8.43438731617473     -5.12172002370652     -1.56236071084524
  O   -7.22770171858878     -4.59763953221767     -0.40923428913053
  O   -6.31925188591266     -3.44718858319792     -2.07743233504566
  O   -7.97913893792086     -6.35760656073280     -2.25139075638617
  C   -12.21672763215948     -6.91811990909943      2.88463140316245
  H   -12.15084439807769     -6.28529797857200      3.77474937498517
  H   -13.25154868433667     -6.86382750162931      2.52350611001489
  H   -12.03016787954420     -7.95217040333588      3.18714545849855
