33
Coordinates from ORCA-job 4-NO2PhN2+~TsO-_B3LYPG-6-31G_dp-NX-Scan-d89-09-n800
  C   -4.60153391235908     -1.53544579155835      0.37075653470178
  N   -5.59336482212953     -1.26901767634374      1.30684035048395
  N   -6.49105112326193     -1.11102317176299      1.96962529907345
  C   -3.28014905894696     -1.24627127006075      0.74917878066127
  C   -2.26825254745167     -1.48582579995222     -0.16803473731189
  C   -2.61588443198579     -1.98427693604541     -1.42425742683619
  N   -1.53062317540019     -2.22911500758399     -2.40381588732330
  O   -0.38352386969657     -1.98218294275693     -2.04131078954397
  O   -1.85471829691842     -2.65833650624491     -3.50590464553001
  C   -3.92849280095093     -2.25855813246158     -1.79928045599241
  C   -4.95896544518879     -2.04382845386900     -0.88835951994724
  H   -3.06504316135621     -0.85297331929770      1.73579532707951
  H   -1.22949103490335     -1.29081785575486      0.06452943407631
  H   -4.13382090698824     -2.64823804384741     -2.78794936126241
  H   -5.99824700255793     -2.26670420079671     -1.12795211590170
  C   -8.67199093309527     -5.82924138898460      1.50793292140938
  C   -9.59960518953168     -6.85755901731805      1.67846182836958
  C   -10.84161565768642     -6.82816061588585      1.03144715121396
  C   -11.13187224227282     -5.73981170565419      0.19351566793712
  C   -10.21581723820714     -4.70760191442942      0.01055966015541
  C   -8.98697117658531     -4.75803202518290      0.67341885254129
  H   -7.70462425240594     -5.85807440094913      1.99670197638456
  H   -9.35199511767133     -7.69911872863907      2.32086304964377
  H   -12.08646454053252     -5.70514395667752     -0.32564788455609
  H   -10.43472338188849     -3.87619223864949     -0.65102577370930
  S   -7.81948011486919     -3.41639635150401      0.47703240423415
  O   -6.46164724598480     -3.95056122922081      0.77762284689704
  O   -8.22200909193604     -2.37408204953712      1.50958076511017
  O   -7.97098779781185     -2.90835382827622     -0.91348924483014
  C   -11.85208301627065     -7.93340047642483      1.23016260769144
  H   -11.41808352422187     -8.78219406972290      1.76539375519656
  H   -12.71423582949516     -7.58132763369536      1.80958838941998
  H   -12.23723205943898     -8.29923326091201      0.27252024046400
