Coordinates from ORCA-job PhN2+~HSO4-_B3LYPG-6-31G_dp-NX-Scan-d89-09-n800
 OpenBabel11261920163D

 19 18  0  0  0  0  0  0  0  0999 V2000
   -3.2742    0.1823   -0.2190 C   0  0  0  0  0  0  0  0  0  0  0  0
   -4.3343   -0.3218    0.6024 N   0  0  0  0  0  0  0  0  0  0  0  0
   -4.5620    0.3057    1.7122 N   0  0  0  0  0  0  0  0  0  0  0  0
   -2.2992   -0.7270   -0.6467 C   0  0  0  0  0  0  0  0  0  0  0  0
   -1.3077   -0.3415   -1.5507 C   0  0  0  0  0  0  0  0  0  0  0  0
   -1.2771    0.9576   -2.0598 C   0  0  0  0  0  0  0  0  0  0  0  0
   -2.2545    1.8719   -1.6585 C   0  0  0  0  0  0  0  0  0  0  0  0
   -3.2394    1.4982   -0.7335 C   0  0  0  0  0  0  0  0  0  0  0  0
   -2.3393   -1.7417   -0.2636 H   0  0  0  0  0  0  0  0  0  0  0  0
   -0.5588   -1.0640   -1.8629 H   0  0  0  0  0  0  0  0  0  0  0  0
   -0.5113    1.2533   -2.7701 H   0  0  0  0  0  0  0  0  0  0  0  0
   -2.2599    2.8772   -2.0685 H   0  0  0  0  0  0  0  0  0  0  0  0
   -4.0241    2.2019   -0.4718 H   0  0  0  0  0  0  0  0  0  0  0  0
   -1.4209    3.0712    1.1363 S   0  0  0  0  0  0  0  0  0  0  0  0
   -0.7430    1.8685    1.5890 O   0  0  0  0  0  0  0  0  0  0  0  0
   -3.9873    1.0759    1.9892 O   0  0  0  0  0  0  0  0  0  0  0  0
   -2.6426    3.5045    1.8080 O   0  0  0  0  0  0  0  0  0  0  0  0
   -0.7896    3.9612    0.1760 O   0  0  0  0  0  0  0  0  0  0  0  0
   -4.1960    1.5288    2.8495 H   0  0  0  0  0  0  0  0  0  0  0  0
  1  2  1  0  0  0  0
  2  3  2  0  0  0  0
  3 16  1  0  0  0  0
  4  9  1  0  0  0  0
  4  1  1  0  0  0  0
  5  4  2  0  0  0  0
  6  7  2  0  0  0  0
  6  5  1  0  0  0  0
  7  8  1  0  0  0  0
  8 13  1  0  0  0  0
  8  1  2  0  0  0  0
 10  5  1  0  0  0  0
 11  6  1  0  0  0  0
 12  7  1  0  0  0  0
 14 15  2  0  0  0  0
 14 17  1  0  0  0  0
 16 19  1  0  0  0  0
 18 14  1  0  0  0  0
M  RAD  2  17   2  18   2
M  END
