Coordinates from ORCA-job PhN2+~HSO4-_B3LYPG-6-31G_dp-NX-Scan-d89-09-n800
 OpenBabel11261920153D

 19 19  0  0  1  0  0  0  0  0999 V2000
   -1.5992   -0.5772    0.3340 C   0  0  0  0  0  0  0  0  0  0  0  0
   -1.3159   -1.4194    1.3035 N   0  0  0  0  0  0  0  0  0  0  0  0
   -1.0731   -2.1186    2.1716 N   0  0  0  0  0  0  0  0  0  0  0  0
   -2.6082   -0.9012   -0.6512 C   0  0  0  0  0  0  0  0  0  0  0  0
   -3.0030    0.0442   -1.5275 C   0  0  0  0  0  0  0  0  0  0  0  0
   -2.5562    1.4594   -1.3879 C   0  0  2  0  0  0  0  0  0  0  0  0
   -1.2859    1.6139   -0.6244 C   0  0  0  0  0  0  0  0  0  0  0  0
   -0.8774    0.6731    0.2485 C   0  0  0  0  0  0  0  0  0  0  0  0
   -3.0026   -1.9117   -0.6870 H   0  0  0  0  0  0  0  0  0  0  0  0
   -3.7314   -0.1885   -2.2967 H   0  0  0  0  0  0  0  0  0  0  0  0
   -2.5396    2.0034   -2.3326 H   0  0  0  0  0  0  0  0  0  0  0  0
   -0.7387    2.5422   -0.7303 H   0  0  0  0  0  0  0  0  0  0  0  0
    0.0016    0.8148    0.8689 H   0  0  0  0  0  0  0  0  0  0  0  0
   -3.6214    3.5184    0.0872 S   0  0  0  0  0  0  0  0  0  0  0  0
   -2.6101    4.3349   -0.5588 O   0  0  0  0  0  0  0  0  0  0  0  0
   -2.9833    3.0808    1.5335 O   0  0  0  0  0  0  0  0  0  0  0  0
   -4.9716    3.9914    0.3385 O   0  0  0  0  0  0  0  0  0  0  0  0
   -3.7700    2.1086   -0.6520 O   0  0  0  0  0  0  0  0  0  0  0  0
   -3.7351    2.8937    2.1203 H   0  0  0  0  0  0  0  0  0  0  0  0
  1  2  1  0  0  0  0
  2  3  1  0  0  0  0
  4  1  1  0  0  0  0
  5  6  1  0  0  0  0
  5  4  2  0  0  0  0
  6 11  1  6  0  0  0
  6 18  1  0  0  0  0
  6  7  1  0  0  0  0
  7  8  1  0  0  0  0
  8  1  2  0  0  0  0
  8 13  1  0  0  0  0
  9  4  1  0  0  0  0
 10  5  1  0  0  0  0
 12  7  1  0  0  0  0
 14 17  2  0  0  0  0
 14 16  1  0  0  0  0
 15 14  2  0  0  0  0
 16 19  1  0  0  0  0
 18 14  1  0  0  0  0
M  RAD  3   2   2   3   3   7   2
M  END
