Coordinates from ORCA-job PhN2+~HSO4-_B3LYPG-6-31G_dp-NX-Scan-d89-09-n800
 OpenBabel11261920163D

 19 18  0  0  0  0  0  0  0  0999 V2000
   -2.6935    0.1904   -0.2503 C   0  0  0  0  0  0  0  0  0  0  0  0
   -3.2900   -0.0865    0.9901 N   0  0  0  0  0  0  0  0  0  0  0  0
   -3.8196    0.4629    1.8886 N   0  0  0  0  0  0  0  0  0  0  0  0
   -2.1409   -0.9322   -0.8881 C   0  0  0  0  0  0  0  0  0  0  0  0
   -1.5391   -0.7866   -2.1323 C   0  0  0  0  0  0  0  0  0  0  0  0
   -1.4998    0.4727   -2.7378 C   0  0  0  0  0  0  0  0  0  0  0  0
   -2.0586    1.5843   -2.0995 C   0  0  0  0  0  0  0  0  0  0  0  0
   -2.6588    1.4624   -0.8500 C   0  0  0  0  0  0  0  0  0  0  0  0
   -2.1927   -1.8949   -0.3914 H   0  0  0  0  0  0  0  0  0  0  0  0
   -1.1057   -1.6484   -2.6286 H   0  0  0  0  0  0  0  0  0  0  0  0
   -1.0316    0.5893   -3.7102 H   0  0  0  0  0  0  0  0  0  0  0  0
   -2.0205    2.5603   -2.5725 H   0  0  0  0  0  0  0  0  0  0  0  0
   -3.0801    2.3263   -0.3578 H   0  0  0  0  0  0  0  0  0  0  0  0
   -2.2186    3.2339    2.2485 S   0  0  0  0  0  0  0  0  0  0  0  0
   -1.2617    2.1345    2.2214 O   0  0  0  0  0  0  0  0  0  0  0  0
   -3.9099    2.1324    1.7139 O   0  0  0  0  0  0  0  0  0  0  0  0
   -2.7492    3.6827    3.5321 O   0  0  0  0  0  0  0  0  0  0  0  0
   -2.2561    4.1520    1.1151 O   0  0  0  0  0  0  0  0  0  0  0  0
   -4.4948    2.3267    2.4663 H   0  0  0  0  0  0  0  0  0  0  0  0
  1  2  1  0  0  0  0
  2  3  1  0  0  0  0
  4  9  1  0  0  0  0
  4  1  2  0  0  0  0
  5  4  1  0  0  0  0
  6  5  2  0  0  0  0
  6  7  1  0  0  0  0
  7  8  2  0  0  0  0
  8 13  1  0  0  0  0
  8  1  1  0  0  0  0
 10  5  1  0  0  0  0
 11  6  1  0  0  0  0
 12  7  1  0  0  0  0
 14 17  1  0  0  0  0
 15 14  2  0  0  0  0
 16  3  1  0  0  0  0
 16 19  1  0  0  0  0
 18 14  1  0  0  0  0
M  RAD  4   2   2   3   2  17   2  18   2
M  END
