Coordinates from ORCA-job PhN2+~HSO4-_B3LYPG-6-31G_dp-NX-Scan-d89-09-n800
 OpenBabel11261920153D

 19 19  0  0  1  0  0  0  0  0999 V2000
   -1.6425   -0.2766    0.2583 C   0  0  1  0  0  0  0  0  0  0  0  0
   -1.8498   -0.4083    1.5524 N   0  0  0  0  0  0  0  0  0  0  0  0
   -2.1440   -0.3077    2.6444 N   0  0  0  0  0  0  0  0  0  0  0  0
   -2.6936   -0.7196   -0.6411 C   0  0  0  0  0  0  0  0  0  0  0  0
   -3.0321    0.0936   -1.6624 C   0  0  0  0  0  0  0  0  0  0  0  0
   -2.4869    1.4743   -1.6953 C   0  0  2  0  0  0  0  0  0  0  0  0
   -1.1090    1.5828   -1.1670 C   0  0  0  0  0  0  0  0  0  0  0  0
   -0.7348    0.7818   -0.1490 C   0  0  0  0  0  0  0  0  0  0  0  0
   -3.1822   -1.6733   -0.4676 H   0  0  0  0  0  0  0  0  0  0  0  0
   -3.7809   -0.1953   -2.3918 H   0  0  0  0  0  0  0  0  0  0  0  0
   -2.6314    1.9844   -2.6448 H   0  0  0  0  0  0  0  0  0  0  0  0
   -0.4663    2.3806   -1.5198 H   0  0  0  0  0  0  0  0  0  0  0  0
    0.1952    0.9264    0.3910 H   0  0  0  0  0  0  0  0  0  0  0  0
   -3.2941    3.0398    0.5729 S   0  0  0  0  0  0  0  0  0  0  0  0
   -2.0378    3.7663    0.5811 O   0  0  0  0  0  0  0  0  0  0  0  0
   -3.0965    1.7799    1.6470 O   0  0  0  0  0  0  0  0  0  0  0  0
   -4.5527    3.6743    0.9342 O   0  0  0  0  0  0  0  0  0  0  0  0
   -3.5489    2.3221   -0.8248 O   0  0  0  0  0  0  0  0  0  0  0  0
   -3.9327    1.7369    2.1397 H   0  0  0  0  0  0  0  0  0  0  0  0
  1  2  1  1  0  0  0
  2  3  1  0  0  0  0
  4  9  1  0  0  0  0
  4  1  1  0  0  0  0
  5  4  2  0  0  0  0
  6 11  1  6  0  0  0
  6  5  1  0  0  0  0
  6  7  1  0  0  0  0
  6 18  1  0  0  0  0
  7  8  2  0  0  0  0
  8  1  1  0  0  0  0
  8 13  1  0  0  0  0
 10  5  1  0  0  0  0
 12  7  1  0  0  0  0
 14 15  2  0  0  0  0
 14 17  2  0  0  0  0
 14 16  1  0  0  0  0
 16 19  1  0  0  0  0
 18 14  1  0  0  0  0
M  RAD  3   1   2   2   2   3   3
M  END
