Coordinates from ORCA-job PhN2+~HSO4-_B3LYPG-6-31G_dp-NX-Scan-d89-09-n800
 OpenBabel11261920153D

 19 19  0  0  1  0  0  0  0  0999 V2000
   -1.4606   -1.0362    0.1753 C   0  0  0  0  0  0  0  0  0  0  0  0
   -1.1095   -2.2607    0.5016 N   0  0  0  0  0  0  0  0  0  0  0  0
   -0.8079   -3.3253    0.7865 N   0  0  0  0  0  0  0  0  0  0  0  0
   -2.4815   -0.8163   -0.8278 C   0  0  0  0  0  0  0  0  0  0  0  0
   -2.8354    0.4382   -1.1662 C   0  0  0  0  0  0  0  0  0  0  0  0
   -2.2637    1.6409   -0.4954 C   0  0  2  0  0  0  0  0  0  0  0  0
   -1.1522    1.3483    0.4525 C   0  0  0  0  0  0  0  0  0  0  0  0
   -0.7971    0.0929    0.7893 C   0  0  0  0  0  0  0  0  0  0  0  0
   -2.9322   -1.6773   -1.3105 H   0  0  0  0  0  0  0  0  0  0  0  0
   -3.5850    0.6153   -1.9297 H   0  0  0  0  0  0  0  0  0  0  0  0
   -1.9974    2.4230   -1.2121 H   0  0  0  0  0  0  0  0  0  0  0  0
   -0.6415    2.1968    0.8952 H   0  0  0  0  0  0  0  0  0  0  0  0
    0.0030   -0.0943    1.4989 H   0  0  0  0  0  0  0  0  0  0  0  0
   -4.2538    3.4384   -0.2940 S   0  0  0  0  0  0  0  0  0  0  0  0
   -4.4537    3.1831   -1.7081 O   0  0  0  0  0  0  0  0  0  0  0  0
   -3.2288    4.7151   -0.2400 O   0  0  0  0  0  0  0  0  0  0  0  0
   -5.3430    3.6952    0.6293 O   0  0  0  0  0  0  0  0  0  0  0  0
   -3.3706    2.2734    0.3689 O   0  0  0  0  0  0  0  0  0  0  0  0
   -3.3102    5.1117    0.6437 H   0  0  0  0  0  0  0  0  0  0  0  0
  1  2  1  0  0  0  0
  1  8  2  0  0  0  0
  2  3  1  0  0  0  0
  4  1  1  0  0  0  0
  5  4  2  0  0  0  0
  5  6  1  0  0  0  0
  6 11  1  6  0  0  0
  6 18  1  0  0  0  0
  6  7  1  0  0  0  0
  7  8  1  0  0  0  0
  7 12  1  0  0  0  0
  8 13  1  0  0  0  0
  9  4  1  0  0  0  0
 10  5  1  0  0  0  0
 14 16  1  0  0  0  0
 14 18  1  0  0  0  0
 14 17  2  0  0  0  0
 15 14  2  0  0  0  0
 16 19  1  0  0  0  0
M  RAD  3   2   2   3   3   7   2
M  END
