Coordinates from ORCA-job PhN2+~HSO4-_B3LYPG-6-31G_dp-NX-Scan-d89-09-n800
 OpenBabel11261920153D

 19 19  0  0  1  0  0  0  0  0999 V2000
   -1.6056   -0.5438    0.3425 C   0  0  0  0  0  0  0  0  0  0  0  0
   -1.3267   -1.3658    1.3307 N   0  0  0  0  0  0  0  0  0  0  0  0
   -1.0892   -2.0485    2.2133 N   0  0  0  0  0  0  0  0  0  0  0  0
   -2.6224   -0.8814   -0.6297 C   0  0  0  0  0  0  0  0  0  0  0  0
   -3.0109    0.0464   -1.5275 C   0  0  0  0  0  0  0  0  0  0  0  0
   -2.5496    1.4598   -1.4243 C   0  0  2  0  0  0  0  0  0  0  0  0
   -1.2748    1.6201   -0.6709 C   0  0  0  0  0  0  0  0  0  0  0  0
   -0.8712    0.6959    0.2223 C   0  0  0  0  0  0  0  0  0  0  0  0
   -3.0280   -1.8880   -0.6385 H   0  0  0  0  0  0  0  0  0  0  0  0
   -3.7454   -0.1972   -2.2874 H   0  0  0  0  0  0  0  0  0  0  0  0
   -2.5322    1.9801   -2.3821 H   0  0  0  0  0  0  0  0  0  0  0  0
   -0.7183    2.5395   -0.8012 H   0  0  0  0  0  0  0  0  0  0  0  0
    0.0128    0.8436    0.8341 H   0  0  0  0  0  0  0  0  0  0  0  0
   -3.5950    3.4992    0.1160 S   0  0  0  0  0  0  0  0  0  0  0  0
   -2.5396    4.3219   -0.4457 O   0  0  0  0  0  0  0  0  0  0  0  0
   -3.0222    2.9567    1.5552 O   0  0  0  0  0  0  0  0  0  0  0  0
   -4.9382    3.9998    0.3527 O   0  0  0  0  0  0  0  0  0  0  0  0
   -3.7634    2.1431   -0.7110 O   0  0  0  0  0  0  0  0  0  0  0  0
   -3.8012    2.7811    2.1092 H   0  0  0  0  0  0  0  0  0  0  0  0
  1  2  1  0  0  0  0
  2  3  1  0  0  0  0
  4  1  1  0  0  0  0
  5  6  1  0  0  0  0
  5  4  2  0  0  0  0
  6 11  1  6  0  0  0
  6 18  1  0  0  0  0
  6  7  1  0  0  0  0
  7  8  1  0  0  0  0
  8  1  2  0  0  0  0
  8 13  1  0  0  0  0
  9  4  1  0  0  0  0
 10  5  1  0  0  0  0
 12  7  1  0  0  0  0
 14 17  2  0  0  0  0
 14 16  1  0  0  0  0
 15 14  2  0  0  0  0
 16 19  1  0  0  0  0
 18 14  1  0  0  0  0
M  RAD  3   2   2   3   3   7   2
M  END
