Coordinates from ORCA-job PhN2+~HSO4-_B3LYPG-6-31G_dp-NX-Scan-d89-09-n800
 OpenBabel11261920153D

 19 19  0  0  1  0  0  0  0  0999 V2000
   -1.4922   -0.8240    0.2804 C   0  0  0  0  0  0  0  0  0  0  0  0
   -1.0484   -1.8535    0.9671 N   0  0  0  0  0  0  0  0  0  0  0  0
   -0.6639   -2.7385    1.5780 N   0  0  0  0  0  0  0  0  0  0  0  0
   -2.5567   -0.9968   -0.6841 C   0  0  0  0  0  0  0  0  0  0  0  0
   -3.0324    0.0686   -1.3574 C   0  0  0  0  0  0  0  0  0  0  0  0
   -2.5715    1.4579   -1.0784 C   0  0  2  0  0  0  0  0  0  0  0  0
   -1.3547    1.5385   -0.2188 C   0  0  0  0  0  0  0  0  0  0  0  0
   -0.8779    0.4747    0.4552 C   0  0  0  0  0  0  0  0  0  0  0  0
   -2.9346   -1.9968   -0.8716 H   0  0  0  0  0  0  0  0  0  0  0  0
   -3.8143   -0.0580   -2.0986 H   0  0  0  0  0  0  0  0  0  0  0  0
   -2.4747    2.0614   -1.9833 H   0  0  0  0  0  0  0  0  0  0  0  0
   -0.8745    2.5058   -0.1221 H   0  0  0  0  0  0  0  0  0  0  0  0
   -0.0126    0.5596    1.1051 H   0  0  0  0  0  0  0  0  0  0  0  0
   -3.7974    3.6895   -0.1654 S   0  0  0  0  0  0  0  0  0  0  0  0
   -2.9687    4.3321   -1.1686 O   0  0  0  0  0  0  0  0  0  0  0  0
   -2.9804    3.8772    1.2401 O   0  0  0  0  0  0  0  0  0  0  0  0
   -5.1815    4.0551    0.0737 O   0  0  0  0  0  0  0  0  0  0  0  0
   -3.7773    2.0966   -0.3579 O   0  0  0  0  0  0  0  0  0  0  0  0
   -3.6076    3.7128    1.9641 H   0  0  0  0  0  0  0  0  0  0  0  0
  1  8  1  0  0  0  0
  1  2  1  0  0  0  0
  2  3  1  0  0  0  0
  4  1  2  0  0  0  0
  5  6  1  0  0  0  0
  5  4  1  0  0  0  0
  6 11  1  6  0  0  0
  6 18  1  0  0  0  0
  6  7  1  0  0  0  0
  7 12  1  0  0  0  0
  7  8  2  0  0  0  0
  8 13  1  0  0  0  0
  9  4  1  0  0  0  0
 10  5  1  0  0  0  0
 14 17  2  0  0  0  0
 14 16  1  0  0  0  0
 15 14  2  0  0  0  0
 16 19  1  0  0  0  0
 18 14  1  0  0  0  0
M  RAD  3   2   2   3   3   5   2
M  END
