Coordinates from ORCA-job PhN2+~HSO4-_B3LYPG-6-31G_dp-NX-Scan-d89-09-n800
 OpenBabel11261920153D

 19 19  0  0  1  0  0  0  0  0999 V2000
   -1.4567   -1.0201    0.1851 C   0  0  0  0  0  0  0  0  0  0  0  0
   -1.0879   -2.2257    0.5574 N   0  0  0  0  0  0  0  0  0  0  0  0
   -0.7699   -3.2720    0.8868 N   0  0  0  0  0  0  0  0  0  0  0  0
   -2.4677   -0.8538   -0.8378 C   0  0  0  0  0  0  0  0  0  0  0  0
   -2.8475    0.3829   -1.2114 C   0  0  0  0  0  0  0  0  0  0  0  0
   -2.3225    1.6119   -0.5532 C   0  0  2  0  0  0  0  0  0  0  0  0
   -1.2027    1.3752    0.3995 C   0  0  0  0  0  0  0  0  0  0  0  0
   -0.8207    0.1385    0.7725 C   0  0  0  0  0  0  0  0  0  0  0  0
   -2.8875   -1.7384   -1.3054 H   0  0  0  0  0  0  0  0  0  0  0  0
   -3.5887    0.5230   -1.9911 H   0  0  0  0  0  0  0  0  0  0  0  0
   -2.0884    2.3958   -1.2778 H   0  0  0  0  0  0  0  0  0  0  0  0
   -0.7140    2.2485    0.8181 H   0  0  0  0  0  0  0  0  0  0  0  0
   -0.0202   -0.0131    1.4900 H   0  0  0  0  0  0  0  0  0  0  0  0
   -4.2348    3.4770   -0.2898 S   0  0  0  0  0  0  0  0  0  0  0  0
   -4.4013    3.3571   -1.7259 O   0  0  0  0  0  0  0  0  0  0  0  0
   -3.1093    4.6514   -0.0914 O   0  0  0  0  0  0  0  0  0  0  0  0
   -5.3345    3.7445    0.6177 O   0  0  0  0  0  0  0  0  0  0  0  0
   -3.4681    2.1962    0.2967 O   0  0  0  0  0  0  0  0  0  0  0  0
   -3.1988    4.9834    0.8176 H   0  0  0  0  0  0  0  0  0  0  0  0
  1  2  1  0  0  0  0
  1  8  2  0  0  0  0
  2  3  1  0  0  0  0
  4  1  1  0  0  0  0
  5  4  2  0  0  0  0
  5  6  1  0  0  0  0
  6 11  1  6  0  0  0
  6 18  1  0  0  0  0
  6  7  1  0  0  0  0
  7  8  1  0  0  0  0
  7 12  1  0  0  0  0
  8 13  1  0  0  0  0
  9  4  1  0  0  0  0
 10  5  1  0  0  0  0
 14 16  1  0  0  0  0
 14 18  1  0  0  0  0
 14 17  2  0  0  0  0
 15 14  2  0  0  0  0
 16 19  1  0  0  0  0
M  RAD  3   2   2   3   3   7   2
M  END
