Coordinates from ORCA-job PhN2+~HSO4-_B3LYPG-6-31G_dp-NX-Scan-d89-09-n800
 OpenBabel11261920153D

 19 19  0  0  1  0  0  0  0  0999 V2000
   -1.4644   -1.0749    0.1864 C   0  0  0  0  0  0  0  0  0  0  0  0
   -1.1082   -2.3116    0.4675 N   0  0  0  0  0  0  0  0  0  0  0  0
   -0.8022   -3.3880    0.7067 N   0  0  0  0  0  0  0  0  0  0  0  0
   -2.5419   -0.8203   -0.7483 C   0  0  0  0  0  0  0  0  0  0  0  0
   -2.8739    0.4438   -1.0772 C   0  0  0  0  0  0  0  0  0  0  0  0
   -2.2010    1.6394   -0.4881 C   0  0  2  0  0  0  0  0  0  0  0  0
   -1.0835    1.3080    0.4423 C   0  0  0  0  0  0  0  0  0  0  0  0
   -0.7507    0.0423    0.7681 C   0  0  0  0  0  0  0  0  0  0  0  0
   -3.0568   -1.6662   -1.1923 H   0  0  0  0  0  0  0  0  0  0  0  0
   -3.6634    0.6351   -1.7956 H   0  0  0  0  0  0  0  0  0  0  0  0
   -1.9016    2.3580   -1.2567 H   0  0  0  0  0  0  0  0  0  0  0  0
   -0.5319    2.1397    0.8674 H   0  0  0  0  0  0  0  0  0  0  0  0
    0.0708   -0.1608    1.4483 H   0  0  0  0  0  0  0  0  0  0  0  0
   -4.1974    3.4731   -0.3512 S   0  0  0  0  0  0  0  0  0  0  0  0
   -4.2190    3.2392   -1.7836 O   0  0  0  0  0  0  0  0  0  0  0  0
   -3.4083    4.8979   -0.1652 O   0  0  0  0  0  0  0  0  0  0  0  0
   -5.3998    3.5369    0.4602 O   0  0  0  0  0  0  0  0  0  0  0  0
   -3.2201    2.4156    0.3683 O   0  0  0  0  0  0  0  0  0  0  0  0
   -3.6677    5.2550    0.7009 H   0  0  0  0  0  0  0  0  0  0  0  0
  1  2  1  0  0  0  0
  1  8  2  0  0  0  0
  2  3  1  0  0  0  0
  4  1  1  0  0  0  0
  5  4  2  0  0  0  0
  5  6  1  0  0  0  0
  6 11  1  6  0  0  0
  6 18  1  0  0  0  0
  6  7  1  0  0  0  0
  7  8  1  0  0  0  0
  7 12  1  0  0  0  0
  8 13  1  0  0  0  0
  9  4  1  0  0  0  0
 10  5  1  0  0  0  0
 14 16  1  0  0  0  0
 14 18  1  0  0  0  0
 14 17  2  0  0  0  0
 15 14  2  0  0  0  0
 16 19  1  0  0  0  0
M  RAD  3   2   2   3   3   7   2
M  END
