Coordinates from ORCA-job PhN2+~HSO4-_B3LYPG-6-31G_dp-NX-Scan-d89-09-n800
 OpenBabel11261920163D

 19 18  0  0  0  0  0  0  0  0999 V2000
   -2.9043    0.2263   -0.2535 C   0  0  0  0  0  0  0  0  0  0  0  0
   -3.6270   -0.1495    0.9086 N   0  0  0  0  0  0  0  0  0  0  0  0
   -4.1326    0.5472    1.7774 N   0  0  0  0  0  0  0  0  0  0  0  0
   -2.1050   -0.8112   -0.7633 C   0  0  0  0  0  0  0  0  0  0  0  0
   -1.3647   -0.6237   -1.9254 C   0  0  0  0  0  0  0  0  0  0  0  0
   -1.4485    0.5898   -2.6129 C   0  0  0  0  0  0  0  0  0  0  0  0
   -2.2686    1.6114   -2.1281 C   0  0  0  0  0  0  0  0  0  0  0  0
   -2.9927    1.4473   -0.9489 C   0  0  0  0  0  0  0  0  0  0  0  0
   -2.0811   -1.7518   -0.2236 H   0  0  0  0  0  0  0  0  0  0  0  0
   -0.7381   -1.4258   -2.3028 H   0  0  0  0  0  0  0  0  0  0  0  0
   -0.8831    0.7366   -3.5281 H   0  0  0  0  0  0  0  0  0  0  0  0
   -2.3411    2.5515   -2.6664 H   0  0  0  0  0  0  0  0  0  0  0  0
   -3.6214    2.2465   -0.5857 H   0  0  0  0  0  0  0  0  0  0  0  0
   -1.8161    3.1011    2.1795 S   0  0  0  0  0  0  0  0  0  0  0  0
   -1.0233    1.8868    2.2544 O   0  0  0  0  0  0  0  0  0  0  0  0
   -3.9579    1.9592    1.6267 O   0  0  0  0  0  0  0  0  0  0  0  0
   -2.4920    3.5994    3.3698 O   0  0  0  0  0  0  0  0  0  0  0  0
   -1.7866    3.9212    0.9803 O   0  0  0  0  0  0  0  0  0  0  0  0
   -4.4369    2.3001    2.3996 H   0  0  0  0  0  0  0  0  0  0  0  0
  1  2  1  0  0  0  0
  2  3  2  0  0  0  0
  4  1  1  0  0  0  0
  4  9  1  0  0  0  0
  5  4  2  0  0  0  0
  6  7  2  0  0  0  0
  6  5  1  0  0  0  0
  7  8  1  0  0  0  0
  8 13  1  0  0  0  0
  8  1  2  0  0  0  0
 10  5  1  0  0  0  0
 11  6  1  0  0  0  0
 12  7  1  0  0  0  0
 14 15  2  0  0  0  0
 14 17  1  0  0  0  0
 16  3  1  0  0  0  0
 16 19  1  0  0  0  0
 18 14  1  0  0  0  0
M  RAD  2  17   2  18   2
M  END
