Coordinates from ORCA-job PhN2+~HSO4-_B3LYPG-6-31G_dp-NX-Scan-d89-09-n800
 OpenBabel11261920153D

 19 19  0  0  1  0  0  0  0  0999 V2000
   -1.5843   -0.3318    0.4025 C   0  0  0  0  0  0  0  0  0  0  0  0
   -1.2755   -1.0576    1.4538 N   0  0  0  0  0  0  0  0  0  0  0  0
   -1.0195   -1.6758    2.3777 N   0  0  0  0  0  0  0  0  0  0  0  0
   -2.7888   -0.6224   -0.3410 C   0  0  0  0  0  0  0  0  0  0  0  0
   -3.1901    0.2238   -1.3103 C   0  0  0  0  0  0  0  0  0  0  0  0
   -2.4955    1.5156   -1.5729 C   0  0  2  0  0  0  0  0  0  0  0  0
   -1.1542    1.6310   -0.9406 C   0  0  0  0  0  0  0  0  0  0  0  0
   -0.7476    0.7848    0.0260 C   0  0  0  0  0  0  0  0  0  0  0  0
   -3.3348   -1.5350   -0.1216 H   0  0  0  0  0  0  0  0  0  0  0  0
   -4.0735    0.0033   -1.9008 H   0  0  0  0  0  0  0  0  0  0  0  0
   -2.4671    1.7575   -2.6377 H   0  0  0  0  0  0  0  0  0  0  0  0
   -0.5249    2.4621   -1.2375 H   0  0  0  0  0  0  0  0  0  0  0  0
    0.2086    0.9134    0.5222 H   0  0  0  0  0  0  0  0  0  0  0  0
   -3.4359    3.3488    0.2966 S   0  0  0  0  0  0  0  0  0  0  0  0
   -2.1789    4.0297    0.5309 O   0  0  0  0  0  0  0  0  0  0  0  0
   -3.4266    2.0688    1.3240 O   0  0  0  0  0  0  0  0  0  0  0  0
   -4.7182    4.0176    0.4298 O   0  0  0  0  0  0  0  0  0  0  0  0
   -3.4669    2.6585   -1.1515 O   0  0  0  0  0  0  0  0  0  0  0  0
   -4.3474    1.7699    1.4080 H   0  0  0  0  0  0  0  0  0  0  0  0
  1  2  1  0  0  0  0
  2  3  1  0  0  0  0
  4  9  1  0  0  0  0
  4  1  2  0  0  0  0
  5  4  1  0  0  0  0
  6 11  1  6  0  0  0
  6  5  1  0  0  0  0
  6 18  1  0  0  0  0
  6  7  1  0  0  0  0
  7  8  2  0  0  0  0
  8  1  1  0  0  0  0
  8 13  1  0  0  0  0
 10  5  1  0  0  0  0
 12  7  1  0  0  0  0
 14 17  2  0  0  0  0
 14 15  2  0  0  0  0
 14 16  1  0  0  0  0
 16 19  1  0  0  0  0
 18 14  1  0  0  0  0
M  RAD  3   2   2   3   3   5   2
M  END
