Coordinates from ORCA-job PhN2+~HSO4-_B3LYPG-6-31G_dp-NX-Scan-d89-09-n800
 OpenBabel11261920153D

 19 19  0  0  1  0  0  0  0  0999 V2000
   -1.5842   -0.3257    0.4016 C   0  0  0  0  0  0  0  0  0  0  0  0
   -1.2805   -1.0426    1.4604 N   0  0  0  0  0  0  0  0  0  0  0  0
   -1.0297   -1.6522    2.3914 N   0  0  0  0  0  0  0  0  0  0  0  0
   -2.7887   -0.6180   -0.3412 C   0  0  0  0  0  0  0  0  0  0  0  0
   -3.1890    0.2252   -1.3135 C   0  0  0  0  0  0  0  0  0  0  0  0
   -2.4943    1.5165   -1.5775 C   0  0  2  0  0  0  0  0  0  0  0  0
   -1.1506    1.6298   -0.9505 C   0  0  0  0  0  0  0  0  0  0  0  0
   -0.7446    0.7866    0.0191 C   0  0  0  0  0  0  0  0  0  0  0  0
   -3.3352   -1.5296   -0.1190 H   0  0  0  0  0  0  0  0  0  0  0  0
   -4.0720    0.0034   -1.9040 H   0  0  0  0  0  0  0  0  0  0  0  0
   -2.4710    1.7612   -2.6417 H   0  0  0  0  0  0  0  0  0  0  0  0
   -0.5193    2.4576   -1.2524 H   0  0  0  0  0  0  0  0  0  0  0  0
    0.2129    0.9144    0.5132 H   0  0  0  0  0  0  0  0  0  0  0  0
   -3.4324    3.3388    0.3049 S   0  0  0  0  0  0  0  0  0  0  0  0
   -2.1710    4.0083    0.5487 O   0  0  0  0  0  0  0  0  0  0  0  0
   -3.4371    2.0514    1.3234 O   0  0  0  0  0  0  0  0  0  0  0  0
   -4.7101    4.0162    0.4388 O   0  0  0  0  0  0  0  0  0  0  0  0
   -3.4633    2.6594   -1.1480 O   0  0  0  0  0  0  0  0  0  0  0  0
   -4.3611    1.7615    1.4039 H   0  0  0  0  0  0  0  0  0  0  0  0
  1  2  1  0  0  0  0
  2  3  1  0  0  0  0
  4  9  1  0  0  0  0
  4  1  2  0  0  0  0
  5  4  1  0  0  0  0
  6 11  1  6  0  0  0
  6  5  1  0  0  0  0
  6 18  1  0  0  0  0
  6  7  1  0  0  0  0
  7  8  2  0  0  0  0
  8  1  1  0  0  0  0
  8 13  1  0  0  0  0
 10  5  1  0  0  0  0
 12  7  1  0  0  0  0
 14 17  2  0  0  0  0
 14 15  2  0  0  0  0
 14 16  1  0  0  0  0
 16 19  1  0  0  0  0
 18 14  1  0  0  0  0
M  RAD  3   2   2   3   3   5   2
M  END
