Coordinates from ORCA-job PhN2+~HSO4-_B3LYPG-6-31G_dp-NX-Scan-d89-09-n800
 OpenBabel11261920153D

 19 19  0  0  1  0  0  0  0  0999 V2000
   -1.4867   -0.8391    0.2766 C   0  0  0  0  0  0  0  0  0  0  0  0
   -1.0373   -1.8788    0.9441 N   0  0  0  0  0  0  0  0  0  0  0  0
   -0.6481   -2.7736    1.5375 N   0  0  0  0  0  0  0  0  0  0  0  0
   -2.5527   -0.9999   -0.6885 C   0  0  0  0  0  0  0  0  0  0  0  0
   -3.0302    0.0738   -1.3471 C   0  0  0  0  0  0  0  0  0  0  0  0
   -2.5674    1.4597   -1.0549 C   0  0  2  0  0  0  0  0  0  0  0  0
   -1.3551    1.5311   -0.1882 C   0  0  0  0  0  0  0  0  0  0  0  0
   -0.8770    0.4589    0.4716 C   0  0  0  0  0  0  0  0  0  0  0  0
   -2.9304   -1.9975   -0.8883 H   0  0  0  0  0  0  0  0  0  0  0  0
   -3.8136   -0.0437   -2.0883 H   0  0  0  0  0  0  0  0  0  0  0  0
   -2.4650    2.0692   -1.9552 H   0  0  0  0  0  0  0  0  0  0  0  0
   -0.8782    2.4982   -0.0747 H   0  0  0  0  0  0  0  0  0  0  0  0
   -0.0140    0.5371    1.1255 H   0  0  0  0  0  0  0  0  0  0  0  0
   -3.8159    3.6946   -0.1817 S   0  0  0  0  0  0  0  0  0  0  0  0
   -3.0182    4.3248   -1.2170 O   0  0  0  0  0  0  0  0  0  0  0  0
   -2.9747    3.9341    1.2017 O   0  0  0  0  0  0  0  0  0  0  0  0
   -5.2014    4.0422    0.0755 O   0  0  0  0  0  0  0  0  0  0  0  0
   -3.7723    2.0975   -0.3335 O   0  0  0  0  0  0  0  0  0  0  0  0
   -3.5829    3.7737    1.9426 H   0  0  0  0  0  0  0  0  0  0  0  0
  1  8  1  0  0  0  0
  1  2  1  0  0  0  0
  2  3  1  0  0  0  0
  4  1  2  0  0  0  0
  5  6  1  0  0  0  0
  5  4  1  0  0  0  0
  6 11  1  6  0  0  0
  6 18  1  0  0  0  0
  6  7  1  0  0  0  0
  7 12  1  0  0  0  0
  7  8  2  0  0  0  0
  8 13  1  0  0  0  0
  9  4  1  0  0  0  0
 10  5  1  0  0  0  0
 14 17  2  0  0  0  0
 14 16  1  0  0  0  0
 15 14  2  0  0  0  0
 16 19  1  0  0  0  0
 18 14  1  0  0  0  0
M  RAD  3   2   2   3   3   5   2
M  END
