Coordinates from ORCA-job PhN2+~HSO4-_B3LYPG-6-31G_dp-NX-Scan-d89-09-n800
 OpenBabel11261920153D

 19 19  0  0  1  0  0  0  0  0999 V2000
   -1.4481   -0.9650    0.2364 C   0  0  0  0  0  0  0  0  0  0  0  0
   -0.9816   -2.0904    0.7310 N   0  0  0  0  0  0  0  0  0  0  0  0
   -0.5796   -3.0678    1.1655 N   0  0  0  0  0  0  0  0  0  0  0  0
   -2.5003   -0.9914   -0.7568 C   0  0  0  0  0  0  0  0  0  0  0  0
   -2.9711    0.1612   -1.2701 C   0  0  0  0  0  0  0  0  0  0  0  0
   -2.4982    1.4985   -0.8129 C   0  0  2  0  0  0  0  0  0  0  0  0
   -1.3483    1.4520    0.1360 C   0  0  0  0  0  0  0  0  0  0  0  0
   -0.8780    0.2993    0.6504 C   0  0  0  0  0  0  0  0  0  0  0  0
   -2.8773   -1.9519   -1.0930 H   0  0  0  0  0  0  0  0  0  0  0  0
   -3.7465    0.1459   -2.0289 H   0  0  0  0  0  0  0  0  0  0  0  0
   -2.3268    2.1794   -1.6506 H   0  0  0  0  0  0  0  0  0  0  0  0
   -0.9077    2.3994    0.4270 H   0  0  0  0  0  0  0  0  0  0  0  0
   -0.0534    0.2927    1.3567 H   0  0  0  0  0  0  0  0  0  0  0  0
   -4.0242    3.6734   -0.2989 S   0  0  0  0  0  0  0  0  0  0  0  0
   -3.6927    4.0779   -1.6518 O   0  0  0  0  0  0  0  0  0  0  0  0
   -2.8998    4.4016    0.6462 O   0  0  0  0  0  0  0  0  0  0  0  0
   -5.3255    3.9016    0.3009 O   0  0  0  0  0  0  0  0  0  0  0  0
   -3.7020    2.1162   -0.0782 O   0  0  0  0  0  0  0  0  0  0  0  0
   -3.2599    4.4297    1.5486 H   0  0  0  0  0  0  0  0  0  0  0  0
  1  8  1  0  0  0  0
  1  2  1  0  0  0  0
  2  3  1  0  0  0  0
  4  1  2  0  0  0  0
  5  6  1  0  0  0  0
  5  4  1  0  0  0  0
  6 11  1  6  0  0  0
  6 18  1  0  0  0  0
  6  7  1  0  0  0  0
  7 12  1  0  0  0  0
  7  8  2  0  0  0  0
  8 13  1  0  0  0  0
  9  4  1  0  0  0  0
 10  5  1  0  0  0  0
 14 18  1  0  0  0  0
 14 17  2  0  0  0  0
 14 16  1  0  0  0  0
 15 14  2  0  0  0  0
 16 19  1  0  0  0  0
M  RAD  3   2   2   3   3   5   2
M  END
