Coordinates from ORCA-job PhN2+~HSO4-_B3LYPG-6-31G_dp-NX-Scan-d89-09-n800
 OpenBabel11261920153D

 19 19  0  0  1  0  0  0  0  0999 V2000
   -1.4577   -0.9389    0.2470 C   0  0  0  0  0  0  0  0  0  0  0  0
   -0.9949   -2.0456    0.7850 N   0  0  0  0  0  0  0  0  0  0  0  0
   -0.5946   -3.0044    1.2599 N   0  0  0  0  0  0  0  0  0  0  0  0
   -2.5109   -0.9987   -0.7433 C   0  0  0  0  0  0  0  0  0  0  0  0
   -2.9835    0.1365   -1.2925 C   0  0  0  0  0  0  0  0  0  0  0  0
   -2.5157    1.4877   -0.8730 C   0  0  2  0  0  0  0  0  0  0  0  0
   -1.3529    1.4723    0.0615 C   0  0  0  0  0  0  0  0  0  0  0  0
   -0.8807    0.3372    0.6116 C   0  0  0  0  0  0  0  0  0  0  0  0
   -2.8865   -1.9701   -1.0485 H   0  0  0  0  0  0  0  0  0  0  0  0
   -3.7598    0.0958   -2.0495 H   0  0  0  0  0  0  0  0  0  0  0  0
   -2.3609    2.1536   -1.7258 H   0  0  0  0  0  0  0  0  0  0  0  0
   -0.9054    2.4272    0.3145 H   0  0  0  0  0  0  0  0  0  0  0  0
   -0.0485    0.3527    1.3089 H   0  0  0  0  0  0  0  0  0  0  0  0
   -3.9807    3.6846   -0.2780 S   0  0  0  0  0  0  0  0  0  0  0  0
   -3.5489    4.1658   -1.5764 O   0  0  0  0  0  0  0  0  0  0  0  0
   -2.8971    4.3052    0.7838 O   0  0  0  0  0  0  0  0  0  0  0  0
   -5.3100    3.9208    0.2534 O   0  0  0  0  0  0  0  0  0  0  0  0
   -3.7243    2.1056   -0.1453 O   0  0  0  0  0  0  0  0  0  0  0  0
   -3.3082    4.2749    1.6640 H   0  0  0  0  0  0  0  0  0  0  0  0
  1  8  1  0  0  0  0
  1  2  1  0  0  0  0
  2  3  1  0  0  0  0
  4  1  2  0  0  0  0
  5  6  1  0  0  0  0
  5  4  1  0  0  0  0
  6 11  1  6  0  0  0
  6 18  1  0  0  0  0
  6  7  1  0  0  0  0
  7 12  1  0  0  0  0
  7  8  2  0  0  0  0
  8 13  1  0  0  0  0
  9  4  1  0  0  0  0
 10  5  1  0  0  0  0
 14 18  1  0  0  0  0
 14 17  2  0  0  0  0
 14 16  1  0  0  0  0
 15 14  2  0  0  0  0
 16 19  1  0  0  0  0
M  RAD  3   2   2   3   3   5   2
M  END
