Coordinates from ORCA-job PhN2+~HSO4-_B3LYPG-6-31G_dp-NX-Scan-d89-09-n800
 OpenBabel11261920153D

 19 19  0  0  1  0  0  0  0  0999 V2000
   -1.4653   -0.9231    0.2533 C   0  0  0  0  0  0  0  0  0  0  0  0
   -1.0105   -2.0197    0.8178 N   0  0  0  0  0  0  0  0  0  0  0  0
   -0.6166   -2.9684    1.3176 N   0  0  0  0  0  0  0  0  0  0  0  0
   -2.5145   -0.9988   -0.7402 C   0  0  0  0  0  0  0  0  0  0  0  0
   -2.9841    0.1278   -1.3094 C   0  0  0  0  0  0  0  0  0  0  0  0
   -2.5210    1.4849   -0.9040 C   0  0  2  0  0  0  0  0  0  0  0  0
   -1.3516    1.4833    0.0224 C   0  0  0  0  0  0  0  0  0  0  0  0
   -0.8822    0.3571    0.5928 C   0  0  0  0  0  0  0  0  0  0  0  0
   -2.8887   -1.9749   -1.0316 H   0  0  0  0  0  0  0  0  0  0  0  0
   -3.7567    0.0755   -2.0693 H   0  0  0  0  0  0  0  0  0  0  0  0
   -2.3761    2.1465   -1.7615 H   0  0  0  0  0  0  0  0  0  0  0  0
   -0.8987    2.4408    0.2552 H   0  0  0  0  0  0  0  0  0  0  0  0
   -0.0475    0.3821    1.2866 H   0  0  0  0  0  0  0  0  0  0  0  0
   -3.9636    3.6836   -0.2626 S   0  0  0  0  0  0  0  0  0  0  0  0
   -3.4968    4.1993   -1.5355 O   0  0  0  0  0  0  0  0  0  0  0  0
   -2.8945    4.2543    0.8408 O   0  0  0  0  0  0  0  0  0  0  0  0
   -5.3007    3.9226    0.2476 O   0  0  0  0  0  0  0  0  0  0  0  0
   -3.7321    2.0980   -0.1751 O   0  0  0  0  0  0  0  0  0  0  0  0
   -3.3200    4.1914    1.7125 H   0  0  0  0  0  0  0  0  0  0  0  0
  1  8  1  0  0  0  0
  1  2  1  0  0  0  0
  2  3  1  0  0  0  0
  4  1  2  0  0  0  0
  5  6  1  0  0  0  0
  5  4  1  0  0  0  0
  6 11  1  6  0  0  0
  6 18  1  0  0  0  0
  6  7  1  0  0  0  0
  7 12  1  0  0  0  0
  7  8  2  0  0  0  0
  8 13  1  0  0  0  0
  9  4  1  0  0  0  0
 10  5  1  0  0  0  0
 14 18  1  0  0  0  0
 14 17  2  0  0  0  0
 14 16  1  0  0  0  0
 15 14  2  0  0  0  0
 16 19  1  0  0  0  0
M  RAD  3   2   2   3   3   5   2
M  END
