Coordinates from ORCA-job PhN2+~HSO4-_B3LYPG-6-31G_dp-NX-Scan-d89-09-n800
 OpenBabel11261920153D

 19 19  0  0  1  0  0  0  0  0999 V2000
   -1.6194   -0.2651    0.2755 C   0  0  1  0  0  0  0  0  0  0  0  0
   -1.7637   -0.4476    1.5707 N   0  0  0  0  0  0  0  0  0  0  0  0
   -1.9939   -0.4584    2.6830 N   0  0  0  0  0  0  0  0  0  0  0  0
   -2.7114   -0.6839   -0.5848 C   0  0  0  0  0  0  0  0  0  0  0  0
   -3.0650    0.1239   -1.6043 C   0  0  0  0  0  0  0  0  0  0  0  0
   -2.4854    1.4886   -1.6930 C   0  0  2  0  0  0  0  0  0  0  0  0
   -1.1048    1.5898   -1.1671 C   0  0  0  0  0  0  0  0  0  0  0  0
   -0.7213    0.7920   -0.1502 C   0  0  0  0  0  0  0  0  0  0  0  0
   -3.2157   -1.6247   -0.3867 H   0  0  0  0  0  0  0  0  0  0  0  0
   -3.8465   -0.1583   -2.3016 H   0  0  0  0  0  0  0  0  0  0  0  0
   -2.6099    1.9529   -2.6692 H   0  0  0  0  0  0  0  0  0  0  0  0
   -0.4615    2.3841   -1.5271 H   0  0  0  0  0  0  0  0  0  0  0  0
    0.2186    0.9357    0.3727 H   0  0  0  0  0  0  0  0  0  0  0  0
   -3.2993    3.0555    0.5520 S   0  0  0  0  0  0  0  0  0  0  0  0
   -2.0226    3.7370    0.6489 O   0  0  0  0  0  0  0  0  0  0  0  0
   -3.1840    1.7483    1.5721 O   0  0  0  0  0  0  0  0  0  0  0  0
   -4.5533    3.7125    0.8857 O   0  0  0  0  0  0  0  0  0  0  0  0
   -3.5175    2.4181   -0.8926 O   0  0  0  0  0  0  0  0  0  0  0  0
   -4.0646    1.6618    1.9734 H   0  0  0  0  0  0  0  0  0  0  0  0
  1  2  1  1  0  0  0
  2  3  1  0  0  0  0
  4  9  1  0  0  0  0
  4  1  1  0  0  0  0
  5  4  2  0  0  0  0
  6 11  1  6  0  0  0
  6  5  1  0  0  0  0
  6  7  1  0  0  0  0
  6 18  1  0  0  0  0
  7  8  2  0  0  0  0
  8  1  1  0  0  0  0
  8 13  1  0  0  0  0
 10  5  1  0  0  0  0
 12  7  1  0  0  0  0
 14 15  2  0  0  0  0
 14 17  2  0  0  0  0
 14 16  1  0  0  0  0
 16 19  1  0  0  0  0
 18 14  1  0  0  0  0
M  RAD  3   1   2   2   2   3   3
M  END
