Coordinates from ORCA-job PhN2+~HSO4-_B3LYPG-6-31G_dp-NX-Scan-d89-09-n800
 OpenBabel11261920153D

 19 19  0  0  1  0  0  0  0  0999 V2000
   -1.4610   -0.9319    0.2498 C   0  0  0  0  0  0  0  0  0  0  0  0
   -1.0017   -2.0342    0.7996 N   0  0  0  0  0  0  0  0  0  0  0  0
   -0.6041   -2.9885    1.2856 N   0  0  0  0  0  0  0  0  0  0  0  0
   -2.5125   -0.9989   -0.7420 C   0  0  0  0  0  0  0  0  0  0  0  0
   -2.9838    0.1325   -1.3001 C   0  0  0  0  0  0  0  0  0  0  0  0
   -2.5182    1.4864   -0.8868 C   0  0  2  0  0  0  0  0  0  0  0  0
   -1.3525    1.4773    0.0442 C   0  0  0  0  0  0  0  0  0  0  0  0
   -0.8815    0.3461    0.6034 C   0  0  0  0  0  0  0  0  0  0  0  0
   -2.8873   -1.9724   -1.0411 H   0  0  0  0  0  0  0  0  0  0  0  0
   -3.7584    0.0866   -2.0584 H   0  0  0  0  0  0  0  0  0  0  0  0
   -2.3677    2.1504   -1.7417 H   0  0  0  0  0  0  0  0  0  0  0  0
   -0.9027    2.4334    0.2884 H   0  0  0  0  0  0  0  0  0  0  0  0
   -0.0483    0.3659    1.2992 H   0  0  0  0  0  0  0  0  0  0  0  0
   -3.9731    3.6843   -0.2713 S   0  0  0  0  0  0  0  0  0  0  0  0
   -3.5259    4.1811   -1.5585 O   0  0  0  0  0  0  0  0  0  0  0  0
   -2.8955    4.2825    0.8092 O   0  0  0  0  0  0  0  0  0  0  0  0
   -5.3058    3.9217    0.2510 O   0  0  0  0  0  0  0  0  0  0  0  0
   -3.7280    2.1021   -0.1589 O   0  0  0  0  0  0  0  0  0  0  0  0
   -3.3130    4.2379    1.6859 H   0  0  0  0  0  0  0  0  0  0  0  0
  1  8  1  0  0  0  0
  1  2  1  0  0  0  0
  2  3  1  0  0  0  0
  4  1  2  0  0  0  0
  5  6  1  0  0  0  0
  5  4  1  0  0  0  0
  6 11  1  6  0  0  0
  6 18  1  0  0  0  0
  6  7  1  0  0  0  0
  7 12  1  0  0  0  0
  7  8  2  0  0  0  0
  8 13  1  0  0  0  0
  9  4  1  0  0  0  0
 10  5  1  0  0  0  0
 14 18  1  0  0  0  0
 14 17  2  0  0  0  0
 14 16  1  0  0  0  0
 15 14  2  0  0  0  0
 16 19  1  0  0  0  0
M  RAD  3   2   2   3   3   5   2
M  END
