Coordinates from ORCA-job PhN2+~HSO4-_B3LYPG-6-31G_dp-NX-Scan-d89-09-n800
 OpenBabel11261920163D

 19 18  0  0  0  0  0  0  0  0999 V2000
   -3.3057    0.1800   -0.2330 C   0  0  0  0  0  0  0  0  0  0  0  0
   -4.3811   -0.3283    0.5706 N   0  0  0  0  0  0  0  0  0  0  0  0
   -4.6117    0.2362    1.6908 N   0  0  0  0  0  0  0  0  0  0  0  0
   -2.3119   -0.7187   -0.6347 C   0  0  0  0  0  0  0  0  0  0  0  0
   -1.3026   -0.3172   -1.5127 C   0  0  0  0  0  0  0  0  0  0  0  0
   -1.2818    0.9814   -2.0207 C   0  0  0  0  0  0  0  0  0  0  0  0
   -2.2850    1.8814   -1.6453 C   0  0  0  0  0  0  0  0  0  0  0  0
   -3.2872    1.4914   -0.7489 C   0  0  0  0  0  0  0  0  0  0  0  0
   -2.3453   -1.7336   -0.2516 H   0  0  0  0  0  0  0  0  0  0  0  0
   -0.5343   -1.0273   -1.8052 H   0  0  0  0  0  0  0  0  0  0  0  0
   -0.5025    1.2906   -2.7104 H   0  0  0  0  0  0  0  0  0  0  0  0
   -2.2964    2.8857   -2.0580 H   0  0  0  0  0  0  0  0  0  0  0  0
   -4.0798    2.1854   -0.4873 H   0  0  0  0  0  0  0  0  0  0  0  0
   -1.3449    3.0969    1.0938 S   0  0  0  0  0  0  0  0  0  0  0  0
   -0.7208    1.8780    1.5788 O   0  0  0  0  0  0  0  0  0  0  0  0
   -3.9726    1.0448    2.0144 O   0  0  0  0  0  0  0  0  0  0  0  0
   -2.5773    3.5728    1.7101 O   0  0  0  0  0  0  0  0  0  0  0  0
   -0.6635    3.9382    0.1237 O   0  0  0  0  0  0  0  0  0  0  0  0
   -4.2168    1.4245    2.8829 H   0  0  0  0  0  0  0  0  0  0  0  0
  1  2  1  0  0  0  0
  2  3  2  0  0  0  0
  3 16  1  0  0  0  0
  4  9  1  0  0  0  0
  4  1  1  0  0  0  0
  5  4  2  0  0  0  0
  6  7  2  0  0  0  0
  6  5  1  0  0  0  0
  7  8  1  0  0  0  0
  8 13  1  0  0  0  0
  8  1  2  0  0  0  0
 10  5  1  0  0  0  0
 11  6  1  0  0  0  0
 12  7  1  0  0  0  0
 14 15  2  0  0  0  0
 14 17  1  0  0  0  0
 16 19  1  0  0  0  0
 18 14  1  0  0  0  0
M  RAD  2  17   2  18   2
M  END
