Coordinates from ORCA-job PhN2+~HSO4-_B3LYPG-6-31G_dp-NX-Scan-d89-09-n800
 OpenBabel11261920153D

 19 19  0  0  1  0  0  0  0  0999 V2000
   -1.6102   -0.2629    0.3038 C   0  0  1  0  0  0  0  0  0  0  0  0
   -1.6470   -0.5614    1.5836 N   0  0  0  0  0  0  0  0  0  0  0  0
   -1.7523   -0.7319    2.7031 N   0  0  0  0  0  0  0  0  0  0  0  0
   -2.7397   -0.6480   -0.5184 C   0  0  0  0  0  0  0  0  0  0  0  0
   -3.1047    0.1608   -1.5329 C   0  0  0  0  0  0  0  0  0  0  0  0
   -2.4864    1.5041   -1.6788 C   0  0  2  0  0  0  0  0  0  0  0  0
   -1.1094    1.5989   -1.1389 C   0  0  0  0  0  0  0  0  0  0  0  0
   -0.7227    0.7980   -0.1258 C   0  0  0  0  0  0  0  0  0  0  0  0
   -3.2615   -1.5753   -0.3019 H   0  0  0  0  0  0  0  0  0  0  0  0
   -3.9187   -0.1082   -2.1977 H   0  0  0  0  0  0  0  0  0  0  0  0
   -2.5785    1.9124   -2.6841 H   0  0  0  0  0  0  0  0  0  0  0  0
   -0.4642    2.3938   -1.4947 H   0  0  0  0  0  0  0  0  0  0  0  0
    0.2239    0.9372    0.3860 H   0  0  0  0  0  0  0  0  0  0  0  0
   -3.3213    3.1077    0.5038 S   0  0  0  0  0  0  0  0  0  0  0  0
   -2.0442    3.7731    0.6710 O   0  0  0  0  0  0  0  0  0  0  0  0
   -3.2487    1.7718    1.4800 O   0  0  0  0  0  0  0  0  0  0  0  0
   -4.5829    3.7651    0.8040 O   0  0  0  0  0  0  0  0  0  0  0  0
   -3.4889    2.5168   -0.9701 O   0  0  0  0  0  0  0  0  0  0  0  0
   -4.1634    1.6103    1.7654 H   0  0  0  0  0  0  0  0  0  0  0  0
  1  2  1  1  0  0  0
  2  3  1  0  0  0  0
  4  9  1  0  0  0  0
  4  1  1  0  0  0  0
  5  4  2  0  0  0  0
  6 11  1  6  0  0  0
  6  5  1  0  0  0  0
  6  7  1  0  0  0  0
  6 18  1  0  0  0  0
  7  8  2  0  0  0  0
  8  1  1  0  0  0  0
  8 13  1  0  0  0  0
 10  5  1  0  0  0  0
 12  7  1  0  0  0  0
 14 15  2  0  0  0  0
 14 17  2  0  0  0  0
 14 16  1  0  0  0  0
 16 19  1  0  0  0  0
 18 14  1  0  0  0  0
M  RAD  3   1   2   2   2   3   3
M  END
