Coordinates from ORCA-job PhN2+~HSO4-_B3LYPG-6-31G_dp-NX-Scan-d89-09-n800
 OpenBabel11261920153D

 19 18  0  0  0  0  0  0  0  0999 V2000
   -2.4087    0.3363   -0.3166 C   0  0  0  0  0  0  0  0  0  0  0  0
   -2.9197    0.2376    0.9726 N   0  0  0  0  0  0  0  0  0  0  0  0
   -3.3027    0.0038    1.9966 N   0  0  0  0  0  0  0  0  0  0  0  0
   -2.6763   -0.7395   -1.1811 C   0  0  0  0  0  0  0  0  0  0  0  0
   -2.1561   -0.6738   -2.4663 C   0  0  0  0  0  0  0  0  0  0  0  0
   -1.3838    0.4296   -2.8524 C   0  0  0  0  0  0  0  0  0  0  0  0
   -1.1267    1.4771   -1.9623 C   0  0  0  0  0  0  0  0  0  0  0  0
   -1.6446    1.4570   -0.6710 C   0  0  0  0  0  0  0  0  0  0  0  0
   -3.2771   -1.5788   -0.8492 H   0  0  0  0  0  0  0  0  0  0  0  0
   -2.3513   -1.4797   -3.1655 H   0  0  0  0  0  0  0  0  0  0  0  0
   -0.9804    0.4707   -3.8594 H   0  0  0  0  0  0  0  0  0  0  0  0
   -0.5286    2.3255   -2.2771 H   0  0  0  0  0  0  0  0  0  0  0  0
   -1.4874    2.2458    0.0633 H   0  0  0  0  0  0  0  0  0  0  0  0
   -3.2654    3.1876    1.9623 S   0  0  0  0  0  0  0  0  0  0  0  0
   -1.7893    2.9987    1.9328 O   0  0  0  0  0  0  0  0  0  0  0  0
   -3.7656    1.9844    3.0741 O   0  0  0  0  0  0  0  0  0  0  0  0
   -3.7406    4.4549    2.5117 O   0  0  0  0  0  0  0  0  0  0  0  0
   -3.9381    2.6724    0.7476 O   0  0  0  0  0  0  0  0  0  0  0  0
   -3.2787    2.1526    3.8975 H   0  0  0  0  0  0  0  0  0  0  0  0
  1  2  1  0  0  0  0
  2  3  1  0  0  0  0
  4  9  1  0  0  0  0
  4  1  2  0  0  0  0
  5  4  1  0  0  0  0
  6  5  2  0  0  0  0
  6  7  1  0  0  0  0
  7  8  2  0  0  0  0
  8  1  1  0  0  0  0
  8 13  1  0  0  0  0
 10  5  1  0  0  0  0
 11  6  1  0  0  0  0
 12  7  1  0  0  0  0
 14 17  1  0  0  0  0
 14 16  1  0  0  0  0
 15 14  2  0  0  0  0
 16 19  1  0  0  0  0
 18 14  2  0  0  0  0
M  RAD  3   2   2   3   3  17   2
M  END
