Coordinates from ORCA-job PhN2+~HSO4-_B3LYPG-6-31G_dp-NX-Scan-d89-09-n800
 OpenBabel11261920163D

 19 18  0  0  0  0  0  0  0  0999 V2000
   -3.1749    0.1909   -0.3082 C   0  0  0  0  0  0  0  0  0  0  0  0
   -4.1533   -0.2266    0.6556 N   0  0  0  0  0  0  0  0  0  0  0  0
   -4.4337    0.4897    1.6513 N   0  0  0  0  0  0  0  0  0  0  0  0
   -2.2650   -0.7967   -0.7126 C   0  0  0  0  0  0  0  0  0  0  0  0
   -1.3368   -0.5320   -1.7169 C   0  0  0  0  0  0  0  0  0  0  0  0
   -1.3269    0.7111   -2.3544 C   0  0  0  0  0  0  0  0  0  0  0  0
   -2.2509    1.6873   -1.9775 C   0  0  0  0  0  0  0  0  0  0  0  0
   -3.1695    1.4375   -0.9566 C   0  0  0  0  0  0  0  0  0  0  0  0
   -2.3054   -1.7665   -0.2274 H   0  0  0  0  0  0  0  0  0  0  0  0
   -0.6301   -1.3023   -2.0121 H   0  0  0  0  0  0  0  0  0  0  0  0
   -0.6113    0.9142   -3.1457 H   0  0  0  0  0  0  0  0  0  0  0  0
   -2.2567    2.6531   -2.4739 H   0  0  0  0  0  0  0  0  0  0  0  0
   -3.8903    2.2005   -0.6834 H   0  0  0  0  0  0  0  0  0  0  0  0
   -1.5622    3.1994    1.8388 S   0  0  0  0  0  0  0  0  0  0  0  0
   -0.5469    2.1670    1.9249 O   0  0  0  0  0  0  0  0  0  0  0  0
   -3.8672    1.5041    1.7924 O   0  0  0  0  0  0  0  0  0  0  0  0
   -2.4153    3.4724    2.9903 O   0  0  0  0  0  0  0  0  0  0  0  0
   -1.6883    4.0233    0.6501 O   0  0  0  0  0  0  0  0  0  0  0  0
   -4.1364    1.9358    2.6229 H   0  0  0  0  0  0  0  0  0  0  0  0
  1  2  1  0  0  0  0
  2  3  2  0  0  0  0
  3 16  1  0  0  0  0
  4  1  1  0  0  0  0
  4  9  1  0  0  0  0
  5  4  2  0  0  0  0
  6  7  2  0  0  0  0
  6  5  1  0  0  0  0
  7  8  1  0  0  0  0
  8 13  1  0  0  0  0
  8  1  2  0  0  0  0
 10  5  1  0  0  0  0
 11  6  1  0  0  0  0
 12  7  1  0  0  0  0
 14 15  2  0  0  0  0
 14 17  1  0  0  0  0
 16 19  1  0  0  0  0
 18 14  1  0  0  0  0
M  RAD  2  17   2  18   2
M  END
