Coordinates from ORCA-job PhN2+~HSO4-_B3LYPG-6-31G_dp-NX-Scan-d89-09-n800
 OpenBabel11261920153D

 19 19  0  0  1  0  0  0  0  0999 V2000
   -1.4423   -1.0158    0.2060 C   0  0  0  0  0  0  0  0  0  0  0  0
   -1.0150   -2.1912    0.6127 N   0  0  0  0  0  0  0  0  0  0  0  0
   -0.6490   -3.2130    0.9699 N   0  0  0  0  0  0  0  0  0  0  0  0
   -2.4822   -0.9306   -0.7976 C   0  0  0  0  0  0  0  0  0  0  0  0
   -2.9102    0.2736   -1.2226 C   0  0  0  0  0  0  0  0  0  0  0  0
   -2.4040    1.5537   -0.6521 C   0  0  2  0  0  0  0  0  0  0  0  0
   -1.2713    1.3970    0.3031 C   0  0  0  0  0  0  0  0  0  0  0  0
   -0.8413    0.1929    0.7278 C   0  0  0  0  0  0  0  0  0  0  0  0
   -2.8850   -1.8493   -1.2115 H   0  0  0  0  0  0  0  0  0  0  0  0
   -3.6744    0.3463   -1.9898 H   0  0  0  0  0  0  0  0  0  0  0  0
   -2.1965    2.2902   -1.4324 H   0  0  0  0  0  0  0  0  0  0  0  0
   -0.8085    2.3052    0.6745 H   0  0  0  0  0  0  0  0  0  0  0  0
   -0.0273    0.1045    1.4408 H   0  0  0  0  0  0  0  0  0  0  0  0
   -4.1506    3.5849   -0.3150 S   0  0  0  0  0  0  0  0  0  0  0  0
   -4.1046    3.7076   -1.7597 O   0  0  0  0  0  0  0  0  0  0  0  0
   -3.0025    4.6172    0.2361 O   0  0  0  0  0  0  0  0  0  0  0  0
   -5.3564    3.8018    0.4621 O   0  0  0  0  0  0  0  0  0  0  0  0
   -3.5727    2.1606    0.1469 O   0  0  0  0  0  0  0  0  0  0  0  0
   -3.2274    4.8266    1.1581 H   0  0  0  0  0  0  0  0  0  0  0  0
  1  2  1  0  0  0  0
  1  8  2  0  0  0  0
  2  3  1  0  0  0  0
  4  1  1  0  0  0  0
  5  4  2  0  0  0  0
  5  6  1  0  0  0  0
  6 11  1  6  0  0  0
  6 18  1  0  0  0  0
  6  7  1  0  0  0  0
  7 12  1  0  0  0  0
  7  8  1  0  0  0  0
  8 13  1  0  0  0  0
  9  4  1  0  0  0  0
 10  5  1  0  0  0  0
 14 18  1  0  0  0  0
 14 16  1  0  0  0  0
 14 17  2  0  0  0  0
 15 14  2  0  0  0  0
 16 19  1  0  0  0  0
M  RAD  3   2   2   3   3   7   2
M  END
