Coordinates from ORCA-job PhN2+~HSO4-_B3LYPG-6-31G_dp-NX-Scan-d89-09-n800
 OpenBabel11261920153D

 19 19  0  0  1  0  0  0  0  0999 V2000
   -1.4508   -0.9556    0.2403 C   0  0  0  0  0  0  0  0  0  0  0  0
   -0.9833   -2.0736    0.7503 N   0  0  0  0  0  0  0  0  0  0  0  0
   -0.5799   -3.0438    1.1993 N   0  0  0  0  0  0  0  0  0  0  0  0
   -2.5056   -0.9958   -0.7495 C   0  0  0  0  0  0  0  0  0  0  0  0
   -2.9787    0.1496   -1.2765 C   0  0  0  0  0  0  0  0  0  0  0  0
   -2.5065    1.4930   -0.8368 C   0  0  2  0  0  0  0  0  0  0  0  0
   -1.3511    1.4596    0.1060 C   0  0  0  0  0  0  0  0  0  0  0  0
   -0.8785    0.3141    0.6340 C   0  0  0  0  0  0  0  0  0  0  0  0
   -2.8826   -1.9610   -1.0721 H   0  0  0  0  0  0  0  0  0  0  0  0
   -3.7563    0.1236   -2.0328 H   0  0  0  0  0  0  0  0  0  0  0  0
   -2.3415    2.1664   -1.6819 H   0  0  0  0  0  0  0  0  0  0  0  0
   -0.9081    2.4104    0.3818 H   0  0  0  0  0  0  0  0  0  0  0  0
   -0.0501    0.3170    1.3358 H   0  0  0  0  0  0  0  0  0  0  0  0
   -4.0044    3.6807   -0.2924 S   0  0  0  0  0  0  0  0  0  0  0  0
   -3.6247    4.1179   -1.6222 O   0  0  0  0  0  0  0  0  0  0  0  0
   -2.9002    4.3644    0.7079 O   0  0  0  0  0  0  0  0  0  0  0  0
   -5.3204    3.9121    0.2730 O   0  0  0  0  0  0  0  0  0  0  0  0
   -3.7118    2.1132   -0.1063 O   0  0  0  0  0  0  0  0  0  0  0  0
   -3.2867    4.3701    1.5997 H   0  0  0  0  0  0  0  0  0  0  0  0
  1  8  1  0  0  0  0
  1  2  1  0  0  0  0
  2  3  1  0  0  0  0
  4  1  2  0  0  0  0
  5  6  1  0  0  0  0
  5  4  1  0  0  0  0
  6 11  1  6  0  0  0
  6 18  1  0  0  0  0
  6  7  1  0  0  0  0
  7 12  1  0  0  0  0
  7  8  2  0  0  0  0
  8 13  1  0  0  0  0
  9  4  1  0  0  0  0
 10  5  1  0  0  0  0
 14 18  1  0  0  0  0
 14 17  2  0  0  0  0
 14 16  1  0  0  0  0
 15 14  2  0  0  0  0
 16 19  1  0  0  0  0
M  RAD  3   2   2   3   3   5   2
M  END
