Coordinates from ORCA-job PhN2+~HSO4-_B3LYPG-6-31G_dp-NX-Scan-d89-09-n800
 OpenBabel11261920153D

 19 19  0  0  1  0  0  0  0  0999 V2000
   -1.6110   -0.2765    0.3580 C   0  0  1  0  0  0  0  0  0  0  0  0
   -1.4666   -0.7985    1.5549 N   0  0  0  0  0  0  0  0  0  0  0  0
   -1.3743   -1.2145    2.6114 N   0  0  0  0  0  0  0  0  0  0  0  0
   -2.7772   -0.6170   -0.4261 C   0  0  0  0  0  0  0  0  0  0  0  0
   -3.1525    0.2011   -1.4296 C   0  0  0  0  0  0  0  0  0  0  0  0
   -2.4911    1.5169   -1.6399 C   0  0  2  0  0  0  0  0  0  0  0  0
   -1.1296    1.6159   -1.0569 C   0  0  0  0  0  0  0  0  0  0  0  0
   -0.7411    0.8013   -0.0557 C   0  0  0  0  0  0  0  0  0  0  0  0
   -3.3144   -1.5337   -0.2023 H   0  0  0  0  0  0  0  0  0  0  0  0
   -4.0001   -0.0478   -2.0595 H   0  0  0  0  0  0  0  0  0  0  0  0
   -2.5253    1.8440   -2.6795 H   0  0  0  0  0  0  0  0  0  0  0  0
   -0.4852    2.4206   -1.3916 H   0  0  0  0  0  0  0  0  0  0  0  0
    0.2109    0.9329    0.4480 H   0  0  0  0  0  0  0  0  0  0  0  0
   -3.3716    3.2175    0.4069 S   0  0  0  0  0  0  0  0  0  0  0  0
   -2.1055    3.8902    0.6177 O   0  0  0  0  0  0  0  0  0  0  0  0
   -3.3203    1.8877    1.3793 O   0  0  0  0  0  0  0  0  0  0  0  0
   -4.6474    3.8719    0.6433 O   0  0  0  0  0  0  0  0  0  0  0  0
   -3.4736    2.6077   -1.0694 O   0  0  0  0  0  0  0  0  0  0  0  0
   -4.2452    1.6423    1.5487 H   0  0  0  0  0  0  0  0  0  0  0  0
  1  2  1  1  0  0  0
  2  3  1  0  0  0  0
  4  9  1  0  0  0  0
  4  1  1  0  0  0  0
  5  4  2  0  0  0  0
  6 11  1  6  0  0  0
  6  5  1  0  0  0  0
  6 18  1  0  0  0  0
  6  7  1  0  0  0  0
  7  8  2  0  0  0  0
  8  1  1  0  0  0  0
  8 13  1  0  0  0  0
 10  5  1  0  0  0  0
 12  7  1  0  0  0  0
 14 15  2  0  0  0  0
 14 17  2  0  0  0  0
 14 16  1  0  0  0  0
 16 19  1  0  0  0  0
 18 14  1  0  0  0  0
M  RAD  3   1   2   2   2   3   3
M  END
