Coordinates from ORCA-job PhN2+~HSO4-_B3LYPG-6-31G_dp-NX-Scan-d89-09-n800
 OpenBabel11261920153D

 19 19  0  0  1  0  0  0  0  0999 V2000
   -1.4538   -0.9474    0.2436 C   0  0  0  0  0  0  0  0  0  0  0  0
   -0.9876   -2.0596    0.7671 N   0  0  0  0  0  0  0  0  0  0  0  0
   -0.5849   -3.0241    1.2286 N   0  0  0  0  0  0  0  0  0  0  0  0
   -2.5088   -0.9979   -0.7456 C   0  0  0  0  0  0  0  0  0  0  0  0
   -2.9823    0.1422   -1.2836 C   0  0  0  0  0  0  0  0  0  0  0  0
   -2.5119    1.4898   -0.8553 C   0  0  2  0  0  0  0  0  0  0  0  0
   -1.3525    1.4660    0.0832 C   0  0  0  0  0  0  0  0  0  0  0  0
   -0.8795    0.3259    0.6222 C   0  0  0  0  0  0  0  0  0  0  0  0
   -2.8853   -1.9664   -1.0588 H   0  0  0  0  0  0  0  0  0  0  0  0
   -3.7600    0.1084   -2.0395 H   0  0  0  0  0  0  0  0  0  0  0  0
   -2.3518    2.1586   -1.7049 H   0  0  0  0  0  0  0  0  0  0  0  0
   -0.9075    2.4191    0.3474 H   0  0  0  0  0  0  0  0  0  0  0  0
   -0.0488    0.3356    1.3214 H   0  0  0  0  0  0  0  0  0  0  0  0
   -3.9912    3.6839   -0.2858 S   0  0  0  0  0  0  0  0  0  0  0  0
   -3.5814    4.1444   -1.5987 O   0  0  0  0  0  0  0  0  0  0  0  0
   -2.8992    4.3342    0.7494 O   0  0  0  0  0  0  0  0  0  0  0  0
   -5.3153    3.9182    0.2592 O   0  0  0  0  0  0  0  0  0  0  0  0
   -3.7187    2.1099   -0.1271 O   0  0  0  0  0  0  0  0  0  0  0  0
   -3.3007    4.3218    1.6345 H   0  0  0  0  0  0  0  0  0  0  0  0
  1  8  1  0  0  0  0
  1  2  1  0  0  0  0
  2  3  1  0  0  0  0
  4  1  2  0  0  0  0
  5  6  1  0  0  0  0
  5  4  1  0  0  0  0
  6 11  1  6  0  0  0
  6 18  1  0  0  0  0
  6  7  1  0  0  0  0
  7 12  1  0  0  0  0
  7  8  2  0  0  0  0
  8 13  1  0  0  0  0
  9  4  1  0  0  0  0
 10  5  1  0  0  0  0
 14 18  1  0  0  0  0
 14 17  2  0  0  0  0
 14 16  1  0  0  0  0
 15 14  2  0  0  0  0
 16 19  1  0  0  0  0
M  RAD  3   2   2   3   3   5   2
M  END
