Coordinates from ORCA-job PhN2+~HSO4-_B3LYPG-6-31G_dp-NX-Scan-d89-09-n800
 OpenBabel11261920153D

 19 19  0  0  1  0  0  0  0  0999 V2000
   -1.5952   -0.3083    0.3926 C   0  0  0  0  0  0  0  0  0  0  0  0
   -1.3304   -0.9788    1.4912 N   0  0  0  0  0  0  0  0  0  0  0  0
   -1.1181   -1.5422    2.4597 N   0  0  0  0  0  0  0  0  0  0  0  0
   -2.7885   -0.6145   -0.3627 C   0  0  0  0  0  0  0  0  0  0  0  0
   -3.1804    0.2204   -1.3457 C   0  0  0  0  0  0  0  0  0  0  0  0
   -2.4936    1.5179   -1.5962 C   0  0  2  0  0  0  0  0  0  0  0  0
   -1.1451    1.6265   -0.9808 C   0  0  0  0  0  0  0  0  0  0  0  0
   -0.7457    0.7925   -0.0003 C   0  0  0  0  0  0  0  0  0  0  0  0
   -3.3330   -1.5270   -0.1395 H   0  0  0  0  0  0  0  0  0  0  0  0
   -4.0534   -0.0095   -1.9477 H   0  0  0  0  0  0  0  0  0  0  0  0
   -2.4854    1.7843   -2.6548 H   0  0  0  0  0  0  0  0  0  0  0  0
   -0.5088    2.4466   -1.2929 H   0  0  0  0  0  0  0  0  0  0  0  0
    0.2103    0.9209    0.4966 H   0  0  0  0  0  0  0  0  0  0  0  0
   -3.4157    3.3064    0.3324 S   0  0  0  0  0  0  0  0  0  0  0  0
   -2.1545    3.9795    0.5674 O   0  0  0  0  0  0  0  0  0  0  0  0
   -3.3994    2.0043    1.3346 O   0  0  0  0  0  0  0  0  0  0  0  0
   -4.6951    3.9740    0.4978 O   0  0  0  0  0  0  0  0  0  0  0  0
   -3.4657    2.6495   -1.1293 O   0  0  0  0  0  0  0  0  0  0  0  0
   -4.3232    1.7199    1.4350 H   0  0  0  0  0  0  0  0  0  0  0  0
  1  2  1  0  0  0  0
  2  3  1  0  0  0  0
  4  9  1  0  0  0  0
  4  1  1  0  0  0  0
  5  4  2  0  0  0  0
  6 11  1  6  0  0  0
  6  5  1  0  0  0  0
  6 18  1  0  0  0  0
  6  7  1  0  0  0  0
  7  8  1  0  0  0  0
  8  1  2  0  0  0  0
  8 13  1  0  0  0  0
 10  5  1  0  0  0  0
 12  7  1  0  0  0  0
 14 17  2  0  0  0  0
 14 15  2  0  0  0  0
 14 16  1  0  0  0  0
 16 19  1  0  0  0  0
 18 14  1  0  0  0  0
M  RAD  3   2   2   3   3   7   2
M  END
