Coordinates from ORCA-job PhN2+~HSO4-_B3LYPG-6-31G_dp-NX-Scan-d89-09-n800
 OpenBabel11261920153D

 19 19  0  0  1  0  0  0  0  0999 V2000
   -1.5467   -0.3771    0.4118 C   0  0  0  0  0  0  0  0  0  0  0  0
   -1.1618   -1.1858    1.3744 N   0  0  0  0  0  0  0  0  0  0  0  0
   -0.8321   -1.8833    2.2160 N   0  0  0  0  0  0  0  0  0  0  0  0
   -2.7799   -0.6360   -0.2961 C   0  0  0  0  0  0  0  0  0  0  0  0
   -3.2053    0.2313   -1.2358 C   0  0  0  0  0  0  0  0  0  0  0  0
   -2.4954    1.5097   -1.5290 C   0  0  2  0  0  0  0  0  0  0  0  0
   -1.1624    1.6354   -0.8775 C   0  0  0  0  0  0  0  0  0  0  0  0
   -0.7346    0.7660    0.0588 C   0  0  0  0  0  0  0  0  0  0  0  0
   -3.3298   -1.5462   -0.0765 H   0  0  0  0  0  0  0  0  0  0  0  0
   -4.1135    0.0308   -1.7950 H   0  0  0  0  0  0  0  0  0  0  0  0
   -2.4392    1.7058   -2.6034 H   0  0  0  0  0  0  0  0  0  0  0  0
   -0.5477    2.4852   -1.1511 H   0  0  0  0  0  0  0  0  0  0  0  0
    0.2266    0.8942    0.5455 H   0  0  0  0  0  0  0  0  0  0  0  0
   -3.4707    3.4125    0.2427 S   0  0  0  0  0  0  0  0  0  0  0  0
   -2.2024    4.0583    0.5124 O   0  0  0  0  0  0  0  0  0  0  0  0
   -3.5524    2.1695    1.3066 O   0  0  0  0  0  0  0  0  0  0  0  0
   -4.7330    4.1284    0.2882 O   0  0  0  0  0  0  0  0  0  0  0  0
   -3.4584    2.6723   -1.1826 O   0  0  0  0  0  0  0  0  0  0  0  0
   -4.4826    1.8913    1.3482 H   0  0  0  0  0  0  0  0  0  0  0  0
  1  2  1  0  0  0  0
  2  3  1  0  0  0  0
  4  9  1  0  0  0  0
  4  1  2  0  0  0  0
  5  4  1  0  0  0  0
  6 11  1  6  0  0  0
  6  5  1  0  0  0  0
  6 18  1  0  0  0  0
  6  7  1  0  0  0  0
  7  8  2  0  0  0  0
  8  1  1  0  0  0  0
  8 13  1  0  0  0  0
 10  5  1  0  0  0  0
 12  7  1  0  0  0  0
 14 17  2  0  0  0  0
 14 15  2  0  0  0  0
 14 16  1  0  0  0  0
 16 19  1  0  0  0  0
 18 14  1  0  0  0  0
M  RAD  3   2   2   3   3   5   2
M  END
