Coordinates from ORCA-job PhN2+~HSO4-_B3LYPG-6-31G_dp-NX-Scan-d89-09-n800
 OpenBabel11261920153D

 19 19  0  0  1  0  0  0  0  0999 V2000
   -1.4632   -1.0969    0.1902 C   0  0  0  0  0  0  0  0  0  0  0  0
   -1.0949   -2.3392    0.4347 N   0  0  0  0  0  0  0  0  0  0  0  0
   -0.7779   -3.4205    0.6398 N   0  0  0  0  0  0  0  0  0  0  0  0
   -2.5767   -0.8229   -0.6967 C   0  0  0  0  0  0  0  0  0  0  0  0
   -2.9052    0.4462   -1.0125 C   0  0  0  0  0  0  0  0  0  0  0  0
   -2.1775    1.6364   -0.4770 C   0  0  2  0  0  0  0  0  0  0  0  0
   -1.0575    1.2862    0.4451 C   0  0  0  0  0  0  0  0  0  0  0  0
   -0.7289    0.0154    0.7580 C   0  0  0  0  0  0  0  0  0  0  0  0
   -3.1243   -1.6595   -1.1186 H   0  0  0  0  0  0  0  0  0  0  0  0
   -3.7202    0.6434   -1.7004 H   0  0  0  0  0  0  0  0  0  0  0  0
   -1.8608    2.3110   -1.2781 H   0  0  0  0  0  0  0  0  0  0  0  0
   -0.4882    2.1094    0.8633 H   0  0  0  0  0  0  0  0  0  0  0  0
    0.1056   -0.1948    1.4200 H   0  0  0  0  0  0  0  0  0  0  0  0
   -4.1582    3.5015   -0.3884 S   0  0  0  0  0  0  0  0  0  0  0  0
   -4.0814    3.2980   -1.8239 O   0  0  0  0  0  0  0  0  0  0  0  0
   -3.5051    4.9847   -0.1288 O   0  0  0  0  0  0  0  0  0  0  0  0
   -5.4082    3.4563    0.3504 O   0  0  0  0  0  0  0  0  0  0  0  0
   -3.1386    2.5023    0.3630 O   0  0  0  0  0  0  0  0  0  0  0  0
   -3.8600    5.3053    0.7175 H   0  0  0  0  0  0  0  0  0  0  0  0
  1  2  1  0  0  0  0
  1  8  2  0  0  0  0
  2  3  1  0  0  0  0
  4  1  1  0  0  0  0
  5  4  2  0  0  0  0
  5  6  1  0  0  0  0
  6 11  1  6  0  0  0
  6 18  1  0  0  0  0
  6  7  1  0  0  0  0
  7  8  1  0  0  0  0
  7 12  1  0  0  0  0
  8 13  1  0  0  0  0
  9  4  1  0  0  0  0
 10  5  1  0  0  0  0
 14 16  1  0  0  0  0
 14 17  2  0  0  0  0
 14 18  1  0  0  0  0
 15 14  2  0  0  0  0
 16 19  1  0  0  0  0
M  RAD  3   2   2   3   3   7   2
M  END
