Coordinates from ORCA-job PhN2+~HSO4-_B3LYPG-6-31G_dp-NX-Scan-d89-09-n800
 OpenBabel11261920153D

 19 19  0  0  1  0  0  0  0  0999 V2000
   -1.6126   -0.2631    0.2867 C   0  0  1  0  0  0  0  0  0  0  0  0
   -1.7140   -0.4890    1.5786 N   0  0  0  0  0  0  0  0  0  0  0  0
   -1.8939   -0.5663    2.6980 N   0  0  0  0  0  0  0  0  0  0  0  0
   -2.7232   -0.6669   -0.5549 C   0  0  0  0  0  0  0  0  0  0  0  0
   -3.0831    0.1408   -1.5721 C   0  0  0  0  0  0  0  0  0  0  0  0
   -2.4853    1.4958   -1.6879 C   0  0  2  0  0  0  0  0  0  0  0  0
   -1.1051    1.5930   -1.1588 C   0  0  0  0  0  0  0  0  0  0  0  0
   -0.7192    0.7948   -0.1432 C   0  0  0  0  0  0  0  0  0  0  0  0
   -3.2359   -1.6010   -0.3468 H   0  0  0  0  0  0  0  0  0  0  0  0
   -3.8805   -0.1356   -2.2536 H   0  0  0  0  0  0  0  0  0  0  0  0
   -2.5971    1.9354   -2.6774 H   0  0  0  0  0  0  0  0  0  0  0  0
   -0.4609    2.3868   -1.5187 H   0  0  0  0  0  0  0  0  0  0  0  0
    0.2243    0.9368    0.3735 H   0  0  0  0  0  0  0  0  0  0  0  0
   -3.3072    3.0751    0.5342 S   0  0  0  0  0  0  0  0  0  0  0  0
   -2.0286    3.7460    0.6685 O   0  0  0  0  0  0  0  0  0  0  0  0
   -3.2163    1.7513    1.5305 O   0  0  0  0  0  0  0  0  0  0  0  0
   -4.5640    3.7334    0.8532 O   0  0  0  0  0  0  0  0  0  0  0  0
   -3.5020    2.4663   -0.9274 O   0  0  0  0  0  0  0  0  0  0  0  0
   -4.1165    1.6288    1.8751 H   0  0  0  0  0  0  0  0  0  0  0  0
  1  2  1  1  0  0  0
  2  3  1  0  0  0  0
  4  9  1  0  0  0  0
  4  1  1  0  0  0  0
  5  4  2  0  0  0  0
  6 11  1  6  0  0  0
  6  5  1  0  0  0  0
  6  7  1  0  0  0  0
  6 18  1  0  0  0  0
  7  8  2  0  0  0  0
  8  1  1  0  0  0  0
  8 13  1  0  0  0  0
 10  5  1  0  0  0  0
 12  7  1  0  0  0  0
 14 15  2  0  0  0  0
 14 17  2  0  0  0  0
 14 16  1  0  0  0  0
 16 19  1  0  0  0  0
 18 14  1  0  0  0  0
M  RAD  3   1   2   2   2   3   3
M  END
