Coordinates from ORCA-job PhN2+~HSO4-_B3LYPG-6-31G_dp-NX-Scan-d89-09-n800
 OpenBabel11261920153D

 19 19  0  0  1  0  0  0  0  0999 V2000
   -1.4401   -0.9975    0.2210 C   0  0  0  0  0  0  0  0  0  0  0  0
   -0.9839   -2.1496    0.6618 N   0  0  0  0  0  0  0  0  0  0  0  0
   -0.5928   -3.1518    1.0476 N   0  0  0  0  0  0  0  0  0  0  0  0
   -2.4910   -0.9685   -0.7740 C   0  0  0  0  0  0  0  0  0  0  0  0
   -2.9463    0.2105   -1.2389 C   0  0  0  0  0  0  0  0  0  0  0  0
   -2.4565    1.5217   -0.7272 C   0  0  2  0  0  0  0  0  0  0  0  0
   -1.3166    1.4210    0.2283 C   0  0  0  0  0  0  0  0  0  0  0  0
   -0.8605    0.2417    0.6938 C   0  0  0  0  0  0  0  0  0  0  0  0
   -2.8799   -1.9092   -1.1502 H   0  0  0  0  0  0  0  0  0  0  0  0
   -3.7199    0.2378   -1.9995 H   0  0  0  0  0  0  0  0  0  0  0  0
   -2.2658    2.2280   -1.5394 H   0  0  0  0  0  0  0  0  0  0  0  0
   -0.8688    2.3505    0.5634 H   0  0  0  0  0  0  0  0  0  0  0  0
   -0.0407    0.1959    1.4042 H   0  0  0  0  0  0  0  0  0  0  0  0
   -4.0881    3.6412   -0.3172 S   0  0  0  0  0  0  0  0  0  0  0  0
   -3.8946    3.9133   -1.7288 O   0  0  0  0  0  0  0  0  0  0  0  0
   -2.9436    4.5332    0.4462 O   0  0  0  0  0  0  0  0  0  0  0  0
   -5.3496    3.8563    0.3666 O   0  0  0  0  0  0  0  0  0  0  0  0
   -3.6438    2.1390    0.0348 O   0  0  0  0  0  0  0  0  0  0  0  0
   -3.2387    4.6489    1.3650 H   0  0  0  0  0  0  0  0  0  0  0  0
  1  2  1  0  0  0  0
  1  8  2  0  0  0  0
  2  3  1  0  0  0  0
  4  1  1  0  0  0  0
  5  4  2  0  0  0  0
  5  6  1  0  0  0  0
  6 11  1  6  0  0  0
  6 18  1  0  0  0  0
  6  7  1  0  0  0  0
  7 12  1  0  0  0  0
  7  8  1  0  0  0  0
  8 13  1  0  0  0  0
  9  4  1  0  0  0  0
 10  5  1  0  0  0  0
 14 18  1  0  0  0  0
 14 17  2  0  0  0  0
 14 16  1  0  0  0  0
 15 14  2  0  0  0  0
 16 19  1  0  0  0  0
M  RAD  3   2   2   3   3   7   2
M  END
