Coordinates from ORCA-job PhN2+~HSO4-_B3LYPG-6-31G_dp-NX-Scan-d89-09-n800
 OpenBabel11261920153D

 19 19  0  0  1  0  0  0  0  0999 V2000
   -1.6022   -0.2924    0.3782 C   0  0  1  0  0  0  0  0  0  0  0  0
   -1.3866   -0.9014    1.5222 N   0  0  0  0  0  0  0  0  0  0  0  0
   -1.2230   -1.4042    2.5321 N   0  0  0  0  0  0  0  0  0  0  0  0
   -2.7845   -0.6131   -0.3885 C   0  0  0  0  0  0  0  0  0  0  0  0
   -3.1692    0.2137   -1.3812 C   0  0  0  0  0  0  0  0  0  0  0  0
   -2.4922    1.5185   -1.6160 C   0  0  2  0  0  0  0  0  0  0  0  0
   -1.1372    1.6216   -1.0161 C   0  0  0  0  0  0  0  0  0  0  0  0
   -0.7426    0.7965   -0.0261 C   0  0  0  0  0  0  0  0  0  0  0  0
   -3.3268   -1.5266   -0.1635 H   0  0  0  0  0  0  0  0  0  0  0  0
   -4.0322   -0.0242   -1.9943 H   0  0  0  0  0  0  0  0  0  0  0  0
   -2.5027    1.8102   -2.6673 H   0  0  0  0  0  0  0  0  0  0  0  0
   -0.4966    2.4340   -1.3393 H   0  0  0  0  0  0  0  0  0  0  0  0
    0.2121    0.9257    0.4729 H   0  0  0  0  0  0  0  0  0  0  0  0
   -3.3971    3.2675    0.3659 S   0  0  0  0  0  0  0  0  0  0  0  0
   -2.1329    3.9373    0.5950 O   0  0  0  0  0  0  0  0  0  0  0  0
   -3.3699    1.9504    1.3516 O   0  0  0  0  0  0  0  0  0  0  0  0
   -4.6744    3.9317    0.5611 O   0  0  0  0  0  0  0  0  0  0  0  0
   -3.4676    2.6352   -1.1047 O   0  0  0  0  0  0  0  0  0  0  0  0
   -4.2955    1.6818    1.4756 H   0  0  0  0  0  0  0  0  0  0  0  0
  1  2  1  1  0  0  0
  2  3  1  0  0  0  0
  4  9  1  0  0  0  0
  4  1  1  0  0  0  0
  5  4  2  0  0  0  0
  6 11  1  6  0  0  0
  6  5  1  0  0  0  0
  6 18  1  0  0  0  0
  6  7  1  0  0  0  0
  7  8  2  0  0  0  0
  8  1  1  0  0  0  0
  8 13  1  0  0  0  0
 10  5  1  0  0  0  0
 12  7  1  0  0  0  0
 14 17  2  0  0  0  0
 14 15  2  0  0  0  0
 14 16  1  0  0  0  0
 16 19  1  0  0  0  0
 18 14  1  0  0  0  0
M  RAD  3   1   2   2   2   3   3
M  END
