Coordinates from ORCA-job PhN2+~HSO4-_B3LYPG-6-31G_dp-NX-Scan-d89-09-n800
 OpenBabel11261920153D

 19 19  0  0  1  0  0  0  0  0999 V2000
   -1.4593   -1.0531    0.1756 C   0  0  0  0  0  0  0  0  0  0  0  0
   -1.1027   -2.2840    0.4746 N   0  0  0  0  0  0  0  0  0  0  0  0
   -0.7967   -3.3550    0.7326 N   0  0  0  0  0  0  0  0  0  0  0  0
   -2.5000   -0.8143   -0.8032 C   0  0  0  0  0  0  0  0  0  0  0  0
   -2.8478    0.4455   -1.1295 C   0  0  0  0  0  0  0  0  0  0  0  0
   -2.2399    1.6437   -0.4804 C   0  0  2  0  0  0  0  0  0  0  0  0
   -1.1308    1.3302    0.4651 C   0  0  0  0  0  0  0  0  0  0  0  0
   -0.7827    0.0690    0.7894 C   0  0  0  0  0  0  0  0  0  0  0  0
   -2.9728   -1.6672   -1.2794 H   0  0  0  0  0  0  0  0  0  0  0  0
   -3.6119    0.6315   -1.8760 H   0  0  0  0  0  0  0  0  0  0  0  0
   -1.9545    2.4052   -1.2123 H   0  0  0  0  0  0  0  0  0  0  0  0
   -0.6089    2.1699    0.9113 H   0  0  0  0  0  0  0  0  0  0  0  0
    0.0224   -0.1272    1.4908 H   0  0  0  0  0  0  0  0  0  0  0  0
   -4.2419    3.4470   -0.3120 S   0  0  0  0  0  0  0  0  0  0  0  0
   -4.3998    3.1672   -1.7270 O   0  0  0  0  0  0  0  0  0  0  0  0
   -3.2949    4.7829   -0.2529 O   0  0  0  0  0  0  0  0  0  0  0  0
   -5.3613    3.6561    0.5873 O   0  0  0  0  0  0  0  0  0  0  0  0
   -3.3167    2.3300    0.3800 O   0  0  0  0  0  0  0  0  0  0  0  0
   -3.4209    5.1848    0.6232 H   0  0  0  0  0  0  0  0  0  0  0  0
  1  2  1  0  0  0  0
  1  8  2  0  0  0  0
  2  3  1  0  0  0  0
  4  1  1  0  0  0  0
  5  4  2  0  0  0  0
  5  6  1  0  0  0  0
  6 11  1  6  0  0  0
  6 18  1  0  0  0  0
  6  7  1  0  0  0  0
  7  8  1  0  0  0  0
  7 12  1  0  0  0  0
  8 13  1  0  0  0  0
  9  4  1  0  0  0  0
 10  5  1  0  0  0  0
 14 16  1  0  0  0  0
 14 18  1  0  0  0  0
 14 17  2  0  0  0  0
 15 14  2  0  0  0  0
 16 19  1  0  0  0  0
M  RAD  3   2   2   3   3   7   2
M  END
