Coordinates from ORCA-job PhN2+~HSO4-_B3LYPG-6-31G_dp-NX-Scan-d89-09-n800
 OpenBabel11261920153D

 19 19  0  0  1  0  0  0  0  0999 V2000
   -1.6099   -0.2627    0.3045 C   0  0  1  0  0  0  0  0  0  0  0  0
   -1.6439   -0.5639    1.5837 N   0  0  0  0  0  0  0  0  0  0  0  0
   -1.7460   -0.7378    2.7029 N   0  0  0  0  0  0  0  0  0  0  0  0
   -2.7403   -0.6471   -0.5167 C   0  0  0  0  0  0  0  0  0  0  0  0
   -3.1054    0.1616   -1.5312 C   0  0  0  0  0  0  0  0  0  0  0  0
   -2.4864    1.5045   -1.6785 C   0  0  2  0  0  0  0  0  0  0  0  0
   -1.1093    1.5990   -1.1385 C   0  0  0  0  0  0  0  0  0  0  0  0
   -0.7225    0.7981   -0.1255 C   0  0  0  0  0  0  0  0  0  0  0  0
   -3.2625   -1.5740   -0.2997 H   0  0  0  0  0  0  0  0  0  0  0  0
   -3.9201   -0.1071   -2.1953 H   0  0  0  0  0  0  0  0  0  0  0  0
   -2.5779    1.9116   -2.6844 H   0  0  0  0  0  0  0  0  0  0  0  0
   -0.4640    2.3938   -1.4944 H   0  0  0  0  0  0  0  0  0  0  0  0
    0.2244    0.9372    0.3859 H   0  0  0  0  0  0  0  0  0  0  0  0
   -3.3220    3.1086    0.5030 S   0  0  0  0  0  0  0  0  0  0  0  0
   -2.0444    3.7724    0.6723 O   0  0  0  0  0  0  0  0  0  0  0  0
   -3.2520    1.7720    1.4782 O   0  0  0  0  0  0  0  0  0  0  0  0
   -4.5833    3.7671    0.8017 O   0  0  0  0  0  0  0  0  0  0  0  0
   -3.4882    2.5187   -0.9716 O   0  0  0  0  0  0  0  0  0  0  0  0
   -4.1674    1.6102    1.7611 H   0  0  0  0  0  0  0  0  0  0  0  0
  1  2  1  1  0  0  0
  2  3  1  0  0  0  0
  4  9  1  0  0  0  0
  4  1  1  0  0  0  0
  5  4  2  0  0  0  0
  6 11  1  6  0  0  0
  6  5  1  0  0  0  0
  6  7  1  0  0  0  0
  6 18  1  0  0  0  0
  7  8  2  0  0  0  0
  8  1  1  0  0  0  0
  8 13  1  0  0  0  0
 10  5  1  0  0  0  0
 12  7  1  0  0  0  0
 14 15  2  0  0  0  0
 14 17  2  0  0  0  0
 14 16  1  0  0  0  0
 16 19  1  0  0  0  0
 18 14  1  0  0  0  0
M  RAD  3   1   2   2   2   3   3
M  END
