Coordinates from ORCA-job PhN2+~HSO4-_B3LYPG-6-31G_dp-NX-Scan-d89-09-n800
 OpenBabel11261920153D

 19 19  0  0  1  0  0  0  0  0999 V2000
   -1.6108   -0.2757    0.3511 C   0  0  1  0  0  0  0  0  0  0  0  0
   -1.4857   -0.7742    1.5601 N   0  0  0  0  0  0  0  0  0  0  0  0
   -1.4131   -1.1660    2.6271 N   0  0  0  0  0  0  0  0  0  0  0  0
   -2.7731   -0.6207   -0.4371 C   0  0  0  0  0  0  0  0  0  0  0  0
   -3.1474    0.1966   -1.4416 C   0  0  0  0  0  0  0  0  0  0  0  0
   -2.4907    1.5157   -1.6445 C   0  0  2  0  0  0  0  0  0  0  0  0
   -1.1274    1.6138   -1.0662 C   0  0  0  0  0  0  0  0  0  0  0  0
   -0.7392    0.8003   -0.0640 C   0  0  0  0  0  0  0  0  0  0  0  0
   -3.3091   -1.5383   -0.2140 H   0  0  0  0  0  0  0  0  0  0  0  0
   -3.9916   -0.0544   -2.0752 H   0  0  0  0  0  0  0  0  0  0  0  0
   -2.5311    1.8521   -2.6807 H   0  0  0  0  0  0  0  0  0  0  0  0
   -0.4829    2.4177   -1.4026 H   0  0  0  0  0  0  0  0  0  0  0  0
    0.2119    0.9330    0.4411 H   0  0  0  0  0  0  0  0  0  0  0  0
   -3.3666    3.2069    0.4172 S   0  0  0  0  0  0  0  0  0  0  0  0
   -2.0998    3.8800    0.6227 O   0  0  0  0  0  0  0  0  0  0  0  0
   -3.3114    1.8766    1.3901 O   0  0  0  0  0  0  0  0  0  0  0  0
   -4.6415    3.8604    0.6611 O   0  0  0  0  0  0  0  0  0  0  0  0
   -3.4758    2.5992   -1.0590 O   0  0  0  0  0  0  0  0  0  0  0  0
   -4.2360    1.6392    1.5718 H   0  0  0  0  0  0  0  0  0  0  0  0
  1  2  1  1  0  0  0
  2  3  1  0  0  0  0
  4  9  1  0  0  0  0
  4  1  1  0  0  0  0
  5  4  2  0  0  0  0
  6 11  1  6  0  0  0
  6  5  1  0  0  0  0
  6  7  1  0  0  0  0
  6 18  1  0  0  0  0
  7  8  2  0  0  0  0
  8  1  1  0  0  0  0
  8 13  1  0  0  0  0
 10  5  1  0  0  0  0
 12  7  1  0  0  0  0
 14 15  2  0  0  0  0
 14 17  2  0  0  0  0
 14 16  1  0  0  0  0
 16 19  1  0  0  0  0
 18 14  1  0  0  0  0
M  RAD  3   1   2   2   2   3   3
M  END
