Coordinates from ORCA-job PhN2+~HSO4-_B3LYPG-6-31G_dp-NX-Scan-d89-09-n800
 OpenBabel11261920163D

 19 18  0  0  0  0  0  0  0  0999 V2000
   -2.6791    0.1875   -0.2528 C   0  0  0  0  0  0  0  0  0  0  0  0
   -3.2696   -0.0781    0.9914 N   0  0  0  0  0  0  0  0  0  0  0  0
   -3.7977    0.4496    1.8967 N   0  0  0  0  0  0  0  0  0  0  0  0
   -2.1439   -0.9397   -0.8968 C   0  0  0  0  0  0  0  0  0  0  0  0
   -1.5504   -0.7946   -2.1449 C   0  0  0  0  0  0  0  0  0  0  0  0
   -1.5012    0.4675   -2.7444 C   0  0  0  0  0  0  0  0  0  0  0  0
   -2.0419    1.5831   -2.0972 C   0  0  0  0  0  0  0  0  0  0  0  0
   -2.6349    1.4626   -0.8443 C   0  0  0  0  0  0  0  0  0  0  0  0
   -2.2021   -1.9039   -0.4037 H   0  0  0  0  0  0  0  0  0  0  0  0
   -1.1302   -1.6586   -2.6485 H   0  0  0  0  0  0  0  0  0  0  0  0
   -1.0385    0.5831   -3.7195 H   0  0  0  0  0  0  0  0  0  0  0  0
   -1.9948    2.5608   -2.5655 H   0  0  0  0  0  0  0  0  0  0  0  0
   -3.0413    2.3292   -0.3438 H   0  0  0  0  0  0  0  0  0  0  0  0
   -2.2526    3.2368    2.2452 S   0  0  0  0  0  0  0  0  0  0  0  0
   -1.2857    2.1446    2.2172 O   0  0  0  0  0  0  0  0  0  0  0  0
   -3.9107    2.1491    1.7340 O   0  0  0  0  0  0  0  0  0  0  0  0
   -2.7629    3.6974    3.5335 O   0  0  0  0  0  0  0  0  0  0  0  0
   -2.2895    4.1548    1.1103 O   0  0  0  0  0  0  0  0  0  0  0  0
   -4.4940    2.3310    2.4908 H   0  0  0  0  0  0  0  0  0  0  0  0
  1  2  1  0  0  0  0
  2  3  1  0  0  0  0
  4  9  1  0  0  0  0
  4  1  2  0  0  0  0
  5  4  1  0  0  0  0
  6  5  2  0  0  0  0
  6  7  1  0  0  0  0
  7  8  2  0  0  0  0
  8 13  1  0  0  0  0
  8  1  1  0  0  0  0
 10  5  1  0  0  0  0
 11  6  1  0  0  0  0
 12  7  1  0  0  0  0
 14 17  1  0  0  0  0
 15 14  2  0  0  0  0
 16  3  1  0  0  0  0
 16 19  1  0  0  0  0
 18 14  1  0  0  0  0
M  RAD  4   2   2   3   2  17   2  18   2
M  END
