Coordinates from ORCA-job PhN2+~HSO4-_B3LYPG-6-31G_dp-NX-Scan-d89-09-n800
 OpenBabel11261920153D

 19 19  0  0  1  0  0  0  0  0999 V2000
   -1.4476   -0.9666    0.2357 C   0  0  0  0  0  0  0  0  0  0  0  0
   -0.9812   -2.0932    0.7276 N   0  0  0  0  0  0  0  0  0  0  0  0
   -0.5794   -3.0717    1.1597 N   0  0  0  0  0  0  0  0  0  0  0  0
   -2.4995   -0.9906   -0.7579 C   0  0  0  0  0  0  0  0  0  0  0  0
   -2.9700    0.1632   -1.2688 C   0  0  0  0  0  0  0  0  0  0  0  0
   -2.4968    1.4994   -0.8089 C   0  0  2  0  0  0  0  0  0  0  0  0
   -1.3478    1.4507    0.1409 C   0  0  0  0  0  0  0  0  0  0  0  0
   -0.8778    0.2968    0.6530 C   0  0  0  0  0  0  0  0  0  0  0  0
   -2.8766   -1.9503   -1.0962 H   0  0  0  0  0  0  0  0  0  0  0  0
   -3.7452    0.1497   -2.0279 H   0  0  0  0  0  0  0  0  0  0  0  0
   -2.3243    2.1816   -1.6454 H   0  0  0  0  0  0  0  0  0  0  0  0
   -0.9074    2.3975    0.4344 H   0  0  0  0  0  0  0  0  0  0  0  0
   -0.0538    0.2886    1.3599 H   0  0  0  0  0  0  0  0  0  0  0  0
   -4.0274    3.6722   -0.3000 S   0  0  0  0  0  0  0  0  0  0  0  0
   -3.7034    4.0711   -1.6564 O   0  0  0  0  0  0  0  0  0  0  0  0
   -2.9001    4.4077    0.6361 O   0  0  0  0  0  0  0  0  0  0  0  0
   -5.3263    3.9000    0.3050 O   0  0  0  0  0  0  0  0  0  0  0  0
   -3.7003    2.1169   -0.0734 O   0  0  0  0  0  0  0  0  0  0  0  0
   -3.2561    4.4394    1.5400 H   0  0  0  0  0  0  0  0  0  0  0  0
  1  8  1  0  0  0  0
  1  2  1  0  0  0  0
  2  3  1  0  0  0  0
  4  1  2  0  0  0  0
  5  6  1  0  0  0  0
  5  4  1  0  0  0  0
  6 11  1  6  0  0  0
  6 18  1  0  0  0  0
  6  7  1  0  0  0  0
  7 12  1  0  0  0  0
  7  8  2  0  0  0  0
  8 13  1  0  0  0  0
  9  4  1  0  0  0  0
 10  5  1  0  0  0  0
 14 18  1  0  0  0  0
 14 17  2  0  0  0  0
 14 16  1  0  0  0  0
 15 14  2  0  0  0  0
 16 19  1  0  0  0  0
M  RAD  3   2   2   3   3   5   2
M  END
