Coordinates from ORCA-job PhN2+~HSO4-_B3LYPG-6-31G_dp-NX-Scan-d89-09-n800
 OpenBabel11261920153D

 19 19  0  0  1  0  0  0  0  0999 V2000
   -1.4631   -1.1014    0.1914 C   0  0  0  0  0  0  0  0  0  0  0  0
   -1.0921   -2.3448    0.4278 N   0  0  0  0  0  0  0  0  0  0  0  0
   -0.7727   -3.4271    0.6257 N   0  0  0  0  0  0  0  0  0  0  0  0
   -2.5860   -0.8234   -0.6827 C   0  0  0  0  0  0  0  0  0  0  0  0
   -2.9141    0.4466   -0.9956 C   0  0  0  0  0  0  0  0  0  0  0  0
   -2.1730    1.6355   -0.4750 C   0  0  2  0  0  0  0  0  0  0  0  0
   -1.0515    1.2818    0.4442 C   0  0  0  0  0  0  0  0  0  0  0  0
   -0.7232    0.0101    0.7542 C   0  0  0  0  0  0  0  0  0  0  0  0
   -3.1417   -1.6582   -1.0977 H   0  0  0  0  0  0  0  0  0  0  0  0
   -3.7360    0.6447   -1.6751 H   0  0  0  0  0  0  0  0  0  0  0  0
   -1.8534    2.2983   -1.2848 H   0  0  0  0  0  0  0  0  0  0  0  0
   -0.4777    2.1034    0.8597 H   0  0  0  0  0  0  0  0  0  0  0  0
    0.1151   -0.2012    1.4110 H   0  0  0  0  0  0  0  0  0  0  0  0
   -4.1468    3.5092   -0.3994 S   0  0  0  0  0  0  0  0  0  0  0  0
   -4.0415    3.3201   -1.8351 O   0  0  0  0  0  0  0  0  0  0  0  0
   -3.5287    5.0030   -0.1145 O   0  0  0  0  0  0  0  0  0  0  0  0
   -5.4088    3.4335    0.3165 O   0  0  0  0  0  0  0  0  0  0  0  0
   -3.1187    2.5232    0.3598 O   0  0  0  0  0  0  0  0  0  0  0  0
   -3.9071    5.3089    0.7270 H   0  0  0  0  0  0  0  0  0  0  0  0
  1  2  1  0  0  0  0
  1  8  2  0  0  0  0
  2  3  1  0  0  0  0
  4  1  1  0  0  0  0
  5  4  2  0  0  0  0
  5  6  1  0  0  0  0
  6 11  1  6  0  0  0
  6 18  1  0  0  0  0
  6  7  1  0  0  0  0
  7  8  1  0  0  0  0
  7 12  1  0  0  0  0
  8 13  1  0  0  0  0
  9  4  1  0  0  0  0
 10  5  1  0  0  0  0
 14 16  1  0  0  0  0
 14 17  2  0  0  0  0
 14 18  1  0  0  0  0
 15 14  2  0  0  0  0
 16 19  1  0  0  0  0
M  RAD  3   2   2   3   3   7   2
M  END
