Coordinates from ORCA-job PhN2+~HSO4-_B3LYPG-6-31G_dp-NX-Scan-d89-09-n800
 OpenBabel11261920153D

 19 19  0  0  1  0  0  0  0  0999 V2000
   -1.6102   -0.2628    0.3017 C   0  0  1  0  0  0  0  0  0  0  0  0
   -1.6548   -0.5522    1.5834 N   0  0  0  0  0  0  0  0  0  0  0  0
   -1.7689   -0.7116    2.7036 N   0  0  0  0  0  0  0  0  0  0  0  0
   -2.7379   -0.6500   -0.5224 C   0  0  0  0  0  0  0  0  0  0  0  0
   -3.1024    0.1587   -1.5372 C   0  0  0  0  0  0  0  0  0  0  0  0
   -2.4863    1.5033   -1.6800 C   0  0  2  0  0  0  0  0  0  0  0  0
   -1.1088    1.5982   -1.1416 C   0  0  0  0  0  0  0  0  0  0  0  0
   -0.7221    0.7977   -0.1282 C   0  0  0  0  0  0  0  0  0  0  0  0
   -3.2588   -1.5779   -0.3066 H   0  0  0  0  0  0  0  0  0  0  0  0
   -3.9147   -0.1111   -2.2038 H   0  0  0  0  0  0  0  0  0  0  0  0
   -2.5808    1.9151   -2.6836 H   0  0  0  0  0  0  0  0  0  0  0  0
   -0.4636    2.3928   -1.4981 H   0  0  0  0  0  0  0  0  0  0  0  0
    0.2243    0.9372    0.3840 H   0  0  0  0  0  0  0  0  0  0  0  0
   -3.3194    3.1036    0.5076 S   0  0  0  0  0  0  0  0  0  0  0  0
   -2.0419    3.7690    0.6719 O   0  0  0  0  0  0  0  0  0  0  0  0
   -3.2454    1.7684    1.4855 O   0  0  0  0  0  0  0  0  0  0  0  0
   -4.5804    3.7612    0.8100 O   0  0  0  0  0  0  0  0  0  0  0  0
   -3.4901    2.5117   -0.9654 O   0  0  0  0  0  0  0  0  0  0  0  0
   -4.1590    1.6110    1.7768 H   0  0  0  0  0  0  0  0  0  0  0  0
  1  2  1  1  0  0  0
  2  3  1  0  0  0  0
  4  9  1  0  0  0  0
  4  1  1  0  0  0  0
  5  4  2  0  0  0  0
  6 11  1  6  0  0  0
  6  5  1  0  0  0  0
  6  7  1  0  0  0  0
  6 18  1  0  0  0  0
  7  8  2  0  0  0  0
  8  1  1  0  0  0  0
  8 13  1  0  0  0  0
 10  5  1  0  0  0  0
 12  7  1  0  0  0  0
 14 15  2  0  0  0  0
 14 17  2  0  0  0  0
 14 16  1  0  0  0  0
 16 19  1  0  0  0  0
 18 14  1  0  0  0  0
M  RAD  3   1   2   2   2   3   3
M  END
