Coordinates from ORCA-job PhN2+~HSO4-_B3LYPG-6-31G_dp-NX-Scan-d89-09-n800
 OpenBabel11261920153D

 19 19  0  0  1  0  0  0  0  0999 V2000
   -1.6466   -0.2776    0.2548 C   0  0  1  0  0  0  0  0  0  0  0  0
   -1.8645   -0.4000    1.5487 N   0  0  0  0  0  0  0  0  0  0  0  0
   -2.1697   -0.2733    2.6348 N   0  0  0  0  0  0  0  0  0  0  0  0
   -2.6899   -0.7256   -0.6510 C   0  0  0  0  0  0  0  0  0  0  0  0
   -3.0256    0.0883   -1.6731 C   0  0  0  0  0  0  0  0  0  0  0  0
   -2.4863    1.4710   -1.6965 C   0  0  2  0  0  0  0  0  0  0  0  0
   -1.1090    1.5809   -1.1688 C   0  0  0  0  0  0  0  0  0  0  0  0
   -0.7368    0.7802   -0.1496 C   0  0  0  0  0  0  0  0  0  0  0  0
   -3.1760   -1.6812   -0.4811 H   0  0  0  0  0  0  0  0  0  0  0  0
   -3.7688   -0.2018   -2.4078 H   0  0  0  0  0  0  0  0  0  0  0  0
   -2.6364    1.9901   -2.6401 H   0  0  0  0  0  0  0  0  0  0  0  0
   -0.4663    2.3789   -1.5210 H   0  0  0  0  0  0  0  0  0  0  0  0
    0.1911    0.9254    0.3937 H   0  0  0  0  0  0  0  0  0  0  0  0
   -3.2931    3.0351    0.5784 S   0  0  0  0  0  0  0  0  0  0  0  0
   -2.0389    3.7656    0.5736 O   0  0  0  0  0  0  0  0  0  0  0  0
   -3.0860    1.7821    1.6613 O   0  0  0  0  0  0  0  0  0  0  0  0
   -4.5509    3.6694    0.9435 O   0  0  0  0  0  0  0  0  0  0  0  0
   -3.5532    2.3040   -0.8106 O   0  0  0  0  0  0  0  0  0  0  0  0
   -3.9141    1.7507    2.1683 H   0  0  0  0  0  0  0  0  0  0  0  0
  1  2  1  1  0  0  0
  2  3  1  0  0  0  0
  4  9  1  0  0  0  0
  4  1  1  0  0  0  0
  5  4  2  0  0  0  0
  6 11  1  6  0  0  0
  6  5  1  0  0  0  0
  6  7  1  0  0  0  0
  6 18  1  0  0  0  0
  7  8  2  0  0  0  0
  8  1  1  0  0  0  0
  8 13  1  0  0  0  0
 10  5  1  0  0  0  0
 12  7  1  0  0  0  0
 14 17  2  0  0  0  0
 14 16  1  0  0  0  0
 15 14  2  0  0  0  0
 16 19  1  0  0  0  0
 18 14  1  0  0  0  0
M  RAD  3   1   2   2   2   3   3
M  END
