Coordinates from ORCA-job PhN2+~HSO4-_B3LYPG-6-31G_dp-NX-Scan-d89-09-n800
 OpenBabel11261920153D

 19 18  0  0  0  0  0  0  0  0999 V2000
   -2.4229    0.3279   -0.3095 C   0  0  0  0  0  0  0  0  0  0  0  0
   -2.9478    0.2355    0.9716 N   0  0  0  0  0  0  0  0  0  0  0  0
   -3.3626    0.0978    2.0067 N   0  0  0  0  0  0  0  0  0  0  0  0
   -2.6590   -0.7624   -1.1665 C   0  0  0  0  0  0  0  0  0  0  0  0
   -2.1344   -0.7015   -2.4497 C   0  0  0  0  0  0  0  0  0  0  0  0
   -1.3820    0.4129   -2.8442 C   0  0  0  0  0  0  0  0  0  0  0  0
   -1.1506    1.4740   -1.9639 C   0  0  0  0  0  0  0  0  0  0  0  0
   -1.6761    1.4580   -0.6752 C   0  0  0  0  0  0  0  0  0  0  0  0
   -3.2429   -1.6106   -0.8273 H   0  0  0  0  0  0  0  0  0  0  0  0
   -2.3086   -1.5193   -3.1406 H   0  0  0  0  0  0  0  0  0  0  0  0
   -0.9729    0.4508   -3.8490 H   0  0  0  0  0  0  0  0  0  0  0  0
   -0.5655    2.3297   -2.2836 H   0  0  0  0  0  0  0  0  0  0  0  0
   -1.5291    2.2585    0.0470 H   0  0  0  0  0  0  0  0  0  0  0  0
   -3.2440    3.2512    1.9639 S   0  0  0  0  0  0  0  0  0  0  0  0
   -1.7708    3.0682    1.9204 O   0  0  0  0  0  0  0  0  0  0  0  0
   -3.7353    1.9098    2.9607 O   0  0  0  0  0  0  0  0  0  0  0  0
   -3.7295    4.4306    2.6746 O   0  0  0  0  0  0  0  0  0  0  0  0
   -3.9278    2.8567    0.7180 O   0  0  0  0  0  0  0  0  0  0  0  0
   -3.2593    1.9943    3.8040 H   0  0  0  0  0  0  0  0  0  0  0  0
  1  2  1  0  0  0  0
  2  3  1  0  0  0  0
  4  9  1  0  0  0  0
  4  1  2  0  0  0  0
  5  4  1  0  0  0  0
  6  5  2  0  0  0  0
  6  7  1  0  0  0  0
  7  8  2  0  0  0  0
  8  1  1  0  0  0  0
  8 13  1  0  0  0  0
 10  5  1  0  0  0  0
 11  6  1  0  0  0  0
 12  7  1  0  0  0  0
 14 17  1  0  0  0  0
 14 16  1  0  0  0  0
 15 14  2  0  0  0  0
 16 19  1  0  0  0  0
 18 14  2  0  0  0  0
M  RAD  3   2   2   3   3  17   2
M  END
