Coordinates from ORCA-job PhN2+~HSO4-_B3LYPG-6-31G_dp-NX-Scan-d89-09-n800
 OpenBabel11261920153D

 19 19  0  0  1  0  0  0  0  0999 V2000
   -1.6102   -0.2648    0.3172 C   0  0  1  0  0  0  0  0  0  0  0  0
   -1.5995   -0.6206    1.5824 N   0  0  0  0  0  0  0  0  0  0  0  0
   -1.6476   -0.8617    2.6933 N   0  0  0  0  0  0  0  0  0  0  0  0
   -2.7510   -0.6371   -0.4934 C   0  0  0  0  0  0  0  0  0  0  0  0
   -3.1184    0.1731   -1.5059 C   0  0  0  0  0  0  0  0  0  0  0  0
   -2.4875    1.5088   -1.6705 C   0  0  2  0  0  0  0  0  0  0  0  0
   -1.1139    1.6034   -1.1202 C   0  0  0  0  0  0  0  0  0  0  0  0
   -0.7273    0.7998   -0.1093 C   0  0  0  0  0  0  0  0  0  0  0  0
   -3.2781   -1.5606   -0.2734 H   0  0  0  0  0  0  0  0  0  0  0  0
   -3.9421   -0.0906   -2.1608 H   0  0  0  0  0  0  0  0  0  0  0  0
   -2.5645    1.8955   -2.6860 H   0  0  0  0  0  0  0  0  0  0  0  0
   -0.4682    2.4000   -1.4713 H   0  0  0  0  0  0  0  0  0  0  0  0
    0.2208    0.9370    0.4002 H   0  0  0  0  0  0  0  0  0  0  0  0
   -3.3338    3.1349    0.4792 S   0  0  0  0  0  0  0  0  0  0  0  0
   -2.0592    3.8005    0.6621 O   0  0  0  0  0  0  0  0  0  0  0  0
   -3.2688    1.7964    1.4486 O   0  0  0  0  0  0  0  0  0  0  0  0
   -4.5994    3.7909    0.7642 O   0  0  0  0  0  0  0  0  0  0  0  0
   -3.4832    2.5459   -0.9986 O   0  0  0  0  0  0  0  0  0  0  0  0
   -4.1891    1.6114    1.6998 H   0  0  0  0  0  0  0  0  0  0  0  0
  1  2  1  1  0  0  0
  2  3  1  0  0  0  0
  4  9  1  0  0  0  0
  4  1  1  0  0  0  0
  5  4  2  0  0  0  0
  6 11  1  6  0  0  0
  6  5  1  0  0  0  0
  6  7  1  0  0  0  0
  6 18  1  0  0  0  0
  7  8  2  0  0  0  0
  8  1  1  0  0  0  0
  8 13  1  0  0  0  0
 10  5  1  0  0  0  0
 12  7  1  0  0  0  0
 14 15  2  0  0  0  0
 14 17  2  0  0  0  0
 14 16  1  0  0  0  0
 16 19  1  0  0  0  0
 18 14  1  0  0  0  0
M  RAD  3   1   2   2   2   3   3
M  END
