Coordinates from ORCA-job PhN2+~HSO4-_B3LYPG-6-31G_dp-NX-Scan-d89-09-n800
 OpenBabel11261920153D

 19 19  0  0  1  0  0  0  0  0999 V2000
   -1.5879   -0.6142    0.3257 C   0  0  0  0  0  0  0  0  0  0  0  0
   -1.2909   -1.4825    1.2674 N   0  0  0  0  0  0  0  0  0  0  0  0
   -1.0347   -2.2057    2.1118 N   0  0  0  0  0  0  0  0  0  0  0  0
   -2.5961   -0.9197   -0.6661 C   0  0  0  0  0  0  0  0  0  0  0  0
   -3.0004    0.0445   -1.5171 C   0  0  0  0  0  0  0  0  0  0  0  0
   -2.5615    1.4589   -1.3474 C   0  0  2  0  0  0  0  0  0  0  0  0
   -1.2976    1.6063   -0.5711 C   0  0  0  0  0  0  0  0  0  0  0  0
   -0.8813    0.6469    0.2773 C   0  0  0  0  0  0  0  0  0  0  0  0
   -2.9827   -1.9320   -0.7276 H   0  0  0  0  0  0  0  0  0  0  0  0
   -3.7291   -0.1745   -2.2900 H   0  0  0  0  0  0  0  0  0  0  0  0
   -2.5401    2.0203   -2.2819 H   0  0  0  0  0  0  0  0  0  0  0  0
   -0.7605    2.5436   -0.6498 H   0  0  0  0  0  0  0  0  0  0  0  0
   -0.0061    0.7821    0.9046 H   0  0  0  0  0  0  0  0  0  0  0  0
   -3.6489    3.5422    0.0534 S   0  0  0  0  0  0  0  0  0  0  0  0
   -2.6761    4.3446   -0.6652 O   0  0  0  0  0  0  0  0  0  0  0  0
   -2.9600    3.2059    1.5027 O   0  0  0  0  0  0  0  0  0  0  0  0
   -5.0050    3.9930    0.3131 O   0  0  0  0  0  0  0  0  0  0  0  0
   -3.7749    2.0876   -0.6008 O   0  0  0  0  0  0  0  0  0  0  0  0
   -3.6873    3.0149    2.1183 H   0  0  0  0  0  0  0  0  0  0  0  0
  1  2  1  0  0  0  0
  2  3  1  0  0  0  0
  4  1  1  0  0  0  0
  5  6  1  0  0  0  0
  5  4  2  0  0  0  0
  6 11  1  6  0  0  0
  6 18  1  0  0  0  0
  6  7  1  0  0  0  0
  7  8  1  0  0  0  0
  8  1  2  0  0  0  0
  8 13  1  0  0  0  0
  9  4  1  0  0  0  0
 10  5  1  0  0  0  0
 12  7  1  0  0  0  0
 14 17  2  0  0  0  0
 14 16  1  0  0  0  0
 15 14  2  0  0  0  0
 16 19  1  0  0  0  0
 18 14  1  0  0  0  0
M  RAD  3   2   2   3   3   7   2
M  END
