Coordinates from ORCA-job PhN2+~HSO4-_B3LYPG-6-31G_dp-NX-Scan-d89-09-n800
 OpenBabel11261920153D

 19 18  0  0  0  0  0  0  0  0999 V2000
   -2.4113    0.3366   -0.3158 C   0  0  0  0  0  0  0  0  0  0  0  0
   -2.9257    0.2410    0.9714 N   0  0  0  0  0  0  0  0  0  0  0  0
   -3.3164    0.0263    1.9976 N   0  0  0  0  0  0  0  0  0  0  0  0
   -2.6721   -0.7436   -1.1773 C   0  0  0  0  0  0  0  0  0  0  0  0
   -2.1507   -0.6808   -2.4619 C   0  0  0  0  0  0  0  0  0  0  0  0
   -1.3826    0.4244   -2.8513 C   0  0  0  0  0  0  0  0  0  0  0  0
   -1.1313    1.4762   -1.9648 C   0  0  0  0  0  0  0  0  0  0  0  0
   -1.6511    1.4591   -0.6740 C   0  0  0  0  0  0  0  0  0  0  0  0
   -3.2693   -1.5844   -0.8427 H   0  0  0  0  0  0  0  0  0  0  0  0
   -2.3412   -1.4904   -3.1582 H   0  0  0  0  0  0  0  0  0  0  0  0
   -0.9778    0.4634   -3.8578 H   0  0  0  0  0  0  0  0  0  0  0  0
   -0.5359    2.3257   -2.2818 H   0  0  0  0  0  0  0  0  0  0  0  0
   -1.4952    2.2519    0.0563 H   0  0  0  0  0  0  0  0  0  0  0  0
   -3.2621    3.2008    1.9643 S   0  0  0  0  0  0  0  0  0  0  0  0
   -1.7869    3.0100    1.9292 O   0  0  0  0  0  0  0  0  0  0  0  0
   -3.7611    1.9662    3.0508 O   0  0  0  0  0  0  0  0  0  0  0  0
   -3.7359    4.4508    2.5528 O   0  0  0  0  0  0  0  0  0  0  0  0
   -3.9393    2.7150    0.7418 O   0  0  0  0  0  0  0  0  0  0  0  0
   -3.2753    2.1143    3.8788 H   0  0  0  0  0  0  0  0  0  0  0  0
  1  2  1  0  0  0  0
  2  3  1  0  0  0  0
  4  9  1  0  0  0  0
  4  1  2  0  0  0  0
  5  4  1  0  0  0  0
  6  5  2  0  0  0  0
  6  7  1  0  0  0  0
  7  8  2  0  0  0  0
  8  1  1  0  0  0  0
  8 13  1  0  0  0  0
 10  5  1  0  0  0  0
 11  6  1  0  0  0  0
 12  7  1  0  0  0  0
 14 17  1  0  0  0  0
 14 16  1  0  0  0  0
 15 14  2  0  0  0  0
 16 19  1  0  0  0  0
 18 14  2  0  0  0  0
M  RAD  3   2   2   3   3  17   2
M  END
