Coordinates from ORCA-job PhN2+~HSO4-_B3LYPG-6-31G_dp-NX-Scan-d89-09-n800
 OpenBabel11261920153D

 19 19  0  0  1  0  0  0  0  0999 V2000
   -1.6099   -0.2642    0.3135 C   0  0  1  0  0  0  0  0  0  0  0  0
   -1.6123   -0.6038    1.5833 N   0  0  0  0  0  0  0  0  0  0  0  0
   -1.6747   -0.8272    2.6970 N   0  0  0  0  0  0  0  0  0  0  0  0
   -2.7481   -0.6397   -0.4998 C   0  0  0  0  0  0  0  0  0  0  0  0
   -3.1149    0.1701   -1.5129 C   0  0  0  0  0  0  0  0  0  0  0  0
   -2.4871    1.5077   -1.6729 C   0  0  2  0  0  0  0  0  0  0  0  0
   -1.1125    1.6022   -1.1256 C   0  0  0  0  0  0  0  0  0  0  0  0
   -0.7258    0.7994   -0.1141 C   0  0  0  0  0  0  0  0  0  0  0  0
   -3.2739   -1.5640   -0.2804 H   0  0  0  0  0  0  0  0  0  0  0  0
   -3.9362   -0.0950   -2.1702 H   0  0  0  0  0  0  0  0  0  0  0  0
   -2.5683    1.9000   -2.6858 H   0  0  0  0  0  0  0  0  0  0  0  0
   -0.4669    2.3982   -1.4782 H   0  0  0  0  0  0  0  0  0  0  0  0
    0.2220    0.9371    0.3959 H   0  0  0  0  0  0  0  0  0  0  0  0
   -3.3304    3.1273    0.4860 S   0  0  0  0  0  0  0  0  0  0  0  0
   -2.0549    3.7921    0.6657 O   0  0  0  0  0  0  0  0  0  0  0  0
   -3.2644    1.7888    1.4564 O   0  0  0  0  0  0  0  0  0  0  0  0
   -4.5948    3.7840    0.7749 O   0  0  0  0  0  0  0  0  0  0  0  0
   -3.4843    2.5388   -0.9912 O   0  0  0  0  0  0  0  0  0  0  0  0
   -4.1836    1.6102    1.7160 H   0  0  0  0  0  0  0  0  0  0  0  0
  1  2  1  1  0  0  0
  2  3  1  0  0  0  0
  4  9  1  0  0  0  0
  4  1  1  0  0  0  0
  5  4  2  0  0  0  0
  6 11  1  6  0  0  0
  6  5  1  0  0  0  0
  6  7  1  0  0  0  0
  6 18  1  0  0  0  0
  7  8  2  0  0  0  0
  8  1  1  0  0  0  0
  8 13  1  0  0  0  0
 10  5  1  0  0  0  0
 12  7  1  0  0  0  0
 14 15  2  0  0  0  0
 14 17  2  0  0  0  0
 14 16  1  0  0  0  0
 16 19  1  0  0  0  0
 18 14  1  0  0  0  0
M  RAD  3   1   2   2   2   3   3
M  END
