Coordinates from ORCA-job PhN2+~HSO4-_B3LYPG-6-31G_dp-NX-Scan-d89-09-n800
 OpenBabel11261920153D

 19 19  0  0  1  0  0  0  0  0999 V2000
   -1.6390   -0.2754    0.2610 C   0  0  1  0  0  0  0  0  0  0  0  0
   -1.8370   -0.4151    1.5554 N   0  0  0  0  0  0  0  0  0  0  0  0
   -2.1221   -0.3348    2.6515 N   0  0  0  0  0  0  0  0  0  0  0  0
   -2.6966   -0.7144   -0.6326 C   0  0  0  0  0  0  0  0  0  0  0  0
   -3.0373    0.0981   -1.6535 C   0  0  0  0  0  0  0  0  0  0  0  0
   -2.4869    1.4767   -1.6947 C   0  0  2  0  0  0  0  0  0  0  0  0
   -1.1087    1.5841   -1.1662 C   0  0  0  0  0  0  0  0  0  0  0  0
   -0.7330    0.7832   -0.1487 C   0  0  0  0  0  0  0  0  0  0  0  0
   -3.1875   -1.6663   -0.4558 H   0  0  0  0  0  0  0  0  0  0  0  0
   -3.7912   -0.1898   -2.3782 H   0  0  0  0  0  0  0  0  0  0  0  0
   -2.6274    1.9795   -2.6488 H   0  0  0  0  0  0  0  0  0  0  0  0
   -0.4660    2.3816   -1.5196 H   0  0  0  0  0  0  0  0  0  0  0  0
    0.1986    0.9277    0.3887 H   0  0  0  0  0  0  0  0  0  0  0  0
   -3.2950    3.0432    0.5688 S   0  0  0  0  0  0  0  0  0  0  0  0
   -2.0365    3.7652    0.5890 O   0  0  0  0  0  0  0  0  0  0  0  0
   -3.1070    1.7768    1.6352 O   0  0  0  0  0  0  0  0  0  0  0  0
   -4.5538    3.6790    0.9267 O   0  0  0  0  0  0  0  0  0  0  0  0
   -3.5449    2.3373   -0.8363 O   0  0  0  0  0  0  0  0  0  0  0  0
   -3.9498    1.7256    2.1156 H   0  0  0  0  0  0  0  0  0  0  0  0
  1  2  1  1  0  0  0
  2  3  1  0  0  0  0
  4  9  1  0  0  0  0
  4  1  1  0  0  0  0
  5  4  2  0  0  0  0
  6 11  1  6  0  0  0
  6  5  1  0  0  0  0
  6  7  1  0  0  0  0
  6 18  1  0  0  0  0
  7  8  2  0  0  0  0
  8  1  1  0  0  0  0
  8 13  1  0  0  0  0
 10  5  1  0  0  0  0
 12  7  1  0  0  0  0
 14 15  2  0  0  0  0
 14 17  2  0  0  0  0
 14 16  1  0  0  0  0
 16 19  1  0  0  0  0
 18 14  1  0  0  0  0
M  RAD  3   1   2   2   2   3   3
M  END
