Coordinates from ORCA-job PhN2+~HSO4-_B3LYPG-6-31G_dp-NX-Scan-d89-09-n800
 OpenBabel11261920153D

 19 19  0  0  1  0  0  0  0  0999 V2000
   -1.5990   -0.3018    0.3877 C   0  0  0  0  0  0  0  0  0  0  0  0
   -1.3524   -0.9500    1.5036 N   0  0  0  0  0  0  0  0  0  0  0  0
   -1.1582   -1.4915    2.4881 N   0  0  0  0  0  0  0  0  0  0  0  0
   -2.7876   -0.6138   -0.3726 C   0  0  0  0  0  0  0  0  0  0  0  0
   -3.1763    0.2178   -1.3597 C   0  0  0  0  0  0  0  0  0  0  0  0
   -2.4934    1.5182   -1.6039 C   0  0  2  0  0  0  0  0  0  0  0  0
   -1.1426    1.6249   -0.9938 C   0  0  0  0  0  0  0  0  0  0  0  0
   -0.7456    0.7946   -0.0092 C   0  0  0  0  0  0  0  0  0  0  0  0
   -3.3310   -1.5269   -0.1491 H   0  0  0  0  0  0  0  0  0  0  0  0
   -4.0451   -0.0155   -1.9665 H   0  0  0  0  0  0  0  0  0  0  0  0
   -2.4920    1.7944   -2.6598 H   0  0  0  0  0  0  0  0  0  0  0  0
   -0.5046    2.4421   -1.3100 H   0  0  0  0  0  0  0  0  0  0  0  0
    0.2097    0.9233    0.4888 H   0  0  0  0  0  0  0  0  0  0  0  0
   -3.4084    3.2920    0.3446 S   0  0  0  0  0  0  0  0  0  0  0  0
   -2.1468    3.9657    0.5758 O   0  0  0  0  0  0  0  0  0  0  0  0
   -3.3846    1.9843    1.3406 O   0  0  0  0  0  0  0  0  0  0  0  0
   -4.6879    3.9564    0.5229 O   0  0  0  0  0  0  0  0  0  0  0  0
   -3.4669    2.6441   -1.1203 O   0  0  0  0  0  0  0  0  0  0  0  0
   -4.3085    1.7041    1.4506 H   0  0  0  0  0  0  0  0  0  0  0  0
  1  2  1  0  0  0  0
  2  3  1  0  0  0  0
  4  9  1  0  0  0  0
  4  1  1  0  0  0  0
  5  4  2  0  0  0  0
  6 11  1  6  0  0  0
  6  5  1  0  0  0  0
  6 18  1  0  0  0  0
  6  7  1  0  0  0  0
  7  8  1  0  0  0  0
  8  1  2  0  0  0  0
  8 13  1  0  0  0  0
 10  5  1  0  0  0  0
 12  7  1  0  0  0  0
 14 17  2  0  0  0  0
 14 15  2  0  0  0  0
 14 16  1  0  0  0  0
 16 19  1  0  0  0  0
 18 14  1  0  0  0  0
M  RAD  3   2   2   3   3   7   2
M  END
