Coordinates from ORCA-job PhN2+~HSO4-_B3LYPG-6-31G_dp-NX-Scan-d89-09-n800
 OpenBabel11261920153D

 19 19  0  0  1  0  0  0  0  0999 V2000
   -1.4752   -0.8790    0.2666 C   0  0  0  0  0  0  0  0  0  0  0  0
   -1.0183   -1.9453    0.8853 N   0  0  0  0  0  0  0  0  0  0  0  0
   -0.6227   -2.8654    1.4343 N   0  0  0  0  0  0  0  0  0  0  0  0
   -2.5382   -1.0032   -0.7071 C   0  0  0  0  0  0  0  0  0  0  0  0
   -3.0152    0.0941   -1.3255 C   0  0  0  0  0  0  0  0  0  0  0  0
   -2.5498    1.4690   -0.9884 C   0  0  2  0  0  0  0  0  0  0  0  0
   -1.3550    1.5103   -0.0956 C   0  0  0  0  0  0  0  0  0  0  0  0
   -0.8781    0.4139    0.5241 C   0  0  0  0  0  0  0  0  0  0  0  0
   -2.9157   -1.9926   -0.9451 H   0  0  0  0  0  0  0  0  0  0  0  0
   -3.7978    0.0042   -2.0714 H   0  0  0  0  0  0  0  0  0  0  0  0
   -2.4277    2.0989   -1.8725 H   0  0  0  0  0  0  0  0  0  0  0  0
   -0.8888    2.4751    0.0711 H   0  0  0  0  0  0  0  0  0  0  0  0
   -0.0256    0.4705    1.1939 H   0  0  0  0  0  0  0  0  0  0  0  0
   -3.8787    3.6995   -0.2250 S   0  0  0  0  0  0  0  0  0  0  0  0
   -3.2085    4.2922   -1.3670 O   0  0  0  0  0  0  0  0  0  0  0  0
   -2.9405    4.0869    1.0600 O   0  0  0  0  0  0  0  0  0  0  0  0
   -5.2563    3.9903    0.1261 O   0  0  0  0  0  0  0  0  0  0  0  0
   -3.7566    2.0994   -0.2669 O   0  0  0  0  0  0  0  0  0  0  0  0
   -3.4723    3.9436    1.8607 H   0  0  0  0  0  0  0  0  0  0  0  0
  1  8  1  0  0  0  0
  1  2  1  0  0  0  0
  2  3  1  0  0  0  0
  4  1  2  0  0  0  0
  5  6  1  0  0  0  0
  5  4  1  0  0  0  0
  6 11  1  6  0  0  0
  6 18  1  0  0  0  0
  6  7  1  0  0  0  0
  7 12  1  0  0  0  0
  7  8  2  0  0  0  0
  8 13  1  0  0  0  0
  9  4  1  0  0  0  0
 10  5  1  0  0  0  0
 14 17  2  0  0  0  0
 14 16  1  0  0  0  0
 15 14  2  0  0  0  0
 16 19  1  0  0  0  0
 18 14  1  0  0  0  0
M  RAD  3   2   2   3   3   5   2
M  END
