Coordinates from ORCA-job PhN2+~HSO4-_B3LYPG-6-31G_dp-NX-Scan-d89-09-n800
 OpenBabel11261920153D

 19 19  0  0  1  0  0  0  0  0999 V2000
   -1.5836   -0.6248    0.3236 C   0  0  0  0  0  0  0  0  0  0  0  0
   -1.2801   -1.5015    1.2554 N   0  0  0  0  0  0  0  0  0  0  0  0
   -1.0180   -2.2328    2.0910 N   0  0  0  0  0  0  0  0  0  0  0  0
   -2.5935   -0.9245   -0.6683 C   0  0  0  0  0  0  0  0  0  0  0  0
   -3.0012    0.0449   -1.5117 C   0  0  0  0  0  0  0  0  0  0  0  0
   -2.5629    1.4586   -1.3357 C   0  0  2  0  0  0  0  0  0  0  0  0
   -1.3010    1.6040   -0.5556 C   0  0  0  0  0  0  0  0  0  0  0  0
   -0.8818    0.6393    0.2853 C   0  0  0  0  0  0  0  0  0  0  0  0
   -2.9788   -1.9369   -0.7361 H   0  0  0  0  0  0  0  0  0  0  0  0
   -3.7316   -0.1702   -2.2841 H   0  0  0  0  0  0  0  0  0  0  0  0
   -2.5389    2.0231   -2.2685 H   0  0  0  0  0  0  0  0  0  0  0  0
   -0.7668    2.5437   -0.6267 H   0  0  0  0  0  0  0  0  0  0  0  0
   -0.0072    0.7727    0.9139 H   0  0  0  0  0  0  0  0  0  0  0  0
   -3.6558    3.5500    0.0434 S   0  0  0  0  0  0  0  0  0  0  0  0
   -2.6898    4.3465   -0.6908 O   0  0  0  0  0  0  0  0  0  0  0  0
   -2.9588    3.2388    1.4942 O   0  0  0  0  0  0  0  0  0  0  0  0
   -5.0132    3.9974    0.3018 O   0  0  0  0  0  0  0  0  0  0  0  0
   -3.7763    2.0850   -0.5890 O   0  0  0  0  0  0  0  0  0  0  0  0
   -3.6817    3.0490    2.1154 H   0  0  0  0  0  0  0  0  0  0  0  0
  1  2  1  0  0  0  0
  2  3  1  0  0  0  0
  4  1  1  0  0  0  0
  5  6  1  0  0  0  0
  5  4  2  0  0  0  0
  6 11  1  6  0  0  0
  6 18  1  0  0  0  0
  6  7  1  0  0  0  0
  7  8  1  0  0  0  0
  8  1  2  0  0  0  0
  8 13  1  0  0  0  0
  9  4  1  0  0  0  0
 10  5  1  0  0  0  0
 12  7  1  0  0  0  0
 14 17  2  0  0  0  0
 14 16  1  0  0  0  0
 15 14  2  0  0  0  0
 16 19  1  0  0  0  0
 18 14  1  0  0  0  0
M  RAD  3   2   2   3   3   7   2
M  END
