Coordinates from ORCA-job PhN2+~HSO4-_B3LYPG-6-31G_dp-NX-Scan-d89-09-n800
 OpenBabel11261920153D

 19 19  0  0  1  0  0  0  0  0999 V2000
   -1.6170   -0.2641    0.2782 C   0  0  1  0  0  0  0  0  0  0  0  0
   -1.7510   -0.4561    1.5729 N   0  0  0  0  0  0  0  0  0  0  0  0
   -1.9694   -0.4830    2.6874 N   0  0  0  0  0  0  0  0  0  0  0  0
   -2.7141   -0.6792   -0.5769 C   0  0  0  0  0  0  0  0  0  0  0  0
   -3.0697    0.1284   -1.5959 C   0  0  0  0  0  0  0  0  0  0  0  0
   -2.4852    1.4905   -1.6920 C   0  0  2  0  0  0  0  0  0  0  0  0
   -1.1045    1.5905   -1.1660 C   0  0  0  0  0  0  0  0  0  0  0  0
   -0.7201    0.7930   -0.1493 C   0  0  0  0  0  0  0  0  0  0  0  0
   -3.2207   -1.6181   -0.3757 H   0  0  0  0  0  0  0  0  0  0  0  0
   -3.8556   -0.1525   -2.2888 H   0  0  0  0  0  0  0  0  0  0  0  0
   -2.6069    1.9484   -2.6717 H   0  0  0  0  0  0  0  0  0  0  0  0
   -0.4610    2.3846   -1.5264 H   0  0  0  0  0  0  0  0  0  0  0  0
    0.2210    0.9363    0.3716 H   0  0  0  0  0  0  0  0  0  0  0  0
   -3.3009    3.0594    0.5483 S   0  0  0  0  0  0  0  0  0  0  0  0
   -2.0227    3.7362    0.6565 O   0  0  0  0  0  0  0  0  0  0  0  0
   -3.1946    1.7469    1.5614 O   0  0  0  0  0  0  0  0  0  0  0  0
   -4.5549    3.7181    0.8779 O   0  0  0  0  0  0  0  0  0  0  0  0
   -3.5130    2.4311   -0.9016 O   0  0  0  0  0  0  0  0  0  0  0  0
   -4.0810    1.6520    1.9475 H   0  0  0  0  0  0  0  0  0  0  0  0
  1  2  1  1  0  0  0
  2  3  1  0  0  0  0
  4  9  1  0  0  0  0
  4  1  1  0  0  0  0
  5  4  2  0  0  0  0
  6 11  1  6  0  0  0
  6  5  1  0  0  0  0
  6  7  1  0  0  0  0
  6 18  1  0  0  0  0
  7  8  2  0  0  0  0
  8  1  1  0  0  0  0
  8 13  1  0  0  0  0
 10  5  1  0  0  0  0
 12  7  1  0  0  0  0
 14 15  2  0  0  0  0
 14 17  2  0  0  0  0
 14 16  1  0  0  0  0
 16 19  1  0  0  0  0
 18 14  1  0  0  0  0
M  RAD  3   1   2   2   2   3   3
M  END
