Coordinates from ORCA-job PhN2+~HSO4-_B3LYPG-6-31G_dp-NX-Scan-d89-09-n800
 OpenBabel11261920153D

 19 19  0  0  1  0  0  0  0  0999 V2000
   -1.5484   -0.7074    0.3081 C   0  0  0  0  0  0  0  0  0  0  0  0
   -1.1869   -1.6511    1.1490 N   0  0  0  0  0  0  0  0  0  0  0  0
   -0.8728   -2.4485    1.9027 N   0  0  0  0  0  0  0  0  0  0  0  0
   -2.5759   -0.9587   -0.6789 C   0  0  0  0  0  0  0  0  0  0  0  0
   -3.0120    0.0504   -1.4586 C   0  0  0  0  0  0  0  0  0  0  0  0
   -2.5718    1.4571   -1.2385 C   0  0  2  0  0  0  0  0  0  0  0  0
   -1.3286    1.5831   -0.4244 C   0  0  0  0  0  0  0  0  0  0  0  0
   -0.8855    0.5776    0.3538 C   0  0  0  0  0  0  0  0  0  0  0  0
   -2.9536   -1.9694   -0.7962 H   0  0  0  0  0  0  0  0  0  0  0  0
   -3.7597   -0.1316   -2.2230 H   0  0  0  0  0  0  0  0  0  0  0  0
   -2.5208    2.0403   -2.1592 H   0  0  0  0  0  0  0  0  0  0  0  0
   -0.8176    2.5388   -0.4312 H   0  0  0  0  0  0  0  0  0  0  0  0
   -0.0156    0.6952    0.9922 H   0  0  0  0  0  0  0  0  0  0  0  0
   -3.7110    3.6113   -0.0399 S   0  0  0  0  0  0  0  0  0  0  0  0
   -2.7976    4.3535   -0.8894 O   0  0  0  0  0  0  0  0  0  0  0  0
   -2.9566    3.4941    1.4088 O   0  0  0  0  0  0  0  0  0  0  0  0
   -5.0779    4.0324    0.2102 O   0  0  0  0  0  0  0  0  0  0  0  0
   -3.7854    2.0788   -0.5009 O   0  0  0  0  0  0  0  0  0  0  0  0
   -3.6435    3.3164    2.0729 H   0  0  0  0  0  0  0  0  0  0  0  0
  1  8  2  0  0  0  0
  1  2  1  0  0  0  0
  2  3  1  0  0  0  0
  4  1  1  0  0  0  0
  5  6  1  0  0  0  0
  5  4  2  0  0  0  0
  6 11  1  6  0  0  0
  6 18  1  0  0  0  0
  6  7  1  0  0  0  0
  7  8  1  0  0  0  0
  8 13  1  0  0  0  0
  9  4  1  0  0  0  0
 10  5  1  0  0  0  0
 12  7  1  0  0  0  0
 14 17  2  0  0  0  0
 14 16  1  0  0  0  0
 15 14  2  0  0  0  0
 16 19  1  0  0  0  0
 18 14  1  0  0  0  0
M  RAD  3   2   2   3   3   7   2
M  END
