Coordinates from ORCA-job PhN2+~HSO4-_B3LYPG-6-31G_dp-NX-Scan-d89-09-n800
 OpenBabel11261920153D

 19 19  0  0  1  0  0  0  0  0999 V2000
   -1.5165   -0.4125    0.4116 C   0  0  0  0  0  0  0  0  0  0  0  0
   -1.0861   -1.2677    1.3129 N   0  0  0  0  0  0  0  0  0  0  0  0
   -0.7152   -2.0067    2.1010 N   0  0  0  0  0  0  0  0  0  0  0  0
   -2.7681   -0.6521   -0.2710 C   0  0  0  0  0  0  0  0  0  0  0  0
   -3.2126    0.2316   -1.1860 C   0  0  0  0  0  0  0  0  0  0  0  0
   -2.4960    1.5031   -1.4966 C   0  0  2  0  0  0  0  0  0  0  0  0
   -1.1686    1.6371   -0.8330 C   0  0  0  0  0  0  0  0  0  0  0  0
   -0.7233    0.7503    0.0783 C   0  0  0  0  0  0  0  0  0  0  0  0
   -3.3185   -1.5621   -0.0524 H   0  0  0  0  0  0  0  0  0  0  0  0
   -4.1369    0.0442   -1.7230 H   0  0  0  0  0  0  0  0  0  0  0  0
   -2.4227    1.6713   -2.5755 H   0  0  0  0  0  0  0  0  0  0  0  0
   -0.5668    2.5016   -1.0879 H   0  0  0  0  0  0  0  0  0  0  0  0
    0.2406    0.8796    0.5593 H   0  0  0  0  0  0  0  0  0  0  0  0
   -3.4927    3.4538    0.2076 S   0  0  0  0  0  0  0  0  0  0  0  0
   -2.2157    4.0706    0.5029 O   0  0  0  0  0  0  0  0  0  0  0  0
   -3.6468    2.2438    1.2987 O   0  0  0  0  0  0  0  0  0  0  0  0
   -4.7341    4.2060    0.1886 O   0  0  0  0  0  0  0  0  0  0  0  0
   -3.4549    2.6750   -1.1973 O   0  0  0  0  0  0  0  0  0  0  0  0
   -4.5860    1.9954    1.3194 H   0  0  0  0  0  0  0  0  0  0  0  0
  1  2  1  0  0  0  0
  2  3  1  0  0  0  0
  4  9  1  0  0  0  0
  4  1  2  0  0  0  0
  5  4  1  0  0  0  0
  6 11  1  6  0  0  0
  6 18  1  0  0  0  0
  6  5  1  0  0  0  0
  6  7  1  0  0  0  0
  7  8  2  0  0  0  0
  8  1  1  0  0  0  0
  8 13  1  0  0  0  0
 10  5  1  0  0  0  0
 12  7  1  0  0  0  0
 14 15  2  0  0  0  0
 14 16  1  0  0  0  0
 16 19  1  0  0  0  0
 17 14  2  0  0  0  0
 18 14  1  0  0  0  0
M  RAD  3   2   2   3   3   5   2
M  END
