Coordinates from ORCA-job PhN2+~HSO4-_B3LYPG-6-31G_dp-NX-Scan-d89-09-n800
 OpenBabel11261920153D

 19 19  0  0  1  0  0  0  0  0999 V2000
   -1.4850   -0.8496    0.2744 C   0  0  0  0  0  0  0  0  0  0  0  0
   -1.0362   -1.8962    0.9313 N   0  0  0  0  0  0  0  0  0  0  0  0
   -0.6474   -2.7975    1.5152 N   0  0  0  0  0  0  0  0  0  0  0  0
   -2.5478   -1.0006   -0.6957 C   0  0  0  0  0  0  0  0  0  0  0  0
   -3.0237    0.0798   -1.3444 C   0  0  0  0  0  0  0  0  0  0  0  0
   -2.5616    1.4628   -1.0376 C   0  0  2  0  0  0  0  0  0  0  0  0
   -1.3543    1.5259   -0.1634 C   0  0  0  0  0  0  0  0  0  0  0  0
   -0.8780    0.4470    0.4867 C   0  0  0  0  0  0  0  0  0  0  0  0
   -2.9247   -1.9961   -0.9071 H   0  0  0  0  0  0  0  0  0  0  0  0
   -3.8049   -0.0301   -2.0891 H   0  0  0  0  0  0  0  0  0  0  0  0
   -2.4549    2.0799   -1.9323 H   0  0  0  0  0  0  0  0  0  0  0  0
   -0.8796    2.4924   -0.0353 H   0  0  0  0  0  0  0  0  0  0  0  0
   -0.0185    0.5190    1.1459 H   0  0  0  0  0  0  0  0  0  0  0  0
   -3.8358    3.6944   -0.1930 S   0  0  0  0  0  0  0  0  0  0  0  0
   -3.0801    4.3178   -1.2633 O   0  0  0  0  0  0  0  0  0  0  0  0
   -2.9594    3.9779    1.1602 O   0  0  0  0  0  0  0  0  0  0  0  0
   -5.2196    4.0215    0.0973 O   0  0  0  0  0  0  0  0  0  0  0  0
   -3.7677    2.0955   -0.3142 O   0  0  0  0  0  0  0  0  0  0  0  0
   -3.5418    3.8186    1.9218 H   0  0  0  0  0  0  0  0  0  0  0  0
  1  8  1  0  0  0  0
  1  2  1  0  0  0  0
  2  3  1  0  0  0  0
  4  1  2  0  0  0  0
  5  6  1  0  0  0  0
  5  4  1  0  0  0  0
  6 11  1  6  0  0  0
  6 18  1  0  0  0  0
  6  7  1  0  0  0  0
  7 12  1  0  0  0  0
  7  8  2  0  0  0  0
  8 13  1  0  0  0  0
  9  4  1  0  0  0  0
 10  5  1  0  0  0  0
 14 17  2  0  0  0  0
 14 16  1  0  0  0  0
 15 14  2  0  0  0  0
 16 19  1  0  0  0  0
 18 14  1  0  0  0  0
M  RAD  3   2   2   3   3   5   2
M  END
