Coordinates from ORCA-job PhN2+~HSO4-_B3LYPG-6-31G_dp-NX-Scan-d89-09-n800
 OpenBabel11261920153D

 19 19  0  0  1  0  0  0  0  0999 V2000
   -1.4969   -0.8139    0.2832 C   0  0  0  0  0  0  0  0  0  0  0  0
   -1.0591   -1.8367    0.9837 N   0  0  0  0  0  0  0  0  0  0  0  0
   -0.6797   -2.7149    1.6073 N   0  0  0  0  0  0  0  0  0  0  0  0
   -2.5585   -0.9941   -0.6831 C   0  0  0  0  0  0  0  0  0  0  0  0
   -3.0314    0.0663   -1.3663 C   0  0  0  0  0  0  0  0  0  0  0  0
   -2.5727    1.4575   -1.0933 C   0  0  2  0  0  0  0  0  0  0  0  0
   -1.3536    1.5432   -0.2376 C   0  0  0  0  0  0  0  0  0  0  0  0
   -0.8791    0.4846    0.4460 C   0  0  0  0  0  0  0  0  0  0  0  0
   -2.9359   -1.9955   -0.8641 H   0  0  0  0  0  0  0  0  0  0  0  0
   -3.8106   -0.0657   -2.1094 H   0  0  0  0  0  0  0  0  0  0  0  0
   -2.4799    2.0589   -1.9999 H   0  0  0  0  0  0  0  0  0  0  0  0
   -0.8709    2.5102   -0.1508 H   0  0  0  0  0  0  0  0  0  0  0  0
   -0.0132    0.5731    1.0947 H   0  0  0  0  0  0  0  0  0  0  0  0
   -3.7886    3.6843   -0.1547 S   0  0  0  0  0  0  0  0  0  0  0  0
   -2.9491    4.3360   -1.1428 O   0  0  0  0  0  0  0  0  0  0  0  0
   -2.9787    3.8426    1.2586 O   0  0  0  0  0  0  0  0  0  0  0  0
   -5.1712    4.0572    0.0823 O   0  0  0  0  0  0  0  0  0  0  0  0
   -3.7796    2.0947   -0.3722 O   0  0  0  0  0  0  0  0  0  0  0  0
   -3.6125    3.6747    1.9759 H   0  0  0  0  0  0  0  0  0  0  0  0
  1  8  1  0  0  0  0
  1  2  1  0  0  0  0
  2  3  1  0  0  0  0
  4  1  2  0  0  0  0
  5  6  1  0  0  0  0
  5  4  1  0  0  0  0
  6 11  1  6  0  0  0
  6 18  1  0  0  0  0
  6  7  1  0  0  0  0
  7 12  1  0  0  0  0
  7  8  2  0  0  0  0
  8 13  1  0  0  0  0
  9  4  1  0  0  0  0
 10  5  1  0  0  0  0
 14 17  2  0  0  0  0
 14 16  1  0  0  0  0
 15 14  2  0  0  0  0
 16 19  1  0  0  0  0
 18 14  1  0  0  0  0
M  RAD  3   2   2   3   3   5   2
M  END
