Coordinates from ORCA-job PhN2+~HSO4-_B3LYPG-6-31G_dp-NX-Scan-d89-09-n800
 OpenBabel11261920153D

 19 19  0  0  1  0  0  0  0  0999 V2000
   -1.6059   -0.2845    0.3678 C   0  0  1  0  0  0  0  0  0  0  0  0
   -1.4247   -0.8508    1.5392 N   0  0  0  0  0  0  0  0  0  0  0  0
   -1.2953   -1.3115    2.5735 N   0  0  0  0  0  0  0  0  0  0  0  0
   -2.7807   -0.6147   -0.4068 C   0  0  0  0  0  0  0  0  0  0  0  0
   -3.1611    0.2079   -1.4048 C   0  0  0  0  0  0  0  0  0  0  0  0
   -2.4916    1.5180   -1.6279 C   0  0  2  0  0  0  0  0  0  0  0  0
   -1.1329    1.6186   -1.0370 C   0  0  0  0  0  0  0  0  0  0  0  0
   -0.7410    0.7985   -0.0417 C   0  0  0  0  0  0  0  0  0  0  0  0
   -3.3209   -1.5294   -0.1819 H   0  0  0  0  0  0  0  0  0  0  0  0
   -4.0171   -0.0352   -2.0256 H   0  0  0  0  0  0  0  0  0  0  0  0
   -2.5139    1.8269   -2.6737 H   0  0  0  0  0  0  0  0  0  0  0  0
   -0.4904    2.4271   -1.3661 H   0  0  0  0  0  0  0  0  0  0  0  0
    0.2125    0.9287    0.4593 H   0  0  0  0  0  0  0  0  0  0  0  0
   -3.3849    3.2429    0.3867 S   0  0  0  0  0  0  0  0  0  0  0  0
   -2.1191    3.9123    0.6086 O   0  0  0  0  0  0  0  0  0  0  0  0
   -3.3485    1.9189    1.3651 O   0  0  0  0  0  0  0  0  0  0  0  0
   -4.6609    3.9039    0.6012 O   0  0  0  0  0  0  0  0  0  0  0  0
   -3.4702    2.6228   -1.0875 O   0  0  0  0  0  0  0  0  0  0  0  0
   -4.2745    1.6619    1.5091 H   0  0  0  0  0  0  0  0  0  0  0  0
  1  2  1  1  0  0  0
  2  3  1  0  0  0  0
  4  9  1  0  0  0  0
  4  1  1  0  0  0  0
  5  4  2  0  0  0  0
  6 11  1  6  0  0  0
  6  5  1  0  0  0  0
  6 18  1  0  0  0  0
  6  7  1  0  0  0  0
  7  8  2  0  0  0  0
  8  1  1  0  0  0  0
  8 13  1  0  0  0  0
 10  5  1  0  0  0  0
 12  7  1  0  0  0  0
 14 17  2  0  0  0  0
 14 15  2  0  0  0  0
 14 16  1  0  0  0  0
 16 19  1  0  0  0  0
 18 14  1  0  0  0  0
M  RAD  3   1   2   2   2   3   3
M  END
