Coordinates from ORCA-job PhN2+~HSO4-_B3LYPG-6-31G_dp-NX-Scan-d89-09-n800
 OpenBabel11261920153D

 19 19  0  0  1  0  0  0  0  0999 V2000
   -1.4644   -0.9249    0.2526 C   0  0  0  0  0  0  0  0  0  0  0  0
   -1.0088   -2.0226    0.8142 N   0  0  0  0  0  0  0  0  0  0  0  0
   -0.6141   -2.9724    1.3113 N   0  0  0  0  0  0  0  0  0  0  0  0
   -2.5140   -0.9988   -0.7406 C   0  0  0  0  0  0  0  0  0  0  0  0
   -2.9840    0.1288   -1.3076 C   0  0  0  0  0  0  0  0  0  0  0  0
   -2.5204    1.4852   -0.9006 C   0  0  2  0  0  0  0  0  0  0  0  0
   -1.3518    1.4821    0.0268 C   0  0  0  0  0  0  0  0  0  0  0  0
   -0.8821    0.3549    0.5949 C   0  0  0  0  0  0  0  0  0  0  0  0
   -2.8883   -1.9744   -1.0336 H   0  0  0  0  0  0  0  0  0  0  0  0
   -3.7570    0.0778   -2.0672 H   0  0  0  0  0  0  0  0  0  0  0  0
   -2.3744    2.1473   -1.7575 H   0  0  0  0  0  0  0  0  0  0  0  0
   -0.8995    2.4393    0.2619 H   0  0  0  0  0  0  0  0  0  0  0  0
   -0.0477    0.3789    1.2892 H   0  0  0  0  0  0  0  0  0  0  0  0
   -3.9656    3.6837   -0.2643 S   0  0  0  0  0  0  0  0  0  0  0  0
   -3.5028    4.1957   -1.5402 O   0  0  0  0  0  0  0  0  0  0  0  0
   -2.8946    4.2600    0.8344 O   0  0  0  0  0  0  0  0  0  0  0  0
   -5.3017    3.9223    0.2485 O   0  0  0  0  0  0  0  0  0  0  0  0
   -3.7313    2.0987   -0.1719 O   0  0  0  0  0  0  0  0  0  0  0  0
   -3.3184    4.2007    1.7072 H   0  0  0  0  0  0  0  0  0  0  0  0
  1  8  1  0  0  0  0
  1  2  1  0  0  0  0
  2  3  1  0  0  0  0
  4  1  2  0  0  0  0
  5  6  1  0  0  0  0
  5  4  1  0  0  0  0
  6 11  1  6  0  0  0
  6 18  1  0  0  0  0
  6  7  1  0  0  0  0
  7 12  1  0  0  0  0
  7  8  2  0  0  0  0
  8 13  1  0  0  0  0
  9  4  1  0  0  0  0
 10  5  1  0  0  0  0
 14 18  1  0  0  0  0
 14 17  2  0  0  0  0
 14 16  1  0  0  0  0
 15 14  2  0  0  0  0
 16 19  1  0  0  0  0
M  RAD  3   2   2   3   3   5   2
M  END
