Coordinates from ORCA-job PhN2+~HSO4-_B3LYPG-6-31G_dp-NX-Scan-d89-09-n800
 OpenBabel11261920153D

 19 19  0  0  1  0  0  0  0  0999 V2000
   -1.4592   -1.0247    0.1797 C   0  0  0  0  0  0  0  0  0  0  0  0
   -1.1019   -2.2389    0.5344 N   0  0  0  0  0  0  0  0  0  0  0  0
   -0.7942   -3.2935    0.8472 N   0  0  0  0  0  0  0  0  0  0  0  0
   -2.4713   -0.8340   -0.8378 C   0  0  0  0  0  0  0  0  0  0  0  0
   -2.8385    0.4112   -1.1954 C   0  0  0  0  0  0  0  0  0  0  0  0
   -2.2963    1.6268   -0.5255 C   0  0  2  0  0  0  0  0  0  0  0  0
   -1.1795    1.3651    0.4244 C   0  0  0  0  0  0  0  0  0  0  0  0
   -0.8104    0.1196    0.7807 C   0  0  0  0  0  0  0  0  0  0  0  0
   -2.9032   -1.7080   -1.3144 H   0  0  0  0  0  0  0  0  0  0  0  0
   -3.5812    0.5696   -1.9699 H   0  0  0  0  0  0  0  0  0  0  0  0
   -2.0501    2.4146   -1.2421 H   0  0  0  0  0  0  0  0  0  0  0  0
   -0.6809    2.2272    0.8543 H   0  0  0  0  0  0  0  0  0  0  0  0
   -0.0106   -0.0493    1.4952 H   0  0  0  0  0  0  0  0  0  0  0  0
   -4.2476    3.4539   -0.2889 S   0  0  0  0  0  0  0  0  0  0  0  0
   -4.4399    3.2682   -1.7148 O   0  0  0  0  0  0  0  0  0  0  0  0
   -3.1579    4.6709   -0.1660 O   0  0  0  0  0  0  0  0  0  0  0  0
   -5.3361    3.7246    0.6310 O   0  0  0  0  0  0  0  0  0  0  0  0
   -3.4277    2.2237    0.3338 O   0  0  0  0  0  0  0  0  0  0  0  0
   -3.2346    5.0354    0.7318 H   0  0  0  0  0  0  0  0  0  0  0  0
  1  2  1  0  0  0  0
  1  8  2  0  0  0  0
  2  3  1  0  0  0  0
  4  1  1  0  0  0  0
  5  4  2  0  0  0  0
  5  6  1  0  0  0  0
  6 11  1  6  0  0  0
  6 18  1  0  0  0  0
  6  7  1  0  0  0  0
  7  8  1  0  0  0  0
  7 12  1  0  0  0  0
  8 13  1  0  0  0  0
  9  4  1  0  0  0  0
 10  5  1  0  0  0  0
 14 16  1  0  0  0  0
 14 18  1  0  0  0  0
 14 17  2  0  0  0  0
 15 14  2  0  0  0  0
 16 19  1  0  0  0  0
M  RAD  3   2   2   3   3   7   2
M  END
