Coordinates from ORCA-job PhN2+~HSO4-_B3LYPG-6-31G_dp-NX-Scan-d89-09-n800
 OpenBabel11261920153D

 19 19  0  0  1  0  0  0  0  0999 V2000
   -1.5257   -0.4031    0.4123 C   0  0  0  0  0  0  0  0  0  0  0  0
   -1.1069   -1.2471    1.3294 N   0  0  0  0  0  0  0  0  0  0  0  0
   -0.7463   -1.9767    2.1307 N   0  0  0  0  0  0  0  0  0  0  0  0
   -2.7721   -0.6478   -0.2778 C   0  0  0  0  0  0  0  0  0  0  0  0
   -3.2111    0.2316   -1.1995 C   0  0  0  0  0  0  0  0  0  0  0  0
   -2.4960    1.5050   -1.5050 C   0  0  2  0  0  0  0  0  0  0  0  0
   -1.1677    1.6372   -0.8435 C   0  0  0  0  0  0  0  0  0  0  0  0
   -0.7276    0.7549    0.0747 C   0  0  0  0  0  0  0  0  0  0  0  0
   -3.3224   -1.5579   -0.0593 H   0  0  0  0  0  0  0  0  0  0  0  0
   -4.1310    0.0409   -1.7429 H   0  0  0  0  0  0  0  0  0  0  0  0
   -2.4261    1.6800   -2.5829 H   0  0  0  0  0  0  0  0  0  0  0  0
   -0.5626    2.4982   -1.1026 H   0  0  0  0  0  0  0  0  0  0  0  0
    0.2352    0.8841    0.5579 H   0  0  0  0  0  0  0  0  0  0  0  0
   -3.4869    3.4438    0.2155 S   0  0  0  0  0  0  0  0  0  0  0  0
   -2.2132    4.0717    0.5010 O   0  0  0  0  0  0  0  0  0  0  0  0
   -3.6161    2.2248    1.3006 O   0  0  0  0  0  0  0  0  0  0  0  0
   -4.7361    4.1834    0.2157 O   0  0  0  0  0  0  0  0  0  0  0  0
   -3.4566    2.6743   -1.1945 O   0  0  0  0  0  0  0  0  0  0  0  0
   -4.5520    1.9649    1.3281 H   0  0  0  0  0  0  0  0  0  0  0  0
  1  2  1  0  0  0  0
  2  3  1  0  0  0  0
  4  9  1  0  0  0  0
  4  1  2  0  0  0  0
  5  4  1  0  0  0  0
  6 11  1  6  0  0  0
  6  5  1  0  0  0  0
  6 18  1  0  0  0  0
  6  7  1  0  0  0  0
  7  8  2  0  0  0  0
  8  1  1  0  0  0  0
  8 13  1  0  0  0  0
 10  5  1  0  0  0  0
 12  7  1  0  0  0  0
 14 17  2  0  0  0  0
 14 15  2  0  0  0  0
 14 16  1  0  0  0  0
 16 19  1  0  0  0  0
 18 14  1  0  0  0  0
M  RAD  3   2   2   3   3   5   2
M  END
