Coordinates from ORCA-job PhN2+~HSO4-_B3LYPG-6-31G_dp-NX-Scan-d89-09-n800
 OpenBabel11261920153D

 19 19  0  0  1  0  0  0  0  0999 V2000
   -1.4600   -1.0453    0.1751 C   0  0  0  0  0  0  0  0  0  0  0  0
   -1.1063   -2.2737    0.4857 N   0  0  0  0  0  0  0  0  0  0  0  0
   -0.8028   -3.3422    0.7552 N   0  0  0  0  0  0  0  0  0  0  0  0
   -2.4911   -0.8140   -0.8153 C   0  0  0  0  0  0  0  0  0  0  0  0
   -2.8412    0.4437   -1.1462 C   0  0  0  0  0  0  0  0  0  0  0  0
   -2.2499    1.6434   -0.4856 C   0  0  2  0  0  0  0  0  0  0  0  0
   -1.1401    1.3383    0.4611 C   0  0  0  0  0  0  0  0  0  0  0  0
   -0.7894    0.0793    0.7902 C   0  0  0  0  0  0  0  0  0  0  0  0
   -2.9538   -1.6701   -1.2955 H   0  0  0  0  0  0  0  0  0  0  0  0
   -3.5983    0.6264   -1.9008 H   0  0  0  0  0  0  0  0  0  0  0  0
   -1.9727    2.4152   -1.2096 H   0  0  0  0  0  0  0  0  0  0  0  0
   -0.6233    2.1814    0.9067 H   0  0  0  0  0  0  0  0  0  0  0  0
    0.0131   -0.1136    1.4956 H   0  0  0  0  0  0  0  0  0  0  0  0
   -4.2488    3.4415   -0.3030 S   0  0  0  0  0  0  0  0  0  0  0  0
   -4.4295    3.1683   -1.7164 O   0  0  0  0  0  0  0  0  0  0  0  0
   -3.2657    4.7511   -0.2526 O   0  0  0  0  0  0  0  0  0  0  0  0
   -5.3524    3.6751    0.6094 O   0  0  0  0  0  0  0  0  0  0  0  0
   -3.3408    2.3045    0.3771 O   0  0  0  0  0  0  0  0  0  0  0  0
   -3.3680    5.1530    0.6265 H   0  0  0  0  0  0  0  0  0  0  0  0
  1  2  1  0  0  0  0
  1  8  2  0  0  0  0
  2  3  1  0  0  0  0
  4  1  1  0  0  0  0
  5  4  2  0  0  0  0
  5  6  1  0  0  0  0
  6 11  1  6  0  0  0
  6 18  1  0  0  0  0
  6  7  1  0  0  0  0
  7  8  1  0  0  0  0
  7 12  1  0  0  0  0
  8 13  1  0  0  0  0
  9  4  1  0  0  0  0
 10  5  1  0  0  0  0
 14 16  1  0  0  0  0
 14 18  1  0  0  0  0
 14 17  2  0  0  0  0
 15 14  2  0  0  0  0
 16 19  1  0  0  0  0
M  RAD  3   2   2   3   3   7   2
M  END
