Coordinates from ORCA-job PhN2+~HSO4-_B3LYPG-6-31G_dp-NX-Scan-d89-09-n800
 OpenBabel11261920153D

 19 19  0  0  1  0  0  0  0  0999 V2000
   -1.6065   -0.2873    0.3724 C   0  0  1  0  0  0  0  0  0  0  0  0
   -1.4128   -0.8708    1.5333 N   0  0  0  0  0  0  0  0  0  0  0  0
   -1.2709   -1.3482    2.5584 N   0  0  0  0  0  0  0  0  0  0  0  0
   -2.7829   -0.6146   -0.4010 C   0  0  0  0  0  0  0  0  0  0  0  0
   -3.1641    0.2094   -1.3974 C   0  0  0  0  0  0  0  0  0  0  0  0
   -2.4924    1.5180   -1.6237 C   0  0  2  0  0  0  0  0  0  0  0  0
   -1.1358    1.6203   -1.0278 C   0  0  0  0  0  0  0  0  0  0  0  0
   -0.7438    0.7986   -0.0339 C   0  0  0  0  0  0  0  0  0  0  0  0
   -3.3233   -1.5295   -0.1772 H   0  0  0  0  0  0  0  0  0  0  0  0
   -4.0216   -0.0324   -2.0166 H   0  0  0  0  0  0  0  0  0  0  0  0
   -2.5097    1.8212   -2.6714 H   0  0  0  0  0  0  0  0  0  0  0  0
   -0.4940    2.4305   -1.3540 H   0  0  0  0  0  0  0  0  0  0  0  0
    0.2096    0.9287    0.4673 H   0  0  0  0  0  0  0  0  0  0  0  0
   -3.3889    3.2530    0.3777 S   0  0  0  0  0  0  0  0  0  0  0  0
   -2.1255    3.9274    0.5977 O   0  0  0  0  0  0  0  0  0  0  0  0
   -3.3481    1.9328    1.3601 O   0  0  0  0  0  0  0  0  0  0  0  0
   -4.6672    3.9108    0.5881 O   0  0  0  0  0  0  0  0  0  0  0  0
   -3.4707    2.6264   -1.0941 O   0  0  0  0  0  0  0  0  0  0  0  0
   -4.2726    1.6682    1.4996 H   0  0  0  0  0  0  0  0  0  0  0  0
  1  2  1  1  0  0  0
  2  3  1  0  0  0  0
  4  9  1  0  0  0  0
  4  1  1  0  0  0  0
  5  4  2  0  0  0  0
  6 11  1  6  0  0  0
  6  5  1  0  0  0  0
  6 18  1  0  0  0  0
  6  7  1  0  0  0  0
  7  8  2  0  0  0  0
  8  1  1  0  0  0  0
  8 13  1  0  0  0  0
 10  5  1  0  0  0  0
 12  7  1  0  0  0  0
 14 17  2  0  0  0  0
 14 15  2  0  0  0  0
 14 16  1  0  0  0  0
 16 19  1  0  0  0  0
 18 14  1  0  0  0  0
M  RAD  3   1   2   2   2   3   3
M  END
