Coordinates from ORCA-job PhN2+~HSO4-_B3LYPG-6-31G_dp-NX-Scan-d89-09-n800
 OpenBabel11261920153D

 19 19  0  0  1  0  0  0  0  0999 V2000
   -1.5708   -0.3436    0.4069 C   0  0  0  0  0  0  0  0  0  0  0  0
   -1.2350   -1.0974    1.4301 N   0  0  0  0  0  0  0  0  0  0  0  0
   -0.9526   -1.7429    2.3278 N   0  0  0  0  0  0  0  0  0  0  0  0
   -2.7866   -0.6228   -0.3226 C   0  0  0  0  0  0  0  0  0  0  0  0
   -3.1958    0.2290   -1.2836 C   0  0  0  0  0  0  0  0  0  0  0  0
   -2.4943    1.5147   -1.5599 C   0  0  2  0  0  0  0  0  0  0  0  0
   -1.1541    1.6318   -0.9243 C   0  0  0  0  0  0  0  0  0  0  0  0
   -0.7405    0.7791    0.0337 C   0  0  0  0  0  0  0  0  0  0  0  0
   -3.3352   -1.5332   -0.1005 H   0  0  0  0  0  0  0  0  0  0  0  0
   -4.0888    0.0155   -1.8621 H   0  0  0  0  0  0  0  0  0  0  0  0
   -2.4586    1.7402   -2.6285 H   0  0  0  0  0  0  0  0  0  0  0  0
   -0.5282    2.4670   -1.2167 H   0  0  0  0  0  0  0  0  0  0  0  0
    0.2188    0.9064    0.5244 H   0  0  0  0  0  0  0  0  0  0  0  0
   -3.4476    3.3667    0.2818 S   0  0  0  0  0  0  0  0  0  0  0  0
   -2.1840    4.0277    0.5370 O   0  0  0  0  0  0  0  0  0  0  0  0
   -3.4806    2.0937    1.3154 O   0  0  0  0  0  0  0  0  0  0  0  0
   -4.7205    4.0581    0.3829 O   0  0  0  0  0  0  0  0  0  0  0  0
   -3.4603    2.6667   -1.1625 O   0  0  0  0  0  0  0  0  0  0  0  0
   -4.4064    1.8053    1.3782 H   0  0  0  0  0  0  0  0  0  0  0  0
  1  2  1  0  0  0  0
  2  3  1  0  0  0  0
  4  9  1  0  0  0  0
  4  1  2  0  0  0  0
  5  4  1  0  0  0  0
  6 11  1  6  0  0  0
  6  5  1  0  0  0  0
  6 18  1  0  0  0  0
  6  7  1  0  0  0  0
  7  8  2  0  0  0  0
  8  1  1  0  0  0  0
  8 13  1  0  0  0  0
 10  5  1  0  0  0  0
 12  7  1  0  0  0  0
 14 17  2  0  0  0  0
 14 15  2  0  0  0  0
 14 16  1  0  0  0  0
 16 19  1  0  0  0  0
 18 14  1  0  0  0  0
M  RAD  3   2   2   3   3   5   2
M  END
