Coordinates from ORCA-job PhN2+~HSO4-_B3LYPG-6-31G_dp-NX-Scan-d89-09-n800
 OpenBabel11261920163D

 19 18  0  0  0  0  0  0  0  0999 V2000
   -3.1805    0.1882   -0.3074 C   0  0  0  0  0  0  0  0  0  0  0  0
   -4.1610   -0.2313    0.6539 N   0  0  0  0  0  0  0  0  0  0  0  0
   -4.4347    0.4892    1.6525 N   0  0  0  0  0  0  0  0  0  0  0  0
   -2.2713   -0.7993   -0.7140 C   0  0  0  0  0  0  0  0  0  0  0  0
   -1.3406   -0.5337   -1.7158 C   0  0  0  0  0  0  0  0  0  0  0  0
   -1.3250    0.7120   -2.3482 C   0  0  0  0  0  0  0  0  0  0  0  0
   -2.2470    1.6893   -1.9690 C   0  0  0  0  0  0  0  0  0  0  0  0
   -3.1690    1.4375   -0.9515 C   0  0  0  0  0  0  0  0  0  0  0  0
   -2.3149   -1.7708   -0.2323 H   0  0  0  0  0  0  0  0  0  0  0  0
   -0.6357   -1.3051   -2.0127 H   0  0  0  0  0  0  0  0  0  0  0  0
   -0.6071    0.9162   -3.1371 H   0  0  0  0  0  0  0  0  0  0  0  0
   -2.2488    2.6572   -2.4613 H   0  0  0  0  0  0  0  0  0  0  0  0
   -3.8891    2.2015   -0.6787 H   0  0  0  0  0  0  0  0  0  0  0  0
   -1.5549    3.2090    1.8288 S   0  0  0  0  0  0  0  0  0  0  0  0
   -0.5238    2.1927    1.9184 O   0  0  0  0  0  0  0  0  0  0  0  0
   -3.8756    1.4848    1.7922 O   0  0  0  0  0  0  0  0  0  0  0  0
   -2.4263    3.4571    2.9725 O   0  0  0  0  0  0  0  0  0  0  0  0
   -1.6817    4.0407    0.6457 O   0  0  0  0  0  0  0  0  0  0  0  0
   -4.1342    1.9273    2.6217 H   0  0  0  0  0  0  0  0  0  0  0  0
  1  2  1  0  0  0  0
  2  3  2  0  0  0  0
  3 16  1  0  0  0  0
  4  1  1  0  0  0  0
  4  9  1  0  0  0  0
  5  4  2  0  0  0  0
  6  7  2  0  0  0  0
  6  5  1  0  0  0  0
  7  8  1  0  0  0  0
  8 13  1  0  0  0  0
  8  1  2  0  0  0  0
 10  5  1  0  0  0  0
 11  6  1  0  0  0  0
 12  7  1  0  0  0  0
 14 15  2  0  0  0  0
 14 17  1  0  0  0  0
 16 19  1  0  0  0  0
 18 14  1  0  0  0  0
M  RAD  2  17   2  18   2
M  END
