Coordinates from ORCA-job PhN2+~HSO4-_B3LYPG-6-31G_dp-NX-Scan-d89-09-n800
 OpenBabel11261920153D

 19 19  0  0  1  0  0  0  0  0999 V2000
   -1.6489   -0.2780    0.2526 C   0  0  1  0  0  0  0  0  0  0  0  0
   -1.8727   -0.3952    1.5465 N   0  0  0  0  0  0  0  0  0  0  0  0
   -2.1843   -0.2526    2.6287 N   0  0  0  0  0  0  0  0  0  0  0  0
   -2.6877   -0.7290   -0.6566 C   0  0  0  0  0  0  0  0  0  0  0  0
   -3.0217    0.0852   -1.6793 C   0  0  0  0  0  0  0  0  0  0  0  0
   -2.4856    1.4688   -1.6978 C   0  0  2  0  0  0  0  0  0  0  0  0
   -1.1087    1.5796   -1.1705 C   0  0  0  0  0  0  0  0  0  0  0  0
   -0.7379    0.7795   -0.1502 C   0  0  0  0  0  0  0  0  0  0  0  0
   -3.1725   -1.6854   -0.4884 H   0  0  0  0  0  0  0  0  0  0  0  0
   -3.7618   -0.2056   -2.4169 H   0  0  0  0  0  0  0  0  0  0  0  0
   -2.6395    1.9933   -2.6376 H   0  0  0  0  0  0  0  0  0  0  0  0
   -0.4661    2.3779   -1.5222 H   0  0  0  0  0  0  0  0  0  0  0  0
    0.1887    0.9252    0.3953 H   0  0  0  0  0  0  0  0  0  0  0  0
   -3.2926    3.0321    0.5818 S   0  0  0  0  0  0  0  0  0  0  0  0
   -2.0391    3.7641    0.5703 O   0  0  0  0  0  0  0  0  0  0  0  0
   -3.0812    1.7824    1.6697 O   0  0  0  0  0  0  0  0  0  0  0  0
   -4.5496    3.6670    0.9491 O   0  0  0  0  0  0  0  0  0  0  0  0
   -3.5555    2.2937   -0.8021 O   0  0  0  0  0  0  0  0  0  0  0  0
   -3.9043    1.7593    2.1853 H   0  0  0  0  0  0  0  0  0  0  0  0
  1  2  1  1  0  0  0
  2  3  1  0  0  0  0
  4  9  1  0  0  0  0
  4  1  1  0  0  0  0
  5  4  2  0  0  0  0
  6 11  1  6  0  0  0
  6  5  1  0  0  0  0
  6  7  1  0  0  0  0
  6 18  1  0  0  0  0
  7  8  2  0  0  0  0
  8  1  1  0  0  0  0
  8 13  1  0  0  0  0
 10  5  1  0  0  0  0
 12  7  1  0  0  0  0
 14 17  2  0  0  0  0
 14 16  1  0  0  0  0
 15 14  2  0  0  0  0
 16 19  1  0  0  0  0
 18 14  1  0  0  0  0
M  RAD  3   1   2   2   2   3   3
M  END
