Coordinates from ORCA-job PhN2+~HSO4-_B3LYPG-6-31G_dp-NX-Scan-d89-09-n800
 OpenBabel11261920153D

 19 19  0  0  1  0  0  0  0  0999 V2000
   -1.6155   -0.2645    0.2813 C   0  0  1  0  0  0  0  0  0  0  0  0
   -1.7379   -0.4695    1.5751 N   0  0  0  0  0  0  0  0  0  0  0  0
   -1.9424   -0.5164    2.6917 N   0  0  0  0  0  0  0  0  0  0  0  0
   -2.7176   -0.6751   -0.5690 C   0  0  0  0  0  0  0  0  0  0  0  0
   -3.0748    0.1329   -1.5870 C   0  0  0  0  0  0  0  0  0  0  0  0
   -2.4853    1.4924   -1.6902 C   0  0  2  0  0  0  0  0  0  0  0  0
   -1.1049    1.5913   -1.1627 C   0  0  0  0  0  0  0  0  0  0  0  0
   -0.7200    0.7931   -0.1466 C   0  0  0  0  0  0  0  0  0  0  0  0
   -3.2266   -1.6122   -0.3655 H   0  0  0  0  0  0  0  0  0  0  0  0
   -3.8650   -0.1462   -2.2758 H   0  0  0  0  0  0  0  0  0  0  0  0
   -2.6029    1.9435   -2.6736 H   0  0  0  0  0  0  0  0  0  0  0  0
   -0.4612    2.3854   -1.5225 H   0  0  0  0  0  0  0  0  0  0  0  0
    0.2218    0.9361    0.3731 H   0  0  0  0  0  0  0  0  0  0  0  0
   -3.3035    3.0666    0.5424 S   0  0  0  0  0  0  0  0  0  0  0  0
   -2.0267    3.7443    0.6591 O   0  0  0  0  0  0  0  0  0  0  0  0
   -3.1990    1.7507    1.5499 O   0  0  0  0  0  0  0  0  0  0  0  0
   -4.5599    3.7224    0.8689 O   0  0  0  0  0  0  0  0  0  0  0  0
   -3.5091    2.4447   -0.9115 O   0  0  0  0  0  0  0  0  0  0  0  0
   -4.0906    1.6428    1.9205 H   0  0  0  0  0  0  0  0  0  0  0  0
  1  2  1  1  0  0  0
  2  3  1  0  0  0  0
  4  9  1  0  0  0  0
  4  1  1  0  0  0  0
  5  4  2  0  0  0  0
  6 11  1  6  0  0  0
  6  5  1  0  0  0  0
  6  7  1  0  0  0  0
  6 18  1  0  0  0  0
  7  8  2  0  0  0  0
  8  1  1  0  0  0  0
  8 13  1  0  0  0  0
 10  5  1  0  0  0  0
 12  7  1  0  0  0  0
 14 15  2  0  0  0  0
 14 17  2  0  0  0  0
 14 16  1  0  0  0  0
 16 19  1  0  0  0  0
 18 14  1  0  0  0  0
M  RAD  3   1   2   2   2   3   3
M  END
