Coordinates from ORCA-job PhN2+~HSO4-_B3LYPG-6-31G_dp-NX-Scan-d89-09-n800
 OpenBabel11261920153D

 19 19  0  0  1  0  0  0  0  0999 V2000
   -1.5922   -0.3106    0.3937 C   0  0  0  0  0  0  0  0  0  0  0  0
   -1.3208   -0.9878    1.4867 N   0  0  0  0  0  0  0  0  0  0  0  0
   -1.1020   -1.5580    2.4499 N   0  0  0  0  0  0  0  0  0  0  0  0
   -2.7883   -0.6140   -0.3581 C   0  0  0  0  0  0  0  0  0  0  0  0
   -3.1819    0.2221   -1.3395 C   0  0  0  0  0  0  0  0  0  0  0  0
   -2.4931    1.5180   -1.5934 C   0  0  2  0  0  0  0  0  0  0  0  0
   -1.1445    1.6264   -0.9777 C   0  0  0  0  0  0  0  0  0  0  0  0
   -0.7436    0.7910    0.0008 C   0  0  0  0  0  0  0  0  0  0  0  0
   -3.3337   -1.5257   -0.1339 H   0  0  0  0  0  0  0  0  0  0  0  0
   -4.0574   -0.0061   -1.9385 H   0  0  0  0  0  0  0  0  0  0  0  0
   -2.4833    1.7804   -2.6531 H   0  0  0  0  0  0  0  0  0  0  0  0
   -0.5087    2.4472   -1.2893 H   0  0  0  0  0  0  0  0  0  0  0  0
    0.2132    0.9188    0.4963 H   0  0  0  0  0  0  0  0  0  0  0  0
   -3.4188    3.3104    0.3294 S   0  0  0  0  0  0  0  0  0  0  0  0
   -2.1564    3.9791    0.5703 O   0  0  0  0  0  0  0  0  0  0  0  0
   -3.4123    2.0091    1.3323 O   0  0  0  0  0  0  0  0  0  0  0  0
   -4.6965    3.9830    0.4875 O   0  0  0  0  0  0  0  0  0  0  0  0
   -3.4637    2.6525   -1.1322 O   0  0  0  0  0  0  0  0  0  0  0  0
   -4.3372    1.7262    1.4264 H   0  0  0  0  0  0  0  0  0  0  0  0
  1  2  1  0  0  0  0
  2  3  1  0  0  0  0
  4  9  1  0  0  0  0
  4  1  2  0  0  0  0
  5  4  1  0  0  0  0
  6 11  1  6  0  0  0
  6  5  1  0  0  0  0
  6 18  1  0  0  0  0
  6  7  1  0  0  0  0
  7  8  2  0  0  0  0
  8  1  1  0  0  0  0
  8 13  1  0  0  0  0
 10  5  1  0  0  0  0
 12  7  1  0  0  0  0
 14 17  2  0  0  0  0
 14 15  2  0  0  0  0
 14 16  1  0  0  0  0
 16 19  1  0  0  0  0
 18 14  1  0  0  0  0
M  RAD  3   2   2   3   3   5   2
M  END
