Coordinates from ORCA-job PhN2+~HSO4-_B3LYPG-6-31G_dp-NX-Scan-d89-09-n800
 OpenBabel11261920153D

 19 19  0  0  1  0  0  0  0  0999 V2000
   -1.4945   -0.8189    0.2818 C   0  0  0  0  0  0  0  0  0  0  0  0
   -1.0536   -1.8451    0.9754 N   0  0  0  0  0  0  0  0  0  0  0  0
   -0.6716   -2.7268    1.5926 N   0  0  0  0  0  0  0  0  0  0  0  0
   -2.5576   -0.9955   -0.6835 C   0  0  0  0  0  0  0  0  0  0  0  0
   -3.0320    0.0674   -1.3618 C   0  0  0  0  0  0  0  0  0  0  0  0
   -2.5721    1.4577   -1.0859 C   0  0  2  0  0  0  0  0  0  0  0  0
   -1.3542    1.5409   -0.2283 C   0  0  0  0  0  0  0  0  0  0  0  0
   -0.8784    0.4797    0.4505 C   0  0  0  0  0  0  0  0  0  0  0  0
   -2.9353   -1.9962   -0.8677 H   0  0  0  0  0  0  0  0  0  0  0  0
   -3.8126   -0.0619   -2.1038 H   0  0  0  0  0  0  0  0  0  0  0  0
   -2.4774    2.0601   -1.9917 H   0  0  0  0  0  0  0  0  0  0  0  0
   -0.8727    2.5080   -0.1366 H   0  0  0  0  0  0  0  0  0  0  0  0
   -0.0128    0.5664    1.0998 H   0  0  0  0  0  0  0  0  0  0  0  0
   -3.7928    3.6870   -0.1601 S   0  0  0  0  0  0  0  0  0  0  0  0
   -2.9584    4.3341   -1.1555 O   0  0  0  0  0  0  0  0  0  0  0  0
   -2.9797    3.8597    1.2496 O   0  0  0  0  0  0  0  0  0  0  0  0
   -5.1762    4.0564    0.0777 O   0  0  0  0  0  0  0  0  0  0  0  0
   -3.7785    2.0957   -0.3651 O   0  0  0  0  0  0  0  0  0  0  0  0
   -3.6104    3.6936    1.9701 H   0  0  0  0  0  0  0  0  0  0  0  0
  1  8  1  0  0  0  0
  1  2  1  0  0  0  0
  2  3  1  0  0  0  0
  4  1  2  0  0  0  0
  5  6  1  0  0  0  0
  5  4  1  0  0  0  0
  6 11  1  6  0  0  0
  6 18  1  0  0  0  0
  6  7  1  0  0  0  0
  7 12  1  0  0  0  0
  7  8  2  0  0  0  0
  8 13  1  0  0  0  0
  9  4  1  0  0  0  0
 10  5  1  0  0  0  0
 14 17  2  0  0  0  0
 14 16  1  0  0  0  0
 15 14  2  0  0  0  0
 16 19  1  0  0  0  0
 18 14  1  0  0  0  0
M  RAD  3   2   2   3   3   5   2
M  END
