Coordinates from ORCA-job PhN2+~HSO4-_B3LYPG-6-31G_dp-NX-Scan-d89-09-n800
 OpenBabel11261920153D

 19 19  0  0  1  0  0  0  0  0999 V2000
   -1.5683   -0.3473    0.4077 C   0  0  0  0  0  0  0  0  0  0  0  0
   -1.2266   -1.1078    1.4240 N   0  0  0  0  0  0  0  0  0  0  0  0
   -0.9385   -1.7597    2.3153 N   0  0  0  0  0  0  0  0  0  0  0  0
   -2.7861   -0.6241   -0.3194 C   0  0  0  0  0  0  0  0  0  0  0  0
   -3.1970    0.2295   -1.2781 C   0  0  0  0  0  0  0  0  0  0  0  0
   -2.4944    1.5143   -1.5564 C   0  0  2  0  0  0  0  0  0  0  0  0
   -1.1550    1.6323   -0.9190 C   0  0  0  0  0  0  0  0  0  0  0  0
   -0.7399    0.7777    0.0367 C   0  0  0  0  0  0  0  0  0  0  0  0
   -3.3349   -1.5344   -0.0976 H   0  0  0  0  0  0  0  0  0  0  0  0
   -4.0918    0.0174   -1.8544 H   0  0  0  0  0  0  0  0  0  0  0  0
   -2.4563    1.7362   -2.6258 H   0  0  0  0  0  0  0  0  0  0  0  0
   -0.5303    2.4690   -1.2094 H   0  0  0  0  0  0  0  0  0  0  0  0
    0.2196    0.9050    0.5269 H   0  0  0  0  0  0  0  0  0  0  0  0
   -3.4503    3.3721    0.2772 S   0  0  0  0  0  0  0  0  0  0  0  0
   -2.1864    4.0318    0.5340 O   0  0  0  0  0  0  0  0  0  0  0  0
   -3.4882    2.1023    1.3143 O   0  0  0  0  0  0  0  0  0  0  0  0
   -4.7224    4.0659    0.3722 O   0  0  0  0  0  0  0  0  0  0  0  0
   -3.4600    2.6676   -1.1650 O   0  0  0  0  0  0  0  0  0  0  0  0
   -4.4143    1.8144    1.3744 H   0  0  0  0  0  0  0  0  0  0  0  0
  1  2  1  0  0  0  0
  2  3  1  0  0  0  0
  4  9  1  0  0  0  0
  4  1  2  0  0  0  0
  5  4  1  0  0  0  0
  6 11  1  6  0  0  0
  6  5  1  0  0  0  0
  6 18  1  0  0  0  0
  6  7  1  0  0  0  0
  7  8  2  0  0  0  0
  8  1  1  0  0  0  0
  8 13  1  0  0  0  0
 10  5  1  0  0  0  0
 12  7  1  0  0  0  0
 14 17  2  0  0  0  0
 14 15  2  0  0  0  0
 14 16  1  0  0  0  0
 16 19  1  0  0  0  0
 18 14  1  0  0  0  0
M  RAD  3   2   2   3   3   5   2
M  END
