Coordinates from ORCA-job PhN2+~HSO4-_B3LYPG-6-31G_dp-NX-Scan-d89-09-n800
 OpenBabel11261920153D

 19 19  0  0  1  0  0  0  0  0999 V2000
   -1.4399   -0.9948    0.2226 C   0  0  0  0  0  0  0  0  0  0  0  0
   -0.9801   -2.1440    0.6673 N   0  0  0  0  0  0  0  0  0  0  0  0
   -0.5859   -3.1437    1.0563 N   0  0  0  0  0  0  0  0  0  0  0  0
   -2.4927   -0.9725   -0.7705 C   0  0  0  0  0  0  0  0  0  0  0  0
   -2.9513    0.2035   -1.2400 C   0  0  0  0  0  0  0  0  0  0  0  0
   -2.4626    1.5182   -0.7361 C   0  0  2  0  0  0  0  0  0  0  0  0
   -1.3217    1.4240    0.2190 C   0  0  0  0  0  0  0  0  0  0  0  0
   -0.8625    0.2478    0.6891 C   0  0  0  0  0  0  0  0  0  0  0  0
   -2.8804   -1.9156   -1.1417 H   0  0  0  0  0  0  0  0  0  0  0  0
   -3.7266    0.2254   -1.9990 H   0  0  0  0  0  0  0  0  0  0  0  0
   -2.2735    2.2202   -1.5524 H   0  0  0  0  0  0  0  0  0  0  0  0
   -0.8755    2.3558    0.5497 H   0  0  0  0  0  0  0  0  0  0  0  0
   -0.0418    0.2070    1.3988 H   0  0  0  0  0  0  0  0  0  0  0  0
   -4.0797    3.6476   -0.3174 S   0  0  0  0  0  0  0  0  0  0  0  0
   -3.8657    3.9364   -1.7228 O   0  0  0  0  0  0  0  0  0  0  0  0
   -2.9385    4.5210    0.4719 O   0  0  0  0  0  0  0  0  0  0  0  0
   -5.3482    3.8638    0.3527 O   0  0  0  0  0  0  0  0  0  0  0  0
   -3.6516    2.1376    0.0211 O   0  0  0  0  0  0  0  0  0  0  0  0
   -3.2429    4.6246    1.3891 H   0  0  0  0  0  0  0  0  0  0  0  0
  1  2  1  0  0  0  0
  1  8  2  0  0  0  0
  2  3  1  0  0  0  0
  4  1  1  0  0  0  0
  5  4  2  0  0  0  0
  5  6  1  0  0  0  0
  6 11  1  6  0  0  0
  6 18  1  0  0  0  0
  6  7  1  0  0  0  0
  7 12  1  0  0  0  0
  7  8  1  0  0  0  0
  8 13  1  0  0  0  0
  9  4  1  0  0  0  0
 10  5  1  0  0  0  0
 14 18  1  0  0  0  0
 14 17  2  0  0  0  0
 14 16  1  0  0  0  0
 15 14  2  0  0  0  0
 16 19  1  0  0  0  0
M  RAD  3   2   2   3   3   7   2
M  END
