Coordinates from ORCA-job PhN2+~HSO4-_B3LYPG-6-31G_dp-NX-Scan-d89-09-n800
 OpenBabel11261920153D

 19 19  0  0  1  0  0  0  0  0999 V2000
   -1.6095   -0.2802    0.3618 C   0  0  1  0  0  0  0  0  0  0  0  0
   -1.4508   -0.8204    1.5487 N   0  0  0  0  0  0  0  0  0  0  0  0
   -1.3439   -1.2548    2.5966 N   0  0  0  0  0  0  0  0  0  0  0  0
   -2.7786   -0.6168   -0.4193 C   0  0  0  0  0  0  0  0  0  0  0  0
   -3.1558    0.2033   -1.4204 C   0  0  0  0  0  0  0  0  0  0  0  0
   -2.4916    1.5172   -1.6350 C   0  0  2  0  0  0  0  0  0  0  0  0
   -1.1316    1.6172   -1.0481 C   0  0  0  0  0  0  0  0  0  0  0  0
   -0.7419    0.8001   -0.0494 C   0  0  0  0  0  0  0  0  0  0  0  0
   -3.3168   -1.5330   -0.1956 H   0  0  0  0  0  0  0  0  0  0  0  0
   -4.0064   -0.0434   -2.0472 H   0  0  0  0  0  0  0  0  0  0  0  0
   -2.5207    1.8374   -2.6770 H   0  0  0  0  0  0  0  0  0  0  0  0
   -0.4881    2.4238   -1.3800 H   0  0  0  0  0  0  0  0  0  0  0  0
    0.2104    0.9314    0.4538 H   0  0  0  0  0  0  0  0  0  0  0  0
   -3.3769    3.2287    0.3982 S   0  0  0  0  0  0  0  0  0  0  0  0
   -2.1118    3.9025    0.6109 O   0  0  0  0  0  0  0  0  0  0  0  0
   -3.3277    1.9022    1.3743 O   0  0  0  0  0  0  0  0  0  0  0  0
   -4.6536    3.8837    0.6270 O   0  0  0  0  0  0  0  0  0  0  0  0
   -3.4732    2.6131   -1.0766 O   0  0  0  0  0  0  0  0  0  0  0  0
   -4.2524    1.6504    1.5347 H   0  0  0  0  0  0  0  0  0  0  0  0
  1  2  1  1  0  0  0
  2  3  1  0  0  0  0
  4  9  1  0  0  0  0
  4  1  1  0  0  0  0
  5  4  2  0  0  0  0
  6 11  1  6  0  0  0
  6  5  1  0  0  0  0
  6 18  1  0  0  0  0
  6  7  1  0  0  0  0
  7  8  2  0  0  0  0
  8  1  1  0  0  0  0
  8 13  1  0  0  0  0
 10  5  1  0  0  0  0
 12  7  1  0  0  0  0
 14 15  2  0  0  0  0
 14 17  2  0  0  0  0
 14 16  1  0  0  0  0
 16 19  1  0  0  0  0
 18 14  1  0  0  0  0
M  RAD  3   1   2   2   2   3   3
M  END
