Coordinates from ORCA-job PhN2+~HSO4-_B3LYPG-6-31G_dp-NX-Scan-d89-09-n800
 OpenBabel11261920163D

 19 18  0  0  0  0  0  0  0  0999 V2000
   -2.6664    0.1852   -0.2557 C   0  0  0  0  0  0  0  0  0  0  0  0
   -3.2523   -0.0693    0.9914 N   0  0  0  0  0  0  0  0  0  0  0  0
   -3.7789    0.4359    1.9037 N   0  0  0  0  0  0  0  0  0  0  0  0
   -2.1463   -0.9461   -0.9046 C   0  0  0  0  0  0  0  0  0  0  0  0
   -1.5597   -0.8014   -2.1558 C   0  0  0  0  0  0  0  0  0  0  0  0
   -1.5017    0.4630   -2.7503 C   0  0  0  0  0  0  0  0  0  0  0  0
   -2.0268    1.5819   -2.0959 C   0  0  0  0  0  0  0  0  0  0  0  0
   -2.6140    1.4629   -0.8402 C   0  0  0  0  0  0  0  0  0  0  0  0
   -2.2101   -1.9114   -0.4144 H   0  0  0  0  0  0  0  0  0  0  0  0
   -1.1508   -1.6671   -2.6656 H   0  0  0  0  0  0  0  0  0  0  0  0
   -1.0435    0.5777   -3.7276 H   0  0  0  0  0  0  0  0  0  0  0  0
   -1.9717    2.5610   -2.5603 H   0  0  0  0  0  0  0  0  0  0  0  0
   -3.0072    2.3319   -0.3326 H   0  0  0  0  0  0  0  0  0  0  0  0
   -2.2836    3.2383    2.2415 S   0  0  0  0  0  0  0  0  0  0  0  0
   -1.3089    2.1514    2.2126 O   0  0  0  0  0  0  0  0  0  0  0  0
   -3.9140    2.1653    1.7554 O   0  0  0  0  0  0  0  0  0  0  0  0
   -2.7725    3.7124    3.5339 O   0  0  0  0  0  0  0  0  0  0  0  0
   -2.3194    4.1547    1.1039 O   0  0  0  0  0  0  0  0  0  0  0  0
   -4.4931    2.3360    2.5182 H   0  0  0  0  0  0  0  0  0  0  0  0
  1  2  1  0  0  0  0
  2  3  1  0  0  0  0
  4  9  1  0  0  0  0
  4  1  2  0  0  0  0
  5  4  1  0  0  0  0
  6  5  2  0  0  0  0
  6  7  1  0  0  0  0
  7  8  2  0  0  0  0
  8 13  1  0  0  0  0
  8  1  1  0  0  0  0
 10  5  1  0  0  0  0
 11  6  1  0  0  0  0
 12  7  1  0  0  0  0
 14 17  1  0  0  0  0
 15 14  2  0  0  0  0
 16  3  1  0  0  0  0
 16 19  1  0  0  0  0
 18 14  1  0  0  0  0
M  RAD  4   2   2   3   2  17   2  18   2
M  END
