Coordinates from ORCA-job PhN2+~HSO4-_B3LYPG-6-31G_dp-NX-Scan-d89-09-n800
 OpenBabel11261920153D

 19 19  0  0  1  0  0  0  0  0999 V2000
   -1.5334   -0.7404    0.3018 C   0  0  0  0  0  0  0  0  0  0  0  0
   -1.1477   -1.7104    1.1011 N   0  0  0  0  0  0  0  0  0  0  0  0
   -0.8127   -2.5347    1.8161 N   0  0  0  0  0  0  0  0  0  0  0  0
   -2.5698   -0.9707   -0.6810 C   0  0  0  0  0  0  0  0  0  0  0  0
   -3.0175    0.0544   -1.4324 C   0  0  0  0  0  0  0  0  0  0  0  0
   -2.5738    1.4571   -1.1953 C   0  0  2  0  0  0  0  0  0  0  0  0
   -1.3384    1.5727   -0.3675 C   0  0  0  0  0  0  0  0  0  0  0  0
   -0.8857    0.5507    0.3832 C   0  0  0  0  0  0  0  0  0  0  0  0
   -2.9458   -1.9796   -0.8185 H   0  0  0  0  0  0  0  0  0  0  0  0
   -3.7736   -0.1131   -2.1920 H   0  0  0  0  0  0  0  0  0  0  0  0
   -2.5103    2.0463   -2.1117 H   0  0  0  0  0  0  0  0  0  0  0  0
   -0.8365    2.5331   -0.3467 H   0  0  0  0  0  0  0  0  0  0  0  0
   -0.0175    0.6606    1.0255 H   0  0  0  0  0  0  0  0  0  0  0  0
   -3.7348    3.6358   -0.0755 S   0  0  0  0  0  0  0  0  0  0  0  0
   -2.8445    4.3523   -0.9702 O   0  0  0  0  0  0  0  0  0  0  0  0
   -2.9586    3.6024    1.3653 O   0  0  0  0  0  0  0  0  0  0  0  0
   -5.1062    4.0432    0.1716 O   0  0  0  0  0  0  0  0  0  0  0  0
   -3.7864    2.0813   -0.4629 O   0  0  0  0  0  0  0  0  0  0  0  0
   -3.6276    3.4212    2.0465 H   0  0  0  0  0  0  0  0  0  0  0  0
  1  8  1  0  0  0  0
  1  2  1  0  0  0  0
  2  3  1  0  0  0  0
  4  1  2  0  0  0  0
  5  6  1  0  0  0  0
  5  4  1  0  0  0  0
  6 11  1  6  0  0  0
  6 18  1  0  0  0  0
  6  7  1  0  0  0  0
  7 12  1  0  0  0  0
  7  8  2  0  0  0  0
  8 13  1  0  0  0  0
  9  4  1  0  0  0  0
 10  5  1  0  0  0  0
 14 17  2  0  0  0  0
 14 16  1  0  0  0  0
 15 14  2  0  0  0  0
 16 19  1  0  0  0  0
 18 14  1  0  0  0  0
M  RAD  3   2   2   3   3   5   2
M  END
