Coordinates from ORCA-job PhN2+~HSO4-_B3LYPG-6-31G_dp-NX-Scan-d89-09-n800
 OpenBabel11261920153D

 19 19  0  0  1  0  0  0  0  0999 V2000
   -1.6109   -0.2667    0.3254 C   0  0  1  0  0  0  0  0  0  0  0  0
   -1.5715   -0.6582    1.5792 N   0  0  0  0  0  0  0  0  0  0  0  0
   -1.5887   -0.9381    2.6823 N   0  0  0  0  0  0  0  0  0  0  0  0
   -2.7571   -0.6322   -0.4795 C   0  0  0  0  0  0  0  0  0  0  0  0
   -3.1258    0.1794   -1.4905 C   0  0  0  0  0  0  0  0  0  0  0  0
   -2.4883    1.5109   -1.6649 C   0  0  2  0  0  0  0  0  0  0  0  0
   -1.1172    1.6061   -1.1077 C   0  0  0  0  0  0  0  0  0  0  0  0
   -0.7305    0.8003   -0.0985 C   0  0  0  0  0  0  0  0  0  0  0  0
   -3.2866   -1.5540   -0.2583 H   0  0  0  0  0  0  0  0  0  0  0  0
   -3.9548   -0.0813   -2.1401 H   0  0  0  0  0  0  0  0  0  0  0  0
   -2.5563    1.8853   -2.6858 H   0  0  0  0  0  0  0  0  0  0  0  0
   -0.4715    2.4042   -1.4553 H   0  0  0  0  0  0  0  0  0  0  0  0
    0.2183    0.9364    0.4101 H   0  0  0  0  0  0  0  0  0  0  0  0
   -3.3416    3.1523    0.4639 S   0  0  0  0  0  0  0  0  0  0  0  0
   -2.0691    3.8200    0.6531 O   0  0  0  0  0  0  0  0  0  0  0  0
   -3.2782    1.8146    1.4325 O   0  0  0  0  0  0  0  0  0  0  0  0
   -4.6098    3.8068    0.7401 O   0  0  0  0  0  0  0  0  0  0  0  0
   -3.4812    2.5606   -1.0142 O   0  0  0  0  0  0  0  0  0  0  0  0
   -4.2003    1.6158    1.6660 H   0  0  0  0  0  0  0  0  0  0  0  0
  1  2  1  1  0  0  0
  2  3  1  0  0  0  0
  4  9  1  0  0  0  0
  4  1  1  0  0  0  0
  5  4  2  0  0  0  0
  6 11  1  6  0  0  0
  6  5  1  0  0  0  0
  6  7  1  0  0  0  0
  6 18  1  0  0  0  0
  7  8  2  0  0  0  0
  8  1  1  0  0  0  0
  8 13  1  0  0  0  0
 10  5  1  0  0  0  0
 12  7  1  0  0  0  0
 14 15  2  0  0  0  0
 14 17  2  0  0  0  0
 14 16  1  0  0  0  0
 16 19  1  0  0  0  0
 18 14  1  0  0  0  0
M  RAD  3   1   2   2   2   3   3
M  END
