Coordinates from ORCA-job PhN2+~HSO4-_B3LYPG-6-31G_dp-NX-Scan-d89-09-n800
 OpenBabel11261920153D

 19 19  0  0  1  0  0  0  0  0999 V2000
   -1.4619   -0.9302    0.2505 C   0  0  0  0  0  0  0  0  0  0  0  0
   -1.0035   -2.0313    0.8033 N   0  0  0  0  0  0  0  0  0  0  0  0
   -0.6066   -2.9845    1.2921 N   0  0  0  0  0  0  0  0  0  0  0  0
   -2.5128   -0.9989   -0.7417 C   0  0  0  0  0  0  0  0  0  0  0  0
   -2.9838    0.1316   -1.3020 C   0  0  0  0  0  0  0  0  0  0  0  0
   -2.5188    1.4861   -0.8903 C   0  0  2  0  0  0  0  0  0  0  0  0
   -1.3523    1.4785    0.0399 C   0  0  0  0  0  0  0  0  0  0  0  0
   -0.8817    0.3483    0.6013 C   0  0  0  0  0  0  0  0  0  0  0  0
   -2.8876   -1.9729   -1.0392 H   0  0  0  0  0  0  0  0  0  0  0  0
   -3.7580    0.0844   -2.0606 H   0  0  0  0  0  0  0  0  0  0  0  0
   -2.3694    2.1496   -1.7457 H   0  0  0  0  0  0  0  0  0  0  0  0
   -0.9020    2.4349    0.2818 H   0  0  0  0  0  0  0  0  0  0  0  0
   -0.0482    0.3692    1.2967 H   0  0  0  0  0  0  0  0  0  0  0  0
   -3.9713    3.6841   -0.2695 S   0  0  0  0  0  0  0  0  0  0  0  0
   -3.5203    4.1848   -1.5540 O   0  0  0  0  0  0  0  0  0  0  0  0
   -2.8952    4.2769    0.8155 O   0  0  0  0  0  0  0  0  0  0  0  0
   -5.3048    3.9218    0.2505 O   0  0  0  0  0  0  0  0  0  0  0  0
   -3.7289    2.1012   -0.1621 O   0  0  0  0  0  0  0  0  0  0  0  0
   -3.3142    4.2286    1.6912 H   0  0  0  0  0  0  0  0  0  0  0  0
  1  8  1  0  0  0  0
  1  2  1  0  0  0  0
  2  3  1  0  0  0  0
  4  1  2  0  0  0  0
  5  6  1  0  0  0  0
  5  4  1  0  0  0  0
  6 11  1  6  0  0  0
  6 18  1  0  0  0  0
  6  7  1  0  0  0  0
  7 12  1  0  0  0  0
  7  8  2  0  0  0  0
  8 13  1  0  0  0  0
  9  4  1  0  0  0  0
 10  5  1  0  0  0  0
 14 18  1  0  0  0  0
 14 17  2  0  0  0  0
 14 16  1  0  0  0  0
 15 14  2  0  0  0  0
 16 19  1  0  0  0  0
M  RAD  3   2   2   3   3   5   2
M  END
