Coordinates from ORCA-job PhN2+~HSO4-_B3LYPG-6-31G_dp-NX-Scan-d89-09-n800
 OpenBabel11261920153D

 19 19  0  0  1  0  0  0  0  0999 V2000
   -1.6434   -0.2768    0.2576 C   0  0  1  0  0  0  0  0  0  0  0  0
   -1.8529   -0.4066    1.5516 N   0  0  0  0  0  0  0  0  0  0  0  0
   -2.1493   -0.3009    2.6425 N   0  0  0  0  0  0  0  0  0  0  0  0
   -2.6929   -0.7209   -0.6431 C   0  0  0  0  0  0  0  0  0  0  0  0
   -3.0308    0.0926   -1.6645 C   0  0  0  0  0  0  0  0  0  0  0  0
   -2.4868    1.4737   -1.6955 C   0  0  2  0  0  0  0  0  0  0  0  0
   -1.1090    1.5824   -1.1673 C   0  0  0  0  0  0  0  0  0  0  0  0
   -0.7352    0.7815   -0.1491 C   0  0  0  0  0  0  0  0  0  0  0  0
   -3.1809   -1.6749   -0.4704 H   0  0  0  0  0  0  0  0  0  0  0  0
   -3.7785   -0.1966   -2.3951 H   0  0  0  0  0  0  0  0  0  0  0  0
   -2.6324    1.9855   -2.6438 H   0  0  0  0  0  0  0  0  0  0  0  0
   -0.4663    2.3803   -1.5199 H   0  0  0  0  0  0  0  0  0  0  0  0
    0.1944    0.9262    0.3916 H   0  0  0  0  0  0  0  0  0  0  0  0
   -3.2939    3.0389    0.5740 S   0  0  0  0  0  0  0  0  0  0  0  0
   -2.0381    3.7663    0.5794 O   0  0  0  0  0  0  0  0  0  0  0  0
   -3.0941    1.7805    1.6499 O   0  0  0  0  0  0  0  0  0  0  0  0
   -4.5523    3.6732    0.9361 O   0  0  0  0  0  0  0  0  0  0  0  0
   -3.5498    2.3184   -0.8219 O   0  0  0  0  0  0  0  0  0  0  0  0
   -3.9287    1.7397    2.1455 H   0  0  0  0  0  0  0  0  0  0  0  0
  1  2  1  1  0  0  0
  2  3  1  0  0  0  0
  4  9  1  0  0  0  0
  4  1  1  0  0  0  0
  5  4  2  0  0  0  0
  6 11  1  6  0  0  0
  6  5  1  0  0  0  0
  6  7  1  0  0  0  0
  6 18  1  0  0  0  0
  7  8  2  0  0  0  0
  8  1  1  0  0  0  0
  8 13  1  0  0  0  0
 10  5  1  0  0  0  0
 12  7  1  0  0  0  0
 14 15  2  0  0  0  0
 14 17  2  0  0  0  0
 14 16  1  0  0  0  0
 16 19  1  0  0  0  0
 18 14  1  0  0  0  0
M  RAD  3   1   2   2   2   3   3
M  END
