Coordinates from ORCA-job PhN2+~HSO4-_B3LYPG-6-31G_dp-NX-Scan-d89-09-n800
 OpenBabel11261920153D

 19 19  0  0  1  0  0  0  0  0999 V2000
   -1.4907   -0.8273    0.2795 C   0  0  0  0  0  0  0  0  0  0  0  0
   -1.0451   -1.8591    0.9616 N   0  0  0  0  0  0  0  0  0  0  0  0
   -0.6592   -2.7463    1.5684 N   0  0  0  0  0  0  0  0  0  0  0  0
   -2.5561   -0.9976   -0.6846 C   0  0  0  0  0  0  0  0  0  0  0  0
   -3.0325    0.0695   -1.3546 C   0  0  0  0  0  0  0  0  0  0  0  0
   -2.5709    1.4581   -1.0733 C   0  0  2  0  0  0  0  0  0  0  0  0
   -1.3550    1.5369   -0.2124 C   0  0  0  0  0  0  0  0  0  0  0  0
   -0.8775    0.4713    0.4584 C   0  0  0  0  0  0  0  0  0  0  0  0
   -2.9340   -1.9971   -0.8745 H   0  0  0  0  0  0  0  0  0  0  0  0
   -3.8152   -0.0553   -2.0953 H   0  0  0  0  0  0  0  0  0  0  0  0
   -2.4729    2.0625   -1.9775 H   0  0  0  0  0  0  0  0  0  0  0  0
   -0.8756    2.5043   -0.1123 H   0  0  0  0  0  0  0  0  0  0  0  0
   -0.0125    0.5550    1.1089 H   0  0  0  0  0  0  0  0  0  0  0  0
   -3.8006    3.6911   -0.1690 S   0  0  0  0  0  0  0  0  0  0  0  0
   -2.9765    4.3306   -1.1778 O   0  0  0  0  0  0  0  0  0  0  0  0
   -2.9805    3.8890    1.2333 O   0  0  0  0  0  0  0  0  0  0  0  0
   -5.1852    4.0538    0.0718 O   0  0  0  0  0  0  0  0  0  0  0  0
   -3.7764    2.0971   -0.3530 O   0  0  0  0  0  0  0  0  0  0  0  0
   -3.6048    3.7258    1.9599 H   0  0  0  0  0  0  0  0  0  0  0  0
  1  8  1  0  0  0  0
  1  2  1  0  0  0  0
  2  3  1  0  0  0  0
  4  1  2  0  0  0  0
  5  6  1  0  0  0  0
  5  4  1  0  0  0  0
  6 11  1  6  0  0  0
  6 18  1  0  0  0  0
  6  7  1  0  0  0  0
  7 12  1  0  0  0  0
  7  8  2  0  0  0  0
  8 13  1  0  0  0  0
  9  4  1  0  0  0  0
 10  5  1  0  0  0  0
 14 17  2  0  0  0  0
 14 16  1  0  0  0  0
 15 14  2  0  0  0  0
 16 19  1  0  0  0  0
 18 14  1  0  0  0  0
M  RAD  3   2   2   3   3   5   2
M  END
