Coordinates from ORCA-job PhN2+~HSO4-_B3LYPG-6-31G_dp-NX-Scan-d89-09-n800
 OpenBabel11261920153D

 19 19  0  0  1  0  0  0  0  0999 V2000
   -1.5629   -0.3566    0.4095 C   0  0  0  0  0  0  0  0  0  0  0  0
   -1.2077   -1.1330    1.4091 N   0  0  0  0  0  0  0  0  0  0  0  0
   -0.9064   -1.8002    2.2846 N   0  0  0  0  0  0  0  0  0  0  0  0
   -2.7847   -0.6282   -0.3129 C   0  0  0  0  0  0  0  0  0  0  0  0
   -3.1997    0.2296   -1.2659 C   0  0  0  0  0  0  0  0  0  0  0  0
   -2.4952    1.5128   -1.5480 C   0  0  2  0  0  0  0  0  0  0  0  0
   -1.1585    1.6339   -0.9048 C   0  0  0  0  0  0  0  0  0  0  0  0
   -0.7400    0.7748    0.0452 C   0  0  0  0  0  0  0  0  0  0  0  0
   -3.3335   -1.5390   -0.0927 H   0  0  0  0  0  0  0  0  0  0  0  0
   -4.0980    0.0207   -1.8380 H   0  0  0  0  0  0  0  0  0  0  0  0
   -2.4507    1.7270   -2.6189 H   0  0  0  0  0  0  0  0  0  0  0  0
   -0.5370    2.4750   -1.1894 H   0  0  0  0  0  0  0  0  0  0  0  0
    0.2196    0.9027    0.5351 H   0  0  0  0  0  0  0  0  0  0  0  0
   -3.4563    3.3855    0.2654 S   0  0  0  0  0  0  0  0  0  0  0  0
   -2.1919    4.0441    0.5225 O   0  0  0  0  0  0  0  0  0  0  0  0
   -3.5020    2.1246    1.3120 O   0  0  0  0  0  0  0  0  0  0  0  0
   -4.7270    4.0833    0.3474 O   0  0  0  0  0  0  0  0  0  0  0  0
   -3.4607    2.6686   -1.1710 O   0  0  0  0  0  0  0  0  0  0  0  0
   -4.4284    1.8367    1.3682 H   0  0  0  0  0  0  0  0  0  0  0  0
  1  2  1  0  0  0  0
  2  3  1  0  0  0  0
  4  9  1  0  0  0  0
  4  1  2  0  0  0  0
  5  4  1  0  0  0  0
  6 11  1  6  0  0  0
  6  5  1  0  0  0  0
  6 18  1  0  0  0  0
  6  7  1  0  0  0  0
  7  8  2  0  0  0  0
  8  1  1  0  0  0  0
  8 13  1  0  0  0  0
 10  5  1  0  0  0  0
 12  7  1  0  0  0  0
 14 17  2  0  0  0  0
 14 15  2  0  0  0  0
 14 16  1  0  0  0  0
 16 19  1  0  0  0  0
 18 14  1  0  0  0  0
M  RAD  3   2   2   3   3   5   2
M  END
