Coordinates from ORCA-job PhN2+~HSO4-_B3LYPG-6-31G_dp-NX-Scan-d89-09-n800
 OpenBabel11261920153D

 19 18  0  0  0  0  0  0  0  0999 V2000
   -2.4246    0.3176   -0.3033 C   0  0  0  0  0  0  0  0  0  0  0  0
   -2.9494    0.2192    0.9768 N   0  0  0  0  0  0  0  0  0  0  0  0
   -3.3654    0.1163    2.0183 N   0  0  0  0  0  0  0  0  0  0  0  0
   -2.6560   -0.7710   -1.1638 C   0  0  0  0  0  0  0  0  0  0  0  0
   -2.1340   -0.7054   -2.4478 C   0  0  0  0  0  0  0  0  0  0  0  0
   -1.3858    0.4123   -2.8406 C   0  0  0  0  0  0  0  0  0  0  0  0
   -1.1566    1.4716   -1.9576 C   0  0  0  0  0  0  0  0  0  0  0  0
   -1.6809    1.4506   -0.6683 C   0  0  0  0  0  0  0  0  0  0  0  0
   -3.2358   -1.6225   -0.8257 H   0  0  0  0  0  0  0  0  0  0  0  0
   -2.3062   -1.5222   -3.1405 H   0  0  0  0  0  0  0  0  0  0  0  0
   -0.9779    0.4542   -3.8457 H   0  0  0  0  0  0  0  0  0  0  0  0
   -0.5741    2.3297   -2.2754 H   0  0  0  0  0  0  0  0  0  0  0  0
   -1.5323    2.2509    0.0533 H   0  0  0  0  0  0  0  0  0  0  0  0
   -3.2378    3.2763    1.9571 S   0  0  0  0  0  0  0  0  0  0  0  0
   -1.7645    3.1062    1.9150 O   0  0  0  0  0  0  0  0  0  0  0  0
   -3.7215    1.8910    2.9181 O   0  0  0  0  0  0  0  0  0  0  0  0
   -3.7383    4.4209    2.7122 O   0  0  0  0  0  0  0  0  0  0  0  0
   -3.9195    2.9109    0.7035 O   0  0  0  0  0  0  0  0  0  0  0  0
   -3.2605    1.9558    3.7718 H   0  0  0  0  0  0  0  0  0  0  0  0
  1  2  1  0  0  0  0
  2  3  1  0  0  0  0
  4  9  1  0  0  0  0
  4  1  2  0  0  0  0
  5  4  1  0  0  0  0
  6  5  2  0  0  0  0
  6  7  1  0  0  0  0
  7  8  2  0  0  0  0
  8  1  1  0  0  0  0
  8 13  1  0  0  0  0
 10  5  1  0  0  0  0
 11  6  1  0  0  0  0
 12  7  1  0  0  0  0
 14 17  1  0  0  0  0
 14 16  1  0  0  0  0
 15 14  2  0  0  0  0
 16 19  1  0  0  0  0
 18 14  2  0  0  0  0
M  RAD  3   2   2   3   3  17   2
M  END
