Coordinates from ORCA-job PhN2+~HSO4-_B3LYPG-6-31G_dp-NX-Scan-d89-09-n800
 OpenBabel11261920153D

 19 19  0  0  1  0  0  0  0  0999 V2000
   -1.4595   -1.0621    0.1776 C   0  0  0  0  0  0  0  0  0  0  0  0
   -1.1007   -2.2955    0.4660 N   0  0  0  0  0  0  0  0  0  0  0  0
   -0.7927   -3.3689    0.7134 N   0  0  0  0  0  0  0  0  0  0  0  0
   -2.5126   -0.8161   -0.7863 C   0  0  0  0  0  0  0  0  0  0  0  0
   -2.8565    0.4458   -1.1100 C   0  0  0  0  0  0  0  0  0  0  0  0
   -2.2271    1.6428   -0.4784 C   0  0  2  0  0  0  0  0  0  0  0  0
   -1.1174    1.3212    0.4640 C   0  0  0  0  0  0  0  0  0  0  0  0
   -0.7733    0.0579    0.7855 C   0  0  0  0  0  0  0  0  0  0  0  0
   -2.9987   -1.6658   -1.2546 H   0  0  0  0  0  0  0  0  0  0  0  0
   -3.6293    0.6346   -1.8468 H   0  0  0  0  0  0  0  0  0  0  0  0
   -1.9343    2.3905   -1.2217 H   0  0  0  0  0  0  0  0  0  0  0  0
   -0.5873    2.1575    0.9072 H   0  0  0  0  0  0  0  0  0  0  0  0
    0.0363   -0.1415    1.4809 H   0  0  0  0  0  0  0  0  0  0  0  0
   -4.2300    3.4555   -0.3242 S   0  0  0  0  0  0  0  0  0  0  0  0
   -4.3505    3.1787   -1.7436 O   0  0  0  0  0  0  0  0  0  0  0  0
   -3.3317    4.8237   -0.2384 O   0  0  0  0  0  0  0  0  0  0  0  0
   -5.3738    3.6249    0.5528 O   0  0  0  0  0  0  0  0  0  0  0  0
   -3.2858    2.3606    0.3796 O   0  0  0  0  0  0  0  0  0  0  0  0
   -3.4961    5.2186    0.6345 H   0  0  0  0  0  0  0  0  0  0  0  0
  1  2  1  0  0  0  0
  1  8  2  0  0  0  0
  2  3  1  0  0  0  0
  4  1  1  0  0  0  0
  5  4  2  0  0  0  0
  5  6  1  0  0  0  0
  6 11  1  6  0  0  0
  6 18  1  0  0  0  0
  6  7  1  0  0  0  0
  7  8  1  0  0  0  0
  7 12  1  0  0  0  0
  8 13  1  0  0  0  0
  9  4  1  0  0  0  0
 10  5  1  0  0  0  0
 14 16  1  0  0  0  0
 14 18  1  0  0  0  0
 14 17  2  0  0  0  0
 15 14  2  0  0  0  0
 16 19  1  0  0  0  0
M  RAD  3   2   2   3   3   7   2
M  END
