Coordinates from ORCA-job PhN2+~HSO4-_B3LYPG-6-31G_dp-NX-Scan-d89-09-n800
 OpenBabel11261920153D

 19 19  0  0  1  0  0  0  0  0999 V2000
   -1.5590   -0.6820    0.3127 C   0  0  0  0  0  0  0  0  0  0  0  0
   -1.2149   -1.6054    1.1831 N   0  0  0  0  0  0  0  0  0  0  0  0
   -0.9162   -2.3825    1.9636 N   0  0  0  0  0  0  0  0  0  0  0  0
   -2.5812   -0.9488   -0.6757 C   0  0  0  0  0  0  0  0  0  0  0  0
   -3.0090    0.0479   -1.4759 C   0  0  0  0  0  0  0  0  0  0  0  0
   -2.5697    1.4572   -1.2702 C   0  0  2  0  0  0  0  0  0  0  0  0
   -1.3202    1.5901   -0.4672 C   0  0  0  0  0  0  0  0  0  0  0  0
   -0.8842    0.5973    0.3311 C   0  0  0  0  0  0  0  0  0  0  0  0
   -2.9612   -1.9605   -0.7769 H   0  0  0  0  0  0  0  0  0  0  0  0
   -3.7516   -0.1449   -2.2425 H   0  0  0  0  0  0  0  0  0  0  0  0
   -2.5277    2.0343   -2.1950 H   0  0  0  0  0  0  0  0  0  0  0  0
   -0.8023    2.5415   -0.4949 H   0  0  0  0  0  0  0  0  0  0  0  0
   -0.0125    0.7205    0.9660 H   0  0  0  0  0  0  0  0  0  0  0  0
   -3.6924    3.5929   -0.0131 S   0  0  0  0  0  0  0  0  0  0  0  0
   -2.7587    4.3523   -0.8246 O   0  0  0  0  0  0  0  0  0  0  0  0
   -2.9597    3.4121    1.4408 O   0  0  0  0  0  0  0  0  0  0  0  0
   -5.0561    4.0251    0.2358 O   0  0  0  0  0  0  0  0  0  0  0  0
   -3.7834    2.0798   -0.5296 O   0  0  0  0  0  0  0  0  0  0  0  0
   -3.6611    3.2353    2.0899 H   0  0  0  0  0  0  0  0  0  0  0  0
  1  8  2  0  0  0  0
  1  2  1  0  0  0  0
  2  3  1  0  0  0  0
  4  1  1  0  0  0  0
  5  6  1  0  0  0  0
  5  4  2  0  0  0  0
  6 11  1  6  0  0  0
  6 18  1  0  0  0  0
  6  7  1  0  0  0  0
  7  8  1  0  0  0  0
  8 13  1  0  0  0  0
  9  4  1  0  0  0  0
 10  5  1  0  0  0  0
 12  7  1  0  0  0  0
 14 17  2  0  0  0  0
 14 16  1  0  0  0  0
 15 14  2  0  0  0  0
 16 19  1  0  0  0  0
 18 14  1  0  0  0  0
M  RAD  3   2   2   3   3   7   2
M  END
