Coordinates from ORCA-job PhN2+~HSO4-_B3LYPG-6-31G_dp-NX-Scan-d89-09-n800
 OpenBabel11261920163D

 19 18  0  0  0  0  0  0  0  0999 V2000
   -3.0517    0.2119   -0.2757 C   0  0  0  0  0  0  0  0  0  0  0  0
   -3.9026   -0.2077    0.7930 N   0  0  0  0  0  0  0  0  0  0  0  0
   -4.3171    0.5328    1.7017 N   0  0  0  0  0  0  0  0  0  0  0  0
   -2.1599   -0.7789   -0.7169 C   0  0  0  0  0  0  0  0  0  0  0  0
   -1.3213   -0.5417   -1.8017 C   0  0  0  0  0  0  0  0  0  0  0  0
   -1.3957    0.6726   -2.4891 C   0  0  0  0  0  0  0  0  0  0  0  0
   -2.3081    1.6464   -2.0788 C   0  0  0  0  0  0  0  0  0  0  0  0
   -3.1299    1.4309   -0.9725 C   0  0  0  0  0  0  0  0  0  0  0  0
   -2.1440   -1.7270   -0.1895 H   0  0  0  0  0  0  0  0  0  0  0  0
   -0.6240   -1.3101   -2.1221 H   0  0  0  0  0  0  0  0  0  0  0  0
   -0.7538    0.8548   -3.3459 H   0  0  0  0  0  0  0  0  0  0  0  0
   -2.3777    2.5876   -2.6159 H   0  0  0  0  0  0  0  0  0  0  0  0
   -3.8337    2.1954   -0.6703 H   0  0  0  0  0  0  0  0  0  0  0  0
   -1.6312    3.1005    2.0311 S   0  0  0  0  0  0  0  0  0  0  0  0
   -0.7702    1.9423    2.1818 O   0  0  0  0  0  0  0  0  0  0  0  0
   -3.9378    1.7557    1.6838 O   0  0  0  0  0  0  0  0  0  0  0  0
   -2.4308    3.5604    3.1599 O   0  0  0  0  0  0  0  0  0  0  0  0
   -1.6260    3.8715    0.8005 O   0  0  0  0  0  0  0  0  0  0  0  0
   -4.3056    2.1650    2.4841 H   0  0  0  0  0  0  0  0  0  0  0  0
  1  2  1  0  0  0  0
  2  3  2  0  0  0  0
  4  1  1  0  0  0  0
  4  9  1  0  0  0  0
  5  4  2  0  0  0  0
  6  7  2  0  0  0  0
  6  5  1  0  0  0  0
  7  8  1  0  0  0  0
  8 13  1  0  0  0  0
  8  1  2  0  0  0  0
 10  5  1  0  0  0  0
 11  6  1  0  0  0  0
 12  7  1  0  0  0  0
 14 15  2  0  0  0  0
 14 17  1  0  0  0  0
 16  3  1  0  0  0  0
 16 19  1  0  0  0  0
 18 14  1  0  0  0  0
M  RAD  2  17   2  18   2
M  END
