Coordinates from ORCA-job PhN2+~HSO4-_B3LYPG-6-31G_dp-NX-Scan-d89-09-n800
 OpenBabel11261920153D

 19 19  0  0  1  0  0  0  0  0999 V2000
   -1.4765   -0.8756    0.2676 C   0  0  0  0  0  0  0  0  0  0  0  0
   -1.0208   -1.9395    0.8910 N   0  0  0  0  0  0  0  0  0  0  0  0
   -0.6262   -2.8575    1.4445 N   0  0  0  0  0  0  0  0  0  0  0  0
   -2.5392   -1.0029   -0.7061 C   0  0  0  0  0  0  0  0  0  0  0  0
   -3.0159    0.0925   -1.3281 C   0  0  0  0  0  0  0  0  0  0  0  0
   -2.5511    1.4683   -0.9942 C   0  0  2  0  0  0  0  0  0  0  0  0
   -1.3550    1.5123   -0.1034 C   0  0  0  0  0  0  0  0  0  0  0  0
   -0.8783    0.4178    0.5199 C   0  0  0  0  0  0  0  0  0  0  0  0
   -2.9165   -1.9930   -0.9411 H   0  0  0  0  0  0  0  0  0  0  0  0
   -3.7982    0.0003   -2.0741 H   0  0  0  0  0  0  0  0  0  0  0  0
   -2.4308    2.0970   -1.8794 H   0  0  0  0  0  0  0  0  0  0  0  0
   -0.8878    2.4773    0.0590 H   0  0  0  0  0  0  0  0  0  0  0  0
   -0.0250    0.4763    1.1887 H   0  0  0  0  0  0  0  0  0  0  0  0
   -3.8741    3.6988   -0.2214 S   0  0  0  0  0  0  0  0  0  0  0  0
   -3.1950    4.2957   -1.3559 O   0  0  0  0  0  0  0  0  0  0  0  0
   -2.9417    4.0745    1.0712 O   0  0  0  0  0  0  0  0  0  0  0  0
   -5.2525    3.9931    0.1237 O   0  0  0  0  0  0  0  0  0  0  0  0
   -3.7580    2.0986   -0.2725 O   0  0  0  0  0  0  0  0  0  0  0  0
   -3.4786    3.9284    1.8681 H   0  0  0  0  0  0  0  0  0  0  0  0
  1  8  1  0  0  0  0
  1  2  1  0  0  0  0
  2  3  1  0  0  0  0
  4  1  2  0  0  0  0
  5  6  1  0  0  0  0
  5  4  1  0  0  0  0
  6 11  1  6  0  0  0
  6 18  1  0  0  0  0
  6  7  1  0  0  0  0
  7 12  1  0  0  0  0
  7  8  2  0  0  0  0
  8 13  1  0  0  0  0
  9  4  1  0  0  0  0
 10  5  1  0  0  0  0
 14 17  2  0  0  0  0
 14 16  1  0  0  0  0
 15 14  2  0  0  0  0
 16 19  1  0  0  0  0
 18 14  1  0  0  0  0
M  RAD  3   2   2   3   3   5   2
M  END
