Coordinates from ORCA-job PhN2+~HSO4-_B3LYPG-6-31G_dp-NX-Scan-d89-09-n800
 OpenBabel11261920153D

 19 18  0  0  0  0  0  0  0  0999 V2000
   -2.4166    0.3343   -0.3117 C   0  0  0  0  0  0  0  0  0  0  0  0
   -2.9369    0.2430    0.9719 N   0  0  0  0  0  0  0  0  0  0  0  0
   -3.3436    0.0740    2.0035 N   0  0  0  0  0  0  0  0  0  0  0  0
   -2.6639   -0.7530   -1.1689 C   0  0  0  0  0  0  0  0  0  0  0  0
   -2.1414   -0.6937   -2.4531 C   0  0  0  0  0  0  0  0  0  0  0  0
   -1.3822    0.4159   -2.8476 C   0  0  0  0  0  0  0  0  0  0  0  0
   -1.1415    1.4745   -1.9665 C   0  0  0  0  0  0  0  0  0  0  0  0
   -1.6641    1.4605   -0.6766 C   0  0  0  0  0  0  0  0  0  0  0  0
   -3.2534   -1.5974   -0.8300 H   0  0  0  0  0  0  0  0  0  0  0  0
   -2.3232   -1.5091   -3.1449 H   0  0  0  0  0  0  0  0  0  0  0  0
   -0.9753    0.4525   -3.8533 H   0  0  0  0  0  0  0  0  0  0  0  0
   -0.5518    2.3267   -2.2868 H   0  0  0  0  0  0  0  0  0  0  0  0
   -1.5114    2.2590    0.0472 H   0  0  0  0  0  0  0  0  0  0  0  0
   -3.2534    3.2303    1.9647 S   0  0  0  0  0  0  0  0  0  0  0  0
   -1.7797    3.0412    1.9239 O   0  0  0  0  0  0  0  0  0  0  0  0
   -3.7489    1.9282    2.9953 O   0  0  0  0  0  0  0  0  0  0  0  0
   -3.7319    4.4380    2.6314 O   0  0  0  0  0  0  0  0  0  0  0  0
   -3.9355    2.8034    0.7268 O   0  0  0  0  0  0  0  0  0  0  0  0
   -3.2664    2.0341    3.8322 H   0  0  0  0  0  0  0  0  0  0  0  0
  1  2  1  0  0  0  0
  2  3  1  0  0  0  0
  4  9  1  0  0  0  0
  4  1  2  0  0  0  0
  5  4  1  0  0  0  0
  6  5  2  0  0  0  0
  6  7  1  0  0  0  0
  7  8  2  0  0  0  0
  8  1  1  0  0  0  0
  8 13  1  0  0  0  0
 10  5  1  0  0  0  0
 11  6  1  0  0  0  0
 12  7  1  0  0  0  0
 14 17  1  0  0  0  0
 14 16  1  0  0  0  0
 15 14  2  0  0  0  0
 16 19  1  0  0  0  0
 18 14  2  0  0  0  0
M  RAD  3   2   2   3   3  17   2
M  END
