Coordinates from ORCA-job PhN2+~HSO4-_B3LYPG-6-31G_dp-NX-Scan-d89-09-n800
 OpenBabel11261920153D

 19 19  0  0  1  0  0  0  0  0999 V2000
   -1.5850   -0.3221    0.3998 C   0  0  0  0  0  0  0  0  0  0  0  0
   -1.2877   -1.0305    1.4662 N   0  0  0  0  0  0  0  0  0  0  0  0
   -1.0432   -1.6316    2.4044 N   0  0  0  0  0  0  0  0  0  0  0  0
   -2.7885   -0.6163   -0.3438 C   0  0  0  0  0  0  0  0  0  0  0  0
   -3.1875    0.2253   -1.3181 C   0  0  0  0  0  0  0  0  0  0  0  0
   -2.4935    1.5171   -1.5810 C   0  0  2  0  0  0  0  0  0  0  0  0
   -1.1481    1.6286   -0.9575 C   0  0  0  0  0  0  0  0  0  0  0  0
   -0.7429    0.7870    0.0139 C   0  0  0  0  0  0  0  0  0  0  0  0
   -3.3353   -1.5274   -0.1203 H   0  0  0  0  0  0  0  0  0  0  0  0
   -4.0697    0.0026   -1.9095 H   0  0  0  0  0  0  0  0  0  0  0  0
   -2.4737    1.7650   -2.6444 H   0  0  0  0  0  0  0  0  0  0  0  0
   -0.5157    2.4545   -1.2623 H   0  0  0  0  0  0  0  0  0  0  0  0
    0.2148    0.9145    0.5074 H   0  0  0  0  0  0  0  0  0  0  0  0
   -3.4300    3.3322    0.3110 S   0  0  0  0  0  0  0  0  0  0  0  0
   -2.1677    3.9989    0.5575 O   0  0  0  0  0  0  0  0  0  0  0  0
   -3.4368    2.0407    1.3248 O   0  0  0  0  0  0  0  0  0  0  0  0
   -4.7067    4.0109    0.4482 O   0  0  0  0  0  0  0  0  0  0  0  0
   -3.4621    2.6591   -1.1447 O   0  0  0  0  0  0  0  0  0  0  0  0
   -4.3617    1.7538    1.4058 H   0  0  0  0  0  0  0  0  0  0  0  0
  1  2  1  0  0  0  0
  2  3  1  0  0  0  0
  4  9  1  0  0  0  0
  4  1  2  0  0  0  0
  5  4  1  0  0  0  0
  6 11  1  6  0  0  0
  6  5  1  0  0  0  0
  6 18  1  0  0  0  0
  6  7  1  0  0  0  0
  7  8  2  0  0  0  0
  8  1  1  0  0  0  0
  8 13  1  0  0  0  0
 10  5  1  0  0  0  0
 12  7  1  0  0  0  0
 14 17  2  0  0  0  0
 14 15  2  0  0  0  0
 14 16  1  0  0  0  0
 16 19  1  0  0  0  0
 18 14  1  0  0  0  0
M  RAD  3   2   2   3   3   5   2
M  END
