Coordinates from ORCA-job PhN2+~HSO4-_B3LYPG-6-31G_dp-NX-Scan-d89-09-n800
 OpenBabel11261920153D

 19 19  0  0  1  0  0  0  0  0999 V2000
   -1.6474   -0.2778    0.2541 C   0  0  1  0  0  0  0  0  0  0  0  0
   -1.8673   -0.3983    1.5479 N   0  0  0  0  0  0  0  0  0  0  0  0
   -2.1747   -0.2664    2.6328 N   0  0  0  0  0  0  0  0  0  0  0  0
   -2.6892   -0.7268   -0.6529 C   0  0  0  0  0  0  0  0  0  0  0  0
   -3.0243    0.0872   -1.6752 C   0  0  0  0  0  0  0  0  0  0  0  0
   -2.4861    1.4703   -1.6969 C   0  0  2  0  0  0  0  0  0  0  0  0
   -1.1089    1.5805   -1.1693 C   0  0  0  0  0  0  0  0  0  0  0  0
   -0.7372    0.7800   -0.1498 C   0  0  0  0  0  0  0  0  0  0  0  0
   -3.1748   -1.6826   -0.4836 H   0  0  0  0  0  0  0  0  0  0  0  0
   -3.7664   -0.2030   -2.4109 H   0  0  0  0  0  0  0  0  0  0  0  0
   -2.6374    1.9911   -2.6393 H   0  0  0  0  0  0  0  0  0  0  0  0
   -0.4662    2.3786   -1.5213 H   0  0  0  0  0  0  0  0  0  0  0  0
    0.1903    0.9253    0.3942 H   0  0  0  0  0  0  0  0  0  0  0  0
   -3.2929    3.0342    0.5795 S   0  0  0  0  0  0  0  0  0  0  0  0
   -2.0390    3.7652    0.5723 O   0  0  0  0  0  0  0  0  0  0  0  0
   -3.0843    1.7823    1.6641 O   0  0  0  0  0  0  0  0  0  0  0  0
   -4.5505    3.6685    0.9454 O   0  0  0  0  0  0  0  0  0  0  0  0
   -3.5540    2.3006   -0.8077 O   0  0  0  0  0  0  0  0  0  0  0  0
   -3.9107    1.7536    2.1740 H   0  0  0  0  0  0  0  0  0  0  0  0
  1  2  1  1  0  0  0
  2  3  1  0  0  0  0
  4  9  1  0  0  0  0
  4  1  1  0  0  0  0
  5  4  2  0  0  0  0
  6 11  1  6  0  0  0
  6  5  1  0  0  0  0
  6  7  1  0  0  0  0
  6 18  1  0  0  0  0
  7  8  2  0  0  0  0
  8  1  1  0  0  0  0
  8 13  1  0  0  0  0
 10  5  1  0  0  0  0
 12  7  1  0  0  0  0
 14 17  2  0  0  0  0
 14 16  1  0  0  0  0
 15 14  2  0  0  0  0
 16 19  1  0  0  0  0
 18 14  1  0  0  0  0
M  RAD  3   1   2   2   2   3   3
M  END
