Coordinates from ORCA-job PhN2+~HSO4-_B3LYPG-6-31G_dp-NX-Scan-d89-09-n800
 OpenBabel11261920153D

 19 19  0  0  1  0  0  0  0  0999 V2000
   -1.6482   -0.2779    0.2534 C   0  0  1  0  0  0  0  0  0  0  0  0
   -1.8700   -0.3967    1.5472 N   0  0  0  0  0  0  0  0  0  0  0  0
   -2.1795   -0.2595    2.6308 N   0  0  0  0  0  0  0  0  0  0  0  0
   -2.6884   -0.7279   -0.6548 C   0  0  0  0  0  0  0  0  0  0  0  0
   -3.0230    0.0862   -1.6773 C   0  0  0  0  0  0  0  0  0  0  0  0
   -2.4859    1.4695   -1.6973 C   0  0  2  0  0  0  0  0  0  0  0  0
   -1.1089    1.5801   -1.1699 C   0  0  0  0  0  0  0  0  0  0  0  0
   -0.7376    0.7797   -0.1500 C   0  0  0  0  0  0  0  0  0  0  0  0
   -3.1737   -1.6841   -0.4861 H   0  0  0  0  0  0  0  0  0  0  0  0
   -3.7641   -0.2043   -2.4139 H   0  0  0  0  0  0  0  0  0  0  0  0
   -2.6385    1.9922   -2.6384 H   0  0  0  0  0  0  0  0  0  0  0  0
   -0.4662    2.3782   -1.5217 H   0  0  0  0  0  0  0  0  0  0  0  0
    0.1895    0.9252    0.3947 H   0  0  0  0  0  0  0  0  0  0  0  0
   -3.2928    3.0332    0.5807 S   0  0  0  0  0  0  0  0  0  0  0  0
   -2.0391    3.7647    0.5712 O   0  0  0  0  0  0  0  0  0  0  0  0
   -3.0827    1.7824    1.6669 O   0  0  0  0  0  0  0  0  0  0  0  0
   -4.5500    3.6678    0.9472 O   0  0  0  0  0  0  0  0  0  0  0  0
   -3.5548    2.2971   -0.8049 O   0  0  0  0  0  0  0  0  0  0  0  0
   -3.9074    1.7564    2.1796 H   0  0  0  0  0  0  0  0  0  0  0  0
  1  2  1  1  0  0  0
  2  3  1  0  0  0  0
  4  9  1  0  0  0  0
  4  1  1  0  0  0  0
  5  4  2  0  0  0  0
  6 11  1  6  0  0  0
  6  5  1  0  0  0  0
  6  7  1  0  0  0  0
  6 18  1  0  0  0  0
  7  8  2  0  0  0  0
  8  1  1  0  0  0  0
  8 13  1  0  0  0  0
 10  5  1  0  0  0  0
 12  7  1  0  0  0  0
 14 17  2  0  0  0  0
 14 16  1  0  0  0  0
 15 14  2  0  0  0  0
 16 19  1  0  0  0  0
 18 14  1  0  0  0  0
M  RAD  3   1   2   2   2   3   3
M  END
