Coordinates from ORCA-job PhN2+~HSO4-_B3LYPG-6-31G_dp-NX-Scan-d89-09-n800
 OpenBabel11261920153D

 19 19  0  0  1  0  0  0  0  0999 V2000
   -1.4419   -1.0111    0.2101 C   0  0  0  0  0  0  0  0  0  0  0  0
   -1.0079   -2.1804    0.6270 N   0  0  0  0  0  0  0  0  0  0  0  0
   -0.6357   -3.1970    0.9930 N   0  0  0  0  0  0  0  0  0  0  0  0
   -2.4830   -0.9410   -0.7934 C   0  0  0  0  0  0  0  0  0  0  0  0
   -2.9180    0.2567   -1.2293 C   0  0  0  0  0  0  0  0  0  0  0  0
   -2.4181    1.5451   -0.6721 C   0  0  2  0  0  0  0  0  0  0  0  0
   -1.2839    1.4035    0.2840 C   0  0  0  0  0  0  0  0  0  0  0  0
   -0.8473    0.2058    0.7200 C   0  0  0  0  0  0  0  0  0  0  0  0
   -2.8808   -1.8658   -1.1986 H   0  0  0  0  0  0  0  0  0  0  0  0
   -3.6832    0.3175   -1.9965 H   0  0  0  0  0  0  0  0  0  0  0  0
   -2.2158    2.2750   -1.4599 H   0  0  0  0  0  0  0  0  0  0  0  0
   -0.8259    2.3178    0.6464 H   0  0  0  0  0  0  0  0  0  0  0  0
   -0.0327    0.1286    1.4336 H   0  0  0  0  0  0  0  0  0  0  0  0
   -4.1361    3.5990   -0.3147 S   0  0  0  0  0  0  0  0  0  0  0  0
   -4.0582    3.7621   -1.7539 O   0  0  0  0  0  0  0  0  0  0  0  0
   -2.9827    4.5959    0.2887 O   0  0  0  0  0  0  0  0  0  0  0  0
   -5.3538    3.8149    0.4438 O   0  0  0  0  0  0  0  0  0  0  0  0
   -3.5929    2.1520    0.1179 O   0  0  0  0  0  0  0  0  0  0  0  0
   -3.2232    4.7833    1.2115 H   0  0  0  0  0  0  0  0  0  0  0  0
  1  2  1  0  0  0  0
  1  8  2  0  0  0  0
  2  3  1  0  0  0  0
  4  1  1  0  0  0  0
  5  4  2  0  0  0  0
  5  6  1  0  0  0  0
  6 11  1  6  0  0  0
  6 18  1  0  0  0  0
  6  7  1  0  0  0  0
  7 12  1  0  0  0  0
  7  8  1  0  0  0  0
  8 13  1  0  0  0  0
  9  4  1  0  0  0  0
 10  5  1  0  0  0  0
 14 18  1  0  0  0  0
 14 16  1  0  0  0  0
 14 17  2  0  0  0  0
 15 14  2  0  0  0  0
 16 19  1  0  0  0  0
M  RAD  3   2   2   3   3   7   2
M  END
