Coordinates from ORCA-job PhN2+~HSO4-_B3LYPG-6-31G_dp-NX-Scan-d89-09-n800
 OpenBabel11261920153D

 19 19  0  0  1  0  0  0  0  0999 V2000
   -1.4853   -0.8478    0.2747 C   0  0  0  0  0  0  0  0  0  0  0  0
   -1.0364   -1.8933    0.9335 N   0  0  0  0  0  0  0  0  0  0  0  0
   -0.6476   -2.7935    1.5190 N   0  0  0  0  0  0  0  0  0  0  0  0
   -2.5486   -1.0005   -0.6945 C   0  0  0  0  0  0  0  0  0  0  0  0
   -3.0248    0.0787   -1.3449 C   0  0  0  0  0  0  0  0  0  0  0  0
   -2.5626    1.4622   -1.0405 C   0  0  2  0  0  0  0  0  0  0  0  0
   -1.3544    1.5268   -0.1677 C   0  0  0  0  0  0  0  0  0  0  0  0
   -0.8778    0.4490    0.4841 C   0  0  0  0  0  0  0  0  0  0  0  0
   -2.9257   -1.9964   -0.9039 H   0  0  0  0  0  0  0  0  0  0  0  0
   -3.8063   -0.0325   -2.0890 H   0  0  0  0  0  0  0  0  0  0  0  0
   -2.4567    2.0781   -1.9362 H   0  0  0  0  0  0  0  0  0  0  0  0
   -0.8793    2.4934   -0.0420 H   0  0  0  0  0  0  0  0  0  0  0  0
   -0.0177    0.5221    1.1424 H   0  0  0  0  0  0  0  0  0  0  0  0
   -3.8325    3.6945   -0.1911 S   0  0  0  0  0  0  0  0  0  0  0  0
   -3.0695    4.3191   -1.2555 O   0  0  0  0  0  0  0  0  0  0  0  0
   -2.9620    3.9707    1.1674 O   0  0  0  0  0  0  0  0  0  0  0  0
   -5.2167    4.0249    0.0935 O   0  0  0  0  0  0  0  0  0  0  0  0
   -3.7684    2.0958   -0.3173 O   0  0  0  0  0  0  0  0  0  0  0  0
   -3.5488    3.8110    1.9255 H   0  0  0  0  0  0  0  0  0  0  0  0
  1  8  1  0  0  0  0
  1  2  1  0  0  0  0
  2  3  1  0  0  0  0
  4  1  2  0  0  0  0
  5  6  1  0  0  0  0
  5  4  1  0  0  0  0
  6 11  1  6  0  0  0
  6 18  1  0  0  0  0
  6  7  1  0  0  0  0
  7 12  1  0  0  0  0
  7  8  2  0  0  0  0
  8 13  1  0  0  0  0
  9  4  1  0  0  0  0
 10  5  1  0  0  0  0
 14 17  2  0  0  0  0
 14 16  1  0  0  0  0
 15 14  2  0  0  0  0
 16 19  1  0  0  0  0
 18 14  1  0  0  0  0
M  RAD  3   2   2   3   3   5   2
M  END
