Coordinates from ORCA-job PhN2+~HSO4-_B3LYPG-6-31G_dp-NX-Scan-d89-09-n800
 OpenBabel11261920153D

 19 19  0  0  1  0  0  0  0  0999 V2000
   -1.5426   -0.3824    0.4122 C   0  0  0  0  0  0  0  0  0  0  0  0
   -1.1504   -1.1990    1.3652 N   0  0  0  0  0  0  0  0  0  0  0  0
   -0.8139   -1.9037    2.1982 N   0  0  0  0  0  0  0  0  0  0  0  0
   -2.7785   -0.6384   -0.2923 C   0  0  0  0  0  0  0  0  0  0  0  0
   -3.2065    0.2313   -1.2284 C   0  0  0  0  0  0  0  0  0  0  0  0
   -2.4956    1.5088   -1.5242 C   0  0  2  0  0  0  0  0  0  0  0  0
   -1.1637    1.6359   -0.8703 C   0  0  0  0  0  0  0  0  0  0  0  0
   -0.7335    0.7639    0.0625 C   0  0  0  0  0  0  0  0  0  0  0  0
   -3.3284   -1.5487   -0.0731 H   0  0  0  0  0  0  0  0  0  0  0  0
   -4.1170    0.0327   -1.7846 H   0  0  0  0  0  0  0  0  0  0  0  0
   -2.4364    1.7005   -2.5993 H   0  0  0  0  0  0  0  0  0  0  0  0
   -0.5510    2.4880   -1.1408 H   0  0  0  0  0  0  0  0  0  0  0  0
    0.2279    0.8923    0.5486 H   0  0  0  0  0  0  0  0  0  0  0  0
   -3.4741    3.4193    0.2368 S   0  0  0  0  0  0  0  0  0  0  0  0
   -2.2047    4.0619    0.5091 O   0  0  0  0  0  0  0  0  0  0  0  0
   -3.5647    2.1813    1.3055 O   0  0  0  0  0  0  0  0  0  0  0  0
   -4.7340    4.1397    0.2732 O   0  0  0  0  0  0  0  0  0  0  0  0
   -3.4581    2.6727   -1.1852 O   0  0  0  0  0  0  0  0  0  0  0  0
   -4.4959    1.9062    1.3443 H   0  0  0  0  0  0  0  0  0  0  0  0
  1  2  1  0  0  0  0
  2  3  1  0  0  0  0
  4  9  1  0  0  0  0
  4  1  2  0  0  0  0
  5  4  1  0  0  0  0
  6 11  1  6  0  0  0
  6  5  1  0  0  0  0
  6 18  1  0  0  0  0
  6  7  1  0  0  0  0
  7  8  2  0  0  0  0
  8  1  1  0  0  0  0
  8 13  1  0  0  0  0
 10  5  1  0  0  0  0
 12  7  1  0  0  0  0
 14 17  2  0  0  0  0
 14 15  2  0  0  0  0
 14 16  1  0  0  0  0
 16 19  1  0  0  0  0
 18 14  1  0  0  0  0
M  RAD  3   2   2   3   3   5   2
M  END
