Coordinates from ORCA-job PhN2+~HSO4-_B3LYPG-6-31G_dp-NX-Scan-d89-09-n800
 OpenBabel11261920153D

 19 19  0  0  1  0  0  0  0  0999 V2000
   -1.4822   -0.8601    0.2718 C   0  0  0  0  0  0  0  0  0  0  0  0
   -1.0322   -1.9137    0.9165 N   0  0  0  0  0  0  0  0  0  0  0  0
   -0.6422   -2.8216    1.4894 N   0  0  0  0  0  0  0  0  0  0  0  0
   -2.5436   -1.0013   -0.7013 C   0  0  0  0  0  0  0  0  0  0  0  0
   -3.0190    0.0854   -1.3395 C   0  0  0  0  0  0  0  0  0  0  0  0
   -2.5567    1.4654   -1.0201 C   0  0  2  0  0  0  0  0  0  0  0  0
   -1.3542    1.5206   -0.1387 C   0  0  0  0  0  0  0  0  0  0  0  0
   -0.8786    0.4352    0.5010 C   0  0  0  0  0  0  0  0  0  0  0  0
   -2.9203   -1.9947   -0.9231 H   0  0  0  0  0  0  0  0  0  0  0  0
   -3.7996   -0.0171   -2.0859 H   0  0  0  0  0  0  0  0  0  0  0  0
   -2.4447    2.0885   -1.9101 H   0  0  0  0  0  0  0  0  0  0  0  0
   -0.8824    2.4865    0.0040 H   0  0  0  0  0  0  0  0  0  0  0  0
   -0.0221    0.5014    1.1648 H   0  0  0  0  0  0  0  0  0  0  0  0
   -3.8534    3.6953   -0.2045 S   0  0  0  0  0  0  0  0  0  0  0  0
   -3.1341    4.3094   -1.3047 O   0  0  0  0  0  0  0  0  0  0  0  0
   -2.9485    4.0186    1.1211 O   0  0  0  0  0  0  0  0  0  0  0  0
   -5.2347    4.0063    0.1135 O   0  0  0  0  0  0  0  0  0  0  0  0
   -3.7636    2.0954   -0.2966 O   0  0  0  0  0  0  0  0  0  0  0  0
   -3.5088    3.8627    1.8998 H   0  0  0  0  0  0  0  0  0  0  0  0
  1  8  1  0  0  0  0
  1  2  1  0  0  0  0
  2  3  1  0  0  0  0
  4  1  2  0  0  0  0
  5  6  1  0  0  0  0
  5  4  1  0  0  0  0
  6 11  1  6  0  0  0
  6 18  1  0  0  0  0
  6  7  1  0  0  0  0
  7 12  1  0  0  0  0
  7  8  2  0  0  0  0
  8 13  1  0  0  0  0
  9  4  1  0  0  0  0
 10  5  1  0  0  0  0
 14 17  2  0  0  0  0
 14 16  1  0  0  0  0
 15 14  2  0  0  0  0
 16 19  1  0  0  0  0
 18 14  1  0  0  0  0
M  RAD  3   2   2   3   3   5   2
M  END
