Coordinates from ORCA-job PhN2+~HSO4-_B3LYPG-6-31G_dp-NX-Scan-d89-09-n800
 OpenBabel11261920153D

 19 19  0  0  1  0  0  0  0  0999 V2000
   -1.6042   -0.2920    0.3782 C   0  0  1  0  0  0  0  0  0  0  0  0
   -1.3909   -0.8996    1.5233 N   0  0  0  0  0  0  0  0  0  0  0  0
   -1.2296   -1.4009    2.5342 N   0  0  0  0  0  0  0  0  0  0  0  0
   -2.7849   -0.6140   -0.3906 C   0  0  0  0  0  0  0  0  0  0  0  0
   -3.1686    0.2126   -1.3839 C   0  0  0  0  0  0  0  0  0  0  0  0
   -2.4928    1.5182   -1.6168 C   0  0  2  0  0  0  0  0  0  0  0  0
   -1.1383    1.6220   -1.0157 C   0  0  0  0  0  0  0  0  0  0  0  0
   -0.7447    0.7974   -0.0250 C   0  0  0  0  0  0  0  0  0  0  0  0
   -3.3265   -1.5281   -0.1668 H   0  0  0  0  0  0  0  0  0  0  0  0
   -4.0302   -0.0262   -1.9987 H   0  0  0  0  0  0  0  0  0  0  0  0
   -2.5033    1.8116   -2.6676 H   0  0  0  0  0  0  0  0  0  0  0  0
   -0.4977    2.4346   -1.3385 H   0  0  0  0  0  0  0  0  0  0  0  0
    0.2094    0.9269    0.4751 H   0  0  0  0  0  0  0  0  0  0  0  0
   -3.3959    3.2671    0.3657 S   0  0  0  0  0  0  0  0  0  0  0  0
   -2.1333    3.9415    0.5899 O   0  0  0  0  0  0  0  0  0  0  0  0
   -3.3607    1.9510    1.3526 O   0  0  0  0  0  0  0  0  0  0  0  0
   -4.6748    3.9269    0.5650 O   0  0  0  0  0  0  0  0  0  0  0  0
   -3.4693    2.6333   -1.1039 O   0  0  0  0  0  0  0  0  0  0  0  0
   -4.2850    1.6800    1.4808 H   0  0  0  0  0  0  0  0  0  0  0  0
  1  2  1  1  0  0  0
  2  3  1  0  0  0  0
  4  9  1  0  0  0  0
  4  1  1  0  0  0  0
  5  4  2  0  0  0  0
  6 11  1  6  0  0  0
  6  5  1  0  0  0  0
  6 18  1  0  0  0  0
  6  7  1  0  0  0  0
  7  8  2  0  0  0  0
  8  1  1  0  0  0  0
  8 13  1  0  0  0  0
 10  5  1  0  0  0  0
 12  7  1  0  0  0  0
 14 17  2  0  0  0  0
 14 15  2  0  0  0  0
 14 16  1  0  0  0  0
 16 19  1  0  0  0  0
 18 14  1  0  0  0  0
M  RAD  3   1   2   2   2   3   3
M  END
