Coordinates from ORCA-job PhN2+~HSO4-_B3LYPG-6-31G_dp-NX-Scan-d89-09-n800
 OpenBabel11261920153D

 19 19  0  0  1  0  0  0  0  0999 V2000
   -1.6181   -0.2645    0.2769 C   0  0  1  0  0  0  0  0  0  0  0  0
   -1.7572   -0.4517    1.5718 N   0  0  0  0  0  0  0  0  0  0  0  0
   -1.9815   -0.4707    2.6853 N   0  0  0  0  0  0  0  0  0  0  0  0
   -2.7128   -0.6815   -0.5807 C   0  0  0  0  0  0  0  0  0  0  0  0
   -3.0674    0.1262   -1.6000 C   0  0  0  0  0  0  0  0  0  0  0  0
   -2.4853    1.4895   -1.6926 C   0  0  2  0  0  0  0  0  0  0  0  0
   -1.1046    1.5902   -1.1666 C   0  0  0  0  0  0  0  0  0  0  0  0
   -0.7206    0.7925   -0.1498 C   0  0  0  0  0  0  0  0  0  0  0  0
   -3.2183   -1.6213   -0.3810 H   0  0  0  0  0  0  0  0  0  0  0  0
   -3.8512   -0.1554   -2.2951 H   0  0  0  0  0  0  0  0  0  0  0  0
   -2.6084    1.9506   -2.6705 H   0  0  0  0  0  0  0  0  0  0  0  0
   -0.4612    2.3843   -1.5269 H   0  0  0  0  0  0  0  0  0  0  0  0
    0.2199    0.9361    0.3721 H   0  0  0  0  0  0  0  0  0  0  0  0
   -3.3001    3.0573    0.5502 S   0  0  0  0  0  0  0  0  0  0  0  0
   -2.0225    3.7363    0.6530 O   0  0  0  0  0  0  0  0  0  0  0  0
   -3.1896    1.7473    1.5666 O   0  0  0  0  0  0  0  0  0  0  0  0
   -4.5540    3.7154    0.8818 O   0  0  0  0  0  0  0  0  0  0  0  0
   -3.5151    2.4247   -0.8972 O   0  0  0  0  0  0  0  0  0  0  0  0
   -4.0732    1.6567    1.9602 H   0  0  0  0  0  0  0  0  0  0  0  0
  1  2  1  1  0  0  0
  2  3  1  0  0  0  0
  4  9  1  0  0  0  0
  4  1  1  0  0  0  0
  5  4  2  0  0  0  0
  6 11  1  6  0  0  0
  6  5  1  0  0  0  0
  6  7  1  0  0  0  0
  6 18  1  0  0  0  0
  7  8  2  0  0  0  0
  8  1  1  0  0  0  0
  8 13  1  0  0  0  0
 10  5  1  0  0  0  0
 12  7  1  0  0  0  0
 14 15  2  0  0  0  0
 14 17  2  0  0  0  0
 14 16  1  0  0  0  0
 16 19  1  0  0  0  0
 18 14  1  0  0  0  0
M  RAD  3   1   2   2   2   3   3
M  END
