Coordinates from ORCA-job PhN2+~HSO4-_B3LYPG-6-31G_dp-NX-Scan-d89-09-n800
 OpenBabel11261920153D

 19 19  0  0  1  0  0  0  0  0999 V2000
   -1.5557   -0.3653    0.4107 C   0  0  0  0  0  0  0  0  0  0  0  0
   -1.1873   -1.1562    1.3940 N   0  0  0  0  0  0  0  0  0  0  0  0
   -0.8732   -1.8372    2.2546 N   0  0  0  0  0  0  0  0  0  0  0  0
   -2.7830   -0.6310   -0.3049 C   0  0  0  0  0  0  0  0  0  0  0  0
   -3.2025    0.2310   -1.2520 C   0  0  0  0  0  0  0  0  0  0  0  0
   -2.4951    1.5118   -1.5396 C   0  0  2  0  0  0  0  0  0  0  0  0
   -1.1599    1.6347   -0.8929 C   0  0  0  0  0  0  0  0  0  0  0  0
   -0.7373    0.7709    0.0510 C   0  0  0  0  0  0  0  0  0  0  0  0
   -3.3326   -1.5411   -0.0845 H   0  0  0  0  0  0  0  0  0  0  0  0
   -4.1056    0.0263   -1.8180 H   0  0  0  0  0  0  0  0  0  0  0  0
   -2.4451    1.7172   -2.6123 H   0  0  0  0  0  0  0  0  0  0  0  0
   -0.5413    2.4795   -1.1727 H   0  0  0  0  0  0  0  0  0  0  0  0
    0.2231    0.8987    0.5393 H   0  0  0  0  0  0  0  0  0  0  0  0
   -3.4628    3.3972    0.2553 S   0  0  0  0  0  0  0  0  0  0  0  0
   -2.1969    4.0502    0.5187 O   0  0  0  0  0  0  0  0  0  0  0  0
   -3.5242    2.1431    1.3086 O   0  0  0  0  0  0  0  0  0  0  0  0
   -4.7300    4.1028    0.3214 O   0  0  0  0  0  0  0  0  0  0  0  0
   -3.4593    2.6709   -1.1768 O   0  0  0  0  0  0  0  0  0  0  0  0
   -4.4522    1.8588    1.3575 H   0  0  0  0  0  0  0  0  0  0  0  0
  1  2  1  0  0  0  0
  2  3  1  0  0  0  0
  4  9  1  0  0  0  0
  4  1  2  0  0  0  0
  5  4  1  0  0  0  0
  6 11  1  6  0  0  0
  6  5  1  0  0  0  0
  6 18  1  0  0  0  0
  6  7  1  0  0  0  0
  7  8  2  0  0  0  0
  8  1  1  0  0  0  0
  8 13  1  0  0  0  0
 10  5  1  0  0  0  0
 12  7  1  0  0  0  0
 14 17  2  0  0  0  0
 14 15  2  0  0  0  0
 14 16  1  0  0  0  0
 16 19  1  0  0  0  0
 18 14  1  0  0  0  0
M  RAD  3   2   2   3   3   5   2
M  END
