Coordinates from ORCA-job PhN2+~HSO4-_B3LYPG-6-31G_dp-NX-Scan-d89-09-n800
 OpenBabel11261920153D

 19 19  0  0  1  0  0  0  0  0999 V2000
   -1.6113   -0.2779    0.3585 C   0  0  1  0  0  0  0  0  0  0  0  0
   -1.4651   -0.8033    1.5537 N   0  0  0  0  0  0  0  0  0  0  0  0
   -1.3709   -1.2227    2.6088 N   0  0  0  0  0  0  0  0  0  0  0  0
   -2.7774   -0.6179   -0.4259 C   0  0  0  0  0  0  0  0  0  0  0  0
   -3.1529    0.2009   -1.4288 C   0  0  0  0  0  0  0  0  0  0  0  0
   -2.4915    1.5168   -1.6389 C   0  0  2  0  0  0  0  0  0  0  0  0
   -1.1305    1.6162   -1.0545 C   0  0  0  0  0  0  0  0  0  0  0  0
   -0.7420    0.8009   -0.0538 C   0  0  0  0  0  0  0  0  0  0  0  0
   -3.3145   -1.5349   -0.2029 H   0  0  0  0  0  0  0  0  0  0  0  0
   -4.0005   -0.0478   -2.0588 H   0  0  0  0  0  0  0  0  0  0  0  0
   -2.5245    1.8432   -2.6787 H   0  0  0  0  0  0  0  0  0  0  0  0
   -0.4864    2.4216   -1.3880 H   0  0  0  0  0  0  0  0  0  0  0  0
    0.2097    0.9326    0.4503 H   0  0  0  0  0  0  0  0  0  0  0  0
   -3.3726    3.2207    0.4047 S   0  0  0  0  0  0  0  0  0  0  0  0
   -2.1079    3.8966    0.6131 O   0  0  0  0  0  0  0  0  0  0  0  0
   -3.3172    1.8927    1.3794 O   0  0  0  0  0  0  0  0  0  0  0  0
   -4.6497    3.8726    0.6409 O   0  0  0  0  0  0  0  0  0  0  0  0
   -3.4745    2.6078   -1.0704 O   0  0  0  0  0  0  0  0  0  0  0  0
   -4.2413    1.6443    1.5488 H   0  0  0  0  0  0  0  0  0  0  0  0
  1  2  1  1  0  0  0
  2  3  1  0  0  0  0
  4  9  1  0  0  0  0
  4  1  1  0  0  0  0
  5  4  2  0  0  0  0
  6 11  1  6  0  0  0
  6  5  1  0  0  0  0
  6 18  1  0  0  0  0
  6  7  1  0  0  0  0
  7  8  2  0  0  0  0
  8  1  1  0  0  0  0
  8 13  1  0  0  0  0
 10  5  1  0  0  0  0
 12  7  1  0  0  0  0
 14 15  2  0  0  0  0
 14 17  2  0  0  0  0
 14 16  1  0  0  0  0
 16 19  1  0  0  0  0
 18 14  1  0  0  0  0
M  RAD  3   1   2   2   2   3   3
M  END
