Coordinates from ORCA-job PhN2+~HSO4-_B3LYPG-6-31G_dp-NX-Scan-d89-09-n800
 OpenBabel11261920153D

 19 19  0  0  1  0  0  0  0  0999 V2000
   -1.5626   -0.6734    0.3143 C   0  0  0  0  0  0  0  0  0  0  0  0
   -1.2246   -1.5899    1.1944 N   0  0  0  0  0  0  0  0  0  0  0  0
   -0.9314   -2.3600    1.9837 N   0  0  0  0  0  0  0  0  0  0  0  0
   -2.5830   -0.9454   -0.6746 C   0  0  0  0  0  0  0  0  0  0  0  0
   -3.0078    0.0473   -1.4815 C   0  0  0  0  0  0  0  0  0  0  0  0
   -2.5688    1.4573   -1.2805 C   0  0  2  0  0  0  0  0  0  0  0  0
   -1.3173    1.5923   -0.4812 C   0  0  0  0  0  0  0  0  0  0  0  0
   -0.8837    0.6038    0.3237 C   0  0  0  0  0  0  0  0  0  0  0  0
   -2.9638   -1.9572   -0.7706 H   0  0  0  0  0  0  0  0  0  0  0  0
   -3.7487   -0.1490   -2.2490 H   0  0  0  0  0  0  0  0  0  0  0  0
   -2.5299    2.0325   -2.2065 H   0  0  0  0  0  0  0  0  0  0  0  0
   -0.7970    2.5421   -0.5158 H   0  0  0  0  0  0  0  0  0  0  0  0
   -0.0115    0.7286    0.9575 H   0  0  0  0  0  0  0  0  0  0  0  0
   -3.6865    3.5866   -0.0043 S   0  0  0  0  0  0  0  0  0  0  0  0
   -2.7468    4.3517   -0.8035 O   0  0  0  0  0  0  0  0  0  0  0  0
   -2.9603    3.3855    1.4505 O   0  0  0  0  0  0  0  0  0  0  0  0
   -5.0493    4.0219    0.2450 O   0  0  0  0  0  0  0  0  0  0  0  0
   -3.7824    2.0802   -0.5387 O   0  0  0  0  0  0  0  0  0  0  0  0
   -3.6658    3.2075    2.0948 H   0  0  0  0  0  0  0  0  0  0  0  0
  1  8  2  0  0  0  0
  1  2  1  0  0  0  0
  2  3  1  0  0  0  0
  4  1  1  0  0  0  0
  5  6  1  0  0  0  0
  5  4  2  0  0  0  0
  6 11  1  6  0  0  0
  6 18  1  0  0  0  0
  6  7  1  0  0  0  0
  7  8  1  0  0  0  0
  8 13  1  0  0  0  0
  9  4  1  0  0  0  0
 10  5  1  0  0  0  0
 12  7  1  0  0  0  0
 14 17  2  0  0  0  0
 14 16  1  0  0  0  0
 15 14  2  0  0  0  0
 16 19  1  0  0  0  0
 18 14  1  0  0  0  0
M  RAD  3   2   2   3   3   7   2
M  END
