Coordinates from ORCA-job PhN2+~HSO4-_B3LYPG-6-31G_dp-NX-Scan-d89-09-n800
 OpenBabel11261920163D

 19 18  0  0  0  0  0  0  0  0999 V2000
   -2.7864    0.2093   -0.2472 C   0  0  0  0  0  0  0  0  0  0  0  0
   -3.4313   -0.1197    0.9641 N   0  0  0  0  0  0  0  0  0  0  0  0
   -3.9629    0.5139    1.8379 N   0  0  0  0  0  0  0  0  0  0  0  0
   -2.1187   -0.8798   -0.8331 C   0  0  0  0  0  0  0  0  0  0  0  0
   -1.4571   -0.7226   -2.0456 C   0  0  0  0  0  0  0  0  0  0  0  0
   -1.4803    0.5167   -2.6903 C   0  0  0  0  0  0  0  0  0  0  0  0
   -2.1610    1.5947   -2.1175 C   0  0  0  0  0  0  0  0  0  0  0  0
   -2.8137    1.4592   -0.8951 C   0  0  0  0  0  0  0  0  0  0  0  0
   -2.1319   -1.8322   -0.3144 H   0  0  0  0  0  0  0  0  0  0  0  0
   -0.9344   -1.5633   -2.4903 H   0  0  0  0  0  0  0  0  0  0  0  0
   -0.9714    0.6426   -3.6410 H   0  0  0  0  0  0  0  0  0  0  0  0
   -2.1791    2.5558   -2.6216 H   0  0  0  0  0  0  0  0  0  0  0  0
   -3.3329    2.2987   -0.4591 H   0  0  0  0  0  0  0  0  0  0  0  0
   -2.0219    3.1873    2.2423 S   0  0  0  0  0  0  0  0  0  0  0  0
   -1.1487    2.0249    2.2460 O   0  0  0  0  0  0  0  0  0  0  0  0
   -3.9341    2.0526    1.6462 O   0  0  0  0  0  0  0  0  0  0  0  0
   -2.6330    3.6337    3.4878 O   0  0  0  0  0  0  0  0  0  0  0  0
   -2.0360    4.0728    1.0877 O   0  0  0  0  0  0  0  0  0  0  0  0
   -4.4864    2.3176    2.4006 H   0  0  0  0  0  0  0  0  0  0  0  0
  1  2  1  0  0  0  0
  2  3  2  0  0  0  0
  4  9  1  0  0  0  0
  4  1  1  0  0  0  0
  5  4  2  0  0  0  0
  6  7  2  0  0  0  0
  6  5  1  0  0  0  0
  7  8  1  0  0  0  0
  8 13  1  0  0  0  0
  8  1  2  0  0  0  0
 10  5  1  0  0  0  0
 11  6  1  0  0  0  0
 12  7  1  0  0  0  0
 14 15  2  0  0  0  0
 14 17  1  0  0  0  0
 16  3  1  0  0  0  0
 16 19  1  0  0  0  0
 18 14  1  0  0  0  0
M  RAD  2  17   2  18   2
M  END
