Coordinates from ORCA-job PhN2+~HSO4-_B3LYPG-6-31G_dp-NX-Scan-d89-09-n800
 OpenBabel11261920153D

 19 19  0  0  1  0  0  0  0  0999 V2000
   -1.6109   -0.2615    0.3159 C   0  0  1  0  0  0  0  0  0  0  0  0
   -1.6086   -0.6055    1.5845 N   0  0  0  0  0  0  0  0  0  0  0  0
   -1.6662   -0.8337    2.6976 N   0  0  0  0  0  0  0  0  0  0  0  0
   -2.7503   -0.6364   -0.4961 C   0  0  0  0  0  0  0  0  0  0  0  0
   -3.1166    0.1723   -1.5103 C   0  0  0  0  0  0  0  0  0  0  0  0
   -2.4869    1.5086   -1.6733 C   0  0  2  0  0  0  0  0  0  0  0  0
   -1.1125    1.6031   -1.1254 C   0  0  0  0  0  0  0  0  0  0  0  0
   -0.7264    0.8013   -0.1128 C   0  0  0  0  0  0  0  0  0  0  0  0
   -3.2767   -1.5601   -0.2756 H   0  0  0  0  0  0  0  0  0  0  0  0
   -3.9387   -0.0928   -2.1666 H   0  0  0  0  0  0  0  0  0  0  0  0
   -2.5671    1.8987   -2.6872 H   0  0  0  0  0  0  0  0  0  0  0  0
   -0.4663    2.3982   -1.4789 H   0  0  0  0  0  0  0  0  0  0  0  0
    0.2219    0.9385    0.3963 H   0  0  0  0  0  0  0  0  0  0  0  0
   -3.3302    3.1265    0.4846 S   0  0  0  0  0  0  0  0  0  0  0  0
   -2.0538    3.7885    0.6682 O   0  0  0  0  0  0  0  0  0  0  0  0
   -3.2676    1.7849    1.4507 O   0  0  0  0  0  0  0  0  0  0  0  0
   -4.5940    3.7845    0.7733 O   0  0  0  0  0  0  0  0  0  0  0  0
   -3.4826    2.5421   -0.9943 O   0  0  0  0  0  0  0  0  0  0  0  0
   -4.1877    1.6054    1.7069 H   0  0  0  0  0  0  0  0  0  0  0  0
  1  2  1  1  0  0  0
  2  3  1  0  0  0  0
  4  9  1  0  0  0  0
  4  1  1  0  0  0  0
  5  4  2  0  0  0  0
  6 11  1  6  0  0  0
  6  5  1  0  0  0  0
  6  7  1  0  0  0  0
  6 18  1  0  0  0  0
  7  8  2  0  0  0  0
  8  1  1  0  0  0  0
  8 13  1  0  0  0  0
 10  5  1  0  0  0  0
 12  7  1  0  0  0  0
 14 15  2  0  0  0  0
 14 17  2  0  0  0  0
 14 16  1  0  0  0  0
 16 19  1  0  0  0  0
 18 14  1  0  0  0  0
M  RAD  3   1   2   2   2   3   3
M  END
