Coordinates from ORCA-job PhN2+~HSO4-_B3LYPG-6-31G_dp-NX-Scan-d89-09-n800
 OpenBabel11261920163D

 19 18  0  0  0  0  0  0  0  0999 V2000
   -3.1101    0.2035   -0.2877 C   0  0  0  0  0  0  0  0  0  0  0  0
   -4.0180   -0.2226    0.7354 N   0  0  0  0  0  0  0  0  0  0  0  0
   -4.3783    0.5200    1.6757 N   0  0  0  0  0  0  0  0  0  0  0  0
   -2.1967   -0.7770   -0.7047 C   0  0  0  0  0  0  0  0  0  0  0  0
   -1.3188   -0.5229   -1.7548 C   0  0  0  0  0  0  0  0  0  0  0  0
   -1.3698    0.6993   -2.4301 C   0  0  0  0  0  0  0  0  0  0  0  0
   -2.3007    1.6648   -2.0429 C   0  0  0  0  0  0  0  0  0  0  0  0
   -3.1648    1.4298   -0.9727 C   0  0  0  0  0  0  0  0  0  0  0  0
   -2.1954   -1.7319   -0.1894 H   0  0  0  0  0  0  0  0  0  0  0  0
   -0.6067   -1.2852   -2.0574 H   0  0  0  0  0  0  0  0  0  0  0  0
   -0.6957    0.8939   -3.2590 H   0  0  0  0  0  0  0  0  0  0  0  0
   -2.3530    2.6129   -2.5698 H   0  0  0  0  0  0  0  0  0  0  0  0
   -3.8863    2.1868   -0.6896 H   0  0  0  0  0  0  0  0  0  0  0  0
   -1.5785    3.1238    1.9492 S   0  0  0  0  0  0  0  0  0  0  0  0
   -0.6605    2.0101    2.0963 O   0  0  0  0  0  0  0  0  0  0  0  0
   -3.9200    1.6501    1.7242 O   0  0  0  0  0  0  0  0  0  0  0  0
   -2.4220    3.5193    3.0714 O   0  0  0  0  0  0  0  0  0  0  0  0
   -1.6046    3.9087    0.7279 O   0  0  0  0  0  0  0  0  0  0  0  0
   -4.2411    2.0791    2.5355 H   0  0  0  0  0  0  0  0  0  0  0  0
  1  2  1  0  0  0  0
  2  3  2  0  0  0  0
  3 16  1  0  0  0  0
  4  1  1  0  0  0  0
  4  9  1  0  0  0  0
  5  4  2  0  0  0  0
  6  7  2  0  0  0  0
  6  5  1  0  0  0  0
  7  8  1  0  0  0  0
  8 13  1  0  0  0  0
  8  1  2  0  0  0  0
 10  5  1  0  0  0  0
 11  6  1  0  0  0  0
 12  7  1  0  0  0  0
 14 15  2  0  0  0  0
 14 17  1  0  0  0  0
 16 19  1  0  0  0  0
 18 14  1  0  0  0  0
M  RAD  2  17   2  18   2
M  END
