Coordinates from ORCA-job PhN2+~HSO4-_B3LYPG-6-31G_dp-NX-Scan-d89-09-n800
 OpenBabel11261920163D

 19 18  0  0  0  0  0  0  0  0999 V2000
   -3.2134    0.1850   -0.3043 C   0  0  0  0  0  0  0  0  0  0  0  0
   -4.2221   -0.2384    0.6272 N   0  0  0  0  0  0  0  0  0  0  0  0
   -4.4612    0.4717    1.6530 N   0  0  0  0  0  0  0  0  0  0  0  0
   -2.2938   -0.7956   -0.7040 C   0  0  0  0  0  0  0  0  0  0  0  0
   -1.3412   -0.5168   -1.6816 C   0  0  0  0  0  0  0  0  0  0  0  0
   -1.3064    0.7389   -2.2934 C   0  0  0  0  0  0  0  0  0  0  0  0
   -2.2343    1.7124   -1.9195 C   0  0  0  0  0  0  0  0  0  0  0  0
   -3.1820    1.4446   -0.9290 C   0  0  0  0  0  0  0  0  0  0  0  0
   -2.3478   -1.7739   -0.2371 H   0  0  0  0  0  0  0  0  0  0  0  0
   -0.6314   -1.2853   -1.9745 H   0  0  0  0  0  0  0  0  0  0  0  0
   -0.5694    0.9536   -3.0616 H   0  0  0  0  0  0  0  0  0  0  0  0
   -2.2224    2.6885   -2.3953 H   0  0  0  0  0  0  0  0  0  0  0  0
   -3.9121    2.2035   -0.6662 H   0  0  0  0  0  0  0  0  0  0  0  0
   -1.5295    3.2158    1.7266 S   0  0  0  0  0  0  0  0  0  0  0  0
   -0.5018    2.1959    1.8116 O   0  0  0  0  0  0  0  0  0  0  0  0
   -3.8856    1.3939    1.8230 O   0  0  0  0  0  0  0  0  0  0  0  0
   -2.4286    3.4309    2.8560 O   0  0  0  0  0  0  0  0  0  0  0  0
   -1.6265    4.0858    0.5686 O   0  0  0  0  0  0  0  0  0  0  0  0
   -4.1116    1.8519    2.6580 H   0  0  0  0  0  0  0  0  0  0  0  0
  1  2  1  0  0  0  0
  2  3  2  0  0  0  0
  3 16  1  0  0  0  0
  4  1  1  0  0  0  0
  4  9  1  0  0  0  0
  5  4  2  0  0  0  0
  6  7  2  0  0  0  0
  6  5  1  0  0  0  0
  7  8  1  0  0  0  0
  8 13  1  0  0  0  0
  8  1  2  0  0  0  0
 10  5  1  0  0  0  0
 11  6  1  0  0  0  0
 12  7  1  0  0  0  0
 14 15  2  0  0  0  0
 14 17  1  0  0  0  0
 16 19  1  0  0  0  0
 18 14  1  0  0  0  0
M  RAD  2  17   2  18   2
M  END
