Coordinates from ORCA-job PhN2+~HSO4-_B3LYPG-6-31G_dp-NX-Scan-d89-09-n800
 OpenBabel11261920153D

 19 19  0  0  1  0  0  0  0  0999 V2000
   -1.5191   -0.4097    0.4118 C   0  0  0  0  0  0  0  0  0  0  0  0
   -1.0921   -1.2616    1.3178 N   0  0  0  0  0  0  0  0  0  0  0  0
   -0.7241   -1.9980    2.1097 N   0  0  0  0  0  0  0  0  0  0  0  0
   -2.7693   -0.6507   -0.2729 C   0  0  0  0  0  0  0  0  0  0  0  0
   -3.2122    0.2316   -1.1899 C   0  0  0  0  0  0  0  0  0  0  0  0
   -2.4960    1.5036   -1.4991 C   0  0  2  0  0  0  0  0  0  0  0  0
   -1.1682    1.6371   -0.8363 C   0  0  0  0  0  0  0  0  0  0  0  0
   -0.7244    0.7517    0.0772 C   0  0  0  0  0  0  0  0  0  0  0  0
   -3.3196   -1.5608   -0.0543 H   0  0  0  0  0  0  0  0  0  0  0  0
   -4.1352    0.0433   -1.7288 H   0  0  0  0  0  0  0  0  0  0  0  0
   -2.4238    1.6739   -2.5778 H   0  0  0  0  0  0  0  0  0  0  0  0
   -0.5654    2.5004   -1.0926 H   0  0  0  0  0  0  0  0  0  0  0  0
    0.2392    0.8809    0.5586 H   0  0  0  0  0  0  0  0  0  0  0  0
   -3.4911    3.4509    0.2100 S   0  0  0  0  0  0  0  0  0  0  0  0
   -2.2149    4.0705    0.5028 O   0  0  0  0  0  0  0  0  0  0  0  0
   -3.6385    2.2382    1.2993 O   0  0  0  0  0  0  0  0  0  0  0  0
   -4.7346    4.1997    0.1964 O   0  0  0  0  0  0  0  0  0  0  0  0
   -3.4552    2.6749   -1.1964 O   0  0  0  0  0  0  0  0  0  0  0  0
   -4.5769    1.9866    1.3217 H   0  0  0  0  0  0  0  0  0  0  0  0
  1  2  1  0  0  0  0
  2  3  1  0  0  0  0
  4  9  1  0  0  0  0
  4  1  2  0  0  0  0
  5  4  1  0  0  0  0
  6 11  1  6  0  0  0
  6 18  1  0  0  0  0
  6  5  1  0  0  0  0
  6  7  1  0  0  0  0
  7  8  2  0  0  0  0
  8  1  1  0  0  0  0
  8 13  1  0  0  0  0
 10  5  1  0  0  0  0
 12  7  1  0  0  0  0
 14 15  2  0  0  0  0
 14 16  1  0  0  0  0
 16 19  1  0  0  0  0
 17 14  2  0  0  0  0
 18 14  1  0  0  0  0
M  RAD  3   2   2   3   3   5   2
M  END
