Coordinates from ORCA-job PhN2+~HSO4-_B3LYPG-6-31G_dp-NX-Scan-d89-09-n800
 OpenBabel11261920163D

 19 18  0  0  0  0  0  0  0  0999 V2000
   -2.6837    0.1884   -0.2519 C   0  0  0  0  0  0  0  0  0  0  0  0
   -3.2760   -0.0810    0.9911 N   0  0  0  0  0  0  0  0  0  0  0  0
   -3.8046    0.4541    1.8942 N   0  0  0  0  0  0  0  0  0  0  0  0
   -2.1430   -0.9374   -0.8941 C   0  0  0  0  0  0  0  0  0  0  0  0
   -1.5469   -0.7921   -2.1409 C   0  0  0  0  0  0  0  0  0  0  0  0
   -1.5009    0.4691   -2.7423 C   0  0  0  0  0  0  0  0  0  0  0  0
   -2.0473    1.5835   -2.0979 C   0  0  0  0  0  0  0  0  0  0  0  0
   -2.6425    1.4626   -0.8460 C   0  0  0  0  0  0  0  0  0  0  0  0
   -2.1991   -1.9010   -0.3998 H   0  0  0  0  0  0  0  0  0  0  0  0
   -1.1225   -1.6554   -2.6423 H   0  0  0  0  0  0  0  0  0  0  0  0
   -1.0365    0.5851   -3.7166 H   0  0  0  0  0  0  0  0  0  0  0  0
   -2.0030    2.5607   -2.5676 H   0  0  0  0  0  0  0  0  0  0  0  0
   -3.0536    2.3283   -0.3481 H   0  0  0  0  0  0  0  0  0  0  0  0
   -2.2417    3.2360    2.2463 S   0  0  0  0  0  0  0  0  0  0  0  0
   -1.2778    2.1417    2.2186 O   0  0  0  0  0  0  0  0  0  0  0  0
   -3.9101    2.1436    1.7271 O   0  0  0  0  0  0  0  0  0  0  0  0
   -2.7589    3.6925    3.5331 O   0  0  0  0  0  0  0  0  0  0  0  0
   -2.2788    4.1542    1.1120 O   0  0  0  0  0  0  0  0  0  0  0  0
   -4.4943    2.3295    2.4823 H   0  0  0  0  0  0  0  0  0  0  0  0
  1  2  1  0  0  0  0
  2  3  1  0  0  0  0
  4  9  1  0  0  0  0
  4  1  2  0  0  0  0
  5  4  1  0  0  0  0
  6  5  2  0  0  0  0
  6  7  1  0  0  0  0
  7  8  2  0  0  0  0
  8 13  1  0  0  0  0
  8  1  1  0  0  0  0
 10  5  1  0  0  0  0
 11  6  1  0  0  0  0
 12  7  1  0  0  0  0
 14 17  1  0  0  0  0
 15 14  2  0  0  0  0
 16  3  1  0  0  0  0
 16 19  1  0  0  0  0
 18 14  1  0  0  0  0
M  RAD  4   2   2   3   2  17   2  18   2
M  END
