Coordinates from ORCA-job PhN2+~HSO4-_B3LYPG-6-31G_dp-NX-Scan-d89-09-n800
 OpenBabel11261920153D

 19 19  0  0  1  0  0  0  0  0999 V2000
   -1.6255   -0.2696    0.2709 C   0  0  1  0  0  0  0  0  0  0  0  0
   -1.7878   -0.4391    1.5659 N   0  0  0  0  0  0  0  0  0  0  0  0
   -2.0374   -0.4250    2.6738 N   0  0  0  0  0  0  0  0  0  0  0  0
   -2.7068   -0.6943   -0.6003 C   0  0  0  0  0  0  0  0  0  0  0  0
   -3.0565    0.1154   -1.6199 C   0  0  0  0  0  0  0  0  0  0  0  0
   -2.4860    1.4847   -1.6932 C   0  0  2  0  0  0  0  0  0  0  0  0
   -1.1064    1.5879   -1.1658 C   0  0  0  0  0  0  0  0  0  0  0  0
   -0.7253    0.7886   -0.1491 C   0  0  0  0  0  0  0  0  0  0  0  0
   -3.2070   -1.6387   -0.4093 H   0  0  0  0  0  0  0  0  0  0  0  0
   -3.8294   -0.1685   -2.3260 H   0  0  0  0  0  0  0  0  0  0  0  0
   -2.6147    1.9611   -2.6629 H   0  0  0  0  0  0  0  0  0  0  0  0
   -0.4634    2.3838   -1.5228 H   0  0  0  0  0  0  0  0  0  0  0  0
    0.2118    0.9328    0.3787 H   0  0  0  0  0  0  0  0  0  0  0  0
   -3.2984    3.0538    0.5559 S   0  0  0  0  0  0  0  0  0  0  0  0
   -2.0294    3.7531    0.6263 O   0  0  0  0  0  0  0  0  0  0  0  0
   -3.1539    1.7607    1.5918 O   0  0  0  0  0  0  0  0  0  0  0  0
   -4.5559    3.6996    0.8988 O   0  0  0  0  0  0  0  0  0  0  0  0
   -3.5270    2.3936   -0.8761 O   0  0  0  0  0  0  0  0  0  0  0  0
   -4.0221    1.6822    2.0207 H   0  0  0  0  0  0  0  0  0  0  0  0
  1  2  1  1  0  0  0
  2  3  1  0  0  0  0
  4  9  1  0  0  0  0
  4  1  1  0  0  0  0
  5  4  2  0  0  0  0
  6 11  1  6  0  0  0
  6  5  1  0  0  0  0
  6  7  1  0  0  0  0
  6 18  1  0  0  0  0
  7  8  2  0  0  0  0
  8  1  1  0  0  0  0
  8 13  1  0  0  0  0
 10  5  1  0  0  0  0
 12  7  1  0  0  0  0
 14 15  2  0  0  0  0
 14 17  2  0  0  0  0
 14 16  1  0  0  0  0
 16 19  1  0  0  0  0
 18 14  1  0  0  0  0
M  RAD  3   1   2   2   2   3   3
M  END
