Coordinates from ORCA-job PhN2+~HSO4-_B3LYPG-6-31G_dp-NX-Scan-d89-09-n800
 OpenBabel11261920153D

 19 19  0  0  1  0  0  0  0  0999 V2000
   -1.6109   -0.2746    0.3488 C   0  0  1  0  0  0  0  0  0  0  0  0
   -1.4936   -0.7634    1.5625 N   0  0  0  0  0  0  0  0  0  0  0  0
   -1.4287   -1.1456    2.6335 N   0  0  0  0  0  0  0  0  0  0  0  0
   -2.7720   -0.6213   -0.4407 C   0  0  0  0  0  0  0  0  0  0  0  0
   -3.1457    0.1954   -1.4459 C   0  0  0  0  0  0  0  0  0  0  0  0
   -2.4906    1.5155   -1.6465 C   0  0  2  0  0  0  0  0  0  0  0  0
   -1.1266    1.6133   -1.0700 C   0  0  0  0  0  0  0  0  0  0  0  0
   -0.7385    0.8005   -0.0671 C   0  0  0  0  0  0  0  0  0  0  0  0
   -3.3075   -1.5392   -0.2176 H   0  0  0  0  0  0  0  0  0  0  0  0
   -3.9888   -0.0564   -2.0807 H   0  0  0  0  0  0  0  0  0  0  0  0
   -2.5333    1.8550   -2.6815 H   0  0  0  0  0  0  0  0  0  0  0  0
   -0.4819    2.4166   -1.4076 H   0  0  0  0  0  0  0  0  0  0  0  0
    0.2124    0.9334    0.4382 H   0  0  0  0  0  0  0  0  0  0  0  0
   -3.3641    3.2017    0.4214 S   0  0  0  0  0  0  0  0  0  0  0  0
   -2.0967    3.8742    0.6256 O   0  0  0  0  0  0  0  0  0  0  0  0
   -3.3078    1.8702    1.3931 O   0  0  0  0  0  0  0  0  0  0  0  0
   -4.6383    3.8552    0.6687 O   0  0  0  0  0  0  0  0  0  0  0  0
   -3.4762    2.5963   -1.0555 O   0  0  0  0  0  0  0  0  0  0  0  0
   -4.2323    1.6355    1.5788 H   0  0  0  0  0  0  0  0  0  0  0  0
  1  2  1  1  0  0  0
  2  3  1  0  0  0  0
  4  9  1  0  0  0  0
  4  1  1  0  0  0  0
  5  4  2  0  0  0  0
  6 11  1  6  0  0  0
  6  5  1  0  0  0  0
  6  7  1  0  0  0  0
  6 18  1  0  0  0  0
  7  8  2  0  0  0  0
  8  1  1  0  0  0  0
  8 13  1  0  0  0  0
 10  5  1  0  0  0  0
 12  7  1  0  0  0  0
 14 15  2  0  0  0  0
 14 17  2  0  0  0  0
 14 16  1  0  0  0  0
 16 19  1  0  0  0  0
 18 14  1  0  0  0  0
M  RAD  3   1   2   2   2   3   3
M  END
