Coordinates from ORCA-job PhN2+~HSO4-_B3LYPG-6-31G_dp-NX-Scan-d89-09-n800
 OpenBabel11261920153D

 19 19  0  0  1  0  0  0  0  0999 V2000
   -1.6028   -0.2912    0.3767 C   0  0  1  0  0  0  0  0  0  0  0  0
   -1.3921   -0.8941    1.5248 N   0  0  0  0  0  0  0  0  0  0  0  0
   -1.2332   -1.3910    2.5383 N   0  0  0  0  0  0  0  0  0  0  0  0
   -2.7841   -0.6133   -0.3911 C   0  0  0  0  0  0  0  0  0  0  0  0
   -3.1680    0.2130   -1.3846 C   0  0  0  0  0  0  0  0  0  0  0  0
   -2.4921    1.5185   -1.6178 C   0  0  2  0  0  0  0  0  0  0  0  0
   -1.1365    1.6212   -1.0191 C   0  0  0  0  0  0  0  0  0  0  0  0
   -0.7424    0.7968   -0.0283 C   0  0  0  0  0  0  0  0  0  0  0  0
   -3.3260   -1.5269   -0.1661 H   0  0  0  0  0  0  0  0  0  0  0  0
   -4.0300   -0.0258   -1.9988 H   0  0  0  0  0  0  0  0  0  0  0  0
   -2.5044    1.8127   -2.6683 H   0  0  0  0  0  0  0  0  0  0  0  0
   -0.4957    2.4330   -1.3433 H   0  0  0  0  0  0  0  0  0  0  0  0
    0.2121    0.9261    0.4709 H   0  0  0  0  0  0  0  0  0  0  0  0
   -3.3953    3.2639    0.3689 S   0  0  0  0  0  0  0  0  0  0  0  0
   -2.1310    3.9337    0.5970 O   0  0  0  0  0  0  0  0  0  0  0  0
   -3.3668    1.9458    1.3534 O   0  0  0  0  0  0  0  0  0  0  0  0
   -4.6724    3.9276    0.5670 O   0  0  0  0  0  0  0  0  0  0  0  0
   -3.4679    2.6335   -1.1023 O   0  0  0  0  0  0  0  0  0  0  0  0
   -4.2924    1.6787    1.4802 H   0  0  0  0  0  0  0  0  0  0  0  0
  1  2  1  1  0  0  0
  2  3  1  0  0  0  0
  4  9  1  0  0  0  0
  4  1  1  0  0  0  0
  5  4  2  0  0  0  0
  6 11  1  6  0  0  0
  6  5  1  0  0  0  0
  6 18  1  0  0  0  0
  6  7  1  0  0  0  0
  7  8  2  0  0  0  0
  8  1  1  0  0  0  0
  8 13  1  0  0  0  0
 10  5  1  0  0  0  0
 12  7  1  0  0  0  0
 14 17  2  0  0  0  0
 14 15  2  0  0  0  0
 14 16  1  0  0  0  0
 16 19  1  0  0  0  0
 18 14  1  0  0  0  0
M  RAD  3   1   2   2   2   3   3
M  END
