Coordinates from ORCA-job PhN2+~HSO4-_B3LYPG-6-31G_dp-NX-Scan-d89-09-n800
 OpenBabel11261920153D

 19 19  0  0  1  0  0  0  0  0999 V2000
   -1.4603   -1.0422    0.1751 C   0  0  0  0  0  0  0  0  0  0  0  0
   -1.1077   -2.2694    0.4907 N   0  0  0  0  0  0  0  0  0  0  0  0
   -0.8050   -3.3368    0.7651 N   0  0  0  0  0  0  0  0  0  0  0  0
   -2.4877   -0.8143   -0.8198 C   0  0  0  0  0  0  0  0  0  0  0  0
   -2.8389    0.4425   -1.1529 C   0  0  0  0  0  0  0  0  0  0  0  0
   -2.2542    1.6429   -0.4884 C   0  0  2  0  0  0  0  0  0  0  0  0
   -1.1439    1.3416    0.4588 C   0  0  0  0  0  0  0  0  0  0  0  0
   -0.7919    0.0837    0.7902 C   0  0  0  0  0  0  0  0  0  0  0  0
   -2.9465   -1.6719   -1.3011 H   0  0  0  0  0  0  0  0  0  0  0  0
   -3.5934    0.6236   -1.9106 H   0  0  0  0  0  0  0  0  0  0  0  0
   -1.9805    2.4184   -1.2096 H   0  0  0  0  0  0  0  0  0  0  0  0
   -0.6291    2.1863    0.9037 H   0  0  0  0  0  0  0  0  0  0  0  0
    0.0097   -0.1076    1.4970 H   0  0  0  0  0  0  0  0  0  0  0  0
   -4.2509    3.4399   -0.2997 S   0  0  0  0  0  0  0  0  0  0  0  0
   -4.4392    3.1713   -1.7130 O   0  0  0  0  0  0  0  0  0  0  0  0
   -3.2538    4.7387   -0.2502 O   0  0  0  0  0  0  0  0  0  0  0  0
   -5.3491    3.6820    0.6169 O   0  0  0  0  0  0  0  0  0  0  0  0
   -3.3505    2.2942    0.3750 O   0  0  0  0  0  0  0  0  0  0  0  0
   -3.3481    5.1397    0.6303 H   0  0  0  0  0  0  0  0  0  0  0  0
  1  2  1  0  0  0  0
  1  8  2  0  0  0  0
  2  3  1  0  0  0  0
  4  1  1  0  0  0  0
  5  4  2  0  0  0  0
  5  6  1  0  0  0  0
  6 11  1  6  0  0  0
  6 18  1  0  0  0  0
  6  7  1  0  0  0  0
  7  8  1  0  0  0  0
  7 12  1  0  0  0  0
  8 13  1  0  0  0  0
  9  4  1  0  0  0  0
 10  5  1  0  0  0  0
 14 16  1  0  0  0  0
 14 18  1  0  0  0  0
 14 17  2  0  0  0  0
 15 14  2  0  0  0  0
 16 19  1  0  0  0  0
M  RAD  3   2   2   3   3   7   2
M  END
