Coordinates from ORCA-job PhN2+~HSO4-_B3LYPG-6-31G_dp-NX-Scan-d89-09-n800
 OpenBabel11261920153D

 19 19  0  0  1  0  0  0  0  0999 V2000
   -1.4861   -0.8426    0.2758 C   0  0  0  0  0  0  0  0  0  0  0  0
   -1.0367   -1.8845    0.9398 N   0  0  0  0  0  0  0  0  0  0  0  0
   -0.6476   -2.7815    1.5300 N   0  0  0  0  0  0  0  0  0  0  0  0
   -2.5512   -1.0002   -0.6907 C   0  0  0  0  0  0  0  0  0  0  0  0
   -3.0282    0.0756   -1.3461 C   0  0  0  0  0  0  0  0  0  0  0  0
   -2.5656    1.4606   -1.0493 C   0  0  2  0  0  0  0  0  0  0  0  0
   -1.3548    1.5294   -0.1803 C   0  0  0  0  0  0  0  0  0  0  0  0
   -0.8773    0.4550    0.4764 C   0  0  0  0  0  0  0  0  0  0  0  0
   -2.9287   -1.9972   -0.8942 H   0  0  0  0  0  0  0  0  0  0  0  0
   -3.8110   -0.0395   -2.0883 H   0  0  0  0  0  0  0  0  0  0  0  0
   -2.4619    2.0725   -1.9479 H   0  0  0  0  0  0  0  0  0  0  0  0
   -0.8786    2.4963   -0.0622 H   0  0  0  0  0  0  0  0  0  0  0  0
   -0.0153    0.5312    1.1319 H   0  0  0  0  0  0  0  0  0  0  0  0
   -3.8222    3.6947   -0.1854 S   0  0  0  0  0  0  0  0  0  0  0  0
   -3.0373    4.3227   -1.2318 O   0  0  0  0  0  0  0  0  0  0  0  0
   -2.9702    3.9486    1.1889 O   0  0  0  0  0  0  0  0  0  0  0  0
   -5.2074    4.0357    0.0816 O   0  0  0  0  0  0  0  0  0  0  0  0
   -3.7708    2.0969   -0.3271 O   0  0  0  0  0  0  0  0  0  0  0  0
   -3.5705    3.7884    1.9363 H   0  0  0  0  0  0  0  0  0  0  0  0
  1  8  1  0  0  0  0
  1  2  1  0  0  0  0
  2  3  1  0  0  0  0
  4  1  2  0  0  0  0
  5  6  1  0  0  0  0
  5  4  1  0  0  0  0
  6 11  1  6  0  0  0
  6 18  1  0  0  0  0
  6  7  1  0  0  0  0
  7 12  1  0  0  0  0
  7  8  2  0  0  0  0
  8 13  1  0  0  0  0
  9  4  1  0  0  0  0
 10  5  1  0  0  0  0
 14 17  2  0  0  0  0
 14 16  1  0  0  0  0
 15 14  2  0  0  0  0
 16 19  1  0  0  0  0
 18 14  1  0  0  0  0
M  RAD  3   2   2   3   3   5   2
M  END
