Coordinates from ORCA-job PhN2+~HSO4-_B3LYPG-6-31G_dp-NX-Scan-d89-09-n800
 OpenBabel11261920153D

 19 19  0  0  1  0  0  0  0  0999 V2000
   -1.4411   -0.9863    0.2269 C   0  0  0  0  0  0  0  0  0  0  0  0
   -0.9760   -2.1279    0.6848 N   0  0  0  0  0  0  0  0  0  0  0  0
   -0.5767   -3.1210    1.0855 N   0  0  0  0  0  0  0  0  0  0  0  0
   -2.4948   -0.9803   -0.7654 C   0  0  0  0  0  0  0  0  0  0  0  0
   -2.9598    0.1880   -1.2476 C   0  0  0  0  0  0  0  0  0  0  0  0
   -2.4767    1.5107   -0.7595 C   0  0  2  0  0  0  0  0  0  0  0  0
   -1.3340    1.4328    0.1954 C   0  0  0  0  0  0  0  0  0  0  0  0
   -0.8690    0.2643    0.6785 C   0  0  0  0  0  0  0  0  0  0  0  0
   -2.8782   -1.9294   -1.1257 H   0  0  0  0  0  0  0  0  0  0  0  0
   -3.7362    0.1972   -2.0056 H   0  0  0  0  0  0  0  0  0  0  0  0
   -2.2919    2.2048   -1.5837 H   0  0  0  0  0  0  0  0  0  0  0  0
   -0.8919    2.3704    0.5150 H   0  0  0  0  0  0  0  0  0  0  0  0
   -0.0475    0.2354    1.3878 H   0  0  0  0  0  0  0  0  0  0  0  0
   -4.0612    3.6591   -0.3142 S   0  0  0  0  0  0  0  0  0  0  0  0
   -3.8079    3.9868   -1.7044 O   0  0  0  0  0  0  0  0  0  0  0  0
   -2.9224    4.4849    0.5279 O   0  0  0  0  0  0  0  0  0  0  0  0
   -5.3411    3.8802    0.3324 O   0  0  0  0  0  0  0  0  0  0  0  0
   -3.6712    2.1310   -0.0125 O   0  0  0  0  0  0  0  0  0  0  0  0
   -3.2436    4.5617    1.4420 H   0  0  0  0  0  0  0  0  0  0  0  0
  1  8  1  0  0  0  0
  1  2  1  0  0  0  0
  2  3  1  0  0  0  0
  4  1  2  0  0  0  0
  5  4  1  0  0  0  0
  5  6  1  0  0  0  0
  6 11  1  6  0  0  0
  6 18  1  0  0  0  0
  6  7  1  0  0  0  0
  7 12  1  0  0  0  0
  7  8  2  0  0  0  0
  8 13  1  0  0  0  0
  9  4  1  0  0  0  0
 10  5  1  0  0  0  0
 14 18  1  0  0  0  0
 14 17  2  0  0  0  0
 14 16  1  0  0  0  0
 15 14  2  0  0  0  0
 16 19  1  0  0  0  0
M  RAD  3   2   2   3   3   5   2
M  END
