Coordinates from ORCA-job PhN2+~HSO4-_B3LYPG-6-31G_dp-NX-Scan-d89-09-n800
 OpenBabel11261920153D

 19 19  0  0  1  0  0  0  0  0999 V2000
   -1.4778   -0.8722    0.2685 C   0  0  0  0  0  0  0  0  0  0  0  0
   -1.0235   -1.9338    0.8968 N   0  0  0  0  0  0  0  0  0  0  0  0
   -0.6299   -2.8495    1.4547 N   0  0  0  0  0  0  0  0  0  0  0  0
   -2.5401   -1.0026   -0.7051 C   0  0  0  0  0  0  0  0  0  0  0  0
   -3.0165    0.0909   -1.3307 C   0  0  0  0  0  0  0  0  0  0  0  0
   -2.5523    1.4677   -1.0000 C   0  0  2  0  0  0  0  0  0  0  0  0
   -1.3548    1.5142   -0.1112 C   0  0  0  0  0  0  0  0  0  0  0  0
   -0.8784    0.4217    0.5158 C   0  0  0  0  0  0  0  0  0  0  0  0
   -2.9172   -1.9934   -0.9373 H   0  0  0  0  0  0  0  0  0  0  0  0
   -3.7983   -0.0036   -2.0769 H   0  0  0  0  0  0  0  0  0  0  0  0
   -2.4338    2.0953   -1.8862 H   0  0  0  0  0  0  0  0  0  0  0  0
   -0.8867    2.4794    0.0469 H   0  0  0  0  0  0  0  0  0  0  0  0
   -0.0245    0.4819    1.1835 H   0  0  0  0  0  0  0  0  0  0  0  0
   -3.8697    3.6980   -0.2177 S   0  0  0  0  0  0  0  0  0  0  0  0
   -3.1820    4.2990   -1.3450 O   0  0  0  0  0  0  0  0  0  0  0  0
   -2.9429    4.0622    1.0821 O   0  0  0  0  0  0  0  0  0  0  0  0
   -5.2487    3.9958    0.1218 O   0  0  0  0  0  0  0  0  0  0  0  0
   -3.7593    2.0978   -0.2779 O   0  0  0  0  0  0  0  0  0  0  0  0
   -3.4846    3.9136    1.8752 H   0  0  0  0  0  0  0  0  0  0  0  0
  1  8  1  0  0  0  0
  1  2  1  0  0  0  0
  2  3  1  0  0  0  0
  4  1  2  0  0  0  0
  5  6  1  0  0  0  0
  5  4  1  0  0  0  0
  6 11  1  6  0  0  0
  6 18  1  0  0  0  0
  6  7  1  0  0  0  0
  7 12  1  0  0  0  0
  7  8  2  0  0  0  0
  8 13  1  0  0  0  0
  9  4  1  0  0  0  0
 10  5  1  0  0  0  0
 14 17  2  0  0  0  0
 14 16  1  0  0  0  0
 15 14  2  0  0  0  0
 16 19  1  0  0  0  0
 18 14  1  0  0  0  0
M  RAD  3   2   2   3   3   5   2
M  END
