Coordinates from ORCA-job PhN2+~HSO4-_B3LYPG-6-31G_dp-NX-Scan-d89-09-n800
 OpenBabel11261920153D

 19 18  0  0  0  0  0  0  0  0999 V2000
   -2.4188    0.3295   -0.3105 C   0  0  0  0  0  0  0  0  0  0  0  0
   -2.9402    0.2361    0.9723 N   0  0  0  0  0  0  0  0  0  0  0  0
   -3.3502    0.0783    2.0048 N   0  0  0  0  0  0  0  0  0  0  0  0
   -2.6625   -0.7574   -1.1694 C   0  0  0  0  0  0  0  0  0  0  0  0
   -2.1395   -0.6949   -2.4532 C   0  0  0  0  0  0  0  0  0  0  0  0
   -1.3829    0.4173   -2.8457 C   0  0  0  0  0  0  0  0  0  0  0  0
   -1.1453    1.4752   -1.9630 C   0  0  0  0  0  0  0  0  0  0  0  0
   -1.6684    1.4578   -0.6734 C   0  0  0  0  0  0  0  0  0  0  0  0
   -3.2501   -1.6037   -0.8319 H   0  0  0  0  0  0  0  0  0  0  0  0
   -2.3188   -1.5099   -3.1462 H   0  0  0  0  0  0  0  0  0  0  0  0
   -0.9756    0.4563   -3.8512 H   0  0  0  0  0  0  0  0  0  0  0  0
   -0.5576    2.3294   -2.2817 H   0  0  0  0  0  0  0  0  0  0  0  0
   -1.5188    2.2555    0.0517 H   0  0  0  0  0  0  0  0  0  0  0  0
   -3.2499    3.2359    1.9625 S   0  0  0  0  0  0  0  0  0  0  0  0
   -1.7761    3.0488    1.9232 O   0  0  0  0  0  0  0  0  0  0  0  0
   -3.7454    1.9279    2.9879 O   0  0  0  0  0  0  0  0  0  0  0  0
   -3.7308    4.4393    2.6352 O   0  0  0  0  0  0  0  0  0  0  0  0
   -3.9306    2.8134    0.7226 O   0  0  0  0  0  0  0  0  0  0  0  0
   -3.2595    2.0273    3.8236 H   0  0  0  0  0  0  0  0  0  0  0  0
  1  2  1  0  0  0  0
  2  3  1  0  0  0  0
  4  9  1  0  0  0  0
  4  1  2  0  0  0  0
  5  4  1  0  0  0  0
  6  5  2  0  0  0  0
  6  7  1  0  0  0  0
  7  8  2  0  0  0  0
  8  1  1  0  0  0  0
  8 13  1  0  0  0  0
 10  5  1  0  0  0  0
 11  6  1  0  0  0  0
 12  7  1  0  0  0  0
 14 17  1  0  0  0  0
 14 16  1  0  0  0  0
 15 14  2  0  0  0  0
 16 19  1  0  0  0  0
 18 14  2  0  0  0  0
M  RAD  3   2   2   3   3  17   2
M  END
