Coordinates from ORCA-job PhN2+~HSO4-_B3LYPG-6-31G_dp-NX-Scan-d89-09-n800
 OpenBabel11261920153D

 19 19  0  0  1  0  0  0  0  0999 V2000
   -1.6087   -0.5346    0.3446 C   0  0  0  0  0  0  0  0  0  0  0  0
   -1.3333   -1.3502    1.3390 N   0  0  0  0  0  0  0  0  0  0  0  0
   -1.0987   -2.0266    2.2270 N   0  0  0  0  0  0  0  0  0  0  0  0
   -2.6260   -0.8760   -0.6259 C   0  0  0  0  0  0  0  0  0  0  0  0
   -3.0118    0.0474   -1.5294 C   0  0  0  0  0  0  0  0  0  0  0  0
   -2.5476    1.4602   -1.4334 C   0  0  2  0  0  0  0  0  0  0  0  0
   -1.2718    1.6217   -0.6821 C   0  0  0  0  0  0  0  0  0  0  0  0
   -0.8705    0.7019    0.2164 C   0  0  0  0  0  0  0  0  0  0  0  0
   -3.0341   -1.8816   -0.6285 H   0  0  0  0  0  0  0  0  0  0  0  0
   -3.7467   -0.1987   -2.2881 H   0  0  0  0  0  0  0  0  0  0  0  0
   -2.5300    1.9759   -2.3937 H   0  0  0  0  0  0  0  0  0  0  0  0
   -0.7129    2.5387   -0.8181 H   0  0  0  0  0  0  0  0  0  0  0  0
    0.0141    0.8506    0.8271 H   0  0  0  0  0  0  0  0  0  0  0  0
   -3.5894    3.4924    0.1232 S   0  0  0  0  0  0  0  0  0  0  0  0
   -2.5284    4.3190   -0.4218 O   0  0  0  0  0  0  0  0  0  0  0  0
   -3.0252    2.9253    1.5567 O   0  0  0  0  0  0  0  0  0  0  0  0
   -4.9311    3.9960    0.3623 O   0  0  0  0  0  0  0  0  0  0  0  0
   -3.7614    2.1499   -0.7242 O   0  0  0  0  0  0  0  0  0  0  0  0
   -3.8075    2.7510    2.1063 H   0  0  0  0  0  0  0  0  0  0  0  0
  1  2  1  0  0  0  0
  2  3  1  0  0  0  0
  4  1  1  0  0  0  0
  5  6  1  0  0  0  0
  5  4  2  0  0  0  0
  6 11  1  6  0  0  0
  6 18  1  0  0  0  0
  6  7  1  0  0  0  0
  7  8  1  0  0  0  0
  8  1  2  0  0  0  0
  8 13  1  0  0  0  0
  9  4  1  0  0  0  0
 10  5  1  0  0  0  0
 12  7  1  0  0  0  0
 14 17  2  0  0  0  0
 14 16  1  0  0  0  0
 15 14  2  0  0  0  0
 16 19  1  0  0  0  0
 18 14  1  0  0  0  0
M  RAD  3   2   2   3   3   7   2
M  END
