Coordinates from ORCA-job PhN2+~HSO4-_B3LYPG-6-31G_dp-NX-Scan-d89-09-n800
 OpenBabel11261920153D

 19 18  0  0  0  0  0  0  0  0999 V2000
   -2.4254    0.3210   -0.3054 C   0  0  0  0  0  0  0  0  0  0  0  0
   -2.9512    0.2249    0.9745 N   0  0  0  0  0  0  0  0  0  0  0  0
   -3.3680    0.1147    2.0144 N   0  0  0  0  0  0  0  0  0  0  0  0
   -2.6562   -0.7691   -1.1642 C   0  0  0  0  0  0  0  0  0  0  0  0
   -2.1326   -0.7056   -2.4476 C   0  0  0  0  0  0  0  0  0  0  0  0
   -1.3840    0.4115   -2.8414 C   0  0  0  0  0  0  0  0  0  0  0  0
   -1.1558    1.4723   -1.9600 C   0  0  0  0  0  0  0  0  0  0  0  0
   -1.6815    1.4535   -0.6713 C   0  0  0  0  0  0  0  0  0  0  0  0
   -3.2365   -1.6199   -0.8253 H   0  0  0  0  0  0  0  0  0  0  0  0
   -2.3040   -1.5236   -3.1391 H   0  0  0  0  0  0  0  0  0  0  0  0
   -0.9750    0.4517   -3.8462 H   0  0  0  0  0  0  0  0  0  0  0  0
   -0.5731    2.3300   -2.2787 H   0  0  0  0  0  0  0  0  0  0  0  0
   -1.5344    2.2547    0.0497 H   0  0  0  0  0  0  0  0  0  0  0  0
   -3.2386    3.2706    1.9600 S   0  0  0  0  0  0  0  0  0  0  0  0
   -1.7656    3.0960    1.9163 O   0  0  0  0  0  0  0  0  0  0  0  0
   -3.7243    1.8939    2.9276 O   0  0  0  0  0  0  0  0  0  0  0  0
   -3.7339    4.4225    2.7076 O   0  0  0  0  0  0  0  0  0  0  0  0
   -3.9224    2.9015    0.7081 O   0  0  0  0  0  0  0  0  0  0  0  0
   -3.2586    1.9619    3.7785 H   0  0  0  0  0  0  0  0  0  0  0  0
  1  2  1  0  0  0  0
  2  3  1  0  0  0  0
  4  9  1  0  0  0  0
  4  1  2  0  0  0  0
  5  4  1  0  0  0  0
  6  5  2  0  0  0  0
  6  7  1  0  0  0  0
  7  8  2  0  0  0  0
  8  1  1  0  0  0  0
  8 13  1  0  0  0  0
 10  5  1  0  0  0  0
 11  6  1  0  0  0  0
 12  7  1  0  0  0  0
 14 17  1  0  0  0  0
 14 16  1  0  0  0  0
 15 14  2  0  0  0  0
 16 19  1  0  0  0  0
 18 14  2  0  0  0  0
M  RAD  3   2   2   3   3  17   2
M  END
