Coordinates from ORCA-job PhN2+~HSO4-_B3LYPG-6-31G_dp-NX-Scan-d89-09-n800
 OpenBabel11261920153D

 19 19  0  0  1  0  0  0  0  0999 V2000
   -1.5002   -0.8072    0.2851 C   0  0  0  0  0  0  0  0  0  0  0  0
   -1.0667   -1.8255    0.9948 N   0  0  0  0  0  0  0  0  0  0  0  0
   -0.6909   -2.6991    1.6269 N   0  0  0  0  0  0  0  0  0  0  0  0
   -2.5596   -0.9922   -0.6827 C   0  0  0  0  0  0  0  0  0  0  0  0
   -3.0304    0.0649   -1.3724 C   0  0  0  0  0  0  0  0  0  0  0  0
   -2.5733    1.4574   -1.1031 C   0  0  2  0  0  0  0  0  0  0  0  0
   -1.3527    1.5463   -0.2499 C   0  0  0  0  0  0  0  0  0  0  0  0
   -0.8799    0.4910    0.4401 C   0  0  0  0  0  0  0  0  0  0  0  0
   -2.9367   -1.9944   -0.8595 H   0  0  0  0  0  0  0  0  0  0  0  0
   -3.8077   -0.0706   -2.1170 H   0  0  0  0  0  0  0  0  0  0  0  0
   -2.4832    2.0574   -2.0108 H   0  0  0  0  0  0  0  0  0  0  0  0
   -0.8683    2.5129   -0.1696 H   0  0  0  0  0  0  0  0  0  0  0  0
   -0.0137    0.5818    1.0881 H   0  0  0  0  0  0  0  0  0  0  0  0
   -3.7831    3.6805   -0.1475 S   0  0  0  0  0  0  0  0  0  0  0  0
   -2.9374    4.3383   -1.1263 O   0  0  0  0  0  0  0  0  0  0  0  0
   -2.9771    3.8200    1.2700 O   0  0  0  0  0  0  0  0  0  0  0  0
   -5.1646    4.0577    0.0891 O   0  0  0  0  0  0  0  0  0  0  0  0
   -3.7809    2.0934   -0.3813 O   0  0  0  0  0  0  0  0  0  0  0  0
   -3.6148    3.6498    1.9833 H   0  0  0  0  0  0  0  0  0  0  0  0
  1  8  1  0  0  0  0
  1  2  1  0  0  0  0
  2  3  1  0  0  0  0
  4  1  2  0  0  0  0
  5  6  1  0  0  0  0
  5  4  1  0  0  0  0
  6 11  1  6  0  0  0
  6 18  1  0  0  0  0
  6  7  1  0  0  0  0
  7 12  1  0  0  0  0
  7  8  2  0  0  0  0
  8 13  1  0  0  0  0
  9  4  1  0  0  0  0
 10  5  1  0  0  0  0
 14 17  2  0  0  0  0
 14 16  1  0  0  0  0
 15 14  2  0  0  0  0
 16 19  1  0  0  0  0
 18 14  1  0  0  0  0
M  RAD  3   2   2   3   3   5   2
M  END
