Coordinates from ORCA-job PhN2+~HSO4-_B3LYPG-6-31G_dp-NX-Scan-d89-09-n800
 OpenBabel11261920153D

 19 19  0  0  1  0  0  0  0  0999 V2000
   -1.4525   -0.9508    0.2422 C   0  0  0  0  0  0  0  0  0  0  0  0
   -0.9855   -2.0652    0.7603 N   0  0  0  0  0  0  0  0  0  0  0  0
   -0.5822   -3.0319    1.2166 N   0  0  0  0  0  0  0  0  0  0  0  0
   -2.5077   -0.9973   -0.7469 C   0  0  0  0  0  0  0  0  0  0  0  0
   -2.9812    0.1449   -1.2805 C   0  0  0  0  0  0  0  0  0  0  0  0
   -2.5100    1.4909   -0.8481 C   0  0  2  0  0  0  0  0  0  0  0  0
   -1.3521    1.4634    0.0921 C   0  0  0  0  0  0  0  0  0  0  0  0
   -0.8790    0.3212    0.6267 C   0  0  0  0  0  0  0  0  0  0  0  0
   -2.8845   -1.9645   -1.0636 H   0  0  0  0  0  0  0  0  0  0  0  0
   -3.7591    0.1141   -2.0363 H   0  0  0  0  0  0  0  0  0  0  0  0
   -2.3479    2.1613   -1.6960 H   0  0  0  0  0  0  0  0  0  0  0  0
   -0.9079    2.4157    0.3609 H   0  0  0  0  0  0  0  0  0  0  0  0
   -0.0491    0.3284    1.3268 H   0  0  0  0  0  0  0  0  0  0  0  0
   -3.9960    3.6830   -0.2886 S   0  0  0  0  0  0  0  0  0  0  0  0
   -3.5969    4.1346   -1.6079 O   0  0  0  0  0  0  0  0  0  0  0  0
   -2.8998    4.3461    0.7340 O   0  0  0  0  0  0  0  0  0  0  0  0
   -5.3174    3.9162    0.2634 O   0  0  0  0  0  0  0  0  0  0  0  0
   -3.7161    2.1114   -0.1191 O   0  0  0  0  0  0  0  0  0  0  0  0
   -3.2962    4.3409    1.6215 H   0  0  0  0  0  0  0  0  0  0  0  0
  1  8  1  0  0  0  0
  1  2  1  0  0  0  0
  2  3  1  0  0  0  0
  4  1  2  0  0  0  0
  5  6  1  0  0  0  0
  5  4  1  0  0  0  0
  6 11  1  6  0  0  0
  6 18  1  0  0  0  0
  6  7  1  0  0  0  0
  7 12  1  0  0  0  0
  7  8  2  0  0  0  0
  8 13  1  0  0  0  0
  9  4  1  0  0  0  0
 10  5  1  0  0  0  0
 14 18  1  0  0  0  0
 14 17  2  0  0  0  0
 14 16  1  0  0  0  0
 15 14  2  0  0  0  0
 16 19  1  0  0  0  0
M  RAD  3   2   2   3   3   5   2
M  END
