Coordinates from ORCA-job PhN2+~HSO4-_B3LYPG-6-31G_dp-NX-Scan-d89-09-n800
 OpenBabel11261920153D

 19 19  0  0  1  0  0  0  0  0999 V2000
   -1.5068   -0.7938    0.2888 C   0  0  0  0  0  0  0  0  0  0  0  0
   -1.0822   -1.8028    1.0168 N   0  0  0  0  0  0  0  0  0  0  0  0
   -0.7139   -2.6671    1.6658 N   0  0  0  0  0  0  0  0  0  0  0  0
   -2.5617   -0.9883   -0.6820 C   0  0  0  0  0  0  0  0  0  0  0  0
   -3.0283    0.0623   -1.3846 C   0  0  0  0  0  0  0  0  0  0  0  0
   -2.5741    1.4571   -1.1223 C   0  0  2  0  0  0  0  0  0  0  0  0
   -1.3506    1.5522   -0.2742 C   0  0  0  0  0  0  0  0  0  0  0  0
   -0.8815    0.5037    0.4285 C   0  0  0  0  0  0  0  0  0  0  0  0
   -2.9383   -1.9921   -0.8507 H   0  0  0  0  0  0  0  0  0  0  0  0
   -3.8014   -0.0800   -2.1322 H   0  0  0  0  0  0  0  0  0  0  0  0
   -2.4894    2.0546   -2.0321 H   0  0  0  0  0  0  0  0  0  0  0  0
   -0.8627    2.5180   -0.2065 H   0  0  0  0  0  0  0  0  0  0  0  0
   -0.0148    0.5989    1.0751 H   0  0  0  0  0  0  0  0  0  0  0  0
   -3.7726    3.6725   -0.1330 S   0  0  0  0  0  0  0  0  0  0  0  0
   -2.9157    4.3425   -1.0938 O   0  0  0  0  0  0  0  0  0  0  0  0
   -2.9736    3.7753    1.2916 O   0  0  0  0  0  0  0  0  0  0  0  0
   -5.1520    4.0574    0.1037 O   0  0  0  0  0  0  0  0  0  0  0  0
   -3.7830    2.0908   -0.3989 O   0  0  0  0  0  0  0  0  0  0  0  0
   -3.6184    3.6011    1.9975 H   0  0  0  0  0  0  0  0  0  0  0  0
  1  8  1  0  0  0  0
  1  2  1  0  0  0  0
  2  3  1  0  0  0  0
  4  1  2  0  0  0  0
  5  6  1  0  0  0  0
  5  4  1  0  0  0  0
  6 11  1  6  0  0  0
  6 18  1  0  0  0  0
  6  7  1  0  0  0  0
  7 12  1  0  0  0  0
  7  8  2  0  0  0  0
  8 13  1  0  0  0  0
  9  4  1  0  0  0  0
 10  5  1  0  0  0  0
 14 17  2  0  0  0  0
 14 16  1  0  0  0  0
 15 14  2  0  0  0  0
 16 19  1  0  0  0  0
 18 14  1  0  0  0  0
M  RAD  3   2   2   3   3   5   2
M  END
