Coordinates from ORCA-job PhN2+~HSO4-_B3LYPG-6-31G_dp-NX-Scan-d89-09-n800
 OpenBabel11261920153D

 19 19  0  0  1  0  0  0  0  0999 V2000
   -1.6067   -0.5423    0.3428 C   0  0  0  0  0  0  0  0  0  0  0  0
   -1.3291   -1.3629    1.3324 N   0  0  0  0  0  0  0  0  0  0  0  0
   -1.0926   -2.0440    2.2163 N   0  0  0  0  0  0  0  0  0  0  0  0
   -2.6229   -0.8806   -0.6298 C   0  0  0  0  0  0  0  0  0  0  0  0
   -3.0106    0.0467   -1.5285 C   0  0  0  0  0  0  0  0  0  0  0  0
   -2.5491    1.4599   -1.4256 C   0  0  2  0  0  0  0  0  0  0  0  0
   -1.2744    1.6204   -0.6720 C   0  0  0  0  0  0  0  0  0  0  0  0
   -0.8715    0.6968    0.2219 C   0  0  0  0  0  0  0  0  0  0  0  0
   -3.0289   -1.8871   -0.6379 H   0  0  0  0  0  0  0  0  0  0  0  0
   -3.7450   -0.1971   -2.2885 H   0  0  0  0  0  0  0  0  0  0  0  0
   -2.5314    1.9800   -2.3835 H   0  0  0  0  0  0  0  0  0  0  0  0
   -0.7177    2.5396   -0.8026 H   0  0  0  0  0  0  0  0  0  0  0  0
    0.0121    0.8446    0.8341 H   0  0  0  0  0  0  0  0  0  0  0  0
   -3.5947    3.4978    0.1167 S   0  0  0  0  0  0  0  0  0  0  0  0
   -2.5409    4.3227   -0.4448 O   0  0  0  0  0  0  0  0  0  0  0  0
   -3.0193    2.9521    1.5537 O   0  0  0  0  0  0  0  0  0  0  0  0
   -4.9379    3.9970    0.3565 O   0  0  0  0  0  0  0  0  0  0  0  0
   -3.7632    2.1432   -0.7124 O   0  0  0  0  0  0  0  0  0  0  0  0
   -3.7973    2.7753    2.1087 H   0  0  0  0  0  0  0  0  0  0  0  0
  1  2  1  0  0  0  0
  2  3  1  0  0  0  0
  4  1  1  0  0  0  0
  5  6  1  0  0  0  0
  5  4  2  0  0  0  0
  6 11  1  6  0  0  0
  6 18  1  0  0  0  0
  6  7  1  0  0  0  0
  7  8  1  0  0  0  0
  8  1  2  0  0  0  0
  8 13  1  0  0  0  0
  9  4  1  0  0  0  0
 10  5  1  0  0  0  0
 12  7  1  0  0  0  0
 14 17  2  0  0  0  0
 14 16  1  0  0  0  0
 15 14  2  0  0  0  0
 16 19  1  0  0  0  0
 18 14  1  0  0  0  0
M  RAD  3   2   2   3   3   7   2
M  END
