Coordinates from ORCA-job PhN2+~HSO4-_B3LYPG-6-31G_dp-NX-Scan-d89-09-n800
 OpenBabel11261920153D

 19 19  0  0  1  0  0  0  0  0999 V2000
   -1.4641   -1.0871    0.1887 C   0  0  0  0  0  0  0  0  0  0  0  0
   -1.1022   -2.3271    0.4504 N   0  0  0  0  0  0  0  0  0  0  0  0
   -0.7909   -3.4066    0.6715 N   0  0  0  0  0  0  0  0  0  0  0  0
   -2.5620   -0.8214   -0.7195 C   0  0  0  0  0  0  0  0  0  0  0  0
   -2.8911    0.4455   -1.0417 C   0  0  0  0  0  0  0  0  0  0  0  0
   -2.1862    1.6380   -0.4829 C   0  0  2  0  0  0  0  0  0  0  0  0
   -1.0671    1.2957    0.4426 C   0  0  0  0  0  0  0  0  0  0  0  0
   -0.7376    0.0270    0.7617 C   0  0  0  0  0  0  0  0  0  0  0  0
   -3.0961   -1.6621   -1.1506 H   0  0  0  0  0  0  0  0  0  0  0  0
   -3.6952    0.6405   -1.7430 H   0  0  0  0  0  0  0  0  0  0  0  0
   -1.8764    2.3318   -1.2702 H   0  0  0  0  0  0  0  0  0  0  0  0
   -0.5051    2.1225    0.8636 H   0  0  0  0  0  0  0  0  0  0  0  0
    0.0912   -0.1805    1.4317 H   0  0  0  0  0  0  0  0  0  0  0  0
   -4.1755    3.4881   -0.3720 S   0  0  0  0  0  0  0  0  0  0  0  0
   -4.1402    3.2707   -1.8069 O   0  0  0  0  0  0  0  0  0  0  0  0
   -3.4645    4.9482   -0.1427 O   0  0  0  0  0  0  0  0  0  0  0  0
   -5.4068    3.4884    0.3983 O   0  0  0  0  0  0  0  0  0  0  0  0
   -3.1720    2.4653    0.3654 O   0  0  0  0  0  0  0  0  0  0  0  0
   -3.7792    5.2854    0.7129 H   0  0  0  0  0  0  0  0  0  0  0  0
  1  2  1  0  0  0  0
  1  8  2  0  0  0  0
  2  3  1  0  0  0  0
  4  1  1  0  0  0  0
  5  4  2  0  0  0  0
  5  6  1  0  0  0  0
  6 11  1  6  0  0  0
  6 18  1  0  0  0  0
  6  7  1  0  0  0  0
  7  8  1  0  0  0  0
  7 12  1  0  0  0  0
  8 13  1  0  0  0  0
  9  4  1  0  0  0  0
 10  5  1  0  0  0  0
 14 16  1  0  0  0  0
 14 18  1  0  0  0  0
 14 17  2  0  0  0  0
 15 14  2  0  0  0  0
 16 19  1  0  0  0  0
M  RAD  3   2   2   3   3   7   2
M  END
