Coordinates from ORCA-job PhN2+~HSO4-_B3LYPG-6-31G_dp-NX-Scan-d89-09-n800
 OpenBabel11261920163D

 19 18  0  0  0  0  0  0  0  0999 V2000
   -3.2989    0.1820   -0.2270 C   0  0  0  0  0  0  0  0  0  0  0  0
   -4.3689   -0.3243    0.5830 N   0  0  0  0  0  0  0  0  0  0  0  0
   -4.5895    0.2690    1.7032 N   0  0  0  0  0  0  0  0  0  0  0  0
   -2.3057   -0.7160   -0.6338 C   0  0  0  0  0  0  0  0  0  0  0  0
   -1.3014   -0.3173   -1.5189 C   0  0  0  0  0  0  0  0  0  0  0  0
   -1.2795    0.9813   -2.0274 C   0  0  0  0  0  0  0  0  0  0  0  0
   -2.2786    1.8830   -1.6465 C   0  0  0  0  0  0  0  0  0  0  0  0
   -3.2776    1.4942   -0.7448 C   0  0  0  0  0  0  0  0  0  0  0  0
   -2.3375   -1.7302   -0.2487 H   0  0  0  0  0  0  0  0  0  0  0  0
   -0.5363   -1.0292   -1.8153 H   0  0  0  0  0  0  0  0  0  0  0  0
   -0.5032    1.2885   -2.7213 H   0  0  0  0  0  0  0  0  0  0  0  0
   -2.2908    2.8872   -2.0593 H   0  0  0  0  0  0  0  0  0  0  0  0
   -4.0714    2.1888   -0.4872 H   0  0  0  0  0  0  0  0  0  0  0  0
   -1.3693    3.0726    1.0933 S   0  0  0  0  0  0  0  0  0  0  0  0
   -0.7370    1.8551    1.5715 O   0  0  0  0  0  0  0  0  0  0  0  0
   -3.9836    1.0455    2.0051 O   0  0  0  0  0  0  0  0  0  0  0  0
   -2.6015    3.5381    1.7201 O   0  0  0  0  0  0  0  0  0  0  0  0
   -0.6893    3.9322    0.1385 O   0  0  0  0  0  0  0  0  0  0  0  0
   -4.2013    1.4617    2.8729 H   0  0  0  0  0  0  0  0  0  0  0  0
  1  2  1  0  0  0  0
  2  3  2  0  0  0  0
  3 16  1  0  0  0  0
  4  9  1  0  0  0  0
  4  1  1  0  0  0  0
  5  4  2  0  0  0  0
  6  7  2  0  0  0  0
  6  5  1  0  0  0  0
  7  8  1  0  0  0  0
  8 13  1  0  0  0  0
  8  1  2  0  0  0  0
 10  5  1  0  0  0  0
 11  6  1  0  0  0  0
 12  7  1  0  0  0  0
 14 15  2  0  0  0  0
 14 17  1  0  0  0  0
 16 19  1  0  0  0  0
 18 14  1  0  0  0  0
M  RAD  2  17   2  18   2
M  END
