Coordinates from ORCA-job PhN2+~HSO4-_B3LYPG-6-31G_dp-NX-Scan-d89-09-n800
 OpenBabel11261920163D

 19 18  0  0  0  0  0  0  0  0999 V2000
   -2.7245    0.1970   -0.2480 C   0  0  0  0  0  0  0  0  0  0  0  0
   -3.3358   -0.0995    0.9836 N   0  0  0  0  0  0  0  0  0  0  0  0
   -3.8678    0.4848    1.8711 N   0  0  0  0  0  0  0  0  0  0  0  0
   -2.1329   -0.9154   -0.8695 C   0  0  0  0  0  0  0  0  0  0  0  0
   -1.5118   -0.7674   -2.1041 C   0  0  0  0  0  0  0  0  0  0  0  0
   -1.4945    0.4853   -2.7232 C   0  0  0  0  0  0  0  0  0  0  0  0
   -2.0944    1.5872   -2.1061 C   0  0  0  0  0  0  0  0  0  0  0  0
   -2.7114    1.4618   -0.8649 C   0  0  0  0  0  0  0  0  0  0  0  0
   -2.1709   -1.8746   -0.3648 H   0  0  0  0  0  0  0  0  0  0  0  0
   -1.0483   -1.6234   -2.5834 H   0  0  0  0  0  0  0  0  0  0  0  0
   -1.0134    0.6042   -3.6891 H   0  0  0  0  0  0  0  0  0  0  0  0
   -2.0761    2.5586   -2.5898 H   0  0  0  0  0  0  0  0  0  0  0  0
   -3.1660    2.3184   -0.3911 H   0  0  0  0  0  0  0  0  0  0  0  0
   -2.1497    3.2220    2.2517 S   0  0  0  0  0  0  0  0  0  0  0  0
   -1.2195    2.1020    2.2289 O   0  0  0  0  0  0  0  0  0  0  0  0
   -3.9148    2.1041    1.6828 O   0  0  0  0  0  0  0  0  0  0  0  0
   -2.7121    3.6586    3.5247 O   0  0  0  0  0  0  0  0  0  0  0  0
   -2.1828    4.1354    1.1165 O   0  0  0  0  0  0  0  0  0  0  0  0
   -4.4944    2.3232    2.4322 H   0  0  0  0  0  0  0  0  0  0  0  0
  1  2  1  0  0  0  0
  2  3  1  0  0  0  0
  4  9  1  0  0  0  0
  4  1  1  0  0  0  0
  5  4  2  0  0  0  0
  6  7  2  0  0  0  0
  6  5  1  0  0  0  0
  7  8  1  0  0  0  0
  8 13  1  0  0  0  0
  8  1  2  0  0  0  0
 10  5  1  0  0  0  0
 11  6  1  0  0  0  0
 12  7  1  0  0  0  0
 14 17  1  0  0  0  0
 15 14  2  0  0  0  0
 16  3  1  0  0  0  0
 16 19  1  0  0  0  0
 18 14  1  0  0  0  0
M  RAD  4   2   2   3   2  17   2  18   2
M  END
