Coordinates from ORCA-job PhN2+~HSO4-_B3LYPG-6-31G_dp-NX-Scan-d89-09-n800
 OpenBabel11261920153D

 19 19  0  0  1  0  0  0  0  0999 V2000
   -1.6121   -0.2629    0.2881 C   0  0  1  0  0  0  0  0  0  0  0  0
   -1.7082   -0.4942    1.5793 N   0  0  0  0  0  0  0  0  0  0  0  0
   -1.8821   -0.5790    2.6992 N   0  0  0  0  0  0  0  0  0  0  0  0
   -2.7246   -0.6650   -0.5516 C   0  0  0  0  0  0  0  0  0  0  0  0
   -3.0851    0.1427   -1.5686 C   0  0  0  0  0  0  0  0  0  0  0  0
   -2.4853    1.4966   -1.6873 C   0  0  2  0  0  0  0  0  0  0  0  0
   -1.1053    1.5935   -1.1576 C   0  0  0  0  0  0  0  0  0  0  0  0
   -0.7192    0.7951   -0.1422 C   0  0  0  0  0  0  0  0  0  0  0  0
   -3.2382   -1.5984   -0.3425 H   0  0  0  0  0  0  0  0  0  0  0  0
   -3.8841   -0.1331   -2.2485 H   0  0  0  0  0  0  0  0  0  0  0  0
   -2.5956    1.9335   -2.6782 H   0  0  0  0  0  0  0  0  0  0  0  0
   -0.4610    2.3872   -1.5174 H   0  0  0  0  0  0  0  0  0  0  0  0
    0.2247    0.9369    0.3739 H   0  0  0  0  0  0  0  0  0  0  0  0
   -3.3082    3.0774    0.5320 S   0  0  0  0  0  0  0  0  0  0  0  0
   -2.0294    3.7470    0.6701 O   0  0  0  0  0  0  0  0  0  0  0  0
   -3.2200    1.7519    1.5259 O   0  0  0  0  0  0  0  0  0  0  0  0
   -4.5652    3.7360    0.8493 O   0  0  0  0  0  0  0  0  0  0  0  0
   -3.5004    2.4712   -0.9312 O   0  0  0  0  0  0  0  0  0  0  0  0
   -4.1220    1.6260    1.8646 H   0  0  0  0  0  0  0  0  0  0  0  0
  1  2  1  1  0  0  0
  2  3  1  0  0  0  0
  4  9  1  0  0  0  0
  4  1  1  0  0  0  0
  5  4  2  0  0  0  0
  6 11  1  6  0  0  0
  6  5  1  0  0  0  0
  6  7  1  0  0  0  0
  6 18  1  0  0  0  0
  7  8  2  0  0  0  0
  8  1  1  0  0  0  0
  8 13  1  0  0  0  0
 10  5  1  0  0  0  0
 12  7  1  0  0  0  0
 14 15  2  0  0  0  0
 14 17  2  0  0  0  0
 14 16  1  0  0  0  0
 16 19  1  0  0  0  0
 18 14  1  0  0  0  0
M  RAD  3   1   2   2   2   3   3
M  END
