Coordinates from ORCA-job PhN2+~HSO4-_B3LYPG-6-31G_dp-NX-Scan-d89-09-n800
 OpenBabel11261920153D

 19 19  0  0  1  0  0  0  0  0999 V2000
   -1.5253   -0.7570    0.2982 C   0  0  0  0  0  0  0  0  0  0  0  0
   -1.1269   -1.7396    1.0756 N   0  0  0  0  0  0  0  0  0  0  0  0
   -0.7812   -2.5769    1.7702 N   0  0  0  0  0  0  0  0  0  0  0  0
   -2.5672   -0.9765   -0.6812 C   0  0  0  0  0  0  0  0  0  0  0  0
   -3.0211    0.0565   -1.4178 C   0  0  0  0  0  0  0  0  0  0  0  0
   -2.5745    1.4570   -1.1732 C   0  0  2  0  0  0  0  0  0  0  0  0
   -1.3428    1.5668   -0.3389 C   0  0  0  0  0  0  0  0  0  0  0  0
   -0.8849    0.5367    0.3974 C   0  0  0  0  0  0  0  0  0  0  0  0
   -2.9431   -1.9840   -0.8283 H   0  0  0  0  0  0  0  0  0  0  0  0
   -3.7823   -0.1034   -2.1739 H   0  0  0  0  0  0  0  0  0  0  0  0
   -2.5045    2.0485   -2.0878 H   0  0  0  0  0  0  0  0  0  0  0  0
   -0.8454    2.5293   -0.3041 H   0  0  0  0  0  0  0  0  0  0  0  0
   -0.0172    0.6424    1.0410 H   0  0  0  0  0  0  0  0  0  0  0  0
   -3.7462    3.6479   -0.0934 S   0  0  0  0  0  0  0  0  0  0  0  0
   -2.8650    4.3504   -1.0081 O   0  0  0  0  0  0  0  0  0  0  0  0
   -2.9630    3.6557    1.3438 O   0  0  0  0  0  0  0  0  0  0  0  0
   -5.1199    4.0494    0.1497 O   0  0  0  0  0  0  0  0  0  0  0  0
   -3.7862    2.0840   -0.4439 O   0  0  0  0  0  0  0  0  0  0  0  0
   -3.6246    3.4748    2.0322 H   0  0  0  0  0  0  0  0  0  0  0  0
  1  8  1  0  0  0  0
  1  2  1  0  0  0  0
  2  3  1  0  0  0  0
  4  1  2  0  0  0  0
  5  6  1  0  0  0  0
  5  4  1  0  0  0  0
  6 11  1  6  0  0  0
  6 18  1  0  0  0  0
  6  7  1  0  0  0  0
  7 12  1  0  0  0  0
  7  8  2  0  0  0  0
  8 13  1  0  0  0  0
  9  4  1  0  0  0  0
 10  5  1  0  0  0  0
 14 17  2  0  0  0  0
 14 16  1  0  0  0  0
 15 14  2  0  0  0  0
 16 19  1  0  0  0  0
 18 14  1  0  0  0  0
M  RAD  3   2   2   3   3   5   2
M  END
