Coordinates from ORCA-job PhN2+~HSO4-_B3LYPG-6-31G_dp-NX-Scan-d89-09-n800
 OpenBabel11261920153D

 19 19  0  0  1  0  0  0  0  0999 V2000
   -1.4961   -0.8156    0.2828 C   0  0  0  0  0  0  0  0  0  0  0  0
   -1.0573   -1.8395    0.9809 N   0  0  0  0  0  0  0  0  0  0  0  0
   -0.6770   -2.7189    1.6024 N   0  0  0  0  0  0  0  0  0  0  0  0
   -2.5582   -0.9946   -0.6833 C   0  0  0  0  0  0  0  0  0  0  0  0
   -3.0316    0.0667   -1.3648 C   0  0  0  0  0  0  0  0  0  0  0  0
   -2.5725    1.4576   -1.0908 C   0  0  2  0  0  0  0  0  0  0  0  0
   -1.3538    1.5425   -0.2345 C   0  0  0  0  0  0  0  0  0  0  0  0
   -0.8789    0.4829    0.4475 C   0  0  0  0  0  0  0  0  0  0  0  0
   -2.9357   -1.9957   -0.8653 H   0  0  0  0  0  0  0  0  0  0  0  0
   -3.8113   -0.0644   -2.1075 H   0  0  0  0  0  0  0  0  0  0  0  0
   -2.4791    2.0592   -1.9972 H   0  0  0  0  0  0  0  0  0  0  0  0
   -0.8715    2.5095   -0.1461 H   0  0  0  0  0  0  0  0  0  0  0  0
   -0.0130    0.5709    1.0964 H   0  0  0  0  0  0  0  0  0  0  0  0
   -3.7900    3.6852   -0.1565 S   0  0  0  0  0  0  0  0  0  0  0  0
   -2.9521    4.3354   -1.1470 O   0  0  0  0  0  0  0  0  0  0  0  0
   -2.9791    3.8483    1.2556 O   0  0  0  0  0  0  0  0  0  0  0  0
   -5.1728    4.0570    0.0807 O   0  0  0  0  0  0  0  0  0  0  0  0
   -3.7792    2.0950   -0.3698 O   0  0  0  0  0  0  0  0  0  0  0  0
   -3.6119    3.6809    1.9740 H   0  0  0  0  0  0  0  0  0  0  0  0
  1  8  1  0  0  0  0
  1  2  1  0  0  0  0
  2  3  1  0  0  0  0
  4  1  2  0  0  0  0
  5  6  1  0  0  0  0
  5  4  1  0  0  0  0
  6 11  1  6  0  0  0
  6 18  1  0  0  0  0
  6  7  1  0  0  0  0
  7 12  1  0  0  0  0
  7  8  2  0  0  0  0
  8 13  1  0  0  0  0
  9  4  1  0  0  0  0
 10  5  1  0  0  0  0
 14 17  2  0  0  0  0
 14 16  1  0  0  0  0
 15 14  2  0  0  0  0
 16 19  1  0  0  0  0
 18 14  1  0  0  0  0
M  RAD  3   2   2   3   3   5   2
M  END
