Coordinates from ORCA-job PhN2+~HSO4-_B3LYPG-6-31G_dp-NX-Scan-d89-09-n800
 OpenBabel11261920153D

 19 19  0  0  1  0  0  0  0  0999 V2000
   -1.5010   -0.8055    0.2856 C   0  0  0  0  0  0  0  0  0  0  0  0
   -1.0686   -1.8226    0.9976 N   0  0  0  0  0  0  0  0  0  0  0  0
   -0.6937   -2.6951    1.6318 N   0  0  0  0  0  0  0  0  0  0  0  0
   -2.5598   -0.9917   -0.6826 C   0  0  0  0  0  0  0  0  0  0  0  0
   -3.0302    0.0646   -1.3739 C   0  0  0  0  0  0  0  0  0  0  0  0
   -2.5734    1.4573   -1.1055 C   0  0  2  0  0  0  0  0  0  0  0  0
   -1.3525    1.5471   -0.2530 C   0  0  0  0  0  0  0  0  0  0  0  0
   -0.8801    0.4926    0.4387 C   0  0  0  0  0  0  0  0  0  0  0  0
   -2.9369   -1.9942   -0.8584 H   0  0  0  0  0  0  0  0  0  0  0  0
   -3.8069   -0.0718   -2.1189 H   0  0  0  0  0  0  0  0  0  0  0  0
   -2.4840    2.0570   -2.0135 H   0  0  0  0  0  0  0  0  0  0  0  0
   -0.8676    2.5136   -0.1742 H   0  0  0  0  0  0  0  0  0  0  0  0
   -0.0138    0.5840    1.0864 H   0  0  0  0  0  0  0  0  0  0  0  0
   -3.7818    3.6795   -0.1457 S   0  0  0  0  0  0  0  0  0  0  0  0
   -2.9346    4.3389   -1.1222 O   0  0  0  0  0  0  0  0  0  0  0  0
   -2.9767    3.8143    1.2727 O   0  0  0  0  0  0  0  0  0  0  0  0
   -5.1630    4.0577    0.0908 O   0  0  0  0  0  0  0  0  0  0  0  0
   -3.7812    2.0930   -0.3835 O   0  0  0  0  0  0  0  0  0  0  0  0
   -3.6153    3.6436    1.9852 H   0  0  0  0  0  0  0  0  0  0  0  0
  1  8  1  0  0  0  0
  1  2  1  0  0  0  0
  2  3  1  0  0  0  0
  4  1  2  0  0  0  0
  5  6  1  0  0  0  0
  5  4  1  0  0  0  0
  6 11  1  6  0  0  0
  6 18  1  0  0  0  0
  6  7  1  0  0  0  0
  7 12  1  0  0  0  0
  7  8  2  0  0  0  0
  8 13  1  0  0  0  0
  9  4  1  0  0  0  0
 10  5  1  0  0  0  0
 14 17  2  0  0  0  0
 14 16  1  0  0  0  0
 15 14  2  0  0  0  0
 16 19  1  0  0  0  0
 18 14  1  0  0  0  0
M  RAD  3   2   2   3   3   5   2
M  END
