Coordinates from ORCA-job PhN2+~HSO4-_B3LYPG-6-31G_dp-NX-Scan-d89-09-n800
 OpenBabel11261920153D

 19 19  0  0  1  0  0  0  0  0999 V2000
   -1.4419   -1.0099    0.2110 C   0  0  0  0  0  0  0  0  0  0  0  0
   -1.0062   -2.1777    0.6304 N   0  0  0  0  0  0  0  0  0  0  0  0
   -0.6326   -3.1931    0.9983 N   0  0  0  0  0  0  0  0  0  0  0  0
   -2.4831   -0.9433   -0.7925 C   0  0  0  0  0  0  0  0  0  0  0  0
   -2.9198    0.2528   -1.2309 C   0  0  0  0  0  0  0  0  0  0  0  0
   -2.4214    1.5432   -0.6767 C   0  0  2  0  0  0  0  0  0  0  0  0
   -1.2870    1.4051    0.2796 C   0  0  0  0  0  0  0  0  0  0  0  0
   -0.8488    0.2090    0.7183 C   0  0  0  0  0  0  0  0  0  0  0  0
   -2.8798   -1.8695   -1.1957 H   0  0  0  0  0  0  0  0  0  0  0  0
   -3.6852    0.3109   -1.9981 H   0  0  0  0  0  0  0  0  0  0  0  0
   -2.2203    2.2716   -1.4663 H   0  0  0  0  0  0  0  0  0  0  0  0
   -0.8301    2.3208    0.6400 H   0  0  0  0  0  0  0  0  0  0  0  0
   -0.0341    0.1344    1.4320 H   0  0  0  0  0  0  0  0  0  0  0  0
   -4.1327    3.6022   -0.3145 S   0  0  0  0  0  0  0  0  0  0  0  0
   -4.0475    3.7745   -1.7523 O   0  0  0  0  0  0  0  0  0  0  0  0
   -2.9780    4.5904    0.3006 O   0  0  0  0  0  0  0  0  0  0  0  0
   -5.3530    3.8183    0.4397 O   0  0  0  0  0  0  0  0  0  0  0  0
   -3.5977    2.1501    0.1110 O   0  0  0  0  0  0  0  0  0  0  0  0
   -3.2218    4.7726    1.2236 H   0  0  0  0  0  0  0  0  0  0  0  0
  1  2  1  0  0  0  0
  1  8  2  0  0  0  0
  2  3  1  0  0  0  0
  4  1  1  0  0  0  0
  5  4  2  0  0  0  0
  5  6  1  0  0  0  0
  6 11  1  6  0  0  0
  6 18  1  0  0  0  0
  6  7  1  0  0  0  0
  7 12  1  0  0  0  0
  7  8  1  0  0  0  0
  8 13  1  0  0  0  0
  9  4  1  0  0  0  0
 10  5  1  0  0  0  0
 14 18  1  0  0  0  0
 14 16  1  0  0  0  0
 14 17  2  0  0  0  0
 15 14  2  0  0  0  0
 16 19  1  0  0  0  0
M  RAD  3   2   2   3   3   7   2
M  END
