Coordinates from ORCA-job PhN2+~HSO4-_B3LYPG-6-31G_dp-NX-Scan-d89-09-n800
 OpenBabel11261920153D

 19 19  0  0  1  0  0  0  0  0999 V2000
   -1.5988   -0.5792    0.3335 C   0  0  0  0  0  0  0  0  0  0  0  0
   -1.3152   -1.4225    1.3019 N   0  0  0  0  0  0  0  0  0  0  0  0
   -1.0721   -2.1227    2.1691 N   0  0  0  0  0  0  0  0  0  0  0  0
   -2.6074   -0.9023   -0.6524 C   0  0  0  0  0  0  0  0  0  0  0  0
   -3.0025    0.0442   -1.5274 C   0  0  0  0  0  0  0  0  0  0  0  0
   -2.5565    1.4593   -1.3858 C   0  0  2  0  0  0  0  0  0  0  0  0
   -1.2865    1.6135   -0.6216 C   0  0  0  0  0  0  0  0  0  0  0  0
   -0.8778    0.6717    0.2501 C   0  0  0  0  0  0  0  0  0  0  0  0
   -3.0012   -1.9129   -0.6897 H   0  0  0  0  0  0  0  0  0  0  0  0
   -3.7306   -0.1878   -2.2971 H   0  0  0  0  0  0  0  0  0  0  0  0
   -2.5399    2.0047   -2.3297 H   0  0  0  0  0  0  0  0  0  0  0  0
   -0.7398    2.5423   -0.7261 H   0  0  0  0  0  0  0  0  0  0  0  0
    0.0010    0.8131    0.8709 H   0  0  0  0  0  0  0  0  0  0  0  0
   -3.6230    3.5195    0.0854 S   0  0  0  0  0  0  0  0  0  0  0  0
   -2.6145    4.3356   -0.5653 O   0  0  0  0  0  0  0  0  0  0  0  0
   -2.9811    3.0880    1.5319 O   0  0  0  0  0  0  0  0  0  0  0  0
   -4.9736    3.9908    0.3379 O   0  0  0  0  0  0  0  0  0  0  0  0
   -3.7703    2.1069   -0.6488 O   0  0  0  0  0  0  0  0  0  0  0  0
   -3.7311    2.9003    2.1207 H   0  0  0  0  0  0  0  0  0  0  0  0
  1  2  1  0  0  0  0
  2  3  1  0  0  0  0
  4  1  1  0  0  0  0
  5  6  1  0  0  0  0
  5  4  2  0  0  0  0
  6 11  1  6  0  0  0
  6 18  1  0  0  0  0
  6  7  1  0  0  0  0
  7  8  1  0  0  0  0
  8  1  2  0  0  0  0
  8 13  1  0  0  0  0
  9  4  1  0  0  0  0
 10  5  1  0  0  0  0
 12  7  1  0  0  0  0
 14 17  2  0  0  0  0
 14 16  1  0  0  0  0
 15 14  2  0  0  0  0
 16 19  1  0  0  0  0
 18 14  1  0  0  0  0
M  RAD  3   2   2   3   3   7   2
M  END
