Coordinates from ORCA-job PhN2+~HSO4-_B3LYPG-6-31G_dp-NX-Scan-d89-09-n800
 OpenBabel11261920153D

 19 19  0  0  1  0  0  0  0  0999 V2000
   -1.5657   -0.3528    0.4089 C   0  0  0  0  0  0  0  0  0  0  0  0
   -1.2162   -1.1228    1.4153 N   0  0  0  0  0  0  0  0  0  0  0  0
   -0.9204   -1.7839    2.2974 N   0  0  0  0  0  0  0  0  0  0  0  0
   -2.7854   -0.6268   -0.3160 C   0  0  0  0  0  0  0  0  0  0  0  0
   -3.1986    0.2292   -1.2715 C   0  0  0  0  0  0  0  0  0  0  0  0
   -2.4951    1.5133   -1.5515 C   0  0  2  0  0  0  0  0  0  0  0  0
   -1.1576    1.6334   -0.9101 C   0  0  0  0  0  0  0  0  0  0  0  0
   -0.7407    0.7763    0.0423 C   0  0  0  0  0  0  0  0  0  0  0  0
   -3.3340   -1.5376   -0.0956 H   0  0  0  0  0  0  0  0  0  0  0  0
   -4.0951    0.0188   -1.8458 H   0  0  0  0  0  0  0  0  0  0  0  0
   -2.4529    1.7310   -2.6217 H   0  0  0  0  0  0  0  0  0  0  0  0
   -0.5348    2.4729   -1.1968 H   0  0  0  0  0  0  0  0  0  0  0  0
    0.2186    0.9041    0.5327 H   0  0  0  0  0  0  0  0  0  0  0  0
   -3.4536    3.3803    0.2699 S   0  0  0  0  0  0  0  0  0  0  0  0
   -2.1898    4.0406    0.5252 O   0  0  0  0  0  0  0  0  0  0  0  0
   -3.4937    2.1160    1.3131 O   0  0  0  0  0  0  0  0  0  0  0  0
   -4.7255    4.0752    0.3583 O   0  0  0  0  0  0  0  0  0  0  0  0
   -3.4610    2.6678   -1.1686 O   0  0  0  0  0  0  0  0  0  0  0  0
   -4.4196    1.8272    1.3720 H   0  0  0  0  0  0  0  0  0  0  0  0
  1  2  1  0  0  0  0
  2  3  1  0  0  0  0
  4  9  1  0  0  0  0
  4  1  2  0  0  0  0
  5  4  1  0  0  0  0
  6 11  1  6  0  0  0
  6  5  1  0  0  0  0
  6 18  1  0  0  0  0
  6  7  1  0  0  0  0
  7  8  2  0  0  0  0
  8  1  1  0  0  0  0
  8 13  1  0  0  0  0
 10  5  1  0  0  0  0
 12  7  1  0  0  0  0
 14 17  2  0  0  0  0
 14 15  2  0  0  0  0
 14 16  1  0  0  0  0
 16 19  1  0  0  0  0
 18 14  1  0  0  0  0
M  RAD  3   2   2   3   3   5   2
M  END
