Coordinates from ORCA-job PhN2+~HSO4-_B3LYPG-6-31G_dp-NX-Scan-d89-09-n800
 OpenBabel11261920153D

 19 19  0  0  1  0  0  0  0  0999 V2000
   -1.4772   -0.8739    0.2681 C   0  0  0  0  0  0  0  0  0  0  0  0
   -1.0221   -1.9367    0.8939 N   0  0  0  0  0  0  0  0  0  0  0  0
   -0.6280   -2.8535    1.4496 N   0  0  0  0  0  0  0  0  0  0  0  0
   -2.5397   -1.0028   -0.7056 C   0  0  0  0  0  0  0  0  0  0  0  0
   -3.0162    0.0917   -1.3294 C   0  0  0  0  0  0  0  0  0  0  0  0
   -2.5517    1.4680   -0.9971 C   0  0  2  0  0  0  0  0  0  0  0  0
   -1.3549    1.5132   -0.1073 C   0  0  0  0  0  0  0  0  0  0  0  0
   -0.8783    0.4198    0.5179 C   0  0  0  0  0  0  0  0  0  0  0  0
   -2.9169   -1.9932   -0.9392 H   0  0  0  0  0  0  0  0  0  0  0  0
   -3.7983   -0.0017   -2.0755 H   0  0  0  0  0  0  0  0  0  0  0  0
   -2.4323    2.0961   -1.8828 H   0  0  0  0  0  0  0  0  0  0  0  0
   -0.8872    2.4784    0.0529 H   0  0  0  0  0  0  0  0  0  0  0  0
   -0.0247    0.4791    1.1861 H   0  0  0  0  0  0  0  0  0  0  0  0
   -3.8719    3.6984   -0.2196 S   0  0  0  0  0  0  0  0  0  0  0  0
   -3.1885    4.2974   -1.3504 O   0  0  0  0  0  0  0  0  0  0  0  0
   -2.9423    4.0683    1.0767 O   0  0  0  0  0  0  0  0  0  0  0  0
   -5.2506    3.9945    0.1227 O   0  0  0  0  0  0  0  0  0  0  0  0
   -3.7586    2.0982   -0.2752 O   0  0  0  0  0  0  0  0  0  0  0  0
   -3.4816    3.9210    1.8717 H   0  0  0  0  0  0  0  0  0  0  0  0
  1  8  1  0  0  0  0
  1  2  1  0  0  0  0
  2  3  1  0  0  0  0
  4  1  2  0  0  0  0
  5  6  1  0  0  0  0
  5  4  1  0  0  0  0
  6 11  1  6  0  0  0
  6 18  1  0  0  0  0
  6  7  1  0  0  0  0
  7 12  1  0  0  0  0
  7  8  2  0  0  0  0
  8 13  1  0  0  0  0
  9  4  1  0  0  0  0
 10  5  1  0  0  0  0
 14 17  2  0  0  0  0
 14 16  1  0  0  0  0
 15 14  2  0  0  0  0
 16 19  1  0  0  0  0
 18 14  1  0  0  0  0
M  RAD  3   2   2   3   3   5   2
M  END
