Coordinates from ORCA-job PhN2+~HSO4-_B3LYPG-6-31G_dp-NX-Scan-d89-09-n800
 OpenBabel11261920163D

 19 18  0  0  0  0  0  0  0  0999 V2000
   -2.6549    0.1835   -0.2592 C   0  0  0  0  0  0  0  0  0  0  0  0
   -3.2368   -0.0599    0.9905 N   0  0  0  0  0  0  0  0  0  0  0  0
   -3.7623    0.4215    1.9100 N   0  0  0  0  0  0  0  0  0  0  0  0
   -2.1484   -0.9516   -0.9119 C   0  0  0  0  0  0  0  0  0  0  0  0
   -1.5677   -0.8073   -2.1657 C   0  0  0  0  0  0  0  0  0  0  0  0
   -1.5015    0.4589   -2.7559 C   0  0  0  0  0  0  0  0  0  0  0  0
   -2.0125    1.5808   -2.0955 C   0  0  0  0  0  0  0  0  0  0  0  0
   -2.5947    1.4634   -0.8374 C   0  0  0  0  0  0  0  0  0  0  0  0
   -2.2174   -1.9178   -0.4242 H   0  0  0  0  0  0  0  0  0  0  0  0
   -1.1690   -1.6747   -2.6806 H   0  0  0  0  0  0  0  0  0  0  0  0
   -1.0471    0.5726   -3.7351 H   0  0  0  0  0  0  0  0  0  0  0  0
   -1.9500    2.5610   -2.5566 H   0  0  0  0  0  0  0  0  0  0  0  0
   -2.9759    2.3347   -0.3236 H   0  0  0  0  0  0  0  0  0  0  0  0
   -2.3124    3.2391    2.2379 S   0  0  0  0  0  0  0  0  0  0  0  0
   -1.3318    2.1559    2.2081 O   0  0  0  0  0  0  0  0  0  0  0  0
   -3.9199    2.1806    1.7785 O   0  0  0  0  0  0  0  0  0  0  0  0
   -2.7790    3.7282    3.5335 O   0  0  0  0  0  0  0  0  0  0  0  0
   -2.3476    4.1523    1.0962 O   0  0  0  0  0  0  0  0  0  0  0  0
   -4.4923    2.3412    2.5484 H   0  0  0  0  0  0  0  0  0  0  0  0
  1  2  1  0  0  0  0
  2  3  1  0  0  0  0
  4  9  1  0  0  0  0
  4  1  2  0  0  0  0
  5  4  1  0  0  0  0
  6  5  2  0  0  0  0
  6  7  1  0  0  0  0
  7  8  2  0  0  0  0
  8 13  1  0  0  0  0
  8  1  1  0  0  0  0
 10  5  1  0  0  0  0
 11  6  1  0  0  0  0
 12  7  1  0  0  0  0
 14 17  2  0  0  0  0
 15 14  1  0  0  0  0
 16  3  1  0  0  0  0
 16 19  1  0  0  0  0
 18 14  1  0  0  0  0
M  RAD  4   2   2   3   2  15   2  18   2
M  END
