Coordinates from ORCA-job PhN2+~HSO4-_B3LYPG-6-31G_dp-NX-Scan-d89-09-n800
 OpenBabel11261920153D

 19 19  0  0  1  0  0  0  0  0999 V2000
   -1.6108   -0.2663    0.3239 C   0  0  1  0  0  0  0  0  0  0  0  0
   -1.5766   -0.6513    1.5799 N   0  0  0  0  0  0  0  0  0  0  0  0
   -1.5994   -0.9242    2.6846 N   0  0  0  0  0  0  0  0  0  0  0  0
   -2.7560   -0.6331   -0.4821 C   0  0  0  0  0  0  0  0  0  0  0  0
   -3.1245    0.1783   -1.4933 C   0  0  0  0  0  0  0  0  0  0  0  0
   -2.4881    1.5106   -1.6660 C   0  0  2  0  0  0  0  0  0  0  0  0
   -1.1166    1.6056   -1.1100 C   0  0  0  0  0  0  0  0  0  0  0  0
   -0.7299    0.8002   -0.1005 C   0  0  0  0  0  0  0  0  0  0  0  0
   -3.2851   -1.5551   -0.2611 H   0  0  0  0  0  0  0  0  0  0  0  0
   -3.9525   -0.0830   -2.1439 H   0  0  0  0  0  0  0  0  0  0  0  0
   -2.5577    1.8872   -2.6859 H   0  0  0  0  0  0  0  0  0  0  0  0
   -0.4709    2.4035   -1.4583 H   0  0  0  0  0  0  0  0  0  0  0  0
    0.2187    0.9365    0.4082 H   0  0  0  0  0  0  0  0  0  0  0  0
   -3.3402    3.1491    0.4667 S   0  0  0  0  0  0  0  0  0  0  0  0
   -2.0673    3.8165    0.6548 O   0  0  0  0  0  0  0  0  0  0  0  0
   -3.2764    1.8112    1.4353 O   0  0  0  0  0  0  0  0  0  0  0  0
   -4.6079    3.8038    0.7446 O   0  0  0  0  0  0  0  0  0  0  0  0
   -3.4815    2.5580   -1.0114 O   0  0  0  0  0  0  0  0  0  0  0  0
   -4.1982    1.6148    1.6720 H   0  0  0  0  0  0  0  0  0  0  0  0
  1  2  1  1  0  0  0
  2  3  1  0  0  0  0
  4  9  1  0  0  0  0
  4  1  1  0  0  0  0
  5  4  2  0  0  0  0
  6 11  1  6  0  0  0
  6  5  1  0  0  0  0
  6  7  1  0  0  0  0
  6 18  1  0  0  0  0
  7  8  2  0  0  0  0
  8  1  1  0  0  0  0
  8 13  1  0  0  0  0
 10  5  1  0  0  0  0
 12  7  1  0  0  0  0
 14 15  2  0  0  0  0
 14 17  2  0  0  0  0
 14 16  1  0  0  0  0
 16 19  1  0  0  0  0
 18 14  1  0  0  0  0
M  RAD  3   1   2   2   2   3   3
M  END
