Coordinates from ORCA-job PhN2+~HSO4-_B3LYPG-6-31G_dp-NX-Scan-d89-09-n800
 OpenBabel11261920153D

 19 19  0  0  1  0  0  0  0  0999 V2000
   -1.5757   -0.3365    0.4050 C   0  0  0  0  0  0  0  0  0  0  0  0
   -1.2517   -1.0764    1.4419 N   0  0  0  0  0  0  0  0  0  0  0  0
   -0.9809   -1.7086    2.3525 N   0  0  0  0  0  0  0  0  0  0  0  0
   -2.7875   -0.6204   -0.3291 C   0  0  0  0  0  0  0  0  0  0  0  0
   -3.1934    0.2281   -1.2945 C   0  0  0  0  0  0  0  0  0  0  0  0
   -2.4941    1.5156   -1.5667 C   0  0  2  0  0  0  0  0  0  0  0  0
   -1.1523    1.6309   -0.9348 C   0  0  0  0  0  0  0  0  0  0  0  0
   -0.7415    0.7819    0.0276 C   0  0  0  0  0  0  0  0  0  0  0  0
   -3.3356   -1.5310   -0.1065 H   0  0  0  0  0  0  0  0  0  0  0  0
   -4.0829    0.0116   -1.8772 H   0  0  0  0  0  0  0  0  0  0  0  0
   -2.4633    1.7480   -2.6338 H   0  0  0  0  0  0  0  0  0  0  0  0
   -0.5242    2.4630   -1.2313 H   0  0  0  0  0  0  0  0  0  0  0  0
    0.2173    0.9092    0.5192 H   0  0  0  0  0  0  0  0  0  0  0  0
   -3.4420    3.3559    0.2910 S   0  0  0  0  0  0  0  0  0  0  0  0
   -2.1791    4.0191    0.5433 O   0  0  0  0  0  0  0  0  0  0  0  0
   -3.4659    2.0766    1.3180 O   0  0  0  0  0  0  0  0  0  0  0  0
   -4.7165    4.0427    0.4039 O   0  0  0  0  0  0  0  0  0  0  0  0
   -3.4608    2.6647   -1.1572 O   0  0  0  0  0  0  0  0  0  0  0  0
   -4.3912    1.7879    1.3862 H   0  0  0  0  0  0  0  0  0  0  0  0
  1  2  1  0  0  0  0
  2  3  1  0  0  0  0
  4  9  1  0  0  0  0
  4  1  2  0  0  0  0
  5  4  1  0  0  0  0
  6 11  1  6  0  0  0
  6  5  1  0  0  0  0
  6 18  1  0  0  0  0
  6  7  1  0  0  0  0
  7  8  2  0  0  0  0
  8  1  1  0  0  0  0
  8 13  1  0  0  0  0
 10  5  1  0  0  0  0
 12  7  1  0  0  0  0
 14 17  2  0  0  0  0
 14 15  2  0  0  0  0
 14 16  1  0  0  0  0
 16 19  1  0  0  0  0
 18 14  1  0  0  0  0
M  RAD  3   2   2   3   3   5   2
M  END
