Coordinates from ORCA-job PhN2+~HSO4-_B3LYPG-6-31G_dp-NX-Scan-d89-09-n800
 OpenBabel11261920153D

 19 19  0  0  1  0  0  0  0  0999 V2000
   -1.6362   -0.2743    0.2631 C   0  0  1  0  0  0  0  0  0  0  0  0
   -1.8270   -0.4202    1.5576 N   0  0  0  0  0  0  0  0  0  0  0  0
   -2.1049   -0.3548    2.6567 N   0  0  0  0  0  0  0  0  0  0  0  0
   -2.6987   -0.7103   -0.6260 C   0  0  0  0  0  0  0  0  0  0  0  0
   -3.0413    0.1017   -1.6466 C   0  0  0  0  0  0  0  0  0  0  0  0
   -2.4868    1.4784   -1.6944 C   0  0  2  0  0  0  0  0  0  0  0  0
   -1.1083    1.5850   -1.1659 C   0  0  0  0  0  0  0  0  0  0  0  0
   -0.7314    0.7844   -0.1487 C   0  0  0  0  0  0  0  0  0  0  0  0
   -3.1916   -1.6607   -0.4463 H   0  0  0  0  0  0  0  0  0  0  0  0
   -3.7991   -0.1855   -2.3675 H   0  0  0  0  0  0  0  0  0  0  0  0
   -2.6245    1.9757   -2.6519 H   0  0  0  0  0  0  0  0  0  0  0  0
   -0.4656    2.3823   -1.5199 H   0  0  0  0  0  0  0  0  0  0  0  0
    0.2012    0.9288    0.3868 H   0  0  0  0  0  0  0  0  0  0  0  0
   -3.2957    3.0456    0.5658 S   0  0  0  0  0  0  0  0  0  0  0  0
   -2.0352    3.7635    0.5960 O   0  0  0  0  0  0  0  0  0  0  0  0
   -3.1160    1.7739    1.6261 O   0  0  0  0  0  0  0  0  0  0  0  0
   -4.5544    3.6829    0.9209 O   0  0  0  0  0  0  0  0  0  0  0  0
   -3.5416    2.3491   -0.8450 O   0  0  0  0  0  0  0  0  0  0  0  0
   -3.9640    1.7169    2.0967 H   0  0  0  0  0  0  0  0  0  0  0  0
  1  2  1  1  0  0  0
  2  3  1  0  0  0  0
  4  9  1  0  0  0  0
  4  1  1  0  0  0  0
  5  4  2  0  0  0  0
  6 11  1  6  0  0  0
  6  5  1  0  0  0  0
  6  7  1  0  0  0  0
  6 18  1  0  0  0  0
  7  8  2  0  0  0  0
  8  1  1  0  0  0  0
  8 13  1  0  0  0  0
 10  5  1  0  0  0  0
 12  7  1  0  0  0  0
 14 15  2  0  0  0  0
 14 17  2  0  0  0  0
 14 16  1  0  0  0  0
 16 19  1  0  0  0  0
 18 14  1  0  0  0  0
M  RAD  3   1   2   2   2   3   3
M  END
