Coordinates from ORCA-job PhN2+~HSO4-_B3LYPG-6-31G_dp-NX-Scan-d89-09-n800
 OpenBabel11261920153D

 19 19  0  0  1  0  0  0  0  0999 V2000
   -1.5277   -0.7520    0.2993 C   0  0  0  0  0  0  0  0  0  0  0  0
   -1.1332   -1.7308    1.0833 N   0  0  0  0  0  0  0  0  0  0  0  0
   -0.7907   -2.5643    1.7841 N   0  0  0  0  0  0  0  0  0  0  0  0
   -2.5680   -0.9748   -0.6811 C   0  0  0  0  0  0  0  0  0  0  0  0
   -3.0200    0.0559   -1.4223 C   0  0  0  0  0  0  0  0  0  0  0  0
   -2.5743    1.4570   -1.1799 C   0  0  2  0  0  0  0  0  0  0  0  0
   -1.3416    1.5686   -0.3475 C   0  0  0  0  0  0  0  0  0  0  0  0
   -0.8852    0.5409    0.3932 C   0  0  0  0  0  0  0  0  0  0  0  0
   -2.9438   -1.9827   -0.8254 H   0  0  0  0  0  0  0  0  0  0  0  0
   -3.7796   -0.1064   -2.1794 H   0  0  0  0  0  0  0  0  0  0  0  0
   -2.5063    2.0478   -2.0950 H   0  0  0  0  0  0  0  0  0  0  0  0
   -0.8427    2.5305   -0.3169 H   0  0  0  0  0  0  0  0  0  0  0  0
   -0.0174    0.6480    1.0364 H   0  0  0  0  0  0  0  0  0  0  0  0
   -3.7428    3.6443   -0.0880 S   0  0  0  0  0  0  0  0  0  0  0  0
   -2.8589    4.3511   -0.9968 O   0  0  0  0  0  0  0  0  0  0  0  0
   -2.9615    3.6397    1.3503 O   0  0  0  0  0  0  0  0  0  0  0  0
   -5.1157    4.0477    0.1563 O   0  0  0  0  0  0  0  0  0  0  0  0
   -3.7863    2.0832   -0.4497 O   0  0  0  0  0  0  0  0  0  0  0  0
   -3.6254    3.4585    2.0366 H   0  0  0  0  0  0  0  0  0  0  0  0
  1  8  1  0  0  0  0
  1  2  1  0  0  0  0
  2  3  1  0  0  0  0
  4  1  2  0  0  0  0
  5  6  1  0  0  0  0
  5  4  1  0  0  0  0
  6 11  1  6  0  0  0
  6 18  1  0  0  0  0
  6  7  1  0  0  0  0
  7 12  1  0  0  0  0
  7  8  2  0  0  0  0
  8 13  1  0  0  0  0
  9  4  1  0  0  0  0
 10  5  1  0  0  0  0
 14 17  2  0  0  0  0
 14 16  1  0  0  0  0
 15 14  2  0  0  0  0
 16 19  1  0  0  0  0
 18 14  1  0  0  0  0
M  RAD  3   2   2   3   3   5   2
M  END
