Coordinates from ORCA-job PhN2+~HSO4-_B3LYPG-6-31G_dp-NX-Scan-d89-09-n800
 OpenBabel11261920153D

 19 19  0  0  1  0  0  0  0  0999 V2000
   -1.5060   -0.7954    0.2884 C   0  0  0  0  0  0  0  0  0  0  0  0
   -1.0802   -1.8057    1.0141 N   0  0  0  0  0  0  0  0  0  0  0  0
   -0.7110   -2.6711    1.6610 N   0  0  0  0  0  0  0  0  0  0  0  0
   -2.5614   -0.9888   -0.6821 C   0  0  0  0  0  0  0  0  0  0  0  0
   -3.0286    0.0627   -1.3831 C   0  0  0  0  0  0  0  0  0  0  0  0
   -2.5741    1.4571   -1.1199 C   0  0  2  0  0  0  0  0  0  0  0  0
   -1.3509    1.5515   -0.2712 C   0  0  0  0  0  0  0  0  0  0  0  0
   -0.8813    0.5021    0.4299 C   0  0  0  0  0  0  0  0  0  0  0  0
   -2.9381   -1.9924   -0.8517 H   0  0  0  0  0  0  0  0  0  0  0  0
   -3.8022   -0.0788   -2.1303 H   0  0  0  0  0  0  0  0  0  0  0  0
   -2.4887    2.0549   -2.0295 H   0  0  0  0  0  0  0  0  0  0  0  0
   -0.8634    2.5174   -0.2019 H   0  0  0  0  0  0  0  0  0  0  0  0
   -0.0146    0.5968    1.0767 H   0  0  0  0  0  0  0  0  0  0  0  0
   -3.7739    3.6735   -0.1348 S   0  0  0  0  0  0  0  0  0  0  0  0
   -2.9183    4.3420   -1.0978 O   0  0  0  0  0  0  0  0  0  0  0  0
   -2.9741    3.7808    1.2889 O   0  0  0  0  0  0  0  0  0  0  0  0
   -5.1535    4.0575    0.1018 O   0  0  0  0  0  0  0  0  0  0  0  0
   -3.7828    2.0911   -0.3968 O   0  0  0  0  0  0  0  0  0  0  0  0
   -3.6180    3.6071    1.9958 H   0  0  0  0  0  0  0  0  0  0  0  0
  1  8  1  0  0  0  0
  1  2  1  0  0  0  0
  2  3  1  0  0  0  0
  4  1  2  0  0  0  0
  5  6  1  0  0  0  0
  5  4  1  0  0  0  0
  6 11  1  6  0  0  0
  6 18  1  0  0  0  0
  6  7  1  0  0  0  0
  7 12  1  0  0  0  0
  7  8  2  0  0  0  0
  8 13  1  0  0  0  0
  9  4  1  0  0  0  0
 10  5  1  0  0  0  0
 14 17  2  0  0  0  0
 14 16  1  0  0  0  0
 15 14  2  0  0  0  0
 16 19  1  0  0  0  0
 18 14  1  0  0  0  0
M  RAD  3   2   2   3   3   5   2
M  END
