Coordinates from ORCA-job PhN2+~HSO4-_B3LYPG-6-31G_dp-NX-Scan-d89-09-n800
 OpenBabel11261920153D

 19 19  0  0  1  0  0  0  0  0999 V2000
   -1.4636   -0.9266    0.2519 C   0  0  0  0  0  0  0  0  0  0  0  0
   -1.0070   -2.0255    0.8106 N   0  0  0  0  0  0  0  0  0  0  0  0
   -0.6116   -2.9765    1.3049 N   0  0  0  0  0  0  0  0  0  0  0  0
   -2.5136   -0.9988   -0.7410 C   0  0  0  0  0  0  0  0  0  0  0  0
   -2.9839    0.1297   -1.3057 C   0  0  0  0  0  0  0  0  0  0  0  0
   -2.5199    1.4855   -0.8971 C   0  0  2  0  0  0  0  0  0  0  0  0
   -1.3520    1.4809    0.0312 C   0  0  0  0  0  0  0  0  0  0  0  0
   -0.8820    0.3527    0.5971 C   0  0  0  0  0  0  0  0  0  0  0  0
   -2.8881   -1.9739   -1.0355 H   0  0  0  0  0  0  0  0  0  0  0  0
   -3.7573    0.0800   -2.0650 H   0  0  0  0  0  0  0  0  0  0  0  0
   -2.3727    2.1481   -1.7536 H   0  0  0  0  0  0  0  0  0  0  0  0
   -0.9003    2.4378    0.2686 H   0  0  0  0  0  0  0  0  0  0  0  0
   -0.0479    0.3756    1.2917 H   0  0  0  0  0  0  0  0  0  0  0  0
   -3.9675    3.6839   -0.2661 S   0  0  0  0  0  0  0  0  0  0  0  0
   -3.5087    4.1921   -1.5448 O   0  0  0  0  0  0  0  0  0  0  0  0
   -2.8948    4.2656    0.8281 O   0  0  0  0  0  0  0  0  0  0  0  0
   -5.3027    3.9221    0.2492 O   0  0  0  0  0  0  0  0  0  0  0  0
   -3.7305    2.0995   -0.1686 O   0  0  0  0  0  0  0  0  0  0  0  0
   -3.3169    4.2100    1.7019 H   0  0  0  0  0  0  0  0  0  0  0  0
  1  8  1  0  0  0  0
  1  2  1  0  0  0  0
  2  3  1  0  0  0  0
  4  1  2  0  0  0  0
  5  6  1  0  0  0  0
  5  4  1  0  0  0  0
  6 11  1  6  0  0  0
  6 18  1  0  0  0  0
  6  7  1  0  0  0  0
  7 12  1  0  0  0  0
  7  8  2  0  0  0  0
  8 13  1  0  0  0  0
  9  4  1  0  0  0  0
 10  5  1  0  0  0  0
 14 18  1  0  0  0  0
 14 17  2  0  0  0  0
 14 16  1  0  0  0  0
 15 14  2  0  0  0  0
 16 19  1  0  0  0  0
M  RAD  3   2   2   3   3   5   2
M  END
