Coordinates from ORCA-job PhN2+~HSO4-_B3LYPG-6-31G_dp-NX-Scan-d89-09-n800
 OpenBabel11261920153D

 19 19  0  0  1  0  0  0  0  0999 V2000
   -1.6371   -0.2747    0.2624 C   0  0  1  0  0  0  0  0  0  0  0  0
   -1.8304   -0.4185    1.5569 N   0  0  0  0  0  0  0  0  0  0  0  0
   -2.1107   -0.3482    2.6550 N   0  0  0  0  0  0  0  0  0  0  0  0
   -2.6980   -0.7117   -0.6282 C   0  0  0  0  0  0  0  0  0  0  0  0
   -3.0400    0.1005   -1.6489 C   0  0  0  0  0  0  0  0  0  0  0  0
   -2.4868    1.4779   -1.6945 C   0  0  2  0  0  0  0  0  0  0  0  0
   -1.1085    1.5847   -1.1660 C   0  0  0  0  0  0  0  0  0  0  0  0
   -0.7319    0.7840   -0.1487 C   0  0  0  0  0  0  0  0  0  0  0  0
   -3.1902   -1.6626   -0.4495 H   0  0  0  0  0  0  0  0  0  0  0  0
   -3.7964   -0.1870   -2.3711 H   0  0  0  0  0  0  0  0  0  0  0  0
   -2.6255    1.9769   -2.6509 H   0  0  0  0  0  0  0  0  0  0  0  0
   -0.4657    2.3821   -1.5197 H   0  0  0  0  0  0  0  0  0  0  0  0
    0.2003    0.9284    0.3874 H   0  0  0  0  0  0  0  0  0  0  0  0
   -3.2955    3.0448    0.5668 S   0  0  0  0  0  0  0  0  0  0  0  0
   -2.0356    3.7642    0.5936 O   0  0  0  0  0  0  0  0  0  0  0  0
   -3.1129    1.7749    1.6291 O   0  0  0  0  0  0  0  0  0  0  0  0
   -4.5542    3.6816    0.9228 O   0  0  0  0  0  0  0  0  0  0  0  0
   -3.5427    2.3451   -0.8421 O   0  0  0  0  0  0  0  0  0  0  0  0
   -3.9592    1.7198    2.1031 H   0  0  0  0  0  0  0  0  0  0  0  0
  1  2  1  1  0  0  0
  2  3  1  0  0  0  0
  4  9  1  0  0  0  0
  4  1  1  0  0  0  0
  5  4  2  0  0  0  0
  6 11  1  6  0  0  0
  6  5  1  0  0  0  0
  6  7  1  0  0  0  0
  6 18  1  0  0  0  0
  7  8  2  0  0  0  0
  8  1  1  0  0  0  0
  8 13  1  0  0  0  0
 10  5  1  0  0  0  0
 12  7  1  0  0  0  0
 14 15  2  0  0  0  0
 14 17  2  0  0  0  0
 14 16  1  0  0  0  0
 16 19  1  0  0  0  0
 18 14  1  0  0  0  0
M  RAD  3   1   2   2   2   3   3
M  END
