Coordinates from ORCA-job PhN2+~HSO4-_B3LYPG-6-31G_dp-NX-Scan-d89-09-n800
 OpenBabel11261920153D

 19 19  0  0  1  0  0  0  0  0999 V2000
   -1.6039   -0.5516    0.3405 C   0  0  0  0  0  0  0  0  0  0  0  0
   -1.3235   -1.3785    1.3242 N   0  0  0  0  0  0  0  0  0  0  0  0
   -1.0844   -2.0650    2.2033 N   0  0  0  0  0  0  0  0  0  0  0  0
   -2.6191   -0.8862   -0.6345 C   0  0  0  0  0  0  0  0  0  0  0  0
   -3.0093    0.0457   -1.5274 C   0  0  0  0  0  0  0  0  0  0  0  0
   -2.5514    1.4596   -1.4160 C   0  0  2  0  0  0  0  0  0  0  0  0
   -1.2774    1.6187   -0.6605 C   0  0  0  0  0  0  0  0  0  0  0  0
   -0.8725    0.6907    0.2281 C   0  0  0  0  0  0  0  0  0  0  0  0
   -3.0221   -1.8938   -0.6494 H   0  0  0  0  0  0  0  0  0  0  0  0
   -3.7425   -0.1955   -2.2892 H   0  0  0  0  0  0  0  0  0  0  0  0
   -2.5343    1.9852   -2.3709 H   0  0  0  0  0  0  0  0  0  0  0  0
   -0.7232    2.5402   -0.7853 H   0  0  0  0  0  0  0  0  0  0  0  0
    0.0105    0.8371    0.8416 H   0  0  0  0  0  0  0  0  0  0  0  0
   -3.6006    3.5041    0.1095 S   0  0  0  0  0  0  0  0  0  0  0  0
   -2.5539    4.3249   -0.4709 O   0  0  0  0  0  0  0  0  0  0  0  0
   -3.0146    2.9853    1.5518 O   0  0  0  0  0  0  0  0  0  0  0  0
   -4.9454    3.9995    0.3478 O   0  0  0  0  0  0  0  0  0  0  0  0
   -3.7652    2.1350   -0.6972 O   0  0  0  0  0  0  0  0  0  0  0  0
   -3.7883    2.8070    2.1122 H   0  0  0  0  0  0  0  0  0  0  0  0
  1  2  1  0  0  0  0
  2  3  1  0  0  0  0
  4  1  1  0  0  0  0
  5  6  1  0  0  0  0
  5  4  2  0  0  0  0
  6 11  1  6  0  0  0
  6 18  1  0  0  0  0
  6  7  1  0  0  0  0
  7  8  1  0  0  0  0
  8  1  2  0  0  0  0
  8 13  1  0  0  0  0
  9  4  1  0  0  0  0
 10  5  1  0  0  0  0
 12  7  1  0  0  0  0
 14 17  2  0  0  0  0
 14 16  1  0  0  0  0
 15 14  2  0  0  0  0
 16 19  1  0  0  0  0
 18 14  1  0  0  0  0
M  RAD  3   2   2   3   3   7   2
M  END
