Coordinates from ORCA-job PhN2+~HSO4-_B3LYPG-6-31G_dp-NX-Scan-d89-09-n800
 OpenBabel11261920153D

 19 19  0  0  1  0  0  0  0  0999 V2000
   -1.5971   -0.3022    0.3877 C   0  0  0  0  0  0  0  0  0  0  0  0
   -1.3483   -0.9519    1.5024 N   0  0  0  0  0  0  0  0  0  0  0  0
   -1.1519   -1.4949    2.4856 N   0  0  0  0  0  0  0  0  0  0  0  0
   -2.7872   -0.6130   -0.3706 C   0  0  0  0  0  0  0  0  0  0  0  0
   -3.1768    0.2189   -1.3571 C   0  0  0  0  0  0  0  0  0  0  0  0
   -2.4928    1.5184   -1.6032 C   0  0  2  0  0  0  0  0  0  0  0  0
   -1.1415    1.6245   -0.9940 C   0  0  0  0  0  0  0  0  0  0  0  0
   -0.7436    0.7937   -0.0102 C   0  0  0  0  0  0  0  0  0  0  0  0
   -3.3314   -1.5255   -0.1460 H   0  0  0  0  0  0  0  0  0  0  0  0
   -4.0470   -0.0136   -1.9622 H   0  0  0  0  0  0  0  0  0  0  0  0
   -2.4914    1.7930   -2.6595 H   0  0  0  0  0  0  0  0  0  0  0  0
   -0.5035    2.4416   -1.3106 H   0  0  0  0  0  0  0  0  0  0  0  0
    0.2123    0.9220    0.4868 H   0  0  0  0  0  0  0  0  0  0  0  0
   -3.4096    3.2925    0.3446 S   0  0  0  0  0  0  0  0  0  0  0  0
   -2.1467    3.9621    0.5805 O   0  0  0  0  0  0  0  0  0  0  0  0
   -3.3933    1.9840    1.3396 O   0  0  0  0  0  0  0  0  0  0  0  0
   -4.6875    3.9609    0.5190 O   0  0  0  0  0  0  0  0  0  0  0  0
   -3.4653    2.6459   -1.1212 O   0  0  0  0  0  0  0  0  0  0  0  0
   -4.3184    1.7060    1.4456 H   0  0  0  0  0  0  0  0  0  0  0  0
  1  2  1  0  0  0  0
  2  3  1  0  0  0  0
  4  9  1  0  0  0  0
  4  1  1  0  0  0  0
  5  4  2  0  0  0  0
  6 11  1  6  0  0  0
  6  5  1  0  0  0  0
  6 18  1  0  0  0  0
  6  7  1  0  0  0  0
  7  8  1  0  0  0  0
  8  1  2  0  0  0  0
  8 13  1  0  0  0  0
 10  5  1  0  0  0  0
 12  7  1  0  0  0  0
 14 17  2  0  0  0  0
 14 15  2  0  0  0  0
 14 16  1  0  0  0  0
 16 19  1  0  0  0  0
 18 14  1  0  0  0  0
M  RAD  3   2   2   3   3   7   2
M  END
