Coordinates from ORCA-job PhN2+~HSO4-_B3LYPG-6-31G_dp-NX-Scan-d89-09-n800
 OpenBabel11261920153D

 19 19  0  0  1  0  0  0  0  0999 V2000
   -1.5397   -0.7272    0.3044 C   0  0  0  0  0  0  0  0  0  0  0  0
   -1.1640   -1.6868    1.1208 N   0  0  0  0  0  0  0  0  0  0  0  0
   -0.8375   -2.5004    1.8517 N   0  0  0  0  0  0  0  0  0  0  0  0
   -2.5721   -0.9660   -0.6806 C   0  0  0  0  0  0  0  0  0  0  0  0
   -3.0150    0.0528   -1.4435 C   0  0  0  0  0  0  0  0  0  0  0  0
   -2.5730    1.4572   -1.2127 C   0  0  2  0  0  0  0  0  0  0  0  0
   -1.3346    1.5770   -0.3902 C   0  0  0  0  0  0  0  0  0  0  0  0
   -0.8859    0.5616    0.3717 C   0  0  0  0  0  0  0  0  0  0  0  0
   -2.9485   -1.9757   -0.8102 H   0  0  0  0  0  0  0  0  0  0  0  0
   -3.7673   -0.1205   -2.2053 H   0  0  0  0  0  0  0  0  0  0  0  0
   -2.5147    2.0443   -2.1306 H   0  0  0  0  0  0  0  0  0  0  0  0
   -0.8291    2.5357   -0.3804 H   0  0  0  0  0  0  0  0  0  0  0  0
   -0.0172    0.6746    1.0126 H   0  0  0  0  0  0  0  0  0  0  0  0
   -3.7256    3.6259   -0.0613 S   0  0  0  0  0  0  0  0  0  0  0  0
   -2.8271    4.3532   -0.9391 O   0  0  0  0  0  0  0  0  0  0  0  0
   -2.9565    3.5596    1.3824 O   0  0  0  0  0  0  0  0  0  0  0  0
   -5.0952    4.0383    0.1882 O   0  0  0  0  0  0  0  0  0  0  0  0
   -3.7862    2.0797   -0.4780 O   0  0  0  0  0  0  0  0  0  0  0  0
   -3.6320    3.3792    2.0574 H   0  0  0  0  0  0  0  0  0  0  0  0
  1  8  1  0  0  0  0
  1  2  1  0  0  0  0
  2  3  1  0  0  0  0
  4  1  2  0  0  0  0
  5  6  1  0  0  0  0
  5  4  1  0  0  0  0
  6 11  1  6  0  0  0
  6 18  1  0  0  0  0
  6  7  1  0  0  0  0
  7 12  1  0  0  0  0
  7  8  2  0  0  0  0
  8 13  1  0  0  0  0
  9  4  1  0  0  0  0
 10  5  1  0  0  0  0
 14 17  2  0  0  0  0
 14 16  1  0  0  0  0
 15 14  2  0  0  0  0
 16 19  1  0  0  0  0
 18 14  1  0  0  0  0
M  RAD  3   2   2   3   3   5   2
M  END
