Coordinates from ORCA-job PhN2+~HSO4-_B3LYPG-6-31G_dp-NX-Scan-d89-09-n800
 OpenBabel11261920153D

 19 19  0  0  1  0  0  0  0  0999 V2000
   -1.4692   -0.9141    0.2566 C   0  0  0  0  0  0  0  0  0  0  0  0
   -1.0183   -2.0050    0.8353 N   0  0  0  0  0  0  0  0  0  0  0  0
   -0.6276   -2.9478    1.3483 N   0  0  0  0  0  0  0  0  0  0  0  0
   -2.5171   -0.9988   -0.7374 C   0  0  0  0  0  0  0  0  0  0  0  0
   -2.9854    0.1229   -1.3175 C   0  0  0  0  0  0  0  0  0  0  0  0
   -2.5241    1.4831   -0.9211 C   0  0  2  0  0  0  0  0  0  0  0  0
   -1.3505    1.4892    0.0000 C   0  0  0  0  0  0  0  0  0  0  0  0
   -0.8825    0.3682    0.5815 C   0  0  0  0  0  0  0  0  0  0  0  0
   -2.8910   -1.9774   -1.0206 H   0  0  0  0  0  0  0  0  0  0  0  0
   -3.7567    0.0640   -2.0782 H   0  0  0  0  0  0  0  0  0  0  0  0
   -2.3848    2.1417   -1.7817 H   0  0  0  0  0  0  0  0  0  0  0  0
   -0.8943    2.4478    0.2209 H   0  0  0  0  0  0  0  0  0  0  0  0
   -0.0457    0.3984    1.2726 H   0  0  0  0  0  0  0  0  0  0  0  0
   -3.9529    3.6836   -0.2541 S   0  0  0  0  0  0  0  0  0  0  0  0
   -3.4623    4.2176   -1.5104 O   0  0  0  0  0  0  0  0  0  0  0  0
   -2.8958    4.2255    0.8748 O   0  0  0  0  0  0  0  0  0  0  0  0
   -5.2954    3.9251    0.2401 O   0  0  0  0  0  0  0  0  0  0  0  0
   -3.7359    2.0948   -0.1914 O   0  0  0  0  0  0  0  0  0  0  0  0
   -3.3316    4.1436    1.7398 H   0  0  0  0  0  0  0  0  0  0  0  0
  1  8  1  0  0  0  0
  1  2  1  0  0  0  0
  2  3  1  0  0  0  0
  4  1  2  0  0  0  0
  5  6  1  0  0  0  0
  5  4  1  0  0  0  0
  6 11  1  6  0  0  0
  6 18  1  0  0  0  0
  6  7  1  0  0  0  0
  7 12  1  0  0  0  0
  7  8  2  0  0  0  0
  8 13  1  0  0  0  0
  9  4  1  0  0  0  0
 10  5  1  0  0  0  0
 14 18  1  0  0  0  0
 14 17  2  0  0  0  0
 14 16  1  0  0  0  0
 15 14  2  0  0  0  0
 16 19  1  0  0  0  0
M  RAD  3   2   2   3   3   5   2
M  END
