Coordinates from ORCA-job PhN2+~HSO4-_B3LYPG-6-31G_dp-NX-Scan-d89-09-n800
 OpenBabel11261920153D

 19 18  0  0  0  0  0  0  0  0999 V2000
   -2.4185    0.3315   -0.3104 C   0  0  0  0  0  0  0  0  0  0  0  0
   -2.9402    0.2399    0.9726 N   0  0  0  0  0  0  0  0  0  0  0  0
   -3.3505    0.0835    2.0053 N   0  0  0  0  0  0  0  0  0  0  0  0
   -2.6625   -0.7563   -1.1681 C   0  0  0  0  0  0  0  0  0  0  0  0
   -2.1397   -0.6953   -2.4520 C   0  0  0  0  0  0  0  0  0  0  0  0
   -1.3828    0.4163   -2.8459 C   0  0  0  0  0  0  0  0  0  0  0  0
   -1.1447    1.4750   -1.9644 C   0  0  0  0  0  0  0  0  0  0  0  0
   -1.6676    1.4590   -0.6747 C   0  0  0  0  0  0  0  0  0  0  0  0
   -3.2502   -1.6021   -0.8296 H   0  0  0  0  0  0  0  0  0  0  0  0
   -2.3192   -1.5110   -3.1442 H   0  0  0  0  0  0  0  0  0  0  0  0
   -0.9757    0.4540   -3.8515 H   0  0  0  0  0  0  0  0  0  0  0  0
   -0.5566    2.3286   -2.2840 H   0  0  0  0  0  0  0  0  0  0  0  0
   -1.5178    2.2570    0.0501 H   0  0  0  0  0  0  0  0  0  0  0  0
   -3.2503    3.2354    1.9629 S   0  0  0  0  0  0  0  0  0  0  0  0
   -1.7765    3.0488    1.9240 O   0  0  0  0  0  0  0  0  0  0  0  0
   -3.7450    1.9237    2.9847 O   0  0  0  0  0  0  0  0  0  0  0  0
   -3.7320    4.4365    2.6392 O   0  0  0  0  0  0  0  0  0  0  0  0
   -3.9310    2.8159    0.7222 O   0  0  0  0  0  0  0  0  0  0  0  0
   -3.2604    2.0217    3.8214 H   0  0  0  0  0  0  0  0  0  0  0  0
  1  2  1  0  0  0  0
  2  3  1  0  0  0  0
  4  9  1  0  0  0  0
  4  1  2  0  0  0  0
  5  4  1  0  0  0  0
  6  5  2  0  0  0  0
  6  7  1  0  0  0  0
  7  8  2  0  0  0  0
  8  1  1  0  0  0  0
  8 13  1  0  0  0  0
 10  5  1  0  0  0  0
 11  6  1  0  0  0  0
 12  7  1  0  0  0  0
 14 17  1  0  0  0  0
 14 16  1  0  0  0  0
 15 14  2  0  0  0  0
 16 19  1  0  0  0  0
 18 14  2  0  0  0  0
M  RAD  3   2   2   3   3  17   2
M  END
