Coordinates from ORCA-job PhN2+~HSO4-_B3LYPG-6-31G_dp-NX-Scan-d89-09-n800
 OpenBabel11261920153D

 19 19  0  0  1  0  0  0  0  0999 V2000
   -1.6093   -0.2605    0.3059 C   0  0  1  0  0  0  0  0  0  0  0  0
   -1.6390   -0.5645    1.5846 N   0  0  0  0  0  0  0  0  0  0  0  0
   -1.7365   -0.7419    2.7038 N   0  0  0  0  0  0  0  0  0  0  0  0
   -2.7416   -0.6441   -0.5131 C   0  0  0  0  0  0  0  0  0  0  0  0
   -3.1069    0.1637   -1.5283 C   0  0  0  0  0  0  0  0  0  0  0  0
   -2.4860    1.5054   -1.6789 C   0  0  2  0  0  0  0  0  0  0  0  0
   -1.1088    1.5996   -1.1392 C   0  0  0  0  0  0  0  0  0  0  0  0
   -0.7219    0.7995   -0.1256 C   0  0  0  0  0  0  0  0  0  0  0  0
   -3.2645   -1.5702   -0.2945 H   0  0  0  0  0  0  0  0  0  0  0  0
   -3.9229   -0.1048   -2.1908 H   0  0  0  0  0  0  0  0  0  0  0  0
   -2.5772    1.9103   -2.6857 H   0  0  0  0  0  0  0  0  0  0  0  0
   -0.4631    2.3935   -1.4963 H   0  0  0  0  0  0  0  0  0  0  0  0
    0.2258    0.9381    0.3845 H   0  0  0  0  0  0  0  0  0  0  0  0
   -3.3219    3.1071    0.5027 S   0  0  0  0  0  0  0  0  0  0  0  0
   -2.0419    3.7648    0.6780 O   0  0  0  0  0  0  0  0  0  0  0  0
   -3.2605    1.7670    1.4735 O   0  0  0  0  0  0  0  0  0  0  0  0
   -4.5813    3.7700    0.7995 O   0  0  0  0  0  0  0  0  0  0  0  0
   -3.4859    2.5224   -0.9742 O   0  0  0  0  0  0  0  0  0  0  0  0
   -4.1777    1.6068    1.7516 H   0  0  0  0  0  0  0  0  0  0  0  0
  1  2  1  1  0  0  0
  2  3  1  0  0  0  0
  4  9  1  0  0  0  0
  4  1  1  0  0  0  0
  5  4  2  0  0  0  0
  6 11  1  6  0  0  0
  6  5  1  0  0  0  0
  6  7  1  0  0  0  0
  6 18  1  0  0  0  0
  7  8  2  0  0  0  0
  8  1  1  0  0  0  0
  8 13  1  0  0  0  0
 10  5  1  0  0  0  0
 12  7  1  0  0  0  0
 14 15  2  0  0  0  0
 14 17  2  0  0  0  0
 14 16  1  0  0  0  0
 16 19  1  0  0  0  0
 18 14  1  0  0  0  0
M  RAD  3   1   2   2   2   3   3
M  END
