Coordinates from ORCA-job PhN2+~HSO4-_B3LYPG-6-31G_dp-NX-Scan-d89-09-n800
 OpenBabel11261920163D

 19 18  0  0  0  0  0  0  0  0999 V2000
   -3.1736    0.1637   -0.1707 C   0  0  0  0  0  0  0  0  0  0  0  0
   -4.1689   -0.3598    0.6924 N   0  0  0  0  0  0  0  0  0  0  0  0
   -4.4642    0.4071    1.7555 N   0  0  0  0  0  0  0  0  0  0  0  0
   -2.2609   -0.7648   -0.7008 C   0  0  0  0  0  0  0  0  0  0  0  0
   -1.3362   -0.3933   -1.6720 C   0  0  0  0  0  0  0  0  0  0  0  0
   -1.2908    0.9201   -2.1562 C   0  0  0  0  0  0  0  0  0  0  0  0
   -2.1907    1.8552   -1.6576 C   0  0  0  0  0  0  0  0  0  0  0  0
   -3.1094    1.5032   -0.6508 C   0  0  0  0  0  0  0  0  0  0  0  0
   -2.3115   -1.7867   -0.3395 H   0  0  0  0  0  0  0  0  0  0  0  0
   -0.6433   -1.1353   -2.0594 H   0  0  0  0  0  0  0  0  0  0  0  0
   -0.5723    1.2016   -2.9194 H   0  0  0  0  0  0  0  0  0  0  0  0
   -2.1857    2.8727   -2.0359 H   0  0  0  0  0  0  0  0  0  0  0  0
   -3.8765    2.2195   -0.3721 H   0  0  0  0  0  0  0  0  0  0  0  0
   -1.5863    3.0362    1.2104 S   0  0  0  0  0  0  0  0  0  0  0  0
   -0.9103    1.8932    1.8077 O   0  0  0  0  0  0  0  0  0  0  0  0
   -4.0066    1.1574    1.9494 O   0  0  0  0  0  0  0  0  0  0  0  0
   -2.8225    3.5270    1.8268 O   0  0  0  0  0  0  0  0  0  0  0  0
   -0.8965    3.8923    0.2575 O   0  0  0  0  0  0  0  0  0  0  0  0
   -4.2150    1.7529    2.7921 H   0  0  0  0  0  0  0  0  0  0  0  0
  1  2  1  0  0  0  0
  2  3  2  0  0  0  0
  3 16  1  0  0  0  0
  4  9  1  0  0  0  0
  4  1  2  0  0  0  0
  5  4  1  0  0  0  0
  6  5  2  0  0  0  0
  6  7  1  0  0  0  0
  7  8  2  0  0  0  0
  8 13  1  0  0  0  0
  8  1  1  0  0  0  0
 10  5  1  0  0  0  0
 11  6  1  0  0  0  0
 12  7  1  0  0  0  0
 14 15  1  0  0  0  0
 14 17  1  0  0  0  0
 16 19  1  0  0  0  0
 18 14  2  0  0  0  0
M  RAD  2  15   2  17   2
M  END
