Coordinates from ORCA-job PhN2+~HSO4-_B3LYPG-6-31G_dp-NX-Scan-d89-09-n800
 OpenBabel11261920153D

 19 19  0  0  1  0  0  0  0  0999 V2000
   -1.4810   -0.8635    0.2709 C   0  0  0  0  0  0  0  0  0  0  0  0
   -1.0300   -1.9195    0.9110 N   0  0  0  0  0  0  0  0  0  0  0  0
   -0.6391   -2.8296    1.4798 N   0  0  0  0  0  0  0  0  0  0  0  0
   -2.5425   -1.0017   -0.7025 C   0  0  0  0  0  0  0  0  0  0  0  0
   -3.0181    0.0870   -1.3372 C   0  0  0  0  0  0  0  0  0  0  0  0
   -2.5554    1.4662   -1.0143 C   0  0  2  0  0  0  0  0  0  0  0  0
   -1.3543    1.5188   -0.1307 C   0  0  0  0  0  0  0  0  0  0  0  0
   -0.8786    0.4313    0.5054 C   0  0  0  0  0  0  0  0  0  0  0  0
   -2.9193   -1.9943   -0.9274 H   0  0  0  0  0  0  0  0  0  0  0  0
   -3.7989   -0.0131   -2.0837 H   0  0  0  0  0  0  0  0  0  0  0  0
   -2.4415    2.0907   -1.9032 H   0  0  0  0  0  0  0  0  0  0  0  0
   -0.8836    2.4845    0.0164 H   0  0  0  0  0  0  0  0  0  0  0  0
   -0.0229    0.4958    1.1704 H   0  0  0  0  0  0  0  0  0  0  0  0
   -3.8583    3.6960   -0.2083 S   0  0  0  0  0  0  0  0  0  0  0  0
   -3.1488    4.3065   -1.3167 O   0  0  0  0  0  0  0  0  0  0  0  0
   -2.9464    4.0313    1.1096 O   0  0  0  0  0  0  0  0  0  0  0  0
   -5.2390    4.0028    0.1165 O   0  0  0  0  0  0  0  0  0  0  0  0
   -3.7624    2.0959   -0.2911 O   0  0  0  0  0  0  0  0  0  0  0  0
   -3.5009    3.8772    1.8928 H   0  0  0  0  0  0  0  0  0  0  0  0
  1  8  1  0  0  0  0
  1  2  1  0  0  0  0
  2  3  1  0  0  0  0
  4  1  2  0  0  0  0
  5  6  1  0  0  0  0
  5  4  1  0  0  0  0
  6 11  1  6  0  0  0
  6 18  1  0  0  0  0
  6  7  1  0  0  0  0
  7 12  1  0  0  0  0
  7  8  2  0  0  0  0
  8 13  1  0  0  0  0
  9  4  1  0  0  0  0
 10  5  1  0  0  0  0
 14 17  2  0  0  0  0
 14 16  1  0  0  0  0
 15 14  2  0  0  0  0
 16 19  1  0  0  0  0
 18 14  1  0  0  0  0
M  RAD  3   2   2   3   3   5   2
M  END
