Coordinates from ORCA-job PhN2+~HSO4-_B3LYPG-6-31G_dp-NX-Scan-d89-09-n800
 OpenBabel11261920153D

 19 19  0  0  1  0  0  0  0  0999 V2000
   -1.5026   -0.8022    0.2865 C   0  0  0  0  0  0  0  0  0  0  0  0
   -1.0724   -1.8170    1.0031 N   0  0  0  0  0  0  0  0  0  0  0  0
   -0.6994   -2.6871    1.6415 N   0  0  0  0  0  0  0  0  0  0  0  0
   -2.5604   -0.9908   -0.6824 C   0  0  0  0  0  0  0  0  0  0  0  0
   -3.0297    0.0639   -1.3770 C   0  0  0  0  0  0  0  0  0  0  0  0
   -2.5737    1.4573   -1.1103 C   0  0  2  0  0  0  0  0  0  0  0  0
   -1.3519    1.5485   -0.2590 C   0  0  0  0  0  0  0  0  0  0  0  0
   -0.8805    0.4958    0.4358 C   0  0  0  0  0  0  0  0  0  0  0  0
   -2.9373   -1.9936   -0.8561 H   0  0  0  0  0  0  0  0  0  0  0  0
   -3.8053   -0.0741   -2.1227 H   0  0  0  0  0  0  0  0  0  0  0  0
   -2.4855    2.0563   -2.0188 H   0  0  0  0  0  0  0  0  0  0  0  0
   -0.8663    2.5149   -0.1835 H   0  0  0  0  0  0  0  0  0  0  0  0
   -0.0141    0.5883    1.0832 H   0  0  0  0  0  0  0  0  0  0  0  0
   -3.7791    3.6776   -0.1421 S   0  0  0  0  0  0  0  0  0  0  0  0
   -2.9291    4.3400   -1.1141 O   0  0  0  0  0  0  0  0  0  0  0  0
   -2.9758    3.8031    1.2782 O   0  0  0  0  0  0  0  0  0  0  0  0
   -5.1598    4.0577    0.0944 O   0  0  0  0  0  0  0  0  0  0  0  0
   -3.7818    2.0924   -0.3880 O   0  0  0  0  0  0  0  0  0  0  0  0
   -3.6162    3.6313    1.9887 H   0  0  0  0  0  0  0  0  0  0  0  0
  1  8  1  0  0  0  0
  1  2  1  0  0  0  0
  2  3  1  0  0  0  0
  4  1  2  0  0  0  0
  5  6  1  0  0  0  0
  5  4  1  0  0  0  0
  6 11  1  6  0  0  0
  6 18  1  0  0  0  0
  6  7  1  0  0  0  0
  7 12  1  0  0  0  0
  7  8  2  0  0  0  0
  8 13  1  0  0  0  0
  9  4  1  0  0  0  0
 10  5  1  0  0  0  0
 14 17  2  0  0  0  0
 14 16  1  0  0  0  0
 15 14  2  0  0  0  0
 16 19  1  0  0  0  0
 18 14  1  0  0  0  0
M  RAD  3   2   2   3   3   5   2
M  END
