Coordinates from ORCA-job PhN2+~HSO4-_B3LYPG-6-31G_dp-NX-Scan-d89-09-n800
 OpenBabel11261920153D

 19 19  0  0  1  0  0  0  0  0999 V2000
   -1.6537   -0.2777    0.2470 C   0  0  1  0  0  0  0  0  0  0  0  0
   -1.8893   -0.3850    1.5412 N   0  0  0  0  0  0  0  0  0  0  0  0
   -2.2159   -0.2047    2.6131 N   0  0  0  0  0  0  0  0  0  0  0  0
   -2.6821   -0.7359   -0.6690 C   0  0  0  0  0  0  0  0  0  0  0  0
   -3.0119    0.0778   -1.6944 C   0  0  0  0  0  0  0  0  0  0  0  0
   -2.4817    1.4619   -1.7035 C   0  0  2  0  0  0  0  0  0  0  0  0
   -1.1072    1.5760   -1.1766 C   0  0  0  0  0  0  0  0  0  0  0  0
   -0.7402    0.7784   -0.1521 C   0  0  0  0  0  0  0  0  0  0  0  0
   -3.1656   -1.6933   -0.5028 H   0  0  0  0  0  0  0  0  0  0  0  0
   -3.7461   -0.2144   -2.4372 H   0  0  0  0  0  0  0  0  0  0  0  0
   -2.6464    1.9999   -2.6334 H   0  0  0  0  0  0  0  0  0  0  0  0
   -0.4649    2.3750   -1.5269 H   0  0  0  0  0  0  0  0  0  0  0  0
    0.1821    0.9271    0.3996 H   0  0  0  0  0  0  0  0  0  0  0  0
   -3.2924    3.0241    0.5901 S   0  0  0  0  0  0  0  0  0  0  0  0
   -2.0386    3.7562    0.5666 O   0  0  0  0  0  0  0  0  0  0  0  0
   -3.0758    1.7794    1.6886 O   0  0  0  0  0  0  0  0  0  0  0  0
   -4.5458    3.6638    0.9629 O   0  0  0  0  0  0  0  0  0  0  0  0
   -3.5607    2.2713   -0.7822 O   0  0  0  0  0  0  0  0  0  0  0  0
   -3.8849    1.7822    2.2263 H   0  0  0  0  0  0  0  0  0  0  0  0
  1  2  1  1  0  0  0
  2  3  1  0  0  0  0
  4  9  1  0  0  0  0
  4  1  1  0  0  0  0
  5  4  2  0  0  0  0
  6 11  1  6  0  0  0
  6  5  1  0  0  0  0
  6  7  1  0  0  0  0
  6 18  1  0  0  0  0
  7  8  2  0  0  0  0
  8  1  1  0  0  0  0
  8 13  1  0  0  0  0
 10  5  1  0  0  0  0
 12  7  1  0  0  0  0
 14 17  2  0  0  0  0
 14 16  1  0  0  0  0
 15 14  2  0  0  0  0
 16 19  1  0  0  0  0
 18 14  1  0  0  0  0
M  RAD  3   1   2   2   2   3   3
M  END
