Coordinates from ORCA-job PhN2+~HSO4-_B3LYPG-6-31G_dp-NX-Scan-d89-09-n800
 OpenBabel11261920153D

 19 19  0  0  1  0  0  0  0  0999 V2000
   -1.6133   -0.2625    0.2836 C   0  0  1  0  0  0  0  0  0  0  0  0
   -1.7265   -0.4747    1.5769 N   0  0  0  0  0  0  0  0  0  0  0  0
   -1.9207   -0.5325    2.6950 N   0  0  0  0  0  0  0  0  0  0  0  0
   -2.7197   -0.6705   -0.5621 C   0  0  0  0  0  0  0  0  0  0  0  0
   -3.0785    0.1368   -1.5801 C   0  0  0  0  0  0  0  0  0  0  0  0
   -2.4851    1.4941   -1.6898 C   0  0  2  0  0  0  0  0  0  0  0  0
   -1.1043    1.5922   -1.1627 C   0  0  0  0  0  0  0  0  0  0  0  0
   -0.7186    0.7946   -0.1466 C   0  0  0  0  0  0  0  0  0  0  0  0
   -3.2305   -1.6061   -0.3557 H   0  0  0  0  0  0  0  0  0  0  0  0
   -3.8723   -0.1414   -2.2652 H   0  0  0  0  0  0  0  0  0  0  0  0
   -2.6009    1.9400   -2.6759 H   0  0  0  0  0  0  0  0  0  0  0  0
   -0.4604    2.3857   -1.5237 H   0  0  0  0  0  0  0  0  0  0  0  0
    0.2244    0.9371    0.3710 H   0  0  0  0  0  0  0  0  0  0  0  0
   -3.3043    3.0676    0.5404 S   0  0  0  0  0  0  0  0  0  0  0  0
   -2.0242    3.7369    0.6683 O   0  0  0  0  0  0  0  0  0  0  0  0
   -3.2130    1.7461    1.5411 O   0  0  0  0  0  0  0  0  0  0  0  0
   -4.5589    3.7290    0.8624 O   0  0  0  0  0  0  0  0  0  0  0  0
   -3.5050    2.4546   -0.9183 O   0  0  0  0  0  0  0  0  0  0  0  0
   -4.1094    1.6354    1.8991 H   0  0  0  0  0  0  0  0  0  0  0  0
  1  2  1  1  0  0  0
  2  3  1  0  0  0  0
  4  9  1  0  0  0  0
  4  1  1  0  0  0  0
  5  4  2  0  0  0  0
  6 11  1  6  0  0  0
  6  5  1  0  0  0  0
  6  7  1  0  0  0  0
  6 18  1  0  0  0  0
  7  8  2  0  0  0  0
  8  1  1  0  0  0  0
  8 13  1  0  0  0  0
 10  5  1  0  0  0  0
 12  7  1  0  0  0  0
 14 15  2  0  0  0  0
 14 17  2  0  0  0  0
 14 16  1  0  0  0  0
 16 19  1  0  0  0  0
 18 14  1  0  0  0  0
M  RAD  3   1   2   2   2   3   3
M  END
