Coordinates from ORCA-job PhN2+~HSO4-_B3LYPG-6-31G_dp-NX-Scan-d89-09-n800
 OpenBabel11261920153D

 19 19  0  0  1  0  0  0  0  0999 V2000
   -1.5202   -0.7669    0.2958 C   0  0  0  0  0  0  0  0  0  0  0  0
   -1.1145   -1.7569    1.0598 N   0  0  0  0  0  0  0  0  0  0  0  0
   -0.7624   -2.6018    1.7421 N   0  0  0  0  0  0  0  0  0  0  0  0
   -2.5657   -0.9798   -0.6813 C   0  0  0  0  0  0  0  0  0  0  0  0
   -3.0232    0.0579   -1.4088 C   0  0  0  0  0  0  0  0  0  0  0  0
   -2.5747    1.4570   -1.1596 C   0  0  2  0  0  0  0  0  0  0  0  0
   -1.3452    1.5631   -0.3216 C   0  0  0  0  0  0  0  0  0  0  0  0
   -0.8841    0.5280    0.4058 C   0  0  0  0  0  0  0  0  0  0  0  0
   -2.9416   -1.9864   -0.8342 H   0  0  0  0  0  0  0  0  0  0  0  0
   -3.7876   -0.0974   -2.1626 H   0  0  0  0  0  0  0  0  0  0  0  0
   -2.5007    2.0499   -2.0731 H   0  0  0  0  0  0  0  0  0  0  0  0
   -0.8504    2.5266   -0.2781 H   0  0  0  0  0  0  0  0  0  0  0  0
   -0.0167    0.6311    1.0503 H   0  0  0  0  0  0  0  0  0  0  0  0
   -3.7530    3.6550   -0.1042 S   0  0  0  0  0  0  0  0  0  0  0  0
   -2.8777    4.3488   -1.0310 O   0  0  0  0  0  0  0  0  0  0  0  0
   -2.9659    3.6879    1.3304 O   0  0  0  0  0  0  0  0  0  0  0  0
   -5.1283    4.0526    0.1366 O   0  0  0  0  0  0  0  0  0  0  0  0
   -3.7857    2.0858   -0.4322 O   0  0  0  0  0  0  0  0  0  0  0  0
   -3.6232    3.5081    2.0233 H   0  0  0  0  0  0  0  0  0  0  0  0
  1  8  1  0  0  0  0
  1  2  1  0  0  0  0
  2  3  1  0  0  0  0
  4  1  2  0  0  0  0
  5  6  1  0  0  0  0
  5  4  1  0  0  0  0
  6 11  1  6  0  0  0
  6 18  1  0  0  0  0
  6  7  1  0  0  0  0
  7 12  1  0  0  0  0
  7  8  2  0  0  0  0
  8 13  1  0  0  0  0
  9  4  1  0  0  0  0
 10  5  1  0  0  0  0
 14 17  2  0  0  0  0
 14 16  1  0  0  0  0
 15 14  2  0  0  0  0
 16 19  1  0  0  0  0
 18 14  1  0  0  0  0
M  RAD  3   2   2   3   3   5   2
M  END
