Coordinates from ORCA-job PhN2+~HSO4-_B3LYPG-6-31G_dp-NX-Scan-d89-09-n800
 OpenBabel11261920153D

 19 19  0  0  1  0  0  0  0  0999 V2000
   -1.5937   -0.5980    0.3291 C   0  0  0  0  0  0  0  0  0  0  0  0
   -1.3049   -1.4540    1.2846 N   0  0  0  0  0  0  0  0  0  0  0  0
   -1.0563   -2.1656    2.1410 N   0  0  0  0  0  0  0  0  0  0  0  0
   -2.6007   -0.9120   -0.6614 C   0  0  0  0  0  0  0  0  0  0  0  0
   -3.0002    0.0442   -1.5237 C   0  0  0  0  0  0  0  0  0  0  0  0
   -2.5593    1.4592   -1.3651 C   0  0  2  0  0  0  0  0  0  0  0  0
   -1.2925    1.6097   -0.5945 C   0  0  0  0  0  0  0  0  0  0  0  0
   -0.8802    0.6584    0.2649 C   0  0  0  0  0  0  0  0  0  0  0  0
   -2.9900   -1.9239   -0.7125 H   0  0  0  0  0  0  0  0  0  0  0  0
   -3.7273   -0.1809   -2.2963 H   0  0  0  0  0  0  0  0  0  0  0  0
   -2.5409    2.0147   -2.3031 H   0  0  0  0  0  0  0  0  0  0  0  0
   -0.7509    2.5433   -0.6849 H   0  0  0  0  0  0  0  0  0  0  0  0
   -0.0038    0.7964    0.8899 H   0  0  0  0  0  0  0  0  0  0  0  0
   -3.6377    3.5308    0.0684 S   0  0  0  0  0  0  0  0  0  0  0  0
   -2.6517    4.3411   -0.6229 O   0  0  0  0  0  0  0  0  0  0  0  0
   -2.9654    3.1537    1.5158 O   0  0  0  0  0  0  0  0  0  0  0  0
   -4.9915    3.9887    0.3277 O   0  0  0  0  0  0  0  0  0  0  0  0
   -3.7729    2.0938   -0.6207 O   0  0  0  0  0  0  0  0  0  0  0  0
   -3.7013    2.9627    2.1212 H   0  0  0  0  0  0  0  0  0  0  0  0
  1  2  1  0  0  0  0
  2  3  1  0  0  0  0
  4  1  1  0  0  0  0
  5  6  1  0  0  0  0
  5  4  2  0  0  0  0
  6 11  1  6  0  0  0
  6 18  1  0  0  0  0
  6  7  1  0  0  0  0
  7  8  1  0  0  0  0
  8  1  2  0  0  0  0
  8 13  1  0  0  0  0
  9  4  1  0  0  0  0
 10  5  1  0  0  0  0
 12  7  1  0  0  0  0
 14 17  2  0  0  0  0
 14 16  1  0  0  0  0
 15 14  2  0  0  0  0
 16 19  1  0  0  0  0
 18 14  1  0  0  0  0
M  RAD  3   2   2   3   3   7   2
M  END
