Coordinates from ORCA-job PhN2+~HSO4-_B3LYPG-6-31G_dp-NX-Scan-d89-09-n800
 OpenBabel11261920153D

 19 19  0  0  1  0  0  0  0  0999 V2000
   -1.6027   -0.5575    0.3390 C   0  0  0  0  0  0  0  0  0  0  0  0
   -1.3214   -1.3879    1.3193 N   0  0  0  0  0  0  0  0  0  0  0  0
   -1.0812   -2.0774    2.1959 N   0  0  0  0  0  0  0  0  0  0  0  0
   -2.6166   -0.8898   -0.6383 C   0  0  0  0  0  0  0  0  0  0  0  0
   -3.0079    0.0452   -1.5274 C   0  0  0  0  0  0  0  0  0  0  0  0
   -2.5527    1.4595   -1.4096 C   0  0  2  0  0  0  0  0  0  0  0  0
   -1.2795    1.6176   -0.6524 C   0  0  0  0  0  0  0  0  0  0  0  0
   -0.8736    0.6867    0.2326 C   0  0  0  0  0  0  0  0  0  0  0  0
   -3.0176   -1.8981   -0.6579 H   0  0  0  0  0  0  0  0  0  0  0  0
   -3.7401   -0.1942   -2.2908 H   0  0  0  0  0  0  0  0  0  0  0  0
   -2.5358    1.9893   -2.3623 H   0  0  0  0  0  0  0  0  0  0  0  0
   -0.7268    2.5407   -0.7731 H   0  0  0  0  0  0  0  0  0  0  0  0
    0.0086    0.8321    0.8476 H   0  0  0  0  0  0  0  0  0  0  0  0
   -3.6050    3.5076    0.1044 S   0  0  0  0  0  0  0  0  0  0  0  0
   -2.5655    4.3272   -0.4904 O   0  0  0  0  0  0  0  0  0  0  0  0
   -3.0082    3.0070    1.5486 O   0  0  0  0  0  0  0  0  0  0  0  0
   -4.9510    3.9987    0.3447 O   0  0  0  0  0  0  0  0  0  0  0  0
   -3.7665    2.1288   -0.6868 O   0  0  0  0  0  0  0  0  0  0  0  0
   -3.7775    2.8267    2.1144 H   0  0  0  0  0  0  0  0  0  0  0  0
  1  2  1  0  0  0  0
  2  3  1  0  0  0  0
  4  1  1  0  0  0  0
  5  6  1  0  0  0  0
  5  4  2  0  0  0  0
  6 11  1  6  0  0  0
  6 18  1  0  0  0  0
  6  7  1  0  0  0  0
  7  8  1  0  0  0  0
  8  1  2  0  0  0  0
  8 13  1  0  0  0  0
  9  4  1  0  0  0  0
 10  5  1  0  0  0  0
 12  7  1  0  0  0  0
 14 17  2  0  0  0  0
 14 16  1  0  0  0  0
 15 14  2  0  0  0  0
 16 19  1  0  0  0  0
 18 14  1  0  0  0  0
M  RAD  3   2   2   3   3   7   2
M  END
