Coordinates from ORCA-job PhN2+~HSO4-_B3LYPG-6-31G_dp-NX-Scan-d89-09-n800
 OpenBabel11261920153D

 19 19  0  0  1  0  0  0  0  0999 V2000
   -1.5463   -0.7124    0.3072 C   0  0  0  0  0  0  0  0  0  0  0  0
   -1.1813   -1.6601    1.1421 N   0  0  0  0  0  0  0  0  0  0  0  0
   -0.8641   -2.4616    1.8902 N   0  0  0  0  0  0  0  0  0  0  0  0
   -2.5749   -0.9606   -0.6794 C   0  0  0  0  0  0  0  0  0  0  0  0
   -3.0126    0.0510   -1.4550 C   0  0  0  0  0  0  0  0  0  0  0  0
   -2.5721    1.4571   -1.2320 C   0  0  2  0  0  0  0  0  0  0  0  0
   -1.3301    1.5816   -0.4158 C   0  0  0  0  0  0  0  0  0  0  0  0
   -0.8857    0.5736    0.3583 C   0  0  0  0  0  0  0  0  0  0  0  0
   -2.9522   -1.9711   -0.7999 H   0  0  0  0  0  0  0  0  0  0  0  0
   -3.7614   -0.1288   -2.2188 H   0  0  0  0  0  0  0  0  0  0  0  0
   -2.5193    2.0414   -2.1520 H   0  0  0  0  0  0  0  0  0  0  0  0
   -0.8205    2.5381   -0.4184 H   0  0  0  0  0  0  0  0  0  0  0  0
   -0.0161    0.6901    0.9974 H   0  0  0  0  0  0  0  0  0  0  0  0
   -3.7147    3.6150   -0.0453 S   0  0  0  0  0  0  0  0  0  0  0  0
   -2.8053    4.3535   -0.9022 O   0  0  0  0  0  0  0  0  0  0  0  0
   -2.9562    3.5106    1.4022 O   0  0  0  0  0  0  0  0  0  0  0  0
   -5.0823    4.0337    0.2050 O   0  0  0  0  0  0  0  0  0  0  0  0
   -3.7857    2.0788   -0.4952 O   0  0  0  0  0  0  0  0  0  0  0  0
   -3.6401    3.3322    2.0691 H   0  0  0  0  0  0  0  0  0  0  0  0
  1  8  2  0  0  0  0
  1  2  1  0  0  0  0
  2  3  1  0  0  0  0
  4  1  1  0  0  0  0
  5  6  1  0  0  0  0
  5  4  2  0  0  0  0
  6 11  1  6  0  0  0
  6 18  1  0  0  0  0
  6  7  1  0  0  0  0
  7  8  1  0  0  0  0
  8 13  1  0  0  0  0
  9  4  1  0  0  0  0
 10  5  1  0  0  0  0
 12  7  1  0  0  0  0
 14 17  2  0  0  0  0
 14 16  1  0  0  0  0
 15 14  2  0  0  0  0
 16 19  1  0  0  0  0
 18 14  1  0  0  0  0
M  RAD  3   2   2   3   3   7   2
M  END
