Coordinates from ORCA-job PhN2+~HSO4-_B3LYPG-6-31G_dp-NX-Scan-d89-09-n800
 OpenBabel11261920153D

 19 19  0  0  1  0  0  0  0  0999 V2000
   -1.6124   -0.2673    0.3267 C   0  0  1  0  0  0  0  0  0  0  0  0
   -1.5708   -0.6635    1.5789 N   0  0  0  0  0  0  0  0  0  0  0  0
   -1.5855   -0.9482    2.6808 N   0  0  0  0  0  0  0  0  0  0  0  0
   -2.7583   -0.6324   -0.4789 C   0  0  0  0  0  0  0  0  0  0  0  0
   -3.1266    0.1796   -1.4898 C   0  0  0  0  0  0  0  0  0  0  0  0
   -2.4887    1.5110   -1.6642 C   0  0  2  0  0  0  0  0  0  0  0  0
   -1.1185    1.6066   -1.1049 C   0  0  0  0  0  0  0  0  0  0  0  0
   -0.7325    0.8006   -0.0957 C   0  0  0  0  0  0  0  0  0  0  0  0
   -3.2877   -1.5545   -0.2586 H   0  0  0  0  0  0  0  0  0  0  0  0
   -3.9553   -0.0810   -2.1397 H   0  0  0  0  0  0  0  0  0  0  0  0
   -2.5551    1.8845   -2.6856 H   0  0  0  0  0  0  0  0  0  0  0  0
   -0.4729    2.4053   -1.4514 H   0  0  0  0  0  0  0  0  0  0  0  0
    0.2159    0.9367    0.4136 H   0  0  0  0  0  0  0  0  0  0  0  0
   -3.3422    3.1555    0.4611 S   0  0  0  0  0  0  0  0  0  0  0  0
   -2.0720    3.8284    0.6469 O   0  0  0  0  0  0  0  0  0  0  0  0
   -3.2713    1.8192    1.4309 O   0  0  0  0  0  0  0  0  0  0  0  0
   -4.6125    3.8053    0.7387 O   0  0  0  0  0  0  0  0  0  0  0  0
   -3.4823    2.5611   -1.0160 O   0  0  0  0  0  0  0  0  0  0  0  0
   -4.1922    1.6155    1.6650 H   0  0  0  0  0  0  0  0  0  0  0  0
  1  2  1  1  0  0  0
  2  3  1  0  0  0  0
  4  9  1  0  0  0  0
  4  1  1  0  0  0  0
  5  4  2  0  0  0  0
  6 11  1  6  0  0  0
  6  5  1  0  0  0  0
  6  7  1  0  0  0  0
  6 18  1  0  0  0  0
  7  8  2  0  0  0  0
  8  1  1  0  0  0  0
  8 13  1  0  0  0  0
 10  5  1  0  0  0  0
 12  7  1  0  0  0  0
 14 15  2  0  0  0  0
 14 17  2  0  0  0  0
 14 16  1  0  0  0  0
 16 19  1  0  0  0  0
 18 14  1  0  0  0  0
M  RAD  3   1   2   2   2   3   3
M  END
