Coordinates from ORCA-job PhN2+~HSO4-_B3LYPG-6-31G_dp-NX-Scan-d89-09-n800
 OpenBabel11261920153D

 19 19  0  0  1  0  0  0  0  0999 V2000
   -1.4424   -0.9819    0.2289 C   0  0  0  0  0  0  0  0  0  0  0  0
   -0.9763   -2.1201    0.6942 N   0  0  0  0  0  0  0  0  0  0  0  0
   -0.5759   -3.1099    1.1015 N   0  0  0  0  0  0  0  0  0  0  0  0
   -2.4954   -0.9830   -0.7641 C   0  0  0  0  0  0  0  0  0  0  0  0
   -2.9622    0.1819   -1.2526 C   0  0  0  0  0  0  0  0  0  0  0  0
   -2.4821    1.5079   -0.7706 C   0  0  2  0  0  0  0  0  0  0  0  0
   -1.3387    1.4370    0.1840 C   0  0  0  0  0  0  0  0  0  0  0  0
   -0.8720    0.2720    0.6736 C   0  0  0  0  0  0  0  0  0  0  0  0
   -2.8767   -1.9347   -1.1198 H   0  0  0  0  0  0  0  0  0  0  0  0
   -3.7382    0.1856   -2.0111 H   0  0  0  0  0  0  0  0  0  0  0  0
   -2.2998    2.1992   -1.5976 H   0  0  0  0  0  0  0  0  0  0  0  0
   -0.8980    2.3771    0.4984 H   0  0  0  0  0  0  0  0  0  0  0  0
   -0.0504    0.2481    1.3830 H   0  0  0  0  0  0  0  0  0  0  0  0
   -4.0537    3.6627   -0.3114 S   0  0  0  0  0  0  0  0  0  0  0  0
   -3.7857    4.0070   -1.6947 O   0  0  0  0  0  0  0  0  0  0  0  0
   -2.9149    4.4671    0.5514 O   0  0  0  0  0  0  0  0  0  0  0  0
   -5.3371    3.8860    0.3274 O   0  0  0  0  0  0  0  0  0  0  0  0
   -3.6793    2.1273   -0.0272 O   0  0  0  0  0  0  0  0  0  0  0  0
   -3.2425    4.5330    1.4641 H   0  0  0  0  0  0  0  0  0  0  0  0
  1  8  1  0  0  0  0
  1  2  1  0  0  0  0
  2  3  1  0  0  0  0
  4  1  2  0  0  0  0
  5  6  1  0  0  0  0
  5  4  1  0  0  0  0
  6 11  1  6  0  0  0
  6 18  1  0  0  0  0
  6  7  1  0  0  0  0
  7 12  1  0  0  0  0
  7  8  2  0  0  0  0
  8 13  1  0  0  0  0
  9  4  1  0  0  0  0
 10  5  1  0  0  0  0
 14 18  1  0  0  0  0
 14 17  2  0  0  0  0
 14 16  1  0  0  0  0
 15 14  2  0  0  0  0
 16 19  1  0  0  0  0
M  RAD  3   2   2   3   3   5   2
M  END
