Coordinates from ORCA-job PhN2+~HSO4-_B3LYPG-6-31G_dp-NX-Scan-d89-09-n800
 OpenBabel11261920153D

 19 19  0  0  1  0  0  0  0  0999 V2000
   -1.4592   -1.0562    0.1760 C   0  0  0  0  0  0  0  0  0  0  0  0
   -1.1015   -2.2879    0.4709 N   0  0  0  0  0  0  0  0  0  0  0  0
   -0.7946   -3.3599    0.7248 N   0  0  0  0  0  0  0  0  0  0  0  0
   -2.5039   -0.8148   -0.7979 C   0  0  0  0  0  0  0  0  0  0  0  0
   -2.8507    0.4458   -1.1228 C   0  0  0  0  0  0  0  0  0  0  0  0
   -2.2358    1.6435   -0.4790 C   0  0  2  0  0  0  0  0  0  0  0  0
   -1.1269    1.3271    0.4658 C   0  0  0  0  0  0  0  0  0  0  0  0
   -0.7799    0.0651    0.7886 C   0  0  0  0  0  0  0  0  0  0  0  0
   -2.9809   -1.6665   -1.2720 H   0  0  0  0  0  0  0  0  0  0  0  0
   -3.6177    0.6329   -1.8661 H   0  0  0  0  0  0  0  0  0  0  0  0
   -1.9477    2.4006   -1.2145 H   0  0  0  0  0  0  0  0  0  0  0  0
   -0.6026    2.1656    0.9116 H   0  0  0  0  0  0  0  0  0  0  0  0
    0.0266   -0.1322    1.4882 H   0  0  0  0  0  0  0  0  0  0  0  0
   -4.2385    3.4497   -0.3159 S   0  0  0  0  0  0  0  0  0  0  0  0
   -4.3855    3.1692   -1.7319 O   0  0  0  0  0  0  0  0  0  0  0  0
   -3.3067    4.7961   -0.2504 O   0  0  0  0  0  0  0  0  0  0  0  0
   -5.3651    3.6472    0.5771 O   0  0  0  0  0  0  0  0  0  0  0  0
   -3.3069    2.3402    0.3804 O   0  0  0  0  0  0  0  0  0  0  0  0
   -3.4439    5.1967    0.6246 H   0  0  0  0  0  0  0  0  0  0  0  0
  1  2  1  0  0  0  0
  1  8  2  0  0  0  0
  2  3  1  0  0  0  0
  4  1  1  0  0  0  0
  5  4  2  0  0  0  0
  5  6  1  0  0  0  0
  6 11  1  6  0  0  0
  6 18  1  0  0  0  0
  6  7  1  0  0  0  0
  7  8  1  0  0  0  0
  7 12  1  0  0  0  0
  8 13  1  0  0  0  0
  9  4  1  0  0  0  0
 10  5  1  0  0  0  0
 14 16  1  0  0  0  0
 14 18  1  0  0  0  0
 14 17  2  0  0  0  0
 15 14  2  0  0  0  0
 16 19  1  0  0  0  0
M  RAD  3   2   2   3   3   7   2
M  END
