Coordinates from ORCA-job PhN2+~HSO4-_B3LYPG-6-31G_dp-NX-Scan-d89-09-n800
 OpenBabel11261920163D

 19 18  0  0  0  0  0  0  0  0999 V2000
   -2.7407    0.2002   -0.2479 C   0  0  0  0  0  0  0  0  0  0  0  0
   -3.3606   -0.1043    0.9788 N   0  0  0  0  0  0  0  0  0  0  0  0
   -3.8927    0.4936    1.8622 N   0  0  0  0  0  0  0  0  0  0  0  0
   -2.1283   -0.9063   -0.8599 C   0  0  0  0  0  0  0  0  0  0  0  0
   -1.4966   -0.7563   -2.0889 C   0  0  0  0  0  0  0  0  0  0  0  0
   -1.4910    0.4930   -2.7151 C   0  0  0  0  0  0  0  0  0  0  0  0
   -2.1130    1.5889   -2.1097 C   0  0  0  0  0  0  0  0  0  0  0  0
   -2.7393    1.4612   -0.8733 C   0  0  0  0  0  0  0  0  0  0  0  0
   -2.1591   -1.8636   -0.3511 H   0  0  0  0  0  0  0  0  0  0  0  0
   -1.0169   -1.6084   -2.5589 H   0  0  0  0  0  0  0  0  0  0  0  0
   -1.0026    0.6135   -3.6771 H   0  0  0  0  0  0  0  0  0  0  0  0
   -2.1050    2.5577   -2.5991 H   0  0  0  0  0  0  0  0  0  0  0  0
   -3.2118    2.3133   -0.4092 H   0  0  0  0  0  0  0  0  0  0  0  0
   -2.1161    3.2125    2.2507 S   0  0  0  0  0  0  0  0  0  0  0  0
   -1.2019    2.0802    2.2333 O   0  0  0  0  0  0  0  0  0  0  0  0
   -3.9190    2.0929    1.6715 O   0  0  0  0  0  0  0  0  0  0  0  0
   -2.6908    3.6503    3.5174 O   0  0  0  0  0  0  0  0  0  0  0  0
   -2.1432    4.1205    1.1118 O   0  0  0  0  0  0  0  0  0  0  0  0
   -4.4924    2.3233    2.4221 H   0  0  0  0  0  0  0  0  0  0  0  0
  1  2  1  0  0  0  0
  2  3  1  0  0  0  0
  4  9  1  0  0  0  0
  4  1  1  0  0  0  0
  5  4  2  0  0  0  0
  6  7  2  0  0  0  0
  6  5  1  0  0  0  0
  7  8  1  0  0  0  0
  8 13  1  0  0  0  0
  8  1  2  0  0  0  0
 10  5  1  0  0  0  0
 11  6  1  0  0  0  0
 12  7  1  0  0  0  0
 14 17  1  0  0  0  0
 15 14  2  0  0  0  0
 16  3  1  0  0  0  0
 16 19  1  0  0  0  0
 18 14  1  0  0  0  0
M  RAD  4   2   2   3   2  17   2  18   2
M  END
