Coordinates from ORCA-job PhN2+~HSO4-_B3LYPG-6-31G_dp-NX-Scan-d89-09-n800
 OpenBabel11261920163D

 19 18  0  0  0  0  0  0  0  0999 V2000
   -3.2460    0.1758   -0.2041 C   0  0  0  0  0  0  0  0  0  0  0  0
   -4.2898   -0.3308    0.6288 N   0  0  0  0  0  0  0  0  0  0  0  0
   -4.5306    0.3497    1.7262 N   0  0  0  0  0  0  0  0  0  0  0  0
   -2.2889   -0.7396   -0.6630 C   0  0  0  0  0  0  0  0  0  0  0  0
   -1.3154   -0.3594   -1.5872 C   0  0  0  0  0  0  0  0  0  0  0  0
   -1.2770    0.9445   -2.0864 C   0  0  0  0  0  0  0  0  0  0  0  0
   -2.2312    1.8668   -1.6551 C   0  0  0  0  0  0  0  0  0  0  0  0
   -3.1992    1.4995   -0.7075 C   0  0  0  0  0  0  0  0  0  0  0  0
   -2.3335   -1.7568   -0.2873 H   0  0  0  0  0  0  0  0  0  0  0  0
   -0.5836   -1.0892   -1.9226 H   0  0  0  0  0  0  0  0  0  0  0  0
   -0.5233    1.2354   -2.8115 H   0  0  0  0  0  0  0  0  0  0  0  0
   -2.2323    2.8763   -2.0545 H   0  0  0  0  0  0  0  0  0  0  0  0
   -3.9781    2.2082   -0.4414 H   0  0  0  0  0  0  0  0  0  0  0  0
   -1.4747    3.0576    1.1556 S   0  0  0  0  0  0  0  0  0  0  0  0
   -0.7759    1.8759    1.6333 O   0  0  0  0  0  0  0  0  0  0  0  0
   -4.0004    1.0980    1.9739 O   0  0  0  0  0  0  0  0  0  0  0  0
   -2.6979    3.4874    1.8311 O   0  0  0  0  0  0  0  0  0  0  0  0
   -0.8476    3.9559    0.2000 O   0  0  0  0  0  0  0  0  0  0  0  0
   -4.1958    1.6071    2.8289 H   0  0  0  0  0  0  0  0  0  0  0  0
  1  2  1  0  0  0  0
  2  3  2  0  0  0  0
  3 16  1  0  0  0  0
  4  9  1  0  0  0  0
  4  1  1  0  0  0  0
  5  4  2  0  0  0  0
  6  7  2  0  0  0  0
  6  5  1  0  0  0  0
  7  8  1  0  0  0  0
  8 13  1  0  0  0  0
  8  1  2  0  0  0  0
 10  5  1  0  0  0  0
 11  6  1  0  0  0  0
 12  7  1  0  0  0  0
 14 15  2  0  0  0  0
 14 17  1  0  0  0  0
 16 19  1  0  0  0  0
 18 14  1  0  0  0  0
M  RAD  2  17   2  18   2
M  END
