Coordinates from ORCA-job PhN2+~HSO4-_B3LYPG-6-31G_dp-NX-Scan-d89-09-n800
 OpenBabel11261920153D

 19 19  0  0  1  0  0  0  0  0999 V2000
   -1.5219   -0.7636    0.2966 C   0  0  0  0  0  0  0  0  0  0  0  0
   -1.1186   -1.7512    1.0651 N   0  0  0  0  0  0  0  0  0  0  0  0
   -0.7686   -2.5935    1.7515 N   0  0  0  0  0  0  0  0  0  0  0  0
   -2.5662   -0.9787   -0.6813 C   0  0  0  0  0  0  0  0  0  0  0  0
   -3.0225    0.0575   -1.4119 C   0  0  0  0  0  0  0  0  0  0  0  0
   -2.5746    1.4570   -1.1642 C   0  0  2  0  0  0  0  0  0  0  0  0
   -1.3445    1.5644   -0.3274 C   0  0  0  0  0  0  0  0  0  0  0  0
   -0.8844    0.5309    0.4030 C   0  0  0  0  0  0  0  0  0  0  0  0
   -2.9421   -1.9856   -0.8322 H   0  0  0  0  0  0  0  0  0  0  0  0
   -3.7859   -0.0994   -2.1664 H   0  0  0  0  0  0  0  0  0  0  0  0
   -2.5020    2.0494   -2.0780 H   0  0  0  0  0  0  0  0  0  0  0  0
   -0.8488    2.5275   -0.2868 H   0  0  0  0  0  0  0  0  0  0  0  0
   -0.0169    0.6349    1.0472 H   0  0  0  0  0  0  0  0  0  0  0  0
   -3.7507    3.6527   -0.1006 S   0  0  0  0  0  0  0  0  0  0  0  0
   -2.8735    4.3493   -1.0233 O   0  0  0  0  0  0  0  0  0  0  0  0
   -2.9649    3.6771    1.3349 O   0  0  0  0  0  0  0  0  0  0  0  0
   -5.1254    4.0516    0.1409 O   0  0  0  0  0  0  0  0  0  0  0  0
   -3.7859    2.0852   -0.4361 O   0  0  0  0  0  0  0  0  0  0  0  0
   -3.6237    3.4969    2.0263 H   0  0  0  0  0  0  0  0  0  0  0  0
  1  8  1  0  0  0  0
  1  2  1  0  0  0  0
  2  3  1  0  0  0  0
  4  1  2  0  0  0  0
  5  6  1  0  0  0  0
  5  4  1  0  0  0  0
  6 11  1  6  0  0  0
  6 18  1  0  0  0  0
  6  7  1  0  0  0  0
  7 12  1  0  0  0  0
  7  8  2  0  0  0  0
  8 13  1  0  0  0  0
  9  4  1  0  0  0  0
 10  5  1  0  0  0  0
 14 17  2  0  0  0  0
 14 16  1  0  0  0  0
 15 14  2  0  0  0  0
 16 19  1  0  0  0  0
 18 14  1  0  0  0  0
M  RAD  3   2   2   3   3   5   2
M  END
