Coordinates from ORCA-job PhN2+~HSO4-_B3LYPG-6-31G_dp-NX-Scan-d89-09-n800
 OpenBabel11261920153D

 19 19  0  0  1  0  0  0  0  0999 V2000
   -1.4601   -1.0281    0.1774 C   0  0  0  0  0  0  0  0  0  0  0  0
   -1.1071   -2.2466    0.5219 N   0  0  0  0  0  0  0  0  0  0  0  0
   -0.8034   -3.3053    0.8247 N   0  0  0  0  0  0  0  0  0  0  0  0
   -2.4739   -0.8253   -0.8362 C   0  0  0  0  0  0  0  0  0  0  0  0
   -2.8352    0.4239   -1.1858 C   0  0  0  0  0  0  0  0  0  0  0  0
   -2.2831    1.6335   -0.5125 C   0  0  2  0  0  0  0  0  0  0  0  0
   -1.1684    1.3592    0.4366 C   0  0  0  0  0  0  0  0  0  0  0  0
   -0.8055    0.1095    0.7848 C   0  0  0  0  0  0  0  0  0  0  0  0
   -2.9124   -1.6939   -1.3166 H   0  0  0  0  0  0  0  0  0  0  0  0
   -3.5794    0.5906   -1.9570 H   0  0  0  0  0  0  0  0  0  0  0  0
   -2.0296    2.4213   -1.2270 H   0  0  0  0  0  0  0  0  0  0  0  0
   -0.6651    2.2157    0.8722 H   0  0  0  0  0  0  0  0  0  0  0  0
   -0.0061   -0.0674    1.4979 H   0  0  0  0  0  0  0  0  0  0  0  0
   -4.2522    3.4447   -0.2891 S   0  0  0  0  0  0  0  0  0  0  0  0
   -4.4538    3.2279   -1.7093 O   0  0  0  0  0  0  0  0  0  0  0  0
   -3.1845    4.6839   -0.2009 O   0  0  0  0  0  0  0  0  0  0  0  0
   -5.3371    3.7143    0.6355 O   0  0  0  0  0  0  0  0  0  0  0  0
   -3.4061    2.2407    0.3501 O   0  0  0  0  0  0  0  0  0  0  0  0
   -3.2581    5.0636    0.6908 H   0  0  0  0  0  0  0  0  0  0  0  0
  1  2  1  0  0  0  0
  1  8  2  0  0  0  0
  2  3  1  0  0  0  0
  4  1  1  0  0  0  0
  5  4  2  0  0  0  0
  5  6  1  0  0  0  0
  6 11  1  6  0  0  0
  6 18  1  0  0  0  0
  6  7  1  0  0  0  0
  7  8  1  0  0  0  0
  7 12  1  0  0  0  0
  8 13  1  0  0  0  0
  9  4  1  0  0  0  0
 10  5  1  0  0  0  0
 14 16  1  0  0  0  0
 14 18  1  0  0  0  0
 14 17  2  0  0  0  0
 15 14  2  0  0  0  0
 16 19  1  0  0  0  0
M  RAD  3   2   2   3   3   7   2
M  END
