Coordinates from ORCA-job PhN2+~HSO4-_B3LYPG-6-31G_dp-NX-Scan-d89-09-n800
 OpenBabel11261920153D

 19 19  0  0  1  0  0  0  0  0999 V2000
   -1.6543   -0.2774    0.2461 C   0  0  1  0  0  0  0  0  0  0  0  0
   -1.8914   -0.3838    1.5405 N   0  0  0  0  0  0  0  0  0  0  0  0
   -2.2201   -0.1980    2.6107 N   0  0  0  0  0  0  0  0  0  0  0  0
   -2.6812   -0.7368   -0.6707 C   0  0  0  0  0  0  0  0  0  0  0  0
   -3.0104    0.0767   -1.6968 C   0  0  0  0  0  0  0  0  0  0  0  0
   -2.4807    1.4606   -1.7049 C   0  0  2  0  0  0  0  0  0  0  0  0
   -1.1067    1.5753   -1.1779 C   0  0  0  0  0  0  0  0  0  0  0  0
   -0.7406    0.7784   -0.1524 C   0  0  0  0  0  0  0  0  0  0  0  0
   -3.1648   -1.6941   -0.5044 H   0  0  0  0  0  0  0  0  0  0  0  0
   -3.7439   -0.2157   -2.4400 H   0  0  0  0  0  0  0  0  0  0  0  0
   -2.6474    2.0007   -2.6331 H   0  0  0  0  0  0  0  0  0  0  0  0
   -0.4646    2.3746   -1.5279 H   0  0  0  0  0  0  0  0  0  0  0  0
    0.1809    0.9279    0.4004 H   0  0  0  0  0  0  0  0  0  0  0  0
   -3.2925    3.0228    0.5914 S   0  0  0  0  0  0  0  0  0  0  0  0
   -2.0383    3.7544    0.5666 O   0  0  0  0  0  0  0  0  0  0  0  0
   -3.0760    1.7784    1.6913 O   0  0  0  0  0  0  0  0  0  0  0  0
   -4.5451    3.6638    0.9651 O   0  0  0  0  0  0  0  0  0  0  0  0
   -3.5615    2.2683   -0.7793 O   0  0  0  0  0  0  0  0  0  0  0  0
   -3.8825    1.7862    2.2327 H   0  0  0  0  0  0  0  0  0  0  0  0
  1  2  1  1  0  0  0
  2  3  1  0  0  0  0
  4  9  1  0  0  0  0
  4  1  1  0  0  0  0
  5  4  2  0  0  0  0
  6 11  1  6  0  0  0
  6  5  1  0  0  0  0
  6  7  1  0  0  0  0
  6 18  1  0  0  0  0
  7  8  2  0  0  0  0
  8  1  1  0  0  0  0
  8 13  1  0  0  0  0
 10  5  1  0  0  0  0
 12  7  1  0  0  0  0
 14 17  2  0  0  0  0
 14 16  1  0  0  0  0
 15 14  2  0  0  0  0
 16 19  1  0  0  0  0
 18 14  1  0  0  0  0
M  RAD  3   1   2   2   2   3   3
M  END
