Coordinates from ORCA-job PhN2+~HSO4-_B3LYPG-6-31G_dp-NX-Scan-d89-09-n800
 OpenBabel11261920153D

 19 19  0  0  1  0  0  0  0  0999 V2000
   -1.6323   -0.2727    0.2659 C   0  0  1  0  0  0  0  0  0  0  0  0
   -1.8130   -0.4271    1.5606 N   0  0  0  0  0  0  0  0  0  0  0  0
   -2.0811   -0.3809    2.6632 N   0  0  0  0  0  0  0  0  0  0  0  0
   -2.7017   -0.7046   -0.6169 C   0  0  0  0  0  0  0  0  0  0  0  0
   -3.0467    0.1065   -1.6371 C   0  0  0  0  0  0  0  0  0  0  0  0
   -2.4865    1.4807   -1.6940 C   0  0  2  0  0  0  0  0  0  0  0  0
   -1.1077    1.5861   -1.1657 C   0  0  0  0  0  0  0  0  0  0  0  0
   -0.7293    0.7859   -0.1488 C   0  0  0  0  0  0  0  0  0  0  0  0
   -3.1971   -1.6529   -0.4332 H   0  0  0  0  0  0  0  0  0  0  0  0
   -3.8100   -0.1796   -2.3528 H   0  0  0  0  0  0  0  0  0  0  0  0
   -2.6208    1.9704   -2.6560 H   0  0  0  0  0  0  0  0  0  0  0  0
   -0.4649    2.3830   -1.5207 H   0  0  0  0  0  0  0  0  0  0  0  0
    0.2050    0.9303    0.3840 H   0  0  0  0  0  0  0  0  0  0  0  0
   -3.2967    3.0487    0.5620 S   0  0  0  0  0  0  0  0  0  0  0  0
   -2.0331    3.7603    0.6063 O   0  0  0  0  0  0  0  0  0  0  0  0
   -3.1292    1.7693    1.6137 O   0  0  0  0  0  0  0  0  0  0  0  0
   -4.5551    3.6887    0.9130 O   0  0  0  0  0  0  0  0  0  0  0  0
   -3.5367    2.3651   -0.8565 O   0  0  0  0  0  0  0  0  0  0  0  0
   -3.9842    1.7048    2.0703 H   0  0  0  0  0  0  0  0  0  0  0  0
  1  2  1  1  0  0  0
  2  3  1  0  0  0  0
  4  9  1  0  0  0  0
  4  1  1  0  0  0  0
  5  4  2  0  0  0  0
  6 11  1  6  0  0  0
  6  5  1  0  0  0  0
  6  7  1  0  0  0  0
  6 18  1  0  0  0  0
  7  8  2  0  0  0  0
  8  1  1  0  0  0  0
  8 13  1  0  0  0  0
 10  5  1  0  0  0  0
 12  7  1  0  0  0  0
 14 15  2  0  0  0  0
 14 17  2  0  0  0  0
 14 16  1  0  0  0  0
 16 19  1  0  0  0  0
 18 14  1  0  0  0  0
M  RAD  3   1   2   2   2   3   3
M  END
