Coordinates from ORCA-job PhN2+~HSO4-_B3LYPG-6-31G_dp-NX-Scan-d89-09-n800
 OpenBabel11261920153D

 19 19  0  0  1  0  0  0  0  0999 V2000
   -1.4985   -0.8106    0.2842 C   0  0  0  0  0  0  0  0  0  0  0  0
   -1.0629   -1.8311    0.9893 N   0  0  0  0  0  0  0  0  0  0  0  0
   -0.6853   -2.7070    1.6171 N   0  0  0  0  0  0  0  0  0  0  0  0
   -2.5590   -0.9932   -0.6829 C   0  0  0  0  0  0  0  0  0  0  0  0
   -3.0309    0.0656   -1.3694 C   0  0  0  0  0  0  0  0  0  0  0  0
   -2.5730    1.4574   -1.0982 C   0  0  2  0  0  0  0  0  0  0  0  0
   -1.3532    1.5448   -0.2438 C   0  0  0  0  0  0  0  0  0  0  0  0
   -0.8795    0.4878    0.4431 C   0  0  0  0  0  0  0  0  0  0  0  0
   -2.9364   -1.9950   -0.8618 H   0  0  0  0  0  0  0  0  0  0  0  0
   -3.8091   -0.0681   -2.1132 H   0  0  0  0  0  0  0  0  0  0  0  0
   -2.4815    2.0581   -2.0054 H   0  0  0  0  0  0  0  0  0  0  0  0
   -0.8696    2.5115   -0.1602 H   0  0  0  0  0  0  0  0  0  0  0  0
   -0.0134    0.5775    1.0914 H   0  0  0  0  0  0  0  0  0  0  0  0
   -3.7858    3.6824   -0.1511 S   0  0  0  0  0  0  0  0  0  0  0  0
   -2.9432    4.3372   -1.1345 O   0  0  0  0  0  0  0  0  0  0  0  0
   -2.9779    3.8312    1.2643 O   0  0  0  0  0  0  0  0  0  0  0  0
   -5.1679    4.0575    0.0856 O   0  0  0  0  0  0  0  0  0  0  0  0
   -3.7802    2.0940   -0.3767 O   0  0  0  0  0  0  0  0  0  0  0  0
   -3.6137    3.6622    1.9796 H   0  0  0  0  0  0  0  0  0  0  0  0
  1  8  1  0  0  0  0
  1  2  1  0  0  0  0
  2  3  1  0  0  0  0
  4  1  2  0  0  0  0
  5  6  1  0  0  0  0
  5  4  1  0  0  0  0
  6 11  1  6  0  0  0
  6 18  1  0  0  0  0
  6  7  1  0  0  0  0
  7 12  1  0  0  0  0
  7  8  2  0  0  0  0
  8 13  1  0  0  0  0
  9  4  1  0  0  0  0
 10  5  1  0  0  0  0
 14 17  2  0  0  0  0
 14 16  1  0  0  0  0
 15 14  2  0  0  0  0
 16 19  1  0  0  0  0
 18 14  1  0  0  0  0
M  RAD  3   2   2   3   3   5   2
M  END
