Coordinates from ORCA-job PhN2+~HSO4-_B3LYPG-6-31G_dp-NX-Scan-d89-09-n800
 OpenBabel11261920153D

 19 19  0  0  1  0  0  0  0  0999 V2000
   -1.5244   -0.7586    0.2978 C   0  0  0  0  0  0  0  0  0  0  0  0
   -1.1249   -1.7425    1.0730 N   0  0  0  0  0  0  0  0  0  0  0  0
   -0.7780   -2.5811    1.7656 N   0  0  0  0  0  0  0  0  0  0  0  0
   -2.5670   -0.9770   -0.6812 C   0  0  0  0  0  0  0  0  0  0  0  0
   -3.0214    0.0568   -1.4163 C   0  0  0  0  0  0  0  0  0  0  0  0
   -2.5745    1.4570   -1.1710 C   0  0  2  0  0  0  0  0  0  0  0  0
   -1.3432    1.5662   -0.3361 C   0  0  0  0  0  0  0  0  0  0  0  0
   -0.8848    0.5352    0.3988 C   0  0  0  0  0  0  0  0  0  0  0  0
   -2.9428   -1.9844   -0.8293 H   0  0  0  0  0  0  0  0  0  0  0  0
   -3.7832   -0.1025   -2.1720 H   0  0  0  0  0  0  0  0  0  0  0  0
   -2.5039    2.0487   -2.0853 H   0  0  0  0  0  0  0  0  0  0  0  0
   -0.8462    2.5288   -0.2998 H   0  0  0  0  0  0  0  0  0  0  0  0
   -0.0172    0.6406    1.0426 H   0  0  0  0  0  0  0  0  0  0  0  0
   -3.7473    3.6491   -0.0952 S   0  0  0  0  0  0  0  0  0  0  0  0
   -2.8671    4.3502   -1.0119 O   0  0  0  0  0  0  0  0  0  0  0  0
   -2.9634    3.6610    1.3416 O   0  0  0  0  0  0  0  0  0  0  0  0
   -5.1212    4.0500    0.1475 O   0  0  0  0  0  0  0  0  0  0  0  0
   -3.7861    2.0843   -0.4420 O   0  0  0  0  0  0  0  0  0  0  0  0
   -3.6244    3.4803    2.0307 H   0  0  0  0  0  0  0  0  0  0  0  0
  1  8  1  0  0  0  0
  1  2  1  0  0  0  0
  2  3  1  0  0  0  0
  4  1  2  0  0  0  0
  5  6  1  0  0  0  0
  5  4  1  0  0  0  0
  6 11  1  6  0  0  0
  6 18  1  0  0  0  0
  6  7  1  0  0  0  0
  7 12  1  0  0  0  0
  7  8  2  0  0  0  0
  8 13  1  0  0  0  0
  9  4  1  0  0  0  0
 10  5  1  0  0  0  0
 14 17  2  0  0  0  0
 14 16  1  0  0  0  0
 15 14  2  0  0  0  0
 16 19  1  0  0  0  0
 18 14  1  0  0  0  0
M  RAD  3   2   2   3   3   5   2
M  END
