Coordinates from ORCA-job PhN2+~HSO4-_B3LYPG-6-31G_dp-NX-Scan-d89-09-n800
 OpenBabel11261920153D

 19 19  0  0  1  0  0  0  0  0999 V2000
   -1.6029   -0.2946    0.3810 C   0  0  1  0  0  0  0  0  0  0  0  0
   -1.3799   -0.9140    1.5179 N   0  0  0  0  0  0  0  0  0  0  0  0
   -1.2091   -1.4270    2.5215 N   0  0  0  0  0  0  0  0  0  0  0  0
   -2.7858   -0.6138   -0.3854 C   0  0  0  0  0  0  0  0  0  0  0  0
   -3.1709    0.2142   -1.3770 C   0  0  0  0  0  0  0  0  0  0  0  0
   -2.4929    1.5183   -1.6132 C   0  0  2  0  0  0  0  0  0  0  0  0
   -1.1395    1.6228   -1.0096 C   0  0  0  0  0  0  0  0  0  0  0  0
   -0.7450    0.7966   -0.0205 C   0  0  0  0  0  0  0  0  0  0  0  0
   -3.3279   -1.5276   -0.1617 H   0  0  0  0  0  0  0  0  0  0  0  0
   -4.0345   -0.0231   -1.9896 H   0  0  0  0  0  0  0  0  0  0  0  0
   -2.5000    1.8068   -2.6655 H   0  0  0  0  0  0  0  0  0  0  0  0
   -0.4996    2.4366   -1.3305 H   0  0  0  0  0  0  0  0  0  0  0  0
    0.2095    0.9259    0.4790 H   0  0  0  0  0  0  0  0  0  0  0  0
   -3.3995    3.2742    0.3597 S   0  0  0  0  0  0  0  0  0  0  0  0
   -2.1372    3.9485    0.5859 O   0  0  0  0  0  0  0  0  0  0  0  0
   -3.3672    1.9603    1.3490 O   0  0  0  0  0  0  0  0  0  0  0  0
   -4.6786    3.9352    0.5532 O   0  0  0  0  0  0  0  0  0  0  0  0
   -3.4686    2.6365   -1.1087 O   0  0  0  0  0  0  0  0  0  0  0  0
   -4.2914    1.6864    1.4718 H   0  0  0  0  0  0  0  0  0  0  0  0
  1  2  1  1  0  0  0
  2  3  1  0  0  0  0
  4  9  1  0  0  0  0
  4  1  1  0  0  0  0
  5  4  2  0  0  0  0
  6 11  1  6  0  0  0
  6  5  1  0  0  0  0
  6 18  1  0  0  0  0
  6  7  1  0  0  0  0
  7  8  2  0  0  0  0
  8  1  1  0  0  0  0
  8 13  1  0  0  0  0
 10  5  1  0  0  0  0
 12  7  1  0  0  0  0
 14 17  2  0  0  0  0
 14 15  2  0  0  0  0
 14 16  1  0  0  0  0
 16 19  1  0  0  0  0
 18 14  1  0  0  0  0
M  RAD  3   1   2   2   2   3   3
M  END
