Coordinates from ORCA-job PhN2+~HSO4-_B3LYPG-6-31G_dp-NX-Scan-d89-09-n800
 OpenBabel11261920153D

 19 18  0  0  0  0  0  0  0  0999 V2000
   -2.4104    0.3349   -0.3166 C   0  0  0  0  0  0  0  0  0  0  0  0
   -2.9231    0.2369    0.9716 N   0  0  0  0  0  0  0  0  0  0  0  0
   -3.3087    0.0074    1.9958 N   0  0  0  0  0  0  0  0  0  0  0  0
   -2.6748   -0.7421   -1.1808 C   0  0  0  0  0  0  0  0  0  0  0  0
   -2.1534   -0.6764   -2.4654 C   0  0  0  0  0  0  0  0  0  0  0  0
   -1.3831    0.4284   -2.8517 C   0  0  0  0  0  0  0  0  0  0  0  0
   -1.1292    1.4771   -1.9622 C   0  0  0  0  0  0  0  0  0  0  0  0
   -1.6483    1.4570   -0.6714 C   0  0  0  0  0  0  0  0  0  0  0  0
   -3.2740   -1.5824   -0.8487 H   0  0  0  0  0  0  0  0  0  0  0  0
   -2.3462   -1.4833   -3.1642 H   0  0  0  0  0  0  0  0  0  0  0  0
   -0.9787    0.4695   -3.8583 H   0  0  0  0  0  0  0  0  0  0  0  0
   -0.5326    2.3265   -2.2771 H   0  0  0  0  0  0  0  0  0  0  0  0
   -1.4933    2.2471    0.0618 H   0  0  0  0  0  0  0  0  0  0  0  0
   -3.2632    3.1930    1.9629 S   0  0  0  0  0  0  0  0  0  0  0  0
   -1.7874    3.0033    1.9306 O   0  0  0  0  0  0  0  0  0  0  0  0
   -3.7633    1.9811    3.0681 O   0  0  0  0  0  0  0  0  0  0  0  0
   -3.7375    4.4552    2.5245 O   0  0  0  0  0  0  0  0  0  0  0  0
   -3.9375    2.6862    0.7461 O   0  0  0  0  0  0  0  0  0  0  0  0
   -3.2763    2.1428    3.8927 H   0  0  0  0  0  0  0  0  0  0  0  0
  1  2  1  0  0  0  0
  2  3  1  0  0  0  0
  4  9  1  0  0  0  0
  4  1  2  0  0  0  0
  5  4  1  0  0  0  0
  6  5  2  0  0  0  0
  6  7  1  0  0  0  0
  7  8  2  0  0  0  0
  8  1  1  0  0  0  0
  8 13  1  0  0  0  0
 10  5  1  0  0  0  0
 11  6  1  0  0  0  0
 12  7  1  0  0  0  0
 14 17  1  0  0  0  0
 14 16  1  0  0  0  0
 15 14  2  0  0  0  0
 16 19  1  0  0  0  0
 18 14  2  0  0  0  0
M  RAD  3   2   2   3   3  17   2
M  END
