Coordinates from ORCA-job PhN2+~HSO4-_B3LYPG-6-31G_dp-NX-Scan-d89-09-n800
 OpenBabel11261920153D

 19 19  0  0  1  0  0  0  0  0999 V2000
   -1.5931   -0.5998    0.3287 C   0  0  0  0  0  0  0  0  0  0  0  0
   -1.3035   -1.4572    1.2828 N   0  0  0  0  0  0  0  0  0  0  0  0
   -1.0542   -2.1700    2.1379 N   0  0  0  0  0  0  0  0  0  0  0  0
   -2.6001   -0.9129   -0.6620 C   0  0  0  0  0  0  0  0  0  0  0  0
   -3.0001    0.0442   -1.5231 C   0  0  0  0  0  0  0  0  0  0  0  0
   -2.5596    1.4591   -1.3631 C   0  0  2  0  0  0  0  0  0  0  0  0
   -1.2930    1.6093   -0.5919 C   0  0  0  0  0  0  0  0  0  0  0  0
   -0.8804    0.6571    0.2663 C   0  0  0  0  0  0  0  0  0  0  0  0
   -2.9891   -1.9248   -0.7143 H   0  0  0  0  0  0  0  0  0  0  0  0
   -3.7274   -0.1802   -2.2958 H   0  0  0  0  0  0  0  0  0  0  0  0
   -2.5409    2.0155   -2.3006 H   0  0  0  0  0  0  0  0  0  0  0  0
   -0.7520    2.5433   -0.6810 H   0  0  0  0  0  0  0  0  0  0  0  0
   -0.0041    0.7948    0.8916 H   0  0  0  0  0  0  0  0  0  0  0  0
   -3.6390    3.5321    0.0668 S   0  0  0  0  0  0  0  0  0  0  0  0
   -2.6547    4.3415   -0.6279 O   0  0  0  0  0  0  0  0  0  0  0  0
   -2.9645    3.1598    1.5143 O   0  0  0  0  0  0  0  0  0  0  0  0
   -4.9931    3.9890    0.3263 O   0  0  0  0  0  0  0  0  0  0  0  0
   -3.7731    2.0929   -0.6183 O   0  0  0  0  0  0  0  0  0  0  0  0
   -3.6992    2.9686    2.1210 H   0  0  0  0  0  0  0  0  0  0  0  0
  1  2  1  0  0  0  0
  2  3  1  0  0  0  0
  4  1  1  0  0  0  0
  5  6  1  0  0  0  0
  5  4  2  0  0  0  0
  6 11  1  6  0  0  0
  6 18  1  0  0  0  0
  6  7  1  0  0  0  0
  7  8  1  0  0  0  0
  8  1  2  0  0  0  0
  8 13  1  0  0  0  0
  9  4  1  0  0  0  0
 10  5  1  0  0  0  0
 12  7  1  0  0  0  0
 14 17  2  0  0  0  0
 14 16  1  0  0  0  0
 15 14  2  0  0  0  0
 16 19  1  0  0  0  0
 18 14  1  0  0  0  0
M  RAD  3   2   2   3   3   7   2
M  END
