Coordinates from ORCA-job PhN2+~HSO4-_B3LYPG-6-31G_dp-NX-Scan-d89-09-n800
 OpenBabel11261920153D

 19 19  0  0  1  0  0  0  0  0999 V2000
   -1.4603   -1.0648    0.1792 C   0  0  0  0  0  0  0  0  0  0  0  0
   -1.1017   -2.2989    0.4657 N   0  0  0  0  0  0  0  0  0  0  0  0
   -0.7941   -3.3730    0.7112 N   0  0  0  0  0  0  0  0  0  0  0  0
   -2.5178   -0.8170   -0.7796 C   0  0  0  0  0  0  0  0  0  0  0  0
   -2.8594    0.4454   -1.1040 C   0  0  0  0  0  0  0  0  0  0  0  0
   -2.2221    1.6422   -0.4798 C   0  0  2  0  0  0  0  0  0  0  0  0
   -1.1112    1.3186    0.4606 C   0  0  0  0  0  0  0  0  0  0  0  0
   -0.7693    0.0546    0.7827 C   0  0  0  0  0  0  0  0  0  0  0  0
   -3.0091   -1.6660   -1.2439 H   0  0  0  0  0  0  0  0  0  0  0  0
   -3.6352    0.6348   -1.8376 H   0  0  0  0  0  0  0  0  0  0  0  0
   -1.9278    2.3847   -1.2276 H   0  0  0  0  0  0  0  0  0  0  0  0
   -0.5772    2.1539    0.9008 H   0  0  0  0  0  0  0  0  0  0  0  0
    0.0424   -0.1455    1.4755 H   0  0  0  0  0  0  0  0  0  0  0  0
   -4.2245    3.4587   -0.3289 S   0  0  0  0  0  0  0  0  0  0  0  0
   -4.3278    3.1878   -1.7509 O   0  0  0  0  0  0  0  0  0  0  0  0
   -3.3457    4.8384   -0.2266 O   0  0  0  0  0  0  0  0  0  0  0  0
   -5.3791    3.6098    0.5374 O   0  0  0  0  0  0  0  0  0  0  0  0
   -3.2739    2.3708    0.3780 O   0  0  0  0  0  0  0  0  0  0  0  0
   -3.5273    5.2278    0.6453 H   0  0  0  0  0  0  0  0  0  0  0  0
  1  2  1  0  0  0  0
  1  8  2  0  0  0  0
  2  3  1  0  0  0  0
  4  1  1  0  0  0  0
  5  4  2  0  0  0  0
  5  6  1  0  0  0  0
  6 11  1  6  0  0  0
  6 18  1  0  0  0  0
  6  7  1  0  0  0  0
  7  8  1  0  0  0  0
  7 12  1  0  0  0  0
  8 13  1  0  0  0  0
  9  4  1  0  0  0  0
 10  5  1  0  0  0  0
 14 16  1  0  0  0  0
 14 18  1  0  0  0  0
 14 17  2  0  0  0  0
 15 14  2  0  0  0  0
 16 19  1  0  0  0  0
M  RAD  3   2   2   3   3   7   2
M  END
