Coordinates from ORCA-job PhN2+~HSO4-_B3LYPG-6-31G_dp-NX-Scan-d89-09-n800
 OpenBabel11261920153D

 19 19  0  0  1  0  0  0  0  0999 V2000
   -1.5589   -0.3641    0.4103 C   0  0  0  0  0  0  0  0  0  0  0  0
   -1.1946   -1.1516    1.3978 N   0  0  0  0  0  0  0  0  0  0  0  0
   -0.8844   -1.8293    2.2623 N   0  0  0  0  0  0  0  0  0  0  0  0
   -2.7835   -0.6319   -0.3089 C   0  0  0  0  0  0  0  0  0  0  0  0
   -3.2016    0.2295   -1.2572 C   0  0  0  0  0  0  0  0  0  0  0  0
   -2.4957    1.5118   -1.5414 C   0  0  2  0  0  0  0  0  0  0  0  0
   -1.1610    1.6348   -0.8940 C   0  0  0  0  0  0  0  0  0  0  0  0
   -0.7399    0.7719    0.0513 C   0  0  0  0  0  0  0  0  0  0  0  0
   -3.3324   -1.5428   -0.0899 H   0  0  0  0  0  0  0  0  0  0  0  0
   -4.1026    0.0233   -1.8260 H   0  0  0  0  0  0  0  0  0  0  0  0
   -2.4461    1.7202   -2.6134 H   0  0  0  0  0  0  0  0  0  0  0  0
   -0.5420    2.4795   -1.1737 H   0  0  0  0  0  0  0  0  0  0  0  0
    0.2196    0.9002    0.5413 H   0  0  0  0  0  0  0  0  0  0  0  0
   -3.4612    3.3960    0.2564 S   0  0  0  0  0  0  0  0  0  0  0  0
   -2.1975    4.0561    0.5126 O   0  0  0  0  0  0  0  0  0  0  0  0
   -3.5099    2.1421    1.3109 O   0  0  0  0  0  0  0  0  0  0  0  0
   -4.7319    4.0946    0.3294 O   0  0  0  0  0  0  0  0  0  0  0  0
   -3.4616    2.6691   -1.1754 O   0  0  0  0  0  0  0  0  0  0  0  0
   -4.4360    1.8529    1.3651 H   0  0  0  0  0  0  0  0  0  0  0  0
  1  2  1  0  0  0  0
  2  3  1  0  0  0  0
  4  9  1  0  0  0  0
  4  1  2  0  0  0  0
  5  4  1  0  0  0  0
  6 11  1  6  0  0  0
  6  5  1  0  0  0  0
  6 18  1  0  0  0  0
  6  7  1  0  0  0  0
  7  8  2  0  0  0  0
  8  1  1  0  0  0  0
  8 13  1  0  0  0  0
 10  5  1  0  0  0  0
 12  7  1  0  0  0  0
 14 17  2  0  0  0  0
 14 15  2  0  0  0  0
 14 16  1  0  0  0  0
 16 19  1  0  0  0  0
 18 14  1  0  0  0  0
M  RAD  3   2   2   3   3   5   2
M  END
