Coordinates from ORCA-job PhN2+~HSO4-_B3LYPG-6-31G_dp-NX-Scan-d89-09-n800
 OpenBabel11261920153D

 19 18  0  0  0  0  0  0  0  0999 V2000
   -2.6164    0.1845   -0.2733 C   0  0  0  0  0  0  0  0  0  0  0  0
   -3.1875   -0.0225    0.9827 N   0  0  0  0  0  0  0  0  0  0  0  0
   -3.7102    0.3662    1.9287 N   0  0  0  0  0  0  0  0  0  0  0  0
   -2.1576   -0.9647   -0.9363 C   0  0  0  0  0  0  0  0  0  0  0  0
   -1.5943   -0.8261   -2.1981 C   0  0  0  0  0  0  0  0  0  0  0  0
   -1.4964    0.4440   -2.7774 C   0  0  0  0  0  0  0  0  0  0  0  0
   -1.9578    1.5773   -2.1003 C   0  0  0  0  0  0  0  0  0  0  0  0
   -2.5251    1.4697   -0.8344 C   0  0  0  0  0  0  0  0  0  0  0  0
   -2.2483   -1.9324   -0.4554 H   0  0  0  0  0  0  0  0  0  0  0  0
   -1.2317   -1.7005   -2.7274 H   0  0  0  0  0  0  0  0  0  0  0  0
   -1.0537    0.5510   -3.7626 H   0  0  0  0  0  0  0  0  0  0  0  0
   -1.8680    2.5591   -2.5530 H   0  0  0  0  0  0  0  0  0  0  0  0
   -2.8627    2.3507   -0.3029 H   0  0  0  0  0  0  0  0  0  0  0  0
   -2.4077    3.2435    2.2270 S   0  0  0  0  0  0  0  0  0  0  0  0
   -1.4096    2.1704    2.1975 O   0  0  0  0  0  0  0  0  0  0  0  0
   -3.9588    2.2201    1.8771 O   0  0  0  0  0  0  0  0  0  0  0  0
   -2.7920    3.7971    3.5255 O   0  0  0  0  0  0  0  0  0  0  0  0
   -2.4542    4.1272    1.0578 O   0  0  0  0  0  0  0  0  0  0  0  0
   -4.4890    2.3476    2.6823 H   0  0  0  0  0  0  0  0  0  0  0  0
  1  2  1  0  0  0  0
  2  3  2  0  0  0  0
  4  9  1  0  0  0  0
  4  1  2  0  0  0  0
  5  4  1  0  0  0  0
  6  5  2  0  0  0  0
  6  7  1  0  0  0  0
  7  8  2  0  0  0  0
  8 13  1  0  0  0  0
  8  1  1  0  0  0  0
 10  5  1  0  0  0  0
 11  6  1  0  0  0  0
 12  7  1  0  0  0  0
 14 17  1  0  0  0  0
 15 14  2  0  0  0  0
 16 14  1  0  0  0  0
 16 19  1  0  0  0  0
 18 14  2  0  0  0  0
M  RAD  2   3   2  17   2
M  END
