Coordinates from ORCA-job PhN2+~HSO4-_B3LYPG-6-31G_dp-NX-Scan-d89-09-n800
 OpenBabel11261920153D

 19 19  0  0  1  0  0  0  0  0999 V2000
   -1.5236   -0.4064    0.4121 C   0  0  0  0  0  0  0  0  0  0  0  0
   -1.1016   -1.2540    1.3243 N   0  0  0  0  0  0  0  0  0  0  0  0
   -0.7380   -1.9867    2.1215 N   0  0  0  0  0  0  0  0  0  0  0  0
   -2.7710   -0.6499   -0.2767 C   0  0  0  0  0  0  0  0  0  0  0  0
   -3.2115    0.2310   -1.1962 C   0  0  0  0  0  0  0  0  0  0  0  0
   -2.4964    1.5043   -1.5023 C   0  0  2  0  0  0  0  0  0  0  0  0
   -1.1688    1.6375   -0.8391 C   0  0  0  0  0  0  0  0  0  0  0  0
   -0.7274    0.7536    0.0769 C   0  0  0  0  0  0  0  0  0  0  0  0
   -3.3210   -1.5604   -0.0590 H   0  0  0  0  0  0  0  0  0  0  0  0
   -4.1322    0.0411   -1.7385 H   0  0  0  0  0  0  0  0  0  0  0  0
   -2.4247    1.6776   -2.5804 H   0  0  0  0  0  0  0  0  0  0  0  0
   -0.5650    2.4999   -1.0962 H   0  0  0  0  0  0  0  0  0  0  0  0
    0.2353    0.8831    0.5602 H   0  0  0  0  0  0  0  0  0  0  0  0
   -3.4887    3.4478    0.2121 S   0  0  0  0  0  0  0  0  0  0  0  0
   -2.2147    4.0754    0.4974 O   0  0  0  0  0  0  0  0  0  0  0  0
   -3.6206    2.2324    1.3007 O   0  0  0  0  0  0  0  0  0  0  0  0
   -4.7371    4.1885    0.2080 O   0  0  0  0  0  0  0  0  0  0  0  0
   -3.4571    2.6739   -1.1955 O   0  0  0  0  0  0  0  0  0  0  0  0
   -4.5569    1.9738    1.3282 H   0  0  0  0  0  0  0  0  0  0  0  0
  1  2  1  0  0  0  0
  2  3  1  0  0  0  0
  4  9  1  0  0  0  0
  4  1  2  0  0  0  0
  5  4  1  0  0  0  0
  6 11  1  6  0  0  0
  6  5  1  0  0  0  0
  6 18  1  0  0  0  0
  6  7  1  0  0  0  0
  7  8  2  0  0  0  0
  8  1  1  0  0  0  0
  8 13  1  0  0  0  0
 10  5  1  0  0  0  0
 12  7  1  0  0  0  0
 14 15  2  0  0  0  0
 14 16  1  0  0  0  0
 16 19  1  0  0  0  0
 17 14  2  0  0  0  0
 18 14  1  0  0  0  0
M  RAD  3   2   2   3   3   5   2
M  END
