Coordinates from ORCA-job PhN2+~HSO4-_B3LYPG-6-31G_dp-NX-Scan-d89-09-n800
 OpenBabel11261920153D

 19 19  0  0  1  0  0  0  0  0999 V2000
   -1.5791   -0.6353    0.3215 C   0  0  0  0  0  0  0  0  0  0  0  0
   -1.2685   -1.5205    1.2428 N   0  0  0  0  0  0  0  0  0  0  0  0
   -1.0000   -2.2600    2.0691 N   0  0  0  0  0  0  0  0  0  0  0  0
   -2.5911   -0.9292   -0.6699 C   0  0  0  0  0  0  0  0  0  0  0  0
   -3.0025    0.0452   -1.5057 C   0  0  0  0  0  0  0  0  0  0  0  0
   -2.5643    1.4583   -1.3242 C   0  0  2  0  0  0  0  0  0  0  0  0
   -1.3044    1.6016   -0.5402 C   0  0  0  0  0  0  0  0  0  0  0  0
   -0.8821    0.6318    0.2932 C   0  0  0  0  0  0  0  0  0  0  0  0
   -2.9752   -1.9415   -0.7438 H   0  0  0  0  0  0  0  0  0  0  0  0
   -3.7350   -0.1659   -2.2772 H   0  0  0  0  0  0  0  0  0  0  0  0
   -2.5376    2.0253   -2.2553 H   0  0  0  0  0  0  0  0  0  0  0  0
   -0.7732    2.5436   -0.6038 H   0  0  0  0  0  0  0  0  0  0  0  0
   -0.0080    0.7634    0.9228 H   0  0  0  0  0  0  0  0  0  0  0  0
   -3.6623    3.5579    0.0335 S   0  0  0  0  0  0  0  0  0  0  0  0
   -2.7016    4.3478   -0.7148 O   0  0  0  0  0  0  0  0  0  0  0  0
   -2.9592    3.2705    1.4860 O   0  0  0  0  0  0  0  0  0  0  0  0
   -5.0208    4.0030    0.2894 O   0  0  0  0  0  0  0  0  0  0  0  0
   -3.7776    2.0833   -0.5777 O   0  0  0  0  0  0  0  0  0  0  0  0
   -3.6786    3.0831    2.1120 H   0  0  0  0  0  0  0  0  0  0  0  0
  1  2  1  0  0  0  0
  2  3  1  0  0  0  0
  4  1  1  0  0  0  0
  5  6  1  0  0  0  0
  5  4  2  0  0  0  0
  6 11  1  6  0  0  0
  6 18  1  0  0  0  0
  6  7  1  0  0  0  0
  7  8  1  0  0  0  0
  8  1  2  0  0  0  0
  8 13  1  0  0  0  0
  9  4  1  0  0  0  0
 10  5  1  0  0  0  0
 12  7  1  0  0  0  0
 14 17  2  0  0  0  0
 14 16  1  0  0  0  0
 15 14  2  0  0  0  0
 16 19  1  0  0  0  0
 18 14  1  0  0  0  0
M  RAD  3   2   2   3   3   7   2
M  END
