Coordinates from ORCA-job PhN2+~HSO4-_B3LYPG-6-31G_dp-NX-Scan-d89-09-n800
 OpenBabel11261920163D

 19 18  0  0  0  0  0  0  0  0999 V2000
   -2.9546    0.2276   -0.2568 C   0  0  0  0  0  0  0  0  0  0  0  0
   -3.7167   -0.1675    0.8781 N   0  0  0  0  0  0  0  0  0  0  0  0
   -4.2007    0.5536    1.7515 N   0  0  0  0  0  0  0  0  0  0  0  0
   -2.1123   -0.7889   -0.7383 C   0  0  0  0  0  0  0  0  0  0  0  0
   -1.3393   -0.5850   -1.8763 C   0  0  0  0  0  0  0  0  0  0  0  0
   -1.4335    0.6223   -2.5734 C   0  0  0  0  0  0  0  0  0  0  0  0
   -2.2974    1.6217   -2.1205 C   0  0  0  0  0  0  0  0  0  0  0  0
   -3.0528    1.4414   -0.9628 C   0  0  0  0  0  0  0  0  0  0  0  0
   -2.0822   -1.7280   -0.1962 H   0  0  0  0  0  0  0  0  0  0  0  0
   -0.6795   -1.3717   -2.2293 H   0  0  0  0  0  0  0  0  0  0  0  0
   -0.8434    0.7803   -3.4711 H   0  0  0  0  0  0  0  0  0  0  0  0
   -2.3800    2.5568   -2.6661 H   0  0  0  0  0  0  0  0  0  0  0  0
   -3.7162    2.2249   -0.6262 H   0  0  0  0  0  0  0  0  0  0  0  0
   -1.7387    3.0793    2.1359 S   0  0  0  0  0  0  0  0  0  0  0  0
   -0.9466    1.8675    2.2424 O   0  0  0  0  0  0  0  0  0  0  0  0
   -3.9626    1.8981    1.6328 O   0  0  0  0  0  0  0  0  0  0  0  0
   -2.4536    3.5827    3.3013 O   0  0  0  0  0  0  0  0  0  0  0  0
   -1.7052    3.8750    0.9210 O   0  0  0  0  0  0  0  0  0  0  0  0
   -4.4058    2.2722    2.4115 H   0  0  0  0  0  0  0  0  0  0  0  0
  1  2  1  0  0  0  0
  2  3  2  0  0  0  0
  4  1  1  0  0  0  0
  4  9  1  0  0  0  0
  5  4  2  0  0  0  0
  6  7  2  0  0  0  0
  6  5  1  0  0  0  0
  7  8  1  0  0  0  0
  8 13  1  0  0  0  0
  8  1  2  0  0  0  0
 10  5  1  0  0  0  0
 11  6  1  0  0  0  0
 12  7  1  0  0  0  0
 14 15  2  0  0  0  0
 14 17  1  0  0  0  0
 16  3  1  0  0  0  0
 16 19  1  0  0  0  0
 18 14  1  0  0  0  0
M  RAD  2  17   2  18   2
M  END
