Coordinates from ORCA-job PhN2+~HSO4-_B3LYPG-6-31G_dp-NX-Scan-d89-09-n800
 OpenBabel11261920153D

 19 19  0  0  1  0  0  0  0  0999 V2000
   -1.6024   -0.5594    0.3385 C   0  0  0  0  0  0  0  0  0  0  0  0
   -1.3208   -1.3911    1.3177 N   0  0  0  0  0  0  0  0  0  0  0  0
   -1.0803   -2.0815    2.1934 N   0  0  0  0  0  0  0  0  0  0  0  0
   -2.6157   -0.8910   -0.6396 C   0  0  0  0  0  0  0  0  0  0  0  0
   -3.0075    0.0451   -1.5274 C   0  0  0  0  0  0  0  0  0  0  0  0
   -2.5531    1.4595   -1.4075 C   0  0  2  0  0  0  0  0  0  0  0  0
   -1.2801    1.6172   -0.6496 C   0  0  0  0  0  0  0  0  0  0  0  0
   -0.8740    0.6854    0.2342 C   0  0  0  0  0  0  0  0  0  0  0  0
   -3.0160   -1.8995   -0.6608 H   0  0  0  0  0  0  0  0  0  0  0  0
   -3.7393   -0.1937   -2.2914 H   0  0  0  0  0  0  0  0  0  0  0  0
   -2.5362    1.9907   -2.3593 H   0  0  0  0  0  0  0  0  0  0  0  0
   -0.7281    2.5409   -0.7689 H   0  0  0  0  0  0  0  0  0  0  0  0
    0.0079    0.8304    0.8496 H   0  0  0  0  0  0  0  0  0  0  0  0
   -3.6066    3.5087    0.1027 S   0  0  0  0  0  0  0  0  0  0  0  0
   -2.5696    4.3279   -0.4972 O   0  0  0  0  0  0  0  0  0  0  0  0
   -3.0059    3.0143    1.5473 O   0  0  0  0  0  0  0  0  0  0  0  0
   -4.9530    3.9982    0.3438 O   0  0  0  0  0  0  0  0  0  0  0  0
   -3.7669    2.1267   -0.6833 O   0  0  0  0  0  0  0  0  0  0  0  0
   -3.7736    2.8334    2.1151 H   0  0  0  0  0  0  0  0  0  0  0  0
  1  2  1  0  0  0  0
  2  3  1  0  0  0  0
  4  1  1  0  0  0  0
  5  6  1  0  0  0  0
  5  4  2  0  0  0  0
  6 11  1  6  0  0  0
  6 18  1  0  0  0  0
  6  7  1  0  0  0  0
  7  8  1  0  0  0  0
  8  1  2  0  0  0  0
  8 13  1  0  0  0  0
  9  4  1  0  0  0  0
 10  5  1  0  0  0  0
 12  7  1  0  0  0  0
 14 17  2  0  0  0  0
 14 16  1  0  0  0  0
 15 14  2  0  0  0  0
 16 19  1  0  0  0  0
 18 14  1  0  0  0  0
M  RAD  3   2   2   3   3   7   2
M  END
