Coordinates from ORCA-job PhN2+~HSO4-_B3LYPG-6-31G_dp-NX-Scan-d89-09-n800
 OpenBabel11261920153D

 19 19  0  0  1  0  0  0  0  0999 V2000
   -1.5771   -0.3418    0.4057 C   0  0  0  0  0  0  0  0  0  0  0  0
   -1.2499   -1.0886    1.4366 N   0  0  0  0  0  0  0  0  0  0  0  0
   -0.9758   -1.7272    2.3415 N   0  0  0  0  0  0  0  0  0  0  0  0
   -2.7877   -0.6251   -0.3306 C   0  0  0  0  0  0  0  0  0  0  0  0
   -3.1940    0.2258   -1.2936 C   0  0  0  0  0  0  0  0  0  0  0  0
   -2.4956    1.5145   -1.5630 C   0  0  2  0  0  0  0  0  0  0  0  0
   -1.1567    1.6324   -0.9255 C   0  0  0  0  0  0  0  0  0  0  0  0
   -0.7459    0.7810    0.0348 C   0  0  0  0  0  0  0  0  0  0  0  0
   -3.3347   -1.5372   -0.1116 H   0  0  0  0  0  0  0  0  0  0  0  0
   -4.0828    0.0097   -1.8776 H   0  0  0  0  0  0  0  0  0  0  0  0
   -2.4601    1.7457   -2.6303 H   0  0  0  0  0  0  0  0  0  0  0  0
   -0.5304    2.4676   -1.2169 H   0  0  0  0  0  0  0  0  0  0  0  0
    0.2113    0.9094    0.5292 H   0  0  0  0  0  0  0  0  0  0  0  0
   -3.4442    3.3645    0.2833 S   0  0  0  0  0  0  0  0  0  0  0  0
   -2.1857    4.0407    0.5233 O   0  0  0  0  0  0  0  0  0  0  0  0
   -3.4503    2.0927    1.3194 O   0  0  0  0  0  0  0  0  0  0  0  0
   -4.7240    4.0410    0.3985 O   0  0  0  0  0  0  0  0  0  0  0  0
   -3.4654    2.6624   -1.1597 O   0  0  0  0  0  0  0  0  0  0  0  0
   -4.3722    1.7946    1.3940 H   0  0  0  0  0  0  0  0  0  0  0  0
  1  2  1  0  0  0  0
  2  3  1  0  0  0  0
  4  9  1  0  0  0  0
  4  1  2  0  0  0  0
  5  4  1  0  0  0  0
  6 11  1  6  0  0  0
  6  5  1  0  0  0  0
  6 18  1  0  0  0  0
  6  7  1  0  0  0  0
  7  8  2  0  0  0  0
  8  1  1  0  0  0  0
  8 13  1  0  0  0  0
 10  5  1  0  0  0  0
 12  7  1  0  0  0  0
 14 17  2  0  0  0  0
 14 15  2  0  0  0  0
 14 16  1  0  0  0  0
 16 19  1  0  0  0  0
 18 14  1  0  0  0  0
M  RAD  3   2   2   3   3   5   2
M  END
