Coordinates from ORCA-job PhN2+~HSO4-_B3LYPG-6-31G_dp-NX-Scan-d89-09-n800
 OpenBabel11261920153D

 19 19  0  0  1  0  0  0  0  0999 V2000
   -1.6342   -0.2735    0.2645 C   0  0  1  0  0  0  0  0  0  0  0  0
   -1.8200   -0.4236    1.5591 N   0  0  0  0  0  0  0  0  0  0  0  0
   -2.0931   -0.3679    2.6600 N   0  0  0  0  0  0  0  0  0  0  0  0
   -2.7002   -0.7075   -0.6215 C   0  0  0  0  0  0  0  0  0  0  0  0
   -3.0440    0.1041   -1.6419 C   0  0  0  0  0  0  0  0  0  0  0  0
   -2.4866    1.4796   -1.6942 C   0  0  2  0  0  0  0  0  0  0  0  0
   -1.1080    1.5856   -1.1658 C   0  0  0  0  0  0  0  0  0  0  0  0
   -0.7304    0.7851   -0.1487 C   0  0  0  0  0  0  0  0  0  0  0  0
   -3.1944   -1.6568   -0.4398 H   0  0  0  0  0  0  0  0  0  0  0  0
   -3.8045   -0.1826   -2.3602 H   0  0  0  0  0  0  0  0  0  0  0  0
   -2.6226    1.9731   -2.6540 H   0  0  0  0  0  0  0  0  0  0  0  0
   -0.4653    2.3827   -1.5202 H   0  0  0  0  0  0  0  0  0  0  0  0
    0.2031    0.9295    0.3854 H   0  0  0  0  0  0  0  0  0  0  0  0
   -3.2962    3.0472    0.5639 S   0  0  0  0  0  0  0  0  0  0  0  0
   -2.0342    3.7620    0.6010 O   0  0  0  0  0  0  0  0  0  0  0  0
   -3.1225    1.7716    1.6199 O   0  0  0  0  0  0  0  0  0  0  0  0
   -4.5548    3.6858    0.9170 O   0  0  0  0  0  0  0  0  0  0  0  0
   -3.5392    2.3571   -0.8508 O   0  0  0  0  0  0  0  0  0  0  0  0
   -3.9740    1.7109    2.0837 H   0  0  0  0  0  0  0  0  0  0  0  0
  1  2  1  1  0  0  0
  2  3  1  0  0  0  0
  4  9  1  0  0  0  0
  4  1  1  0  0  0  0
  5  4  2  0  0  0  0
  6 11  1  6  0  0  0
  6  5  1  0  0  0  0
  6  7  1  0  0  0  0
  6 18  1  0  0  0  0
  7  8  2  0  0  0  0
  8  1  1  0  0  0  0
  8 13  1  0  0  0  0
 10  5  1  0  0  0  0
 12  7  1  0  0  0  0
 14 15  2  0  0  0  0
 14 17  2  0  0  0  0
 14 16  1  0  0  0  0
 16 19  1  0  0  0  0
 18 14  1  0  0  0  0
M  RAD  3   1   2   2   2   3   3
M  END
