Coordinates from ORCA-job PhN2+~HSO4-_B3LYPG-6-31G_dp-NX-Scan-d89-09-n800
 OpenBabel11261920153D

 19 19  0  0  1  0  0  0  0  0999 V2000
   -1.4636   -1.0935    0.1894 C   0  0  0  0  0  0  0  0  0  0  0  0
   -1.0979   -2.3351    0.4398 N   0  0  0  0  0  0  0  0  0  0  0  0
   -0.7832   -3.4161    0.6505 N   0  0  0  0  0  0  0  0  0  0  0  0
   -2.5724   -0.8219   -0.7041 C   0  0  0  0  0  0  0  0  0  0  0  0
   -2.9009    0.4466   -1.0217 C   0  0  0  0  0  0  0  0  0  0  0  0
   -2.1796    1.6372   -0.4790 C   0  0  2  0  0  0  0  0  0  0  0  0
   -1.0599    1.2893    0.4441 C   0  0  0  0  0  0  0  0  0  0  0  0
   -0.7312    0.0192    0.7589 C   0  0  0  0  0  0  0  0  0  0  0  0
   -3.1160   -1.6597   -1.1286 H   0  0  0  0  0  0  0  0  0  0  0  0
   -3.7127    0.6433   -1.7135 H   0  0  0  0  0  0  0  0  0  0  0  0
   -1.8647    2.3175   -1.2761 H   0  0  0  0  0  0  0  0  0  0  0  0
   -0.4931    2.1137    0.8636 H   0  0  0  0  0  0  0  0  0  0  0  0
    0.1013   -0.1905    1.4235 H   0  0  0  0  0  0  0  0  0  0  0  0
   -4.1636    3.4964   -0.3832 S   0  0  0  0  0  0  0  0  0  0  0  0
   -4.0998    3.2882   -1.8186 O   0  0  0  0  0  0  0  0  0  0  0  0
   -3.4925    4.9724   -0.1327 O   0  0  0  0  0  0  0  0  0  0  0  0
   -5.4082    3.4648    0.3652 O   0  0  0  0  0  0  0  0  0  0  0  0
   -3.1475    2.4916    0.3638 O   0  0  0  0  0  0  0  0  0  0  0  0
   -3.8356    5.2988    0.7162 H   0  0  0  0  0  0  0  0  0  0  0  0
  1  2  1  0  0  0  0
  1  8  2  0  0  0  0
  2  3  1  0  0  0  0
  4  1  1  0  0  0  0
  5  4  2  0  0  0  0
  5  6  1  0  0  0  0
  6 11  1  6  0  0  0
  6 18  1  0  0  0  0
  6  7  1  0  0  0  0
  7  8  1  0  0  0  0
  7 12  1  0  0  0  0
  8 13  1  0  0  0  0
  9  4  1  0  0  0  0
 10  5  1  0  0  0  0
 14 16  1  0  0  0  0
 14 18  1  0  0  0  0
 14 17  2  0  0  0  0
 15 14  2  0  0  0  0
 16 19  1  0  0  0  0
M  RAD  3   2   2   3   3   7   2
M  END
