Coordinates from ORCA-job PhN2+~HSO4-_B3LYPG-6-31G_dp-NX-Scan-d89-09-n800
 OpenBabel11261920153D

 19 19  0  0  1  0  0  0  0  0999 V2000
   -1.6092   -0.2811    0.3633 C   0  0  1  0  0  0  0  0  0  0  0  0
   -1.4454   -0.8275    1.5467 N   0  0  0  0  0  0  0  0  0  0  0  0
   -1.3334   -1.2682    2.5914 N   0  0  0  0  0  0  0  0  0  0  0  0
   -2.7793   -0.6164   -0.4166 C   0  0  0  0  0  0  0  0  0  0  0  0
   -3.1570    0.2042   -1.4171 C   0  0  0  0  0  0  0  0  0  0  0  0
   -2.4917    1.5173   -1.6334 C   0  0  2  0  0  0  0  0  0  0  0  0
   -1.1322    1.6176   -1.0453 C   0  0  0  0  0  0  0  0  0  0  0  0
   -0.7422    0.8000   -0.0472 C   0  0  0  0  0  0  0  0  0  0  0  0
   -3.3178   -1.5324   -0.1929 H   0  0  0  0  0  0  0  0  0  0  0  0
   -4.0086   -0.0419   -2.0429 H   0  0  0  0  0  0  0  0  0  0  0  0
   -2.5192    1.8351   -2.6763 H   0  0  0  0  0  0  0  0  0  0  0  0
   -0.4889    2.4247   -1.3763 H   0  0  0  0  0  0  0  0  0  0  0  0
    0.2102    0.9311    0.4557 H   0  0  0  0  0  0  0  0  0  0  0  0
   -3.3786    3.2321    0.3953 S   0  0  0  0  0  0  0  0  0  0  0  0
   -2.1137    3.9060    0.6091 O   0  0  0  0  0  0  0  0  0  0  0  0
   -3.3305    1.9065    1.3722 O   0  0  0  0  0  0  0  0  0  0  0  0
   -4.6556    3.8875    0.6216 O   0  0  0  0  0  0  0  0  0  0  0  0
   -3.4729    2.6151   -1.0791 O   0  0  0  0  0  0  0  0  0  0  0  0
   -4.2552    1.6527    1.5295 H   0  0  0  0  0  0  0  0  0  0  0  0
  1  2  1  1  0  0  0
  2  3  1  0  0  0  0
  4  9  1  0  0  0  0
  4  1  1  0  0  0  0
  5  4  2  0  0  0  0
  6 11  1  6  0  0  0
  6  5  1  0  0  0  0
  6 18  1  0  0  0  0
  6  7  1  0  0  0  0
  7  8  2  0  0  0  0
  8  1  1  0  0  0  0
  8 13  1  0  0  0  0
 10  5  1  0  0  0  0
 12  7  1  0  0  0  0
 14 15  2  0  0  0  0
 14 17  2  0  0  0  0
 14 16  1  0  0  0  0
 16 19  1  0  0  0  0
 18 14  1  0  0  0  0
M  RAD  3   1   2   2   2   3   3
M  END
