Coordinates from ORCA-job PhN2+~HSO4-_B3LYPG-6-31G_dp-NX-Scan-d89-09-n800
 OpenBabel11261920153D

 19 19  0  0  1  0  0  0  0  0999 V2000
   -1.5326   -0.7421    0.3014 C   0  0  0  0  0  0  0  0  0  0  0  0
   -1.1457   -1.7133    1.0986 N   0  0  0  0  0  0  0  0  0  0  0  0
   -0.8096   -2.5389    1.8116 N   0  0  0  0  0  0  0  0  0  0  0  0
   -2.5696   -0.9713   -0.6810 C   0  0  0  0  0  0  0  0  0  0  0  0
   -3.0179    0.0546   -1.4310 C   0  0  0  0  0  0  0  0  0  0  0  0
   -2.5739    1.4571   -1.1931 C   0  0  2  0  0  0  0  0  0  0  0  0
   -1.3389    1.5721   -0.3647 C   0  0  0  0  0  0  0  0  0  0  0  0
   -0.8856    0.5493    0.3847 C   0  0  0  0  0  0  0  0  0  0  0  0
   -2.9455   -1.9800   -0.8195 H   0  0  0  0  0  0  0  0  0  0  0  0
   -3.7745   -0.1121   -2.1902 H   0  0  0  0  0  0  0  0  0  0  0  0
   -2.5098    2.0465   -2.1093 H   0  0  0  0  0  0  0  0  0  0  0  0
   -0.8374    2.5328   -0.3424 H   0  0  0  0  0  0  0  0  0  0  0  0
   -0.0175    0.6588    1.0271 H   0  0  0  0  0  0  0  0  0  0  0  0
   -3.7360    3.6370   -0.0773 S   0  0  0  0  0  0  0  0  0  0  0  0
   -2.8465    4.3522   -0.9740 O   0  0  0  0  0  0  0  0  0  0  0  0
   -2.9590    3.6077    1.3632 O   0  0  0  0  0  0  0  0  0  0  0  0
   -5.1075    4.0439    0.1695 O   0  0  0  0  0  0  0  0  0  0  0  0
   -3.7864    2.0815   -0.4610 O   0  0  0  0  0  0  0  0  0  0  0  0
   -3.6273    3.4265    2.0451 H   0  0  0  0  0  0  0  0  0  0  0  0
  1  8  1  0  0  0  0
  1  2  1  0  0  0  0
  2  3  1  0  0  0  0
  4  1  2  0  0  0  0
  5  6  1  0  0  0  0
  5  4  1  0  0  0  0
  6 11  1  6  0  0  0
  6 18  1  0  0  0  0
  6  7  1  0  0  0  0
  7 12  1  0  0  0  0
  7  8  2  0  0  0  0
  8 13  1  0  0  0  0
  9  4  1  0  0  0  0
 10  5  1  0  0  0  0
 14 17  2  0  0  0  0
 14 16  1  0  0  0  0
 15 14  2  0  0  0  0
 16 19  1  0  0  0  0
 18 14  1  0  0  0  0
M  RAD  3   2   2   3   3   5   2
M  END
