Coordinates from ORCA-job PhN2+~HSO4-_B3LYPG-6-31G_dp-NX-Scan-d89-09-n800
 OpenBabel11261920153D

 19 19  0  0  1  0  0  0  0  0999 V2000
   -1.4400   -0.9921    0.2241 C   0  0  0  0  0  0  0  0  0  0  0  0
   -0.9778   -2.1385    0.6730 N   0  0  0  0  0  0  0  0  0  0  0  0
   -0.5813   -3.1360    1.0655 N   0  0  0  0  0  0  0  0  0  0  0  0
   -2.4937   -0.9756   -0.7682 C   0  0  0  0  0  0  0  0  0  0  0  0
   -2.9550    0.1976   -1.2420 C   0  0  0  0  0  0  0  0  0  0  0  0
   -2.4679    1.5153   -0.7443 C   0  0  2  0  0  0  0  0  0  0  0  0
   -1.3263    1.4270    0.2107 C   0  0  0  0  0  0  0  0  0  0  0  0
   -0.8646    0.2535    0.6852 C   0  0  0  0  0  0  0  0  0  0  0  0
   -2.8801   -1.9209   -1.1353 H   0  0  0  0  0  0  0  0  0  0  0  0
   -3.7311    0.2149   -2.0002 H   0  0  0  0  0  0  0  0  0  0  0  0
   -2.2802    2.2141   -1.5637 H   0  0  0  0  0  0  0  0  0  0  0  0
   -0.8816    2.3609    0.5375 H   0  0  0  0  0  0  0  0  0  0  0  0
   -0.0435    0.2171    1.3945 H   0  0  0  0  0  0  0  0  0  0  0  0
   -4.0727    3.6525   -0.3169 S   0  0  0  0  0  0  0  0  0  0  0  0
   -3.8430    3.9555   -1.7167 O   0  0  0  0  0  0  0  0  0  0  0  0
   -2.9331    4.5089    0.4930 O   0  0  0  0  0  0  0  0  0  0  0  0
   -5.3462    3.8701    0.3433 O   0  0  0  0  0  0  0  0  0  0  0  0
   -3.6587    2.1357    0.0090 O   0  0  0  0  0  0  0  0  0  0  0  0
   -3.2444    4.6023    1.4090 H   0  0  0  0  0  0  0  0  0  0  0  0
  1  2  1  0  0  0  0
  1  8  1  0  0  0  0
  2  3  1  0  0  0  0
  4  1  2  0  0  0  0
  5  4  1  0  0  0  0
  5  6  1  0  0  0  0
  6 11  1  6  0  0  0
  6 18  1  0  0  0  0
  6  7  1  0  0  0  0
  7 12  1  0  0  0  0
  7  8  2  0  0  0  0
  8 13  1  0  0  0  0
  9  4  1  0  0  0  0
 10  5  1  0  0  0  0
 14 18  1  0  0  0  0
 14 17  2  0  0  0  0
 14 16  1  0  0  0  0
 15 14  2  0  0  0  0
 16 19  1  0  0  0  0
M  RAD  3   2   2   3   3   5   2
M  END
