Coordinates from ORCA-job PhN2+~HSO4-_B3LYPG-6-31G_dp-NX-Scan-d89-09-n800
 OpenBabel11261920163D

 19 18  0  0  0  0  0  0  0  0999 V2000
   -3.2732    0.1813   -0.2180 C   0  0  0  0  0  0  0  0  0  0  0  0
   -4.3323   -0.3227    0.6042 N   0  0  0  0  0  0  0  0  0  0  0  0
   -4.5589    0.3119    1.7141 N   0  0  0  0  0  0  0  0  0  0  0  0
   -2.2979   -0.7273   -0.6472 C   0  0  0  0  0  0  0  0  0  0  0  0
   -1.3077   -0.3411   -1.5523 C   0  0  0  0  0  0  0  0  0  0  0  0
   -1.2770    0.9585   -2.0600 C   0  0  0  0  0  0  0  0  0  0  0  0
   -2.2538    1.8725   -1.6572 C   0  0  0  0  0  0  0  0  0  0  0  0
   -3.2384    1.4978   -0.7321 C   0  0  0  0  0  0  0  0  0  0  0  0
   -2.3371   -1.7421   -0.2643 H   0  0  0  0  0  0  0  0  0  0  0  0
   -0.5590   -1.0634   -1.8658 H   0  0  0  0  0  0  0  0  0  0  0  0
   -0.5115    1.2548   -2.7705 H   0  0  0  0  0  0  0  0  0  0  0  0
   -2.2595    2.8782   -2.0663 H   0  0  0  0  0  0  0  0  0  0  0  0
   -4.0236    2.2011   -0.4707 H   0  0  0  0  0  0  0  0  0  0  0  0
   -1.4232    3.0677    1.1349 S   0  0  0  0  0  0  0  0  0  0  0  0
   -0.7457    1.8657    1.5904 O   0  0  0  0  0  0  0  0  0  0  0  0
   -3.9905    1.0749    1.9879 O   0  0  0  0  0  0  0  0  0  0  0  0
   -2.6451    3.5022    1.8058 O   0  0  0  0  0  0  0  0  0  0  0  0
   -0.7903    3.9572    0.1752 O   0  0  0  0  0  0  0  0  0  0  0  0
   -4.1965    1.5352    2.8493 H   0  0  0  0  0  0  0  0  0  0  0  0
  1  2  1  0  0  0  0
  2  3  2  0  0  0  0
  3 16  1  0  0  0  0
  4  9  1  0  0  0  0
  4  1  1  0  0  0  0
  5  4  2  0  0  0  0
  6  7  2  0  0  0  0
  6  5  1  0  0  0  0
  7  8  1  0  0  0  0
  8 13  1  0  0  0  0
  8  1  2  0  0  0  0
 10  5  1  0  0  0  0
 11  6  1  0  0  0  0
 12  7  1  0  0  0  0
 14 15  2  0  0  0  0
 14 17  1  0  0  0  0
 16 19  1  0  0  0  0
 18 14  1  0  0  0  0
M  RAD  2  17   2  18   2
M  END
