Coordinates from ORCA-job PhN2+~HSO4-_B3LYPG-6-31G_dp-NX-Scan-d89-09-n800
 OpenBabel11261920153D

 19 19  0  0  1  0  0  0  0  0999 V2000
   -1.5420   -0.3843    0.4123 C   0  0  0  0  0  0  0  0  0  0  0  0
   -1.1479   -1.2033    1.3623 N   0  0  0  0  0  0  0  0  0  0  0  0
   -0.8097   -1.9103    2.1926 N   0  0  0  0  0  0  0  0  0  0  0  0
   -2.7783   -0.6394   -0.2916 C   0  0  0  0  0  0  0  0  0  0  0  0
   -3.2071    0.2313   -1.2265 C   0  0  0  0  0  0  0  0  0  0  0  0
   -2.4958    1.5085   -1.5224 C   0  0  2  0  0  0  0  0  0  0  0  0
   -1.1645    1.6363   -0.8671 C   0  0  0  0  0  0  0  0  0  0  0  0
   -0.7338    0.7632    0.0643 C   0  0  0  0  0  0  0  0  0  0  0  0
   -3.3283   -1.5497   -0.0728 H   0  0  0  0  0  0  0  0  0  0  0  0
   -4.1181    0.0335   -1.7820 H   0  0  0  0  0  0  0  0  0  0  0  0
   -2.4349    1.6987   -2.5978 H   0  0  0  0  0  0  0  0  0  0  0  0
   -0.5526    2.4894   -1.1361 H   0  0  0  0  0  0  0  0  0  0  0  0
    0.2274    0.8918    0.5508 H   0  0  0  0  0  0  0  0  0  0  0  0
   -3.4752    3.4219    0.2342 S   0  0  0  0  0  0  0  0  0  0  0  0
   -2.2066    4.0665    0.5052 O   0  0  0  0  0  0  0  0  0  0  0  0
   -3.5642    2.1856    1.3049 O   0  0  0  0  0  0  0  0  0  0  0  0
   -4.7359    4.1410    0.2694 O   0  0  0  0  0  0  0  0  0  0  0  0
   -3.4587    2.6726   -1.1866 O   0  0  0  0  0  0  0  0  0  0  0  0
   -4.4949    1.9092    1.3443 H   0  0  0  0  0  0  0  0  0  0  0  0
  1  2  1  0  0  0  0
  2  3  1  0  0  0  0
  4  9  1  0  0  0  0
  4  1  2  0  0  0  0
  5  4  1  0  0  0  0
  6 11  1  6  0  0  0
  6  5  1  0  0  0  0
  6 18  1  0  0  0  0
  6  7  1  0  0  0  0
  7  8  2  0  0  0  0
  8  1  1  0  0  0  0
  8 13  1  0  0  0  0
 10  5  1  0  0  0  0
 12  7  1  0  0  0  0
 14 17  2  0  0  0  0
 14 15  2  0  0  0  0
 14 16  1  0  0  0  0
 16 19  1  0  0  0  0
 18 14  1  0  0  0  0
M  RAD  3   2   2   3   3   5   2
M  END
