Coordinates from ORCA-job PhN2+~HSO4-_B3LYPG-6-31G_dp-NX-Scan-d89-09-n800
 OpenBabel11261920153D

 19 19  0  0  1  0  0  0  0  0999 V2000
   -1.5738   -0.6474    0.3192 C   0  0  0  0  0  0  0  0  0  0  0  0
   -1.2546   -1.5426    1.2278 N   0  0  0  0  0  0  0  0  0  0  0  0
   -0.9783   -2.2919    2.0427 N   0  0  0  0  0  0  0  0  0  0  0  0
   -2.5884   -0.9345   -0.6715 C   0  0  0  0  0  0  0  0  0  0  0  0
   -3.0041    0.0458   -1.4983 C   0  0  0  0  0  0  0  0  0  0  0  0
   -2.5658    1.4579   -1.3105 C   0  0  2  0  0  0  0  0  0  0  0  0
   -1.3084    1.5987   -0.5219 C   0  0  0  0  0  0  0  0  0  0  0  0
   -0.8825    0.6230    0.3026 C   0  0  0  0  0  0  0  0  0  0  0  0
   -2.9714   -1.9467   -0.7524 H   0  0  0  0  0  0  0  0  0  0  0  0
   -3.7392   -0.1607   -2.2686 H   0  0  0  0  0  0  0  0  0  0  0  0
   -2.5355    2.0276   -2.2400 H   0  0  0  0  0  0  0  0  0  0  0  0
   -0.7807    2.5433   -0.5765 H   0  0  0  0  0  0  0  0  0  0  0  0
   -0.0090    0.7525    0.9335 H   0  0  0  0  0  0  0  0  0  0  0  0
   -3.6698    3.5671    0.0217 S   0  0  0  0  0  0  0  0  0  0  0  0
   -2.7153    4.3492   -0.7427 O   0  0  0  0  0  0  0  0  0  0  0  0
   -2.9599    3.3071    1.4757 O   0  0  0  0  0  0  0  0  0  0  0  0
   -5.0297    4.0094    0.2748 O   0  0  0  0  0  0  0  0  0  0  0  0
   -3.7791    2.0819   -0.5652 O   0  0  0  0  0  0  0  0  0  0  0  0
   -3.6752    3.1227    2.1073 H   0  0  0  0  0  0  0  0  0  0  0  0
  1  2  1  0  0  0  0
  2  3  1  0  0  0  0
  4  1  1  0  0  0  0
  5  6  1  0  0  0  0
  5  4  2  0  0  0  0
  6 11  1  6  0  0  0
  6 18  1  0  0  0  0
  6  7  1  0  0  0  0
  7  8  1  0  0  0  0
  8  1  2  0  0  0  0
  8 13  1  0  0  0  0
  9  4  1  0  0  0  0
 10  5  1  0  0  0  0
 12  7  1  0  0  0  0
 14 17  2  0  0  0  0
 14 16  1  0  0  0  0
 15 14  2  0  0  0  0
 16 19  1  0  0  0  0
 18 14  1  0  0  0  0
M  RAD  3   2   2   3   3   7   2
M  END
