Coordinates from ORCA-job PhN2+~HSO4-_B3LYPG-6-31G_dp-NX-Scan-d89-09-n800
 OpenBabel11261920153D

 19 19  0  0  1  0  0  0  0  0999 V2000
   -1.5970   -0.5868    0.3316 C   0  0  0  0  0  0  0  0  0  0  0  0
   -1.3119   -1.4351    1.2952 N   0  0  0  0  0  0  0  0  0  0  0  0
   -1.0671   -2.1396    2.1585 N   0  0  0  0  0  0  0  0  0  0  0  0
   -2.6044   -0.9064   -0.6566 C   0  0  0  0  0  0  0  0  0  0  0  0
   -3.0012    0.0441   -1.5265 C   0  0  0  0  0  0  0  0  0  0  0  0
   -2.5577    1.4593   -1.3773 C   0  0  2  0  0  0  0  0  0  0  0  0
   -1.2890    1.6120   -0.6106 C   0  0  0  0  0  0  0  0  0  0  0  0
   -0.8789    0.6663    0.2562 C   0  0  0  0  0  0  0  0  0  0  0  0
   -2.9962   -1.9176   -0.6998 H   0  0  0  0  0  0  0  0  0  0  0  0
   -3.7285   -0.1851   -2.2978 H   0  0  0  0  0  0  0  0  0  0  0  0
   -2.5406    2.0093   -2.3185 H   0  0  0  0  0  0  0  0  0  0  0  0
   -0.7443    2.5428   -0.7093 H   0  0  0  0  0  0  0  0  0  0  0  0
   -0.0013    0.8063    0.8789 H   0  0  0  0  0  0  0  0  0  0  0  0
   -3.6292    3.5238    0.0786 S   0  0  0  0  0  0  0  0  0  0  0  0
   -2.6310    4.3381   -0.5901 O   0  0  0  0  0  0  0  0  0  0  0  0
   -2.9732    3.1155    1.5252 O   0  0  0  0  0  0  0  0  0  0  0  0
   -4.9813    3.9889    0.3348 O   0  0  0  0  0  0  0  0  0  0  0  0
   -3.7714    2.1006   -0.6366 O   0  0  0  0  0  0  0  0  0  0  0  0
   -3.7169    2.9261    2.1215 H   0  0  0  0  0  0  0  0  0  0  0  0
  1  2  1  0  0  0  0
  2  3  1  0  0  0  0
  4  1  1  0  0  0  0
  5  6  1  0  0  0  0
  5  4  2  0  0  0  0
  6 11  1  6  0  0  0
  6 18  1  0  0  0  0
  6  7  1  0  0  0  0
  7  8  1  0  0  0  0
  8  1  2  0  0  0  0
  8 13  1  0  0  0  0
  9  4  1  0  0  0  0
 10  5  1  0  0  0  0
 12  7  1  0  0  0  0
 14 17  2  0  0  0  0
 14 16  1  0  0  0  0
 15 14  2  0  0  0  0
 16 19  1  0  0  0  0
 18 14  1  0  0  0  0
M  RAD  3   2   2   3   3   7   2
M  END
