Coordinates from ORCA-job PhN2+~HSO4-_B3LYPG-6-31G_dp-NX-Scan-d89-09-n800
 OpenBabel11261920153D

 19 19  0  0  1  0  0  0  0  0999 V2000
   -1.5604   -0.6786    0.3133 C   0  0  0  0  0  0  0  0  0  0  0  0
   -1.2188   -1.5992    1.1876 N   0  0  0  0  0  0  0  0  0  0  0  0
   -0.9222   -2.3735    1.9717 N   0  0  0  0  0  0  0  0  0  0  0  0
   -2.5820   -0.9475   -0.6752 C   0  0  0  0  0  0  0  0  0  0  0  0
   -3.0085    0.0476   -1.4781 C   0  0  0  0  0  0  0  0  0  0  0  0
   -2.5694    1.4572   -1.2743 C   0  0  2  0  0  0  0  0  0  0  0  0
   -1.3191    1.5910   -0.4728 C   0  0  0  0  0  0  0  0  0  0  0  0
   -0.8840    0.5999    0.3281 C   0  0  0  0  0  0  0  0  0  0  0  0
   -2.9622   -1.9592   -0.7744 H   0  0  0  0  0  0  0  0  0  0  0  0
   -3.7505   -0.1466   -2.2451 H   0  0  0  0  0  0  0  0  0  0  0  0
   -2.5286    2.0336   -2.1996 H   0  0  0  0  0  0  0  0  0  0  0  0
   -0.8002    2.5418   -0.5033 H   0  0  0  0  0  0  0  0  0  0  0  0
   -0.0121    0.7238    0.9626 H   0  0  0  0  0  0  0  0  0  0  0  0
   -3.6900    3.5904   -0.0096 S   0  0  0  0  0  0  0  0  0  0  0  0
   -2.7538    4.3521   -0.8161 O   0  0  0  0  0  0  0  0  0  0  0  0
   -2.9600    3.4014    1.4448 O   0  0  0  0  0  0  0  0  0  0  0  0
   -5.0534    4.0239    0.2394 O   0  0  0  0  0  0  0  0  0  0  0  0
   -3.7830    2.0799   -0.5333 O   0  0  0  0  0  0  0  0  0  0  0  0
   -3.6631    3.2242    2.0919 H   0  0  0  0  0  0  0  0  0  0  0  0
  1  8  2  0  0  0  0
  1  2  1  0  0  0  0
  2  3  1  0  0  0  0
  4  1  1  0  0  0  0
  5  6  1  0  0  0  0
  5  4  2  0  0  0  0
  6 11  1  6  0  0  0
  6 18  1  0  0  0  0
  6  7  1  0  0  0  0
  7  8  1  0  0  0  0
  8 13  1  0  0  0  0
  9  4  1  0  0  0  0
 10  5  1  0  0  0  0
 12  7  1  0  0  0  0
 14 17  2  0  0  0  0
 14 16  1  0  0  0  0
 15 14  2  0  0  0  0
 16 19  1  0  0  0  0
 18 14  1  0  0  0  0
M  RAD  3   2   2   3   3   7   2
M  END
