Coordinates from ORCA-job PhN2+~HSO4-_B3LYPG-6-31G_dp-NX-Scan-d89-09-n800
 OpenBabel11261920153D

 19 19  0  0  1  0  0  0  0  0999 V2000
   -1.4592   -1.0546    0.1758 C   0  0  0  0  0  0  0  0  0  0  0  0
   -1.1020   -2.2860    0.4727 N   0  0  0  0  0  0  0  0  0  0  0  0
   -0.7956   -3.3575    0.7286 N   0  0  0  0  0  0  0  0  0  0  0  0
   -2.5019   -0.8145   -0.8006 C   0  0  0  0  0  0  0  0  0  0  0  0
   -2.8492    0.4457   -1.1261 C   0  0  0  0  0  0  0  0  0  0  0  0
   -2.2379    1.6436   -0.4796 C   0  0  2  0  0  0  0  0  0  0  0  0
   -1.1289    1.3287    0.4655 C   0  0  0  0  0  0  0  0  0  0  0  0
   -0.7813    0.0671    0.7890 C   0  0  0  0  0  0  0  0  0  0  0  0
   -2.9768   -1.6668   -1.2757 H   0  0  0  0  0  0  0  0  0  0  0  0
   -3.6148    0.6322   -1.8711 H   0  0  0  0  0  0  0  0  0  0  0  0
   -1.9511    2.4030   -1.2133 H   0  0  0  0  0  0  0  0  0  0  0  0
   -0.6058    2.1677    0.9116 H   0  0  0  0  0  0  0  0  0  0  0  0
    0.0245   -0.1298    1.4896 H   0  0  0  0  0  0  0  0  0  0  0  0
   -4.2403    3.4483   -0.3139 S   0  0  0  0  0  0  0  0  0  0  0  0
   -4.3928    3.1681   -1.7294 O   0  0  0  0  0  0  0  0  0  0  0  0
   -3.3007    4.7895   -0.2518 O   0  0  0  0  0  0  0  0  0  0  0  0
   -5.3632    3.6517    0.5823 O   0  0  0  0  0  0  0  0  0  0  0  0
   -3.3118    2.3351    0.3803 O   0  0  0  0  0  0  0  0  0  0  0  0
   -3.4322    5.1908    0.6237 H   0  0  0  0  0  0  0  0  0  0  0  0
  1  2  1  0  0  0  0
  1  8  2  0  0  0  0
  2  3  1  0  0  0  0
  4  1  1  0  0  0  0
  5  4  2  0  0  0  0
  5  6  1  0  0  0  0
  6 11  1  6  0  0  0
  6 18  1  0  0  0  0
  6  7  1  0  0  0  0
  7  8  1  0  0  0  0
  7 12  1  0  0  0  0
  8 13  1  0  0  0  0
  9  4  1  0  0  0  0
 10  5  1  0  0  0  0
 14 16  1  0  0  0  0
 14 18  1  0  0  0  0
 14 17  2  0  0  0  0
 15 14  2  0  0  0  0
 16 19  1  0  0  0  0
M  RAD  3   2   2   3   3   7   2
M  END
