Coordinates from ORCA-job PhN2+~HSO4-_B3LYPG-6-31G_dp-NX-Scan-d89-09-n800
 OpenBabel11261920153D

 19 19  0  0  1  0  0  0  0  0999 V2000
   -1.6105   -0.2656    0.3209 C   0  0  1  0  0  0  0  0  0  0  0  0
   -1.5868   -0.6376    1.5811 N   0  0  0  0  0  0  0  0  0  0  0  0
   -1.6208   -0.8964    2.6888 N   0  0  0  0  0  0  0  0  0  0  0  0
   -2.7538   -0.6348   -0.4871 C   0  0  0  0  0  0  0  0  0  0  0  0
   -3.1218    0.1760   -1.4990 C   0  0  0  0  0  0  0  0  0  0  0  0
   -2.4878    1.5098   -1.6681 C   0  0  2  0  0  0  0  0  0  0  0  0
   -1.1154    1.6046   -1.1146 C   0  0  0  0  0  0  0  0  0  0  0  0
   -0.7288    0.8001   -0.1045 C   0  0  0  0  0  0  0  0  0  0  0  0
   -3.2820   -1.5575   -0.2666 H   0  0  0  0  0  0  0  0  0  0  0  0
   -3.9479   -0.0864   -2.1514 H   0  0  0  0  0  0  0  0  0  0  0  0
   -2.5607    1.8909   -2.6860 H   0  0  0  0  0  0  0  0  0  0  0  0
   -0.4697    2.4019   -1.4641 H   0  0  0  0  0  0  0  0  0  0  0  0
    0.2196    0.9368    0.4047 H   0  0  0  0  0  0  0  0  0  0  0  0
   -3.3374    3.1428    0.4723 S   0  0  0  0  0  0  0  0  0  0  0  0
   -2.0638    3.8094    0.6581 O   0  0  0  0  0  0  0  0  0  0  0  0
   -3.2729    1.8045    1.4411 O   0  0  0  0  0  0  0  0  0  0  0  0
   -4.6042    3.7979    0.7534 O   0  0  0  0  0  0  0  0  0  0  0  0
   -3.4823    2.5527   -1.0057 O   0  0  0  0  0  0  0  0  0  0  0  0
   -4.1941    1.6131    1.6843 H   0  0  0  0  0  0  0  0  0  0  0  0
  1  2  1  1  0  0  0
  2  3  1  0  0  0  0
  4  9  1  0  0  0  0
  4  1  1  0  0  0  0
  5  4  2  0  0  0  0
  6 11  1  6  0  0  0
  6  5  1  0  0  0  0
  6  7  1  0  0  0  0
  6 18  1  0  0  0  0
  7  8  2  0  0  0  0
  8  1  1  0  0  0  0
  8 13  1  0  0  0  0
 10  5  1  0  0  0  0
 12  7  1  0  0  0  0
 14 15  2  0  0  0  0
 14 17  2  0  0  0  0
 14 16  1  0  0  0  0
 16 19  1  0  0  0  0
 18 14  1  0  0  0  0
M  RAD  3   1   2   2   2   3   3
M  END
