Coordinates from ORCA-job PhN2+~HSO4-_B3LYPG-6-31G_dp-NX-Scan-d89-09-n800
 OpenBabel11261920153D

 19 19  0  0  1  0  0  0  0  0999 V2000
   -1.6095   -0.2638    0.3099 C   0  0  1  0  0  0  0  0  0  0  0  0
   -1.6250   -0.5874    1.5838 N   0  0  0  0  0  0  0  0  0  0  0  0
   -1.7020   -0.7928    2.6999 N   0  0  0  0  0  0  0  0  0  0  0  0
   -2.7451   -0.6424   -0.5063 C   0  0  0  0  0  0  0  0  0  0  0  0
   -3.1113    0.1669   -1.5199 C   0  0  0  0  0  0  0  0  0  0  0  0
   -2.4868    1.5066   -1.6751 C   0  0  2  0  0  0  0  0  0  0  0  0
   -1.1112    1.6010   -1.1307 C   0  0  0  0  0  0  0  0  0  0  0  0
   -0.7244    0.7989   -0.1187 C   0  0  0  0  0  0  0  0  0  0  0  0
   -3.2696   -1.5677   -0.2878 H   0  0  0  0  0  0  0  0  0  0  0  0
   -3.9301   -0.0996   -2.1798 H   0  0  0  0  0  0  0  0  0  0  0  0
   -2.5720    1.9045   -2.6853 H   0  0  0  0  0  0  0  0  0  0  0  0
   -0.4657    2.3964   -1.4847 H   0  0  0  0  0  0  0  0  0  0  0  0
    0.2231    0.9372    0.3918 H   0  0  0  0  0  0  0  0  0  0  0  0
   -3.3271    3.1199    0.4926 S   0  0  0  0  0  0  0  0  0  0  0  0
   -2.0508    3.7843    0.6687 O   0  0  0  0  0  0  0  0  0  0  0  0
   -3.2597    1.7819    1.4646 O   0  0  0  0  0  0  0  0  0  0  0  0
   -4.5903    3.7772    0.7853 O   0  0  0  0  0  0  0  0  0  0  0  0
   -3.4856    2.5314   -0.9838 O   0  0  0  0  0  0  0  0  0  0  0  0
   -4.1777    1.6097    1.7329 H   0  0  0  0  0  0  0  0  0  0  0  0
  1  2  1  1  0  0  0
  2  3  1  0  0  0  0
  4  9  1  0  0  0  0
  4  1  1  0  0  0  0
  5  4  2  0  0  0  0
  6 11  1  6  0  0  0
  6  5  1  0  0  0  0
  6  7  1  0  0  0  0
  6 18  1  0  0  0  0
  7  8  2  0  0  0  0
  8  1  1  0  0  0  0
  8 13  1  0  0  0  0
 10  5  1  0  0  0  0
 12  7  1  0  0  0  0
 14 15  2  0  0  0  0
 14 17  2  0  0  0  0
 14 16  1  0  0  0  0
 16 19  1  0  0  0  0
 18 14  1  0  0  0  0
M  RAD  3   1   2   2   2   3   3
M  END
