Coordinates from ORCA-job PhN2+~HSO4-_B3LYPG-6-31G_dp-NX-Scan-d89-09-n800
 OpenBabel11261920153D

 19 19  0  0  1  0  0  0  0  0999 V2000
   -1.6008   -0.2950    0.3810 C   0  0  1  0  0  0  0  0  0  0  0  0
   -1.3756   -0.9158    1.5168 N   0  0  0  0  0  0  0  0  0  0  0  0
   -1.2025   -1.4303    2.5193 N   0  0  0  0  0  0  0  0  0  0  0  0
   -2.7854   -0.6129   -0.3833 C   0  0  0  0  0  0  0  0  0  0  0  0
   -3.1714    0.2153   -1.3744 C   0  0  0  0  0  0  0  0  0  0  0  0
   -2.4924    1.5186   -1.6124 C   0  0  2  0  0  0  0  0  0  0  0  0
   -1.1384    1.6225   -1.0099 C   0  0  0  0  0  0  0  0  0  0  0  0
   -0.7429    0.7958   -0.0216 C   0  0  0  0  0  0  0  0  0  0  0  0
   -3.3283   -1.5261   -0.1584 H   0  0  0  0  0  0  0  0  0  0  0  0
   -4.0365   -0.0211   -1.9852 H   0  0  0  0  0  0  0  0  0  0  0  0
   -2.4995    1.8054   -2.6652 H   0  0  0  0  0  0  0  0  0  0  0  0
   -0.4985    2.4361   -1.3314 H   0  0  0  0  0  0  0  0  0  0  0  0
    0.2122    0.9247    0.4768 H   0  0  0  0  0  0  0  0  0  0  0  0
   -3.4007    3.2745    0.3599 S   0  0  0  0  0  0  0  0  0  0  0  0
   -2.1369    3.9443    0.5911 O   0  0  0  0  0  0  0  0  0  0  0  0
   -3.3765    1.9598    1.3480 O   0  0  0  0  0  0  0  0  0  0  0  0
   -4.6781    3.9399    0.5493 O   0  0  0  0  0  0  0  0  0  0  0  0
   -3.4669    2.6385   -1.1095 O   0  0  0  0  0  0  0  0  0  0  0  0
   -4.3020    1.6883    1.4666 H   0  0  0  0  0  0  0  0  0  0  0  0
  1  2  1  1  0  0  0
  2  3  1  0  0  0  0
  4  9  1  0  0  0  0
  4  1  1  0  0  0  0
  5  4  2  0  0  0  0
  6 11  1  6  0  0  0
  6  5  1  0  0  0  0
  6 18  1  0  0  0  0
  6  7  1  0  0  0  0
  7  8  2  0  0  0  0
  8  1  1  0  0  0  0
  8 13  1  0  0  0  0
 10  5  1  0  0  0  0
 12  7  1  0  0  0  0
 14 17  2  0  0  0  0
 14 15  2  0  0  0  0
 14 16  1  0  0  0  0
 16 19  1  0  0  0  0
 18 14  1  0  0  0  0
M  RAD  3   1   2   2   2   3   3
M  END
