Coordinates from ORCA-job PhN2+~HSO4-_B3LYPG-6-31G_dp-NX-Scan-d89-09-n800
 OpenBabel11261920153D

 19 19  0  0  1  0  0  0  0  0999 V2000
   -1.6004   -0.5713    0.3355 C   0  0  0  0  0  0  0  0  0  0  0  0
   -1.3177   -1.4100    1.3083 N   0  0  0  0  0  0  0  0  0  0  0  0
   -1.0757   -2.1062    2.1790 N   0  0  0  0  0  0  0  0  0  0  0  0
   -2.6106   -0.8979   -0.6475 C   0  0  0  0  0  0  0  0  0  0  0  0
   -3.0044    0.0444   -1.5277 C   0  0  0  0  0  0  0  0  0  0  0  0
   -2.5552    1.4594   -1.3944 C   0  0  2  0  0  0  0  0  0  0  0  0
   -1.2841    1.6150   -0.6328 C   0  0  0  0  0  0  0  0  0  0  0  0
   -0.8764    0.6772    0.2438 C   0  0  0  0  0  0  0  0  0  0  0  0
   -3.0069   -1.9078   -0.6785 H   0  0  0  0  0  0  0  0  0  0  0  0
   -3.7338   -0.1903   -2.2952 H   0  0  0  0  0  0  0  0  0  0  0  0
   -2.5386    1.9993   -2.3414 H   0  0  0  0  0  0  0  0  0  0  0  0
   -0.7352    2.5418   -0.7432 H   0  0  0  0  0  0  0  0  0  0  0  0
    0.0035    0.8201    0.8626 H   0  0  0  0  0  0  0  0  0  0  0  0
   -3.6164    3.5153    0.0923 S   0  0  0  0  0  0  0  0  0  0  0  0
   -2.5967    4.3329   -0.5387 O   0  0  0  0  0  0  0  0  0  0  0  0
   -2.9905    3.0590    1.5383 O   0  0  0  0  0  0  0  0  0  0  0  0
   -4.9655    3.9936    0.3403 O   0  0  0  0  0  0  0  0  0  0  0  0
   -3.7690    2.1143   -0.6622 O   0  0  0  0  0  0  0  0  0  0  0  0
   -3.7475    2.8736    2.1189 H   0  0  0  0  0  0  0  0  0  0  0  0
  1  2  1  0  0  0  0
  2  3  1  0  0  0  0
  4  1  1  0  0  0  0
  5  6  1  0  0  0  0
  5  4  2  0  0  0  0
  6 11  1  6  0  0  0
  6 18  1  0  0  0  0
  6  7  1  0  0  0  0
  7  8  1  0  0  0  0
  8  1  2  0  0  0  0
  8 13  1  0  0  0  0
  9  4  1  0  0  0  0
 10  5  1  0  0  0  0
 12  7  1  0  0  0  0
 14 17  2  0  0  0  0
 14 16  1  0  0  0  0
 15 14  2  0  0  0  0
 16 19  1  0  0  0  0
 18 14  1  0  0  0  0
M  RAD  3   2   2   3   3   7   2
M  END
