Coordinates from ORCA-job PhN2+~HSO4-_B3LYPG-6-31G_dp-NX-Scan-d89-09-n800
 OpenBabel11261920153D

 19 19  0  0  1  0  0  0  0  0999 V2000
   -1.6223   -0.2663    0.2728 C   0  0  1  0  0  0  0  0  0  0  0  0
   -1.7769   -0.4396    1.5682 N   0  0  0  0  0  0  0  0  0  0  0  0
   -2.0187   -0.4339    2.6779 N   0  0  0  0  0  0  0  0  0  0  0  0
   -2.7086   -0.6890   -0.5931 C   0  0  0  0  0  0  0  0  0  0  0  0
   -3.0601    0.1193   -1.6131 C   0  0  0  0  0  0  0  0  0  0  0  0
   -2.4856    1.4865   -1.6938 C   0  0  2  0  0  0  0  0  0  0  0  0
   -1.1053    1.5889   -1.1679 C   0  0  0  0  0  0  0  0  0  0  0  0
   -0.7228    0.7909   -0.1508 C   0  0  0  0  0  0  0  0  0  0  0  0
   -3.2105   -1.6317   -0.3984 H   0  0  0  0  0  0  0  0  0  0  0  0
   -3.8368   -0.1643   -2.3152 H   0  0  0  0  0  0  0  0  0  0  0  0
   -2.6131    1.9577   -2.6662 H   0  0  0  0  0  0  0  0  0  0  0  0
   -0.4621    2.3837   -1.5271 H   0  0  0  0  0  0  0  0  0  0  0  0
    0.2158    0.9349    0.3743 H   0  0  0  0  0  0  0  0  0  0  0  0
   -3.2979    3.0520    0.5556 S   0  0  0  0  0  0  0  0  0  0  0  0
   -2.0231    3.7389    0.6401 O   0  0  0  0  0  0  0  0  0  0  0  0
   -3.1723    1.7509    1.5834 O   0  0  0  0  0  0  0  0  0  0  0  0
   -4.5521    3.7068    0.8935 O   0  0  0  0  0  0  0  0  0  0  0  0
   -3.5224    2.4040   -0.8830 O   0  0  0  0  0  0  0  0  0  0  0  0
   -4.0464    1.6725    2.0002 H   0  0  0  0  0  0  0  0  0  0  0  0
  1  2  1  1  0  0  0
  2  3  1  0  0  0  0
  4  9  1  0  0  0  0
  4  1  1  0  0  0  0
  5  4  2  0  0  0  0
  6 11  1  6  0  0  0
  6  5  1  0  0  0  0
  6  7  1  0  0  0  0
  6 18  1  0  0  0  0
  7  8  2  0  0  0  0
  8  1  1  0  0  0  0
  8 13  1  0  0  0  0
 10  5  1  0  0  0  0
 12  7  1  0  0  0  0
 14 15  2  0  0  0  0
 14 17  2  0  0  0  0
 14 16  1  0  0  0  0
 16 19  1  0  0  0  0
 18 14  1  0  0  0  0
M  RAD  3   1   2   2   2   3   3
M  END
