Coordinates from ORCA-job PhN2+~HSO4-_B3LYPG-6-31G_dp-NX-Scan-d89-09-n800
 OpenBabel11261920153D

 19 19  0  0  1  0  0  0  0  0999 V2000
   -1.4893   -0.8307    0.2786 C   0  0  0  0  0  0  0  0  0  0  0  0
   -1.0422   -1.8647    0.9563 N   0  0  0  0  0  0  0  0  0  0  0  0
   -0.6549   -2.7541    1.5590 N   0  0  0  0  0  0  0  0  0  0  0  0
   -2.5553   -0.9984   -0.6852 C   0  0  0  0  0  0  0  0  0  0  0  0
   -3.0324    0.0705   -1.3520 C   0  0  0  0  0  0  0  0  0  0  0  0
   -2.5702    1.4584   -1.0682 C   0  0  2  0  0  0  0  0  0  0  0  0
   -1.3552    1.5353   -0.2058 C   0  0  0  0  0  0  0  0  0  0  0  0
   -0.8772    0.4679    0.4618 C   0  0  0  0  0  0  0  0  0  0  0  0
   -2.9333   -1.9974   -0.8776 H   0  0  0  0  0  0  0  0  0  0  0  0
   -3.8156   -0.0524   -2.0924 H   0  0  0  0  0  0  0  0  0  0  0  0
   -2.4709    2.0639   -1.9716 H   0  0  0  0  0  0  0  0  0  0  0  0
   -0.8766    2.5026   -0.1022 H   0  0  0  0  0  0  0  0  0  0  0  0
   -0.0126    0.5502    1.1130 H   0  0  0  0  0  0  0  0  0  0  0  0
   -3.8042    3.6925   -0.1726 S   0  0  0  0  0  0  0  0  0  0  0  0
   -2.9855    4.3291   -1.1876 O   0  0  0  0  0  0  0  0  0  0  0  0
   -2.9800    3.9012    1.2258 O   0  0  0  0  0  0  0  0  0  0  0  0
   -5.1892    4.0518    0.0707 O   0  0  0  0  0  0  0  0  0  0  0  0
   -3.7754    2.0975   -0.3478 O   0  0  0  0  0  0  0  0  0  0  0  0
   -3.6011    3.7390    1.9554 H   0  0  0  0  0  0  0  0  0  0  0  0
  1  8  1  0  0  0  0
  1  2  1  0  0  0  0
  2  3  1  0  0  0  0
  4  1  2  0  0  0  0
  5  6  1  0  0  0  0
  5  4  1  0  0  0  0
  6 11  1  6  0  0  0
  6 18  1  0  0  0  0
  6  7  1  0  0  0  0
  7 12  1  0  0  0  0
  7  8  2  0  0  0  0
  8 13  1  0  0  0  0
  9  4  1  0  0  0  0
 10  5  1  0  0  0  0
 14 17  2  0  0  0  0
 14 16  1  0  0  0  0
 15 14  2  0  0  0  0
 16 19  1  0  0  0  0
 18 14  1  0  0  0  0
M  RAD  3   2   2   3   3   5   2
M  END
