Coordinates from ORCA-job PhN2+~HSO4-_B3LYPG-6-31G_dp-NX-Scan-d89-09-n800
 OpenBabel11261920153D

 19 19  0  0  1  0  0  0  0  0999 V2000
   -1.5719   -0.3489    0.4074 C   0  0  0  0  0  0  0  0  0  0  0  0
   -1.2328   -1.1091    1.4247 N   0  0  0  0  0  0  0  0  0  0  0  0
   -0.9471   -1.7608    2.3168 N   0  0  0  0  0  0  0  0  0  0  0  0
   -2.7867   -0.6273   -0.3240 C   0  0  0  0  0  0  0  0  0  0  0  0
   -3.1965    0.2269   -1.2825 C   0  0  0  0  0  0  0  0  0  0  0  0
   -2.4958    1.5137   -1.5562 C   0  0  2  0  0  0  0  0  0  0  0  0
   -1.1583    1.6332   -0.9152 C   0  0  0  0  0  0  0  0  0  0  0  0
   -0.7445    0.7782    0.0406 C   0  0  0  0  0  0  0  0  0  0  0  0
   -3.3342   -1.5392   -0.1052 H   0  0  0  0  0  0  0  0  0  0  0  0
   -4.0889    0.0138   -1.8621 H   0  0  0  0  0  0  0  0  0  0  0  0
   -2.4555    1.7378   -2.6250 H   0  0  0  0  0  0  0  0  0  0  0  0
   -0.5343    2.4715   -1.2027 H   0  0  0  0  0  0  0  0  0  0  0  0
    0.2132    0.9067    0.5339 H   0  0  0  0  0  0  0  0  0  0  0  0
   -3.4497    3.3751    0.2743 S   0  0  0  0  0  0  0  0  0  0  0  0
   -2.1902    4.0479    0.5181 O   0  0  0  0  0  0  0  0  0  0  0  0
   -3.4666    2.1091    1.3169 O   0  0  0  0  0  0  0  0  0  0  0  0
   -4.7276    4.0570    0.3771 O   0  0  0  0  0  0  0  0  0  0  0  0
   -3.4646    2.6646   -1.1649 O   0  0  0  0  0  0  0  0  0  0  0  0
   -4.3893    1.8123    1.3856 H   0  0  0  0  0  0  0  0  0  0  0  0
  1  2  1  0  0  0  0
  2  3  1  0  0  0  0
  4  9  1  0  0  0  0
  4  1  2  0  0  0  0
  5  4  1  0  0  0  0
  6 11  1  6  0  0  0
  6  5  1  0  0  0  0
  6 18  1  0  0  0  0
  6  7  1  0  0  0  0
  7  8  2  0  0  0  0
  8  1  1  0  0  0  0
  8 13  1  0  0  0  0
 10  5  1  0  0  0  0
 12  7  1  0  0  0  0
 14 17  2  0  0  0  0
 14 15  2  0  0  0  0
 14 16  1  0  0  0  0
 16 19  1  0  0  0  0
 18 14  1  0  0  0  0
M  RAD  3   2   2   3   3   5   2
M  END
