Coordinates from ORCA-job PhN2+~HSO4-_B3LYPG-6-31G_dp-NX-Scan-d89-09-n800
 OpenBabel11261920153D

 19 19  0  0  1  0  0  0  0  0999 V2000
   -1.5979   -0.3007    0.3864 C   0  0  0  0  0  0  0  0  0  0  0  0
   -1.3538   -0.9447    1.5054 N   0  0  0  0  0  0  0  0  0  0  0  0
   -1.1620   -1.4821    2.4926 N   0  0  0  0  0  0  0  0  0  0  0  0
   -2.7869   -0.6129   -0.3731 C   0  0  0  0  0  0  0  0  0  0  0  0
   -3.1757    0.2182   -1.3606 C   0  0  0  0  0  0  0  0  0  0  0  0
   -2.4928    1.5185   -1.6051 C   0  0  2  0  0  0  0  0  0  0  0  0
   -1.1409    1.6241   -0.9972 C   0  0  0  0  0  0  0  0  0  0  0  0
   -0.7435    0.7942   -0.0125 C   0  0  0  0  0  0  0  0  0  0  0  0
   -3.3308   -1.5255   -0.1484 H   0  0  0  0  0  0  0  0  0  0  0  0
   -4.0449   -0.0150   -1.9668 H   0  0  0  0  0  0  0  0  0  0  0  0
   -2.4931    1.7955   -2.6607 H   0  0  0  0  0  0  0  0  0  0  0  0
   -0.5025    2.4404   -1.3149 H   0  0  0  0  0  0  0  0  0  0  0  0
    0.2122    0.9226    0.4848 H   0  0  0  0  0  0  0  0  0  0  0  0
   -3.4078    3.2888    0.3477 S   0  0  0  0  0  0  0  0  0  0  0  0
   -2.1447    3.9585    0.5827 O   0  0  0  0  0  0  0  0  0  0  0  0
   -3.3899    1.9791    1.3412 O   0  0  0  0  0  0  0  0  0  0  0  0
   -4.6856    3.9566    0.5251 O   0  0  0  0  0  0  0  0  0  0  0  0
   -3.4656    2.6445   -1.1189 O   0  0  0  0  0  0  0  0  0  0  0  0
   -4.3150    1.7022    1.4496 H   0  0  0  0  0  0  0  0  0  0  0  0
  1  2  1  0  0  0  0
  2  3  1  0  0  0  0
  4  9  1  0  0  0  0
  4  1  1  0  0  0  0
  5  4  2  0  0  0  0
  6 11  1  6  0  0  0
  6  5  1  0  0  0  0
  6 18  1  0  0  0  0
  6  7  1  0  0  0  0
  7  8  1  0  0  0  0
  8  1  2  0  0  0  0
  8 13  1  0  0  0  0
 10  5  1  0  0  0  0
 12  7  1  0  0  0  0
 14 17  2  0  0  0  0
 14 15  2  0  0  0  0
 14 16  1  0  0  0  0
 16 19  1  0  0  0  0
 18 14  1  0  0  0  0
M  RAD  3   2   2   3   3   7   2
M  END
