Coordinates from ORCA-job PhN2+~HSO4-_B3LYPG-6-31G_dp-NX-Scan-d89-09-n800
 OpenBabel11261920163D

 19 18  0  0  0  0  0  0  0  0999 V2000
   -2.7937    0.2106   -0.2472 C   0  0  0  0  0  0  0  0  0  0  0  0
   -3.4427   -0.1224    0.9615 N   0  0  0  0  0  0  0  0  0  0  0  0
   -3.9738    0.5166    1.8342 N   0  0  0  0  0  0  0  0  0  0  0  0
   -2.1177   -0.8756   -0.8291 C   0  0  0  0  0  0  0  0  0  0  0  0
   -1.4514   -0.7171   -2.0388 C   0  0  0  0  0  0  0  0  0  0  0  0
   -1.4786    0.5207   -2.6862 C   0  0  0  0  0  0  0  0  0  0  0  0
   -2.1680    1.5957   -2.1183 C   0  0  0  0  0  0  0  0  0  0  0  0
   -2.8249    1.4588   -0.8983 C   0  0  0  0  0  0  0  0  0  0  0  0
   -2.1285   -1.8274   -0.3090 H   0  0  0  0  0  0  0  0  0  0  0  0
   -0.9223   -1.5558   -2.4796 H   0  0  0  0  0  0  0  0  0  0  0  0
   -0.9664    0.6477   -3.6350 H   0  0  0  0  0  0  0  0  0  0  0  0
   -2.1897    2.5557   -2.6245 H   0  0  0  0  0  0  0  0  0  0  0  0
   -3.3510    2.2962   -0.4667 H   0  0  0  0  0  0  0  0  0  0  0  0
   -2.0072    3.1837    2.2403 S   0  0  0  0  0  0  0  0  0  0  0  0
   -1.1397    2.0173    2.2486 O   0  0  0  0  0  0  0  0  0  0  0  0
   -3.9367    2.0450    1.6431 O   0  0  0  0  0  0  0  0  0  0  0  0
   -2.6248    3.6323    3.4816 O   0  0  0  0  0  0  0  0  0  0  0  0
   -2.0193    4.0646    1.0824 O   0  0  0  0  0  0  0  0  0  0  0  0
   -4.4849    2.3158    2.3984 H   0  0  0  0  0  0  0  0  0  0  0  0
  1  2  1  0  0  0  0
  2  3  2  0  0  0  0
  4  9  1  0  0  0  0
  4  1  1  0  0  0  0
  5  4  2  0  0  0  0
  6  7  2  0  0  0  0
  6  5  1  0  0  0  0
  7  8  1  0  0  0  0
  8 13  1  0  0  0  0
  8  1  2  0  0  0  0
 10  5  1  0  0  0  0
 11  6  1  0  0  0  0
 12  7  1  0  0  0  0
 14 15  2  0  0  0  0
 14 17  1  0  0  0  0
 16  3  1  0  0  0  0
 16 19  1  0  0  0  0
 18 14  1  0  0  0  0
M  RAD  2  17   2  18   2
M  END
