Coordinates from ORCA-job PhN2+~HSO4-_B3LYPG-6-31G_dp-NX-Scan-d89-09-n800
 OpenBabel11261920153D

 19 19  0  0  1  0  0  0  0  0999 V2000
   -1.4609   -1.0660    0.1801 C   0  0  0  0  0  0  0  0  0  0  0  0
   -1.1028   -2.3004    0.4663 N   0  0  0  0  0  0  0  0  0  0  0  0
   -0.7954   -3.3749    0.7112 N   0  0  0  0  0  0  0  0  0  0  0  0
   -2.5207   -0.8175   -0.7760 C   0  0  0  0  0  0  0  0  0  0  0  0
   -2.8609    0.4451   -1.1011 C   0  0  0  0  0  0  0  0  0  0  0  0
   -2.2194    1.6418   -0.4810 C   0  0  2  0  0  0  0  0  0  0  0  0
   -1.1076    1.3173    0.4581 C   0  0  0  0  0  0  0  0  0  0  0  0
   -0.7670    0.0532    0.7809 C   0  0  0  0  0  0  0  0  0  0  0  0
   -3.0148   -1.6662   -1.2378 H   0  0  0  0  0  0  0  0  0  0  0  0
   -3.6382    0.6347   -1.8331 H   0  0  0  0  0  0  0  0  0  0  0  0
   -1.9246    2.3816   -1.2313 H   0  0  0  0  0  0  0  0  0  0  0  0
   -0.5713    2.1522    0.8963 H   0  0  0  0  0  0  0  0  0  0  0  0
    0.0459   -0.1473    1.4722 H   0  0  0  0  0  0  0  0  0  0  0  0
   -4.2214    3.4604   -0.3315 S   0  0  0  0  0  0  0  0  0  0  0  0
   -4.3146    3.1938   -1.7550 O   0  0  0  0  0  0  0  0  0  0  0  0
   -3.3531    4.8460   -0.2188 O   0  0  0  0  0  0  0  0  0  0  0  0
   -5.3821    3.6009    0.5285 O   0  0  0  0  0  0  0  0  0  0  0  0
   -3.2675    2.3759    0.3768 O   0  0  0  0  0  0  0  0  0  0  0  0
   -3.5446    5.2317    0.6527 H   0  0  0  0  0  0  0  0  0  0  0  0
  1  2  1  0  0  0  0
  1  8  2  0  0  0  0
  2  3  1  0  0  0  0
  4  1  1  0  0  0  0
  5  4  2  0  0  0  0
  5  6  1  0  0  0  0
  6 11  1  6  0  0  0
  6 18  1  0  0  0  0
  6  7  1  0  0  0  0
  7  8  1  0  0  0  0
  7 12  1  0  0  0  0
  8 13  1  0  0  0  0
  9  4  1  0  0  0  0
 10  5  1  0  0  0  0
 14 16  1  0  0  0  0
 14 18  1  0  0  0  0
 14 17  2  0  0  0  0
 15 14  2  0  0  0  0
 16 19  1  0  0  0  0
M  RAD  3   2   2   3   3   7   2
M  END
