Coordinates from ORCA-job PhN2+~HSO4-_B3LYPG-6-31G_dp-NX-Scan-d89-09-n800
 OpenBabel11261920153D

 19 19  0  0  1  0  0  0  0  0999 V2000
   -1.6101   -0.2646    0.3157 C   0  0  1  0  0  0  0  0  0  0  0  0
   -1.6047   -0.6139    1.5827 N   0  0  0  0  0  0  0  0  0  0  0  0
   -1.6585   -0.8479    2.6949 N   0  0  0  0  0  0  0  0  0  0  0  0
   -2.7499   -0.6382   -0.4960 C   0  0  0  0  0  0  0  0  0  0  0  0
   -3.1169    0.1719   -1.5088 C   0  0  0  0  0  0  0  0  0  0  0  0
   -2.4873    1.5084   -1.6715 C   0  0  2  0  0  0  0  0  0  0  0  0
   -1.1134    1.6030   -1.1223 C   0  0  0  0  0  0  0  0  0  0  0  0
   -0.7267    0.7996   -0.1112 C   0  0  0  0  0  0  0  0  0  0  0  0
   -3.2764   -1.5620   -0.2763 H   0  0  0  0  0  0  0  0  0  0  0  0
   -3.9397   -0.0924   -2.1647 H   0  0  0  0  0  0  0  0  0  0  0  0
   -2.5660    1.8973   -2.6859 H   0  0  0  0  0  0  0  0  0  0  0  0
   -0.4677    2.3993   -1.4740 H   0  0  0  0  0  0  0  0  0  0  0  0
    0.2213    0.9371    0.3985 H   0  0  0  0  0  0  0  0  0  0  0  0
   -3.3325    3.1319    0.4819 S   0  0  0  0  0  0  0  0  0  0  0  0
   -2.0576    3.7973    0.6635 O   0  0  0  0  0  0  0  0  0  0  0  0
   -3.2669    1.7934    1.4517 O   0  0  0  0  0  0  0  0  0  0  0  0
   -4.5976    3.7881    0.7685 O   0  0  0  0  0  0  0  0  0  0  0  0
   -3.4837    2.5431   -0.9956 O   0  0  0  0  0  0  0  0  0  0  0  0
   -4.1868    1.6109    1.7064 H   0  0  0  0  0  0  0  0  0  0  0  0
  1  2  1  1  0  0  0
  2  3  1  0  0  0  0
  4  9  1  0  0  0  0
  4  1  1  0  0  0  0
  5  4  2  0  0  0  0
  6 11  1  6  0  0  0
  6  5  1  0  0  0  0
  6  7  1  0  0  0  0
  6 18  1  0  0  0  0
  7  8  2  0  0  0  0
  8  1  1  0  0  0  0
  8 13  1  0  0  0  0
 10  5  1  0  0  0  0
 12  7  1  0  0  0  0
 14 15  2  0  0  0  0
 14 17  2  0  0  0  0
 14 16  1  0  0  0  0
 16 19  1  0  0  0  0
 18 14  1  0  0  0  0
M  RAD  3   1   2   2   2   3   3
M  END
