Coordinates from ORCA-job PhN2+~HSO4-_B3LYPG-6-31G_dp-NX-Scan-d89-09-n800
 OpenBabel11261920153D

 19 19  0  0  1  0  0  0  0  0999 V2000
   -1.4599   -1.0269    0.1781 C   0  0  0  0  0  0  0  0  0  0  0  0
   -1.1057   -2.2441    0.5260 N   0  0  0  0  0  0  0  0  0  0  0  0
   -0.8009   -3.3015    0.8321 N   0  0  0  0  0  0  0  0  0  0  0  0
   -2.4730   -0.8279   -0.8369 C   0  0  0  0  0  0  0  0  0  0  0  0
   -2.8361    0.4201   -1.1890 C   0  0  0  0  0  0  0  0  0  0  0  0
   -2.2872    1.6315   -0.5165 C   0  0  2  0  0  0  0  0  0  0  0  0
   -1.1719    1.3611    0.4328 C   0  0  0  0  0  0  0  0  0  0  0  0
   -0.8070    0.1128    0.7836 C   0  0  0  0  0  0  0  0  0  0  0  0
   -2.9093   -1.6982   -1.3162 H   0  0  0  0  0  0  0  0  0  0  0  0
   -3.5797    0.5842   -1.9614 H   0  0  0  0  0  0  0  0  0  0  0  0
   -2.0362    2.4195   -1.2315 H   0  0  0  0  0  0  0  0  0  0  0  0
   -0.6700    2.2194    0.8666 H   0  0  0  0  0  0  0  0  0  0  0  0
   -0.0075   -0.0617    1.4971 H   0  0  0  0  0  0  0  0  0  0  0  0
   -4.2509    3.4473   -0.2889 S   0  0  0  0  0  0  0  0  0  0  0  0
   -4.4501    3.2401   -1.7109 O   0  0  0  0  0  0  0  0  0  0  0  0
   -3.1759    4.6795   -0.1903 O   0  0  0  0  0  0  0  0  0  0  0  0
   -5.3367    3.7176    0.6344 O   0  0  0  0  0  0  0  0  0  0  0  0
   -3.4130    2.2351    0.3452 O   0  0  0  0  0  0  0  0  0  0  0  0
   -3.2501    5.0545    0.7033 H   0  0  0  0  0  0  0  0  0  0  0  0
  1  2  1  0  0  0  0
  1  8  2  0  0  0  0
  2  3  1  0  0  0  0
  4  1  1  0  0  0  0
  5  4  2  0  0  0  0
  5  6  1  0  0  0  0
  6 11  1  6  0  0  0
  6 18  1  0  0  0  0
  6  7  1  0  0  0  0
  7  8  1  0  0  0  0
  7 12  1  0  0  0  0
  8 13  1  0  0  0  0
  9  4  1  0  0  0  0
 10  5  1  0  0  0  0
 14 16  1  0  0  0  0
 14 18  1  0  0  0  0
 14 17  2  0  0  0  0
 15 14  2  0  0  0  0
 16 19  1  0  0  0  0
M  RAD  3   2   2   3   3   7   2
M  END
