Coordinates from ORCA-job PhN2+~HSO4-_B3LYPG-6-31G_dp-NX-Scan-d89-09-n800
 OpenBabel11261920153D

 19 19  0  0  1  0  0  0  0  0999 V2000
   -1.4804   -0.8653    0.2704 C   0  0  0  0  0  0  0  0  0  0  0  0
   -1.0287   -1.9224    0.9083 N   0  0  0  0  0  0  0  0  0  0  0  0
   -0.6374   -2.8336    1.4749 N   0  0  0  0  0  0  0  0  0  0  0  0
   -2.5420   -1.0018   -0.7031 C   0  0  0  0  0  0  0  0  0  0  0  0
   -3.0178    0.0878   -1.3360 C   0  0  0  0  0  0  0  0  0  0  0  0
   -2.5547    1.4665   -1.0115 C   0  0  2  0  0  0  0  0  0  0  0  0
   -1.3544    1.5179   -0.1268 C   0  0  0  0  0  0  0  0  0  0  0  0
   -0.8786    0.4294    0.5075 C   0  0  0  0  0  0  0  0  0  0  0  0
   -2.9189   -1.9941   -0.9295 H   0  0  0  0  0  0  0  0  0  0  0  0
   -3.7987   -0.0112   -2.0825 H   0  0  0  0  0  0  0  0  0  0  0  0
   -2.4400    2.0917   -1.8997 H   0  0  0  0  0  0  0  0  0  0  0  0
   -0.8842    2.4835    0.0226 H   0  0  0  0  0  0  0  0  0  0  0  0
   -0.0233    0.4930    1.1731 H   0  0  0  0  0  0  0  0  0  0  0  0
   -3.8607    3.6964   -0.2102 S   0  0  0  0  0  0  0  0  0  0  0  0
   -3.1557    4.3051   -1.3226 O   0  0  0  0  0  0  0  0  0  0  0  0
   -2.9456    4.0376    1.1040 O   0  0  0  0  0  0  0  0  0  0  0  0
   -5.2410    4.0013    0.1178 O   0  0  0  0  0  0  0  0  0  0  0  0
   -3.7617    2.0962   -0.2885 O   0  0  0  0  0  0  0  0  0  0  0  0
   -3.4973    3.8845    1.8893 H   0  0  0  0  0  0  0  0  0  0  0  0
  1  8  1  0  0  0  0
  1  2  1  0  0  0  0
  2  3  1  0  0  0  0
  4  1  2  0  0  0  0
  5  6  1  0  0  0  0
  5  4  1  0  0  0  0
  6 11  1  6  0  0  0
  6 18  1  0  0  0  0
  6  7  1  0  0  0  0
  7 12  1  0  0  0  0
  7  8  2  0  0  0  0
  8 13  1  0  0  0  0
  9  4  1  0  0  0  0
 10  5  1  0  0  0  0
 14 17  2  0  0  0  0
 14 16  1  0  0  0  0
 15 14  2  0  0  0  0
 16 19  1  0  0  0  0
 18 14  1  0  0  0  0
M  RAD  3   2   2   3   3   5   2
M  END
