Coordinates from ORCA-job PhN2+~HSO4-_B3LYPG-6-31G_dp-NX-Scan-d89-09-n800
 OpenBabel11261920153D

 19 19  0  0  1  0  0  0  0  0999 V2000
   -1.6442   -0.2771    0.2569 C   0  0  1  0  0  0  0  0  0  0  0  0
   -1.8559   -0.4049    1.5509 N   0  0  0  0  0  0  0  0  0  0  0  0
   -2.1545   -0.2940    2.6406 N   0  0  0  0  0  0  0  0  0  0  0  0
   -2.6922   -0.7221   -0.6451 C   0  0  0  0  0  0  0  0  0  0  0  0
   -3.0295    0.0915   -1.6667 C   0  0  0  0  0  0  0  0  0  0  0  0
   -2.4867    1.4730   -1.6957 C   0  0  2  0  0  0  0  0  0  0  0  0
   -1.1090    1.5821   -1.1676 C   0  0  0  0  0  0  0  0  0  0  0  0
   -0.7356    0.7811   -0.1492 C   0  0  0  0  0  0  0  0  0  0  0  0
   -3.1797   -1.6766   -0.4732 H   0  0  0  0  0  0  0  0  0  0  0  0
   -3.7760   -0.1979   -2.3984 H   0  0  0  0  0  0  0  0  0  0  0  0
   -2.6334    1.9867   -2.6429 H   0  0  0  0  0  0  0  0  0  0  0  0
   -0.4663    2.3800   -1.5201 H   0  0  0  0  0  0  0  0  0  0  0  0
    0.1935    0.9259    0.3921 H   0  0  0  0  0  0  0  0  0  0  0  0
   -3.2937    3.0380    0.5751 S   0  0  0  0  0  0  0  0  0  0  0  0
   -2.0383    3.7663    0.5778 O   0  0  0  0  0  0  0  0  0  0  0  0
   -3.0919    1.7810    1.6528 O   0  0  0  0  0  0  0  0  0  0  0  0
   -4.5520    3.6722    0.9380 O   0  0  0  0  0  0  0  0  0  0  0  0
   -3.5507    2.3147   -0.8191 O   0  0  0  0  0  0  0  0  0  0  0  0
   -3.9249    1.7424    2.1513 H   0  0  0  0  0  0  0  0  0  0  0  0
  1  2  1  1  0  0  0
  2  3  1  0  0  0  0
  4  9  1  0  0  0  0
  4  1  1  0  0  0  0
  5  4  2  0  0  0  0
  6 11  1  6  0  0  0
  6  5  1  0  0  0  0
  6  7  1  0  0  0  0
  6 18  1  0  0  0  0
  7  8  2  0  0  0  0
  8  1  1  0  0  0  0
  8 13  1  0  0  0  0
 10  5  1  0  0  0  0
 12  7  1  0  0  0  0
 14 15  2  0  0  0  0
 14 17  2  0  0  0  0
 14 16  1  0  0  0  0
 16 19  1  0  0  0  0
 18 14  1  0  0  0  0
M  RAD  3   1   2   2   2   3   3
M  END
