Coordinates from ORCA-job PhN2+~HSO4-_B3LYPG-6-31G_dp-NX-Scan-d89-09-n800
 OpenBabel11261920153D

 19 18  0  0  0  0  0  0  0  0999 V2000
   -2.2080    0.2695   -0.2254 C   0  0  0  0  0  0  0  0  0  0  0  0
   -2.5584    0.1334    1.1114 N   0  0  0  0  0  0  0  0  0  0  0  0
   -2.8358   -0.0355    2.1788 N   0  0  0  0  0  0  0  0  0  0  0  0
   -2.6733   -0.7122   -1.1152 C   0  0  0  0  0  0  0  0  0  0  0  0
   -2.3240   -0.5733   -2.4515 C   0  0  0  0  0  0  0  0  0  0  0  0
   -1.5273    0.5044   -2.8604 C   0  0  0  0  0  0  0  0  0  0  0  0
   -1.0770    1.4593   -1.9434 C   0  0  0  0  0  0  0  0  0  0  0  0
   -1.4150    1.3632   -0.5983 C   0  0  0  0  0  0  0  0  0  0  0  0
   -3.2907   -1.5319   -0.7656 H   0  0  0  0  0  0  0  0  0  0  0  0
   -2.6753   -1.3011   -3.1747 H   0  0  0  0  0  0  0  0  0  0  0  0
   -1.2671    0.6051   -3.9095 H   0  0  0  0  0  0  0  0  0  0  0  0
   -0.4721    2.2952   -2.2780 H   0  0  0  0  0  0  0  0  0  0  0  0
   -1.1360    2.0847    0.1670 H   0  0  0  0  0  0  0  0  0  0  0  0
   -3.2698    3.1420    1.8524 S   0  0  0  0  0  0  0  0  0  0  0  0
   -1.8006    2.9115    1.9251 O   0  0  0  0  0  0  0  0  0  0  0  0
   -3.9047    1.9179    2.8709 O   0  0  0  0  0  0  0  0  0  0  0  0
   -3.7485    4.3829    2.4661 O   0  0  0  0  0  0  0  0  0  0  0  0
   -3.8473    2.7293    0.5574 O   0  0  0  0  0  0  0  0  0  0  0  0
   -3.9902    2.3178    3.7503 H   0  0  0  0  0  0  0  0  0  0  0  0
  1  2  1  0  0  0  0
  2  3  1  0  0  0  0
  4  9  1  0  0  0  0
  4  1  2  0  0  0  0
  5  4  1  0  0  0  0
  6  5  2  0  0  0  0
  6  7  1  0  0  0  0
  7  8  2  0  0  0  0
  8  1  1  0  0  0  0
  8 13  1  0  0  0  0
 10  5  1  0  0  0  0
 11  6  1  0  0  0  0
 12  7  1  0  0  0  0
 14 15  2  0  0  0  0
 14 17  1  0  0  0  0
 14 16  1  0  0  0  0
 16 19  1  0  0  0  0
 18 14  2  0  0  0  0
M  RAD  3   2   2   3   3  17   2
M  END
