Coordinates from ORCA-job PhN2+~HSO4-_B3LYPG-6-31G_dp-NX-Scan-d89-09-n800
 OpenBabel11261920153D

 19 19  0  0  1  0  0  0  0  0999 V2000
   -1.5043   -0.7988    0.2875 C   0  0  0  0  0  0  0  0  0  0  0  0
   -1.0763   -1.8113    1.0086 N   0  0  0  0  0  0  0  0  0  0  0  0
   -0.7052   -2.6791    1.6513 N   0  0  0  0  0  0  0  0  0  0  0  0
   -2.5609   -0.9898   -0.6823 C   0  0  0  0  0  0  0  0  0  0  0  0
   -3.0291    0.0633   -1.3800 C   0  0  0  0  0  0  0  0  0  0  0  0
   -2.5739    1.4572   -1.1152 C   0  0  2  0  0  0  0  0  0  0  0  0
   -1.3514    1.5500   -0.2651 C   0  0  0  0  0  0  0  0  0  0  0  0
   -0.8809    0.4990    0.4328 C   0  0  0  0  0  0  0  0  0  0  0  0
   -2.9377   -1.9930   -0.8539 H   0  0  0  0  0  0  0  0  0  0  0  0
   -3.8038   -0.0765   -2.1265 H   0  0  0  0  0  0  0  0  0  0  0  0
   -2.4871    2.0556   -2.0242 H   0  0  0  0  0  0  0  0  0  0  0  0
   -0.8649    2.5161   -0.1927 H   0  0  0  0  0  0  0  0  0  0  0  0
   -0.0144    0.5926    1.0799 H   0  0  0  0  0  0  0  0  0  0  0  0
   -3.7765    3.6756   -0.1384 S   0  0  0  0  0  0  0  0  0  0  0  0
   -2.9236    4.3410   -1.1059 O   0  0  0  0  0  0  0  0  0  0  0  0
   -2.9750    3.7919    1.2836 O   0  0  0  0  0  0  0  0  0  0  0  0
   -5.1567    4.0577    0.0981 O   0  0  0  0  0  0  0  0  0  0  0  0
   -3.7823    2.0917   -0.3924 O   0  0  0  0  0  0  0  0  0  0  0  0
   -3.6172    3.6191    1.9923 H   0  0  0  0  0  0  0  0  0  0  0  0
  1  8  1  0  0  0  0
  1  2  1  0  0  0  0
  2  3  1  0  0  0  0
  4  1  2  0  0  0  0
  5  6  1  0  0  0  0
  5  4  1  0  0  0  0
  6 11  1  6  0  0  0
  6 18  1  0  0  0  0
  6  7  1  0  0  0  0
  7 12  1  0  0  0  0
  7  8  2  0  0  0  0
  8 13  1  0  0  0  0
  9  4  1  0  0  0  0
 10  5  1  0  0  0  0
 14 17  2  0  0  0  0
 14 16  1  0  0  0  0
 15 14  2  0  0  0  0
 16 19  1  0  0  0  0
 18 14  1  0  0  0  0
M  RAD  3   2   2   3   3   5   2
M  END
