Coordinates from ORCA-job PhN2+~HSO4-_B3LYPG-6-31G_dp-NX-Scan-d89-09-n800
 OpenBabel11261920153D

 19 19  0  0  1  0  0  0  0  0999 V2000
   -1.5745   -0.3453    0.4066 C   0  0  0  0  0  0  0  0  0  0  0  0
   -1.2413   -1.0989    1.4307 N   0  0  0  0  0  0  0  0  0  0  0  0
   -0.9614   -1.7441    2.3292 N   0  0  0  0  0  0  0  0  0  0  0  0
   -2.7872   -0.6262   -0.3273 C   0  0  0  0  0  0  0  0  0  0  0  0
   -3.1953    0.2263   -1.2881 C   0  0  0  0  0  0  0  0  0  0  0  0
   -2.4957    1.5141   -1.5596 C   0  0  2  0  0  0  0  0  0  0  0  0
   -1.1575    1.6328   -0.9203 C   0  0  0  0  0  0  0  0  0  0  0  0
   -0.7452    0.7796    0.0377 C   0  0  0  0  0  0  0  0  0  0  0  0
   -3.3345   -1.5381   -0.1084 H   0  0  0  0  0  0  0  0  0  0  0  0
   -4.0858    0.0117   -1.8699 H   0  0  0  0  0  0  0  0  0  0  0  0
   -2.4578    1.7417   -2.6277 H   0  0  0  0  0  0  0  0  0  0  0  0
   -0.5324    2.4696   -1.2098 H   0  0  0  0  0  0  0  0  0  0  0  0
    0.2122    0.9081    0.5316 H   0  0  0  0  0  0  0  0  0  0  0  0
   -3.4469    3.3698    0.2788 S   0  0  0  0  0  0  0  0  0  0  0  0
   -2.1880    4.0444    0.5206 O   0  0  0  0  0  0  0  0  0  0  0  0
   -3.4583    2.1009    1.3181 O   0  0  0  0  0  0  0  0  0  0  0  0
   -4.7258    4.0490    0.3879 O   0  0  0  0  0  0  0  0  0  0  0  0
   -3.4650    2.6635   -1.1624 O   0  0  0  0  0  0  0  0  0  0  0  0
   -4.3805    1.8033    1.3898 H   0  0  0  0  0  0  0  0  0  0  0  0
  1  2  1  0  0  0  0
  2  3  1  0  0  0  0
  4  9  1  0  0  0  0
  4  1  2  0  0  0  0
  5  4  1  0  0  0  0
  6 11  1  6  0  0  0
  6  5  1  0  0  0  0
  6 18  1  0  0  0  0
  6  7  1  0  0  0  0
  7  8  2  0  0  0  0
  8  1  1  0  0  0  0
  8 13  1  0  0  0  0
 10  5  1  0  0  0  0
 12  7  1  0  0  0  0
 14 17  2  0  0  0  0
 14 15  2  0  0  0  0
 14 16  1  0  0  0  0
 16 19  1  0  0  0  0
 18 14  1  0  0  0  0
M  RAD  3   2   2   3   3   5   2
M  END
