Coordinates from ORCA-job PhN2+~HSO4-_B3LYPG-6-31G_dp-NX-Scan-d89-09-n800
 OpenBabel11261920153D

 19 19  0  0  1  0  0  0  0  0999 V2000
   -1.6149   -0.2631    0.2809 C   0  0  1  0  0  0  0  0  0  0  0  0
   -1.7384   -0.4650    1.5751 N   0  0  0  0  0  0  0  0  0  0  0  0
   -1.9447   -0.5075    2.6915 N   0  0  0  0  0  0  0  0  0  0  0  0
   -2.7170   -0.6746   -0.5692 C   0  0  0  0  0  0  0  0  0  0  0  0
   -3.0742    0.1327   -1.5877 C   0  0  0  0  0  0  0  0  0  0  0  0
   -2.4851    1.4923   -1.6910 C   0  0  2  0  0  0  0  0  0  0  0  0
   -1.1043    1.5913   -1.1646 C   0  0  0  0  0  0  0  0  0  0  0  0
   -0.7191    0.7939   -0.1482 C   0  0  0  0  0  0  0  0  0  0  0  0
   -3.2257   -1.6117   -0.3652 H   0  0  0  0  0  0  0  0  0  0  0  0
   -3.8643   -0.1468   -2.2765 H   0  0  0  0  0  0  0  0  0  0  0  0
   -2.6038    1.9441   -2.6740 H   0  0  0  0  0  0  0  0  0  0  0  0
   -0.4606    2.3850   -1.5255 H   0  0  0  0  0  0  0  0  0  0  0  0
    0.2230    0.9368    0.3710 H   0  0  0  0  0  0  0  0  0  0  0  0
   -3.3025    3.0633    0.5445 S   0  0  0  0  0  0  0  0  0  0  0  0
   -2.0231    3.7358    0.6633 O   0  0  0  0  0  0  0  0  0  0  0  0
   -3.2046    1.7458    1.5509 O   0  0  0  0  0  0  0  0  0  0  0  0
   -4.5567    3.7237    0.8701 O   0  0  0  0  0  0  0  0  0  0  0  0
   -3.5087    2.4434   -0.9102 O   0  0  0  0  0  0  0  0  0  0  0  0
   -4.0964    1.6429    1.9224 H   0  0  0  0  0  0  0  0  0  0  0  0
  1  2  1  1  0  0  0
  2  3  1  0  0  0  0
  4  9  1  0  0  0  0
  4  1  1  0  0  0  0
  5  4  2  0  0  0  0
  6 11  1  6  0  0  0
  6  5  1  0  0  0  0
  6  7  1  0  0  0  0
  6 18  1  0  0  0  0
  7  8  2  0  0  0  0
  8  1  1  0  0  0  0
  8 13  1  0  0  0  0
 10  5  1  0  0  0  0
 12  7  1  0  0  0  0
 14 15  2  0  0  0  0
 14 17  2  0  0  0  0
 14 16  1  0  0  0  0
 16 19  1  0  0  0  0
 18 14  1  0  0  0  0
M  RAD  3   1   2   2   2   3   3
M  END
