Coordinates from ORCA-job PhN2+~HSO4-_B3LYPG-6-31G_dp-NX-Scan-d89-09-n800
 OpenBabel11261920153D

 19 19  0  0  1  0  0  0  0  0999 V2000
   -1.4593   -0.9354    0.2484 C   0  0  0  0  0  0  0  0  0  0  0  0
   -0.9982   -2.0399    0.7923 N   0  0  0  0  0  0  0  0  0  0  0  0
   -0.5992   -2.9965    1.2728 N   0  0  0  0  0  0  0  0  0  0  0  0
   -2.5117   -0.9988   -0.7426 C   0  0  0  0  0  0  0  0  0  0  0  0
   -2.9837    0.1344   -1.2963 C   0  0  0  0  0  0  0  0  0  0  0  0
   -2.5170    1.4870   -0.8799 C   0  0  2  0  0  0  0  0  0  0  0  0
   -1.3527    1.4748    0.0528 C   0  0  0  0  0  0  0  0  0  0  0  0
   -0.8811    0.3417    0.6075 C   0  0  0  0  0  0  0  0  0  0  0  0
   -2.8869   -1.9713   -1.0447 H   0  0  0  0  0  0  0  0  0  0  0  0
   -3.7592    0.0912   -2.0539 H   0  0  0  0  0  0  0  0  0  0  0  0
   -2.3643    2.1519   -1.7338 H   0  0  0  0  0  0  0  0  0  0  0  0
   -0.9041    2.4303    0.3015 H   0  0  0  0  0  0  0  0  0  0  0  0
   -0.0484    0.3594    1.3040 H   0  0  0  0  0  0  0  0  0  0  0  0
   -3.9769    3.6845   -0.2747 S   0  0  0  0  0  0  0  0  0  0  0  0
   -3.5373    4.1736   -1.5675 O   0  0  0  0  0  0  0  0  0  0  0  0
   -2.8962    4.2938    0.7966 O   0  0  0  0  0  0  0  0  0  0  0  0
   -5.3079    3.9213    0.2521 O   0  0  0  0  0  0  0  0  0  0  0  0
   -3.7262    2.1039   -0.1522 O   0  0  0  0  0  0  0  0  0  0  0  0
   -3.3106    4.2564    1.6751 H   0  0  0  0  0  0  0  0  0  0  0  0
  1  8  1  0  0  0  0
  1  2  1  0  0  0  0
  2  3  1  0  0  0  0
  4  1  2  0  0  0  0
  5  6  1  0  0  0  0
  5  4  1  0  0  0  0
  6 11  1  6  0  0  0
  6 18  1  0  0  0  0
  6  7  1  0  0  0  0
  7 12  1  0  0  0  0
  7  8  2  0  0  0  0
  8 13  1  0  0  0  0
  9  4  1  0  0  0  0
 10  5  1  0  0  0  0
 14 18  1  0  0  0  0
 14 17  2  0  0  0  0
 14 16  1  0  0  0  0
 15 14  2  0  0  0  0
 16 19  1  0  0  0  0
M  RAD  3   2   2   3   3   5   2
M  END
