Coordinates from ORCA-job PhN2+~HSO4-_B3LYPG-6-31G_dp-NX-Scan-d89-09-n800
 OpenBabel11261920153D

 19 18  0  0  0  0  0  0  0  0999 V2000
   -2.6087    0.1868   -0.2771 C   0  0  0  0  0  0  0  0  0  0  0  0
   -3.1786   -0.0126    0.9796 N   0  0  0  0  0  0  0  0  0  0  0  0
   -3.7006    0.3536    1.9317 N   0  0  0  0  0  0  0  0  0  0  0  0
   -2.1608   -0.9660   -0.9415 C   0  0  0  0  0  0  0  0  0  0  0  0
   -1.5999   -0.8299   -2.2044 C   0  0  0  0  0  0  0  0  0  0  0  0
   -1.4935    0.4405   -2.7822 C   0  0  0  0  0  0  0  0  0  0  0  0
   -1.9439    1.5767   -2.1027 C   0  0  0  0  0  0  0  0  0  0  0  0
   -2.5091    1.4725   -0.8355 C   0  0  0  0  0  0  0  0  0  0  0  0
   -2.2576   -1.9336   -0.4616 H   0  0  0  0  0  0  0  0  0  0  0  0
   -1.2455   -1.7062   -2.7359 H   0  0  0  0  0  0  0  0  0  0  0  0
   -1.0525    0.5451   -3.7685 H   0  0  0  0  0  0  0  0  0  0  0  0
   -1.8471    2.5583   -2.5543 H   0  0  0  0  0  0  0  0  0  0  0  0
   -2.8369    2.3561   -0.3011 H   0  0  0  0  0  0  0  0  0  0  0  0
   -2.4284    3.2445    2.2241 S   0  0  0  0  0  0  0  0  0  0  0  0
   -1.4263    2.1739    2.1934 O   0  0  0  0  0  0  0  0  0  0  0  0
   -3.9708    2.2253    1.9046 O   0  0  0  0  0  0  0  0  0  0  0  0
   -2.7916    3.8146    3.5218 O   0  0  0  0  0  0  0  0  0  0  0  0
   -2.4832    4.1180    1.0465 O   0  0  0  0  0  0  0  0  0  0  0  0
   -4.4860    2.3449    2.7206 H   0  0  0  0  0  0  0  0  0  0  0  0
  1  2  1  0  0  0  0
  2  3  2  0  0  0  0
  4  9  1  0  0  0  0
  4  1  2  0  0  0  0
  5  4  1  0  0  0  0
  6  5  2  0  0  0  0
  6  7  1  0  0  0  0
  7  8  2  0  0  0  0
  8 13  1  0  0  0  0
  8  1  1  0  0  0  0
 10  5  1  0  0  0  0
 11  6  1  0  0  0  0
 12  7  1  0  0  0  0
 14 17  1  0  0  0  0
 15 14  2  0  0  0  0
 16 14  1  0  0  0  0
 16 19  1  0  0  0  0
 18 14  2  0  0  0  0
M  RAD  2   3   2  17   2
M  END
