Coordinates from ORCA-job PhN2+~HSO4-_B3LYPG-6-31G_dp-NX-Scan-d89-09-n800
 OpenBabel11261920153D

 19 19  0  0  1  0  0  0  0  0999 V2000
   -1.6097   -0.2639    0.3092 C   0  0  1  0  0  0  0  0  0  0  0  0
   -1.6280   -0.5845    1.5838 N   0  0  0  0  0  0  0  0  0  0  0  0
   -1.7080   -0.7866    2.7004 N   0  0  0  0  0  0  0  0  0  0  0  0
   -2.7446   -0.6432   -0.5078 C   0  0  0  0  0  0  0  0  0  0  0  0
   -3.1106    0.1662   -1.5214 C   0  0  0  0  0  0  0  0  0  0  0  0
   -2.4869    1.5063   -1.6754 C   0  0  2  0  0  0  0  0  0  0  0  0
   -1.1112    1.6009   -1.1313 C   0  0  0  0  0  0  0  0  0  0  0  0
   -0.7244    0.7989   -0.1192 C   0  0  0  0  0  0  0  0  0  0  0  0
   -3.2687   -1.5687   -0.2896 H   0  0  0  0  0  0  0  0  0  0  0  0
   -3.9289   -0.1006   -2.1819 H   0  0  0  0  0  0  0  0  0  0  0  0
   -2.5726    1.9053   -2.6852 H   0  0  0  0  0  0  0  0  0  0  0  0
   -0.4658    2.3964   -1.4854 H   0  0  0  0  0  0  0  0  0  0  0  0
    0.2229    0.9373    0.3915 H   0  0  0  0  0  0  0  0  0  0  0  0
   -3.3264    3.1188    0.4936 S   0  0  0  0  0  0  0  0  0  0  0  0
   -2.0503    3.7839    0.6682 O   0  0  0  0  0  0  0  0  0  0  0  0
   -3.2573    1.7812    1.4662 O   0  0  0  0  0  0  0  0  0  0  0  0
   -4.5897    3.7755    0.7876 O   0  0  0  0  0  0  0  0  0  0  0  0
   -3.4862    2.5297   -0.9824 O   0  0  0  0  0  0  0  0  0  0  0  0
   -4.1748    1.6095    1.7366 H   0  0  0  0  0  0  0  0  0  0  0  0
  1  2  1  1  0  0  0
  2  3  1  0  0  0  0
  4  9  1  0  0  0  0
  4  1  1  0  0  0  0
  5  4  2  0  0  0  0
  6 11  1  6  0  0  0
  6  5  1  0  0  0  0
  6  7  1  0  0  0  0
  6 18  1  0  0  0  0
  7  8  2  0  0  0  0
  8  1  1  0  0  0  0
  8 13  1  0  0  0  0
 10  5  1  0  0  0  0
 12  7  1  0  0  0  0
 14 15  2  0  0  0  0
 14 17  2  0  0  0  0
 14 16  1  0  0  0  0
 16 19  1  0  0  0  0
 18 14  1  0  0  0  0
M  RAD  3   1   2   2   2   3   3
M  END
