Coordinates from ORCA-job PhN2+~HSO4-_B3LYPG-6-31G_dp-NX-Scan-d89-09-n800
 OpenBabel11261920153D

 19 19  0  0  1  0  0  0  0  0999 V2000
   -1.5986   -0.2992    0.3851 C   0  0  0  0  0  0  0  0  0  0  0  0
   -1.3592   -0.9374    1.5083 N   0  0  0  0  0  0  0  0  0  0  0  0
   -1.1720   -1.4690    2.4995 N   0  0  0  0  0  0  0  0  0  0  0  0
   -2.7866   -0.6128   -0.3756 C   0  0  0  0  0  0  0  0  0  0  0  0
   -3.1747    0.2175   -1.3640 C   0  0  0  0  0  0  0  0  0  0  0  0
   -2.4926    1.5185   -1.6070 C   0  0  2  0  0  0  0  0  0  0  0  0
   -1.1402    1.6237   -1.0005 C   0  0  0  0  0  0  0  0  0  0  0  0
   -0.7433    0.7946   -0.0149 C   0  0  0  0  0  0  0  0  0  0  0  0
   -3.3302   -1.5255   -0.1508 H   0  0  0  0  0  0  0  0  0  0  0  0
   -4.0428   -0.0165   -1.9713 H   0  0  0  0  0  0  0  0  0  0  0  0
   -2.4947    1.7980   -2.6619 H   0  0  0  0  0  0  0  0  0  0  0  0
   -0.5013    2.4393   -1.3192 H   0  0  0  0  0  0  0  0  0  0  0  0
    0.2123    0.9231    0.4826 H   0  0  0  0  0  0  0  0  0  0  0  0
   -3.4060    3.2852    0.3508 S   0  0  0  0  0  0  0  0  0  0  0  0
   -2.1427    3.9547    0.5852 O   0  0  0  0  0  0  0  0  0  0  0  0
   -3.3869    1.9740    1.3428 O   0  0  0  0  0  0  0  0  0  0  0  0
   -4.6837    3.9525    0.5312 O   0  0  0  0  0  0  0  0  0  0  0  0
   -3.4658    2.6431   -1.1165 O   0  0  0  0  0  0  0  0  0  0  0  0
   -4.3121    1.6986    1.4536 H   0  0  0  0  0  0  0  0  0  0  0  0
  1  2  1  0  0  0  0
  2  3  1  0  0  0  0
  4  9  1  0  0  0  0
  4  1  1  0  0  0  0
  5  4  2  0  0  0  0
  6 11  1  6  0  0  0
  6  5  1  0  0  0  0
  6 18  1  0  0  0  0
  6  7  1  0  0  0  0
  7  8  1  0  0  0  0
  8  1  2  0  0  0  0
  8 13  1  0  0  0  0
 10  5  1  0  0  0  0
 12  7  1  0  0  0  0
 14 17  2  0  0  0  0
 14 15  2  0  0  0  0
 14 16  1  0  0  0  0
 16 19  1  0  0  0  0
 18 14  1  0  0  0  0
M  RAD  3   2   2   3   3   7   2
M  END
