Coordinates from ORCA-job PhN2+~HSO4-_B3LYPG-6-31G_dp-NX-Scan-d89-09-n800
 OpenBabel11261920153D

 19 18  0  0  0  0  0  0  0  0999 V2000
   -2.4093    0.3328   -0.3167 C   0  0  0  0  0  0  0  0  0  0  0  0
   -2.9203    0.2309    0.9720 N   0  0  0  0  0  0  0  0  0  0  0  0
   -3.3030   -0.0060    1.9951 N   0  0  0  0  0  0  0  0  0  0  0  0
   -2.6765   -0.7413   -1.1836 C   0  0  0  0  0  0  0  0  0  0  0  0
   -2.1561   -0.6726   -2.4685 C   0  0  0  0  0  0  0  0  0  0  0  0
   -1.3842    0.4320   -2.8521 C   0  0  0  0  0  0  0  0  0  0  0  0
   -1.1277    1.4776   -1.9597 C   0  0  0  0  0  0  0  0  0  0  0  0
   -1.6455    1.4545   -0.6684 C   0  0  0  0  0  0  0  0  0  0  0  0
   -3.2771   -1.5815   -0.8537 H   0  0  0  0  0  0  0  0  0  0  0  0
   -2.3509   -1.4772   -3.1694 H   0  0  0  0  0  0  0  0  0  0  0  0
   -0.9808    0.4756   -3.8590 H   0  0  0  0  0  0  0  0  0  0  0  0
   -0.5301    2.3271   -2.2726 H   0  0  0  0  0  0  0  0  0  0  0  0
   -1.4888    2.2428    0.0667 H   0  0  0  0  0  0  0  0  0  0  0  0
   -3.2646    3.1875    1.9613 S   0  0  0  0  0  0  0  0  0  0  0  0
   -1.7884    2.9986    1.9327 O   0  0  0  0  0  0  0  0  0  0  0  0
   -3.7658    1.9932    3.0811 O   0  0  0  0  0  0  0  0  0  0  0  0
   -3.7398    4.4592    2.5008 O   0  0  0  0  0  0  0  0  0  0  0  0
   -3.9362    2.6641    0.7494 O   0  0  0  0  0  0  0  0  0  0  0  0
   -3.2761    2.1650    3.9020 H   0  0  0  0  0  0  0  0  0  0  0  0
  1  2  1  0  0  0  0
  2  3  1  0  0  0  0
  4  9  1  0  0  0  0
  4  1  2  0  0  0  0
  5  4  1  0  0  0  0
  6  5  2  0  0  0  0
  6  7  1  0  0  0  0
  7  8  2  0  0  0  0
  8  1  1  0  0  0  0
  8 13  1  0  0  0  0
 10  5  1  0  0  0  0
 11  6  1  0  0  0  0
 12  7  1  0  0  0  0
 14 17  1  0  0  0  0
 14 16  1  0  0  0  0
 15 14  2  0  0  0  0
 16 19  1  0  0  0  0
 18 14  2  0  0  0  0
M  RAD  3   2   2   3   3  17   2
M  END
