Coordinates from ORCA-job PhN2+~HSO4-_B3LYPG-6-31G_dp-NX-Scan-d89-09-n800
 OpenBabel11261920153D

 19 19  0  0  1  0  0  0  0  0999 V2000
   -1.5118   -0.7837    0.2915 C   0  0  0  0  0  0  0  0  0  0  0  0
   -1.0941   -1.7857    1.0331 N   0  0  0  0  0  0  0  0  0  0  0  0
   -0.7317   -2.6428    1.6946 N   0  0  0  0  0  0  0  0  0  0  0  0
   -2.5632   -0.9852   -0.6817 C   0  0  0  0  0  0  0  0  0  0  0  0
   -3.0265    0.0606   -1.3937 C   0  0  0  0  0  0  0  0  0  0  0  0
   -2.5745    1.4570   -1.1365 C   0  0  2  0  0  0  0  0  0  0  0  0
   -1.3488    1.5564   -0.2922 C   0  0  0  0  0  0  0  0  0  0  0  0
   -0.8826    0.5130    0.4199 C   0  0  0  0  0  0  0  0  0  0  0  0
   -2.9395   -1.9901   -0.8443 H   0  0  0  0  0  0  0  0  0  0  0  0
   -3.7964   -0.0867   -2.1436 H   0  0  0  0  0  0  0  0  0  0  0  0
   -2.4938    2.0527   -2.0478 H   0  0  0  0  0  0  0  0  0  0  0  0
   -0.8583    2.5215   -0.2337 H   0  0  0  0  0  0  0  0  0  0  0  0
   -0.0156    0.6113    1.0657 H   0  0  0  0  0  0  0  0  0  0  0  0
   -3.7650    3.6662   -0.1222 S   0  0  0  0  0  0  0  0  0  0  0  0
   -2.9007    4.3451   -1.0699 O   0  0  0  0  0  0  0  0  0  0  0  0
   -2.9708    3.7422    1.3067 O   0  0  0  0  0  0  0  0  0  0  0  0
   -5.1428    4.0563    0.1156 O   0  0  0  0  0  0  0  0  0  0  0  0
   -3.7843    2.0889   -0.4117 O   0  0  0  0  0  0  0  0  0  0  0  0
   -3.6206    3.5655    2.0075 H   0  0  0  0  0  0  0  0  0  0  0  0
  1  8  1  0  0  0  0
  1  2  1  0  0  0  0
  2  3  1  0  0  0  0
  4  1  2  0  0  0  0
  5  6  1  0  0  0  0
  5  4  1  0  0  0  0
  6 11  1  6  0  0  0
  6 18  1  0  0  0  0
  6  7  1  0  0  0  0
  7 12  1  0  0  0  0
  7  8  2  0  0  0  0
  8 13  1  0  0  0  0
  9  4  1  0  0  0  0
 10  5  1  0  0  0  0
 14 17  2  0  0  0  0
 14 16  1  0  0  0  0
 15 14  2  0  0  0  0
 16 19  1  0  0  0  0
 18 14  1  0  0  0  0
M  RAD  3   2   2   3   3   5   2
M  END
