Coordinates from ORCA-job PhN2+~HSO4-_B3LYPG-6-31G_dp-NX-Scan-d89-09-n800
 OpenBabel11261920153D

 19 19  0  0  1  0  0  0  0  0999 V2000
   -1.6100   -0.2629    0.3059 C   0  0  1  0  0  0  0  0  0  0  0  0
   -1.6390   -0.5705    1.5837 N   0  0  0  0  0  0  0  0  0  0  0  0
   -1.7354   -0.7519    2.7023 N   0  0  0  0  0  0  0  0  0  0  0  0
   -2.7415   -0.6460   -0.5142 C   0  0  0  0  0  0  0  0  0  0  0  0
   -3.1070    0.1630   -1.5284 C   0  0  0  0  0  0  0  0  0  0  0  0
   -2.4865    1.5050   -1.6776 C   0  0  2  0  0  0  0  0  0  0  0  0
   -1.1100    1.5996   -1.1363 C   0  0  0  0  0  0  0  0  0  0  0  0
   -0.7232    0.7984   -0.1235 C   0  0  0  0  0  0  0  0  0  0  0  0
   -3.2642   -1.5726   -0.2969 H   0  0  0  0  0  0  0  0  0  0  0  0
   -3.9227   -0.1052   -2.1914 H   0  0  0  0  0  0  0  0  0  0  0  0
   -2.5763    1.9097   -2.6846 H   0  0  0  0  0  0  0  0  0  0  0  0
   -0.4647    2.3947   -1.4915 H   0  0  0  0  0  0  0  0  0  0  0  0
    0.2238    0.9372    0.3877 H   0  0  0  0  0  0  0  0  0  0  0  0
   -3.3232    3.1117    0.5001 S   0  0  0  0  0  0  0  0  0  0  0  0
   -2.0462    3.7762    0.6707 O   0  0  0  0  0  0  0  0  0  0  0  0
   -3.2530    1.7748    1.4746 O   0  0  0  0  0  0  0  0  0  0  0  0
   -4.5852    3.7694    0.7977 O   0  0  0  0  0  0  0  0  0  0  0  0
   -3.4877    2.5220   -0.9748 O   0  0  0  0  0  0  0  0  0  0  0  0
   -4.1690    1.6098    1.7539 H   0  0  0  0  0  0  0  0  0  0  0  0
  1  2  1  1  0  0  0
  2  3  1  0  0  0  0
  4  9  1  0  0  0  0
  4  1  1  0  0  0  0
  5  4  2  0  0  0  0
  6 11  1  6  0  0  0
  6  5  1  0  0  0  0
  6  7  1  0  0  0  0
  6 18  1  0  0  0  0
  7  8  2  0  0  0  0
  8  1  1  0  0  0  0
  8 13  1  0  0  0  0
 10  5  1  0  0  0  0
 12  7  1  0  0  0  0
 14 15  2  0  0  0  0
 14 17  2  0  0  0  0
 14 16  1  0  0  0  0
 16 19  1  0  0  0  0
 18 14  1  0  0  0  0
M  RAD  3   1   2   2   2   3   3
M  END
