Coordinates from ORCA-job PhN2+~HSO4-_B3LYPG-6-31G_dp-NX-Scan-d89-09-n800
 OpenBabel11261920153D

 19 19  0  0  1  0  0  0  0  0999 V2000
   -1.4887   -0.8324    0.2781 C   0  0  0  0  0  0  0  0  0  0  0  0
   -1.0408   -1.8675    0.9537 N   0  0  0  0  0  0  0  0  0  0  0  0
   -0.6530   -2.7580    1.5544 N   0  0  0  0  0  0  0  0  0  0  0  0
   -2.5549   -0.9987   -0.6857 C   0  0  0  0  0  0  0  0  0  0  0  0
   -3.0322    0.0710   -1.3508 C   0  0  0  0  0  0  0  0  0  0  0  0
   -2.5698    1.4586   -1.0656 C   0  0  2  0  0  0  0  0  0  0  0  0
   -1.3553    1.5344   -0.2025 C   0  0  0  0  0  0  0  0  0  0  0  0
   -0.8771    0.4662    0.4635 C   0  0  0  0  0  0  0  0  0  0  0  0
   -2.9329   -1.9975   -0.8794 H   0  0  0  0  0  0  0  0  0  0  0  0
   -3.8157   -0.0508   -2.0912 H   0  0  0  0  0  0  0  0  0  0  0  0
   -2.4699    2.0647   -1.9685 H   0  0  0  0  0  0  0  0  0  0  0  0
   -0.8770    2.5018   -0.0970 H   0  0  0  0  0  0  0  0  0  0  0  0
   -0.0127    0.5477    1.1152 H   0  0  0  0  0  0  0  0  0  0  0  0
   -3.8062    3.6931   -0.1744 S   0  0  0  0  0  0  0  0  0  0  0  0
   -2.9906    4.3283   -1.1928 O   0  0  0  0  0  0  0  0  0  0  0  0
   -2.9795    3.9075    1.2217 O   0  0  0  0  0  0  0  0  0  0  0  0
   -5.1913    4.0506    0.0707 O   0  0  0  0  0  0  0  0  0  0  0  0
   -3.7749    2.0977   -0.3451 O   0  0  0  0  0  0  0  0  0  0  0  0
   -3.5987    3.7457    1.9531 H   0  0  0  0  0  0  0  0  0  0  0  0
  1  8  1  0  0  0  0
  1  2  1  0  0  0  0
  2  3  1  0  0  0  0
  4  1  2  0  0  0  0
  5  6  1  0  0  0  0
  5  4  1  0  0  0  0
  6 11  1  6  0  0  0
  6 18  1  0  0  0  0
  6  7  1  0  0  0  0
  7 12  1  0  0  0  0
  7  8  2  0  0  0  0
  8 13  1  0  0  0  0
  9  4  1  0  0  0  0
 10  5  1  0  0  0  0
 14 17  2  0  0  0  0
 14 16  1  0  0  0  0
 15 14  2  0  0  0  0
 16 19  1  0  0  0  0
 18 14  1  0  0  0  0
M  RAD  3   2   2   3   3   5   2
M  END
