Coordinates from ORCA-job PhN2+~HSO4-_B3LYPG-6-31G_dp-NX-Scan-d89-09-n800
 OpenBabel11261920153D

 19 19  0  0  1  0  0  0  0  0999 V2000
   -1.6417   -0.2763    0.2590 C   0  0  1  0  0  0  0  0  0  0  0  0
   -1.8467   -0.4100    1.5531 N   0  0  0  0  0  0  0  0  0  0  0  0
   -2.1387   -0.3145    2.6462 N   0  0  0  0  0  0  0  0  0  0  0  0
   -2.6944   -0.7184   -0.6390 C   0  0  0  0  0  0  0  0  0  0  0  0
   -3.0334    0.0948   -1.6602 C   0  0  0  0  0  0  0  0  0  0  0  0
   -2.4869    1.4749   -1.6951 C   0  0  2  0  0  0  0  0  0  0  0  0
   -1.1089    1.5831   -1.1668 C   0  0  0  0  0  0  0  0  0  0  0  0
   -0.7344    0.7822   -0.1489 C   0  0  0  0  0  0  0  0  0  0  0  0
   -3.1835   -1.6716   -0.4648 H   0  0  0  0  0  0  0  0  0  0  0  0
   -3.7835   -0.1940   -2.3885 H   0  0  0  0  0  0  0  0  0  0  0  0
   -2.6304    1.9832   -2.6458 H   0  0  0  0  0  0  0  0  0  0  0  0
   -0.4662    2.3809   -1.5197 H   0  0  0  0  0  0  0  0  0  0  0  0
    0.1960    0.9267    0.3905 H   0  0  0  0  0  0  0  0  0  0  0  0
   -3.2943    3.0407    0.5719 S   0  0  0  0  0  0  0  0  0  0  0  0
   -2.0375    3.7662    0.5830 O   0  0  0  0  0  0  0  0  0  0  0  0
   -3.0990    1.7792    1.6441 O   0  0  0  0  0  0  0  0  0  0  0  0
   -4.5530    3.6754    0.9324 O   0  0  0  0  0  0  0  0  0  0  0  0
   -3.5480    2.3258   -0.8277 O   0  0  0  0  0  0  0  0  0  0  0  0
   -3.9368    1.7341    2.1338 H   0  0  0  0  0  0  0  0  0  0  0  0
  1  2  1  1  0  0  0
  2  3  1  0  0  0  0
  4  9  1  0  0  0  0
  4  1  1  0  0  0  0
  5  4  2  0  0  0  0
  6 11  1  6  0  0  0
  6  5  1  0  0  0  0
  6  7  1  0  0  0  0
  6 18  1  0  0  0  0
  7  8  2  0  0  0  0
  8  1  1  0  0  0  0
  8 13  1  0  0  0  0
 10  5  1  0  0  0  0
 12  7  1  0  0  0  0
 14 15  2  0  0  0  0
 14 17  2  0  0  0  0
 14 16  1  0  0  0  0
 16 19  1  0  0  0  0
 18 14  1  0  0  0  0
M  RAD  3   1   2   2   2   3   3
M  END
