Coordinates from ORCA-job PhN2+~HSO4-_B3LYPG-6-31G_dp-NX-Scan-d89-09-n800
 OpenBabel11261920163D

 19 18  0  0  0  0  0  0  0  0999 V2000
   -2.8524    0.2196   -0.2502 C   0  0  0  0  0  0  0  0  0  0  0  0
   -3.5386   -0.1369    0.9356 N   0  0  0  0  0  0  0  0  0  0  0  0
   -4.0596    0.5352    1.8039 N   0  0  0  0  0  0  0  0  0  0  0  0
   -2.1086   -0.8416   -0.7943 C   0  0  0  0  0  0  0  0  0  0  0  0
   -1.4028   -0.6691   -1.9797 C   0  0  0  0  0  0  0  0  0  0  0  0
   -1.4628    0.5555   -2.6496 C   0  0  0  0  0  0  0  0  0  0  0  0
   -2.2245    1.6033   -2.1259 C   0  0  0  0  0  0  0  0  0  0  0  0
   -2.9170    1.4532   -0.9265 C   0  0  0  0  0  0  0  0  0  0  0  0
   -2.0994   -1.7871   -0.2629 H   0  0  0  0  0  0  0  0  0  0  0  0
   -0.8201   -1.4894   -2.3869 H   0  0  0  0  0  0  0  0  0  0  0  0
   -0.9225    0.6921   -3.5813 H   0  0  0  0  0  0  0  0  0  0  0  0
   -2.2757    2.5526   -2.6501 H   0  0  0  0  0  0  0  0  0  0  0  0
   -3.5002    2.2710   -0.5317 H   0  0  0  0  0  0  0  0  0  0  0  0
   -1.9013    3.1414    2.2143 S   0  0  0  0  0  0  0  0  0  0  0  0
   -1.0782    1.9451    2.2545 O   0  0  0  0  0  0  0  0  0  0  0  0
   -3.9510    2.0016    1.6291 O   0  0  0  0  0  0  0  0  0  0  0  0
   -2.5516    3.6132    3.4295 O   0  0  0  0  0  0  0  0  0  0  0  0
   -1.8915    3.9918    1.0353 O   0  0  0  0  0  0  0  0  0  0  0  0
   -4.4635    2.3107    2.3943 H   0  0  0  0  0  0  0  0  0  0  0  0
  1  2  1  0  0  0  0
  2  3  2  0  0  0  0
  4  9  1  0  0  0  0
  4  1  1  0  0  0  0
  5  4  2  0  0  0  0
  6  7  2  0  0  0  0
  6  5  1  0  0  0  0
  7  8  1  0  0  0  0
  8 13  1  0  0  0  0
  8  1  2  0  0  0  0
 10  5  1  0  0  0  0
 11  6  1  0  0  0  0
 12  7  1  0  0  0  0
 14 15  2  0  0  0  0
 14 17  1  0  0  0  0
 16  3  1  0  0  0  0
 16 19  1  0  0  0  0
 18 14  1  0  0  0  0
M  RAD  2  17   2  18   2
M  END
