Coordinates from ORCA-job PhN2+~HSO4-_B3LYPG-6-31G_dp-NX-Scan-d89-09-n800
 OpenBabel11261920163D

 19 18  0  0  0  0  0  0  0  0999 V2000
   -2.8980    0.2246   -0.2538 C   0  0  0  0  0  0  0  0  0  0  0  0
   -3.6167   -0.1485    0.9109 N   0  0  0  0  0  0  0  0  0  0  0  0
   -4.1232    0.5437    1.7807 N   0  0  0  0  0  0  0  0  0  0  0  0
   -2.1060   -0.8161   -0.7685 C   0  0  0  0  0  0  0  0  0  0  0  0
   -1.3696   -0.6298   -1.9332 C   0  0  0  0  0  0  0  0  0  0  0  0
   -1.4500    0.5857   -2.6175 C   0  0  0  0  0  0  0  0  0  0  0  0
   -2.2628    1.6107   -2.1273 C   0  0  0  0  0  0  0  0  0  0  0  0
   -2.9832    1.4478   -0.9458 C   0  0  0  0  0  0  0  0  0  0  0  0
   -2.0843   -1.7578   -0.2307 H   0  0  0  0  0  0  0  0  0  0  0  0
   -0.7486   -1.4341   -2.3150 H   0  0  0  0  0  0  0  0  0  0  0  0
   -0.8874    0.7317   -3.5346 H   0  0  0  0  0  0  0  0  0  0  0  0
   -2.3322    2.5524   -2.6632 H   0  0  0  0  0  0  0  0  0  0  0  0
   -3.6063    2.2491   -0.5778 H   0  0  0  0  0  0  0  0  0  0  0  0
   -1.8294    3.1063    2.1834 S   0  0  0  0  0  0  0  0  0  0  0  0
   -1.0317    1.8953    2.2600 O   0  0  0  0  0  0  0  0  0  0  0  0
   -3.9538    1.9663    1.6288 O   0  0  0  0  0  0  0  0  0  0  0  0
   -2.5035    3.6060    3.3744 O   0  0  0  0  0  0  0  0  0  0  0  0
   -1.7990    3.9268    0.9843 O   0  0  0  0  0  0  0  0  0  0  0  0
   -4.4353    2.3020    2.4026 H   0  0  0  0  0  0  0  0  0  0  0  0
  1  2  1  0  0  0  0
  2  3  2  0  0  0  0
  4  1  1  0  0  0  0
  4  9  1  0  0  0  0
  5  4  2  0  0  0  0
  6  7  2  0  0  0  0
  6  5  1  0  0  0  0
  7  8  1  0  0  0  0
  8 13  1  0  0  0  0
  8  1  2  0  0  0  0
 10  5  1  0  0  0  0
 11  6  1  0  0  0  0
 12  7  1  0  0  0  0
 14 15  2  0  0  0  0
 14 17  1  0  0  0  0
 16  3  1  0  0  0  0
 16 19  1  0  0  0  0
 18 14  1  0  0  0  0
M  RAD  2  17   2  18   2
M  END
