Coordinates from ORCA-job PhN2+~HSO4-_B3LYPG-6-31G_dp-NX-Scan-d89-09-n800
 OpenBabel11261920153D

 19 19  0  0  1  0  0  0  0  0999 V2000
   -1.6104   -0.2598    0.3024 C   0  0  1  0  0  0  0  0  0  0  0  0
   -1.6552   -0.5465    1.5848 N   0  0  0  0  0  0  0  0  0  0  0  0
   -1.7700   -0.7027    2.7053 N   0  0  0  0  0  0  0  0  0  0  0  0
   -2.7386   -0.6475   -0.5209 C   0  0  0  0  0  0  0  0  0  0  0  0
   -3.1026    0.1597   -1.5371 C   0  0  0  0  0  0  0  0  0  0  0  0
   -2.4858    1.5038   -1.6815 C   0  0  2  0  0  0  0  0  0  0  0  0
   -1.1079    1.5984   -1.1442 C   0  0  0  0  0  0  0  0  0  0  0  0
   -0.7215    0.7994   -0.1295 C   0  0  0  0  0  0  0  0  0  0  0  0
   -3.2598   -1.5750   -0.3039 H   0  0  0  0  0  0  0  0  0  0  0  0
   -3.9149   -0.1106   -2.2033 H   0  0  0  0  0  0  0  0  0  0  0  0
   -2.5813    1.9155   -2.6850 H   0  0  0  0  0  0  0  0  0  0  0  0
   -0.4622    2.3918   -1.5025 H   0  0  0  0  0  0  0  0  0  0  0  0
    0.2255    0.9386    0.3817 H   0  0  0  0  0  0  0  0  0  0  0  0
   -3.3179    3.0990    0.5096 S   0  0  0  0  0  0  0  0  0  0  0  0
   -2.0380    3.7589    0.6779 O   0  0  0  0  0  0  0  0  0  0  0  0
   -3.2506    1.7602    1.4831 O   0  0  0  0  0  0  0  0  0  0  0  0
   -4.5768    3.7604    0.8122 O   0  0  0  0  0  0  0  0  0  0  0  0
   -3.4883    2.5122   -0.9653 O   0  0  0  0  0  0  0  0  0  0  0  0
   -4.1649    1.6065    1.7738 H   0  0  0  0  0  0  0  0  0  0  0  0
  1  2  1  1  0  0  0
  2  3  1  0  0  0  0
  4  9  1  0  0  0  0
  4  1  1  0  0  0  0
  5  4  2  0  0  0  0
  6 11  1  6  0  0  0
  6  5  1  0  0  0  0
  6  7  1  0  0  0  0
  6 18  1  0  0  0  0
  7  8  2  0  0  0  0
  8  1  1  0  0  0  0
  8 13  1  0  0  0  0
 10  5  1  0  0  0  0
 12  7  1  0  0  0  0
 14 15  2  0  0  0  0
 14 17  2  0  0  0  0
 14 16  1  0  0  0  0
 16 19  1  0  0  0  0
 18 14  1  0  0  0  0
M  RAD  3   1   2   2   2   3   3
M  END
