Coordinates from ORCA-job PhN2+~HSO4-_B3LYPG-6-31G_dp-NX-Scan-d89-09-n800
 OpenBabel11261920153D

 19 19  0  0  1  0  0  0  0  0999 V2000
   -1.6117   -0.2667    0.3234 C   0  0  1  0  0  0  0  0  0  0  0  0
   -1.5805   -0.6493    1.5802 N   0  0  0  0  0  0  0  0  0  0  0  0
   -1.6065   -0.9195    2.6854 N   0  0  0  0  0  0  0  0  0  0  0  0
   -2.7558   -0.6341   -0.4840 C   0  0  0  0  0  0  0  0  0  0  0  0
   -3.1238    0.1774   -1.4953 C   0  0  0  0  0  0  0  0  0  0  0  0
   -2.4883    1.5102   -1.6663 C   0  0  2  0  0  0  0  0  0  0  0  0
   -1.1170    1.6056   -1.1100 C   0  0  0  0  0  0  0  0  0  0  0  0
   -0.7308    0.8003   -0.1003 C   0  0  0  0  0  0  0  0  0  0  0  0
   -3.2844   -1.5567   -0.2638 H   0  0  0  0  0  0  0  0  0  0  0  0
   -3.9509   -0.0843   -2.1469 H   0  0  0  0  0  0  0  0  0  0  0  0
   -2.5582    1.8882   -2.6857 H   0  0  0  0  0  0  0  0  0  0  0  0
   -0.4714    2.4037   -1.4579 H   0  0  0  0  0  0  0  0  0  0  0  0
    0.2174    0.9368    0.4092 H   0  0  0  0  0  0  0  0  0  0  0  0
   -3.3395    3.1488    0.4671 S   0  0  0  0  0  0  0  0  0  0  0  0
   -2.0679    3.8196    0.6516 O   0  0  0  0  0  0  0  0  0  0  0  0
   -3.2700    1.8118    1.4368 O   0  0  0  0  0  0  0  0  0  0  0  0
   -4.6083    3.8003    0.7474 O   0  0  0  0  0  0  0  0  0  0  0  0
   -3.4827    2.5561   -1.0102 O   0  0  0  0  0  0  0  0  0  0  0  0
   -4.1907    1.6141    1.6767 H   0  0  0  0  0  0  0  0  0  0  0  0
  1  2  1  1  0  0  0
  2  3  1  0  0  0  0
  4  9  1  0  0  0  0
  4  1  1  0  0  0  0
  5  4  2  0  0  0  0
  6 11  1  6  0  0  0
  6  5  1  0  0  0  0
  6  7  1  0  0  0  0
  6 18  1  0  0  0  0
  7  8  2  0  0  0  0
  8  1  1  0  0  0  0
  8 13  1  0  0  0  0
 10  5  1  0  0  0  0
 12  7  1  0  0  0  0
 14 15  2  0  0  0  0
 14 17  2  0  0  0  0
 14 16  1  0  0  0  0
 16 19  1  0  0  0  0
 18 14  1  0  0  0  0
M  RAD  3   1   2   2   2   3   3
M  END
