Coordinates from ORCA-job PhN2+~HSO4-_B3LYPG-6-31G_dp-NX-Scan-d89-09-n800
 OpenBabel11261920153D

 19 19  0  0  1  0  0  0  0  0999 V2000
   -1.5865   -0.6177    0.3250 C   0  0  0  0  0  0  0  0  0  0  0  0
   -1.2874   -1.4888    1.2635 N   0  0  0  0  0  0  0  0  0  0  0  0
   -1.0293   -2.2147    2.1050 N   0  0  0  0  0  0  0  0  0  0  0  0
   -2.5952   -0.9213   -0.6669 C   0  0  0  0  0  0  0  0  0  0  0  0
   -3.0006    0.0447   -1.5154 C   0  0  0  0  0  0  0  0  0  0  0  0
   -2.5620    1.4588   -1.3435 C   0  0  2  0  0  0  0  0  0  0  0  0
   -1.2987    1.6055   -0.5659 C   0  0  0  0  0  0  0  0  0  0  0  0
   -0.8815    0.6444    0.2800 C   0  0  0  0  0  0  0  0  0  0  0  0
   -2.9814   -1.9336   -0.7305 H   0  0  0  0  0  0  0  0  0  0  0  0
   -3.7298   -0.1731   -2.2882 H   0  0  0  0  0  0  0  0  0  0  0  0
   -2.5397    2.0213   -2.2774 H   0  0  0  0  0  0  0  0  0  0  0  0
   -0.7626    2.5437   -0.6421 H   0  0  0  0  0  0  0  0  0  0  0  0
   -0.0065    0.7790    0.9078 H   0  0  0  0  0  0  0  0  0  0  0  0
   -3.6513    3.5448    0.0501 S   0  0  0  0  0  0  0  0  0  0  0  0
   -2.6808    4.3453   -0.6739 O   0  0  0  0  0  0  0  0  0  0  0  0
   -2.9594    3.2170    1.4998 O   0  0  0  0  0  0  0  0  0  0  0  0
   -5.0077    3.9943    0.3095 O   0  0  0  0  0  0  0  0  0  0  0  0
   -3.7754    2.0866   -0.5968 O   0  0  0  0  0  0  0  0  0  0  0  0
   -3.6852    3.0263    2.1174 H   0  0  0  0  0  0  0  0  0  0  0  0
  1  2  1  0  0  0  0
  2  3  1  0  0  0  0
  4  1  1  0  0  0  0
  5  6  1  0  0  0  0
  5  4  2  0  0  0  0
  6 11  1  6  0  0  0
  6 18  1  0  0  0  0
  6  7  1  0  0  0  0
  7  8  1  0  0  0  0
  8  1  2  0  0  0  0
  8 13  1  0  0  0  0
  9  4  1  0  0  0  0
 10  5  1  0  0  0  0
 12  7  1  0  0  0  0
 14 17  2  0  0  0  0
 14 16  1  0  0  0  0
 15 14  2  0  0  0  0
 16 19  1  0  0  0  0
 18 14  1  0  0  0  0
M  RAD  3   2   2   3   3   7   2
M  END
