Coordinates from ORCA-job PhN2+~HSO4-_B3LYPG-6-31G_dp-NX-Scan-d89-09-n800
 OpenBabel11261920153D

 19 19  0  0  1  0  0  0  0  0999 V2000
   -1.6116   -0.2627    0.2894 C   0  0  1  0  0  0  0  0  0  0  0  0
   -1.7026   -0.4995    1.5800 N   0  0  0  0  0  0  0  0  0  0  0  0
   -1.8703   -0.5918    2.7003 N   0  0  0  0  0  0  0  0  0  0  0  0
   -2.7259   -0.6632   -0.5484 C   0  0  0  0  0  0  0  0  0  0  0  0
   -3.0870    0.1445   -1.5652 C   0  0  0  0  0  0  0  0  0  0  0  0
   -2.4854    1.4974   -1.6866 C   0  0  2  0  0  0  0  0  0  0  0  0
   -1.1055    1.5939   -1.1563 C   0  0  0  0  0  0  0  0  0  0  0  0
   -0.7192    0.7954   -0.1411 C   0  0  0  0  0  0  0  0  0  0  0  0
   -3.2404   -1.5960   -0.3384 H   0  0  0  0  0  0  0  0  0  0  0  0
   -3.8876   -0.1307   -2.2435 H   0  0  0  0  0  0  0  0  0  0  0  0
   -2.5941    1.9316   -2.6789 H   0  0  0  0  0  0  0  0  0  0  0  0
   -0.4611    2.3876   -1.5160 H   0  0  0  0  0  0  0  0  0  0  0  0
    0.2250    0.9370    0.3744 H   0  0  0  0  0  0  0  0  0  0  0  0
   -3.3092    3.0797    0.5298 S   0  0  0  0  0  0  0  0  0  0  0  0
   -2.0303    3.7482    0.6714 O   0  0  0  0  0  0  0  0  0  0  0  0
   -3.2235    1.7528    1.5215 O   0  0  0  0  0  0  0  0  0  0  0  0
   -4.5665    3.7387    0.8454 O   0  0  0  0  0  0  0  0  0  0  0  0
   -3.4990    2.4759   -0.9349 O   0  0  0  0  0  0  0  0  0  0  0  0
   -4.1271    1.6235    1.8545 H   0  0  0  0  0  0  0  0  0  0  0  0
  1  2  1  1  0  0  0
  2  3  1  0  0  0  0
  4  9  1  0  0  0  0
  4  1  1  0  0  0  0
  5  4  2  0  0  0  0
  6 11  1  6  0  0  0
  6  5  1  0  0  0  0
  6  7  1  0  0  0  0
  6 18  1  0  0  0  0
  7  8  2  0  0  0  0
  8  1  1  0  0  0  0
  8 13  1  0  0  0  0
 10  5  1  0  0  0  0
 12  7  1  0  0  0  0
 14 15  2  0  0  0  0
 14 17  2  0  0  0  0
 14 16  1  0  0  0  0
 16 19  1  0  0  0  0
 18 14  1  0  0  0  0
M  RAD  3   1   2   2   2   3   3
M  END
