Coordinates from ORCA-job PhN2+~HSO4-_B3LYPG-6-31G_dp-NX-Scan-d89-09-n800
 OpenBabel11261920163D

 19 18  0  0  0  0  0  0  0  0999 V2000
   -3.0686    0.2125   -0.2769 C   0  0  0  0  0  0  0  0  0  0  0  0
   -3.9343   -0.2111    0.7803 N   0  0  0  0  0  0  0  0  0  0  0  0
   -4.3349    0.5365    1.6950 N   0  0  0  0  0  0  0  0  0  0  0  0
   -2.1662   -0.7729   -0.7084 C   0  0  0  0  0  0  0  0  0  0  0  0
   -1.3174   -0.5314   -1.7844 C   0  0  0  0  0  0  0  0  0  0  0  0
   -1.3898    0.6825   -2.4729 C   0  0  0  0  0  0  0  0  0  0  0  0
   -2.3114    1.6515   -2.0724 C   0  0  0  0  0  0  0  0  0  0  0  0
   -3.1445    1.4308   -0.9753 C   0  0  0  0  0  0  0  0  0  0  0  0
   -2.1509   -1.7210   -0.1810 H   0  0  0  0  0  0  0  0  0  0  0  0
   -0.6129   -1.2964   -2.0972 H   0  0  0  0  0  0  0  0  0  0  0  0
   -0.7393    0.8678   -3.3225 H   0  0  0  0  0  0  0  0  0  0  0  0
   -2.3798    2.5925   -2.6100 H   0  0  0  0  0  0  0  0  0  0  0  0
   -3.8566    2.1916   -0.6821 H   0  0  0  0  0  0  0  0  0  0  0  0
   -1.6096    3.0976    2.0085 S   0  0  0  0  0  0  0  0  0  0  0  0
   -0.7366    1.9485    2.1588 O   0  0  0  0  0  0  0  0  0  0  0  0
   -3.9400    1.7229    1.6919 O   0  0  0  0  0  0  0  0  0  0  0  0
   -2.4234    3.5407    3.1343 O   0  0  0  0  0  0  0  0  0  0  0  0
   -1.6100    3.8729    0.7807 O   0  0  0  0  0  0  0  0  0  0  0  0
   -4.2949    2.1468    2.4910 H   0  0  0  0  0  0  0  0  0  0  0  0
  1  2  1  0  0  0  0
  2  3  2  0  0  0  0
  4  1  1  0  0  0  0
  4  9  1  0  0  0  0
  5  4  2  0  0  0  0
  6  7  2  0  0  0  0
  6  5  1  0  0  0  0
  7  8  1  0  0  0  0
  8 13  1  0  0  0  0
  8  1  2  0  0  0  0
 10  5  1  0  0  0  0
 11  6  1  0  0  0  0
 12  7  1  0  0  0  0
 14 15  2  0  0  0  0
 14 17  1  0  0  0  0
 16  3  1  0  0  0  0
 16 19  1  0  0  0  0
 18 14  1  0  0  0  0
M  RAD  2  17   2  18   2
M  END
