Coordinates from ORCA-job PhN2+~HSO4-_B3LYPG-6-31G_dp-NX-Scan-d89-09-n800
 OpenBabel11261920153D

 19 19  0  0  1  0  0  0  0  0999 V2000
   -1.6496   -0.2781    0.2519 C   0  0  1  0  0  0  0  0  0  0  0  0
   -1.8753   -0.3936    1.5457 N   0  0  0  0  0  0  0  0  0  0  0  0
   -2.1890   -0.2457    2.6266 N   0  0  0  0  0  0  0  0  0  0  0  0
   -2.6869   -0.7300   -0.6584 C   0  0  0  0  0  0  0  0  0  0  0  0
   -3.0204    0.0841   -1.6814 C   0  0  0  0  0  0  0  0  0  0  0  0
   -2.4853    1.4680   -1.6983 C   0  0  2  0  0  0  0  0  0  0  0  0
   -1.1086    1.5792   -1.1711 C   0  0  0  0  0  0  0  0  0  0  0  0
   -0.7383    0.7792   -0.1504 C   0  0  0  0  0  0  0  0  0  0  0  0
   -3.1714   -1.6867   -0.4907 H   0  0  0  0  0  0  0  0  0  0  0  0
   -3.7595   -0.2068   -2.4199 H   0  0  0  0  0  0  0  0  0  0  0  0
   -2.6405    1.9943   -2.6369 H   0  0  0  0  0  0  0  0  0  0  0  0
   -0.4660    2.3775   -1.5227 H   0  0  0  0  0  0  0  0  0  0  0  0
    0.1878    0.9252    0.3958 H   0  0  0  0  0  0  0  0  0  0  0  0
   -3.2925    3.0311    0.5830 S   0  0  0  0  0  0  0  0  0  0  0  0
   -2.0391    3.7633    0.5694 O   0  0  0  0  0  0  0  0  0  0  0  0
   -3.0799    1.7823    1.6724 O   0  0  0  0  0  0  0  0  0  0  0  0
   -4.5491    3.6664    0.9509 O   0  0  0  0  0  0  0  0  0  0  0  0
   -3.5562    2.2904   -0.7993 O   0  0  0  0  0  0  0  0  0  0  0  0
   -3.9012    1.7623    2.1909 H   0  0  0  0  0  0  0  0  0  0  0  0
  1  2  1  1  0  0  0
  2  3  1  0  0  0  0
  4  9  1  0  0  0  0
  4  1  1  0  0  0  0
  5  4  2  0  0  0  0
  6 11  1  6  0  0  0
  6  5  1  0  0  0  0
  6  7  1  0  0  0  0
  6 18  1  0  0  0  0
  7  8  2  0  0  0  0
  8  1  1  0  0  0  0
  8 13  1  0  0  0  0
 10  5  1  0  0  0  0
 12  7  1  0  0  0  0
 14 17  2  0  0  0  0
 14 16  1  0  0  0  0
 15 14  2  0  0  0  0
 16 19  1  0  0  0  0
 18 14  1  0  0  0  0
M  RAD  3   1   2   2   2   3   3
M  END
