Coordinates from ORCA-job PhN2+~HSO4-_B3LYPG-6-31G_dp-NX-Scan-d89-09-n800
 OpenBabel11261920153D

 19 19  0  0  1  0  0  0  0  0999 V2000
   -1.5533   -0.6956    0.3102 C   0  0  0  0  0  0  0  0  0  0  0  0
   -1.1999   -1.6300    1.1650 N   0  0  0  0  0  0  0  0  0  0  0  0
   -0.8928   -2.4179    1.9313 N   0  0  0  0  0  0  0  0  0  0  0  0
   -2.5784   -0.9542   -0.6775 C   0  0  0  0  0  0  0  0  0  0  0  0
   -3.0106    0.0492   -1.4668 C   0  0  0  0  0  0  0  0  0  0  0  0
   -2.5709    1.4571   -1.2534 C   0  0  2  0  0  0  0  0  0  0  0  0
   -1.3248    1.5864   -0.4445 C   0  0  0  0  0  0  0  0  0  0  0  0
   -0.8849    0.5868    0.3432 C   0  0  0  0  0  0  0  0  0  0  0  0
   -2.9571   -1.9654   -0.7872 H   0  0  0  0  0  0  0  0  0  0  0  0
   -3.7559   -0.1379   -2.2322 H   0  0  0  0  0  0  0  0  0  0  0  0
   -2.5241    2.0375   -2.1760 H   0  0  0  0  0  0  0  0  0  0  0  0
   -0.8106    2.5402   -0.4610 H   0  0  0  0  0  0  0  0  0  0  0  0
   -0.0142    0.7071    0.9799 H   0  0  0  0  0  0  0  0  0  0  0  0
   -3.7022    3.6028   -0.0274 S   0  0  0  0  0  0  0  0  0  0  0  0
   -2.7791    4.3531   -0.8592 O   0  0  0  0  0  0  0  0  0  0  0  0
   -2.9580    3.4556    1.4242 O   0  0  0  0  0  0  0  0  0  0  0  0
   -5.0676    4.0293    0.2220 O   0  0  0  0  0  0  0  0  0  0  0  0
   -3.7846    2.0791   -0.5145 O   0  0  0  0  0  0  0  0  0  0  0  0
   -3.6520    3.2791    2.0812 H   0  0  0  0  0  0  0  0  0  0  0  0
  1  8  2  0  0  0  0
  1  2  1  0  0  0  0
  2  3  1  0  0  0  0
  4  1  1  0  0  0  0
  5  6  1  0  0  0  0
  5  4  2  0  0  0  0
  6 11  1  6  0  0  0
  6 18  1  0  0  0  0
  6  7  1  0  0  0  0
  7  8  1  0  0  0  0
  8 13  1  0  0  0  0
  9  4  1  0  0  0  0
 10  5  1  0  0  0  0
 12  7  1  0  0  0  0
 14 17  2  0  0  0  0
 14 16  1  0  0  0  0
 15 14  2  0  0  0  0
 16 19  1  0  0  0  0
 18 14  1  0  0  0  0
M  RAD  3   2   2   3   3   7   2
M  END
