Coordinates from ORCA-job PhN2+~HSO4-_B3LYPG-6-31G_dp-NX-Scan-d89-09-n800
 OpenBabel11261920153D

 19 19  0  0  1  0  0  0  0  0999 V2000
   -1.4876   -0.8357    0.2773 C   0  0  0  0  0  0  0  0  0  0  0  0
   -1.0387   -1.8731    0.9487 N   0  0  0  0  0  0  0  0  0  0  0  0
   -0.6500   -2.7658    1.5457 N   0  0  0  0  0  0  0  0  0  0  0  0
   -2.5539   -0.9994   -0.6868 C   0  0  0  0  0  0  0  0  0  0  0  0
   -3.0315    0.0723   -1.3487 C   0  0  0  0  0  0  0  0  0  0  0  0
   -2.5687    1.4590   -1.0603 C   0  0  2  0  0  0  0  0  0  0  0  0
   -1.3553    1.5328   -0.1956 C   0  0  0  0  0  0  0  0  0  0  0  0
   -0.8770    0.4626    0.4673 C   0  0  0  0  0  0  0  0  0  0  0  0
   -2.9318   -1.9976   -0.8834 H   0  0  0  0  0  0  0  0  0  0  0  0
   -3.8151   -0.0475   -2.0893 H   0  0  0  0  0  0  0  0  0  0  0  0
   -2.4676    2.0666   -1.9621 H   0  0  0  0  0  0  0  0  0  0  0  0
   -0.8777    2.5001   -0.0862 H   0  0  0  0  0  0  0  0  0  0  0  0
   -0.0132    0.5425    1.1199 H   0  0  0  0  0  0  0  0  0  0  0  0
   -3.8106    3.6940   -0.1780 S   0  0  0  0  0  0  0  0  0  0  0  0
   -3.0028    4.3267   -1.2041 O   0  0  0  0  0  0  0  0  0  0  0  0
   -2.9778    3.9205    1.2125 O   0  0  0  0  0  0  0  0  0  0  0  0
   -5.1960    4.0471    0.0719 O   0  0  0  0  0  0  0  0  0  0  0  0
   -3.7737    2.0977   -0.3395 O   0  0  0  0  0  0  0  0  0  0  0  0
   -3.5922    3.7595    1.9481 H   0  0  0  0  0  0  0  0  0  0  0  0
  1  8  1  0  0  0  0
  1  2  1  0  0  0  0
  2  3  1  0  0  0  0
  4  1  2  0  0  0  0
  5  6  1  0  0  0  0
  5  4  1  0  0  0  0
  6 11  1  6  0  0  0
  6 18  1  0  0  0  0
  6  7  1  0  0  0  0
  7 12  1  0  0  0  0
  7  8  2  0  0  0  0
  8 13  1  0  0  0  0
  9  4  1  0  0  0  0
 10  5  1  0  0  0  0
 14 17  2  0  0  0  0
 14 16  1  0  0  0  0
 15 14  2  0  0  0  0
 16 19  1  0  0  0  0
 18 14  1  0  0  0  0
M  RAD  3   2   2   3   3   5   2
M  END
