Coordinates from ORCA-job PhN2+~HSO4-_B3LYPG-6-31G_dp-NX-Scan-d89-09-n800
 OpenBabel11261920153D

 19 18  0  0  0  0  0  0  0  0999 V2000
   -2.4141    0.3360   -0.3130 C   0  0  0  0  0  0  0  0  0  0  0  0
   -2.9321    0.2443    0.9723 N   0  0  0  0  0  0  0  0  0  0  0  0
   -3.3329    0.0580    2.0019 N   0  0  0  0  0  0  0  0  0  0  0  0
   -2.6675   -0.7485   -1.1716 C   0  0  0  0  0  0  0  0  0  0  0  0
   -2.1457   -0.6879   -2.4561 C   0  0  0  0  0  0  0  0  0  0  0  0
   -1.3826    0.4198   -2.8487 C   0  0  0  0  0  0  0  0  0  0  0  0
   -1.1370    1.4756   -1.9656 C   0  0  0  0  0  0  0  0  0  0  0  0
   -1.6581    1.4603   -0.6753 C   0  0  0  0  0  0  0  0  0  0  0  0
   -3.2606   -1.5911   -0.8344 H   0  0  0  0  0  0  0  0  0  0  0  0
   -2.3314   -1.5009   -3.1497 H   0  0  0  0  0  0  0  0  0  0  0  0
   -0.9768    0.4571   -3.8549 H   0  0  0  0  0  0  0  0  0  0  0  0
   -0.5448    2.3265   -2.2847 H   0  0  0  0  0  0  0  0  0  0  0  0
   -1.5047    2.2557    0.0522 H   0  0  0  0  0  0  0  0  0  0  0  0
   -3.2573    3.2161    1.9635 S   0  0  0  0  0  0  0  0  0  0  0  0
   -1.7828    3.0269    1.9265 O   0  0  0  0  0  0  0  0  0  0  0  0
   -3.7539    1.9423    3.0175 O   0  0  0  0  0  0  0  0  0  0  0  0
   -3.7346    4.4426    2.5965 O   0  0  0  0  0  0  0  0  0  0  0  0
   -3.9363    2.7641    0.7312 O   0  0  0  0  0  0  0  0  0  0  0  0
   -3.2680    2.0652    3.8499 H   0  0  0  0  0  0  0  0  0  0  0  0
  1  2  1  0  0  0  0
  2  3  1  0  0  0  0
  4  9  1  0  0  0  0
  4  1  2  0  0  0  0
  5  4  1  0  0  0  0
  6  5  2  0  0  0  0
  6  7  1  0  0  0  0
  7  8  2  0  0  0  0
  8  1  1  0  0  0  0
  8 13  1  0  0  0  0
 10  5  1  0  0  0  0
 11  6  1  0  0  0  0
 12  7  1  0  0  0  0
 14 17  1  0  0  0  0
 14 16  1  0  0  0  0
 15 14  2  0  0  0  0
 16 19  1  0  0  0  0
 18 14  2  0  0  0  0
M  RAD  3   2   2   3   3  17   2
M  END
