Coordinates from ORCA-job PhN2+~HSO4-_B3LYPG-6-31G_dp-NX-Scan-d89-09-n800
 OpenBabel11261920153D

 19 19  0  0  1  0  0  0  0  0999 V2000
   -1.5492   -0.3774    0.4117 C   0  0  0  0  0  0  0  0  0  0  0  0
   -1.1663   -1.1852    1.3756 N   0  0  0  0  0  0  0  0  0  0  0  0
   -0.8385   -1.8820    2.2185 N   0  0  0  0  0  0  0  0  0  0  0  0
   -2.7805   -0.6375   -0.2991 C   0  0  0  0  0  0  0  0  0  0  0  0
   -3.2049    0.2300   -1.2389 C   0  0  0  0  0  0  0  0  0  0  0  0
   -2.4960    1.5096   -1.5293 C   0  0  2  0  0  0  0  0  0  0  0  0
   -1.1640    1.6359   -0.8759 C   0  0  0  0  0  0  0  0  0  0  0  0
   -0.7372    0.7664    0.0607 C   0  0  0  0  0  0  0  0  0  0  0  0
   -3.3298   -1.5484   -0.0810 H   0  0  0  0  0  0  0  0  0  0  0  0
   -4.1117    0.0288   -1.8002 H   0  0  0  0  0  0  0  0  0  0  0  0
   -2.4386    1.7071   -2.6033 H   0  0  0  0  0  0  0  0  0  0  0  0
   -0.5496    2.4863   -1.1481 H   0  0  0  0  0  0  0  0  0  0  0  0
    0.2229    0.8951    0.5493 H   0  0  0  0  0  0  0  0  0  0  0  0
   -3.4702    3.4136    0.2414 S   0  0  0  0  0  0  0  0  0  0  0  0
   -2.2046    4.0677    0.5034 O   0  0  0  0  0  0  0  0  0  0  0  0
   -3.5385    2.1719    1.3080 O   0  0  0  0  0  0  0  0  0  0  0  0
   -4.7366    4.1218    0.2923 O   0  0  0  0  0  0  0  0  0  0  0  0
   -3.4609    2.6708   -1.1826 O   0  0  0  0  0  0  0  0  0  0  0  0
   -4.4667    1.8879    1.3549 H   0  0  0  0  0  0  0  0  0  0  0  0
  1  2  1  0  0  0  0
  2  3  1  0  0  0  0
  4  9  1  0  0  0  0
  4  1  2  0  0  0  0
  5  4  1  0  0  0  0
  6 11  1  6  0  0  0
  6  5  1  0  0  0  0
  6 18  1  0  0  0  0
  6  7  1  0  0  0  0
  7  8  2  0  0  0  0
  8  1  1  0  0  0  0
  8 13  1  0  0  0  0
 10  5  1  0  0  0  0
 12  7  1  0  0  0  0
 14 17  2  0  0  0  0
 14 15  2  0  0  0  0
 14 16  1  0  0  0  0
 16 19  1  0  0  0  0
 18 14  1  0  0  0  0
M  RAD  3   2   2   3   3   5   2
M  END
