Coordinates from ORCA-job PhN2+~HSO4-_B3LYPG-6-31G_dp-NX-Scan-d89-09-n800
 OpenBabel11261920153D

 19 18  0  0  0  0  0  0  0  0999 V2000
   -2.4160    0.3337   -0.3124 C   0  0  0  0  0  0  0  0  0  0  0  0
   -2.9355    0.2412    0.9717 N   0  0  0  0  0  0  0  0  0  0  0  0
   -3.3402    0.0656    2.0023 N   0  0  0  0  0  0  0  0  0  0  0  0
   -2.6650   -0.7523   -1.1708 C   0  0  0  0  0  0  0  0  0  0  0  0
   -2.1426   -0.6916   -2.4549 C   0  0  0  0  0  0  0  0  0  0  0  0
   -1.3823    0.4178   -2.8480 C   0  0  0  0  0  0  0  0  0  0  0  0
   -1.1403    1.4749   -1.9655 C   0  0  0  0  0  0  0  0  0  0  0  0
   -1.6624    1.4596   -0.6755 C   0  0  0  0  0  0  0  0  0  0  0  0
   -3.2557   -1.5964   -0.8330 H   0  0  0  0  0  0  0  0  0  0  0  0
   -2.3255   -1.5059   -3.1478 H   0  0  0  0  0  0  0  0  0  0  0  0
   -0.9757    0.4553   -3.8538 H   0  0  0  0  0  0  0  0  0  0  0  0
   -0.5499    2.3270   -2.2849 H   0  0  0  0  0  0  0  0  0  0  0  0
   -1.5097    2.2570    0.0498 H   0  0  0  0  0  0  0  0  0  0  0  0
   -3.2547    3.2258    1.9644 S   0  0  0  0  0  0  0  0  0  0  0  0
   -1.7807    3.0365    1.9246 O   0  0  0  0  0  0  0  0  0  0  0  0
   -3.7509    1.9359    3.0053 O   0  0  0  0  0  0  0  0  0  0  0  0
   -3.7322    4.4415    2.6173 O   0  0  0  0  0  0  0  0  0  0  0  0
   -3.9358    2.7884    0.7290 O   0  0  0  0  0  0  0  0  0  0  0  0
   -3.2660    2.0482    3.8399 H   0  0  0  0  0  0  0  0  0  0  0  0
  1  2  1  0  0  0  0
  2  3  1  0  0  0  0
  4  9  1  0  0  0  0
  4  1  2  0  0  0  0
  5  4  1  0  0  0  0
  6  5  2  0  0  0  0
  6  7  1  0  0  0  0
  7  8  2  0  0  0  0
  8  1  1  0  0  0  0
  8 13  1  0  0  0  0
 10  5  1  0  0  0  0
 11  6  1  0  0  0  0
 12  7  1  0  0  0  0
 14 17  1  0  0  0  0
 14 16  1  0  0  0  0
 15 14  2  0  0  0  0
 16 19  1  0  0  0  0
 18 14  2  0  0  0  0
M  RAD  3   2   2   3   3  17   2
M  END
