Coordinates from ORCA-job PhN2+~HSO4-_B3LYPG-6-31G_dp-NX-Scan-d89-09-n800
 OpenBabel11261920153D

 19 19  0  0  1  0  0  0  0  0999 V2000
   -1.6100   -0.2622    0.2975 C   0  0  1  0  0  0  0  0  0  0  0  0
   -1.6697   -0.5333    1.5828 N   0  0  0  0  0  0  0  0  0  0  0  0
   -1.8012   -0.6701    2.7038 N   0  0  0  0  0  0  0  0  0  0  0  0
   -2.7340   -0.6536   -0.5303 C   0  0  0  0  0  0  0  0  0  0  0  0
   -3.0977    0.1545   -1.5458 C   0  0  0  0  0  0  0  0  0  0  0  0
   -2.4859    1.5016   -1.6824 C   0  0  2  0  0  0  0  0  0  0  0  0
   -1.1073    1.5967   -1.1475 C   0  0  0  0  0  0  0  0  0  0  0  0
   -0.7204    0.7971   -0.1334 C   0  0  0  0  0  0  0  0  0  0  0  0
   -3.2530   -1.5828   -0.3157 H   0  0  0  0  0  0  0  0  0  0  0  0
   -3.9067   -0.1170   -2.2156 H   0  0  0  0  0  0  0  0  0  0  0  0
   -2.5853    1.9204   -2.6825 H   0  0  0  0  0  0  0  0  0  0  0  0
   -0.4623    2.3907   -1.5056 H   0  0  0  0  0  0  0  0  0  0  0  0
    0.2256    0.9372    0.3794 H   0  0  0  0  0  0  0  0  0  0  0  0
   -3.3157    3.0947    0.5157 S   0  0  0  0  0  0  0  0  0  0  0  0
   -2.0366    3.7585    0.6749 O   0  0  0  0  0  0  0  0  0  0  0  0
   -3.2414    1.7609    1.4965 O   0  0  0  0  0  0  0  0  0  0  0  0
   -4.5746    3.7546    0.8218 O   0  0  0  0  0  0  0  0  0  0  0  0
   -3.4921    2.5012   -0.9557 O   0  0  0  0  0  0  0  0  0  0  0  0
   -4.1528    1.6134    1.7996 H   0  0  0  0  0  0  0  0  0  0  0  0
  1  2  1  1  0  0  0
  2  3  1  0  0  0  0
  4  9  1  0  0  0  0
  4  1  1  0  0  0  0
  5  4  2  0  0  0  0
  6 11  1  6  0  0  0
  6  5  1  0  0  0  0
  6  7  1  0  0  0  0
  6 18  1  0  0  0  0
  7  8  2  0  0  0  0
  8  1  1  0  0  0  0
  8 13  1  0  0  0  0
 10  5  1  0  0  0  0
 12  7  1  0  0  0  0
 14 15  2  0  0  0  0
 14 17  2  0  0  0  0
 14 16  1  0  0  0  0
 16 19  1  0  0  0  0
 18 14  1  0  0  0  0
M  RAD  3   1   2   2   2   3   3
M  END
