Coordinates from ORCA-job PhN2+~HSO4-_B3LYPG-6-31G_dp-NX-Scan-d89-09-n800
 OpenBabel11261920153D

 19 19  0  0  1  0  0  0  0  0999 V2000
   -1.5910   -0.3124    0.3948 C   0  0  0  0  0  0  0  0  0  0  0  0
   -1.3153   -0.9949    1.4834 N   0  0  0  0  0  0  0  0  0  0  0  0
   -1.0921   -1.5704    2.4425 N   0  0  0  0  0  0  0  0  0  0  0  0
   -2.7884   -0.6143   -0.3557 C   0  0  0  0  0  0  0  0  0  0  0  0
   -3.1828    0.2227   -1.3359 C   0  0  0  0  0  0  0  0  0  0  0  0
   -2.4932    1.5179   -1.5914 C   0  0  2  0  0  0  0  0  0  0  0  0
   -1.1451    1.6268   -0.9744 C   0  0  0  0  0  0  0  0  0  0  0  0
   -0.7435    0.7904    0.0030 C   0  0  0  0  0  0  0  0  0  0  0  0
   -3.3341   -1.5259   -0.1315 H   0  0  0  0  0  0  0  0  0  0  0  0
   -4.0595   -0.0046   -1.9337 H   0  0  0  0  0  0  0  0  0  0  0  0
   -2.4817    1.7778   -2.6517 H   0  0  0  0  0  0  0  0  0  0  0  0
   -0.5099    2.4484   -1.2849 H   0  0  0  0  0  0  0  0  0  0  0  0
    0.2134    0.9181    0.4981 H   0  0  0  0  0  0  0  0  0  0  0  0
   -3.4207    3.3140    0.3264 S   0  0  0  0  0  0  0  0  0  0  0  0
   -2.1583    3.9824    0.5682 O   0  0  0  0  0  0  0  0  0  0  0  0
   -3.4163    2.0142    1.3309 O   0  0  0  0  0  0  0  0  0  0  0  0
   -4.6983    3.9876    0.4810 O   0  0  0  0  0  0  0  0  0  0  0  0
   -3.4634    2.6537   -1.1344 O   0  0  0  0  0  0  0  0  0  0  0  0
   -4.3411    1.7306    1.4227 H   0  0  0  0  0  0  0  0  0  0  0  0
  1  2  1  0  0  0  0
  2  3  1  0  0  0  0
  4  9  1  0  0  0  0
  4  1  2  0  0  0  0
  5  4  1  0  0  0  0
  6 11  1  6  0  0  0
  6  5  1  0  0  0  0
  6 18  1  0  0  0  0
  6  7  1  0  0  0  0
  7  8  2  0  0  0  0
  8  1  1  0  0  0  0
  8 13  1  0  0  0  0
 10  5  1  0  0  0  0
 12  7  1  0  0  0  0
 14 17  2  0  0  0  0
 14 15  2  0  0  0  0
 14 16  1  0  0  0  0
 16 19  1  0  0  0  0
 18 14  1  0  0  0  0
M  RAD  3   2   2   3   3   5   2
M  END
