Coordinates from ORCA-job PhN2+~HSO4-_B3LYPG-6-31G_dp-NX-Scan-d89-09-n800
 OpenBabel11261920153D

 19 19  0  0  1  0  0  0  0  0999 V2000
   -1.4717   -0.9069    0.2592 C   0  0  0  0  0  0  0  0  0  0  0  0
   -1.0223   -1.9930    0.8481 N   0  0  0  0  0  0  0  0  0  0  0  0
   -0.6329   -2.9312    1.3704 N   0  0  0  0  0  0  0  0  0  0  0  0
   -2.5203   -0.9991   -0.7334 C   0  0  0  0  0  0  0  0  0  0  0  0
   -2.9885    0.1181   -1.3221 C   0  0  0  0  0  0  0  0  0  0  0  0
   -2.5275    1.4811   -0.9350 C   0  0  2  0  0  0  0  0  0  0  0  0
   -1.3500    1.4937   -0.0189 C   0  0  0  0  0  0  0  0  0  0  0  0
   -0.8820    0.3772    0.5711 C   0  0  0  0  0  0  0  0  0  0  0  0
   -2.8944   -1.9800   -1.0087 H   0  0  0  0  0  0  0  0  0  0  0  0
   -3.7600    0.0534   -2.0821 H   0  0  0  0  0  0  0  0  0  0  0  0
   -2.3925    2.1359   -1.7992 H   0  0  0  0  0  0  0  0  0  0  0  0
   -0.8911    2.4534    0.1914 H   0  0  0  0  0  0  0  0  0  0  0  0
   -0.0428    0.4121    1.2591 H   0  0  0  0  0  0  0  0  0  0  0  0
   -3.9417    3.6850   -0.2478 S   0  0  0  0  0  0  0  0  0  0  0  0
   -3.4246    4.2336   -1.4871 O   0  0  0  0  0  0  0  0  0  0  0  0
   -2.9002    4.2010    0.9072 O   0  0  0  0  0  0  0  0  0  0  0  0
   -5.2907    3.9308    0.2266 O   0  0  0  0  0  0  0  0  0  0  0  0
   -3.7391    2.0937   -0.2053 O   0  0  0  0  0  0  0  0  0  0  0  0
   -3.3487    4.1034    1.7640 H   0  0  0  0  0  0  0  0  0  0  0  0
  1  8  1  0  0  0  0
  1  2  1  0  0  0  0
  2  3  1  0  0  0  0
  4  1  2  0  0  0  0
  5  6  1  0  0  0  0
  5  4  1  0  0  0  0
  6 11  1  6  0  0  0
  6 18  1  0  0  0  0
  6  7  1  0  0  0  0
  7 12  1  0  0  0  0
  7  8  2  0  0  0  0
  8 13  1  0  0  0  0
  9  4  1  0  0  0  0
 10  5  1  0  0  0  0
 14 18  1  0  0  0  0
 14 17  2  0  0  0  0
 14 16  1  0  0  0  0
 15 14  2  0  0  0  0
 16 19  1  0  0  0  0
M  RAD  3   2   2   3   3   5   2
M  END
