Coordinates from ORCA-job PhN2+~HSO4-_B3LYPG-6-31G_dp-NX-Scan-d89-09-n800
 OpenBabel11261920153D

 19 19  0  0  1  0  0  0  0  0999 V2000
   -1.4560   -0.9424    0.2457 C   0  0  0  0  0  0  0  0  0  0  0  0
   -0.9917   -2.0512    0.7777 N   0  0  0  0  0  0  0  0  0  0  0  0
   -0.5903   -3.0123    1.2472 N   0  0  0  0  0  0  0  0  0  0  0  0
   -2.5101   -0.9985   -0.7441 C   0  0  0  0  0  0  0  0  0  0  0  0
   -2.9832    0.1386   -1.2888 C   0  0  0  0  0  0  0  0  0  0  0  0
   -2.5143    1.4885   -0.8660 C   0  0  2  0  0  0  0  0  0  0  0  0
   -1.3528    1.4698    0.0701 C   0  0  0  0  0  0  0  0  0  0  0  0
   -0.8802    0.3327    0.6158 C   0  0  0  0  0  0  0  0  0  0  0  0
   -2.8861   -1.9688   -1.0524 H   0  0  0  0  0  0  0  0  0  0  0  0
   -3.7602    0.1007   -2.0452 H   0  0  0  0  0  0  0  0  0  0  0  0
   -2.3573    2.1554   -1.7176 H   0  0  0  0  0  0  0  0  0  0  0  0
   -0.9064    2.4240    0.3276 H   0  0  0  0  0  0  0  0  0  0  0  0
   -0.0486    0.3460    1.3138 H   0  0  0  0  0  0  0  0  0  0  0  0
   -3.9847    3.6845   -0.2812 S   0  0  0  0  0  0  0  0  0  0  0  0
   -3.5611    4.1577   -1.5853 O   0  0  0  0  0  0  0  0  0  0  0  0
   -2.8980    4.3167    0.7706 O   0  0  0  0  0  0  0  0  0  0  0  0
   -5.3121    3.9201    0.2552 O   0  0  0  0  0  0  0  0  0  0  0  0
   -3.7222    2.1074   -0.1383 O   0  0  0  0  0  0  0  0  0  0  0  0
   -3.3056    4.2935    1.6526 H   0  0  0  0  0  0  0  0  0  0  0  0
  1  8  1  0  0  0  0
  1  2  1  0  0  0  0
  2  3  1  0  0  0  0
  4  1  2  0  0  0  0
  5  6  1  0  0  0  0
  5  4  1  0  0  0  0
  6 11  1  6  0  0  0
  6 18  1  0  0  0  0
  6  7  1  0  0  0  0
  7 12  1  0  0  0  0
  7  8  2  0  0  0  0
  8 13  1  0  0  0  0
  9  4  1  0  0  0  0
 10  5  1  0  0  0  0
 14 18  1  0  0  0  0
 14 17  2  0  0  0  0
 14 16  1  0  0  0  0
 15 14  2  0  0  0  0
 16 19  1  0  0  0  0
M  RAD  3   2   2   3   3   5   2
M  END
