Coordinates from ORCA-job PhN2+~HSO4-_B3LYPG-6-31G_dp-NX-Scan-d89-09-n800
 OpenBabel11261920153D

 19 19  0  0  1  0  0  0  0  0999 V2000
   -1.5685   -0.6596    0.3168 C   0  0  0  0  0  0  0  0  0  0  0  0
   -1.2405   -1.5647    1.2123 N   0  0  0  0  0  0  0  0  0  0  0  0
   -0.9563   -2.3238    2.0155 N   0  0  0  0  0  0  0  0  0  0  0  0
   -2.5859   -0.9396   -0.6730 C   0  0  0  0  0  0  0  0  0  0  0  0
   -3.0059    0.0464   -1.4906 C   0  0  0  0  0  0  0  0  0  0  0  0
   -2.5673    1.4576   -1.2966 C   0  0  2  0  0  0  0  0  0  0  0  0
   -1.3125    1.5957   -0.5032 C   0  0  0  0  0  0  0  0  0  0  0  0
   -0.8829    0.6141    0.3122 C   0  0  0  0  0  0  0  0  0  0  0  0
   -2.9678   -1.9517   -0.7608 H   0  0  0  0  0  0  0  0  0  0  0  0
   -3.7437   -0.1554   -2.2595 H   0  0  0  0  0  0  0  0  0  0  0  0
   -2.5331    2.0298   -2.2246 H   0  0  0  0  0  0  0  0  0  0  0  0
   -0.7882    2.5428   -0.5487 H   0  0  0  0  0  0  0  0  0  0  0  0
   -0.0100    0.7414    0.9443 H   0  0  0  0  0  0  0  0  0  0  0  0
   -3.6774    3.5763    0.0097 S   0  0  0  0  0  0  0  0  0  0  0  0
   -2.7294    4.3504   -0.7706 O   0  0  0  0  0  0  0  0  0  0  0  0
   -2.9606    3.3435    1.4647 O   0  0  0  0  0  0  0  0  0  0  0  0
   -5.0387    4.0156    0.2604 O   0  0  0  0  0  0  0  0  0  0  0  0
   -3.7806    2.0810   -0.5528 O   0  0  0  0  0  0  0  0  0  0  0  0
   -3.6716    3.1625    2.1019 H   0  0  0  0  0  0  0  0  0  0  0  0
  1  2  1  0  0  0  0
  2  3  1  0  0  0  0
  4  1  1  0  0  0  0
  5  6  1  0  0  0  0
  5  4  2  0  0  0  0
  6 11  1  6  0  0  0
  6 18  1  0  0  0  0
  6  7  1  0  0  0  0
  7  8  1  0  0  0  0
  8  1  2  0  0  0  0
  8 13  1  0  0  0  0
  9  4  1  0  0  0  0
 10  5  1  0  0  0  0
 12  7  1  0  0  0  0
 14 17  2  0  0  0  0
 14 16  1  0  0  0  0
 15 14  2  0  0  0  0
 16 19  1  0  0  0  0
 18 14  1  0  0  0  0
M  RAD  3   2   2   3   3   7   2
M  END
