Coordinates from ORCA-job PhN2+~HSO4-_B3LYPG-6-31G_dp-NX-Scan-d89-09-n800
 OpenBabel11261920163D

 19 18  0  0  0  0  0  0  0  0999 V2000
   -3.2120    0.1841   -0.3050 C   0  0  0  0  0  0  0  0  0  0  0  0
   -4.2202   -0.2393    0.6269 N   0  0  0  0  0  0  0  0  0  0  0  0
   -4.4629    0.4676    1.6518 N   0  0  0  0  0  0  0  0  0  0  0  0
   -2.2945   -0.7976   -0.7062 C   0  0  0  0  0  0  0  0  0  0  0  0
   -1.3419   -0.5189   -1.6840 C   0  0  0  0  0  0  0  0  0  0  0  0
   -1.3066    0.7372   -2.2948 C   0  0  0  0  0  0  0  0  0  0  0  0
   -2.2332    1.7114   -1.9196 C   0  0  0  0  0  0  0  0  0  0  0  0
   -3.1802    1.4441   -0.9284 C   0  0  0  0  0  0  0  0  0  0  0  0
   -2.3495   -1.7763   -0.2404 H   0  0  0  0  0  0  0  0  0  0  0  0
   -0.6331   -1.2879   -1.9780 H   0  0  0  0  0  0  0  0  0  0  0  0
   -0.5699    0.9518   -3.0634 H   0  0  0  0  0  0  0  0  0  0  0  0
   -2.2206    2.6878   -2.3948 H   0  0  0  0  0  0  0  0  0  0  0  0
   -3.9088    2.2037   -0.6636 H   0  0  0  0  0  0  0  0  0  0  0  0
   -1.5304    3.2204    1.7300 S   0  0  0  0  0  0  0  0  0  0  0  0
   -0.5033    2.1998    1.8141 O   0  0  0  0  0  0  0  0  0  0  0  0
   -3.8830    1.3988    1.8232 O   0  0  0  0  0  0  0  0  0  0  0  0
   -2.4267    3.4381    2.8609 O   0  0  0  0  0  0  0  0  0  0  0  0
   -1.6300    4.0872    0.5699 O   0  0  0  0  0  0  0  0  0  0  0  0
   -4.1144    1.8504    2.6590 H   0  0  0  0  0  0  0  0  0  0  0  0
  1  2  1  0  0  0  0
  2  3  2  0  0  0  0
  3 16  1  0  0  0  0
  4  1  1  0  0  0  0
  4  9  1  0  0  0  0
  5  4  2  0  0  0  0
  6  7  2  0  0  0  0
  6  5  1  0  0  0  0
  7  8  1  0  0  0  0
  8 13  1  0  0  0  0
  8  1  2  0  0  0  0
 10  5  1  0  0  0  0
 11  6  1  0  0  0  0
 12  7  1  0  0  0  0
 14 15  2  0  0  0  0
 14 17  1  0  0  0  0
 16 19  1  0  0  0  0
 18 14  1  0  0  0  0
M  RAD  2  17   2  18   2
M  END
