Coordinates from ORCA-job PhN2+~HSO4-_B3LYPG-6-31G_dp-NX-Scan-d89-09-n800
 OpenBabel11261920153D

 19 19  0  0  1  0  0  0  0  0999 V2000
   -1.6080   -0.2790    0.3585 C   0  0  1  0  0  0  0  0  0  0  0  0
   -1.4572   -0.8077    1.5516 N   0  0  0  0  0  0  0  0  0  0  0  0
   -1.3581   -1.2309    2.6047 N   0  0  0  0  0  0  0  0  0  0  0  0
   -2.7767   -0.6170   -0.4226 C   0  0  0  0  0  0  0  0  0  0  0  0
   -3.1539    0.2024   -1.4243 C   0  0  0  0  0  0  0  0  0  0  0  0
   -2.4909    1.5172   -1.6372 C   0  0  2  0  0  0  0  0  0  0  0  0
   -1.1293    1.6159   -1.0541 C   0  0  0  0  0  0  0  0  0  0  0  0
   -0.7392    0.7995   -0.0550 C   0  0  0  0  0  0  0  0  0  0  0  0
   -3.3149   -1.5329   -0.1979 H   0  0  0  0  0  0  0  0  0  0  0  0
   -4.0041   -0.0448   -2.0515 H   0  0  0  0  0  0  0  0  0  0  0  0
   -2.5233    1.8405   -2.6781 H   0  0  0  0  0  0  0  0  0  0  0  0
   -0.4855    2.4215   -1.3878 H   0  0  0  0  0  0  0  0  0  0  0  0
    0.2133    0.9309    0.4477 H   0  0  0  0  0  0  0  0  0  0  0  0
   -3.3747    3.2222    0.4042 S   0  0  0  0  0  0  0  0  0  0  0  0
   -2.1074    3.8910    0.6196 O   0  0  0  0  0  0  0  0  0  0  0  0
   -3.3317    1.8933    1.3779 O   0  0  0  0  0  0  0  0  0  0  0  0
   -4.6493    3.8812    0.6340 O   0  0  0  0  0  0  0  0  0  0  0  0
   -3.4724    2.6111   -1.0723 O   0  0  0  0  0  0  0  0  0  0  0  0
   -4.2578    1.6478    1.5401 H   0  0  0  0  0  0  0  0  0  0  0  0
  1  2  1  1  0  0  0
  2  3  1  0  0  0  0
  4  9  1  0  0  0  0
  4  1  1  0  0  0  0
  5  4  2  0  0  0  0
  6 11  1  6  0  0  0
  6  5  1  0  0  0  0
  6 18  1  0  0  0  0
  6  7  1  0  0  0  0
  7  8  2  0  0  0  0
  8  1  1  0  0  0  0
  8 13  1  0  0  0  0
 10  5  1  0  0  0  0
 12  7  1  0  0  0  0
 14 15  2  0  0  0  0
 14 17  2  0  0  0  0
 14 16  1  0  0  0  0
 16 19  1  0  0  0  0
 18 14  1  0  0  0  0
M  RAD  3   1   2   2   2   3   3
M  END
