Coordinates from ORCA-job PhN2+~HSO4-_B3LYPG-6-31G_dp-NX-Scan-d89-09-n800
 OpenBabel11261920153D

 19 19  0  0  1  0  0  0  0  0999 V2000
   -1.6139   -0.2637    0.2840 C   0  0  1  0  0  0  0  0  0  0  0  0
   -1.7257   -0.4790    1.5769 N   0  0  0  0  0  0  0  0  0  0  0  0
   -1.9179   -0.5412    2.6951 N   0  0  0  0  0  0  0  0  0  0  0  0
   -2.7204   -0.6708   -0.5618 C   0  0  0  0  0  0  0  0  0  0  0  0
   -3.0791    0.1370   -1.5794 C   0  0  0  0  0  0  0  0  0  0  0  0
   -2.4853    1.4941   -1.6891 C   0  0  2  0  0  0  0  0  0  0  0  0
   -1.1049    1.5921   -1.1609 C   0  0  0  0  0  0  0  0  0  0  0  0
   -0.7195    0.7940   -0.1451 C   0  0  0  0  0  0  0  0  0  0  0  0
   -3.2313   -1.6064   -0.3558 H   0  0  0  0  0  0  0  0  0  0  0  0
   -3.8730   -0.1408   -2.2644 H   0  0  0  0  0  0  0  0  0  0  0  0
   -2.6000    1.9394   -2.6756 H   0  0  0  0  0  0  0  0  0  0  0  0
   -0.4610    2.3861   -1.5209 H   0  0  0  0  0  0  0  0  0  0  0  0
    0.2232    0.9365    0.3730 H   0  0  0  0  0  0  0  0  0  0  0  0
   -3.3053    3.0707    0.5384 S   0  0  0  0  0  0  0  0  0  0  0  0
   -2.0274    3.7446    0.6644 O   0  0  0  0  0  0  0  0  0  0  0  0
   -3.2082    1.7506    1.5400 O   0  0  0  0  0  0  0  0  0  0  0  0
   -4.5618    3.7280    0.8610 O   0  0  0  0  0  0  0  0  0  0  0  0
   -3.5053    2.4559   -0.9197 O   0  0  0  0  0  0  0  0  0  0  0  0
   -4.1044    1.6352    1.8971 H   0  0  0  0  0  0  0  0  0  0  0  0
  1  2  1  1  0  0  0
  2  3  1  0  0  0  0
  4  9  1  0  0  0  0
  4  1  1  0  0  0  0
  5  4  2  0  0  0  0
  6 11  1  6  0  0  0
  6  5  1  0  0  0  0
  6  7  1  0  0  0  0
  6 18  1  0  0  0  0
  7  8  2  0  0  0  0
  8  1  1  0  0  0  0
  8 13  1  0  0  0  0
 10  5  1  0  0  0  0
 12  7  1  0  0  0  0
 14 15  2  0  0  0  0
 14 17  2  0  0  0  0
 14 16  1  0  0  0  0
 16 19  1  0  0  0  0
 18 14  1  0  0  0  0
M  RAD  3   1   2   2   2   3   3
M  END
