Coordinates from ORCA-job PhN2+~HSO4-_B3LYPG-6-31G_dp-NX-Scan-d89-09-n800
 OpenBabel11261920153D

 19 19  0  0  1  0  0  0  0  0999 V2000
   -1.4741   -0.8825    0.2657 C   0  0  0  0  0  0  0  0  0  0  0  0
   -1.0161   -1.9510    0.8797 N   0  0  0  0  0  0  0  0  0  0  0  0
   -0.6197   -2.8734    1.4244 N   0  0  0  0  0  0  0  0  0  0  0  0
   -2.5372   -1.0035   -0.7083 C   0  0  0  0  0  0  0  0  0  0  0  0
   -3.0142    0.0959   -1.3231 C   0  0  0  0  0  0  0  0  0  0  0  0
   -2.5482    1.4697   -0.9826 C   0  0  2  0  0  0  0  0  0  0  0  0
   -1.3550    1.5084   -0.0877 C   0  0  0  0  0  0  0  0  0  0  0  0
   -0.8780    0.4099    0.5284 C   0  0  0  0  0  0  0  0  0  0  0  0
   -2.9147   -1.9920   -0.9494 H   0  0  0  0  0  0  0  0  0  0  0  0
   -3.7970    0.0083   -2.0692 H   0  0  0  0  0  0  0  0  0  0  0  0
   -2.4244    2.1011   -1.8655 H   0  0  0  0  0  0  0  0  0  0  0  0
   -0.8896    2.4728    0.0833 H   0  0  0  0  0  0  0  0  0  0  0  0
   -0.0263    0.4647    1.1994 H   0  0  0  0  0  0  0  0  0  0  0  0
   -3.8836    3.6999   -0.2286 S   0  0  0  0  0  0  0  0  0  0  0  0
   -3.2233    4.2883   -1.3784 O   0  0  0  0  0  0  0  0  0  0  0  0
   -2.9390    4.0995    1.0480 O   0  0  0  0  0  0  0  0  0  0  0  0
   -5.2602    3.9868    0.1295 O   0  0  0  0  0  0  0  0  0  0  0  0
   -3.7550    2.1000   -0.2611 O   0  0  0  0  0  0  0  0  0  0  0  0
   -3.4653    3.9593    1.8530 H   0  0  0  0  0  0  0  0  0  0  0  0
  1  8  1  0  0  0  0
  1  2  1  0  0  0  0
  2  3  1  0  0  0  0
  4  1  2  0  0  0  0
  5  6  1  0  0  0  0
  5  4  1  0  0  0  0
  6 11  1  6  0  0  0
  6 18  1  0  0  0  0
  6  7  1  0  0  0  0
  7 12  1  0  0  0  0
  7  8  2  0  0  0  0
  8 13  1  0  0  0  0
  9  4  1  0  0  0  0
 10  5  1  0  0  0  0
 14 17  2  0  0  0  0
 14 16  1  0  0  0  0
 15 14  2  0  0  0  0
 16 19  1  0  0  0  0
 18 14  1  0  0  0  0
M  RAD  3   2   2   3   3   5   2
M  END
