Coordinates from ORCA-job PhN2+~HSO4-_B3LYPG-6-31G_dp-NX-Scan-d89-09-n800
 OpenBabel11261920163D

 19 18  0  0  0  0  0  0  0  0999 V2000
   -2.6625    0.1845   -0.2568 C   0  0  0  0  0  0  0  0  0  0  0  0
   -3.2470   -0.0662    0.9912 N   0  0  0  0  0  0  0  0  0  0  0  0
   -3.7732    0.4311    1.9059 N   0  0  0  0  0  0  0  0  0  0  0  0
   -2.1471   -0.9480   -0.9071 C   0  0  0  0  0  0  0  0  0  0  0  0
   -1.5625   -0.8034   -2.1592 C   0  0  0  0  0  0  0  0  0  0  0  0
   -1.5017    0.4616   -2.7521 C   0  0  0  0  0  0  0  0  0  0  0  0
   -2.0219    1.5815   -2.0957 C   0  0  0  0  0  0  0  0  0  0  0  0
   -2.6074    1.4630   -0.8391 C   0  0  0  0  0  0  0  0  0  0  0  0
   -2.2126   -1.9136   -0.4178 H   0  0  0  0  0  0  0  0  0  0  0  0
   -1.1571   -1.6697   -2.6708 H   0  0  0  0  0  0  0  0  0  0  0  0
   -1.0449    0.5760   -3.7301 H   0  0  0  0  0  0  0  0  0  0  0  0
   -1.9644    2.5610   -2.5589 H   0  0  0  0  0  0  0  0  0  0  0  0
   -2.9966    2.3328   -0.3294 H   0  0  0  0  0  0  0  0  0  0  0  0
   -2.2934    3.2386    2.2403 S   0  0  0  0  0  0  0  0  0  0  0  0
   -1.3166    2.1531    2.2110 O   0  0  0  0  0  0  0  0  0  0  0  0
   -3.9157    2.1705    1.7629 O   0  0  0  0  0  0  0  0  0  0  0  0
   -2.7749    3.7175    3.5338 O   0  0  0  0  0  0  0  0  0  0  0  0
   -2.3289    4.1542    1.1015 O   0  0  0  0  0  0  0  0  0  0  0  0
   -4.4928    2.3378    2.5279 H   0  0  0  0  0  0  0  0  0  0  0  0
  1  2  1  0  0  0  0
  2  3  1  0  0  0  0
  4  9  1  0  0  0  0
  4  1  2  0  0  0  0
  5  4  1  0  0  0  0
  6  5  2  0  0  0  0
  6  7  1  0  0  0  0
  7  8  2  0  0  0  0
  8 13  1  0  0  0  0
  8  1  1  0  0  0  0
 10  5  1  0  0  0  0
 11  6  1  0  0  0  0
 12  7  1  0  0  0  0
 14 17  1  0  0  0  0
 15 14  2  0  0  0  0
 16  3  1  0  0  0  0
 16 19  1  0  0  0  0
 18 14  1  0  0  0  0
M  RAD  4   2   2   3   2  17   2  18   2
M  END
