Coordinates from ORCA-job PhN2+~HSO4-_B3LYPG-6-31G_dp-NX-Scan-d89-09-n800
 OpenBabel11261920153D

 19 19  0  0  1  0  0  0  0  0999 V2000
   -1.5822   -0.6284    0.3229 C   0  0  0  0  0  0  0  0  0  0  0  0
   -1.2765   -1.5079    1.2513 N   0  0  0  0  0  0  0  0  0  0  0  0
   -1.0122   -2.2417    2.0840 N   0  0  0  0  0  0  0  0  0  0  0  0
   -2.5926   -0.9261   -0.6690 C   0  0  0  0  0  0  0  0  0  0  0  0
   -3.0016    0.0450   -1.5098 C   0  0  0  0  0  0  0  0  0  0  0  0
   -2.5634    1.4585   -1.3319 C   0  0  2  0  0  0  0  0  0  0  0  0
   -1.3021    1.6031   -0.5504 C   0  0  0  0  0  0  0  0  0  0  0  0
   -0.8819    0.6368    0.2880 C   0  0  0  0  0  0  0  0  0  0  0  0
   -2.9775   -1.9385   -0.7389 H   0  0  0  0  0  0  0  0  0  0  0  0
   -3.7326   -0.1687   -2.2821 H   0  0  0  0  0  0  0  0  0  0  0  0
   -2.5385    2.0240   -2.2640 H   0  0  0  0  0  0  0  0  0  0  0  0
   -0.7689    2.5436   -0.6190 H   0  0  0  0  0  0  0  0  0  0  0  0
   -0.0075    0.7695    0.9169 H   0  0  0  0  0  0  0  0  0  0  0  0
   -3.6581    3.5526    0.0401 S   0  0  0  0  0  0  0  0  0  0  0  0
   -2.6942    4.3471   -0.6991 O   0  0  0  0  0  0  0  0  0  0  0  0
   -2.9587    3.2496    1.4914 O   0  0  0  0  0  0  0  0  0  0  0  0
   -5.0159    3.9991    0.2979 O   0  0  0  0  0  0  0  0  0  0  0  0
   -3.7766    2.0842   -0.5850 O   0  0  0  0  0  0  0  0  0  0  0  0
   -3.6802    3.0604    2.1144 H   0  0  0  0  0  0  0  0  0  0  0  0
  1  2  1  0  0  0  0
  2  3  1  0  0  0  0
  4  1  1  0  0  0  0
  5  6  1  0  0  0  0
  5  4  2  0  0  0  0
  6 11  1  6  0  0  0
  6 18  1  0  0  0  0
  6  7  1  0  0  0  0
  7  8  1  0  0  0  0
  8  1  2  0  0  0  0
  8 13  1  0  0  0  0
  9  4  1  0  0  0  0
 10  5  1  0  0  0  0
 12  7  1  0  0  0  0
 14 17  2  0  0  0  0
 14 16  1  0  0  0  0
 15 14  2  0  0  0  0
 16 19  1  0  0  0  0
 18 14  1  0  0  0  0
M  RAD  3   2   2   3   3   7   2
M  END
