Coordinates from ORCA-job PhN2+~HSO4-_B3LYPG-6-31G_dp-NX-Scan-d89-09-n800
 OpenBabel11261920163D

 19 18  0  0  0  0  0  0  0  0999 V2000
   -2.9800    0.2229   -0.2622 C   0  0  0  0  0  0  0  0  0  0  0  0
   -3.7643   -0.1796    0.8567 N   0  0  0  0  0  0  0  0  0  0  0  0
   -4.2324    0.5473    1.7378 N   0  0  0  0  0  0  0  0  0  0  0  0
   -2.1229   -0.7859   -0.7331 C   0  0  0  0  0  0  0  0  0  0  0  0
   -1.3328   -0.5724   -1.8577 C   0  0  0  0  0  0  0  0  0  0  0  0
   -1.4244    0.6361   -2.5533 C   0  0  0  0  0  0  0  0  0  0  0  0
   -2.3034    1.6273   -2.1119 C   0  0  0  0  0  0  0  0  0  0  0  0
   -3.0757    1.4373   -0.9667 C   0  0  0  0  0  0  0  0  0  0  0  0
   -2.0950   -1.7270   -0.1943 H   0  0  0  0  0  0  0  0  0  0  0  0
   -0.6614   -1.3532   -2.2020 H   0  0  0  0  0  0  0  0  0  0  0  0
   -0.8211    0.8010   -3.4409 H   0  0  0  0  0  0  0  0  0  0  0  0
   -2.3847    2.5633   -2.6561 H   0  0  0  0  0  0  0  0  0  0  0  0
   -3.7514    2.2147   -0.6391 H   0  0  0  0  0  0  0  0  0  0  0  0
   -1.7084    3.0834    2.1130 S   0  0  0  0  0  0  0  0  0  0  0  0
   -0.9036    1.8821    2.2392 O   0  0  0  0  0  0  0  0  0  0  0  0
   -3.9564    1.8660    1.6439 O   0  0  0  0  0  0  0  0  0  0  0  0
   -2.4480    3.5846    3.2641 O   0  0  0  0  0  0  0  0  0  0  0  0
   -1.6760    3.8665    0.8902 O   0  0  0  0  0  0  0  0  0  0  0  0
   -4.3790    2.2481    2.4301 H   0  0  0  0  0  0  0  0  0  0  0  0
  1  2  1  0  0  0  0
  2  3  2  0  0  0  0
  4  1  1  0  0  0  0
  4  9  1  0  0  0  0
  5  4  2  0  0  0  0
  6  7  2  0  0  0  0
  6  5  1  0  0  0  0
  7  8  1  0  0  0  0
  8 13  1  0  0  0  0
  8  1  2  0  0  0  0
 10  5  1  0  0  0  0
 11  6  1  0  0  0  0
 12  7  1  0  0  0  0
 14 15  2  0  0  0  0
 14 17  1  0  0  0  0
 16  3  1  0  0  0  0
 16 19  1  0  0  0  0
 18 14  1  0  0  0  0
M  RAD  2  17   2  18   2
M  END
