Coordinates from ORCA-job PhN2+~HSO4-_B3LYPG-6-31G_dp-NX-Scan-d89-09-n800
 OpenBabel11261920153D

 19 19  0  0  1  0  0  0  0  0999 V2000
   -1.5336   -0.3957    0.4125 C   0  0  0  0  0  0  0  0  0  0  0  0
   -1.1254   -1.2297    1.3434 N   0  0  0  0  0  0  0  0  0  0  0  0
   -0.7742   -1.9503    2.1566 N   0  0  0  0  0  0  0  0  0  0  0  0
   -2.7750   -0.6452   -0.2848 C   0  0  0  0  0  0  0  0  0  0  0  0
   -3.2093    0.2308   -1.2120 C   0  0  0  0  0  0  0  0  0  0  0  0
   -2.4963    1.5064   -1.5122 C   0  0  2  0  0  0  0  0  0  0  0  0
   -1.1673    1.6371   -0.8521 C   0  0  0  0  0  0  0  0  0  0  0  0
   -0.7316    0.7585    0.0717 C   0  0  0  0  0  0  0  0  0  0  0  0
   -3.3248   -1.5558   -0.0671 H   0  0  0  0  0  0  0  0  0  0  0  0
   -4.1249    0.0368   -1.7615 H   0  0  0  0  0  0  0  0  0  0  0  0
   -2.4294    1.6883   -2.5889 H   0  0  0  0  0  0  0  0  0  0  0  0
   -0.5596    2.4952   -1.1146 H   0  0  0  0  0  0  0  0  0  0  0  0
    0.2300    0.8877    0.5572 H   0  0  0  0  0  0  0  0  0  0  0  0
   -3.4821    3.4358    0.2222 S   0  0  0  0  0  0  0  0  0  0  0  0
   -2.2115    4.0747    0.4977 O   0  0  0  0  0  0  0  0  0  0  0  0
   -3.5883    2.2107    1.3034 O   0  0  0  0  0  0  0  0  0  0  0  0
   -4.7382    4.1634    0.2390 O   0  0  0  0  0  0  0  0  0  0  0  0
   -3.4587    2.6729   -1.1914 O   0  0  0  0  0  0  0  0  0  0  0  0
   -4.5212    1.9408    1.3381 H   0  0  0  0  0  0  0  0  0  0  0  0
  1  2  1  0  0  0  0
  2  3  1  0  0  0  0
  4  9  1  0  0  0  0
  4  1  2  0  0  0  0
  5  4  1  0  0  0  0
  6 11  1  6  0  0  0
  6  5  1  0  0  0  0
  6 18  1  0  0  0  0
  6  7  1  0  0  0  0
  7  8  2  0  0  0  0
  8  1  1  0  0  0  0
  8 13  1  0  0  0  0
 10  5  1  0  0  0  0
 12  7  1  0  0  0  0
 14 17  2  0  0  0  0
 14 15  2  0  0  0  0
 14 16  1  0  0  0  0
 16 19  1  0  0  0  0
 18 14  1  0  0  0  0
M  RAD  3   2   2   3   3   5   2
M  END
