Coordinates from ORCA-job PhN2+~HSO4-_B3LYPG-6-31G_dp-NX-Scan-d89-09-n800
 OpenBabel11261920153D

 19 19  0  0  1  0  0  0  0  0999 V2000
   -1.6063   -0.2835    0.3663 C   0  0  1  0  0  0  0  0  0  0  0  0
   -1.4302   -0.8436    1.5414 N   0  0  0  0  0  0  0  0  0  0  0  0
   -1.3057   -1.2981    2.5790 N   0  0  0  0  0  0  0  0  0  0  0  0
   -2.7801   -0.6150   -0.4095 C   0  0  0  0  0  0  0  0  0  0  0  0
   -3.1599    0.2070   -1.4081 C   0  0  0  0  0  0  0  0  0  0  0  0
   -2.4915    1.5179   -1.6295 C   0  0  2  0  0  0  0  0  0  0  0  0
   -1.1323    1.6182   -1.0399 C   0  0  0  0  0  0  0  0  0  0  0  0
   -0.7408    0.7987   -0.0440 C   0  0  0  0  0  0  0  0  0  0  0  0
   -3.3199   -1.5299   -0.1845 H   0  0  0  0  0  0  0  0  0  0  0  0
   -4.0149   -0.0368   -2.0300 H   0  0  0  0  0  0  0  0  0  0  0  0
   -2.5155    1.8292   -2.6745 H   0  0  0  0  0  0  0  0  0  0  0  0
   -0.4896    2.4261   -1.3698 H   0  0  0  0  0  0  0  0  0  0  0  0
    0.2126    0.9291    0.4573 H   0  0  0  0  0  0  0  0  0  0  0  0
   -3.3832    3.2394    0.3896 S   0  0  0  0  0  0  0  0  0  0  0  0
   -2.1172    3.9088    0.6105 O   0  0  0  0  0  0  0  0  0  0  0  0
   -3.3456    1.9145    1.3672 O   0  0  0  0  0  0  0  0  0  0  0  0
   -4.6589    3.9001    0.6068 O   0  0  0  0  0  0  0  0  0  0  0  0
   -3.4705    2.6209   -1.0850 O   0  0  0  0  0  0  0  0  0  0  0  0
   -4.2716    1.6594    1.5141 H   0  0  0  0  0  0  0  0  0  0  0  0
  1  2  1  1  0  0  0
  2  3  1  0  0  0  0
  4  9  1  0  0  0  0
  4  1  1  0  0  0  0
  5  4  2  0  0  0  0
  6 11  1  6  0  0  0
  6  5  1  0  0  0  0
  6 18  1  0  0  0  0
  6  7  1  0  0  0  0
  7  8  2  0  0  0  0
  8  1  1  0  0  0  0
  8 13  1  0  0  0  0
 10  5  1  0  0  0  0
 12  7  1  0  0  0  0
 14 17  2  0  0  0  0
 14 15  2  0  0  0  0
 14 16  1  0  0  0  0
 16 19  1  0  0  0  0
 18 14  1  0  0  0  0
M  RAD  3   1   2   2   2   3   3
M  END
