Coordinates from ORCA-job PhN2+~HSO4-_B3LYPG-6-31G_dp-NX-Scan-d89-09-n800
 OpenBabel11261920153D

 19 19  0  0  1  0  0  0  0  0999 V2000
   -1.4929   -0.8223    0.2809 C   0  0  0  0  0  0  0  0  0  0  0  0
   -1.0501   -1.8507    0.9699 N   0  0  0  0  0  0  0  0  0  0  0  0
   -0.6665   -2.7346    1.5828 N   0  0  0  0  0  0  0  0  0  0  0  0
   -2.5570   -0.9964   -0.6839 C   0  0  0  0  0  0  0  0  0  0  0  0
   -3.0323    0.0682   -1.3588 C   0  0  0  0  0  0  0  0  0  0  0  0
   -2.5717    1.4578   -1.0809 C   0  0  2  0  0  0  0  0  0  0  0  0
   -1.3546    1.5393   -0.2220 C   0  0  0  0  0  0  0  0  0  0  0  0
   -0.8781    0.4764    0.4536 C   0  0  0  0  0  0  0  0  0  0  0  0
   -2.9348   -1.9966   -0.8703 H   0  0  0  0  0  0  0  0  0  0  0  0
   -3.8138   -0.0593   -2.1003 H   0  0  0  0  0  0  0  0  0  0  0  0
   -2.4756    2.0609   -1.9861 H   0  0  0  0  0  0  0  0  0  0  0  0
   -0.8739    2.5066   -0.1270 H   0  0  0  0  0  0  0  0  0  0  0  0
   -0.0126    0.5619    1.1033 H   0  0  0  0  0  0  0  0  0  0  0  0
   -3.7958    3.6887   -0.1637 S   0  0  0  0  0  0  0  0  0  0  0  0
   -2.9651    4.3327   -1.1641 O   0  0  0  0  0  0  0  0  0  0  0  0
   -2.9802    3.8713    1.2434 O   0  0  0  0  0  0  0  0  0  0  0  0
   -5.1797    4.0556    0.0749 O   0  0  0  0  0  0  0  0  0  0  0  0
   -3.7777    2.0963   -0.3604 O   0  0  0  0  0  0  0  0  0  0  0  0
   -3.6086    3.7063    1.9661 H   0  0  0  0  0  0  0  0  0  0  0  0
  1  8  1  0  0  0  0
  1  2  1  0  0  0  0
  2  3  1  0  0  0  0
  4  1  2  0  0  0  0
  5  6  1  0  0  0  0
  5  4  1  0  0  0  0
  6 11  1  6  0  0  0
  6 18  1  0  0  0  0
  6  7  1  0  0  0  0
  7 12  1  0  0  0  0
  7  8  2  0  0  0  0
  8 13  1  0  0  0  0
  9  4  1  0  0  0  0
 10  5  1  0  0  0  0
 14 17  2  0  0  0  0
 14 16  1  0  0  0  0
 15 14  2  0  0  0  0
 16 19  1  0  0  0  0
 18 14  1  0  0  0  0
M  RAD  3   2   2   3   3   5   2
M  END
