Coordinates from ORCA-job PhN2+~HSO4-_B3LYPG-6-31G_dp-NX-Scan-d89-09-n800
 OpenBabel11261920153D

 19 19  0  0  1  0  0  0  0  0999 V2000
   -1.6139   -0.2720    0.3428 C   0  0  1  0  0  0  0  0  0  0  0  0
   -1.5199   -0.7342    1.5691 N   0  0  0  0  0  0  0  0  0  0  0  0
   -1.4793   -1.0887    2.6505 N   0  0  0  0  0  0  0  0  0  0  0  0
   -2.7692   -0.6248   -0.4532 C   0  0  0  0  0  0  0  0  0  0  0  0
   -3.1401    0.1903   -1.4607 C   0  0  0  0  0  0  0  0  0  0  0  0
   -2.4905    1.5142   -1.6524 C   0  0  2  0  0  0  0  0  0  0  0  0
   -1.1253    1.6116   -1.0795 C   0  0  0  0  0  0  0  0  0  0  0  0
   -0.7390    0.8013   -0.0739 C   0  0  0  0  0  0  0  0  0  0  0  0
   -3.3025   -1.5444   -0.2319 H   0  0  0  0  0  0  0  0  0  0  0  0
   -3.9777   -0.0647   -2.1015 H   0  0  0  0  0  0  0  0  0  0  0  0
   -2.5397    1.8647   -2.6833 H   0  0  0  0  0  0  0  0  0  0  0  0
   -0.4800    2.4136   -1.4192 H   0  0  0  0  0  0  0  0  0  0  0  0
    0.2106    0.9352    0.4336 H   0  0  0  0  0  0  0  0  0  0  0  0
   -3.3569    3.1888    0.4321 S   0  0  0  0  0  0  0  0  0  0  0  0
   -2.0913    3.8677    0.6261 O   0  0  0  0  0  0  0  0  0  0  0  0
   -3.2862    1.8566    1.4036 O   0  0  0  0  0  0  0  0  0  0  0  0
   -4.6324    3.8350    0.6925 O   0  0  0  0  0  0  0  0  0  0  0  0
   -3.4794    2.5851   -1.0440 O   0  0  0  0  0  0  0  0  0  0  0  0
   -4.2082    1.6267    1.6070 H   0  0  0  0  0  0  0  0  0  0  0  0
  1  2  1  1  0  0  0
  2  3  1  0  0  0  0
  4  9  1  0  0  0  0
  4  1  1  0  0  0  0
  5  4  2  0  0  0  0
  6 11  1  6  0  0  0
  6  5  1  0  0  0  0
  6  7  1  0  0  0  0
  6 18  1  0  0  0  0
  7  8  2  0  0  0  0
  8  1  1  0  0  0  0
  8 13  1  0  0  0  0
 10  5  1  0  0  0  0
 12  7  1  0  0  0  0
 14 15  2  0  0  0  0
 14 17  2  0  0  0  0
 14 16  1  0  0  0  0
 16 19  1  0  0  0  0
 18 14  1  0  0  0  0
M  RAD  3   1   2   2   2   3   3
M  END
