Coordinates from ORCA-job PhN2+~HSO4-_B3LYPG-6-31G_dp-NX-Scan-d89-09-n800
 OpenBabel11261920153D

 19 19  0  0  1  0  0  0  0  0999 V2000
   -1.5216   -0.4069    0.4121 C   0  0  0  0  0  0  0  0  0  0  0  0
   -1.0980   -1.2555    1.3227 N   0  0  0  0  0  0  0  0  0  0  0  0
   -0.7329   -1.9891    2.1185 N   0  0  0  0  0  0  0  0  0  0  0  0
   -2.7704   -0.6494   -0.2748 C   0  0  0  0  0  0  0  0  0  0  0  0
   -3.2116    0.2316   -1.1938 C   0  0  0  0  0  0  0  0  0  0  0  0
   -2.4959    1.5042   -1.5017 C   0  0  2  0  0  0  0  0  0  0  0  0
   -1.1678    1.6370   -0.8396 C   0  0  0  0  0  0  0  0  0  0  0  0
   -0.7255    0.7530    0.0759 C   0  0  0  0  0  0  0  0  0  0  0  0
   -3.3207   -1.5595   -0.0561 H   0  0  0  0  0  0  0  0  0  0  0  0
   -4.1334    0.0423   -1.7346 H   0  0  0  0  0  0  0  0  0  0  0  0
   -2.4250    1.6765   -2.5800 H   0  0  0  0  0  0  0  0  0  0  0  0
   -0.5640    2.4992   -1.0973 H   0  0  0  0  0  0  0  0  0  0  0  0
    0.2378    0.8821    0.5580 H   0  0  0  0  0  0  0  0  0  0  0  0
   -3.4894    3.4478    0.2126 S   0  0  0  0  0  0  0  0  0  0  0  0
   -2.2140    4.0703    0.5029 O   0  0  0  0  0  0  0  0  0  0  0  0
   -3.6304    2.2326    1.3000 O   0  0  0  0  0  0  0  0  0  0  0  0
   -4.7349    4.1935    0.2042 O   0  0  0  0  0  0  0  0  0  0  0  0
   -3.4556    2.6747   -1.1954 O   0  0  0  0  0  0  0  0  0  0  0  0
   -4.5679    1.9780    1.3240 H   0  0  0  0  0  0  0  0  0  0  0  0
  1  2  1  0  0  0  0
  2  3  1  0  0  0  0
  4  9  1  0  0  0  0
  4  1  2  0  0  0  0
  5  4  1  0  0  0  0
  6 11  1  6  0  0  0
  6 18  1  0  0  0  0
  6  5  1  0  0  0  0
  6  7  1  0  0  0  0
  7  8  2  0  0  0  0
  8  1  1  0  0  0  0
  8 13  1  0  0  0  0
 10  5  1  0  0  0  0
 12  7  1  0  0  0  0
 14 15  2  0  0  0  0
 14 16  1  0  0  0  0
 16 19  1  0  0  0  0
 17 14  2  0  0  0  0
 18 14  1  0  0  0  0
M  RAD  3   2   2   3   3   5   2
M  END
