Coordinates from ORCA-job PhN2+~HSO4-_B3LYPG-6-31G_dp-NX-Scan-d89-09-n800
 OpenBabel11261920153D

 19 18  0  0  0  0  0  0  0  0999 V2000
   -2.4111    0.3363   -0.3159 C   0  0  0  0  0  0  0  0  0  0  0  0
   -2.9250    0.2399    0.9715 N   0  0  0  0  0  0  0  0  0  0  0  0
   -3.3145    0.0213    1.9972 N   0  0  0  0  0  0  0  0  0  0  0  0
   -2.6728   -0.7431   -1.1781 C   0  0  0  0  0  0  0  0  0  0  0  0
   -2.1513   -0.6798   -2.4627 C   0  0  0  0  0  0  0  0  0  0  0  0
   -1.3826    0.4253   -2.8513 C   0  0  0  0  0  0  0  0  0  0  0  0
   -1.1308    1.4764   -1.9641 C   0  0  0  0  0  0  0  0  0  0  0  0
   -1.6505    1.4588   -0.6734 C   0  0  0  0  0  0  0  0  0  0  0  0
   -3.2705   -1.5837   -0.8440 H   0  0  0  0  0  0  0  0  0  0  0  0
   -2.3424   -1.4888   -3.1596 H   0  0  0  0  0  0  0  0  0  0  0  0
   -0.9778    0.4647   -3.8578 H   0  0  0  0  0  0  0  0  0  0  0  0
   -0.5351    2.3258   -2.2807 H   0  0  0  0  0  0  0  0  0  0  0  0
   -1.4945    2.2511    0.0572 H   0  0  0  0  0  0  0  0  0  0  0  0
   -3.2624    3.1990    1.9639 S   0  0  0  0  0  0  0  0  0  0  0  0
   -1.7872    3.0081    1.9290 O   0  0  0  0  0  0  0  0  0  0  0  0
   -3.7617    1.9697    3.0550 O   0  0  0  0  0  0  0  0  0  0  0  0
   -3.7360    4.4519    2.5464 O   0  0  0  0  0  0  0  0  0  0  0  0
   -3.9392    2.7083    0.7428 O   0  0  0  0  0  0  0  0  0  0  0  0
   -3.2758    2.1211    3.8823 H   0  0  0  0  0  0  0  0  0  0  0  0
  1  2  1  0  0  0  0
  2  3  1  0  0  0  0
  4  9  1  0  0  0  0
  4  1  2  0  0  0  0
  5  4  1  0  0  0  0
  6  5  2  0  0  0  0
  6  7  1  0  0  0  0
  7  8  2  0  0  0  0
  8  1  1  0  0  0  0
  8 13  1  0  0  0  0
 10  5  1  0  0  0  0
 11  6  1  0  0  0  0
 12  7  1  0  0  0  0
 14 17  1  0  0  0  0
 14 16  1  0  0  0  0
 15 14  2  0  0  0  0
 16 19  1  0  0  0  0
 18 14  2  0  0  0  0
M  RAD  3   2   2   3   3  17   2
M  END
