Coordinates from ORCA-job PhN2+~HSO4-_B3LYPG-6-31G_dp-NX-Scan-d89-09-n800
 OpenBabel11261920153D

 19 18  0  0  0  0  0  0  0  0999 V2000
   -2.6054    0.1883   -0.2794 C   0  0  0  0  0  0  0  0  0  0  0  0
   -3.1752   -0.0071    0.9775 N   0  0  0  0  0  0  0  0  0  0  0  0
   -3.6968    0.3471    1.9328 N   0  0  0  0  0  0  0  0  0  0  0  0
   -2.1626   -0.9664   -0.9440 C   0  0  0  0  0  0  0  0  0  0  0  0
   -1.6023   -0.8317   -2.2073 C   0  0  0  0  0  0  0  0  0  0  0  0
   -1.4914    0.4386   -2.7846 C   0  0  0  0  0  0  0  0  0  0  0  0
   -1.9367    1.5763   -2.1043 C   0  0  0  0  0  0  0  0  0  0  0  0
   -2.5014    1.4741   -0.8366 C   0  0  0  0  0  0  0  0  0  0  0  0
   -2.2627   -1.9339   -0.4645 H   0  0  0  0  0  0  0  0  0  0  0  0
   -1.2517   -1.7091   -2.7394 H   0  0  0  0  0  0  0  0  0  0  0  0
   -1.0507    0.5419   -3.7711 H   0  0  0  0  0  0  0  0  0  0  0  0
   -1.8363    2.5577   -2.5556 H   0  0  0  0  0  0  0  0  0  0  0  0
   -2.8247    2.3591   -0.3012 H   0  0  0  0  0  0  0  0  0  0  0  0
   -2.4388    3.2448    2.2224 S   0  0  0  0  0  0  0  0  0  0  0  0
   -1.4346    2.1755    2.1901 O   0  0  0  0  0  0  0  0  0  0  0  0
   -3.9773    2.2275    1.9202 O   0  0  0  0  0  0  0  0  0  0  0  0
   -2.7898    3.8234    3.5199 O   0  0  0  0  0  0  0  0  0  0  0  0
   -2.4991    4.1129    1.0405 O   0  0  0  0  0  0  0  0  0  0  0  0
   -4.4836    2.3432    2.7422 H   0  0  0  0  0  0  0  0  0  0  0  0
  1  2  1  0  0  0  0
  2  3  2  0  0  0  0
  4  9  1  0  0  0  0
  4  1  2  0  0  0  0
  5  4  1  0  0  0  0
  6  5  2  0  0  0  0
  6  7  1  0  0  0  0
  7  8  2  0  0  0  0
  8 13  1  0  0  0  0
  8  1  1  0  0  0  0
 10  5  1  0  0  0  0
 11  6  1  0  0  0  0
 12  7  1  0  0  0  0
 14 17  1  0  0  0  0
 15 14  2  0  0  0  0
 16 14  1  0  0  0  0
 16 19  1  0  0  0  0
 18 14  2  0  0  0  0
M  RAD  2   3   2  17   2
M  END
