Coordinates from ORCA-job PhN2+~HSO4-_B3LYPG-6-31G_dp-NX-Scan-d89-09-n800
 OpenBabel11261920153D

 19 19  0  0  1  0  0  0  0  0999 V2000
   -1.5641   -0.6700    0.3149 C   0  0  0  0  0  0  0  0  0  0  0  0
   -1.2285   -1.5836    1.1989 N   0  0  0  0  0  0  0  0  0  0  0  0
   -0.9376   -2.3510    1.9917 N   0  0  0  0  0  0  0  0  0  0  0  0
   -2.5838   -0.9439   -0.6742 C   0  0  0  0  0  0  0  0  0  0  0  0
   -3.0074    0.0470   -1.4838 C   0  0  0  0  0  0  0  0  0  0  0  0
   -2.5685    1.4573   -1.2846 C   0  0  2  0  0  0  0  0  0  0  0  0
   -1.3161    1.5932   -0.4868 C   0  0  0  0  0  0  0  0  0  0  0  0
   -0.8835    0.6064    0.3208 C   0  0  0  0  0  0  0  0  0  0  0  0
   -2.9648   -1.9558   -0.7681 H   0  0  0  0  0  0  0  0  0  0  0  0
   -3.7475   -0.1506   -2.2517 H   0  0  0  0  0  0  0  0  0  0  0  0
   -2.5307    2.0318   -2.2111 H   0  0  0  0  0  0  0  0  0  0  0  0
   -0.7948    2.5423   -0.5241 H   0  0  0  0  0  0  0  0  0  0  0  0
   -0.0111    0.7319    0.9542 H   0  0  0  0  0  0  0  0  0  0  0  0
   -3.6842    3.5841   -0.0008 S   0  0  0  0  0  0  0  0  0  0  0  0
   -2.7423    4.3514   -0.7952 O   0  0  0  0  0  0  0  0  0  0  0  0
   -2.9605    3.3749    1.4542 O   0  0  0  0  0  0  0  0  0  0  0  0
   -5.0466    4.0204    0.2487 O   0  0  0  0  0  0  0  0  0  0  0  0
   -3.7820    2.0804   -0.5423 O   0  0  0  0  0  0  0  0  0  0  0  0
   -3.6674    3.1963    2.0967 H   0  0  0  0  0  0  0  0  0  0  0  0
  1  8  2  0  0  0  0
  1  2  1  0  0  0  0
  2  3  1  0  0  0  0
  4  1  1  0  0  0  0
  5  6  1  0  0  0  0
  5  4  2  0  0  0  0
  6 11  1  6  0  0  0
  6 18  1  0  0  0  0
  6  7  1  0  0  0  0
  7  8  1  0  0  0  0
  8 13  1  0  0  0  0
  9  4  1  0  0  0  0
 10  5  1  0  0  0  0
 12  7  1  0  0  0  0
 14 17  2  0  0  0  0
 14 16  1  0  0  0  0
 15 14  2  0  0  0  0
 16 19  1  0  0  0  0
 18 14  1  0  0  0  0
M  RAD  3   2   2   3   3   7   2
M  END
