Coordinates from ORCA-job PhN2+~HSO4-_B3LYPG-6-31G_dp-NX-Scan-d89-09-n800
 OpenBabel11261920153D

 19 19  0  0  1  0  0  0  0  0999 V2000
   -1.6111   -0.2659    0.3203 C   0  0  1  0  0  0  0  0  0  0  0  0
   -1.5903   -0.6352    1.5813 N   0  0  0  0  0  0  0  0  0  0  0  0
   -1.6274   -0.8910    2.6895 N   0  0  0  0  0  0  0  0  0  0  0  0
   -2.7534   -0.6358   -0.4889 C   0  0  0  0  0  0  0  0  0  0  0  0
   -3.1211    0.1752   -1.5008 C   0  0  0  0  0  0  0  0  0  0  0  0
   -2.4880    1.5095   -1.6684 C   0  0  2  0  0  0  0  0  0  0  0  0
   -1.1156    1.6046   -1.1148 C   0  0  0  0  0  0  0  0  0  0  0  0
   -0.7293    0.8001   -0.1046 C   0  0  0  0  0  0  0  0  0  0  0  0
   -3.2812   -1.5589   -0.2689 H   0  0  0  0  0  0  0  0  0  0  0  0
   -3.9464   -0.0875   -2.1541 H   0  0  0  0  0  0  0  0  0  0  0  0
   -2.5613    1.8918   -2.6859 H   0  0  0  0  0  0  0  0  0  0  0  0
   -0.4700    2.4020   -1.4642 H   0  0  0  0  0  0  0  0  0  0  0  0
    0.2188    0.9370    0.4051 H   0  0  0  0  0  0  0  0  0  0  0  0
   -3.3367    3.1421    0.4729 S   0  0  0  0  0  0  0  0  0  0  0  0
   -2.0639    3.8110    0.6562 O   0  0  0  0  0  0  0  0  0  0  0  0
   -3.2683    1.8045    1.4427 O   0  0  0  0  0  0  0  0  0  0  0  0
   -4.6041    3.7953    0.7559 O   0  0  0  0  0  0  0  0  0  0  0  0
   -3.4832    2.5509   -1.0045 O   0  0  0  0  0  0  0  0  0  0  0  0
   -4.1887    1.6126    1.6885 H   0  0  0  0  0  0  0  0  0  0  0  0
  1  2  1  1  0  0  0
  2  3  1  0  0  0  0
  4  9  1  0  0  0  0
  4  1  1  0  0  0  0
  5  4  2  0  0  0  0
  6 11  1  6  0  0  0
  6  5  1  0  0  0  0
  6  7  1  0  0  0  0
  6 18  1  0  0  0  0
  7  8  2  0  0  0  0
  8  1  1  0  0  0  0
  8 13  1  0  0  0  0
 10  5  1  0  0  0  0
 12  7  1  0  0  0  0
 14 15  2  0  0  0  0
 14 17  2  0  0  0  0
 14 16  1  0  0  0  0
 16 19  1  0  0  0  0
 18 14  1  0  0  0  0
M  RAD  3   1   2   2   2   3   3
M  END
