Coordinates from ORCA-job PhN2+~HSO4-_B3LYPG-6-31G_dp-NX-Scan-d89-09-n800
 OpenBabel11261920153D

 19 19  0  0  1  0  0  0  0  0999 V2000
   -1.5306   -0.3978    0.4125 C   0  0  0  0  0  0  0  0  0  0  0  0
   -1.1188   -1.2350    1.3389 N   0  0  0  0  0  0  0  0  0  0  0  0
   -0.7643   -1.9585    2.1482 N   0  0  0  0  0  0  0  0  0  0  0  0
   -2.7740   -0.6455   -0.2819 C   0  0  0  0  0  0  0  0  0  0  0  0
   -3.2100    0.2315   -1.2073 C   0  0  0  0  0  0  0  0  0  0  0  0
   -2.4961    1.5060   -1.5100 C   0  0  2  0  0  0  0  0  0  0  0  0
   -1.1671    1.6371   -0.8499 C   0  0  0  0  0  0  0  0  0  0  0  0
   -0.7298    0.7574    0.0722 C   0  0  0  0  0  0  0  0  0  0  0  0
   -3.3242   -1.5557   -0.0635 H   0  0  0  0  0  0  0  0  0  0  0  0
   -4.1273    0.0387   -1.7545 H   0  0  0  0  0  0  0  0  0  0  0  0
   -2.4284    1.6853   -2.5872 H   0  0  0  0  0  0  0  0  0  0  0  0
   -0.5601    2.4960   -1.1116 H   0  0  0  0  0  0  0  0  0  0  0  0
    0.2324    0.8865    0.5566 H   0  0  0  0  0  0  0  0  0  0  0  0
   -3.4836    3.4378    0.2205 S   0  0  0  0  0  0  0  0  0  0  0  0
   -2.2114    4.0714    0.5008 O   0  0  0  0  0  0  0  0  0  0  0  0
   -3.5998    2.2140    1.3019 O   0  0  0  0  0  0  0  0  0  0  0  0
   -4.7365    4.1709    0.2311 O   0  0  0  0  0  0  0  0  0  0  0  0
   -3.4574    2.6737   -1.1925 O   0  0  0  0  0  0  0  0  0  0  0  0
   -4.5340    1.9484    1.3332 H   0  0  0  0  0  0  0  0  0  0  0  0
  1  2  1  0  0  0  0
  2  3  1  0  0  0  0
  4  9  1  0  0  0  0
  4  1  2  0  0  0  0
  5  4  1  0  0  0  0
  6 11  1  6  0  0  0
  6  5  1  0  0  0  0
  6 18  1  0  0  0  0
  6  7  1  0  0  0  0
  7  8  2  0  0  0  0
  8  1  1  0  0  0  0
  8 13  1  0  0  0  0
 10  5  1  0  0  0  0
 12  7  1  0  0  0  0
 14 17  2  0  0  0  0
 14 15  2  0  0  0  0
 14 16  1  0  0  0  0
 16 19  1  0  0  0  0
 18 14  1  0  0  0  0
M  RAD  3   2   2   3   3   5   2
M  END
