Coordinates from ORCA-job PhN2+~HSO4-_B3LYPG-6-31G_dp-NX-Scan-d89-09-n800
 OpenBabel11261920163D

 19 18  0  0  0  0  0  0  0  0999 V2000
   -2.9147    0.2262   -0.2543 C   0  0  0  0  0  0  0  0  0  0  0  0
   -3.6455   -0.1527    0.9025 N   0  0  0  0  0  0  0  0  0  0  0  0
   -4.1477    0.5491    1.7715 N   0  0  0  0  0  0  0  0  0  0  0  0
   -2.1057   -0.8068   -0.7577 C   0  0  0  0  0  0  0  0  0  0  0  0
   -1.3586   -0.6156   -1.9149 C   0  0  0  0  0  0  0  0  0  0  0  0
   -1.4454    0.5963   -2.6047 C   0  0  0  0  0  0  0  0  0  0  0  0
   -2.2756    1.6130   -2.1271 C   0  0  0  0  0  0  0  0  0  0  0  0
   -3.0062    1.4455   -0.9522 C   0  0  0  0  0  0  0  0  0  0  0  0
   -2.0798   -1.7468   -0.2172 H   0  0  0  0  0  0  0  0  0  0  0  0
   -0.7243   -1.4143   -2.2869 H   0  0  0  0  0  0  0  0  0  0  0  0
   -0.8748    0.7454   -3.5164 H   0  0  0  0  0  0  0  0  0  0  0  0
   -2.3508    2.5518   -2.6673 H   0  0  0  0  0  0  0  0  0  0  0  0
   -3.6431    2.2409   -0.5946 H   0  0  0  0  0  0  0  0  0  0  0  0
   -1.7991    3.0960    2.1712 S   0  0  0  0  0  0  0  0  0  0  0  0
   -1.0078    1.8812    2.2491 O   0  0  0  0  0  0  0  0  0  0  0  0
   -3.9599    1.9498    1.6264 O   0  0  0  0  0  0  0  0  0  0  0  0
   -2.4828    3.5927    3.3577 O   0  0  0  0  0  0  0  0  0  0  0  0
   -1.7682    3.9141    0.9708 O   0  0  0  0  0  0  0  0  0  0  0  0
   -4.4311    2.2963    2.4015 H   0  0  0  0  0  0  0  0  0  0  0  0
  1  2  1  0  0  0  0
  2  3  2  0  0  0  0
  4  1  1  0  0  0  0
  4  9  1  0  0  0  0
  5  4  2  0  0  0  0
  6  7  2  0  0  0  0
  6  5  1  0  0  0  0
  7  8  1  0  0  0  0
  8 13  1  0  0  0  0
  8  1  2  0  0  0  0
 10  5  1  0  0  0  0
 11  6  1  0  0  0  0
 12  7  1  0  0  0  0
 14 15  2  0  0  0  0
 14 17  1  0  0  0  0
 16  3  1  0  0  0  0
 16 19  1  0  0  0  0
 18 14  1  0  0  0  0
M  RAD  2  17   2  18   2
M  END
