Coordinates from ORCA-job PhN2+~HSO4-_B3LYPG-6-31G_dp-NX-Scan-d89-09-n800
 OpenBabel11261920153D

 19 19  0  0  1  0  0  0  0  0999 V2000
   -1.6110   -0.2676    0.3284 C   0  0  1  0  0  0  0  0  0  0  0  0
   -1.5613   -0.6720    1.5776 N   0  0  0  0  0  0  0  0  0  0  0  0
   -1.5673   -0.9658    2.6773 N   0  0  0  0  0  0  0  0  0  0  0  0
   -2.7593   -0.6305   -0.4744 C   0  0  0  0  0  0  0  0  0  0  0  0
   -3.1285    0.1817   -1.4848 C   0  0  0  0  0  0  0  0  0  0  0  0
   -2.4886    1.5117   -1.6627 C   0  0  2  0  0  0  0  0  0  0  0  0
   -1.1184    1.6070   -1.1030 C   0  0  0  0  0  0  0  0  0  0  0  0
   -0.7316    0.8004   -0.0946 C   0  0  0  0  0  0  0  0  0  0  0  0
   -3.2897   -1.5517   -0.2529 H   0  0  0  0  0  0  0  0  0  0  0  0
   -3.9593   -0.0780   -2.1324 H   0  0  0  0  0  0  0  0  0  0  0  0
   -2.5533    1.8815   -2.6856 H   0  0  0  0  0  0  0  0  0  0  0  0
   -0.4727    2.4057   -1.4494 H   0  0  0  0  0  0  0  0  0  0  0  0
    0.2174    0.9361    0.4136 H   0  0  0  0  0  0  0  0  0  0  0  0
   -3.3445    3.1588    0.4584 S   0  0  0  0  0  0  0  0  0  0  0  0
   -2.0727    3.8271    0.6496 O   0  0  0  0  0  0  0  0  0  0  0  0
   -3.2818    1.8216    1.4269 O   0  0  0  0  0  0  0  0  0  0  0  0
   -4.6136    3.8129    0.7310 O   0  0  0  0  0  0  0  0  0  0  0  0
   -3.4805    2.5657   -1.0198 O   0  0  0  0  0  0  0  0  0  0  0  0
   -4.2044    1.6178    1.6541 H   0  0  0  0  0  0  0  0  0  0  0  0
  1  2  1  1  0  0  0
  2  3  1  0  0  0  0
  4  9  1  0  0  0  0
  4  1  1  0  0  0  0
  5  4  2  0  0  0  0
  6 11  1  6  0  0  0
  6  5  1  0  0  0  0
  6  7  1  0  0  0  0
  6 18  1  0  0  0  0
  7  8  2  0  0  0  0
  8  1  1  0  0  0  0
  8 13  1  0  0  0  0
 10  5  1  0  0  0  0
 12  7  1  0  0  0  0
 14 15  2  0  0  0  0
 14 17  2  0  0  0  0
 14 16  1  0  0  0  0
 16 19  1  0  0  0  0
 18 14  1  0  0  0  0
M  RAD  3   1   2   2   2   3   3
M  END
