Coordinates from ORCA-job PhN2+~HSO4-_B3LYPG-6-31G_dp-NX-Scan-d89-09-n800
 OpenBabel11261920153D

 19 19  0  0  1  0  0  0  0  0999 V2000
   -1.6213   -0.2676    0.2744 C   0  0  1  0  0  0  0  0  0  0  0  0
   -1.7704   -0.4484    1.5693 N   0  0  0  0  0  0  0  0  0  0  0  0
   -2.0054   -0.4555    2.6805 N   0  0  0  0  0  0  0  0  0  0  0  0
   -2.7104   -0.6874   -0.5891 C   0  0  0  0  0  0  0  0  0  0  0  0
   -3.0630    0.1216   -1.6081 C   0  0  0  0  0  0  0  0  0  0  0  0
   -2.4857    1.4875   -1.6924 C   0  0  2  0  0  0  0  0  0  0  0  0
   -1.1056    1.5891   -1.1653 C   0  0  0  0  0  0  0  0  0  0  0  0
   -0.7229    0.7904   -0.1488 C   0  0  0  0  0  0  0  0  0  0  0  0
   -3.2138   -1.6291   -0.3934 H   0  0  0  0  0  0  0  0  0  0  0  0
   -3.8424   -0.1607   -2.3078 H   0  0  0  0  0  0  0  0  0  0  0  0
   -2.6105    1.9547   -2.6671 H   0  0  0  0  0  0  0  0  0  0  0  0
   -0.4625    2.3843   -1.5235 H   0  0  0  0  0  0  0  0  0  0  0  0
    0.2159    0.9343    0.3759 H   0  0  0  0  0  0  0  0  0  0  0  0
   -3.2998    3.0577    0.5516 S   0  0  0  0  0  0  0  0  0  0  0  0
   -2.0275    3.7485    0.6394 O   0  0  0  0  0  0  0  0  0  0  0  0
   -3.1708    1.7557    1.5769 O   0  0  0  0  0  0  0  0  0  0  0  0
   -4.5567    3.7075    0.8887 O   0  0  0  0  0  0  0  0  0  0  0  0
   -3.5204    2.4123   -0.8890 O   0  0  0  0  0  0  0  0  0  0  0  0
   -4.0478    1.6672    1.9854 H   0  0  0  0  0  0  0  0  0  0  0  0
  1  2  1  1  0  0  0
  2  3  1  0  0  0  0
  4  9  1  0  0  0  0
  4  1  1  0  0  0  0
  5  4  2  0  0  0  0
  6 11  1  6  0  0  0
  6  5  1  0  0  0  0
  6  7  1  0  0  0  0
  6 18  1  0  0  0  0
  7  8  2  0  0  0  0
  8  1  1  0  0  0  0
  8 13  1  0  0  0  0
 10  5  1  0  0  0  0
 12  7  1  0  0  0  0
 14 15  2  0  0  0  0
 14 17  2  0  0  0  0
 14 16  1  0  0  0  0
 16 19  1  0  0  0  0
 18 14  1  0  0  0  0
M  RAD  3   1   2   2   2   3   3
M  END
