Coordinates from ORCA-job PhN2+~HSO4-_B3LYPG-6-31G_dp-NX-Scan-d89-09-n800
 OpenBabel11261920153D

 19 19  0  0  1  0  0  0  0  0999 V2000
   -1.5893   -0.6106    0.3264 C   0  0  0  0  0  0  0  0  0  0  0  0
   -1.2942   -1.4762    1.2714 N   0  0  0  0  0  0  0  0  0  0  0  0
   -1.0399   -2.1967    2.1186 N   0  0  0  0  0  0  0  0  0  0  0  0
   -2.5970   -0.9181   -0.6653 C   0  0  0  0  0  0  0  0  0  0  0  0
   -3.0002    0.0444   -1.5188 C   0  0  0  0  0  0  0  0  0  0  0  0
   -2.5610    1.4589   -1.3513 C   0  0  2  0  0  0  0  0  0  0  0  0
   -1.2965    1.6071   -0.5762 C   0  0  0  0  0  0  0  0  0  0  0  0
   -0.8811    0.6495    0.2746 C   0  0  0  0  0  0  0  0  0  0  0  0
   -2.9842   -1.9303   -0.7245 H   0  0  0  0  0  0  0  0  0  0  0  0
   -3.7284   -0.1760   -2.2917 H   0  0  0  0  0  0  0  0  0  0  0  0
   -2.5404    2.0193   -2.2865 H   0  0  0  0  0  0  0  0  0  0  0  0
   -0.7584    2.5436   -0.6575 H   0  0  0  0  0  0  0  0  0  0  0  0
   -0.0057    0.7852    0.9015 H   0  0  0  0  0  0  0  0  0  0  0  0
   -3.6465    3.5396    0.0568 S   0  0  0  0  0  0  0  0  0  0  0  0
   -2.6712    4.3439   -0.6563 O   0  0  0  0  0  0  0  0  0  0  0  0
   -2.9607    3.1947    1.5055 O   0  0  0  0  0  0  0  0  0  0  0  0
   -5.0021    3.9917    0.3167 O   0  0  0  0  0  0  0  0  0  0  0  0
   -3.7745    2.0886   -0.6050 O   0  0  0  0  0  0  0  0  0  0  0  0
   -3.6897    3.0035    2.1191 H   0  0  0  0  0  0  0  0  0  0  0  0
  1  2  1  0  0  0  0
  2  3  1  0  0  0  0
  4  1  1  0  0  0  0
  5  6  1  0  0  0  0
  5  4  2  0  0  0  0
  6 11  1  6  0  0  0
  6 18  1  0  0  0  0
  6  7  1  0  0  0  0
  7  8  1  0  0  0  0
  8  1  2  0  0  0  0
  8 13  1  0  0  0  0
  9  4  1  0  0  0  0
 10  5  1  0  0  0  0
 12  7  1  0  0  0  0
 14 17  2  0  0  0  0
 14 16  1  0  0  0  0
 15 14  2  0  0  0  0
 16 19  1  0  0  0  0
 18 14  1  0  0  0  0
M  RAD  3   2   2   3   3   7   2
M  END
