Coordinates from ORCA-job PhN2+~HSO4-_B3LYPG-6-31G_dp-NX-Scan-d89-09-n800
 OpenBabel11261920153D

 19 19  0  0  1  0  0  0  0  0999 V2000
   -1.4418   -1.0086    0.2119 C   0  0  0  0  0  0  0  0  0  0  0  0
   -1.0046   -2.1751    0.6337 N   0  0  0  0  0  0  0  0  0  0  0  0
   -0.6297   -3.1891    1.0037 N   0  0  0  0  0  0  0  0  0  0  0  0
   -2.4833   -0.9456   -0.7915 C   0  0  0  0  0  0  0  0  0  0  0  0
   -2.9216    0.2490   -1.2325 C   0  0  0  0  0  0  0  0  0  0  0  0
   -2.4247    1.5413   -0.6814 C   0  0  2  0  0  0  0  0  0  0  0  0
   -1.2900    1.4067    0.2752 C   0  0  0  0  0  0  0  0  0  0  0  0
   -0.8503    0.2121    0.7164 C   0  0  0  0  0  0  0  0  0  0  0  0
   -2.8788   -1.8731   -1.1927 H   0  0  0  0  0  0  0  0  0  0  0  0
   -3.6873    0.3043   -1.9995 H   0  0  0  0  0  0  0  0  0  0  0  0
   -2.2247    2.2681   -1.4727 H   0  0  0  0  0  0  0  0  0  0  0  0
   -0.8342    2.3237    0.6334 H   0  0  0  0  0  0  0  0  0  0  0  0
   -0.0354    0.1401    1.4303 H   0  0  0  0  0  0  0  0  0  0  0  0
   -4.1293    3.6053   -0.3144 S   0  0  0  0  0  0  0  0  0  0  0  0
   -4.0365    3.7869   -1.7506 O   0  0  0  0  0  0  0  0  0  0  0  0
   -2.9736    4.5849    0.3126 O   0  0  0  0  0  0  0  0  0  0  0  0
   -5.3523    3.8215    0.4355 O   0  0  0  0  0  0  0  0  0  0  0  0
   -3.6024    2.1482    0.1041 O   0  0  0  0  0  0  0  0  0  0  0  0
   -3.2207    4.7617    1.2358 H   0  0  0  0  0  0  0  0  0  0  0  0
  1  2  1  0  0  0  0
  1  8  2  0  0  0  0
  2  3  1  0  0  0  0
  4  1  1  0  0  0  0
  5  4  2  0  0  0  0
  5  6  1  0  0  0  0
  6 11  1  6  0  0  0
  6 18  1  0  0  0  0
  6  7  1  0  0  0  0
  7 12  1  0  0  0  0
  7  8  1  0  0  0  0
  8 13  1  0  0  0  0
  9  4  1  0  0  0  0
 10  5  1  0  0  0  0
 14 18  1  0  0  0  0
 14 16  1  0  0  0  0
 14 17  2  0  0  0  0
 15 14  2  0  0  0  0
 16 19  1  0  0  0  0
M  RAD  3   2   2   3   3   7   2
M  END
