Coordinates from ORCA-job PhN2+~HSO4-_B3LYPG-6-31G_dp-NX-Scan-d89-09-n800
 OpenBabel11261920153D

 19 19  0  0  1  0  0  0  0  0999 V2000
   -1.6228   -0.2683    0.2730 C   0  0  1  0  0  0  0  0  0  0  0  0
   -1.7771   -0.4445    1.5680 N   0  0  0  0  0  0  0  0  0  0  0  0
   -2.0181   -0.4433    2.6779 N   0  0  0  0  0  0  0  0  0  0  0  0
   -2.7090   -0.6900   -0.5934 C   0  0  0  0  0  0  0  0  0  0  0  0
   -3.0605    0.1192   -1.6126 C   0  0  0  0  0  0  0  0  0  0  0  0
   -2.4858    1.4864   -1.6927 C   0  0  2  0  0  0  0  0  0  0  0  0
   -1.1059    1.5886   -1.1656 C   0  0  0  0  0  0  0  0  0  0  0  0
   -0.7237    0.7897   -0.1491 C   0  0  0  0  0  0  0  0  0  0  0  0
   -3.2111   -1.6328   -0.3995 H   0  0  0  0  0  0  0  0  0  0  0  0
   -3.8375   -0.1637   -2.3147 H   0  0  0  0  0  0  0  0  0  0  0  0
   -2.6121    1.9571   -2.6655 H   0  0  0  0  0  0  0  0  0  0  0  0
   -0.4629    2.3841   -1.5234 H   0  0  0  0  0  0  0  0  0  0  0  0
    0.2145    0.9337    0.3768 H   0  0  0  0  0  0  0  0  0  0  0  0
   -3.2992    3.0561    0.5534 S   0  0  0  0  0  0  0  0  0  0  0  0
   -2.0280    3.7500    0.6346 O   0  0  0  0  0  0  0  0  0  0  0  0
   -3.1644    1.7574    1.5827 O   0  0  0  0  0  0  0  0  0  0  0  0
   -4.5563    3.7045    0.8927 O   0  0  0  0  0  0  0  0  0  0  0  0
   -3.5230    2.4052   -0.8841 O   0  0  0  0  0  0  0  0  0  0  0  0
   -4.0381    1.6728    1.9991 H   0  0  0  0  0  0  0  0  0  0  0  0
  1  2  1  1  0  0  0
  2  3  1  0  0  0  0
  4  9  1  0  0  0  0
  4  1  1  0  0  0  0
  5  4  2  0  0  0  0
  6 11  1  6  0  0  0
  6  5  1  0  0  0  0
  6  7  1  0  0  0  0
  6 18  1  0  0  0  0
  7  8  2  0  0  0  0
  8  1  1  0  0  0  0
  8 13  1  0  0  0  0
 10  5  1  0  0  0  0
 12  7  1  0  0  0  0
 14 15  2  0  0  0  0
 14 17  2  0  0  0  0
 14 16  1  0  0  0  0
 16 19  1  0  0  0  0
 18 14  1  0  0  0  0
M  RAD  3   1   2   2   2   3   3
M  END
