Coordinates from ORCA-job PhN2+~HSO4-_B3LYPG-6-31G_dp-NX-Scan-d89-09-n800
 OpenBabel11261920153D

 19 19  0  0  1  0  0  0  0  0999 V2000
   -1.5611   -0.6769    0.3136 C   0  0  0  0  0  0  0  0  0  0  0  0
   -1.2207   -1.5961    1.1899 N   0  0  0  0  0  0  0  0  0  0  0  0
   -0.9253   -2.3690    1.9757 N   0  0  0  0  0  0  0  0  0  0  0  0
   -2.5823   -0.9468   -0.6750 C   0  0  0  0  0  0  0  0  0  0  0  0
   -3.0083    0.0475   -1.4793 C   0  0  0  0  0  0  0  0  0  0  0  0
   -2.5692    1.4572   -1.2764 C   0  0  2  0  0  0  0  0  0  0  0  0
   -1.3185    1.5914   -0.4756 C   0  0  0  0  0  0  0  0  0  0  0  0
   -0.8839    0.6012    0.3267 C   0  0  0  0  0  0  0  0  0  0  0  0
   -2.9627   -1.9585   -0.7731 H   0  0  0  0  0  0  0  0  0  0  0  0
   -3.7499   -0.1474   -2.2464 H   0  0  0  0  0  0  0  0  0  0  0  0
   -2.5290    2.0332   -2.2019 H   0  0  0  0  0  0  0  0  0  0  0  0
   -0.7991    2.5419   -0.5075 H   0  0  0  0  0  0  0  0  0  0  0  0
   -0.0119    0.7254    0.9609 H   0  0  0  0  0  0  0  0  0  0  0  0
   -3.6888    3.5892   -0.0078 S   0  0  0  0  0  0  0  0  0  0  0  0
   -2.7515    4.3519   -0.8119 O   0  0  0  0  0  0  0  0  0  0  0  0
   -2.9601    3.3961    1.4467 O   0  0  0  0  0  0  0  0  0  0  0  0
   -5.0520    4.0232    0.2412 O   0  0  0  0  0  0  0  0  0  0  0  0
   -3.7828    2.0800   -0.5351 O   0  0  0  0  0  0  0  0  0  0  0  0
   -3.6640    3.2187    2.0929 H   0  0  0  0  0  0  0  0  0  0  0  0
  1  8  2  0  0  0  0
  1  2  1  0  0  0  0
  2  3  1  0  0  0  0
  4  1  1  0  0  0  0
  5  6  1  0  0  0  0
  5  4  2  0  0  0  0
  6 11  1  6  0  0  0
  6 18  1  0  0  0  0
  6  7  1  0  0  0  0
  7  8  1  0  0  0  0
  8 13  1  0  0  0  0
  9  4  1  0  0  0  0
 10  5  1  0  0  0  0
 12  7  1  0  0  0  0
 14 17  2  0  0  0  0
 14 16  1  0  0  0  0
 15 14  2  0  0  0  0
 16 19  1  0  0  0  0
 18 14  1  0  0  0  0
M  RAD  3   2   2   3   3   7   2
M  END
