Coordinates from ORCA-job PhN2+~HSO4-_B3LYPG-6-31G_dp-NX-Scan-d89-09-n800
 OpenBabel11261920153D

 19 19  0  0  1  0  0  0  0  0999 V2000
   -1.4842   -0.8531    0.2735 C   0  0  0  0  0  0  0  0  0  0  0  0
   -1.0354   -1.9021    0.9266 N   0  0  0  0  0  0  0  0  0  0  0  0
   -0.6465   -2.8055    1.5072 N   0  0  0  0  0  0  0  0  0  0  0  0
   -2.5462   -1.0008   -0.6979 C   0  0  0  0  0  0  0  0  0  0  0  0
   -3.0218    0.0818   -1.3432 C   0  0  0  0  0  0  0  0  0  0  0  0
   -2.5598    1.4638   -1.0317 C   0  0  2  0  0  0  0  0  0  0  0  0
   -1.3541    1.5241   -0.1550 C   0  0  0  0  0  0  0  0  0  0  0  0
   -0.8783    0.4430    0.4917 C   0  0  0  0  0  0  0  0  0  0  0  0
   -2.9230   -1.9956   -0.9130 H   0  0  0  0  0  0  0  0  0  0  0  0
   -3.8025   -0.0256   -2.0887 H   0  0  0  0  0  0  0  0  0  0  0  0
   -2.4514    2.0832   -1.9246 H   0  0  0  0  0  0  0  0  0  0  0  0
   -0.8804    2.4904   -0.0219 H   0  0  0  0  0  0  0  0  0  0  0  0
   -0.0199    0.5130    1.1526 H   0  0  0  0  0  0  0  0  0  0  0  0
   -3.8422    3.6945   -0.1968 S   0  0  0  0  0  0  0  0  0  0  0  0
   -3.1000    4.3150   -1.2781 O   0  0  0  0  0  0  0  0  0  0  0  0
   -2.9549    3.9920    1.1464 O   0  0  0  0  0  0  0  0  0  0  0  0
   -5.2251    4.0155    0.1041 O   0  0  0  0  0  0  0  0  0  0  0  0
   -3.7662    2.0951   -0.3080 O   0  0  0  0  0  0  0  0  0  0  0  0
   -3.5290    3.8335    1.9143 H   0  0  0  0  0  0  0  0  0  0  0  0
  1  8  1  0  0  0  0
  1  2  1  0  0  0  0
  2  3  1  0  0  0  0
  4  1  2  0  0  0  0
  5  6  1  0  0  0  0
  5  4  1  0  0  0  0
  6 11  1  6  0  0  0
  6 18  1  0  0  0  0
  6  7  1  0  0  0  0
  7 12  1  0  0  0  0
  7  8  2  0  0  0  0
  8 13  1  0  0  0  0
  9  4  1  0  0  0  0
 10  5  1  0  0  0  0
 14 17  2  0  0  0  0
 14 16  1  0  0  0  0
 15 14  2  0  0  0  0
 16 19  1  0  0  0  0
 18 14  1  0  0  0  0
M  RAD  3   2   2   3   3   5   2
M  END
