Coordinates from ORCA-job PhN2+~HSO4-_B3LYPG-6-31G_dp-NX-Scan-d89-09-n800
 OpenBabel11261920163D

 19 18  0  0  0  0  0  0  0  0999 V2000
   -3.2494    0.1765   -0.2069 C   0  0  0  0  0  0  0  0  0  0  0  0
   -4.2959   -0.3296    0.6247 N   0  0  0  0  0  0  0  0  0  0  0  0
   -4.5353    0.3409    1.7237 N   0  0  0  0  0  0  0  0  0  0  0  0
   -2.2914   -0.7393   -0.6622 C   0  0  0  0  0  0  0  0  0  0  0  0
   -1.3153   -0.3594   -1.5840 C   0  0  0  0  0  0  0  0  0  0  0  0
   -1.2769    0.9440   -2.0843 C   0  0  0  0  0  0  0  0  0  0  0  0
   -2.2329    1.8663   -1.6561 C   0  0  0  0  0  0  0  0  0  0  0  0
   -3.2032    1.4990   -0.7115 C   0  0  0  0  0  0  0  0  0  0  0  0
   -2.3366   -1.7562   -0.2859 H   0  0  0  0  0  0  0  0  0  0  0  0
   -0.5823   -1.0890   -1.9170 H   0  0  0  0  0  0  0  0  0  0  0  0
   -0.5216    1.2348   -2.8078 H   0  0  0  0  0  0  0  0  0  0  0  0
   -2.2332    2.8755   -2.0564 H   0  0  0  0  0  0  0  0  0  0  0  0
   -3.9809    2.2084   -0.4438 H   0  0  0  0  0  0  0  0  0  0  0  0
   -1.4674    3.0655    1.1571 S   0  0  0  0  0  0  0  0  0  0  0  0
   -0.7702    1.8812    1.6301 O   0  0  0  0  0  0  0  0  0  0  0  0
   -3.9979    1.0952    1.9765 O   0  0  0  0  0  0  0  0  0  0  0  0
   -2.6903    3.4945    1.8325 O   0  0  0  0  0  0  0  0  0  0  0  0
   -0.8435    3.9609    0.1968 O   0  0  0  0  0  0  0  0  0  0  0  0
   -4.1970    1.5929    2.8318 H   0  0  0  0  0  0  0  0  0  0  0  0
  1  2  1  0  0  0  0
  2  3  2  0  0  0  0
  3 16  1  0  0  0  0
  4  9  1  0  0  0  0
  4  1  1  0  0  0  0
  5  4  2  0  0  0  0
  6  7  2  0  0  0  0
  6  5  1  0  0  0  0
  7  8  1  0  0  0  0
  8 13  1  0  0  0  0
  8  1  2  0  0  0  0
 10  5  1  0  0  0  0
 11  6  1  0  0  0  0
 12  7  1  0  0  0  0
 14 15  2  0  0  0  0
 14 17  1  0  0  0  0
 16 19  1  0  0  0  0
 18 14  1  0  0  0  0
M  RAD  2  17   2  18   2
M  END
