Coordinates from ORCA-job PhN2+~HSO4-_B3LYPG-6-31G_dp-NX-Scan-d89-09-n800
 OpenBabel11261920153D

 19 19  0  0  1  0  0  0  0  0999 V2000
   -1.6530   -0.2779    0.2479 C   0  0  1  0  0  0  0  0  0  0  0  0
   -1.8872   -0.3863    1.5420 N   0  0  0  0  0  0  0  0  0  0  0  0
   -2.2116   -0.2115    2.6155 N   0  0  0  0  0  0  0  0  0  0  0  0
   -2.6829   -0.7350   -0.6673 C   0  0  0  0  0  0  0  0  0  0  0  0
   -3.0134    0.0789   -1.6922 C   0  0  0  0  0  0  0  0  0  0  0  0
   -2.4826    1.4631   -1.7023 C   0  0  2  0  0  0  0  0  0  0  0  0
   -1.1075    1.5766   -1.1754 C   0  0  0  0  0  0  0  0  0  0  0  0
   -0.7399    0.7785   -0.1518 C   0  0  0  0  0  0  0  0  0  0  0  0
   -3.1664   -1.6924   -0.5010 H   0  0  0  0  0  0  0  0  0  0  0  0
   -3.7483   -0.2131   -2.4343 H   0  0  0  0  0  0  0  0  0  0  0  0
   -2.6455    1.9990   -2.6338 H   0  0  0  0  0  0  0  0  0  0  0  0
   -0.4651    2.3754   -1.5260 H   0  0  0  0  0  0  0  0  0  0  0  0
    0.1832    0.9265    0.3989 H   0  0  0  0  0  0  0  0  0  0  0  0
   -3.2923    3.0254    0.5889 S   0  0  0  0  0  0  0  0  0  0  0  0
   -2.0387    3.7578    0.5667 O   0  0  0  0  0  0  0  0  0  0  0  0
   -3.0760    1.7802    1.6859 O   0  0  0  0  0  0  0  0  0  0  0  0
   -4.5464    3.6641    0.9608 O   0  0  0  0  0  0  0  0  0  0  0  0
   -3.5599    2.2744   -0.7851 O   0  0  0  0  0  0  0  0  0  0  0  0
   -3.8874    1.7785    2.2201 H   0  0  0  0  0  0  0  0  0  0  0  0
  1  2  1  1  0  0  0
  2  3  1  0  0  0  0
  4  9  1  0  0  0  0
  4  1  1  0  0  0  0
  5  4  2  0  0  0  0
  6 11  1  6  0  0  0
  6  5  1  0  0  0  0
  6  7  1  0  0  0  0
  6 18  1  0  0  0  0
  7  8  2  0  0  0  0
  8  1  1  0  0  0  0
  8 13  1  0  0  0  0
 10  5  1  0  0  0  0
 12  7  1  0  0  0  0
 14 17  2  0  0  0  0
 14 16  1  0  0  0  0
 15 14  2  0  0  0  0
 16 19  1  0  0  0  0
 18 14  1  0  0  0  0
M  RAD  3   1   2   2   2   3   3
M  END
