Coordinates from ORCA-job PhN2+~HSO4-_B3LYPG-6-31G_dp-NX-Scan-d89-09-n800
 OpenBabel11261920153D

 19 19  0  0  1  0  0  0  0  0999 V2000
   -1.5899   -0.6088    0.3268 C   0  0  0  0  0  0  0  0  0  0  0  0
   -1.2959   -1.4730    1.2733 N   0  0  0  0  0  0  0  0  0  0  0  0
   -1.0425   -2.1922    2.1219 N   0  0  0  0  0  0  0  0  0  0  0  0
   -2.5975   -0.9172   -0.6648 C   0  0  0  0  0  0  0  0  0  0  0  0
   -3.0001    0.0444   -1.5196 C   0  0  0  0  0  0  0  0  0  0  0  0
   -2.5608    1.4590   -1.3532 C   0  0  2  0  0  0  0  0  0  0  0  0
   -1.2959    1.6075   -0.5788 C   0  0  0  0  0  0  0  0  0  0  0  0
   -0.8810    0.6507    0.2732 C   0  0  0  0  0  0  0  0  0  0  0  0
   -2.9849   -1.9294   -0.7229 H   0  0  0  0  0  0  0  0  0  0  0  0
   -3.7282   -0.1767   -2.2925 H   0  0  0  0  0  0  0  0  0  0  0  0
   -2.5405    2.0187   -2.2888 H   0  0  0  0  0  0  0  0  0  0  0  0
   -0.7573    2.5436   -0.6614 H   0  0  0  0  0  0  0  0  0  0  0  0
   -0.0055    0.7868    0.8999 H   0  0  0  0  0  0  0  0  0  0  0  0
   -3.6453    3.5383    0.0584 S   0  0  0  0  0  0  0  0  0  0  0  0
   -2.6686    4.3436   -0.6517 O   0  0  0  0  0  0  0  0  0  0  0  0
   -2.9612    3.1890    1.5070 O   0  0  0  0  0  0  0  0  0  0  0  0
   -5.0007    3.9911    0.3184 O   0  0  0  0  0  0  0  0  0  0  0  0
   -3.7742    2.0893   -0.6071 O   0  0  0  0  0  0  0  0  0  0  0  0
   -3.6911    2.9977    2.1195 H   0  0  0  0  0  0  0  0  0  0  0  0
  1  2  1  0  0  0  0
  2  3  1  0  0  0  0
  4  1  1  0  0  0  0
  5  6  1  0  0  0  0
  5  4  2  0  0  0  0
  6 11  1  6  0  0  0
  6 18  1  0  0  0  0
  6  7  1  0  0  0  0
  7  8  1  0  0  0  0
  8  1  2  0  0  0  0
  8 13  1  0  0  0  0
  9  4  1  0  0  0  0
 10  5  1  0  0  0  0
 12  7  1  0  0  0  0
 14 17  2  0  0  0  0
 14 16  1  0  0  0  0
 15 14  2  0  0  0  0
 16 19  1  0  0  0  0
 18 14  1  0  0  0  0
M  RAD  3   2   2   3   3   7   2
M  END
