Coordinates from ORCA-job PhN2+~HSO4-_B3LYPG-6-31G_dp-NX-Scan-d89-09-n800
 OpenBabel11261920153D

 19 19  0  0  1  0  0  0  0  0999 V2000
   -1.4498   -0.9588    0.2390 C   0  0  0  0  0  0  0  0  0  0  0  0
   -0.9826   -2.0792    0.7439 N   0  0  0  0  0  0  0  0  0  0  0  0
   -0.5796   -3.0518    1.1881 N   0  0  0  0  0  0  0  0  0  0  0  0
   -2.5039   -0.9945   -0.7519 C   0  0  0  0  0  0  0  0  0  0  0  0
   -2.9763    0.1533   -1.2744 C   0  0  0  0  0  0  0  0  0  0  0  0
   -2.5039    1.4947   -0.8290 C   0  0  2  0  0  0  0  0  0  0  0  0
   -1.3502    1.4571    0.1159 C   0  0  0  0  0  0  0  0  0  0  0  0
   -0.8783    0.3092    0.6394 C   0  0  0  0  0  0  0  0  0  0  0  0
   -2.8809   -1.9582   -1.0789 H   0  0  0  0  0  0  0  0  0  0  0  0
   -3.7532    0.1307   -2.0315 H   0  0  0  0  0  0  0  0  0  0  0  0
   -2.3368    2.1705   -1.6718 H   0  0  0  0  0  0  0  0  0  0  0  0
   -0.9080    2.4068    0.3966 H   0  0  0  0  0  0  0  0  0  0  0  0
   -0.0511    0.3091    1.3426 H   0  0  0  0  0  0  0  0  0  0  0  0
   -4.0108    3.6785   -0.2946 S   0  0  0  0  0  0  0  0  0  0  0  0
   -3.6466    4.1053   -1.6321 O   0  0  0  0  0  0  0  0  0  0  0  0
   -2.8999    4.3768    0.6881 O   0  0  0  0  0  0  0  0  0  0  0  0
   -5.3223    3.9087    0.2818 O   0  0  0  0  0  0  0  0  0  0  0  0
   -3.7087    2.1142   -0.0972 O   0  0  0  0  0  0  0  0  0  0  0  0
   -3.2782    4.3900    1.5834 H   0  0  0  0  0  0  0  0  0  0  0  0
  1  8  1  0  0  0  0
  1  2  1  0  0  0  0
  2  3  1  0  0  0  0
  4  1  2  0  0  0  0
  5  6  1  0  0  0  0
  5  4  1  0  0  0  0
  6 11  1  6  0  0  0
  6 18  1  0  0  0  0
  6  7  1  0  0  0  0
  7 12  1  0  0  0  0
  7  8  2  0  0  0  0
  8 13  1  0  0  0  0
  9  4  1  0  0  0  0
 10  5  1  0  0  0  0
 14 18  1  0  0  0  0
 14 17  2  0  0  0  0
 14 16  1  0  0  0  0
 15 14  2  0  0  0  0
 16 19  1  0  0  0  0
M  RAD  3   2   2   3   3   5   2
M  END
