Coordinates from ORCA-job PhN2+~HSO4-_B3LYPG-6-31G_dp-NX-Scan-d89-09-n800
 OpenBabel11261920153D

 19 19  0  0  1  0  0  0  0  0999 V2000
   -1.6014   -0.5654    0.3370 C   0  0  0  0  0  0  0  0  0  0  0  0
   -1.3192   -1.4006    1.3130 N   0  0  0  0  0  0  0  0  0  0  0  0
   -1.0779   -2.0939    2.1862 N   0  0  0  0  0  0  0  0  0  0  0  0
   -2.6132   -0.8945   -0.6435 C   0  0  0  0  0  0  0  0  0  0  0  0
   -3.0059    0.0447   -1.5275 C   0  0  0  0  0  0  0  0  0  0  0  0
   -2.5542    1.4594   -1.4009 C   0  0  2  0  0  0  0  0  0  0  0  0
   -1.2822    1.6161   -0.6412 C   0  0  0  0  0  0  0  0  0  0  0  0
   -0.8753    0.6813    0.2390 C   0  0  0  0  0  0  0  0  0  0  0  0
   -3.0114   -1.9037   -0.6696 H   0  0  0  0  0  0  0  0  0  0  0  0
   -3.7365   -0.1921   -2.2933 H   0  0  0  0  0  0  0  0  0  0  0  0
   -2.5375    1.9950   -2.3504 H   0  0  0  0  0  0  0  0  0  0  0  0
   -0.7317    2.5414   -0.7560 H   0  0  0  0  0  0  0  0  0  0  0  0
    0.0056    0.8253    0.8561 H   0  0  0  0  0  0  0  0  0  0  0  0
   -3.6114    3.5121    0.0975 S   0  0  0  0  0  0  0  0  0  0  0  0
   -2.5830    4.3305   -0.5180 O   0  0  0  0  0  0  0  0  0  0  0  0
   -2.9982    3.0367    1.5429 O   0  0  0  0  0  0  0  0  0  0  0  0
   -4.9592    3.9961    0.3420 O   0  0  0  0  0  0  0  0  0  0  0  0
   -3.7680    2.1204   -0.6727 O   0  0  0  0  0  0  0  0  0  0  0  0
   -3.7606    2.8534    2.1170 H   0  0  0  0  0  0  0  0  0  0  0  0
  1  2  1  0  0  0  0
  2  3  1  0  0  0  0
  4  1  1  0  0  0  0
  5  6  1  0  0  0  0
  5  4  2  0  0  0  0
  6 11  1  6  0  0  0
  6 18  1  0  0  0  0
  6  7  1  0  0  0  0
  7  8  1  0  0  0  0
  8  1  2  0  0  0  0
  8 13  1  0  0  0  0
  9  4  1  0  0  0  0
 10  5  1  0  0  0  0
 12  7  1  0  0  0  0
 14 17  2  0  0  0  0
 14 16  1  0  0  0  0
 15 14  2  0  0  0  0
 16 19  1  0  0  0  0
 18 14  1  0  0  0  0
M  RAD  3   2   2   3   3   7   2
M  END
