Coordinates from ORCA-job PhN2+~HSO4-_B3LYPG-6-31G_dp-NX-Scan-d89-09-n800
 OpenBabel11261920153D

 19 19  0  0  1  0  0  0  0  0999 V2000
   -1.5470   -0.7107    0.3075 C   0  0  0  0  0  0  0  0  0  0  0  0
   -1.1832   -1.6571    1.1444 N   0  0  0  0  0  0  0  0  0  0  0  0
   -0.8670   -2.4572    1.8944 N   0  0  0  0  0  0  0  0  0  0  0  0
   -2.5752   -0.9600   -0.6793 C   0  0  0  0  0  0  0  0  0  0  0  0
   -3.0124    0.0508   -1.4562 C   0  0  0  0  0  0  0  0  0  0  0  0
   -2.5720    1.4571   -1.2342 C   0  0  2  0  0  0  0  0  0  0  0  0
   -1.3296    1.5821   -0.4187 C   0  0  0  0  0  0  0  0  0  0  0  0
   -0.8856    0.5749    0.3568 C   0  0  0  0  0  0  0  0  0  0  0  0
   -2.9527   -1.9705   -0.7986 H   0  0  0  0  0  0  0  0  0  0  0  0
   -3.7609   -0.1298   -2.2202 H   0  0  0  0  0  0  0  0  0  0  0  0
   -2.5198    2.0411   -2.1544 H   0  0  0  0  0  0  0  0  0  0  0  0
   -0.8195    2.5383   -0.4227 H   0  0  0  0  0  0  0  0  0  0  0  0
   -0.0160    0.6918    0.9957 H   0  0  0  0  0  0  0  0  0  0  0  0
   -3.7135    3.6137   -0.0435 S   0  0  0  0  0  0  0  0  0  0  0  0
   -2.8028    4.3535   -0.8980 O   0  0  0  0  0  0  0  0  0  0  0  0
   -2.9563    3.5051    1.4044 O   0  0  0  0  0  0  0  0  0  0  0  0
   -5.0808    4.0332    0.2067 O   0  0  0  0  0  0  0  0  0  0  0  0
   -3.7856    2.0788   -0.4971 O   0  0  0  0  0  0  0  0  0  0  0  0
   -3.6412    3.3270    2.0704 H   0  0  0  0  0  0  0  0  0  0  0  0
  1  8  2  0  0  0  0
  1  2  1  0  0  0  0
  2  3  1  0  0  0  0
  4  1  1  0  0  0  0
  5  6  1  0  0  0  0
  5  4  2  0  0  0  0
  6 11  1  6  0  0  0
  6 18  1  0  0  0  0
  6  7  1  0  0  0  0
  7  8  1  0  0  0  0
  8 13  1  0  0  0  0
  9  4  1  0  0  0  0
 10  5  1  0  0  0  0
 12  7  1  0  0  0  0
 14 17  2  0  0  0  0
 14 16  1  0  0  0  0
 15 14  2  0  0  0  0
 16 19  1  0  0  0  0
 18 14  1  0  0  0  0
M  RAD  3   2   2   3   3   7   2
M  END
