Coordinates from ORCA-job PhN2+~HSO4-_B3LYPG-6-31G_dp-NX-Scan-d89-09-n800
 OpenBabel11261920153D

 19 18  0  0  0  0  0  0  0  0999 V2000
   -2.4249    0.2861   -0.2881 C   0  0  0  0  0  0  0  0  0  0  0  0
   -2.9440    0.1617    0.9921 N   0  0  0  0  0  0  0  0  0  0  0  0
   -3.3546    0.1353    2.0462 N   0  0  0  0  0  0  0  0  0  0  0  0
   -2.6471   -0.7944   -1.1614 C   0  0  0  0  0  0  0  0  0  0  0  0
   -2.1350   -0.7101   -2.4483 C   0  0  0  0  0  0  0  0  0  0  0  0
   -1.3992    0.4182   -2.8329 C   0  0  0  0  0  0  0  0  0  0  0  0
   -1.1740    1.4685   -1.9384 C   0  0  0  0  0  0  0  0  0  0  0  0
   -1.6914    1.4288   -0.6467 C   0  0  0  0  0  0  0  0  0  0  0  0
   -3.2150   -1.6559   -0.8285 H   0  0  0  0  0  0  0  0  0  0  0  0
   -2.3037   -1.5210   -3.1488 H   0  0  0  0  0  0  0  0  0  0  0  0
   -0.9969    0.4753   -3.8396 H   0  0  0  0  0  0  0  0  0  0  0  0
   -0.5998    2.3349   -2.2487 H   0  0  0  0  0  0  0  0  0  0  0  0
   -1.5390    2.2255    0.0774 H   0  0  0  0  0  0  0  0  0  0  0  0
   -3.2201    3.3292    1.9378 S   0  0  0  0  0  0  0  0  0  0  0  0
   -1.7477    3.1742    1.9013 O   0  0  0  0  0  0  0  0  0  0  0  0
   -3.6979    1.8667    2.8301 O   0  0  0  0  0  0  0  0  0  0  0  0
   -3.7429    4.4063    2.7726 O   0  0  0  0  0  0  0  0  0  0  0  0
   -3.8988    3.0248    0.6700 O   0  0  0  0  0  0  0  0  0  0  0  0
   -3.2892    1.9082    3.7114 H   0  0  0  0  0  0  0  0  0  0  0  0
  1  2  1  0  0  0  0
  2  3  1  0  0  0  0
  4  9  1  0  0  0  0
  4  1  2  0  0  0  0
  5  4  1  0  0  0  0
  6  5  2  0  0  0  0
  6  7  1  0  0  0  0
  7  8  2  0  0  0  0
  8  1  1  0  0  0  0
  8 13  1  0  0  0  0
 10  5  1  0  0  0  0
 11  6  1  0  0  0  0
 12  7  1  0  0  0  0
 14 17  1  0  0  0  0
 14 16  1  0  0  0  0
 15 14  2  0  0  0  0
 16 19  1  0  0  0  0
 18 14  2  0  0  0  0
M  RAD  3   2   2   3   3  17   2
M  END
