Coordinates from ORCA-job PhN2+~HSO4-_B3LYPG-6-31G_dp-NX-Scan-d89-09-n800
 OpenBabel11261920153D

 19 19  0  0  1  0  0  0  0  0999 V2000
   -1.4471   -0.9681    0.2350 C   0  0  0  0  0  0  0  0  0  0  0  0
   -0.9808   -2.0959    0.7243 N   0  0  0  0  0  0  0  0  0  0  0  0
   -0.5792   -3.0757    1.1539 N   0  0  0  0  0  0  0  0  0  0  0  0
   -2.4988   -0.9898   -0.7589 C   0  0  0  0  0  0  0  0  0  0  0  0
   -2.9689    0.1651   -1.2674 C   0  0  0  0  0  0  0  0  0  0  0  0
   -2.4954    1.5003   -0.8049 C   0  0  2  0  0  0  0  0  0  0  0  0
   -1.3472    1.4494    0.1457 C   0  0  0  0  0  0  0  0  0  0  0  0
   -0.8776    0.2943    0.6555 C   0  0  0  0  0  0  0  0  0  0  0  0
   -2.8760   -1.9488   -1.0993 H   0  0  0  0  0  0  0  0  0  0  0  0
   -3.7440    0.1534   -2.0268 H   0  0  0  0  0  0  0  0  0  0  0  0
   -2.3219    2.1836   -1.6403 H   0  0  0  0  0  0  0  0  0  0  0  0
   -0.9071    2.3955    0.4416 H   0  0  0  0  0  0  0  0  0  0  0  0
   -0.0541    0.2846    1.3630 H   0  0  0  0  0  0  0  0  0  0  0  0
   -4.0304    3.6711   -0.3011 S   0  0  0  0  0  0  0  0  0  0  0  0
   -3.7135    4.0644   -1.6608 O   0  0  0  0  0  0  0  0  0  0  0  0
   -2.9007    4.4138    0.6264 O   0  0  0  0  0  0  0  0  0  0  0  0
   -5.3272    3.8986    0.3086 O   0  0  0  0  0  0  0  0  0  0  0  0
   -3.6985    2.1176   -0.0688 O   0  0  0  0  0  0  0  0  0  0  0  0
   -3.2528    4.4489    1.5317 H   0  0  0  0  0  0  0  0  0  0  0  0
  1  8  1  0  0  0  0
  1  2  1  0  0  0  0
  2  3  1  0  0  0  0
  4  1  2  0  0  0  0
  5  6  1  0  0  0  0
  5  4  1  0  0  0  0
  6 11  1  6  0  0  0
  6 18  1  0  0  0  0
  6  7  1  0  0  0  0
  7 12  1  0  0  0  0
  7  8  2  0  0  0  0
  8 13  1  0  0  0  0
  9  4  1  0  0  0  0
 10  5  1  0  0  0  0
 14 18  1  0  0  0  0
 14 17  2  0  0  0  0
 14 16  1  0  0  0  0
 15 14  2  0  0  0  0
 16 19  1  0  0  0  0
M  RAD  3   2   2   3   3   5   2
M  END
