Coordinates from ORCA-job PhN2+~HSO4-_B3LYPG-6-31G_dp-NX-Scan-d89-09-n800
 OpenBabel11261920153D

 19 18  0  0  0  0  0  0  0  0999 V2000
   -2.6248    0.1831   -0.2700 C   0  0  0  0  0  0  0  0  0  0  0  0
   -3.1980   -0.0314    0.9850 N   0  0  0  0  0  0  0  0  0  0  0  0
   -3.7213    0.3787    1.9250 N   0  0  0  0  0  0  0  0  0  0  0  0
   -2.1547   -0.9627   -0.9308 C   0  0  0  0  0  0  0  0  0  0  0  0
   -1.5880   -0.8220   -2.1909 C   0  0  0  0  0  0  0  0  0  0  0  0
   -1.4982    0.4477   -2.7722 C   0  0  0  0  0  0  0  0  0  0  0  0
   -1.9714    1.5781   -2.0984 C   0  0  0  0  0  0  0  0  0  0  0  0
   -2.5418    1.4675   -0.8342 C   0  0  0  0  0  0  0  0  0  0  0  0
   -2.2396   -1.9303   -0.4487 H   0  0  0  0  0  0  0  0  0  0  0  0
   -1.2167   -1.6944   -2.7175 H   0  0  0  0  0  0  0  0  0  0  0  0
   -1.0531    0.5568   -3.7562 H   0  0  0  0  0  0  0  0  0  0  0  0
   -1.8884    2.5598   -2.5526 H   0  0  0  0  0  0  0  0  0  0  0  0
   -2.8897    2.3458   -0.3061 H   0  0  0  0  0  0  0  0  0  0  0  0
   -2.3867    3.2418    2.2291 S   0  0  0  0  0  0  0  0  0  0  0  0
   -1.3933    2.1656    2.1995 O   0  0  0  0  0  0  0  0  0  0  0  0
   -3.9481    2.2144    1.8523 O   0  0  0  0  0  0  0  0  0  0  0  0
   -2.7896    3.7799    3.5281 O   0  0  0  0  0  0  0  0  0  0  0  0
   -2.4273    4.1346    1.0677 O   0  0  0  0  0  0  0  0  0  0  0  0
   -4.4904    2.3494    2.6483 H   0  0  0  0  0  0  0  0  0  0  0  0
  1  2  1  0  0  0  0
  2  3  2  0  0  0  0
  4  9  1  0  0  0  0
  4  1  2  0  0  0  0
  5  4  1  0  0  0  0
  6  5  2  0  0  0  0
  6  7  1  0  0  0  0
  7  8  2  0  0  0  0
  8 13  1  0  0  0  0
  8  1  1  0  0  0  0
 10  5  1  0  0  0  0
 11  6  1  0  0  0  0
 12  7  1  0  0  0  0
 14 17  1  0  0  0  0
 15 14  2  0  0  0  0
 16 14  1  0  0  0  0
 16 19  1  0  0  0  0
 18 14  2  0  0  0  0
M  RAD  2   3   2  17   2
M  END
