Coordinates from ORCA-job PhN2+~HSO4-_B3LYPG-6-31G_dp-NX-Scan-d89-09-n800
 OpenBabel11261920153D

 19 18  0  0  0  0  0  0  0  0999 V2000
   -2.6286    0.1828   -0.2685 C   0  0  0  0  0  0  0  0  0  0  0  0
   -3.2028   -0.0353    0.9858 N   0  0  0  0  0  0  0  0  0  0  0  0
   -3.7264    0.3842    1.9232 N   0  0  0  0  0  0  0  0  0  0  0  0
   -2.1539   -0.9616   -0.9284 C   0  0  0  0  0  0  0  0  0  0  0  0
   -1.5855   -0.8203   -2.1878 C   0  0  0  0  0  0  0  0  0  0  0  0
   -1.4987    0.4490   -2.7700 C   0  0  0  0  0  0  0  0  0  0  0  0
   -1.9767    1.5784   -2.0977 C   0  0  0  0  0  0  0  0  0  0  0  0
   -2.5485    1.4667   -0.8342 C   0  0  0  0  0  0  0  0  0  0  0  0
   -2.2367   -1.9291   -0.4457 H   0  0  0  0  0  0  0  0  0  0  0  0
   -1.2107   -1.6920   -2.7130 H   0  0  0  0  0  0  0  0  0  0  0  0
   -1.0524    0.5588   -3.7533 H   0  0  0  0  0  0  0  0  0  0  0  0
   -1.8962    2.5600   -2.5526 H   0  0  0  0  0  0  0  0  0  0  0  0
   -2.9008    2.3441   -0.3078 H   0  0  0  0  0  0  0  0  0  0  0  0
   -2.3776    3.2415    2.2300 S   0  0  0  0  0  0  0  0  0  0  0  0
   -1.3854    2.1649    2.1989 O   0  0  0  0  0  0  0  0  0  0  0  0
   -3.9437    2.2107    1.8423 O   0  0  0  0  0  0  0  0  0  0  0  0
   -2.7881    3.7720    3.5296 O   0  0  0  0  0  0  0  0  0  0  0  0
   -2.4177    4.1384    1.0723 O   0  0  0  0  0  0  0  0  0  0  0  0
   -4.4908    2.3491    2.6344 H   0  0  0  0  0  0  0  0  0  0  0  0
  1  2  1  0  0  0  0
  2  3  2  0  0  0  0
  4  9  1  0  0  0  0
  4  1  2  0  0  0  0
  5  4  1  0  0  0  0
  6  5  2  0  0  0  0
  6  7  1  0  0  0  0
  7  8  2  0  0  0  0
  8 13  1  0  0  0  0
  8  1  1  0  0  0  0
 10  5  1  0  0  0  0
 11  6  1  0  0  0  0
 12  7  1  0  0  0  0
 14 17  1  0  0  0  0
 15 14  2  0  0  0  0
 16 14  1  0  0  0  0
 16 19  1  0  0  0  0
 18 14  2  0  0  0  0
M  RAD  2   3   2  17   2
M  END
