Coordinates from ORCA-job PhN2+~HSO4-_B3LYPG-6-31G_dp-NX-Scan-d89-09-n800
 OpenBabel11261920153D

 19 19  0  0  1  0  0  0  0  0999 V2000
   -1.6140   -0.2628    0.2822 C   0  0  1  0  0  0  0  0  0  0  0  0
   -1.7324   -0.4697    1.5760 N   0  0  0  0  0  0  0  0  0  0  0  0
   -1.9326   -0.5199    2.6933 N   0  0  0  0  0  0  0  0  0  0  0  0
   -2.7184   -0.6725   -0.5656 C   0  0  0  0  0  0  0  0  0  0  0  0
   -3.0764    0.1348   -1.5839 C   0  0  0  0  0  0  0  0  0  0  0  0
   -2.4851    1.4932   -1.6904 C   0  0  2  0  0  0  0  0  0  0  0  0
   -1.1043    1.5918   -1.1638 C   0  0  0  0  0  0  0  0  0  0  0  0
   -0.7188    0.7942   -0.1474 C   0  0  0  0  0  0  0  0  0  0  0  0
   -3.2281   -1.6088   -0.3603 H   0  0  0  0  0  0  0  0  0  0  0  0
   -3.8684   -0.1440   -2.2707 H   0  0  0  0  0  0  0  0  0  0  0  0
   -2.6023    1.9420   -2.6750 H   0  0  0  0  0  0  0  0  0  0  0  0
   -0.4604    2.3853   -1.5247 H   0  0  0  0  0  0  0  0  0  0  0  0
    0.2238    0.9370    0.3709 H   0  0  0  0  0  0  0  0  0  0  0  0
   -3.3034    3.0654    0.5425 S   0  0  0  0  0  0  0  0  0  0  0  0
   -2.0236    3.7361    0.6660 O   0  0  0  0  0  0  0  0  0  0  0  0
   -3.2090    1.7458    1.5459 O   0  0  0  0  0  0  0  0  0  0  0  0
   -4.5577    3.7264    0.8663 O   0  0  0  0  0  0  0  0  0  0  0  0
   -3.5067    2.4492   -0.9144 O   0  0  0  0  0  0  0  0  0  0  0  0
   -4.1033    1.6390    1.9105 H   0  0  0  0  0  0  0  0  0  0  0  0
  1  2  1  1  0  0  0
  2  3  1  0  0  0  0
  4  9  1  0  0  0  0
  4  1  1  0  0  0  0
  5  4  2  0  0  0  0
  6 11  1  6  0  0  0
  6  5  1  0  0  0  0
  6  7  1  0  0  0  0
  6 18  1  0  0  0  0
  7  8  2  0  0  0  0
  8  1  1  0  0  0  0
  8 13  1  0  0  0  0
 10  5  1  0  0  0  0
 12  7  1  0  0  0  0
 14 15  2  0  0  0  0
 14 17  2  0  0  0  0
 14 16  1  0  0  0  0
 16 19  1  0  0  0  0
 18 14  1  0  0  0  0
M  RAD  3   1   2   2   2   3   3
M  END
