Coordinates from ORCA-job PhN2+~HSO4-_B3LYPG-6-31G_dp-NX-Scan-d89-09-n800
 OpenBabel11261920153D

 19 18  0  0  0  0  0  0  0  0999 V2000
   -2.4252    0.3105   -0.2997 C   0  0  0  0  0  0  0  0  0  0  0  0
   -2.9492    0.2063    0.9802 N   0  0  0  0  0  0  0  0  0  0  0  0
   -3.3646    0.1216    2.0247 N   0  0  0  0  0  0  0  0  0  0  0  0
   -2.6553   -0.7756   -1.1638 C   0  0  0  0  0  0  0  0  0  0  0  0
   -2.1351   -0.7054   -2.4482 C   0  0  0  0  0  0  0  0  0  0  0  0
   -1.3885    0.4143   -2.8382 C   0  0  0  0  0  0  0  0  0  0  0  0
   -1.1594    1.4707   -1.9518 C   0  0  0  0  0  0  0  0  0  0  0  0
   -1.6825    1.4452   -0.6622 C   0  0  0  0  0  0  0  0  0  0  0  0
   -3.2335   -1.6289   -0.8275 H   0  0  0  0  0  0  0  0  0  0  0  0
   -2.3072   -1.5203   -3.1433 H   0  0  0  0  0  0  0  0  0  0  0  0
   -0.9815    0.4598   -3.8436 H   0  0  0  0  0  0  0  0  0  0  0  0
   -0.5779    2.3304   -2.2672 H   0  0  0  0  0  0  0  0  0  0  0  0
   -1.5327    2.2443    0.0606 H   0  0  0  0  0  0  0  0  0  0  0  0
   -3.2354    3.2866    1.9517 S   0  0  0  0  0  0  0  0  0  0  0  0
   -1.7618    3.1237    1.9117 O   0  0  0  0  0  0  0  0  0  0  0  0
   -3.7146    1.8865    2.9010 O   0  0  0  0  0  0  0  0  0  0  0  0
   -3.7437    4.4187    2.7203 O   0  0  0  0  0  0  0  0  0  0  0  0
   -3.9150    2.9289    0.6954 O   0  0  0  0  0  0  0  0  0  0  0  0
   -3.2579    1.9451    3.7574 H   0  0  0  0  0  0  0  0  0  0  0  0
  1  2  1  0  0  0  0
  2  3  1  0  0  0  0
  4  9  1  0  0  0  0
  4  1  2  0  0  0  0
  5  4  1  0  0  0  0
  6  5  2  0  0  0  0
  6  7  1  0  0  0  0
  7  8  2  0  0  0  0
  8  1  1  0  0  0  0
  8 13  1  0  0  0  0
 10  5  1  0  0  0  0
 11  6  1  0  0  0  0
 12  7  1  0  0  0  0
 14 17  1  0  0  0  0
 14 16  1  0  0  0  0
 15 14  2  0  0  0  0
 16 19  1  0  0  0  0
 18 14  2  0  0  0  0
M  RAD  3   2   2   3   3  17   2
M  END
