Coordinates from ORCA-job PhN2+~HSO4-_B3LYPG-6-31G_dp-NX-Scan-d89-09-n800
 OpenBabel11261920163D

 19 18  0  0  0  0  0  0  0  0999 V2000
   -3.2447    0.1753   -0.2035 C   0  0  0  0  0  0  0  0  0  0  0  0
   -4.2873   -0.3312    0.6299 N   0  0  0  0  0  0  0  0  0  0  0  0
   -4.5262    0.3565    1.7286 N   0  0  0  0  0  0  0  0  0  0  0  0
   -2.2876   -0.7398   -0.6637 C   0  0  0  0  0  0  0  0  0  0  0  0
   -1.3153   -0.3595   -1.5890 C   0  0  0  0  0  0  0  0  0  0  0  0
   -1.2766    0.9448   -2.0876 C   0  0  0  0  0  0  0  0  0  0  0  0
   -2.2301    1.8670   -1.6551 C   0  0  0  0  0  0  0  0  0  0  0  0
   -3.1977    1.4995   -0.7069 C   0  0  0  0  0  0  0  0  0  0  0  0
   -2.3317   -1.7570   -0.2880 H   0  0  0  0  0  0  0  0  0  0  0  0
   -0.5840   -1.0893   -1.9254 H   0  0  0  0  0  0  0  0  0  0  0  0
   -0.5234    1.2358   -2.8130 H   0  0  0  0  0  0  0  0  0  0  0  0
   -2.2311    2.8768   -2.0539 H   0  0  0  0  0  0  0  0  0  0  0  0
   -3.9769    2.2081   -0.4412 H   0  0  0  0  0  0  0  0  0  0  0  0
   -1.4785    3.0540    1.1555 S   0  0  0  0  0  0  0  0  0  0  0  0
   -0.7802    1.8724    1.6345 O   0  0  0  0  0  0  0  0  0  0  0  0
   -4.0022    1.0976    1.9733 O   0  0  0  0  0  0  0  0  0  0  0  0
   -2.7020    3.4842    1.8303 O   0  0  0  0  0  0  0  0  0  0  0  0
   -0.8502    3.9526    0.2009 O   0  0  0  0  0  0  0  0  0  0  0  0
   -4.1955    1.6144    2.8318 H   0  0  0  0  0  0  0  0  0  0  0  0
  1  2  1  0  0  0  0
  2  3  2  0  0  0  0
  3 16  1  0  0  0  0
  4  9  1  0  0  0  0
  4  1  1  0  0  0  0
  5  4  2  0  0  0  0
  6  7  2  0  0  0  0
  6  5  1  0  0  0  0
  7  8  1  0  0  0  0
  8 13  1  0  0  0  0
  8  1  2  0  0  0  0
 10  5  1  0  0  0  0
 11  6  1  0  0  0  0
 12  7  1  0  0  0  0
 14 15  2  0  0  0  0
 14 17  1  0  0  0  0
 16 19  1  0  0  0  0
 18 14  1  0  0  0  0
M  RAD  2  17   2  18   2
M  END
