Coordinates from ORCA-job PhN2+~HSO4-_B3LYPG-6-31G_dp-NX-Scan-d89-09-n800
 OpenBabel11261920153D

 19 19  0  0  1  0  0  0  0  0999 V2000
   -1.6070   -0.5382    0.3434 C   0  0  0  0  0  0  0  0  0  0  0  0
   -1.3296   -1.3562    1.3352 N   0  0  0  0  0  0  0  0  0  0  0  0
   -1.0932   -2.0349    2.2210 N   0  0  0  0  0  0  0  0  0  0  0  0
   -2.6245   -0.8782   -0.6273 C   0  0  0  0  0  0  0  0  0  0  0  0
   -3.0119    0.0469   -1.5284 C   0  0  0  0  0  0  0  0  0  0  0  0
   -2.5488    1.4599   -1.4297 C   0  0  2  0  0  0  0  0  0  0  0  0
   -1.2732    1.6211   -0.6781 C   0  0  0  0  0  0  0  0  0  0  0  0
   -0.8705    0.6996    0.2182 C   0  0  0  0  0  0  0  0  0  0  0  0
   -3.0316   -1.8843   -0.6321 H   0  0  0  0  0  0  0  0  0  0  0  0
   -3.7469   -0.1983   -2.2873 H   0  0  0  0  0  0  0  0  0  0  0  0
   -2.5316    1.9774   -2.3890 H   0  0  0  0  0  0  0  0  0  0  0  0
   -0.7154    2.5392   -0.8120 H   0  0  0  0  0  0  0  0  0  0  0  0
    0.0140    0.8481    0.8290 H   0  0  0  0  0  0  0  0  0  0  0  0
   -3.5907    3.4949    0.1207 S   0  0  0  0  0  0  0  0  0  0  0  0
   -2.5292    4.3177   -0.4292 O   0  0  0  0  0  0  0  0  0  0  0  0
   -3.0269    2.9368    1.5577 O   0  0  0  0  0  0  0  0  0  0  0  0
   -4.9325    4.0001    0.3560 O   0  0  0  0  0  0  0  0  0  0  0  0
   -3.7622    2.1470   -0.7183 O   0  0  0  0  0  0  0  0  0  0  0  0
   -3.8093    2.7635    2.1076 H   0  0  0  0  0  0  0  0  0  0  0  0
  1  2  1  0  0  0  0
  2  3  1  0  0  0  0
  4  1  1  0  0  0  0
  5  6  1  0  0  0  0
  5  4  2  0  0  0  0
  6 11  1  6  0  0  0
  6 18  1  0  0  0  0
  6  7  1  0  0  0  0
  7  8  1  0  0  0  0
  8  1  2  0  0  0  0
  8 13  1  0  0  0  0
  9  4  1  0  0  0  0
 10  5  1  0  0  0  0
 12  7  1  0  0  0  0
 14 17  2  0  0  0  0
 14 16  1  0  0  0  0
 15 14  2  0  0  0  0
 16 19  1  0  0  0  0
 18 14  1  0  0  0  0
M  RAD  3   2   2   3   3   7   2
M  END
