Coordinates from ORCA-job PhN2+~HSO4-_B3LYPG-6-31G_dp-NX-Scan-d89-09-n800
 OpenBabel11261920153D

 19 19  0  0  1  0  0  0  0  0999 V2000
   -1.6274   -0.2705    0.2695 C   0  0  1  0  0  0  0  0  0  0  0  0
   -1.7951   -0.4356    1.5644 N   0  0  0  0  0  0  0  0  0  0  0  0
   -2.0501   -0.4126    2.6709 N   0  0  0  0  0  0  0  0  0  0  0  0
   -2.7053   -0.6972   -0.6051 C   0  0  0  0  0  0  0  0  0  0  0  0
   -3.0537    0.1129   -1.6249 C   0  0  0  0  0  0  0  0  0  0  0  0
   -2.4861    1.4836   -1.6935 C   0  0  2  0  0  0  0  0  0  0  0  0
   -1.1068    1.5874   -1.1658 C   0  0  0  0  0  0  0  0  0  0  0  0
   -0.7264    0.7879   -0.1490 C   0  0  0  0  0  0  0  0  0  0  0  0
   -3.2042   -1.6427   -0.4162 H   0  0  0  0  0  0  0  0  0  0  0  0
   -3.8238   -0.1718   -2.3337 H   0  0  0  0  0  0  0  0  0  0  0  0
   -2.6163    1.9637   -2.6610 H   0  0  0  0  0  0  0  0  0  0  0  0
   -0.4639    2.3836   -1.5222 H   0  0  0  0  0  0  0  0  0  0  0  0
    0.2098    0.9321    0.3803 H   0  0  0  0  0  0  0  0  0  0  0  0
   -3.2979    3.0523    0.5576 S   0  0  0  0  0  0  0  0  0  0  0  0
   -2.0304    3.7553    0.6205 O   0  0  0  0  0  0  0  0  0  0  0  0
   -3.1468    1.7631    1.5981 O   0  0  0  0  0  0  0  0  0  0  0  0
   -4.5557    3.6964    0.9029 O   0  0  0  0  0  0  0  0  0  0  0  0
   -3.5299    2.3855   -0.8706 O   0  0  0  0  0  0  0  0  0  0  0  0
   -4.0112    1.6888    2.0353 H   0  0  0  0  0  0  0  0  0  0  0  0
  1  2  1  1  0  0  0
  2  3  1  0  0  0  0
  4  9  1  0  0  0  0
  4  1  1  0  0  0  0
  5  4  2  0  0  0  0
  6 11  1  6  0  0  0
  6  5  1  0  0  0  0
  6  7  1  0  0  0  0
  6 18  1  0  0  0  0
  7  8  2  0  0  0  0
  8  1  1  0  0  0  0
  8 13  1  0  0  0  0
 10  5  1  0  0  0  0
 12  7  1  0  0  0  0
 14 15  2  0  0  0  0
 14 17  2  0  0  0  0
 14 16  1  0  0  0  0
 16 19  1  0  0  0  0
 18 14  1  0  0  0  0
M  RAD  3   1   2   2   2   3   3
M  END
