Coordinates from ORCA-job PhN2+~HSO4-_B3LYPG-6-31G_dp-NX-Scan-d89-09-n800
 OpenBabel11261920153D

 19 19  0  0  1  0  0  0  0  0999 V2000
   -1.4599   -1.0634    0.1783 C   0  0  0  0  0  0  0  0  0  0  0  0
   -1.1010   -2.2972    0.4656 N   0  0  0  0  0  0  0  0  0  0  0  0
   -0.7932   -3.3710    0.7119 N   0  0  0  0  0  0  0  0  0  0  0  0
   -2.5151   -0.8165   -0.7831 C   0  0  0  0  0  0  0  0  0  0  0  0
   -2.8579    0.4456   -1.1070 C   0  0  0  0  0  0  0  0  0  0  0  0
   -2.2247    1.6425   -0.4789 C   0  0  2  0  0  0  0  0  0  0  0  0
   -1.1144    1.3199    0.4626 C   0  0  0  0  0  0  0  0  0  0  0  0
   -0.7714    0.0562    0.7842 C   0  0  0  0  0  0  0  0  0  0  0  0
   -3.0037   -1.6658   -1.2495 H   0  0  0  0  0  0  0  0  0  0  0  0
   -3.6322    0.6348   -1.8422 H   0  0  0  0  0  0  0  0  0  0  0  0
   -1.9310    2.3877   -1.2244 H   0  0  0  0  0  0  0  0  0  0  0  0
   -0.5825    2.1556    0.9044 H   0  0  0  0  0  0  0  0  0  0  0  0
    0.0392   -0.1436    1.4784 H   0  0  0  0  0  0  0  0  0  0  0  0
   -4.2274    3.4571   -0.3265 S   0  0  0  0  0  0  0  0  0  0  0  0
   -4.3397    3.1828   -1.7471 O   0  0  0  0  0  0  0  0  0  0  0  0
   -3.3385    4.8309   -0.2331 O   0  0  0  0  0  0  0  0  0  0  0  0
   -5.3763    3.6178    0.5455 O   0  0  0  0  0  0  0  0  0  0  0  0
   -3.2800    2.3657    0.3789 O   0  0  0  0  0  0  0  0  0  0  0  0
   -3.5112    5.2234    0.6393 H   0  0  0  0  0  0  0  0  0  0  0  0
  1  2  1  0  0  0  0
  1  8  2  0  0  0  0
  2  3  1  0  0  0  0
  4  1  1  0  0  0  0
  5  4  2  0  0  0  0
  5  6  1  0  0  0  0
  6 11  1  6  0  0  0
  6 18  1  0  0  0  0
  6  7  1  0  0  0  0
  7  8  1  0  0  0  0
  7 12  1  0  0  0  0
  8 13  1  0  0  0  0
  9  4  1  0  0  0  0
 10  5  1  0  0  0  0
 14 16  1  0  0  0  0
 14 18  1  0  0  0  0
 14 17  2  0  0  0  0
 15 14  2  0  0  0  0
 16 19  1  0  0  0  0
M  RAD  3   2   2   3   3   7   2
M  END
