Coordinates from ORCA-job PhN2+~HSO4-_B3LYPG-6-31G_dp-NX-Scan-d89-09-n800
 OpenBabel11261920153D

 19 19  0  0  1  0  0  0  0  0999 V2000
   -1.6128   -0.2685    0.3314 C   0  0  1  0  0  0  0  0  0  0  0  0
   -1.5555   -0.6842    1.5766 N   0  0  0  0  0  0  0  0  0  0  0  0
   -1.5534   -0.9901    2.6731 N   0  0  0  0  0  0  0  0  0  0  0  0
   -2.7617   -0.6298   -0.4712 C   0  0  0  0  0  0  0  0  0  0  0  0
   -3.1307    0.1829   -1.4811 C   0  0  0  0  0  0  0  0  0  0  0  0
   -2.4892    1.5121   -1.6609 C   0  0  2  0  0  0  0  0  0  0  0  0
   -1.1204    1.6081   -1.0978 C   0  0  0  0  0  0  0  0  0  0  0  0
   -0.7343    0.8009   -0.0896 C   0  0  0  0  0  0  0  0  0  0  0  0
   -3.2923   -1.5510   -0.2503 H   0  0  0  0  0  0  0  0  0  0  0  0
   -3.9622   -0.0760   -2.1282 H   0  0  0  0  0  0  0  0  0  0  0  0
   -2.5506    1.8787   -2.6852 H   0  0  0  0  0  0  0  0  0  0  0  0
   -0.4748    2.4076   -1.4424 H   0  0  0  0  0  0  0  0  0  0  0  0
    0.2145    0.9363    0.4191 H   0  0  0  0  0  0  0  0  0  0  0  0
   -3.3465    3.1652    0.4527 S   0  0  0  0  0  0  0  0  0  0  0  0
   -2.0775    3.8393    0.6415 O   0  0  0  0  0  0  0  0  0  0  0  0
   -3.2764    1.8297    1.4224 O   0  0  0  0  0  0  0  0  0  0  0  0
   -4.6182    3.8142    0.7251 O   0  0  0  0  0  0  0  0  0  0  0  0
   -3.4812    2.5687   -1.0245 O   0  0  0  0  0  0  0  0  0  0  0  0
   -4.1980    1.6184    1.6469 H   0  0  0  0  0  0  0  0  0  0  0  0
  1  2  1  1  0  0  0
  2  3  1  0  0  0  0
  4  9  1  0  0  0  0
  4  1  1  0  0  0  0
  5  4  2  0  0  0  0
  6 11  1  6  0  0  0
  6  5  1  0  0  0  0
  6  7  1  0  0  0  0
  6 18  1  0  0  0  0
  7  8  2  0  0  0  0
  8  1  1  0  0  0  0
  8 13  1  0  0  0  0
 10  5  1  0  0  0  0
 12  7  1  0  0  0  0
 14 15  2  0  0  0  0
 14 17  2  0  0  0  0
 14 16  1  0  0  0  0
 16 19  1  0  0  0  0
 18 14  1  0  0  0  0
M  RAD  3   1   2   2   2   3   3
M  END
