Coordinates from ORCA-job PhN2+~HSO4-_B3LYPG-6-31G_dp-NX-Scan-d89-09-n800
 OpenBabel11261920153D

 19 19  0  0  1  0  0  0  0  0999 V2000
   -1.6054   -0.2855    0.3693 C   0  0  1  0  0  0  0  0  0  0  0  0
   -1.4193   -0.8580    1.5369 N   0  0  0  0  0  0  0  0  0  0  0  0
   -1.2849   -1.3248    2.5679 N   0  0  0  0  0  0  0  0  0  0  0  0
   -2.7813   -0.6144   -0.4042 C   0  0  0  0  0  0  0  0  0  0  0  0
   -3.1623    0.2088   -1.4014 C   0  0  0  0  0  0  0  0  0  0  0  0
   -2.4917    1.5181   -1.6262 C   0  0  2  0  0  0  0  0  0  0  0  0
   -1.1335    1.6190   -1.0341 C   0  0  0  0  0  0  0  0  0  0  0  0
   -0.7413    0.7982   -0.0395 C   0  0  0  0  0  0  0  0  0  0  0  0
   -3.3218   -1.5289   -0.1792 H   0  0  0  0  0  0  0  0  0  0  0  0
   -4.0193   -0.0336   -2.0212 H   0  0  0  0  0  0  0  0  0  0  0  0
   -2.5123    1.8245   -2.6729 H   0  0  0  0  0  0  0  0  0  0  0  0
   -0.4912    2.4280   -1.3624 H   0  0  0  0  0  0  0  0  0  0  0  0
    0.2124    0.9283    0.4612 H   0  0  0  0  0  0  0  0  0  0  0  0
   -3.3866    3.2464    0.3837 S   0  0  0  0  0  0  0  0  0  0  0  0
   -2.1211    3.9159    0.6067 O   0  0  0  0  0  0  0  0  0  0  0  0
   -3.3514    1.9233    1.3631 O   0  0  0  0  0  0  0  0  0  0  0  0
   -4.6628    3.9078    0.5956 O   0  0  0  0  0  0  0  0  0  0  0  0
   -3.4698    2.6247   -1.0900 O   0  0  0  0  0  0  0  0  0  0  0  0
   -4.2774    1.6645    1.5041 H   0  0  0  0  0  0  0  0  0  0  0  0
  1  2  1  1  0  0  0
  2  3  1  0  0  0  0
  4  9  1  0  0  0  0
  4  1  1  0  0  0  0
  5  4  2  0  0  0  0
  6 11  1  6  0  0  0
  6  5  1  0  0  0  0
  6 18  1  0  0  0  0
  6  7  1  0  0  0  0
  7  8  2  0  0  0  0
  8  1  1  0  0  0  0
  8 13  1  0  0  0  0
 10  5  1  0  0  0  0
 12  7  1  0  0  0  0
 14 17  2  0  0  0  0
 14 15  2  0  0  0  0
 14 16  1  0  0  0  0
 16 19  1  0  0  0  0
 18 14  1  0  0  0  0
M  RAD  3   1   2   2   2   3   3
M  END
