Coordinates from ORCA-job PhN2+~HSO4-_B3LYPG-6-31G_dp-NX-Scan-d89-09-n800
 OpenBabel11261920163D

 19 18  0  0  0  0  0  0  0  0999 V2000
   -3.3006    0.1816   -0.2287 C   0  0  0  0  0  0  0  0  0  0  0  0
   -4.3717   -0.3248    0.5808 N   0  0  0  0  0  0  0  0  0  0  0  0
   -4.5934    0.2625    1.7012 N   0  0  0  0  0  0  0  0  0  0  0  0
   -2.3072   -0.7166   -0.6341 C   0  0  0  0  0  0  0  0  0  0  0  0
   -1.3018   -0.3174   -1.5176 C   0  0  0  0  0  0  0  0  0  0  0  0
   -1.2799    0.9812   -2.0260 C   0  0  0  0  0  0  0  0  0  0  0  0
   -2.2801    1.8826   -1.6467 C   0  0  0  0  0  0  0  0  0  0  0  0
   -3.2799    1.4936   -0.7464 C   0  0  0  0  0  0  0  0  0  0  0  0
   -2.3393   -1.7309   -0.2492 H   0  0  0  0  0  0  0  0  0  0  0  0
   -0.5358   -1.0289   -1.8129 H   0  0  0  0  0  0  0  0  0  0  0  0
   -0.5028    1.2887   -2.7189 H   0  0  0  0  0  0  0  0  0  0  0  0
   -2.2921    2.8867   -2.0599 H   0  0  0  0  0  0  0  0  0  0  0  0
   -4.0735    2.1881   -0.4882 H   0  0  0  0  0  0  0  0  0  0  0  0
   -1.3641    3.0776    1.0937 S   0  0  0  0  0  0  0  0  0  0  0  0
   -0.7328    1.8600    1.5729 O   0  0  0  0  0  0  0  0  0  0  0  0
   -3.9808    1.0455    2.0070 O   0  0  0  0  0  0  0  0  0  0  0  0
   -2.5968    3.5447    1.7181 O   0  0  0  0  0  0  0  0  0  0  0  0
   -0.6837    3.9347    0.1370 O   0  0  0  0  0  0  0  0  0  0  0  0
   -4.2047    1.4535    2.8755 H   0  0  0  0  0  0  0  0  0  0  0  0
  1  2  1  0  0  0  0
  2  3  2  0  0  0  0
  3 16  1  0  0  0  0
  4  9  1  0  0  0  0
  4  1  1  0  0  0  0
  5  4  2  0  0  0  0
  6  7  2  0  0  0  0
  6  5  1  0  0  0  0
  7  8  1  0  0  0  0
  8 13  1  0  0  0  0
  8  1  2  0  0  0  0
 10  5  1  0  0  0  0
 11  6  1  0  0  0  0
 12  7  1  0  0  0  0
 14 15  2  0  0  0  0
 14 17  1  0  0  0  0
 16 19  1  0  0  0  0
 18 14  1  0  0  0  0
M  RAD  2  17   2  18   2
M  END
