Coordinates from ORCA-job PhN2+~HSO4-_B3LYPG-6-31G_dp-NX-Scan-d89-09-n800
 OpenBabel11261920153D

 19 19  0  0  1  0  0  0  0  0999 V2000
   -1.5358   -0.3903    0.4125 C   0  0  0  0  0  0  0  0  0  0  0  0
   -1.1329   -1.2179    1.3514 N   0  0  0  0  0  0  0  0  0  0  0  0
   -0.7865   -1.9328    2.1718 N   0  0  0  0  0  0  0  0  0  0  0  0
   -2.7761   -0.6416   -0.2861 C   0  0  0  0  0  0  0  0  0  0  0  0
   -3.2084    0.2318   -1.2168 C   0  0  0  0  0  0  0  0  0  0  0  0
   -2.4956    1.5074   -1.5168 C   0  0  2  0  0  0  0  0  0  0  0  0
   -1.1649    1.6363   -0.8603 C   0  0  0  0  0  0  0  0  0  0  0  0
   -0.7308    0.7604    0.0670 C   0  0  0  0  0  0  0  0  0  0  0  0
   -3.3263   -1.5517   -0.0669 H   0  0  0  0  0  0  0  0  0  0  0  0
   -4.1227    0.0364   -1.7678 H   0  0  0  0  0  0  0  0  0  0  0  0
   -2.4324    1.6924   -2.5931 H   0  0  0  0  0  0  0  0  0  0  0  0
   -0.5549    2.4916   -1.1268 H   0  0  0  0  0  0  0  0  0  0  0  0
    0.2313    0.8889    0.5516 H   0  0  0  0  0  0  0  0  0  0  0  0
   -3.4793    3.4287    0.2288 S   0  0  0  0  0  0  0  0  0  0  0  0
   -2.2079    4.0647    0.5073 O   0  0  0  0  0  0  0  0  0  0  0  0
   -3.5865    2.1979    1.3035 O   0  0  0  0  0  0  0  0  0  0  0  0
   -4.7347    4.1575    0.2504 O   0  0  0  0  0  0  0  0  0  0  0  0
   -3.4570    2.6737   -1.1889 O   0  0  0  0  0  0  0  0  0  0  0  0
   -4.5197    1.9288    1.3367 H   0  0  0  0  0  0  0  0  0  0  0  0
  1  2  1  0  0  0  0
  2  3  1  0  0  0  0
  4  9  1  0  0  0  0
  4  1  2  0  0  0  0
  5  4  1  0  0  0  0
  6 11  1  6  0  0  0
  6  5  1  0  0  0  0
  6 18  1  0  0  0  0
  6  7  1  0  0  0  0
  7  8  2  0  0  0  0
  8  1  1  0  0  0  0
  8 13  1  0  0  0  0
 10  5  1  0  0  0  0
 12  7  1  0  0  0  0
 14 17  2  0  0  0  0
 14 15  2  0  0  0  0
 14 16  1  0  0  0  0
 16 19  1  0  0  0  0
 18 14  1  0  0  0  0
M  RAD  3   2   2   3   3   5   2
M  END
