Coordinates from ORCA-job PhN2+~HSO4-_B3LYPG-6-31G_dp-NX-Scan-d89-09-n800
 OpenBabel11261920153D

 19 19  0  0  1  0  0  0  0  0999 V2000
   -1.4553   -0.9441    0.2450 C   0  0  0  0  0  0  0  0  0  0  0  0
   -0.9903   -2.0540    0.7742 N   0  0  0  0  0  0  0  0  0  0  0  0
   -0.5883   -3.0162    1.2410 N   0  0  0  0  0  0  0  0  0  0  0  0
   -2.5097   -0.9983   -0.7445 C   0  0  0  0  0  0  0  0  0  0  0  0
   -2.9830    0.1397   -1.2871 C   0  0  0  0  0  0  0  0  0  0  0  0
   -2.5136    1.4889   -0.8624 C   0  0  2  0  0  0  0  0  0  0  0  0
   -1.3528    1.4685    0.0745 C   0  0  0  0  0  0  0  0  0  0  0  0
   -0.8799    0.3304    0.6179 C   0  0  0  0  0  0  0  0  0  0  0  0
   -2.8859   -1.9680   -1.0544 H   0  0  0  0  0  0  0  0  0  0  0  0
   -3.7603    0.1032   -2.0432 H   0  0  0  0  0  0  0  0  0  0  0  0
   -2.3555    2.1564   -1.7134 H   0  0  0  0  0  0  0  0  0  0  0  0
   -0.9068    2.4224    0.3342 H   0  0  0  0  0  0  0  0  0  0  0  0
   -0.0487    0.3426    1.3162 H   0  0  0  0  0  0  0  0  0  0  0  0
   -3.9868    3.6844   -0.2828 S   0  0  0  0  0  0  0  0  0  0  0  0
   -3.5676    4.1534   -1.5897 O   0  0  0  0  0  0  0  0  0  0  0  0
   -2.8984    4.3225    0.7637 O   0  0  0  0  0  0  0  0  0  0  0  0
   -5.3132    3.9195    0.2563 O   0  0  0  0  0  0  0  0  0  0  0  0
   -3.7211    2.1083   -0.1346 O   0  0  0  0  0  0  0  0  0  0  0  0
   -3.3042    4.3029    1.6467 H   0  0  0  0  0  0  0  0  0  0  0  0
  1  8  1  0  0  0  0
  1  2  1  0  0  0  0
  2  3  1  0  0  0  0
  4  1  2  0  0  0  0
  5  6  1  0  0  0  0
  5  4  1  0  0  0  0
  6 11  1  6  0  0  0
  6 18  1  0  0  0  0
  6  7  1  0  0  0  0
  7 12  1  0  0  0  0
  7  8  2  0  0  0  0
  8 13  1  0  0  0  0
  9  4  1  0  0  0  0
 10  5  1  0  0  0  0
 14 18  1  0  0  0  0
 14 17  2  0  0  0  0
 14 16  1  0  0  0  0
 15 14  2  0  0  0  0
 16 19  1  0  0  0  0
M  RAD  3   2   2   3   3   5   2
M  END
