Coordinates from ORCA-job PhN2+~HSO4-_B3LYPG-6-31G_dp-NX-Scan-d89-09-n800
 OpenBabel11261920153D

 19 19  0  0  1  0  0  0  0  0999 V2000
   -1.6089   -0.5302    0.3454 C   0  0  0  0  0  0  0  0  0  0  0  0
   -1.3330   -1.3434    1.3417 N   0  0  0  0  0  0  0  0  0  0  0  0
   -1.0982   -2.0179    2.2311 N   0  0  0  0  0  0  0  0  0  0  0  0
   -2.6279   -0.8733   -0.6226 C   0  0  0  0  0  0  0  0  0  0  0  0
   -3.0134    0.0478   -1.5287 C   0  0  0  0  0  0  0  0  0  0  0  0
   -2.5471    1.4602   -1.4379 C   0  0  2  0  0  0  0  0  0  0  0  0
   -1.2705    1.6225   -0.6884 C   0  0  0  0  0  0  0  0  0  0  0  0
   -0.8692    0.7049    0.2125 C   0  0  0  0  0  0  0  0  0  0  0  0
   -3.0374   -1.8783   -0.6216 H   0  0  0  0  0  0  0  0  0  0  0  0
   -3.7494   -0.1998   -2.2858 H   0  0  0  0  0  0  0  0  0  0  0  0
   -2.5298    1.9726   -2.3999 H   0  0  0  0  0  0  0  0  0  0  0  0
   -0.7105    2.5383   -0.8278 H   0  0  0  0  0  0  0  0  0  0  0  0
    0.0163    0.8544    0.8215 H   0  0  0  0  0  0  0  0  0  0  0  0
   -3.5851    3.4895    0.1273 S   0  0  0  0  0  0  0  0  0  0  0  0
   -2.5154    4.3136   -0.4044 O   0  0  0  0  0  0  0  0  0  0  0  0
   -3.0344    2.9085    1.5605 O   0  0  0  0  0  0  0  0  0  0  0  0
   -4.9252    3.9998    0.3614 O   0  0  0  0  0  0  0  0  0  0  0  0
   -3.7603    2.1549   -0.7314 O   0  0  0  0  0  0  0  0  0  0  0  0
   -3.8216    2.7382    2.1044 H   0  0  0  0  0  0  0  0  0  0  0  0
  1  2  1  0  0  0  0
  2  3  1  0  0  0  0
  4  9  1  0  0  0  0
  4  1  1  0  0  0  0
  5  6  1  0  0  0  0
  5  4  2  0  0  0  0
  6 11  1  6  0  0  0
  6 18  1  0  0  0  0
  6  7  1  0  0  0  0
  7  8  1  0  0  0  0
  8  1  2  0  0  0  0
  8 13  1  0  0  0  0
 10  5  1  0  0  0  0
 12  7  1  0  0  0  0
 14 17  2  0  0  0  0
 14 16  1  0  0  0  0
 15 14  2  0  0  0  0
 16 19  1  0  0  0  0
 18 14  1  0  0  0  0
M  RAD  3   2   2   3   3   7   2
M  END
