Coordinates from ORCA-job PhN2+~HSO4-_B3LYPG-6-31G_dp-NX-Scan-d89-09-n800
 OpenBabel11261920163D

 19 18  0  0  0  0  0  0  0  0999 V2000
   -3.0649    0.2110   -0.2771 C   0  0  0  0  0  0  0  0  0  0  0  0
   -3.9277   -0.2117    0.7821 N   0  0  0  0  0  0  0  0  0  0  0  0
   -4.3312    0.5325    1.6964 N   0  0  0  0  0  0  0  0  0  0  0  0
   -2.1668   -0.7766   -0.7125 C   0  0  0  0  0  0  0  0  0  0  0  0
   -1.3198   -0.5357   -1.7901 C   0  0  0  0  0  0  0  0  0  0  0  0
   -1.3905    0.6795   -2.4763 C   0  0  0  0  0  0  0  0  0  0  0  0
   -2.3083    1.6506   -2.0719 C   0  0  0  0  0  0  0  0  0  0  0  0
   -3.1392    1.4308   -0.9731 C   0  0  0  0  0  0  0  0  0  0  0  0
   -2.1530   -1.7256   -0.1868 H   0  0  0  0  0  0  0  0  0  0  0  0
   -0.6182   -1.3021   -2.1059 H   0  0  0  0  0  0  0  0  0  0  0  0
   -0.7417    0.8644   -3.3272 H   0  0  0  0  0  0  0  0  0  0  0  0
   -2.3753    2.5926   -2.6079 H   0  0  0  0  0  0  0  0  0  0  0  0
   -3.8481    2.1931   -0.6763 H   0  0  0  0  0  0  0  0  0  0  0  0
   -1.6160    3.1027    2.0131 S   0  0  0  0  0  0  0  0  0  0  0  0
   -0.7428    1.9538    2.1647 O   0  0  0  0  0  0  0  0  0  0  0  0
   -3.9377    1.7300    1.6915 O   0  0  0  0  0  0  0  0  0  0  0  0
   -2.4280    3.5488    3.1389 O   0  0  0  0  0  0  0  0  0  0  0  0
   -1.6165    3.8758    0.7839 O   0  0  0  0  0  0  0  0  0  0  0  0
   -4.2956    2.1483    2.4920 H   0  0  0  0  0  0  0  0  0  0  0  0
  1  2  1  0  0  0  0
  2  3  2  0  0  0  0
  4  1  1  0  0  0  0
  4  9  1  0  0  0  0
  5  4  2  0  0  0  0
  6  7  2  0  0  0  0
  6  5  1  0  0  0  0
  7  8  1  0  0  0  0
  8 13  1  0  0  0  0
  8  1  2  0  0  0  0
 10  5  1  0  0  0  0
 11  6  1  0  0  0  0
 12  7  1  0  0  0  0
 14 15  2  0  0  0  0
 14 17  1  0  0  0  0
 16  3  1  0  0  0  0
 16 19  1  0  0  0  0
 18 14  1  0  0  0  0
M  RAD  2  17   2  18   2
M  END
