Coordinates from ORCA-job PhN2+~HSO4-_B3LYPG-6-31G_dp-NX-Scan-d89-09-n800
 OpenBabel11261920153D

 19 19  0  0  1  0  0  0  0  0999 V2000
   -1.6125   -0.2682    0.3297 C   0  0  1  0  0  0  0  0  0  0  0  0
   -1.5605   -0.6772    1.5773 N   0  0  0  0  0  0  0  0  0  0  0  0
   -1.5640   -0.9759    2.6758 N   0  0  0  0  0  0  0  0  0  0  0  0
   -2.7604   -0.6307   -0.4738 C   0  0  0  0  0  0  0  0  0  0  0  0
   -3.1293    0.1818   -1.4840 C   0  0  0  0  0  0  0  0  0  0  0  0
   -2.4890    1.5117   -1.6620 C   0  0  2  0  0  0  0  0  0  0  0  0
   -1.1197    1.6076   -1.1003 C   0  0  0  0  0  0  0  0  0  0  0  0
   -0.7335    0.8007   -0.0918 C   0  0  0  0  0  0  0  0  0  0  0  0
   -3.2907   -1.5522   -0.2531 H   0  0  0  0  0  0  0  0  0  0  0  0
   -3.9599   -0.0777   -2.1320 H   0  0  0  0  0  0  0  0  0  0  0  0
   -2.5521    1.8806   -2.6853 H   0  0  0  0  0  0  0  0  0  0  0  0
   -0.4741    2.4068   -1.4455 H   0  0  0  0  0  0  0  0  0  0  0  0
    0.2152    0.9364    0.4170 H   0  0  0  0  0  0  0  0  0  0  0  0
   -3.3451    3.1619    0.4556 S   0  0  0  0  0  0  0  0  0  0  0  0
   -2.0756    3.8353    0.6436 O   0  0  0  0  0  0  0  0  0  0  0  0
   -3.2753    1.8261    1.4253 O   0  0  0  0  0  0  0  0  0  0  0  0
   -4.6162    3.8115    0.7296 O   0  0  0  0  0  0  0  0  0  0  0  0
   -3.4815    2.5662   -1.0216 O   0  0  0  0  0  0  0  0  0  0  0  0
   -4.1967    1.6176    1.6530 H   0  0  0  0  0  0  0  0  0  0  0  0
  1  2  1  1  0  0  0
  2  3  1  0  0  0  0
  4  9  1  0  0  0  0
  4  1  1  0  0  0  0
  5  4  2  0  0  0  0
  6 11  1  6  0  0  0
  6  5  1  0  0  0  0
  6  7  1  0  0  0  0
  6 18  1  0  0  0  0
  7  8  2  0  0  0  0
  8  1  1  0  0  0  0
  8 13  1  0  0  0  0
 10  5  1  0  0  0  0
 12  7  1  0  0  0  0
 14 15  2  0  0  0  0
 14 17  2  0  0  0  0
 14 16  1  0  0  0  0
 16 19  1  0  0  0  0
 18 14  1  0  0  0  0
M  RAD  3   1   2   2   2   3   3
M  END
