Coordinates from ORCA-job PhN2+~HSO4-_B3LYPG-6-31G_dp-NX-Scan-d89-09-n800
 OpenBabel11261920153D

 19 19  0  0  1  0  0  0  0  0999 V2000
   -1.4543   -1.0157    0.1906 C   0  0  0  0  0  0  0  0  0  0  0  0
   -1.0731   -2.2123    0.5791 N   0  0  0  0  0  0  0  0  0  0  0  0
   -0.7444   -3.2505    0.9235 N   0  0  0  0  0  0  0  0  0  0  0  0
   -2.4646   -0.8736   -0.8363 C   0  0  0  0  0  0  0  0  0  0  0  0
   -2.8574    0.3542   -1.2259 C   0  0  0  0  0  0  0  0  0  0  0  0
   -2.3478    1.5969   -0.5818 C   0  0  2  0  0  0  0  0  0  0  0  0
   -1.2263    1.3847    0.3745 C   0  0  0  0  0  0  0  0  0  0  0  0
   -0.8316    0.1572    0.7641 C   0  0  0  0  0  0  0  0  0  0  0  0
   -2.8732   -1.7685   -1.2943 H   0  0  0  0  0  0  0  0  0  0  0  0
   -3.5980    0.4756   -2.0094 H   0  0  0  0  0  0  0  0  0  0  0  0
   -2.1245    2.3745   -1.3163 H   0  0  0  0  0  0  0  0  0  0  0  0
   -0.7479    2.2689    0.7821 H   0  0  0  0  0  0  0  0  0  0  0  0
   -0.0310    0.0233    1.4850 H   0  0  0  0  0  0  0  0  0  0  0  0
   -4.2194    3.5011   -0.2903 S   0  0  0  0  0  0  0  0  0  0  0  0
   -4.3561    3.4476   -1.7333 O   0  0  0  0  0  0  0  0  0  0  0  0
   -3.0639    4.6309   -0.0162 O   0  0  0  0  0  0  0  0  0  0  0  0
   -5.3312    3.7640    0.6038 O   0  0  0  0  0  0  0  0  0  0  0  0
   -3.5064    2.1728    0.2565 O   0  0  0  0  0  0  0  0  0  0  0  0
   -3.1700    4.9311    0.9020 H   0  0  0  0  0  0  0  0  0  0  0  0
  1  2  1  0  0  0  0
  1  8  2  0  0  0  0
  2  3  1  0  0  0  0
  4  1  1  0  0  0  0
  5  4  2  0  0  0  0
  5  6  1  0  0  0  0
  6 11  1  6  0  0  0
  6 18  1  0  0  0  0
  6  7  1  0  0  0  0
  7  8  1  0  0  0  0
  7 12  1  0  0  0  0
  8 13  1  0  0  0  0
  9  4  1  0  0  0  0
 10  5  1  0  0  0  0
 14 16  1  0  0  0  0
 14 18  1  0  0  0  0
 14 17  2  0  0  0  0
 15 14  2  0  0  0  0
 16 19  1  0  0  0  0
M  RAD  3   2   2   3   3   7   2
M  END
