Coordinates from ORCA-job PhN2+~HSO4-_B3LYPG-6-31G_dp-NX-Scan-d89-09-n800
 OpenBabel11261920163D

 19 18  0  0  0  0  0  0  0  0999 V2000
   -2.8835    0.2258   -0.2514 C   0  0  0  0  0  0  0  0  0  0  0  0
   -3.5903   -0.1424    0.9212 N   0  0  0  0  0  0  0  0  0  0  0  0
   -4.1034    0.5450    1.7886 N   0  0  0  0  0  0  0  0  0  0  0  0
   -2.1037   -0.8206   -0.7734 C   0  0  0  0  0  0  0  0  0  0  0  0
   -1.3773   -0.6400   -1.9452 C   0  0  0  0  0  0  0  0  0  0  0  0
   -1.4548    0.5765   -2.6280 C   0  0  0  0  0  0  0  0  0  0  0  0
   -2.2545    1.6078   -2.1295 C   0  0  0  0  0  0  0  0  0  0  0  0
   -2.9655    1.4503   -0.9417 C   0  0  0  0  0  0  0  0  0  0  0  0
   -2.0834   -1.7621   -0.2352 H   0  0  0  0  0  0  0  0  0  0  0  0
   -0.7662   -1.4490   -2.3330 H   0  0  0  0  0  0  0  0  0  0  0  0
   -0.8997    0.7186   -3.5503 H   0  0  0  0  0  0  0  0  0  0  0  0
   -2.3210    2.5504   -2.6641 H   0  0  0  0  0  0  0  0  0  0  0  0
   -3.5781    2.2566   -0.5675 H   0  0  0  0  0  0  0  0  0  0  0  0
   -1.8483    3.1116    2.1947 S   0  0  0  0  0  0  0  0  0  0  0  0
   -1.0494    1.9002    2.2544 O   0  0  0  0  0  0  0  0  0  0  0  0
   -3.9566    1.9790    1.6250 O   0  0  0  0  0  0  0  0  0  0  0  0
   -2.5108    3.6020    3.3958 O   0  0  0  0  0  0  0  0  0  0  0  0
   -1.8237    3.9443    1.0038 O   0  0  0  0  0  0  0  0  0  0  0  0
   -4.4508    2.3084    2.3934 H   0  0  0  0  0  0  0  0  0  0  0  0
  1  2  1  0  0  0  0
  2  3  2  0  0  0  0
  4  1  1  0  0  0  0
  4  9  1  0  0  0  0
  5  4  2  0  0  0  0
  6  7  2  0  0  0  0
  6  5  1  0  0  0  0
  7  8  1  0  0  0  0
  8 13  1  0  0  0  0
  8  1  2  0  0  0  0
 10  5  1  0  0  0  0
 11  6  1  0  0  0  0
 12  7  1  0  0  0  0
 14 15  2  0  0  0  0
 14 17  1  0  0  0  0
 16  3  1  0  0  0  0
 16 19  1  0  0  0  0
 18 14  1  0  0  0  0
M  RAD  2  17   2  18   2
M  END
