Coordinates from ORCA-job PhN2+~HSO4-_B3LYPG-6-31G_dp-NX-Scan-d89-09-n800
 OpenBabel11261920163D

 19 18  0  0  0  0  0  0  0  0999 V2000
   -3.1462    0.2007   -0.2975 C   0  0  0  0  0  0  0  0  0  0  0  0
   -4.0916   -0.2234    0.6948 N   0  0  0  0  0  0  0  0  0  0  0  0
   -4.4075    0.5127    1.6629 N   0  0  0  0  0  0  0  0  0  0  0  0
   -2.2248   -0.7777   -0.7002 C   0  0  0  0  0  0  0  0  0  0  0  0
   -1.3217   -0.5170   -1.7275 C   0  0  0  0  0  0  0  0  0  0  0  0
   -1.3507    0.7117   -2.3923 C   0  0  0  0  0  0  0  0  0  0  0  0
   -2.2872    1.6770   -2.0182 C   0  0  0  0  0  0  0  0  0  0  0  0
   -3.1791    1.4329   -0.9727 C   0  0  0  0  0  0  0  0  0  0  0  0
   -2.2373   -1.7373   -0.1936 H   0  0  0  0  0  0  0  0  0  0  0  0
   -0.6052   -1.2792   -2.0200 H   0  0  0  0  0  0  0  0  0  0  0  0
   -0.6557    0.9114   -3.2025 H   0  0  0  0  0  0  0  0  0  0  0  0
   -2.3230    2.6307   -2.5363 H   0  0  0  0  0  0  0  0  0  0  0  0
   -3.9076    2.1886   -0.7016 H   0  0  0  0  0  0  0  0  0  0  0  0
   -1.5602    3.1451    1.8943 S   0  0  0  0  0  0  0  0  0  0  0  0
   -0.6037    2.0625    2.0264 O   0  0  0  0  0  0  0  0  0  0  0  0
   -3.8958    1.5720    1.7594 O   0  0  0  0  0  0  0  0  0  0  0  0
   -2.4176    3.4941    3.0220 O   0  0  0  0  0  0  0  0  0  0  0  0
   -1.6181    3.9444    0.6836 O   0  0  0  0  0  0  0  0  0  0  0  0
   -4.1882    2.0131    2.5766 H   0  0  0  0  0  0  0  0  0  0  0  0
  1  2  1  0  0  0  0
  2  3  2  0  0  0  0
  3 16  1  0  0  0  0
  4  1  1  0  0  0  0
  4  9  1  0  0  0  0
  5  4  2  0  0  0  0
  6  7  2  0  0  0  0
  6  5  1  0  0  0  0
  7  8  1  0  0  0  0
  8 13  1  0  0  0  0
  8  1  2  0  0  0  0
 10  5  1  0  0  0  0
 11  6  1  0  0  0  0
 12  7  1  0  0  0  0
 14 15  2  0  0  0  0
 14 17  1  0  0  0  0
 16 19  1  0  0  0  0
 18 14  1  0  0  0  0
M  RAD  2  17   2  18   2
M  END
