Coordinates from ORCA-job PhN2+~HSO4-_B3LYPG-6-31G_dp-NX-Scan-d89-09-n800
 OpenBabel11261920153D

 19 19  0  0  1  0  0  0  0  0999 V2000
   -1.6101   -0.2624    0.2982 C   0  0  1  0  0  0  0  0  0  0  0  0
   -1.6673   -0.5365    1.5829 N   0  0  0  0  0  0  0  0  0  0  0  0
   -1.7959   -0.6771    2.7038 N   0  0  0  0  0  0  0  0  0  0  0  0
   -2.7347   -0.6530   -0.5290 C   0  0  0  0  0  0  0  0  0  0  0  0
   -3.0984    0.1552   -1.5445 C   0  0  0  0  0  0  0  0  0  0  0  0
   -2.4859    1.5018   -1.6820 C   0  0  2  0  0  0  0  0  0  0  0  0
   -1.1075    1.5968   -1.1466 C   0  0  0  0  0  0  0  0  0  0  0  0
   -0.7207    0.7971   -0.1326 C   0  0  0  0  0  0  0  0  0  0  0  0
   -3.2540   -1.5820   -0.3143 H   0  0  0  0  0  0  0  0  0  0  0  0
   -3.9079   -0.1161   -2.2138 H   0  0  0  0  0  0  0  0  0  0  0  0
   -2.5846    1.9196   -2.6827 H   0  0  0  0  0  0  0  0  0  0  0  0
   -0.4624    2.3909   -1.5044 H   0  0  0  0  0  0  0  0  0  0  0  0
    0.2253    0.9371    0.3801 H   0  0  0  0  0  0  0  0  0  0  0  0
   -3.3164    3.0962    0.5144 S   0  0  0  0  0  0  0  0  0  0  0  0
   -2.0377    3.7606    0.6743 O   0  0  0  0  0  0  0  0  0  0  0  0
   -3.2419    1.7623    1.4948 O   0  0  0  0  0  0  0  0  0  0  0  0
   -4.5758    3.7555    0.8199 O   0  0  0  0  0  0  0  0  0  0  0  0
   -3.4917    2.5029   -0.9572 O   0  0  0  0  0  0  0  0  0  0  0  0
   -4.1535    1.6132    1.7962 H   0  0  0  0  0  0  0  0  0  0  0  0
  1  2  1  1  0  0  0
  2  3  1  0  0  0  0
  4  9  1  0  0  0  0
  4  1  1  0  0  0  0
  5  4  2  0  0  0  0
  6 11  1  6  0  0  0
  6  5  1  0  0  0  0
  6  7  1  0  0  0  0
  6 18  1  0  0  0  0
  7  8  2  0  0  0  0
  8  1  1  0  0  0  0
  8 13  1  0  0  0  0
 10  5  1  0  0  0  0
 12  7  1  0  0  0  0
 14 15  2  0  0  0  0
 14 17  2  0  0  0  0
 14 16  1  0  0  0  0
 16 19  1  0  0  0  0
 18 14  1  0  0  0  0
M  RAD  3   1   2   2   2   3   3
M  END
