Coordinates from ORCA-job PhN2+~HSO4-_B3LYPG-6-31G_dp-NX-Scan-d89-09-n800
 OpenBabel11261920153D

 19 19  0  0  1  0  0  0  0  0999 V2000
   -1.4816   -0.8618    0.2714 C   0  0  0  0  0  0  0  0  0  0  0  0
   -1.0311   -1.9166    0.9138 N   0  0  0  0  0  0  0  0  0  0  0  0
   -0.6407   -2.8256    1.4846 N   0  0  0  0  0  0  0  0  0  0  0  0
   -2.5431   -1.0015   -0.7019 C   0  0  0  0  0  0  0  0  0  0  0  0
   -3.0186    0.0862   -1.3384 C   0  0  0  0  0  0  0  0  0  0  0  0
   -2.5560    1.4658   -1.0172 C   0  0  2  0  0  0  0  0  0  0  0  0
   -1.3543    1.5197   -0.1347 C   0  0  0  0  0  0  0  0  0  0  0  0
   -0.8786    0.4332    0.5032 C   0  0  0  0  0  0  0  0  0  0  0  0
   -2.9198   -1.9945   -0.9253 H   0  0  0  0  0  0  0  0  0  0  0  0
   -3.7992   -0.0151   -2.0849 H   0  0  0  0  0  0  0  0  0  0  0  0
   -2.4431    2.0896   -1.9066 H   0  0  0  0  0  0  0  0  0  0  0  0
   -0.8830    2.4855    0.0102 H   0  0  0  0  0  0  0  0  0  0  0  0
   -0.0225    0.4986    1.1676 H   0  0  0  0  0  0  0  0  0  0  0  0
   -3.8559    3.6956   -0.2064 S   0  0  0  0  0  0  0  0  0  0  0  0
   -3.1416    4.3080   -1.3108 O   0  0  0  0  0  0  0  0  0  0  0  0
   -2.9474    4.0250    1.1153 O   0  0  0  0  0  0  0  0  0  0  0  0
   -5.2369    4.0045    0.1151 O   0  0  0  0  0  0  0  0  0  0  0  0
   -3.7630    2.0956   -0.2938 O   0  0  0  0  0  0  0  0  0  0  0  0
   -3.5047    3.8700    1.8963 H   0  0  0  0  0  0  0  0  0  0  0  0
  1  8  1  0  0  0  0
  1  2  1  0  0  0  0
  2  3  1  0  0  0  0
  4  1  2  0  0  0  0
  5  6  1  0  0  0  0
  5  4  1  0  0  0  0
  6 11  1  6  0  0  0
  6 18  1  0  0  0  0
  6  7  1  0  0  0  0
  7 12  1  0  0  0  0
  7  8  2  0  0  0  0
  8 13  1  0  0  0  0
  9  4  1  0  0  0  0
 10  5  1  0  0  0  0
 14 17  2  0  0  0  0
 14 16  1  0  0  0  0
 15 14  2  0  0  0  0
 16 19  1  0  0  0  0
 18 14  1  0  0  0  0
M  RAD  3   2   2   3   3   5   2
M  END
