Coordinates from ORCA-job PhN2+~HSO4-_B3LYPG-6-31G_dp-NX-Scan-d89-09-n800
 OpenBabel11261920153D

 19 19  0  0  1  0  0  0  0  0999 V2000
   -1.6099   -0.2740    0.3477 C   0  0  1  0  0  0  0  0  0  0  0  0
   -1.4950   -0.7585    1.5633 N   0  0  0  0  0  0  0  0  0  0  0  0
   -1.4326   -1.1366    2.6359 N   0  0  0  0  0  0  0  0  0  0  0  0
   -2.7713   -0.6210   -0.4413 C   0  0  0  0  0  0  0  0  0  0  0  0
   -3.1452    0.1955   -1.4466 C   0  0  0  0  0  0  0  0  0  0  0  0
   -2.4902    1.5156   -1.6472 C   0  0  2  0  0  0  0  0  0  0  0  0
   -1.1254    1.6128   -1.0725 C   0  0  0  0  0  0  0  0  0  0  0  0
   -0.7369    0.8002   -0.0696 C   0  0  0  0  0  0  0  0  0  0  0  0
   -3.3070   -1.5386   -0.2174 H   0  0  0  0  0  0  0  0  0  0  0  0
   -3.9885   -0.0563   -2.0812 H   0  0  0  0  0  0  0  0  0  0  0  0
   -2.5341    1.8558   -2.6820 H   0  0  0  0  0  0  0  0  0  0  0  0
   -0.4806    2.4156   -1.4109 H   0  0  0  0  0  0  0  0  0  0  0  0
    0.2143    0.9330    0.4352 H   0  0  0  0  0  0  0  0  0  0  0  0
   -3.3634    3.1990    0.4238 S   0  0  0  0  0  0  0  0  0  0  0  0
   -2.0947    3.8682    0.6306 O   0  0  0  0  0  0  0  0  0  0  0  0
   -3.3118    1.8660    1.3940 O   0  0  0  0  0  0  0  0  0  0  0  0
   -4.6364    3.8552    0.6706 O   0  0  0  0  0  0  0  0  0  0  0  0
   -3.4753    2.5961   -1.0541 O   0  0  0  0  0  0  0  0  0  0  0  0
   -4.2372    1.6343    1.5793 H   0  0  0  0  0  0  0  0  0  0  0  0
  1  2  1  1  0  0  0
  2  3  1  0  0  0  0
  4  9  1  0  0  0  0
  4  1  1  0  0  0  0
  5  4  2  0  0  0  0
  6 11  1  6  0  0  0
  6  5  1  0  0  0  0
  6  7  1  0  0  0  0
  6 18  1  0  0  0  0
  7  8  2  0  0  0  0
  8  1  1  0  0  0  0
  8 13  1  0  0  0  0
 10  5  1  0  0  0  0
 12  7  1  0  0  0  0
 14 15  2  0  0  0  0
 14 17  2  0  0  0  0
 14 16  1  0  0  0  0
 16 19  1  0  0  0  0
 18 14  1  0  0  0  0
M  RAD  3   1   2   2   2   3   3
M  END
