Coordinates from ORCA-job PhN2+~HSO4-_B3LYPG-6-31G_dp-NX-Scan-d89-09-n800
 OpenBabel11261920153D

 19 19  0  0  1  0  0  0  0  0999 V2000
   -1.5960   -0.5906    0.3308 C   0  0  0  0  0  0  0  0  0  0  0  0
   -1.3098   -1.4414    1.2918 N   0  0  0  0  0  0  0  0  0  0  0  0
   -1.0639   -2.1482    2.1528 N   0  0  0  0  0  0  0  0  0  0  0  0
   -2.6031   -0.9083   -0.6584 C   0  0  0  0  0  0  0  0  0  0  0  0
   -3.0007    0.0441   -1.5258 C   0  0  0  0  0  0  0  0  0  0  0  0
   -2.5582    1.4593   -1.3732 C   0  0  2  0  0  0  0  0  0  0  0  0
   -1.2901    1.6112   -0.6052 C   0  0  0  0  0  0  0  0  0  0  0  0
   -0.8794    0.6636    0.2592 C   0  0  0  0  0  0  0  0  0  0  0  0
   -2.9940   -1.9198   -0.7043 H   0  0  0  0  0  0  0  0  0  0  0  0
   -3.7278   -0.1837   -2.2976 H   0  0  0  0  0  0  0  0  0  0  0  0
   -2.5408    2.0113   -2.3132 H   0  0  0  0  0  0  0  0  0  0  0  0
   -0.7465    2.5429   -0.7011 H   0  0  0  0  0  0  0  0  0  0  0  0
   -0.0022    0.8029    0.8827 H   0  0  0  0  0  0  0  0  0  0  0  0
   -3.6322    3.5261    0.0752 S   0  0  0  0  0  0  0  0  0  0  0  0
   -2.6384    4.3392   -0.6016 O   0  0  0  0  0  0  0  0  0  0  0  0
   -2.9701    3.1286    1.5220 O   0  0  0  0  0  0  0  0  0  0  0  0
   -4.9849    3.9885    0.3327 O   0  0  0  0  0  0  0  0  0  0  0  0
   -3.7719    2.0980   -0.6310 O   0  0  0  0  0  0  0  0  0  0  0  0
   -3.7109    2.9385    2.1216 H   0  0  0  0  0  0  0  0  0  0  0  0
  1  2  1  0  0  0  0
  2  3  1  0  0  0  0
  4  1  1  0  0  0  0
  5  6  1  0  0  0  0
  5  4  2  0  0  0  0
  6 11  1  6  0  0  0
  6 18  1  0  0  0  0
  6  7  1  0  0  0  0
  7  8  1  0  0  0  0
  8  1  2  0  0  0  0
  8 13  1  0  0  0  0
  9  4  1  0  0  0  0
 10  5  1  0  0  0  0
 12  7  1  0  0  0  0
 14 17  2  0  0  0  0
 14 16  1  0  0  0  0
 15 14  2  0  0  0  0
 16 19  1  0  0  0  0
 18 14  1  0  0  0  0
M  RAD  3   2   2   3   3   7   2
M  END
