Coordinates from ORCA-job PhN2+~HSO4-_B3LYPG-6-31G_dp-NX-Scan-d89-09-n800
 OpenBabel11261920163D

 19 18  0  0  0  0  0  0  0  0999 V2000
   -2.6439    0.1825   -0.2629 C   0  0  0  0  0  0  0  0  0  0  0  0
   -3.2225   -0.0500    0.9888 N   0  0  0  0  0  0  0  0  0  0  0  0
   -3.7471    0.4063    1.9157 N   0  0  0  0  0  0  0  0  0  0  0  0
   -2.1504   -0.9563   -0.9188 C   0  0  0  0  0  0  0  0  0  0  0  0
   -1.5749   -0.8128   -2.1749 C   0  0  0  0  0  0  0  0  0  0  0  0
   -1.5006    0.4549   -2.7614 C   0  0  0  0  0  0  0  0  0  0  0  0
   -1.9982    1.5798   -2.0959 C   0  0  0  0  0  0  0  0  0  0  0  0
   -2.5760    1.4644   -0.8355 C   0  0  0  0  0  0  0  0  0  0  0  0
   -2.2248   -1.9232   -0.4333 H   0  0  0  0  0  0  0  0  0  0  0  0
   -1.1859   -1.6818   -2.6944 H   0  0  0  0  0  0  0  0  0  0  0  0
   -1.0497    0.5673   -3.7424 H   0  0  0  0  0  0  0  0  0  0  0  0
   -1.9285    2.5608   -2.5541 H   0  0  0  0  0  0  0  0  0  0  0  0
   -2.9455    2.3379   -0.3162 H   0  0  0  0  0  0  0  0  0  0  0  0
   -2.3399    3.2397    2.2342 S   0  0  0  0  0  0  0  0  0  0  0  0
   -1.3545    2.1591    2.2036 O   0  0  0  0  0  0  0  0  0  0  0  0
   -3.9282    2.1948    1.8036 O   0  0  0  0  0  0  0  0  0  0  0  0
   -2.7831    3.7452    3.5323 O   0  0  0  0  0  0  0  0  0  0  0  0
   -2.3756    4.1476    1.0870 O   0  0  0  0  0  0  0  0  0  0  0  0
   -4.4916    2.3459    2.5820 H   0  0  0  0  0  0  0  0  0  0  0  0
  1  2  1  0  0  0  0
  2  3  1  0  0  0  0
  4  9  1  0  0  0  0
  4  1  2  0  0  0  0
  5  4  1  0  0  0  0
  6  5  2  0  0  0  0
  6  7  1  0  0  0  0
  7  8  2  0  0  0  0
  8 13  1  0  0  0  0
  8  1  1  0  0  0  0
 10  5  1  0  0  0  0
 11  6  1  0  0  0  0
 12  7  1  0  0  0  0
 14 17  2  0  0  0  0
 15 14  1  0  0  0  0
 16  3  1  0  0  0  0
 16 19  1  0  0  0  0
 18 14  1  0  0  0  0
M  RAD  4   2   2   3   2  15   2  18   2
M  END
