Coordinates from ORCA-job PhN2+~HSO4-_B3LYPG-6-31G_dp-NX-Scan-d89-09-n800
 OpenBabel11261920153D

 19 19  0  0  1  0  0  0  0  0999 V2000
   -1.5477   -0.7090    0.3078 C   0  0  0  0  0  0  0  0  0  0  0  0
   -1.1851   -1.6541    1.1467 N   0  0  0  0  0  0  0  0  0  0  0  0
   -0.8699   -2.4529    1.8985 N   0  0  0  0  0  0  0  0  0  0  0  0
   -2.5756   -0.9593   -0.6791 C   0  0  0  0  0  0  0  0  0  0  0  0
   -3.0122    0.0506   -1.4574 C   0  0  0  0  0  0  0  0  0  0  0  0
   -2.5719    1.4571   -1.2363 C   0  0  2  0  0  0  0  0  0  0  0  0
   -1.3291    1.5826   -0.4216 C   0  0  0  0  0  0  0  0  0  0  0  0
   -0.8855    0.5762    0.3553 C   0  0  0  0  0  0  0  0  0  0  0  0
   -2.9532   -1.9700   -0.7974 H   0  0  0  0  0  0  0  0  0  0  0  0
   -3.7603   -0.1307   -2.2216 H   0  0  0  0  0  0  0  0  0  0  0  0
   -2.5203    2.0407   -2.1568 H   0  0  0  0  0  0  0  0  0  0  0  0
   -0.8186    2.5386   -0.4269 H   0  0  0  0  0  0  0  0  0  0  0  0
   -0.0158    0.6935    0.9940 H   0  0  0  0  0  0  0  0  0  0  0  0
   -3.7122    3.6125   -0.0417 S   0  0  0  0  0  0  0  0  0  0  0  0
   -2.8002    4.3535   -0.8937 O   0  0  0  0  0  0  0  0  0  0  0  0
   -2.9564    3.4996    1.4066 O   0  0  0  0  0  0  0  0  0  0  0  0
   -5.0793    4.0328    0.2085 O   0  0  0  0  0  0  0  0  0  0  0  0
   -3.7855    2.0788   -0.4990 O   0  0  0  0  0  0  0  0  0  0  0  0
   -3.6424    3.3217    2.0716 H   0  0  0  0  0  0  0  0  0  0  0  0
  1  8  2  0  0  0  0
  1  2  1  0  0  0  0
  2  3  1  0  0  0  0
  4  1  1  0  0  0  0
  5  6  1  0  0  0  0
  5  4  2  0  0  0  0
  6 11  1  6  0  0  0
  6 18  1  0  0  0  0
  6  7  1  0  0  0  0
  7  8  1  0  0  0  0
  8 13  1  0  0  0  0
  9  4  1  0  0  0  0
 10  5  1  0  0  0  0
 12  7  1  0  0  0  0
 14 17  2  0  0  0  0
 14 16  1  0  0  0  0
 15 14  2  0  0  0  0
 16 19  1  0  0  0  0
 18 14  1  0  0  0  0
M  RAD  3   2   2   3   3   7   2
M  END
