Coordinates from ORCA-job PhN2+~HSO4-_B3LYPG-6-31G_dp-NX-Scan-d89-09-n800
 OpenBabel11261920153D

 19 19  0  0  1  0  0  0  0  0999 V2000
   -1.6111   -0.2680    0.3300 C   0  0  1  0  0  0  0  0  0  0  0  0
   -1.5562   -0.6789    1.5768 N   0  0  0  0  0  0  0  0  0  0  0  0
   -1.5566   -0.9797    2.6747 N   0  0  0  0  0  0  0  0  0  0  0  0
   -2.7603   -0.6297   -0.4719 C   0  0  0  0  0  0  0  0  0  0  0  0
   -3.1299    0.1828   -1.4819 C   0  0  0  0  0  0  0  0  0  0  0  0
   -2.4887    1.5120   -1.6616 C   0  0  2  0  0  0  0  0  0  0  0  0
   -1.1190    1.6075   -1.1006 C   0  0  0  0  0  0  0  0  0  0  0  0
   -0.7322    0.8005   -0.0925 C   0  0  0  0  0  0  0  0  0  0  0  0
   -3.2911   -1.5507   -0.2502 H   0  0  0  0  0  0  0  0  0  0  0  0
   -3.9616   -0.0763   -2.1286 H   0  0  0  0  0  0  0  0  0  0  0  0
   -2.5518    1.8796   -2.6854 H   0  0  0  0  0  0  0  0  0  0  0  0
   -0.4734    2.4065   -1.4463 H   0  0  0  0  0  0  0  0  0  0  0  0
    0.2170    0.9359    0.4155 H   0  0  0  0  0  0  0  0  0  0  0  0
   -3.3459    3.1620    0.4556 S   0  0  0  0  0  0  0  0  0  0  0  0
   -2.0745    3.8308    0.6478 O   0  0  0  0  0  0  0  0  0  0  0  0
   -3.2836    1.8251    1.4242 O   0  0  0  0  0  0  0  0  0  0  0  0
   -4.6155    3.8159    0.7265 O   0  0  0  0  0  0  0  0  0  0  0  0
   -3.4801    2.5682   -1.0226 O   0  0  0  0  0  0  0  0  0  0  0  0
   -4.2065    1.6189    1.6481 H   0  0  0  0  0  0  0  0  0  0  0  0
  1  2  1  1  0  0  0
  2  3  1  0  0  0  0
  4  9  1  0  0  0  0
  4  1  1  0  0  0  0
  5  4  2  0  0  0  0
  6 11  1  6  0  0  0
  6  5  1  0  0  0  0
  6  7  1  0  0  0  0
  6 18  1  0  0  0  0
  7  8  2  0  0  0  0
  8  1  1  0  0  0  0
  8 13  1  0  0  0  0
 10  5  1  0  0  0  0
 12  7  1  0  0  0  0
 14 15  2  0  0  0  0
 14 17  2  0  0  0  0
 14 16  1  0  0  0  0
 16 19  1  0  0  0  0
 18 14  1  0  0  0  0
M  RAD  3   1   2   2   2   3   3
M  END
