Coordinates from ORCA-job PhN2+~HSO4-_B3LYPG-6-31G_dp-NX-Scan-d89-09-n800
 OpenBabel11261920153D

 19 19  0  0  1  0  0  0  0  0999 V2000
   -1.5796   -0.3384    0.4047 C   0  0  0  0  0  0  0  0  0  0  0  0
   -1.2585   -1.0784    1.4424 N   0  0  0  0  0  0  0  0  0  0  0  0
   -0.9903   -1.7104    2.3537 N   0  0  0  0  0  0  0  0  0  0  0  0
   -2.7881   -0.6241   -0.3341 C   0  0  0  0  0  0  0  0  0  0  0  0
   -3.1927    0.2251   -1.2992 C   0  0  0  0  0  0  0  0  0  0  0  0
   -2.4956    1.5149   -1.5663 C   0  0  2  0  0  0  0  0  0  0  0  0
   -1.1559    1.6319   -0.9305 C   0  0  0  0  0  0  0  0  0  0  0  0
   -0.7466    0.7823    0.0320 C   0  0  0  0  0  0  0  0  0  0  0  0
   -3.3348   -1.5364   -0.1150 H   0  0  0  0  0  0  0  0  0  0  0  0
   -4.0797    0.0076   -1.8855 H   0  0  0  0  0  0  0  0  0  0  0  0
   -2.4624    1.7496   -2.6328 H   0  0  0  0  0  0  0  0  0  0  0  0
   -0.5286    2.4658   -1.2237 H   0  0  0  0  0  0  0  0  0  0  0  0
    0.2103    0.9108    0.5270 H   0  0  0  0  0  0  0  0  0  0  0  0
   -3.4415    3.3594    0.2877 S   0  0  0  0  0  0  0  0  0  0  0  0
   -2.1836    4.0374    0.5255 O   0  0  0  0  0  0  0  0  0  0  0  0
   -3.4420    2.0848    1.3209 O   0  0  0  0  0  0  0  0  0  0  0  0
   -4.7222    4.0330    0.4090 O   0  0  0  0  0  0  0  0  0  0  0  0
   -3.4659    2.6612   -1.1570 O   0  0  0  0  0  0  0  0  0  0  0  0
   -4.3634    1.7862    1.3987 H   0  0  0  0  0  0  0  0  0  0  0  0
  1  2  1  0  0  0  0
  2  3  1  0  0  0  0
  4  9  1  0  0  0  0
  4  1  2  0  0  0  0
  5  4  1  0  0  0  0
  6 11  1  6  0  0  0
  6  5  1  0  0  0  0
  6 18  1  0  0  0  0
  6  7  1  0  0  0  0
  7  8  2  0  0  0  0
  8  1  1  0  0  0  0
  8 13  1  0  0  0  0
 10  5  1  0  0  0  0
 12  7  1  0  0  0  0
 14 17  2  0  0  0  0
 14 15  2  0  0  0  0
 14 16  1  0  0  0  0
 16 19  1  0  0  0  0
 18 14  1  0  0  0  0
M  RAD  3   2   2   3   3   5   2
M  END
