Coordinates from ORCA-job PhN2+~HSO4-_B3LYPG-6-31G_dp-NX-Scan-d89-09-n800
 OpenBabel11261920153D

 19 19  0  0  1  0  0  0  0  0999 V2000
   -1.4727   -0.8980    0.2620 C   0  0  0  0  0  0  0  0  0  0  0  0
   -1.0200   -1.9776    0.8604 N   0  0  0  0  0  0  0  0  0  0  0  0
   -0.6280   -2.9099    1.3913 N   0  0  0  0  0  0  0  0  0  0  0  0
   -2.5272   -1.0011   -0.7232 C   0  0  0  0  0  0  0  0  0  0  0  0
   -2.9983    0.1093   -1.3223 C   0  0  0  0  0  0  0  0  0  0  0  0
   -2.5350    1.4767   -0.9535 C   0  0  2  0  0  0  0  0  0  0  0  0
   -1.3509    1.4992   -0.0460 C   0  0  0  0  0  0  0  0  0  0  0  0
   -0.8798    0.3894    0.5544 C   0  0  0  0  0  0  0  0  0  0  0  0
   -2.9030   -1.9850   -0.9852 H   0  0  0  0  0  0  0  0  0  0  0  0
   -3.7742    0.0358   -2.0771 H   0  0  0  0  0  0  0  0  0  0  0  0
   -2.4049    2.1225   -1.8250 H   0  0  0  0  0  0  0  0  0  0  0  0
   -0.8887    2.4606    0.1487 H   0  0  0  0  0  0  0  0  0  0  0  0
   -0.0354    0.4319    1.2355 H   0  0  0  0  0  0  0  0  0  0  0  0
   -3.9199    3.6916   -0.2410 S   0  0  0  0  0  0  0  0  0  0  0  0
   -3.3466    4.2579   -1.4472 O   0  0  0  0  0  0  0  0  0  0  0  0
   -2.9158    4.1653    0.9636 O   0  0  0  0  0  0  0  0  0  0  0  0
   -5.2820    3.9500    0.1871 O   0  0  0  0  0  0  0  0  0  0  0  0
   -3.7444    2.0963   -0.2262 O   0  0  0  0  0  0  0  0  0  0  0  0
   -3.3942    4.0473    1.8014 H   0  0  0  0  0  0  0  0  0  0  0  0
  1  8  1  0  0  0  0
  1  2  1  0  0  0  0
  2  3  1  0  0  0  0
  4  1  2  0  0  0  0
  5  6  1  0  0  0  0
  5  4  1  0  0  0  0
  6 11  1  6  0  0  0
  6 18  1  0  0  0  0
  6  7  1  0  0  0  0
  7 12  1  0  0  0  0
  7  8  2  0  0  0  0
  8 13  1  0  0  0  0
  9  4  1  0  0  0  0
 10  5  1  0  0  0  0
 14 18  1  0  0  0  0
 14 17  2  0  0  0  0
 14 16  1  0  0  0  0
 15 14  2  0  0  0  0
 16 19  1  0  0  0  0
M  RAD  3   2   2   3   3   5   2
M  END
