Coordinates from ORCA-job PhN2+~HSO4-_B3LYPG-6-31G_dp-NX-Scan-d89-09-n800
 OpenBabel11261920153D

 19 19  0  0  1  0  0  0  0  0999 V2000
   -1.6110   -0.2741    0.3471 C   0  0  1  0  0  0  0  0  0  0  0  0
   -1.4990   -0.7563    1.5640 N   0  0  0  0  0  0  0  0  0  0  0  0
   -1.4396   -1.1318    2.6376 N   0  0  0  0  0  0  0  0  0  0  0  0
   -2.7710   -0.6221   -0.4435 C   0  0  0  0  0  0  0  0  0  0  0  0
   -3.1444    0.1943   -1.4491 C   0  0  0  0  0  0  0  0  0  0  0  0
   -2.4905    1.5152   -1.6478 C   0  0  2  0  0  0  0  0  0  0  0  0
   -1.1259    1.6127   -1.0727 C   0  0  0  0  0  0  0  0  0  0  0  0
   -0.7380    0.8005   -0.0694 C   0  0  0  0  0  0  0  0  0  0  0  0
   -3.3061   -1.5403   -0.2205 H   0  0  0  0  0  0  0  0  0  0  0  0
   -3.9864   -0.0582   -2.0850 H   0  0  0  0  0  0  0  0  0  0  0  0
   -2.5349    1.8572   -2.6819 H   0  0  0  0  0  0  0  0  0  0  0  0
   -0.4812    2.4157   -1.4109 H   0  0  0  0  0  0  0  0  0  0  0  0
    0.2128    0.9336    0.4362 H   0  0  0  0  0  0  0  0  0  0  0  0
   -3.3625    3.1985    0.4243 S   0  0  0  0  0  0  0  0  0  0  0  0
   -2.0949    3.8708    0.6274 O   0  0  0  0  0  0  0  0  0  0  0  0
   -3.3055    1.8666    1.3959 O   0  0  0  0  0  0  0  0  0  0  0  0
   -4.6365    3.8519    0.6737 O   0  0  0  0  0  0  0  0  0  0  0  0
   -3.4766    2.5939   -1.0526 O   0  0  0  0  0  0  0  0  0  0  0  0
   -4.2300    1.6342    1.5849 H   0  0  0  0  0  0  0  0  0  0  0  0
  1  2  1  1  0  0  0
  2  3  1  0  0  0  0
  4  9  1  0  0  0  0
  4  1  1  0  0  0  0
  5  4  2  0  0  0  0
  6 11  1  6  0  0  0
  6  5  1  0  0  0  0
  6  7  1  0  0  0  0
  6 18  1  0  0  0  0
  7  8  2  0  0  0  0
  8  1  1  0  0  0  0
  8 13  1  0  0  0  0
 10  5  1  0  0  0  0
 12  7  1  0  0  0  0
 14 15  2  0  0  0  0
 14 17  2  0  0  0  0
 14 16  1  0  0  0  0
 16 19  1  0  0  0  0
 18 14  1  0  0  0  0
M  RAD  3   1   2   2   2   3   3
M  END
