Coordinates from ORCA-job PhN2+~HSO4-_B3LYPG-6-31G_dp-NX-Scan-d89-09-n800
 OpenBabel11261920163D

 19 18  0  0  0  0  0  0  0  0999 V2000
   -3.3042    0.1804   -0.2309 C   0  0  0  0  0  0  0  0  0  0  0  0
   -4.3778   -0.3272    0.5749 N   0  0  0  0  0  0  0  0  0  0  0  0
   -4.6039    0.2478    1.6954 N   0  0  0  0  0  0  0  0  0  0  0  0
   -2.3101   -0.7175   -0.6342 C   0  0  0  0  0  0  0  0  0  0  0  0
   -1.3021   -0.3164   -1.5141 C   0  0  0  0  0  0  0  0  0  0  0  0
   -1.2808    0.9824   -2.0216 C   0  0  0  0  0  0  0  0  0  0  0  0
   -2.2832    1.8826   -1.6445 C   0  0  0  0  0  0  0  0  0  0  0  0
   -3.2848    1.4922   -0.7472 C   0  0  0  0  0  0  0  0  0  0  0  0
   -2.3426   -1.7322   -0.2506 H   0  0  0  0  0  0  0  0  0  0  0  0
   -0.5346   -1.0269   -1.8077 H   0  0  0  0  0  0  0  0  0  0  0  0
   -0.5020    1.2915   -2.7118 H   0  0  0  0  0  0  0  0  0  0  0  0
   -2.2949    2.8870   -2.0568 H   0  0  0  0  0  0  0  0  0  0  0  0
   -4.0781    2.1862   -0.4873 H   0  0  0  0  0  0  0  0  0  0  0  0
   -1.3523    3.0878    1.0915 S   0  0  0  0  0  0  0  0  0  0  0  0
   -0.7261    1.8698    1.5758 O   0  0  0  0  0  0  0  0  0  0  0  0
   -3.9776    1.0430    2.0109 O   0  0  0  0  0  0  0  0  0  0  0  0
   -2.5852    3.5607    1.7098 O   0  0  0  0  0  0  0  0  0  0  0  0
   -0.6702    3.9346    0.1267 O   0  0  0  0  0  0  0  0  0  0  0  0
   -4.2105    1.4366    2.8792 H   0  0  0  0  0  0  0  0  0  0  0  0
  1  2  1  0  0  0  0
  2  3  2  0  0  0  0
  3 16  1  0  0  0  0
  4  9  1  0  0  0  0
  4  1  1  0  0  0  0
  5  4  2  0  0  0  0
  6  7  2  0  0  0  0
  6  5  1  0  0  0  0
  7  8  1  0  0  0  0
  8 13  1  0  0  0  0
  8  1  2  0  0  0  0
 10  5  1  0  0  0  0
 11  6  1  0  0  0  0
 12  7  1  0  0  0  0
 14 15  2  0  0  0  0
 14 17  1  0  0  0  0
 16 19  1  0  0  0  0
 18 14  1  0  0  0  0
M  RAD  2  17   2  18   2
M  END
