Coordinates from ORCA-job PhN2+~HSO4-_B3LYPG-6-31G_dp-NX-Scan-d89-09-n800
 OpenBabel11261920153D

 19 19  0  0  1  0  0  0  0  0999 V2000
   -1.4485   -0.9635    0.2370 C   0  0  0  0  0  0  0  0  0  0  0  0
   -0.9819   -2.0876    0.7343 N   0  0  0  0  0  0  0  0  0  0  0  0
   -0.5797   -3.0638    1.1712 N   0  0  0  0  0  0  0  0  0  0  0  0
   -2.5012   -0.9922   -0.7557 C   0  0  0  0  0  0  0  0  0  0  0  0
   -2.9723    0.1592   -1.2712 C   0  0  0  0  0  0  0  0  0  0  0  0
   -2.4996    1.4975   -0.8169 C   0  0  2  0  0  0  0  0  0  0  0  0
   -1.3488    1.4533    0.1310 C   0  0  0  0  0  0  0  0  0  0  0  0
   -0.8781    0.3018    0.6477 C   0  0  0  0  0  0  0  0  0  0  0  0
   -2.8781   -1.9535   -1.0896 H   0  0  0  0  0  0  0  0  0  0  0  0
   -3.7481    0.1421   -2.0297 H   0  0  0  0  0  0  0  0  0  0  0  0
   -2.3294    2.1773   -1.6559 H   0  0  0  0  0  0  0  0  0  0  0  0
   -0.9078    2.4013    0.4195 H   0  0  0  0  0  0  0  0  0  0  0  0
   -0.0529    0.2968    1.3533 H   0  0  0  0  0  0  0  0  0  0  0  0
   -4.0209    3.6747   -0.2978 S   0  0  0  0  0  0  0  0  0  0  0  0
   -3.6815    4.0848   -1.6470 O   0  0  0  0  0  0  0  0  0  0  0  0
   -2.8996    4.3955    0.6566 O   0  0  0  0  0  0  0  0  0  0  0  0
   -5.3247    3.9033    0.2964 O   0  0  0  0  0  0  0  0  0  0  0  0
   -3.7038    2.1156   -0.0829 O   0  0  0  0  0  0  0  0  0  0  0  0
   -3.2642    4.4199    1.5573 H   0  0  0  0  0  0  0  0  0  0  0  0
  1  8  1  0  0  0  0
  1  2  1  0  0  0  0
  2  3  1  0  0  0  0
  4  1  2  0  0  0  0
  5  6  1  0  0  0  0
  5  4  1  0  0  0  0
  6 11  1  6  0  0  0
  6 18  1  0  0  0  0
  6  7  1  0  0  0  0
  7 12  1  0  0  0  0
  7  8  2  0  0  0  0
  8 13  1  0  0  0  0
  9  4  1  0  0  0  0
 10  5  1  0  0  0  0
 14 18  1  0  0  0  0
 14 17  2  0  0  0  0
 14 16  1  0  0  0  0
 15 14  2  0  0  0  0
 16 19  1  0  0  0  0
M  RAD  3   2   2   3   3   5   2
M  END
