Coordinates from ORCA-job PhN2+~HSO4-_B3LYPG-6-31G_dp-NX-Scan-d89-09-n800
 OpenBabel11261920153D

 19 19  0  0  1  0  0  0  0  0999 V2000
   -1.6117   -0.2765    0.3572 C   0  0  1  0  0  0  0  0  0  0  0  0
   -1.4701   -0.7958    1.5556 N   0  0  0  0  0  0  0  0  0  0  0  0
   -1.3806   -1.2090    2.6135 N   0  0  0  0  0  0  0  0  0  0  0  0
   -2.7769   -0.6178   -0.4280 C   0  0  0  0  0  0  0  0  0  0  0  0
   -3.1518    0.2003   -1.4316 C   0  0  0  0  0  0  0  0  0  0  0  0
   -2.4912    1.5167   -1.6405 C   0  0  2  0  0  0  0  0  0  0  0  0
   -1.1298    1.6158   -1.0574 C   0  0  0  0  0  0  0  0  0  0  0  0
   -0.7416    0.8013   -0.0561 C   0  0  0  0  0  0  0  0  0  0  0  0
   -3.3139   -1.5348   -0.2047 H   0  0  0  0  0  0  0  0  0  0  0  0
   -3.9987   -0.0490   -2.0624 H   0  0  0  0  0  0  0  0  0  0  0  0
   -2.5259    1.8452   -2.6796 H   0  0  0  0  0  0  0  0  0  0  0  0
   -0.4854    2.4206   -1.3920 H   0  0  0  0  0  0  0  0  0  0  0  0
    0.2101    0.9331    0.4482 H   0  0  0  0  0  0  0  0  0  0  0  0
   -3.3709    3.2167    0.4077 S   0  0  0  0  0  0  0  0  0  0  0  0
   -2.1056    3.8917    0.6159 O   0  0  0  0  0  0  0  0  0  0  0  0
   -3.3155    1.8873    1.3807 O   0  0  0  0  0  0  0  0  0  0  0  0
   -4.6474    3.8689    0.6463 O   0  0  0  0  0  0  0  0  0  0  0  0
   -3.4745    2.6062   -1.0681 O   0  0  0  0  0  0  0  0  0  0  0  0
   -4.2397    1.6414    1.5529 H   0  0  0  0  0  0  0  0  0  0  0  0
  1  2  1  1  0  0  0
  2  3  1  0  0  0  0
  4  9  1  0  0  0  0
  4  1  1  0  0  0  0
  5  4  2  0  0  0  0
  6 11  1  6  0  0  0
  6  5  1  0  0  0  0
  6 18  1  0  0  0  0
  6  7  1  0  0  0  0
  7  8  2  0  0  0  0
  8  1  1  0  0  0  0
  8 13  1  0  0  0  0
 10  5  1  0  0  0  0
 12  7  1  0  0  0  0
 14 15  2  0  0  0  0
 14 17  2  0  0  0  0
 14 16  1  0  0  0  0
 16 19  1  0  0  0  0
 18 14  1  0  0  0  0
M  RAD  3   1   2   2   2   3   3
M  END
