Coordinates from ORCA-job PhN2+~HSO4-_B3LYPG-6-31G_dp-NX-Scan-d89-09-n800
 OpenBabel11261920153D

 19 19  0  0  1  0  0  0  0  0999 V2000
   -1.5340   -0.3938    0.4124 C   0  0  0  0  0  0  0  0  0  0  0  0
   -1.1278   -1.2252    1.3465 N   0  0  0  0  0  0  0  0  0  0  0  0
   -0.7783   -1.9436    2.1627 N   0  0  0  0  0  0  0  0  0  0  0  0
   -2.7752   -0.6438   -0.2851 C   0  0  0  0  0  0  0  0  0  0  0  0
   -3.2088    0.2312   -1.2136 C   0  0  0  0  0  0  0  0  0  0  0  0
   -2.4959    1.5068   -1.5140 C   0  0  2  0  0  0  0  0  0  0  0  0
   -1.1660    1.6365   -0.8557 C   0  0  0  0  0  0  0  0  0  0  0  0
   -0.7308    0.7589    0.0694 C   0  0  0  0  0  0  0  0  0  0  0  0
   -3.3252   -1.5541   -0.0667 H   0  0  0  0  0  0  0  0  0  0  0  0
   -4.1241    0.0367   -1.7635 H   0  0  0  0  0  0  0  0  0  0  0  0
   -2.4308    1.6900   -2.5906 H   0  0  0  0  0  0  0  0  0  0  0  0
   -0.5573    2.4934   -1.1200 H   0  0  0  0  0  0  0  0  0  0  0  0
    0.2313    0.8877    0.5543 H   0  0  0  0  0  0  0  0  0  0  0  0
   -3.4813    3.4331    0.2252 S   0  0  0  0  0  0  0  0  0  0  0  0
   -2.2102    4.0701    0.5028 O   0  0  0  0  0  0  0  0  0  0  0  0
   -3.5896    2.2059    1.3038 O   0  0  0  0  0  0  0  0  0  0  0  0
   -4.7367    4.1620    0.2428 O   0  0  0  0  0  0  0  0  0  0  0  0
   -3.4576    2.6734   -1.1901 O   0  0  0  0  0  0  0  0  0  0  0  0
   -4.5228    1.9370    1.3371 H   0  0  0  0  0  0  0  0  0  0  0  0
  1  2  1  0  0  0  0
  2  3  1  0  0  0  0
  4  9  1  0  0  0  0
  4  1  2  0  0  0  0
  5  4  1  0  0  0  0
  6 11  1  6  0  0  0
  6  5  1  0  0  0  0
  6 18  1  0  0  0  0
  6  7  1  0  0  0  0
  7  8  2  0  0  0  0
  8  1  1  0  0  0  0
  8 13  1  0  0  0  0
 10  5  1  0  0  0  0
 12  7  1  0  0  0  0
 14 17  2  0  0  0  0
 14 15  2  0  0  0  0
 14 16  1  0  0  0  0
 16 19  1  0  0  0  0
 18 14  1  0  0  0  0
M  RAD  3   2   2   3   3   5   2
M  END
