Coordinates from ORCA-job PhN2+~HSO4-_B3LYPG-6-31G_dp-NX-Scan-d89-09-n800
 OpenBabel11261920153D

 19 19  0  0  1  0  0  0  0  0999 V2000
   -1.5548   -0.3691    0.4109 C   0  0  0  0  0  0  0  0  0  0  0  0
   -1.1829   -1.1647    1.3891 N   0  0  0  0  0  0  0  0  0  0  0  0
   -0.8655   -1.8501    2.2451 N   0  0  0  0  0  0  0  0  0  0  0  0
   -2.7824   -0.6336   -0.3044 C   0  0  0  0  0  0  0  0  0  0  0  0
   -3.2031    0.2301   -1.2495 C   0  0  0  0  0  0  0  0  0  0  0  0
   -2.4957    1.5111   -1.5367 C   0  0  2  0  0  0  0  0  0  0  0  0
   -1.1618    1.6352   -0.8873 C   0  0  0  0  0  0  0  0  0  0  0  0
   -0.7384    0.7697    0.0546 C   0  0  0  0  0  0  0  0  0  0  0  0
   -3.3317   -1.5443   -0.0854 H   0  0  0  0  0  0  0  0  0  0  0  0
   -4.1067    0.0262   -1.8149 H   0  0  0  0  0  0  0  0  0  0  0  0
   -2.4431    1.7147   -2.6096 H   0  0  0  0  0  0  0  0  0  0  0  0
   -0.5446    2.4820   -1.1642 H   0  0  0  0  0  0  0  0  0  0  0  0
    0.2215    0.8980    0.5438 H   0  0  0  0  0  0  0  0  0  0  0  0
   -3.4649    3.4026    0.2507 S   0  0  0  0  0  0  0  0  0  0  0  0
   -2.2001    4.0593    0.5105 O   0  0  0  0  0  0  0  0  0  0  0  0
   -3.5229    2.1529    1.3092 O   0  0  0  0  0  0  0  0  0  0  0  0
   -4.7334    4.1059    0.3145 O   0  0  0  0  0  0  0  0  0  0  0  0
   -3.4608    2.6702   -1.1785 O   0  0  0  0  0  0  0  0  0  0  0  0
   -4.4500    1.8662    1.3596 H   0  0  0  0  0  0  0  0  0  0  0  0
  1  2  1  0  0  0  0
  2  3  1  0  0  0  0
  4  9  1  0  0  0  0
  4  1  2  0  0  0  0
  5  4  1  0  0  0  0
  6 11  1  6  0  0  0
  6  5  1  0  0  0  0
  6 18  1  0  0  0  0
  6  7  1  0  0  0  0
  7  8  2  0  0  0  0
  8  1  1  0  0  0  0
  8 13  1  0  0  0  0
 10  5  1  0  0  0  0
 12  7  1  0  0  0  0
 14 17  2  0  0  0  0
 14 15  2  0  0  0  0
 14 16  1  0  0  0  0
 16 19  1  0  0  0  0
 18 14  1  0  0  0  0
M  RAD  3   2   2   3   3   5   2
M  END
