Coordinates from ORCA-job PhN2+~HSO4-_B3LYPG-6-31G_dp-NX-Scan-d89-09-n800
 OpenBabel11261920153D

 19 19  0  0  1  0  0  0  0  0999 V2000
   -1.5981   -0.3034    0.3889 C   0  0  0  0  0  0  0  0  0  0  0  0
   -1.3469   -0.9572    1.5006 N   0  0  0  0  0  0  0  0  0  0  0  0
   -1.1482   -1.5042    2.4811 N   0  0  0  0  0  0  0  0  0  0  0  0
   -2.7878   -0.6140   -0.3701 C   0  0  0  0  0  0  0  0  0  0  0  0
   -3.1773    0.2185   -1.3562 C   0  0  0  0  0  0  0  0  0  0  0  0
   -2.4934    1.5181   -1.6020 C   0  0  2  0  0  0  0  0  0  0  0  0
   -1.1432    1.6253   -0.9905 C   0  0  0  0  0  0  0  0  0  0  0  0
   -0.7456    0.7941   -0.0070 C   0  0  0  0  0  0  0  0  0  0  0  0
   -3.3316   -1.5269   -0.1467 H   0  0  0  0  0  0  0  0  0  0  0  0
   -4.0472   -0.0140   -1.9618 H   0  0  0  0  0  0  0  0  0  0  0  0
   -2.4903    1.7919   -2.6586 H   0  0  0  0  0  0  0  0  0  0  0  0
   -0.5056    2.4432   -1.3058 H   0  0  0  0  0  0  0  0  0  0  0  0
    0.2099    0.9227    0.4907 H   0  0  0  0  0  0  0  0  0  0  0  0
   -3.4103    3.2956    0.3416 S   0  0  0  0  0  0  0  0  0  0  0  0
   -2.1488    3.9692    0.5737 O   0  0  0  0  0  0  0  0  0  0  0  0
   -3.3882    1.9893    1.3391 O   0  0  0  0  0  0  0  0  0  0  0  0
   -4.6897    3.9608    0.5167 O   0  0  0  0  0  0  0  0  0  0  0  0
   -3.4666    2.6455   -1.1226 O   0  0  0  0  0  0  0  0  0  0  0  0
   -4.3121    1.7079    1.4466 H   0  0  0  0  0  0  0  0  0  0  0  0
  1  2  1  0  0  0  0
  2  3  1  0  0  0  0
  4  9  1  0  0  0  0
  4  1  1  0  0  0  0
  5  4  2  0  0  0  0
  6 11  1  6  0  0  0
  6  5  1  0  0  0  0
  6 18  1  0  0  0  0
  6  7  1  0  0  0  0
  7  8  1  0  0  0  0
  8  1  2  0  0  0  0
  8 13  1  0  0  0  0
 10  5  1  0  0  0  0
 12  7  1  0  0  0  0
 14 17  2  0  0  0  0
 14 15  2  0  0  0  0
 14 16  1  0  0  0  0
 16 19  1  0  0  0  0
 18 14  1  0  0  0  0
M  RAD  3   2   2   3   3   7   2
M  END
