Coordinates from ORCA-job PhN2+~HSO4-_B3LYPG-6-31G_dp-NX-Scan-d89-09-n800
 OpenBabel11261920153D

 19 19  0  0  1  0  0  0  0  0999 V2000
   -1.5700   -0.6563    0.3172 C   0  0  0  0  0  0  0  0  0  0  0  0
   -1.2444   -1.5585    1.2165 N   0  0  0  0  0  0  0  0  0  0  0  0
   -0.9621   -2.3145    2.0232 N   0  0  0  0  0  0  0  0  0  0  0  0
   -2.5866   -0.9382   -0.6729 C   0  0  0  0  0  0  0  0  0  0  0  0
   -3.0055    0.0463   -1.4928 C   0  0  0  0  0  0  0  0  0  0  0  0
   -2.5669    1.4577   -1.3002 C   0  0  2  0  0  0  0  0  0  0  0  0
   -1.3115    1.5965   -0.5080 C   0  0  0  0  0  0  0  0  0  0  0  0
   -0.8829    0.6164    0.3096 C   0  0  0  0  0  0  0  0  0  0  0  0
   -2.9689   -1.9504   -0.7587 H   0  0  0  0  0  0  0  0  0  0  0  0
   -3.7428   -0.1566   -2.2620 H   0  0  0  0  0  0  0  0  0  0  0  0
   -2.5335    2.0294   -2.2285 H   0  0  0  0  0  0  0  0  0  0  0  0
   -0.7865    2.5431   -0.5557 H   0  0  0  0  0  0  0  0  0  0  0  0
   -0.0099    0.7443    0.9416 H   0  0  0  0  0  0  0  0  0  0  0  0
   -3.6754    3.5737    0.0127 S   0  0  0  0  0  0  0  0  0  0  0  0
   -2.7257    4.3499   -0.7635 O   0  0  0  0  0  0  0  0  0  0  0  0
   -2.9600    3.3332    1.4674 O   0  0  0  0  0  0  0  0  0  0  0  0
   -5.0362    4.0140    0.2643 O   0  0  0  0  0  0  0  0  0  0  0  0
   -3.7802    2.0809   -0.5557 O   0  0  0  0  0  0  0  0  0  0  0  0
   -3.6721    3.1512    2.1033 H   0  0  0  0  0  0  0  0  0  0  0  0
  1  2  1  0  0  0  0
  2  3  1  0  0  0  0
  4  1  1  0  0  0  0
  5  6  1  0  0  0  0
  5  4  2  0  0  0  0
  6 11  1  6  0  0  0
  6 18  1  0  0  0  0
  6  7  1  0  0  0  0
  7  8  1  0  0  0  0
  8  1  2  0  0  0  0
  8 13  1  0  0  0  0
  9  4  1  0  0  0  0
 10  5  1  0  0  0  0
 12  7  1  0  0  0  0
 14 17  2  0  0  0  0
 14 16  1  0  0  0  0
 15 14  2  0  0  0  0
 16 19  1  0  0  0  0
 18 14  1  0  0  0  0
M  RAD  3   2   2   3   3   7   2
M  END
