Coordinates from ORCA-job PhN2+~HSO4-_B3LYPG-6-31G_dp-NX-Scan-d89-09-n800
 OpenBabel11261920153D

 19 19  0  0  1  0  0  0  0  0999 V2000
   -1.5135   -0.7803    0.2924 C   0  0  0  0  0  0  0  0  0  0  0  0
   -1.0981   -1.7800    1.0385 N   0  0  0  0  0  0  0  0  0  0  0  0
   -0.7377   -2.6347    1.7042 N   0  0  0  0  0  0  0  0  0  0  0  0
   -2.5637   -0.9841   -0.6816 C   0  0  0  0  0  0  0  0  0  0  0  0
   -3.0259    0.0600   -1.3968 C   0  0  0  0  0  0  0  0  0  0  0  0
   -2.5746    1.4570   -1.1412 C   0  0  2  0  0  0  0  0  0  0  0  0
   -1.3481    1.5578   -0.2981 C   0  0  0  0  0  0  0  0  0  0  0  0
   -0.8829    0.5160    0.4171 C   0  0  0  0  0  0  0  0  0  0  0  0
   -2.9399   -1.9894   -0.8422 H   0  0  0  0  0  0  0  0  0  0  0  0
   -3.7947   -0.0889   -2.1475 H   0  0  0  0  0  0  0  0  0  0  0  0
   -2.4953    2.0521   -2.0529 H   0  0  0  0  0  0  0  0  0  0  0  0
   -0.8568    2.5225   -0.2427 H   0  0  0  0  0  0  0  0  0  0  0  0
   -0.0158    0.6153    1.0626 H   0  0  0  0  0  0  0  0  0  0  0  0
   -3.7626    3.6640   -0.1186 S   0  0  0  0  0  0  0  0  0  0  0  0
   -2.8958    4.3460   -1.0620 O   0  0  0  0  0  0  0  0  0  0  0  0
   -2.9699    3.7312    1.3116 O   0  0  0  0  0  0  0  0  0  0  0  0
   -5.1399    4.0558    0.1196 O   0  0  0  0  0  0  0  0  0  0  0  0
   -3.7846    2.0883   -0.4159 O   0  0  0  0  0  0  0  0  0  0  0  0
   -3.6212    3.5538    2.0108 H   0  0  0  0  0  0  0  0  0  0  0  0
  1  8  1  0  0  0  0
  1  2  1  0  0  0  0
  2  3  1  0  0  0  0
  4  1  2  0  0  0  0
  5  6  1  0  0  0  0
  5  4  1  0  0  0  0
  6 11  1  6  0  0  0
  6 18  1  0  0  0  0
  6  7  1  0  0  0  0
  7 12  1  0  0  0  0
  7  8  2  0  0  0  0
  8 13  1  0  0  0  0
  9  4  1  0  0  0  0
 10  5  1  0  0  0  0
 14 17  2  0  0  0  0
 14 16  1  0  0  0  0
 15 14  2  0  0  0  0
 16 19  1  0  0  0  0
 18 14  1  0  0  0  0
M  RAD  3   2   2   3   3   5   2
M  END
