Coordinates from ORCA-job PhN2+~HSO4-_B3LYPG-6-31G_dp-NX-Scan-d89-09-n800
 OpenBabel11261920153D

 19 19  0  0  1  0  0  0  0  0999 V2000
   -1.5127   -0.7820    0.2920 C   0  0  0  0  0  0  0  0  0  0  0  0
   -1.0961   -1.7828    1.0358 N   0  0  0  0  0  0  0  0  0  0  0  0
   -0.7347   -2.6388    1.6994 N   0  0  0  0  0  0  0  0  0  0  0  0
   -2.5635   -0.9847   -0.6816 C   0  0  0  0  0  0  0  0  0  0  0  0
   -3.0262    0.0603   -1.3952 C   0  0  0  0  0  0  0  0  0  0  0  0
   -2.5746    1.4570   -1.1389 C   0  0  2  0  0  0  0  0  0  0  0  0
   -1.3484    1.5571   -0.2951 C   0  0  0  0  0  0  0  0  0  0  0  0
   -0.8827    0.5145    0.4185 C   0  0  0  0  0  0  0  0  0  0  0  0
   -2.9397   -1.9898   -0.8433 H   0  0  0  0  0  0  0  0  0  0  0  0
   -3.7955   -0.0878   -2.1455 H   0  0  0  0  0  0  0  0  0  0  0  0
   -2.4946    2.0524   -2.0503 H   0  0  0  0  0  0  0  0  0  0  0  0
   -0.8576    2.5220   -0.2382 H   0  0  0  0  0  0  0  0  0  0  0  0
   -0.0157    0.6133    1.0641 H   0  0  0  0  0  0  0  0  0  0  0  0
   -3.7638    3.6651   -0.1204 S   0  0  0  0  0  0  0  0  0  0  0  0
   -2.8982    4.3456   -1.0659 O   0  0  0  0  0  0  0  0  0  0  0  0
   -2.9704    3.7367    1.3092 O   0  0  0  0  0  0  0  0  0  0  0  0
   -5.1413    4.0560    0.1176 O   0  0  0  0  0  0  0  0  0  0  0  0
   -3.7845    2.0886   -0.4138 O   0  0  0  0  0  0  0  0  0  0  0  0
   -3.6209    3.5596    2.0092 H   0  0  0  0  0  0  0  0  0  0  0  0
  1  8  1  0  0  0  0
  1  2  1  0  0  0  0
  2  3  1  0  0  0  0
  4  1  2  0  0  0  0
  5  6  1  0  0  0  0
  5  4  1  0  0  0  0
  6 11  1  6  0  0  0
  6 18  1  0  0  0  0
  6  7  1  0  0  0  0
  7 12  1  0  0  0  0
  7  8  2  0  0  0  0
  8 13  1  0  0  0  0
  9  4  1  0  0  0  0
 10  5  1  0  0  0  0
 14 17  2  0  0  0  0
 14 16  1  0  0  0  0
 15 14  2  0  0  0  0
 16 19  1  0  0  0  0
 18 14  1  0  0  0  0
M  RAD  3   2   2   3   3   5   2
M  END
