Coordinates from ORCA-job PhN2+~HSO4-_B3LYPG-6-31G_dp-NX-Scan-d89-09-n800
 OpenBabel11261920153D

 19 19  0  0  1  0  0  0  0  0999 V2000
   -1.6113   -0.2716    0.3408 C   0  0  1  0  0  0  0  0  0  0  0  0
   -1.5199   -0.7280    1.5693 N   0  0  0  0  0  0  0  0  0  0  0  0
   -1.4820   -1.0767    2.6528 N   0  0  0  0  0  0  0  0  0  0  0  0
   -2.7673   -0.6246   -0.4539 C   0  0  0  0  0  0  0  0  0  0  0  0
   -3.1391    0.1901   -1.4614 C   0  0  0  0  0  0  0  0  0  0  0  0
   -2.4898    1.5141   -1.6532 C   0  0  2  0  0  0  0  0  0  0  0  0
   -1.1234    1.6108   -1.0832 C   0  0  0  0  0  0  0  0  0  0  0  0
   -0.7360    0.8006   -0.0780 C   0  0  0  0  0  0  0  0  0  0  0  0
   -3.3009   -1.5438   -0.2314 H   0  0  0  0  0  0  0  0  0  0  0  0
   -3.9773   -0.0648   -2.1013 H   0  0  0  0  0  0  0  0  0  0  0  0
   -2.5411    1.8657   -2.6835 H   0  0  0  0  0  0  0  0  0  0  0  0
   -0.4782    2.4122   -1.4243 H   0  0  0  0  0  0  0  0  0  0  0  0
    0.2141    0.9345    0.4286 H   0  0  0  0  0  0  0  0  0  0  0  0
   -3.3564    3.1851    0.4358 S   0  0  0  0  0  0  0  0  0  0  0  0
   -2.0874    3.8562    0.6349 O   0  0  0  0  0  0  0  0  0  0  0  0
   -3.2971    1.8511    1.4059 O   0  0  0  0  0  0  0  0  0  0  0  0
   -4.6288    3.8384    0.6934 O   0  0  0  0  0  0  0  0  0  0  0  0
   -3.4779    2.5848   -1.0417 O   0  0  0  0  0  0  0  0  0  0  0  0
   -4.2212    1.6282    1.6078 H   0  0  0  0  0  0  0  0  0  0  0  0
  1  2  1  1  0  0  0
  2  3  1  0  0  0  0
  4  9  1  0  0  0  0
  4  1  1  0  0  0  0
  5  4  2  0  0  0  0
  6 11  1  6  0  0  0
  6  5  1  0  0  0  0
  6  7  1  0  0  0  0
  6 18  1  0  0  0  0
  7  8  2  0  0  0  0
  8  1  1  0  0  0  0
  8 13  1  0  0  0  0
 10  5  1  0  0  0  0
 12  7  1  0  0  0  0
 14 15  2  0  0  0  0
 14 17  2  0  0  0  0
 14 16  1  0  0  0  0
 16 19  1  0  0  0  0
 18 14  1  0  0  0  0
M  RAD  3   1   2   2   2   3   3
M  END
