Coordinates from ORCA-job PhN2+~HSO4-_B3LYPG-6-31G_dp-NX-Scan-d89-09-n800
 OpenBabel11261920153D

 19 19  0  0  1  0  0  0  0  0999 V2000
   -1.6101   -0.2625    0.2996 C   0  0  1  0  0  0  0  0  0  0  0  0
   -1.6623   -0.5428    1.5832 N   0  0  0  0  0  0  0  0  0  0  0  0
   -1.7851   -0.6909    2.7038 N   0  0  0  0  0  0  0  0  0  0  0  0
   -2.7359   -0.6518   -0.5264 C   0  0  0  0  0  0  0  0  0  0  0  0
   -3.1001    0.1566   -1.5415 C   0  0  0  0  0  0  0  0  0  0  0  0
   -2.4861    1.5024   -1.6812 C   0  0  2  0  0  0  0  0  0  0  0  0
   -1.1080    1.5974   -1.1445 C   0  0  0  0  0  0  0  0  0  0  0  0
   -0.7213    0.7974   -0.1308 C   0  0  0  0  0  0  0  0  0  0  0  0
   -3.2559   -1.5804   -0.3112 H   0  0  0  0  0  0  0  0  0  0  0  0
   -3.9107   -0.1140   -2.2097 H   0  0  0  0  0  0  0  0  0  0  0  0
   -2.5830    1.9177   -2.6831 H   0  0  0  0  0  0  0  0  0  0  0  0
   -0.4630    2.3918   -1.5018 H   0  0  0  0  0  0  0  0  0  0  0  0
    0.2249    0.9372    0.3817 H   0  0  0  0  0  0  0  0  0  0  0  0
   -3.3176    3.0992    0.5116 S   0  0  0  0  0  0  0  0  0  0  0  0
   -2.0393    3.7639    0.6733 O   0  0  0  0  0  0  0  0  0  0  0  0
   -3.2433    1.7647    1.4910 O   0  0  0  0  0  0  0  0  0  0  0  0
   -4.5776    3.7578    0.8160 O   0  0  0  0  0  0  0  0  0  0  0  0
   -3.4911    2.5065   -0.9606 O   0  0  0  0  0  0  0  0  0  0  0  0
   -4.1557    1.6121    1.7881 H   0  0  0  0  0  0  0  0  0  0  0  0
  1  2  1  1  0  0  0
  2  3  1  0  0  0  0
  4  9  1  0  0  0  0
  4  1  1  0  0  0  0
  5  4  2  0  0  0  0
  6 11  1  6  0  0  0
  6  5  1  0  0  0  0
  6  7  1  0  0  0  0
  6 18  1  0  0  0  0
  7  8  2  0  0  0  0
  8  1  1  0  0  0  0
  8 13  1  0  0  0  0
 10  5  1  0  0  0  0
 12  7  1  0  0  0  0
 14 15  2  0  0  0  0
 14 17  2  0  0  0  0
 14 16  1  0  0  0  0
 16 19  1  0  0  0  0
 18 14  1  0  0  0  0
M  RAD  3   1   2   2   2   3   3
M  END
