Coordinates from ORCA-job PhN2+~HSO4-_B3LYPG-6-31G_dp-NX-Scan-d89-09-n800
 OpenBabel11261920153D

 19 19  0  0  1  0  0  0  0  0999 V2000
   -1.5886   -0.6124    0.3261 C   0  0  0  0  0  0  0  0  0  0  0  0
   -1.2926   -1.4793    1.2694 N   0  0  0  0  0  0  0  0  0  0  0  0
   -1.0373   -2.2012    2.1152 N   0  0  0  0  0  0  0  0  0  0  0  0
   -2.5966   -0.9189   -0.6657 C   0  0  0  0  0  0  0  0  0  0  0  0
   -3.0003    0.0445   -1.5180 C   0  0  0  0  0  0  0  0  0  0  0  0
   -2.5613    1.4589   -1.3493 C   0  0  2  0  0  0  0  0  0  0  0  0
   -1.2970    1.6067   -0.5737 C   0  0  0  0  0  0  0  0  0  0  0  0
   -0.8812    0.6482    0.2760 C   0  0  0  0  0  0  0  0  0  0  0  0
   -2.9834   -1.9311   -0.7260 H   0  0  0  0  0  0  0  0  0  0  0  0
   -3.7287   -0.1752   -2.2909 H   0  0  0  0  0  0  0  0  0  0  0  0
   -2.5402    2.0198   -2.2842 H   0  0  0  0  0  0  0  0  0  0  0  0
   -0.7595    2.5436   -0.6537 H   0  0  0  0  0  0  0  0  0  0  0  0
   -0.0059    0.7837    0.9031 H   0  0  0  0  0  0  0  0  0  0  0  0
   -3.6477    3.5409    0.0551 S   0  0  0  0  0  0  0  0  0  0  0  0
   -2.6737    4.3443   -0.6608 O   0  0  0  0  0  0  0  0  0  0  0  0
   -2.9603    3.2003    1.5041 O   0  0  0  0  0  0  0  0  0  0  0  0
   -5.0035    3.9923    0.3149 O   0  0  0  0  0  0  0  0  0  0  0  0
   -3.7747    2.0881   -0.6029 O   0  0  0  0  0  0  0  0  0  0  0  0
   -3.6885    3.0092    2.1187 H   0  0  0  0  0  0  0  0  0  0  0  0
  1  2  1  0  0  0  0
  2  3  1  0  0  0  0
  4  1  1  0  0  0  0
  5  6  1  0  0  0  0
  5  4  2  0  0  0  0
  6 11  1  6  0  0  0
  6 18  1  0  0  0  0
  6  7  1  0  0  0  0
  7  8  1  0  0  0  0
  8  1  2  0  0  0  0
  8 13  1  0  0  0  0
  9  4  1  0  0  0  0
 10  5  1  0  0  0  0
 12  7  1  0  0  0  0
 14 17  2  0  0  0  0
 14 16  1  0  0  0  0
 15 14  2  0  0  0  0
 16 19  1  0  0  0  0
 18 14  1  0  0  0  0
M  RAD  3   2   2   3   3   7   2
M  END
