Coordinates from ORCA-job PhN2+~HSO4-_B3LYPG-6-31G_dp-NX-Scan-d89-09-n800
 OpenBabel11261920153D

 19 19  0  0  1  0  0  0  0  0999 V2000
   -1.6107   -0.2617    0.2902 C   0  0  1  0  0  0  0  0  0  0  0  0
   -1.6981   -0.5007    1.5806 N   0  0  0  0  0  0  0  0  0  0  0  0
   -1.8621   -0.5963    2.7012 N   0  0  0  0  0  0  0  0  0  0  0  0
   -2.7266   -0.6614   -0.5457 C   0  0  0  0  0  0  0  0  0  0  0  0
   -3.0882    0.1460   -1.5626 C   0  0  0  0  0  0  0  0  0  0  0  0
   -2.4853    1.4981   -1.6866 C   0  0  2  0  0  0  0  0  0  0  0  0
   -1.1051    1.5943   -1.1566 C   0  0  0  0  0  0  0  0  0  0  0  0
   -0.7185    0.7961   -0.1414 C   0  0  0  0  0  0  0  0  0  0  0  0
   -3.2417   -1.5935   -0.3345 H   0  0  0  0  0  0  0  0  0  0  0  0
   -3.8902   -0.1289   -2.2395 H   0  0  0  0  0  0  0  0  0  0  0  0
   -2.5934    1.9303   -2.6798 H   0  0  0  0  0  0  0  0  0  0  0  0
   -0.4607    2.3877   -1.5170 H   0  0  0  0  0  0  0  0  0  0  0  0
    0.2263    0.9374    0.3732 H   0  0  0  0  0  0  0  0  0  0  0  0
   -3.3094    3.0794    0.5294 S   0  0  0  0  0  0  0  0  0  0  0  0
   -2.0286    3.7433    0.6758 O   0  0  0  0  0  0  0  0  0  0  0  0
   -3.2304    1.7500    1.5182 O   0  0  0  0  0  0  0  0  0  0  0  0
   -4.5653    3.7417    0.8431 O   0  0  0  0  0  0  0  0  0  0  0  0
   -3.4974    2.4793   -0.9371 O   0  0  0  0  0  0  0  0  0  0  0  0
   -4.1357    1.6212    1.8466 H   0  0  0  0  0  0  0  0  0  0  0  0
  1  2  1  1  0  0  0
  2  3  1  0  0  0  0
  4  9  1  0  0  0  0
  4  1  1  0  0  0  0
  5  4  2  0  0  0  0
  6 11  1  6  0  0  0
  6  5  1  0  0  0  0
  6  7  1  0  0  0  0
  6 18  1  0  0  0  0
  7  8  2  0  0  0  0
  8  1  1  0  0  0  0
  8 13  1  0  0  0  0
 10  5  1  0  0  0  0
 12  7  1  0  0  0  0
 14 15  2  0  0  0  0
 14 17  2  0  0  0  0
 14 16  1  0  0  0  0
 16 19  1  0  0  0  0
 18 14  1  0  0  0  0
M  RAD  3   1   2   2   2   3   3
M  END
