Coordinates from ORCA-job PhN2+~HSO4-_B3LYPG-6-31G_dp-NX-Scan-d89-09-n800
 OpenBabel11261920153D

 19 19  0  0  1  0  0  0  0  0999 V2000
   -1.5399   -0.3871    0.4124 C   0  0  0  0  0  0  0  0  0  0  0  0
   -1.1423   -1.2100    1.3576 N   0  0  0  0  0  0  0  0  0  0  0  0
   -0.8007   -1.9205    2.1835 N   0  0  0  0  0  0  0  0  0  0  0  0
   -2.7775   -0.6409   -0.2899 C   0  0  0  0  0  0  0  0  0  0  0  0
   -3.2077    0.2312   -1.2228 C   0  0  0  0  0  0  0  0  0  0  0  0
   -2.4959    1.5080   -1.5198 C   0  0  2  0  0  0  0  0  0  0  0  0
   -1.1653    1.6366   -0.8633 C   0  0  0  0  0  0  0  0  0  0  0  0
   -0.7333    0.7621    0.0663 C   0  0  0  0  0  0  0  0  0  0  0  0
   -3.3275   -1.5512   -0.0713 H   0  0  0  0  0  0  0  0  0  0  0  0
   -4.1199    0.0344   -1.7768 H   0  0  0  0  0  0  0  0  0  0  0  0
   -2.4334    1.6960   -2.5956 H   0  0  0  0  0  0  0  0  0  0  0  0
   -0.5545    2.4910   -1.1305 H   0  0  0  0  0  0  0  0  0  0  0  0
    0.2279    0.8909    0.5526 H   0  0  0  0  0  0  0  0  0  0  0  0
   -3.4769    3.4253    0.2311 S   0  0  0  0  0  0  0  0  0  0  0  0
   -2.2077    4.0685    0.5031 O   0  0  0  0  0  0  0  0  0  0  0  0
   -3.5700    2.1918    1.3044 O   0  0  0  0  0  0  0  0  0  0  0  0
   -4.7364    4.1466    0.2618 O   0  0  0  0  0  0  0  0  0  0  0  0
   -3.4588    2.6727   -1.1879 O   0  0  0  0  0  0  0  0  0  0  0  0
   -4.5013    1.9169    1.3426 H   0  0  0  0  0  0  0  0  0  0  0  0
  1  2  1  0  0  0  0
  2  3  1  0  0  0  0
  4  9  1  0  0  0  0
  4  1  2  0  0  0  0
  5  4  1  0  0  0  0
  6 11  1  6  0  0  0
  6  5  1  0  0  0  0
  6 18  1  0  0  0  0
  6  7  1  0  0  0  0
  7  8  2  0  0  0  0
  8  1  1  0  0  0  0
  8 13  1  0  0  0  0
 10  5  1  0  0  0  0
 12  7  1  0  0  0  0
 14 17  2  0  0  0  0
 14 15  2  0  0  0  0
 14 16  1  0  0  0  0
 16 19  1  0  0  0  0
 18 14  1  0  0  0  0
M  RAD  3   2   2   3   3   5   2
M  END
