Coordinates from ORCA-job PhN2+~HSO4-_B3LYPG-6-31G_dp-NX-Scan-d89-09-n800
 OpenBabel11261920153D

 19 18  0  0  0  0  0  0  0  0999 V2000
   -2.4150    0.3351   -0.3128 C   0  0  0  0  0  0  0  0  0  0  0  0
   -2.9337    0.2430    0.9718 N   0  0  0  0  0  0  0  0  0  0  0  0
   -3.3363    0.0613    2.0019 N   0  0  0  0  0  0  0  0  0  0  0  0
   -2.6662   -0.7503   -1.1711 C   0  0  0  0  0  0  0  0  0  0  0  0
   -2.1440   -0.6900   -2.4554 C   0  0  0  0  0  0  0  0  0  0  0  0
   -1.3823    0.4183   -2.8485 C   0  0  0  0  0  0  0  0  0  0  0  0
   -1.1386    1.4750   -1.9660 C   0  0  0  0  0  0  0  0  0  0  0  0
   -1.6603    1.4603   -0.6758 C   0  0  0  0  0  0  0  0  0  0  0  0
   -3.2579   -1.5936   -0.8333 H   0  0  0  0  0  0  0  0  0  0  0  0
   -2.3283   -1.5039   -3.1484 H   0  0  0  0  0  0  0  0  0  0  0  0
   -0.9760    0.4555   -3.8545 H   0  0  0  0  0  0  0  0  0  0  0  0
   -0.5473    2.3265   -2.2855 H   0  0  0  0  0  0  0  0  0  0  0  0
   -1.5068    2.2571    0.0498 H   0  0  0  0  0  0  0  0  0  0  0  0
   -3.2561    3.2216    1.9644 S   0  0  0  0  0  0  0  0  0  0  0  0
   -1.7820    3.0318    1.9251 O   0  0  0  0  0  0  0  0  0  0  0  0
   -3.7525    1.9385    3.0110 O   0  0  0  0  0  0  0  0  0  0  0  0
   -3.7329    4.4419    2.6093 O   0  0  0  0  0  0  0  0  0  0  0  0
   -3.9368    2.7782    0.7305 O   0  0  0  0  0  0  0  0  0  0  0  0
   -3.2682    2.0559    3.8452 H   0  0  0  0  0  0  0  0  0  0  0  0
  1  2  1  0  0  0  0
  2  3  1  0  0  0  0
  4  9  1  0  0  0  0
  4  1  2  0  0  0  0
  5  4  1  0  0  0  0
  6  5  2  0  0  0  0
  6  7  1  0  0  0  0
  7  8  2  0  0  0  0
  8  1  1  0  0  0  0
  8 13  1  0  0  0  0
 10  5  1  0  0  0  0
 11  6  1  0  0  0  0
 12  7  1  0  0  0  0
 14 17  1  0  0  0  0
 14 16  1  0  0  0  0
 15 14  2  0  0  0  0
 16 19  1  0  0  0  0
 18 14  2  0  0  0  0
M  RAD  3   2   2   3   3  17   2
M  END
