Coordinates from ORCA-job PhN2+~HSO4-_B3LYPG-6-31G_dp-NX-Scan-d89-09-n800
 OpenBabel11261920153D

 19 19  0  0  1  0  0  0  0  0999 V2000
   -1.4594   -1.0515    0.1754 C   0  0  0  0  0  0  0  0  0  0  0  0
   -1.1034   -2.2819    0.4767 N   0  0  0  0  0  0  0  0  0  0  0  0
   -0.7979   -3.3525    0.7368 N   0  0  0  0  0  0  0  0  0  0  0  0
   -2.4982   -0.8142   -0.8057 C   0  0  0  0  0  0  0  0  0  0  0  0
   -2.8464    0.4453   -1.1328 C   0  0  0  0  0  0  0  0  0  0  0  0
   -2.2418    1.6437   -0.4812 C   0  0  2  0  0  0  0  0  0  0  0  0
   -1.1327    1.3318    0.4646 C   0  0  0  0  0  0  0  0  0  0  0  0
   -0.7841    0.0710    0.7897 C   0  0  0  0  0  0  0  0  0  0  0  0
   -2.9689   -1.6676   -1.2828 H   0  0  0  0  0  0  0  0  0  0  0  0
   -3.6091    0.6307   -1.8810 H   0  0  0  0  0  0  0  0  0  0  0  0
   -1.9581    2.4074   -1.2115 H   0  0  0  0  0  0  0  0  0  0  0  0
   -0.6118    2.1722    0.9108 H   0  0  0  0  0  0  0  0  0  0  0  0
    0.0205   -0.1246    1.4920 H   0  0  0  0  0  0  0  0  0  0  0  0
   -4.2435    3.4458   -0.3101 S   0  0  0  0  0  0  0  0  0  0  0  0
   -4.4064    3.1668   -1.7247 O   0  0  0  0  0  0  0  0  0  0  0  0
   -3.2890    4.7764   -0.2535 O   0  0  0  0  0  0  0  0  0  0  0  0
   -5.3595    3.6601    0.5921 O   0  0  0  0  0  0  0  0  0  0  0  0
   -3.3216    2.3249    0.3796 O   0  0  0  0  0  0  0  0  0  0  0  0
   -3.4099    5.1786    0.6232 H   0  0  0  0  0  0  0  0  0  0  0  0
  1  2  1  0  0  0  0
  1  8  2  0  0  0  0
  2  3  1  0  0  0  0
  4  1  1  0  0  0  0
  5  4  2  0  0  0  0
  5  6  1  0  0  0  0
  6 11  1  6  0  0  0
  6 18  1  0  0  0  0
  6  7  1  0  0  0  0
  7  8  1  0  0  0  0
  7 12  1  0  0  0  0
  8 13  1  0  0  0  0
  9  4  1  0  0  0  0
 10  5  1  0  0  0  0
 14 16  1  0  0  0  0
 14 18  1  0  0  0  0
 14 17  2  0  0  0  0
 15 14  2  0  0  0  0
 16 19  1  0  0  0  0
M  RAD  3   2   2   3   3   7   2
M  END
