Coordinates from ORCA-job PhN2+~CF3COO-_B3LYPG-6-31G_dp-NX-Scan-d89-09-n800
 OpenBabel11261920123D

 20 20  0  0  1  0  0  0  0  0999 V2000
   -5.1715   -1.7588    1.5559 C   0  0  0  0  0  0  0  0  0  0  0  0
   -5.6661   -2.0699    2.7328 N   0  0  0  0  0  0  0  0  0  0  0  0
   -6.0961   -2.3112    3.7620 N   0  0  0  0  0  0  0  0  0  0  0  0
   -6.0093   -1.0976    0.5785 C   0  0  0  0  0  0  0  0  0  0  0  0
   -5.4516   -0.6078   -0.5453 C   0  0  0  0  0  0  0  0  0  0  0  0
   -3.9665   -0.5667   -0.7130 C   0  0  2  0  0  0  0  0  0  0  0  0
   -3.2467   -1.5837    0.1118 C   0  0  0  0  0  0  0  0  0  0  0  0
   -3.7956   -2.0786    1.2375 C   0  0  0  0  0  0  0  0  0  0  0  0
   -7.0783   -1.0382    0.7588 H   0  0  0  0  0  0  0  0  0  0  0  0
   -6.0646   -0.1444   -1.3093 H   0  0  0  0  0  0  0  0  0  0  0  0
   -3.6584   -0.5957   -1.7574 H   0  0  0  0  0  0  0  0  0  0  0  0
   -2.2298   -1.8386   -0.1647 H   0  0  0  0  0  0  0  0  0  0  0  0
   -3.2440   -2.7387    1.8999 H   0  0  0  0  0  0  0  0  0  0  0  0
   -3.4488    2.9795   -0.1596 O   0  0  0  0  0  0  0  0  0  0  0  0
   -3.5278    1.9370   -0.7588 C   0  0  0  0  0  0  0  0  0  0  0  0
   -3.4839    0.7593   -0.1416 O   0  0  0  0  0  0  0  0  0  0  0  0
   -3.6184    1.9437   -2.3083 C   0  0  0  0  0  0  0  0  0  0  0  0
   -2.6414    1.1795   -2.8492 F   0  0  0  0  0  0  0  0  0  0  0  0
   -4.8048    1.4447   -2.7340 F   0  0  0  0  0  0  0  0  0  0  0  0
   -3.4963    3.1794   -2.7840 F   0  0  0  0  0  0  0  0  0  0  0  0
  1  2  1  0  0  0  0
  2  3  1  0  0  0  0
  4  9  1  0  0  0  0
  4  1  2  0  0  0  0
  5  4  1  0  0  0  0
  6 11  1  6  0  0  0
  6  5  1  0  0  0  0
  6 16  1  0  0  0  0
  6  7  1  0  0  0  0
  7  8  2  0  0  0  0
  8  1  1  0  0  0  0
  8 13  1  0  0  0  0
 10  5  1  0  0  0  0
 12  7  1  0  0  0  0
 15 14  2  0  0  0  0
 15 16  1  0  0  0  0
 17 15  1  0  0  0  0
 18 17  1  0  0  0  0
 19 17  1  0  0  0  0
 20 17  1  0  0  0  0
M  RAD  3   2   2   3   3   5   2
M  END
