Coordinates from ORCA-job PhN2+~CF3COO-_B3LYPG-6-31G_dp-NX-Scan-d89-09-n800
 OpenBabel11261920123D

 20 20  0  0  1  0  0  0  0  0999 V2000
   -5.0093   -1.4301    1.3930 C   0  0  1  0  0  0  0  0  0  0  0  0
   -5.4536   -0.9308    2.5228 N   0  0  0  0  0  0  0  0  0  0  0  0
   -5.8288   -0.4513    3.4850 N   0  0  0  0  0  0  0  0  0  0  0  0
   -5.9110   -1.5332    0.2659 C   0  0  0  0  0  0  0  0  0  0  0  0
   -5.3998   -1.5368   -0.9799 C   0  0  0  0  0  0  0  0  0  0  0  0
   -3.9486   -1.2727   -1.2089 C   0  0  2  0  0  0  0  0  0  0  0  0
   -3.0818   -1.6017   -0.0391 C   0  0  0  0  0  0  0  0  0  0  0  0
   -3.5835   -1.5973    1.2106 C   0  0  0  0  0  0  0  0  0  0  0  0
   -6.9782   -1.6143    0.4504 H   0  0  0  0  0  0  0  0  0  0  0  0
   -6.0426   -1.6566   -1.8457 H   0  0  0  0  0  0  0  0  0  0  0  0
   -3.5891   -1.7397   -2.1268 H   0  0  0  0  0  0  0  0  0  0  0  0
   -2.0242   -1.7693   -0.2150 H   0  0  0  0  0  0  0  0  0  0  0  0
   -2.9518   -1.7244    2.0845 H   0  0  0  0  0  0  0  0  0  0  0  0
   -4.5099    1.1373    0.3384 O   0  0  0  0  0  0  0  0  0  0  0  0
   -4.0527    1.1805   -0.7801 C   0  0  0  0  0  0  0  0  0  0  0  0
   -3.7425    0.1942   -1.6145 O   0  0  0  0  0  0  0  0  0  0  0  0
   -3.7251    2.5282   -1.4721 C   0  0  0  0  0  0  0  0  0  0  0  0
   -2.4092    2.6092   -1.7487 F   0  0  0  0  0  0  0  0  0  0  0  0
   -4.4043    2.6487   -2.6284 F   0  0  0  0  0  0  0  0  0  0  0  0
   -4.0539    3.5530   -0.6795 F   0  0  0  0  0  0  0  0  0  0  0  0
  1  2  1  6  0  0  0
  2  3  1  0  0  0  0
  4  9  1  0  0  0  0
  4  1  1  0  0  0  0
  5  4  2  0  0  0  0
  6 11  1  6  0  0  0
  6  5  1  0  0  0  0
  6  7  1  0  0  0  0
  7  8  2  0  0  0  0
  8  1  1  0  0  0  0
  8 13  1  0  0  0  0
 10  5  1  0  0  0  0
 12  7  1  0  0  0  0
 15 14  2  0  0  0  0
 16  6  1  0  0  0  0
 16 15  1  0  0  0  0
 17 15  1  0  0  0  0
 17 20  1  0  0  0  0
 18 17  1  0  0  0  0
 19 17  1  0  0  0  0
M  RAD  3   1   2   2   2   3   3
M  END
