Coordinates from ORCA-job PhN2+~CF3COO-_B3LYPG-6-31G_dp-NX-Scan-d89-09-n800
 OpenBabel11261920123D

 20 20  0  0  1  0  0  0  0  0999 V2000
   -5.1281   -1.6463    1.5177 C   0  0  1  0  0  0  0  0  0  0  0  0
   -5.5808   -1.7176    2.7493 N   0  0  0  0  0  0  0  0  0  0  0  0
   -5.9742   -1.7359    3.8197 N   0  0  0  0  0  0  0  0  0  0  0  0
   -5.9612   -1.0661    0.4846 C   0  0  0  0  0  0  0  0  0  0  0  0
   -5.3917   -0.7090   -0.6829 C   0  0  0  0  0  0  0  0  0  0  0  0
   -3.9001   -0.6945   -0.8068 C   0  0  2  0  0  0  0  0  0  0  0  0
   -3.2407   -1.7476    0.0252 C   0  0  0  0  0  0  0  0  0  0  0  0
   -3.7936   -2.1131    1.1980 C   0  0  0  0  0  0  0  0  0  0  0  0
   -7.0274   -0.9645    0.6623 H   0  0  0  0  0  0  0  0  0  0  0  0
   -5.9880   -0.3230   -1.5004 H   0  0  0  0  0  0  0  0  0  0  0  0
   -3.5560   -0.6969   -1.8406 H   0  0  0  0  0  0  0  0  0  0  0  0
   -2.2647   -2.1141   -0.2711 H   0  0  0  0  0  0  0  0  0  0  0  0
   -3.2847   -2.7716    1.8954 H   0  0  0  0  0  0  0  0  0  0  0  0
   -3.7621    2.7756    0.0916 O   0  0  0  0  0  0  0  0  0  0  0  0
   -3.6478    1.8185   -0.6312 C   0  0  0  0  0  0  0  0  0  0  0  0
   -3.3993    0.5958   -0.1670 O   0  0  0  0  0  0  0  0  0  0  0  0
   -3.6897    1.9942   -2.1734 C   0  0  0  0  0  0  0  0  0  0  0  0
   -2.6499    1.3550   -2.7547 F   0  0  0  0  0  0  0  0  0  0  0  0
   -4.8261    1.4731   -2.6967 F   0  0  0  0  0  0  0  0  0  0  0  0
   -3.6338    3.2813   -2.5071 F   0  0  0  0  0  0  0  0  0  0  0  0
  1  2  1  1  0  0  0
  2  3  1  0  0  0  0
  4  9  1  0  0  0  0
  4  1  1  0  0  0  0
  5  4  2  0  0  0  0
  6 11  1  6  0  0  0
  6  5  1  0  0  0  0
  6 16  1  0  0  0  0
  6  7  1  0  0  0  0
  7  8  2  0  0  0  0
  8  1  1  0  0  0  0
  8 13  1  0  0  0  0
 10  5  1  0  0  0  0
 12  7  1  0  0  0  0
 15 16  1  0  0  0  0
 15 14  2  0  0  0  0
 17 15  1  0  0  0  0
 18 17  1  0  0  0  0
 19 17  1  0  0  0  0
 20 17  1  0  0  0  0
M  RAD  3   1   2   2   2   3   3
M  END
