Coordinates from ORCA-job PhN2+~CF3COO-_B3LYPG-6-31G_dp-NX-Scan-d89-09-n800
 OpenBabel11261920123D

 20 20  0  0  1  0  0  0  0  0999 V2000
   -5.1271   -1.6436    1.5167 C   0  0  1  0  0  0  0  0  0  0  0  0
   -5.5788   -1.7097    2.7489 N   0  0  0  0  0  0  0  0  0  0  0  0
   -5.9714   -1.7230    3.8197 N   0  0  0  0  0  0  0  0  0  0  0  0
   -5.9599   -1.0651    0.4824 C   0  0  0  0  0  0  0  0  0  0  0  0
   -5.3901   -0.7110   -0.6858 C   0  0  0  0  0  0  0  0  0  0  0  0
   -3.8984   -0.6974   -0.8087 C   0  0  2  0  0  0  0  0  0  0  0  0
   -3.2405   -1.7512    0.0238 C   0  0  0  0  0  0  0  0  0  0  0  0
   -3.7936   -2.1138    1.1974 C   0  0  0  0  0  0  0  0  0  0  0  0
   -7.0261   -0.9624    0.6600 H   0  0  0  0  0  0  0  0  0  0  0  0
   -5.9859   -0.3268   -1.5045 H   0  0  0  0  0  0  0  0  0  0  0  0
   -3.5536   -0.6998   -1.8423 H   0  0  0  0  0  0  0  0  0  0  0  0
   -2.2655   -2.1201   -0.2727 H   0  0  0  0  0  0  0  0  0  0  0  0
   -3.2859   -2.7721    1.8957 H   0  0  0  0  0  0  0  0  0  0  0  0
   -3.7686    2.7699    0.0971 O   0  0  0  0  0  0  0  0  0  0  0  0
   -3.6502    1.8154   -0.6285 C   0  0  0  0  0  0  0  0  0  0  0  0
   -3.3969    0.5921   -0.1681 O   0  0  0  0  0  0  0  0  0  0  0  0
   -3.6918    1.9953   -2.1703 C   0  0  0  0  0  0  0  0  0  0  0  0
   -2.6509    1.3591   -2.7528 F   0  0  0  0  0  0  0  0  0  0  0  0
   -4.8273    1.4741   -2.6954 F   0  0  0  0  0  0  0  0  0  0  0  0
   -3.6375    3.2834   -2.5004 F   0  0  0  0  0  0  0  0  0  0  0  0
  1  2  1  1  0  0  0
  2  3  1  0  0  0  0
  4  9  1  0  0  0  0
  4  1  1  0  0  0  0
  5  4  2  0  0  0  0
  6 11  1  6  0  0  0
  6  5  1  0  0  0  0
  6 16  1  0  0  0  0
  6  7  1  0  0  0  0
  7  8  2  0  0  0  0
  8  1  1  0  0  0  0
  8 13  1  0  0  0  0
 10  5  1  0  0  0  0
 12  7  1  0  0  0  0
 15 16  1  0  0  0  0
 15 14  2  0  0  0  0
 17 15  1  0  0  0  0
 18 17  1  0  0  0  0
 19 17  1  0  0  0  0
 20 17  1  0  0  0  0
M  RAD  3   1   2   2   2   3   3
M  END
