Coordinates from ORCA-job PhN2+~CF3COO-_B3LYPG-6-31G_dp-NX-Scan-d89-09-n800
 OpenBabel11261920123D

 20 20  0  0  1  0  0  0  0  0999 V2000
   -4.9979   -1.4607    1.3647 C   0  0  1  0  0  0  0  0  0  0  0  0
   -5.3696   -0.6542    2.3357 N   0  0  0  0  0  0  0  0  0  0  0  0
   -5.6574    0.1300    3.1044 N   0  0  0  0  0  0  0  0  0  0  0  0
   -5.9035   -1.6036    0.2386 C   0  0  0  0  0  0  0  0  0  0  0  0
   -5.3897   -1.6191   -1.0058 C   0  0  0  0  0  0  0  0  0  0  0  0
   -3.9456   -1.3100   -1.2198 C   0  0  2  0  0  0  0  0  0  0  0  0
   -3.0744   -1.6825   -0.0669 C   0  0  0  0  0  0  0  0  0  0  0  0
   -3.5718   -1.6664    1.1841 C   0  0  0  0  0  0  0  0  0  0  0  0
   -6.9705   -1.6880    0.4247 H   0  0  0  0  0  0  0  0  0  0  0  0
   -6.0217   -1.7738   -1.8741 H   0  0  0  0  0  0  0  0  0  0  0  0
   -3.5742   -1.7114   -2.1625 H   0  0  0  0  0  0  0  0  0  0  0  0
   -2.0247   -1.8843   -0.2534 H   0  0  0  0  0  0  0  0  0  0  0  0
   -2.9408   -1.7963    2.0586 H   0  0  0  0  0  0  0  0  0  0  0  0
   -4.5584    1.0780    0.4415 O   0  0  0  0  0  0  0  0  0  0  0  0
   -4.0978    1.1452   -0.6762 C   0  0  0  0  0  0  0  0  0  0  0  0
   -3.7741    0.1892   -1.5395 O   0  0  0  0  0  0  0  0  0  0  0  0
   -3.7813    2.5138   -1.3335 C   0  0  0  0  0  0  0  0  0  0  0  0
   -2.4659    2.6139   -1.6054 F   0  0  0  0  0  0  0  0  0  0  0  0
   -4.4599    2.6579   -2.4874 F   0  0  0  0  0  0  0  0  0  0  0  0
   -4.1205    3.5154   -0.5160 F   0  0  0  0  0  0  0  0  0  0  0  0
  1  2  1  6  0  0  0
  2  3  1  0  0  0  0
  4  9  1  0  0  0  0
  4  1  1  0  0  0  0
  5  4  2  0  0  0  0
  6 11  1  6  0  0  0
  6  5  1  0  0  0  0
  6  7  1  0  0  0  0
  7  8  2  0  0  0  0
  8  1  1  0  0  0  0
  8 13  1  0  0  0  0
 10  5  1  0  0  0  0
 12  7  1  0  0  0  0
 15 14  2  0  0  0  0
 16  6  1  0  0  0  0
 16 15  1  0  0  0  0
 17 15  1  0  0  0  0
 17 20  1  0  0  0  0
 18 17  1  0  0  0  0
 19 17  1  0  0  0  0
M  RAD  3   1   2   2   2   3   3
M  END
