Coordinates from ORCA-job PhN2+~CF3COO-_B3LYPG-6-31G_dp-NX-Scan-d89-09-n800
 OpenBabel11261920123D

 20 20  0  0  1  0  0  0  0  0999 V2000
   -5.1108   -1.5983    1.4980 C   0  0  1  0  0  0  0  0  0  0  0  0
   -5.5498   -1.5805    2.7362 N   0  0  0  0  0  0  0  0  0  0  0  0
   -5.9317   -1.5164    3.8085 N   0  0  0  0  0  0  0  0  0  0  0  0
   -5.9367   -1.0459    0.4436 C   0  0  0  0  0  0  0  0  0  0  0  0
   -5.3586   -0.7422   -0.7346 C   0  0  0  0  0  0  0  0  0  0  0  0
   -3.8651   -0.7463   -0.8399 C   0  0  2  0  0  0  0  0  0  0  0  0
   -3.2349   -1.8077    0.0051 C   0  0  0  0  0  0  0  0  0  0  0  0
   -3.7939   -2.1214    1.1900 C   0  0  0  0  0  0  0  0  0  0  0  0
   -7.0017   -0.9239    0.6155 H   0  0  0  0  0  0  0  0  0  0  0  0
   -5.9451   -0.3857   -1.5720 H   0  0  0  0  0  0  0  0  0  0  0  0
   -3.5067   -0.7520   -1.8691 H   0  0  0  0  0  0  0  0  0  0  0  0
   -2.2756   -2.2170   -0.2897 H   0  0  0  0  0  0  0  0  0  0  0  0
   -3.3060   -2.7769    1.9049 H   0  0  0  0  0  0  0  0  0  0  0  0
   -3.8654    2.6670    0.1872 O   0  0  0  0  0  0  0  0  0  0  0  0
   -3.6837    1.7608   -0.5853 C   0  0  0  0  0  0  0  0  0  0  0  0
   -3.3495    0.5336   -0.1894 O   0  0  0  0  0  0  0  0  0  0  0  0
   -3.7336    2.0121   -2.1170 C   0  0  0  0  0  0  0  0  0  0  0  0
   -2.6886    1.4168   -2.7326 F   0  0  0  0  0  0  0  0  0  0  0  0
   -4.8650    1.5015   -2.6603 F   0  0  0  0  0  0  0  0  0  0  0  0
   -3.6975    3.3155   -2.3871 F   0  0  0  0  0  0  0  0  0  0  0  0
  1  2  1  1  0  0  0
  2  3  1  0  0  0  0
  4  9  1  0  0  0  0
  4  1  1  0  0  0  0
  5  4  2  0  0  0  0
  6 11  1  6  0  0  0
  6  5  1  0  0  0  0
  6 16  1  0  0  0  0
  6  7  1  0  0  0  0
  7  8  2  0  0  0  0
  8  1  1  0  0  0  0
  8 13  1  0  0  0  0
 10  5  1  0  0  0  0
 12  7  1  0  0  0  0
 15 16  1  0  0  0  0
 15 14  2  0  0  0  0
 17 15  1  0  0  0  0
 18 17  1  0  0  0  0
 19 17  1  0  0  0  0
 20 17  1  0  0  0  0
M  RAD  3   1   2   2   2   3   3
M  END
