Coordinates from ORCA-job PhN2+~CF3COO-_B3LYPG-6-31G_dp-NX-Scan-d89-09-n800
 OpenBabel11261920123D

 20 20  0  0  1  0  0  0  0  0999 V2000
   -5.0144   -1.4287    1.4055 C   0  0  1  0  0  0  0  0  0  0  0  0
   -5.4718   -1.0091    2.5621 N   0  0  0  0  0  0  0  0  0  0  0  0
   -5.8614   -0.6057    3.5536 N   0  0  0  0  0  0  0  0  0  0  0  0
   -5.9146   -1.5180    0.2767 C   0  0  0  0  0  0  0  0  0  0  0  0
   -5.4038   -1.5127   -0.9693 C   0  0  0  0  0  0  0  0  0  0  0  0
   -3.9509   -1.2600   -1.2016 C   0  0  2  0  0  0  0  0  0  0  0  0
   -3.0850   -1.5783   -0.0278 C   0  0  0  0  0  0  0  0  0  0  0  0
   -3.5878   -1.5828    1.2213 C   0  0  0  0  0  0  0  0  0  0  0  0
   -6.9818   -1.6003    0.4597 H   0  0  0  0  0  0  0  0  0  0  0  0
   -6.0490   -1.6208   -1.8349 H   0  0  0  0  0  0  0  0  0  0  0  0
   -3.5947   -1.7441   -2.1124 H   0  0  0  0  0  0  0  0  0  0  0  0
   -2.0253   -1.7346   -0.2015 H   0  0  0  0  0  0  0  0  0  0  0  0
   -2.9554   -1.7118    2.0943 H   0  0  0  0  0  0  0  0  0  0  0  0
   -4.4981    1.1597    0.3133 O   0  0  0  0  0  0  0  0  0  0  0  0
   -4.0415    1.1930   -0.8053 C   0  0  0  0  0  0  0  0  0  0  0  0
   -3.7356    0.1968   -1.6297 O   0  0  0  0  0  0  0  0  0  0  0  0
   -3.7100    2.5329   -1.5100 C   0  0  0  0  0  0  0  0  0  0  0  0
   -2.3941    2.6068   -1.7883 F   0  0  0  0  0  0  0  0  0  0  0  0
   -4.3897    2.6446   -2.6669 F   0  0  0  0  0  0  0  0  0  0  0  0
   -4.0348    3.5661   -0.7268 F   0  0  0  0  0  0  0  0  0  0  0  0
  1  2  1  6  0  0  0
  2  3  1  0  0  0  0
  4  9  1  0  0  0  0
  4  1  1  0  0  0  0
  5  4  2  0  0  0  0
  6 11  1  6  0  0  0
  6  5  1  0  0  0  0
  6  7  1  0  0  0  0
  7  8  2  0  0  0  0
  8  1  1  0  0  0  0
  8 13  1  0  0  0  0
 10  5  1  0  0  0  0
 12  7  1  0  0  0  0
 15 14  2  0  0  0  0
 16  6  1  0  0  0  0
 16 15  1  0  0  0  0
 17 15  1  0  0  0  0
 17 20  1  0  0  0  0
 18 17  1  0  0  0  0
 19 17  1  0  0  0  0
M  RAD  3   1   2   2   2   3   3
M  END
