Coordinates from ORCA-job PhN2+~CF3COO-_B3LYPG-6-31G_dp-NX-Scan-d89-09-n800
 OpenBabel11261920123D

 20 20  0  0  1  0  0  0  0  0999 V2000
   -5.0105   -1.4313    1.3988 C   0  0  1  0  0  0  0  0  0  0  0  0
   -5.4592   -0.9629    2.5399 N   0  0  0  0  0  0  0  0  0  0  0  0
   -5.8395   -0.5132    3.5148 N   0  0  0  0  0  0  0  0  0  0  0  0
   -5.9120   -1.5270    0.2711 C   0  0  0  0  0  0  0  0  0  0  0  0
   -5.4013   -1.5262   -0.9750 C   0  0  0  0  0  0  0  0  0  0  0  0
   -3.9493   -1.2672   -1.2055 C   0  0  2  0  0  0  0  0  0  0  0  0
   -3.0827   -1.5939   -0.0346 C   0  0  0  0  0  0  0  0  0  0  0  0
   -3.5846   -1.5944    1.2150 C   0  0  0  0  0  0  0  0  0  0  0  0
   -6.9792   -1.6077    0.4552 H   0  0  0  0  0  0  0  0  0  0  0  0
   -6.0454   -1.6398   -1.8407 H   0  0  0  0  0  0  0  0  0  0  0  0
   -3.5917   -1.7407   -2.1210 H   0  0  0  0  0  0  0  0  0  0  0  0
   -2.0245   -1.7575   -0.2101 H   0  0  0  0  0  0  0  0  0  0  0  0
   -2.9524   -1.7234    2.0882 H   0  0  0  0  0  0  0  0  0  0  0  0
   -4.5145    1.1490    0.3244 O   0  0  0  0  0  0  0  0  0  0  0  0
   -4.0512    1.1870   -0.7915 C   0  0  0  0  0  0  0  0  0  0  0  0
   -3.7387    0.1960   -1.6195 O   0  0  0  0  0  0  0  0  0  0  0  0
   -3.7188    2.5309   -1.4883 C   0  0  0  0  0  0  0  0  0  0  0  0
   -2.4015    2.6092   -1.7586 F   0  0  0  0  0  0  0  0  0  0  0  0
   -4.3921    2.6464   -2.6485 F   0  0  0  0  0  0  0  0  0  0  0  0
   -4.0506    3.5598   -0.7023 F   0  0  0  0  0  0  0  0  0  0  0  0
  1  2  1  6  0  0  0
  2  3  1  0  0  0  0
  4  9  1  0  0  0  0
  4  1  1  0  0  0  0
  5  4  2  0  0  0  0
  6 11  1  6  0  0  0
  6  5  1  0  0  0  0
  6  7  1  0  0  0  0
  7  8  2  0  0  0  0
  8  1  1  0  0  0  0
  8 13  1  0  0  0  0
 10  5  1  0  0  0  0
 12  7  1  0  0  0  0
 15 14  2  0  0  0  0
 16  6  1  0  0  0  0
 16 15  1  0  0  0  0
 17 15  1  0  0  0  0
 17 20  1  0  0  0  0
 18 17  1  0  0  0  0
 19 17  1  0  0  0  0
M  RAD  3   1   2   2   2   3   3
M  END
