Coordinates from ORCA-job PhN2+~CF3COO-_B3LYPG-6-31G_dp-NX-Scan-d89-09-n800
 OpenBabel11261920123D

 20 20  0  0  1  0  0  0  0  0999 V2000
   -5.0732   -1.5540    1.5381 C   0  0  0  0  0  0  0  0  0  0  0  0
   -5.5698   -1.6833    2.7479 N   0  0  0  0  0  0  0  0  0  0  0  0
   -6.0017   -1.7966    3.8000 N   0  0  0  0  0  0  0  0  0  0  0  0
   -5.9605   -1.4688    0.3980 C   0  0  0  0  0  0  0  0  0  0  0  0
   -5.4539   -1.2954   -0.8366 C   0  0  0  0  0  0  0  0  0  0  0  0
   -3.9898   -1.1213   -1.0895 C   0  0  2  0  0  0  0  0  0  0  0  0
   -3.1297   -1.3586    0.1111 C   0  0  0  0  0  0  0  0  0  0  0  0
   -3.6391   -1.5307    1.3448 C   0  0  0  0  0  0  0  0  0  0  0  0
   -7.0292   -1.5720    0.5599 H   0  0  0  0  0  0  0  0  0  0  0  0
   -6.1130   -1.2578   -1.6982 H   0  0  0  0  0  0  0  0  0  0  0  0
   -3.6623   -1.7360   -1.9344 H   0  0  0  0  0  0  0  0  0  0  0  0
   -2.0550   -1.3674   -0.0435 H   0  0  0  0  0  0  0  0  0  0  0  0
   -2.9943   -1.6782    2.2056 H   0  0  0  0  0  0  0  0  0  0  0  0
   -4.4132    1.4371    0.1265 O   0  0  0  0  0  0  0  0  0  0  0  0
   -3.9630    1.3359   -0.9866 C   0  0  0  0  0  0  0  0  0  0  0  0
   -3.7063    0.2367   -1.6930 O   0  0  0  0  0  0  0  0  0  0  0  0
   -3.5763    2.5712   -1.8380 C   0  0  0  0  0  0  0  0  0  0  0  0
   -2.2652    2.5412   -2.1452 F   0  0  0  0  0  0  0  0  0  0  0  0
   -4.2758    2.5927   -2.9883 F   0  0  0  0  0  0  0  0  0  0  0  0
   -3.8287    3.6985   -1.1666 F   0  0  0  0  0  0  0  0  0  0  0  0
  1  2  1  0  0  0  0
  2  3  1  0  0  0  0
  4  9  1  0  0  0  0
  4  1  2  0  0  0  0
  5  4  1  0  0  0  0
  6 11  1  6  0  0  0
  6  5  1  0  0  0  0
  6  7  1  0  0  0  0
  7  8  2  0  0  0  0
  8  1  1  0  0  0  0
  8 13  1  0  0  0  0
 10  5  1  0  0  0  0
 12  7  1  0  0  0  0
 15 14  2  0  0  0  0
 16  6  1  0  0  0  0
 16 15  1  0  0  0  0
 17 20  1  0  0  0  0
 17 15  1  0  0  0  0
 18 17  1  0  0  0  0
 19 17  1  0  0  0  0
M  RAD  3   2   2   3   3   5   2
M  END
