Coordinates from ORCA-job PhN2+~CF3COO-_B3LYPG-6-31G_dp-NX-Scan-d89-09-n800
 OpenBabel11261920123D

 20 20  0  0  1  0  0  0  0  0999 V2000
   -5.1961   -1.8245    1.5722 C   0  0  0  0  0  0  0  0  0  0  0  0
   -5.7096   -2.2888    2.6889 N   0  0  0  0  0  0  0  0  0  0  0  0
   -6.1555   -2.6736    3.6667 N   0  0  0  0  0  0  0  0  0  0  0  0
   -6.0360   -1.1064    0.6382 C   0  0  0  0  0  0  0  0  0  0  0  0
   -5.4851   -0.5316   -0.4477 C   0  0  0  0  0  0  0  0  0  0  0  0
   -4.0045   -0.4816   -0.6459 C   0  0  2  0  0  0  0  0  0  0  0  0
   -3.2526   -1.4721    0.1822 C   0  0  0  0  0  0  0  0  0  0  0  0
   -3.7992   -2.0508    1.2678 C   0  0  0  0  0  0  0  0  0  0  0  0
   -7.1061   -1.0704    0.8183 H   0  0  0  0  0  0  0  0  0  0  0  0
   -6.1069   -0.0185   -1.1724 H   0  0  0  0  0  0  0  0  0  0  0  0
   -3.7225   -0.5430   -1.6964 H   0  0  0  0  0  0  0  0  0  0  0  0
   -2.2148   -1.6564   -0.0738 H   0  0  0  0  0  0  0  0  0  0  0  0
   -3.2243   -2.7116    1.9092 H   0  0  0  0  0  0  0  0  0  0  0  0
   -3.2512    3.0622   -0.3263 O   0  0  0  0  0  0  0  0  0  0  0  0
   -3.4499    1.9925   -0.8440 C   0  0  0  0  0  0  0  0  0  0  0  0
   -3.5253    0.8676   -0.1369 O   0  0  0  0  0  0  0  0  0  0  0  0
   -3.5837    1.9034   -2.3882 C   0  0  0  0  0  0  0  0  0  0  0  0
   -2.6491    1.0705   -2.9038 F   0  0  0  0  0  0  0  0  0  0  0  0
   -4.7988    1.4254   -2.7514 F   0  0  0  0  0  0  0  0  0  0  0  0
   -3.4285    3.1007   -2.9448 F   0  0  0  0  0  0  0  0  0  0  0  0
  1  2  1  0  0  0  0
  2  3  1  0  0  0  0
  4  9  1  0  0  0  0
  4  1  2  0  0  0  0
  5  4  1  0  0  0  0
  6 11  1  6  0  0  0
  6  5  1  0  0  0  0
  6 16  1  0  0  0  0
  6  7  1  0  0  0  0
  7  8  2  0  0  0  0
  8  1  1  0  0  0  0
  8 13  1  0  0  0  0
 10  5  1  0  0  0  0
 12  7  1  0  0  0  0
 15 14  2  0  0  0  0
 15 16  1  0  0  0  0
 17 15  1  0  0  0  0
 18 17  1  0  0  0  0
 19 17  1  0  0  0  0
 20 17  1  0  0  0  0
M  RAD  3   2   2   3   3   5   2
M  END
