Coordinates from ORCA-job PhN2+~CF3COO-_B3LYPG-6-31G_dp-NX-Scan-d89-09-n800
 OpenBabel11261920123D

 20 20  0  0  1  0  0  0  0  0999 V2000
   -5.2465   -1.9685    1.5644 C   0  0  0  0  0  0  0  0  0  0  0  0
   -5.7990   -2.7882    2.4310 N   0  0  0  0  0  0  0  0  0  0  0  0
   -6.2790   -3.5053    3.1826 N   0  0  0  0  0  0  0  0  0  0  0  0
   -6.0705   -1.0820    0.7674 C   0  0  0  0  0  0  0  0  0  0  0  0
   -5.5139   -0.2953   -0.1731 C   0  0  0  0  0  0  0  0  0  0  0  0
   -4.0420   -0.2633   -0.4458 C   0  0  2  0  0  0  0  0  0  0  0  0
   -3.2520   -1.1891    0.4261 C   0  0  0  0  0  0  0  0  0  0  0  0
   -3.8114   -1.9777    1.3627 C   0  0  0  0  0  0  0  0  0  0  0  0
   -7.1437   -1.0802    0.9328 H   0  0  0  0  0  0  0  0  0  0  0  0
   -6.1381    0.3522   -0.7789 H   0  0  0  0  0  0  0  0  0  0  0  0
   -3.8261   -0.4543   -1.4984 H   0  0  0  0  0  0  0  0  0  0  0  0
   -2.1777   -1.2062    0.2717 H   0  0  0  0  0  0  0  0  0  0  0  0
   -3.2038   -2.6425    1.9686 H   0  0  0  0  0  0  0  0  0  0  0  0
   -2.7915    3.1345   -0.7736 O   0  0  0  0  0  0  0  0  0  0  0  0
   -3.2634    2.0644   -1.0644 C   0  0  0  0  0  0  0  0  0  0  0  0
   -3.5242    1.1236   -0.1522 O   0  0  0  0  0  0  0  0  0  0  0  0
   -3.5815    1.7673   -2.5567 C   0  0  0  0  0  0  0  0  0  0  0  0
   -2.7841    0.7808   -3.0314 F   0  0  0  0  0  0  0  0  0  0  0  0
   -4.8660    1.3710   -2.7215 F   0  0  0  0  0  0  0  0  0  0  0  0
   -3.3855    2.8518   -3.2994 F   0  0  0  0  0  0  0  0  0  0  0  0
  1  2  1  0  0  0  0
  2  3  1  0  0  0  0
  4  9  1  0  0  0  0
  4  1  2  0  0  0  0
  5  4  1  0  0  0  0
  6 11  1  6  0  0  0
  6  5  1  0  0  0  0
  6 16  1  0  0  0  0
  6  7  1  0  0  0  0
  7  8  2  0  0  0  0
  8  1  1  0  0  0  0
  8 13  1  0  0  0  0
 10  5  1  0  0  0  0
 12  7  1  0  0  0  0
 15 14  2  0  0  0  0
 15 16  1  0  0  0  0
 17 15  1  0  0  0  0
 18 17  1  0  0  0  0
 19 17  1  0  0  0  0
 20 17  1  0  0  0  0
M  RAD  3   2   2   3   3   5   2
M  END
