Coordinates from ORCA-job PhN2+~CF3COO-_B3LYPG-6-31G_dp-NX-Scan-d89-09-n800
 OpenBabel11261920123D

 20 20  0  0  1  0  0  0  0  0999 V2000
   -5.1402   -1.6782    1.5293 C   0  0  1  0  0  0  0  0  0  0  0  0
   -5.6050   -1.8141    2.7508 N   0  0  0  0  0  0  0  0  0  0  0  0
   -6.0088   -1.8922    3.8148 N   0  0  0  0  0  0  0  0  0  0  0  0
   -5.9756   -1.0776    0.5104 C   0  0  0  0  0  0  0  0  0  0  0  0
   -5.4099   -0.6838   -0.6470 C   0  0  0  0  0  0  0  0  0  0  0  0
   -3.9199   -0.6592   -0.7823 C   0  0  2  0  0  0  0  0  0  0  0  0
   -3.2423   -1.7038    0.0452 C   0  0  0  0  0  0  0  0  0  0  0  0
   -3.7934   -2.1049    1.2069 C   0  0  0  0  0  0  0  0  0  0  0  0
   -7.0428   -0.9890    0.6895 H   0  0  0  0  0  0  0  0  0  0  0  0
   -6.0113   -0.2772   -1.4509 H   0  0  0  0  0  0  0  0  0  0  0  0
   -3.5849   -0.6643   -1.8189 H   0  0  0  0  0  0  0  0  0  0  0  0
   -2.2543   -2.0397   -0.2480 H   0  0  0  0  0  0  0  0  0  0  0  0
   -3.2718   -2.7642    1.8941 H   0  0  0  0  0  0  0  0  0  0  0  0
   -3.6779    2.8418    0.0244 O   0  0  0  0  0  0  0  0  0  0  0  0
   -3.6164    1.8551   -0.6644 C   0  0  0  0  0  0  0  0  0  0  0  0
   -3.4273    0.6400   -0.1558 O   0  0  0  0  0  0  0  0  0  0  0  0
   -3.6672    1.9809   -2.2111 C   0  0  0  0  0  0  0  0  0  0  0  0
   -2.6436    1.3040   -2.7795 F   0  0  0  0  0  0  0  0  0  0  0  0
   -4.8174    1.4648   -2.7088 F   0  0  0  0  0  0  0  0  0  0  0  0
   -3.5897    3.2547   -2.5868 F   0  0  0  0  0  0  0  0  0  0  0  0
  1  2  1  1  0  0  0
  2  3  1  0  0  0  0
  4  9  1  0  0  0  0
  4  1  1  0  0  0  0
  5  4  2  0  0  0  0
  6 11  1  6  0  0  0
  6  5  1  0  0  0  0
  6 16  1  0  0  0  0
  6  7  1  0  0  0  0
  7  8  2  0  0  0  0
  8  1  1  0  0  0  0
  8 13  1  0  0  0  0
 10  5  1  0  0  0  0
 12  7  1  0  0  0  0
 15 16  1  0  0  0  0
 15 14  2  0  0  0  0
 17 15  1  0  0  0  0
 18 17  1  0  0  0  0
 19 17  1  0  0  0  0
 20 17  1  0  0  0  0
M  RAD  3   1   2   2   2   3   3
M  END
