Coordinates from ORCA-job PhN2+~CF3COO-_B3LYPG-6-31G_dp-NX-Scan-d89-09-n800
 OpenBabel11261920123D

 20 20  0  0  0  0  0  0  0  0999 V2000
   -3.7944   -1.1428    0.2230 C   0  0  0  0  0  0  0  0  0  0  0  0
   -3.4131    0.0987    0.8107 N   0  0  0  0  0  0  0  0  0  0  0  0
   -3.9945    1.2095    0.3929 N   0  0  0  0  0  0  0  0  0  0  0  0
   -4.6379   -1.4204   -0.8773 C   0  0  0  0  0  0  0  0  0  0  0  0
   -4.8441   -2.7398   -1.2890 C   0  0  0  0  0  0  0  0  0  0  0  0
   -4.2334   -3.8052   -0.6308 C   0  0  0  0  0  0  0  0  0  0  0  0
   -3.3958   -3.5433    0.4583 C   0  0  0  0  0  0  0  0  0  0  0  0
   -3.1805   -2.2356    0.8726 C   0  0  0  0  0  0  0  0  0  0  0  0
   -5.1347   -0.6328   -1.4252 H   0  0  0  0  0  0  0  0  0  0  0  0
   -5.4936   -2.9290   -2.1396 H   0  0  0  0  0  0  0  0  0  0  0  0
   -4.4051   -4.8254   -0.9609 H   0  0  0  0  0  0  0  0  0  0  0  0
   -2.9099   -4.3609    0.9829 H   0  0  0  0  0  0  0  0  0  0  0  0
   -2.5311   -2.0131    1.7134 H   0  0  0  0  0  0  0  0  0  0  0  0
   -4.6706    1.2529   -0.2873 O   0  0  0  0  0  0  0  0  0  0  0  0
   -5.3484    2.7125   -0.7379 C   0  0  0  0  0  0  0  0  0  0  0  0
   -6.1677    2.6886   -1.5782 O   0  0  0  0  0  0  0  0  0  0  0  0
   -4.7591    3.9100    0.0547 C   0  0  0  0  0  0  0  0  0  0  0  0
   -3.4468    3.9929   -0.1731 F   0  0  0  0  0  0  0  0  0  0  0  0
   -5.3498    5.0353   -0.3553 F   0  0  0  0  0  0  0  0  0  0  0  0
   -4.9895    3.7411    1.3582 F   0  0  0  0  0  0  0  0  0  0  0  0
  1  2  1  0  0  0  0
  1  8  2  0  0  0  0
  3  2  2  0  0  0  0
  4  1  1  0  0  0  0
  5  4  2  0  0  0  0
  5  6  1  0  0  0  0
  6  7  2  0  0  0  0
  7  8  1  0  0  0  0
  7 12  1  0  0  0  0
  8 13  1  0  0  0  0
  9  4  1  0  0  0  0
 10  5  1  0  0  0  0
 11  6  1  0  0  0  0
 14  3  1  0  0  0  0
 15 14  1  0  0  0  0
 15 17  1  0  0  0  0
 16 15  2  0  0  0  0
 17 20  1  0  0  0  0
 18 17  1  0  0  0  0
 19 17  1  0  0  0  0
M  END
