Coordinates from ORCA-job PhN2+~CF3COO-_B3LYPG-6-31G_dp-NX-Scan-d89-09-n800
 OpenBabel11261920123D

 20 20  0  0  0  0  0  0  0  0999 V2000
   -3.8302   -1.1115    0.2189 C   0  0  0  0  0  0  0  0  0  0  0  0
   -3.4692    0.1305    0.8136 N   0  0  0  0  0  0  0  0  0  0  0  0
   -3.9064    1.2610    0.5236 N   0  0  0  0  0  0  0  0  0  0  0  0
   -4.6872   -1.3858   -0.8708 C   0  0  0  0  0  0  0  0  0  0  0  0
   -4.8732   -2.7048   -1.2818 C   0  0  0  0  0  0  0  0  0  0  0  0
   -4.2303   -3.7603   -0.6317 C   0  0  0  0  0  0  0  0  0  0  0  0
   -3.3817   -3.4976    0.4458 C   0  0  0  0  0  0  0  0  0  0  0  0
   -3.1831   -2.1858    0.8608 C   0  0  0  0  0  0  0  0  0  0  0  0
   -5.2000   -0.5951   -1.3949 H   0  0  0  0  0  0  0  0  0  0  0  0
   -5.5306   -2.9071   -2.1223 H   0  0  0  0  0  0  0  0  0  0  0  0
   -4.3898   -4.7815   -0.9654 H   0  0  0  0  0  0  0  0  0  0  0  0
   -2.8760   -4.3105    0.9572 H   0  0  0  0  0  0  0  0  0  0  0  0
   -2.5261   -1.9504    1.6915 H   0  0  0  0  0  0  0  0  0  0  0  0
   -4.7720    1.3114   -0.4050 O   0  0  0  0  0  0  0  0  0  0  0  0
   -5.2690    2.5594   -0.7319 C   0  0  0  0  0  0  0  0  0  0  0  0
   -6.0821    2.6528   -1.6007 O   0  0  0  0  0  0  0  0  0  0  0  0
   -4.7319    3.7858    0.0607 C   0  0  0  0  0  0  0  0  0  0  0  0
   -3.4118    3.9303   -0.1113 F   0  0  0  0  0  0  0  0  0  0  0  0
   -5.3423    4.8765   -0.4107 F   0  0  0  0  0  0  0  0  0  0  0  0
   -5.0071    3.6759    1.3665 F   0  0  0  0  0  0  0  0  0  0  0  0
  1  2  1  0  0  0  0
  1  8  2  0  0  0  0
  3  2  2  0  0  0  0
  4  1  1  0  0  0  0
  5  4  2  0  0  0  0
  5  6  1  0  0  0  0
  6  7  2  0  0  0  0
  7  8  1  0  0  0  0
  7 12  1  0  0  0  0
  8 13  1  0  0  0  0
  9  4  1  0  0  0  0
 10  5  1  0  0  0  0
 11  6  1  0  0  0  0
 14  3  1  0  0  0  0
 15 14  1  0  0  0  0
 15 17  1  0  0  0  0
 16 15  2  0  0  0  0
 17 20  1  0  0  0  0
 18 17  1  0  0  0  0
 19 17  1  0  0  0  0
M  END
