Coordinates from ORCA-job PhN2+~CF3COO-_B3LYPG-6-31G_dp-NX-Scan-d89-09-n800
 OpenBabel11261920123D

 20 20  0  0  1  0  0  0  0  0999 V2000
   -5.1821   -1.7858    1.5636 C   0  0  0  0  0  0  0  0  0  0  0  0
   -5.6861   -2.1609    2.7174 N   0  0  0  0  0  0  0  0  0  0  0  0
   -6.1240   -2.4621    3.7273 N   0  0  0  0  0  0  0  0  0  0  0  0
   -6.0199   -1.1007    0.6032 C   0  0  0  0  0  0  0  0  0  0  0  0
   -5.4645   -0.5765   -0.5059 C   0  0  0  0  0  0  0  0  0  0  0  0
   -3.9812   -0.5326   -0.6859 C   0  0  2  0  0  0  0  0  0  0  0  0
   -3.2485   -1.5391    0.1401 C   0  0  0  0  0  0  0  0  0  0  0  0
   -3.7971   -2.0679    1.2501 C   0  0  0  0  0  0  0  0  0  0  0  0
   -7.0894   -1.0504    0.7833 H   0  0  0  0  0  0  0  0  0  0  0  0
   -6.0808   -0.0921   -1.2543 H   0  0  0  0  0  0  0  0  0  0  0  0
   -3.6836   -0.5747   -1.7330 H   0  0  0  0  0  0  0  0  0  0  0  0
   -2.2226   -1.7657   -0.1284 H   0  0  0  0  0  0  0  0  0  0  0  0
   -3.2362   -2.7288    1.9038 H   0  0  0  0  0  0  0  0  0  0  0  0
   -3.3677    3.0171   -0.2277 O   0  0  0  0  0  0  0  0  0  0  0  0
   -3.4949    1.9612   -0.7939 C   0  0  0  0  0  0  0  0  0  0  0  0
   -3.4993    0.8029   -0.1395 O   0  0  0  0  0  0  0  0  0  0  0  0
   -3.6045    1.9281   -2.3421 C   0  0  0  0  0  0  0  0  0  0  0  0
   -2.6439    1.1369   -2.8742 F   0  0  0  0  0  0  0  0  0  0  0  0
   -4.8026    1.4350   -2.7407 F   0  0  0  0  0  0  0  0  0  0  0  0
   -3.4711    3.1490   -2.8513 F   0  0  0  0  0  0  0  0  0  0  0  0
  1  2  1  0  0  0  0
  2  3  1  0  0  0  0
  4  9  1  0  0  0  0
  4  1  2  0  0  0  0
  5  4  1  0  0  0  0
  6 11  1  6  0  0  0
  6  5  1  0  0  0  0
  6 16  1  0  0  0  0
  6  7  1  0  0  0  0
  7  8  2  0  0  0  0
  8  1  1  0  0  0  0
  8 13  1  0  0  0  0
 10  5  1  0  0  0  0
 12  7  1  0  0  0  0
 15 14  2  0  0  0  0
 15 16  1  0  0  0  0
 17 15  1  0  0  0  0
 18 17  1  0  0  0  0
 19 17  1  0  0  0  0
 20 17  1  0  0  0  0
M  RAD  3   2   2   3   3   5   2
M  END
