Coordinates from ORCA-job PhN2+~CF3COO-_B3LYPG-6-31G_dp-NX-Scan-d89-09-n800
 OpenBabel11261920123D

 20 20  0  0  1  0  0  0  0  0999 V2000
   -5.1648   -1.7405    1.5502 C   0  0  0  0  0  0  0  0  0  0  0  0
   -5.6543   -2.0122    2.7388 N   0  0  0  0  0  0  0  0  0  0  0  0
   -6.0797   -2.2167    3.7773 N   0  0  0  0  0  0  0  0  0  0  0  0
   -6.0014   -1.0933    0.5624 C   0  0  0  0  0  0  0  0  0  0  0  0
   -5.4413   -0.6257   -0.5696 C   0  0  0  0  0  0  0  0  0  0  0  0
   -3.9550   -0.5882   -0.7290 C   0  0  2  0  0  0  0  0  0  0  0  0
   -3.2448   -1.6117    0.0963 C   0  0  0  0  0  0  0  0  0  0  0  0
   -3.7949   -2.0848    1.2307 C   0  0  0  0  0  0  0  0  0  0  0  0
   -7.0702   -1.0276    0.7418 H   0  0  0  0  0  0  0  0  0  0  0  0
   -6.0513   -0.1753   -1.3436 H   0  0  0  0  0  0  0  0  0  0  0  0
   -3.6401   -0.6108   -1.7714 H   0  0  0  0  0  0  0  0  0  0  0  0
   -2.2339   -1.8853   -0.1842 H   0  0  0  0  0  0  0  0  0  0  0  0
   -3.2503   -2.7450    1.8989 H   0  0  0  0  0  0  0  0  0  0  0  0
   -3.4974    2.9518   -0.1170 O   0  0  0  0  0  0  0  0  0  0  0  0
   -3.5457    1.9197   -0.7369 C   0  0  0  0  0  0  0  0  0  0  0  0
   -3.4710    0.7316   -0.1435 O   0  0  0  0  0  0  0  0  0  0  0  0
   -3.6305    1.9526   -2.2866 C   0  0  0  0  0  0  0  0  0  0  0  0
   -2.6442    1.2075   -2.8368 F   0  0  0  0  0  0  0  0  0  0  0  0
   -4.8102    1.4492   -2.7254 F   0  0  0  0  0  0  0  0  0  0  0  0
   -3.5189    3.1976   -2.7405 F   0  0  0  0  0  0  0  0  0  0  0  0
  1  2  1  0  0  0  0
  2  3  1  0  0  0  0
  4  9  1  0  0  0  0
  4  1  2  0  0  0  0
  5  4  1  0  0  0  0
  6 11  1  6  0  0  0
  6  5  1  0  0  0  0
  6 16  1  0  0  0  0
  6  7  1  0  0  0  0
  7  8  2  0  0  0  0
  8  1  1  0  0  0  0
  8 13  1  0  0  0  0
 10  5  1  0  0  0  0
 12  7  1  0  0  0  0
 15 16  1  0  0  0  0
 15 14  2  0  0  0  0
 17 15  1  0  0  0  0
 18 17  1  0  0  0  0
 19 17  1  0  0  0  0
 20 17  1  0  0  0  0
M  RAD  3   2   2   3   3   5   2
M  END
