Coordinates from ORCA-job PhN2+~CF3COO-_B3LYPG-6-31G_dp-NX-Scan-d89-09-n800
 OpenBabel11261920123D

 20 20  0  0  1  0  0  0  0  0999 V2000
   -5.0001   -1.4982    1.3677 C   0  0  1  0  0  0  0  0  0  0  0  0
   -5.3131   -0.5225    2.2030 N   0  0  0  0  0  0  0  0  0  0  0  0
   -5.5092    0.4482    2.7507 N   0  0  0  0  0  0  0  0  0  0  0  0
   -5.9057   -1.6570    0.2371 C   0  0  0  0  0  0  0  0  0  0  0  0
   -5.3896   -1.6595   -1.0063 C   0  0  0  0  0  0  0  0  0  0  0  0
   -3.9505   -1.3201   -1.2098 C   0  0  2  0  0  0  0  0  0  0  0  0
   -3.0761   -1.7211   -0.0685 C   0  0  0  0  0  0  0  0  0  0  0  0
   -3.5714   -1.7183    1.1832 C   0  0  0  0  0  0  0  0  0  0  0  0
   -6.9722   -1.7541    0.4206 H   0  0  0  0  0  0  0  0  0  0  0  0
   -6.0137   -1.8297   -1.8777 H   0  0  0  0  0  0  0  0  0  0  0  0
   -3.5730   -1.6839   -2.1650 H   0  0  0  0  0  0  0  0  0  0  0  0
   -2.0306   -1.9368   -0.2635 H   0  0  0  0  0  0  0  0  0  0  0  0
   -2.9388   -1.8598    2.0551 H   0  0  0  0  0  0  0  0  0  0  0  0
   -4.5822    1.0680    0.5109 O   0  0  0  0  0  0  0  0  0  0  0  0
   -4.1244    1.1396   -0.6093 C   0  0  0  0  0  0  0  0  0  0  0  0
   -3.7986    0.1931   -1.4826 O   0  0  0  0  0  0  0  0  0  0  0  0
   -3.8112    2.5137   -1.2583 C   0  0  0  0  0  0  0  0  0  0  0  0
   -2.4966    2.6175   -1.5320 F   0  0  0  0  0  0  0  0  0  0  0  0
   -4.4926    2.6645   -2.4096 F   0  0  0  0  0  0  0  0  0  0  0  0
   -4.1502    3.5093   -0.4335 F   0  0  0  0  0  0  0  0  0  0  0  0
  1  2  1  6  0  0  0
  2  3  1  0  0  0  0
  4  9  1  0  0  0  0
  4  1  1  0  0  0  0
  5  4  2  0  0  0  0
  6 11  1  6  0  0  0
  6  5  1  0  0  0  0
  6  7  1  0  0  0  0
  7  8  2  0  0  0  0
  8  1  1  0  0  0  0
  8 13  1  0  0  0  0
 10  5  1  0  0  0  0
 12  7  1  0  0  0  0
 15 14  2  0  0  0  0
 16  6  1  0  0  0  0
 16 15  1  0  0  0  0
 17 15  1  0  0  0  0
 17 20  1  0  0  0  0
 18 17  1  0  0  0  0
 19 17  1  0  0  0  0
M  RAD  3   1   2   2   2   3   3
M  END
