Coordinates from ORCA-job PhN2+~CF3COO-_B3LYPG-6-31G_dp-NX-Scan-d89-09-n800
 OpenBabel11261920123D

 20 20  0  0  1  0  0  0  0  0999 V2000
   -5.0647   -1.5266    1.5219 C   0  0  0  0  0  0  0  0  0  0  0  0
   -5.5607   -1.5981    2.7365 N   0  0  0  0  0  0  0  0  0  0  0  0
   -5.9917   -1.6580    3.7927 N   0  0  0  0  0  0  0  0  0  0  0  0
   -5.9535   -1.4666    0.3818 C   0  0  0  0  0  0  0  0  0  0  0  0
   -5.4465   -1.3221   -0.8564 C   0  0  0  0  0  0  0  0  0  0  0  0
   -3.9835   -1.1415   -1.1077 C   0  0  2  0  0  0  0  0  0  0  0  0
   -3.1222   -1.3893    0.0893 C   0  0  0  0  0  0  0  0  0  0  0  0
   -3.6310   -1.5326    1.3269 C   0  0  0  0  0  0  0  0  0  0  0  0
   -7.0222   -1.5653    0.5472 H   0  0  0  0  0  0  0  0  0  0  0  0
   -6.1047   -1.3055   -1.7193 H   0  0  0  0  0  0  0  0  0  0  0  0
   -3.6536   -1.7416   -1.9614 H   0  0  0  0  0  0  0  0  0  0  0  0
   -2.0485   -1.4220   -0.0690 H   0  0  0  0  0  0  0  0  0  0  0  0
   -2.9876   -1.6788    2.1890 H   0  0  0  0  0  0  0  0  0  0  0  0
   -4.4291    1.3938    0.1464 O   0  0  0  0  0  0  0  0  0  0  0  0
   -3.9721    1.3144   -0.9663 C   0  0  0  0  0  0  0  0  0  0  0  0
   -3.7064    0.2295   -1.6906 O   0  0  0  0  0  0  0  0  0  0  0  0
   -3.5937    2.5670   -1.7958 C   0  0  0  0  0  0  0  0  0  0  0  0
   -2.2795    2.5578   -2.0909 F   0  0  0  0  0  0  0  0  0  0  0  0
   -4.2826    2.5973   -2.9521 F   0  0  0  0  0  0  0  0  0  0  0  0
   -3.8661    3.6811   -1.1102 F   0  0  0  0  0  0  0  0  0  0  0  0
  1  2  1  0  0  0  0
  2  3  1  0  0  0  0
  4  9  1  0  0  0  0
  4  1  2  0  0  0  0
  5  4  1  0  0  0  0
  6 11  1  6  0  0  0
  6  5  1  0  0  0  0
  6  7  1  0  0  0  0
  7  8  2  0  0  0  0
  8  1  1  0  0  0  0
  8 13  1  0  0  0  0
 10  5  1  0  0  0  0
 12  7  1  0  0  0  0
 15 14  2  0  0  0  0
 16  6  1  0  0  0  0
 16 15  1  0  0  0  0
 17 20  1  0  0  0  0
 17 15  1  0  0  0  0
 18 17  1  0  0  0  0
 19 17  1  0  0  0  0
M  RAD  3   2   2   3   3   5   2
M  END
