Coordinates from ORCA-job PhN2+~CF3COO-_B3LYPG-6-31G_dp-NX-Scan-d89-09-n800
 OpenBabel11261920123D

 20 20  0  0  0  0  0  0  0  0999 V2000
   -3.8314   -1.1206    0.2241 C   0  0  0  0  0  0  0  0  0  0  0  0
   -3.4819    0.1228    0.8137 N   0  0  0  0  0  0  0  0  0  0  0  0
   -3.8881    1.2582    0.5521 N   0  0  0  0  0  0  0  0  0  0  0  0
   -4.6918   -1.3912   -0.8632 C   0  0  0  0  0  0  0  0  0  0  0  0
   -4.8743   -2.7096   -1.2760 C   0  0  0  0  0  0  0  0  0  0  0  0
   -4.2242   -3.7639   -0.6301 C   0  0  0  0  0  0  0  0  0  0  0  0
   -3.3725   -3.5025    0.4452 C   0  0  0  0  0  0  0  0  0  0  0  0
   -3.1771   -2.1913    0.8638 C   0  0  0  0  0  0  0  0  0  0  0  0
   -5.2065   -0.5966   -1.3787 H   0  0  0  0  0  0  0  0  0  0  0  0
   -5.5340   -2.9130   -2.1142 H   0  0  0  0  0  0  0  0  0  0  0  0
   -4.3811   -4.7848   -0.9659 H   0  0  0  0  0  0  0  0  0  0  0  0
   -2.8627   -4.3154    0.9522 H   0  0  0  0  0  0  0  0  0  0  0  0
   -2.5189   -1.9559    1.6934 H   0  0  0  0  0  0  0  0  0  0  0  0
   -4.8080    1.3245   -0.4482 O   0  0  0  0  0  0  0  0  0  0  0  0
   -5.2784    2.5735   -0.7518 C   0  0  0  0  0  0  0  0  0  0  0  0
   -6.0892    2.7046   -1.6224 O   0  0  0  0  0  0  0  0  0  0  0  0
   -4.7326    3.7846    0.0578 C   0  0  0  0  0  0  0  0  0  0  0  0
   -3.4083    3.9167   -0.1035 F   0  0  0  0  0  0  0  0  0  0  0  0
   -5.3252    4.8911   -0.3990 F   0  0  0  0  0  0  0  0  0  0  0  0
   -5.0136    3.6620    1.3628 F   0  0  0  0  0  0  0  0  0  0  0  0
  1  2  1  0  0  0  0
  1  8  2  0  0  0  0
  3  2  2  0  0  0  0
  4  1  1  0  0  0  0
  5  4  2  0  0  0  0
  5  6  1  0  0  0  0
  6  7  2  0  0  0  0
  7  8  1  0  0  0  0
  7 12  1  0  0  0  0
  8 13  1  0  0  0  0
  9  4  1  0  0  0  0
 10  5  1  0  0  0  0
 11  6  1  0  0  0  0
 14  3  1  0  0  0  0
 15 14  1  0  0  0  0
 15 17  1  0  0  0  0
 16 15  2  0  0  0  0
 17 20  1  0  0  0  0
 18 17  1  0  0  0  0
 19 17  1  0  0  0  0
M  END
