Coordinates from ORCA-job PhN2+~CF3COO-_B3LYPG-6-31G_dp-NX-Scan-d89-09-n800
 OpenBabel11261920123D

 20 20  0  0  1  0  0  0  0  0999 V2000
   -5.0004   -1.4481    1.3698 C   0  0  1  0  0  0  0  0  0  0  0  0
   -5.3982   -0.7328    2.3981 N   0  0  0  0  0  0  0  0  0  0  0  0
   -5.7202   -0.0448    3.2434 N   0  0  0  0  0  0  0  0  0  0  0  0
   -5.9050   -1.5810    0.2442 C   0  0  0  0  0  0  0  0  0  0  0  0
   -5.3920   -1.5965   -1.0007 C   0  0  0  0  0  0  0  0  0  0  0  0
   -3.9458   -1.3006   -1.2197 C   0  0  2  0  0  0  0  0  0  0  0  0
   -3.0759   -1.6586   -0.0612 C   0  0  0  0  0  0  0  0  0  0  0  0
   -3.5746   -1.6422    1.1894 C   0  0  0  0  0  0  0  0  0  0  0  0
   -6.9720   -1.6634    0.4303 H   0  0  0  0  0  0  0  0  0  0  0  0
   -6.0275   -1.7425   -1.8679 H   0  0  0  0  0  0  0  0  0  0  0  0
   -3.5776   -1.7220   -2.1552 H   0  0  0  0  0  0  0  0  0  0  0  0
   -2.0238   -1.8507   -0.2440 H   0  0  0  0  0  0  0  0  0  0  0  0
   -2.9437   -1.7688    2.0642 H   0  0  0  0  0  0  0  0  0  0  0  0
   -4.5398    1.0913    0.4100 O   0  0  0  0  0  0  0  0  0  0  0  0
   -4.0830    1.1536   -0.7090 C   0  0  0  0  0  0  0  0  0  0  0  0
   -3.7645    0.1898   -1.5656 O   0  0  0  0  0  0  0  0  0  0  0  0
   -3.7640    2.5172   -1.3746 C   0  0  0  0  0  0  0  0  0  0  0  0
   -2.4489    2.6119   -1.6500 F   0  0  0  0  0  0  0  0  0  0  0  0
   -4.4447    2.6568   -2.5278 F   0  0  0  0  0  0  0  0  0  0  0  0
   -4.0985    3.5242   -0.5618 F   0  0  0  0  0  0  0  0  0  0  0  0
  1  2  1  6  0  0  0
  2  3  1  0  0  0  0
  4  9  1  0  0  0  0
  4  1  1  0  0  0  0
  5  4  2  0  0  0  0
  6 11  1  6  0  0  0
  6  5  1  0  0  0  0
  6  7  1  0  0  0  0
  7  8  2  0  0  0  0
  8  1  1  0  0  0  0
  8 13  1  0  0  0  0
 10  5  1  0  0  0  0
 12  7  1  0  0  0  0
 15 14  2  0  0  0  0
 16  6  1  0  0  0  0
 16 15  1  0  0  0  0
 17 15  1  0  0  0  0
 17 20  1  0  0  0  0
 18 17  1  0  0  0  0
 19 17  1  0  0  0  0
M  RAD  3   1   2   2   2   3   3
M  END
