Coordinates from ORCA-job PhN2+~CF3COO-_B3LYPG-6-31G_dp-NX-Scan-d89-09-n800
 OpenBabel11261920123D

 20 20  0  0  1  0  0  0  0  0999 V2000
   -5.1946   -1.8202    1.5714 C   0  0  0  0  0  0  0  0  0  0  0  0
   -5.7070   -2.2742    2.6927 N   0  0  0  0  0  0  0  0  0  0  0  0
   -6.1521   -2.6495    3.6746 N   0  0  0  0  0  0  0  0  0  0  0  0
   -6.0342   -1.1058    0.6342 C   0  0  0  0  0  0  0  0  0  0  0  0
   -5.4829   -0.5369   -0.4545 C   0  0  0  0  0  0  0  0  0  0  0  0
   -4.0019   -0.4875   -0.6506 C   0  0  2  0  0  0  0  0  0  0  0  0
   -3.2521   -1.4799    0.1771 C   0  0  0  0  0  0  0  0  0  0  0  0
   -3.7990   -2.0528    1.2657 C   0  0  0  0  0  0  0  0  0  0  0  0
   -7.1043   -1.0683    0.8144 H   0  0  0  0  0  0  0  0  0  0  0  0
   -6.1041   -0.0270   -1.1820 H   0  0  0  0  0  0  0  0  0  0  0  0
   -3.7181   -0.5465   -1.7007 H   0  0  0  0  0  0  0  0  0  0  0  0
   -2.2157   -1.6691   -0.0804 H   0  0  0  0  0  0  0  0  0  0  0  0
   -3.2256   -2.7137    1.9084 H   0  0  0  0  0  0  0  0  0  0  0  0
   -3.2646    3.0577   -0.3149 O   0  0  0  0  0  0  0  0  0  0  0  0
   -3.4551    1.9892   -0.8382 C   0  0  0  0  0  0  0  0  0  0  0  0
   -3.5225    0.8602   -0.1371 O   0  0  0  0  0  0  0  0  0  0  0  0
   -3.5859    1.9064   -2.3830 C   0  0  0  0  0  0  0  0  0  0  0  0
   -2.6480    1.0783   -2.9004 F   0  0  0  0  0  0  0  0  0  0  0  0
   -4.7990    1.4262   -2.7504 F   0  0  0  0  0  0  0  0  0  0  0  0
   -3.4333    3.1065   -2.9343 F   0  0  0  0  0  0  0  0  0  0  0  0
  1  2  1  0  0  0  0
  2  3  1  0  0  0  0
  4  9  1  0  0  0  0
  4  1  2  0  0  0  0
  5  4  1  0  0  0  0
  6 11  1  6  0  0  0
  6  5  1  0  0  0  0
  6 16  1  0  0  0  0
  6  7  1  0  0  0  0
  7  8  2  0  0  0  0
  8  1  1  0  0  0  0
  8 13  1  0  0  0  0
 10  5  1  0  0  0  0
 12  7  1  0  0  0  0
 15 14  2  0  0  0  0
 15 16  1  0  0  0  0
 17 15  1  0  0  0  0
 18 17  1  0  0  0  0
 19 17  1  0  0  0  0
 20 17  1  0  0  0  0
M  RAD  3   2   2   3   3   5   2
M  END
