Coordinates from ORCA-job PhN2+~CF3COO-_B3LYPG-6-31G_dp-NX-Scan-d89-09-n800
 OpenBabel11261920123D

 20 20  0  0  1  0  0  0  0  0999 V2000
   -5.0970   -1.4425    1.3953 C   0  0  0  0  0  0  0  0  0  0  0  0
   -5.6872   -1.3611    2.5682 N   0  0  0  0  0  0  0  0  0  0  0  0
   -6.1942   -1.2546    3.5841 N   0  0  0  0  0  0  0  0  0  0  0  0
   -5.7739   -0.9403    0.2201 C   0  0  0  0  0  0  0  0  0  0  0  0
   -5.0752   -0.7924   -0.9246 C   0  0  0  0  0  0  0  0  0  0  0  0
   -3.5869   -0.9263   -0.9226 C   0  0  2  0  0  0  0  0  0  0  0  0
   -3.0945   -1.8716    0.1260 C   0  0  0  0  0  0  0  0  0  0  0  0
   -3.7783   -2.0311    1.2757 C   0  0  0  0  0  0  0  0  0  0  0  0
   -6.8379   -0.7314    0.2728 H   0  0  0  0  0  0  0  0  0  0  0  0
   -5.5702   -0.4828   -1.8369 H   0  0  0  0  0  0  0  0  0  0  0  0
   -3.1840   -1.1383   -1.9125 H   0  0  0  0  0  0  0  0  0  0  0  0
   -2.1223   -2.3323   -0.0083 H   0  0  0  0  0  0  0  0  0  0  0  0
   -3.3846   -2.6114    2.1041 H   0  0  0  0  0  0  0  0  0  0  0  0
   -3.7057    2.2895    0.4162 O   0  0  0  0  0  0  0  0  0  0  0  0
   -3.5951    1.5601   -0.5362 C   0  0  0  0  0  0  0  0  0  0  0  0
   -2.9255    0.4046   -0.5191 O   0  0  0  0  0  0  0  0  0  0  0  0
   -4.1446    2.0435   -1.9062 C   0  0  0  0  0  0  0  0  0  0  0  0
   -3.9166    1.1602   -2.9041 F   0  0  0  0  0  0  0  0  0  0  0  0
   -5.4722    2.2515   -1.8395 F   0  0  0  0  0  0  0  0  0  0  0  0
   -3.5540    3.2001   -2.2404 F   0  0  0  0  0  0  0  0  0  0  0  0
  1  2  1  0  0  0  0
  2  3  1  0  0  0  0
  4  9  1  0  0  0  0
  4  1  2  0  0  0  0
  5  6  1  0  0  0  0
  5  4  1  0  0  0  0
  6 11  1  6  0  0  0
  6 16  1  0  0  0  0
  6  7  1  0  0  0  0
  7  8  2  0  0  0  0
  8  1  1  0  0  0  0
  8 13  1  0  0  0  0
 10  5  1  0  0  0  0
 12  7  1  0  0  0  0
 15 16  1  0  0  0  0
 15 14  2  0  0  0  0
 17 19  1  0  0  0  0
 17 15  1  0  0  0  0
 18 17  1  0  0  0  0
 20 17  1  0  0  0  0
M  RAD  3   2   2   3   3   5   2
M  END
