Coordinates from ORCA-job PhN2+~CF3COO-_B3LYPG-6-31G_dp-NX-Scan-d89-09-n800
 OpenBabel11261920123D

 20 20  0  0  1  0  0  0  0  0999 V2000
   -5.0618   -1.5153    1.5145 C   0  0  0  0  0  0  0  0  0  0  0  0
   -5.5573   -1.5612    2.7306 N   0  0  0  0  0  0  0  0  0  0  0  0
   -5.9879   -1.5972    3.7879 N   0  0  0  0  0  0  0  0  0  0  0  0
   -5.9511   -1.4685    0.3744 C   0  0  0  0  0  0  0  0  0  0  0  0
   -5.4439   -1.3363   -0.8651 C   0  0  0  0  0  0  0  0  0  0  0  0
   -3.9816   -1.1500   -1.1156 C   0  0  2  0  0  0  0  0  0  0  0  0
   -3.1197   -1.4007    0.0802 C   0  0  0  0  0  0  0  0  0  0  0  0
   -3.6283   -1.5317    1.3194 C   0  0  0  0  0  0  0  0  0  0  0  0
   -7.0195   -1.5675    0.5411 H   0  0  0  0  0  0  0  0  0  0  0  0
   -6.1013   -1.3309   -1.7286 H   0  0  0  0  0  0  0  0  0  0  0  0
   -3.6493   -1.7428   -1.9732 H   0  0  0  0  0  0  0  0  0  0  0  0
   -2.0466   -1.4426   -0.0794 H   0  0  0  0  0  0  0  0  0  0  0  0
   -2.9855   -1.6760    2.1822 H   0  0  0  0  0  0  0  0  0  0  0  0
   -4.4295    1.3772    0.1579 O   0  0  0  0  0  0  0  0  0  0  0  0
   -3.9768    1.3061   -0.9573 C   0  0  0  0  0  0  0  0  0  0  0  0
   -3.7095    0.2273   -1.6894 O   0  0  0  0  0  0  0  0  0  0  0  0
   -3.6004    2.5654   -1.7775 C   0  0  0  0  0  0  0  0  0  0  0  0
   -2.2860    2.5608   -2.0720 F   0  0  0  0  0  0  0  0  0  0  0  0
   -4.2887    2.6030   -2.9340 F   0  0  0  0  0  0  0  0  0  0  0  0
   -3.8751    3.6742   -1.0841 F   0  0  0  0  0  0  0  0  0  0  0  0
  1  2  1  0  0  0  0
  2  3  1  0  0  0  0
  4  9  1  0  0  0  0
  4  1  2  0  0  0  0
  5  4  1  0  0  0  0
  6 11  1  6  0  0  0
  6  5  1  0  0  0  0
  6  7  1  0  0  0  0
  7  8  2  0  0  0  0
  8  1  1  0  0  0  0
  8 13  1  0  0  0  0
 10  5  1  0  0  0  0
 12  7  1  0  0  0  0
 15 14  2  0  0  0  0
 16  6  1  0  0  0  0
 16 15  1  0  0  0  0
 17 20  1  0  0  0  0
 17 15  1  0  0  0  0
 18 17  1  0  0  0  0
 19 17  1  0  0  0  0
M  RAD  3   2   2   3   3   5   2
M  END
