Coordinates from ORCA-job PhN2+~CF3COO-_B3LYPG-6-31G_dp-NX-Scan-d89-09-n800
 OpenBabel11261920123D

 20 20  0  0  1  0  0  0  0  0999 V2000
   -5.2590   -2.0133    1.5370 C   0  0  0  0  0  0  0  0  0  0  0  0
   -5.8218   -2.9302    2.2950 N   0  0  0  0  0  0  0  0  0  0  0  0
   -6.3110   -3.7359    2.9473 N   0  0  0  0  0  0  0  0  0  0  0  0
   -6.0704   -1.0622    0.8003 C   0  0  0  0  0  0  0  0  0  0  0  0
   -5.5040   -0.2044   -0.0705 C   0  0  0  0  0  0  0  0  0  0  0  0
   -4.0341   -0.1894   -0.3686 C   0  0  2  0  0  0  0  0  0  0  0  0
   -3.2465   -1.0977    0.5279 C   0  0  0  0  0  0  0  0  0  0  0  0
   -3.8159   -1.9575    1.3942 C   0  0  0  0  0  0  0  0  0  0  0  0
   -7.1448   -1.0630    0.9584 H   0  0  0  0  0  0  0  0  0  0  0  0
   -6.1224    0.4934   -0.6242 H   0  0  0  0  0  0  0  0  0  0  0  0
   -3.8424   -0.4388   -1.4150 H   0  0  0  0  0  0  0  0  0  0  0  0
   -2.1662   -1.0637    0.4266 H   0  0  0  0  0  0  0  0  0  0  0  0
   -3.2064   -2.6264    1.9937 H   0  0  0  0  0  0  0  0  0  0  0  0
   -2.6676    3.1304   -0.9375 O   0  0  0  0  0  0  0  0  0  0  0  0
   -3.2101    2.0728   -1.1407 C   0  0  0  0  0  0  0  0  0  0  0  0
   -3.4888    1.1996   -0.1636 O   0  0  0  0  0  0  0  0  0  0  0  0
   -3.6068    1.7094   -2.5995 C   0  0  0  0  0  0  0  0  0  0  0  0
   -2.8574    0.6787   -3.0579 F   0  0  0  0  0  0  0  0  0  0  0  0
   -4.9070    1.3423   -2.6854 F   0  0  0  0  0  0  0  0  0  0  0  0
   -3.4171    2.7492   -3.4052 F   0  0  0  0  0  0  0  0  0  0  0  0
  1  2  1  0  0  0  0
  2  3  1  0  0  0  0
  4  9  1  0  0  0  0
  4  1  2  0  0  0  0
  5  4  1  0  0  0  0
  6 11  1  6  0  0  0
  6 16  1  0  0  0  0
  6  5  1  0  0  0  0
  6  7  1  0  0  0  0
  7  8  2  0  0  0  0
  8  1  1  0  0  0  0
  8 13  1  0  0  0  0
 10  5  1  0  0  0  0
 12  7  1  0  0  0  0
 15 14  2  0  0  0  0
 15 16  1  0  0  0  0
 17 15  1  0  0  0  0
 18 17  1  0  0  0  0
 19 17  1  0  0  0  0
 20 17  1  0  0  0  0
M  RAD  3   2   2   3   3   5   2
M  END
