Coordinates from ORCA-job PhN2+~CF3COO-_B3LYPG-6-31G_dp-NX-Scan-d89-09-n800
 OpenBabel11261920123D

 20 20  0  0  1  0  0  0  0  0999 V2000
   -5.1357   -1.6653    1.5245 C   0  0  1  0  0  0  0  0  0  0  0  0
   -5.5974   -1.7778    2.7494 N   0  0  0  0  0  0  0  0  0  0  0  0
   -5.9985   -1.8341    3.8154 N   0  0  0  0  0  0  0  0  0  0  0  0
   -5.9692   -1.0716    0.5001 C   0  0  0  0  0  0  0  0  0  0  0  0
   -5.4013   -0.6920   -0.6608 C   0  0  0  0  0  0  0  0  0  0  0  0
   -3.9107   -0.6729   -0.7913 C   0  0  2  0  0  0  0  0  0  0  0  0
   -3.2407   -1.7208    0.0383 C   0  0  0  0  0  0  0  0  0  0  0  0
   -3.7935   -2.1080    1.2040 C   0  0  0  0  0  0  0  0  0  0  0  0
   -7.0360   -0.9773    0.6782 H   0  0  0  0  0  0  0  0  0  0  0  0
   -6.0001   -0.2926   -1.4701 H   0  0  0  0  0  0  0  0  0  0  0  0
   -3.5722   -0.6776   -1.8268 H   0  0  0  0  0  0  0  0  0  0  0  0
   -2.2573   -2.0689   -0.2556 H   0  0  0  0  0  0  0  0  0  0  0  0
   -3.2776   -2.7674    1.8952 H   0  0  0  0  0  0  0  0  0  0  0  0
   -3.7075    2.8164    0.0507 O   0  0  0  0  0  0  0  0  0  0  0  0
   -3.6263    1.8408   -0.6516 C   0  0  0  0  0  0  0  0  0  0  0  0
   -3.4145    0.6226   -0.1600 O   0  0  0  0  0  0  0  0  0  0  0  0
   -3.6780    1.9854   -2.1967 C   0  0  0  0  0  0  0  0  0  0  0  0
   -2.6489    1.3239   -2.7729 F   0  0  0  0  0  0  0  0  0  0  0  0
   -4.8238    1.4659   -2.7010 F   0  0  0  0  0  0  0  0  0  0  0  0
   -3.6110    3.2645   -2.5568 F   0  0  0  0  0  0  0  0  0  0  0  0
  1  2  1  1  0  0  0
  2  3  1  0  0  0  0
  4  9  1  0  0  0  0
  4  1  1  0  0  0  0
  5  4  2  0  0  0  0
  6 11  1  6  0  0  0
  6  5  1  0  0  0  0
  6 16  1  0  0  0  0
  6  7  1  0  0  0  0
  7  8  2  0  0  0  0
  8  1  1  0  0  0  0
  8 13  1  0  0  0  0
 10  5  1  0  0  0  0
 12  7  1  0  0  0  0
 15 16  1  0  0  0  0
 15 14  2  0  0  0  0
 17 15  1  0  0  0  0
 18 17  1  0  0  0  0
 19 17  1  0  0  0  0
 20 17  1  0  0  0  0
M  RAD  3   1   2   2   2   3   3
M  END
