Coordinates from ORCA-job PhN2+~CF3COO-_B3LYPG-6-31G_dp-NX-Scan-d89-09-n800
 OpenBabel11261920123D

 20 20  0  0  1  0  0  0  0  0999 V2000
   -5.1574   -1.7216    1.5440 C   0  0  0  0  0  0  0  0  0  0  0  0
   -5.6401   -1.9516    2.7441 N   0  0  0  0  0  0  0  0  0  0  0  0
   -6.0595   -2.1173    3.7918 N   0  0  0  0  0  0  0  0  0  0  0  0
   -5.9936   -1.0891    0.5461 C   0  0  0  0  0  0  0  0  0  0  0  0
   -5.4316   -0.6441   -0.5941 C   0  0  0  0  0  0  0  0  0  0  0  0
   -3.9442   -0.6101   -0.7456 C   0  0  2  0  0  0  0  0  0  0  0  0
   -3.2436   -1.6402    0.0799 C   0  0  0  0  0  0  0  0  0  0  0  0
   -3.7942   -2.0912    1.2232 C   0  0  0  0  0  0  0  0  0  0  0  0
   -7.0620   -1.0168    0.7253 H   0  0  0  0  0  0  0  0  0  0  0  0
   -6.0390   -0.2073   -1.3777 H   0  0  0  0  0  0  0  0  0  0  0  0
   -3.6228   -0.6261   -1.7861 H   0  0  0  0  0  0  0  0  0  0  0  0
   -2.2394   -1.9329   -0.2048 H   0  0  0  0  0  0  0  0  0  0  0  0
   -3.2565   -2.7511    1.8971 H   0  0  0  0  0  0  0  0  0  0  0  0
   -3.5514    2.9211   -0.0730 O   0  0  0  0  0  0  0  0  0  0  0  0
   -3.5668    1.9011   -0.7142 C   0  0  0  0  0  0  0  0  0  0  0  0
   -3.4586    0.7033   -0.1461 O   0  0  0  0  0  0  0  0  0  0  0  0
   -3.6417    1.9615   -2.2636 C   0  0  0  0  0  0  0  0  0  0  0  0
   -2.6448    1.2359   -2.8204 F   0  0  0  0  0  0  0  0  0  0  0  0
   -4.8134    1.4543   -2.7192 F   0  0  0  0  0  0  0  0  0  0  0  0
   -3.5395    3.2155   -2.6946 F   0  0  0  0  0  0  0  0  0  0  0  0
  1  2  1  0  0  0  0
  2  3  1  0  0  0  0
  4  9  1  0  0  0  0
  4  1  2  0  0  0  0
  5  4  1  0  0  0  0
  6 11  1  6  0  0  0
  6  5  1  0  0  0  0
  6 16  1  0  0  0  0
  6  7  1  0  0  0  0
  7  8  2  0  0  0  0
  8  1  1  0  0  0  0
  8 13  1  0  0  0  0
 10  5  1  0  0  0  0
 12  7  1  0  0  0  0
 15 16  1  0  0  0  0
 15 14  2  0  0  0  0
 17 15  1  0  0  0  0
 18 17  1  0  0  0  0
 19 17  1  0  0  0  0
 20 17  1  0  0  0  0
M  RAD  3   2   2   3   3   5   2
M  END
