Coordinates from ORCA-job PhN2+~CF3COO-_B3LYPG-6-31G_dp-NX-Scan-d89-09-n800
 OpenBabel11261920123D

 20 20  0  0  1  0  0  0  0  0999 V2000
   -5.0447   -1.4677    1.4770 C   0  0  0  0  0  0  0  0  0  0  0  0
   -5.5355   -1.3780    2.6922 N   0  0  0  0  0  0  0  0  0  0  0  0
   -5.9611   -1.2876    3.7472 N   0  0  0  0  0  0  0  0  0  0  0  0
   -5.9373   -1.4735    0.3393 C   0  0  0  0  0  0  0  0  0  0  0  0
   -5.4289   -1.3961   -0.9047 C   0  0  0  0  0  0  0  0  0  0  0  0
   -3.9692   -1.1905   -1.1502 C   0  0  2  0  0  0  0  0  0  0  0  0
   -3.1060   -1.4623    0.0389 C   0  0  0  0  0  0  0  0  0  0  0  0
   -3.6132   -1.5389    1.2835 C   0  0  0  0  0  0  0  0  0  0  0  0
   -7.0053   -1.5657    0.5124 H   0  0  0  0  0  0  0  0  0  0  0  0
   -6.0831   -1.4345   -1.7696 H   0  0  0  0  0  0  0  0  0  0  0  0
   -3.6294   -1.7494   -2.0260 H   0  0  0  0  0  0  0  0  0  0  0  0
   -2.0367   -1.5494   -0.1260 H   0  0  0  0  0  0  0  0  0  0  0  0
   -2.9742   -1.6781    2.1500 H   0  0  0  0  0  0  0  0  0  0  0  0
   -4.4507    1.2936    0.2066 O   0  0  0  0  0  0  0  0  0  0  0  0
   -3.9963    1.2638   -0.9107 C   0  0  0  0  0  0  0  0  0  0  0  0
   -3.7145    0.2145   -1.6781 O   0  0  0  0  0  0  0  0  0  0  0  0
   -3.6375    2.5552   -1.6879 C   0  0  0  0  0  0  0  0  0  0  0  0
   -2.3213    2.5833   -1.9732 F   0  0  0  0  0  0  0  0  0  0  0  0
   -4.3189    2.6183   -2.8474 F   0  0  0  0  0  0  0  0  0  0  0  0
   -3.9360    3.6364   -0.9612 F   0  0  0  0  0  0  0  0  0  0  0  0
  1  2  1  0  0  0  0
  2  3  1  0  0  0  0
  4  9  1  0  0  0  0
  4  1  2  0  0  0  0
  5  4  1  0  0  0  0
  6 11  1  6  0  0  0
  6  5  1  0  0  0  0
  6  7  1  0  0  0  0
  7  8  2  0  0  0  0
  8  1  1  0  0  0  0
  8 13  1  0  0  0  0
 10  5  1  0  0  0  0
 12  7  1  0  0  0  0
 15 14  2  0  0  0  0
 16  6  1  0  0  0  0
 16 15  1  0  0  0  0
 17 20  1  0  0  0  0
 17 15  1  0  0  0  0
 18 17  1  0  0  0  0
 19 17  1  0  0  0  0
M  RAD  3   2   2   3   3   5   2
M  END
