Coordinates from ORCA-job PhN2+~CF3COO-_B3LYPG-6-31G_dp-NX-Scan-d89-09-n800
 OpenBabel11261920123D

 20 20  0  0  1  0  0  0  0  0999 V2000
   -5.2098   -1.8615    1.5781 C   0  0  0  0  0  0  0  0  0  0  0  0
   -5.7339   -2.4183    2.6465 N   0  0  0  0  0  0  0  0  0  0  0  0
   -6.1890   -2.8901    3.5815 N   0  0  0  0  0  0  0  0  0  0  0  0
   -6.0489   -1.1067    0.6724 C   0  0  0  0  0  0  0  0  0  0  0  0
   -5.4999   -0.4806   -0.3856 C   0  0  0  0  0  0  0  0  0  0  0  0
   -4.0218   -0.4287   -0.6016 C   0  0  2  0  0  0  0  0  0  0  0  0
   -3.2546   -1.4024    0.2328 C   0  0  0  0  0  0  0  0  0  0  0  0
   -3.8017   -2.0317    1.2895 C   0  0  0  0  0  0  0  0  0  0  0  0
   -7.1198   -1.0834    0.8501 H   0  0  0  0  0  0  0  0  0  0  0  0
   -6.1253    0.0623   -1.0853 H   0  0  0  0  0  0  0  0  0  0  0  0
   -3.7553   -0.5154   -1.6546 H   0  0  0  0  0  0  0  0  0  0  0  0
   -2.2059   -1.5447   -0.0055 H   0  0  0  0  0  0  0  0  0  0  0  0
   -3.2151   -2.6926    1.9200 H   0  0  0  0  0  0  0  0  0  0  0  0
   -3.1298    3.0958   -0.4308 O   0  0  0  0  0  0  0  0  0  0  0  0
   -3.4022    2.0186   -0.8965 C   0  0  0  0  0  0  0  0  0  0  0  0
   -3.5404    0.9333   -0.1375 O   0  0  0  0  0  0  0  0  0  0  0  0
   -3.5722    1.8754   -2.4335 C   0  0  0  0  0  0  0  0  0  0  0  0
   -2.6701    0.9998   -2.9373 F   0  0  0  0  0  0  0  0  0  0  0  0
   -4.8068    1.4174   -2.7536 F   0  0  0  0  0  0  0  0  0  0  0  0
   -3.3974    3.0467   -3.0372 F   0  0  0  0  0  0  0  0  0  0  0  0
  1  2  1  0  0  0  0
  2  3  1  0  0  0  0
  4  9  1  0  0  0  0
  4  1  2  0  0  0  0
  5  4  1  0  0  0  0
  6 11  1  6  0  0  0
  6  5  1  0  0  0  0
  6 16  1  0  0  0  0
  6  7  1  0  0  0  0
  7  8  2  0  0  0  0
  8  1  1  0  0  0  0
  8 13  1  0  0  0  0
 10  5  1  0  0  0  0
 12  7  1  0  0  0  0
 15 14  2  0  0  0  0
 15 16  1  0  0  0  0
 17 15  1  0  0  0  0
 18 17  1  0  0  0  0
 19 17  1  0  0  0  0
 20 17  1  0  0  0  0
M  RAD  3   2   2   3   3   5   2
M  END
