Coordinates from ORCA-job PhN2+~CF3COO-_B3LYPG-6-31G_dp-NX-Scan-d89-09-n800
 OpenBabel11261920123D

 20 20  0  0  1  0  0  0  0  0999 V2000
   -5.0506   -1.4827    1.4903 C   0  0  0  0  0  0  0  0  0  0  0  0
   -5.5436   -1.4417    2.7074 N   0  0  0  0  0  0  0  0  0  0  0  0
   -5.9714   -1.3970    3.7649 N   0  0  0  0  0  0  0  0  0  0  0  0
   -5.9420   -1.4707    0.3515 C   0  0  0  0  0  0  0  0  0  0  0  0
   -5.4340   -1.3753   -0.8913 C   0  0  0  0  0  0  0  0  0  0  0  0
   -3.9733   -1.1768   -1.1387 C   0  0  2  0  0  0  0  0  0  0  0  0
   -3.1106   -1.4418    0.0526 C   0  0  0  0  0  0  0  0  0  0  0  0
   -3.6183   -1.5362    1.2957 C   0  0  0  0  0  0  0  0  0  0  0  0
   -7.0102   -1.5649    0.5224 H   0  0  0  0  0  0  0  0  0  0  0  0
   -6.0894   -1.3989   -1.7560 H   0  0  0  0  0  0  0  0  0  0  0  0
   -3.6364   -1.7475   -2.0084 H   0  0  0  0  0  0  0  0  0  0  0  0
   -2.0399   -1.5141   -0.1107 H   0  0  0  0  0  0  0  0  0  0  0  0
   -2.9780   -1.6775    2.1608 H   0  0  0  0  0  0  0  0  0  0  0  0
   -4.4435    1.3222    0.1894 O   0  0  0  0  0  0  0  0  0  0  0  0
   -3.9888    1.2784   -0.9269 C   0  0  0  0  0  0  0  0  0  0  0  0
   -3.7121    0.2189   -1.6825 O   0  0  0  0  0  0  0  0  0  0  0  0
   -3.6247    2.5591   -1.7191 C   0  0  0  0  0  0  0  0  0  0  0  0
   -2.3087    2.5776   -2.0059 F   0  0  0  0  0  0  0  0  0  0  0  0
   -4.3070    2.6120   -2.8786 F   0  0  0  0  0  0  0  0  0  0  0  0
   -3.9174    3.6499   -1.0046 F   0  0  0  0  0  0  0  0  0  0  0  0
  1  2  1  0  0  0  0
  2  3  1  0  0  0  0
  4  9  1  0  0  0  0
  4  1  2  0  0  0  0
  5  4  1  0  0  0  0
  6 11  1  6  0  0  0
  6  5  1  0  0  0  0
  6  7  1  0  0  0  0
  7  8  2  0  0  0  0
  8  1  1  0  0  0  0
  8 13  1  0  0  0  0
 10  5  1  0  0  0  0
 12  7  1  0  0  0  0
 15 14  2  0  0  0  0
 16  6  1  0  0  0  0
 16 15  1  0  0  0  0
 17 20  1  0  0  0  0
 17 15  1  0  0  0  0
 18 17  1  0  0  0  0
 19 17  1  0  0  0  0
M  RAD  3   2   2   3   3   5   2
M  END
