Coordinates from ORCA-job PhN2+~CF3COO-_B3LYPG-6-31G_dp-NX-Scan-d89-09-n800
 OpenBabel11261920123D

 20 20  0  0  1  0  0  0  0  0999 V2000
   -5.1725   -1.7615    1.5569 C   0  0  0  0  0  0  0  0  0  0  0  0
   -5.6679   -2.0791    2.7318 N   0  0  0  0  0  0  0  0  0  0  0  0
   -6.0983   -2.3265    3.7593 N   0  0  0  0  0  0  0  0  0  0  0  0
   -6.0106   -1.0981    0.5814 C   0  0  0  0  0  0  0  0  0  0  0  0
   -5.4534   -0.6049   -0.5412 C   0  0  0  0  0  0  0  0  0  0  0  0
   -3.9685   -0.5634   -0.7105 C   0  0  2  0  0  0  0  0  0  0  0  0
   -3.2472   -1.5793    0.1143 C   0  0  0  0  0  0  0  0  0  0  0  0
   -3.7957   -2.0776    1.2387 C   0  0  0  0  0  0  0  0  0  0  0  0
   -7.0796   -1.0397    0.7619 H   0  0  0  0  0  0  0  0  0  0  0  0
   -6.0669   -0.1395   -1.3035 H   0  0  0  0  0  0  0  0  0  0  0  0
   -3.6616   -0.5936   -1.7552 H   0  0  0  0  0  0  0  0  0  0  0  0
   -2.2294   -1.8313   -0.1616 H   0  0  0  0  0  0  0  0  0  0  0  0
   -3.2429   -2.7377    1.9001 H   0  0  0  0  0  0  0  0  0  0  0  0
   -3.4419    2.9835   -0.1663 O   0  0  0  0  0  0  0  0  0  0  0  0
   -3.5253    1.9395   -0.7624 C   0  0  0  0  0  0  0  0  0  0  0  0
   -3.4859    0.7636   -0.1415 O   0  0  0  0  0  0  0  0  0  0  0  0
   -3.6163    1.9424   -2.3120 C   0  0  0  0  0  0  0  0  0  0  0  0
   -2.6404    1.1754   -2.8512 F   0  0  0  0  0  0  0  0  0  0  0  0
   -4.8034    1.4442   -2.7363 F   0  0  0  0  0  0  0  0  0  0  0  0
   -3.4923    3.1767   -2.7907 F   0  0  0  0  0  0  0  0  0  0  0  0
  1  2  1  0  0  0  0
  2  3  1  0  0  0  0
  4  9  1  0  0  0  0
  4  1  2  0  0  0  0
  5  4  1  0  0  0  0
  6 11  1  6  0  0  0
  6  5  1  0  0  0  0
  6 16  1  0  0  0  0
  6  7  1  0  0  0  0
  7  8  2  0  0  0  0
  8  1  1  0  0  0  0
  8 13  1  0  0  0  0
 10  5  1  0  0  0  0
 12  7  1  0  0  0  0
 15 14  2  0  0  0  0
 15 16  1  0  0  0  0
 17 15  1  0  0  0  0
 18 17  1  0  0  0  0
 19 17  1  0  0  0  0
 20 17  1  0  0  0  0
M  RAD  3   2   2   3   3   5   2
M  END
