Coordinates from ORCA-job PhN2+~CF3COO-_B3LYPG-6-31G_dp-NX-Scan-d89-09-n800
 OpenBabel11261920123D

 20 20  0  0  1  0  0  0  0  0999 V2000
   -5.0451   -1.4712    1.4797 C   0  0  0  0  0  0  0  0  0  0  0  0
   -5.5361   -1.3892    2.6955 N   0  0  0  0  0  0  0  0  0  0  0  0
   -5.9618   -1.3061    3.7513 N   0  0  0  0  0  0  0  0  0  0  0  0
   -5.9378   -1.4730    0.3420 C   0  0  0  0  0  0  0  0  0  0  0  0
   -5.4297   -1.3921   -0.9019 C   0  0  0  0  0  0  0  0  0  0  0  0
   -3.9698   -1.1880   -1.1480 C   0  0  2  0  0  0  0  0  0  0  0  0
   -3.1066   -1.4601    0.0411 C   0  0  0  0  0  0  0  0  0  0  0  0
   -3.6137   -1.5403    1.2855 C   0  0  0  0  0  0  0  0  0  0  0  0
   -7.0059   -1.5650    0.5149 H   0  0  0  0  0  0  0  0  0  0  0  0
   -6.0843   -1.4273   -1.7667 H   0  0  0  0  0  0  0  0  0  0  0  0
   -3.6309   -1.7484   -2.0232 H   0  0  0  0  0  0  0  0  0  0  0  0
   -2.0371   -1.5452   -0.1238 H   0  0  0  0  0  0  0  0  0  0  0  0
   -2.9743   -1.6807    2.1516 H   0  0  0  0  0  0  0  0  0  0  0  0
   -4.4551    1.3005    0.2014 O   0  0  0  0  0  0  0  0  0  0  0  0
   -3.9969    1.2674   -0.9141 C   0  0  0  0  0  0  0  0  0  0  0  0
   -3.7136    0.2159   -1.6780 O   0  0  0  0  0  0  0  0  0  0  0  0
   -3.6351    2.5565   -1.6937 C   0  0  0  0  0  0  0  0  0  0  0  0
   -2.3180    2.5830   -1.9750 F   0  0  0  0  0  0  0  0  0  0  0  0
   -4.3129    2.6166   -2.8555 F   0  0  0  0  0  0  0  0  0  0  0  0
   -3.9353    3.6398   -0.9710 F   0  0  0  0  0  0  0  0  0  0  0  0
  1  2  1  0  0  0  0
  2  3  1  0  0  0  0
  4  9  1  0  0  0  0
  4  1  2  0  0  0  0
  5  4  1  0  0  0  0
  6 11  1  6  0  0  0
  6  5  1  0  0  0  0
  6  7  1  0  0  0  0
  7  8  2  0  0  0  0
  8  1  1  0  0  0  0
  8 13  1  0  0  0  0
 10  5  1  0  0  0  0
 12  7  1  0  0  0  0
 15 14  2  0  0  0  0
 16  6  1  0  0  0  0
 16 15  1  0  0  0  0
 17 20  1  0  0  0  0
 17 15  1  0  0  0  0
 18 17  1  0  0  0  0
 19 17  1  0  0  0  0
M  RAD  3   2   2   3   3   5   2
M  END
