Coordinates from ORCA-job PhN2+~CF3COO-_B3LYPG-6-31G_dp-NX-Scan-d89-09-n800
 OpenBabel11261920123D

 20 20  0  0  1  0  0  0  0  0999 V2000
   -5.0420   -1.4630    1.4712 C   0  0  0  0  0  0  0  0  0  0  0  0
   -5.5315   -1.3494    2.6848 N   0  0  0  0  0  0  0  0  0  0  0  0
   -5.9558   -1.2365    3.7382 N   0  0  0  0  0  0  0  0  0  0  0  0
   -5.9353   -1.4767    0.3341 C   0  0  0  0  0  0  0  0  0  0  0  0
   -5.4267   -1.4061   -0.9103 C   0  0  0  0  0  0  0  0  0  0  0  0
   -3.9676   -1.1963   -1.1550 C   0  0  2  0  0  0  0  0  0  0  0  0
   -3.1041   -1.4718    0.0329 C   0  0  0  0  0  0  0  0  0  0  0  0
   -3.6109   -1.5416    1.2781 C   0  0  0  0  0  0  0  0  0  0  0  0
   -7.0032   -1.5680    0.5082 H   0  0  0  0  0  0  0  0  0  0  0  0
   -6.0804   -1.4507   -1.7754 H   0  0  0  0  0  0  0  0  0  0  0  0
   -3.6265   -1.7495   -2.0337 H   0  0  0  0  0  0  0  0  0  0  0  0
   -2.0354   -1.5647   -0.1328 H   0  0  0  0  0  0  0  0  0  0  0  0
   -2.9725   -1.6796    2.1452 H   0  0  0  0  0  0  0  0  0  0  0  0
   -4.4551    1.2830    0.2141 O   0  0  0  0  0  0  0  0  0  0  0  0
   -4.0008    1.2585   -0.9035 C   0  0  0  0  0  0  0  0  0  0  0  0
   -3.7163    0.2133   -1.6754 O   0  0  0  0  0  0  0  0  0  0  0  0
   -3.6428    2.5540   -1.6742 C   0  0  0  0  0  0  0  0  0  0  0  0
   -2.3264    2.5849   -1.9583 F   0  0  0  0  0  0  0  0  0  0  0  0
   -4.3234    2.6219   -2.8339 F   0  0  0  0  0  0  0  0  0  0  0  0
   -3.9431    3.6314   -0.9426 F   0  0  0  0  0  0  0  0  0  0  0  0
  1  2  1  0  0  0  0
  2  3  1  0  0  0  0
  4  9  1  0  0  0  0
  4  1  2  0  0  0  0
  5  4  1  0  0  0  0
  6 11  1  6  0  0  0
  6  5  1  0  0  0  0
  6  7  1  0  0  0  0
  7  8  2  0  0  0  0
  8  1  1  0  0  0  0
  8 13  1  0  0  0  0
 10  5  1  0  0  0  0
 12  7  1  0  0  0  0
 15 14  2  0  0  0  0
 16  6  1  0  0  0  0
 16 15  1  0  0  0  0
 17 20  1  0  0  0  0
 17 15  1  0  0  0  0
 18 17  1  0  0  0  0
 19 17  1  0  0  0  0
M  RAD  3   2   2   3   3   5   2
M  END
