Coordinates from ORCA-job PhN2+~CF3COO-_B3LYPG-6-31G_dp-NX-Scan-d89-09-n800
 OpenBabel11261920123D

 20 20  0  0  1  0  0  0  0  0999 V2000
   -5.0031   -1.4376    1.3780 C   0  0  1  0  0  0  0  0  0  0  0  0
   -5.4229   -0.8164    2.4563 N   0  0  0  0  0  0  0  0  0  0  0  0
   -5.7707   -0.2195    3.3600 N   0  0  0  0  0  0  0  0  0  0  0  0
   -5.9068   -1.5586    0.2525 C   0  0  0  0  0  0  0  0  0  0  0  0
   -5.3948   -1.5712   -0.9930 C   0  0  0  0  0  0  0  0  0  0  0  0
   -3.9463   -1.2897   -1.2167 C   0  0  2  0  0  0  0  0  0  0  0  0
   -3.0779   -1.6351   -0.0532 C   0  0  0  0  0  0  0  0  0  0  0  0
   -3.5776   -1.6217    1.1971 C   0  0  0  0  0  0  0  0  0  0  0  0
   -6.9738   -1.6395    0.4384 H   0  0  0  0  0  0  0  0  0  0  0  0
   -6.0338   -1.7067   -1.8593 H   0  0  0  0  0  0  0  0  0  0  0  0
   -3.5820   -1.7308   -2.1450 H   0  0  0  0  0  0  0  0  0  0  0  0
   -2.0235   -1.8179   -0.2330 H   0  0  0  0  0  0  0  0  0  0  0  0
   -2.9465   -1.7479    2.0716 H   0  0  0  0  0  0  0  0  0  0  0  0
   -4.5297    1.1086    0.3769 O   0  0  0  0  0  0  0  0  0  0  0  0
   -4.0706    1.1639   -0.7410 C   0  0  0  0  0  0  0  0  0  0  0  0
   -3.7541    0.1912   -1.5883 O   0  0  0  0  0  0  0  0  0  0  0  0
   -3.7474    2.5215   -1.4162 C   0  0  0  0  0  0  0  0  0  0  0  0
   -2.4314    2.6115   -1.6891 F   0  0  0  0  0  0  0  0  0  0  0  0
   -4.4249    2.6536   -2.5722 F   0  0  0  0  0  0  0  0  0  0  0  0
   -4.0819    3.5353   -0.6119 F   0  0  0  0  0  0  0  0  0  0  0  0
  1  2  1  6  0  0  0
  2  3  1  0  0  0  0
  4  9  1  0  0  0  0
  4  1  1  0  0  0  0
  5  4  2  0  0  0  0
  6 11  1  6  0  0  0
  6  5  1  0  0  0  0
  6  7  1  0  0  0  0
  7  8  2  0  0  0  0
  8  1  1  0  0  0  0
  8 13  1  0  0  0  0
 10  5  1  0  0  0  0
 12  7  1  0  0  0  0
 15 14  2  0  0  0  0
 16  6  1  0  0  0  0
 16 15  1  0  0  0  0
 17 15  1  0  0  0  0
 17 20  1  0  0  0  0
 18 17  1  0  0  0  0
 19 17  1  0  0  0  0
M  RAD  3   1   2   2   2   3   3
M  END
