Coordinates from ORCA-job PhN2+~CF3COO-_B3LYPG-6-31G_dp-NX-Scan-d89-09-n800
 OpenBabel11261920123D

 20 20  0  0  1  0  0  0  0  0999 V2000
   -5.0991   -1.5641    1.4825 C   0  0  1  0  0  0  0  0  0  0  0  0
   -5.5337   -1.4890    2.7202 N   0  0  0  0  0  0  0  0  0  0  0  0
   -5.9120   -1.3722    3.7892 N   0  0  0  0  0  0  0  0  0  0  0  0
   -5.9159   -1.0308    0.4109 C   0  0  0  0  0  0  0  0  0  0  0  0
   -5.3283   -0.7652   -0.7719 C   0  0  0  0  0  0  0  0  0  0  0  0
   -3.8336   -0.7838   -0.8612 C   0  0  2  0  0  0  0  0  0  0  0  0
   -3.2263   -1.8466   -0.0007 C   0  0  0  0  0  0  0  0  0  0  0  0
   -3.7934   -2.1236    1.1897 C   0  0  0  0  0  0  0  0  0  0  0  0
   -6.9804   -0.8939    0.5747 H   0  0  0  0  0  0  0  0  0  0  0  0
   -5.9056   -0.4295   -1.6239 H   0  0  0  0  0  0  0  0  0  0  0  0
   -3.4641   -0.7981   -1.8866 H   0  0  0  0  0  0  0  0  0  0  0  0
   -2.2770   -2.2835   -0.2883 H   0  0  0  0  0  0  0  0  0  0  0  0
   -3.3217   -2.7745    1.9194 H   0  0  0  0  0  0  0  0  0  0  0  0
   -3.9257    2.5833    0.2520 O   0  0  0  0  0  0  0  0  0  0  0  0
   -3.7035    1.7180   -0.5558 C   0  0  0  0  0  0  0  0  0  0  0  0
   -3.3054    0.4932   -0.2123 O   0  0  0  0  0  0  0  0  0  0  0  0
   -3.7748    2.0252   -2.0766 C   0  0  0  0  0  0  0  0  0  0  0  0
   -2.7536    1.4350   -2.7347 F   0  0  0  0  0  0  0  0  0  0  0  0
   -4.9257    1.5555   -2.6148 F   0  0  0  0  0  0  0  0  0  0  0  0
   -3.7200    3.3376   -2.2998 F   0  0  0  0  0  0  0  0  0  0  0  0
  1  2  1  1  0  0  0
  2  3  1  0  0  0  0
  4  9  1  0  0  0  0
  4  1  1  0  0  0  0
  5  4  2  0  0  0  0
  6 11  1  6  0  0  0
  6  5  1  0  0  0  0
  6 16  1  0  0  0  0
  6  7  1  0  0  0  0
  7  8  2  0  0  0  0
  8  1  1  0  0  0  0
  8 13  1  0  0  0  0
 10  5  1  0  0  0  0
 12  7  1  0  0  0  0
 15 16  1  0  0  0  0
 15 14  2  0  0  0  0
 17 15  1  0  0  0  0
 18 17  1  0  0  0  0
 19 17  1  0  0  0  0
 20 17  1  0  0  0  0
M  RAD  3   1   2   2   2   3   3
M  END
