Coordinates from ORCA-job PhN2+~CF3COO-_B3LYPG-6-31G_dp-NX-Scan-d89-09-n800
 OpenBabel11261920123D

 20 20  0  0  1  0  0  0  0  0999 V2000
   -5.1023   -1.4625    1.4058 C   0  0  0  0  0  0  0  0  0  0  0  0
   -5.6923   -1.4061    2.5799 N   0  0  0  0  0  0  0  0  0  0  0  0
   -6.1990   -1.3206    3.5974 N   0  0  0  0  0  0  0  0  0  0  0  0
   -5.7833   -0.9442    0.2401 C   0  0  0  0  0  0  0  0  0  0  0  0
   -5.0880   -0.7763   -0.9034 C   0  0  0  0  0  0  0  0  0  0  0  0
   -3.5994   -0.9066   -0.9075 C   0  0  2  0  0  0  0  0  0  0  0  0
   -3.1005   -1.8640    0.1267 C   0  0  0  0  0  0  0  0  0  0  0  0
   -3.7815   -2.0435    1.2750 C   0  0  0  0  0  0  0  0  0  0  0  0
   -6.8480   -0.7400    0.2984 H   0  0  0  0  0  0  0  0  0  0  0  0
   -5.5864   -0.4542   -1.8095 H   0  0  0  0  0  0  0  0  0  0  0  0
   -3.1985   -1.1046   -1.9009 H   0  0  0  0  0  0  0  0  0  0  0  0
   -2.1268   -2.3189   -0.0163 H   0  0  0  0  0  0  0  0  0  0  0  0
   -3.3840   -2.6351    2.0936 H   0  0  0  0  0  0  0  0  0  0  0  0
   -3.6800    2.3529    0.3782 O   0  0  0  0  0  0  0  0  0  0  0  0
   -3.5863    1.5878   -0.5478 C   0  0  0  0  0  0  0  0  0  0  0  0
   -2.9449    0.4191   -0.4825 O   0  0  0  0  0  0  0  0  0  0  0  0
   -4.1243    2.0393   -1.9336 C   0  0  0  0  0  0  0  0  0  0  0  0
   -3.8742    1.1421   -2.9142 F   0  0  0  0  0  0  0  0  0  0  0  0
   -5.4555    2.2319   -1.8862 F   0  0  0  0  0  0  0  0  0  0  0  0
   -3.5446    3.1967   -2.2811 F   0  0  0  0  0  0  0  0  0  0  0  0
  1  2  1  0  0  0  0
  2  3  1  0  0  0  0
  4  9  1  0  0  0  0
  4  1  2  0  0  0  0
  5  4  1  0  0  0  0
  6 11  1  6  0  0  0
  6  5  1  0  0  0  0
  6 16  1  0  0  0  0
  6  7  1  0  0  0  0
  7  8  2  0  0  0  0
  8  1  1  0  0  0  0
  8 13  1  0  0  0  0
 10  5  1  0  0  0  0
 12  7  1  0  0  0  0
 15 16  1  0  0  0  0
 15 14  2  0  0  0  0
 17 19  1  0  0  0  0
 17 15  1  0  0  0  0
 18 17  1  0  0  0  0
 20 17  1  0  0  0  0
M  RAD  3   2   2   3   3   5   2
M  END
