Coordinates from ORCA-job PhN2+~CF3COO-_B3LYPG-6-31G_dp-NX-Scan-d89-09-n800
 OpenBabel11261920123D

 20 20  0  0  0  0  0  0  0  0999 V2000
   -3.8164   -1.1051    0.2192 C   0  0  0  0  0  0  0  0  0  0  0  0
   -3.4384    0.1358    0.8161 N   0  0  0  0  0  0  0  0  0  0  0  0
   -3.9645    1.2510    0.4454 N   0  0  0  0  0  0  0  0  0  0  0  0
   -4.6660   -1.3805   -0.8776 C   0  0  0  0  0  0  0  0  0  0  0  0
   -4.8647   -2.6990   -1.2915 C   0  0  0  0  0  0  0  0  0  0  0  0
   -4.2417   -3.7621   -0.6383 C   0  0  0  0  0  0  0  0  0  0  0  0
   -3.3995   -3.5021    0.4464 C   0  0  0  0  0  0  0  0  0  0  0  0
   -3.1902   -2.1931    0.8621 C   0  0  0  0  0  0  0  0  0  0  0  0
   -5.1713   -0.5933   -1.4167 H   0  0  0  0  0  0  0  0  0  0  0  0
   -5.5177   -2.8917   -2.1383 H   0  0  0  0  0  0  0  0  0  0  0  0
   -4.4091   -4.7820   -0.9717 H   0  0  0  0  0  0  0  0  0  0  0  0
   -2.9058   -4.3189    0.9642 H   0  0  0  0  0  0  0  0  0  0  0  0
   -2.5369   -1.9662    1.6984 H   0  0  0  0  0  0  0  0  0  0  0  0
   -4.6801    1.2902   -0.2946 O   0  0  0  0  0  0  0  0  0  0  0  0
   -5.2743    2.5711   -0.7043 C   0  0  0  0  0  0  0  0  0  0  0  0
   -6.0911    2.5590   -1.5608 O   0  0  0  0  0  0  0  0  0  0  0  0
   -4.7389    3.8154    0.0579 C   0  0  0  0  0  0  0  0  0  0  0  0
   -3.4267    3.9633   -0.1447 F   0  0  0  0  0  0  0  0  0  0  0  0
   -5.3738    4.8867   -0.4246 F   0  0  0  0  0  0  0  0  0  0  0  0
   -4.9927    3.7148    1.3654 F   0  0  0  0  0  0  0  0  0  0  0  0
  1  2  1  0  0  0  0
  1  8  2  0  0  0  0
  3  2  2  0  0  0  0
  4  1  1  0  0  0  0
  5  4  2  0  0  0  0
  5  6  1  0  0  0  0
  6  7  2  0  0  0  0
  7  8  1  0  0  0  0
  7 12  1  0  0  0  0
  8 13  1  0  0  0  0
  9  4  1  0  0  0  0
 10  5  1  0  0  0  0
 11  6  1  0  0  0  0
 14  3  1  0  0  0  0
 15 14  1  0  0  0  0
 15 17  1  0  0  0  0
 16 15  2  0  0  0  0
 17 20  1  0  0  0  0
 18 17  1  0  0  0  0
 19 17  1  0  0  0  0
M  END
