Coordinates from ORCA-job PhN2+~CF3COO-_B3LYPG-6-31G_dp-NX-Scan-d89-09-n800
 OpenBabel11261920123D

 20 20  0  0  1  0  0  0  0  0999 V2000
   -5.2151   -1.8764    1.5795 C   0  0  0  0  0  0  0  0  0  0  0  0
   -5.7432   -2.4706    2.6256 N   0  0  0  0  0  0  0  0  0  0  0  0
   -6.2017   -2.9774    3.5408 N   0  0  0  0  0  0  0  0  0  0  0  0
   -6.0536   -1.1058    0.6864 C   0  0  0  0  0  0  0  0  0  0  0  0
   -5.5052   -0.4585   -0.3590 C   0  0  0  0  0  0  0  0  0  0  0  0
   -4.0281   -0.4069   -0.5828 C   0  0  2  0  0  0  0  0  0  0  0  0
   -3.2554   -1.3737    0.2549 C   0  0  0  0  0  0  0  0  0  0  0  0
   -3.8028   -2.0240    1.2986 C   0  0  0  0  0  0  0  0  0  0  0  0
   -7.1248   -1.0868    0.8632 H   0  0  0  0  0  0  0  0  0  0  0  0
   -6.1317    0.0973   -1.0476 H   0  0  0  0  0  0  0  0  0  0  0  0
   -3.7682   -0.5050   -1.6367 H   0  0  0  0  0  0  0  0  0  0  0  0
   -2.2025   -1.4985    0.0251 H   0  0  0  0  0  0  0  0  0  0  0  0
   -3.2117   -2.6848    1.9251 H   0  0  0  0  0  0  0  0  0  0  0  0
   -3.0817    3.1063   -0.4742 O   0  0  0  0  0  0  0  0  0  0  0  0
   -3.3833    2.0276   -0.9183 C   0  0  0  0  0  0  0  0  0  0  0  0
   -3.5442    0.9599   -0.1386 O   0  0  0  0  0  0  0  0  0  0  0  0
   -3.5688    1.8630   -2.4516 C   0  0  0  0  0  0  0  0  0  0  0  0
   -2.6801    0.9708   -2.9504 F   0  0  0  0  0  0  0  0  0  0  0  0
   -4.8108    1.4134   -2.7538 F   0  0  0  0  0  0  0  0  0  0  0  0
   -3.3871    3.0233   -3.0740 F   0  0  0  0  0  0  0  0  0  0  0  0
  1  2  1  0  0  0  0
  2  3  1  0  0  0  0
  4  9  1  0  0  0  0
  4  1  2  0  0  0  0
  5  4  1  0  0  0  0
  6 11  1  6  0  0  0
  6  5  1  0  0  0  0
  6 16  1  0  0  0  0
  6  7  1  0  0  0  0
  7  8  2  0  0  0  0
  8  1  1  0  0  0  0
  8 13  1  0  0  0  0
 10  5  1  0  0  0  0
 12  7  1  0  0  0  0
 15 14  2  0  0  0  0
 15 16  1  0  0  0  0
 17 15  1  0  0  0  0
 18 17  1  0  0  0  0
 19 17  1  0  0  0  0
 20 17  1  0  0  0  0
M  RAD  3   2   2   3   3   5   2
M  END
