Coordinates from ORCA-job PhN2+~CF3COO-_B3LYPG-6-31G_dp-NX-Scan-d89-09-n800
 OpenBabel11261920123D

 20 20  0  0  1  0  0  0  0  0999 V2000
   -4.9991   -1.4910    1.3660 C   0  0  1  0  0  0  0  0  0  0  0  0
   -5.3210   -0.5397    2.2234 N   0  0  0  0  0  0  0  0  0  0  0  0
   -5.5351    0.4016    2.8152 N   0  0  0  0  0  0  0  0  0  0  0  0
   -5.9048   -1.6476    0.2363 C   0  0  0  0  0  0  0  0  0  0  0  0
   -5.3892   -1.6534   -1.0073 C   0  0  0  0  0  0  0  0  0  0  0  0
   -3.9491   -1.3194   -1.2124 C   0  0  2  0  0  0  0  0  0  0  0  0
   -3.0753   -1.7160   -0.0692 C   0  0  0  0  0  0  0  0  0  0  0  0
   -3.5709   -1.7101    1.1823 C   0  0  0  0  0  0  0  0  0  0  0  0
   -6.9715   -1.7417    0.4205 H   0  0  0  0  0  0  0  0  0  0  0  0
   -6.0146   -1.8212   -1.8781 H   0  0  0  0  0  0  0  0  0  0  0  0
   -3.5726   -1.6889   -2.1658 H   0  0  0  0  0  0  0  0  0  0  0  0
   -2.0292   -1.9301   -0.2629 H   0  0  0  0  0  0  0  0  0  0  0  0
   -2.9387   -1.8494    2.0548 H   0  0  0  0  0  0  0  0  0  0  0  0
   -4.5802    1.0680    0.4994 O   0  0  0  0  0  0  0  0  0  0  0  0
   -4.1208    1.1392   -0.6198 C   0  0  0  0  0  0  0  0  0  0  0  0
   -3.7942    0.1918   -1.4918 O   0  0  0  0  0  0  0  0  0  0  0  0
   -3.8071    2.5128   -1.2694 C   0  0  0  0  0  0  0  0  0  0  0  0
   -2.4922    2.6166   -1.5418 F   0  0  0  0  0  0  0  0  0  0  0  0
   -4.4872    2.6627   -2.4216 F   0  0  0  0  0  0  0  0  0  0  0  0
   -4.1472    3.5089   -0.4457 F   0  0  0  0  0  0  0  0  0  0  0  0
  1  2  1  6  0  0  0
  2  3  1  0  0  0  0
  4  9  1  0  0  0  0
  4  1  1  0  0  0  0
  5  4  2  0  0  0  0
  6 11  1  6  0  0  0
  6  5  1  0  0  0  0
  6  7  1  0  0  0  0
  7  8  2  0  0  0  0
  8  1  1  0  0  0  0
  8 13  1  0  0  0  0
 10  5  1  0  0  0  0
 12  7  1  0  0  0  0
 15 14  2  0  0  0  0
 16  6  1  0  0  0  0
 16 15  1  0  0  0  0
 17 15  1  0  0  0  0
 17 20  1  0  0  0  0
 18 17  1  0  0  0  0
 19 17  1  0  0  0  0
M  RAD  3   1   2   2   2   3   3
M  END
