Coordinates from ORCA-job PhN2+~CF3COO-_B3LYPG-6-31G_dp-NX-Scan-d89-09-n800
 OpenBabel11261920123D

 20 20  0  0  1  0  0  0  0  0999 V2000
   -5.0961   -1.4374    1.3930 C   0  0  0  0  0  0  0  0  0  0  0  0
   -5.6873   -1.3515    2.5650 N   0  0  0  0  0  0  0  0  0  0  0  0
   -6.1950   -1.2412    3.5801 N   0  0  0  0  0  0  0  0  0  0  0  0
   -5.7716   -0.9394    0.2152 C   0  0  0  0  0  0  0  0  0  0  0  0
   -5.0720   -0.7966   -0.9296 C   0  0  0  0  0  0  0  0  0  0  0  0
   -3.5839   -0.9321   -0.9267 C   0  0  2  0  0  0  0  0  0  0  0  0
   -3.0927   -1.8724    0.1269 C   0  0  0  0  0  0  0  0  0  0  0  0
   -3.7774   -2.0267    1.2768 C   0  0  0  0  0  0  0  0  0  0  0  0
   -6.8354   -0.7293    0.2663 H   0  0  0  0  0  0  0  0  0  0  0  0
   -5.5662   -0.4900   -1.8434 H   0  0  0  0  0  0  0  0  0  0  0  0
   -3.1813   -1.1495   -1.9154 H   0  0  0  0  0  0  0  0  0  0  0  0
   -2.1203   -2.3336   -0.0043 H   0  0  0  0  0  0  0  0  0  0  0  0
   -3.3841   -2.6031    2.1081 H   0  0  0  0  0  0  0  0  0  0  0  0
   -3.7097    2.2713    0.4252 O   0  0  0  0  0  0  0  0  0  0  0  0
   -3.5961    1.5523   -0.5347 C   0  0  0  0  0  0  0  0  0  0  0  0
   -2.9194    0.4005   -0.5323 O   0  0  0  0  0  0  0  0  0  0  0  0
   -4.1499    2.0454   -1.8995 C   0  0  0  0  0  0  0  0  0  0  0  0
   -3.9299    1.1661   -2.9026 F   0  0  0  0  0  0  0  0  0  0  0  0
   -5.4761    2.2589   -1.8257 F   0  0  0  0  0  0  0  0  0  0  0  0
   -3.5555    3.2013   -2.2304 F   0  0  0  0  0  0  0  0  0  0  0  0
  1  2  1  0  0  0  0
  2  3  1  0  0  0  0
  4  9  1  0  0  0  0
  4  1  2  0  0  0  0
  5  6  1  0  0  0  0
  5  4  1  0  0  0  0
  6 11  1  6  0  0  0
  6 16  1  0  0  0  0
  6  7  1  0  0  0  0
  7  8  2  0  0  0  0
  8  1  1  0  0  0  0
  8 13  1  0  0  0  0
 10  5  1  0  0  0  0
 12  7  1  0  0  0  0
 15 16  1  0  0  0  0
 15 14  2  0  0  0  0
 17 19  1  0  0  0  0
 17 15  1  0  0  0  0
 18 17  1  0  0  0  0
 20 17  1  0  0  0  0
M  RAD  3   2   2   3   3   5   2
M  END
