Coordinates from ORCA-job PhN2+~CF3COO-_B3LYPG-6-31G_dp-NX-Scan-d89-09-n800
 OpenBabel11261920123D

 20 20  0  0  1  0  0  0  0  0999 V2000
   -5.1286   -1.6467    1.5177 C   0  0  1  0  0  0  0  0  0  0  0  0
   -5.5833   -1.7218    2.7480 N   0  0  0  0  0  0  0  0  0  0  0  0
   -5.9783   -1.7434    3.8174 N   0  0  0  0  0  0  0  0  0  0  0  0
   -5.9607   -1.0648    0.4850 C   0  0  0  0  0  0  0  0  0  0  0  0
   -5.3906   -0.7065   -0.6816 C   0  0  0  0  0  0  0  0  0  0  0  0
   -3.8992   -0.6934   -0.8055 C   0  0  2  0  0  0  0  0  0  0  0  0
   -3.2398   -1.7460    0.0270 C   0  0  0  0  0  0  0  0  0  0  0  0
   -3.7936   -2.1126    1.1989 C   0  0  0  0  0  0  0  0  0  0  0  0
   -7.0270   -0.9629    0.6622 H   0  0  0  0  0  0  0  0  0  0  0  0
   -5.9865   -0.3190   -1.4988 H   0  0  0  0  0  0  0  0  0  0  0  0
   -3.5554   -0.6968   -1.8393 H   0  0  0  0  0  0  0  0  0  0  0  0
   -2.2633   -2.1119   -0.2686 H   0  0  0  0  0  0  0  0  0  0  0  0
   -3.2851   -2.7714    1.8962 H   0  0  0  0  0  0  0  0  0  0  0  0
   -3.7557    2.7772    0.0897 O   0  0  0  0  0  0  0  0  0  0  0  0
   -3.6442    1.8193   -0.6324 C   0  0  0  0  0  0  0  0  0  0  0  0
   -3.3980    0.5969   -0.1667 O   0  0  0  0  0  0  0  0  0  0  0  0
   -3.6913    1.9930   -2.1747 C   0  0  0  0  0  0  0  0  0  0  0  0
   -2.6533    1.3533   -2.7587 F   0  0  0  0  0  0  0  0  0  0  0  0
   -4.8294    1.4709   -2.6935 F   0  0  0  0  0  0  0  0  0  0  0  0
   -3.6368    3.2796   -2.5103 F   0  0  0  0  0  0  0  0  0  0  0  0
  1  2  1  1  0  0  0
  2  3  1  0  0  0  0
  4  9  1  0  0  0  0
  4  1  1  0  0  0  0
  5  4  2  0  0  0  0
  6 11  1  6  0  0  0
  6  5  1  0  0  0  0
  6 16  1  0  0  0  0
  6  7  1  0  0  0  0
  7  8  2  0  0  0  0
  8  1  1  0  0  0  0
  8 13  1  0  0  0  0
 10  5  1  0  0  0  0
 12  7  1  0  0  0  0
 15 16  1  0  0  0  0
 15 14  2  0  0  0  0
 17 15  1  0  0  0  0
 18 17  1  0  0  0  0
 19 17  1  0  0  0  0
 20 17  1  0  0  0  0
M  RAD  3   1   2   2   2   3   3
M  END
