Coordinates from ORCA-job PhN2+~CF3COO-_B3LYPG-6-31G_dp-NX-Scan-d89-09-n800
 OpenBabel11261920123D

 20 20  0  0  1  0  0  0  0  0999 V2000
   -5.2183   -1.8863    1.5800 C   0  0  0  0  0  0  0  0  0  0  0  0
   -5.7477   -2.5030    2.6125 N   0  0  0  0  0  0  0  0  0  0  0  0
   -6.2076   -3.0309    3.5153 N   0  0  0  0  0  0  0  0  0  0  0  0
   -6.0572   -1.1061    0.6955 C   0  0  0  0  0  0  0  0  0  0  0  0
   -5.5099   -0.4450   -0.3419 C   0  0  0  0  0  0  0  0  0  0  0  0
   -4.0334   -0.3931   -0.5713 C   0  0  2  0  0  0  0  0  0  0  0  0
   -3.2566   -1.3553    0.2684 C   0  0  0  0  0  0  0  0  0  0  0  0
   -3.8036   -2.0192    1.3037 C   0  0  0  0  0  0  0  0  0  0  0  0
   -7.1284   -1.0899    0.8724 H   0  0  0  0  0  0  0  0  0  0  0  0
   -6.1374    0.1191   -1.0227 H   0  0  0  0  0  0  0  0  0  0  0  0
   -3.7782   -0.4986   -1.6257 H   0  0  0  0  0  0  0  0  0  0  0  0
   -2.2011   -1.4682    0.0439 H   0  0  0  0  0  0  0  0  0  0  0  0
   -3.2092   -2.6794    1.9277 H   0  0  0  0  0  0  0  0  0  0  0  0
   -3.0516    3.1116   -0.5010 O   0  0  0  0  0  0  0  0  0  0  0  0
   -3.3720    2.0329   -0.9320 C   0  0  0  0  0  0  0  0  0  0  0  0
   -3.5483    0.9765   -0.1399 O   0  0  0  0  0  0  0  0  0  0  0  0
   -3.5652    1.8553   -2.4630 C   0  0  0  0  0  0  0  0  0  0  0  0
   -2.6840    0.9532   -2.9575 F   0  0  0  0  0  0  0  0  0  0  0  0
   -4.8112    1.4108   -2.7560 F   0  0  0  0  0  0  0  0  0  0  0  0
   -3.3788    3.0087   -3.0965 F   0  0  0  0  0  0  0  0  0  0  0  0
  1  2  1  0  0  0  0
  2  3  1  0  0  0  0
  4  9  1  0  0  0  0
  4  1  2  0  0  0  0
  5  4  1  0  0  0  0
  6 11  1  6  0  0  0
  6  5  1  0  0  0  0
  6 16  1  0  0  0  0
  6  7  1  0  0  0  0
  7  8  2  0  0  0  0
  8  1  1  0  0  0  0
  8 13  1  0  0  0  0
 10  5  1  0  0  0  0
 12  7  1  0  0  0  0
 15 14  2  0  0  0  0
 15 16  1  0  0  0  0
 17 15  1  0  0  0  0
 18 17  1  0  0  0  0
 19 17  1  0  0  0  0
 20 17  1  0  0  0  0
M  RAD  3   2   2   3   3   5   2
M  END
