Coordinates from ORCA-job PhN2+~CF3COO-_B3LYPG-6-31G_dp-NX-Scan-d89-09-n800
 OpenBabel11261920123D

 20 20  0  0  1  0  0  0  0  0999 V2000
   -5.0566   -1.5017    1.5051 C   0  0  0  0  0  0  0  0  0  0  0  0
   -5.5511   -1.5135    2.7222 N   0  0  0  0  0  0  0  0  0  0  0  0
   -5.9805   -1.5180    3.7804 N   0  0  0  0  0  0  0  0  0  0  0  0
   -5.9471   -1.4678    0.3656 C   0  0  0  0  0  0  0  0  0  0  0  0
   -5.4398   -1.3506   -0.8755 C   0  0  0  0  0  0  0  0  0  0  0  0
   -3.9780   -1.1609   -1.1250 C   0  0  2  0  0  0  0  0  0  0  0  0
   -3.1156   -1.4178    0.0688 C   0  0  0  0  0  0  0  0  0  0  0  0
   -3.6237   -1.5341    1.3097 C   0  0  0  0  0  0  0  0  0  0  0  0
   -7.0155   -1.5638    0.5343 H   0  0  0  0  0  0  0  0  0  0  0  0
   -6.0967   -1.3556   -1.7393 H   0  0  0  0  0  0  0  0  0  0  0  0
   -3.6447   -1.7458   -1.9872 H   0  0  0  0  0  0  0  0  0  0  0  0
   -2.0434   -1.4721   -0.0926 H   0  0  0  0  0  0  0  0  0  0  0  0
   -2.9817   -1.6776    2.1733 H   0  0  0  0  0  0  0  0  0  0  0  0
   -4.4406    1.3536    0.1678 O   0  0  0  0  0  0  0  0  0  0  0  0
   -3.9831    1.2943   -0.9463 C   0  0  0  0  0  0  0  0  0  0  0  0
   -3.7093    0.2233   -1.6874 O   0  0  0  0  0  0  0  0  0  0  0  0
   -3.6102    2.5627   -1.7540 C   0  0  0  0  0  0  0  0  0  0  0  0
   -2.2941    2.5689   -2.0407 F   0  0  0  0  0  0  0  0  0  0  0  0
   -4.2921    2.6056   -2.9141 F   0  0  0  0  0  0  0  0  0  0  0  0
   -3.8960    3.6640   -1.0530 F   0  0  0  0  0  0  0  0  0  0  0  0
  1  2  1  0  0  0  0
  2  3  1  0  0  0  0
  4  9  1  0  0  0  0
  4  1  2  0  0  0  0
  5  4  1  0  0  0  0
  6 11  1  6  0  0  0
  6  5  1  0  0  0  0
  6  7  1  0  0  0  0
  7  8  2  0  0  0  0
  8  1  1  0  0  0  0
  8 13  1  0  0  0  0
 10  5  1  0  0  0  0
 12  7  1  0  0  0  0
 15 14  2  0  0  0  0
 16  6  1  0  0  0  0
 16 15  1  0  0  0  0
 17 20  1  0  0  0  0
 17 15  1  0  0  0  0
 18 17  1  0  0  0  0
 19 17  1  0  0  0  0
M  RAD  3   2   2   3   3   5   2
M  END
