Coordinates from ORCA-job PhN2+~CF3COO-_B3LYPG-6-31G_dp-NX-Scan-d89-09-n800
 OpenBabel11261920123D

 20 20  0  0  1  0  0  0  0  0999 V2000
   -5.0159   -1.4315    1.4065 C   0  0  1  0  0  0  0  0  0  0  0  0
   -5.4745   -1.0144    2.5635 N   0  0  0  0  0  0  0  0  0  0  0  0
   -5.8653   -0.6135    3.5558 N   0  0  0  0  0  0  0  0  0  0  0  0
   -5.9155   -1.5206    0.2772 C   0  0  0  0  0  0  0  0  0  0  0  0
   -5.4044   -1.5129   -0.9686 C   0  0  0  0  0  0  0  0  0  0  0  0
   -3.9516   -1.2586   -1.2006 C   0  0  2  0  0  0  0  0  0  0  0  0
   -3.0857   -1.5760   -0.0266 C   0  0  0  0  0  0  0  0  0  0  0  0
   -3.5890   -1.5828    1.2224 C   0  0  0  0  0  0  0  0  0  0  0  0
   -6.9827   -1.6041    0.4598 H   0  0  0  0  0  0  0  0  0  0  0  0
   -6.0493   -1.6204   -1.8345 H   0  0  0  0  0  0  0  0  0  0  0  0
   -3.5950   -1.7432   -2.1110 H   0  0  0  0  0  0  0  0  0  0  0  0
   -2.0257   -1.7301   -0.1999 H   0  0  0  0  0  0  0  0  0  0  0  0
   -2.9566   -1.7110    2.0955 H   0  0  0  0  0  0  0  0  0  0  0  0
   -4.4894    1.1641    0.3153 O   0  0  0  0  0  0  0  0  0  0  0  0
   -4.0386    1.1956   -0.8055 C   0  0  0  0  0  0  0  0  0  0  0  0
   -3.7370    0.1980   -1.6300 O   0  0  0  0  0  0  0  0  0  0  0  0
   -3.7084    2.5342   -1.5132 C   0  0  0  0  0  0  0  0  0  0  0  0
   -2.3937    2.6060   -1.7975 F   0  0  0  0  0  0  0  0  0  0  0  0
   -4.3932    2.6457   -2.6671 F   0  0  0  0  0  0  0  0  0  0  0  0
   -4.0283    3.5687   -0.7295 F   0  0  0  0  0  0  0  0  0  0  0  0
  1  2  1  6  0  0  0
  2  3  1  0  0  0  0
  4  9  1  0  0  0  0
  4  1  1  0  0  0  0
  5  4  2  0  0  0  0
  6 11  1  6  0  0  0
  6  5  1  0  0  0  0
  6  7  1  0  0  0  0
  7  8  2  0  0  0  0
  8  1  1  0  0  0  0
  8 13  1  0  0  0  0
 10  5  1  0  0  0  0
 12  7  1  0  0  0  0
 15 14  2  0  0  0  0
 16  6  1  0  0  0  0
 16 15  1  0  0  0  0
 17 15  1  0  0  0  0
 17 20  1  0  0  0  0
 18 17  1  0  0  0  0
 19 17  1  0  0  0  0
M  RAD  3   1   2   2   2   3   3
M  END
