Coordinates from ORCA-job PhN2+~CF3COO-_B3LYPG-6-31G_dp-NX-Scan-d89-09-n800
 OpenBabel11261920123D

 20 20  0  0  0  0  0  0  0  0999 V2000
   -3.8282   -1.1447    0.2402 C   0  0  0  0  0  0  0  0  0  0  0  0
   -3.5071    0.1063    0.8138 N   0  0  0  0  0  0  0  0  0  0  0  0
   -3.8584    1.2441    0.6065 N   0  0  0  0  0  0  0  0  0  0  0  0
   -4.6947   -1.4006   -0.8434 C   0  0  0  0  0  0  0  0  0  0  0  0
   -4.8733   -2.7160   -1.2648 C   0  0  0  0  0  0  0  0  0  0  0  0
   -4.2125   -3.7713   -0.6299 C   0  0  0  0  0  0  0  0  0  0  0  0
   -3.3551   -3.5176    0.4431 C   0  0  0  0  0  0  0  0  0  0  0  0
   -3.1625   -2.2098    0.8740 C   0  0  0  0  0  0  0  0  0  0  0  0
   -5.2096   -0.5927   -1.3382 H   0  0  0  0  0  0  0  0  0  0  0  0
   -5.5373   -2.9171   -2.0999 H   0  0  0  0  0  0  0  0  0  0  0  0
   -4.3664   -4.7900   -0.9730 H   0  0  0  0  0  0  0  0  0  0  0  0
   -2.8400   -4.3335    0.9392 H   0  0  0  0  0  0  0  0  0  0  0  0
   -2.5020   -1.9792    1.7030 H   0  0  0  0  0  0  0  0  0  0  0  0
   -4.8735    1.3612   -0.5198 O   0  0  0  0  0  0  0  0  0  0  0  0
   -5.3066    2.6070   -0.7914 C   0  0  0  0  0  0  0  0  0  0  0  0
   -6.1136    2.8024   -1.6617 O   0  0  0  0  0  0  0  0  0  0  0  0
   -4.7377    3.7878    0.0451 C   0  0  0  0  0  0  0  0  0  0  0  0
   -3.4051    3.8867   -0.0990 F   0  0  0  0  0  0  0  0  0  0  0  0
   -5.2899    4.9267   -0.3816 F   0  0  0  0  0  0  0  0  0  0  0  0
   -5.0264    3.6434    1.3497 F   0  0  0  0  0  0  0  0  0  0  0  0
  1  2  1  0  0  0  0
  1  8  2  0  0  0  0
  3  2  1  0  0  0  0
  4  1  1  0  0  0  0
  5  4  2  0  0  0  0
  5  6  1  0  0  0  0
  6  7  2  0  0  0  0
  7  8  1  0  0  0  0
  7 12  1  0  0  0  0
  8 13  1  0  0  0  0
  9  4  1  0  0  0  0
 10  5  1  0  0  0  0
 11  6  1  0  0  0  0
 14  3  1  0  0  0  0
 15 14  1  0  0  0  0
 15 17  1  0  0  0  0
 16 15  2  0  0  0  0
 17 20  1  0  0  0  0
 18 17  1  0  0  0  0
 19 17  1  0  0  0  0
M  RAD  2   2   2   3   2
M  END
