Coordinates from ORCA-job PhN2+~CF3COO-_B3LYPG-6-31G_dp-NX-Scan-d89-09-n800
 OpenBabel11261920123D

 20 20  0  0  1  0  0  0  0  0999 V2000
   -5.0191   -1.4311    1.4166 C   0  0  1  0  0  0  0  0  0  0  0  0
   -5.4854   -1.0726    2.5901 N   0  0  0  0  0  0  0  0  0  0  0  0
   -5.8848   -0.7271    3.6000 N   0  0  0  0  0  0  0  0  0  0  0  0
   -5.9179   -1.5086    0.2863 C   0  0  0  0  0  0  0  0  0  0  0  0
   -5.4076   -1.4939   -0.9597 C   0  0  0  0  0  0  0  0  0  0  0  0
   -3.9535   -1.2490   -1.1946 C   0  0  2  0  0  0  0  0  0  0  0  0
   -3.0880   -1.5586   -0.0179 C   0  0  0  0  0  0  0  0  0  0  0  0
   -3.5918   -1.5726    1.2308 C   0  0  0  0  0  0  0  0  0  0  0  0
   -6.9853   -1.5926    0.4679 H   0  0  0  0  0  0  0  0  0  0  0  0
   -6.0545   -1.5918   -1.8253 H   0  0  0  0  0  0  0  0  0  0  0  0
   -3.5999   -1.7465   -2.0994 H   0  0  0  0  0  0  0  0  0  0  0  0
   -2.0265   -1.7042   -0.1899 H   0  0  0  0  0  0  0  0  0  0  0  0
   -2.9584   -1.7026    2.1029 H   0  0  0  0  0  0  0  0  0  0  0  0
   -4.4881    1.1802    0.2944 O   0  0  0  0  0  0  0  0  0  0  0  0
   -4.0338    1.2043   -0.8250 C   0  0  0  0  0  0  0  0  0  0  0  0
   -3.7318    0.1995   -1.6407 O   0  0  0  0  0  0  0  0  0  0  0  0
   -3.6973    2.5370   -1.5406 C   0  0  0  0  0  0  0  0  0  0  0  0
   -2.3815    2.6029   -1.8213 F   0  0  0  0  0  0  0  0  0  0  0  0
   -4.3781    2.6426   -2.6974 F   0  0  0  0  0  0  0  0  0  0  0  0
   -4.0165    3.5777   -0.7650 F   0  0  0  0  0  0  0  0  0  0  0  0
  1  2  1  6  0  0  0
  2  3  1  0  0  0  0
  4  9  1  0  0  0  0
  4  1  1  0  0  0  0
  5  4  2  0  0  0  0
  6 11  1  6  0  0  0
  6  5  1  0  0  0  0
  6  7  1  0  0  0  0
  7  8  2  0  0  0  0
  8  1  1  0  0  0  0
  8 13  1  0  0  0  0
 10  5  1  0  0  0  0
 12  7  1  0  0  0  0
 15 14  2  0  0  0  0
 16  6  1  0  0  0  0
 16 15  1  0  0  0  0
 17 15  1  0  0  0  0
 17 20  1  0  0  0  0
 18 17  1  0  0  0  0
 19 17  1  0  0  0  0
M  RAD  3   1   2   2   2   3   3
M  END
