Coordinates from ORCA-job PhN2+~CF3COO-_B3LYPG-6-31G_dp-NX-Scan-d89-09-n800
 OpenBabel11261920123D

 20 20  0  0  1  0  0  0  0  0999 V2000
   -5.0028   -1.4393    1.3744 C   0  0  1  0  0  0  0  0  0  0  0  0
   -5.4169   -0.7882    2.4374 N   0  0  0  0  0  0  0  0  0  0  0  0
   -5.7580   -0.1624    3.3236 N   0  0  0  0  0  0  0  0  0  0  0  0
   -5.9065   -1.5659    0.2488 C   0  0  0  0  0  0  0  0  0  0  0  0
   -5.3939   -1.5806   -0.9964 C   0  0  0  0  0  0  0  0  0  0  0  0
   -3.9462   -1.2938   -1.2185 C   0  0  2  0  0  0  0  0  0  0  0  0
   -3.0774   -1.6417   -0.0561 C   0  0  0  0  0  0  0  0  0  0  0  0
   -3.5771   -1.6259    1.1942 C   0  0  0  0  0  0  0  0  0  0  0  0
   -6.9735   -1.6479    0.4346 H   0  0  0  0  0  0  0  0  0  0  0  0
   -6.0315   -1.7208   -1.8630 H   0  0  0  0  0  0  0  0  0  0  0  0
   -3.5802   -1.7287   -2.1489 H   0  0  0  0  0  0  0  0  0  0  0  0
   -2.0236   -1.8271   -0.2364 H   0  0  0  0  0  0  0  0  0  0  0  0
   -2.9462   -1.7511    2.0691 H   0  0  0  0  0  0  0  0  0  0  0  0
   -4.5249    1.1006    0.3906 O   0  0  0  0  0  0  0  0  0  0  0  0
   -4.0721    1.1593   -0.7299 C   0  0  0  0  0  0  0  0  0  0  0  0
   -3.7584    0.1902   -1.5822 O   0  0  0  0  0  0  0  0  0  0  0  0
   -3.7528    2.5195   -1.4019 C   0  0  0  0  0  0  0  0  0  0  0  0
   -2.4383    2.6108   -1.6814 F   0  0  0  0  0  0  0  0  0  0  0  0
   -4.4365    2.6555   -2.5538 F   0  0  0  0  0  0  0  0  0  0  0  0
   -4.0834    3.5304   -0.5923 F   0  0  0  0  0  0  0  0  0  0  0  0
  1  2  1  6  0  0  0
  2  3  1  0  0  0  0
  4  9  1  0  0  0  0
  4  1  1  0  0  0  0
  5  4  2  0  0  0  0
  6 11  1  6  0  0  0
  6  5  1  0  0  0  0
  6  7  1  0  0  0  0
  7  8  2  0  0  0  0
  8  1  1  0  0  0  0
  8 13  1  0  0  0  0
 10  5  1  0  0  0  0
 12  7  1  0  0  0  0
 15 14  2  0  0  0  0
 16  6  1  0  0  0  0
 16 15  1  0  0  0  0
 17 15  1  0  0  0  0
 17 20  1  0  0  0  0
 18 17  1  0  0  0  0
 19 17  1  0  0  0  0
M  RAD  3   1   2   2   2   3   3
M  END
