Coordinates from ORCA-job PhN2+~CF3COO-_B3LYPG-6-31G_dp-NX-Scan-d89-09-n800
 OpenBabel11261920123D

 20 20  0  0  0  0  0  0  0  0999 V2000
   -3.8164   -1.1694    0.2572 C   0  0  0  0  0  0  0  0  0  0  0  0
   -3.5182    0.0904    0.8132 N   0  0  0  0  0  0  0  0  0  0  0  0
   -3.8254    1.2267    0.6541 N   0  0  0  0  0  0  0  0  0  0  0  0
   -4.6871   -1.4047   -0.8253 C   0  0  0  0  0  0  0  0  0  0  0  0
   -4.8691   -2.7160   -1.2567 C   0  0  0  0  0  0  0  0  0  0  0  0
   -4.2070   -3.7765   -0.6310 C   0  0  0  0  0  0  0  0  0  0  0  0
   -3.3456   -3.5358    0.4425 C   0  0  0  0  0  0  0  0  0  0  0  0
   -3.1478   -2.2332    0.8865 C   0  0  0  0  0  0  0  0  0  0  0  0
   -5.1954   -0.5803   -1.3013 H   0  0  0  0  0  0  0  0  0  0  0  0
   -5.5357   -2.9098   -2.0912 H   0  0  0  0  0  0  0  0  0  0  0  0
   -4.3634   -4.7921   -0.9819 H   0  0  0  0  0  0  0  0  0  0  0  0
   -2.8318   -4.3581    0.9291 H   0  0  0  0  0  0  0  0  0  0  0  0
   -2.4852   -2.0119    1.7163 H   0  0  0  0  0  0  0  0  0  0  0  0
   -4.9221    1.4000   -0.5678 O   0  0  0  0  0  0  0  0  0  0  0  0
   -5.3378    2.6370   -0.8248 C   0  0  0  0  0  0  0  0  0  0  0  0
   -6.1455    2.8754   -1.6908 O   0  0  0  0  0  0  0  0  0  0  0  0
   -4.7490    3.7946    0.0282 C   0  0  0  0  0  0  0  0  0  0  0  0
   -3.4107    3.8662   -0.1084 F   0  0  0  0  0  0  0  0  0  0  0  0
   -5.2698    4.9585   -0.3701 F   0  0  0  0  0  0  0  0  0  0  0  0
   -5.0368    3.6319    1.3341 F   0  0  0  0  0  0  0  0  0  0  0  0
  1  2  1  0  0  0  0
  1  8  2  0  0  0  0
  3  2  1  0  0  0  0
  4  1  1  0  0  0  0
  5  4  2  0  0  0  0
  5  6  1  0  0  0  0
  6  7  2  0  0  0  0
  7  8  1  0  0  0  0
  7 12  1  0  0  0  0
  8 13  1  0  0  0  0
  9  4  1  0  0  0  0
 10  5  1  0  0  0  0
 11  6  1  0  0  0  0
 14  3  1  0  0  0  0
 15 14  1  0  0  0  0
 15 17  1  0  0  0  0
 16 15  2  0  0  0  0
 17 20  1  0  0  0  0
 18 17  1  0  0  0  0
 19 17  1  0  0  0  0
M  RAD  2   2   2   3   2
M  END
