Coordinates from ORCA-job PhN2+~CF3COO-_B3LYPG-6-31G_dp-NX-Scan-d89-09-n800
 OpenBabel11261920123D

 20 20  0  0  1  0  0  0  0  0999 V2000
   -5.1732   -1.7617    1.5569 C   0  0  0  0  0  0  0  0  0  0  0  0
   -5.6709   -2.0831    2.7295 N   0  0  0  0  0  0  0  0  0  0  0  0
   -6.1033   -2.3341    3.7550 N   0  0  0  0  0  0  0  0  0  0  0  0
   -6.0095   -1.0961    0.5814 C   0  0  0  0  0  0  0  0  0  0  0  0
   -5.4509   -0.6021   -0.5399 C   0  0  0  0  0  0  0  0  0  0  0  0
   -3.9660   -0.5624   -0.7087 C   0  0  2  0  0  0  0  0  0  0  0  0
   -3.2458   -1.5780    0.1172 C   0  0  0  0  0  0  0  0  0  0  0  0
   -3.7959   -2.0771    1.2403 C   0  0  0  0  0  0  0  0  0  0  0  0
   -7.0787   -1.0373    0.7607 H   0  0  0  0  0  0  0  0  0  0  0  0
   -6.0635   -0.1355   -1.3024 H   0  0  0  0  0  0  0  0  0  0  0  0
   -3.6590   -0.5942   -1.7532 H   0  0  0  0  0  0  0  0  0  0  0  0
   -2.2276   -1.8301   -0.1575 H   0  0  0  0  0  0  0  0  0  0  0  0
   -3.2441   -2.7380    1.9018 H   0  0  0  0  0  0  0  0  0  0  0  0
   -3.4352    2.9844   -0.1694 O   0  0  0  0  0  0  0  0  0  0  0  0
   -3.5215    1.9400   -0.7639 C   0  0  0  0  0  0  0  0  0  0  0  0
   -3.4824    0.7649   -0.1416 O   0  0  0  0  0  0  0  0  0  0  0  0
   -3.6196    1.9414   -2.3131 C   0  0  0  0  0  0  0  0  0  0  0  0
   -2.6462    1.1741   -2.8562 F   0  0  0  0  0  0  0  0  0  0  0  0
   -4.8087    1.4428   -2.7315 F   0  0  0  0  0  0  0  0  0  0  0  0
   -3.4979    3.1753   -2.7936 F   0  0  0  0  0  0  0  0  0  0  0  0
  1  2  1  0  0  0  0
  2  3  1  0  0  0  0
  4  9  1  0  0  0  0
  4  1  2  0  0  0  0
  5  4  1  0  0  0  0
  6 11  1  6  0  0  0
  6  5  1  0  0  0  0
  6 16  1  0  0  0  0
  6  7  1  0  0  0  0
  7  8  2  0  0  0  0
  8  1  1  0  0  0  0
  8 13  1  0  0  0  0
 10  5  1  0  0  0  0
 12  7  1  0  0  0  0
 15 14  2  0  0  0  0
 15 16  1  0  0  0  0
 17 15  1  0  0  0  0
 18 17  1  0  0  0  0
 19 17  1  0  0  0  0
 20 17  1  0  0  0  0
M  RAD  3   2   2   3   3   5   2
M  END
