Coordinates from ORCA-job PhN2+~CF3COO-_B3LYPG-6-31G_dp-NX-Scan-d89-09-n800
 OpenBabel11261920123D

 20 20  0  0  1  0  0  0  0  0999 V2000
   -4.9984   -1.4813    1.3642 C   0  0  1  0  0  0  0  0  0  0  0  0
   -5.3349   -0.5685    2.2545 N   0  0  0  0  0  0  0  0  0  0  0  0
   -5.5735    0.3285    2.9046 N   0  0  0  0  0  0  0  0  0  0  0  0
   -5.9041   -1.6348    0.2357 C   0  0  0  0  0  0  0  0  0  0  0  0
   -5.3889   -1.6447   -1.0080 C   0  0  0  0  0  0  0  0  0  0  0  0
   -3.9477   -1.3176   -1.2156 C   0  0  2  0  0  0  0  0  0  0  0  0
   -3.0747   -1.7072   -0.0696 C   0  0  0  0  0  0  0  0  0  0  0  0
   -3.5708   -1.6971    1.1818 C   0  0  0  0  0  0  0  0  0  0  0  0
   -6.9709   -1.7255    0.4206 H   0  0  0  0  0  0  0  0  0  0  0  0
   -6.0162   -1.8094   -1.8781 H   0  0  0  0  0  0  0  0  0  0  0  0
   -3.5725   -1.6958   -2.1661 H   0  0  0  0  0  0  0  0  0  0  0  0
   -2.0276   -1.9182   -0.2610 H   0  0  0  0  0  0  0  0  0  0  0  0
   -2.9392   -1.8329    2.0551 H   0  0  0  0  0  0  0  0  0  0  0  0
   -4.5721    1.0692    0.4840 O   0  0  0  0  0  0  0  0  0  0  0  0
   -4.1139    1.1397   -0.6353 C   0  0  0  0  0  0  0  0  0  0  0  0
   -3.7886    0.1905   -1.5057 O   0  0  0  0  0  0  0  0  0  0  0  0
   -3.8002    2.5123   -1.2866 C   0  0  0  0  0  0  0  0  0  0  0  0
   -2.4854    2.6152   -1.5603 F   0  0  0  0  0  0  0  0  0  0  0  0
   -4.4811    2.6612   -2.4385 F   0  0  0  0  0  0  0  0  0  0  0  0
   -4.1392    3.5095   -0.4638 F   0  0  0  0  0  0  0  0  0  0  0  0
  1  2  1  6  0  0  0
  2  3  1  0  0  0  0
  4  9  1  0  0  0  0
  4  1  1  0  0  0  0
  5  4  2  0  0  0  0
  6 11  1  6  0  0  0
  6  5  1  0  0  0  0
  6  7  1  0  0  0  0
  7  8  2  0  0  0  0
  8  1  1  0  0  0  0
  8 13  1  0  0  0  0
 10  5  1  0  0  0  0
 12  7  1  0  0  0  0
 15 14  2  0  0  0  0
 16  6  1  0  0  0  0
 16 15  1  0  0  0  0
 17 15  1  0  0  0  0
 17 20  1  0  0  0  0
 18 17  1  0  0  0  0
 19 17  1  0  0  0  0
M  RAD  3   1   2   2   2   3   3
M  END
