Coordinates from ORCA-job PhN2+~CF3COO-_B3LYPG-6-31G_dp-NX-Scan-d89-09-n800
 OpenBabel11261920123D

 20 20  0  0  1  0  0  0  0  0999 V2000
   -5.0316   -1.4448    1.4487 C   0  0  0  0  0  0  0  0  0  0  0  0
   -5.5141   -1.2383    2.6524 N   0  0  0  0  0  0  0  0  0  0  0  0
   -5.9311   -1.0376    3.6949 N   0  0  0  0  0  0  0  0  0  0  0  0
   -5.9273   -1.4849    0.3143 C   0  0  0  0  0  0  0  0  0  0  0  0
   -5.4182   -1.4404   -0.9313 C   0  0  0  0  0  0  0  0  0  0  0  0
   -3.9608   -1.2186   -1.1725 C   0  0  2  0  0  0  0  0  0  0  0  0
   -3.0967   -1.5086    0.0109 C   0  0  0  0  0  0  0  0  0  0  0  0
   -3.6022   -1.5526    1.2580 C   0  0  0  0  0  0  0  0  0  0  0  0
   -6.9950   -1.5720    0.4919 H   0  0  0  0  0  0  0  0  0  0  0  0
   -6.0696   -1.5074   -1.7965 H   0  0  0  0  0  0  0  0  0  0  0  0
   -3.6152   -1.7498   -2.0621 H   0  0  0  0  0  0  0  0  0  0  0  0
   -2.0310   -1.6258   -0.1575 H   0  0  0  0  0  0  0  0  0  0  0  0
   -2.9660   -1.6884    2.1271 H   0  0  0  0  0  0  0  0  0  0  0  0
   -4.4733    1.2389    0.2431 O   0  0  0  0  0  0  0  0  0  0  0  0
   -4.0140    1.2355   -0.8734 C   0  0  0  0  0  0  0  0  0  0  0  0
   -3.7198    0.2071   -1.6631 O   0  0  0  0  0  0  0  0  0  0  0  0
   -3.6652    2.5473   -1.6206 C   0  0  0  0  0  0  0  0  0  0  0  0
   -2.3482    2.5954   -1.8993 F   0  0  0  0  0  0  0  0  0  0  0  0
   -4.3423    2.6291   -2.7815 F   0  0  0  0  0  0  0  0  0  0  0  0
   -3.9780    3.6092   -0.8717 F   0  0  0  0  0  0  0  0  0  0  0  0
  1  2  1  0  0  0  0
  2  3  1  0  0  0  0
  4  9  1  0  0  0  0
  4  1  2  0  0  0  0
  5  4  1  0  0  0  0
  6 11  1  6  0  0  0
  6  5  1  0  0  0  0
  6  7  1  0  0  0  0
  7  8  2  0  0  0  0
  8  1  1  0  0  0  0
  8 13  1  0  0  0  0
 10  5  1  0  0  0  0
 12  7  1  0  0  0  0
 15 14  2  0  0  0  0
 16  6  1  0  0  0  0
 16 15  1  0  0  0  0
 17 15  1  0  0  0  0
 17 20  1  0  0  0  0
 18 17  1  0  0  0  0
 19 17  1  0  0  0  0
M  RAD  3   2   2   3   3   5   2
M  END
