Coordinates from ORCA-job PhN2+~CF3COO-_B3LYPG-6-31G_dp-NX-Scan-d89-09-n800
 OpenBabel11261920123D

 20 20  0  0  1  0  0  0  0  0999 V2000
   -5.2371   -1.9389    1.5746 C   0  0  0  0  0  0  0  0  0  0  0  0
   -5.7822   -2.6886    2.5062 N   0  0  0  0  0  0  0  0  0  0  0  0
   -6.2558   -3.3409    3.3173 N   0  0  0  0  0  0  0  0  0  0  0  0
   -6.0674   -1.0932    0.7421 C   0  0  0  0  0  0  0  0  0  0  0  0
   -5.5153   -0.3528   -0.2375 C   0  0  0  0  0  0  0  0  0  0  0  0
   -4.0418   -0.3111   -0.4934 C   0  0  2  0  0  0  0  0  0  0  0  0
   -3.2543   -1.2491    0.3657 C   0  0  0  0  0  0  0  0  0  0  0  0
   -3.8085   -1.9916    1.3420 C   0  0  0  0  0  0  0  0  0  0  0  0
   -7.1401   -1.0881    0.9113 H   0  0  0  0  0  0  0  0  0  0  0  0
   -6.1418    0.2625   -0.8736 H   0  0  0  0  0  0  0  0  0  0  0  0
   -3.8104   -0.4679   -1.5477 H   0  0  0  0  0  0  0  0  0  0  0  0
   -2.1857   -1.3004    0.1829 H   0  0  0  0  0  0  0  0  0  0  0  0
   -3.2042   -2.6538    1.9541 H   0  0  0  0  0  0  0  0  0  0  0  0
   -2.8772    3.1305   -0.6723 O   0  0  0  0  0  0  0  0  0  0  0  0
   -3.3000    2.0556   -1.0157 C   0  0  0  0  0  0  0  0  0  0  0  0
   -3.5388    1.0718   -0.1465 O   0  0  0  0  0  0  0  0  0  0  0  0
   -3.5723    1.8022   -2.5248 C   0  0  0  0  0  0  0  0  0  0  0  0
   -2.7461    0.8443   -3.0090 F   0  0  0  0  0  0  0  0  0  0  0  0
   -4.8451    1.3897   -2.7364 F   0  0  0  0  0  0  0  0  0  0  0  0
   -3.3759    2.9130   -3.2273 F   0  0  0  0  0  0  0  0  0  0  0  0
  1  2  1  0  0  0  0
  2  3  1  0  0  0  0
  4  9  1  0  0  0  0
  4  1  2  0  0  0  0
  5  4  1  0  0  0  0
  6 11  1  6  0  0  0
  6  5  1  0  0  0  0
  6 16  1  0  0  0  0
  6  7  1  0  0  0  0
  7  8  2  0  0  0  0
  8  1  1  0  0  0  0
  8 13  1  0  0  0  0
 10  5  1  0  0  0  0
 12  7  1  0  0  0  0
 15 14  2  0  0  0  0
 15 16  1  0  0  0  0
 17 15  1  0  0  0  0
 18 17  1  0  0  0  0
 19 17  1  0  0  0  0
 20 17  1  0  0  0  0
M  RAD  3   2   2   3   3   5   2
M  END
