Coordinates from ORCA-job PhN2+~CF3COO-_B3LYPG-6-31G_dp-NX-Scan-d89-09-n800
 OpenBabel11261920123D

 20 20  0  0  1  0  0  0  0  0999 V2000
   -5.0080   -1.4317    1.3924 C   0  0  1  0  0  0  0  0  0  0  0  0
   -5.4496   -0.9222    2.5187 N   0  0  0  0  0  0  0  0  0  0  0  0
   -5.8220   -0.4331    3.4771 N   0  0  0  0  0  0  0  0  0  0  0  0
   -5.9103   -1.5346    0.2655 C   0  0  0  0  0  0  0  0  0  0  0  0
   -5.3993   -1.5385   -0.9805 C   0  0  0  0  0  0  0  0  0  0  0  0
   -3.9482   -1.2738   -1.2092 C   0  0  2  0  0  0  0  0  0  0  0  0
   -3.0812   -1.6056   -0.0403 C   0  0  0  0  0  0  0  0  0  0  0  0
   -3.5824   -1.6013    1.2095 C   0  0  0  0  0  0  0  0  0  0  0  0
   -6.9774   -1.6149    0.4503 H   0  0  0  0  0  0  0  0  0  0  0  0
   -6.0421   -1.6583   -1.8462 H   0  0  0  0  0  0  0  0  0  0  0  0
   -3.5888   -1.7386   -2.1282 H   0  0  0  0  0  0  0  0  0  0  0  0
   -2.0240   -1.7750   -0.2169 H   0  0  0  0  0  0  0  0  0  0  0  0
   -2.9506   -1.7294    2.0832 H   0  0  0  0  0  0  0  0  0  0  0  0
   -4.5196    1.1366    0.3380 O   0  0  0  0  0  0  0  0  0  0  0  0
   -4.0566    1.1800   -0.7781 C   0  0  0  0  0  0  0  0  0  0  0  0
   -3.7423    0.1944   -1.6117 O   0  0  0  0  0  0  0  0  0  0  0  0
   -3.7268    2.5281   -1.4683 C   0  0  0  0  0  0  0  0  0  0  0  0
   -2.4097    2.6102   -1.7385 F   0  0  0  0  0  0  0  0  0  0  0  0
   -4.4006    2.6483   -2.6278 F   0  0  0  0  0  0  0  0  0  0  0  0
   -4.0603    3.5525   -0.6770 F   0  0  0  0  0  0  0  0  0  0  0  0
  1  2  1  6  0  0  0
  2  3  1  0  0  0  0
  4  9  1  0  0  0  0
  4  1  1  0  0  0  0
  5  4  2  0  0  0  0
  6 11  1  6  0  0  0
  6  5  1  0  0  0  0
  6  7  1  0  0  0  0
  7  8  2  0  0  0  0
  8  1  1  0  0  0  0
  8 13  1  0  0  0  0
 10  5  1  0  0  0  0
 12  7  1  0  0  0  0
 15 14  2  0  0  0  0
 16  6  1  0  0  0  0
 16 15  1  0  0  0  0
 17 15  1  0  0  0  0
 17 20  1  0  0  0  0
 18 17  1  0  0  0  0
 19 17  1  0  0  0  0
M  RAD  3   1   2   2   2   3   3
M  END
