Coordinates from ORCA-job PhN2+~CF3COO-_B3LYPG-6-31G_dp-NX-Scan-d89-09-n800
 OpenBabel11261920123D

 20 20  0  0  1  0  0  0  0  0999 V2000
   -5.2113   -1.8662    1.5786 C   0  0  0  0  0  0  0  0  0  0  0  0
   -5.7364   -2.4340    2.6407 N   0  0  0  0  0  0  0  0  0  0  0  0
   -6.1924   -2.9161    3.5702 N   0  0  0  0  0  0  0  0  0  0  0  0
   -6.0506   -1.1069    0.6767 C   0  0  0  0  0  0  0  0  0  0  0  0
   -5.5021   -0.4743   -0.3777 C   0  0  0  0  0  0  0  0  0  0  0  0
   -4.0243   -0.4222   -0.5962 C   0  0  2  0  0  0  0  0  0  0  0  0
   -3.2551   -1.3937    0.2391 C   0  0  0  0  0  0  0  0  0  0  0  0
   -3.8020   -2.0294    1.2920 C   0  0  0  0  0  0  0  0  0  0  0  0
   -7.1215   -1.0850    0.8544 H   0  0  0  0  0  0  0  0  0  0  0  0
   -6.1279    0.0725   -1.0739 H   0  0  0  0  0  0  0  0  0  0  0  0
   -3.7599   -0.5123   -1.6495 H   0  0  0  0  0  0  0  0  0  0  0  0
   -2.2050   -1.5303    0.0033 H   0  0  0  0  0  0  0  0  0  0  0  0
   -3.2138   -2.6900    1.9214 H   0  0  0  0  0  0  0  0  0  0  0  0
   -3.1151    3.0989   -0.4434 O   0  0  0  0  0  0  0  0  0  0  0  0
   -3.3968    2.0214   -0.9030 C   0  0  0  0  0  0  0  0  0  0  0  0
   -3.5425    0.9413   -0.1380 O   0  0  0  0  0  0  0  0  0  0  0  0
   -3.5705    1.8719   -2.4391 C   0  0  0  0  0  0  0  0  0  0  0  0
   -2.6723    0.9912   -2.9409 F   0  0  0  0  0  0  0  0  0  0  0  0
   -4.8073    1.4166   -2.7544 F   0  0  0  0  0  0  0  0  0  0  0  0
   -3.3931    3.0399   -3.0482 F   0  0  0  0  0  0  0  0  0  0  0  0
  1  2  1  0  0  0  0
  2  3  1  0  0  0  0
  4  9  1  0  0  0  0
  4  1  2  0  0  0  0
  5  4  1  0  0  0  0
  6 11  1  6  0  0  0
  6  5  1  0  0  0  0
  6 16  1  0  0  0  0
  6  7  1  0  0  0  0
  7  8  2  0  0  0  0
  8  1  1  0  0  0  0
  8 13  1  0  0  0  0
 10  5  1  0  0  0  0
 12  7  1  0  0  0  0
 15 14  2  0  0  0  0
 15 16  1  0  0  0  0
 17 15  1  0  0  0  0
 18 17  1  0  0  0  0
 19 17  1  0  0  0  0
 20 17  1  0  0  0  0
M  RAD  3   2   2   3   3   5   2
M  END
