Coordinates from ORCA-job PhN2+~CF3COO-_B3LYPG-6-31G_dp-NX-Scan-d89-09-n800
 OpenBabel11261920123D

 20 20  0  0  1  0  0  0  0  0999 V2000
   -5.1533   -1.7109    1.5404 C   0  0  0  0  0  0  0  0  0  0  0  0
   -5.6320   -1.9176    2.7462 N   0  0  0  0  0  0  0  0  0  0  0  0
   -6.0479   -2.0617    3.7985 N   0  0  0  0  0  0  0  0  0  0  0  0
   -5.9891   -1.0864    0.5370 C   0  0  0  0  0  0  0  0  0  0  0  0
   -5.4260   -0.6541   -0.6076 C   0  0  0  0  0  0  0  0  0  0  0  0
   -3.9379   -0.6224   -0.7548 C   0  0  2  0  0  0  0  0  0  0  0  0
   -3.2430   -1.6561    0.0711 C   0  0  0  0  0  0  0  0  0  0  0  0
   -3.7939   -2.0947    1.2191 C   0  0  0  0  0  0  0  0  0  0  0  0
   -7.0572   -1.0101    0.7161 H   0  0  0  0  0  0  0  0  0  0  0  0
   -6.0318   -0.2248   -1.3965 H   0  0  0  0  0  0  0  0  0  0  0  0
   -3.6129   -0.6352   -1.7942 H   0  0  0  0  0  0  0  0  0  0  0  0
   -2.2426   -1.9596   -0.2158 H   0  0  0  0  0  0  0  0  0  0  0  0
   -3.2603   -2.7545    1.8964 H   0  0  0  0  0  0  0  0  0  0  0  0
   -3.5817    2.9027   -0.0485 O   0  0  0  0  0  0  0  0  0  0  0  0
   -3.5785    1.8902   -0.7016 C   0  0  0  0  0  0  0  0  0  0  0  0
   -3.4510    0.6875   -0.1479 O   0  0  0  0  0  0  0  0  0  0  0  0
   -3.6483    1.9663   -2.2506 C   0  0  0  0  0  0  0  0  0  0  0  0
   -2.6453    1.2521   -2.8111 F   0  0  0  0  0  0  0  0  0  0  0  0
   -4.8153    1.4570   -2.7156 F   0  0  0  0  0  0  0  0  0  0  0  0
   -3.5519    3.2253   -2.6684 F   0  0  0  0  0  0  0  0  0  0  0  0
  1  2  1  0  0  0  0
  2  3  1  0  0  0  0
  4  9  1  0  0  0  0
  4  1  2  0  0  0  0
  5  4  1  0  0  0  0
  6 11  1  6  0  0  0
  6  5  1  0  0  0  0
  6 16  1  0  0  0  0
  6  7  1  0  0  0  0
  7  8  2  0  0  0  0
  8  1  1  0  0  0  0
  8 13  1  0  0  0  0
 10  5  1  0  0  0  0
 12  7  1  0  0  0  0
 15 16  1  0  0  0  0
 15 14  2  0  0  0  0
 17 15  1  0  0  0  0
 18 17  1  0  0  0  0
 19 17  1  0  0  0  0
 20 17  1  0  0  0  0
M  RAD  3   2   2   3   3   5   2
M  END
