Coordinates from ORCA-job PhN2+~CF3COO-_B3LYPG-6-31G_dp-NX-Scan-d89-09-n800
 OpenBabel11261920123D

 20 20  0  0  1  0  0  0  0  0999 V2000
   -5.1054   -1.5838    1.4921 C   0  0  1  0  0  0  0  0  0  0  0  0
   -5.5399   -1.5382    2.7315 N   0  0  0  0  0  0  0  0  0  0  0  0
   -5.9181   -1.4485    3.8035 N   0  0  0  0  0  0  0  0  0  0  0  0
   -5.9290   -1.0413    0.4304 C   0  0  0  0  0  0  0  0  0  0  0  0
   -5.3480   -0.7545   -0.7510 C   0  0  0  0  0  0  0  0  0  0  0  0
   -3.8538   -0.7629   -0.8501 C   0  0  2  0  0  0  0  0  0  0  0  0
   -3.2328   -1.8257    0.0004 C   0  0  0  0  0  0  0  0  0  0  0  0
   -3.7937   -2.1232    1.1888 C   0  0  0  0  0  0  0  0  0  0  0  0
   -6.9937   -0.9136    0.5998 H   0  0  0  0  0  0  0  0  0  0  0  0
   -5.9314   -0.4085   -1.5947 H   0  0  0  0  0  0  0  0  0  0  0  0
   -3.4907   -0.7709   -1.8777 H   0  0  0  0  0  0  0  0  0  0  0  0
   -2.2783   -2.2473   -0.2927 H   0  0  0  0  0  0  0  0  0  0  0  0
   -3.3120   -2.7766    1.9097 H   0  0  0  0  0  0  0  0  0  0  0  0
   -3.8984    2.6311    0.2156 O   0  0  0  0  0  0  0  0  0  0  0  0
   -3.6963    1.7424   -0.5721 C   0  0  0  0  0  0  0  0  0  0  0  0
   -3.3334    0.5156   -0.1989 O   0  0  0  0  0  0  0  0  0  0  0  0
   -3.7479    2.0193   -2.0993 C   0  0  0  0  0  0  0  0  0  0  0  0
   -2.7078    1.4292   -2.7277 F   0  0  0  0  0  0  0  0  0  0  0  0
   -4.8832    1.5236   -2.6478 F   0  0  0  0  0  0  0  0  0  0  0  0
   -3.7060    3.3271   -2.3478 F   0  0  0  0  0  0  0  0  0  0  0  0
  1  2  1  1  0  0  0
  2  3  1  0  0  0  0
  4  9  1  0  0  0  0
  4  1  1  0  0  0  0
  5  4  2  0  0  0  0
  6 11  1  6  0  0  0
  6  5  1  0  0  0  0
  6 16  1  0  0  0  0
  6  7  1  0  0  0  0
  7  8  2  0  0  0  0
  8  1  1  0  0  0  0
  8 13  1  0  0  0  0
 10  5  1  0  0  0  0
 12  7  1  0  0  0  0
 15 16  1  0  0  0  0
 15 14  2  0  0  0  0
 17 15  1  0  0  0  0
 18 17  1  0  0  0  0
 19 17  1  0  0  0  0
 20 17  1  0  0  0  0
M  RAD  3   1   2   2   2   3   3
M  END
