Coordinates from ORCA-job PhN2+~CF3COO-_B3LYPG-6-31G_dp-NX-Scan-d89-09-n800
 OpenBabel11261920123D

 20 20  0  0  1  0  0  0  0  0999 V2000
   -5.1001   -1.5670    1.4840 C   0  0  1  0  0  0  0  0  0  0  0  0
   -5.5345   -1.4965    2.7220 N   0  0  0  0  0  0  0  0  0  0  0  0
   -5.9128   -1.3840    3.7914 N   0  0  0  0  0  0  0  0  0  0  0  0
   -5.9179   -1.0322    0.4141 C   0  0  0  0  0  0  0  0  0  0  0  0
   -5.3315   -0.7633   -0.7685 C   0  0  0  0  0  0  0  0  0  0  0  0
   -3.8369   -0.7805   -0.8595 C   0  0  2  0  0  0  0  0  0  0  0  0
   -3.2274   -1.8434   -0.0007 C   0  0  0  0  0  0  0  0  0  0  0  0
   -3.7935   -2.1236    1.1894 C   0  0  0  0  0  0  0  0  0  0  0  0
   -6.9824   -0.8966    0.5789 H   0  0  0  0  0  0  0  0  0  0  0  0
   -5.9097   -0.4258   -1.6192 H   0  0  0  0  0  0  0  0  0  0  0  0
   -3.4684   -0.7937   -1.8853 H   0  0  0  0  0  0  0  0  0  0  0  0
   -2.2774   -2.2781   -0.2893 H   0  0  0  0  0  0  0  0  0  0  0  0
   -3.3203   -2.7750    1.9177 H   0  0  0  0  0  0  0  0  0  0  0  0
   -3.9215    2.5908    0.2465 O   0  0  0  0  0  0  0  0  0  0  0  0
   -3.7022    1.7217   -0.5582 C   0  0  0  0  0  0  0  0  0  0  0  0
   -3.3098    0.4965   -0.2100 O   0  0  0  0  0  0  0  0  0  0  0  0
   -3.7705    2.0241   -2.0802 C   0  0  0  0  0  0  0  0  0  0  0  0
   -2.7451    1.4353   -2.7331 F   0  0  0  0  0  0  0  0  0  0  0  0
   -4.9181    1.5485   -2.6204 F   0  0  0  0  0  0  0  0  0  0  0  0
   -3.7196    3.3358   -2.3074 F   0  0  0  0  0  0  0  0  0  0  0  0
  1  2  1  1  0  0  0
  2  3  1  0  0  0  0
  4  9  1  0  0  0  0
  4  1  1  0  0  0  0
  5  4  2  0  0  0  0
  6 11  1  6  0  0  0
  6  5  1  0  0  0  0
  6 16  1  0  0  0  0
  6  7  1  0  0  0  0
  7  8  2  0  0  0  0
  8  1  1  0  0  0  0
  8 13  1  0  0  0  0
 10  5  1  0  0  0  0
 12  7  1  0  0  0  0
 15 16  1  0  0  0  0
 15 14  2  0  0  0  0
 17 15  1  0  0  0  0
 18 17  1  0  0  0  0
 19 17  1  0  0  0  0
 20 17  1  0  0  0  0
M  RAD  3   1   2   2   2   3   3
M  END
