Coordinates from ORCA-job PhN2+~CF3COO-_B3LYPG-6-31G_dp-NX-Scan-d89-09-n800
 OpenBabel11261920123D

 20 20  0  0  1  0  0  0  0  0999 V2000
   -5.1089   -1.5927    1.4957 C   0  0  1  0  0  0  0  0  0  0  0  0
   -5.5466   -1.5651    2.7341 N   0  0  0  0  0  0  0  0  0  0  0  0
   -5.9275   -1.4919    3.8061 N   0  0  0  0  0  0  0  0  0  0  0  0
   -5.9336   -1.0435    0.4386 C   0  0  0  0  0  0  0  0  0  0  0  0
   -5.3543   -0.7460   -0.7406 C   0  0  0  0  0  0  0  0  0  0  0  0
   -3.8606   -0.7524   -0.8435 C   0  0  2  0  0  0  0  0  0  0  0  0
   -3.2339   -1.8143    0.0035 C   0  0  0  0  0  0  0  0  0  0  0  0
   -3.7939   -2.1220    1.1895 C   0  0  0  0  0  0  0  0  0  0  0  0
   -6.9985   -0.9191    0.6096 H   0  0  0  0  0  0  0  0  0  0  0  0
   -5.9395   -0.3930   -1.5803 H   0  0  0  0  0  0  0  0  0  0  0  0
   -3.5005   -0.7590   -1.8722 H   0  0  0  0  0  0  0  0  0  0  0  0
   -2.2764   -2.2283   -0.2907 H   0  0  0  0  0  0  0  0  0  0  0  0
   -3.3085   -2.7770    1.9066 H   0  0  0  0  0  0  0  0  0  0  0  0
   -3.8764    2.6537    0.1980 O   0  0  0  0  0  0  0  0  0  0  0  0
   -3.6875    1.7540   -0.5803 C   0  0  0  0  0  0  0  0  0  0  0  0
   -3.3430    0.5268   -0.1927 O   0  0  0  0  0  0  0  0  0  0  0  0
   -3.7394    2.0143   -2.1104 C   0  0  0  0  0  0  0  0  0  0  0  0
   -2.6959    1.4219   -2.7313 F   0  0  0  0  0  0  0  0  0  0  0  0
   -4.8720    1.5075   -2.6548 F   0  0  0  0  0  0  0  0  0  0  0  0
   -3.7029    3.3193   -2.3730 F   0  0  0  0  0  0  0  0  0  0  0  0
  1  2  1  1  0  0  0
  2  3  1  0  0  0  0
  4  9  1  0  0  0  0
  4  1  1  0  0  0  0
  5  4  2  0  0  0  0
  6 11  1  6  0  0  0
  6  5  1  0  0  0  0
  6 16  1  0  0  0  0
  6  7  1  0  0  0  0
  7  8  2  0  0  0  0
  8  1  1  0  0  0  0
  8 13  1  0  0  0  0
 10  5  1  0  0  0  0
 12  7  1  0  0  0  0
 15 16  1  0  0  0  0
 15 14  2  0  0  0  0
 17 15  1  0  0  0  0
 18 17  1  0  0  0  0
 19 17  1  0  0  0  0
 20 17  1  0  0  0  0
M  RAD  3   1   2   2   2   3   3
M  END
