Coordinates from ORCA-job PhN2+~CF3COO-_B3LYPG-6-31G_dp-NX-Scan-d89-09-n800
 OpenBabel11261920123D

 20 20  0  0  1  0  0  0  0  0999 V2000
   -5.1301   -1.6516    1.5197 C   0  0  1  0  0  0  0  0  0  0  0  0
   -5.5848   -1.7336    2.7499 N   0  0  0  0  0  0  0  0  0  0  0  0
   -5.9799   -1.7617    3.8195 N   0  0  0  0  0  0  0  0  0  0  0  0
   -5.9636   -1.0681    0.4890 C   0  0  0  0  0  0  0  0  0  0  0  0
   -5.3948   -0.7048   -0.6770 C   0  0  0  0  0  0  0  0  0  0  0  0
   -3.9035   -0.6886   -0.8028 C   0  0  2  0  0  0  0  0  0  0  0  0
   -3.2410   -1.7405    0.0283 C   0  0  0  0  0  0  0  0  0  0  0  0
   -3.7935   -2.1119    1.1993 C   0  0  0  0  0  0  0  0  0  0  0  0
   -7.0300   -0.9686    0.6670 H   0  0  0  0  0  0  0  0  0  0  0  0
   -5.9920   -0.3155   -1.4922 H   0  0  0  0  0  0  0  0  0  0  0  0
   -3.5610   -0.6913   -1.8371 H   0  0  0  0  0  0  0  0  0  0  0  0
   -2.2630   -2.1020   -0.2677 H   0  0  0  0  0  0  0  0  0  0  0  0
   -3.2826   -2.7705    1.8950 H   0  0  0  0  0  0  0  0  0  0  0  0
   -3.7486    2.7871    0.0806 O   0  0  0  0  0  0  0  0  0  0  0  0
   -3.6428    1.8247   -0.6366 C   0  0  0  0  0  0  0  0  0  0  0  0
   -3.4041    0.6030   -0.1650 O   0  0  0  0  0  0  0  0  0  0  0  0
   -3.6858    1.9920   -2.1797 C   0  0  0  0  0  0  0  0  0  0  0  0
   -2.6482    1.3467   -2.7585 F   0  0  0  0  0  0  0  0  0  0  0  0
   -4.8242    1.4713   -2.6991 F   0  0  0  0  0  0  0  0  0  0  0  0
   -3.6264    3.2770   -2.5205 F   0  0  0  0  0  0  0  0  0  0  0  0
  1  2  1  1  0  0  0
  2  3  1  0  0  0  0
  4  9  1  0  0  0  0
  4  1  1  0  0  0  0
  5  4  2  0  0  0  0
  6 11  1  6  0  0  0
  6  5  1  0  0  0  0
  6 16  1  0  0  0  0
  6  7  1  0  0  0  0
  7  8  2  0  0  0  0
  8  1  1  0  0  0  0
  8 13  1  0  0  0  0
 10  5  1  0  0  0  0
 12  7  1  0  0  0  0
 15 16  1  0  0  0  0
 15 14  2  0  0  0  0
 17 15  1  0  0  0  0
 18 17  1  0  0  0  0
 19 17  1  0  0  0  0
 20 17  1  0  0  0  0
M  RAD  3   1   2   2   2   3   3
M  END
