Coordinates from ORCA-job PhN2+~CF3COO-_B3LYPG-6-31G_dp-NX-Scan-d89-09-n800
 OpenBabel11261920123D

 20 20  0  0  1  0  0  0  0  0999 V2000
   -5.1789   -1.7774    1.5613 C   0  0  0  0  0  0  0  0  0  0  0  0
   -5.6807   -2.1333    2.7223 N   0  0  0  0  0  0  0  0  0  0  0  0
   -6.1166   -2.4166    3.7381 N   0  0  0  0  0  0  0  0  0  0  0  0
   -6.0164   -1.0993    0.5956 C   0  0  0  0  0  0  0  0  0  0  0  0
   -5.4600   -0.5858   -0.5180 C   0  0  0  0  0  0  0  0  0  0  0  0
   -3.9761   -0.5433   -0.6942 C   0  0  2  0  0  0  0  0  0  0  0  0
   -3.2476   -1.5530    0.1317 C   0  0  0  0  0  0  0  0  0  0  0  0
   -3.7967   -2.0713    1.2465 C   0  0  0  0  0  0  0  0  0  0  0  0
   -7.0858   -1.0460    0.7756 H   0  0  0  0  0  0  0  0  0  0  0  0
   -6.0751   -0.1076   -1.2714 H   0  0  0  0  0  0  0  0  0  0  0  0
   -3.6753   -0.5816   -1.7404 H   0  0  0  0  0  0  0  0  0  0  0  0
   -2.2244   -1.7885   -0.1392 H   0  0  0  0  0  0  0  0  0  0  0  0
   -3.2388   -2.7321    1.9029 H   0  0  0  0  0  0  0  0  0  0  0  0
   -3.3923    3.0060   -0.2068 O   0  0  0  0  0  0  0  0  0  0  0  0
   -3.5044    1.9539   -0.7833 C   0  0  0  0  0  0  0  0  0  0  0  0
   -3.4937    0.7893   -0.1402 O   0  0  0  0  0  0  0  0  0  0  0  0
   -3.6093    1.9330   -2.3319 C   0  0  0  0  0  0  0  0  0  0  0  0
   -2.6438    1.1505   -2.8676 F   0  0  0  0  0  0  0  0  0  0  0  0
   -4.8040    1.4376   -2.7380 F   0  0  0  0  0  0  0  0  0  0  0  0
   -3.4801    3.1586   -2.8309 F   0  0  0  0  0  0  0  0  0  0  0  0
  1  2  1  0  0  0  0
  2  3  1  0  0  0  0
  4  9  1  0  0  0  0
  4  1  2  0  0  0  0
  5  4  1  0  0  0  0
  6 11  1  6  0  0  0
  6  5  1  0  0  0  0
  6 16  1  0  0  0  0
  6  7  1  0  0  0  0
  7  8  2  0  0  0  0
  8  1  1  0  0  0  0
  8 13  1  0  0  0  0
 10  5  1  0  0  0  0
 12  7  1  0  0  0  0
 15 14  2  0  0  0  0
 15 16  1  0  0  0  0
 17 15  1  0  0  0  0
 18 17  1  0  0  0  0
 19 17  1  0  0  0  0
 20 17  1  0  0  0  0
M  RAD  3   2   2   3   3   5   2
M  END
