Coordinates from ORCA-job PhN2+~CF3COO-_B3LYPG-6-31G_dp-NX-Scan-d89-09-n800
 OpenBabel11261920123D

 20 20  0  0  1  0  0  0  0  0999 V2000
   -5.1642   -1.7399    1.5500 C   0  0  0  0  0  0  0  0  0  0  0  0
   -5.6520   -2.0078    2.7403 N   0  0  0  0  0  0  0  0  0  0  0  0
   -6.0760   -2.2088    3.7804 N   0  0  0  0  0  0  0  0  0  0  0  0
   -6.0018   -1.0945    0.5617 C   0  0  0  0  0  0  0  0  0  0  0  0
   -5.4424   -0.6280   -0.5712 C   0  0  0  0  0  0  0  0  0  0  0  0
   -3.9560   -0.5893   -0.7305 C   0  0  2  0  0  0  0  0  0  0  0  0
   -3.2456   -1.6133    0.0940 C   0  0  0  0  0  0  0  0  0  0  0  0
   -3.7948   -2.0854    1.2294 C   0  0  0  0  0  0  0  0  0  0  0  0
   -7.0704   -1.0290    0.7418 H   0  0  0  0  0  0  0  0  0  0  0  0
   -6.0528   -0.1789   -1.3455 H   0  0  0  0  0  0  0  0  0  0  0  0
   -3.6408   -0.6104   -1.7730 H   0  0  0  0  0  0  0  0  0  0  0  0
   -2.2352   -1.8875   -0.1874 H   0  0  0  0  0  0  0  0  0  0  0  0
   -3.2498   -2.7451    1.8977 H   0  0  0  0  0  0  0  0  0  0  0  0
   -3.5031    2.9507   -0.1141 O   0  0  0  0  0  0  0  0  0  0  0  0
   -3.5492    1.9191   -0.7352 C   0  0  0  0  0  0  0  0  0  0  0  0
   -3.4727    0.7301   -0.1433 O   0  0  0  0  0  0  0  0  0  0  0  0
   -3.6290    1.9534   -2.2850 C   0  0  0  0  0  0  0  0  0  0  0  0
   -2.6412    1.2084   -2.8327 F   0  0  0  0  0  0  0  0  0  0  0  0
   -4.8074    1.4506   -2.7280 F   0  0  0  0  0  0  0  0  0  0  0  0
   -3.5157    3.1987   -2.7375 F   0  0  0  0  0  0  0  0  0  0  0  0
  1  2  1  0  0  0  0
  2  3  1  0  0  0  0
  4  9  1  0  0  0  0
  4  1  2  0  0  0  0
  5  4  1  0  0  0  0
  6 11  1  6  0  0  0
  6  5  1  0  0  0  0
  6 16  1  0  0  0  0
  6  7  1  0  0  0  0
  7  8  2  0  0  0  0
  8  1  1  0  0  0  0
  8 13  1  0  0  0  0
 10  5  1  0  0  0  0
 12  7  1  0  0  0  0
 15 16  1  0  0  0  0
 15 14  2  0  0  0  0
 17 15  1  0  0  0  0
 18 17  1  0  0  0  0
 19 17  1  0  0  0  0
 20 17  1  0  0  0  0
M  RAD  3   2   2   3   3   5   2
M  END
