Coordinates from ORCA-job PhN2+~CF3COO-_B3LYPG-6-31G_dp-NX-Scan-d89-09-n800
 OpenBabel11261920123D

 20 20  0  0  1  0  0  0  0  0999 V2000
   -5.2211   -1.8930    1.5800 C   0  0  0  0  0  0  0  0  0  0  0  0
   -5.7540   -2.5293    2.5986 N   0  0  0  0  0  0  0  0  0  0  0  0
   -6.2168   -3.0756    3.4890 N   0  0  0  0  0  0  0  0  0  0  0  0
   -6.0581   -1.1038    0.7015 C   0  0  0  0  0  0  0  0  0  0  0  0
   -5.5094   -0.4323   -0.3284 C   0  0  0  0  0  0  0  0  0  0  0  0
   -4.0333   -0.3821   -0.5605 C   0  0  2  0  0  0  0  0  0  0  0  0
   -3.2555   -1.3410    0.2822 C   0  0  0  0  0  0  0  0  0  0  0  0
   -3.8042   -2.0152    1.3099 C   0  0  0  0  0  0  0  0  0  0  0  0
   -7.1297   -1.0892    0.8765 H   0  0  0  0  0  0  0  0  0  0  0  0
   -6.1364    0.1384   -1.0041 H   0  0  0  0  0  0  0  0  0  0  0  0
   -3.7807   -0.4945   -1.6149 H   0  0  0  0  0  0  0  0  0  0  0  0
   -2.1980   -1.4461    0.0634 H   0  0  0  0  0  0  0  0  0  0  0  0
   -3.2089   -2.6759    1.9323 H   0  0  0  0  0  0  0  0  0  0  0  0
   -3.0255    3.1154   -0.5249 O   0  0  0  0  0  0  0  0  0  0  0  0
   -3.3608    2.0365   -0.9436 C   0  0  0  0  0  0  0  0  0  0  0  0
   -3.5457    0.9897   -0.1403 O   0  0  0  0  0  0  0  0  0  0  0  0
   -3.5677    1.8484   -2.4717 C   0  0  0  0  0  0  0  0  0  0  0  0
   -2.6953    0.9381   -2.9667 F   0  0  0  0  0  0  0  0  0  0  0  0
   -4.8184    1.4086   -2.7511 F   0  0  0  0  0  0  0  0  0  0  0  0
   -3.3803    2.9961   -3.1151 F   0  0  0  0  0  0  0  0  0  0  0  0
  1  2  1  0  0  0  0
  2  3  1  0  0  0  0
  4  9  1  0  0  0  0
  4  1  2  0  0  0  0
  5  4  1  0  0  0  0
  6 11  1  6  0  0  0
  6  5  1  0  0  0  0
  6 16  1  0  0  0  0
  6  7  1  0  0  0  0
  7  8  2  0  0  0  0
  8  1  1  0  0  0  0
  8 13  1  0  0  0  0
 10  5  1  0  0  0  0
 12  7  1  0  0  0  0
 15 14  2  0  0  0  0
 15 16  1  0  0  0  0
 17 15  1  0  0  0  0
 18 17  1  0  0  0  0
 19 17  1  0  0  0  0
 20 17  1  0  0  0  0
M  RAD  3   2   2   3   3   5   2
M  END
