Coordinates from ORCA-job PhN2+~CF3COO-_B3LYPG-6-31G_dp-NX-Scan-d89-09-n800
 OpenBabel11261920123D

 20 20  0  0  1  0  0  0  0  0999 V2000
   -5.0759   -1.5641    1.5439 C   0  0  0  0  0  0  0  0  0  0  0  0
   -5.5724   -1.7144    2.7513 N   0  0  0  0  0  0  0  0  0  0  0  0
   -6.0043   -1.8469    3.8013 N   0  0  0  0  0  0  0  0  0  0  0  0
   -5.9628   -1.4687    0.4041 C   0  0  0  0  0  0  0  0  0  0  0  0
   -5.4565   -1.2845   -0.8290 C   0  0  0  0  0  0  0  0  0  0  0  0
   -3.9920   -1.1138   -1.0826 C   0  0  2  0  0  0  0  0  0  0  0  0
   -3.1323   -1.3478    0.1192 C   0  0  0  0  0  0  0  0  0  0  0  0
   -3.6418   -1.5307    1.3513 C   0  0  0  0  0  0  0  0  0  0  0  0
   -7.0316   -1.5726    0.5650 H   0  0  0  0  0  0  0  0  0  0  0  0
   -6.1161   -1.2383   -1.6898 H   0  0  0  0  0  0  0  0  0  0  0  0
   -3.6659   -1.7343   -1.9241 H   0  0  0  0  0  0  0  0  0  0  0  0
   -2.0573   -1.3482   -0.0340 H   0  0  0  0  0  0  0  0  0  0  0  0
   -2.9965   -1.6791    2.2115 H   0  0  0  0  0  0  0  0  0  0  0  0
   -4.4096    1.4522    0.1182 O   0  0  0  0  0  0  0  0  0  0  0  0
   -3.9595    1.3433   -0.9941 C   0  0  0  0  0  0  0  0  0  0  0  0
   -3.7054    0.2390   -1.6936 O   0  0  0  0  0  0  0  0  0  0  0  0
   -3.5702    2.5723   -1.8533 C   0  0  0  0  0  0  0  0  0  0  0  0
   -2.2600    2.5362   -2.1629 F   0  0  0  0  0  0  0  0  0  0  0  0
   -4.2720    2.5893   -3.0023 F   0  0  0  0  0  0  0  0  0  0  0  0
   -3.8177    3.7042   -1.1879 F   0  0  0  0  0  0  0  0  0  0  0  0
  1  2  1  0  0  0  0
  2  3  1  0  0  0  0
  4  9  1  0  0  0  0
  4  1  1  0  0  0  0
  5  4  2  0  0  0  0
  6 11  1  6  0  0  0
  6  5  1  0  0  0  0
  6  7  1  0  0  0  0
  7  8  1  0  0  0  0
  8  1  2  0  0  0  0
  8 13  1  0  0  0  0
 10  5  1  0  0  0  0
 12  7  1  0  0  0  0
 15 14  2  0  0  0  0
 16  6  1  0  0  0  0
 16 15  1  0  0  0  0
 17 20  1  0  0  0  0
 17 15  1  0  0  0  0
 18 17  1  0  0  0  0
 19 17  1  0  0  0  0
M  RAD  3   2   2   3   3   7   2
M  END
