Coordinates from ORCA-job PhN2+~CF3COO-_B3LYPG-6-31G_dp-NX-Scan-d89-09-n800
 OpenBabel11261920123D

 20 20  0  0  1  0  0  0  0  0999 V2000
   -5.1266   -1.6414    1.5156 C   0  0  1  0  0  0  0  0  0  0  0  0
   -5.5793   -1.7059    2.7473 N   0  0  0  0  0  0  0  0  0  0  0  0
   -5.9727   -1.7177    3.8174 N   0  0  0  0  0  0  0  0  0  0  0  0
   -5.9583   -1.0628    0.4806 C   0  0  0  0  0  0  0  0  0  0  0  0
   -5.3875   -0.7106   -0.6875 C   0  0  0  0  0  0  0  0  0  0  0  0
   -3.8958   -0.6992   -0.8094 C   0  0  2  0  0  0  0  0  0  0  0  0
   -3.2395   -1.7531    0.0240 C   0  0  0  0  0  0  0  0  0  0  0  0
   -3.7936   -2.1138    1.1976 C   0  0  0  0  0  0  0  0  0  0  0  0
   -7.0244   -0.9587    0.6575 H   0  0  0  0  0  0  0  0  0  0  0  0
   -5.9824   -0.3265   -1.5069 H   0  0  0  0  0  0  0  0  0  0  0  0
   -3.5504   -0.7025   -1.8428 H   0  0  0  0  0  0  0  0  0  0  0  0
   -2.2649   -2.1239   -0.2719 H   0  0  0  0  0  0  0  0  0  0  0  0
   -3.2873   -2.7724    1.8967 H   0  0  0  0  0  0  0  0  0  0  0  0
   -3.7689    2.7657    0.1007 O   0  0  0  0  0  0  0  0  0  0  0  0
   -3.6490    1.8131   -0.6270 C   0  0  0  0  0  0  0  0  0  0  0  0
   -3.3932    0.5897   -0.1688 O   0  0  0  0  0  0  0  0  0  0  0  0
   -3.6953    1.9951   -2.1684 C   0  0  0  0  0  0  0  0  0  0  0  0
   -2.6552    1.3614   -2.7549 F   0  0  0  0  0  0  0  0  0  0  0  0
   -4.8315    1.4728   -2.6910 F   0  0  0  0  0  0  0  0  0  0  0  0
   -3.6441    3.2838   -2.4969 F   0  0  0  0  0  0  0  0  0  0  0  0
  1  2  1  1  0  0  0
  2  3  1  0  0  0  0
  4  9  1  0  0  0  0
  4  1  1  0  0  0  0
  5  4  2  0  0  0  0
  6 11  1  6  0  0  0
  6  5  1  0  0  0  0
  6 16  1  0  0  0  0
  6  7  1  0  0  0  0
  7  8  2  0  0  0  0
  8  1  1  0  0  0  0
  8 13  1  0  0  0  0
 10  5  1  0  0  0  0
 12  7  1  0  0  0  0
 15 16  1  0  0  0  0
 15 14  2  0  0  0  0
 17 15  1  0  0  0  0
 18 17  1  0  0  0  0
 19 17  1  0  0  0  0
 20 17  1  0  0  0  0
M  RAD  3   1   2   2   2   3   3
M  END
