Coordinates from ORCA-job PhN2+~CF3COO-_B3LYPG-6-31G_dp-NX-Scan-d89-09-n800
 OpenBabel11261920123D

 20 19  0  0  0  0  0  0  0  0999 V2000
   -3.8345   -1.2539    0.2263 C   0  0  0  0  0  0  0  0  0  0  0  0
   -3.5485    0.0375    0.7844 N   0  0  0  0  0  0  0  0  0  0  0  0
   -4.1931    1.0418    0.2145 N   0  0  0  0  0  0  0  0  0  0  0  0
   -4.6771   -1.5859   -0.8496 C   0  0  0  0  0  0  0  0  0  0  0  0
   -4.8148   -2.9205   -1.2430 C   0  0  0  0  0  0  0  0  0  0  0  0
   -4.1272   -3.9364   -0.5826 C   0  0  0  0  0  0  0  0  0  0  0  0
   -3.2887   -3.6102    0.4878 C   0  0  0  0  0  0  0  0  0  0  0  0
   -3.1432   -2.2867    0.8871 C   0  0  0  0  0  0  0  0  0  0  0  0
   -5.2302   -0.8304   -1.3943 H   0  0  0  0  0  0  0  0  0  0  0  0
   -5.4682   -3.1593   -2.0777 H   0  0  0  0  0  0  0  0  0  0  0  0
   -4.2415   -4.9694   -0.8968 H   0  0  0  0  0  0  0  0  0  0  0  0
   -2.7462   -4.3904    1.0137 H   0  0  0  0  0  0  0  0  0  0  0  0
   -2.4969   -2.0160    1.7158 H   0  0  0  0  0  0  0  0  0  0  0  0
   -4.8089    1.1629   -0.4719 O   0  0  0  0  0  0  0  0  0  0  0  0
   -5.5060    3.1545   -0.9151 C   0  0  0  0  0  0  0  0  0  0  0  0
   -6.2894    3.4932   -1.7300 O   0  0  0  0  0  0  0  0  0  0  0  0
   -4.7485    4.0838    0.0835 C   0  0  0  0  0  0  0  0  0  0  0  0
   -3.4331    3.9210   -0.1250 F   0  0  0  0  0  0  0  0  0  0  0  0
   -5.0553    5.3788   -0.0419 F   0  0  0  0  0  0  0  0  0  0  0  0
   -5.0487    3.6787    1.3267 F   0  0  0  0  0  0  0  0  0  0  0  0
  1  2  1  0  0  0  0
  1  8  2  0  0  0  0
  3  2  1  0  0  0  0
  4  1  1  0  0  0  0
  5  4  2  0  0  0  0
  5  6  1  0  0  0  0
  6  7  2  0  0  0  0
  7  8  1  0  0  0  0
  7 12  1  0  0  0  0
  8 13  1  0  0  0  0
  9  4  1  0  0  0  0
 10  5  1  0  0  0  0
 11  6  1  0  0  0  0
 14  3  2  0  0  0  0
 15 17  1  0  0  0  0
 16 15  2  0  0  0  0
 17 20  1  0  0  0  0
 18 17  1  0  0  0  0
 19 17  1  0  0  0  0
M  RAD  2   2   2  15   2
M  END
