Coordinates from ORCA-job PhN2+~CF3COO-_B3LYPG-6-31G_dp-NX-Scan-d89-09-n800
 OpenBabel11261920123D

 20 20  0  0  1  0  0  0  0  0999 V2000
   -5.0769   -1.5684    1.5461 C   0  0  0  0  0  0  0  0  0  0  0  0
   -5.5733   -1.7279    2.7522 N   0  0  0  0  0  0  0  0  0  0  0  0
   -6.0052   -1.8691    3.8010 N   0  0  0  0  0  0  0  0  0  0  0  0
   -5.9638   -1.4676    0.4067 C   0  0  0  0  0  0  0  0  0  0  0  0
   -5.4576   -1.2784   -0.8256 C   0  0  0  0  0  0  0  0  0  0  0  0
   -3.9927   -1.1106   -1.0796 C   0  0  2  0  0  0  0  0  0  0  0  0
   -3.1332   -1.3426    0.1229 C   0  0  0  0  0  0  0  0  0  0  0  0
   -3.6428   -1.5304    1.3540 C   0  0  0  0  0  0  0  0  0  0  0  0
   -7.0326   -1.5711    0.5672 H   0  0  0  0  0  0  0  0  0  0  0  0
   -6.1174   -1.2274   -1.6860 H   0  0  0  0  0  0  0  0  0  0  0  0
   -3.6678   -1.7349   -1.9189 H   0  0  0  0  0  0  0  0  0  0  0  0
   -2.0582   -1.3387   -0.0297 H   0  0  0  0  0  0  0  0  0  0  0  0
   -2.9974   -1.6791    2.2141 H   0  0  0  0  0  0  0  0  0  0  0  0
   -4.4085    1.4561    0.1141 O   0  0  0  0  0  0  0  0  0  0  0  0
   -3.9573    1.3451   -0.9976 C   0  0  0  0  0  0  0  0  0  0  0  0
   -3.7041    0.2390   -1.6948 O   0  0  0  0  0  0  0  0  0  0  0  0
   -3.5680    2.5721   -1.8596 C   0  0  0  0  0  0  0  0  0  0  0  0
   -2.2580    2.5348   -2.1700 F   0  0  0  0  0  0  0  0  0  0  0  0
   -4.2706    2.5871   -3.0082 F   0  0  0  0  0  0  0  0  0  0  0  0
   -3.8146    3.7054   -1.1963 F   0  0  0  0  0  0  0  0  0  0  0  0
  1  2  1  0  0  0  0
  2  3  1  0  0  0  0
  4  9  1  0  0  0  0
  4  1  1  0  0  0  0
  5  4  2  0  0  0  0
  6 11  1  6  0  0  0
  6  5  1  0  0  0  0
  6  7  1  0  0  0  0
  7  8  1  0  0  0  0
  8  1  2  0  0  0  0
  8 13  1  0  0  0  0
 10  5  1  0  0  0  0
 12  7  1  0  0  0  0
 15 14  2  0  0  0  0
 16  6  1  0  0  0  0
 16 15  1  0  0  0  0
 17 20  1  0  0  0  0
 17 15  1  0  0  0  0
 18 17  1  0  0  0  0
 19 17  1  0  0  0  0
M  RAD  3   2   2   3   3   7   2
M  END
