Coordinates from ORCA-job PhN2+~CF3COO-_B3LYPG-6-31G_dp-NX-Scan-d89-09-n800
 OpenBabel11261920123D

 20 20  0  0  1  0  0  0  0  0999 V2000
   -5.0383   -1.4559    1.4631 C   0  0  0  0  0  0  0  0  0  0  0  0
   -5.5258   -1.3099    2.6739 N   0  0  0  0  0  0  0  0  0  0  0  0
   -5.9479   -1.1667    3.7243 N   0  0  0  0  0  0  0  0  0  0  0  0
   -5.9324   -1.4793    0.3269 C   0  0  0  0  0  0  0  0  0  0  0  0
   -5.4237   -1.4183   -0.9180 C   0  0  0  0  0  0  0  0  0  0  0  0
   -3.9652   -1.2044   -1.1614 C   0  0  2  0  0  0  0  0  0  0  0  0
   -3.1014   -1.4847    0.0250 C   0  0  0  0  0  0  0  0  0  0  0  0
   -3.6078   -1.5449    1.2709 C   0  0  0  0  0  0  0  0  0  0  0  0
   -7.0003   -1.5691    0.5023 H   0  0  0  0  0  0  0  0  0  0  0  0
   -6.0765   -1.4710   -1.7832 H   0  0  0  0  0  0  0  0  0  0  0  0
   -3.6224   -1.7501   -2.0439 H   0  0  0  0  0  0  0  0  0  0  0  0
   -2.0337   -1.5862   -0.1417 H   0  0  0  0  0  0  0  0  0  0  0  0
   -2.9702   -1.6820    2.1387 H   0  0  0  0  0  0  0  0  0  0  0  0
   -4.4606    1.2665    0.2245 O   0  0  0  0  0  0  0  0  0  0  0  0
   -4.0050    1.2499   -0.8929 C   0  0  0  0  0  0  0  0  0  0  0  0
   -3.7174    0.2108   -1.6716 O   0  0  0  0  0  0  0  0  0  0  0  0
   -3.6508    2.5515   -1.6551 C   0  0  0  0  0  0  0  0  0  0  0  0
   -2.3343    2.5889   -1.9378 F   0  0  0  0  0  0  0  0  0  0  0  0
   -4.3305    2.6246   -2.8150 F   0  0  0  0  0  0  0  0  0  0  0  0
   -3.9555    3.6232   -0.9169 F   0  0  0  0  0  0  0  0  0  0  0  0
  1  2  1  0  0  0  0
  2  3  1  0  0  0  0
  4  9  1  0  0  0  0
  4  1  2  0  0  0  0
  5  4  1  0  0  0  0
  6 11  1  6  0  0  0
  6  5  1  0  0  0  0
  6  7  1  0  0  0  0
  7  8  2  0  0  0  0
  8  1  1  0  0  0  0
  8 13  1  0  0  0  0
 10  5  1  0  0  0  0
 12  7  1  0  0  0  0
 15 14  2  0  0  0  0
 16  6  1  0  0  0  0
 16 15  1  0  0  0  0
 17 20  1  0  0  0  0
 17 15  1  0  0  0  0
 18 17  1  0  0  0  0
 19 17  1  0  0  0  0
M  RAD  3   2   2   3   3   5   2
M  END
