Coordinates from ORCA-job PhN2+~CF3COO-_B3LYPG-6-31G_dp-NX-Scan-d89-09-n800
 OpenBabel11261920123D

 20 20  0  0  1  0  0  0  0  0999 V2000
   -5.1231   -1.6330    1.5126 C   0  0  1  0  0  0  0  0  0  0  0  0
   -5.5710   -1.6779    2.7471 N   0  0  0  0  0  0  0  0  0  0  0  0
   -5.9604   -1.6718    3.8191 N   0  0  0  0  0  0  0  0  0  0  0  0
   -5.9549   -1.0612    0.4736 C   0  0  0  0  0  0  0  0  0  0  0  0
   -5.3836   -0.7192   -0.6976 C   0  0  0  0  0  0  0  0  0  0  0  0
   -3.8914   -0.7092   -0.8166 C   0  0  2  0  0  0  0  0  0  0  0  0
   -3.2398   -1.7652    0.0181 C   0  0  0  0  0  0  0  0  0  0  0  0
   -3.7936   -2.1160    1.1950 C   0  0  0  0  0  0  0  0  0  0  0  0
   -7.0208   -0.9542    0.6502 H   0  0  0  0  0  0  0  0  0  0  0  0
   -5.9775   -0.3419   -1.5208 H   0  0  0  0  0  0  0  0  0  0  0  0
   -3.5434   -0.7114   -1.8492 H   0  0  0  0  0  0  0  0  0  0  0  0
   -2.2686   -2.1440   -0.2787 H   0  0  0  0  0  0  0  0  0  0  0  0
   -3.2903   -2.7738    1.8970 H   0  0  0  0  0  0  0  0  0  0  0  0
   -3.7942    2.7464    0.1189 O   0  0  0  0  0  0  0  0  0  0  0  0
   -3.6596    1.8027   -0.6179 C   0  0  0  0  0  0  0  0  0  0  0  0
   -3.3870    0.5778   -0.1725 O   0  0  0  0  0  0  0  0  0  0  0  0
   -3.7002    1.9997   -2.1576 C   0  0  0  0  0  0  0  0  0  0  0  0
   -2.6559    1.3749   -2.7458 F   0  0  0  0  0  0  0  0  0  0  0  0
   -4.8326    1.4788   -2.6897 F   0  0  0  0  0  0  0  0  0  0  0  0
   -3.6519    3.2917   -2.4734 F   0  0  0  0  0  0  0  0  0  0  0  0
  1  2  1  1  0  0  0
  2  3  1  0  0  0  0
  4  9  1  0  0  0  0
  4  1  1  0  0  0  0
  5  4  2  0  0  0  0
  6 11  1  6  0  0  0
  6  5  1  0  0  0  0
  6 16  1  0  0  0  0
  6  7  1  0  0  0  0
  7  8  2  0  0  0  0
  8  1  1  0  0  0  0
  8 13  1  0  0  0  0
 10  5  1  0  0  0  0
 12  7  1  0  0  0  0
 15 16  1  0  0  0  0
 15 14  2  0  0  0  0
 17 15  1  0  0  0  0
 18 17  1  0  0  0  0
 19 17  1  0  0  0  0
 20 17  1  0  0  0  0
M  RAD  3   1   2   2   2   3   3
M  END
