Coordinates from ORCA-job PhN2+~CF3COO-_B3LYPG-6-31G_dp-NX-Scan-d89-09-n800
 OpenBabel11261920123D

 20 20  0  0  1  0  0  0  0  0999 V2000
   -5.0130   -1.4286    1.4024 C   0  0  1  0  0  0  0  0  0  0  0  0
   -5.4675   -0.9902    2.5531 N   0  0  0  0  0  0  0  0  0  0  0  0
   -5.8539   -0.5688    3.5383 N   0  0  0  0  0  0  0  0  0  0  0  0
   -5.9136   -1.5216    0.2741 C   0  0  0  0  0  0  0  0  0  0  0  0
   -5.4028   -1.5188   -0.9719 C   0  0  0  0  0  0  0  0  0  0  0  0
   -3.9503   -1.2631   -1.2036 C   0  0  2  0  0  0  0  0  0  0  0  0
   -3.0841   -1.5837   -0.0307 C   0  0  0  0  0  0  0  0  0  0  0  0
   -3.5866   -1.5859    1.2186 C   0  0  0  0  0  0  0  0  0  0  0  0
   -6.9808   -1.6037    0.4576 H   0  0  0  0  0  0  0  0  0  0  0  0
   -6.0475   -1.6299   -1.8375 H   0  0  0  0  0  0  0  0  0  0  0  0
   -3.5933   -1.7431   -2.1160 H   0  0  0  0  0  0  0  0  0  0  0  0
   -2.0250   -1.7428   -0.2050 H   0  0  0  0  0  0  0  0  0  0  0  0
   -2.9543   -1.7142    2.0918 H   0  0  0  0  0  0  0  0  0  0  0  0
   -4.5019    1.1540    0.3189 O   0  0  0  0  0  0  0  0  0  0  0  0
   -4.0453    1.1899   -0.7998 C   0  0  0  0  0  0  0  0  0  0  0  0
   -3.7376    0.1961   -1.6264 O   0  0  0  0  0  0  0  0  0  0  0  0
   -3.7135    2.5317   -1.5008 C   0  0  0  0  0  0  0  0  0  0  0  0
   -2.3974    2.6066   -1.7781 F   0  0  0  0  0  0  0  0  0  0  0  0
   -4.3924    2.6464   -2.6579 F   0  0  0  0  0  0  0  0  0  0  0  0
   -4.0390    3.5628   -0.7151 F   0  0  0  0  0  0  0  0  0  0  0  0
  1  2  1  6  0  0  0
  2  3  1  0  0  0  0
  4  9  1  0  0  0  0
  4  1  1  0  0  0  0
  5  4  2  0  0  0  0
  6 11  1  6  0  0  0
  6  5  1  0  0  0  0
  6  7  1  0  0  0  0
  7  8  2  0  0  0  0
  8  1  1  0  0  0  0
  8 13  1  0  0  0  0
 10  5  1  0  0  0  0
 12  7  1  0  0  0  0
 15 14  2  0  0  0  0
 16  6  1  0  0  0  0
 16 15  1  0  0  0  0
 17 15  1  0  0  0  0
 17 20  1  0  0  0  0
 18 17  1  0  0  0  0
 19 17  1  0  0  0  0
M  RAD  3   1   2   2   2   3   3
M  END
