Coordinates from ORCA-job PhN2+~CF3COO-_B3LYPG-6-31G_dp-NX-Scan-d89-09-n800
 OpenBabel11261920123D

 20 20  0  0  1  0  0  0  0  0999 V2000
   -5.0500   -1.4799    1.4876 C   0  0  0  0  0  0  0  0  0  0  0  0
   -5.5429   -1.4304    2.7043 N   0  0  0  0  0  0  0  0  0  0  0  0
   -5.9706   -1.3778    3.7614 N   0  0  0  0  0  0  0  0  0  0  0  0
   -5.9416   -1.4725    0.3489 C   0  0  0  0  0  0  0  0  0  0  0  0
   -5.4334   -1.3802   -0.8941 C   0  0  0  0  0  0  0  0  0  0  0  0
   -3.9731   -1.1793   -1.1410 C   0  0  2  0  0  0  0  0  0  0  0  0
   -3.1101   -1.4436    0.0502 C   0  0  0  0  0  0  0  0  0  0  0  0
   -3.6178   -1.5349    1.2935 C   0  0  0  0  0  0  0  0  0  0  0  0
   -7.0097   -1.5672    0.5201 H   0  0  0  0  0  0  0  0  0  0  0  0
   -6.0885   -1.4070   -1.7589 H   0  0  0  0  0  0  0  0  0  0  0  0
   -3.6351   -1.7486   -2.0112 H   0  0  0  0  0  0  0  0  0  0  0  0
   -2.0394   -1.5171   -0.1131 H   0  0  0  0  0  0  0  0  0  0  0  0
   -2.9777   -1.6744    2.1591 H   0  0  0  0  0  0  0  0  0  0  0  0
   -4.4399    1.3158    0.1942 O   0  0  0  0  0  0  0  0  0  0  0  0
   -3.9900    1.2753   -0.9243 C   0  0  0  0  0  0  0  0  0  0  0  0
   -3.7140    0.2178   -1.6831 O   0  0  0  0  0  0  0  0  0  0  0  0
   -3.6266    2.5582   -1.7132 C   0  0  0  0  0  0  0  0  0  0  0  0
   -2.3113    2.5763   -2.0034 F   0  0  0  0  0  0  0  0  0  0  0  0
   -4.3118    2.6155   -2.8707 F   0  0  0  0  0  0  0  0  0  0  0  0
   -3.9164    3.6469   -0.9944 F   0  0  0  0  0  0  0  0  0  0  0  0
  1  2  1  0  0  0  0
  2  3  1  0  0  0  0
  4  9  1  0  0  0  0
  4  1  2  0  0  0  0
  5  4  1  0  0  0  0
  6 11  1  6  0  0  0
  6  5  1  0  0  0  0
  6  7  1  0  0  0  0
  7  8  2  0  0  0  0
  8  1  1  0  0  0  0
  8 13  1  0  0  0  0
 10  5  1  0  0  0  0
 12  7  1  0  0  0  0
 15 14  2  0  0  0  0
 16  6  1  0  0  0  0
 16 15  1  0  0  0  0
 17 20  1  0  0  0  0
 17 15  1  0  0  0  0
 18 17  1  0  0  0  0
 19 17  1  0  0  0  0
M  RAD  3   2   2   3   3   5   2
M  END
