Coordinates from ORCA-job PhN2+~CF3COO-_B3LYPG-6-31G_dp-NX-Scan-d89-09-n800
 OpenBabel11261920123D

 20 20  0  0  1  0  0  0  0  0999 V2000
   -5.1495   -1.7023    1.5376 C   0  0  0  0  0  0  0  0  0  0  0  0
   -5.6234   -1.8882    2.7490 N   0  0  0  0  0  0  0  0  0  0  0  0
   -6.0350   -2.0128    3.8057 N   0  0  0  0  0  0  0  0  0  0  0  0
   -5.9861   -1.0854    0.5298 C   0  0  0  0  0  0  0  0  0  0  0  0
   -5.4230   -0.6636   -0.6189 C   0  0  0  0  0  0  0  0  0  0  0  0
   -3.9343   -0.6324   -0.7629 C   0  0  2  0  0  0  0  0  0  0  0  0
   -3.2435   -1.6694    0.0626 C   0  0  0  0  0  0  0  0  0  0  0  0
   -3.7936   -2.0977    1.2149 C   0  0  0  0  0  0  0  0  0  0  0  0
   -7.0540   -1.0064    0.7094 H   0  0  0  0  0  0  0  0  0  0  0  0
   -6.0281   -0.2411   -1.4118 H   0  0  0  0  0  0  0  0  0  0  0  0
   -3.6066   -0.6418   -1.8016 H   0  0  0  0  0  0  0  0  0  0  0  0
   -2.2465   -1.9815   -0.2268 H   0  0  0  0  0  0  0  0  0  0  0  0
   -3.2627   -2.7572    1.8947 H   0  0  0  0  0  0  0  0  0  0  0  0
   -3.6108    2.8873   -0.0280 O   0  0  0  0  0  0  0  0  0  0  0  0
   -3.5909    1.8811   -0.6909 C   0  0  0  0  0  0  0  0  0  0  0  0
   -3.4467    0.6745   -0.1494 O   0  0  0  0  0  0  0  0  0  0  0  0
   -3.6516    1.9706   -2.2395 C   0  0  0  0  0  0  0  0  0  0  0  0
   -2.6421    1.2657   -2.7998 F   0  0  0  0  0  0  0  0  0  0  0  0
   -4.8132    1.4601   -2.7162 F   0  0  0  0  0  0  0  0  0  0  0  0
   -3.5583    3.2337   -2.6458 F   0  0  0  0  0  0  0  0  0  0  0  0
  1  2  1  0  0  0  0
  2  3  1  0  0  0  0
  4  9  1  0  0  0  0
  4  1  2  0  0  0  0
  5  4  1  0  0  0  0
  6 11  1  6  0  0  0
  6  5  1  0  0  0  0
  6 16  1  0  0  0  0
  6  7  1  0  0  0  0
  7  8  2  0  0  0  0
  8  1  1  0  0  0  0
  8 13  1  0  0  0  0
 10  5  1  0  0  0  0
 12  7  1  0  0  0  0
 15 16  1  0  0  0  0
 15 14  2  0  0  0  0
 17 15  1  0  0  0  0
 18 17  1  0  0  0  0
 19 17  1  0  0  0  0
 20 17  1  0  0  0  0
M  RAD  3   2   2   3   3   5   2
M  END
