Coordinates from ORCA-job PhN2+~CF3COO-_B3LYPG-6-31G_dp-NX-Scan-d89-09-n800
 OpenBabel11261920123D

 20 20  0  0  1  0  0  0  0  0999 V2000
   -5.0737   -1.5558    1.5393 C   0  0  0  0  0  0  0  0  0  0  0  0
   -5.5703   -1.6899    2.7485 N   0  0  0  0  0  0  0  0  0  0  0  0
   -6.0022   -1.8076    3.8000 N   0  0  0  0  0  0  0  0  0  0  0  0
   -5.9609   -1.4680    0.3993 C   0  0  0  0  0  0  0  0  0  0  0  0
   -5.4544   -1.2924   -0.8350 C   0  0  0  0  0  0  0  0  0  0  0  0
   -3.9901   -1.1197   -1.0881 C   0  0  2  0  0  0  0  0  0  0  0  0
   -3.1301   -1.3562    0.1128 C   0  0  0  0  0  0  0  0  0  0  0  0
   -3.6396   -1.5304    1.3462 C   0  0  0  0  0  0  0  0  0  0  0  0
   -7.0296   -1.5712    0.5610 H   0  0  0  0  0  0  0  0  0  0  0  0
   -6.1135   -1.2528   -1.6964 H   0  0  0  0  0  0  0  0  0  0  0  0
   -3.6631   -1.7361   -1.9320 H   0  0  0  0  0  0  0  0  0  0  0  0
   -2.0553   -1.3635   -0.0415 H   0  0  0  0  0  0  0  0  0  0  0  0
   -2.9947   -1.6785    2.2068 H   0  0  0  0  0  0  0  0  0  0  0  0
   -4.4129    1.4393    0.1245 O   0  0  0  0  0  0  0  0  0  0  0  0
   -3.9619    1.3369   -0.9882 C   0  0  0  0  0  0  0  0  0  0  0  0
   -3.7056    0.2368   -1.6933 O   0  0  0  0  0  0  0  0  0  0  0  0
   -3.5752    2.5711   -1.8411 C   0  0  0  0  0  0  0  0  0  0  0  0
   -2.2643    2.5406   -2.1487 F   0  0  0  0  0  0  0  0  0  0  0  0
   -4.2752    2.5914   -2.9912 F   0  0  0  0  0  0  0  0  0  0  0  0
   -3.8273    3.6992   -1.1709 F   0  0  0  0  0  0  0  0  0  0  0  0
  1  2  1  0  0  0  0
  2  3  1  0  0  0  0
  4  9  1  0  0  0  0
  4  1  2  0  0  0  0
  5  4  1  0  0  0  0
  6 11  1  6  0  0  0
  6  5  1  0  0  0  0
  6  7  1  0  0  0  0
  7  8  2  0  0  0  0
  8  1  1  0  0  0  0
  8 13  1  0  0  0  0
 10  5  1  0  0  0  0
 12  7  1  0  0  0  0
 15 14  2  0  0  0  0
 16  6  1  0  0  0  0
 16 15  1  0  0  0  0
 17 20  1  0  0  0  0
 17 15  1  0  0  0  0
 18 17  1  0  0  0  0
 19 17  1  0  0  0  0
M  RAD  3   2   2   3   3   5   2
M  END
