Coordinates from ORCA-job PhN2+~CF3COO-_B3LYPG-6-31G_dp-NX-Scan-d89-09-n800
 OpenBabel11261920123D

 20 20  0  0  1  0  0  0  0  0999 V2000
   -5.1862   -1.7966    1.5662 C   0  0  0  0  0  0  0  0  0  0  0  0
   -5.6940   -2.1977    2.7096 N   0  0  0  0  0  0  0  0  0  0  0  0
   -6.1350   -2.5234    3.7105 N   0  0  0  0  0  0  0  0  0  0  0  0
   -6.0239   -1.1017    0.6128 C   0  0  0  0  0  0  0  0  0  0  0  0
   -5.4691   -0.5633   -0.4897 C   0  0  0  0  0  0  0  0  0  0  0  0
   -3.9865   -0.5183   -0.6744 C   0  0  2  0  0  0  0  0  0  0  0  0
   -3.2489   -1.5205    0.1524 C   0  0  0  0  0  0  0  0  0  0  0  0
   -3.7977   -2.0632    1.2556 C   0  0  0  0  0  0  0  0  0  0  0  0
   -7.0937   -1.0552    0.7924 H   0  0  0  0  0  0  0  0  0  0  0  0
   -6.0866   -0.0707   -1.2319 H   0  0  0  0  0  0  0  0  0  0  0  0
   -3.6930   -0.5659   -1.7223 H   0  0  0  0  0  0  0  0  0  0  0  0
   -2.2196   -1.7357   -0.1124 H   0  0  0  0  0  0  0  0  0  0  0  0
   -3.2333   -2.7245    1.9058 H   0  0  0  0  0  0  0  0  0  0  0  0
   -3.3334    3.0312   -0.2561 O   0  0  0  0  0  0  0  0  0  0  0  0
   -3.4819    1.9706   -0.8082 C   0  0  0  0  0  0  0  0  0  0  0  0
   -3.5051    0.8212   -0.1385 O   0  0  0  0  0  0  0  0  0  0  0  0
   -3.6000    1.9212   -2.3553 C   0  0  0  0  0  0  0  0  0  0  0  0
   -2.6475    1.1177   -2.8839 F   0  0  0  0  0  0  0  0  0  0  0  0
   -4.8036    1.4325   -2.7425 F   0  0  0  0  0  0  0  0  0  0  0  0
   -3.4606    3.1355   -2.8785 F   0  0  0  0  0  0  0  0  0  0  0  0
  1  2  1  0  0  0  0
  2  3  1  0  0  0  0
  4  9  1  0  0  0  0
  4  1  2  0  0  0  0
  5  4  1  0  0  0  0
  6 11  1  6  0  0  0
  6  5  1  0  0  0  0
  6 16  1  0  0  0  0
  6  7  1  0  0  0  0
  7  8  2  0  0  0  0
  8  1  1  0  0  0  0
  8 13  1  0  0  0  0
 10  5  1  0  0  0  0
 12  7  1  0  0  0  0
 15 14  2  0  0  0  0
 15 16  1  0  0  0  0
 17 15  1  0  0  0  0
 18 17  1  0  0  0  0
 19 17  1  0  0  0  0
 20 17  1  0  0  0  0
M  RAD  3   2   2   3   3   5   2
M  END
