Coordinates from ORCA-job PhN2+~CF3COO-_B3LYPG-6-31G_dp-NX-Scan-d89-09-n800
 OpenBabel11261920123D

 20 20  0  0  1  0  0  0  0  0999 V2000
   -5.1831   -1.7881    1.5642 C   0  0  0  0  0  0  0  0  0  0  0  0
   -5.6887   -2.1698    2.7152 N   0  0  0  0  0  0  0  0  0  0  0  0
   -6.1278   -2.4773    3.7225 N   0  0  0  0  0  0  0  0  0  0  0  0
   -6.0204   -1.1003    0.6052 C   0  0  0  0  0  0  0  0  0  0  0  0
   -5.4646   -0.5729   -0.5022 C   0  0  0  0  0  0  0  0  0  0  0  0
   -3.9814   -0.5293   -0.6830 C   0  0  2  0  0  0  0  0  0  0  0  0
   -3.2481   -1.5349    0.1436 C   0  0  0  0  0  0  0  0  0  0  0  0
   -3.7973   -2.0668    1.2518 C   0  0  0  0  0  0  0  0  0  0  0  0
   -7.0900   -1.0507    0.7847 H   0  0  0  0  0  0  0  0  0  0  0  0
   -6.0808   -0.0866   -1.2494 H   0  0  0  0  0  0  0  0  0  0  0  0
   -3.6845   -0.5729   -1.7301 H   0  0  0  0  0  0  0  0  0  0  0  0
   -2.2214   -1.7592   -0.1238 H   0  0  0  0  0  0  0  0  0  0  0  0
   -3.2360   -2.7281    1.9048 H   0  0  0  0  0  0  0  0  0  0  0  0
   -3.3586    3.0205   -0.2347 O   0  0  0  0  0  0  0  0  0  0  0  0
   -3.4916    1.9634   -0.7973 C   0  0  0  0  0  0  0  0  0  0  0  0
   -3.4993    0.8072   -0.1392 O   0  0  0  0  0  0  0  0  0  0  0  0
   -3.6048    1.9264   -2.3451 C   0  0  0  0  0  0  0  0  0  0  0  0
   -2.6469    1.1319   -2.8773 F   0  0  0  0  0  0  0  0  0  0  0  0
   -4.8048    1.4348   -2.7399 F   0  0  0  0  0  0  0  0  0  0  0  0
   -3.4699    3.1457   -2.8579 F   0  0  0  0  0  0  0  0  0  0  0  0
  1  2  1  0  0  0  0
  2  3  1  0  0  0  0
  4  9  1  0  0  0  0
  4  1  2  0  0  0  0
  5  4  1  0  0  0  0
  6 11  1  6  0  0  0
  6  5  1  0  0  0  0
  6 16  1  0  0  0  0
  6  7  1  0  0  0  0
  7  8  2  0  0  0  0
  8  1  1  0  0  0  0
  8 13  1  0  0  0  0
 10  5  1  0  0  0  0
 12  7  1  0  0  0  0
 15 14  2  0  0  0  0
 15 16  1  0  0  0  0
 17 15  1  0  0  0  0
 18 17  1  0  0  0  0
 19 17  1  0  0  0  0
 20 17  1  0  0  0  0
M  RAD  3   2   2   3   3   5   2
M  END
