Coordinates from ORCA-job PhN2+~CF3COO-_B3LYPG-6-31G_dp-NX-Scan-d89-09-n800
 OpenBabel11261920123D

 20 20  0  0  1  0  0  0  0  0999 V2000
   -4.9981   -1.4724    1.3636 C   0  0  1  0  0  0  0  0  0  0  0  0
   -5.3497   -0.6017    2.2876 N   0  0  0  0  0  0  0  0  0  0  0  0
   -5.6106    0.2492    2.9904 N   0  0  0  0  0  0  0  0  0  0  0  0
   -5.9038   -1.6222    0.2362 C   0  0  0  0  0  0  0  0  0  0  0  0
   -5.3890   -1.6350   -1.0078 C   0  0  0  0  0  0  0  0  0  0  0  0
   -3.9467   -1.3150   -1.2179 C   0  0  2  0  0  0  0  0  0  0  0  0
   -3.0744   -1.6972   -0.0690 C   0  0  0  0  0  0  0  0  0  0  0  0
   -3.5711   -1.6839    1.1822 C   0  0  0  0  0  0  0  0  0  0  0  0
   -6.9706   -1.7101    0.4216 H   0  0  0  0  0  0  0  0  0  0  0  0
   -6.0182   -1.7960   -1.8771 H   0  0  0  0  0  0  0  0  0  0  0  0
   -3.5728   -1.7026   -2.1653 H   0  0  0  0  0  0  0  0  0  0  0  0
   -2.0262   -1.9043   -0.2582 H   0  0  0  0  0  0  0  0  0  0  0  0
   -2.9398   -1.8165    2.0562 H   0  0  0  0  0  0  0  0  0  0  0  0
   -4.5642    1.0718    0.4675 O   0  0  0  0  0  0  0  0  0  0  0  0
   -4.1067    1.1413   -0.6518 C   0  0  0  0  0  0  0  0  0  0  0  0
   -3.7829    0.1897   -1.5200 O   0  0  0  0  0  0  0  0  0  0  0  0
   -3.7926    2.5125   -1.3053 C   0  0  0  0  0  0  0  0  0  0  0  0
   -2.4779    2.6142   -1.5801 F   0  0  0  0  0  0  0  0  0  0  0  0
   -4.4742    2.6601   -2.4570 F   0  0  0  0  0  0  0  0  0  0  0  0
   -4.1304    3.5111   -0.4838 F   0  0  0  0  0  0  0  0  0  0  0  0
  1  2  1  6  0  0  0
  2  3  1  0  0  0  0
  4  9  1  0  0  0  0
  4  1  1  0  0  0  0
  5  4  2  0  0  0  0
  6 11  1  6  0  0  0
  6  5  1  0  0  0  0
  6  7  1  0  0  0  0
  7  8  2  0  0  0  0
  8  1  1  0  0  0  0
  8 13  1  0  0  0  0
 10  5  1  0  0  0  0
 12  7  1  0  0  0  0
 15 14  2  0  0  0  0
 16  6  1  0  0  0  0
 16 15  1  0  0  0  0
 17 15  1  0  0  0  0
 17 20  1  0  0  0  0
 18 17  1  0  0  0  0
 19 17  1  0  0  0  0
M  RAD  3   1   2   2   2   3   3
M  END
