Coordinates from ORCA-job PhN2+~CF3COO-_B3LYPG-6-31G_dp-NX-Scan-d89-09-n800
 OpenBabel11261920123D

 20 20  0  0  1  0  0  0  0  0999 V2000
   -5.2216   -1.8955    1.5801 C   0  0  0  0  0  0  0  0  0  0  0  0
   -5.7537   -2.5354    2.5970 N   0  0  0  0  0  0  0  0  0  0  0  0
   -6.2159   -3.0850    3.4859 N   0  0  0  0  0  0  0  0  0  0  0  0
   -6.0596   -1.1048    0.7038 C   0  0  0  0  0  0  0  0  0  0  0  0
   -5.5119   -0.4303   -0.3247 C   0  0  0  0  0  0  0  0  0  0  0  0
   -4.0361   -0.3794   -0.5588 C   0  0  2  0  0  0  0  0  0  0  0  0
   -3.2567   -1.3372    0.2837 C   0  0  0  0  0  0  0  0  0  0  0  0
   -3.8044   -2.0144    1.3100 C   0  0  0  0  0  0  0  0  0  0  0  0
   -7.1310   -1.0909    0.8797 H   0  0  0  0  0  0  0  0  0  0  0  0
   -6.1398    0.1421   -0.9984 H   0  0  0  0  0  0  0  0  0  0  0  0
   -3.7849   -0.4929   -1.6134 H   0  0  0  0  0  0  0  0  0  0  0  0
   -2.1987   -1.4394    0.0655 H   0  0  0  0  0  0  0  0  0  0  0  0
   -3.2078   -2.6746    1.9318 H   0  0  0  0  0  0  0  0  0  0  0  0
   -3.0208    3.1163   -0.5292 O   0  0  0  0  0  0  0  0  0  0  0  0
   -3.3597    2.0377   -0.9460 C   0  0  0  0  0  0  0  0  0  0  0  0
   -3.5487    0.9929   -0.1408 O   0  0  0  0  0  0  0  0  0  0  0  0
   -3.5649    1.8471   -2.4741 C   0  0  0  0  0  0  0  0  0  0  0  0
   -2.6929    0.9350   -2.9665 F   0  0  0  0  0  0  0  0  0  0  0  0
   -4.8157    1.4083   -2.7543 F   0  0  0  0  0  0  0  0  0  0  0  0
   -3.3753    2.9935   -3.1191 F   0  0  0  0  0  0  0  0  0  0  0  0
  1  2  1  0  0  0  0
  2  3  1  0  0  0  0
  4  9  1  0  0  0  0
  4  1  2  0  0  0  0
  5  4  1  0  0  0  0
  6 11  1  6  0  0  0
  6  5  1  0  0  0  0
  6 16  1  0  0  0  0
  6  7  1  0  0  0  0
  7  8  2  0  0  0  0
  8  1  1  0  0  0  0
  8 13  1  0  0  0  0
 10  5  1  0  0  0  0
 12  7  1  0  0  0  0
 15 14  2  0  0  0  0
 15 16  1  0  0  0  0
 17 15  1  0  0  0  0
 18 17  1  0  0  0  0
 19 17  1  0  0  0  0
 20 17  1  0  0  0  0
M  RAD  3   2   2   3   3   5   2
M  END
