Coordinates from ORCA-job PhN2+~CF3COO-_B3LYPG-6-31G_dp-NX-Scan-d89-09-n800
 OpenBabel11261920123D

 20 20  0  0  1  0  0  0  0  0999 V2000
   -5.2458   -1.9675    1.5652 C   0  0  0  0  0  0  0  0  0  0  0  0
   -5.7969   -2.7825    2.4370 N   0  0  0  0  0  0  0  0  0  0  0  0
   -6.2757   -3.4955    3.1934 N   0  0  0  0  0  0  0  0  0  0  0  0
   -6.0712   -1.0835    0.7668 C   0  0  0  0  0  0  0  0  0  0  0  0
   -5.5160   -0.2991   -0.1764 C   0  0  0  0  0  0  0  0  0  0  0  0
   -4.0441   -0.2661   -0.4492 C   0  0  2  0  0  0  0  0  0  0  0  0
   -3.2531   -1.1924    0.4212 C   0  0  0  0  0  0  0  0  0  0  0  0
   -3.8113   -1.9787    1.3604 C   0  0  0  0  0  0  0  0  0  0  0  0
   -7.1443   -1.0817    0.9336 H   0  0  0  0  0  0  0  0  0  0  0  0
   -6.1409    0.3468   -0.7830 H   0  0  0  0  0  0  0  0  0  0  0  0
   -3.8281   -0.4549   -1.5022 H   0  0  0  0  0  0  0  0  0  0  0  0
   -2.1792   -1.2106    0.2645 H   0  0  0  0  0  0  0  0  0  0  0  0
   -3.2031   -2.6429    1.9664 H   0  0  0  0  0  0  0  0  0  0  0  0
   -2.7972    3.1342   -0.7662 O   0  0  0  0  0  0  0  0  0  0  0  0
   -3.2665    2.0641   -1.0613 C   0  0  0  0  0  0  0  0  0  0  0  0
   -3.5276    1.1205   -0.1523 O   0  0  0  0  0  0  0  0  0  0  0  0
   -3.5784    1.7697   -2.5555 C   0  0  0  0  0  0  0  0  0  0  0  0
   -2.7780    0.7852   -3.0292 F   0  0  0  0  0  0  0  0  0  0  0  0
   -4.8618    1.3723   -2.7262 F   0  0  0  0  0  0  0  0  0  0  0  0
   -3.3808    2.8560   -3.2951 F   0  0  0  0  0  0  0  0  0  0  0  0
  1  2  1  0  0  0  0
  2  3  1  0  0  0  0
  4  9  1  0  0  0  0
  4  1  2  0  0  0  0
  5  4  1  0  0  0  0
  6 11  1  6  0  0  0
  6  5  1  0  0  0  0
  6 16  1  0  0  0  0
  6  7  1  0  0  0  0
  7  8  2  0  0  0  0
  8  1  1  0  0  0  0
  8 13  1  0  0  0  0
 10  5  1  0  0  0  0
 12  7  1  0  0  0  0
 15 14  2  0  0  0  0
 15 16  1  0  0  0  0
 17 15  1  0  0  0  0
 18 17  1  0  0  0  0
 19 17  1  0  0  0  0
 20 17  1  0  0  0  0
M  RAD  3   2   2   3   3   5   2
M  END
