Coordinates from ORCA-job PhN2+~CF3COO-_B3LYPG-6-31G_dp-NX-Scan-d89-09-n800
 OpenBabel11261920123D

 20 20  0  0  1  0  0  0  0  0999 V2000
   -4.9983   -1.4697    1.3635 C   0  0  1  0  0  0  0  0  0  0  0  0
   -5.3546   -0.6127    2.2979 N   0  0  0  0  0  0  0  0  0  0  0  0
   -5.6221    0.2236    3.0159 N   0  0  0  0  0  0  0  0  0  0  0  0
   -5.9038   -1.6184    0.2364 C   0  0  0  0  0  0  0  0  0  0  0  0
   -5.3892   -1.6320   -1.0076 C   0  0  0  0  0  0  0  0  0  0  0  0
   -3.9465   -1.3140   -1.2185 C   0  0  2  0  0  0  0  0  0  0  0  0
   -3.0745   -1.6938   -0.0686 C   0  0  0  0  0  0  0  0  0  0  0  0
   -3.5714   -1.6796    1.1825 C   0  0  0  0  0  0  0  0  0  0  0  0
   -6.9707   -1.7057    0.4220 H   0  0  0  0  0  0  0  0  0  0  0  0
   -6.0188   -1.7919   -1.8767 H   0  0  0  0  0  0  0  0  0  0  0  0
   -3.5730   -1.7046   -2.1648 H   0  0  0  0  0  0  0  0  0  0  0  0
   -2.0259   -1.8995   -0.2572 H   0  0  0  0  0  0  0  0  0  0  0  0
   -2.9402   -1.8113    2.0567 H   0  0  0  0  0  0  0  0  0  0  0  0
   -4.5605    1.0729    0.4628 O   0  0  0  0  0  0  0  0  0  0  0  0
   -4.1042    1.1420   -0.6568 C   0  0  0  0  0  0  0  0  0  0  0  0
   -3.7814    0.1895   -1.5245 O   0  0  0  0  0  0  0  0  0  0  0  0
   -3.7901    2.5127   -1.3113 C   0  0  0  0  0  0  0  0  0  0  0  0
   -2.4756    2.6138   -1.5873 F   0  0  0  0  0  0  0  0  0  0  0  0
   -4.4725    2.6600   -2.4625 F   0  0  0  0  0  0  0  0  0  0  0  0
   -4.1268    3.5119   -0.4900 F   0  0  0  0  0  0  0  0  0  0  0  0
  1  2  1  6  0  0  0
  2  3  1  0  0  0  0
  4  9  1  0  0  0  0
  4  1  1  0  0  0  0
  5  4  2  0  0  0  0
  6 11  1  6  0  0  0
  6  5  1  0  0  0  0
  6  7  1  0  0  0  0
  7  8  2  0  0  0  0
  8  1  1  0  0  0  0
  8 13  1  0  0  0  0
 10  5  1  0  0  0  0
 12  7  1  0  0  0  0
 15 14  2  0  0  0  0
 16  6  1  0  0  0  0
 16 15  1  0  0  0  0
 17 15  1  0  0  0  0
 17 20  1  0  0  0  0
 18 17  1  0  0  0  0
 19 17  1  0  0  0  0
M  RAD  3   1   2   2   2   3   3
M  END
