Coordinates from ORCA-job PhN2+~CF3COO-_B3LYPG-6-31G_dp-NX-Scan-d89-09-n800
 OpenBabel11261920123D

 20 20  0  0  1  0  0  0  0  0999 V2000
   -4.9986   -1.4571    1.3659 C   0  0  1  0  0  0  0  0  0  0  0  0
   -5.3784   -0.6763    2.3539 N   0  0  0  0  0  0  0  0  0  0  0  0
   -5.6764    0.0808    3.1461 N   0  0  0  0  0  0  0  0  0  0  0  0
   -5.9039   -1.5975    0.2400 C   0  0  0  0  0  0  0  0  0  0  0  0
   -5.3903   -1.6131   -1.0046 C   0  0  0  0  0  0  0  0  0  0  0  0
   -3.9456   -1.3074   -1.2200 C   0  0  2  0  0  0  0  0  0  0  0  0
   -3.0748   -1.6755   -0.0655 C   0  0  0  0  0  0  0  0  0  0  0  0
   -3.5725   -1.6591    1.1854 C   0  0  0  0  0  0  0  0  0  0  0  0
   -6.9708   -1.6815    0.4261 H   0  0  0  0  0  0  0  0  0  0  0  0
   -6.0233   -1.7656   -1.8726 H   0  0  0  0  0  0  0  0  0  0  0  0
   -3.5751   -1.7146   -2.1607 H   0  0  0  0  0  0  0  0  0  0  0  0
   -2.0243   -1.8743   -0.2509 H   0  0  0  0  0  0  0  0  0  0  0  0
   -2.9415   -1.7876    2.0600 H   0  0  0  0  0  0  0  0  0  0  0  0
   -4.5525    1.0816    0.4327 O   0  0  0  0  0  0  0  0  0  0  0  0
   -4.0940    1.1475   -0.6858 C   0  0  0  0  0  0  0  0  0  0  0  0
   -3.7718    0.1894   -1.5473 O   0  0  0  0  0  0  0  0  0  0  0  0
   -3.7762    2.5147   -1.3451 C   0  0  0  0  0  0  0  0  0  0  0  0
   -2.4609    2.6125   -1.6187 F   0  0  0  0  0  0  0  0  0  0  0  0
   -4.4559    2.6584   -2.4984 F   0  0  0  0  0  0  0  0  0  0  0  0
   -4.1130    3.5177   -0.5284 F   0  0  0  0  0  0  0  0  0  0  0  0
  1  2  1  6  0  0  0
  2  3  1  0  0  0  0
  4  9  1  0  0  0  0
  4  1  1  0  0  0  0
  5  4  2  0  0  0  0
  6 11  1  6  0  0  0
  6  5  1  0  0  0  0
  6  7  1  0  0  0  0
  7  8  2  0  0  0  0
  8  1  1  0  0  0  0
  8 13  1  0  0  0  0
 10  5  1  0  0  0  0
 12  7  1  0  0  0  0
 15 14  2  0  0  0  0
 16  6  1  0  0  0  0
 16 15  1  0  0  0  0
 17 15  1  0  0  0  0
 17 20  1  0  0  0  0
 18 17  1  0  0  0  0
 19 17  1  0  0  0  0
M  RAD  3   1   2   2   2   3   3
M  END
