Coordinates from ORCA-job PhN2+~CF3COO-_B3LYPG-6-31G_dp-NX-Scan-d89-09-n800
 OpenBabel11261920123D

 20 20  0  0  1  0  0  0  0  0999 V2000
   -4.9980   -1.4717    1.3636 C   0  0  1  0  0  0  0  0  0  0  0  0
   -5.3506   -0.6044    2.2903 N   0  0  0  0  0  0  0  0  0  0  0  0
   -5.6130    0.2429    2.9970 N   0  0  0  0  0  0  0  0  0  0  0  0
   -5.9037   -1.6210    0.2363 C   0  0  0  0  0  0  0  0  0  0  0  0
   -5.3890   -1.6341   -1.0077 C   0  0  0  0  0  0  0  0  0  0  0  0
   -3.9465   -1.3147   -1.2181 C   0  0  2  0  0  0  0  0  0  0  0  0
   -3.0744   -1.6966   -0.0689 C   0  0  0  0  0  0  0  0  0  0  0  0
   -3.5711   -1.6831    1.1823 C   0  0  0  0  0  0  0  0  0  0  0  0
   -6.9705   -1.7087    0.4218 H   0  0  0  0  0  0  0  0  0  0  0  0
   -6.0184   -1.7948   -1.8769 H   0  0  0  0  0  0  0  0  0  0  0  0
   -3.5729   -1.7030   -2.1653 H   0  0  0  0  0  0  0  0  0  0  0  0
   -2.0261   -1.9036   -0.2580 H   0  0  0  0  0  0  0  0  0  0  0  0
   -2.9398   -1.8157    2.0562 H   0  0  0  0  0  0  0  0  0  0  0  0
   -4.5645    1.0722    0.4659 O   0  0  0  0  0  0  0  0  0  0  0  0
   -4.1064    1.1415   -0.6531 C   0  0  0  0  0  0  0  0  0  0  0  0
   -3.7823    0.1897   -1.5209 O   0  0  0  0  0  0  0  0  0  0  0  0
   -3.7920    2.5126   -1.3069 C   0  0  0  0  0  0  0  0  0  0  0  0
   -2.4772    2.6143   -1.5810 F   0  0  0  0  0  0  0  0  0  0  0  0
   -4.4731    2.6598   -2.4589 F   0  0  0  0  0  0  0  0  0  0  0  0
   -4.1303    3.5114   -0.4857 F   0  0  0  0  0  0  0  0  0  0  0  0
  1  2  1  6  0  0  0
  2  3  1  0  0  0  0
  4  9  1  0  0  0  0
  4  1  1  0  0  0  0
  5  4  2  0  0  0  0
  6 11  1  6  0  0  0
  6  5  1  0  0  0  0
  6  7  1  0  0  0  0
  7  8  2  0  0  0  0
  8  1  1  0  0  0  0
  8 13  1  0  0  0  0
 10  5  1  0  0  0  0
 12  7  1  0  0  0  0
 15 14  2  0  0  0  0
 16  6  1  0  0  0  0
 16 15  1  0  0  0  0
 17 15  1  0  0  0  0
 17 20  1  0  0  0  0
 18 17  1  0  0  0  0
 19 17  1  0  0  0  0
M  RAD  3   1   2   2   2   3   3
M  END
