Coordinates from ORCA-job PhN2+~CF3COO-_B3LYPG-6-31G_dp-NX-Scan-d89-09-n800
 OpenBabel11261920123D

 20 20  0  0  1  0  0  0  0  0999 V2000
   -5.1987   -1.8311    1.5735 C   0  0  0  0  0  0  0  0  0  0  0  0
   -5.7148   -2.3128    2.6815 N   0  0  0  0  0  0  0  0  0  0  0  0
   -6.1629   -2.7140    3.6517 N   0  0  0  0  0  0  0  0  0  0  0  0
   -6.0381   -1.1062    0.6442 C   0  0  0  0  0  0  0  0  0  0  0  0
   -5.4871   -0.5222   -0.4367 C   0  0  0  0  0  0  0  0  0  0  0  0
   -4.0070   -0.4720   -0.6377 C   0  0  2  0  0  0  0  0  0  0  0  0
   -3.2525   -1.4595    0.1916 C   0  0  0  0  0  0  0  0  0  0  0  0
   -3.7996   -2.0473    1.2721 C   0  0  0  0  0  0  0  0  0  0  0  0
   -7.1084   -1.0727    0.8234 H   0  0  0  0  0  0  0  0  0  0  0  0
   -6.1094   -0.0039   -1.1574 H   0  0  0  0  0  0  0  0  0  0  0  0
   -3.7274   -0.5379   -1.6886 H   0  0  0  0  0  0  0  0  0  0  0  0
   -2.2126   -1.6365   -0.0611 H   0  0  0  0  0  0  0  0  0  0  0  0
   -3.2228   -2.7084    1.9115 H   0  0  0  0  0  0  0  0  0  0  0  0
   -3.2276    3.0692   -0.3456 O   0  0  0  0  0  0  0  0  0  0  0  0
   -3.4412    1.9978   -0.8535 C   0  0  0  0  0  0  0  0  0  0  0  0
   -3.5275    0.8797   -0.1367 O   0  0  0  0  0  0  0  0  0  0  0  0
   -3.5825    1.8984   -2.3965 C   0  0  0  0  0  0  0  0  0  0  0  0
   -2.6549    1.0567   -2.9105 F   0  0  0  0  0  0  0  0  0  0  0  0
   -4.8020    1.4249   -2.7510 F   0  0  0  0  0  0  0  0  0  0  0  0
   -3.4229    3.0909   -2.9622 F   0  0  0  0  0  0  0  0  0  0  0  0
  1  2  1  0  0  0  0
  2  3  1  0  0  0  0
  4  9  1  0  0  0  0
  4  1  2  0  0  0  0
  5  4  1  0  0  0  0
  6 11  1  6  0  0  0
  6  5  1  0  0  0  0
  6 16  1  0  0  0  0
  6  7  1  0  0  0  0
  7  8  2  0  0  0  0
  8  1  1  0  0  0  0
  8 13  1  0  0  0  0
 10  5  1  0  0  0  0
 12  7  1  0  0  0  0
 15 14  2  0  0  0  0
 15 16  1  0  0  0  0
 17 15  1  0  0  0  0
 18 17  1  0  0  0  0
 19 17  1  0  0  0  0
 20 17  1  0  0  0  0
M  RAD  3   2   2   3   3   5   2
M  END
