Coordinates from ORCA-job PhN2+~CF3COO-_B3LYPG-6-31G_dp-NX-Scan-d89-09-n800
 OpenBabel11261920123D

 20 20  0  0  1  0  0  0  0  0999 V2000
   -4.9986   -1.4581    1.3654 C   0  0  1  0  0  0  0  0  0  0  0  0
   -5.3763   -0.6701    2.3486 N   0  0  0  0  0  0  0  0  0  0  0  0
   -5.6717    0.0950    3.1340 N   0  0  0  0  0  0  0  0  0  0  0  0
   -5.9038   -1.5997    0.2395 C   0  0  0  0  0  0  0  0  0  0  0  0
   -5.3901   -1.6153   -1.0050 C   0  0  0  0  0  0  0  0  0  0  0  0
   -3.9457   -1.3081   -1.2200 C   0  0  2  0  0  0  0  0  0  0  0  0
   -3.0747   -1.6773   -0.0658 C   0  0  0  0  0  0  0  0  0  0  0  0
   -3.5724   -1.6610    1.1851 C   0  0  0  0  0  0  0  0  0  0  0  0
   -6.9707   -1.6841    0.4256 H   0  0  0  0  0  0  0  0  0  0  0  0
   -6.0227   -1.7687   -1.8731 H   0  0  0  0  0  0  0  0  0  0  0  0
   -3.5747   -1.7134   -2.1613 H   0  0  0  0  0  0  0  0  0  0  0  0
   -2.0244   -1.8768   -0.2515 H   0  0  0  0  0  0  0  0  0  0  0  0
   -2.9414   -1.7896    2.0597 H   0  0  0  0  0  0  0  0  0  0  0  0
   -4.5528    1.0809    0.4359 O   0  0  0  0  0  0  0  0  0  0  0  0
   -4.0950    1.1470   -0.6829 C   0  0  0  0  0  0  0  0  0  0  0  0
   -3.7729    0.1894   -1.5450 O   0  0  0  0  0  0  0  0  0  0  0  0
   -3.7775    2.5146   -1.3418 C   0  0  0  0  0  0  0  0  0  0  0  0
   -2.4625    2.6124   -1.6163 F   0  0  0  0  0  0  0  0  0  0  0  0
   -4.4581    2.6588   -2.4946 F   0  0  0  0  0  0  0  0  0  0  0  0
   -4.1137    3.5172   -0.5245 F   0  0  0  0  0  0  0  0  0  0  0  0
  1  2  1  6  0  0  0
  2  3  1  0  0  0  0
  4  9  1  0  0  0  0
  4  1  1  0  0  0  0
  5  4  2  0  0  0  0
  6 11  1  6  0  0  0
  6  5  1  0  0  0  0
  6  7  1  0  0  0  0
  7  8  2  0  0  0  0
  8  1  1  0  0  0  0
  8 13  1  0  0  0  0
 10  5  1  0  0  0  0
 12  7  1  0  0  0  0
 15 14  2  0  0  0  0
 16  6  1  0  0  0  0
 16 15  1  0  0  0  0
 17 15  1  0  0  0  0
 17 20  1  0  0  0  0
 18 17  1  0  0  0  0
 19 17  1  0  0  0  0
M  RAD  3   1   2   2   2   3   3
M  END
