Coordinates from ORCA-job PhN2+~CF3COO-_B3LYPG-6-31G_dp-NX-Scan-d89-09-n800
 OpenBabel11261920123D

 20 20  0  0  1  0  0  0  0  0999 V2000
   -5.0953   -1.4338    1.3925 C   0  0  0  0  0  0  0  0  0  0  0  0
   -5.6876   -1.3471    2.5635 N   0  0  0  0  0  0  0  0  0  0  0  0
   -6.1959   -1.2365    3.5776 N   0  0  0  0  0  0  0  0  0  0  0  0
   -5.7704   -0.9389    0.2135 C   0  0  0  0  0  0  0  0  0  0  0  0
   -5.0709   -0.7997   -0.9316 C   0  0  0  0  0  0  0  0  0  0  0  0
   -3.5833   -0.9369   -0.9294 C   0  0  2  0  0  0  0  0  0  0  0  0
   -3.0914   -1.8715    0.1283 C   0  0  0  0  0  0  0  0  0  0  0  0
   -3.7761   -2.0222    1.2786 C   0  0  0  0  0  0  0  0  0  0  0  0
   -6.8342   -0.7284    0.2638 H   0  0  0  0  0  0  0  0  0  0  0  0
   -5.5653   -0.4951   -1.8460 H   0  0  0  0  0  0  0  0  0  0  0  0
   -3.1815   -1.1591   -1.9174 H   0  0  0  0  0  0  0  0  0  0  0  0
   -2.1185   -2.3324   -0.0006 H   0  0  0  0  0  0  0  0  0  0  0  0
   -3.3824   -2.5953    2.1120 H   0  0  0  0  0  0  0  0  0  0  0  0
   -3.7143    2.2555    0.4308 O   0  0  0  0  0  0  0  0  0  0  0  0
   -3.5985    1.5451   -0.5352 C   0  0  0  0  0  0  0  0  0  0  0  0
   -2.9160    0.3970   -0.5449 O   0  0  0  0  0  0  0  0  0  0  0  0
   -4.1519    2.0482   -1.8966 C   0  0  0  0  0  0  0  0  0  0  0  0
   -3.9362    1.1740   -2.9051 F   0  0  0  0  0  0  0  0  0  0  0  0
   -5.4770    2.2664   -1.8201 F   0  0  0  0  0  0  0  0  0  0  0  0
   -3.5532    3.2037   -2.2217 F   0  0  0  0  0  0  0  0  0  0  0  0
  1  2  1  0  0  0  0
  2  3  1  0  0  0  0
  4  9  1  0  0  0  0
  4  1  2  0  0  0  0
  5  6  1  0  0  0  0
  5  4  1  0  0  0  0
  6 11  1  6  0  0  0
  6 16  1  0  0  0  0
  6  7  1  0  0  0  0
  7  8  2  0  0  0  0
  8  1  1  0  0  0  0
  8 13  1  0  0  0  0
 10  5  1  0  0  0  0
 12  7  1  0  0  0  0
 15 14  2  0  0  0  0
 16 15  1  0  0  0  0
 17 19  1  0  0  0  0
 17 15  1  0  0  0  0
 18 17  1  0  0  0  0
 20 17  1  0  0  0  0
M  RAD  3   2   2   3   3   5   2
M  END
