Coordinates from ORCA-job PhN2+~CF3COO-_B3LYPG-6-31G_dp-NX-Scan-d89-09-n800
 OpenBabel11261920123D

 20 20  0  0  1  0  0  0  0  0999 V2000
   -5.0020   -1.5145    1.3731 C   0  0  1  0  0  0  0  0  0  0  0  0
   -5.2967   -0.4933    2.1670 N   0  0  0  0  0  0  0  0  0  0  0  0
   -5.4492    0.5353    2.6106 N   0  0  0  0  0  0  0  0  0  0  0  0
   -5.9072   -1.6747    0.2408 C   0  0  0  0  0  0  0  0  0  0  0  0
   -5.3908   -1.6704   -1.0028 C   0  0  0  0  0  0  0  0  0  0  0  0
   -3.9536   -1.3217   -1.2035 C   0  0  2  0  0  0  0  0  0  0  0  0
   -3.0781   -1.7317   -0.0665 C   0  0  0  0  0  0  0  0  0  0  0  0
   -3.5725   -1.7356    1.1860 C   0  0  0  0  0  0  0  0  0  0  0  0
   -6.9736   -1.7768    0.4230 H   0  0  0  0  0  0  0  0  0  0  0  0
   -6.0127   -1.8449   -1.8749 H   0  0  0  0  0  0  0  0  0  0  0  0
   -3.5747   -1.6733   -2.1625 H   0  0  0  0  0  0  0  0  0  0  0  0
   -2.0339   -1.9514   -0.2645 H   0  0  0  0  0  0  0  0  0  0  0  0
   -2.9385   -1.8819    2.0562 H   0  0  0  0  0  0  0  0  0  0  0  0
   -4.5952    1.0698    0.5300 O   0  0  0  0  0  0  0  0  0  0  0  0
   -4.1340    1.1420   -0.5902 C   0  0  0  0  0  0  0  0  0  0  0  0
   -3.8067    0.1969   -1.4637 O   0  0  0  0  0  0  0  0  0  0  0  0
   -3.8191    2.5170   -1.2370 C   0  0  0  0  0  0  0  0  0  0  0  0
   -2.5036    2.6211   -1.5067 F   0  0  0  0  0  0  0  0  0  0  0  0
   -4.4971    2.6692   -2.3901 F   0  0  0  0  0  0  0  0  0  0  0  0
   -4.1605    3.5119   -0.4121 F   0  0  0  0  0  0  0  0  0  0  0  0
  1  2  1  6  0  0  0
  2  3  1  0  0  0  0
  4  9  1  0  0  0  0
  4  1  1  0  0  0  0
  5  4  2  0  0  0  0
  6 11  1  6  0  0  0
  6  5  1  0  0  0  0
  6  7  1  0  0  0  0
  7  8  2  0  0  0  0
  8  1  1  0  0  0  0
  8 13  1  0  0  0  0
 10  5  1  0  0  0  0
 12  7  1  0  0  0  0
 15 14  2  0  0  0  0
 16  6  1  0  0  0  0
 16 15  1  0  0  0  0
 17 15  1  0  0  0  0
 17 20  1  0  0  0  0
 18 17  1  0  0  0  0
 19 17  1  0  0  0  0
M  RAD  3   1   2   2   2   3   3
M  END
