Coordinates from ORCA-job PhN2+~CF3COO-_B3LYPG-6-31G_dp-NX-Scan-d89-09-n800
 OpenBabel11261920123D

 20 20  0  0  1  0  0  0  0  0999 V2000
   -5.0002   -1.4530    1.3669 C   0  0  1  0  0  0  0  0  0  0  0  0
   -5.3880   -0.6975    2.3707 N   0  0  0  0  0  0  0  0  0  0  0  0
   -5.6974    0.0302    3.1862 N   0  0  0  0  0  0  0  0  0  0  0  0
   -5.9047   -1.5914    0.2408 C   0  0  0  0  0  0  0  0  0  0  0  0
   -5.3910   -1.6074   -1.0037 C   0  0  0  0  0  0  0  0  0  0  0  0
   -3.9459   -1.3050   -1.2204 C   0  0  2  0  0  0  0  0  0  0  0  0
   -3.0755   -1.6678   -0.0638 C   0  0  0  0  0  0  0  0  0  0  0  0
   -3.5739   -1.6507    1.1868 C   0  0  0  0  0  0  0  0  0  0  0  0
   -6.9717   -1.6752    0.4267 H   0  0  0  0  0  0  0  0  0  0  0  0
   -6.0248   -1.7582   -1.8715 H   0  0  0  0  0  0  0  0  0  0  0  0
   -3.5758   -1.7179   -2.1588 H   0  0  0  0  0  0  0  0  0  0  0  0
   -2.0242   -1.8635   -0.2478 H   0  0  0  0  0  0  0  0  0  0  0  0
   -2.9431   -1.7774    2.0618 H   0  0  0  0  0  0  0  0  0  0  0  0
   -4.5393    1.0842    0.4268 O   0  0  0  0  0  0  0  0  0  0  0  0
   -4.0867    1.1493   -0.6940 C   0  0  0  0  0  0  0  0  0  0  0  0
   -3.7697    0.1893   -1.5554 O   0  0  0  0  0  0  0  0  0  0  0  0
   -3.7712    2.5154   -1.3565 C   0  0  0  0  0  0  0  0  0  0  0  0
   -2.4572    2.6119   -1.6366 F   0  0  0  0  0  0  0  0  0  0  0  0
   -4.4563    2.6581   -2.5068 F   0  0  0  0  0  0  0  0  0  0  0  0
   -4.1034    3.5196   -0.5394 F   0  0  0  0  0  0  0  0  0  0  0  0
  1  2  1  6  0  0  0
  2  3  1  0  0  0  0
  4  9  1  0  0  0  0
  4  1  1  0  0  0  0
  5  4  2  0  0  0  0
  6 11  1  6  0  0  0
  6  5  1  0  0  0  0
  6  7  1  0  0  0  0
  7  8  2  0  0  0  0
  8  1  1  0  0  0  0
  8 13  1  0  0  0  0
 10  5  1  0  0  0  0
 12  7  1  0  0  0  0
 15 14  2  0  0  0  0
 16  6  1  0  0  0  0
 16 15  1  0  0  0  0
 17 15  1  0  0  0  0
 17 20  1  0  0  0  0
 18 17  1  0  0  0  0
 19 17  1  0  0  0  0
M  RAD  3   1   2   2   2   3   3
M  END
