Coordinates from ORCA-job PhN2+~CF3COO-_B3LYPG-6-31G_dp-NX-Scan-d89-09-n800
 OpenBabel11261920123D

 20 20  0  0  1  0  0  0  0  0999 V2000
   -4.9989   -1.4879    1.3653 C   0  0  1  0  0  0  0  0  0  0  0  0
   -5.3253   -0.5481    2.2326 N   0  0  0  0  0  0  0  0  0  0  0  0
   -5.5472    0.3798    2.8430 N   0  0  0  0  0  0  0  0  0  0  0  0
   -5.9046   -1.6438    0.2360 C   0  0  0  0  0  0  0  0  0  0  0  0
   -5.3891   -1.6509   -1.0076 C   0  0  0  0  0  0  0  0  0  0  0  0
   -3.9487   -1.3189   -1.2135 C   0  0  2  0  0  0  0  0  0  0  0  0
   -3.0751   -1.7134   -0.0694 C   0  0  0  0  0  0  0  0  0  0  0  0
   -3.5709   -1.7060    1.1821 C   0  0  0  0  0  0  0  0  0  0  0  0
   -6.9713   -1.7368    0.4204 H   0  0  0  0  0  0  0  0  0  0  0  0
   -6.0150   -1.8178   -1.8782 H   0  0  0  0  0  0  0  0  0  0  0  0
   -3.5725   -1.6911   -2.1660 H   0  0  0  0  0  0  0  0  0  0  0  0
   -2.0287   -1.9265   -0.2624 H   0  0  0  0  0  0  0  0  0  0  0  0
   -2.9389   -1.8441    2.0548 H   0  0  0  0  0  0  0  0  0  0  0  0
   -4.5770    1.0682    0.4950 O   0  0  0  0  0  0  0  0  0  0  0  0
   -4.1184    1.1392   -0.6244 C   0  0  0  0  0  0  0  0  0  0  0  0
   -3.7925    0.1914   -1.4961 O   0  0  0  0  0  0  0  0  0  0  0  0
   -3.8051    2.5125   -1.2745 C   0  0  0  0  0  0  0  0  0  0  0  0
   -2.4902    2.6162   -1.5477 F   0  0  0  0  0  0  0  0  0  0  0  0
   -4.4857    2.6622   -2.4265 F   0  0  0  0  0  0  0  0  0  0  0  0
   -4.1446    3.5090   -0.4510 F   0  0  0  0  0  0  0  0  0  0  0  0
  1  2  1  6  0  0  0
  2  3  1  0  0  0  0
  4  9  1  0  0  0  0
  4  1  1  0  0  0  0
  5  4  2  0  0  0  0
  6 11  1  6  0  0  0
  6  5  1  0  0  0  0
  6  7  1  0  0  0  0
  7  8  2  0  0  0  0
  8  1  1  0  0  0  0
  8 13  1  0  0  0  0
 10  5  1  0  0  0  0
 12  7  1  0  0  0  0
 15 14  2  0  0  0  0
 16  6  1  0  0  0  0
 16 15  1  0  0  0  0
 17 15  1  0  0  0  0
 17 20  1  0  0  0  0
 18 17  1  0  0  0  0
 19 17  1  0  0  0  0
M  RAD  3   1   2   2   2   3   3
M  END
