Coordinates from ORCA-job PhN2+~CF3COO-_B3LYPG-6-31G_dp-NX-Scan-d89-09-n800
 OpenBabel11261920123D

 20 20  0  0  0  0  0  0  0  0999 V2000
   -3.8311   -1.1297    0.2309 C   0  0  0  0  0  0  0  0  0  0  0  0
   -3.4930    0.1160    0.8148 N   0  0  0  0  0  0  0  0  0  0  0  0
   -3.8750    1.2532    0.5764 N   0  0  0  0  0  0  0  0  0  0  0  0
   -4.6945   -1.3948   -0.8545 C   0  0  0  0  0  0  0  0  0  0  0  0
   -4.8747   -2.7119   -1.2708 C   0  0  0  0  0  0  0  0  0  0  0  0
   -4.2191   -3.7664   -0.6301 C   0  0  0  0  0  0  0  0  0  0  0  0
   -3.3646   -3.5080    0.4438 C   0  0  0  0  0  0  0  0  0  0  0  0
   -3.1711   -2.1981    0.8675 C   0  0  0  0  0  0  0  0  0  0  0  0
   -5.2102   -0.5951   -1.3611 H   0  0  0  0  0  0  0  0  0  0  0  0
   -5.5366   -2.9146   -2.1074 H   0  0  0  0  0  0  0  0  0  0  0  0
   -4.3743   -4.7864   -0.9691 H   0  0  0  0  0  0  0  0  0  0  0  0
   -2.8518   -4.3219    0.9459 H   0  0  0  0  0  0  0  0  0  0  0  0
   -2.5117   -1.9643    1.6966 H   0  0  0  0  0  0  0  0  0  0  0  0
   -4.8362    1.3376   -0.4800 O   0  0  0  0  0  0  0  0  0  0  0  0
   -5.2887    2.5858   -0.7686 C   0  0  0  0  0  0  0  0  0  0  0  0
   -6.0968    2.7453   -1.6405 O   0  0  0  0  0  0  0  0  0  0  0  0
   -4.7342    3.7846    0.0529 C   0  0  0  0  0  0  0  0  0  0  0  0
   -3.4062    3.9037   -0.0996 F   0  0  0  0  0  0  0  0  0  0  0  0
   -5.3099    4.9046   -0.3926 F   0  0  0  0  0  0  0  0  0  0  0  0
   -5.0201    3.6535    1.3575 F   0  0  0  0  0  0  0  0  0  0  0  0
  1  2  1  0  0  0  0
  1  8  2  0  0  0  0
  3  2  1  0  0  0  0
  4  1  1  0  0  0  0
  5  4  2  0  0  0  0
  5  6  1  0  0  0  0
  6  7  2  0  0  0  0
  7  8  1  0  0  0  0
  7 12  1  0  0  0  0
  8 13  1  0  0  0  0
  9  4  1  0  0  0  0
 10  5  1  0  0  0  0
 11  6  1  0  0  0  0
 14  3  1  0  0  0  0
 15 14  1  0  0  0  0
 15 17  1  0  0  0  0
 16 15  2  0  0  0  0
 17 20  1  0  0  0  0
 18 17  1  0  0  0  0
 19 17  1  0  0  0  0
M  RAD  2   2   2   3   2
M  END
