Coordinates from ORCA-job PhN2+~CF3COO-_B3LYPG-6-31G_dp-NX-Scan-d89-09-n800
 OpenBabel11261920123D

 20 20  0  0  1  0  0  0  0  0999 V2000
   -5.2140   -1.8740    1.5796 C   0  0  0  0  0  0  0  0  0  0  0  0
   -5.7405   -2.4606    2.6308 N   0  0  0  0  0  0  0  0  0  0  0  0
   -6.1977   -2.9603    3.5504 N   0  0  0  0  0  0  0  0  0  0  0  0
   -6.0535   -1.1068    0.6845 C   0  0  0  0  0  0  0  0  0  0  0  0
   -5.5059   -0.4633   -0.3637 C   0  0  0  0  0  0  0  0  0  0  0  0
   -4.0287   -0.4112   -0.5869 C   0  0  2  0  0  0  0  0  0  0  0  0
   -3.2562   -1.3791    0.2498 C   0  0  0  0  0  0  0  0  0  0  0  0
   -3.8027   -2.0255    1.2963 C   0  0  0  0  0  0  0  0  0  0  0  0
   -7.1245   -1.0872    0.8622 H   0  0  0  0  0  0  0  0  0  0  0  0
   -6.1326    0.0900   -1.0540 H   0  0  0  0  0  0  0  0  0  0  0  0
   -3.7681   -0.5071   -1.6407 H   0  0  0  0  0  0  0  0  0  0  0  0
   -2.2040   -1.5066    0.0178 H   0  0  0  0  0  0  0  0  0  0  0  0
   -3.2119   -2.6860    1.9234 H   0  0  0  0  0  0  0  0  0  0  0  0
   -3.0921    3.1043   -0.4651 O   0  0  0  0  0  0  0  0  0  0  0  0
   -3.3869    2.0259   -0.9143 C   0  0  0  0  0  0  0  0  0  0  0  0
   -3.5455    0.9547   -0.1389 O   0  0  0  0  0  0  0  0  0  0  0  0
   -3.5671    1.8658   -2.4486 C   0  0  0  0  0  0  0  0  0  0  0  0
   -2.6741    0.9781   -2.9476 F   0  0  0  0  0  0  0  0  0  0  0  0
   -4.8068    1.4134   -2.7563 F   0  0  0  0  0  0  0  0  0  0  0  0
   -3.3870    3.0287   -3.0667 F   0  0  0  0  0  0  0  0  0  0  0  0
  1  2  1  0  0  0  0
  2  3  1  0  0  0  0
  4  9  1  0  0  0  0
  4  1  2  0  0  0  0
  5  4  1  0  0  0  0
  6 11  1  6  0  0  0
  6  5  1  0  0  0  0
  6 16  1  0  0  0  0
  6  7  1  0  0  0  0
  7  8  2  0  0  0  0
  8  1  1  0  0  0  0
  8 13  1  0  0  0  0
 10  5  1  0  0  0  0
 12  7  1  0  0  0  0
 15 14  2  0  0  0  0
 15 16  1  0  0  0  0
 17 15  1  0  0  0  0
 18 17  1  0  0  0  0
 19 17  1  0  0  0  0
 20 17  1  0  0  0  0
M  RAD  3   2   2   3   3   5   2
M  END
