Coordinates from ORCA-job PhN2+~CF3COO-_B3LYPG-6-31G_dp-NX-Scan-d89-09-n800
 OpenBabel11261920123D

 20 20  0  0  1  0  0  0  0  0999 V2000
   -5.0316   -1.4429    1.4473 C   0  0  0  0  0  0  0  0  0  0  0  0
   -5.5142   -1.2329    2.6503 N   0  0  0  0  0  0  0  0  0  0  0  0
   -5.9313   -1.0287    3.6920 N   0  0  0  0  0  0  0  0  0  0  0  0
   -5.9272   -1.4855    0.3129 C   0  0  0  0  0  0  0  0  0  0  0  0
   -5.4179   -1.4427   -0.9327 C   0  0  0  0  0  0  0  0  0  0  0  0
   -3.9607   -1.2198   -1.1736 C   0  0  2  0  0  0  0  0  0  0  0  0
   -3.0966   -1.5092    0.0100 C   0  0  0  0  0  0  0  0  0  0  0  0
   -3.6023   -1.5512    1.2571 C   0  0  0  0  0  0  0  0  0  0  0  0
   -6.9949   -1.5730    0.4905 H   0  0  0  0  0  0  0  0  0  0  0  0
   -6.0690   -1.5117   -1.7980 H   0  0  0  0  0  0  0  0  0  0  0  0
   -3.6144   -1.7502   -2.0635 H   0  0  0  0  0  0  0  0  0  0  0  0
   -2.0310   -1.6271   -0.1583 H   0  0  0  0  0  0  0  0  0  0  0  0
   -2.9663   -1.6861    2.1264 H   0  0  0  0  0  0  0  0  0  0  0  0
   -4.4686    1.2354    0.2467 O   0  0  0  0  0  0  0  0  0  0  0  0
   -4.0131    1.2336   -0.8713 C   0  0  0  0  0  0  0  0  0  0  0  0
   -3.7208    0.2064   -1.6632 O   0  0  0  0  0  0  0  0  0  0  0  0
   -3.6663    2.5465   -1.6176 C   0  0  0  0  0  0  0  0  0  0  0  0
   -2.3501    2.5949   -1.9002 F   0  0  0  0  0  0  0  0  0  0  0  0
   -4.3469    2.6303   -2.7763 F   0  0  0  0  0  0  0  0  0  0  0  0
   -3.9767    3.6074   -0.8662 F   0  0  0  0  0  0  0  0  0  0  0  0
  1  2  1  0  0  0  0
  2  3  1  0  0  0  0
  4  9  1  0  0  0  0
  4  1  2  0  0  0  0
  5  4  1  0  0  0  0
  6 11  1  6  0  0  0
  6  5  1  0  0  0  0
  6  7  1  0  0  0  0
  7  8  2  0  0  0  0
  8  1  1  0  0  0  0
  8 13  1  0  0  0  0
 10  5  1  0  0  0  0
 12  7  1  0  0  0  0
 15 14  2  0  0  0  0
 16  6  1  0  0  0  0
 16 15  1  0  0  0  0
 17 15  1  0  0  0  0
 17 20  1  0  0  0  0
 18 17  1  0  0  0  0
 19 17  1  0  0  0  0
M  RAD  3   2   2   3   3   5   2
M  END
