Coordinates from ORCA-job PhN2+~CF3COO-_B3LYPG-6-31G_dp-NX-Scan-d89-09-n800
 OpenBabel11261920123D

 20 20  0  0  1  0  0  0  0  0999 V2000
   -5.2290   -1.9153    1.5787 C   0  0  0  0  0  0  0  0  0  0  0  0
   -5.7680   -2.6069    2.5575 N   0  0  0  0  0  0  0  0  0  0  0  0
   -6.2362   -3.2049    3.4116 N   0  0  0  0  0  0  0  0  0  0  0  0
   -6.0633   -1.0999    0.7213 C   0  0  0  0  0  0  0  0  0  0  0  0
   -5.5134   -0.3954   -0.2857 C   0  0  0  0  0  0  0  0  0  0  0  0
   -4.0386   -0.3483   -0.5291 C   0  0  2  0  0  0  0  0  0  0  0  0
   -3.2553   -1.2967    0.3211 C   0  0  0  0  0  0  0  0  0  0  0  0
   -3.8062   -2.0035    1.3253 C   0  0  0  0  0  0  0  0  0  0  0  0
   -7.1354   -1.0906    0.8934 H   0  0  0  0  0  0  0  0  0  0  0  0
   -6.1406    0.1961   -0.9433 H   0  0  0  0  0  0  0  0  0  0  0  0
   -3.7959   -0.4811   -1.5837 H   0  0  0  0  0  0  0  0  0  0  0  0
   -2.1921   -1.3756    0.1186 H   0  0  0  0  0  0  0  0  0  0  0  0
   -3.2060   -2.6645    1.9427 H   0  0  0  0  0  0  0  0  0  0  0  0
   -2.9515    3.1242   -0.5948 O   0  0  0  0  0  0  0  0  0  0  0  0
   -3.3308    2.0467   -0.9780 C   0  0  0  0  0  0  0  0  0  0  0  0
   -3.5447    1.0295   -0.1430 O   0  0  0  0  0  0  0  0  0  0  0  0
   -3.5685    1.8273   -2.4978 C   0  0  0  0  0  0  0  0  0  0  0  0
   -2.7186    0.8934   -2.9881 F   0  0  0  0  0  0  0  0  0  0  0  0
   -4.8305    1.4010   -2.7451 F   0  0  0  0  0  0  0  0  0  0  0  0
   -3.3754    2.9577   -3.1694 F   0  0  0  0  0  0  0  0  0  0  0  0
  1  2  1  0  0  0  0
  2  3  1  0  0  0  0
  4  9  1  0  0  0  0
  4  1  2  0  0  0  0
  5  4  1  0  0  0  0
  6 11  1  6  0  0  0
  6  5  1  0  0  0  0
  6 16  1  0  0  0  0
  6  7  1  0  0  0  0
  7  8  2  0  0  0  0
  8  1  1  0  0  0  0
  8 13  1  0  0  0  0
 10  5  1  0  0  0  0
 12  7  1  0  0  0  0
 15 14  2  0  0  0  0
 15 16  1  0  0  0  0
 17 15  1  0  0  0  0
 18 17  1  0  0  0  0
 19 17  1  0  0  0  0
 20 17  1  0  0  0  0
M  RAD  3   2   2   3   3   5   2
M  END
