Coordinates from ORCA-job PhN2+~CF3COO-_B3LYPG-6-31G_dp-NX-Scan-d89-09-n800
 OpenBabel11261920123D

 20 20  0  0  1  0  0  0  0  0999 V2000
   -4.9982   -1.4641    1.3642 C   0  0  1  0  0  0  0  0  0  0  0  0
   -5.3645   -0.6390    2.3219 N   0  0  0  0  0  0  0  0  0  0  0  0
   -5.6454    0.1641    3.0730 N   0  0  0  0  0  0  0  0  0  0  0  0
   -5.9037   -1.6092    0.2377 C   0  0  0  0  0  0  0  0  0  0  0  0
   -5.3895   -1.6241   -1.0066 C   0  0  0  0  0  0  0  0  0  0  0  0
   -3.9459   -1.3115   -1.2194 C   0  0  2  0  0  0  0  0  0  0  0  0
   -3.0745   -1.6866   -0.0675 C   0  0  0  0  0  0  0  0  0  0  0  0
   -3.5718   -1.6711    1.1835 C   0  0  0  0  0  0  0  0  0  0  0  0
   -6.9706   -1.6948    0.4235 H   0  0  0  0  0  0  0  0  0  0  0  0
   -6.0206   -1.7809   -1.8752 H   0  0  0  0  0  0  0  0  0  0  0  0
   -3.5737   -1.7088   -2.1635 H   0  0  0  0  0  0  0  0  0  0  0  0
   -2.0252   -1.8898   -0.2548 H   0  0  0  0  0  0  0  0  0  0  0  0
   -2.9407   -1.8015    2.0578 H   0  0  0  0  0  0  0  0  0  0  0  0
   -4.5578    1.0764    0.4499 O   0  0  0  0  0  0  0  0  0  0  0  0
   -4.0996    1.1442   -0.6689 C   0  0  0  0  0  0  0  0  0  0  0  0
   -3.7769    0.1894   -1.5340 O   0  0  0  0  0  0  0  0  0  0  0  0
   -3.7844    2.5135   -1.3255 C   0  0  0  0  0  0  0  0  0  0  0  0
   -2.4695    2.6138   -1.5999 F   0  0  0  0  0  0  0  0  0  0  0  0
   -4.4653    2.6587   -2.4779 F   0  0  0  0  0  0  0  0  0  0  0  0
   -4.1220    3.5142   -0.5064 F   0  0  0  0  0  0  0  0  0  0  0  0
  1  2  1  6  0  0  0
  2  3  1  0  0  0  0
  4  9  1  0  0  0  0
  4  1  1  0  0  0  0
  5  4  2  0  0  0  0
  6 11  1  6  0  0  0
  6  5  1  0  0  0  0
  6  7  1  0  0  0  0
  7  8  2  0  0  0  0
  8  1  1  0  0  0  0
  8 13  1  0  0  0  0
 10  5  1  0  0  0  0
 12  7  1  0  0  0  0
 15 14  2  0  0  0  0
 16  6  1  0  0  0  0
 16 15  1  0  0  0  0
 17 15  1  0  0  0  0
 17 20  1  0  0  0  0
 18 17  1  0  0  0  0
 19 17  1  0  0  0  0
M  RAD  3   1   2   2   2   3   3
M  END
