Coordinates from ORCA-job PhN2+~CF3COO-_B3LYPG-6-31G_dp-NX-Scan-d89-09-n800
 OpenBabel11261920123D

 20 20  0  0  1  0  0  0  0  0999 V2000
   -5.0977   -1.5604    1.4810 C   0  0  1  0  0  0  0  0  0  0  0  0
   -5.5314   -1.4775    2.7187 N   0  0  0  0  0  0  0  0  0  0  0  0
   -5.9091   -1.3536    3.7874 N   0  0  0  0  0  0  0  0  0  0  0  0
   -5.9135   -1.0309    0.4066 C   0  0  0  0  0  0  0  0  0  0  0  0
   -5.3246   -0.7702   -0.7769 C   0  0  0  0  0  0  0  0  0  0  0  0
   -3.8297   -0.7890   -0.8640 C   0  0  2  0  0  0  0  0  0  0  0  0
   -3.2250   -1.8513   -0.0008 C   0  0  0  0  0  0  0  0  0  0  0  0
   -3.7930   -2.1237    1.1903 C   0  0  0  0  0  0  0  0  0  0  0  0
   -6.9781   -0.8930    0.5690 H   0  0  0  0  0  0  0  0  0  0  0  0
   -5.9009   -0.4382   -1.6310 H   0  0  0  0  0  0  0  0  0  0  0  0
   -3.4586   -0.8045   -1.8888 H   0  0  0  0  0  0  0  0  0  0  0  0
   -2.2767   -2.2911   -0.2871 H   0  0  0  0  0  0  0  0  0  0  0  0
   -3.3229   -2.7732    1.9223 H   0  0  0  0  0  0  0  0  0  0  0  0
   -3.9347    2.5730    0.2593 O   0  0  0  0  0  0  0  0  0  0  0  0
   -3.7075    1.7128   -0.5527 C   0  0  0  0  0  0  0  0  0  0  0  0
   -3.3004    0.4887   -0.2162 O   0  0  0  0  0  0  0  0  0  0  0  0
   -3.7798    2.0285   -2.0718 C   0  0  0  0  0  0  0  0  0  0  0  0
   -2.7658    1.4330   -2.7362 F   0  0  0  0  0  0  0  0  0  0  0  0
   -4.9364    1.5723   -2.6091 F   0  0  0  0  0  0  0  0  0  0  0  0
   -3.7139    3.3416   -2.2880 F   0  0  0  0  0  0  0  0  0  0  0  0
  1  2  1  1  0  0  0
  2  3  1  0  0  0  0
  4  9  1  0  0  0  0
  4  1  1  0  0  0  0
  5  4  2  0  0  0  0
  6 11  1  6  0  0  0
  6  5  1  0  0  0  0
  6 16  1  0  0  0  0
  6  7  1  0  0  0  0
  7  8  2  0  0  0  0
  8  1  1  0  0  0  0
  8 13  1  0  0  0  0
 10  5  1  0  0  0  0
 12  7  1  0  0  0  0
 15 16  1  0  0  0  0
 15 14  2  0  0  0  0
 17 15  1  0  0  0  0
 18 17  1  0  0  0  0
 19 17  1  0  0  0  0
 20 17  1  0  0  0  0
M  RAD  3   1   2   2   2   3   3
M  END
