Coordinates from ORCA-job PhN2+~CF3COO-_B3LYPG-6-31G_dp-NX-Scan-d89-09-n800
 OpenBabel11261920123D

 20 20  0  0  1  0  0  0  0  0999 V2000
   -5.1600   -1.7291    1.5465 C   0  0  0  0  0  0  0  0  0  0  0  0
   -5.6438   -1.9731    2.7436 N   0  0  0  0  0  0  0  0  0  0  0  0
   -6.0643   -2.1518    3.7891 N   0  0  0  0  0  0  0  0  0  0  0  0
   -5.9974   -1.0923    0.5524 C   0  0  0  0  0  0  0  0  0  0  0  0
   -5.4369   -0.6388   -0.5853 C   0  0  0  0  0  0  0  0  0  0  0  0
   -3.9499   -0.6018   -0.7401 C   0  0  2  0  0  0  0  0  0  0  0  0
   -3.2449   -1.6297    0.0845 C   0  0  0  0  0  0  0  0  0  0  0  0
   -3.7944   -2.0891    1.2250 C   0  0  0  0  0  0  0  0  0  0  0  0
   -7.0658   -1.0231    0.7323 H   0  0  0  0  0  0  0  0  0  0  0  0
   -6.0459   -0.1975   -1.3652 H   0  0  0  0  0  0  0  0  0  0  0  0
   -3.6310   -0.6190   -1.7814 H   0  0  0  0  0  0  0  0  0  0  0  0
   -2.2383   -1.9149   -0.1994 H   0  0  0  0  0  0  0  0  0  0  0  0
   -3.2533   -2.7487    1.8966 H   0  0  0  0  0  0  0  0  0  0  0  0
   -3.5342    2.9334   -0.0889 O   0  0  0  0  0  0  0  0  0  0  0  0
   -3.5614    1.9085   -0.7221 C   0  0  0  0  0  0  0  0  0  0  0  0
   -3.4658    0.7139   -0.1447 O   0  0  0  0  0  0  0  0  0  0  0  0
   -3.6352    1.9586   -2.2719 C   0  0  0  0  0  0  0  0  0  0  0  0
   -2.6413    1.2246   -2.8232 F   0  0  0  0  0  0  0  0  0  0  0  0
   -4.8090    1.4537   -2.7246 F   0  0  0  0  0  0  0  0  0  0  0  0
   -3.5271    3.2091   -2.7112 F   0  0  0  0  0  0  0  0  0  0  0  0
  1  2  1  0  0  0  0
  2  3  1  0  0  0  0
  4  9  1  0  0  0  0
  4  1  2  0  0  0  0
  5  4  1  0  0  0  0
  6 11  1  6  0  0  0
  6  5  1  0  0  0  0
  6 16  1  0  0  0  0
  6  7  1  0  0  0  0
  7  8  2  0  0  0  0
  8  1  1  0  0  0  0
  8 13  1  0  0  0  0
 10  5  1  0  0  0  0
 12  7  1  0  0  0  0
 15 16  1  0  0  0  0
 15 14  2  0  0  0  0
 17 15  1  0  0  0  0
 18 17  1  0  0  0  0
 19 17  1  0  0  0  0
 20 17  1  0  0  0  0
M  RAD  3   2   2   3   3   5   2
M  END
