Coordinates from ORCA-job PhN2+~CF3COO-_B3LYPG-6-31G_dp-NX-Scan-d89-09-n800
 OpenBabel11261920123D

 20 20  0  0  1  0  0  0  0  0999 V2000
   -5.1758   -1.7685    1.5589 C   0  0  0  0  0  0  0  0  0  0  0  0
   -5.6757   -2.1057    2.7262 N   0  0  0  0  0  0  0  0  0  0  0  0
   -6.1100   -2.3714    3.7472 N   0  0  0  0  0  0  0  0  0  0  0  0
   -6.0123   -1.0972    0.5876 C   0  0  0  0  0  0  0  0  0  0  0  0
   -5.4544   -0.5946   -0.5302 C   0  0  0  0  0  0  0  0  0  0  0  0
   -3.9700   -0.5539   -0.7021 C   0  0  2  0  0  0  0  0  0  0  0  0
   -3.2463   -1.5670    0.1239 C   0  0  0  0  0  0  0  0  0  0  0  0
   -3.7963   -2.0745    1.2433 C   0  0  0  0  0  0  0  0  0  0  0  0
   -7.0816   -1.0407    0.7670 H   0  0  0  0  0  0  0  0  0  0  0  0
   -6.0680   -0.1228   -1.2888 H   0  0  0  0  0  0  0  0  0  0  0  0
   -3.6655   -0.5888   -1.7474 H   0  0  0  0  0  0  0  0  0  0  0  0
   -2.2259   -1.8119   -0.1489 H   0  0  0  0  0  0  0  0  0  0  0  0
   -3.2420   -2.7355    1.9025 H   0  0  0  0  0  0  0  0  0  0  0  0
   -3.4155    2.9942   -0.1862 O   0  0  0  0  0  0  0  0  0  0  0  0
   -3.5137    1.9462   -0.7726 C   0  0  0  0  0  0  0  0  0  0  0  0
   -3.4867    0.7758   -0.1410 O   0  0  0  0  0  0  0  0  0  0  0  0
   -3.6157    1.9376   -2.3215 C   0  0  0  0  0  0  0  0  0  0  0  0
   -2.6462    1.1633   -2.8618 F   0  0  0  0  0  0  0  0  0  0  0  0
   -4.8077    1.4406   -2.7337 F   0  0  0  0  0  0  0  0  0  0  0  0
   -3.4907    3.1679   -2.8104 F   0  0  0  0  0  0  0  0  0  0  0  0
  1  2  1  0  0  0  0
  2  3  1  0  0  0  0
  4  9  1  0  0  0  0
  4  1  2  0  0  0  0
  5  4  1  0  0  0  0
  6 11  1  6  0  0  0
  6  5  1  0  0  0  0
  6 16  1  0  0  0  0
  6  7  1  0  0  0  0
  7  8  2  0  0  0  0
  8  1  1  0  0  0  0
  8 13  1  0  0  0  0
 10  5  1  0  0  0  0
 12  7  1  0  0  0  0
 15 14  2  0  0  0  0
 15 16  1  0  0  0  0
 17 15  1  0  0  0  0
 18 17  1  0  0  0  0
 19 17  1  0  0  0  0
 20 17  1  0  0  0  0
M  RAD  3   2   2   3   3   5   2
M  END
