Coordinates from ORCA-job PhN2+~CF3COO-_B3LYPG-6-31G_dp-NX-Scan-d89-09-n800
 OpenBabel11261920123D

 20 20  0  0  1  0  0  0  0  0999 V2000
   -5.0002   -1.4533    1.3650 C   0  0  1  0  0  0  0  0  0  0  0  0
   -5.3834   -0.6792    2.3569 N   0  0  0  0  0  0  0  0  0  0  0  0
   -5.6867    0.0671    3.1574 N   0  0  0  0  0  0  0  0  0  0  0  0
   -5.9047   -1.5951    0.2387 C   0  0  0  0  0  0  0  0  0  0  0  0
   -5.3905   -1.6127   -1.0056 C   0  0  0  0  0  0  0  0  0  0  0  0
   -3.9457   -1.3076   -1.2213 C   0  0  2  0  0  0  0  0  0  0  0  0
   -3.0752   -1.6718   -0.0653 C   0  0  0  0  0  0  0  0  0  0  0  0
   -3.5736   -1.6529    1.1854 C   0  0  0  0  0  0  0  0  0  0  0  0
   -6.9716   -1.6798    0.4244 H   0  0  0  0  0  0  0  0  0  0  0  0
   -6.0232   -1.7665   -1.8735 H   0  0  0  0  0  0  0  0  0  0  0  0
   -3.5747   -1.7169   -2.1609 H   0  0  0  0  0  0  0  0  0  0  0  0
   -2.0244   -1.8695   -0.2496 H   0  0  0  0  0  0  0  0  0  0  0  0
   -2.9429   -1.7795    2.0605 H   0  0  0  0  0  0  0  0  0  0  0  0
   -4.5367    1.0778    0.4356 O   0  0  0  0  0  0  0  0  0  0  0  0
   -4.0877    1.1455   -0.6865 C   0  0  0  0  0  0  0  0  0  0  0  0
   -3.7722    0.1881   -1.5512 O   0  0  0  0  0  0  0  0  0  0  0  0
   -3.7751    2.5135   -1.3467 C   0  0  0  0  0  0  0  0  0  0  0  0
   -2.4621    2.6116   -1.6306 F   0  0  0  0  0  0  0  0  0  0  0  0
   -4.4640    2.6586   -2.4944 F   0  0  0  0  0  0  0  0  0  0  0  0
   -4.1054    3.5156   -0.5262 F   0  0  0  0  0  0  0  0  0  0  0  0
  1  2  1  6  0  0  0
  2  3  1  0  0  0  0
  4  9  1  0  0  0  0
  4  1  1  0  0  0  0
  5  4  2  0  0  0  0
  6 11  1  6  0  0  0
  6  5  1  0  0  0  0
  6  7  1  0  0  0  0
  7  8  2  0  0  0  0
  8  1  1  0  0  0  0
  8 13  1  0  0  0  0
 10  5  1  0  0  0  0
 12  7  1  0  0  0  0
 15 14  2  0  0  0  0
 16  6  1  0  0  0  0
 16 15  1  0  0  0  0
 17 15  1  0  0  0  0
 17 20  1  0  0  0  0
 18 17  1  0  0  0  0
 19 17  1  0  0  0  0
M  RAD  3   1   2   2   2   3   3
M  END
