Coordinates from ORCA-job PhN2+~CF3COO-_B3LYPG-6-31G_dp-NX-Scan-d89-09-n800
 OpenBabel11261920123D

 20 19  0  0  0  0  0  0  0  0999 V2000
   -3.7784   -1.2124    0.2913 C   0  0  0  0  0  0  0  0  0  0  0  0
   -3.5018    0.0577    0.8206 N   0  0  0  0  0  0  0  0  0  0  0  0
   -3.7321    1.1920    0.7426 N   0  0  0  0  0  0  0  0  0  0  0  0
   -4.6597   -1.4003   -0.7894 C   0  0  0  0  0  0  0  0  0  0  0  0
   -4.8637   -2.7014   -1.2401 C   0  0  0  0  0  0  0  0  0  0  0  0
   -4.2126   -3.7799   -0.6328 C   0  0  0  0  0  0  0  0  0  0  0  0
   -3.3407   -3.5737    0.4408 C   0  0  0  0  0  0  0  0  0  0  0  0
   -3.1171   -2.2841    0.9094 C   0  0  0  0  0  0  0  0  0  0  0  0
   -5.1479   -0.5426   -1.2328 H   0  0  0  0  0  0  0  0  0  0  0  0
   -5.5375   -2.8728   -2.0735 H   0  0  0  0  0  0  0  0  0  0  0  0
   -4.3860   -4.7873   -0.9986 H   0  0  0  0  0  0  0  0  0  0  0  0
   -2.8391   -4.4137    0.9088 H   0  0  0  0  0  0  0  0  0  0  0  0
   -2.4475   -2.0885    1.7398 H   0  0  0  0  0  0  0  0  0  0  0  0
   -4.9759    1.4683   -0.6414 O   0  0  0  0  0  0  0  0  0  0  0  0
   -5.3890    2.6833   -0.8898 C   0  0  0  0  0  0  0  0  0  0  0  0
   -6.1956    2.9712   -1.7525 O   0  0  0  0  0  0  0  0  0  0  0  0
   -4.7871    3.8094   -0.0063 C   0  0  0  0  0  0  0  0  0  0  0  0
   -3.4418    3.8570   -0.1312 F   0  0  0  0  0  0  0  0  0  0  0  0
   -5.2753    5.0045   -0.3529 F   0  0  0  0  0  0  0  0  0  0  0  0
   -5.0711    3.6062    1.2999 F   0  0  0  0  0  0  0  0  0  0  0  0
  1  2  1  0  0  0  0
  1  8  2  0  0  0  0
  3  2  2  0  0  0  0
  4  1  1  0  0  0  0
  5  4  2  0  0  0  0
  5  6  1  0  0  0  0
  6  7  2  0  0  0  0
  7 12  1  0  0  0  0
  7  8  1  0  0  0  0
  8 13  1  0  0  0  0
  9  4  1  0  0  0  0
 10  5  1  0  0  0  0
 11  6  1  0  0  0  0
 15 14  1  0  0  0  0
 15 17  1  0  0  0  0
 16 15  2  0  0  0  0
 17 20  1  0  0  0  0
 18 17  1  0  0  0  0
 19 17  1  0  0  0  0
M  RAD  2   3   2  14   2
M  END
