Coordinates from ORCA-job PhN2+~CF3COO-_B3LYPG-6-31G_dp-NX-Scan-d89-09-n800
 OpenBabel11261920123D

 20 20  0  0  1  0  0  0  0  0999 V2000
   -5.0685   -1.5383    1.5288 C   0  0  0  0  0  0  0  0  0  0  0  0
   -5.5649   -1.6350    2.7415 N   0  0  0  0  0  0  0  0  0  0  0  0
   -5.9965   -1.7182    3.7961 N   0  0  0  0  0  0  0  0  0  0  0  0
   -5.9566   -1.4675    0.3886 C   0  0  0  0  0  0  0  0  0  0  0  0
   -5.4498   -1.3104   -0.8480 C   0  0  0  0  0  0  0  0  0  0  0  0
   -3.9862   -1.1328   -1.1000 C   0  0  2  0  0  0  0  0  0  0  0  0
   -3.1253   -1.3753    0.0988 C   0  0  0  0  0  0  0  0  0  0  0  0
   -3.6346   -1.5312    1.3346 C   0  0  0  0  0  0  0  0  0  0  0  0
   -7.0253   -1.5682    0.5525 H   0  0  0  0  0  0  0  0  0  0  0  0
   -6.1083   -1.2844   -1.7105 H   0  0  0  0  0  0  0  0  0  0  0  0
   -3.6574   -1.7401   -1.9494 H   0  0  0  0  0  0  0  0  0  0  0  0
   -2.0512   -1.3970   -0.0579 H   0  0  0  0  0  0  0  0  0  0  0  0
   -2.9906   -1.6776    2.1962 H   0  0  0  0  0  0  0  0  0  0  0  0
   -4.4212    1.4111    0.1380 O   0  0  0  0  0  0  0  0  0  0  0  0
   -3.9679    1.3230   -0.9754 C   0  0  0  0  0  0  0  0  0  0  0  0
   -3.7063    0.2321   -1.6925 O   0  0  0  0  0  0  0  0  0  0  0  0
   -3.5862    2.5686   -1.8138 C   0  0  0  0  0  0  0  0  0  0  0  0
   -2.2736    2.5502   -2.1153 F   0  0  0  0  0  0  0  0  0  0  0  0
   -4.2807    2.5959   -2.9670 F   0  0  0  0  0  0  0  0  0  0  0  0
   -3.8491    3.6881   -1.1334 F   0  0  0  0  0  0  0  0  0  0  0  0
  1  2  1  0  0  0  0
  2  3  1  0  0  0  0
  4  9  1  0  0  0  0
  4  1  2  0  0  0  0
  5  4  1  0  0  0  0
  6 11  1  6  0  0  0
  6  5  1  0  0  0  0
  6  7  1  0  0  0  0
  7  8  2  0  0  0  0
  8  1  1  0  0  0  0
  8 13  1  0  0  0  0
 10  5  1  0  0  0  0
 12  7  1  0  0  0  0
 15 14  2  0  0  0  0
 16  6  1  0  0  0  0
 16 15  1  0  0  0  0
 17 20  1  0  0  0  0
 17 15  1  0  0  0  0
 18 17  1  0  0  0  0
 19 17  1  0  0  0  0
M  RAD  3   2   2   3   3   5   2
M  END
