Coordinates from ORCA-job PhN2+~CF3COO-_B3LYPG-6-31G_dp-NX-Scan-d89-09-n800
 OpenBabel11261920123D

 20 20  0  0  1  0  0  0  0  0999 V2000
   -5.0987   -1.4510    1.3998 C   0  0  0  0  0  0  0  0  0  0  0  0
   -5.6877   -1.3786    2.5735 N   0  0  0  0  0  0  0  0  0  0  0  0
   -6.1938   -1.2796    3.5901 N   0  0  0  0  0  0  0  0  0  0  0  0
   -5.7780   -0.9422    0.2288 C   0  0  0  0  0  0  0  0  0  0  0  0
   -5.0812   -0.7860   -0.9156 C   0  0  0  0  0  0  0  0  0  0  0  0
   -3.5928   -0.9179   -0.9161 C   0  0  2  0  0  0  0  0  0  0  0  0
   -3.0973   -1.8692    0.1254 C   0  0  0  0  0  0  0  0  0  0  0  0
   -3.7794   -2.0371    1.2748 C   0  0  0  0  0  0  0  0  0  0  0  0
   -6.8423   -0.7354    0.2844 H   0  0  0  0  0  0  0  0  0  0  0  0
   -5.5779   -0.4713   -1.8252 H   0  0  0  0  0  0  0  0  0  0  0  0
   -3.1905   -1.1223   -1.9077 H   0  0  0  0  0  0  0  0  0  0  0  0
   -2.1248   -2.3279   -0.0134 H   0  0  0  0  0  0  0  0  0  0  0  0
   -3.3841   -2.6226    2.0988 H   0  0  0  0  0  0  0  0  0  0  0  0
   -3.6985    2.3165    0.4009 O   0  0  0  0  0  0  0  0  0  0  0  0
   -3.5939    1.5714   -0.5400 C   0  0  0  0  0  0  0  0  0  0  0  0
   -2.9357    0.4104   -0.5008 O   0  0  0  0  0  0  0  0  0  0  0  0
   -4.1351    2.0415   -1.9181 C   0  0  0  0  0  0  0  0  0  0  0  0
   -3.8939    1.1533   -2.9088 F   0  0  0  0  0  0  0  0  0  0  0  0
   -5.4647    2.2416   -1.8632 F   0  0  0  0  0  0  0  0  0  0  0  0
   -3.5495    3.1994   -2.2554 F   0  0  0  0  0  0  0  0  0  0  0  0
  1  2  1  0  0  0  0
  2  3  1  0  0  0  0
  4  9  1  0  0  0  0
  4  1  2  0  0  0  0
  5  4  1  0  0  0  0
  6 11  1  6  0  0  0
  6  5  1  0  0  0  0
  6 16  1  0  0  0  0
  6  7  1  0  0  0  0
  7  8  2  0  0  0  0
  8  1  1  0  0  0  0
  8 13  1  0  0  0  0
 10  5  1  0  0  0  0
 12  7  1  0  0  0  0
 15 16  1  0  0  0  0
 15 14  2  0  0  0  0
 17 19  1  0  0  0  0
 17 15  1  0  0  0  0
 18 17  1  0  0  0  0
 20 17  1  0  0  0  0
M  RAD  3   2   2   3   3   5   2
M  END
