Coordinates from ORCA-job PhN2+~CF3COO-_B3LYPG-6-31G_dp-NX-Scan-d89-09-n800
 OpenBabel11261920123D

 20 20  0  0  1  0  0  0  0  0999 V2000
   -5.1237   -1.6334    1.5125 C   0  0  1  0  0  0  0  0  0  0  0  0
   -5.5734   -1.6821    2.7459 N   0  0  0  0  0  0  0  0  0  0  0  0
   -5.9644   -1.6792    3.8170 N   0  0  0  0  0  0  0  0  0  0  0  0
   -5.9545   -1.0599    0.4740 C   0  0  0  0  0  0  0  0  0  0  0  0
   -5.3826   -0.7167   -0.6963 C   0  0  0  0  0  0  0  0  0  0  0  0
   -3.8906   -0.7080   -0.8153 C   0  0  2  0  0  0  0  0  0  0  0  0
   -3.2389   -1.7636    0.0198 C   0  0  0  0  0  0  0  0  0  0  0  0
   -3.7937   -2.1155    1.1957 C   0  0  0  0  0  0  0  0  0  0  0  0
   -7.0204   -0.9525    0.6502 H   0  0  0  0  0  0  0  0  0  0  0  0
   -5.9762   -0.3378   -1.5191 H   0  0  0  0  0  0  0  0  0  0  0  0
   -3.5429   -0.7111   -1.8480 H   0  0  0  0  0  0  0  0  0  0  0  0
   -2.2673   -2.1417   -0.2764 H   0  0  0  0  0  0  0  0  0  0  0  0
   -3.2907   -2.7737    1.8976 H   0  0  0  0  0  0  0  0  0  0  0  0
   -3.7881    2.7481    0.1171 O   0  0  0  0  0  0  0  0  0  0  0  0
   -3.6561    1.8036   -0.6190 C   0  0  0  0  0  0  0  0  0  0  0  0
   -3.3858    0.5790   -0.1721 O   0  0  0  0  0  0  0  0  0  0  0  0
   -3.7016    1.9983   -2.1588 C   0  0  0  0  0  0  0  0  0  0  0  0
   -2.6588    1.3733   -2.7495 F   0  0  0  0  0  0  0  0  0  0  0  0
   -4.8354    1.4762   -2.6867 F   0  0  0  0  0  0  0  0  0  0  0  0
   -3.6549    3.2900   -2.4766 F   0  0  0  0  0  0  0  0  0  0  0  0
  1  2  1  1  0  0  0
  2  3  1  0  0  0  0
  4  9  1  0  0  0  0
  4  1  1  0  0  0  0
  5  4  2  0  0  0  0
  6 11  1  6  0  0  0
  6  5  1  0  0  0  0
  6 16  1  0  0  0  0
  6  7  1  0  0  0  0
  7  8  2  0  0  0  0
  8  1  1  0  0  0  0
  8 13  1  0  0  0  0
 10  5  1  0  0  0  0
 12  7  1  0  0  0  0
 15 16  1  0  0  0  0
 15 14  2  0  0  0  0
 17 15  1  0  0  0  0
 18 17  1  0  0  0  0
 19 17  1  0  0  0  0
 20 17  1  0  0  0  0
M  RAD  3   1   2   2   2   3   3
M  END
