Coordinates from ORCA-job PhN2+~CF3COO-_B3LYPG-6-31G_dp-NX-Scan-d89-09-n800
 OpenBabel11261920123D

 20 20  0  0  1  0  0  0  0  0999 V2000
   -4.9986   -1.4593    1.3651 C   0  0  1  0  0  0  0  0  0  0  0  0
   -5.3740   -0.6638    2.3433 N   0  0  0  0  0  0  0  0  0  0  0  0
   -5.6664    0.1090    3.1219 N   0  0  0  0  0  0  0  0  0  0  0  0
   -5.9038   -1.6015    0.2390 C   0  0  0  0  0  0  0  0  0  0  0  0
   -5.3899   -1.6169   -1.0054 C   0  0  0  0  0  0  0  0  0  0  0  0
   -3.9456   -1.3088   -1.2198 C   0  0  2  0  0  0  0  0  0  0  0  0
   -3.0747   -1.6794   -0.0662 C   0  0  0  0  0  0  0  0  0  0  0  0
   -3.5724   -1.6633    1.1848 C   0  0  0  0  0  0  0  0  0  0  0  0
   -6.9708   -1.6859    0.4250 H   0  0  0  0  0  0  0  0  0  0  0  0
   -6.0223   -1.7708   -1.8736 H   0  0  0  0  0  0  0  0  0  0  0  0
   -3.5745   -1.7125   -2.1617 H   0  0  0  0  0  0  0  0  0  0  0  0
   -2.0247   -1.8798   -0.2521 H   0  0  0  0  0  0  0  0  0  0  0  0
   -2.9415   -1.7924    2.0593 H   0  0  0  0  0  0  0  0  0  0  0  0
   -4.5531    1.0800    0.4390 O   0  0  0  0  0  0  0  0  0  0  0  0
   -4.0949    1.1464   -0.6797 C   0  0  0  0  0  0  0  0  0  0  0  0
   -3.7733    0.1894   -1.5426 O   0  0  0  0  0  0  0  0  0  0  0  0
   -3.7791    2.5144   -1.3386 C   0  0  0  0  0  0  0  0  0  0  0  0
   -2.4642    2.6136   -1.6133 F   0  0  0  0  0  0  0  0  0  0  0  0
   -4.4600    2.6580   -2.4912 F   0  0  0  0  0  0  0  0  0  0  0  0
   -4.1161    3.5167   -0.5212 F   0  0  0  0  0  0  0  0  0  0  0  0
  1  2  1  6  0  0  0
  2  3  1  0  0  0  0
  4  9  1  0  0  0  0
  4  1  1  0  0  0  0
  5  4  2  0  0  0  0
  6 11  1  6  0  0  0
  6  5  1  0  0  0  0
  6  7  1  0  0  0  0
  7  8  2  0  0  0  0
  8  1  1  0  0  0  0
  8 13  1  0  0  0  0
 10  5  1  0  0  0  0
 12  7  1  0  0  0  0
 15 14  2  0  0  0  0
 16  6  1  0  0  0  0
 16 15  1  0  0  0  0
 17 15  1  0  0  0  0
 17 20  1  0  0  0  0
 18 17  1  0  0  0  0
 19 17  1  0  0  0  0
M  RAD  3   1   2   2   2   3   3
M  END
