Coordinates from ORCA-job PhN2+~CF3COO-_B3LYPG-6-31G_dp-NX-Scan-d89-09-n800
 OpenBabel11261920123D

 20 20  0  0  1  0  0  0  0  0999 V2000
   -5.2039   -1.8462    1.5760 C   0  0  0  0  0  0  0  0  0  0  0  0
   -5.7228   -2.3629    2.6669 N   0  0  0  0  0  0  0  0  0  0  0  0
   -6.1734   -2.7970    3.6219 N   0  0  0  0  0  0  0  0  0  0  0  0
   -6.0443   -1.1078    0.6582 C   0  0  0  0  0  0  0  0  0  0  0  0
   -5.4954   -0.5035   -0.4125 C   0  0  0  0  0  0  0  0  0  0  0  0
   -4.0163   -0.4513   -0.6213 C   0  0  2  0  0  0  0  0  0  0  0  0
   -3.2545   -1.4321    0.2096 C   0  0  0  0  0  0  0  0  0  0  0  0
   -3.8006   -2.0399    1.2793 C   0  0  0  0  0  0  0  0  0  0  0  0
   -7.1148   -1.0797    0.8376 H   0  0  0  0  0  0  0  0  0  0  0  0
   -6.1198    0.0265   -1.1228 H   0  0  0  0  0  0  0  0  0  0  0  0
   -3.7434   -0.5264   -1.6735 H   0  0  0  0  0  0  0  0  0  0  0  0
   -2.2103   -1.5918   -0.0371 H   0  0  0  0  0  0  0  0  0  0  0  0
   -3.2182   -2.7005    1.9142 H   0  0  0  0  0  0  0  0  0  0  0  0
   -3.1822    3.0828   -0.3850 O   0  0  0  0  0  0  0  0  0  0  0  0
   -3.4231    2.0082   -0.8737 C   0  0  0  0  0  0  0  0  0  0  0  0
   -3.5369    0.9054   -0.1370 O   0  0  0  0  0  0  0  0  0  0  0  0
   -3.5748    1.8878   -2.4144 C   0  0  0  0  0  0  0  0  0  0  0  0
   -2.6576    1.0304   -2.9218 F   0  0  0  0  0  0  0  0  0  0  0  0
   -4.8005    1.4208   -2.7549 F   0  0  0  0  0  0  0  0  0  0  0  0
   -3.4072    3.0704   -2.9979 F   0  0  0  0  0  0  0  0  0  0  0  0
  1  2  1  0  0  0  0
  2  3  1  0  0  0  0
  4  9  1  0  0  0  0
  4  1  2  0  0  0  0
  5  4  1  0  0  0  0
  6 11  1  6  0  0  0
  6  5  1  0  0  0  0
  6 16  1  0  0  0  0
  6  7  1  0  0  0  0
  7  8  2  0  0  0  0
  8  1  1  0  0  0  0
  8 13  1  0  0  0  0
 10  5  1  0  0  0  0
 12  7  1  0  0  0  0
 15 14  2  0  0  0  0
 15 16  1  0  0  0  0
 17 15  1  0  0  0  0
 18 17  1  0  0  0  0
 19 17  1  0  0  0  0
 20 17  1  0  0  0  0
M  RAD  3   2   2   3   3   5   2
M  END
