Coordinates from ORCA-job PhN2+~CF3COO-_B3LYPG-6-31G_dp-NX-Scan-d89-09-n800
 OpenBabel11261920123D

 20 20  0  0  1  0  0  0  0  0999 V2000
   -5.1705   -1.7560    1.5551 C   0  0  0  0  0  0  0  0  0  0  0  0
   -5.6642   -2.0608    2.7340 N   0  0  0  0  0  0  0  0  0  0  0  0
   -6.0933   -2.2963    3.7648 N   0  0  0  0  0  0  0  0  0  0  0  0
   -6.0082   -1.0972    0.5760 C   0  0  0  0  0  0  0  0  0  0  0  0
   -5.4502   -0.6108   -0.5491 C   0  0  0  0  0  0  0  0  0  0  0  0
   -3.9649   -0.5700   -0.7156 C   0  0  2  0  0  0  0  0  0  0  0  0
   -3.2465   -1.5880    0.1092 C   0  0  0  0  0  0  0  0  0  0  0  0
   -3.7955   -2.0796    1.2363 C   0  0  0  0  0  0  0  0  0  0  0  0
   -7.0772   -1.0370    0.7562 H   0  0  0  0  0  0  0  0  0  0  0  0
   -6.0628   -0.1495   -1.3147 H   0  0  0  0  0  0  0  0  0  0  0  0
   -3.6558   -0.5978   -1.7597 H   0  0  0  0  0  0  0  0  0  0  0  0
   -2.2305   -1.8457   -0.1680 H   0  0  0  0  0  0  0  0  0  0  0  0
   -3.2448   -2.7396    1.8996 H   0  0  0  0  0  0  0  0  0  0  0  0
   -3.4563    2.9754   -0.1529 O   0  0  0  0  0  0  0  0  0  0  0  0
   -3.5308    1.9344   -0.7553 C   0  0  0  0  0  0  0  0  0  0  0  0
   -3.4823    0.7550   -0.1418 O   0  0  0  0  0  0  0  0  0  0  0  0
   -3.6201    1.9451   -2.3049 C   0  0  0  0  0  0  0  0  0  0  0  0
   -2.6416    1.1837   -2.8470 F   0  0  0  0  0  0  0  0  0  0  0  0
   -4.8053    1.4456   -2.7330 F   0  0  0  0  0  0  0  0  0  0  0  0
   -3.4992    3.1822   -2.7773 F   0  0  0  0  0  0  0  0  0  0  0  0
  1  2  1  0  0  0  0
  2  3  1  0  0  0  0
  4  9  1  0  0  0  0
  4  1  2  0  0  0  0
  5  4  1  0  0  0  0
  6 11  1  6  0  0  0
  6  5  1  0  0  0  0
  6 16  1  0  0  0  0
  6  7  1  0  0  0  0
  7  8  2  0  0  0  0
  8  1  1  0  0  0  0
  8 13  1  0  0  0  0
 10  5  1  0  0  0  0
 12  7  1  0  0  0  0
 15 14  2  0  0  0  0
 15 16  1  0  0  0  0
 17 15  1  0  0  0  0
 18 17  1  0  0  0  0
 19 17  1  0  0  0  0
 20 17  1  0  0  0  0
M  RAD  3   2   2   3   3   5   2
M  END
