Coordinates from ORCA-job PhN2+~CF3COO-_B3LYPG-6-31G_dp-NX-Scan-d89-09-n800
 OpenBabel11261920123D

 20 20  0  0  1  0  0  0  0  0999 V2000
   -5.1172   -1.6170    1.5061 C   0  0  1  0  0  0  0  0  0  0  0  0
   -5.5597   -1.6308    2.7433 N   0  0  0  0  0  0  0  0  0  0  0  0
   -5.9445   -1.5958    3.8163 N   0  0  0  0  0  0  0  0  0  0  0  0
   -5.9470   -1.0551    0.4598 C   0  0  0  0  0  0  0  0  0  0  0  0
   -5.3731   -0.7312   -0.7152 C   0  0  0  0  0  0  0  0  0  0  0  0
   -3.8802   -0.7268   -0.8280 C   0  0  2  0  0  0  0  0  0  0  0  0
   -3.2382   -1.7859    0.0107 C   0  0  0  0  0  0  0  0  0  0  0  0
   -3.7938   -2.1191    1.1920 C   0  0  0  0  0  0  0  0  0  0  0  0
   -7.0125   -0.9415    0.6348 H   0  0  0  0  0  0  0  0  0  0  0  0
   -5.9640   -0.3644   -1.5452 H   0  0  0  0  0  0  0  0  0  0  0  0
   -3.5274   -0.7296   -1.8591 H   0  0  0  0  0  0  0  0  0  0  0  0
   -2.2728   -2.1791   -0.2860 H   0  0  0  0  0  0  0  0  0  0  0  0
   -3.2972   -2.7758    1.8998 H   0  0  0  0  0  0  0  0  0  0  0  0
   -3.8309    2.7099    0.1514 O   0  0  0  0  0  0  0  0  0  0  0  0
   -3.6729    1.7833   -0.6022 C   0  0  0  0  0  0  0  0  0  0  0  0
   -3.3711    0.5567   -0.1799 O   0  0  0  0  0  0  0  0  0  0  0  0
   -3.7141    2.0062   -2.1384 C   0  0  0  0  0  0  0  0  0  0  0  0
   -2.6669    1.3966   -2.7367 F   0  0  0  0  0  0  0  0  0  0  0  0
   -4.8437    1.4885   -2.6791 F   0  0  0  0  0  0  0  0  0  0  0  0
   -3.6725    3.3039   -2.4324 F   0  0  0  0  0  0  0  0  0  0  0  0
  1  2  1  1  0  0  0
  2  3  1  0  0  0  0
  4  9  1  0  0  0  0
  4  1  1  0  0  0  0
  5  4  2  0  0  0  0
  6 11  1  6  0  0  0
  6  5  1  0  0  0  0
  6 16  1  0  0  0  0
  6  7  1  0  0  0  0
  7  8  2  0  0  0  0
  8  1  1  0  0  0  0
  8 13  1  0  0  0  0
 10  5  1  0  0  0  0
 12  7  1  0  0  0  0
 15 16  1  0  0  0  0
 15 14  2  0  0  0  0
 17 15  1  0  0  0  0
 18 17  1  0  0  0  0
 19 17  1  0  0  0  0
 20 17  1  0  0  0  0
M  RAD  3   1   2   2   2   3   3
M  END
