Coordinates from ORCA-job PhN2+~CF3COO-_B3LYPG-6-31G_dp-NX-Scan-d89-09-n800
 OpenBabel11261920123D

 20 20  0  0  1  0  0  0  0  0999 V2000
   -5.1321   -1.6569    1.5217 C   0  0  1  0  0  0  0  0  0  0  0  0
   -5.5888   -1.7496    2.7503 N   0  0  0  0  0  0  0  0  0  0  0  0
   -5.9856   -1.7876    3.8190 N   0  0  0  0  0  0  0  0  0  0  0  0
   -5.9660   -1.0700    0.4933 C   0  0  0  0  0  0  0  0  0  0  0  0
   -5.3979   -0.7007   -0.6711 C   0  0  0  0  0  0  0  0  0  0  0  0
   -3.9068   -0.6828   -0.7988 C   0  0  2  0  0  0  0  0  0  0  0  0
   -3.2413   -1.7333    0.0314 C   0  0  0  0  0  0  0  0  0  0  0  0
   -3.7935   -2.1106    1.2007 C   0  0  0  0  0  0  0  0  0  0  0  0
   -7.0326   -0.9727    0.6716 H   0  0  0  0  0  0  0  0  0  0  0  0
   -5.9959   -0.3079   -1.4841 H   0  0  0  0  0  0  0  0  0  0  0  0
   -3.5658   -0.6857   -1.8335 H   0  0  0  0  0  0  0  0  0  0  0  0
   -2.2613   -2.0897   -0.2641 H   0  0  0  0  0  0  0  0  0  0  0  0
   -3.2804   -2.7694    1.8946 H   0  0  0  0  0  0  0  0  0  0  0  0
   -3.7350    2.7983    0.0695 O   0  0  0  0  0  0  0  0  0  0  0  0
   -3.6378    1.8309   -0.6421 C   0  0  0  0  0  0  0  0  0  0  0  0
   -3.4089    0.6103   -0.1630 O   0  0  0  0  0  0  0  0  0  0  0  0
   -3.6819    1.9898   -2.1860 C   0  0  0  0  0  0  0  0  0  0  0  0
   -2.6469    1.3383   -2.7625 F   0  0  0  0  0  0  0  0  0  0  0  0
   -4.8225    1.4697   -2.7013 F   0  0  0  0  0  0  0  0  0  0  0  0
   -3.6191    3.2726   -2.5338 F   0  0  0  0  0  0  0  0  0  0  0  0
  1  2  1  1  0  0  0
  2  3  1  0  0  0  0
  4  9  1  0  0  0  0
  4  1  1  0  0  0  0
  5  4  2  0  0  0  0
  6 11  1  6  0  0  0
  6  5  1  0  0  0  0
  6 16  1  0  0  0  0
  6  7  1  0  0  0  0
  7  8  2  0  0  0  0
  8  1  1  0  0  0  0
  8 13  1  0  0  0  0
 10  5  1  0  0  0  0
 12  7  1  0  0  0  0
 15 16  1  0  0  0  0
 15 14  2  0  0  0  0
 17 15  1  0  0  0  0
 18 17  1  0  0  0  0
 19 17  1  0  0  0  0
 20 17  1  0  0  0  0
M  RAD  3   1   2   2   2   3   3
M  END
