Coordinates from ORCA-job PhN2+~CF3COO-_B3LYPG-6-31G_dp-NX-Scan-d89-09-n800
 OpenBabel11261920123D

 20 20  0  0  1  0  0  0  0  0999 V2000
   -4.9995   -1.4548    1.3669 C   0  0  1  0  0  0  0  0  0  0  0  0
   -5.3842   -0.6911    2.3659 N   0  0  0  0  0  0  0  0  0  0  0  0
   -5.6902    0.0447    3.1752 N   0  0  0  0  0  0  0  0  0  0  0  0
   -5.9043   -1.5930    0.2409 C   0  0  0  0  0  0  0  0  0  0  0  0
   -5.3908   -1.6087   -1.0037 C   0  0  0  0  0  0  0  0  0  0  0  0
   -3.9457   -1.3056   -1.2201 C   0  0  2  0  0  0  0  0  0  0  0  0
   -3.0752   -1.6705   -0.0643 C   0  0  0  0  0  0  0  0  0  0  0  0
   -3.5733   -1.6539    1.1865 C   0  0  0  0  0  0  0  0  0  0  0  0
   -6.9713   -1.6766    0.4269 H   0  0  0  0  0  0  0  0  0  0  0  0
   -6.0244   -1.7596   -1.8715 H   0  0  0  0  0  0  0  0  0  0  0  0
   -3.5757   -1.7168   -2.1593 H   0  0  0  0  0  0  0  0  0  0  0  0
   -2.0242   -1.8672   -0.2489 H   0  0  0  0  0  0  0  0  0  0  0  0
   -2.9423   -1.7816    2.0612 H   0  0  0  0  0  0  0  0  0  0  0  0
   -4.5468    1.0842    0.4271 O   0  0  0  0  0  0  0  0  0  0  0  0
   -4.0901    1.1491   -0.6921 C   0  0  0  0  0  0  0  0  0  0  0  0
   -3.7700    0.1894   -1.5527 O   0  0  0  0  0  0  0  0  0  0  0  0
   -3.7726    2.5154   -1.3534 C   0  0  0  0  0  0  0  0  0  0  0  0
   -2.4577    2.6122   -1.6290 F   0  0  0  0  0  0  0  0  0  0  0  0
   -4.4539    2.6581   -2.5060 F   0  0  0  0  0  0  0  0  0  0  0  0
   -4.1078    3.5195   -0.5374 F   0  0  0  0  0  0  0  0  0  0  0  0
  1  2  1  6  0  0  0
  2  3  1  0  0  0  0
  4  9  1  0  0  0  0
  4  1  1  0  0  0  0
  5  4  2  0  0  0  0
  6 11  1  6  0  0  0
  6  5  1  0  0  0  0
  6  7  1  0  0  0  0
  7  8  2  0  0  0  0
  8  1  1  0  0  0  0
  8 13  1  0  0  0  0
 10  5  1  0  0  0  0
 12  7  1  0  0  0  0
 15 14  2  0  0  0  0
 16  6  1  0  0  0  0
 16 15  1  0  0  0  0
 17 15  1  0  0  0  0
 17 20  1  0  0  0  0
 18 17  1  0  0  0  0
 19 17  1  0  0  0  0
M  RAD  3   1   2   2   2   3   3
M  END
