Coordinates from ORCA-job PhN2+~CF3COO-_B3LYPG-6-31G_dp-NX-Scan-d89-09-n800
 OpenBabel11261920123D

 20 20  0  0  1  0  0  0  0  0999 V2000
   -5.1721   -1.7595    1.5562 C   0  0  0  0  0  0  0  0  0  0  0  0
   -5.6683   -2.0744    2.7313 N   0  0  0  0  0  0  0  0  0  0  0  0
   -6.0994   -2.3193    3.7589 N   0  0  0  0  0  0  0  0  0  0  0  0
   -6.0091   -1.0965    0.5794 C   0  0  0  0  0  0  0  0  0  0  0  0
   -5.4508   -0.6055   -0.5434 C   0  0  0  0  0  0  0  0  0  0  0  0
   -3.9657   -0.5655   -0.7114 C   0  0  2  0  0  0  0  0  0  0  0  0
   -3.2461   -1.5820    0.1141 C   0  0  0  0  0  0  0  0  0  0  0  0
   -3.7958   -2.0781    1.2388 C   0  0  0  0  0  0  0  0  0  0  0  0
   -7.0781   -1.0370    0.7592 H   0  0  0  0  0  0  0  0  0  0  0  0
   -6.0634   -0.1408   -1.3070 H   0  0  0  0  0  0  0  0  0  0  0  0
   -3.6580   -0.5959   -1.7558 H   0  0  0  0  0  0  0  0  0  0  0  0
   -2.2288   -1.8361   -0.1616 H   0  0  0  0  0  0  0  0  0  0  0  0
   -3.2443   -2.7386    1.9009 H   0  0  0  0  0  0  0  0  0  0  0  0
   -3.4439    2.9807   -0.1628 O   0  0  0  0  0  0  0  0  0  0  0  0
   -3.5246    1.9377   -0.7606 C   0  0  0  0  0  0  0  0  0  0  0  0
   -3.4824    0.7609   -0.1418 O   0  0  0  0  0  0  0  0  0  0  0  0
   -3.6195    1.9429   -2.3100 C   0  0  0  0  0  0  0  0  0  0  0  0
   -2.6437    1.1786   -2.8530 F   0  0  0  0  0  0  0  0  0  0  0  0
   -4.8069    1.4432   -2.7321 F   0  0  0  0  0  0  0  0  0  0  0  0
   -3.4990    3.1782   -2.7871 F   0  0  0  0  0  0  0  0  0  0  0  0
  1  2  1  0  0  0  0
  2  3  1  0  0  0  0
  4  9  1  0  0  0  0
  4  1  2  0  0  0  0
  5  4  1  0  0  0  0
  6 11  1  6  0  0  0
  6  5  1  0  0  0  0
  6 16  1  0  0  0  0
  6  7  1  0  0  0  0
  7  8  2  0  0  0  0
  8  1  1  0  0  0  0
  8 13  1  0  0  0  0
 10  5  1  0  0  0  0
 12  7  1  0  0  0  0
 15 14  2  0  0  0  0
 15 16  1  0  0  0  0
 17 15  1  0  0  0  0
 18 17  1  0  0  0  0
 19 17  1  0  0  0  0
 20 17  1  0  0  0  0
M  RAD  3   2   2   3   3   5   2
M  END
