Coordinates from ORCA-job PhN2+~CF3COO-_B3LYPG-6-31G_dp-NX-Scan-d89-09-n800
 OpenBabel11261920123D

 20 20  0  0  0  0  0  0  0  0999 V2000
   -3.8292   -1.1077    0.2178 C   0  0  0  0  0  0  0  0  0  0  0  0
   -3.4638    0.1340    0.8147 N   0  0  0  0  0  0  0  0  0  0  0  0
   -3.9178    1.2610    0.5085 N   0  0  0  0  0  0  0  0  0  0  0  0
   -4.6849   -1.3830   -0.8730 C   0  0  0  0  0  0  0  0  0  0  0  0
   -4.8728   -2.7021   -1.2842 C   0  0  0  0  0  0  0  0  0  0  0  0
   -4.2331   -3.7586   -0.6333 C   0  0  0  0  0  0  0  0  0  0  0  0
   -3.3857   -3.4959    0.4454 C   0  0  0  0  0  0  0  0  0  0  0  0
   -3.1856   -2.1843    0.8599 C   0  0  0  0  0  0  0  0  0  0  0  0
   -5.1970   -0.5938   -1.4005 H   0  0  0  0  0  0  0  0  0  0  0  0
   -5.5294   -2.9032   -2.1258 H   0  0  0  0  0  0  0  0  0  0  0  0
   -4.3937   -4.7797   -0.9666 H   0  0  0  0  0  0  0  0  0  0  0  0
   -2.8818   -4.3092    0.9582 H   0  0  0  0  0  0  0  0  0  0  0  0
   -2.5292   -1.9497    1.6913 H   0  0  0  0  0  0  0  0  0  0  0  0
   -4.7518    1.3062   -0.3813 O   0  0  0  0  0  0  0  0  0  0  0  0
   -5.2647    2.5541   -0.7231 C   0  0  0  0  0  0  0  0  0  0  0  0
   -6.0785    2.6262   -1.5910 O   0  0  0  0  0  0  0  0  0  0  0  0
   -4.7320    3.7876    0.0611 C   0  0  0  0  0  0  0  0  0  0  0  0
   -3.4138    3.9372   -0.1160 F   0  0  0  0  0  0  0  0  0  0  0  0
   -5.3504    4.8706   -0.4172 F   0  0  0  0  0  0  0  0  0  0  0  0
   -5.0046    3.6833    1.3672 F   0  0  0  0  0  0  0  0  0  0  0  0
  1  2  1  0  0  0  0
  1  8  2  0  0  0  0
  3  2  2  0  0  0  0
  4  1  1  0  0  0  0
  5  4  2  0  0  0  0
  5  6  1  0  0  0  0
  6  7  2  0  0  0  0
  7  8  1  0  0  0  0
  7 12  1  0  0  0  0
  8 13  1  0  0  0  0
  9  4  1  0  0  0  0
 10  5  1  0  0  0  0
 11  6  1  0  0  0  0
 14  3  1  0  0  0  0
 15 14  1  0  0  0  0
 15 17  1  0  0  0  0
 16 15  2  0  0  0  0
 17 20  1  0  0  0  0
 18 17  1  0  0  0  0
 19 17  1  0  0  0  0
M  END
