Coordinates from ORCA-job PhN2+~CF3COO-_B3LYPG-6-31G_dp-NX-Scan-d89-09-n800
 OpenBabel11261920123D

 20 20  0  0  1  0  0  0  0  0999 V2000
   -5.1162   -1.6143    1.5050 C   0  0  1  0  0  0  0  0  0  0  0  0
   -5.5579   -1.6230    2.7426 N   0  0  0  0  0  0  0  0  0  0  0  0
   -5.9420   -1.5833    3.8156 N   0  0  0  0  0  0  0  0  0  0  0  0
   -5.9457   -1.0540    0.4575 C   0  0  0  0  0  0  0  0  0  0  0  0
   -5.3713   -0.7332   -0.7182 C   0  0  0  0  0  0  0  0  0  0  0  0
   -3.8782   -0.7297   -0.8299 C   0  0  2  0  0  0  0  0  0  0  0  0
   -3.2379   -1.7893    0.0096 C   0  0  0  0  0  0  0  0  0  0  0  0
   -3.7938   -2.1195    1.1915 C   0  0  0  0  0  0  0  0  0  0  0  0
   -7.0111   -0.9393    0.6322 H   0  0  0  0  0  0  0  0  0  0  0  0
   -5.9616   -0.3681   -1.5492 H   0  0  0  0  0  0  0  0  0  0  0  0
   -3.5246   -0.7328   -1.8607 H   0  0  0  0  0  0  0  0  0  0  0  0
   -2.2735   -2.1849   -0.2870 H   0  0  0  0  0  0  0  0  0  0  0  0
   -3.2984   -2.7760    1.9004 H   0  0  0  0  0  0  0  0  0  0  0  0
   -3.8369    2.7036    0.1567 O   0  0  0  0  0  0  0  0  0  0  0  0
   -3.6750    1.7800   -0.5996 C   0  0  0  0  0  0  0  0  0  0  0  0
   -3.3683    0.5532   -0.1813 O   0  0  0  0  0  0  0  0  0  0  0  0
   -3.7165    2.0072   -2.1352 C   0  0  0  0  0  0  0  0  0  0  0  0
   -2.6692    1.3999   -2.7355 F   0  0  0  0  0  0  0  0  0  0  0  0
   -4.8460    1.4906   -2.6771 F   0  0  0  0  0  0  0  0  0  0  0  0
   -3.6758    3.3058   -2.4255 F   0  0  0  0  0  0  0  0  0  0  0  0
  1  2  1  1  0  0  0
  2  3  1  0  0  0  0
  4  9  1  0  0  0  0
  4  1  1  0  0  0  0
  5  4  2  0  0  0  0
  6 11  1  6  0  0  0
  6  5  1  0  0  0  0
  6 16  1  0  0  0  0
  6  7  1  0  0  0  0
  7  8  2  0  0  0  0
  8  1  1  0  0  0  0
  8 13  1  0  0  0  0
 10  5  1  0  0  0  0
 12  7  1  0  0  0  0
 15 16  1  0  0  0  0
 15 14  2  0  0  0  0
 17 15  1  0  0  0  0
 18 17  1  0  0  0  0
 19 17  1  0  0  0  0
 20 17  1  0  0  0  0
M  RAD  3   1   2   2   2   3   3
M  END
