Coordinates from ORCA-job PhN2+~CF3COO-_B3LYPG-6-31G_dp-NX-Scan-d89-09-n800
 OpenBabel11261920123D

 20 20  0  0  1  0  0  0  0  0999 V2000
   -5.1491   -1.7001    1.5367 C   0  0  0  0  0  0  0  0  0  0  0  0
   -5.6238   -1.8841    2.7478 N   0  0  0  0  0  0  0  0  0  0  0  0
   -6.0363   -2.0069    3.8041 N   0  0  0  0  0  0  0  0  0  0  0  0
   -5.9845   -1.0833    0.5281 C   0  0  0  0  0  0  0  0  0  0  0  0
   -5.4203   -0.6636   -0.6207 C   0  0  0  0  0  0  0  0  0  0  0  0
   -3.9316   -0.6344   -0.7637 C   0  0  2  0  0  0  0  0  0  0  0  0
   -3.2424   -1.6717    0.0627 C   0  0  0  0  0  0  0  0  0  0  0  0
   -3.7937   -2.0980    1.2152 C   0  0  0  0  0  0  0  0  0  0  0  0
   -7.0523   -1.0030    0.7070 H   0  0  0  0  0  0  0  0  0  0  0  0
   -6.0245   -0.2415   -1.4146 H   0  0  0  0  0  0  0  0  0  0  0  0
   -3.6032   -0.6446   -1.8021 H   0  0  0  0  0  0  0  0  0  0  0  0
   -2.2460   -1.9859   -0.2262 H   0  0  0  0  0  0  0  0  0  0  0  0
   -3.2641   -2.7578    1.8957 H   0  0  0  0  0  0  0  0  0  0  0  0
   -3.6119    2.8836   -0.0245 O   0  0  0  0  0  0  0  0  0  0  0  0
   -3.5901    1.8790   -0.6894 C   0  0  0  0  0  0  0  0  0  0  0  0
   -3.4430    0.6719   -0.1501 O   0  0  0  0  0  0  0  0  0  0  0  0
   -3.6550    1.9709   -2.2378 C   0  0  0  0  0  0  0  0  0  0  0  0
   -2.6459    1.2687   -2.8019 F   0  0  0  0  0  0  0  0  0  0  0  0
   -4.8172    1.4592   -2.7122 F   0  0  0  0  0  0  0  0  0  0  0  0
   -3.5650    3.2349   -2.6422 F   0  0  0  0  0  0  0  0  0  0  0  0
  1  2  1  0  0  0  0
  2  3  1  0  0  0  0
  4  9  1  0  0  0  0
  4  1  2  0  0  0  0
  5  4  1  0  0  0  0
  6 11  1  6  0  0  0
  6  5  1  0  0  0  0
  6 16  1  0  0  0  0
  6  7  1  0  0  0  0
  7  8  2  0  0  0  0
  8  1  1  0  0  0  0
  8 13  1  0  0  0  0
 10  5  1  0  0  0  0
 12  7  1  0  0  0  0
 15 16  1  0  0  0  0
 15 14  2  0  0  0  0
 17 15  1  0  0  0  0
 18 17  1  0  0  0  0
 19 17  1  0  0  0  0
 20 17  1  0  0  0  0
M  RAD  3   2   2   3   3   5   2
M  END
