Coordinates from ORCA-job PhN2+~CF3COO-_B3LYPG-6-31G_dp-NX-Scan-d89-09-n800
 OpenBabel11261920123D

 20 20  0  0  0  0  0  0  0  0999 V2000
   -3.8294   -1.1410    0.2386 C   0  0  0  0  0  0  0  0  0  0  0  0
   -3.5046    0.1085    0.8153 N   0  0  0  0  0  0  0  0  0  0  0  0
   -3.8629    1.2462    0.6011 N   0  0  0  0  0  0  0  0  0  0  0  0
   -4.6953   -1.3990   -0.8453 C   0  0  0  0  0  0  0  0  0  0  0  0
   -4.8739   -2.7146   -1.2660 C   0  0  0  0  0  0  0  0  0  0  0  0
   -4.2137   -3.7698   -0.6304 C   0  0  0  0  0  0  0  0  0  0  0  0
   -3.3568   -3.5151    0.4427 C   0  0  0  0  0  0  0  0  0  0  0  0
   -3.1645   -2.2070    0.8724 C   0  0  0  0  0  0  0  0  0  0  0  0
   -5.2109   -0.5930   -1.3424 H   0  0  0  0  0  0  0  0  0  0  0  0
   -5.5375   -2.9160   -2.1014 H   0  0  0  0  0  0  0  0  0  0  0  0
   -4.3675   -4.7887   -0.9730 H   0  0  0  0  0  0  0  0  0  0  0  0
   -2.8417   -4.3306    0.9398 H   0  0  0  0  0  0  0  0  0  0  0  0
   -2.5042   -1.9757    1.7014 H   0  0  0  0  0  0  0  0  0  0  0  0
   -4.8656    1.3548   -0.5103 O   0  0  0  0  0  0  0  0  0  0  0  0
   -5.3022    2.6014   -0.7861 C   0  0  0  0  0  0  0  0  0  0  0  0
   -6.1090    2.7886   -1.6573 O   0  0  0  0  0  0  0  0  0  0  0  0
   -4.7365    3.7866    0.0465 C   0  0  0  0  0  0  0  0  0  0  0  0
   -3.4048    3.8898   -0.0991 F   0  0  0  0  0  0  0  0  0  0  0  0
   -5.2935    4.9212   -0.3856 F   0  0  0  0  0  0  0  0  0  0  0  0
   -5.0251    3.6464    1.3511 F   0  0  0  0  0  0  0  0  0  0  0  0
  1  2  1  0  0  0  0
  1  8  2  0  0  0  0
  3  2  1  0  0  0  0
  4  1  1  0  0  0  0
  5  4  2  0  0  0  0
  5  6  1  0  0  0  0
  6  7  2  0  0  0  0
  7  8  1  0  0  0  0
  7 12  1  0  0  0  0
  8 13  1  0  0  0  0
  9  4  1  0  0  0  0
 10  5  1  0  0  0  0
 11  6  1  0  0  0  0
 14  3  1  0  0  0  0
 15 14  1  0  0  0  0
 15 17  1  0  0  0  0
 16 15  2  0  0  0  0
 17 20  1  0  0  0  0
 18 17  1  0  0  0  0
 19 17  1  0  0  0  0
M  RAD  2   2   2   3   2
M  END
