Coordinates from ORCA-job PhN2+~CF3COO-_B3LYPG-6-31G_dp-NX-Scan-d89-09-n800
 OpenBabel11261920123D

 20 20  0  0  1  0  0  0  0  0999 V2000
   -5.0420   -1.4647    1.4739 C   0  0  0  0  0  0  0  0  0  0  0  0
   -5.5315   -1.3611    2.6883 N   0  0  0  0  0  0  0  0  0  0  0  0
   -5.9558   -1.2576    3.7426 N   0  0  0  0  0  0  0  0  0  0  0  0
   -5.9355   -1.4735    0.3369 C   0  0  0  0  0  0  0  0  0  0  0  0
   -5.4274   -1.4003   -0.9075 C   0  0  0  0  0  0  0  0  0  0  0  0
   -3.9679   -1.1940   -1.1529 C   0  0  2  0  0  0  0  0  0  0  0  0
   -3.1044   -1.4691    0.0351 C   0  0  0  0  0  0  0  0  0  0  0  0
   -3.6110   -1.5418    1.2801 C   0  0  0  0  0  0  0  0  0  0  0  0
   -7.0035   -1.5638    0.5109 H   0  0  0  0  0  0  0  0  0  0  0  0
   -6.0817   -1.4411   -1.7723 H   0  0  0  0  0  0  0  0  0  0  0  0
   -3.6282   -1.7501   -2.0305 H   0  0  0  0  0  0  0  0  0  0  0  0
   -2.0355   -1.5604   -0.1307 H   0  0  0  0  0  0  0  0  0  0  0  0
   -2.9722   -1.6812    2.1467 H   0  0  0  0  0  0  0  0  0  0  0  0
   -4.4623    1.2865    0.2072 O   0  0  0  0  0  0  0  0  0  0  0  0
   -4.0018    1.2602   -0.9079 C   0  0  0  0  0  0  0  0  0  0  0  0
   -3.7140    0.2134   -1.6765 O   0  0  0  0  0  0  0  0  0  0  0  0
   -3.6408    2.5542   -1.6796 C   0  0  0  0  0  0  0  0  0  0  0  0
   -2.3231    2.5853   -1.9575 F   0  0  0  0  0  0  0  0  0  0  0  0
   -4.3159    2.6193   -2.8427 F   0  0  0  0  0  0  0  0  0  0  0  0
   -3.9452    3.6330   -0.9517 F   0  0  0  0  0  0  0  0  0  0  0  0
  1  2  1  0  0  0  0
  2  3  1  0  0  0  0
  4  9  1  0  0  0  0
  4  1  2  0  0  0  0
  5  4  1  0  0  0  0
  6 11  1  6  0  0  0
  6  5  1  0  0  0  0
  6  7  1  0  0  0  0
  7  8  2  0  0  0  0
  8  1  1  0  0  0  0
  8 13  1  0  0  0  0
 10  5  1  0  0  0  0
 12  7  1  0  0  0  0
 15 14  2  0  0  0  0
 16  6  1  0  0  0  0
 16 15  1  0  0  0  0
 17 20  1  0  0  0  0
 17 15  1  0  0  0  0
 18 17  1  0  0  0  0
 19 17  1  0  0  0  0
M  RAD  3   2   2   3   3   5   2
M  END
