Coordinates from ORCA-job PhN2+~CF3COO-_B3LYPG-6-31G_dp-NX-Scan-d89-09-n800
 OpenBabel11261920123D

 20 20  0  0  1  0  0  0  0  0999 V2000
   -5.0280   -1.4380    1.4388 C   0  0  1  0  0  0  0  0  0  0  0  0
   -5.5071   -1.1901    2.6358 N   0  0  0  0  0  0  0  0  0  0  0  0
   -5.9203   -0.9499    3.6711 N   0  0  0  0  0  0  0  0  0  0  0  0
   -5.9245   -1.4904    0.3054 C   0  0  0  0  0  0  0  0  0  0  0  0
   -5.4149   -1.4562   -0.9403 C   0  0  0  0  0  0  0  0  0  0  0  0
   -3.9584   -1.2279   -1.1797 C   0  0  2  0  0  0  0  0  0  0  0  0
   -3.0940   -1.5225    0.0021 C   0  0  0  0  0  0  0  0  0  0  0  0
   -3.5992   -1.5560    1.2497 C   0  0  0  0  0  0  0  0  0  0  0  0
   -6.9921   -1.5768    0.4843 H   0  0  0  0  0  0  0  0  0  0  0  0
   -6.0649   -1.5332   -1.8057 H   0  0  0  0  0  0  0  0  0  0  0  0
   -3.6103   -1.7500   -2.0735 H   0  0  0  0  0  0  0  0  0  0  0  0
   -2.0295   -1.6484   -0.1671 H   0  0  0  0  0  0  0  0  0  0  0  0
   -2.9640   -1.6897    2.1199 H   0  0  0  0  0  0  0  0  0  0  0  0
   -4.4747    1.2193    0.2586 O   0  0  0  0  0  0  0  0  0  0  0  0
   -4.0189    1.2251   -0.8596 C   0  0  0  0  0  0  0  0  0  0  0  0
   -3.7232    0.2042   -1.6581 O   0  0  0  0  0  0  0  0  0  0  0  0
   -3.6747    2.5438   -1.5970 C   0  0  0  0  0  0  0  0  0  0  0  0
   -2.3586    2.5971   -1.8789 F   0  0  0  0  0  0  0  0  0  0  0  0
   -4.3552    2.6340   -2.7553 F   0  0  0  0  0  0  0  0  0  0  0  0
   -3.9877    3.5989   -0.8386 F   0  0  0  0  0  0  0  0  0  0  0  0
  1  2  1  6  0  0  0
  2  3  1  0  0  0  0
  4  9  1  0  0  0  0
  4  1  1  0  0  0  0
  5  4  2  0  0  0  0
  6 11  1  6  0  0  0
  6  5  1  0  0  0  0
  6  7  1  0  0  0  0
  7  8  2  0  0  0  0
  8  1  1  0  0  0  0
  8 13  1  0  0  0  0
 10  5  1  0  0  0  0
 12  7  1  0  0  0  0
 15 14  2  0  0  0  0
 16  6  1  0  0  0  0
 16 15  1  0  0  0  0
 17 15  1  0  0  0  0
 17 20  1  0  0  0  0
 18 17  1  0  0  0  0
 19 17  1  0  0  0  0
M  RAD  3   1   2   2   2   3   3
M  END
