Coordinates from ORCA-job PhN2+~CF3COO-_B3LYPG-6-31G_dp-NX-Scan-d89-09-n800
 OpenBabel11261920123D

 20 20  0  0  1  0  0  0  0  0999 V2000
   -5.2055   -1.8506    1.5768 C   0  0  0  0  0  0  0  0  0  0  0  0
   -5.7255   -2.3781    2.6619 N   0  0  0  0  0  0  0  0  0  0  0  0
   -6.1770   -2.8224    3.6119 N   0  0  0  0  0  0  0  0  0  0  0  0
   -6.0459   -1.1079    0.6624 C   0  0  0  0  0  0  0  0  0  0  0  0
   -5.4973   -0.4975   -0.4050 C   0  0  0  0  0  0  0  0  0  0  0  0
   -4.0185   -0.4452   -0.6161 C   0  0  2  0  0  0  0  0  0  0  0  0
   -3.2549   -1.4240    0.2155 C   0  0  0  0  0  0  0  0  0  0  0  0
   -3.8009   -2.0377    1.2819 C   0  0  0  0  0  0  0  0  0  0  0  0
   -7.1164   -1.0812    0.8416 H   0  0  0  0  0  0  0  0  0  0  0  0
   -6.1222    0.0360   -1.1123 H   0  0  0  0  0  0  0  0  0  0  0  0
   -3.7476   -0.5233   -1.6686 H   0  0  0  0  0  0  0  0  0  0  0  0
   -2.2094   -1.5786   -0.0292 H   0  0  0  0  0  0  0  0  0  0  0  0
   -3.2171   -2.6983    1.9155 H   0  0  0  0  0  0  0  0  0  0  0  0
   -3.1685    3.0866   -0.3972 O   0  0  0  0  0  0  0  0  0  0  0  0
   -3.4176    2.0112   -0.8799 C   0  0  0  0  0  0  0  0  0  0  0  0
   -3.5387    0.9130   -0.1372 O   0  0  0  0  0  0  0  0  0  0  0  0
   -3.5731    1.8846   -2.4198 C   0  0  0  0  0  0  0  0  0  0  0  0
   -2.6594    1.0225   -2.9257 F   0  0  0  0  0  0  0  0  0  0  0  0
   -4.8009    1.4197   -2.7557 F   0  0  0  0  0  0  0  0  0  0  0  0
   -3.4034    3.0642   -3.0086 F   0  0  0  0  0  0  0  0  0  0  0  0
  1  2  1  0  0  0  0
  2  3  1  0  0  0  0
  4  9  1  0  0  0  0
  4  1  2  0  0  0  0
  5  4  1  0  0  0  0
  6 11  1  6  0  0  0
  6  5  1  0  0  0  0
  6 16  1  0  0  0  0
  6  7  1  0  0  0  0
  7  8  2  0  0  0  0
  8  1  1  0  0  0  0
  8 13  1  0  0  0  0
 10  5  1  0  0  0  0
 12  7  1  0  0  0  0
 15 14  2  0  0  0  0
 15 16  1  0  0  0  0
 17 15  1  0  0  0  0
 18 17  1  0  0  0  0
 19 17  1  0  0  0  0
 20 17  1  0  0  0  0
M  RAD  3   2   2   3   3   5   2
M  END
