Coordinates from ORCA-job PhN2+~CF3COO-_B3LYPG-6-31G_dp-NX-Scan-d89-09-n800
 OpenBabel11261920123D

 20 19  0  0  0  0  0  0  0  0999 V2000
   -3.8829   -1.2572    0.1949 C   0  0  0  0  0  0  0  0  0  0  0  0
   -3.6659    0.0773    0.7031 N   0  0  0  0  0  0  0  0  0  0  0  0
   -4.3381    0.9966    0.0678 N   0  0  0  0  0  0  0  0  0  0  0  0
   -4.7148   -1.6467   -0.8657 C   0  0  0  0  0  0  0  0  0  0  0  0
   -4.7983   -2.9962   -1.2220 C   0  0  0  0  0  0  0  0  0  0  0  0
   -4.0654   -3.9622   -0.5358 C   0  0  0  0  0  0  0  0  0  0  0  0
   -3.2381   -3.5723    0.5216 C   0  0  0  0  0  0  0  0  0  0  0  0
   -3.1460   -2.2329    0.8851 C   0  0  0  0  0  0  0  0  0  0  0  0
   -5.3028   -0.9290   -1.4273 H   0  0  0  0  0  0  0  0  0  0  0  0
   -5.4446   -3.2848   -2.0462 H   0  0  0  0  0  0  0  0  0  0  0  0
   -4.1363   -5.0073   -0.8209 H   0  0  0  0  0  0  0  0  0  0  0  0
   -2.6616   -4.3143    1.0662 H   0  0  0  0  0  0  0  0  0  0  0  0
   -2.5094   -1.9121    1.7033 H   0  0  0  0  0  0  0  0  0  0  0  0
   -4.9213    1.1574   -0.5985 O   0  0  0  0  0  0  0  0  0  0  0  0
   -5.5652    3.3239   -0.9809 C   0  0  0  0  0  0  0  0  0  0  0  0
   -6.2920    3.9020   -1.7219 O   0  0  0  0  0  0  0  0  0  0  0  0
   -4.7096    4.0392    0.1167 C   0  0  0  0  0  0  0  0  0  0  0  0
   -3.4172    3.7323   -0.1171 F   0  0  0  0  0  0  0  0  0  0  0  0
   -4.8319    5.3689    0.1824 F   0  0  0  0  0  0  0  0  0  0  0  0
   -5.0587    3.5106    1.3071 F   0  0  0  0  0  0  0  0  0  0  0  0
  1  2  1  0  0  0  0
  1  8  2  0  0  0  0
  3  2  1  0  0  0  0
  4  1  1  0  0  0  0
  5  4  2  0  0  0  0
  5  6  1  0  0  0  0
  6  7  2  0  0  0  0
  7  8  1  0  0  0  0
  7 12  1  0  0  0  0
  8 13  1  0  0  0  0
  9  4  1  0  0  0  0
 10  5  1  0  0  0  0
 11  6  1  0  0  0  0
 14  3  2  0  0  0  0
 15 17  1  0  0  0  0
 16 15  2  0  0  0  0
 17 19  1  0  0  0  0
 17 20  1  0  0  0  0
 18 17  1  0  0  0  0
M  RAD  2   2   2  15   2
M  END
