Coordinates from ORCA-job PhN2+~CF3COO-_B3LYPG-6-31G_dp-NX-Scan-d89-09-n800
 OpenBabel11261920123D

 20 20  0  0  1  0  0  0  0  0999 V2000
   -5.0707   -1.5458    1.5336 C   0  0  0  0  0  0  0  0  0  0  0  0
   -5.5672   -1.6590    2.7449 N   0  0  0  0  0  0  0  0  0  0  0  0
   -5.9990   -1.7573    3.7984 N   0  0  0  0  0  0  0  0  0  0  0  0
   -5.9584   -1.4674    0.3934 C   0  0  0  0  0  0  0  0  0  0  0  0
   -5.4516   -1.3025   -0.8423 C   0  0  0  0  0  0  0  0  0  0  0  0
   -3.9878   -1.1271   -1.0948 C   0  0  2  0  0  0  0  0  0  0  0  0
   -3.1273   -1.3677    0.1048 C   0  0  0  0  0  0  0  0  0  0  0  0
   -3.6367   -1.5313    1.3397 C   0  0  0  0  0  0  0  0  0  0  0  0
   -7.0271   -1.5691    0.5563 H   0  0  0  0  0  0  0  0  0  0  0  0
   -6.1104   -1.2707   -1.7043 H   0  0  0  0  0  0  0  0  0  0  0  0
   -3.6598   -1.7378   -1.9422 H   0  0  0  0  0  0  0  0  0  0  0  0
   -2.0529   -1.3839   -0.0510 H   0  0  0  0  0  0  0  0  0  0  0  0
   -2.9923   -1.6791    2.2007 H   0  0  0  0  0  0  0  0  0  0  0  0
   -4.4187    1.4244    0.1318 O   0  0  0  0  0  0  0  0  0  0  0  0
   -3.9653    1.3295   -0.9807 C   0  0  0  0  0  0  0  0  0  0  0  0
   -3.7057    0.2345   -1.6922 O   0  0  0  0  0  0  0  0  0  0  0  0
   -3.5814    2.5699   -1.8259 C   0  0  0  0  0  0  0  0  0  0  0  0
   -2.2694    2.5468   -2.1292 F   0  0  0  0  0  0  0  0  0  0  0  0
   -4.2776    2.5932   -2.9782 F   0  0  0  0  0  0  0  0  0  0  0  0
   -3.8406    3.6934   -1.1508 F   0  0  0  0  0  0  0  0  0  0  0  0
  1  2  1  0  0  0  0
  2  3  1  0  0  0  0
  4  9  1  0  0  0  0
  4  1  2  0  0  0  0
  5  4  1  0  0  0  0
  6 11  1  6  0  0  0
  6  5  1  0  0  0  0
  6  7  1  0  0  0  0
  7  8  2  0  0  0  0
  8  1  1  0  0  0  0
  8 13  1  0  0  0  0
 10  5  1  0  0  0  0
 12  7  1  0  0  0  0
 15 14  2  0  0  0  0
 16  6  1  0  0  0  0
 16 15  1  0  0  0  0
 17 20  1  0  0  0  0
 17 15  1  0  0  0  0
 18 17  1  0  0  0  0
 19 17  1  0  0  0  0
M  RAD  3   2   2   3   3   5   2
M  END
