Coordinates from ORCA-job PhN2+~CF3COO-_B3LYPG-6-31G_dp-NX-Scan-d89-09-n800
 OpenBabel11261920123D

 20 20  0  0  1  0  0  0  0  0999 V2000
   -5.2336   -1.9286    1.5768 C   0  0  0  0  0  0  0  0  0  0  0  0
   -5.7761   -2.6530    2.5296 N   0  0  0  0  0  0  0  0  0  0  0  0
   -6.2474   -3.2817    3.3600 N   0  0  0  0  0  0  0  0  0  0  0  0
   -6.0658   -1.0964    0.7330 C   0  0  0  0  0  0  0  0  0  0  0  0
   -5.5147   -0.3719   -0.2590 C   0  0  0  0  0  0  0  0  0  0  0  0
   -4.0407   -0.3275   -0.5093 C   0  0  2  0  0  0  0  0  0  0  0  0
   -3.2548   -1.2700    0.3458 C   0  0  0  0  0  0  0  0  0  0  0  0
   -3.8075   -1.9967    1.3347 C   0  0  0  0  0  0  0  0  0  0  0  0
   -7.1382   -1.0897    0.9035 H   0  0  0  0  0  0  0  0  0  0  0  0
   -6.1417    0.2328   -0.9048 H   0  0  0  0  0  0  0  0  0  0  0  0
   -3.8042   -0.4735   -1.5638 H   0  0  0  0  0  0  0  0  0  0  0  0
   -2.1885   -1.3333    0.1541 H   0  0  0  0  0  0  0  0  0  0  0  0
   -3.2048   -2.6583    1.9491 H   0  0  0  0  0  0  0  0  0  0  0  0
   -2.9091    3.1281   -0.6380 O   0  0  0  0  0  0  0  0  0  0  0  0
   -3.3133    2.0519   -0.9991 C   0  0  0  0  0  0  0  0  0  0  0  0
   -3.5420    1.0533   -0.1449 O   0  0  0  0  0  0  0  0  0  0  0  0
   -3.5703    1.8135   -2.5131 C   0  0  0  0  0  0  0  0  0  0  0  0
   -2.7338    0.8660   -3.0002 F   0  0  0  0  0  0  0  0  0  0  0  0
   -4.8385    1.3951   -2.7405 F   0  0  0  0  0  0  0  0  0  0  0  0
   -3.3750    2.9330   -3.2020 F   0  0  0  0  0  0  0  0  0  0  0  0
  1  2  1  0  0  0  0
  2  3  1  0  0  0  0
  4  9  1  0  0  0  0
  4  1  2  0  0  0  0
  5  4  1  0  0  0  0
  6 11  1  6  0  0  0
  6  5  1  0  0  0  0
  6 16  1  0  0  0  0
  6  7  1  0  0  0  0
  7  8  2  0  0  0  0
  8  1  1  0  0  0  0
  8 13  1  0  0  0  0
 10  5  1  0  0  0  0
 12  7  1  0  0  0  0
 15 14  2  0  0  0  0
 15 16  1  0  0  0  0
 17 15  1  0  0  0  0
 18 17  1  0  0  0  0
 19 17  1  0  0  0  0
 20 17  1  0  0  0  0
M  RAD  3   2   2   3   3   5   2
M  END
