Coordinates from ORCA-job PhN2+~CF3COO-_B3LYPG-6-31G_dp-NX-Scan-d89-09-n800
 OpenBabel11261920123D

 20 20  0  0  1  0  0  0  0  0999 V2000
   -5.1093   -1.5951    1.4970 C   0  0  1  0  0  0  0  0  0  0  0  0
   -5.5460   -1.5688    2.7361 N   0  0  0  0  0  0  0  0  0  0  0  0
   -5.9259   -1.4969    3.8089 N   0  0  0  0  0  0  0  0  0  0  0  0
   -5.9354   -1.0462    0.4406 C   0  0  0  0  0  0  0  0  0  0  0  0
   -5.3572   -0.7468   -0.7389 C   0  0  0  0  0  0  0  0  0  0  0  0
   -3.8633   -0.7507   -0.8428 C   0  0  2  0  0  0  0  0  0  0  0  0
   -3.2351   -1.8127    0.0031 C   0  0  0  0  0  0  0  0  0  0  0  0
   -3.7938   -2.1222    1.1893 C   0  0  0  0  0  0  0  0  0  0  0  0
   -7.0004   -0.9233    0.6123 H   0  0  0  0  0  0  0  0  0  0  0  0
   -5.9434   -0.3939   -1.5779 H   0  0  0  0  0  0  0  0  0  0  0  0
   -3.5038   -0.7562   -1.8717 H   0  0  0  0  0  0  0  0  0  0  0  0
   -2.2771   -2.2249   -0.2918 H   0  0  0  0  0  0  0  0  0  0  0  0
   -3.3069   -2.7769    1.9056 H   0  0  0  0  0  0  0  0  0  0  0  0
   -3.8770    2.6583    0.1942 O   0  0  0  0  0  0  0  0  0  0  0  0
   -3.6891    1.7564   -0.5819 C   0  0  0  0  0  0  0  0  0  0  0  0
   -3.3470    0.5291   -0.1919 O   0  0  0  0  0  0  0  0  0  0  0  0
   -3.7354    2.0149   -2.1125 C   0  0  0  0  0  0  0  0  0  0  0  0
   -2.6905    1.4205   -2.7290 F   0  0  0  0  0  0  0  0  0  0  0  0
   -4.8667    1.5088   -2.6603 F   0  0  0  0  0  0  0  0  0  0  0  0
   -3.6965    3.3195   -2.3765 F   0  0  0  0  0  0  0  0  0  0  0  0
  1  2  1  1  0  0  0
  2  3  1  0  0  0  0
  4  9  1  0  0  0  0
  4  1  1  0  0  0  0
  5  4  2  0  0  0  0
  6 11  1  6  0  0  0
  6  5  1  0  0  0  0
  6 16  1  0  0  0  0
  6  7  1  0  0  0  0
  7  8  2  0  0  0  0
  8  1  1  0  0  0  0
  8 13  1  0  0  0  0
 10  5  1  0  0  0  0
 12  7  1  0  0  0  0
 15 16  1  0  0  0  0
 15 14  2  0  0  0  0
 17 15  1  0  0  0  0
 18 17  1  0  0  0  0
 19 17  1  0  0  0  0
 20 17  1  0  0  0  0
M  RAD  3   1   2   2   2   3   3
M  END
