Coordinates from ORCA-job PhN2+~CF3COO-_B3LYPG-6-31G_dp-NX-Scan-d89-09-n800
 OpenBabel11261920123D

 20 20  0  0  0  0  0  0  0  0999 V2000
   -3.8217   -1.1594    0.2503 C   0  0  0  0  0  0  0  0  0  0  0  0
   -3.5149    0.0970    0.8131 N   0  0  0  0  0  0  0  0  0  0  0  0
   -3.8391    1.2339    0.6353 N   0  0  0  0  0  0  0  0  0  0  0  0
   -4.6905   -1.4032   -0.8327 C   0  0  0  0  0  0  0  0  0  0  0  0
   -4.8707   -2.7162   -1.2599 C   0  0  0  0  0  0  0  0  0  0  0  0
   -4.2087   -3.7744   -0.6304 C   0  0  0  0  0  0  0  0  0  0  0  0
   -3.3491   -3.5282    0.4429 C   0  0  0  0  0  0  0  0  0  0  0  0
   -3.1538   -2.2234    0.8815 C   0  0  0  0  0  0  0  0  0  0  0  0
   -5.2016   -0.5855   -1.3161 H   0  0  0  0  0  0  0  0  0  0  0  0
   -5.5361   -2.9132   -2.0948 H   0  0  0  0  0  0  0  0  0  0  0  0
   -4.3637   -4.7914   -0.9782 H   0  0  0  0  0  0  0  0  0  0  0  0
   -2.8345   -4.3477    0.9334 H   0  0  0  0  0  0  0  0  0  0  0  0
   -2.4922   -1.9981    1.7111 H   0  0  0  0  0  0  0  0  0  0  0  0
   -4.9045    1.3841   -0.5501 O   0  0  0  0  0  0  0  0  0  0  0  0
   -5.3257    2.6249   -0.8115 C   0  0  0  0  0  0  0  0  0  0  0  0
   -6.1334    2.8479   -1.6789 O   0  0  0  0  0  0  0  0  0  0  0  0
   -4.7438    3.7913    0.0351 C   0  0  0  0  0  0  0  0  0  0  0  0
   -3.4076    3.8729   -0.1045 F   0  0  0  0  0  0  0  0  0  0  0  0
   -5.2764    4.9459   -0.3742 F   0  0  0  0  0  0  0  0  0  0  0  0
   -5.0319    3.6360    1.3406 F   0  0  0  0  0  0  0  0  0  0  0  0
  1  2  1  0  0  0  0
  1  8  2  0  0  0  0
  3  2  1  0  0  0  0
  4  1  1  0  0  0  0
  5  4  2  0  0  0  0
  5  6  1  0  0  0  0
  6  7  2  0  0  0  0
  7  8  1  0  0  0  0
  7 12  1  0  0  0  0
  8 13  1  0  0  0  0
  9  4  1  0  0  0  0
 10  5  1  0  0  0  0
 11  6  1  0  0  0  0
 14  3  1  0  0  0  0
 15 14  1  0  0  0  0
 15 17  1  0  0  0  0
 16 15  2  0  0  0  0
 17 20  1  0  0  0  0
 18 17  1  0  0  0  0
 19 17  1  0  0  0  0
M  RAD  2   2   2   3   2
M  END
