Coordinates from ORCA-job PhN2+~CF3COO-_B3LYPG-6-31G_dp-NX-Scan-d89-09-n800
 OpenBabel11261920123D

 20 20  0  0  1  0  0  0  0  0999 V2000
   -5.0012   -1.5092    1.3712 C   0  0  1  0  0  0  0  0  0  0  0  0
   -5.3012   -0.5015    2.1774 N   0  0  0  0  0  0  0  0  0  0  0  0
   -5.4680    0.5096    2.6558 N   0  0  0  0  0  0  0  0  0  0  0  0
   -5.9066   -1.6691    0.2395 C   0  0  0  0  0  0  0  0  0  0  0  0
   -5.3904   -1.6668   -1.0040 C   0  0  0  0  0  0  0  0  0  0  0  0
   -3.9525   -1.3211   -1.2055 C   0  0  2  0  0  0  0  0  0  0  0  0
   -3.0773   -1.7286   -0.0672 C   0  0  0  0  0  0  0  0  0  0  0  0
   -3.5719   -1.7306    1.1849 C   0  0  0  0  0  0  0  0  0  0  0  0
   -6.9731   -1.7697    0.4222 H   0  0  0  0  0  0  0  0  0  0  0  0
   -6.0129   -1.8398   -1.8760 H   0  0  0  0  0  0  0  0  0  0  0  0
   -3.5741   -1.6766   -2.1634 H   0  0  0  0  0  0  0  0  0  0  0  0
   -2.0328   -1.9471   -0.2644 H   0  0  0  0  0  0  0  0  0  0  0  0
   -2.9385   -1.8758    2.0557 H   0  0  0  0  0  0  0  0  0  0  0  0
   -4.5923    1.0691    0.5238 O   0  0  0  0  0  0  0  0  0  0  0  0
   -4.1314    1.1410   -0.5960 C   0  0  0  0  0  0  0  0  0  0  0  0
   -3.8040    0.1955   -1.4694 O   0  0  0  0  0  0  0  0  0  0  0  0
   -3.8168    2.5157   -1.2435 C   0  0  0  0  0  0  0  0  0  0  0  0
   -2.5015    2.6199   -1.5138 F   0  0  0  0  0  0  0  0  0  0  0  0
   -4.4953    2.6673   -2.3964 F   0  0  0  0  0  0  0  0  0  0  0  0
   -4.1580    3.5109   -0.4189 F   0  0  0  0  0  0  0  0  0  0  0  0
  1  2  1  6  0  0  0
  2  3  1  0  0  0  0
  4  9  1  0  0  0  0
  4  1  1  0  0  0  0
  5  4  2  0  0  0  0
  6 11  1  6  0  0  0
  6  5  1  0  0  0  0
  6  7  1  0  0  0  0
  7  8  2  0  0  0  0
  8  1  1  0  0  0  0
  8 13  1  0  0  0  0
 10  5  1  0  0  0  0
 12  7  1  0  0  0  0
 15 14  2  0  0  0  0
 16  6  1  0  0  0  0
 16 15  1  0  0  0  0
 17 15  1  0  0  0  0
 17 20  1  0  0  0  0
 18 17  1  0  0  0  0
 19 17  1  0  0  0  0
M  RAD  3   1   2   2   2   3   3
M  END
