Coordinates from ORCA-job PhN2+~CF3COO-_B3LYPG-6-31G_dp-NX-Scan-d89-09-n800
 OpenBabel11261920123D

 20 20  0  0  1  0  0  0  0  0999 V2000
   -5.2561   -2.0023    1.5453 C   0  0  0  0  0  0  0  0  0  0  0  0
   -5.8160   -2.8957    2.3320 N   0  0  0  0  0  0  0  0  0  0  0  0
   -6.3025   -3.6803    3.0105 N   0  0  0  0  0  0  0  0  0  0  0  0
   -6.0715   -1.0673    0.7936 C   0  0  0  0  0  0  0  0  0  0  0  0
   -5.5084   -0.2271   -0.0959 C   0  0  0  0  0  0  0  0  0  0  0  0
   -4.0381   -0.2080   -0.3887 C   0  0  2  0  0  0  0  0  0  0  0  0
   -3.2486   -1.1207    0.5005 C   0  0  0  0  0  0  0  0  0  0  0  0
   -3.8149   -1.9628    1.3856 C   0  0  0  0  0  0  0  0  0  0  0  0
   -7.1454   -1.0675    0.9547 H   0  0  0  0  0  0  0  0  0  0  0  0
   -6.1286    0.4584   -0.6625 H   0  0  0  0  0  0  0  0  0  0  0  0
   -3.8412   -0.4424   -1.4373 H   0  0  0  0  0  0  0  0  0  0  0  0
   -2.1695   -1.0991    0.3842 H   0  0  0  0  0  0  0  0  0  0  0  0
   -3.2052   -2.6307    1.9860 H   0  0  0  0  0  0  0  0  0  0  0  0
   -2.7000    3.1329   -0.8941 O   0  0  0  0  0  0  0  0  0  0  0  0
   -3.2234    2.0709   -1.1213 C   0  0  0  0  0  0  0  0  0  0  0  0
   -3.5000    1.1805   -0.1608 O   0  0  0  0  0  0  0  0  0  0  0  0
   -3.5975    1.7243   -2.5900 C   0  0  0  0  0  0  0  0  0  0  0  0
   -2.8334    0.7063   -3.0526 F   0  0  0  0  0  0  0  0  0  0  0  0
   -4.8933    1.3472   -2.6982 F   0  0  0  0  0  0  0  0  0  0  0  0
   -3.4065    2.7766   -3.3790 F   0  0  0  0  0  0  0  0  0  0  0  0
  1  2  1  0  0  0  0
  2  3  1  0  0  0  0
  4  9  1  0  0  0  0
  4  1  2  0  0  0  0
  5  4  1  0  0  0  0
  6 11  1  6  0  0  0
  6 16  1  0  0  0  0
  6  5  1  0  0  0  0
  6  7  1  0  0  0  0
  7  8  2  0  0  0  0
  8  1  1  0  0  0  0
  8 13  1  0  0  0  0
 10  5  1  0  0  0  0
 12  7  1  0  0  0  0
 15 14  2  0  0  0  0
 15 16  1  0  0  0  0
 17 15  1  0  0  0  0
 18 17  1  0  0  0  0
 19 17  1  0  0  0  0
 20 17  1  0  0  0  0
M  RAD  3   2   2   3   3   5   2
M  END
