Coordinates from ORCA-job PhN2+~CF3COO-_B3LYPG-6-31G_dp-NX-Scan-d89-09-n800
 OpenBabel11261920123D

 20 20  0  0  1  0  0  0  0  0999 V2000
   -5.1212   -1.6277    1.5104 C   0  0  1  0  0  0  0  0  0  0  0  0
   -5.5672   -1.6622    2.7460 N   0  0  0  0  0  0  0  0  0  0  0  0
   -5.9550   -1.6463    3.8184 N   0  0  0  0  0  0  0  0  0  0  0  0
   -5.9524   -1.0592    0.4690 C   0  0  0  0  0  0  0  0  0  0  0  0
   -5.3802   -0.7232   -0.7035 C   0  0  0  0  0  0  0  0  0  0  0  0
   -3.8877   -0.7150   -0.8204 C   0  0  2  0  0  0  0  0  0  0  0  0
   -3.2393   -1.7722    0.0155 C   0  0  0  0  0  0  0  0  0  0  0  0
   -3.7937   -2.1171    1.1939 C   0  0  0  0  0  0  0  0  0  0  0  0
   -7.0181   -0.9500    0.6452 H   0  0  0  0  0  0  0  0  0  0  0  0
   -5.9732   -0.3494   -1.5289 H   0  0  0  0  0  0  0  0  0  0  0  0
   -3.5382   -0.7173   -1.8525 H   0  0  0  0  0  0  0  0  0  0  0  0
   -2.2701   -2.1558   -0.2813 H   0  0  0  0  0  0  0  0  0  0  0  0
   -3.2926   -2.7745    1.8978 H   0  0  0  0  0  0  0  0  0  0  0  0
   -3.8067    2.7344    0.1298 O   0  0  0  0  0  0  0  0  0  0  0  0
   -3.6641    1.7963   -0.6126 C   0  0  0  0  0  0  0  0  0  0  0  0
   -3.3818    0.5707   -0.1749 O   0  0  0  0  0  0  0  0  0  0  0  0
   -3.7047    2.0018   -2.1512 C   0  0  0  0  0  0  0  0  0  0  0  0
   -2.6590    1.3824   -2.7425 F   0  0  0  0  0  0  0  0  0  0  0  0
   -4.8358    1.4816   -2.6865 F   0  0  0  0  0  0  0  0  0  0  0  0
   -3.6589    3.2958   -2.4598 F   0  0  0  0  0  0  0  0  0  0  0  0
  1  2  1  1  0  0  0
  2  3  1  0  0  0  0
  4  9  1  0  0  0  0
  4  1  1  0  0  0  0
  5  4  2  0  0  0  0
  6 11  1  6  0  0  0
  6  5  1  0  0  0  0
  6 16  1  0  0  0  0
  6  7  1  0  0  0  0
  7  8  2  0  0  0  0
  8  1  1  0  0  0  0
  8 13  1  0  0  0  0
 10  5  1  0  0  0  0
 12  7  1  0  0  0  0
 15 16  1  0  0  0  0
 15 14  2  0  0  0  0
 17 15  1  0  0  0  0
 18 17  1  0  0  0  0
 19 17  1  0  0  0  0
 20 17  1  0  0  0  0
M  RAD  3   1   2   2   2   3   3
M  END
