Coordinates from ORCA-job PhN2+~CF3COO-_B3LYPG-6-31G_dp-NX-Scan-d89-09-n800
 OpenBabel11261920123D

 20 20  0  0  1  0  0  0  0  0999 V2000
   -5.2376   -1.9416    1.5742 C   0  0  0  0  0  0  0  0  0  0  0  0
   -5.7820   -2.6954    2.5030 N   0  0  0  0  0  0  0  0  0  0  0  0
   -6.2551   -3.3515    3.3115 N   0  0  0  0  0  0  0  0  0  0  0  0
   -6.0687   -1.0936    0.7447 C   0  0  0  0  0  0  0  0  0  0  0  0
   -5.5174   -0.3497   -0.2328 C   0  0  0  0  0  0  0  0  0  0  0  0
   -4.0441   -0.3079   -0.4910 C   0  0  2  0  0  0  0  0  0  0  0  0
   -3.2553   -1.2449    0.3681 C   0  0  0  0  0  0  0  0  0  0  0  0
   -3.8087   -1.9908    1.3423 C   0  0  0  0  0  0  0  0  0  0  0  0
   -7.1412   -1.0889    0.9148 H   0  0  0  0  0  0  0  0  0  0  0  0
   -6.1444    0.2680   -0.8661 H   0  0  0  0  0  0  0  0  0  0  0  0
   -3.8144   -0.4667   -1.5454 H   0  0  0  0  0  0  0  0  0  0  0  0
   -2.1863   -1.2929    0.1865 H   0  0  0  0  0  0  0  0  0  0  0  0
   -3.2034   -2.6527    1.9537 H   0  0  0  0  0  0  0  0  0  0  0  0
   -2.8723    3.1308   -0.6776 O   0  0  0  0  0  0  0  0  0  0  0  0
   -3.2985    2.0565   -1.0187 C   0  0  0  0  0  0  0  0  0  0  0  0
   -3.5407    1.0752   -0.1472 O   0  0  0  0  0  0  0  0  0  0  0  0
   -3.5701    1.8003   -2.5275 C   0  0  0  0  0  0  0  0  0  0  0  0
   -2.7445    0.8407   -3.0093 F   0  0  0  0  0  0  0  0  0  0  0  0
   -4.8432    1.3888   -2.7393 F   0  0  0  0  0  0  0  0  0  0  0  0
   -3.3721    2.9095   -3.2320 F   0  0  0  0  0  0  0  0  0  0  0  0
  1  2  1  0  0  0  0
  2  3  1  0  0  0  0
  4  9  1  0  0  0  0
  4  1  2  0  0  0  0
  5  4  1  0  0  0  0
  6 11  1  6  0  0  0
  6  5  1  0  0  0  0
  6 16  1  0  0  0  0
  6  7  1  0  0  0  0
  7  8  2  0  0  0  0
  8  1  1  0  0  0  0
  8 13  1  0  0  0  0
 10  5  1  0  0  0  0
 12  7  1  0  0  0  0
 15 14  2  0  0  0  0
 15 16  1  0  0  0  0
 17 15  1  0  0  0  0
 18 17  1  0  0  0  0
 19 17  1  0  0  0  0
 20 17  1  0  0  0  0
M  RAD  3   2   2   3   3   5   2
M  END
