Coordinates from ORCA-job PhN2+~CF3COO-_B3LYPG-6-31G_dp-NX-Scan-d89-09-n800
 OpenBabel11261920123D

 20 20  0  0  1  0  0  0  0  0999 V2000
   -5.2653   -2.0383    1.5168 C   0  0  0  0  0  0  0  0  0  0  0  0
   -5.8333   -3.0005    2.2156 N   0  0  0  0  0  0  0  0  0  0  0  0
   -6.3270   -3.8463    2.8143 N   0  0  0  0  0  0  0  0  0  0  0  0
   -6.0681   -1.0534    0.8125 C   0  0  0  0  0  0  0  0  0  0  0  0
   -5.4949   -0.1579   -0.0164 C   0  0  0  0  0  0  0  0  0  0  0  0
   -4.0254   -0.1503   -0.3261 C   0  0  2  0  0  0  0  0  0  0  0  0
   -3.2435   -1.0501    0.5869 C   0  0  0  0  0  0  0  0  0  0  0  0
   -3.8191   -1.9474    1.4115 C   0  0  0  0  0  0  0  0  0  0  0  0
   -7.1434   -1.0549    0.9643 H   0  0  0  0  0  0  0  0  0  0  0  0
   -6.1099    0.5651   -0.5404 H   0  0  0  0  0  0  0  0  0  0  0  0
   -3.8448   -0.4316   -1.3670 H   0  0  0  0  0  0  0  0  0  0  0  0
   -2.1617   -0.9897    0.5204 H   0  0  0  0  0  0  0  0  0  0  0  0
   -3.2099   -2.6174    2.0101 H   0  0  0  0  0  0  0  0  0  0  0  0
   -2.5996    3.1232   -1.0319 O   0  0  0  0  0  0  0  0  0  0  0  0
   -3.1790    2.0754   -1.1832 C   0  0  0  0  0  0  0  0  0  0  0  0
   -3.4633    1.2395   -0.1715 O   0  0  0  0  0  0  0  0  0  0  0  0
   -3.6261    1.6789   -2.6189 C   0  0  0  0  0  0  0  0  0  0  0  0
   -2.9075    0.6237   -3.0708 F   0  0  0  0  0  0  0  0  0  0  0  0
   -4.9338    1.3319   -2.6555 F   0  0  0  0  0  0  0  0  0  0  0  0
   -3.4441    2.6931   -3.4586 F   0  0  0  0  0  0  0  0  0  0  0  0
  1  2  1  0  0  0  0
  2  3  1  0  0  0  0
  4  9  1  0  0  0  0
  4  1  2  0  0  0  0
  5  4  1  0  0  0  0
  6 11  1  6  0  0  0
  6 16  1  0  0  0  0
  6  5  1  0  0  0  0
  6  7  1  0  0  0  0
  7  8  2  0  0  0  0
  8  1  1  0  0  0  0
  8 13  1  0  0  0  0
 10  5  1  0  0  0  0
 12  7  1  0  0  0  0
 15 14  2  0  0  0  0
 15 16  1  0  0  0  0
 17 15  1  0  0  0  0
 18 17  1  0  0  0  0
 19 17  1  0  0  0  0
 20 17  1  0  0  0  0
M  RAD  3   2   2   3   3   5   2
M  END
