Coordinates from ORCA-job PhN2+~CF3COO-_B3LYPG-6-31G_dp-NX-Scan-d89-09-n800
 OpenBabel11261920123D

 20 20  0  0  1  0  0  0  0  0999 V2000
   -5.2554   -1.9996    1.5468 C   0  0  0  0  0  0  0  0  0  0  0  0
   -5.8153   -2.8883    2.3387 N   0  0  0  0  0  0  0  0  0  0  0  0
   -6.3018   -3.6686    3.0219 N   0  0  0  0  0  0  0  0  0  0  0  0
   -6.0709   -1.0681    0.7912 C   0  0  0  0  0  0  0  0  0  0  0  0
   -5.5078   -0.2319   -0.1021 C   0  0  0  0  0  0  0  0  0  0  0  0
   -4.0373   -0.2119   -0.3925 C   0  0  2  0  0  0  0  0  0  0  0  0
   -3.2482   -1.1255    0.4958 C   0  0  0  0  0  0  0  0  0  0  0  0
   -3.8145   -1.9635    1.3846 C   0  0  0  0  0  0  0  0  0  0  0  0
   -7.1449   -1.0684    0.9517 H   0  0  0  0  0  0  0  0  0  0  0  0
   -6.1281    0.4506   -0.6723 H   0  0  0  0  0  0  0  0  0  0  0  0
   -3.8384   -0.4431   -1.4414 H   0  0  0  0  0  0  0  0  0  0  0  0
   -2.1693   -1.1070    0.3769 H   0  0  0  0  0  0  0  0  0  0  0  0
   -3.2053   -2.6314    1.9855 H   0  0  0  0  0  0  0  0  0  0  0  0
   -2.7051    3.1330   -0.8862 O   0  0  0  0  0  0  0  0  0  0  0  0
   -3.2266    2.0709   -1.1171 C   0  0  0  0  0  0  0  0  0  0  0  0
   -3.5009    1.1767   -0.1598 O   0  0  0  0  0  0  0  0  0  0  0  0
   -3.5979    1.7273   -2.5872 C   0  0  0  0  0  0  0  0  0  0  0  0
   -2.8331    0.7101   -3.0503 F   0  0  0  0  0  0  0  0  0  0  0  0
   -4.8936    1.3506   -2.6984 F   0  0  0  0  0  0  0  0  0  0  0  0
   -3.4053    2.7811   -3.3738 F   0  0  0  0  0  0  0  0  0  0  0  0
  1  2  1  0  0  0  0
  2  3  1  0  0  0  0
  4  9  1  0  0  0  0
  4  1  2  0  0  0  0
  5  4  1  0  0  0  0
  6 11  1  6  0  0  0
  6 16  1  0  0  0  0
  6  5  1  0  0  0  0
  6  7  1  0  0  0  0
  7  8  2  0  0  0  0
  8  1  1  0  0  0  0
  8 13  1  0  0  0  0
 10  5  1  0  0  0  0
 12  7  1  0  0  0  0
 15 14  2  0  0  0  0
 15 16  1  0  0  0  0
 17 15  1  0  0  0  0
 18 17  1  0  0  0  0
 19 17  1  0  0  0  0
 20 17  1  0  0  0  0
M  RAD  3   2   2   3   3   5   2
M  END
