Coordinates from ORCA-job PhN2+~CF3COO-_B3LYPG-6-31G_dp-NX-Scan-d89-09-n800
 OpenBabel11261920123D

 20 20  0  0  1  0  0  0  0  0999 V2000
   -4.9990   -1.4568    1.3661 C   0  0  1  0  0  0  0  0  0  0  0  0
   -5.3797   -0.6792    2.3562 N   0  0  0  0  0  0  0  0  0  0  0  0
   -5.6793    0.0736    3.1519 N   0  0  0  0  0  0  0  0  0  0  0  0
   -5.9040   -1.5966    0.2400 C   0  0  0  0  0  0  0  0  0  0  0  0
   -5.3903   -1.6122   -1.0045 C   0  0  0  0  0  0  0  0  0  0  0  0
   -3.9456   -1.3070   -1.2200 C   0  0  2  0  0  0  0  0  0  0  0  0
   -3.0749   -1.6746   -0.0651 C   0  0  0  0  0  0  0  0  0  0  0  0
   -3.5728   -1.6582    1.1857 C   0  0  0  0  0  0  0  0  0  0  0  0
   -6.9710   -1.6805    0.4261 H   0  0  0  0  0  0  0  0  0  0  0  0
   -6.0234   -1.7644   -1.8725 H   0  0  0  0  0  0  0  0  0  0  0  0
   -3.5751   -1.7148   -2.1604 H   0  0  0  0  0  0  0  0  0  0  0  0
   -2.0244   -1.8732   -0.2504 H   0  0  0  0  0  0  0  0  0  0  0  0
   -2.9419   -1.7867    2.0603 H   0  0  0  0  0  0  0  0  0  0  0  0
   -4.5504    1.0823    0.4321 O   0  0  0  0  0  0  0  0  0  0  0  0
   -4.0924    1.1479   -0.6866 C   0  0  0  0  0  0  0  0  0  0  0  0
   -3.7712    0.1894   -1.5481 O   0  0  0  0  0  0  0  0  0  0  0  0
   -3.7756    2.5149   -1.3469 C   0  0  0  0  0  0  0  0  0  0  0  0
   -2.4606    2.6130   -1.6217 F   0  0  0  0  0  0  0  0  0  0  0  0
   -4.4563    2.6579   -2.4997 F   0  0  0  0  0  0  0  0  0  0  0  0
   -4.1120    3.5182   -0.5304 F   0  0  0  0  0  0  0  0  0  0  0  0
  1  2  1  6  0  0  0
  2  3  1  0  0  0  0
  4  9  1  0  0  0  0
  4  1  1  0  0  0  0
  5  4  2  0  0  0  0
  6 11  1  6  0  0  0
  6  5  1  0  0  0  0
  6  7  1  0  0  0  0
  7  8  2  0  0  0  0
  8  1  1  0  0  0  0
  8 13  1  0  0  0  0
 10  5  1  0  0  0  0
 12  7  1  0  0  0  0
 15 14  2  0  0  0  0
 16  6  1  0  0  0  0
 16 15  1  0  0  0  0
 17 15  1  0  0  0  0
 17 20  1  0  0  0  0
 18 17  1  0  0  0  0
 19 17  1  0  0  0  0
M  RAD  3   1   2   2   2   3   3
M  END
