Coordinates from ORCA-job PhN2+~CF3COO-_B3LYPG-6-31G_dp-NX-Scan-d89-09-n800
 OpenBabel11261920123D

 20 20  0  0  1  0  0  0  0  0999 V2000
   -5.0346   -1.4485    1.4540 C   0  0  0  0  0  0  0  0  0  0  0  0
   -5.5194   -1.2656    2.6606 N   0  0  0  0  0  0  0  0  0  0  0  0
   -5.9388   -1.0873    3.7064 N   0  0  0  0  0  0  0  0  0  0  0  0
   -5.9295   -1.4828    0.3187 C   0  0  0  0  0  0  0  0  0  0  0  0
   -5.4203   -1.4323   -0.9266 C   0  0  0  0  0  0  0  0  0  0  0  0
   -3.9625   -1.2133   -1.1684 C   0  0  2  0  0  0  0  0  0  0  0  0
   -3.0986   -1.4992    0.0163 C   0  0  0  0  0  0  0  0  0  0  0  0
   -3.6047   -1.5489    1.2629 C   0  0  0  0  0  0  0  0  0  0  0  0
   -6.9972   -1.5712    0.4953 H   0  0  0  0  0  0  0  0  0  0  0  0
   -6.0721   -1.4942   -1.7919 H   0  0  0  0  0  0  0  0  0  0  0  0
   -3.6178   -1.7501   -2.0552 H   0  0  0  0  0  0  0  0  0  0  0  0
   -2.0321   -1.6104   -0.1513 H   0  0  0  0  0  0  0  0  0  0  0  0
   -2.9681   -1.6850    2.1317 H   0  0  0  0  0  0  0  0  0  0  0  0
   -4.4644    1.2489    0.2376 O   0  0  0  0  0  0  0  0  0  0  0  0
   -4.0085    1.2407   -0.8800 C   0  0  0  0  0  0  0  0  0  0  0  0
   -3.7190    0.2084   -1.6666 O   0  0  0  0  0  0  0  0  0  0  0  0
   -3.6599    2.5488   -1.6337 C   0  0  0  0  0  0  0  0  0  0  0  0
   -2.3437    2.5934   -1.9168 F   0  0  0  0  0  0  0  0  0  0  0  0
   -4.3405    2.6271   -2.7927 F   0  0  0  0  0  0  0  0  0  0  0  0
   -3.9684    3.6144   -0.8882 F   0  0  0  0  0  0  0  0  0  0  0  0
  1  2  1  0  0  0  0
  2  3  1  0  0  0  0
  4  9  1  0  0  0  0
  4  1  2  0  0  0  0
  5  4  1  0  0  0  0
  6 11  1  6  0  0  0
  6  5  1  0  0  0  0
  6  7  1  0  0  0  0
  7  8  2  0  0  0  0
  8  1  1  0  0  0  0
  8 13  1  0  0  0  0
 10  5  1  0  0  0  0
 12  7  1  0  0  0  0
 15 14  2  0  0  0  0
 16  6  1  0  0  0  0
 16 15  1  0  0  0  0
 17 20  1  0  0  0  0
 17 15  1  0  0  0  0
 18 17  1  0  0  0  0
 19 17  1  0  0  0  0
M  RAD  3   2   2   3   3   5   2
M  END
