Coordinates from ORCA-job PhN2+~CF3COO-_B3LYPG-6-31G_dp-NX-Scan-d89-09-n800
 OpenBabel11261920123D

 20 20  0  0  1  0  0  0  0  0999 V2000
   -5.0484   -1.4770    1.4854 C   0  0  0  0  0  0  0  0  0  0  0  0
   -5.5407   -1.4184    2.7020 N   0  0  0  0  0  0  0  0  0  0  0  0
   -5.9678   -1.3572    3.7589 N   0  0  0  0  0  0  0  0  0  0  0  0
   -5.9404   -1.4723    0.3470 C   0  0  0  0  0  0  0  0  0  0  0  0
   -5.4322   -1.3836   -0.8963 C   0  0  0  0  0  0  0  0  0  0  0  0
   -3.9721   -1.1819   -1.1431 C   0  0  2  0  0  0  0  0  0  0  0  0
   -3.1090   -1.4488    0.0474 C   0  0  0  0  0  0  0  0  0  0  0  0
   -3.6165   -1.5365    1.2911 C   0  0  0  0  0  0  0  0  0  0  0  0
   -7.0084   -1.5662    0.5188 H   0  0  0  0  0  0  0  0  0  0  0  0
   -6.0873   -1.4132   -1.7610 H   0  0  0  0  0  0  0  0  0  0  0  0
   -3.6338   -1.7482   -2.0150 H   0  0  0  0  0  0  0  0  0  0  0  0
   -2.0387   -1.5261   -0.1165 H   0  0  0  0  0  0  0  0  0  0  0  0
   -2.9765   -1.6765    2.1568 H   0  0  0  0  0  0  0  0  0  0  0  0
   -4.4460    1.3117    0.1957 O   0  0  0  0  0  0  0  0  0  0  0  0
   -3.9928    1.2731   -0.9215 C   0  0  0  0  0  0  0  0  0  0  0  0
   -3.7139    0.2173   -1.6813 O   0  0  0  0  0  0  0  0  0  0  0  0
   -3.6290    2.5577   -1.7076 C   0  0  0  0  0  0  0  0  0  0  0  0
   -2.3129    2.5783   -1.9938 F   0  0  0  0  0  0  0  0  0  0  0  0
   -4.3109    2.6158   -2.8670 F   0  0  0  0  0  0  0  0  0  0  0  0
   -3.9226    3.6450   -0.9880 F   0  0  0  0  0  0  0  0  0  0  0  0
  1  2  1  0  0  0  0
  2  3  1  0  0  0  0
  4  9  1  0  0  0  0
  4  1  2  0  0  0  0
  5  4  1  0  0  0  0
  6 11  1  6  0  0  0
  6  5  1  0  0  0  0
  6  7  1  0  0  0  0
  7  8  2  0  0  0  0
  8  1  1  0  0  0  0
  8 13  1  0  0  0  0
 10  5  1  0  0  0  0
 12  7  1  0  0  0  0
 15 14  2  0  0  0  0
 16  6  1  0  0  0  0
 16 15  1  0  0  0  0
 17 20  1  0  0  0  0
 17 15  1  0  0  0  0
 18 17  1  0  0  0  0
 19 17  1  0  0  0  0
M  RAD  3   2   2   3   3   5   2
M  END
