Coordinates from ORCA-job PhN2+~CF3COO-_B3LYPG-6-31G_dp-NX-Scan-d89-09-n800
 OpenBabel11261920123D

 20 20  0  0  1  0  0  0  0  0999 V2000
   -5.1118   -1.6011    1.4992 C   0  0  1  0  0  0  0  0  0  0  0  0
   -5.5515   -1.5882    2.7372 N   0  0  0  0  0  0  0  0  0  0  0  0
   -5.9340   -1.5286    3.8095 N   0  0  0  0  0  0  0  0  0  0  0  0
   -5.9382   -1.0471    0.4461 C   0  0  0  0  0  0  0  0  0  0  0  0
   -5.3607   -0.7403   -0.7316 C   0  0  0  0  0  0  0  0  0  0  0  0
   -3.8673   -0.7433   -0.8380 C   0  0  2  0  0  0  0  0  0  0  0  0
   -3.2353   -1.8044    0.0060 C   0  0  0  0  0  0  0  0  0  0  0  0
   -3.7939   -2.1211    1.1903 C   0  0  0  0  0  0  0  0  0  0  0  0
   -7.0033   -0.9263    0.6184 H   0  0  0  0  0  0  0  0  0  0  0  0
   -5.9478   -0.3821   -1.5679 H   0  0  0  0  0  0  0  0  0  0  0  0
   -3.5098   -0.7486   -1.8675 H   0  0  0  0  0  0  0  0  0  0  0  0
   -2.2751   -2.2113   -0.2891 H   0  0  0  0  0  0  0  0  0  0  0  0
   -3.3047   -2.7768    1.9041 H   0  0  0  0  0  0  0  0  0  0  0  0
   -3.8597    2.6736    0.1819 O   0  0  0  0  0  0  0  0  0  0  0  0
   -3.6818    1.7642   -0.5878 C   0  0  0  0  0  0  0  0  0  0  0  0
   -3.3526    0.5371   -0.1879 O   0  0  0  0  0  0  0  0  0  0  0  0
   -3.7308    2.0111   -2.1202 C   0  0  0  0  0  0  0  0  0  0  0  0
   -2.6853    1.4140   -2.7335 F   0  0  0  0  0  0  0  0  0  0  0  0
   -4.8618    1.4987   -2.6629 F   0  0  0  0  0  0  0  0  0  0  0  0
   -3.6946    3.3136   -2.3941 F   0  0  0  0  0  0  0  0  0  0  0  0
  1  2  1  1  0  0  0
  2  3  1  0  0  0  0
  4  9  1  0  0  0  0
  4  1  1  0  0  0  0
  5  4  2  0  0  0  0
  6 11  1  6  0  0  0
  6  5  1  0  0  0  0
  6 16  1  0  0  0  0
  6  7  1  0  0  0  0
  7  8  2  0  0  0  0
  8  1  1  0  0  0  0
  8 13  1  0  0  0  0
 10  5  1  0  0  0  0
 12  7  1  0  0  0  0
 15 16  1  0  0  0  0
 15 14  2  0  0  0  0
 17 15  1  0  0  0  0
 18 17  1  0  0  0  0
 19 17  1  0  0  0  0
 20 17  1  0  0  0  0
M  RAD  3   1   2   2   2   3   3
M  END
