Coordinates from ORCA-job PhN2+~CF3COO-_B3LYPG-6-31G_dp-NX-Scan-d89-09-n800
 OpenBabel11261920123D

 20 20  0  0  1  0  0  0  0  0999 V2000
   -5.1025   -1.5753    1.4883 C   0  0  1  0  0  0  0  0  0  0  0  0
   -5.5359   -1.5154    2.7274 N   0  0  0  0  0  0  0  0  0  0  0  0
   -5.9133   -1.4126    3.7985 N   0  0  0  0  0  0  0  0  0  0  0  0
   -5.9238   -1.0376    0.4222 C   0  0  0  0  0  0  0  0  0  0  0  0
   -5.3404   -0.7603   -0.7602 C   0  0  0  0  0  0  0  0  0  0  0  0
   -3.8459   -0.7723   -0.8554 C   0  0  2  0  0  0  0  0  0  0  0  0
   -3.2306   -1.8354   -0.0009 C   0  0  0  0  0  0  0  0  0  0  0  0
   -3.7936   -2.1237    1.1888 C   0  0  0  0  0  0  0  0  0  0  0  0
   -6.9884   -0.9062    0.5896 H   0  0  0  0  0  0  0  0  0  0  0  0
   -5.9215   -0.4195   -1.6076 H   0  0  0  0  0  0  0  0  0  0  0  0
   -3.4800   -0.7825   -1.8821 H   0  0  0  0  0  0  0  0  0  0  0  0
   -2.2786   -2.2638   -0.2922 H   0  0  0  0  0  0  0  0  0  0  0  0
   -3.3159   -2.7759    1.9135 H   0  0  0  0  0  0  0  0  0  0  0  0
   -3.9136    2.6100    0.2317 O   0  0  0  0  0  0  0  0  0  0  0  0
   -3.7012    1.7316   -0.5648 C   0  0  0  0  0  0  0  0  0  0  0  0
   -3.3224    0.5055   -0.2048 O   0  0  0  0  0  0  0  0  0  0  0  0
   -3.7582    2.0226   -2.0893 C   0  0  0  0  0  0  0  0  0  0  0  0
   -2.7242    1.4337   -2.7284 F   0  0  0  0  0  0  0  0  0  0  0  0
   -4.8986    1.5375   -2.6365 F   0  0  0  0  0  0  0  0  0  0  0  0
   -3.7115    3.3327   -2.3259 F   0  0  0  0  0  0  0  0  0  0  0  0
  1  2  1  1  0  0  0
  2  3  1  0  0  0  0
  4  9  1  0  0  0  0
  4  1  1  0  0  0  0
  5  4  2  0  0  0  0
  6 11  1  6  0  0  0
  6  5  1  0  0  0  0
  6 16  1  0  0  0  0
  6  7  1  0  0  0  0
  7  8  2  0  0  0  0
  8  1  1  0  0  0  0
  8 13  1  0  0  0  0
 10  5  1  0  0  0  0
 12  7  1  0  0  0  0
 15 16  1  0  0  0  0
 15 14  2  0  0  0  0
 17 15  1  0  0  0  0
 18 17  1  0  0  0  0
 19 17  1  0  0  0  0
 20 17  1  0  0  0  0
M  RAD  3   1   2   2   2   3   3
M  END
