Coordinates from ORCA-job PhN2+~CF3COO-_B3LYPG-6-31G_dp-NX-Scan-d89-09-n800
 OpenBabel11261920123D

 20 20  0  0  1  0  0  0  0  0999 V2000
   -5.0343   -1.4502    1.4566 C   0  0  0  0  0  0  0  0  0  0  0  0
   -5.5191   -1.2769    2.6647 N   0  0  0  0  0  0  0  0  0  0  0  0
   -5.9385   -1.1078    3.7120 N   0  0  0  0  0  0  0  0  0  0  0  0
   -5.9295   -1.4797    0.3215 C   0  0  0  0  0  0  0  0  0  0  0  0
   -5.4209   -1.4266   -0.9238 C   0  0  0  0  0  0  0  0  0  0  0  0
   -3.9627   -1.2111   -1.1665 C   0  0  2  0  0  0  0  0  0  0  0  0
   -3.0987   -1.4970    0.0183 C   0  0  0  0  0  0  0  0  0  0  0  0
   -3.6045   -1.5497    1.2648 C   0  0  0  0  0  0  0  0  0  0  0  0
   -6.9974   -1.5667    0.4982 H   0  0  0  0  0  0  0  0  0  0  0  0
   -6.0734   -1.4844   -1.7889 H   0  0  0  0  0  0  0  0  0  0  0  0
   -3.6196   -1.7509   -2.0522 H   0  0  0  0  0  0  0  0  0  0  0  0
   -2.0321   -1.6066   -0.1496 H   0  0  0  0  0  0  0  0  0  0  0  0
   -2.9675   -1.6870    2.1330 H   0  0  0  0  0  0  0  0  0  0  0  0
   -4.4737    1.2524    0.2298 O   0  0  0  0  0  0  0  0  0  0  0  0
   -4.0104    1.2425   -0.8848 C   0  0  0  0  0  0  0  0  0  0  0  0
   -3.7165    0.2085   -1.6678 O   0  0  0  0  0  0  0  0  0  0  0  0
   -3.6579    2.5493   -1.6391 C   0  0  0  0  0  0  0  0  0  0  0  0
   -2.3400    2.5939   -1.9142 F   0  0  0  0  0  0  0  0  0  0  0  0
   -4.3315    2.6247   -2.8023 F   0  0  0  0  0  0  0  0  0  0  0  0
   -3.9715    3.6162   -0.8977 F   0  0  0  0  0  0  0  0  0  0  0  0
  1  2  1  0  0  0  0
  2  3  1  0  0  0  0
  4  9  1  0  0  0  0
  4  1  2  0  0  0  0
  5  4  1  0  0  0  0
  6 11  1  6  0  0  0
  6  5  1  0  0  0  0
  6  7  1  0  0  0  0
  7  8  2  0  0  0  0
  8  1  1  0  0  0  0
  8 13  1  0  0  0  0
 10  5  1  0  0  0  0
 12  7  1  0  0  0  0
 15 14  2  0  0  0  0
 16  6  1  0  0  0  0
 16 15  1  0  0  0  0
 17 20  1  0  0  0  0
 17 15  1  0  0  0  0
 18 17  1  0  0  0  0
 19 17  1  0  0  0  0
M  RAD  3   2   2   3   3   5   2
M  END
