Coordinates from ORCA-job PhN2+~CF3COO-_B3LYPG-6-31G_dp-NX-Scan-d89-09-n800
 OpenBabel11261920123D

 20 20  0  0  1  0  0  0  0  0999 V2000
   -5.0211   -1.4320    1.4221 C   0  0  1  0  0  0  0  0  0  0  0  0
   -5.4910   -1.1024    2.6027 N   0  0  0  0  0  0  0  0  0  0  0  0
   -5.8942   -0.7844    3.6203 N   0  0  0  0  0  0  0  0  0  0  0  0
   -5.9194   -1.5030    0.2910 C   0  0  0  0  0  0  0  0  0  0  0  0
   -5.4092   -1.4839   -0.9550 C   0  0  0  0  0  0  0  0  0  0  0  0
   -3.9544   -1.2439   -1.1910 C   0  0  2  0  0  0  0  0  0  0  0  0
   -3.0894   -1.5501   -0.0130 C   0  0  0  0  0  0  0  0  0  0  0  0
   -3.5935   -1.5686    1.2354 C   0  0  0  0  0  0  0  0  0  0  0  0
   -6.9868   -1.5870    0.4720 H   0  0  0  0  0  0  0  0  0  0  0  0
   -6.0570   -1.5764   -1.8205 H   0  0  0  0  0  0  0  0  0  0  0  0
   -3.6024   -1.7476   -2.0932 H   0  0  0  0  0  0  0  0  0  0  0  0
   -2.0272   -1.6915   -0.1843 H   0  0  0  0  0  0  0  0  0  0  0  0
   -2.9598   -1.6998    2.1071 H   0  0  0  0  0  0  0  0  0  0  0  0
   -4.4858    1.1898    0.2846 O   0  0  0  0  0  0  0  0  0  0  0  0
   -4.0295    1.2094   -0.8338 C   0  0  0  0  0  0  0  0  0  0  0  0
   -3.7287    0.2006   -1.6451 O   0  0  0  0  0  0  0  0  0  0  0  0
   -3.6918    2.5388   -1.5550 C   0  0  0  0  0  0  0  0  0  0  0  0
   -2.3758    2.6027   -1.8350 F   0  0  0  0  0  0  0  0  0  0  0  0
   -4.3718    2.6395   -2.7128 F   0  0  0  0  0  0  0  0  0  0  0  0
   -4.0111    3.5830   -0.7842 F   0  0  0  0  0  0  0  0  0  0  0  0
  1  2  1  6  0  0  0
  2  3  1  0  0  0  0
  4  9  1  0  0  0  0
  4  1  1  0  0  0  0
  5  4  2  0  0  0  0
  6 11  1  6  0  0  0
  6  5  1  0  0  0  0
  6  7  1  0  0  0  0
  7  8  2  0  0  0  0
  8  1  1  0  0  0  0
  8 13  1  0  0  0  0
 10  5  1  0  0  0  0
 12  7  1  0  0  0  0
 15 14  2  0  0  0  0
 16  6  1  0  0  0  0
 16 15  1  0  0  0  0
 17 15  1  0  0  0  0
 17 20  1  0  0  0  0
 18 17  1  0  0  0  0
 19 17  1  0  0  0  0
M  RAD  3   1   2   2   2   3   3
M  END
