Coordinates from ORCA-job PhN2+~CF3COO-_B3LYPG-6-31G_dp-NX-Scan-d89-09-n800
 OpenBabel11261920123D

 20 20  0  0  1  0  0  0  0  0999 V2000
   -4.9978   -1.4684    1.3638 C   0  0  1  0  0  0  0  0  0  0  0  0
   -5.3558   -0.6184    2.3036 N   0  0  0  0  0  0  0  0  0  0  0  0
   -5.6258    0.2106    3.0294 N   0  0  0  0  0  0  0  0  0  0  0  0
   -5.9035   -1.6157    0.2369 C   0  0  0  0  0  0  0  0  0  0  0  0
   -5.3891   -1.6297   -1.0072 C   0  0  0  0  0  0  0  0  0  0  0  0
   -3.9462   -1.3135   -1.2187 C   0  0  2  0  0  0  0  0  0  0  0  0
   -3.0743   -1.6928   -0.0685 C   0  0  0  0  0  0  0  0  0  0  0  0
   -3.5711   -1.6784    1.1827 C   0  0  0  0  0  0  0  0  0  0  0  0
   -6.9704   -1.7022    0.4227 H   0  0  0  0  0  0  0  0  0  0  0  0
   -6.0193   -1.7885   -1.8761 H   0  0  0  0  0  0  0  0  0  0  0  0
   -3.5732   -1.7056   -2.1646 H   0  0  0  0  0  0  0  0  0  0  0  0
   -2.0256   -1.8984   -0.2569 H   0  0  0  0  0  0  0  0  0  0  0  0
   -2.9399   -1.8101    2.0567 H   0  0  0  0  0  0  0  0  0  0  0  0
   -4.5641    1.0736    0.4583 O   0  0  0  0  0  0  0  0  0  0  0  0
   -4.1044    1.1424   -0.6600 C   0  0  0  0  0  0  0  0  0  0  0  0
   -3.7798    0.1895   -1.5264 O   0  0  0  0  0  0  0  0  0  0  0  0
   -3.7890    2.5128   -1.3145 C   0  0  0  0  0  0  0  0  0  0  0  0
   -2.4738    2.6142   -1.5870 F   0  0  0  0  0  0  0  0  0  0  0  0
   -4.4685    2.6592   -2.4676 F   0  0  0  0  0  0  0  0  0  0  0  0
   -4.1283    3.5124   -0.4946 F   0  0  0  0  0  0  0  0  0  0  0  0
  1  2  1  6  0  0  0
  2  3  1  0  0  0  0
  4  9  1  0  0  0  0
  4  1  1  0  0  0  0
  5  4  2  0  0  0  0
  6 11  1  6  0  0  0
  6  5  1  0  0  0  0
  6  7  1  0  0  0  0
  7  8  2  0  0  0  0
  8  1  1  0  0  0  0
  8 13  1  0  0  0  0
 10  5  1  0  0  0  0
 12  7  1  0  0  0  0
 15 14  2  0  0  0  0
 16  6  1  0  0  0  0
 16 15  1  0  0  0  0
 17 15  1  0  0  0  0
 17 20  1  0  0  0  0
 18 17  1  0  0  0  0
 19 17  1  0  0  0  0
M  RAD  3   1   2   2   2   3   3
M  END
