Coordinates from ORCA-job PhN2+~CF3COO-_B3LYPG-6-31G_dp-NX-Scan-d89-09-n800
 OpenBabel11261920123D

 20 20  0  0  0  0  0  0  0  0999 V2000
   -3.8311   -1.1314    0.2313 C   0  0  0  0  0  0  0  0  0  0  0  0
   -3.4949    0.1150    0.8141 N   0  0  0  0  0  0  0  0  0  0  0  0
   -3.8735    1.2525    0.5788 N   0  0  0  0  0  0  0  0  0  0  0  0
   -4.6947   -1.3961   -0.8538 C   0  0  0  0  0  0  0  0  0  0  0  0
   -4.8745   -2.7133   -1.2702 C   0  0  0  0  0  0  0  0  0  0  0  0
   -4.2182   -3.7675   -0.6297 C   0  0  0  0  0  0  0  0  0  0  0  0
   -3.3635   -3.5090    0.4441 C   0  0  0  0  0  0  0  0  0  0  0  0
   -3.1704   -2.1991    0.8680 C   0  0  0  0  0  0  0  0  0  0  0  0
   -5.2106   -0.5960   -1.3595 H   0  0  0  0  0  0  0  0  0  0  0  0
   -5.5366   -2.9163   -2.1066 H   0  0  0  0  0  0  0  0  0  0  0  0
   -4.3731   -4.7875   -0.9688 H   0  0  0  0  0  0  0  0  0  0  0  0
   -2.8503   -4.3228    0.9458 H   0  0  0  0  0  0  0  0  0  0  0  0
   -2.5109   -1.9652    1.6971 H   0  0  0  0  0  0  0  0  0  0  0  0
   -4.8406    1.3408   -0.4854 O   0  0  0  0  0  0  0  0  0  0  0  0
   -5.2904    2.5891   -0.7714 C   0  0  0  0  0  0  0  0  0  0  0  0
   -6.0987    2.7532   -1.6427 O   0  0  0  0  0  0  0  0  0  0  0  0
   -4.7343    3.7853    0.0527 C   0  0  0  0  0  0  0  0  0  0  0  0
   -3.4058    3.9023   -0.0990 F   0  0  0  0  0  0  0  0  0  0  0  0
   -5.3076    4.9077   -0.3899 F   0  0  0  0  0  0  0  0  0  0  0  0
   -5.0203    3.6516    1.3571 F   0  0  0  0  0  0  0  0  0  0  0  0
  1  2  1  0  0  0  0
  1  8  2  0  0  0  0
  3  2  1  0  0  0  0
  4  1  1  0  0  0  0
  5  4  2  0  0  0  0
  5  6  1  0  0  0  0
  6  7  2  0  0  0  0
  7  8  1  0  0  0  0
  7 12  1  0  0  0  0
  8 13  1  0  0  0  0
  9  4  1  0  0  0  0
 10  5  1  0  0  0  0
 11  6  1  0  0  0  0
 14  3  1  0  0  0  0
 15 14  1  0  0  0  0
 15 17  1  0  0  0  0
 16 15  2  0  0  0  0
 17 20  1  0  0  0  0
 18 17  1  0  0  0  0
 19 17  1  0  0  0  0
M  RAD  2   2   2   3   2
M  END
