Coordinates from ORCA-job PhN2+~CF3COO-_B3LYPG-6-31G_dp-NX-Scan-d89-09-n800
 OpenBabel11261920123D

 20 20  0  0  1  0  0  0  0  0999 V2000
   -4.9229   -1.5012    1.3894 C   0  0  1  0  0  0  0  0  0  0  0  0
   -5.1975   -0.4090    2.1179 N   0  0  0  0  0  0  0  0  0  0  0  0
   -5.3662    0.6946    2.3064 N   0  0  0  0  0  0  0  0  0  0  0  0
   -5.8764   -1.7313    0.3113 C   0  0  0  0  0  0  0  0  0  0  0  0
   -5.4215   -1.7595   -0.9573 C   0  0  0  0  0  0  0  0  0  0  0  0
   -4.0167   -1.3521   -1.2226 C   0  0  2  0  0  0  0  0  0  0  0  0
   -3.0749   -1.7322   -0.1341 C   0  0  0  0  0  0  0  0  0  0  0  0
   -3.5022   -1.6996    1.1462 C   0  0  0  0  0  0  0  0  0  0  0  0
   -6.9285   -1.8574    0.5515 H   0  0  0  0  0  0  0  0  0  0  0  0
   -6.0722   -2.0006   -1.7917 H   0  0  0  0  0  0  0  0  0  0  0  0
   -3.6663   -1.6547   -2.2075 H   0  0  0  0  0  0  0  0  0  0  0  0
   -2.0397   -1.9396   -0.3836 H   0  0  0  0  0  0  0  0  0  0  0  0
   -2.8202   -1.7915    1.9873 H   0  0  0  0  0  0  0  0  0  0  0  0
   -5.0674    1.1145    0.3415 O   0  0  0  0  0  0  0  0  0  0  0  0
   -4.3429    1.1534   -0.6388 C   0  0  0  0  0  0  0  0  0  0  0  0
   -3.8979    0.2020   -1.4439 O   0  0  0  0  0  0  0  0  0  0  0  0
   -3.7586    2.5065   -1.1275 C   0  0  0  0  0  0  0  0  0  0  0  0
   -2.4136    2.4946   -1.0447 F   0  0  0  0  0  0  0  0  0  0  0  0
   -4.0972    2.7404   -2.4088 F   0  0  0  0  0  0  0  0  0  0  0  0
   -4.2170    3.5157   -0.3790 F   0  0  0  0  0  0  0  0  0  0  0  0
  1  2  1  6  0  0  0
  2  3  1  0  0  0  0
  4  9  1  0  0  0  0
  4  1  1  0  0  0  0
  5  4  2  0  0  0  0
  6 11  1  6  0  0  0
  6  5  1  0  0  0  0
  6  7  1  0  0  0  0
  7  8  2  0  0  0  0
  8  1  1  0  0  0  0
  8 13  1  0  0  0  0
 10  5  1  0  0  0  0
 12  7  1  0  0  0  0
 15 14  2  0  0  0  0
 16  6  1  0  0  0  0
 16 15  1  0  0  0  0
 17 18  1  0  0  0  0
 17 15  1  0  0  0  0
 17 20  1  0  0  0  0
 19 17  1  0  0  0  0
M  RAD  3   1   2   2   2   3   3
M  END
