Coordinates from ORCA-job PhN2+~CF3COO-_B3LYPG-6-31G_dp-NX-Scan-d89-09-n800
 OpenBabel11261920123D

 20 20  0  0  1  0  0  0  0  0999 V2000
   -5.0027   -1.5246    1.3768 C   0  0  1  0  0  0  0  0  0  0  0  0
   -5.2883   -0.4809    2.1521 N   0  0  0  0  0  0  0  0  0  0  0  0
   -5.4114    0.5780    2.5271 N   0  0  0  0  0  0  0  0  0  0  0  0
   -5.9077   -1.6826    0.2440 C   0  0  0  0  0  0  0  0  0  0  0  0
   -5.3913   -1.6764   -1.0001 C   0  0  0  0  0  0  0  0  0  0  0  0
   -3.9555   -1.3240   -1.1996 C   0  0  2  0  0  0  0  0  0  0  0  0
   -3.0795   -1.7385   -0.0654 C   0  0  0  0  0  0  0  0  0  0  0  0
   -3.5732   -1.7445    1.1878 C   0  0  0  0  0  0  0  0  0  0  0  0
   -6.9743   -1.7855    0.4255 H   0  0  0  0  0  0  0  0  0  0  0  0
   -6.0125   -1.8533   -1.8723 H   0  0  0  0  0  0  0  0  0  0  0  0
   -3.5760   -1.6675   -2.1612 H   0  0  0  0  0  0  0  0  0  0  0  0
   -2.0363   -1.9611   -0.2650 H   0  0  0  0  0  0  0  0  0  0  0  0
   -2.9380   -1.8922    2.0570 H   0  0  0  0  0  0  0  0  0  0  0  0
   -4.6070    1.0711    0.5379 O   0  0  0  0  0  0  0  0  0  0  0  0
   -4.1400    1.1438   -0.5813 C   0  0  0  0  0  0  0  0  0  0  0  0
   -3.8104    0.1996   -1.4533 O   0  0  0  0  0  0  0  0  0  0  0  0
   -3.8234    2.5199   -1.2257 C   0  0  0  0  0  0  0  0  0  0  0  0
   -2.5068    2.6253   -1.4890 F   0  0  0  0  0  0  0  0  0  0  0  0
   -4.4961    2.6724   -2.3817 F   0  0  0  0  0  0  0  0  0  0  0  0
   -4.1694    3.5140   -0.4015 F   0  0  0  0  0  0  0  0  0  0  0  0
  1  2  1  6  0  0  0
  2  3  1  0  0  0  0
  4  9  1  0  0  0  0
  4  1  1  0  0  0  0
  5  4  2  0  0  0  0
  6 11  1  6  0  0  0
  6  5  1  0  0  0  0
  6  7  1  0  0  0  0
  7  8  2  0  0  0  0
  8  1  1  0  0  0  0
  8 13  1  0  0  0  0
 10  5  1  0  0  0  0
 12  7  1  0  0  0  0
 15 14  2  0  0  0  0
 16  6  1  0  0  0  0
 16 15  1  0  0  0  0
 17 15  1  0  0  0  0
 17 20  1  0  0  0  0
 18 17  1  0  0  0  0
 19 17  1  0  0  0  0
M  RAD  3   1   2   2   2   3   3
M  END
