Coordinates from ORCA-job PhN2+~CF3COO-_B3LYPG-6-31G_dp-NX-Scan-d89-09-n800
 OpenBabel11261920123D

 20 20  0  0  1  0  0  0  0  0999 V2000
   -5.1773   -1.7732    1.5602 C   0  0  0  0  0  0  0  0  0  0  0  0
   -5.6779   -2.1196    2.7245 N   0  0  0  0  0  0  0  0  0  0  0  0
   -6.1127   -2.3940    3.7432 N   0  0  0  0  0  0  0  0  0  0  0  0
   -6.0147   -1.0986    0.5918 C   0  0  0  0  0  0  0  0  0  0  0  0
   -5.4578   -0.5904   -0.5240 C   0  0  0  0  0  0  0  0  0  0  0  0
   -3.9736   -0.5485   -0.6983 C   0  0  2  0  0  0  0  0  0  0  0  0
   -3.2472   -1.5599    0.1275 C   0  0  0  0  0  0  0  0  0  0  0  0
   -3.7965   -2.0729    1.2447 C   0  0  0  0  0  0  0  0  0  0  0  0
   -7.0840   -1.0438    0.7718 H   0  0  0  0  0  0  0  0  0  0  0  0
   -6.0723   -0.1153   -1.2797 H   0  0  0  0  0  0  0  0  0  0  0  0
   -3.6712   -0.5849   -1.7441 H   0  0  0  0  0  0  0  0  0  0  0  0
   -2.2254   -1.7997   -0.1445 H   0  0  0  0  0  0  0  0  0  0  0  0
   -3.2401   -2.7337    1.9025 H   0  0  0  0  0  0  0  0  0  0  0  0
   -3.4045    3.0003   -0.1965 O   0  0  0  0  0  0  0  0  0  0  0  0
   -3.5092    1.9502   -0.7780 C   0  0  0  0  0  0  0  0  0  0  0  0
   -3.4910    0.7827   -0.1406 O   0  0  0  0  0  0  0  0  0  0  0  0
   -3.6117    1.9353   -2.3268 C   0  0  0  0  0  0  0  0  0  0  0  0
   -2.6437    1.1570   -2.8642 F   0  0  0  0  0  0  0  0  0  0  0  0
   -4.8047    1.4389   -2.7367 F   0  0  0  0  0  0  0  0  0  0  0  0
   -3.4845    3.1633   -2.8208 F   0  0  0  0  0  0  0  0  0  0  0  0
  1  2  1  0  0  0  0
  2  3  1  0  0  0  0
  4  9  1  0  0  0  0
  4  1  2  0  0  0  0
  5  4  1  0  0  0  0
  6 11  1  6  0  0  0
  6  5  1  0  0  0  0
  6 16  1  0  0  0  0
  6  7  1  0  0  0  0
  7  8  2  0  0  0  0
  8  1  1  0  0  0  0
  8 13  1  0  0  0  0
 10  5  1  0  0  0  0
 12  7  1  0  0  0  0
 15 14  2  0  0  0  0
 15 16  1  0  0  0  0
 17 15  1  0  0  0  0
 18 17  1  0  0  0  0
 19 17  1  0  0  0  0
 20 17  1  0  0  0  0
M  RAD  3   2   2   3   3   5   2
M  END
