Coordinates from ORCA-job PhN2+~CF3COO-_B3LYPG-6-31G_dp-NX-Scan-d89-09-n800
 OpenBabel11261920123D

 20 20  0  0  1  0  0  0  0  0999 V2000
   -5.1537   -1.7130    1.5412 C   0  0  0  0  0  0  0  0  0  0  0  0
   -5.6315   -1.9218    2.7473 N   0  0  0  0  0  0  0  0  0  0  0  0
   -6.0467   -2.0678    3.7999 N   0  0  0  0  0  0  0  0  0  0  0  0
   -5.9907   -1.0884    0.5387 C   0  0  0  0  0  0  0  0  0  0  0  0
   -5.4287   -0.6540   -0.6058 C   0  0  0  0  0  0  0  0  0  0  0  0
   -3.9406   -0.6203   -0.7540 C   0  0  2  0  0  0  0  0  0  0  0  0
   -3.2440   -1.6537    0.0710 C   0  0  0  0  0  0  0  0  0  0  0  0
   -3.7939   -2.0943    1.2188 C   0  0  0  0  0  0  0  0  0  0  0  0
   -7.0588   -1.0134    0.7185 H   0  0  0  0  0  0  0  0  0  0  0  0
   -6.0353   -0.2242   -1.3936 H   0  0  0  0  0  0  0  0  0  0  0  0
   -3.6163   -0.6324   -1.7937 H   0  0  0  0  0  0  0  0  0  0  0  0
   -2.2432   -1.9551   -0.2163 H   0  0  0  0  0  0  0  0  0  0  0  0
   -3.2588   -2.7538    1.8953 H   0  0  0  0  0  0  0  0  0  0  0  0
   -3.5804    2.9063   -0.0520 O   0  0  0  0  0  0  0  0  0  0  0  0
   -3.5792    1.8923   -0.7031 C   0  0  0  0  0  0  0  0  0  0  0  0
   -3.4547    0.6901   -0.1473 O   0  0  0  0  0  0  0  0  0  0  0  0
   -3.6449    1.9659   -2.2524 C   0  0  0  0  0  0  0  0  0  0  0  0
   -2.6417    1.2491   -2.8090 F   0  0  0  0  0  0  0  0  0  0  0  0
   -4.8115    1.4578   -2.7196 F   0  0  0  0  0  0  0  0  0  0  0  0
   -3.5453    3.2241   -2.6720 F   0  0  0  0  0  0  0  0  0  0  0  0
  1  2  1  0  0  0  0
  2  3  1  0  0  0  0
  4  9  1  0  0  0  0
  4  1  2  0  0  0  0
  5  4  1  0  0  0  0
  6 11  1  6  0  0  0
  6  5  1  0  0  0  0
  6 16  1  0  0  0  0
  6  7  1  0  0  0  0
  7  8  2  0  0  0  0
  8  1  1  0  0  0  0
  8 13  1  0  0  0  0
 10  5  1  0  0  0  0
 12  7  1  0  0  0  0
 15 16  1  0  0  0  0
 15 14  2  0  0  0  0
 17 15  1  0  0  0  0
 18 17  1  0  0  0  0
 19 17  1  0  0  0  0
 20 17  1  0  0  0  0
M  RAD  3   2   2   3   3   5   2
M  END
