Coordinates from ORCA-job PhN2+~CF3COO-_B3LYPG-6-31G_dp-NX-Scan-d89-09-n800
 OpenBabel11261920123D

 20 20  0  0  1  0  0  0  0  0999 V2000
   -4.9984   -1.4778    1.3637 C   0  0  1  0  0  0  0  0  0  0  0  0
   -5.3408   -0.5807    2.2669 N   0  0  0  0  0  0  0  0  0  0  0  0
   -5.5884    0.2987    2.9378 N   0  0  0  0  0  0  0  0  0  0  0  0
   -5.9041   -1.6301    0.2357 C   0  0  0  0  0  0  0  0  0  0  0  0
   -5.3890   -1.6412   -1.0081 C   0  0  0  0  0  0  0  0  0  0  0  0
   -3.9473   -1.3167   -1.2166 C   0  0  2  0  0  0  0  0  0  0  0  0
   -3.0746   -1.7033   -0.0694 C   0  0  0  0  0  0  0  0  0  0  0  0
   -3.5710   -1.6918    1.1819 C   0  0  0  0  0  0  0  0  0  0  0  0
   -6.9709   -1.7198    0.4207 H   0  0  0  0  0  0  0  0  0  0  0  0
   -6.0169   -1.8046   -1.8779 H   0  0  0  0  0  0  0  0  0  0  0  0
   -3.5726   -1.6985   -2.1659 H   0  0  0  0  0  0  0  0  0  0  0  0
   -2.0271   -1.9127   -0.2599 H   0  0  0  0  0  0  0  0  0  0  0  0
   -2.9396   -1.8262    2.0555 H   0  0  0  0  0  0  0  0  0  0  0  0
   -4.5675    1.0699    0.4784 O   0  0  0  0  0  0  0  0  0  0  0  0
   -4.1106    1.1401   -0.6413 C   0  0  0  0  0  0  0  0  0  0  0  0
   -3.7865    0.1901   -1.5113 O   0  0  0  0  0  0  0  0  0  0  0  0
   -3.7973    2.5123   -1.2936 C   0  0  0  0  0  0  0  0  0  0  0  0
   -2.4828    2.6148   -1.5688 F   0  0  0  0  0  0  0  0  0  0  0  0
   -4.4795    2.6608   -2.4448 F   0  0  0  0  0  0  0  0  0  0  0  0
   -4.1351    3.5099   -0.4708 F   0  0  0  0  0  0  0  0  0  0  0  0
  1  2  1  6  0  0  0
  2  3  1  0  0  0  0
  4  9  1  0  0  0  0
  4  1  1  0  0  0  0
  5  4  2  0  0  0  0
  6 11  1  6  0  0  0
  6  5  1  0  0  0  0
  6  7  1  0  0  0  0
  7  8  2  0  0  0  0
  8  1  1  0  0  0  0
  8 13  1  0  0  0  0
 10  5  1  0  0  0  0
 12  7  1  0  0  0  0
 15 14  2  0  0  0  0
 16  6  1  0  0  0  0
 16 15  1  0  0  0  0
 17 15  1  0  0  0  0
 17 20  1  0  0  0  0
 18 17  1  0  0  0  0
 19 17  1  0  0  0  0
M  RAD  3   1   2   2   2   3   3
M  END
