Coordinates from ORCA-job PhN2+~CF3COO-_B3LYPG-6-31G_dp-NX-Scan-d89-09-n800
 OpenBabel11261920123D

 20 20  0  0  1  0  0  0  0  0999 V2000
   -5.1700   -1.7540    1.5545 C   0  0  0  0  0  0  0  0  0  0  0  0
   -5.6643   -2.0564    2.7337 N   0  0  0  0  0  0  0  0  0  0  0  0
   -6.0938   -2.2895    3.7646 N   0  0  0  0  0  0  0  0  0  0  0  0
   -6.0069   -1.0958    0.5744 C   0  0  0  0  0  0  0  0  0  0  0  0
   -5.4481   -0.6115   -0.5511 C   0  0  0  0  0  0  0  0  0  0  0  0
   -3.9627   -0.5721   -0.7166 C   0  0  2  0  0  0  0  0  0  0  0  0
   -3.2457   -1.5906    0.1088 C   0  0  0  0  0  0  0  0  0  0  0  0
   -3.7955   -2.0801    1.2364 C   0  0  0  0  0  0  0  0  0  0  0  0
   -7.0759   -1.0346    0.7541 H   0  0  0  0  0  0  0  0  0  0  0  0
   -6.0600   -0.1511   -1.3178 H   0  0  0  0  0  0  0  0  0  0  0  0
   -3.6528   -0.6001   -1.7604 H   0  0  0  0  0  0  0  0  0  0  0  0
   -2.2302   -1.8503   -0.1683 H   0  0  0  0  0  0  0  0  0  0  0  0
   -3.2460   -2.7404    1.9003 H   0  0  0  0  0  0  0  0  0  0  0  0
   -3.4589    2.9726   -0.1495 O   0  0  0  0  0  0  0  0  0  0  0  0
   -3.5306    1.9326   -0.7537 C   0  0  0  0  0  0  0  0  0  0  0  0
   -3.4794    0.7524   -0.1422 O   0  0  0  0  0  0  0  0  0  0  0  0
   -3.6226    1.9458   -2.3032 C   0  0  0  0  0  0  0  0  0  0  0  0
   -2.6438    1.1870   -2.8483 F   0  0  0  0  0  0  0  0  0  0  0  0
   -4.8079    1.4451   -2.7301 F   0  0  0  0  0  0  0  0  0  0  0  0
   -3.5046    3.1839   -2.7737 F   0  0  0  0  0  0  0  0  0  0  0  0
  1  2  1  0  0  0  0
  2  3  1  0  0  0  0
  4  9  1  0  0  0  0
  4  1  2  0  0  0  0
  5  4  1  0  0  0  0
  6 11  1  6  0  0  0
  6  5  1  0  0  0  0
  6 16  1  0  0  0  0
  6  7  1  0  0  0  0
  7  8  2  0  0  0  0
  8  1  1  0  0  0  0
  8 13  1  0  0  0  0
 10  5  1  0  0  0  0
 12  7  1  0  0  0  0
 15 14  2  0  0  0  0
 15 16  1  0  0  0  0
 17 15  1  0  0  0  0
 18 17  1  0  0  0  0
 19 17  1  0  0  0  0
 20 17  1  0  0  0  0
M  RAD  3   2   2   3   3   5   2
M  END
