Coordinates from ORCA-job PhN2+~CF3COO-_B3LYPG-6-31G_dp-NX-Scan-d89-09-n800
 OpenBabel11261920123D

 20 20  0  0  1  0  0  0  0  0999 V2000
   -5.0701   -1.5441    1.5324 C   0  0  0  0  0  0  0  0  0  0  0  0
   -5.5666   -1.6525    2.7442 N   0  0  0  0  0  0  0  0  0  0  0  0
   -5.9984   -1.7464    3.7981 N   0  0  0  0  0  0  0  0  0  0  0  0
   -5.9579   -1.4679    0.3922 C   0  0  0  0  0  0  0  0  0  0  0  0
   -5.4511   -1.3050   -0.8438 C   0  0  0  0  0  0  0  0  0  0  0  0
   -3.9874   -1.1286   -1.0961 C   0  0  2  0  0  0  0  0  0  0  0  0
   -3.1268   -1.3704    0.1031 C   0  0  0  0  0  0  0  0  0  0  0  0
   -3.6361   -1.5320    1.3383 C   0  0  0  0  0  0  0  0  0  0  0  0
   -7.0266   -1.5692    0.5554 H   0  0  0  0  0  0  0  0  0  0  0  0
   -6.1099   -1.2749   -1.7059 H   0  0  0  0  0  0  0  0  0  0  0  0
   -3.6591   -1.7377   -1.9445 H   0  0  0  0  0  0  0  0  0  0  0  0
   -2.0525   -1.3884   -0.0529 H   0  0  0  0  0  0  0  0  0  0  0  0
   -2.9918   -1.6795    2.1995 H   0  0  0  0  0  0  0  0  0  0  0  0
   -4.4196    1.4222    0.1335 O   0  0  0  0  0  0  0  0  0  0  0  0
   -3.9659    1.3285   -0.9790 C   0  0  0  0  0  0  0  0  0  0  0  0
   -3.7060    0.2344   -1.6917 O   0  0  0  0  0  0  0  0  0  0  0  0
   -3.5826    2.5700   -1.8229 C   0  0  0  0  0  0  0  0  0  0  0  0
   -2.2703    2.5482   -2.1253 F   0  0  0  0  0  0  0  0  0  0  0  0
   -4.2780    2.5936   -2.9757 F   0  0  0  0  0  0  0  0  0  0  0  0
   -3.8432    3.6927   -1.1470 F   0  0  0  0  0  0  0  0  0  0  0  0
  1  2  1  0  0  0  0
  2  3  1  0  0  0  0
  4  9  1  0  0  0  0
  4  1  2  0  0  0  0
  5  4  1  0  0  0  0
  6 11  1  6  0  0  0
  6  5  1  0  0  0  0
  6  7  1  0  0  0  0
  7  8  2  0  0  0  0
  8  1  1  0  0  0  0
  8 13  1  0  0  0  0
 10  5  1  0  0  0  0
 12  7  1  0  0  0  0
 15 14  2  0  0  0  0
 16  6  1  0  0  0  0
 16 15  1  0  0  0  0
 17 20  1  0  0  0  0
 17 15  1  0  0  0  0
 18 17  1  0  0  0  0
 19 17  1  0  0  0  0
M  RAD  3   2   2   3   3   5   2
M  END
