Coordinates from ORCA-job PhN2+~CF3COO-_B3LYPG-6-31G_dp-NX-Scan-d89-09-n800
 OpenBabel11261920123D

 20 20  0  0  1  0  0  0  0  0999 V2000
   -5.0171   -1.4287    1.4120 C   0  0  1  0  0  0  0  0  0  0  0  0
   -5.4801   -1.0476    2.5797 N   0  0  0  0  0  0  0  0  0  0  0  0
   -5.8758   -0.6805    3.5832 N   0  0  0  0  0  0  0  0  0  0  0  0
   -5.9165   -1.5107    0.2823 C   0  0  0  0  0  0  0  0  0  0  0  0
   -5.4059   -1.5006   -0.9637 C   0  0  0  0  0  0  0  0  0  0  0  0
   -3.9521   -1.2536   -1.1977 C   0  0  2  0  0  0  0  0  0  0  0  0
   -3.0867   -1.5667   -0.0220 C   0  0  0  0  0  0  0  0  0  0  0  0
   -3.5901   -1.5762    1.2269 C   0  0  0  0  0  0  0  0  0  0  0  0
   -6.9838   -1.5936    0.4645 H   0  0  0  0  0  0  0  0  0  0  0  0
   -6.0522   -1.6024   -1.8292 H   0  0  0  0  0  0  0  0  0  0  0  0
   -3.5978   -1.7460   -2.1048 H   0  0  0  0  0  0  0  0  0  0  0  0
   -2.0261   -1.7174   -0.1946 H   0  0  0  0  0  0  0  0  0  0  0  0
   -2.9573   -1.7061    2.0994 H   0  0  0  0  0  0  0  0  0  0  0  0
   -4.4924    1.1708    0.3014 O   0  0  0  0  0  0  0  0  0  0  0  0
   -4.0358    1.1991   -0.8171 C   0  0  0  0  0  0  0  0  0  0  0  0
   -3.7323    0.1980   -1.6366 O   0  0  0  0  0  0  0  0  0  0  0  0
   -3.7027    2.5350   -1.5285 C   0  0  0  0  0  0  0  0  0  0  0  0
   -2.3868    2.6058   -1.8076 F   0  0  0  0  0  0  0  0  0  0  0  0
   -4.3827    2.6420   -2.6856 F   0  0  0  0  0  0  0  0  0  0  0  0
   -4.0258    3.5725   -0.7501 F   0  0  0  0  0  0  0  0  0  0  0  0
  1  2  1  6  0  0  0
  2  3  1  0  0  0  0
  4  9  1  0  0  0  0
  4  1  1  0  0  0  0
  5  4  2  0  0  0  0
  6 11  1  6  0  0  0
  6  5  1  0  0  0  0
  6  7  1  0  0  0  0
  7  8  2  0  0  0  0
  8  1  1  0  0  0  0
  8 13  1  0  0  0  0
 10  5  1  0  0  0  0
 12  7  1  0  0  0  0
 15 14  2  0  0  0  0
 16  6  1  0  0  0  0
 16 15  1  0  0  0  0
 17 15  1  0  0  0  0
 17 20  1  0  0  0  0
 18 17  1  0  0  0  0
 19 17  1  0  0  0  0
M  RAD  3   1   2   2   2   3   3
M  END
