Coordinates from ORCA-job PhN2+~CF3COO-_B3LYPG-6-31G_dp-NX-Scan-d89-09-n800
 OpenBabel11261920123D

 20 20  0  0  1  0  0  0  0  0999 V2000
   -5.2324   -1.9252    1.5774 C   0  0  0  0  0  0  0  0  0  0  0  0
   -5.7741   -2.6414    2.5369 N   0  0  0  0  0  0  0  0  0  0  0  0
   -6.2446   -3.2623    3.3735 N   0  0  0  0  0  0  0  0  0  0  0  0
   -6.0652   -1.0974    0.7300 C   0  0  0  0  0  0  0  0  0  0  0  0
   -5.5145   -0.3779   -0.2659 C   0  0  0  0  0  0  0  0  0  0  0  0
   -4.0402   -0.3328   -0.5144 C   0  0  2  0  0  0  0  0  0  0  0  0
   -3.2549   -1.2768    0.3394 C   0  0  0  0  0  0  0  0  0  0  0  0
   -3.8072   -1.9984    1.3324 C   0  0  0  0  0  0  0  0  0  0  0  0
   -7.1375   -1.0900    0.9010 H   0  0  0  0  0  0  0  0  0  0  0  0
   -6.1415    0.2233   -0.9147 H   0  0  0  0  0  0  0  0  0  0  0  0
   -3.8021   -0.4754   -1.5690 H   0  0  0  0  0  0  0  0  0  0  0  0
   -2.1894   -1.3441    0.1449 H   0  0  0  0  0  0  0  0  0  0  0  0
   -3.2051   -2.6598    1.9475 H   0  0  0  0  0  0  0  0  0  0  0  0
   -2.9197    3.1272   -0.6270 O   0  0  0  0  0  0  0  0  0  0  0  0
   -3.3177    2.0506   -0.9937 C   0  0  0  0  0  0  0  0  0  0  0  0
   -3.5428    1.0473   -0.1444 O   0  0  0  0  0  0  0  0  0  0  0  0
   -3.5697    1.8171   -2.5093 C   0  0  0  0  0  0  0  0  0  0  0  0
   -2.7299    0.8730   -2.9972 F   0  0  0  0  0  0  0  0  0  0  0  0
   -4.8364    1.3967   -2.7417 F   0  0  0  0  0  0  0  0  0  0  0  0
   -3.3749    2.9394   -3.1937 F   0  0  0  0  0  0  0  0  0  0  0  0
  1  2  1  0  0  0  0
  2  3  1  0  0  0  0
  4  9  1  0  0  0  0
  4  1  2  0  0  0  0
  5  4  1  0  0  0  0
  6 11  1  6  0  0  0
  6  5  1  0  0  0  0
  6 16  1  0  0  0  0
  6  7  1  0  0  0  0
  7  8  2  0  0  0  0
  8  1  1  0  0  0  0
  8 13  1  0  0  0  0
 10  5  1  0  0  0  0
 12  7  1  0  0  0  0
 15 14  2  0  0  0  0
 15 16  1  0  0  0  0
 17 15  1  0  0  0  0
 18 17  1  0  0  0  0
 19 17  1  0  0  0  0
 20 17  1  0  0  0  0
M  RAD  3   2   2   3   3   5   2
M  END
