Coordinates from ORCA-job PhN2+~CF3COO-_B3LYPG-6-31G_dp-NX-Scan-d89-09-n800
 OpenBabel11261920123D

 20 20  0  0  1  0  0  0  0  0999 V2000
   -5.0996   -1.5665    1.4841 C   0  0  1  0  0  0  0  0  0  0  0  0
   -5.5327   -1.4926    2.7226 N   0  0  0  0  0  0  0  0  0  0  0  0
   -5.9098   -1.3771    3.7924 N   0  0  0  0  0  0  0  0  0  0  0  0
   -5.9180   -1.0337    0.4133 C   0  0  0  0  0  0  0  0  0  0  0  0
   -5.3316   -0.7662   -0.7699 C   0  0  0  0  0  0  0  0  0  0  0  0
   -3.8369   -0.7821   -0.8606 C   0  0  2  0  0  0  0  0  0  0  0  0
   -3.2277   -1.8449   -0.0014 C   0  0  0  0  0  0  0  0  0  0  0  0
   -3.7933   -2.1239    1.1894 C   0  0  0  0  0  0  0  0  0  0  0  0
   -6.9826   -0.8984    0.5781 H   0  0  0  0  0  0  0  0  0  0  0  0
   -5.9101   -0.4306   -1.6212 H   0  0  0  0  0  0  0  0  0  0  0  0
   -3.4680   -0.7951   -1.8862 H   0  0  0  0  0  0  0  0  0  0  0  0
   -2.2780   -2.2802   -0.2900 H   0  0  0  0  0  0  0  0  0  0  0  0
   -3.3200   -2.7746    1.9182 H   0  0  0  0  0  0  0  0  0  0  0  0
   -3.9272    2.5882    0.2481 O   0  0  0  0  0  0  0  0  0  0  0  0
   -3.7054    1.7205   -0.5575 C   0  0  0  0  0  0  0  0  0  0  0  0
   -3.3100    0.4955   -0.2113 O   0  0  0  0  0  0  0  0  0  0  0  0
   -3.7701    2.0261   -2.0790 C   0  0  0  0  0  0  0  0  0  0  0  0
   -2.7458    1.4351   -2.7316 F   0  0  0  0  0  0  0  0  0  0  0  0
   -4.9185    1.5557   -2.6220 F   0  0  0  0  0  0  0  0  0  0  0  0
   -3.7144    3.3381   -2.3034 F   0  0  0  0  0  0  0  0  0  0  0  0
  1  2  1  1  0  0  0
  2  3  1  0  0  0  0
  4  9  1  0  0  0  0
  4  1  1  0  0  0  0
  5  4  2  0  0  0  0
  6 11  1  6  0  0  0
  6  5  1  0  0  0  0
  6 16  1  0  0  0  0
  6  7  1  0  0  0  0
  7  8  2  0  0  0  0
  8  1  1  0  0  0  0
  8 13  1  0  0  0  0
 10  5  1  0  0  0  0
 12  7  1  0  0  0  0
 15 16  1  0  0  0  0
 15 14  2  0  0  0  0
 17 15  1  0  0  0  0
 18 17  1  0  0  0  0
 19 17  1  0  0  0  0
 20 17  1  0  0  0  0
M  RAD  3   1   2   2   2   3   3
M  END
