Coordinates from ORCA-job PhN2+~CF3COO-_B3LYPG-6-31G_dp-NX-Scan-d89-09-n800
 OpenBabel11261920123D

 20 20  0  0  0  0  0  0  0  0999 V2000
   -3.8048   -1.1850    0.2688 C   0  0  0  0  0  0  0  0  0  0  0  0
   -3.5171    0.0795    0.8140 N   0  0  0  0  0  0  0  0  0  0  0  0
   -3.7970    1.2149    0.6841 N   0  0  0  0  0  0  0  0  0  0  0  0
   -4.6791   -1.4047   -0.8130 C   0  0  0  0  0  0  0  0  0  0  0  0
   -4.8671   -2.7128   -1.2510 C   0  0  0  0  0  0  0  0  0  0  0  0
   -4.2072   -3.7785   -0.6315 C   0  0  0  0  0  0  0  0  0  0  0  0
   -3.3423   -3.5486    0.4420 C   0  0  0  0  0  0  0  0  0  0  0  0
   -3.1372   -2.2501    0.8945 C   0  0  0  0  0  0  0  0  0  0  0  0
   -5.1812   -0.5687   -1.2771 H   0  0  0  0  0  0  0  0  0  0  0  0
   -5.5360   -2.8998   -2.0851 H   0  0  0  0  0  0  0  0  0  0  0  0
   -4.3682   -4.7917   -0.9875 H   0  0  0  0  0  0  0  0  0  0  0  0
   -2.8317   -4.3765    0.9222 H   0  0  0  0  0  0  0  0  0  0  0  0
   -2.4724   -2.0368    1.7246 H   0  0  0  0  0  0  0  0  0  0  0  0
   -4.9446    1.4249   -0.5948 O   0  0  0  0  0  0  0  0  0  0  0  0
   -5.3562    2.6545   -0.8473 C   0  0  0  0  0  0  0  0  0  0  0  0
   -6.1636    2.9137   -1.7118 O   0  0  0  0  0  0  0  0  0  0  0  0
   -4.7605    3.7997    0.0165 C   0  0  0  0  0  0  0  0  0  0  0  0
   -3.4193    3.8597   -0.1153 F   0  0  0  0  0  0  0  0  0  0  0  0
   -5.2668    4.9764   -0.3632 F   0  0  0  0  0  0  0  0  0  0  0  0
   -5.0475    3.6231    1.3228 F   0  0  0  0  0  0  0  0  0  0  0  0
  1  2  1  0  0  0  0
  1  8  2  0  0  0  0
  3  2  1  0  0  0  0
  4  1  1  0  0  0  0
  5  4  2  0  0  0  0
  5  6  1  0  0  0  0
  6  7  2  0  0  0  0
  7  8  1  0  0  0  0
  7 12  1  0  0  0  0
  8 13  1  0  0  0  0
  9  4  1  0  0  0  0
 10  5  1  0  0  0  0
 11  6  1  0  0  0  0
 14  3  1  0  0  0  0
 15 14  1  0  0  0  0
 15 17  1  0  0  0  0
 16 15  2  0  0  0  0
 17 20  1  0  0  0  0
 18 17  1  0  0  0  0
 19 17  1  0  0  0  0
M  RAD  2   2   2   3   2
M  END
