Coordinates from ORCA-job PhN2+~CF3COO-_B3LYPG-6-31G_dp-NX-Scan-d89-09-n800
 OpenBabel11261920123D

 20 20  0  0  1  0  0  0  0  0999 V2000
   -5.1763   -1.7704    1.5594 C   0  0  0  0  0  0  0  0  0  0  0  0
   -5.6759   -2.1104    2.7261 N   0  0  0  0  0  0  0  0  0  0  0  0
   -6.1099   -2.3788    3.7466 N   0  0  0  0  0  0  0  0  0  0  0  0
   -6.0136   -1.0984    0.5893 C   0  0  0  0  0  0  0  0  0  0  0  0
   -5.4565   -0.5936   -0.5280 C   0  0  0  0  0  0  0  0  0  0  0  0
   -3.9722   -0.5519   -0.7010 C   0  0  2  0  0  0  0  0  0  0  0  0
   -3.2471   -1.5643    0.1247 C   0  0  0  0  0  0  0  0  0  0  0  0
   -3.7963   -2.0739    1.2435 C   0  0  0  0  0  0  0  0  0  0  0  0
   -7.0829   -1.0427    0.7692 H   0  0  0  0  0  0  0  0  0  0  0  0
   -6.0707   -0.1208   -1.2854 H   0  0  0  0  0  0  0  0  0  0  0  0
   -3.6686   -0.5870   -1.7465 H   0  0  0  0  0  0  0  0  0  0  0  0
   -2.2261   -1.8071   -0.1481 H   0  0  0  0  0  0  0  0  0  0  0  0
   -3.2409   -2.7346    1.9021 H   0  0  0  0  0  0  0  0  0  0  0  0
   -3.4122    2.9965   -0.1897 O   0  0  0  0  0  0  0  0  0  0  0  0
   -3.5122    1.9477   -0.7744 C   0  0  0  0  0  0  0  0  0  0  0  0
   -3.4895    0.7783   -0.1407 O   0  0  0  0  0  0  0  0  0  0  0  0
   -3.6131    1.9369   -2.3234 C   0  0  0  0  0  0  0  0  0  0  0  0
   -2.6435    1.1615   -2.8619 F   0  0  0  0  0  0  0  0  0  0  0  0
   -4.8049    1.4398   -2.7358 F   0  0  0  0  0  0  0  0  0  0  0  0
   -3.4873    3.1664   -2.8140 F   0  0  0  0  0  0  0  0  0  0  0  0
  1  2  1  0  0  0  0
  2  3  1  0  0  0  0
  4  9  1  0  0  0  0
  4  1  2  0  0  0  0
  5  4  1  0  0  0  0
  6 11  1  6  0  0  0
  6  5  1  0  0  0  0
  6 16  1  0  0  0  0
  6  7  1  0  0  0  0
  7  8  2  0  0  0  0
  8  1  1  0  0  0  0
  8 13  1  0  0  0  0
 10  5  1  0  0  0  0
 12  7  1  0  0  0  0
 15 14  2  0  0  0  0
 15 16  1  0  0  0  0
 17 15  1  0  0  0  0
 18 17  1  0  0  0  0
 19 17  1  0  0  0  0
 20 17  1  0  0  0  0
M  RAD  3   2   2   3   3   5   2
M  END
