Coordinates from ORCA-job PhN2+~CF3COO-_B3LYPG-6-31G_dp-NX-Scan-d89-09-n800
 OpenBabel11261920123D

 20 20  0  0  1  0  0  0  0  0999 V2000
   -5.1010   -1.5699    1.4854 C   0  0  1  0  0  0  0  0  0  0  0  0
   -5.5356   -1.5041    2.7236 N   0  0  0  0  0  0  0  0  0  0  0  0
   -5.9139   -1.3959    3.7935 N   0  0  0  0  0  0  0  0  0  0  0  0
   -5.9199   -1.0335    0.4171 C   0  0  0  0  0  0  0  0  0  0  0  0
   -5.3344   -0.7613   -0.7653 C   0  0  0  0  0  0  0  0  0  0  0  0
   -3.8399   -0.7773   -0.8578 C   0  0  2  0  0  0  0  0  0  0  0  0
   -3.2284   -1.8402   -0.0006 C   0  0  0  0  0  0  0  0  0  0  0  0
   -3.7936   -2.1236    1.1892 C   0  0  0  0  0  0  0  0  0  0  0  0
   -6.9844   -0.8991    0.5828 H   0  0  0  0  0  0  0  0  0  0  0  0
   -5.9136   -0.4221   -1.6146 H   0  0  0  0  0  0  0  0  0  0  0  0
   -3.4725   -0.7895   -1.8839 H   0  0  0  0  0  0  0  0  0  0  0  0
   -2.2777   -2.2726   -0.2901 H   0  0  0  0  0  0  0  0  0  0  0  0
   -3.3189   -2.7755    1.9161 H   0  0  0  0  0  0  0  0  0  0  0  0
   -3.9171    2.5981    0.2410 O   0  0  0  0  0  0  0  0  0  0  0  0
   -3.7009    1.7255   -0.5606 C   0  0  0  0  0  0  0  0  0  0  0  0
   -3.3140    0.4999   -0.2078 O   0  0  0  0  0  0  0  0  0  0  0  0
   -3.7664    2.0230   -2.0836 C   0  0  0  0  0  0  0  0  0  0  0  0
   -2.7376    1.4350   -2.7320 F   0  0  0  0  0  0  0  0  0  0  0  0
   -4.9112    1.5422   -2.6254 F   0  0  0  0  0  0  0  0  0  0  0  0
   -3.7188    3.3340   -2.3149 F   0  0  0  0  0  0  0  0  0  0  0  0
  1  2  1  1  0  0  0
  2  3  1  0  0  0  0
  4  9  1  0  0  0  0
  4  1  1  0  0  0  0
  5  4  2  0  0  0  0
  6 11  1  6  0  0  0
  6  5  1  0  0  0  0
  6 16  1  0  0  0  0
  6  7  1  0  0  0  0
  7  8  2  0  0  0  0
  8  1  1  0  0  0  0
  8 13  1  0  0  0  0
 10  5  1  0  0  0  0
 12  7  1  0  0  0  0
 15 16  1  0  0  0  0
 15 14  2  0  0  0  0
 17 15  1  0  0  0  0
 18 17  1  0  0  0  0
 19 17  1  0  0  0  0
 20 17  1  0  0  0  0
M  RAD  3   1   2   2   2   3   3
M  END
