Coordinates from ORCA-job PhN2+~CF3COO-_B3LYPG-6-31G_dp-NX-Scan-d89-09-n800
 OpenBabel11261920123D

 20 20  0  0  1  0  0  0  0  0999 V2000
   -5.0203   -1.4321    1.4214 C   0  0  1  0  0  0  0  0  0  0  0  0
   -5.4892   -1.0974    2.6010 N   0  0  0  0  0  0  0  0  0  0  0  0
   -5.8914   -0.7746    3.6174 N   0  0  0  0  0  0  0  0  0  0  0  0
   -5.9189   -1.5033    0.2905 C   0  0  0  0  0  0  0  0  0  0  0  0
   -5.4089   -1.4849   -0.9556 C   0  0  0  0  0  0  0  0  0  0  0  0
   -3.9541   -1.2447   -1.1915 C   0  0  2  0  0  0  0  0  0  0  0  0
   -3.0890   -1.5523   -0.0139 C   0  0  0  0  0  0  0  0  0  0  0  0
   -3.5929   -1.5703    1.2346 C   0  0  0  0  0  0  0  0  0  0  0  0
   -6.9863   -1.5868    0.4717 H   0  0  0  0  0  0  0  0  0  0  0  0
   -6.0567   -1.5776   -1.8210 H   0  0  0  0  0  0  0  0  0  0  0  0
   -3.6021   -1.7473   -2.0943 H   0  0  0  0  0  0  0  0  0  0  0  0
   -2.0270   -1.6949   -0.1855 H   0  0  0  0  0  0  0  0  0  0  0  0
   -2.9592   -1.7020    2.1062 H   0  0  0  0  0  0  0  0  0  0  0  0
   -4.4904    1.1886    0.2845 O   0  0  0  0  0  0  0  0  0  0  0  0
   -4.0313    1.2087   -0.8328 C   0  0  0  0  0  0  0  0  0  0  0  0
   -3.7284    0.2004   -1.6440 O   0  0  0  0  0  0  0  0  0  0  0  0
   -3.6929    2.5386   -1.5527 C   0  0  0  0  0  0  0  0  0  0  0  0
   -2.3762    2.6035   -1.8297 F   0  0  0  0  0  0  0  0  0  0  0  0
   -4.3702    2.6392   -2.7120 F   0  0  0  0  0  0  0  0  0  0  0  0
   -4.0146    3.5824   -0.7823 F   0  0  0  0  0  0  0  0  0  0  0  0
  1  2  1  6  0  0  0
  2  3  1  0  0  0  0
  4  9  1  0  0  0  0
  4  1  1  0  0  0  0
  5  4  2  0  0  0  0
  6 11  1  6  0  0  0
  6  5  1  0  0  0  0
  6  7  1  0  0  0  0
  7  8  2  0  0  0  0
  8  1  1  0  0  0  0
  8 13  1  0  0  0  0
 10  5  1  0  0  0  0
 12  7  1  0  0  0  0
 15 14  2  0  0  0  0
 16  6  1  0  0  0  0
 16 15  1  0  0  0  0
 17 15  1  0  0  0  0
 17 20  1  0  0  0  0
 18 17  1  0  0  0  0
 19 17  1  0  0  0  0
M  RAD  3   1   2   2   2   3   3
M  END
