Coordinates from ORCA-job PhN2+~CF3COO-_B3LYPG-6-31G_dp-NX-Scan-d89-09-n800
 OpenBabel11261920123D

 20 20  0  0  1  0  0  0  0  0999 V2000
   -5.1652   -1.7426    1.5509 C   0  0  0  0  0  0  0  0  0  0  0  0
   -5.6540   -2.0165    2.7394 N   0  0  0  0  0  0  0  0  0  0  0  0
   -6.0789   -2.2233    3.7781 N   0  0  0  0  0  0  0  0  0  0  0  0
   -6.0029   -1.0950    0.5640 C   0  0  0  0  0  0  0  0  0  0  0  0
   -5.4437   -0.6252   -0.5676 C   0  0  0  0  0  0  0  0  0  0  0  0
   -3.9575   -0.5861   -0.7281 C   0  0  2  0  0  0  0  0  0  0  0  0
   -3.2457   -1.6092    0.0965 C   0  0  0  0  0  0  0  0  0  0  0  0
   -3.7949   -2.0844    1.2306 C   0  0  0  0  0  0  0  0  0  0  0  0
   -7.0716   -1.0304    0.7442 H   0  0  0  0  0  0  0  0  0  0  0  0
   -6.0545   -0.1742   -1.3405 H   0  0  0  0  0  0  0  0  0  0  0  0
   -3.6433   -0.6083   -1.7708 H   0  0  0  0  0  0  0  0  0  0  0  0
   -2.2344   -1.8806   -0.1842 H   0  0  0  0  0  0  0  0  0  0  0  0
   -3.2489   -2.7442    1.8980 H   0  0  0  0  0  0  0  0  0  0  0  0
   -3.4953    2.9549   -0.1205 O   0  0  0  0  0  0  0  0  0  0  0  0
   -3.5462    1.9217   -0.7385 C   0  0  0  0  0  0  0  0  0  0  0  0
   -3.4744    0.7342   -0.1430 O   0  0  0  0  0  0  0  0  0  0  0  0
   -3.6275    1.9521   -2.2883 C   0  0  0  0  0  0  0  0  0  0  0  0
   -2.6412    1.2043   -2.8350 F   0  0  0  0  0  0  0  0  0  0  0  0
   -4.8070    1.4498   -2.7288 F   0  0  0  0  0  0  0  0  0  0  0  0
   -3.5129    3.1960   -2.7441 F   0  0  0  0  0  0  0  0  0  0  0  0
  1  2  1  0  0  0  0
  2  3  1  0  0  0  0
  4  9  1  0  0  0  0
  4  1  2  0  0  0  0
  5  4  1  0  0  0  0
  6 11  1  6  0  0  0
  6  5  1  0  0  0  0
  6 16  1  0  0  0  0
  6  7  1  0  0  0  0
  7  8  2  0  0  0  0
  8  1  1  0  0  0  0
  8 13  1  0  0  0  0
 10  5  1  0  0  0  0
 12  7  1  0  0  0  0
 15 16  1  0  0  0  0
 15 14  2  0  0  0  0
 17 15  1  0  0  0  0
 18 17  1  0  0  0  0
 19 17  1  0  0  0  0
 20 17  1  0  0  0  0
M  RAD  3   2   2   3   3   5   2
M  END
