Coordinates from ORCA-job PhN2+~CF3COO-_B3LYPG-6-31G_dp-NX-Scan-d89-09-n800
 OpenBabel11261920123D

 20 20  0  0  1  0  0  0  0  0999 V2000
   -5.0440   -1.4662    1.4746 C   0  0  0  0  0  0  0  0  0  0  0  0
   -5.5345   -1.3663    2.6891 N   0  0  0  0  0  0  0  0  0  0  0  0
   -5.9598   -1.2664    3.7434 N   0  0  0  0  0  0  0  0  0  0  0  0
   -5.9367   -1.4757    0.3370 C   0  0  0  0  0  0  0  0  0  0  0  0
   -5.4280   -1.4008   -0.9071 C   0  0  0  0  0  0  0  0  0  0  0  0
   -3.9687   -1.1928   -1.1521 C   0  0  2  0  0  0  0  0  0  0  0  0
   -3.1054   -1.4661    0.0366 C   0  0  0  0  0  0  0  0  0  0  0  0
   -3.6126   -1.5401    1.2814 C   0  0  0  0  0  0  0  0  0  0  0  0
   -7.0047   -1.5678    0.5103 H   0  0  0  0  0  0  0  0  0  0  0  0
   -6.0819   -1.4420   -1.7722 H   0  0  0  0  0  0  0  0  0  0  0  0
   -3.6280   -1.7490   -2.0292 H   0  0  0  0  0  0  0  0  0  0  0  0
   -2.0363   -1.5554   -0.1285 H   0  0  0  0  0  0  0  0  0  0  0  0
   -2.9739   -1.6786    2.1482 H   0  0  0  0  0  0  0  0  0  0  0  0
   -4.4491    1.2901    0.2111 O   0  0  0  0  0  0  0  0  0  0  0  0
   -3.9966    1.2621   -0.9070 C   0  0  0  0  0  0  0  0  0  0  0  0
   -3.7155    0.2143   -1.6767 O   0  0  0  0  0  0  0  0  0  0  0  0
   -3.6396    2.5550   -1.6825 C   0  0  0  0  0  0  0  0  0  0  0  0
   -2.3239    2.5843   -1.9698 F   0  0  0  0  0  0  0  0  0  0  0  0
   -4.3229    2.6197   -2.8409 F   0  0  0  0  0  0  0  0  0  0  0  0
   -3.9376    3.6348   -0.9536 F   0  0  0  0  0  0  0  0  0  0  0  0
  1  2  1  0  0  0  0
  2  3  1  0  0  0  0
  4  9  1  0  0  0  0
  4  1  2  0  0  0  0
  5  4  1  0  0  0  0
  6 11  1  6  0  0  0
  6  5  1  0  0  0  0
  6  7  1  0  0  0  0
  7  8  2  0  0  0  0
  8  1  1  0  0  0  0
  8 13  1  0  0  0  0
 10  5  1  0  0  0  0
 12  7  1  0  0  0  0
 15 14  2  0  0  0  0
 16  6  1  0  0  0  0
 16 15  1  0  0  0  0
 17 20  1  0  0  0  0
 17 15  1  0  0  0  0
 18 17  1  0  0  0  0
 19 17  1  0  0  0  0
M  RAD  3   2   2   3   3   5   2
M  END
