Coordinates from ORCA-job PhN2+~CF3COO-_B3LYPG-6-31G_dp-NX-Scan-d89-09-n800
 OpenBabel11261920123D

 20 20  0  0  1  0  0  0  0  0999 V2000
   -5.1064   -1.5867    1.4934 C   0  0  1  0  0  0  0  0  0  0  0  0
   -5.5414   -1.5458    2.7327 N   0  0  0  0  0  0  0  0  0  0  0  0
   -5.9200   -1.4605    3.8050 N   0  0  0  0  0  0  0  0  0  0  0  0
   -5.9306   -1.0425    0.4330 C   0  0  0  0  0  0  0  0  0  0  0  0
   -5.3504   -0.7526   -0.7479 C   0  0  0  0  0  0  0  0  0  0  0  0
   -3.8562   -0.7598   -0.8483 C   0  0  2  0  0  0  0  0  0  0  0  0
   -3.2334   -1.8225    0.0010 C   0  0  0  0  0  0  0  0  0  0  0  0
   -3.7937   -2.1230    1.1889 C   0  0  0  0  0  0  0  0  0  0  0  0
   -6.9955   -0.9161    0.6030 H   0  0  0  0  0  0  0  0  0  0  0  0
   -5.9345   -0.4048   -1.5905 H   0  0  0  0  0  0  0  0  0  0  0  0
   -3.4941   -0.7671   -1.8763 H   0  0  0  0  0  0  0  0  0  0  0  0
   -2.2781   -2.2417   -0.2926 H   0  0  0  0  0  0  0  0  0  0  0  0
   -3.3107   -2.7767    1.9086 H   0  0  0  0  0  0  0  0  0  0  0  0
   -3.8932    2.6380    0.2103 O   0  0  0  0  0  0  0  0  0  0  0  0
   -3.6945    1.7459   -0.5745 C   0  0  0  0  0  0  0  0  0  0  0  0
   -3.3369    0.5189   -0.1971 O   0  0  0  0  0  0  0  0  0  0  0  0
   -3.7446    2.0182   -2.1027 C   0  0  0  0  0  0  0  0  0  0  0  0
   -2.7030    1.4273   -2.7278 F   0  0  0  0  0  0  0  0  0  0  0  0
   -4.8787    1.5195   -2.6512 F   0  0  0  0  0  0  0  0  0  0  0  0
   -3.7039    3.3252   -2.3550 F   0  0  0  0  0  0  0  0  0  0  0  0
  1  2  1  1  0  0  0
  2  3  1  0  0  0  0
  4  9  1  0  0  0  0
  4  1  1  0  0  0  0
  5  4  2  0  0  0  0
  6 11  1  6  0  0  0
  6  5  1  0  0  0  0
  6 16  1  0  0  0  0
  6  7  1  0  0  0  0
  7  8  2  0  0  0  0
  8  1  1  0  0  0  0
  8 13  1  0  0  0  0
 10  5  1  0  0  0  0
 12  7  1  0  0  0  0
 15 16  1  0  0  0  0
 15 14  2  0  0  0  0
 17 15  1  0  0  0  0
 18 17  1  0  0  0  0
 19 17  1  0  0  0  0
 20 17  1  0  0  0  0
M  RAD  3   1   2   2   2   3   3
M  END
