Coordinates from ORCA-job PhN2+~CF3COO-_B3LYPG-6-31G_dp-NX-Scan-d89-09-n800
 OpenBabel11261920123D

 20 20  0  0  1  0  0  0  0  0999 V2000
   -5.0191   -1.4297    1.4173 C   0  0  1  0  0  0  0  0  0  0  0  0
   -5.4861   -1.0772    2.5924 N   0  0  0  0  0  0  0  0  0  0  0  0
   -5.8861   -0.7373    3.6040 N   0  0  0  0  0  0  0  0  0  0  0  0
   -5.9180   -1.5062    0.2869 C   0  0  0  0  0  0  0  0  0  0  0  0
   -5.4077   -1.4918   -0.9591 C   0  0  0  0  0  0  0  0  0  0  0  0
   -3.9534   -1.2485   -1.1944 C   0  0  2  0  0  0  0  0  0  0  0  0
   -3.0881   -1.5573   -0.0173 C   0  0  0  0  0  0  0  0  0  0  0  0
   -3.5918   -1.5711    1.2313 C   0  0  0  0  0  0  0  0  0  0  0  0
   -6.9853   -1.5900    0.4686 H   0  0  0  0  0  0  0  0  0  0  0  0
   -6.0549   -1.5891   -1.8245 H   0  0  0  0  0  0  0  0  0  0  0  0
   -3.6002   -1.7472   -2.0987 H   0  0  0  0  0  0  0  0  0  0  0  0
   -2.0266   -1.7029   -0.1893 H   0  0  0  0  0  0  0  0  0  0  0  0
   -2.9584   -1.7016    2.1034 H   0  0  0  0  0  0  0  0  0  0  0  0
   -4.4892    1.1803    0.2920 O   0  0  0  0  0  0  0  0  0  0  0  0
   -4.0335    1.2042   -0.8267 C   0  0  0  0  0  0  0  0  0  0  0  0
   -3.7308    0.1991   -1.6418 O   0  0  0  0  0  0  0  0  0  0  0  0
   -3.6967    2.5368   -1.5426 C   0  0  0  0  0  0  0  0  0  0  0  0
   -2.3806    2.6030   -1.8219 F   0  0  0  0  0  0  0  0  0  0  0  0
   -4.3764    2.6416   -2.7001 F   0  0  0  0  0  0  0  0  0  0  0  0
   -4.0170    3.5777   -0.7677 F   0  0  0  0  0  0  0  0  0  0  0  0
  1  2  1  6  0  0  0
  2  3  1  0  0  0  0
  4  9  1  0  0  0  0
  4  1  1  0  0  0  0
  5  4  2  0  0  0  0
  6 11  1  6  0  0  0
  6  5  1  0  0  0  0
  6  7  1  0  0  0  0
  7  8  2  0  0  0  0
  8  1  1  0  0  0  0
  8 13  1  0  0  0  0
 10  5  1  0  0  0  0
 12  7  1  0  0  0  0
 15 14  2  0  0  0  0
 16  6  1  0  0  0  0
 16 15  1  0  0  0  0
 17 15  1  0  0  0  0
 17 20  1  0  0  0  0
 18 17  1  0  0  0  0
 19 17  1  0  0  0  0
M  RAD  3   1   2   2   2   3   3
M  END
