Coordinates from ORCA-job PhN2+~CF3COO-_B3LYPG-6-31G_dp-NX-Scan-d89-09-n800
 OpenBabel11261920123D

 20 20  0  0  1  0  0  0  0  0999 V2000
   -5.0545   -1.4930    1.4988 C   0  0  0  0  0  0  0  0  0  0  0  0
   -5.5486   -1.4833    2.7161 N   0  0  0  0  0  0  0  0  0  0  0  0
   -5.9775   -1.4677    3.7742 N   0  0  0  0  0  0  0  0  0  0  0  0
   -5.9452   -1.4693    0.3594 C   0  0  0  0  0  0  0  0  0  0  0  0
   -5.4374   -1.3618   -0.8825 C   0  0  0  0  0  0  0  0  0  0  0  0
   -3.9762   -1.1677   -1.1310 C   0  0  2  0  0  0  0  0  0  0  0  0
   -3.1137   -1.4273    0.0619 C   0  0  0  0  0  0  0  0  0  0  0  0
   -3.6217   -1.5338    1.3038 C   0  0  0  0  0  0  0  0  0  0  0  0
   -7.0134   -1.5652    0.5289 H   0  0  0  0  0  0  0  0  0  0  0  0
   -6.0936   -1.3756   -1.7468 H   0  0  0  0  0  0  0  0  0  0  0  0
   -3.6409   -1.7464   -1.9964 H   0  0  0  0  0  0  0  0  0  0  0  0
   -2.0421   -1.4892   -0.1002 H   0  0  0  0  0  0  0  0  0  0  0  0
   -2.9805   -1.6760    2.1681 H   0  0  0  0  0  0  0  0  0  0  0  0
   -4.4387    1.3403    0.1783 O   0  0  0  0  0  0  0  0  0  0  0  0
   -3.9848    1.2875   -0.9378 C   0  0  0  0  0  0  0  0  0  0  0  0
   -3.7112    0.2215   -1.6856 O   0  0  0  0  0  0  0  0  0  0  0  0
   -3.6162    2.5612   -1.7392 C   0  0  0  0  0  0  0  0  0  0  0  0
   -2.3006    2.5718   -2.0282 F   0  0  0  0  0  0  0  0  0  0  0  0
   -4.3001    2.6091   -2.8979 F   0  0  0  0  0  0  0  0  0  0  0  0
   -3.9030    3.6580   -1.0317 F   0  0  0  0  0  0  0  0  0  0  0  0
  1  2  1  0  0  0  0
  2  3  1  0  0  0  0
  4  9  1  0  0  0  0
  4  1  2  0  0  0  0
  5  4  1  0  0  0  0
  6 11  1  6  0  0  0
  6  5  1  0  0  0  0
  6  7  1  0  0  0  0
  7  8  2  0  0  0  0
  8  1  1  0  0  0  0
  8 13  1  0  0  0  0
 10  5  1  0  0  0  0
 12  7  1  0  0  0  0
 15 14  2  0  0  0  0
 16  6  1  0  0  0  0
 16 15  1  0  0  0  0
 17 20  1  0  0  0  0
 17 15  1  0  0  0  0
 18 17  1  0  0  0  0
 19 17  1  0  0  0  0
M  RAD  3   2   2   3   3   5   2
M  END
