Coordinates from ORCA-job PhN2+~CF3COO-_B3LYPG-6-31G_dp-NX-Scan-d89-09-n800
 OpenBabel11261920123D

 20 20  0  0  1  0  0  0  0  0999 V2000
   -4.9991   -1.4902    1.3657 C   0  0  1  0  0  0  0  0  0  0  0  0
   -5.3223   -0.5418    2.2256 N   0  0  0  0  0  0  0  0  0  0  0  0
   -5.5385    0.3962    2.8220 N   0  0  0  0  0  0  0  0  0  0  0  0
   -5.9048   -1.6468    0.2361 C   0  0  0  0  0  0  0  0  0  0  0  0
   -5.3892   -1.6530   -1.0074 C   0  0  0  0  0  0  0  0  0  0  0  0
   -3.9490   -1.3192   -1.2127 C   0  0  2  0  0  0  0  0  0  0  0  0
   -3.0753   -1.7153   -0.0693 C   0  0  0  0  0  0  0  0  0  0  0  0
   -3.5709   -1.7089    1.1823 C   0  0  0  0  0  0  0  0  0  0  0  0
   -6.9715   -1.7407    0.4203 H   0  0  0  0  0  0  0  0  0  0  0  0
   -6.0147   -1.8206   -1.8782 H   0  0  0  0  0  0  0  0  0  0  0  0
   -3.5726   -1.6894   -2.1658 H   0  0  0  0  0  0  0  0  0  0  0  0
   -2.0291   -1.9291   -0.2627 H   0  0  0  0  0  0  0  0  0  0  0  0
   -2.9389   -1.8479    2.0549 H   0  0  0  0  0  0  0  0  0  0  0  0
   -4.5784    1.0681    0.4987 O   0  0  0  0  0  0  0  0  0  0  0  0
   -4.1199    1.1392   -0.6208 C   0  0  0  0  0  0  0  0  0  0  0  0
   -3.7939    0.1917   -1.4929 O   0  0  0  0  0  0  0  0  0  0  0  0
   -3.8066    2.5127   -1.2707 C   0  0  0  0  0  0  0  0  0  0  0  0
   -2.4918    2.6165   -1.5440 F   0  0  0  0  0  0  0  0  0  0  0  0
   -4.4874    2.6626   -2.4224 F   0  0  0  0  0  0  0  0  0  0  0  0
   -4.1460    3.5089   -0.4468 F   0  0  0  0  0  0  0  0  0  0  0  0
  1  2  1  6  0  0  0
  2  3  1  0  0  0  0
  4  9  1  0  0  0  0
  4  1  1  0  0  0  0
  5  4  2  0  0  0  0
  6 11  1  6  0  0  0
  6  5  1  0  0  0  0
  6  7  1  0  0  0  0
  7  8  2  0  0  0  0
  8  1  1  0  0  0  0
  8 13  1  0  0  0  0
 10  5  1  0  0  0  0
 12  7  1  0  0  0  0
 15 14  2  0  0  0  0
 16  6  1  0  0  0  0
 16 15  1  0  0  0  0
 17 15  1  0  0  0  0
 17 20  1  0  0  0  0
 18 17  1  0  0  0  0
 19 17  1  0  0  0  0
M  RAD  3   1   2   2   2   3   3
M  END
