Coordinates from ORCA-job PhN2+~CF3COO-_B3LYPG-6-31G_dp-NX-Scan-d89-09-n800
 OpenBabel11261920123D

 20 20  0  0  1  0  0  0  0  0999 V2000
   -5.0020   -1.4411    1.3746 C   0  0  1  0  0  0  0  0  0  0  0  0
   -5.4141   -0.7850    2.4354 N   0  0  0  0  0  0  0  0  0  0  0  0
   -5.7531   -0.1544    3.3189 N   0  0  0  0  0  0  0  0  0  0  0  0
   -5.9060   -1.5668    0.2491 C   0  0  0  0  0  0  0  0  0  0  0  0
   -5.3936   -1.5809   -0.9961 C   0  0  0  0  0  0  0  0  0  0  0  0
   -3.9460   -1.2939   -1.2181 C   0  0  2  0  0  0  0  0  0  0  0  0
   -3.0771   -1.6440   -0.0565 C   0  0  0  0  0  0  0  0  0  0  0  0
   -3.5765   -1.6290    1.1940 C   0  0  0  0  0  0  0  0  0  0  0  0
   -6.9730   -1.6482    0.4352 H   0  0  0  0  0  0  0  0  0  0  0  0
   -6.0314   -1.7206   -1.8627 H   0  0  0  0  0  0  0  0  0  0  0  0
   -3.5802   -1.7276   -2.1492 H   0  0  0  0  0  0  0  0  0  0  0  0
   -2.0235   -1.8303   -0.2373 H   0  0  0  0  0  0  0  0  0  0  0  0
   -2.9454   -1.7551    2.0687 H   0  0  0  0  0  0  0  0  0  0  0  0
   -4.5328    1.1019    0.3894 O   0  0  0  0  0  0  0  0  0  0  0  0
   -4.0750    1.1599   -0.7292 C   0  0  0  0  0  0  0  0  0  0  0  0
   -3.7580    0.1907   -1.5801 O   0  0  0  0  0  0  0  0  0  0  0  0
   -3.7535    2.5199   -1.4007 C   0  0  0  0  0  0  0  0  0  0  0  0
   -2.4379    2.6116   -1.6750 F   0  0  0  0  0  0  0  0  0  0  0  0
   -4.4327    2.6550   -2.5554 F   0  0  0  0  0  0  0  0  0  0  0  0
   -4.0878    3.5311   -0.5929 F   0  0  0  0  0  0  0  0  0  0  0  0
  1  2  1  6  0  0  0
  2  3  1  0  0  0  0
  4  9  1  0  0  0  0
  4  1  1  0  0  0  0
  5  4  2  0  0  0  0
  6 11  1  6  0  0  0
  6  5  1  0  0  0  0
  6  7  1  0  0  0  0
  7  8  2  0  0  0  0
  8  1  1  0  0  0  0
  8 13  1  0  0  0  0
 10  5  1  0  0  0  0
 12  7  1  0  0  0  0
 15 14  2  0  0  0  0
 16  6  1  0  0  0  0
 16 15  1  0  0  0  0
 17 15  1  0  0  0  0
 17 20  1  0  0  0  0
 18 17  1  0  0  0  0
 19 17  1  0  0  0  0
M  RAD  3   1   2   2   2   3   3
M  END
