Coordinates from ORCA-job PhN2+~CF3COO-_B3LYPG-6-31G_dp-NX-Scan-d89-09-n800
 OpenBabel11261920123D

 20 20  0  0  0  0  0  0  0  0999 V2000
   -3.8015   -1.1889    0.2716 C   0  0  0  0  0  0  0  0  0  0  0  0
   -3.5158    0.0767    0.8142 N   0  0  0  0  0  0  0  0  0  0  0  0
   -3.7890    1.2119    0.6915 N   0  0  0  0  0  0  0  0  0  0  0  0
   -4.6766   -1.4045   -0.8100 C   0  0  0  0  0  0  0  0  0  0  0  0
   -4.8666   -2.7117   -1.2496 C   0  0  0  0  0  0  0  0  0  0  0  0
   -4.2077   -3.7790   -0.6316 C   0  0  0  0  0  0  0  0  0  0  0  0
   -3.3419   -3.5520    0.4420 C   0  0  0  0  0  0  0  0  0  0  0  0
   -3.1345   -2.2546    0.8965 C   0  0  0  0  0  0  0  0  0  0  0  0
   -5.1770   -0.5656   -1.2713 H   0  0  0  0  0  0  0  0  0  0  0  0
   -5.5361   -2.8969   -2.0836 H   0  0  0  0  0  0  0  0  0  0  0  0
   -4.3701   -4.7915   -0.9887 H   0  0  0  0  0  0  0  0  0  0  0  0
   -2.8323   -4.3814    0.9207 H   0  0  0  0  0  0  0  0  0  0  0  0
   -2.4692   -2.0435    1.7267 H   0  0  0  0  0  0  0  0  0  0  0  0
   -4.9496    1.4311   -0.6012 O   0  0  0  0  0  0  0  0  0  0  0  0
   -5.3607    2.6588   -0.8530 C   0  0  0  0  0  0  0  0  0  0  0  0
   -6.1679    2.9225   -1.7172 O   0  0  0  0  0  0  0  0  0  0  0  0
   -4.7638    3.8011    0.0136 C   0  0  0  0  0  0  0  0  0  0  0  0
   -3.4220    3.8590   -0.1173 F   0  0  0  0  0  0  0  0  0  0  0  0
   -5.2672    4.9806   -0.3613 F   0  0  0  0  0  0  0  0  0  0  0  0
   -5.0503    3.6207    1.3199 F   0  0  0  0  0  0  0  0  0  0  0  0
  1  2  1  0  0  0  0
  1  8  2  0  0  0  0
  3  2  1  0  0  0  0
  4  1  1  0  0  0  0
  5  4  2  0  0  0  0
  5  6  1  0  0  0  0
  6  7  2  0  0  0  0
  7  8  1  0  0  0  0
  7 12  1  0  0  0  0
  8 13  1  0  0  0  0
  9  4  1  0  0  0  0
 10  5  1  0  0  0  0
 11  6  1  0  0  0  0
 14  3  1  0  0  0  0
 15 14  1  0  0  0  0
 15 17  1  0  0  0  0
 16 15  2  0  0  0  0
 17 20  1  0  0  0  0
 18 17  1  0  0  0  0
 19 17  1  0  0  0  0
M  RAD  2   2   2   3   2
M  END
