Coordinates from ORCA-job PhN2+~CF3COO-_B3LYPG-6-31G_dp-NX-Scan-d89-09-n800
 OpenBabel11261920123D

 20 20  0  0  1  0  0  0  0  0999 V2000
   -5.1372   -1.6702    1.5265 C   0  0  1  0  0  0  0  0  0  0  0  0
   -5.5989   -1.7898    2.7509 N   0  0  0  0  0  0  0  0  0  0  0  0
   -6.0001   -1.8527    3.8168 N   0  0  0  0  0  0  0  0  0  0  0  0
   -5.9720   -1.0748    0.5040 C   0  0  0  0  0  0  0  0  0  0  0  0
   -5.4054   -0.6902   -0.6561 C   0  0  0  0  0  0  0  0  0  0  0  0
   -3.9150   -0.6681   -0.7885 C   0  0  2  0  0  0  0  0  0  0  0  0
   -3.2419   -1.7150    0.0398 C   0  0  0  0  0  0  0  0  0  0  0  0
   -3.7934   -2.1071    1.2045 C   0  0  0  0  0  0  0  0  0  0  0  0
   -7.0390   -0.9830    0.6828 H   0  0  0  0  0  0  0  0  0  0  0  0
   -6.0056   -0.2888   -1.4635 H   0  0  0  0  0  0  0  0  0  0  0  0
   -3.5778   -0.6721   -1.8244 H   0  0  0  0  0  0  0  0  0  0  0  0
   -2.2570   -2.0587   -0.2544 H   0  0  0  0  0  0  0  0  0  0  0  0
   -3.2750   -2.7663    1.8941 H   0  0  0  0  0  0  0  0  0  0  0  0
   -3.6997    2.8258    0.0415 O   0  0  0  0  0  0  0  0  0  0  0  0
   -3.6246    1.8461   -0.6559 C   0  0  0  0  0  0  0  0  0  0  0  0
   -3.4205    0.6288   -0.1583 O   0  0  0  0  0  0  0  0  0  0  0  0
   -3.6726    1.9842   -2.2016 C   0  0  0  0  0  0  0  0  0  0  0  0
   -2.6445    1.3169   -2.7729 F   0  0  0  0  0  0  0  0  0  0  0  0
   -4.8191    1.4664   -2.7062 F   0  0  0  0  0  0  0  0  0  0  0  0
   -3.6006    3.2615   -2.5670 F   0  0  0  0  0  0  0  0  0  0  0  0
  1  2  1  1  0  0  0
  2  3  1  0  0  0  0
  4  9  1  0  0  0  0
  4  1  1  0  0  0  0
  5  4  2  0  0  0  0
  6 11  1  6  0  0  0
  6  5  1  0  0  0  0
  6 16  1  0  0  0  0
  6  7  1  0  0  0  0
  7  8  2  0  0  0  0
  8  1  1  0  0  0  0
  8 13  1  0  0  0  0
 10  5  1  0  0  0  0
 12  7  1  0  0  0  0
 15 16  1  0  0  0  0
 15 14  2  0  0  0  0
 17 15  1  0  0  0  0
 18 17  1  0  0  0  0
 19 17  1  0  0  0  0
 20 17  1  0  0  0  0
M  RAD  3   1   2   2   2   3   3
M  END
