Coordinates from ORCA-job PhN2+~CF3COO-_B3LYPG-6-31G_dp-NX-Scan-d89-09-n800
 OpenBabel11261920123D

 20 20  0  0  0  0  0  0  0  0999 V2000
   -3.8077   -1.1811    0.2657 C   0  0  0  0  0  0  0  0  0  0  0  0
   -3.5175    0.0823    0.8134 N   0  0  0  0  0  0  0  0  0  0  0  0
   -3.8040    1.2180    0.6761 N   0  0  0  0  0  0  0  0  0  0  0  0
   -4.6811   -1.4047   -0.8162 C   0  0  0  0  0  0  0  0  0  0  0  0
   -4.8677   -2.7137   -1.2524 C   0  0  0  0  0  0  0  0  0  0  0  0
   -4.2072   -3.7781   -0.6312 C   0  0  0  0  0  0  0  0  0  0  0  0
   -3.3432   -3.5454    0.4423 C   0  0  0  0  0  0  0  0  0  0  0  0
   -3.1398   -2.2458    0.8925 C   0  0  0  0  0  0  0  0  0  0  0  0
   -5.1848   -0.5717   -1.2833 H   0  0  0  0  0  0  0  0  0  0  0  0
   -5.5360   -2.9025   -2.0865 H   0  0  0  0  0  0  0  0  0  0  0  0
   -4.3671   -4.7919   -0.9858 H   0  0  0  0  0  0  0  0  0  0  0  0
   -2.8317   -4.3718    0.9241 H   0  0  0  0  0  0  0  0  0  0  0  0
   -2.4756   -2.0304    1.7225 H   0  0  0  0  0  0  0  0  0  0  0  0
   -4.9387    1.4187   -0.5887 O   0  0  0  0  0  0  0  0  0  0  0  0
   -5.3514    2.6502   -0.8419 C   0  0  0  0  0  0  0  0  0  0  0  0
   -6.1590    2.9044   -1.7065 O   0  0  0  0  0  0  0  0  0  0  0  0
   -4.7577    3.7983    0.0197 C   0  0  0  0  0  0  0  0  0  0  0  0
   -3.4171    3.8614   -0.1132 F   0  0  0  0  0  0  0  0  0  0  0  0
   -5.2677    4.9719   -0.3644 F   0  0  0  0  0  0  0  0  0  0  0  0
   -5.0449    3.6248    1.3258 F   0  0  0  0  0  0  0  0  0  0  0  0
  1  2  1  0  0  0  0
  1  8  2  0  0  0  0
  3  2  1  0  0  0  0
  4  1  1  0  0  0  0
  5  4  2  0  0  0  0
  5  6  1  0  0  0  0
  6  7  2  0  0  0  0
  7  8  1  0  0  0  0
  7 12  1  0  0  0  0
  8 13  1  0  0  0  0
  9  4  1  0  0  0  0
 10  5  1  0  0  0  0
 11  6  1  0  0  0  0
 14  3  1  0  0  0  0
 15 14  1  0  0  0  0
 15 17  1  0  0  0  0
 16 15  2  0  0  0  0
 17 20  1  0  0  0  0
 18 17  1  0  0  0  0
 19 17  1  0  0  0  0
M  RAD  2   2   2   3   2
M  END
