Coordinates from ORCA-job PhN2+~CF3COO-_B3LYPG-6-31G_dp-NX-Scan-d89-09-n800
 OpenBabel11261920123D

 20 20  0  0  1  0  0  0  0  0999 V2000
   -4.9987   -1.4857    1.3649 C   0  0  1  0  0  0  0  0  0  0  0  0
   -5.3285   -0.5546    2.2398 N   0  0  0  0  0  0  0  0  0  0  0  0
   -5.5561    0.3630    2.8637 N   0  0  0  0  0  0  0  0  0  0  0  0
   -5.9044   -1.6408    0.2358 C   0  0  0  0  0  0  0  0  0  0  0  0
   -5.3890   -1.6489   -1.0078 C   0  0  0  0  0  0  0  0  0  0  0  0
   -3.9483   -1.3185   -1.2142 C   0  0  2  0  0  0  0  0  0  0  0  0
   -3.0750   -1.7114   -0.0695 C   0  0  0  0  0  0  0  0  0  0  0  0
   -3.5708   -1.7030    1.1819 C   0  0  0  0  0  0  0  0  0  0  0  0
   -6.9712   -1.7330    0.4203 H   0  0  0  0  0  0  0  0  0  0  0  0
   -6.0154   -1.8151   -1.8782 H   0  0  0  0  0  0  0  0  0  0  0  0
   -3.5725   -1.6926   -2.1661 H   0  0  0  0  0  0  0  0  0  0  0  0
   -2.0284   -1.9239   -0.2619 H   0  0  0  0  0  0  0  0  0  0  0  0
   -2.9390   -1.8404    2.0549 H   0  0  0  0  0  0  0  0  0  0  0  0
   -4.5753    1.0685    0.4914 O   0  0  0  0  0  0  0  0  0  0  0  0
   -4.1169    1.1393   -0.6279 C   0  0  0  0  0  0  0  0  0  0  0  0
   -3.7912    0.1911   -1.4992 O   0  0  0  0  0  0  0  0  0  0  0  0
   -3.8035    2.5124   -1.2785 C   0  0  0  0  0  0  0  0  0  0  0  0
   -2.4887    2.6159   -1.5519 F   0  0  0  0  0  0  0  0  0  0  0  0
   -4.4843    2.6618   -2.4304 F   0  0  0  0  0  0  0  0  0  0  0  0
   -4.1428    3.5091   -0.4552 F   0  0  0  0  0  0  0  0  0  0  0  0
  1  2  1  6  0  0  0
  2  3  1  0  0  0  0
  4  9  1  0  0  0  0
  4  1  1  0  0  0  0
  5  4  2  0  0  0  0
  6 11  1  6  0  0  0
  6  5  1  0  0  0  0
  6  7  1  0  0  0  0
  7  8  2  0  0  0  0
  8  1  1  0  0  0  0
  8 13  1  0  0  0  0
 10  5  1  0  0  0  0
 12  7  1  0  0  0  0
 15 14  2  0  0  0  0
 16  6  1  0  0  0  0
 16 15  1  0  0  0  0
 17 15  1  0  0  0  0
 17 20  1  0  0  0  0
 18 17  1  0  0  0  0
 19 17  1  0  0  0  0
M  RAD  3   1   2   2   2   3   3
M  END
