Coordinates from ORCA-job PhN2+~CF3COO-_B3LYPG-6-31G_dp-NX-Scan-d89-09-n800
 OpenBabel11261920123D

 20 20  0  0  0  0  0  0  0  0999 V2000
   -3.8112   -1.1098    0.2198 C   0  0  0  0  0  0  0  0  0  0  0  0
   -3.4313    0.1308    0.8144 N   0  0  0  0  0  0  0  0  0  0  0  0
   -3.9740    1.2450    0.4310 N   0  0  0  0  0  0  0  0  0  0  0  0
   -4.6584   -1.3855   -0.8790 C   0  0  0  0  0  0  0  0  0  0  0  0
   -4.8597   -2.7041   -1.2927 C   0  0  0  0  0  0  0  0  0  0  0  0
   -4.2416   -3.7684   -0.6378 C   0  0  0  0  0  0  0  0  0  0  0  0
   -3.4013   -3.5086    0.4489 C   0  0  0  0  0  0  0  0  0  0  0  0
   -3.1898   -2.2002    0.8645 C   0  0  0  0  0  0  0  0  0  0  0  0
   -5.1608   -0.5983   -1.4213 H   0  0  0  0  0  0  0  0  0  0  0  0
   -5.5112   -2.8952   -2.1412 H   0  0  0  0  0  0  0  0  0  0  0  0
   -4.4106   -4.7882   -0.9707 H   0  0  0  0  0  0  0  0  0  0  0  0
   -2.9107   -4.3261    0.9687 H   0  0  0  0  0  0  0  0  0  0  0  0
   -2.5378   -1.9751    1.7024 H   0  0  0  0  0  0  0  0  0  0  0  0
   -4.6725    1.2838   -0.2838 O   0  0  0  0  0  0  0  0  0  0  0  0
   -5.2886    2.5931   -0.7063 C   0  0  0  0  0  0  0  0  0  0  0  0
   -6.1073    2.5684   -1.5571 O   0  0  0  0  0  0  0  0  0  0  0  0
   -4.7421    3.8313    0.0569 C   0  0  0  0  0  0  0  0  0  0  0  0
   -3.4305    3.9682   -0.1542 F   0  0  0  0  0  0  0  0  0  0  0  0
   -5.3726    4.9097   -0.4153 F   0  0  0  0  0  0  0  0  0  0  0  0
   -4.9881    3.7222    1.3647 F   0  0  0  0  0  0  0  0  0  0  0  0
  1  2  1  0  0  0  0
  1  8  2  0  0  0  0
  3  2  2  0  0  0  0
  4  1  1  0  0  0  0
  5  4  2  0  0  0  0
  5  6  1  0  0  0  0
  6  7  2  0  0  0  0
  7  8  1  0  0  0  0
  7 12  1  0  0  0  0
  8 13  1  0  0  0  0
  9  4  1  0  0  0  0
 10  5  1  0  0  0  0
 11  6  1  0  0  0  0
 14  3  1  0  0  0  0
 15 14  1  0  0  0  0
 15 17  1  0  0  0  0
 16 15  2  0  0  0  0
 17 20  1  0  0  0  0
 18 17  1  0  0  0  0
 19 17  1  0  0  0  0
M  END
