Coordinates from ORCA-job PhN2+~CF3COO-_B3LYPG-6-31G_dp-NX-Scan-d89-09-n800
 OpenBabel11261920123D

 20 20  0  0  1  0  0  0  0  0999 V2000
   -5.0035   -1.5279    1.3777 C   0  0  1  0  0  0  0  0  0  0  0  0
   -5.2882   -0.4786    2.1484 N   0  0  0  0  0  0  0  0  0  0  0  0
   -5.4037    0.5882    2.5026 N   0  0  0  0  0  0  0  0  0  0  0  0
   -5.9081   -1.6860    0.2448 C   0  0  0  0  0  0  0  0  0  0  0  0
   -5.3916   -1.6792   -0.9995 C   0  0  0  0  0  0  0  0  0  0  0  0
   -3.9565   -1.3248   -1.1986 C   0  0  2  0  0  0  0  0  0  0  0  0
   -3.0803   -1.7396   -0.0650 C   0  0  0  0  0  0  0  0  0  0  0  0
   -3.5740   -1.7458    1.1885 C   0  0  0  0  0  0  0  0  0  0  0  0
   -6.9747   -1.7896    0.4259 H   0  0  0  0  0  0  0  0  0  0  0  0
   -6.0124   -1.8575   -1.8717 H   0  0  0  0  0  0  0  0  0  0  0  0
   -3.5764   -1.6657   -2.1608 H   0  0  0  0  0  0  0  0  0  0  0  0
   -2.0370   -1.9622   -0.2647 H   0  0  0  0  0  0  0  0  0  0  0  0
   -2.9383   -1.8927    2.0575 H   0  0  0  0  0  0  0  0  0  0  0  0
   -4.6046    1.0723    0.5423 O   0  0  0  0  0  0  0  0  0  0  0  0
   -4.1403    1.1448   -0.5786 C   0  0  0  0  0  0  0  0  0  0  0  0
   -3.8126    0.2008   -1.4509 O   0  0  0  0  0  0  0  0  0  0  0  0
   -3.8238    2.5211   -1.2227 C   0  0  0  0  0  0  0  0  0  0  0  0
   -2.5077    2.6256   -1.4885 F   0  0  0  0  0  0  0  0  0  0  0  0
   -4.4987    2.6748   -2.3773 F   0  0  0  0  0  0  0  0  0  0  0  0
   -4.1675    3.5151   -0.3974 F   0  0  0  0  0  0  0  0  0  0  0  0
  1  2  1  6  0  0  0
  2  3  1  0  0  0  0
  4  9  1  0  0  0  0
  4  1  1  0  0  0  0
  5  4  2  0  0  0  0
  6 11  1  6  0  0  0
  6  5  1  0  0  0  0
  6  7  1  0  0  0  0
  7  8  2  0  0  0  0
  8  1  1  0  0  0  0
  8 13  1  0  0  0  0
 10  5  1  0  0  0  0
 12  7  1  0  0  0  0
 15 14  2  0  0  0  0
 16  6  1  0  0  0  0
 16 15  1  0  0  0  0
 17 15  1  0  0  0  0
 17 20  1  0  0  0  0
 18 17  1  0  0  0  0
 19 17  1  0  0  0  0
M  RAD  3   1   2   2   2   3   3
M  END
