Coordinates from ORCA-job PhN2+~CF3COO-_B3LYPG-6-31G_dp-NX-Scan-d89-09-n800
 OpenBabel11261920123D

 20 20  0  0  0  0  0  0  0  0999 V2000
   -3.8313   -1.1285    0.2295 C   0  0  0  0  0  0  0  0  0  0  0  0
   -3.4915    0.1170    0.8142 N   0  0  0  0  0  0  0  0  0  0  0  0
   -3.8770    1.2542    0.5721 N   0  0  0  0  0  0  0  0  0  0  0  0
   -4.6942   -1.3948   -0.8562 C   0  0  0  0  0  0  0  0  0  0  0  0
   -4.8746   -2.7122   -1.2716 C   0  0  0  0  0  0  0  0  0  0  0  0
   -4.2198   -3.7664   -0.6298 C   0  0  0  0  0  0  0  0  0  0  0  0
   -3.3657   -3.5071    0.4443 C   0  0  0  0  0  0  0  0  0  0  0  0
   -3.1721   -2.1969    0.8669 C   0  0  0  0  0  0  0  0  0  0  0  0
   -5.2098   -0.5961   -1.3644 H   0  0  0  0  0  0  0  0  0  0  0  0
   -5.5361   -2.9153   -2.1085 H   0  0  0  0  0  0  0  0  0  0  0  0
   -4.3751   -4.7867   -0.9680 H   0  0  0  0  0  0  0  0  0  0  0  0
   -2.8534   -4.3208    0.9474 H   0  0  0  0  0  0  0  0  0  0  0  0
   -2.5130   -1.9626    1.6960 H   0  0  0  0  0  0  0  0  0  0  0  0
   -4.8323    1.3362   -0.4762 O   0  0  0  0  0  0  0  0  0  0  0  0
   -5.2871    2.5847   -0.7665 C   0  0  0  0  0  0  0  0  0  0  0  0
   -6.0959    2.7406   -1.6377 O   0  0  0  0  0  0  0  0  0  0  0  0
   -4.7338    3.7848    0.0541 C   0  0  0  0  0  0  0  0  0  0  0  0
   -3.4064    3.9060   -0.0998 F   0  0  0  0  0  0  0  0  0  0  0  0
   -5.3122    4.9031   -0.3923 F   0  0  0  0  0  0  0  0  0  0  0  0
   -5.0187    3.6540    1.3586 F   0  0  0  0  0  0  0  0  0  0  0  0
  1  2  1  0  0  0  0
  1  8  2  0  0  0  0
  3  2  1  0  0  0  0
  4  1  1  0  0  0  0
  5  4  2  0  0  0  0
  5  6  1  0  0  0  0
  6  7  2  0  0  0  0
  7  8  1  0  0  0  0
  7 12  1  0  0  0  0
  8 13  1  0  0  0  0
  9  4  1  0  0  0  0
 10  5  1  0  0  0  0
 11  6  1  0  0  0  0
 14  3  1  0  0  0  0
 15 14  1  0  0  0  0
 15 17  1  0  0  0  0
 16 15  2  0  0  0  0
 17 20  1  0  0  0  0
 18 17  1  0  0  0  0
 19 17  1  0  0  0  0
M  RAD  2   2   2   3   2
M  END
