Coordinates from ORCA-job PhN2+~CF3COO-_B3LYPG-6-31G_dp-NX-Scan-d89-09-n800
 OpenBabel11261920123D

 20 20  0  0  1  0  0  0  0  0999 V2000
   -4.9985   -1.4620    1.3643 C   0  0  1  0  0  0  0  0  0  0  0  0
   -5.3687   -0.6480    2.3297 N   0  0  0  0  0  0  0  0  0  0  0  0
   -5.6544    0.1438    3.0912 N   0  0  0  0  0  0  0  0  0  0  0  0
   -5.9038   -1.6067    0.2380 C   0  0  0  0  0  0  0  0  0  0  0  0
   -5.3897   -1.6219   -1.0063 C   0  0  0  0  0  0  0  0  0  0  0  0
   -3.9460   -1.3106   -1.2197 C   0  0  2  0  0  0  0  0  0  0  0  0
   -3.0746   -1.6833   -0.0671 C   0  0  0  0  0  0  0  0  0  0  0  0
   -3.5721   -1.6673    1.1839 C   0  0  0  0  0  0  0  0  0  0  0  0
   -6.9707   -1.6922    0.4239 H   0  0  0  0  0  0  0  0  0  0  0  0
   -6.0212   -1.7781   -1.8747 H   0  0  0  0  0  0  0  0  0  0  0  0
   -3.5740   -1.7104   -2.1629 H   0  0  0  0  0  0  0  0  0  0  0  0
   -2.0249   -1.8850   -0.2537 H   0  0  0  0  0  0  0  0  0  0  0  0
   -2.9410   -1.7967    2.0584 H   0  0  0  0  0  0  0  0  0  0  0  0
   -4.5538    1.0771    0.4466 O   0  0  0  0  0  0  0  0  0  0  0  0
   -4.0979    1.1447   -0.6730 C   0  0  0  0  0  0  0  0  0  0  0  0
   -3.7763    0.1893   -1.5377 O   0  0  0  0  0  0  0  0  0  0  0  0
   -3.7822    2.5136   -1.3301 C   0  0  0  0  0  0  0  0  0  0  0  0
   -2.4676    2.6127   -1.6064 F   0  0  0  0  0  0  0  0  0  0  0  0
   -4.4646    2.6595   -2.4816 F   0  0  0  0  0  0  0  0  0  0  0  0
   -4.1177    3.5148   -0.5106 F   0  0  0  0  0  0  0  0  0  0  0  0
  1  2  1  6  0  0  0
  2  3  1  0  0  0  0
  4  9  1  0  0  0  0
  4  1  1  0  0  0  0
  5  4  2  0  0  0  0
  6 11  1  6  0  0  0
  6  5  1  0  0  0  0
  6  7  1  0  0  0  0
  7  8  2  0  0  0  0
  8  1  1  0  0  0  0
  8 13  1  0  0  0  0
 10  5  1  0  0  0  0
 12  7  1  0  0  0  0
 15 14  2  0  0  0  0
 16  6  1  0  0  0  0
 16 15  1  0  0  0  0
 17 15  1  0  0  0  0
 17 20  1  0  0  0  0
 18 17  1  0  0  0  0
 19 17  1  0  0  0  0
M  RAD  3   1   2   2   2   3   3
M  END
