Coordinates from ORCA-job PhN2+~CF3COO-_B3LYPG-6-31G_dp-NX-Scan-d89-09-n800
 OpenBabel11261920123D

 20 20  0  0  1  0  0  0  0  0999 V2000
   -5.1856   -1.7963    1.5662 C   0  0  0  0  0  0  0  0  0  0  0  0
   -5.6912   -2.1936    2.7121 N   0  0  0  0  0  0  0  0  0  0  0  0
   -6.1304   -2.5156    3.7153 N   0  0  0  0  0  0  0  0  0  0  0  0
   -6.0249   -1.1035    0.6126 C   0  0  0  0  0  0  0  0  0  0  0  0
   -5.4714   -0.5660   -0.4912 C   0  0  0  0  0  0  0  0  0  0  0  0
   -3.9888   -0.5194   -0.6763 C   0  0  2  0  0  0  0  0  0  0  0  0
   -3.2503   -1.5220    0.1493 C   0  0  0  0  0  0  0  0  0  0  0  0
   -3.7976   -2.0638    1.2538 C   0  0  0  0  0  0  0  0  0  0  0  0
   -7.0944   -1.0572    0.7935 H   0  0  0  0  0  0  0  0  0  0  0  0
   -6.0897   -0.0745   -1.2332 H   0  0  0  0  0  0  0  0  0  0  0  0
   -3.6954   -0.5654   -1.7245 H   0  0  0  0  0  0  0  0  0  0  0  0
   -2.2213   -1.7372   -0.1167 H   0  0  0  0  0  0  0  0  0  0  0  0
   -3.2323   -2.7243    1.9040 H   0  0  0  0  0  0  0  0  0  0  0  0
   -3.3398    3.0304   -0.2525 O   0  0  0  0  0  0  0  0  0  0  0  0
   -3.4855    1.9702   -0.8064 C   0  0  0  0  0  0  0  0  0  0  0  0
   -3.5082    0.8196   -0.1385 O   0  0  0  0  0  0  0  0  0  0  0  0
   -3.5969    1.9221   -2.3540 C   0  0  0  0  0  0  0  0  0  0  0  0
   -2.6420    1.1193   -2.8791 F   0  0  0  0  0  0  0  0  0  0  0  0
   -4.7986    1.4334   -2.7468 F   0  0  0  0  0  0  0  0  0  0  0  0
   -3.4556    3.1369   -2.8755 F   0  0  0  0  0  0  0  0  0  0  0  0
  1  2  1  0  0  0  0
  2  3  1  0  0  0  0
  4  9  1  0  0  0  0
  4  1  2  0  0  0  0
  5  4  1  0  0  0  0
  6 11  1  6  0  0  0
  6  5  1  0  0  0  0
  6 16  1  0  0  0  0
  6  7  1  0  0  0  0
  7  8  2  0  0  0  0
  8  1  1  0  0  0  0
  8 13  1  0  0  0  0
 10  5  1  0  0  0  0
 12  7  1  0  0  0  0
 15 14  2  0  0  0  0
 15 16  1  0  0  0  0
 17 15  1  0  0  0  0
 18 17  1  0  0  0  0
 19 17  1  0  0  0  0
 20 17  1  0  0  0  0
M  RAD  3   2   2   3   3   5   2
M  END
