Coordinates from ORCA-job PhN2+~CF3COO-_B3LYPG-6-31G_dp-NX-Scan-d89-09-n800
 OpenBabel11261920123D

 20 20  0  0  1  0  0  0  0  0999 V2000
   -5.0018   -1.5127    1.3724 C   0  0  1  0  0  0  0  0  0  0  0  0
   -5.2985   -0.4960    2.1704 N   0  0  0  0  0  0  0  0  0  0  0  0
   -5.4559    0.5270    2.6256 N   0  0  0  0  0  0  0  0  0  0  0  0
   -5.9070   -1.6730    0.2403 C   0  0  0  0  0  0  0  0  0  0  0  0
   -5.3907   -1.6694   -1.0033 C   0  0  0  0  0  0  0  0  0  0  0  0
   -3.9533   -1.3215   -1.2042 C   0  0  2  0  0  0  0  0  0  0  0  0
   -3.0779   -1.7306   -0.0667 C   0  0  0  0  0  0  0  0  0  0  0  0
   -3.5724   -1.7338    1.1856 C   0  0  0  0  0  0  0  0  0  0  0  0
   -6.9734   -1.7747    0.4226 H   0  0  0  0  0  0  0  0  0  0  0  0
   -6.0127   -1.8436   -1.8753 H   0  0  0  0  0  0  0  0  0  0  0  0
   -3.5745   -1.6743   -2.1629 H   0  0  0  0  0  0  0  0  0  0  0  0
   -2.0336   -1.9499   -0.2644 H   0  0  0  0  0  0  0  0  0  0  0  0
   -2.9386   -1.8796    2.0560 H   0  0  0  0  0  0  0  0  0  0  0  0
   -4.5933    1.0696    0.5283 O   0  0  0  0  0  0  0  0  0  0  0  0
   -4.1329    1.1417   -0.5920 C   0  0  0  0  0  0  0  0  0  0  0  0
   -3.8060    0.1964   -1.4656 O   0  0  0  0  0  0  0  0  0  0  0  0
   -3.8183    2.5166   -1.2391 C   0  0  0  0  0  0  0  0  0  0  0  0
   -2.5030    2.6206   -1.5097 F   0  0  0  0  0  0  0  0  0  0  0  0
   -4.4970    2.6687   -2.3918 F   0  0  0  0  0  0  0  0  0  0  0  0
   -4.1591    3.5115   -0.4141 F   0  0  0  0  0  0  0  0  0  0  0  0
  1  2  1  6  0  0  0
  2  3  1  0  0  0  0
  4  9  1  0  0  0  0
  4  1  1  0  0  0  0
  5  4  2  0  0  0  0
  6 11  1  6  0  0  0
  6  5  1  0  0  0  0
  6  7  1  0  0  0  0
  7  8  2  0  0  0  0
  8  1  1  0  0  0  0
  8 13  1  0  0  0  0
 10  5  1  0  0  0  0
 12  7  1  0  0  0  0
 15 14  2  0  0  0  0
 16  6  1  0  0  0  0
 16 15  1  0  0  0  0
 17 15  1  0  0  0  0
 17 20  1  0  0  0  0
 18 17  1  0  0  0  0
 19 17  1  0  0  0  0
M  RAD  3   1   2   2   2   3   3
M  END
