Coordinates from ORCA-job PhN2+~CF3COO-_B3LYPG-6-31G_dp-NX-Scan-d89-09-n800
 OpenBabel11261920123D

 20 20  0  0  1  0  0  0  0  0999 V2000
   -5.2341   -1.9312    1.5765 C   0  0  0  0  0  0  0  0  0  0  0  0
   -5.7759   -2.6596    2.5268 N   0  0  0  0  0  0  0  0  0  0  0  0
   -6.2467   -3.2921    3.3549 N   0  0  0  0  0  0  0  0  0  0  0  0
   -6.0671   -1.0969    0.7355 C   0  0  0  0  0  0  0  0  0  0  0  0
   -5.5169   -0.3690   -0.2546 C   0  0  0  0  0  0  0  0  0  0  0  0
   -4.0431   -0.3244   -0.5070 C   0  0  2  0  0  0  0  0  0  0  0  0
   -3.2558   -1.2659    0.3480 C   0  0  0  0  0  0  0  0  0  0  0  0
   -3.8077   -1.9960    1.3350 C   0  0  0  0  0  0  0  0  0  0  0  0
   -7.1393   -1.0907    0.9069 H   0  0  0  0  0  0  0  0  0  0  0  0
   -6.1445    0.2378   -0.8978 H   0  0  0  0  0  0  0  0  0  0  0  0
   -3.8082   -0.4722   -1.5618 H   0  0  0  0  0  0  0  0  0  0  0  0
   -2.1891   -1.3261    0.1573 H   0  0  0  0  0  0  0  0  0  0  0  0
   -3.2039   -2.6572    1.9487 H   0  0  0  0  0  0  0  0  0  0  0  0
   -2.9042    3.1285   -0.6430 O   0  0  0  0  0  0  0  0  0  0  0  0
   -3.3119    2.0528   -1.0019 C   0  0  0  0  0  0  0  0  0  0  0  0
   -3.5441    1.0567   -0.1456 O   0  0  0  0  0  0  0  0  0  0  0  0
   -3.5679    1.8118   -2.5157 C   0  0  0  0  0  0  0  0  0  0  0  0
   -2.7320    0.8625   -3.0004 F   0  0  0  0  0  0  0  0  0  0  0  0
   -4.8364    1.3943   -2.7434 F   0  0  0  0  0  0  0  0  0  0  0  0
   -3.3709    2.9298   -3.2065 F   0  0  0  0  0  0  0  0  0  0  0  0
  1  2  1  0  0  0  0
  2  3  1  0  0  0  0
  4  9  1  0  0  0  0
  4  1  2  0  0  0  0
  5  4  1  0  0  0  0
  6 11  1  6  0  0  0
  6  5  1  0  0  0  0
  6 16  1  0  0  0  0
  6  7  1  0  0  0  0
  7  8  2  0  0  0  0
  8  1  1  0  0  0  0
  8 13  1  0  0  0  0
 10  5  1  0  0  0  0
 12  7  1  0  0  0  0
 15 14  2  0  0  0  0
 15 16  1  0  0  0  0
 17 15  1  0  0  0  0
 18 17  1  0  0  0  0
 19 17  1  0  0  0  0
 20 17  1  0  0  0  0
M  RAD  3   2   2   3   3   5   2
M  END
