Coordinates from ORCA-job PhN2+~CF3COO-_B3LYPG-6-31G_dp-NX-Scan-d89-09-n800
 OpenBabel11261920123D

 20 20  0  0  1  0  0  0  0  0999 V2000
   -5.0561   -1.4984    1.5024 C   0  0  0  0  0  0  0  0  0  0  0  0
   -5.5506   -1.5015    2.7196 N   0  0  0  0  0  0  0  0  0  0  0  0
   -5.9800   -1.4980    3.7777 N   0  0  0  0  0  0  0  0  0  0  0  0
   -5.9466   -1.4695    0.3628 C   0  0  0  0  0  0  0  0  0  0  0  0
   -5.4391   -1.3558   -0.8785 C   0  0  0  0  0  0  0  0  0  0  0  0
   -3.9776   -1.1635   -1.1275 C   0  0  2  0  0  0  0  0  0  0  0  0
   -3.1150   -1.4205    0.0661 C   0  0  0  0  0  0  0  0  0  0  0  0
   -3.6232   -1.5330    1.3074 C   0  0  0  0  0  0  0  0  0  0  0  0
   -7.0149   -1.5661    0.5318 H   0  0  0  0  0  0  0  0  0  0  0  0
   -6.0956   -1.3648   -1.7426 H   0  0  0  0  0  0  0  0  0  0  0  0
   -3.6431   -1.7463   -1.9906 H   0  0  0  0  0  0  0  0  0  0  0  0
   -2.0430   -1.4768   -0.0954 H   0  0  0  0  0  0  0  0  0  0  0  0
   -2.9815   -1.6752    2.1714 H   0  0  0  0  0  0  0  0  0  0  0  0
   -4.4366    1.3479    0.1732 O   0  0  0  0  0  0  0  0  0  0  0  0
   -3.9836    1.2915   -0.9430 C   0  0  0  0  0  0  0  0  0  0  0  0
   -3.7111    0.2225   -1.6873 O   0  0  0  0  0  0  0  0  0  0  0  0
   -3.6124    2.5620   -1.7480 C   0  0  0  0  0  0  0  0  0  0  0  0
   -2.2970    2.5685   -2.0382 F   0  0  0  0  0  0  0  0  0  0  0  0
   -4.2972    2.6086   -2.9062 F   0  0  0  0  0  0  0  0  0  0  0  0
   -3.8958    3.6614   -1.0431 F   0  0  0  0  0  0  0  0  0  0  0  0
  1  2  1  0  0  0  0
  2  3  1  0  0  0  0
  4  9  1  0  0  0  0
  4  1  2  0  0  0  0
  5  4  1  0  0  0  0
  6 11  1  6  0  0  0
  6  5  1  0  0  0  0
  6  7  1  0  0  0  0
  7  8  2  0  0  0  0
  8  1  1  0  0  0  0
  8 13  1  0  0  0  0
 10  5  1  0  0  0  0
 12  7  1  0  0  0  0
 15 14  2  0  0  0  0
 16  6  1  0  0  0  0
 16 15  1  0  0  0  0
 17 20  1  0  0  0  0
 17 15  1  0  0  0  0
 18 17  1  0  0  0  0
 19 17  1  0  0  0  0
M  RAD  3   2   2   3   3   5   2
M  END
