Coordinates from ORCA-job PhN2+~CF3COO-_B3LYPG-6-31G_dp-NX-Scan-d89-09-n800
 OpenBabel11261920123D

 20 20  0  0  1  0  0  0  0  0999 V2000
   -5.1021   -1.4605    1.4041 C   0  0  0  0  0  0  0  0  0  0  0  0
   -5.6923   -1.4009    2.5782 N   0  0  0  0  0  0  0  0  0  0  0  0
   -6.1994   -1.3127    3.5957 N   0  0  0  0  0  0  0  0  0  0  0  0
   -5.7820   -0.9434    0.2370 C   0  0  0  0  0  0  0  0  0  0  0  0
   -5.0856   -0.7775   -0.9065 C   0  0  0  0  0  0  0  0  0  0  0  0
   -3.5969   -0.9080   -0.9090 C   0  0  2  0  0  0  0  0  0  0  0  0
   -3.0998   -1.8653    0.1265 C   0  0  0  0  0  0  0  0  0  0  0  0
   -3.7816   -2.0429    1.2746 C   0  0  0  0  0  0  0  0  0  0  0  0
   -6.8466   -0.7386    0.2942 H   0  0  0  0  0  0  0  0  0  0  0  0
   -5.5832   -0.4567   -1.8135 H   0  0  0  0  0  0  0  0  0  0  0  0
   -3.1953   -1.1071   -1.9019 H   0  0  0  0  0  0  0  0  0  0  0  0
   -2.1265   -2.3213   -0.0155 H   0  0  0  0  0  0  0  0  0  0  0  0
   -3.3851   -2.6338    2.0942 H   0  0  0  0  0  0  0  0  0  0  0  0
   -3.6790    2.3493    0.3817 O   0  0  0  0  0  0  0  0  0  0  0  0
   -3.5854    1.5862   -0.5461 C   0  0  0  0  0  0  0  0  0  0  0  0
   -2.9420    0.4182   -0.4848 O   0  0  0  0  0  0  0  0  0  0  0  0
   -4.1279    2.0387   -1.9297 C   0  0  0  0  0  0  0  0  0  0  0  0
   -3.8822    1.1412   -2.9110 F   0  0  0  0  0  0  0  0  0  0  0  0
   -5.4587    2.2326   -1.8774 F   0  0  0  0  0  0  0  0  0  0  0  0
   -3.5482    3.1956   -2.2789 F   0  0  0  0  0  0  0  0  0  0  0  0
  1  2  1  0  0  0  0
  2  3  1  0  0  0  0
  4  9  1  0  0  0  0
  4  1  2  0  0  0  0
  5  4  1  0  0  0  0
  6 11  1  6  0  0  0
  6  5  1  0  0  0  0
  6 16  1  0  0  0  0
  6  7  1  0  0  0  0
  7  8  2  0  0  0  0
  8  1  1  0  0  0  0
  8 13  1  0  0  0  0
 10  5  1  0  0  0  0
 12  7  1  0  0  0  0
 15 16  1  0  0  0  0
 15 14  2  0  0  0  0
 17 19  1  0  0  0  0
 17 15  1  0  0  0  0
 18 17  1  0  0  0  0
 20 17  1  0  0  0  0
M  RAD  3   2   2   3   3   5   2
M  END
