Coordinates from ORCA-job PhN2+~CF3COO-_B3LYPG-6-31G_dp-NX-Scan-d89-09-n800
 OpenBabel11261920123D

 20 20  0  0  0  0  0  0  0  0999 V2000
   -3.8191   -1.1037    0.2186 C   0  0  0  0  0  0  0  0  0  0  0  0
   -3.4425    0.1375    0.8164 N   0  0  0  0  0  0  0  0  0  0  0  0
   -3.9593    1.2534    0.4533 N   0  0  0  0  0  0  0  0  0  0  0  0
   -4.6695   -1.3793   -0.8773 C   0  0  0  0  0  0  0  0  0  0  0  0
   -4.8665   -2.6979   -1.2910 C   0  0  0  0  0  0  0  0  0  0  0  0
   -4.2410   -3.7600   -0.6382 C   0  0  0  0  0  0  0  0  0  0  0  0
   -3.3981   -3.4995    0.4457 C   0  0  0  0  0  0  0  0  0  0  0  0
   -3.1904   -2.1901    0.8612 C   0  0  0  0  0  0  0  0  0  0  0  0
   -5.1762   -0.5922   -1.4149 H   0  0  0  0  0  0  0  0  0  0  0  0
   -5.5200   -2.8919   -2.1370 H   0  0  0  0  0  0  0  0  0  0  0  0
   -4.4073   -4.7801   -0.9716 H   0  0  0  0  0  0  0  0  0  0  0  0
   -2.9028   -4.3158    0.9627 H   0  0  0  0  0  0  0  0  0  0  0  0
   -2.5365   -1.9620    1.6968 H   0  0  0  0  0  0  0  0  0  0  0  0
   -4.6871    1.2929   -0.3028 O   0  0  0  0  0  0  0  0  0  0  0  0
   -5.2694    2.5632   -0.7041 C   0  0  0  0  0  0  0  0  0  0  0  0
   -6.0858    2.5602   -1.5629 O   0  0  0  0  0  0  0  0  0  0  0  0
   -4.7371    3.8089    0.0586 C   0  0  0  0  0  0  0  0  0  0  0  0
   -3.4244    3.9599   -0.1403 F   0  0  0  0  0  0  0  0  0  0  0  0
   -5.3723    4.8787   -0.4270 F   0  0  0  0  0  0  0  0  0  0  0  0
   -4.9942    3.7111    1.3659 F   0  0  0  0  0  0  0  0  0  0  0  0
  1  2  1  0  0  0  0
  1  8  2  0  0  0  0
  3  2  2  0  0  0  0
  4  1  1  0  0  0  0
  5  4  2  0  0  0  0
  5  6  1  0  0  0  0
  6  7  2  0  0  0  0
  7  8  1  0  0  0  0
  7 12  1  0  0  0  0
  8 13  1  0  0  0  0
  9  4  1  0  0  0  0
 10  5  1  0  0  0  0
 11  6  1  0  0  0  0
 14  3  1  0  0  0  0
 15 14  1  0  0  0  0
 15 17  1  0  0  0  0
 16 15  2  0  0  0  0
 17 20  1  0  0  0  0
 18 17  1  0  0  0  0
 19 17  1  0  0  0  0
M  END
