Coordinates from ORCA-job PhN2+~CF3COO-_B3LYPG-6-31G_dp-NX-Scan-d89-09-n800
 OpenBabel11261920123D

 20 20  0  0  1  0  0  0  0  0999 V2000
   -5.0963   -1.4416    1.3954 C   0  0  0  0  0  0  0  0  0  0  0  0
   -5.6860   -1.3591    2.5681 N   0  0  0  0  0  0  0  0  0  0  0  0
   -6.1926   -1.2517    3.5836 N   0  0  0  0  0  0  0  0  0  0  0  0
   -5.7738   -0.9405    0.2201 C   0  0  0  0  0  0  0  0  0  0  0  0
   -5.0757   -0.7937   -0.9248 C   0  0  0  0  0  0  0  0  0  0  0  0
   -3.5876   -0.9278   -0.9233 C   0  0  2  0  0  0  0  0  0  0  0  0
   -3.0943   -1.8717    0.1259 C   0  0  0  0  0  0  0  0  0  0  0  0
   -3.7776   -2.0301    1.2759 C   0  0  0  0  0  0  0  0  0  0  0  0
   -6.8377   -0.7317    0.2732 H   0  0  0  0  0  0  0  0  0  0  0  0
   -5.5711   -0.4847   -1.8371 H   0  0  0  0  0  0  0  0  0  0  0  0
   -3.1851   -1.1403   -1.9132 H   0  0  0  0  0  0  0  0  0  0  0  0
   -2.1220   -2.3323   -0.0083 H   0  0  0  0  0  0  0  0  0  0  0  0
   -3.3835   -2.6095    2.1048 H   0  0  0  0  0  0  0  0  0  0  0  0
   -3.7105    2.2841    0.4183 O   0  0  0  0  0  0  0  0  0  0  0  0
   -3.5980    1.5573   -0.5359 C   0  0  0  0  0  0  0  0  0  0  0  0
   -2.9262    0.4032   -0.5213 O   0  0  0  0  0  0  0  0  0  0  0  0
   -4.1441    2.0445   -1.9060 C   0  0  0  0  0  0  0  0  0  0  0  0
   -3.9141    1.1639   -2.9058 F   0  0  0  0  0  0  0  0  0  0  0  0
   -5.4717    2.2531   -1.8418 F   0  0  0  0  0  0  0  0  0  0  0  0
   -3.5521    3.2017   -2.2358 F   0  0  0  0  0  0  0  0  0  0  0  0
  1  2  1  0  0  0  0
  2  3  1  0  0  0  0
  4  9  1  0  0  0  0
  4  1  2  0  0  0  0
  5  6  1  0  0  0  0
  5  4  1  0  0  0  0
  6 11  1  6  0  0  0
  6 16  1  0  0  0  0
  6  7  1  0  0  0  0
  7  8  2  0  0  0  0
  8  1  1  0  0  0  0
  8 13  1  0  0  0  0
 10  5  1  0  0  0  0
 12  7  1  0  0  0  0
 15 16  1  0  0  0  0
 15 14  2  0  0  0  0
 17 19  1  0  0  0  0
 17 15  1  0  0  0  0
 18 17  1  0  0  0  0
 20 17  1  0  0  0  0
M  RAD  3   2   2   3   3   5   2
M  END
