Coordinates from ORCA-job PhN2+~CF3COO-_B3LYPG-6-31G_dp-NX-Scan-d89-09-n800
 OpenBabel11261920123D

 20 20  0  0  1  0  0  0  0  0999 V2000
   -5.0002   -1.5006    1.3685 C   0  0  1  0  0  0  0  0  0  0  0  0
   -5.3099   -0.5173    2.1969 N   0  0  0  0  0  0  0  0  0  0  0  0
   -5.4994    0.4631    2.7293 N   0  0  0  0  0  0  0  0  0  0  0  0
   -5.9058   -1.6597    0.2376 C   0  0  0  0  0  0  0  0  0  0  0  0
   -5.3898   -1.6611   -1.0058 C   0  0  0  0  0  0  0  0  0  0  0  0
   -3.9509   -1.3204   -1.2089 C   0  0  2  0  0  0  0  0  0  0  0  0
   -3.0763   -1.7230   -0.0683 C   0  0  0  0  0  0  0  0  0  0  0  0
   -3.5714   -1.7214    1.1835 C   0  0  0  0  0  0  0  0  0  0  0  0
   -6.9723   -1.7576    0.4210 H   0  0  0  0  0  0  0  0  0  0  0  0
   -6.0135   -1.8319   -1.8773 H   0  0  0  0  0  0  0  0  0  0  0  0
   -3.5733   -1.6822   -2.1647 H   0  0  0  0  0  0  0  0  0  0  0  0
   -2.0310   -1.9395   -0.2639 H   0  0  0  0  0  0  0  0  0  0  0  0
   -2.9386   -1.8639    2.0551 H   0  0  0  0  0  0  0  0  0  0  0  0
   -4.5856    1.0683    0.5136 O   0  0  0  0  0  0  0  0  0  0  0  0
   -4.1264    1.1399   -0.6062 C   0  0  0  0  0  0  0  0  0  0  0  0
   -3.7998    0.1936   -1.4794 O   0  0  0  0  0  0  0  0  0  0  0  0
   -3.8126    2.5141   -1.2548 C   0  0  0  0  0  0  0  0  0  0  0  0
   -2.4977    2.6180   -1.5270 F   0  0  0  0  0  0  0  0  0  0  0  0
   -4.4927    2.6650   -2.4069 F   0  0  0  0  0  0  0  0  0  0  0  0
   -4.1526    3.5096   -0.4303 F   0  0  0  0  0  0  0  0  0  0  0  0
  1  2  1  6  0  0  0
  2  3  1  0  0  0  0
  4  9  1  0  0  0  0
  4  1  1  0  0  0  0
  5  4  2  0  0  0  0
  6 11  1  6  0  0  0
  6  5  1  0  0  0  0
  6  7  1  0  0  0  0
  7  8  2  0  0  0  0
  8  1  1  0  0  0  0
  8 13  1  0  0  0  0
 10  5  1  0  0  0  0
 12  7  1  0  0  0  0
 15 14  2  0  0  0  0
 16  6  1  0  0  0  0
 16 15  1  0  0  0  0
 17 15  1  0  0  0  0
 17 20  1  0  0  0  0
 18 17  1  0  0  0  0
 19 17  1  0  0  0  0
M  RAD  3   1   2   2   2   3   3
M  END
