Coordinates from ORCA-job PhN2+~CF3COO-_B3LYPG-6-31G_dp-NX-Scan-d89-09-n800
 OpenBabel11261920123D

 20 20  0  0  0  0  0  0  0  0999 V2000
   -3.8088   -1.1127    0.2199 C   0  0  0  0  0  0  0  0  0  0  0  0
   -3.4289    0.1276    0.8139 N   0  0  0  0  0  0  0  0  0  0  0  0
   -3.9780    1.2417    0.4255 N   0  0  0  0  0  0  0  0  0  0  0  0
   -4.6549   -1.3888   -0.8797 C   0  0  0  0  0  0  0  0  0  0  0  0
   -4.8571   -2.7074   -1.2932 C   0  0  0  0  0  0  0  0  0  0  0  0
   -4.2408   -3.7721   -0.6375 C   0  0  0  0  0  0  0  0  0  0  0  0
   -3.4017   -3.5122    0.4501 C   0  0  0  0  0  0  0  0  0  0  0  0
   -3.1894   -2.2040    0.8656 C   0  0  0  0  0  0  0  0  0  0  0  0
   -5.1560   -0.6016   -1.4234 H   0  0  0  0  0  0  0  0  0  0  0  0
   -5.5078   -2.8980   -2.1425 H   0  0  0  0  0  0  0  0  0  0  0  0
   -4.4103   -4.7919   -0.9701 H   0  0  0  0  0  0  0  0  0  0  0  0
   -2.9123   -4.3298    0.9710 H   0  0  0  0  0  0  0  0  0  0  0  0
   -2.5384   -1.9795    1.7045 H   0  0  0  0  0  0  0  0  0  0  0  0
   -4.6713    1.2806   -0.2803 O   0  0  0  0  0  0  0  0  0  0  0  0
   -5.2964    2.6053   -0.7077 C   0  0  0  0  0  0  0  0  0  0  0  0
   -6.1163    2.5771   -1.5557 O   0  0  0  0  0  0  0  0  0  0  0  0
   -4.7434    3.8398    0.0563 C   0  0  0  0  0  0  0  0  0  0  0  0
   -3.4321    3.9701   -0.1590 F   0  0  0  0  0  0  0  0  0  0  0  0
   -5.3705    4.9227   -0.4101 F   0  0  0  0  0  0  0  0  0  0  0  0
   -4.9855    3.7262    1.3643 F   0  0  0  0  0  0  0  0  0  0  0  0
  1  2  1  0  0  0  0
  1  8  2  0  0  0  0
  3  2  2  0  0  0  0
  4  1  1  0  0  0  0
  5  4  2  0  0  0  0
  5  6  1  0  0  0  0
  6  7  2  0  0  0  0
  7  8  1  0  0  0  0
  7 12  1  0  0  0  0
  8 13  1  0  0  0  0
  9  4  1  0  0  0  0
 10  5  1  0  0  0  0
 11  6  1  0  0  0  0
 14  3  1  0  0  0  0
 15 14  1  0  0  0  0
 15 17  1  0  0  0  0
 16 15  2  0  0  0  0
 17 20  1  0  0  0  0
 18 17  1  0  0  0  0
 19 17  1  0  0  0  0
M  END
