Coordinates from ORCA-job PhN2+~CF3COO-_B3LYPG-6-31G_dp-NX-Scan-d89-09-n800
 OpenBabel11261920123D

 20 20  0  0  0  0  0  0  0  0999 V2000
   -3.8194   -1.1633    0.2528 C   0  0  0  0  0  0  0  0  0  0  0  0
   -3.5159    0.0945    0.8128 N   0  0  0  0  0  0  0  0  0  0  0  0
   -3.8333    1.2312    0.6422 N   0  0  0  0  0  0  0  0  0  0  0  0
   -4.6890   -1.4038   -0.8299 C   0  0  0  0  0  0  0  0  0  0  0  0
   -4.8701   -2.7161   -1.2586 C   0  0  0  0  0  0  0  0  0  0  0  0
   -4.2082   -3.7752   -0.6304 C   0  0  0  0  0  0  0  0  0  0  0  0
   -3.3478   -3.5311    0.4429 C   0  0  0  0  0  0  0  0  0  0  0  0
   -3.1514   -2.2271    0.8835 C   0  0  0  0  0  0  0  0  0  0  0  0
   -5.1989   -0.5834   -1.3106 H   0  0  0  0  0  0  0  0  0  0  0  0
   -5.5359   -2.9119   -2.0933 H   0  0  0  0  0  0  0  0  0  0  0  0
   -4.3639   -4.7917   -0.9793 H   0  0  0  0  0  0  0  0  0  0  0  0
   -2.8337   -4.3518    0.9320 H   0  0  0  0  0  0  0  0  0  0  0  0
   -2.4895   -2.0034    1.7131 H   0  0  0  0  0  0  0  0  0  0  0  0
   -4.9112    1.3903   -0.5578 O   0  0  0  0  0  0  0  0  0  0  0  0
   -5.3303    2.6297   -0.8169 C   0  0  0  0  0  0  0  0  0  0  0  0
   -6.1382    2.8590   -1.6836 O   0  0  0  0  0  0  0  0  0  0  0  0
   -4.7460    3.7924    0.0326 C   0  0  0  0  0  0  0  0  0  0  0  0
   -3.4090    3.8705   -0.1059 F   0  0  0  0  0  0  0  0  0  0  0  0
   -5.2743    4.9507   -0.3718 F   0  0  0  0  0  0  0  0  0  0  0  0
   -5.0338    3.6335    1.3382 F   0  0  0  0  0  0  0  0  0  0  0  0
  1  2  1  0  0  0  0
  1  8  2  0  0  0  0
  3  2  1  0  0  0  0
  4  1  1  0  0  0  0
  5  4  2  0  0  0  0
  5  6  1  0  0  0  0
  6  7  2  0  0  0  0
  7  8  1  0  0  0  0
  7 12  1  0  0  0  0
  8 13  1  0  0  0  0
  9  4  1  0  0  0  0
 10  5  1  0  0  0  0
 11  6  1  0  0  0  0
 14  3  1  0  0  0  0
 15 14  1  0  0  0  0
 15 17  1  0  0  0  0
 16 15  2  0  0  0  0
 17 20  1  0  0  0  0
 18 17  1  0  0  0  0
 19 17  1  0  0  0  0
M  RAD  2   2   2   3   2
M  END
