Coordinates from ORCA-job PhN2+~CF3COO-_B3LYPG-6-31G_dp-NX-Scan-d89-09-n800
 OpenBabel11261920123D

 20 19  0  0  0  0  0  0  0  0999 V2000
   -3.7966   -1.2144    0.2374 C   0  0  0  0  0  0  0  0  0  0  0  0
   -3.4456    0.0397    0.8240 N   0  0  0  0  0  0  0  0  0  0  0  0
   -4.0618    1.1187    0.3386 N   0  0  0  0  0  0  0  0  0  0  0  0
   -4.6415   -1.5025   -0.8542 C   0  0  0  0  0  0  0  0  0  0  0  0
   -4.8275   -2.8248   -1.2688 C   0  0  0  0  0  0  0  0  0  0  0  0
   -4.1902   -3.8790   -0.6187 C   0  0  0  0  0  0  0  0  0  0  0  0
   -3.3497   -3.6025    0.4645 C   0  0  0  0  0  0  0  0  0  0  0  0
   -3.1560   -2.2924    0.8834 C   0  0  0  0  0  0  0  0  0  0  0  0
   -5.1570   -0.7203   -1.3948 H   0  0  0  0  0  0  0  0  0  0  0  0
   -5.4808   -3.0236   -2.1142 H   0  0  0  0  0  0  0  0  0  0  0  0
   -4.3441   -4.9017   -0.9498 H   0  0  0  0  0  0  0  0  0  0  0  0
   -2.8441   -4.4116    0.9838 H   0  0  0  0  0  0  0  0  0  0  0  0
   -2.5062   -2.0612    1.7215 H   0  0  0  0  0  0  0  0  0  0  0  0
   -4.7142    1.1965   -0.3476 O   0  0  0  0  0  0  0  0  0  0  0  0
   -5.4368    2.9420   -0.8182 C   0  0  0  0  0  0  0  0  0  0  0  0
   -6.2513    3.0392   -1.6573 O   0  0  0  0  0  0  0  0  0  0  0  0
   -4.7737    4.0451    0.0530 C   0  0  0  0  0  0  0  0  0  0  0  0
   -3.4550    4.0114   -0.1636 F   0  0  0  0  0  0  0  0  0  0  0  0
   -5.2408    5.2607   -0.2442 F   0  0  0  0  0  0  0  0  0  0  0  0
   -5.0271    3.7737    1.3372 F   0  0  0  0  0  0  0  0  0  0  0  0
  1  2  1  0  0  0  0
  1  8  2  0  0  0  0
  3  2  1  0  0  0  0
  4  1  1  0  0  0  0
  5  4  2  0  0  0  0
  5  6  1  0  0  0  0
  6  7  2  0  0  0  0
  7  8  1  0  0  0  0
  7 12  1  0  0  0  0
  8 13  1  0  0  0  0
  9  4  1  0  0  0  0
 10  5  1  0  0  0  0
 11  6  1  0  0  0  0
 14  3  2  0  0  0  0
 15 17  1  0  0  0  0
 16 15  2  0  0  0  0
 17 20  1  0  0  0  0
 18 17  1  0  0  0  0
 19 17  1  0  0  0  0
M  RAD  2   2   2  15   2
M  END
