Coordinates from ORCA-job PhN2+~CF3COO-_B3LYPG-6-31G_dp-NX-Scan-d89-09-n800
 OpenBabel11261920123D

 20 20  0  0  0  0  0  0  0  0999 V2000
   -3.8156   -1.1715    0.2585 C   0  0  0  0  0  0  0  0  0  0  0  0
   -3.5195    0.0890    0.8131 N   0  0  0  0  0  0  0  0  0  0  0  0
   -3.8235    1.2252    0.6580 N   0  0  0  0  0  0  0  0  0  0  0  0
   -4.6866   -1.4053   -0.8240 C   0  0  0  0  0  0  0  0  0  0  0  0
   -4.8687   -2.7163   -1.2561 C   0  0  0  0  0  0  0  0  0  0  0  0
   -4.2064   -3.7771   -0.6311 C   0  0  0  0  0  0  0  0  0  0  0  0
   -3.3447   -3.5372    0.4425 C   0  0  0  0  0  0  0  0  0  0  0  0
   -3.1466   -2.2350    0.8875 C   0  0  0  0  0  0  0  0  0  0  0  0
   -5.1944   -0.5797   -1.2985 H   0  0  0  0  0  0  0  0  0  0  0  0
   -5.5354   -2.9097   -2.0907 H   0  0  0  0  0  0  0  0  0  0  0  0
   -4.3628   -4.7925   -0.9825 H   0  0  0  0  0  0  0  0  0  0  0  0
   -2.8310   -4.3600    0.9283 H   0  0  0  0  0  0  0  0  0  0  0  0
   -2.4840   -2.0144    1.7174 H   0  0  0  0  0  0  0  0  0  0  0  0
   -4.9264    1.4036   -0.5710 O   0  0  0  0  0  0  0  0  0  0  0  0
   -5.3407    2.6399   -0.8274 C   0  0  0  0  0  0  0  0  0  0  0  0
   -6.1482    2.8818   -1.6931 O   0  0  0  0  0  0  0  0  0  0  0  0
   -4.7497    3.7955    0.0268 C   0  0  0  0  0  0  0  0  0  0  0  0
   -3.4110    3.8642   -0.1095 F   0  0  0  0  0  0  0  0  0  0  0  0
   -5.2677    4.9615   -0.3689 F   0  0  0  0  0  0  0  0  0  0  0  0
   -5.0372    3.6311    1.3328 F   0  0  0  0  0  0  0  0  0  0  0  0
  1  2  1  0  0  0  0
  1  8  2  0  0  0  0
  3  2  1  0  0  0  0
  4  1  1  0  0  0  0
  5  4  2  0  0  0  0
  5  6  1  0  0  0  0
  6  7  2  0  0  0  0
  7  8  1  0  0  0  0
  7 12  1  0  0  0  0
  8 13  1  0  0  0  0
  9  4  1  0  0  0  0
 10  5  1  0  0  0  0
 11  6  1  0  0  0  0
 14  3  1  0  0  0  0
 15 14  1  0  0  0  0
 15 17  1  0  0  0  0
 16 15  2  0  0  0  0
 17 20  1  0  0  0  0
 18 17  1  0  0  0  0
 19 17  1  0  0  0  0
M  RAD  2   2   2   3   2
M  END
