Coordinates from ORCA-job PhN2+~CF3COO-_B3LYPG-6-31G_dp-NX-Scan-d89-09-n800
 OpenBabel11261920123D

 20 20  0  0  1  0  0  0  0  0999 V2000
   -5.0153   -1.4283    1.4078 C   0  0  1  0  0  0  0  0  0  0  0  0
   -5.4749   -1.0234    2.5688 N   0  0  0  0  0  0  0  0  0  0  0  0
   -5.8669   -0.6337    3.5650 N   0  0  0  0  0  0  0  0  0  0  0  0
   -5.9152   -1.5152    0.2788 C   0  0  0  0  0  0  0  0  0  0  0  0
   -5.4046   -1.5084   -0.9672 C   0  0  0  0  0  0  0  0  0  0  0  0
   -3.9514   -1.2577   -1.2003 C   0  0  2  0  0  0  0  0  0  0  0  0
   -3.0856   -1.5737   -0.0258 C   0  0  0  0  0  0  0  0  0  0  0  0
   -3.5886   -1.5799    1.2233 C   0  0  0  0  0  0  0  0  0  0  0  0
   -6.9825   -1.5978    0.4616 H   0  0  0  0  0  0  0  0  0  0  0  0
   -6.0502   -1.6144   -1.8328 H   0  0  0  0  0  0  0  0  0  0  0  0
   -3.5959   -1.7450   -2.1097 H   0  0  0  0  0  0  0  0  0  0  0  0
   -2.0256   -1.7279   -0.1991 H   0  0  0  0  0  0  0  0  0  0  0  0
   -2.9560   -1.7090    2.0961 H   0  0  0  0  0  0  0  0  0  0  0  0
   -4.4964    1.1634    0.3086 O   0  0  0  0  0  0  0  0  0  0  0  0
   -4.0402    1.1950   -0.8100 C   0  0  0  0  0  0  0  0  0  0  0  0
   -3.7347    0.1971   -1.6326 O   0  0  0  0  0  0  0  0  0  0  0  0
   -3.7072    2.5335   -1.5167 C   0  0  0  0  0  0  0  0  0  0  0  0
   -2.3912    2.6057   -1.7951 F   0  0  0  0  0  0  0  0  0  0  0  0
   -4.3867    2.6443   -2.6738 F   0  0  0  0  0  0  0  0  0  0  0  0
   -4.0310    3.5682   -0.7349 F   0  0  0  0  0  0  0  0  0  0  0  0
  1  2  1  6  0  0  0
  2  3  1  0  0  0  0
  4  9  1  0  0  0  0
  4  1  1  0  0  0  0
  5  4  2  0  0  0  0
  6 11  1  6  0  0  0
  6  5  1  0  0  0  0
  6  7  1  0  0  0  0
  7  8  2  0  0  0  0
  8  1  1  0  0  0  0
  8 13  1  0  0  0  0
 10  5  1  0  0  0  0
 12  7  1  0  0  0  0
 15 14  2  0  0  0  0
 16  6  1  0  0  0  0
 16 15  1  0  0  0  0
 17 15  1  0  0  0  0
 17 20  1  0  0  0  0
 18 17  1  0  0  0  0
 19 17  1  0  0  0  0
M  RAD  3   1   2   2   2   3   3
M  END
