Coordinates from ORCA-job PhN2+~CF3COO-_B3LYPG-6-31G_dp-NX-Scan-d89-09-n800
 OpenBabel11261920123D

 20 20  0  0  1  0  0  0  0  0999 V2000
   -5.1485   -1.6996    1.5366 C   0  0  0  0  0  0  0  0  0  0  0  0
   -5.6213   -1.8799    2.7493 N   0  0  0  0  0  0  0  0  0  0  0  0
   -6.0321   -1.9993    3.8069 N   0  0  0  0  0  0  0  0  0  0  0  0
   -5.9850   -1.0846    0.5276 C   0  0  0  0  0  0  0  0  0  0  0  0
   -5.4215   -0.6660   -0.6221 C   0  0  0  0  0  0  0  0  0  0  0  0
   -3.9328   -0.6354   -0.7651 C   0  0  2  0  0  0  0  0  0  0  0  0
   -3.2433   -1.6733    0.0605 C   0  0  0  0  0  0  0  0  0  0  0  0
   -3.7936   -2.0986    1.2140 C   0  0  0  0  0  0  0  0  0  0  0  0
   -7.0527   -1.0045    0.7072 H   0  0  0  0  0  0  0  0  0  0  0  0
   -6.0263   -0.2453   -1.4163 H   0  0  0  0  0  0  0  0  0  0  0  0
   -3.6042   -0.6442   -1.8036 H   0  0  0  0  0  0  0  0  0  0  0  0
   -2.2474   -1.9881   -0.2293 H   0  0  0  0  0  0  0  0  0  0  0  0
   -3.2637   -2.7580    1.8945 H   0  0  0  0  0  0  0  0  0  0  0  0
   -3.6184    2.8824   -0.0221 O   0  0  0  0  0  0  0  0  0  0  0  0
   -3.5938    1.8783   -0.6878 C   0  0  0  0  0  0  0  0  0  0  0  0
   -3.4446    0.6706   -0.1500 O   0  0  0  0  0  0  0  0  0  0  0  0
   -3.6532    1.9718   -2.2363 C   0  0  0  0  0  0  0  0  0  0  0  0
   -2.6422    1.2698   -2.7974 F   0  0  0  0  0  0  0  0  0  0  0  0
   -4.8137    1.4606   -2.7154 F   0  0  0  0  0  0  0  0  0  0  0  0
   -3.5616    3.2361   -2.6393 F   0  0  0  0  0  0  0  0  0  0  0  0
  1  2  1  0  0  0  0
  2  3  1  0  0  0  0
  4  9  1  0  0  0  0
  4  1  2  0  0  0  0
  5  4  1  0  0  0  0
  6 11  1  6  0  0  0
  6  5  1  0  0  0  0
  6 16  1  0  0  0  0
  6  7  1  0  0  0  0
  7  8  2  0  0  0  0
  8  1  1  0  0  0  0
  8 13  1  0  0  0  0
 10  5  1  0  0  0  0
 12  7  1  0  0  0  0
 15 16  1  0  0  0  0
 15 14  2  0  0  0  0
 17 15  1  0  0  0  0
 18 17  1  0  0  0  0
 19 17  1  0  0  0  0
 20 17  1  0  0  0  0
M  RAD  3   2   2   3   3   5   2
M  END
