Coordinates from ORCA-job PhN2+~CF3COO-_B3LYPG-6-31G_dp-NX-Scan-d89-09-n800
 OpenBabel11261920123D

 20 20  0  0  1  0  0  0  0  0999 V2000
   -5.1522   -1.7082    1.5394 C   0  0  0  0  0  0  0  0  0  0  0  0
   -5.6299   -1.9092    2.7467 N   0  0  0  0  0  0  0  0  0  0  0  0
   -6.0450   -2.0479    3.8000 N   0  0  0  0  0  0  0  0  0  0  0  0
   -5.9879   -1.0856    0.5347 C   0  0  0  0  0  0  0  0  0  0  0  0
   -5.4246   -0.6565   -0.6109 C   0  0  0  0  0  0  0  0  0  0  0  0
   -3.9364   -0.6254   -0.7570 C   0  0  2  0  0  0  0  0  0  0  0  0
   -3.2428   -1.6600    0.0690 C   0  0  0  0  0  0  0  0  0  0  0  0
   -3.7938   -2.0955    1.2181 C   0  0  0  0  0  0  0  0  0  0  0  0
   -7.0560   -1.0084    0.7138 H   0  0  0  0  0  0  0  0  0  0  0  0
   -6.0300   -0.2290   -1.4011 H   0  0  0  0  0  0  0  0  0  0  0  0
   -3.6105   -0.6375   -1.7962 H   0  0  0  0  0  0  0  0  0  0  0  0
   -2.2435   -1.9662   -0.2185 H   0  0  0  0  0  0  0  0  0  0  0  0
   -3.2612   -2.7553    1.8962 H   0  0  0  0  0  0  0  0  0  0  0  0
   -3.5893    2.8980   -0.0424 O   0  0  0  0  0  0  0  0  0  0  0  0
   -3.5814    1.8874   -0.6985 C   0  0  0  0  0  0  0  0  0  0  0  0
   -3.4490    0.6836   -0.1484 O   0  0  0  0  0  0  0  0  0  0  0  0
   -3.6500    1.9675   -2.2474 C   0  0  0  0  0  0  0  0  0  0  0  0
   -2.6455    1.2562   -2.8088 F   0  0  0  0  0  0  0  0  0  0  0  0
   -4.8157    1.4576   -2.7148 F   0  0  0  0  0  0  0  0  0  0  0  0
   -3.5551    3.2277   -2.6618 F   0  0  0  0  0  0  0  0  0  0  0  0
  1  2  1  0  0  0  0
  2  3  1  0  0  0  0
  4  9  1  0  0  0  0
  4  1  2  0  0  0  0
  5  4  1  0  0  0  0
  6 11  1  6  0  0  0
  6  5  1  0  0  0  0
  6 16  1  0  0  0  0
  6  7  1  0  0  0  0
  7  8  2  0  0  0  0
  8  1  1  0  0  0  0
  8 13  1  0  0  0  0
 10  5  1  0  0  0  0
 12  7  1  0  0  0  0
 15 16  1  0  0  0  0
 15 14  2  0  0  0  0
 17 15  1  0  0  0  0
 18 17  1  0  0  0  0
 19 17  1  0  0  0  0
 20 17  1  0  0  0  0
M  RAD  3   2   2   3   3   5   2
M  END
