Coordinates from ORCA-job PhN2+~CF3COO-_B3LYPG-6-31G_dp-NX-Scan-d89-09-n800
 OpenBabel11261920123D

 20 20  0  0  1  0  0  0  0  0999 V2000
   -5.0719   -1.5502    1.5358 C   0  0  0  0  0  0  0  0  0  0  0  0
   -5.5685   -1.6716    2.7463 N   0  0  0  0  0  0  0  0  0  0  0  0
   -6.0004   -1.7775    3.7991 N   0  0  0  0  0  0  0  0  0  0  0  0
   -5.9595   -1.4680    0.3957 C   0  0  0  0  0  0  0  0  0  0  0  0
   -5.4528   -1.2984   -0.8393 C   0  0  0  0  0  0  0  0  0  0  0  0
   -3.9888   -1.1241   -1.0920 C   0  0  2  0  0  0  0  0  0  0  0  0
   -3.1285   -1.3628    0.1081 C   0  0  0  0  0  0  0  0  0  0  0  0
   -3.6379   -1.5311    1.3423 C   0  0  0  0  0  0  0  0  0  0  0  0
   -7.0282   -1.5701    0.5581 H   0  0  0  0  0  0  0  0  0  0  0  0
   -6.1118   -1.2630   -1.7011 H   0  0  0  0  0  0  0  0  0  0  0  0
   -3.6613   -1.7375   -1.9378 H   0  0  0  0  0  0  0  0  0  0  0  0
   -2.0539   -1.3747   -0.0470 H   0  0  0  0  0  0  0  0  0  0  0  0
   -2.9933   -1.6785    2.2033 H   0  0  0  0  0  0  0  0  0  0  0  0
   -4.4158    1.4299    0.1289 O   0  0  0  0  0  0  0  0  0  0  0  0
   -3.9638    1.3323   -0.9840 C   0  0  0  0  0  0  0  0  0  0  0  0
   -3.7057    0.2353   -1.6931 O   0  0  0  0  0  0  0  0  0  0  0  0
   -3.5789    2.5704   -1.8321 C   0  0  0  0  0  0  0  0  0  0  0  0
   -2.2674    2.5441   -2.1374 F   0  0  0  0  0  0  0  0  0  0  0  0
   -4.2769    2.5928   -2.9832 F   0  0  0  0  0  0  0  0  0  0  0  0
   -3.8348    3.6956   -1.1585 F   0  0  0  0  0  0  0  0  0  0  0  0
  1  2  1  0  0  0  0
  2  3  1  0  0  0  0
  4  9  1  0  0  0  0
  4  1  2  0  0  0  0
  5  4  1  0  0  0  0
  6 11  1  6  0  0  0
  6  5  1  0  0  0  0
  6  7  1  0  0  0  0
  7  8  2  0  0  0  0
  8  1  1  0  0  0  0
  8 13  1  0  0  0  0
 10  5  1  0  0  0  0
 12  7  1  0  0  0  0
 15 14  2  0  0  0  0
 16  6  1  0  0  0  0
 16 15  1  0  0  0  0
 17 20  1  0  0  0  0
 17 15  1  0  0  0  0
 18 17  1  0  0  0  0
 19 17  1  0  0  0  0
M  RAD  3   2   2   3   3   5   2
M  END
