Coordinates from ORCA-job PhN2+~CF3COO-_B3LYPG-6-31G_dp-NX-Scan-d89-09-n800
 OpenBabel11261920123D

 20 20  0  0  1  0  0  0  0  0999 V2000
   -5.2585   -2.0115    1.5388 C   0  0  0  0  0  0  0  0  0  0  0  0
   -5.8203   -2.9237    2.3029 N   0  0  0  0  0  0  0  0  0  0  0  0
   -6.3086   -3.7253    2.9607 N   0  0  0  0  0  0  0  0  0  0  0  0
   -6.0712   -1.0634    0.7998 C   0  0  0  0  0  0  0  0  0  0  0  0
   -5.5059   -0.2087   -0.0748 C   0  0  0  0  0  0  0  0  0  0  0  0
   -4.0361   -0.1930   -0.3727 C   0  0  2  0  0  0  0  0  0  0  0  0
   -3.2475   -1.1022    0.5219 C   0  0  0  0  0  0  0  0  0  0  0  0
   -3.8159   -1.9587    1.3919 C   0  0  0  0  0  0  0  0  0  0  0  0
   -7.1453   -1.0640    0.9593 H   0  0  0  0  0  0  0  0  0  0  0  0
   -6.1249    0.4870   -0.6302 H   0  0  0  0  0  0  0  0  0  0  0  0
   -3.8440   -0.4396   -1.4197 H   0  0  0  0  0  0  0  0  0  0  0  0
   -2.1675   -1.0702    0.4173 H   0  0  0  0  0  0  0  0  0  0  0  0
   -3.2060   -2.6274    1.9913 H   0  0  0  0  0  0  0  0  0  0  0  0
   -2.6750    3.1312   -0.9282 O   0  0  0  0  0  0  0  0  0  0  0  0
   -3.2123    2.0721   -1.1370 C   0  0  0  0  0  0  0  0  0  0  0  0
   -3.4920    1.1957   -0.1634 O   0  0  0  0  0  0  0  0  0  0  0  0
   -3.6033    1.7124   -2.5983 C   0  0  0  0  0  0  0  0  0  0  0  0
   -2.8493    0.6855   -3.0578 F   0  0  0  0  0  0  0  0  0  0  0  0
   -4.9021    1.3416   -2.6897 F   0  0  0  0  0  0  0  0  0  0  0  0
   -3.4142    2.7553   -3.4000 F   0  0  0  0  0  0  0  0  0  0  0  0
  1  2  1  0  0  0  0
  2  3  1  0  0  0  0
  4  9  1  0  0  0  0
  4  1  2  0  0  0  0
  5  4  1  0  0  0  0
  6 11  1  6  0  0  0
  6 16  1  0  0  0  0
  6  5  1  0  0  0  0
  6  7  1  0  0  0  0
  7  8  2  0  0  0  0
  8  1  1  0  0  0  0
  8 13  1  0  0  0  0
 10  5  1  0  0  0  0
 12  7  1  0  0  0  0
 15 14  2  0  0  0  0
 15 16  1  0  0  0  0
 17 15  1  0  0  0  0
 18 17  1  0  0  0  0
 19 17  1  0  0  0  0
 20 17  1  0  0  0  0
M  RAD  3   2   2   3   3   5   2
M  END
