Coordinates from ORCA-job PhN2+~CF3COO-_B3LYPG-6-31G_dp-NX-Scan-d89-09-n800
 OpenBabel11261920123D

 20 20  0  0  0  0  0  0  0  0999 V2000
   -3.8211   -1.1030    0.2180 C   0  0  0  0  0  0  0  0  0  0  0  0
   -3.4457    0.1385    0.8162 N   0  0  0  0  0  0  0  0  0  0  0  0
   -3.9541    1.2552    0.4605 N   0  0  0  0  0  0  0  0  0  0  0  0
   -4.6721   -1.3788   -0.8772 C   0  0  0  0  0  0  0  0  0  0  0  0
   -4.8678   -2.6975   -1.2905 C   0  0  0  0  0  0  0  0  0  0  0  0
   -4.2403   -3.7587   -0.6377 C   0  0  0  0  0  0  0  0  0  0  0  0
   -3.3969   -3.4978    0.4454 C   0  0  0  0  0  0  0  0  0  0  0  0
   -3.1903   -2.1880    0.8606 C   0  0  0  0  0  0  0  0  0  0  0  0
   -5.1797   -0.5916   -1.4137 H   0  0  0  0  0  0  0  0  0  0  0  0
   -5.5217   -2.8926   -2.1360 H   0  0  0  0  0  0  0  0  0  0  0  0
   -4.4057   -4.7790   -0.9711 H   0  0  0  0  0  0  0  0  0  0  0  0
   -2.9005   -4.3136    0.9620 H   0  0  0  0  0  0  0  0  0  0  0  0
   -2.5362   -1.9587    1.6956 H   0  0  0  0  0  0  0  0  0  0  0  0
   -4.6944    1.2949   -0.3114 O   0  0  0  0  0  0  0  0  0  0  0  0
   -5.2664    2.5581   -0.7047 C   0  0  0  0  0  0  0  0  0  0  0  0
   -6.0827    2.5640   -1.5651 O   0  0  0  0  0  0  0  0  0  0  0  0
   -4.7358    3.8040    0.0592 C   0  0  0  0  0  0  0  0  0  0  0  0
   -3.4227    3.9569   -0.1368 F   0  0  0  0  0  0  0  0  0  0  0  0
   -5.3705    4.8735   -0.4277 F   0  0  0  0  0  0  0  0  0  0  0  0
   -4.9952    3.7075    1.3665 F   0  0  0  0  0  0  0  0  0  0  0  0
  1  2  1  0  0  0  0
  1  8  2  0  0  0  0
  3  2  2  0  0  0  0
  4  1  1  0  0  0  0
  5  4  2  0  0  0  0
  5  6  1  0  0  0  0
  6  7  2  0  0  0  0
  7  8  1  0  0  0  0
  7 12  1  0  0  0  0
  8 13  1  0  0  0  0
  9  4  1  0  0  0  0
 10  5  1  0  0  0  0
 11  6  1  0  0  0  0
 14  3  1  0  0  0  0
 15 14  1  0  0  0  0
 15 17  1  0  0  0  0
 16 15  2  0  0  0  0
 17 20  1  0  0  0  0
 18 17  1  0  0  0  0
 19 17  1  0  0  0  0
M  END
