Coordinates from ORCA-job PhN2+~CF3COO-_B3LYPG-6-31G_dp-NX-Scan-d89-09-n800
 OpenBabel11261920123D

 20 20  0  0  1  0  0  0  0  0999 V2000
   -5.1784   -1.7754    1.5608 C   0  0  0  0  0  0  0  0  0  0  0  0
   -5.6805   -2.1285    2.7225 N   0  0  0  0  0  0  0  0  0  0  0  0
   -6.1166   -2.4090    3.7388 N   0  0  0  0  0  0  0  0  0  0  0  0
   -6.0151   -1.0982    0.5938 C   0  0  0  0  0  0  0  0  0  0  0  0
   -5.4579   -0.5869   -0.5204 C   0  0  0  0  0  0  0  0  0  0  0  0
   -3.9739   -0.5453   -0.6954 C   0  0  2  0  0  0  0  0  0  0  0  0
   -3.2469   -1.5558    0.1308 C   0  0  0  0  0  0  0  0  0  0  0  0
   -3.7966   -2.0719    1.2463 C   0  0  0  0  0  0  0  0  0  0  0  0
   -7.0845   -1.0441    0.7733 H   0  0  0  0  0  0  0  0  0  0  0  0
   -6.0724   -0.1099   -1.2749 H   0  0  0  0  0  0  0  0  0  0  0  0
   -3.6721   -0.5832   -1.7413 H   0  0  0  0  0  0  0  0  0  0  0  0
   -2.2242   -1.7935   -0.1401 H   0  0  0  0  0  0  0  0  0  0  0  0
   -3.2399   -2.7330    1.9034 H   0  0  0  0  0  0  0  0  0  0  0  0
   -3.3956    3.0038   -0.2033 O   0  0  0  0  0  0  0  0  0  0  0  0
   -3.5060    1.9524   -0.7813 C   0  0  0  0  0  0  0  0  0  0  0  0
   -3.4909    0.7868   -0.1404 O   0  0  0  0  0  0  0  0  0  0  0  0
   -3.6119    1.9337   -2.3300 C   0  0  0  0  0  0  0  0  0  0  0  0
   -2.6465    1.1523   -2.8674 F   0  0  0  0  0  0  0  0  0  0  0  0
   -4.8067    1.4385   -2.7360 F   0  0  0  0  0  0  0  0  0  0  0  0
   -3.4835    3.1601   -2.8273 F   0  0  0  0  0  0  0  0  0  0  0  0
  1  2  1  0  0  0  0
  2  3  1  0  0  0  0
  4  9  1  0  0  0  0
  4  1  2  0  0  0  0
  5  4  1  0  0  0  0
  6 11  1  6  0  0  0
  6  5  1  0  0  0  0
  6 16  1  0  0  0  0
  6  7  1  0  0  0  0
  7  8  2  0  0  0  0
  8  1  1  0  0  0  0
  8 13  1  0  0  0  0
 10  5  1  0  0  0  0
 12  7  1  0  0  0  0
 15 14  2  0  0  0  0
 15 16  1  0  0  0  0
 17 15  1  0  0  0  0
 18 17  1  0  0  0  0
 19 17  1  0  0  0  0
 20 17  1  0  0  0  0
M  RAD  3   2   2   3   3   5   2
M  END
