Coordinates from ORCA-job PhN2+~CF3COO-_B3LYPG-6-31G_dp-NX-Scan-d89-09-n800
 OpenBabel11261920123D

 20 20  0  0  1  0  0  0  0  0999 V2000
   -5.2689   -2.0524    1.5066 C   0  0  0  0  0  0  0  0  0  0  0  0
   -5.8385   -3.0345    2.1790 N   0  0  0  0  0  0  0  0  0  0  0  0
   -6.3335   -3.8975    2.7539 N   0  0  0  0  0  0  0  0  0  0  0  0
   -6.0674   -1.0511    0.8186 C   0  0  0  0  0  0  0  0  0  0  0  0
   -5.4914   -0.1369    0.0107 C   0  0  0  0  0  0  0  0  0  0  0  0
   -4.0222   -0.1311   -0.3058 C   0  0  2  0  0  0  0  0  0  0  0  0
   -3.2438   -1.0277    0.6151 C   0  0  0  0  0  0  0  0  0  0  0  0
   -3.8216   -1.9437    1.4187 C   0  0  0  0  0  0  0  0  0  0  0  0
   -7.1431   -1.0526    0.9674 H   0  0  0  0  0  0  0  0  0  0  0  0
   -6.1059    0.5977   -0.4974 H   0  0  0  0  0  0  0  0  0  0  0  0
   -3.8472   -0.4272   -1.3437 H   0  0  0  0  0  0  0  0  0  0  0  0
   -2.1618   -0.9553    0.5661 H   0  0  0  0  0  0  0  0  0  0  0  0
   -3.2117   -2.6139    2.0165 H   0  0  0  0  0  0  0  0  0  0  0  0
   -2.5672    3.1212   -1.0797 O   0  0  0  0  0  0  0  0  0  0  0  0
   -3.1626    2.0777   -1.2048 C   0  0  0  0  0  0  0  0  0  0  0  0
   -3.4505    1.2598   -0.1767 O   0  0  0  0  0  0  0  0  0  0  0  0
   -3.6335    1.6657   -2.6288 C   0  0  0  0  0  0  0  0  0  0  0  0
   -2.9290    0.5995   -3.0773 F   0  0  0  0  0  0  0  0  0  0  0  0
   -4.9438    1.3281   -2.6420 F   0  0  0  0  0  0  0  0  0  0  0  0
   -3.4562    2.6673   -3.4845 F   0  0  0  0  0  0  0  0  0  0  0  0
  1  2  1  0  0  0  0
  2  3  1  0  0  0  0
  4  9  1  0  0  0  0
  4  1  2  0  0  0  0
  5  4  1  0  0  0  0
  6 11  1  6  0  0  0
  6 16  1  0  0  0  0
  6  5  1  0  0  0  0
  6  7  1  0  0  0  0
  7  8  2  0  0  0  0
  8  1  1  0  0  0  0
  8 13  1  0  0  0  0
 10  5  1  0  0  0  0
 12  7  1  0  0  0  0
 15 14  2  0  0  0  0
 15 16  1  0  0  0  0
 17 15  1  0  0  0  0
 18 17  1  0  0  0  0
 19 17  1  0  0  0  0
 20 17  1  0  0  0  0
M  RAD  3   2   2   3   3   5   2
M  END
