Coordinates from ORCA-job PhN2+~CF3COO-_B3LYPG-6-31G_dp-NX-Scan-d89-09-n800
 OpenBabel11261920123D

 20 20  0  0  1  0  0  0  0  0999 V2000
   -5.1138   -1.6066    1.5015 C   0  0  1  0  0  0  0  0  0  0  0  0
   -5.5549   -1.6037    2.7390 N   0  0  0  0  0  0  0  0  0  0  0  0
   -5.9386   -1.5533    3.8114 N   0  0  0  0  0  0  0  0  0  0  0  0
   -5.9411   -1.0494    0.4509 C   0  0  0  0  0  0  0  0  0  0  0  0
   -5.3647   -0.7364   -0.7257 C   0  0  0  0  0  0  0  0  0  0  0  0
   -3.8715   -0.7374   -0.8343 C   0  0  2  0  0  0  0  0  0  0  0  0
   -3.2361   -1.7977    0.0079 C   0  0  0  0  0  0  0  0  0  0  0  0
   -3.7939   -2.1203    1.1909 C   0  0  0  0  0  0  0  0  0  0  0  0
   -7.0063   -0.9309    0.6241 H   0  0  0  0  0  0  0  0  0  0  0  0
   -5.9530   -0.3748   -1.5597 H   0  0  0  0  0  0  0  0  0  0  0  0
   -3.5157   -0.7419   -1.8644 H   0  0  0  0  0  0  0  0  0  0  0  0
   -2.2741   -2.1999   -0.2877 H   0  0  0  0  0  0  0  0  0  0  0  0
   -3.3023   -2.7766    1.9026 H   0  0  0  0  0  0  0  0  0  0  0  0
   -3.8483    2.6865    0.1711 O   0  0  0  0  0  0  0  0  0  0  0  0
   -3.6778    1.7710   -0.5929 C   0  0  0  0  0  0  0  0  0  0  0  0
   -3.3587    0.5440   -0.1849 O   0  0  0  0  0  0  0  0  0  0  0  0
   -3.7254    2.0089   -2.1267 C   0  0  0  0  0  0  0  0  0  0  0  0
   -2.6793    1.4081   -2.7354 F   0  0  0  0  0  0  0  0  0  0  0  0
   -4.8559    1.4937   -2.6678 F   0  0  0  0  0  0  0  0  0  0  0  0
   -3.6886    3.3098   -2.4081 F   0  0  0  0  0  0  0  0  0  0  0  0
  1  2  1  1  0  0  0
  2  3  1  0  0  0  0
  4  9  1  0  0  0  0
  4  1  1  0  0  0  0
  5  4  2  0  0  0  0
  6 11  1  6  0  0  0
  6  5  1  0  0  0  0
  6 16  1  0  0  0  0
  6  7  1  0  0  0  0
  7  8  2  0  0  0  0
  8  1  1  0  0  0  0
  8 13  1  0  0  0  0
 10  5  1  0  0  0  0
 12  7  1  0  0  0  0
 15 16  1  0  0  0  0
 15 14  2  0  0  0  0
 17 15  1  0  0  0  0
 18 17  1  0  0  0  0
 19 17  1  0  0  0  0
 20 17  1  0  0  0  0
M  RAD  3   1   2   2   2   3   3
M  END
