Coordinates from ORCA-job PhN2+~CF3COO-_B3LYPG-6-31G_dp-NX-Scan-d89-09-n800
 OpenBabel11261920123D

 20 20  0  0  1  0  0  0  0  0999 V2000
   -5.0263   -1.4381    1.4361 C   0  0  1  0  0  0  0  0  0  0  0  0
   -5.5034   -1.1745    2.6305 N   0  0  0  0  0  0  0  0  0  0  0  0
   -5.9146   -0.9195    3.6630 N   0  0  0  0  0  0  0  0  0  0  0  0
   -5.9233   -1.4931    0.3033 C   0  0  0  0  0  0  0  0  0  0  0  0
   -5.4139   -1.4611   -0.9426 C   0  0  0  0  0  0  0  0  0  0  0  0
   -3.9577   -1.2306   -1.1815 C   0  0  2  0  0  0  0  0  0  0  0  0
   -3.0930   -1.5284   -0.0007 C   0  0  0  0  0  0  0  0  0  0  0  0
   -3.5978   -1.5599    1.2471 C   0  0  0  0  0  0  0  0  0  0  0  0
   -6.9909   -1.5786    0.4827 H   0  0  0  0  0  0  0  0  0  0  0  0
   -6.0637   -1.5403   -1.8079 H   0  0  0  0  0  0  0  0  0  0  0  0
   -3.6091   -1.7491   -2.0771 H   0  0  0  0  0  0  0  0  0  0  0  0
   -2.0289   -1.6571   -0.1706 H   0  0  0  0  0  0  0  0  0  0  0  0
   -2.9627   -1.6935    2.1174 H   0  0  0  0  0  0  0  0  0  0  0  0
   -4.4816    1.2157    0.2613 O   0  0  0  0  0  0  0  0  0  0  0  0
   -4.0230    1.2233   -0.8558 C   0  0  0  0  0  0  0  0  0  0  0  0
   -3.7240    0.2040   -1.6552 O   0  0  0  0  0  0  0  0  0  0  0  0
   -3.6775    2.5435   -1.5898 C   0  0  0  0  0  0  0  0  0  0  0  0
   -2.3606    2.5981   -1.8677 F   0  0  0  0  0  0  0  0  0  0  0  0
   -4.3546    2.6352   -2.7500 F   0  0  0  0  0  0  0  0  0  0  0  0
   -3.9935    3.5971   -0.8305 F   0  0  0  0  0  0  0  0  0  0  0  0
  1  2  1  6  0  0  0
  2  3  1  0  0  0  0
  4  9  1  0  0  0  0
  4  1  1  0  0  0  0
  5  4  2  0  0  0  0
  6 11  1  6  0  0  0
  6  5  1  0  0  0  0
  6  7  1  0  0  0  0
  7  8  2  0  0  0  0
  8  1  1  0  0  0  0
  8 13  1  0  0  0  0
 10  5  1  0  0  0  0
 12  7  1  0  0  0  0
 15 14  2  0  0  0  0
 16  6  1  0  0  0  0
 16 15  1  0  0  0  0
 17 15  1  0  0  0  0
 17 20  1  0  0  0  0
 18 17  1  0  0  0  0
 19 17  1  0  0  0  0
M  RAD  3   1   2   2   2   3   3
M  END
