Coordinates from ORCA-job PhN2+~CF3COO-_B3LYPG-6-31G_dp-NX-Scan-d89-09-n800
 OpenBabel11261920123D

 20 20  0  0  1  0  0  0  0  0999 V2000
   -5.1553   -1.7162    1.5422 C   0  0  0  0  0  0  0  0  0  0  0  0
   -5.6361   -1.9346    2.7452 N   0  0  0  0  0  0  0  0  0  0  0  0
   -6.0537   -2.0895    3.7953 N   0  0  0  0  0  0  0  0  0  0  0  0
   -5.9913   -1.0878    0.5415 C   0  0  0  0  0  0  0  0  0  0  0  0
   -5.4288   -0.6491   -0.6009 C   0  0  0  0  0  0  0  0  0  0  0  0
   -3.9411   -0.6162   -0.7502 C   0  0  2  0  0  0  0  0  0  0  0  0
   -3.2433   -1.6482    0.0754 C   0  0  0  0  0  0  0  0  0  0  0  0
   -3.7940   -2.0929    1.2211 C   0  0  0  0  0  0  0  0  0  0  0  0
   -7.0596   -1.0135    0.7207 H   0  0  0  0  0  0  0  0  0  0  0  0
   -6.0354   -0.2160   -1.3871 H   0  0  0  0  0  0  0  0  0  0  0  0
   -3.6179   -0.6306   -1.7902 H   0  0  0  0  0  0  0  0  0  0  0  0
   -2.2410   -1.9463   -0.2104 H   0  0  0  0  0  0  0  0  0  0  0  0
   -3.2584   -2.7529    1.8967 H   0  0  0  0  0  0  0  0  0  0  0  0
   -3.5667    2.9120   -0.0607 O   0  0  0  0  0  0  0  0  0  0  0  0
   -3.5727    1.8957   -0.7079 C   0  0  0  0  0  0  0  0  0  0  0  0
   -3.4548    0.6954   -0.1469 O   0  0  0  0  0  0  0  0  0  0  0  0
   -3.6449    1.9639   -2.2571 C   0  0  0  0  0  0  0  0  0  0  0  0
   -2.6450    1.2440   -2.8157 F   0  0  0  0  0  0  0  0  0  0  0  0
   -4.8143    1.4556   -2.7175 F   0  0  0  0  0  0  0  0  0  0  0  0
   -3.5456    3.2204   -2.6815 F   0  0  0  0  0  0  0  0  0  0  0  0
  1  2  1  0  0  0  0
  2  3  1  0  0  0  0
  4  9  1  0  0  0  0
  4  1  2  0  0  0  0
  5  4  1  0  0  0  0
  6 11  1  6  0  0  0
  6  5  1  0  0  0  0
  6 16  1  0  0  0  0
  6  7  1  0  0  0  0
  7  8  2  0  0  0  0
  8  1  1  0  0  0  0
  8 13  1  0  0  0  0
 10  5  1  0  0  0  0
 12  7  1  0  0  0  0
 15 16  1  0  0  0  0
 15 14  2  0  0  0  0
 17 15  1  0  0  0  0
 18 17  1  0  0  0  0
 19 17  1  0  0  0  0
 20 17  1  0  0  0  0
M  RAD  3   2   2   3   3   5   2
M  END
