Coordinates from ORCA-job PhN2+~CF3COO-_B3LYPG-6-31G_dp-NX-Scan-d89-09-n800
 OpenBabel11261920123D

 20 20  0  0  1  0  0  0  0  0999 V2000
   -5.0600   -1.5119    1.5123 C   0  0  0  0  0  0  0  0  0  0  0  0
   -5.5551   -1.5495    2.7288 N   0  0  0  0  0  0  0  0  0  0  0  0
   -5.9853   -1.5779    3.7864 N   0  0  0  0  0  0  0  0  0  0  0  0
   -5.9498   -1.4666    0.3726 C   0  0  0  0  0  0  0  0  0  0  0  0
   -5.4426   -1.3381   -0.8674 C   0  0  0  0  0  0  0  0  0  0  0  0
   -3.9802   -1.1527   -1.1177 C   0  0  2  0  0  0  0  0  0  0  0  0
   -3.1183   -1.4063    0.0774 C   0  0  0  0  0  0  0  0  0  0  0  0
   -3.6267   -1.5338    1.3169 C   0  0  0  0  0  0  0  0  0  0  0  0
   -7.0183   -1.5634    0.5399 H   0  0  0  0  0  0  0  0  0  0  0  0
   -6.1001   -1.3339   -1.7309 H   0  0  0  0  0  0  0  0  0  0  0  0
   -3.6485   -1.7439   -1.9766 H   0  0  0  0  0  0  0  0  0  0  0  0
   -2.0455   -1.4521   -0.0829 H   0  0  0  0  0  0  0  0  0  0  0  0
   -2.9841   -1.6789    2.1798 H   0  0  0  0  0  0  0  0  0  0  0  0
   -4.4366    1.3708    0.1584 O   0  0  0  0  0  0  0  0  0  0  0  0
   -3.9778    1.3028   -0.9546 C   0  0  0  0  0  0  0  0  0  0  0  0
   -3.7075    0.2260   -1.6885 O   0  0  0  0  0  0  0  0  0  0  0  0
   -3.6034    2.5646   -1.7718 C   0  0  0  0  0  0  0  0  0  0  0  0
   -2.2878    2.5656   -2.0610 F   0  0  0  0  0  0  0  0  0  0  0  0
   -4.2872    2.6008   -2.9310 F   0  0  0  0  0  0  0  0  0  0  0  0
   -3.8853    3.6714   -1.0781 F   0  0  0  0  0  0  0  0  0  0  0  0
  1  2  1  0  0  0  0
  2  3  1  0  0  0  0
  4  9  1  0  0  0  0
  4  1  2  0  0  0  0
  5  4  1  0  0  0  0
  6 11  1  6  0  0  0
  6  5  1  0  0  0  0
  6  7  1  0  0  0  0
  7  8  2  0  0  0  0
  8  1  1  0  0  0  0
  8 13  1  0  0  0  0
 10  5  1  0  0  0  0
 12  7  1  0  0  0  0
 15 14  2  0  0  0  0
 16  6  1  0  0  0  0
 16 15  1  0  0  0  0
 17 20  1  0  0  0  0
 17 15  1  0  0  0  0
 18 17  1  0  0  0  0
 19 17  1  0  0  0  0
M  RAD  3   2   2   3   3   5   2
M  END
