Coordinates from ORCA-job PhN2+~CF3COO-_B3LYPG-6-31G_dp-NX-Scan-d89-09-n800
 OpenBabel11261920123D

 20 20  0  0  1  0  0  0  0  0999 V2000
   -5.1777   -1.7753    1.5609 C   0  0  0  0  0  0  0  0  0  0  0  0
   -5.6775   -2.1244    2.7249 N   0  0  0  0  0  0  0  0  0  0  0  0
   -6.1116   -2.4013    3.7433 N   0  0  0  0  0  0  0  0  0  0  0  0
   -6.0161   -1.1002    0.5938 C   0  0  0  0  0  0  0  0  0  0  0  0
   -5.4604   -0.5897   -0.5217 C   0  0  0  0  0  0  0  0  0  0  0  0
   -3.9764   -0.5463   -0.6973 C   0  0  2  0  0  0  0  0  0  0  0  0
   -3.2483   -1.5571    0.1278 C   0  0  0  0  0  0  0  0  0  0  0  0
   -3.7964   -2.0723    1.2446 C   0  0  0  0  0  0  0  0  0  0  0  0
   -7.0854   -1.0464    0.7745 H   0  0  0  0  0  0  0  0  0  0  0  0
   -6.0758   -0.1139   -1.2761 H   0  0  0  0  0  0  0  0  0  0  0  0
   -3.6748   -0.5826   -1.7434 H   0  0  0  0  0  0  0  0  0  0  0  0
   -2.2260   -1.7947   -0.1444 H   0  0  0  0  0  0  0  0  0  0  0  0
   -3.2387   -2.7327    1.9016 H   0  0  0  0  0  0  0  0  0  0  0  0
   -3.4023    3.0030   -0.2001 O   0  0  0  0  0  0  0  0  0  0  0  0
   -3.5098    1.9520   -0.7797 C   0  0  0  0  0  0  0  0  0  0  0  0
   -3.4944    0.7854   -0.1403 O   0  0  0  0  0  0  0  0  0  0  0  0
   -3.6085    1.9347   -2.3288 C   0  0  0  0  0  0  0  0  0  0  0  0
   -2.6407    1.1537   -2.8624 F   0  0  0  0  0  0  0  0  0  0  0  0
   -4.8014    1.4398   -2.7408 F   0  0  0  0  0  0  0  0  0  0  0  0
   -3.4778    3.1615   -2.8244 F   0  0  0  0  0  0  0  0  0  0  0  0
  1  2  1  0  0  0  0
  2  3  1  0  0  0  0
  4  9  1  0  0  0  0
  4  1  2  0  0  0  0
  5  4  1  0  0  0  0
  6 11  1  6  0  0  0
  6  5  1  0  0  0  0
  6 16  1  0  0  0  0
  6  7  1  0  0  0  0
  7  8  2  0  0  0  0
  8  1  1  0  0  0  0
  8 13  1  0  0  0  0
 10  5  1  0  0  0  0
 12  7  1  0  0  0  0
 15 14  2  0  0  0  0
 15 16  1  0  0  0  0
 17 15  1  0  0  0  0
 18 17  1  0  0  0  0
 19 17  1  0  0  0  0
 20 17  1  0  0  0  0
M  RAD  3   2   2   3   3   5   2
M  END
