Coordinates from ORCA-job PhN2+~CF3COO-_B3LYPG-6-31G_dp-NX-Scan-d89-09-n800
 OpenBabel11261920123D

 20 20  0  0  0  0  0  0  0  0999 V2000
   -3.8232   -1.1555    0.2478 C   0  0  0  0  0  0  0  0  0  0  0  0
   -3.5128    0.0995    0.8132 N   0  0  0  0  0  0  0  0  0  0  0  0
   -3.8436    1.2366    0.6279 N   0  0  0  0  0  0  0  0  0  0  0  0
   -4.6916   -1.4022   -0.8353 C   0  0  0  0  0  0  0  0  0  0  0  0
   -4.8715   -2.7158   -1.2611 C   0  0  0  0  0  0  0  0  0  0  0  0
   -4.2099   -3.7733   -0.6303 C   0  0  0  0  0  0  0  0  0  0  0  0
   -3.3507   -3.5253    0.4429 C   0  0  0  0  0  0  0  0  0  0  0  0
   -3.1560   -2.2198    0.8797 C   0  0  0  0  0  0  0  0  0  0  0  0
   -5.2036   -0.5868   -1.3214 H   0  0  0  0  0  0  0  0  0  0  0  0
   -5.5366   -2.9137   -2.0959 H   0  0  0  0  0  0  0  0  0  0  0  0
   -4.3647   -4.7907   -0.9769 H   0  0  0  0  0  0  0  0  0  0  0  0
   -2.8360   -4.3440    0.9348 H   0  0  0  0  0  0  0  0  0  0  0  0
   -2.4946   -1.9932    1.7090 H   0  0  0  0  0  0  0  0  0  0  0  0
   -4.8963    1.3777   -0.5430 O   0  0  0  0  0  0  0  0  0  0  0  0
   -5.3206    2.6198   -0.8066 C   0  0  0  0  0  0  0  0  0  0  0  0
   -6.1282    2.8359   -1.6747 O   0  0  0  0  0  0  0  0  0  0  0  0
   -4.7424    3.7898    0.0377 C   0  0  0  0  0  0  0  0  0  0  0  0
   -3.4070    3.8761   -0.1028 F   0  0  0  0  0  0  0  0  0  0  0  0
   -5.2800    4.9405   -0.3761 F   0  0  0  0  0  0  0  0  0  0  0  0
   -5.0308    3.6372    1.3429 F   0  0  0  0  0  0  0  0  0  0  0  0
  1  2  1  0  0  0  0
  1  8  2  0  0  0  0
  3  2  1  0  0  0  0
  4  1  1  0  0  0  0
  5  4  2  0  0  0  0
  5  6  1  0  0  0  0
  6  7  2  0  0  0  0
  7  8  1  0  0  0  0
  7 12  1  0  0  0  0
  8 13  1  0  0  0  0
  9  4  1  0  0  0  0
 10  5  1  0  0  0  0
 11  6  1  0  0  0  0
 14  3  1  0  0  0  0
 15 14  1  0  0  0  0
 15 17  1  0  0  0  0
 16 15  2  0  0  0  0
 17 20  1  0  0  0  0
 18 17  1  0  0  0  0
 19 17  1  0  0  0  0
M  RAD  2   2   2   3   2
M  END
