Coordinates from ORCA-job PhN2+~CF3COO-_B3LYPG-6-31G_dp-NX-Scan-d89-09-n800
 OpenBabel11261920123D

 20 20  0  0  1  0  0  0  0  0999 V2000
   -5.0004   -1.4475    1.3702 C   0  0  1  0  0  0  0  0  0  0  0  0
   -5.3990   -0.7364    2.4009 N   0  0  0  0  0  0  0  0  0  0  0  0
   -5.7221   -0.0524    3.2492 N   0  0  0  0  0  0  0  0  0  0  0  0
   -5.9049   -1.5797    0.2446 C   0  0  0  0  0  0  0  0  0  0  0  0
   -5.3920   -1.5952   -1.0004 C   0  0  0  0  0  0  0  0  0  0  0  0
   -3.9457   -1.3002   -1.2196 C   0  0  2  0  0  0  0  0  0  0  0  0
   -3.0759   -1.6579   -0.0609 C   0  0  0  0  0  0  0  0  0  0  0  0
   -3.5746   -1.6415    1.1897 C   0  0  0  0  0  0  0  0  0  0  0  0
   -6.9719   -1.6619    0.4307 H   0  0  0  0  0  0  0  0  0  0  0  0
   -6.0278   -1.7408   -1.8675 H   0  0  0  0  0  0  0  0  0  0  0  0
   -3.5778   -1.7223   -2.1549 H   0  0  0  0  0  0  0  0  0  0  0  0
   -2.0237   -1.8499   -0.2436 H   0  0  0  0  0  0  0  0  0  0  0  0
   -2.9436   -1.7683    2.0645 H   0  0  0  0  0  0  0  0  0  0  0  0
   -4.5409    1.0923    0.4080 O   0  0  0  0  0  0  0  0  0  0  0  0
   -4.0829    1.1541   -0.7105 C   0  0  0  0  0  0  0  0  0  0  0  0
   -3.7638    0.1899   -1.5664 O   0  0  0  0  0  0  0  0  0  0  0  0
   -3.7633    2.5174   -1.3764 C   0  0  0  0  0  0  0  0  0  0  0  0
   -2.4479    2.6120   -1.6508 F   0  0  0  0  0  0  0  0  0  0  0  0
   -4.4430    2.6565   -2.5304 F   0  0  0  0  0  0  0  0  0  0  0  0
   -4.0986    3.5248   -0.5644 F   0  0  0  0  0  0  0  0  0  0  0  0
  1  2  1  6  0  0  0
  2  3  1  0  0  0  0
  4  9  1  0  0  0  0
  4  1  1  0  0  0  0
  5  4  2  0  0  0  0
  6 11  1  6  0  0  0
  6  5  1  0  0  0  0
  6  7  1  0  0  0  0
  7  8  2  0  0  0  0
  8  1  1  0  0  0  0
  8 13  1  0  0  0  0
 10  5  1  0  0  0  0
 12  7  1  0  0  0  0
 15 14  2  0  0  0  0
 16  6  1  0  0  0  0
 16 15  1  0  0  0  0
 17 15  1  0  0  0  0
 17 20  1  0  0  0  0
 18 17  1  0  0  0  0
 19 17  1  0  0  0  0
M  RAD  3   1   2   2   2   3   3
M  END
