Coordinates from ORCA-job PhN2+~CF3COO-_B3LYPG-6-31G_dp-NX-Scan-d89-09-n800
 OpenBabel11261920123D

 20 20  0  0  1  0  0  0  0  0999 V2000
   -5.1388   -1.6733    1.5274 C   0  0  1  0  0  0  0  0  0  0  0  0
   -5.6035   -1.8020    2.7495 N   0  0  0  0  0  0  0  0  0  0  0  0
   -6.0072   -1.8734    3.8136 N   0  0  0  0  0  0  0  0  0  0  0  0
   -5.9727   -1.0744    0.5065 C   0  0  0  0  0  0  0  0  0  0  0  0
   -5.4057   -0.6857   -0.6518 C   0  0  0  0  0  0  0  0  0  0  0  0
   -3.9156   -0.6641   -0.7851 C   0  0  2  0  0  0  0  0  0  0  0  0
   -3.2411   -1.7097    0.0436 C   0  0  0  0  0  0  0  0  0  0  0  0
   -3.7935   -2.1058    1.2064 C   0  0  0  0  0  0  0  0  0  0  0  0
   -7.0398   -0.9835    0.6848 H   0  0  0  0  0  0  0  0  0  0  0  0
   -6.0058   -0.2812   -1.4577 H   0  0  0  0  0  0  0  0  0  0  0  0
   -3.5793   -0.6697   -1.8212 H   0  0  0  0  0  0  0  0  0  0  0  0
   -2.2546   -2.0501   -0.2494 H   0  0  0  0  0  0  0  0  0  0  0  0
   -3.2744   -2.7654    1.8951 H   0  0  0  0  0  0  0  0  0  0  0  0
   -3.6859    2.8325    0.0337 O   0  0  0  0  0  0  0  0  0  0  0  0
   -3.6182    1.8499   -0.6601 C   0  0  0  0  0  0  0  0  0  0  0  0
   -3.4213    0.6338   -0.1574 O   0  0  0  0  0  0  0  0  0  0  0  0
   -3.6725    1.9821   -2.2061 C   0  0  0  0  0  0  0  0  0  0  0  0
   -2.6479    1.3111   -2.7794 F   0  0  0  0  0  0  0  0  0  0  0  0
   -4.8220    1.4642   -2.7037 F   0  0  0  0  0  0  0  0  0  0  0  0
   -3.6001    3.2578   -2.5766 F   0  0  0  0  0  0  0  0  0  0  0  0
  1  2  1  1  0  0  0
  2  3  1  0  0  0  0
  4  9  1  0  0  0  0
  4  1  1  0  0  0  0
  5  4  2  0  0  0  0
  6 11  1  6  0  0  0
  6  5  1  0  0  0  0
  6 16  1  0  0  0  0
  6  7  1  0  0  0  0
  7  8  2  0  0  0  0
  8  1  1  0  0  0  0
  8 13  1  0  0  0  0
 10  5  1  0  0  0  0
 12  7  1  0  0  0  0
 15 16  1  0  0  0  0
 15 14  2  0  0  0  0
 17 15  1  0  0  0  0
 18 17  1  0  0  0  0
 19 17  1  0  0  0  0
 20 17  1  0  0  0  0
M  RAD  3   1   2   2   2   3   3
M  END
