Coordinates from ORCA-job PhN2+~CF3COO-_B3LYPG-6-31G_dp-NX-Scan-d89-09-n800
 OpenBabel11261920123D

 20 20  0  0  0  0  0  0  0  0999 V2000
   -3.8149   -1.1062    0.2189 C   0  0  0  0  0  0  0  0  0  0  0  0
   -3.4364    0.1346    0.8151 N   0  0  0  0  0  0  0  0  0  0  0  0
   -3.9678    1.2495    0.4406 N   0  0  0  0  0  0  0  0  0  0  0  0
   -4.6635   -1.3821   -0.8786 C   0  0  0  0  0  0  0  0  0  0  0  0
   -4.8629   -2.7007   -1.2922 C   0  0  0  0  0  0  0  0  0  0  0  0
   -4.2416   -3.7640   -0.6381 C   0  0  0  0  0  0  0  0  0  0  0  0
   -3.4003   -3.5038    0.4473 C   0  0  0  0  0  0  0  0  0  0  0  0
   -3.1904   -2.1950    0.8628 C   0  0  0  0  0  0  0  0  0  0  0  0
   -5.1678   -0.5951   -1.4191 H   0  0  0  0  0  0  0  0  0  0  0  0
   -5.5152   -2.8931   -2.1397 H   0  0  0  0  0  0  0  0  0  0  0  0
   -4.4095   -4.7840   -0.9712 H   0  0  0  0  0  0  0  0  0  0  0  0
   -2.9077   -4.3207    0.9661 H   0  0  0  0  0  0  0  0  0  0  0  0
   -2.5377   -1.9684    1.6997 H   0  0  0  0  0  0  0  0  0  0  0  0
   -4.6780    1.2887   -0.2906 O   0  0  0  0  0  0  0  0  0  0  0  0
   -5.2788    2.5773   -0.7040 C   0  0  0  0  0  0  0  0  0  0  0  0
   -6.0965    2.5610   -1.5585 O   0  0  0  0  0  0  0  0  0  0  0  0
   -4.7395    3.8199    0.0578 C   0  0  0  0  0  0  0  0  0  0  0  0
   -3.4276    3.9644   -0.1481 F   0  0  0  0  0  0  0  0  0  0  0  0
   -5.3734    4.8932   -0.4218 F   0  0  0  0  0  0  0  0  0  0  0  0
   -4.9904    3.7174    1.3656 F   0  0  0  0  0  0  0  0  0  0  0  0
  1  2  1  0  0  0  0
  1  8  2  0  0  0  0
  3  2  2  0  0  0  0
  4  1  1  0  0  0  0
  5  4  2  0  0  0  0
  5  6  1  0  0  0  0
  6  7  2  0  0  0  0
  7  8  1  0  0  0  0
  7 12  1  0  0  0  0
  8 13  1  0  0  0  0
  9  4  1  0  0  0  0
 10  5  1  0  0  0  0
 11  6  1  0  0  0  0
 14  3  1  0  0  0  0
 15 14  1  0  0  0  0
 15 17  1  0  0  0  0
 16 15  2  0  0  0  0
 17 20  1  0  0  0  0
 18 17  1  0  0  0  0
 19 17  1  0  0  0  0
M  END
