Coordinates from ORCA-job PhN2+~CF3COO-_B3LYPG-6-31G_dp-NX-Scan-d89-09-n800
 OpenBabel11261920123D

 20 20  0  0  1  0  0  0  0  0999 V2000
   -4.9982   -1.4785    1.3639 C   0  0  1  0  0  0  0  0  0  0  0  0
   -5.3393   -0.5782    2.2645 N   0  0  0  0  0  0  0  0  0  0  0  0
   -5.5849    0.3047    2.9314 N   0  0  0  0  0  0  0  0  0  0  0  0
   -5.9040   -1.6309    0.2358 C   0  0  0  0  0  0  0  0  0  0  0  0
   -5.3889   -1.6418   -1.0080 C   0  0  0  0  0  0  0  0  0  0  0  0
   -3.9473   -1.3169   -1.2164 C   0  0  2  0  0  0  0  0  0  0  0  0
   -3.0746   -1.7043   -0.0695 C   0  0  0  0  0  0  0  0  0  0  0  0
   -3.5709   -1.6931    1.1818 C   0  0  0  0  0  0  0  0  0  0  0  0
   -6.9708   -1.7206    0.4208 H   0  0  0  0  0  0  0  0  0  0  0  0
   -6.0168   -1.8054   -1.8778 H   0  0  0  0  0  0  0  0  0  0  0  0
   -3.5725   -1.6979   -2.1660 H   0  0  0  0  0  0  0  0  0  0  0  0
   -2.0272   -1.9142   -0.2603 H   0  0  0  0  0  0  0  0  0  0  0  0
   -2.9393   -1.8279    2.0553 H   0  0  0  0  0  0  0  0  0  0  0  0
   -4.5700    1.0699    0.4789 O   0  0  0  0  0  0  0  0  0  0  0  0
   -4.1118    1.1401   -0.6403 C   0  0  0  0  0  0  0  0  0  0  0  0
   -3.7868    0.1902   -1.5100 O   0  0  0  0  0  0  0  0  0  0  0  0
   -3.7979    2.5123   -1.2922 C   0  0  0  0  0  0  0  0  0  0  0  0
   -2.4831    2.6149   -1.5660 F   0  0  0  0  0  0  0  0  0  0  0  0
   -4.4789    2.6608   -2.4441 F   0  0  0  0  0  0  0  0  0  0  0  0
   -4.1366    3.5099   -0.4698 F   0  0  0  0  0  0  0  0  0  0  0  0
  1  2  1  6  0  0  0
  2  3  1  0  0  0  0
  4  9  1  0  0  0  0
  4  1  1  0  0  0  0
  5  4  2  0  0  0  0
  6 11  1  6  0  0  0
  6  5  1  0  0  0  0
  6  7  1  0  0  0  0
  7  8  2  0  0  0  0
  8  1  1  0  0  0  0
  8 13  1  0  0  0  0
 10  5  1  0  0  0  0
 12  7  1  0  0  0  0
 15 14  2  0  0  0  0
 16  6  1  0  0  0  0
 16 15  1  0  0  0  0
 17 15  1  0  0  0  0
 17 20  1  0  0  0  0
 18 17  1  0  0  0  0
 19 17  1  0  0  0  0
M  RAD  3   1   2   2   2   3   3
M  END
