Coordinates from ORCA-job PhN2+~CF3COO-_B3LYPG-6-31G_dp-NX-Scan-d89-09-n800
 OpenBabel11261920123D

 20 20  0  0  1  0  0  0  0  0999 V2000
   -5.0046   -1.4346    1.3805 C   0  0  1  0  0  0  0  0  0  0  0  0
   -5.4307   -0.8403    2.4712 N   0  0  0  0  0  0  0  0  0  0  0  0
   -5.7855   -0.2694    3.3893 N   0  0  0  0  0  0  0  0  0  0  0  0
   -5.9078   -1.5530    0.2547 C   0  0  0  0  0  0  0  0  0  0  0  0
   -5.3958   -1.5647   -0.9908 C   0  0  0  0  0  0  0  0  0  0  0  0
   -3.9468   -1.2864   -1.2157 C   0  0  2  0  0  0  0  0  0  0  0  0
   -3.0787   -1.6273   -0.0506 C   0  0  0  0  0  0  0  0  0  0  0  0
   -3.5790   -1.6147    1.1996 C   0  0  0  0  0  0  0  0  0  0  0  0
   -6.9748   -1.6344    0.4404 H   0  0  0  0  0  0  0  0  0  0  0  0
   -6.0355   -1.6978   -1.8569 H   0  0  0  0  0  0  0  0  0  0  0  0
   -3.5832   -1.7332   -2.1416 H   0  0  0  0  0  0  0  0  0  0  0  0
   -2.0236   -1.8067   -0.2293 H   0  0  0  0  0  0  0  0  0  0  0  0
   -2.9478   -1.7403    2.0742 H   0  0  0  0  0  0  0  0  0  0  0  0
   -4.5219    1.1132    0.3697 O   0  0  0  0  0  0  0  0  0  0  0  0
   -4.0663    1.1667   -0.7495 C   0  0  0  0  0  0  0  0  0  0  0  0
   -3.7523    0.1915   -1.5949 O   0  0  0  0  0  0  0  0  0  0  0  0
   -3.7425    2.5226   -1.4277 C   0  0  0  0  0  0  0  0  0  0  0  0
   -2.4270    2.6100   -1.7040 F   0  0  0  0  0  0  0  0  0  0  0  0
   -4.4226    2.6537   -2.5823 F   0  0  0  0  0  0  0  0  0  0  0  0
   -4.0735    3.5382   -0.6243 F   0  0  0  0  0  0  0  0  0  0  0  0
  1  2  1  6  0  0  0
  2  3  1  0  0  0  0
  4  9  1  0  0  0  0
  4  1  1  0  0  0  0
  5  4  2  0  0  0  0
  6 11  1  6  0  0  0
  6  5  1  0  0  0  0
  6  7  1  0  0  0  0
  7  8  2  0  0  0  0
  8  1  1  0  0  0  0
  8 13  1  0  0  0  0
 10  5  1  0  0  0  0
 12  7  1  0  0  0  0
 15 14  2  0  0  0  0
 16  6  1  0  0  0  0
 16 15  1  0  0  0  0
 17 15  1  0  0  0  0
 17 20  1  0  0  0  0
 18 17  1  0  0  0  0
 19 17  1  0  0  0  0
M  RAD  3   1   2   2   2   3   3
M  END
