Coordinates from ORCA-job PhN2+~CF3COO-_B3LYPG-6-31G_dp-NX-Scan-d89-09-n800
 OpenBabel11261920123D

 20 20  0  0  1  0  0  0  0  0999 V2000
   -5.0164   -1.4305    1.4088 C   0  0  1  0  0  0  0  0  0  0  0  0
   -5.4770   -1.0286    2.5705 N   0  0  0  0  0  0  0  0  0  0  0  0
   -5.8700   -0.6419    3.5676 N   0  0  0  0  0  0  0  0  0  0  0  0
   -5.9160   -1.5168    0.2794 C   0  0  0  0  0  0  0  0  0  0  0  0
   -5.4051   -1.5080   -0.9665 C   0  0  0  0  0  0  0  0  0  0  0  0
   -3.9519   -1.2564   -1.1994 C   0  0  2  0  0  0  0  0  0  0  0  0
   -3.0862   -1.5718   -0.0246 C   0  0  0  0  0  0  0  0  0  0  0  0
   -3.5895   -1.5799    1.2243 C   0  0  0  0  0  0  0  0  0  0  0  0
   -6.9832   -1.6003    0.4618 H   0  0  0  0  0  0  0  0  0  0  0  0
   -6.0506   -1.6131   -1.8323 H   0  0  0  0  0  0  0  0  0  0  0  0
   -3.5962   -1.7443   -2.1083 H   0  0  0  0  0  0  0  0  0  0  0  0
   -2.0258   -1.7241   -0.1977 H   0  0  0  0  0  0  0  0  0  0  0  0
   -2.9568   -1.7087    2.0972 H   0  0  0  0  0  0  0  0  0  0  0  0
   -4.4904    1.1672    0.3095 O   0  0  0  0  0  0  0  0  0  0  0  0
   -4.0379    1.1972   -0.8106 C   0  0  0  0  0  0  0  0  0  0  0  0
   -3.7354    0.1981   -1.6330 O   0  0  0  0  0  0  0  0  0  0  0  0
   -3.7058    2.5346   -1.5197 C   0  0  0  0  0  0  0  0  0  0  0  0
   -2.3906    2.6053   -1.8021 F   0  0  0  0  0  0  0  0  0  0  0  0
   -4.3887    2.6448   -2.6748 F   0  0  0  0  0  0  0  0  0  0  0  0
   -4.0264    3.5704   -0.7380 F   0  0  0  0  0  0  0  0  0  0  0  0
  1  2  1  6  0  0  0
  2  3  1  0  0  0  0
  4  9  1  0  0  0  0
  4  1  1  0  0  0  0
  5  4  2  0  0  0  0
  6 11  1  6  0  0  0
  6  5  1  0  0  0  0
  6  7  1  0  0  0  0
  7  8  2  0  0  0  0
  8  1  1  0  0  0  0
  8 13  1  0  0  0  0
 10  5  1  0  0  0  0
 12  7  1  0  0  0  0
 15 14  2  0  0  0  0
 16  6  1  0  0  0  0
 16 15  1  0  0  0  0
 17 15  1  0  0  0  0
 17 20  1  0  0  0  0
 18 17  1  0  0  0  0
 19 17  1  0  0  0  0
M  RAD  3   1   2   2   2   3   3
M  END
