Coordinates from ORCA-job PhN2+~CF3COO-_B3LYPG-6-31G_dp-NX-Scan-d89-09-n800
 OpenBabel11261920123D

 20 20  0  0  1  0  0  0  0  0999 V2000
   -5.0055   -1.4337    1.3813 C   0  0  1  0  0  0  0  0  0  0  0  0
   -5.4339   -0.8484    2.4759 N   0  0  0  0  0  0  0  0  0  0  0  0
   -5.7911   -0.2863    3.3985 N   0  0  0  0  0  0  0  0  0  0  0  0
   -5.9083   -1.5512    0.2552 C   0  0  0  0  0  0  0  0  0  0  0  0
   -5.3962   -1.5624   -0.9902 C   0  0  0  0  0  0  0  0  0  0  0  0
   -3.9470   -1.2853   -1.2153 C   0  0  2  0  0  0  0  0  0  0  0  0
   -3.0791   -1.6246   -0.0495 C   0  0  0  0  0  0  0  0  0  0  0  0
   -3.5798   -1.6123    1.2005 C   0  0  0  0  0  0  0  0  0  0  0  0
   -6.9754   -1.6329    0.4406 H   0  0  0  0  0  0  0  0  0  0  0  0
   -6.0360   -1.6946   -1.8564 H   0  0  0  0  0  0  0  0  0  0  0  0
   -3.5836   -1.7340   -2.1403 H   0  0  0  0  0  0  0  0  0  0  0  0
   -2.0238   -1.8028   -0.2276 H   0  0  0  0  0  0  0  0  0  0  0  0
   -2.9488   -1.7379    2.0752 H   0  0  0  0  0  0  0  0  0  0  0  0
   -4.5157    1.1147    0.3688 O   0  0  0  0  0  0  0  0  0  0  0  0
   -4.0625    1.1676   -0.7514 C   0  0  0  0  0  0  0  0  0  0  0  0
   -3.7515    0.1916   -1.5970 O   0  0  0  0  0  0  0  0  0  0  0  0
   -3.7410    2.5230   -1.4317 C   0  0  0  0  0  0  0  0  0  0  0  0
   -2.4263    2.6106   -1.7116 F   0  0  0  0  0  0  0  0  0  0  0  0
   -4.4242    2.6528   -2.5846 F   0  0  0  0  0  0  0  0  0  0  0  0
   -4.0702    3.5393   -0.6284 F   0  0  0  0  0  0  0  0  0  0  0  0
  1  2  1  6  0  0  0
  2  3  1  0  0  0  0
  4  9  1  0  0  0  0
  4  1  1  0  0  0  0
  5  4  2  0  0  0  0
  6 11  1  6  0  0  0
  6  5  1  0  0  0  0
  6  7  1  0  0  0  0
  7  8  2  0  0  0  0
  8  1  1  0  0  0  0
  8 13  1  0  0  0  0
 10  5  1  0  0  0  0
 12  7  1  0  0  0  0
 15 14  2  0  0  0  0
 16  6  1  0  0  0  0
 16 15  1  0  0  0  0
 17 15  1  0  0  0  0
 17 20  1  0  0  0  0
 18 17  1  0  0  0  0
 19 17  1  0  0  0  0
M  RAD  3   1   2   2   2   3   3
M  END
