Coordinates from ORCA-job PhN2+~CF3COO-_B3LYPG-6-31G_dp-NX-Scan-d89-09-n800
 OpenBabel11261920123D

 20 20  0  0  1  0  0  0  0  0999 V2000
   -4.9995   -1.4424    1.3705 C   0  0  1  0  0  0  0  0  0  0  0  0
   -5.4011   -0.7454    2.4098 N   0  0  0  0  0  0  0  0  0  0  0  0
   -5.7277   -0.0753    3.2679 N   0  0  0  0  0  0  0  0  0  0  0  0
   -5.9045   -1.5730    0.2453 C   0  0  0  0  0  0  0  0  0  0  0  0
   -5.3920   -1.5908   -0.9999 C   0  0  0  0  0  0  0  0  0  0  0  0
   -3.9451   -1.2998   -1.2204 C   0  0  2  0  0  0  0  0  0  0  0  0
   -3.0756   -1.6553   -0.0608 C   0  0  0  0  0  0  0  0  0  0  0  0
   -3.5740   -1.6369    1.1899 C   0  0  0  0  0  0  0  0  0  0  0  0
   -6.9715   -1.6540    0.4318 H   0  0  0  0  0  0  0  0  0  0  0  0
   -6.0286   -1.7352   -1.8666 H   0  0  0  0  0  0  0  0  0  0  0  0
   -3.5781   -1.7253   -2.1546 H   0  0  0  0  0  0  0  0  0  0  0  0
   -2.0234   -1.8475   -0.2432 H   0  0  0  0  0  0  0  0  0  0  0  0
   -2.9431   -1.7638    2.0646 H   0  0  0  0  0  0  0  0  0  0  0  0
   -4.5454    1.0896    0.4006 O   0  0  0  0  0  0  0  0  0  0  0  0
   -4.0830    1.1527   -0.7160 C   0  0  0  0  0  0  0  0  0  0  0  0
   -3.7610    0.1886   -1.5707 O   0  0  0  0  0  0  0  0  0  0  0  0
   -3.7620    2.5164   -1.3803 C   0  0  0  0  0  0  0  0  0  0  0  0
   -2.4457    2.6122   -1.6495 F   0  0  0  0  0  0  0  0  0  0  0  0
   -4.4373    2.6552   -2.5369 F   0  0  0  0  0  0  0  0  0  0  0  0
   -4.1013    3.5233   -0.5694 F   0  0  0  0  0  0  0  0  0  0  0  0
  1  2  1  6  0  0  0
  2  3  1  0  0  0  0
  4  9  1  0  0  0  0
  4  1  1  0  0  0  0
  5  4  2  0  0  0  0
  6 11  1  6  0  0  0
  6  5  1  0  0  0  0
  6  7  1  0  0  0  0
  7  8  2  0  0  0  0
  8  1  1  0  0  0  0
  8 13  1  0  0  0  0
 10  5  1  0  0  0  0
 12  7  1  0  0  0  0
 15 14  2  0  0  0  0
 16  6  1  0  0  0  0
 16 15  1  0  0  0  0
 17 15  1  0  0  0  0
 17 20  1  0  0  0  0
 18 17  1  0  0  0  0
 19 17  1  0  0  0  0
M  RAD  3   1   2   2   2   3   3
M  END
