Coordinates from ORCA-job PhN2+~CF3COO-_B3LYPG-6-31G_dp-NX-Scan-d89-09-n800
 OpenBabel11261920123D

 20 20  0  0  1  0  0  0  0  0999 V2000
   -5.0567   -1.5005    1.5037 C   0  0  0  0  0  0  0  0  0  0  0  0
   -5.5513   -1.5069    2.7209 N   0  0  0  0  0  0  0  0  0  0  0  0
   -5.9808   -1.5064    3.7791 N   0  0  0  0  0  0  0  0  0  0  0  0
   -5.9470   -1.4696    0.3640 C   0  0  0  0  0  0  0  0  0  0  0  0
   -5.4394   -1.3541   -0.8772 C   0  0  0  0  0  0  0  0  0  0  0  0
   -3.9778   -1.1622   -1.1262 C   0  0  2  0  0  0  0  0  0  0  0  0
   -3.1154   -1.4197    0.0675 C   0  0  0  0  0  0  0  0  0  0  0  0
   -3.6237   -1.5341    1.3085 C   0  0  0  0  0  0  0  0  0  0  0  0
   -7.0153   -1.5662    0.5327 H   0  0  0  0  0  0  0  0  0  0  0  0
   -6.0960   -1.3615   -1.7413 H   0  0  0  0  0  0  0  0  0  0  0  0
   -3.6436   -1.7452   -1.9893 H   0  0  0  0  0  0  0  0  0  0  0  0
   -2.0433   -1.4753   -0.0940 H   0  0  0  0  0  0  0  0  0  0  0  0
   -2.9819   -1.6772    2.1724 H   0  0  0  0  0  0  0  0  0  0  0  0
   -4.4363    1.3524    0.1718 O   0  0  0  0  0  0  0  0  0  0  0  0
   -3.9822    1.2938   -0.9437 C   0  0  0  0  0  0  0  0  0  0  0  0
   -3.7105    0.2235   -1.6865 O   0  0  0  0  0  0  0  0  0  0  0  0
   -3.6114    2.5629   -1.7511 C   0  0  0  0  0  0  0  0  0  0  0  0
   -2.2960    2.5692   -2.0412 F   0  0  0  0  0  0  0  0  0  0  0  0
   -4.2961    2.6068   -2.9095 F   0  0  0  0  0  0  0  0  0  0  0  0
   -3.8953    3.6635   -1.0484 F   0  0  0  0  0  0  0  0  0  0  0  0
  1  2  1  0  0  0  0
  2  3  1  0  0  0  0
  4  9  1  0  0  0  0
  4  1  2  0  0  0  0
  5  4  1  0  0  0  0
  6 11  1  6  0  0  0
  6  5  1  0  0  0  0
  6  7  1  0  0  0  0
  7  8  2  0  0  0  0
  8  1  1  0  0  0  0
  8 13  1  0  0  0  0
 10  5  1  0  0  0  0
 12  7  1  0  0  0  0
 15 14  2  0  0  0  0
 16  6  1  0  0  0  0
 16 15  1  0  0  0  0
 17 20  1  0  0  0  0
 17 15  1  0  0  0  0
 18 17  1  0  0  0  0
 19 17  1  0  0  0  0
M  RAD  3   2   2   3   3   5   2
M  END
