Coordinates from ORCA-job PhN2+~CF3COO-_B3LYPG-6-31G_dp-NX-Scan-d89-09-n800
 OpenBabel11261920123D

 20 20  0  0  1  0  0  0  0  0999 V2000
   -5.2279   -1.9120    1.5790 C   0  0  0  0  0  0  0  0  0  0  0  0
   -5.7660   -2.5956    2.5639 N   0  0  0  0  0  0  0  0  0  0  0  0
   -6.2334   -3.1861    3.4236 N   0  0  0  0  0  0  0  0  0  0  0  0
   -6.0626   -1.1006    0.7184 C   0  0  0  0  0  0  0  0  0  0  0  0
   -5.5129   -0.4010   -0.2921 C   0  0  0  0  0  0  0  0  0  0  0  0
   -4.0380   -0.3533   -0.5338 C   0  0  2  0  0  0  0  0  0  0  0  0
   -3.2554   -1.3032    0.3152 C   0  0  0  0  0  0  0  0  0  0  0  0
   -3.8059   -2.0052    1.3231 C   0  0  0  0  0  0  0  0  0  0  0  0
   -7.1346   -1.0906    0.8910 H   0  0  0  0  0  0  0  0  0  0  0  0
   -6.1402    0.1874   -0.9525 H   0  0  0  0  0  0  0  0  0  0  0  0
   -3.7937   -0.4830   -1.5884 H   0  0  0  0  0  0  0  0  0  0  0  0
   -2.1929   -1.3860    0.1102 H   0  0  0  0  0  0  0  0  0  0  0  0
   -3.2064   -2.6661    1.9412 H   0  0  0  0  0  0  0  0  0  0  0  0
   -2.9621    3.1231   -0.5844 O   0  0  0  0  0  0  0  0  0  0  0  0
   -3.3352    2.0453   -0.9729 C   0  0  0  0  0  0  0  0  0  0  0  0
   -3.5451    1.0237   -0.1426 O   0  0  0  0  0  0  0  0  0  0  0  0
   -3.5682    1.8305   -2.4940 C   0  0  0  0  0  0  0  0  0  0  0  0
   -2.7150    0.9001   -2.9851 F   0  0  0  0  0  0  0  0  0  0  0  0
   -4.8286    1.4023   -2.7461 F   0  0  0  0  0  0  0  0  0  0  0  0
   -3.3758    2.9635   -3.1615 F   0  0  0  0  0  0  0  0  0  0  0  0
  1  2  1  0  0  0  0
  2  3  1  0  0  0  0
  4  9  1  0  0  0  0
  4  1  2  0  0  0  0
  5  4  1  0  0  0  0
  6 11  1  6  0  0  0
  6  5  1  0  0  0  0
  6 16  1  0  0  0  0
  6  7  1  0  0  0  0
  7  8  2  0  0  0  0
  8  1  1  0  0  0  0
  8 13  1  0  0  0  0
 10  5  1  0  0  0  0
 12  7  1  0  0  0  0
 15 14  2  0  0  0  0
 15 16  1  0  0  0  0
 17 15  1  0  0  0  0
 18 17  1  0  0  0  0
 19 17  1  0  0  0  0
 20 17  1  0  0  0  0
M  RAD  3   2   2   3   3   5   2
M  END
