Coordinates from ORCA-job PhN2+~CF3COO-_B3LYPG-6-31G_dp-NX-Scan-d89-09-n800
 OpenBabel11261920123D

 20 20  0  0  1  0  0  0  0  0999 V2000
   -5.0059   -1.4344    1.3841 C   0  0  1  0  0  0  0  0  0  0  0  0
   -5.4370   -0.8661    2.4863 N   0  0  0  0  0  0  0  0  0  0  0  0
   -5.7975   -0.3201    3.4175 N   0  0  0  0  0  0  0  0  0  0  0  0
   -5.9086   -1.5478    0.2580 C   0  0  0  0  0  0  0  0  0  0  0  0
   -5.3969   -1.5567   -0.9877 C   0  0  0  0  0  0  0  0  0  0  0  0
   -3.9472   -1.2823   -1.2135 C   0  0  2  0  0  0  0  0  0  0  0  0
   -3.0796   -1.6212   -0.0473 C   0  0  0  0  0  0  0  0  0  0  0  0
   -3.5803   -1.6115    1.2027 C   0  0  0  0  0  0  0  0  0  0  0  0
   -6.9757   -1.6287    0.4432 H   0  0  0  0  0  0  0  0  0  0  0  0
   -6.0375   -1.6854   -1.8538 H   0  0  0  0  0  0  0  0  0  0  0  0
   -3.5848   -1.7343   -2.1375 H   0  0  0  0  0  0  0  0  0  0  0  0
   -2.0239   -1.7976   -0.2252 H   0  0  0  0  0  0  0  0  0  0  0  0
   -2.9491   -1.7380    2.0771 H   0  0  0  0  0  0  0  0  0  0  0  0
   -4.5193    1.1218    0.3608 O   0  0  0  0  0  0  0  0  0  0  0  0
   -4.0614    1.1716   -0.7575 C   0  0  0  0  0  0  0  0  0  0  0  0
   -3.7488    0.1928   -1.5995 O   0  0  0  0  0  0  0  0  0  0  0  0
   -3.7377    2.5248   -1.4409 C   0  0  0  0  0  0  0  0  0  0  0  0
   -2.4220    2.6116   -1.7165 F   0  0  0  0  0  0  0  0  0  0  0  0
   -4.4169    2.6510   -2.5966 F   0  0  0  0  0  0  0  0  0  0  0  0
   -4.0697    3.5436   -0.6418 F   0  0  0  0  0  0  0  0  0  0  0  0
  1  2  1  6  0  0  0
  2  3  1  0  0  0  0
  4  9  1  0  0  0  0
  4  1  1  0  0  0  0
  5  4  2  0  0  0  0
  6 11  1  6  0  0  0
  6  5  1  0  0  0  0
  6  7  1  0  0  0  0
  7  8  2  0  0  0  0
  8  1  1  0  0  0  0
  8 13  1  0  0  0  0
 10  5  1  0  0  0  0
 12  7  1  0  0  0  0
 15 14  2  0  0  0  0
 16  6  1  0  0  0  0
 16 15  1  0  0  0  0
 17 15  1  0  0  0  0
 17 20  1  0  0  0  0
 18 17  1  0  0  0  0
 19 17  1  0  0  0  0
M  RAD  3   1   2   2   2   3   3
M  END
