Coordinates from ORCA-job PhN2+~CF3COO-_B3LYPG-6-31G_dp-NX-Scan-d89-09-n800
 OpenBabel11261920123D

 20 20  0  0  1  0  0  0  0  0999 V2000
   -5.1423   -1.6835    1.5311 C   0  0  1  0  0  0  0  0  0  0  0  0
   -5.6091   -1.8304    2.7507 N   0  0  0  0  0  0  0  0  0  0  0  0
   -6.0147   -1.9187    3.8132 N   0  0  0  0  0  0  0  0  0  0  0  0
   -5.9779   -1.0794    0.5147 C   0  0  0  0  0  0  0  0  0  0  0  0
   -5.4128   -0.6795   -0.6409 C   0  0  0  0  0  0  0  0  0  0  0  0
   -3.9231   -0.6533   -0.7780 C   0  0  2  0  0  0  0  0  0  0  0  0
   -3.2425   -1.6963    0.0488 C   0  0  0  0  0  0  0  0  0  0  0  0
   -3.7934   -2.1034    1.2086 C   0  0  0  0  0  0  0  0  0  0  0  0
   -7.0453   -0.9930    0.6939 H   0  0  0  0  0  0  0  0  0  0  0  0
   -6.0151   -0.2694   -1.4424 H   0  0  0  0  0  0  0  0  0  0  0  0
   -3.5897   -0.6591   -1.8151 H   0  0  0  0  0  0  0  0  0  0  0  0
   -2.2526   -2.0270   -0.2436 H   0  0  0  0  0  0  0  0  0  0  0  0
   -3.2698   -2.7627    1.8941 H   0  0  0  0  0  0  0  0  0  0  0  0
   -3.6632    2.8522    0.0130 O   0  0  0  0  0  0  0  0  0  0  0  0
   -3.6109    1.8610   -0.6702 C   0  0  0  0  0  0  0  0  0  0  0  0
   -3.4317    0.6476   -0.1542 O   0  0  0  0  0  0  0  0  0  0  0  0
   -3.6637    1.9786   -2.2173 C   0  0  0  0  0  0  0  0  0  0  0  0
   -2.6432    1.2954   -2.7839 F   0  0  0  0  0  0  0  0  0  0  0  0
   -4.8165    1.4637   -2.7105 F   0  0  0  0  0  0  0  0  0  0  0  0
   -3.5825    3.2501   -2.5999 F   0  0  0  0  0  0  0  0  0  0  0  0
  1  2  1  1  0  0  0
  2  3  1  0  0  0  0
  4  9  1  0  0  0  0
  4  1  1  0  0  0  0
  5  4  2  0  0  0  0
  6 11  1  6  0  0  0
  6  5  1  0  0  0  0
  6 16  1  0  0  0  0
  6  7  1  0  0  0  0
  7  8  2  0  0  0  0
  8  1  1  0  0  0  0
  8 13  1  0  0  0  0
 10  5  1  0  0  0  0
 12  7  1  0  0  0  0
 15 16  1  0  0  0  0
 15 14  2  0  0  0  0
 17 15  1  0  0  0  0
 18 17  1  0  0  0  0
 19 17  1  0  0  0  0
 20 17  1  0  0  0  0
M  RAD  3   1   2   2   2   3   3
M  END
