Coordinates from ORCA-job PhN2+~CF3COO-_B3LYPG-6-31G_dp-NX-Scan-d89-09-n800
 OpenBabel11261920123D

 20 20  0  0  1  0  0  0  0  0999 V2000
   -5.2194   -1.8893    1.5801 C   0  0  0  0  0  0  0  0  0  0  0  0
   -5.7498   -2.5137    2.6075 N   0  0  0  0  0  0  0  0  0  0  0  0
   -6.2104   -3.0489    3.5058 N   0  0  0  0  0  0  0  0  0  0  0  0
   -6.0580   -1.1056    0.6983 C   0  0  0  0  0  0  0  0  0  0  0  0
   -5.5105   -0.4401   -0.3362 C   0  0  0  0  0  0  0  0  0  0  0  0
   -4.0343   -0.3886   -0.5672 C   0  0  2  0  0  0  0  0  0  0  0  0
   -3.2566   -1.3494    0.2734 C   0  0  0  0  0  0  0  0  0  0  0  0
   -3.8038   -2.0176    1.3058 C   0  0  0  0  0  0  0  0  0  0  0  0
   -7.1293   -1.0902    0.8749 H   0  0  0  0  0  0  0  0  0  0  0  0
   -6.1382    0.1267   -1.0147 H   0  0  0  0  0  0  0  0  0  0  0  0
   -3.7804   -0.4967   -1.6217 H   0  0  0  0  0  0  0  0  0  0  0  0
   -2.2003   -1.4588    0.0509 H   0  0  0  0  0  0  0  0  0  0  0  0
   -3.2088   -2.6779    1.9290 H   0  0  0  0  0  0  0  0  0  0  0  0
   -3.0417    3.1133   -0.5103 O   0  0  0  0  0  0  0  0  0  0  0  0
   -3.3681    2.0346   -0.9366 C   0  0  0  0  0  0  0  0  0  0  0  0
   -3.5483    0.9819   -0.1402 O   0  0  0  0  0  0  0  0  0  0  0  0
   -3.5650    1.8526   -2.4667 C   0  0  0  0  0  0  0  0  0  0  0  0
   -2.6869    0.9471   -2.9604 F   0  0  0  0  0  0  0  0  0  0  0  0
   -4.8127    1.4101   -2.7556 F   0  0  0  0  0  0  0  0  0  0  0  0
   -3.3774    3.0037   -3.1040 F   0  0  0  0  0  0  0  0  0  0  0  0
  1  2  1  0  0  0  0
  2  3  1  0  0  0  0
  4  9  1  0  0  0  0
  4  1  2  0  0  0  0
  5  4  1  0  0  0  0
  6 11  1  6  0  0  0
  6  5  1  0  0  0  0
  6 16  1  0  0  0  0
  6  7  1  0  0  0  0
  7  8  2  0  0  0  0
  8  1  1  0  0  0  0
  8 13  1  0  0  0  0
 10  5  1  0  0  0  0
 12  7  1  0  0  0  0
 15 14  2  0  0  0  0
 15 16  1  0  0  0  0
 17 15  1  0  0  0  0
 18 17  1  0  0  0  0
 19 17  1  0  0  0  0
 20 17  1  0  0  0  0
M  RAD  3   2   2   3   3   5   2
M  END
