Coordinates from ORCA-job PhN2+~CF3COO-_B3LYPG-6-31G_dp-NX-Scan-d89-09-n800
 OpenBabel11261920123D

 20 20  0  0  1  0  0  0  0  0999 V2000
   -5.2145   -1.8758    1.5795 C   0  0  0  0  0  0  0  0  0  0  0  0
   -5.7409   -2.4659    2.6289 N   0  0  0  0  0  0  0  0  0  0  0  0
   -6.1981   -2.9689    3.5470 N   0  0  0  0  0  0  0  0  0  0  0  0
   -6.0543   -1.1072    0.6859 C   0  0  0  0  0  0  0  0  0  0  0  0
   -5.5070   -0.4613   -0.3610 C   0  0  0  0  0  0  0  0  0  0  0  0
   -4.0299   -0.4087   -0.5852 C   0  0  2  0  0  0  0  0  0  0  0  0
   -3.2565   -1.3759    0.2515 C   0  0  0  0  0  0  0  0  0  0  0  0
   -3.8027   -2.0248    1.2967 C   0  0  0  0  0  0  0  0  0  0  0  0
   -7.1252   -1.0881    0.8639 H   0  0  0  0  0  0  0  0  0  0  0  0
   -6.1341    0.0935   -1.0498 H   0  0  0  0  0  0  0  0  0  0  0  0
   -3.7701   -0.5054   -1.6392 H   0  0  0  0  0  0  0  0  0  0  0  0
   -2.2039   -1.5012    0.0203 H   0  0  0  0  0  0  0  0  0  0  0  0
   -3.2111   -2.6850    1.9233 H   0  0  0  0  0  0  0  0  0  0  0  0
   -3.0873    3.1055   -0.4694 O   0  0  0  0  0  0  0  0  0  0  0  0
   -3.3862    2.0272   -0.9162 C   0  0  0  0  0  0  0  0  0  0  0  0
   -3.5468    0.9577   -0.1388 O   0  0  0  0  0  0  0  0  0  0  0  0
   -3.5662    1.8644   -2.4503 C   0  0  0  0  0  0  0  0  0  0  0  0
   -2.6748    0.9738   -2.9472 F   0  0  0  0  0  0  0  0  0  0  0  0
   -4.8066    1.4138   -2.7575 F   0  0  0  0  0  0  0  0  0  0  0  0
   -3.3835    3.0256   -3.0706 F   0  0  0  0  0  0  0  0  0  0  0  0
  1  2  1  0  0  0  0
  2  3  1  0  0  0  0
  4  9  1  0  0  0  0
  4  1  2  0  0  0  0
  5  4  1  0  0  0  0
  6 11  1  6  0  0  0
  6  5  1  0  0  0  0
  6 16  1  0  0  0  0
  6  7  1  0  0  0  0
  7  8  2  0  0  0  0
  8  1  1  0  0  0  0
  8 13  1  0  0  0  0
 10  5  1  0  0  0  0
 12  7  1  0  0  0  0
 15 14  2  0  0  0  0
 15 16  1  0  0  0  0
 17 15  1  0  0  0  0
 18 17  1  0  0  0  0
 19 17  1  0  0  0  0
 20 17  1  0  0  0  0
M  RAD  3   2   2   3   3   5   2
M  END
