Coordinates from ORCA-job PhN2+~CF3COO-_B3LYPG-6-31G_dp-NX-Scan-d89-09-n800
 OpenBabel11261920123D

 20 20  0  0  1  0  0  0  0  0999 V2000
   -5.2008   -1.8375    1.5746 C   0  0  0  0  0  0  0  0  0  0  0  0
   -5.7174   -2.3330    2.6764 N   0  0  0  0  0  0  0  0  0  0  0  0
   -6.1660   -2.7471    3.6410 N   0  0  0  0  0  0  0  0  0  0  0  0
   -6.0411   -1.1075    0.6501 C   0  0  0  0  0  0  0  0  0  0  0  0
   -5.4915   -0.5151   -0.4269 C   0  0  0  0  0  0  0  0  0  0  0  0
   -4.0118   -0.4636   -0.6314 C   0  0  2  0  0  0  0  0  0  0  0  0
   -3.2538   -1.4483    0.1982 C   0  0  0  0  0  0  0  0  0  0  0  0
   -3.8000   -2.0443    1.2745 C   0  0  0  0  0  0  0  0  0  0  0  0
   -7.1115   -1.0763    0.8300 H   0  0  0  0  0  0  0  0  0  0  0  0
   -6.1150    0.0080   -1.1431 H   0  0  0  0  0  0  0  0  0  0  0  0
   -3.7353   -0.5328   -1.6829 H   0  0  0  0  0  0  0  0  0  0  0  0
   -2.2122   -1.6179   -0.0525 H   0  0  0  0  0  0  0  0  0  0  0  0
   -3.2206   -2.7050    1.9120 H   0  0  0  0  0  0  0  0  0  0  0  0
   -3.2101    3.0750   -0.3611 O   0  0  0  0  0  0  0  0  0  0  0  0
   -3.4340    2.0021   -0.8616 C   0  0  0  0  0  0  0  0  0  0  0  0
   -3.5328    0.8901   -0.1368 O   0  0  0  0  0  0  0  0  0  0  0  0
   -3.5779    1.8942   -2.4039 C   0  0  0  0  0  0  0  0  0  0  0  0
   -2.6536    1.0466   -2.9143 F   0  0  0  0  0  0  0  0  0  0  0  0
   -4.7994    1.4226   -2.7538 F   0  0  0  0  0  0  0  0  0  0  0  0
   -3.4152    3.0828   -2.9765 F   0  0  0  0  0  0  0  0  0  0  0  0
  1  2  1  0  0  0  0
  2  3  1  0  0  0  0
  4  9  1  0  0  0  0
  4  1  2  0  0  0  0
  5  4  1  0  0  0  0
  6 11  1  6  0  0  0
  6  5  1  0  0  0  0
  6 16  1  0  0  0  0
  6  7  1  0  0  0  0
  7  8  2  0  0  0  0
  8  1  1  0  0  0  0
  8 13  1  0  0  0  0
 10  5  1  0  0  0  0
 12  7  1  0  0  0  0
 15 14  2  0  0  0  0
 15 16  1  0  0  0  0
 17 15  1  0  0  0  0
 18 17  1  0  0  0  0
 19 17  1  0  0  0  0
 20 17  1  0  0  0  0
M  RAD  3   2   2   3   3   5   2
M  END
