Coordinates from ORCA-job PhN2+~CF3COO-_B3LYPG-6-31G_dp-NX-Scan-d89-09-n800
 OpenBabel11261920123D

 20 20  0  0  0  0  0  0  0  0999 V2000
   -3.8313   -1.1217    0.2252 C   0  0  0  0  0  0  0  0  0  0  0  0
   -3.4832    0.1219    0.8142 N   0  0  0  0  0  0  0  0  0  0  0  0
   -3.8859    1.2575    0.5560 N   0  0  0  0  0  0  0  0  0  0  0  0
   -4.6923   -1.3913   -0.8617 C   0  0  0  0  0  0  0  0  0  0  0  0
   -4.8745   -2.7095   -1.2752 C   0  0  0  0  0  0  0  0  0  0  0  0
   -4.2236   -3.7640   -0.6303 C   0  0  0  0  0  0  0  0  0  0  0  0
   -3.3714   -3.5032    0.4448 C   0  0  0  0  0  0  0  0  0  0  0  0
   -3.1762   -2.1922    0.8643 C   0  0  0  0  0  0  0  0  0  0  0  0
   -5.2072   -0.5959   -1.3759 H   0  0  0  0  0  0  0  0  0  0  0  0
   -5.5346   -2.9126   -2.1132 H   0  0  0  0  0  0  0  0  0  0  0  0
   -4.3804   -4.7846   -0.9667 H   0  0  0  0  0  0  0  0  0  0  0  0
   -2.8612   -4.3163    0.9510 H   0  0  0  0  0  0  0  0  0  0  0  0
   -2.5177   -1.9571    1.6937 H   0  0  0  0  0  0  0  0  0  0  0  0
   -4.8117    1.3257   -0.4524 O   0  0  0  0  0  0  0  0  0  0  0  0
   -5.2798    2.5744   -0.7539 C   0  0  0  0  0  0  0  0  0  0  0  0
   -6.0897    2.7094   -1.6251 O   0  0  0  0  0  0  0  0  0  0  0  0
   -4.7330    3.7843    0.0570 C   0  0  0  0  0  0  0  0  0  0  0  0
   -3.4081    3.9147   -0.1027 F   0  0  0  0  0  0  0  0  0  0  0  0
   -5.3231    4.8924   -0.3991 F   0  0  0  0  0  0  0  0  0  0  0  0
   -5.0151    3.6613    1.3619 F   0  0  0  0  0  0  0  0  0  0  0  0
  1  2  1  0  0  0  0
  1  8  2  0  0  0  0
  3  2  1  0  0  0  0
  4  1  1  0  0  0  0
  5  4  2  0  0  0  0
  5  6  1  0  0  0  0
  6  7  2  0  0  0  0
  7  8  1  0  0  0  0
  7 12  1  0  0  0  0
  8 13  1  0  0  0  0
  9  4  1  0  0  0  0
 10  5  1  0  0  0  0
 11  6  1  0  0  0  0
 14  3  1  0  0  0  0
 15 14  1  0  0  0  0
 15 17  1  0  0  0  0
 16 15  2  0  0  0  0
 17 20  1  0  0  0  0
 18 17  1  0  0  0  0
 19 17  1  0  0  0  0
M  RAD  2   2   2   3   2
M  END
