Coordinates from ORCA-job PhN2+~CF3COO-_B3LYPG-6-31G_dp-NX-Scan-d89-09-n800
 OpenBabel11261920123D

 20 20  0  0  1  0  0  0  0  0999 V2000
   -5.1246   -1.6361    1.5135 C   0  0  1  0  0  0  0  0  0  0  0  0
   -5.5753   -1.6900    2.7464 N   0  0  0  0  0  0  0  0  0  0  0  0
   -5.9671   -1.6920    3.8172 N   0  0  0  0  0  0  0  0  0  0  0  0
   -5.9558   -1.0609    0.4762 C   0  0  0  0  0  0  0  0  0  0  0  0
   -5.3843   -0.7146   -0.6934 C   0  0  0  0  0  0  0  0  0  0  0  0
   -3.8923   -0.7051   -0.8134 C   0  0  2  0  0  0  0  0  0  0  0  0
   -3.2391   -1.7601    0.0211 C   0  0  0  0  0  0  0  0  0  0  0  0
   -3.7937   -2.1150    1.1963 C   0  0  0  0  0  0  0  0  0  0  0  0
   -7.0218   -0.9546    0.6527 H   0  0  0  0  0  0  0  0  0  0  0  0
   -5.9783   -0.3340   -1.5150 H   0  0  0  0  0  0  0  0  0  0  0  0
   -3.5454   -0.7082   -1.8463 H   0  0  0  0  0  0  0  0  0  0  0  0
   -2.2665   -2.1358   -0.2749 H   0  0  0  0  0  0  0  0  0  0  0  0
   -3.2896   -2.7733    1.8972 H   0  0  0  0  0  0  0  0  0  0  0  0
   -3.7818    2.7540    0.1116 O   0  0  0  0  0  0  0  0  0  0  0  0
   -3.6538    1.8068   -0.6216 C   0  0  0  0  0  0  0  0  0  0  0  0
   -3.3883    0.5826   -0.1710 O   0  0  0  0  0  0  0  0  0  0  0  0
   -3.6995    1.9973   -2.1620 C   0  0  0  0  0  0  0  0  0  0  0  0
   -2.6575    1.3694   -2.7512 F   0  0  0  0  0  0  0  0  0  0  0  0
   -4.8340    1.4750   -2.6882 F   0  0  0  0  0  0  0  0  0  0  0  0
   -3.6513    3.2879   -2.4834 F   0  0  0  0  0  0  0  0  0  0  0  0
  1  2  1  1  0  0  0
  2  3  1  0  0  0  0
  4  9  1  0  0  0  0
  4  1  1  0  0  0  0
  5  4  2  0  0  0  0
  6 11  1  6  0  0  0
  6  5  1  0  0  0  0
  6 16  1  0  0  0  0
  6  7  1  0  0  0  0
  7  8  2  0  0  0  0
  8  1  1  0  0  0  0
  8 13  1  0  0  0  0
 10  5  1  0  0  0  0
 12  7  1  0  0  0  0
 15 16  1  0  0  0  0
 15 14  2  0  0  0  0
 17 15  1  0  0  0  0
 18 17  1  0  0  0  0
 19 17  1  0  0  0  0
 20 17  1  0  0  0  0
M  RAD  3   1   2   2   2   3   3
M  END
