Coordinates from ORCA-job PhN2+~CF3COO-_B3LYPG-6-31G_dp-NX-Scan-d89-09-n800
 OpenBabel11261920123D

 20 20  0  0  1  0  0  0  0  0999 V2000
   -5.1083   -1.5923    1.4958 C   0  0  1  0  0  0  0  0  0  0  0  0
   -5.5444   -1.5611    2.7350 N   0  0  0  0  0  0  0  0  0  0  0  0
   -5.9238   -1.4847    3.8077 N   0  0  0  0  0  0  0  0  0  0  0  0
   -5.9339   -1.0450    0.4381 C   0  0  0  0  0  0  0  0  0  0  0  0
   -5.3549   -0.7487   -0.7419 C   0  0  0  0  0  0  0  0  0  0  0  0
   -3.8610   -0.7537   -0.8447 C   0  0  2  0  0  0  0  0  0  0  0  0
   -3.2346   -1.8159    0.0023 C   0  0  0  0  0  0  0  0  0  0  0  0
   -3.7938   -2.1225    1.1892 C   0  0  0  0  0  0  0  0  0  0  0  0
   -6.9988   -0.9209    0.6093 H   0  0  0  0  0  0  0  0  0  0  0  0
   -5.9405   -0.3975   -1.5821 H   0  0  0  0  0  0  0  0  0  0  0  0
   -3.5006   -0.7598   -1.8732 H   0  0  0  0  0  0  0  0  0  0  0  0
   -2.2775   -2.2305   -0.2922 H   0  0  0  0  0  0  0  0  0  0  0  0
   -3.3081   -2.7769    1.9065 H   0  0  0  0  0  0  0  0  0  0  0  0
   -3.8825    2.6516    0.1996 O   0  0  0  0  0  0  0  0  0  0  0  0
   -3.6909    1.7529   -0.5794 C   0  0  0  0  0  0  0  0  0  0  0  0
   -3.3437    0.5257   -0.1936 O   0  0  0  0  0  0  0  0  0  0  0  0
   -3.7384    2.0160   -2.1092 C   0  0  0  0  0  0  0  0  0  0  0  0
   -2.6944    1.4229   -2.7284 F   0  0  0  0  0  0  0  0  0  0  0  0
   -4.8705    1.5121   -2.6574 F   0  0  0  0  0  0  0  0  0  0  0  0
   -3.6991    3.3214   -2.3694 F   0  0  0  0  0  0  0  0  0  0  0  0
  1  2  1  1  0  0  0
  2  3  1  0  0  0  0
  4  9  1  0  0  0  0
  4  1  1  0  0  0  0
  5  4  2  0  0  0  0
  6 11  1  6  0  0  0
  6  5  1  0  0  0  0
  6 16  1  0  0  0  0
  6  7  1  0  0  0  0
  7  8  2  0  0  0  0
  8  1  1  0  0  0  0
  8 13  1  0  0  0  0
 10  5  1  0  0  0  0
 12  7  1  0  0  0  0
 15 16  1  0  0  0  0
 15 14  2  0  0  0  0
 17 15  1  0  0  0  0
 18 17  1  0  0  0  0
 19 17  1  0  0  0  0
 20 17  1  0  0  0  0
M  RAD  3   1   2   2   2   3   3
M  END
