Coordinates from ORCA-job PhN2+~CF3COO-_B3LYPG-6-31G_dp-NX-Scan-d89-09-n800
 OpenBabel11261920123D

 20 20  0  0  1  0  0  0  0  0999 V2000
   -5.0011   -1.5074    1.3706 C   0  0  1  0  0  0  0  0  0  0  0  0
   -5.3031   -0.5045    2.1811 N   0  0  0  0  0  0  0  0  0  0  0  0
   -5.4747    0.5007    2.6706 N   0  0  0  0  0  0  0  0  0  0  0  0
   -5.9065   -1.6674    0.2390 C   0  0  0  0  0  0  0  0  0  0  0  0
   -5.3903   -1.6659   -1.0045 C   0  0  0  0  0  0  0  0  0  0  0  0
   -3.9522   -1.3209   -1.2063 C   0  0  2  0  0  0  0  0  0  0  0  0
   -3.0772   -1.7274   -0.0675 C   0  0  0  0  0  0  0  0  0  0  0  0
   -3.5719   -1.7286    1.1846 C   0  0  0  0  0  0  0  0  0  0  0  0
   -6.9730   -1.7676    0.4218 H   0  0  0  0  0  0  0  0  0  0  0  0
   -6.0130   -1.8386   -1.8763 H   0  0  0  0  0  0  0  0  0  0  0  0
   -3.5739   -1.6776   -2.1637 H   0  0  0  0  0  0  0  0  0  0  0  0
   -2.0325   -1.9455   -0.2643 H   0  0  0  0  0  0  0  0  0  0  0  0
   -2.9386   -1.8732    2.0555 H   0  0  0  0  0  0  0  0  0  0  0  0
   -4.5900    1.0689    0.5222 O   0  0  0  0  0  0  0  0  0  0  0  0
   -4.1301    1.1408   -0.5978 C   0  0  0  0  0  0  0  0  0  0  0  0
   -3.8033    0.1951   -1.4713 O   0  0  0  0  0  0  0  0  0  0  0  0
   -3.8160    2.5154   -1.2457 C   0  0  0  0  0  0  0  0  0  0  0  0
   -2.5008    2.6194   -1.5171 F   0  0  0  0  0  0  0  0  0  0  0  0
   -4.4953    2.6669   -2.3980 F   0  0  0  0  0  0  0  0  0  0  0  0
   -4.1564    3.5106   -0.4209 F   0  0  0  0  0  0  0  0  0  0  0  0
  1  2  1  6  0  0  0
  2  3  1  0  0  0  0
  4  9  1  0  0  0  0
  4  1  1  0  0  0  0
  5  4  2  0  0  0  0
  6 11  1  6  0  0  0
  6  5  1  0  0  0  0
  6  7  1  0  0  0  0
  7  8  2  0  0  0  0
  8  1  1  0  0  0  0
  8 13  1  0  0  0  0
 10  5  1  0  0  0  0
 12  7  1  0  0  0  0
 15 14  2  0  0  0  0
 16  6  1  0  0  0  0
 16 15  1  0  0  0  0
 17 15  1  0  0  0  0
 17 20  1  0  0  0  0
 18 17  1  0  0  0  0
 19 17  1  0  0  0  0
M  RAD  3   1   2   2   2   3   3
M  END
