Coordinates from ORCA-job PhN2+~CF3COO-_B3LYPG-6-31G_dp-NX-Scan-d89-09-n800
 OpenBabel11261920123D

 20 20  0  0  1  0  0  0  0  0999 V2000
   -5.1501   -1.7028    1.5376 C   0  0  0  0  0  0  0  0  0  0  0  0
   -5.6259   -1.8924    2.7475 N   0  0  0  0  0  0  0  0  0  0  0  0
   -6.0392   -2.0205    3.8028 N   0  0  0  0  0  0  0  0  0  0  0  0
   -5.9856   -1.0841    0.5303 C   0  0  0  0  0  0  0  0  0  0  0  0
   -5.4217   -0.6613   -0.6174 C   0  0  0  0  0  0  0  0  0  0  0  0
   -3.9332   -0.6314   -0.7615 C   0  0  2  0  0  0  0  0  0  0  0  0
   -3.2425   -1.6679    0.0648 C   0  0  0  0  0  0  0  0  0  0  0  0
   -3.7937   -2.0972    1.2162 C   0  0  0  0  0  0  0  0  0  0  0  0
   -7.0536   -1.0048    0.7092 H   0  0  0  0  0  0  0  0  0  0  0  0
   -6.0263   -0.2374   -1.4101 H   0  0  0  0  0  0  0  0  0  0  0  0
   -3.6057   -0.6422   -1.8002 H   0  0  0  0  0  0  0  0  0  0  0  0
   -2.2451   -1.9794   -0.2237 H   0  0  0  0  0  0  0  0  0  0  0  0
   -3.2632   -2.7570    1.8959 H   0  0  0  0  0  0  0  0  0  0  0  0
   -3.6044    2.8884   -0.0304 O   0  0  0  0  0  0  0  0  0  0  0  0
   -3.5872    1.8818   -0.6924 C   0  0  0  0  0  0  0  0  0  0  0  0
   -3.4450    0.6758   -0.1495 O   0  0  0  0  0  0  0  0  0  0  0  0
   -3.6533    1.9698   -2.2410 C   0  0  0  0  0  0  0  0  0  0  0  0
   -2.6457    1.2645   -2.8042 F   0  0  0  0  0  0  0  0  0  0  0  0
   -4.8167    1.4587   -2.7131 F   0  0  0  0  0  0  0  0  0  0  0  0
   -3.5617    3.2325   -2.6488 F   0  0  0  0  0  0  0  0  0  0  0  0
  1  2  1  0  0  0  0
  2  3  1  0  0  0  0
  4  9  1  0  0  0  0
  4  1  2  0  0  0  0
  5  4  1  0  0  0  0
  6 11  1  6  0  0  0
  6  5  1  0  0  0  0
  6 16  1  0  0  0  0
  6  7  1  0  0  0  0
  7  8  2  0  0  0  0
  8  1  1  0  0  0  0
  8 13  1  0  0  0  0
 10  5  1  0  0  0  0
 12  7  1  0  0  0  0
 15 16  1  0  0  0  0
 15 14  2  0  0  0  0
 17 15  1  0  0  0  0
 18 17  1  0  0  0  0
 19 17  1  0  0  0  0
 20 17  1  0  0  0  0
M  RAD  3   2   2   3   3   5   2
M  END
