Coordinates from ORCA-job PhN2+~CF3COO-_B3LYPG-6-31G_dp-NX-Scan-d89-09-n800
 OpenBabel11261920123D

 20 20  0  0  0  0  0  0  0  0999 V2000
   -3.8308   -1.1151    0.2211 C   0  0  0  0  0  0  0  0  0  0  0  0
   -3.4745    0.1272    0.8139 N   0  0  0  0  0  0  0  0  0  0  0  0
   -3.8978    1.2601    0.5365 N   0  0  0  0  0  0  0  0  0  0  0  0
   -4.6895   -1.3879   -0.8675 C   0  0  0  0  0  0  0  0  0  0  0  0
   -4.8739   -2.7066   -1.2792 C   0  0  0  0  0  0  0  0  0  0  0  0
   -4.2278   -3.7616   -0.6310 C   0  0  0  0  0  0  0  0  0  0  0  0
   -3.3777   -3.4995    0.4455 C   0  0  0  0  0  0  0  0  0  0  0  0
   -3.1805   -2.1879    0.8619 C   0  0  0  0  0  0  0  0  0  0  0  0
   -5.2032   -0.5956   -1.3880 H   0  0  0  0  0  0  0  0  0  0  0  0
   -5.5324   -2.9094   -2.1187 H   0  0  0  0  0  0  0  0  0  0  0  0
   -4.3862   -4.7826   -0.9656 H   0  0  0  0  0  0  0  0  0  0  0  0
   -2.8702   -4.3124    0.9549 H   0  0  0  0  0  0  0  0  0  0  0  0
   -2.5229   -1.9524    1.6920 H   0  0  0  0  0  0  0  0  0  0  0  0
   -4.7876    1.3163   -0.4240 O   0  0  0  0  0  0  0  0  0  0  0  0
   -5.2726    2.5647   -0.7403 C   0  0  0  0  0  0  0  0  0  0  0  0
   -6.0844    2.6747   -1.6104 O   0  0  0  0  0  0  0  0  0  0  0  0
   -4.7322    3.7848    0.0596 C   0  0  0  0  0  0  0  0  0  0  0  0
   -3.4102    3.9245   -0.1074 F   0  0  0  0  0  0  0  0  0  0  0  0
   -5.3351    4.8820   -0.4062 F   0  0  0  0  0  0  0  0  0  0  0  0
   -5.0104    3.6699    1.3650 F   0  0  0  0  0  0  0  0  0  0  0  0
  1  2  1  0  0  0  0
  1  8  2  0  0  0  0
  3  2  2  0  0  0  0
  4  1  1  0  0  0  0
  5  4  2  0  0  0  0
  5  6  1  0  0  0  0
  6  7  2  0  0  0  0
  7  8  1  0  0  0  0
  7 12  1  0  0  0  0
  8 13  1  0  0  0  0
  9  4  1  0  0  0  0
 10  5  1  0  0  0  0
 11  6  1  0  0  0  0
 14  3  1  0  0  0  0
 15 14  1  0  0  0  0
 15 17  1  0  0  0  0
 16 15  2  0  0  0  0
 17 20  1  0  0  0  0
 18 17  1  0  0  0  0
 19 17  1  0  0  0  0
M  END
