Coordinates from ORCA-job PhN2+~CF3COO-_B3LYPG-6-31G_dp-NX-Scan-d89-09-n800
 OpenBabel11261920123D

 20 20  0  0  0  0  0  0  0  0999 V2000
   -3.8311   -1.1172    0.2223 C   0  0  0  0  0  0  0  0  0  0  0  0
   -3.4775    0.1255    0.8140 N   0  0  0  0  0  0  0  0  0  0  0  0
   -3.8939    1.2594    0.5430 N   0  0  0  0  0  0  0  0  0  0  0  0
   -4.6906   -1.3891   -0.8657 C   0  0  0  0  0  0  0  0  0  0  0  0
   -4.8741   -2.7077   -1.2779 C   0  0  0  0  0  0  0  0  0  0  0  0
   -4.2264   -3.7624   -0.6307 C   0  0  0  0  0  0  0  0  0  0  0  0
   -3.3756   -3.5006    0.4452 C   0  0  0  0  0  0  0  0  0  0  0  0
   -3.1792   -2.1892    0.8626 C   0  0  0  0  0  0  0  0  0  0  0  0
   -5.2048   -0.5959   -1.3841 H   0  0  0  0  0  0  0  0  0  0  0  0
   -5.5332   -2.9107   -2.1169 H   0  0  0  0  0  0  0  0  0  0  0  0
   -4.3841   -4.7834   -0.9658 H   0  0  0  0  0  0  0  0  0  0  0  0
   -2.8671   -4.3135    0.9537 H   0  0  0  0  0  0  0  0  0  0  0  0
   -2.5213   -1.9537    1.6924 H   0  0  0  0  0  0  0  0  0  0  0  0
   -4.7957    1.3192   -0.4335 O   0  0  0  0  0  0  0  0  0  0  0  0
   -5.2748    2.5678   -0.7447 C   0  0  0  0  0  0  0  0  0  0  0  0
   -6.0859    2.6862   -1.6153 O   0  0  0  0  0  0  0  0  0  0  0  0
   -4.7323    3.7846    0.0589 C   0  0  0  0  0  0  0  0  0  0  0  0
   -3.4094    3.9213   -0.1056 F   0  0  0  0  0  0  0  0  0  0  0  0
   -5.3310    4.8854   -0.4038 F   0  0  0  0  0  0  0  0  0  0  0  0
   -5.0119    3.6670    1.3641 F   0  0  0  0  0  0  0  0  0  0  0  0
  1  2  1  0  0  0  0
  1  8  2  0  0  0  0
  3  2  2  0  0  0  0
  4  1  1  0  0  0  0
  5  4  2  0  0  0  0
  5  6  1  0  0  0  0
  6  7  2  0  0  0  0
  7  8  1  0  0  0  0
  7 12  1  0  0  0  0
  8 13  1  0  0  0  0
  9  4  1  0  0  0  0
 10  5  1  0  0  0  0
 11  6  1  0  0  0  0
 14  3  1  0  0  0  0
 15 14  1  0  0  0  0
 15 17  1  0  0  0  0
 16 15  2  0  0  0  0
 17 20  1  0  0  0  0
 18 17  1  0  0  0  0
 19 17  1  0  0  0  0
M  END
