Coordinates from ORCA-job PhN2+~CF3COO-_B3LYPG-6-31G_dp-NX-Scan-d89-09-n800
 OpenBabel11261920123D

 20 20  0  0  1  0  0  0  0  0999 V2000
   -5.1014   -1.4596    1.4040 C   0  0  0  0  0  0  0  0  0  0  0  0
   -5.6909   -1.3986    2.5781 N   0  0  0  0  0  0  0  0  0  0  0  0
   -6.1975   -1.3091    3.5954 N   0  0  0  0  0  0  0  0  0  0  0  0
   -5.7819   -0.9437    0.2370 C   0  0  0  0  0  0  0  0  0  0  0  0
   -5.0861   -0.7788   -0.9067 C   0  0  0  0  0  0  0  0  0  0  0  0
   -3.5975   -0.9092   -0.9096 C   0  0  2  0  0  0  0  0  0  0  0  0
   -3.0997   -1.8656    0.1261 C   0  0  0  0  0  0  0  0  0  0  0  0
   -3.7810   -2.0423    1.2746 C   0  0  0  0  0  0  0  0  0  0  0  0
   -6.8465   -0.7389    0.2946 H   0  0  0  0  0  0  0  0  0  0  0  0
   -5.5840   -0.4585   -1.8138 H   0  0  0  0  0  0  0  0  0  0  0  0
   -3.1961   -1.1084   -1.9026 H   0  0  0  0  0  0  0  0  0  0  0  0
   -2.1264   -2.3217   -0.0160 H   0  0  0  0  0  0  0  0  0  0  0  0
   -3.3843   -2.6325    2.0945 H   0  0  0  0  0  0  0  0  0  0  0  0
   -3.6839    2.3448    0.3839 O   0  0  0  0  0  0  0  0  0  0  0  0
   -3.5883    1.5839   -0.5454 C   0  0  0  0  0  0  0  0  0  0  0  0
   -2.9430    0.4170   -0.4858 O   0  0  0  0  0  0  0  0  0  0  0  0
   -4.1273    2.0394   -1.9294 C   0  0  0  0  0  0  0  0  0  0  0  0
   -3.8792    1.1443   -2.9122 F   0  0  0  0  0  0  0  0  0  0  0  0
   -5.4582    2.2335   -1.8800 F   0  0  0  0  0  0  0  0  0  0  0  0
   -3.5466    3.1971   -2.2747 F   0  0  0  0  0  0  0  0  0  0  0  0
  1  2  1  0  0  0  0
  2  3  1  0  0  0  0
  4  9  1  0  0  0  0
  4  1  2  0  0  0  0
  5  4  1  0  0  0  0
  6 11  1  6  0  0  0
  6  5  1  0  0  0  0
  6 16  1  0  0  0  0
  6  7  1  0  0  0  0
  7  8  2  0  0  0  0
  8  1  1  0  0  0  0
  8 13  1  0  0  0  0
 10  5  1  0  0  0  0
 12  7  1  0  0  0  0
 15 16  1  0  0  0  0
 15 14  2  0  0  0  0
 17 19  1  0  0  0  0
 17 15  1  0  0  0  0
 18 17  1  0  0  0  0
 20 17  1  0  0  0  0
M  RAD  3   2   2   3   3   5   2
M  END
