Coordinates from ORCA-job PhN2+~CF3COO-_B3LYPG-6-31G_dp-NX-Scan-d89-09-n800
 OpenBabel11261920123D

 20 20  0  0  1  0  0  0  0  0999 V2000
   -5.2720   -2.0638    1.4982 C   0  0  0  0  0  0  0  0  0  0  0  0
   -5.8436   -3.0598    2.1516 N   0  0  0  0  0  0  0  0  0  0  0  0
   -6.3401   -3.9345    2.7094 N   0  0  0  0  0  0  0  0  0  0  0  0
   -6.0659   -1.0501    0.8209 C   0  0  0  0  0  0  0  0  0  0  0  0
   -5.4868   -0.1221    0.0299 C   0  0  0  0  0  0  0  0  0  0  0  0
   -4.0174   -0.1171   -0.2903 C   0  0  2  0  0  0  0  0  0  0  0  0
   -3.2436   -1.0115    0.6378 C   0  0  0  0  0  0  0  0  0  0  0  0
   -3.8239   -1.9413    1.4250 C   0  0  0  0  0  0  0  0  0  0  0  0
   -7.1422   -1.0513    0.9656 H   0  0  0  0  0  0  0  0  0  0  0  0
   -6.1009    0.6205   -0.4671 H   0  0  0  0  0  0  0  0  0  0  0  0
   -3.8453   -0.4240   -1.3256 H   0  0  0  0  0  0  0  0  0  0  0  0
   -2.1615   -0.9309    0.6039 H   0  0  0  0  0  0  0  0  0  0  0  0
   -3.2138   -2.6114    2.0228 H   0  0  0  0  0  0  0  0  0  0  0  0
   -2.5410    3.1201   -1.1186 O   0  0  0  0  0  0  0  0  0  0  0  0
   -3.1494    2.0807   -1.2218 C   0  0  0  0  0  0  0  0  0  0  0  0
   -3.4377    1.2758   -0.1812 O   0  0  0  0  0  0  0  0  0  0  0  0
   -3.6416    1.6568   -2.6353 C   0  0  0  0  0  0  0  0  0  0  0  0
   -2.9503    0.5809   -3.0813 F   0  0  0  0  0  0  0  0  0  0  0  0
   -4.9542    1.3283   -2.6277 F   0  0  0  0  0  0  0  0  0  0  0  0
   -3.4686    2.6479   -3.5041 F   0  0  0  0  0  0  0  0  0  0  0  0
  1  2  1  0  0  0  0
  2  3  1  0  0  0  0
  4  9  1  0  0  0  0
  4  1  2  0  0  0  0
  5  4  1  0  0  0  0
  6 11  1  6  0  0  0
  6 16  1  0  0  0  0
  6  5  1  0  0  0  0
  6  7  1  0  0  0  0
  7  8  2  0  0  0  0
  8  1  1  0  0  0  0
  8 13  1  0  0  0  0
 10  5  1  0  0  0  0
 12  7  1  0  0  0  0
 15 14  2  0  0  0  0
 15 16  1  0  0  0  0
 17 19  1  0  0  0  0
 17 15  1  0  0  0  0
 18 17  1  0  0  0  0
 20 17  1  0  0  0  0
M  RAD  3   2   2   3   3   5   2
M  END
