Coordinates from ORCA-job PhN2+~CF3COO-_B3LYPG-6-31G_dp-NX-Scan-d89-09-n800
 OpenBabel11261920123D

 20 20  0  0  1  0  0  0  0  0999 V2000
   -5.1382   -1.6729    1.5274 C   0  0  1  0  0  0  0  0  0  0  0  0
   -5.6010   -1.7979    2.7509 N   0  0  0  0  0  0  0  0  0  0  0  0
   -6.0030   -1.8658    3.8162 N   0  0  0  0  0  0  0  0  0  0  0  0
   -5.9732   -1.0757    0.5061 C   0  0  0  0  0  0  0  0  0  0  0  0
   -5.4069   -0.6881   -0.6531 C   0  0  0  0  0  0  0  0  0  0  0  0
   -3.9166   -0.6651   -0.7864 C   0  0  2  0  0  0  0  0  0  0  0  0
   -3.2420   -1.7113    0.0416 C   0  0  0  0  0  0  0  0  0  0  0  0
   -3.7934   -2.1064    1.2053 C   0  0  0  0  0  0  0  0  0  0  0  0
   -7.0402   -0.9850    0.6850 H   0  0  0  0  0  0  0  0  0  0  0  0
   -6.0075   -0.2850   -1.4593 H   0  0  0  0  0  0  0  0  0  0  0  0
   -3.5802   -0.6695   -1.8226 H   0  0  0  0  0  0  0  0  0  0  0  0
   -2.2561   -2.0524   -0.2523 H   0  0  0  0  0  0  0  0  0  0  0  0
   -3.2739   -2.7656    1.8941 H   0  0  0  0  0  0  0  0  0  0  0  0
   -3.6925    2.8312    0.0358 O   0  0  0  0  0  0  0  0  0  0  0  0
   -3.6219    1.8491   -0.6588 C   0  0  0  0  0  0  0  0  0  0  0  0
   -3.4228    0.6325   -0.1575 O   0  0  0  0  0  0  0  0  0  0  0  0
   -3.6708    1.9831   -2.2048 C   0  0  0  0  0  0  0  0  0  0  0  0
   -2.6442    1.3126   -2.7751 F   0  0  0  0  0  0  0  0  0  0  0  0
   -4.8185    1.4658   -2.7070 F   0  0  0  0  0  0  0  0  0  0  0  0
   -3.5970    3.2593   -2.5736 F   0  0  0  0  0  0  0  0  0  0  0  0
  1  2  1  1  0  0  0
  2  3  1  0  0  0  0
  4  9  1  0  0  0  0
  4  1  1  0  0  0  0
  5  4  2  0  0  0  0
  6 11  1  6  0  0  0
  6  5  1  0  0  0  0
  6 16  1  0  0  0  0
  6  7  1  0  0  0  0
  7  8  2  0  0  0  0
  8  1  1  0  0  0  0
  8 13  1  0  0  0  0
 10  5  1  0  0  0  0
 12  7  1  0  0  0  0
 15 16  1  0  0  0  0
 15 14  2  0  0  0  0
 17 15  1  0  0  0  0
 18 17  1  0  0  0  0
 19 17  1  0  0  0  0
 20 17  1  0  0  0  0
M  RAD  3   1   2   2   2   3   3
M  END
