Coordinates from ORCA-job PhN2+~CF3COO-_B3LYPG-6-31G_dp-NX-Scan-d89-09-n800
 OpenBabel11261920123D

 20 20  0  0  0  0  0  0  0  0999 V2000
   -3.8172   -1.1672    0.2557 C   0  0  0  0  0  0  0  0  0  0  0  0
   -3.5169    0.0919    0.8128 N   0  0  0  0  0  0  0  0  0  0  0  0
   -3.8274    1.2283    0.6497 N   0  0  0  0  0  0  0  0  0  0  0  0
   -4.6875   -1.4041   -0.8269 C   0  0  0  0  0  0  0  0  0  0  0  0
   -4.8696   -2.7158   -1.2572 C   0  0  0  0  0  0  0  0  0  0  0  0
   -4.2077   -3.7759   -0.6306 C   0  0  0  0  0  0  0  0  0  0  0  0
   -3.3466   -3.5341    0.4427 C   0  0  0  0  0  0  0  0  0  0  0  0
   -3.1489   -2.2311    0.8855 C   0  0  0  0  0  0  0  0  0  0  0  0
   -5.1963   -0.5810   -1.3044 H   0  0  0  0  0  0  0  0  0  0  0  0
   -5.5360   -2.9102   -2.0918 H   0  0  0  0  0  0  0  0  0  0  0  0
   -4.3641   -4.7918   -0.9807 H   0  0  0  0  0  0  0  0  0  0  0  0
   -2.8328   -4.3560    0.9302 H   0  0  0  0  0  0  0  0  0  0  0  0
   -2.4865   -2.0090    1.7152 H   0  0  0  0  0  0  0  0  0  0  0  0
   -4.9177    1.3966   -0.5650 O   0  0  0  0  0  0  0  0  0  0  0  0
   -5.3350    2.6343   -0.8225 C   0  0  0  0  0  0  0  0  0  0  0  0
   -6.1429    2.8696   -1.6886 O   0  0  0  0  0  0  0  0  0  0  0  0
   -4.7483    3.7936    0.0298 C   0  0  0  0  0  0  0  0  0  0  0  0
   -3.4104    3.8679   -0.1072 F   0  0  0  0  0  0  0  0  0  0  0  0
   -5.2720    4.9556   -0.3702 F   0  0  0  0  0  0  0  0  0  0  0  0
   -5.0362    3.6316    1.3355 F   0  0  0  0  0  0  0  0  0  0  0  0
  1  2  1  0  0  0  0
  1  8  2  0  0  0  0
  3  2  1  0  0  0  0
  4  1  1  0  0  0  0
  5  4  2  0  0  0  0
  5  6  1  0  0  0  0
  6  7  2  0  0  0  0
  7  8  1  0  0  0  0
  7 12  1  0  0  0  0
  8 13  1  0  0  0  0
  9  4  1  0  0  0  0
 10  5  1  0  0  0  0
 11  6  1  0  0  0  0
 14  3  1  0  0  0  0
 15 14  1  0  0  0  0
 15 17  1  0  0  0  0
 16 15  2  0  0  0  0
 17 20  1  0  0  0  0
 18 17  1  0  0  0  0
 19 17  1  0  0  0  0
M  RAD  2   2   2   3   2
M  END
