Coordinates from ORCA-job PhN2+~CF3COO-_B3LYPG-6-31G_dp-NX-Scan-d89-09-n800
 OpenBabel11261920123D

 20 20  0  0  1  0  0  0  0  0999 V2000
   -4.9988   -1.4864    1.3649 C   0  0  1  0  0  0  0  0  0  0  0  0
   -5.3276   -0.5524    2.2373 N   0  0  0  0  0  0  0  0  0  0  0  0
   -5.5535    0.3686    2.8567 N   0  0  0  0  0  0  0  0  0  0  0  0
   -5.9046   -1.6419    0.2358 C   0  0  0  0  0  0  0  0  0  0  0  0
   -5.3891   -1.6497   -1.0078 C   0  0  0  0  0  0  0  0  0  0  0  0
   -3.9485   -1.3186   -1.2140 C   0  0  2  0  0  0  0  0  0  0  0  0
   -3.0751   -1.7119   -0.0695 C   0  0  0  0  0  0  0  0  0  0  0  0
   -3.5709   -1.7039    1.1820 C   0  0  0  0  0  0  0  0  0  0  0  0
   -6.9713   -1.7345    0.4203 H   0  0  0  0  0  0  0  0  0  0  0  0
   -6.0152   -1.8162   -1.8783 H   0  0  0  0  0  0  0  0  0  0  0  0
   -3.5725   -1.6922   -2.1660 H   0  0  0  0  0  0  0  0  0  0  0  0
   -2.0285   -1.9245   -0.2620 H   0  0  0  0  0  0  0  0  0  0  0  0
   -2.9390   -1.8414    2.0549 H   0  0  0  0  0  0  0  0  0  0  0  0
   -4.5750    1.0683    0.4930 O   0  0  0  0  0  0  0  0  0  0  0  0
   -4.1172    1.1393   -0.6267 C   0  0  0  0  0  0  0  0  0  0  0  0
   -3.7918    0.1911   -1.4982 O   0  0  0  0  0  0  0  0  0  0  0  0
   -3.8040    2.5124   -1.2771 C   0  0  0  0  0  0  0  0  0  0  0  0
   -2.4893    2.6159   -1.5511 F   0  0  0  0  0  0  0  0  0  0  0  0
   -4.4853    2.6620   -2.4287 F   0  0  0  0  0  0  0  0  0  0  0  0
   -4.1429    3.5090   -0.4535 F   0  0  0  0  0  0  0  0  0  0  0  0
  1  2  1  6  0  0  0
  2  3  1  0  0  0  0
  4  9  1  0  0  0  0
  4  1  1  0  0  0  0
  5  4  2  0  0  0  0
  6 11  1  6  0  0  0
  6  5  1  0  0  0  0
  6  7  1  0  0  0  0
  7  8  2  0  0  0  0
  8  1  1  0  0  0  0
  8 13  1  0  0  0  0
 10  5  1  0  0  0  0
 12  7  1  0  0  0  0
 15 14  2  0  0  0  0
 16  6  1  0  0  0  0
 16 15  1  0  0  0  0
 17 15  1  0  0  0  0
 17 20  1  0  0  0  0
 18 17  1  0  0  0  0
 19 17  1  0  0  0  0
M  RAD  3   1   2   2   2   3   3
M  END
