Coordinates from ORCA-job PhN2+~CF3COO-_B3LYPG-6-31G_dp-NX-Scan-d89-09-n800
 OpenBabel11261920123D

 20 20  0  0  1  0  0  0  0  0999 V2000
   -5.0224   -1.4339    1.4250 C   0  0  1  0  0  0  0  0  0  0  0  0
   -5.4938   -1.1179    2.6086 N   0  0  0  0  0  0  0  0  0  0  0  0
   -5.8987   -0.8132    3.6297 N   0  0  0  0  0  0  0  0  0  0  0  0
   -5.9203   -1.5005    0.2934 C   0  0  0  0  0  0  0  0  0  0  0  0
   -5.4102   -1.4781   -0.9525 C   0  0  0  0  0  0  0  0  0  0  0  0
   -3.9549   -1.2409   -1.1887 C   0  0  2  0  0  0  0  0  0  0  0  0
   -3.0902   -1.5460   -0.0101 C   0  0  0  0  0  0  0  0  0  0  0  0
   -3.5946   -1.5677    1.2380 C   0  0  0  0  0  0  0  0  0  0  0  0
   -6.9879   -1.5841    0.4740 H   0  0  0  0  0  0  0  0  0  0  0  0
   -6.0584   -1.5667   -1.8181 H   0  0  0  0  0  0  0  0  0  0  0  0
   -3.6039   -1.7484   -2.0894 H   0  0  0  0  0  0  0  0  0  0  0  0
   -2.0275   -1.6846   -0.1811 H   0  0  0  0  0  0  0  0  0  0  0  0
   -2.9608   -1.6997    2.1095 H   0  0  0  0  0  0  0  0  0  0  0  0
   -4.4834    1.1950    0.2800 O   0  0  0  0  0  0  0  0  0  0  0  0
   -4.0255    1.2123   -0.8377 C   0  0  0  0  0  0  0  0  0  0  0  0
   -3.7263    0.2012   -1.6472 O   0  0  0  0  0  0  0  0  0  0  0  0
   -3.6892    2.5398   -1.5627 C   0  0  0  0  0  0  0  0  0  0  0  0
   -2.3733    2.6040   -1.8432 F   0  0  0  0  0  0  0  0  0  0  0  0
   -4.3695    2.6366   -2.7206 F   0  0  0  0  0  0  0  0  0  0  0  0
   -4.0092    3.5860   -0.7948 F   0  0  0  0  0  0  0  0  0  0  0  0
  1  2  1  6  0  0  0
  2  3  1  0  0  0  0
  4  9  1  0  0  0  0
  4  1  1  0  0  0  0
  5  4  2  0  0  0  0
  6 11  1  6  0  0  0
  6  5  1  0  0  0  0
  6  7  1  0  0  0  0
  7  8  2  0  0  0  0
  8  1  1  0  0  0  0
  8 13  1  0  0  0  0
 10  5  1  0  0  0  0
 12  7  1  0  0  0  0
 15 14  2  0  0  0  0
 16  6  1  0  0  0  0
 16 15  1  0  0  0  0
 17 15  1  0  0  0  0
 17 20  1  0  0  0  0
 18 17  1  0  0  0  0
 19 17  1  0  0  0  0
M  RAD  3   1   2   2   2   3   3
M  END
