Coordinates from ORCA-job PhN2+~CF3COO-_B3LYPG-6-31G_dp-NX-Scan-d89-09-n800
 OpenBabel11261920123D

 20 20  0  0  1  0  0  0  0  0999 V2000
   -5.1547   -1.7157    1.5421 C   0  0  0  0  0  0  0  0  0  0  0  0
   -5.6336   -1.9303    2.7468 N   0  0  0  0  0  0  0  0  0  0  0  0
   -6.0497   -2.0817    3.7983 N   0  0  0  0  0  0  0  0  0  0  0  0
   -5.9918   -1.0891    0.5410 C   0  0  0  0  0  0  0  0  0  0  0  0
   -5.4300   -0.6516   -0.6024 C   0  0  0  0  0  0  0  0  0  0  0  0
   -3.9422   -0.6173   -0.7517 C   0  0  2  0  0  0  0  0  0  0  0  0
   -3.2442   -1.6498    0.0732 C   0  0  0  0  0  0  0  0  0  0  0  0
   -3.7939   -2.0935    1.2199 C   0  0  0  0  0  0  0  0  0  0  0  0
   -7.0600   -1.0150    0.7208 H   0  0  0  0  0  0  0  0  0  0  0  0
   -6.0371   -0.2198   -1.3890 H   0  0  0  0  0  0  0  0  0  0  0  0
   -3.6187   -0.6302   -1.7917 H   0  0  0  0  0  0  0  0  0  0  0  0
   -2.2424   -1.9485   -0.2136 H   0  0  0  0  0  0  0  0  0  0  0  0
   -3.2579   -2.7530    1.8955 H   0  0  0  0  0  0  0  0  0  0  0  0
   -3.5728    2.9109   -0.0581 O   0  0  0  0  0  0  0  0  0  0  0  0
   -3.5763    1.8950   -0.7063 C   0  0  0  0  0  0  0  0  0  0  0  0
   -3.4565    0.6940   -0.1468 O   0  0  0  0  0  0  0  0  0  0  0  0
   -3.6433    1.9648   -2.2556 C   0  0  0  0  0  0  0  0  0  0  0  0
   -2.6416    1.2450   -2.8114 F   0  0  0  0  0  0  0  0  0  0  0  0
   -4.8111    1.4572   -2.7204 F   0  0  0  0  0  0  0  0  0  0  0  0
   -3.5422    3.2217   -2.6785 F   0  0  0  0  0  0  0  0  0  0  0  0
  1  2  1  0  0  0  0
  2  3  1  0  0  0  0
  4  9  1  0  0  0  0
  4  1  2  0  0  0  0
  5  4  1  0  0  0  0
  6 11  1  6  0  0  0
  6  5  1  0  0  0  0
  6 16  1  0  0  0  0
  6  7  1  0  0  0  0
  7  8  2  0  0  0  0
  8  1  1  0  0  0  0
  8 13  1  0  0  0  0
 10  5  1  0  0  0  0
 12  7  1  0  0  0  0
 15 16  1  0  0  0  0
 15 14  2  0  0  0  0
 17 15  1  0  0  0  0
 18 17  1  0  0  0  0
 19 17  1  0  0  0  0
 20 17  1  0  0  0  0
M  RAD  3   2   2   3   3   5   2
M  END
