Coordinates from ORCA-job PhN2+~CF3COO-_B3LYPG-6-31G_dp-NX-Scan-d89-09-n800
 OpenBabel11261920123D

 20 20  0  0  1  0  0  0  0  0999 V2000
   -5.2318   -1.9244    1.5777 C   0  0  0  0  0  0  0  0  0  0  0  0
   -5.7718   -2.6362    2.5414 N   0  0  0  0  0  0  0  0  0  0  0  0
   -6.2411   -3.2532    3.3819 N   0  0  0  0  0  0  0  0  0  0  0  0
   -6.0659   -1.0988    0.7295 C   0  0  0  0  0  0  0  0  0  0  0  0
   -5.5164   -0.3812   -0.2684 C   0  0  0  0  0  0  0  0  0  0  0  0
   -4.0422   -0.3351   -0.5172 C   0  0  2  0  0  0  0  0  0  0  0  0
   -3.2561   -1.2795    0.3352 C   0  0  0  0  0  0  0  0  0  0  0  0
   -3.8070   -1.9994    1.3302 C   0  0  0  0  0  0  0  0  0  0  0  0
   -7.1380   -1.0914    0.9018 H   0  0  0  0  0  0  0  0  0  0  0  0
   -6.1441    0.2188   -0.9177 H   0  0  0  0  0  0  0  0  0  0  0  0
   -3.8041   -0.4759   -1.5721 H   0  0  0  0  0  0  0  0  0  0  0  0
   -2.1909   -1.3476    0.1390 H   0  0  0  0  0  0  0  0  0  0  0  0
   -3.2044   -2.6602    1.9454 H   0  0  0  0  0  0  0  0  0  0  0  0
   -2.9254    3.1267   -0.6209 O   0  0  0  0  0  0  0  0  0  0  0  0
   -3.3207    2.0503   -0.9912 C   0  0  0  0  0  0  0  0  0  0  0  0
   -3.5458    1.0447   -0.1446 O   0  0  0  0  0  0  0  0  0  0  0  0
   -3.5669    1.8189   -2.5080 C   0  0  0  0  0  0  0  0  0  0  0  0
   -2.7242    0.8766   -2.9944 F   0  0  0  0  0  0  0  0  0  0  0  0
   -4.8322    1.3975   -2.7459 F   0  0  0  0  0  0  0  0  0  0  0  0
   -3.3708    2.9426   -3.1899 F   0  0  0  0  0  0  0  0  0  0  0  0
  1  2  1  0  0  0  0
  2  3  1  0  0  0  0
  4  9  1  0  0  0  0
  4  1  2  0  0  0  0
  5  4  1  0  0  0  0
  6 11  1  6  0  0  0
  6  5  1  0  0  0  0
  6 16  1  0  0  0  0
  6  7  1  0  0  0  0
  7  8  2  0  0  0  0
  8  1  1  0  0  0  0
  8 13  1  0  0  0  0
 10  5  1  0  0  0  0
 12  7  1  0  0  0  0
 15 14  2  0  0  0  0
 15 16  1  0  0  0  0
 17 15  1  0  0  0  0
 18 17  1  0  0  0  0
 19 17  1  0  0  0  0
 20 17  1  0  0  0  0
M  RAD  3   2   2   3   3   5   2
M  END
