Coordinates from ORCA-job PhN2+~CF3COO-_B3LYPG-6-31G_dp-NX-Scan-d89-09-n800
 OpenBabel11261920123D

 20 20  0  0  1  0  0  0  0  0999 V2000
   -5.2681   -2.0492    1.5083 C   0  0  0  0  0  0  0  0  0  0  0  0
   -5.8380   -3.0275    2.1852 N   0  0  0  0  0  0  0  0  0  0  0  0
   -6.3332   -3.8873    2.7643 N   0  0  0  0  0  0  0  0  0  0  0  0
   -6.0669   -1.0512    0.8163 C   0  0  0  0  0  0  0  0  0  0  0  0
   -5.4909   -0.1409    0.0045 C   0  0  0  0  0  0  0  0  0  0  0  0
   -4.0214   -0.1350   -0.3095 C   0  0  2  0  0  0  0  0  0  0  0  0
   -3.2429   -1.0321    0.6104 C   0  0  0  0  0  0  0  0  0  0  0  0
   -3.8210   -1.9441    1.4180 C   0  0  0  0  0  0  0  0  0  0  0  0
   -7.1427   -1.0527    0.9649 H   0  0  0  0  0  0  0  0  0  0  0  0
   -6.1050    0.5913   -0.5075 H   0  0  0  0  0  0  0  0  0  0  0  0
   -3.8446   -0.4284   -1.3479 H   0  0  0  0  0  0  0  0  0  0  0  0
   -2.1609   -0.9621    0.5586 H   0  0  0  0  0  0  0  0  0  0  0  0
   -3.2117   -2.6143    2.0165 H   0  0  0  0  0  0  0  0  0  0  0  0
   -2.5726    3.1210   -1.0710 O   0  0  0  0  0  0  0  0  0  0  0  0
   -3.1660    2.0772   -1.2005 C   0  0  0  0  0  0  0  0  0  0  0  0
   -3.4518    1.2557   -0.1754 O   0  0  0  0  0  0  0  0  0  0  0  0
   -3.6340    1.6681   -2.6261 C   0  0  0  0  0  0  0  0  0  0  0  0
   -2.9281    0.6032   -3.0755 F   0  0  0  0  0  0  0  0  0  0  0  0
   -4.9442    1.3297   -2.6422 F   0  0  0  0  0  0  0  0  0  0  0  0
   -3.4558    2.6717   -3.4792 F   0  0  0  0  0  0  0  0  0  0  0  0
  1  2  1  0  0  0  0
  2  3  1  0  0  0  0
  4  9  1  0  0  0  0
  4  1  2  0  0  0  0
  5  4  1  0  0  0  0
  6 11  1  6  0  0  0
  6 16  1  0  0  0  0
  6  5  1  0  0  0  0
  6  7  1  0  0  0  0
  7  8  2  0  0  0  0
  8  1  1  0  0  0  0
  8 13  1  0  0  0  0
 10  5  1  0  0  0  0
 12  7  1  0  0  0  0
 15 14  2  0  0  0  0
 15 16  1  0  0  0  0
 17 15  1  0  0  0  0
 18 17  1  0  0  0  0
 19 17  1  0  0  0  0
 20 17  1  0  0  0  0
M  RAD  3   2   2   3   3   5   2
M  END
