Coordinates from ORCA-job PhN2+~CF3COO-_B3LYPG-6-31G_dp-NX-Scan-d89-09-n800
 OpenBabel11261920123D

 20 20  0  0  1  0  0  0  0  0999 V2000
   -5.0018   -1.4416    1.3742 C   0  0  1  0  0  0  0  0  0  0  0  0
   -5.4129   -0.7811    2.4327 N   0  0  0  0  0  0  0  0  0  0  0  0
   -5.7507   -0.1464    3.3137 N   0  0  0  0  0  0  0  0  0  0  0  0
   -5.9059   -1.5678    0.2488 C   0  0  0  0  0  0  0  0  0  0  0  0
   -5.3935   -1.5820   -0.9965 C   0  0  0  0  0  0  0  0  0  0  0  0
   -3.9460   -1.2945   -1.2183 C   0  0  2  0  0  0  0  0  0  0  0  0
   -3.0769   -1.6450   -0.0568 C   0  0  0  0  0  0  0  0  0  0  0  0
   -3.5763   -1.6299    1.1936 C   0  0  0  0  0  0  0  0  0  0  0  0
   -6.9729   -1.6492    0.4348 H   0  0  0  0  0  0  0  0  0  0  0  0
   -6.0311   -1.7220   -1.8631 H   0  0  0  0  0  0  0  0  0  0  0  0
   -3.5801   -1.7273   -2.1496 H   0  0  0  0  0  0  0  0  0  0  0  0
   -2.0235   -1.8317   -0.2378 H   0  0  0  0  0  0  0  0  0  0  0  0
   -2.9452   -1.7560    2.0683 H   0  0  0  0  0  0  0  0  0  0  0  0
   -4.5338    1.1009    0.3906 O   0  0  0  0  0  0  0  0  0  0  0  0
   -4.0758    1.1594   -0.7279 C   0  0  0  0  0  0  0  0  0  0  0  0
   -3.7584    0.1905   -1.5792 O   0  0  0  0  0  0  0  0  0  0  0  0
   -3.7543    2.5197   -1.3987 C   0  0  0  0  0  0  0  0  0  0  0  0
   -2.4387    2.6116   -1.6727 F   0  0  0  0  0  0  0  0  0  0  0  0
   -4.4332    2.6552   -2.5535 F   0  0  0  0  0  0  0  0  0  0  0  0
   -4.0888    3.5305   -0.5907 F   0  0  0  0  0  0  0  0  0  0  0  0
  1  2  1  6  0  0  0
  2  3  1  0  0  0  0
  4  9  1  0  0  0  0
  4  1  1  0  0  0  0
  5  4  2  0  0  0  0
  6 11  1  6  0  0  0
  6  5  1  0  0  0  0
  6  7  1  0  0  0  0
  7  8  2  0  0  0  0
  8  1  1  0  0  0  0
  8 13  1  0  0  0  0
 10  5  1  0  0  0  0
 12  7  1  0  0  0  0
 15 14  2  0  0  0  0
 16  6  1  0  0  0  0
 16 15  1  0  0  0  0
 17 15  1  0  0  0  0
 17 20  1  0  0  0  0
 18 17  1  0  0  0  0
 19 17  1  0  0  0  0
M  RAD  3   1   2   2   2   3   3
M  END
