Coordinates from ORCA-job PhN2+~CF3COO-_B3LYPG-6-31G_dp-NX-Scan-d89-09-n800
 OpenBabel11261920123D

 20 20  0  0  1  0  0  0  0  0999 V2000
   -5.0526   -1.4887    1.4952 C   0  0  0  0  0  0  0  0  0  0  0  0
   -5.5461   -1.4657    2.7125 N   0  0  0  0  0  0  0  0  0  0  0  0
   -5.9745   -1.4379    3.7704 N   0  0  0  0  0  0  0  0  0  0  0  0
   -5.9438   -1.4702    0.3562 C   0  0  0  0  0  0  0  0  0  0  0  0
   -5.4361   -1.3677   -0.8861 C   0  0  0  0  0  0  0  0  0  0  0  0
   -3.9752   -1.1716   -1.1344 C   0  0  2  0  0  0  0  0  0  0  0  0
   -3.1123   -1.4328    0.0579 C   0  0  0  0  0  0  0  0  0  0  0  0
   -3.6201   -1.5343    1.3002 C   0  0  0  0  0  0  0  0  0  0  0  0
   -7.0120   -1.5654    0.5264 H   0  0  0  0  0  0  0  0  0  0  0  0
   -6.0921   -1.3856   -1.7505 H   0  0  0  0  0  0  0  0  0  0  0  0
   -3.6392   -1.7474   -2.0013 H   0  0  0  0  0  0  0  0  0  0  0  0
   -2.0410   -1.4983   -0.1049 H   0  0  0  0  0  0  0  0  0  0  0  0
   -2.9790   -1.6756    2.1649 H   0  0  0  0  0  0  0  0  0  0  0  0
   -4.4427    1.3318    0.1820 O   0  0  0  0  0  0  0  0  0  0  0  0
   -3.9888    1.2833   -0.9344 C   0  0  0  0  0  0  0  0  0  0  0  0
   -3.7123    0.2201   -1.6851 O   0  0  0  0  0  0  0  0  0  0  0  0
   -3.6194    2.5602   -1.7304 C   0  0  0  0  0  0  0  0  0  0  0  0
   -2.3033    2.5726   -2.0171 F   0  0  0  0  0  0  0  0  0  0  0  0
   -4.3014    2.6120   -2.8901 F   0  0  0  0  0  0  0  0  0  0  0  0
   -3.9080    3.6542   -1.0193 F   0  0  0  0  0  0  0  0  0  0  0  0
  1  2  1  0  0  0  0
  2  3  1  0  0  0  0
  4  9  1  0  0  0  0
  4  1  2  0  0  0  0
  5  4  1  0  0  0  0
  6 11  1  6  0  0  0
  6  5  1  0  0  0  0
  6  7  1  0  0  0  0
  7  8  2  0  0  0  0
  8  1  1  0  0  0  0
  8 13  1  0  0  0  0
 10  5  1  0  0  0  0
 12  7  1  0  0  0  0
 15 14  2  0  0  0  0
 16  6  1  0  0  0  0
 16 15  1  0  0  0  0
 17 20  1  0  0  0  0
 17 15  1  0  0  0  0
 18 17  1  0  0  0  0
 19 17  1  0  0  0  0
M  RAD  3   2   2   3   3   5   2
M  END
