Coordinates from ORCA-job PhN2+~CF3COO-_B3LYPG-6-31G_dp-NX-Scan-d89-09-n800
 OpenBabel11261920123D

 20 20  0  0  1  0  0  0  0  0999 V2000
   -4.9980   -1.4691    1.3637 C   0  0  1  0  0  0  0  0  0  0  0  0
   -5.3552   -0.6155    2.3007 N   0  0  0  0  0  0  0  0  0  0  0  0
   -5.6239    0.2171    3.0227 N   0  0  0  0  0  0  0  0  0  0  0  0
   -5.9036   -1.6171    0.2367 C   0  0  0  0  0  0  0  0  0  0  0  0
   -5.3891   -1.6309   -1.0074 C   0  0  0  0  0  0  0  0  0  0  0  0
   -3.9463   -1.3137   -1.2186 C   0  0  2  0  0  0  0  0  0  0  0  0
   -3.0744   -1.6934   -0.0685 C   0  0  0  0  0  0  0  0  0  0  0  0
   -3.5713   -1.6791    1.1826 C   0  0  0  0  0  0  0  0  0  0  0  0
   -6.9705   -1.7040    0.4223 H   0  0  0  0  0  0  0  0  0  0  0  0
   -6.0191   -1.7903   -1.8764 H   0  0  0  0  0  0  0  0  0  0  0  0
   -3.5731   -1.7049   -2.1648 H   0  0  0  0  0  0  0  0  0  0  0  0
   -2.0258   -1.8991   -0.2570 H   0  0  0  0  0  0  0  0  0  0  0  0
   -2.9401   -1.8109    2.0567 H   0  0  0  0  0  0  0  0  0  0  0  0
   -4.5624    1.0734    0.4606 O   0  0  0  0  0  0  0  0  0  0  0  0
   -4.1042    1.1423   -0.6583 C   0  0  0  0  0  0  0  0  0  0  0  0
   -3.7805    0.1896   -1.5253 O   0  0  0  0  0  0  0  0  0  0  0  0
   -3.7896    2.5128   -1.3129 C   0  0  0  0  0  0  0  0  0  0  0  0
   -2.4747    2.6141   -1.5871 F   0  0  0  0  0  0  0  0  0  0  0  0
   -4.4705    2.6595   -2.4651 F   0  0  0  0  0  0  0  0  0  0  0  0
   -4.1276    3.5122   -0.4924 F   0  0  0  0  0  0  0  0  0  0  0  0
  1  2  1  6  0  0  0
  2  3  1  0  0  0  0
  4  9  1  0  0  0  0
  4  1  1  0  0  0  0
  5  4  2  0  0  0  0
  6 11  1  6  0  0  0
  6  5  1  0  0  0  0
  6  7  1  0  0  0  0
  7  8  2  0  0  0  0
  8  1  1  0  0  0  0
  8 13  1  0  0  0  0
 10  5  1  0  0  0  0
 12  7  1  0  0  0  0
 15 14  2  0  0  0  0
 16  6  1  0  0  0  0
 16 15  1  0  0  0  0
 17 15  1  0  0  0  0
 17 20  1  0  0  0  0
 18 17  1  0  0  0  0
 19 17  1  0  0  0  0
M  RAD  3   1   2   2   2   3   3
M  END
