Coordinates from ORCA-job PhN2+~CF3COO-_B3LYPG-6-31G_dp-NX-Scan-d89-09-n800
 OpenBabel11261920123D

 20 20  0  0  1  0  0  0  0  0999 V2000
   -5.0986   -1.5635    1.4826 C   0  0  1  0  0  0  0  0  0  0  0  0
   -5.5320   -1.4851    2.7208 N   0  0  0  0  0  0  0  0  0  0  0  0
   -5.9092   -1.3654    3.7900 N   0  0  0  0  0  0  0  0  0  0  0  0
   -5.9159   -1.0323    0.4101 C   0  0  0  0  0  0  0  0  0  0  0  0
   -5.3283   -0.7682   -0.7733 C   0  0  0  0  0  0  0  0  0  0  0  0
   -3.8335   -0.7855   -0.8623 C   0  0  2  0  0  0  0  0  0  0  0  0
   -3.2265   -1.8481   -0.0012 C   0  0  0  0  0  0  0  0  0  0  0  0
   -3.7932   -2.1238    1.1898 C   0  0  0  0  0  0  0  0  0  0  0  0
   -6.9804   -0.8958    0.5737 H   0  0  0  0  0  0  0  0  0  0  0  0
   -5.9057   -0.4344   -1.6260 H   0  0  0  0  0  0  0  0  0  0  0  0
   -3.4635   -0.7997   -1.8875 H   0  0  0  0  0  0  0  0  0  0  0  0
   -2.2775   -2.2856   -0.2888 H   0  0  0  0  0  0  0  0  0  0  0  0
   -3.3214   -2.7740    1.9201 H   0  0  0  0  0  0  0  0  0  0  0  0
   -3.9312    2.5807    0.2536 O   0  0  0  0  0  0  0  0  0  0  0  0
   -3.7066    1.7167   -0.5551 C   0  0  0  0  0  0  0  0  0  0  0  0
   -3.3054    0.4921   -0.2137 O   0  0  0  0  0  0  0  0  0  0  0  0
   -3.7747    2.0273   -2.0755 C   0  0  0  0  0  0  0  0  0  0  0  0
   -2.7550    1.4345   -2.7335 F   0  0  0  0  0  0  0  0  0  0  0  0
   -4.9268    1.5633   -2.6160 F   0  0  0  0  0  0  0  0  0  0  0  0
   -3.7145    3.3399   -2.2958 F   0  0  0  0  0  0  0  0  0  0  0  0
  1  2  1  1  0  0  0
  2  3  1  0  0  0  0
  4  9  1  0  0  0  0
  4  1  1  0  0  0  0
  5  4  2  0  0  0  0
  6 11  1  6  0  0  0
  6  5  1  0  0  0  0
  6 16  1  0  0  0  0
  6  7  1  0  0  0  0
  7  8  2  0  0  0  0
  8  1  1  0  0  0  0
  8 13  1  0  0  0  0
 10  5  1  0  0  0  0
 12  7  1  0  0  0  0
 15 16  1  0  0  0  0
 15 14  2  0  0  0  0
 17 15  1  0  0  0  0
 18 17  1  0  0  0  0
 19 17  1  0  0  0  0
 20 17  1  0  0  0  0
M  RAD  3   1   2   2   2   3   3
M  END
