Coordinates from ORCA-job PhN2+~CF3COO-_B3LYPG-6-31G_dp-NX-Scan-d89-09-n800
 OpenBabel11261920123D

 20 20  0  0  1  0  0  0  0  0999 V2000
   -5.0261   -1.4359    1.4347 C   0  0  1  0  0  0  0  0  0  0  0  0
   -5.5032   -1.1691    2.6284 N   0  0  0  0  0  0  0  0  0  0  0  0
   -5.9143   -0.9107    3.6600 N   0  0  0  0  0  0  0  0  0  0  0  0
   -5.9231   -1.4935    0.3020 C   0  0  0  0  0  0  0  0  0  0  0  0
   -5.4136   -1.4634   -0.9439 C   0  0  0  0  0  0  0  0  0  0  0  0
   -3.9576   -1.2319   -1.1827 C   0  0  2  0  0  0  0  0  0  0  0  0
   -3.0929   -1.5287   -0.0018 C   0  0  0  0  0  0  0  0  0  0  0  0
   -3.5976   -1.5582    1.2461 C   0  0  0  0  0  0  0  0  0  0  0  0
   -6.9906   -1.5797    0.4815 H   0  0  0  0  0  0  0  0  0  0  0  0
   -6.0632   -1.5448   -1.8092 H   0  0  0  0  0  0  0  0  0  0  0  0
   -3.6084   -1.7495   -2.0785 H   0  0  0  0  0  0  0  0  0  0  0  0
   -2.0289   -1.6583   -0.1716 H   0  0  0  0  0  0  0  0  0  0  0  0
   -2.9627   -1.6910    2.1166 H   0  0  0  0  0  0  0  0  0  0  0  0
   -4.4786    1.2119    0.2643 O   0  0  0  0  0  0  0  0  0  0  0  0
   -4.0235    1.2213   -0.8544 C   0  0  0  0  0  0  0  0  0  0  0  0
   -3.7253    0.2033   -1.6555 O   0  0  0  0  0  0  0  0  0  0  0  0
   -3.6784    2.5426   -1.5867 C   0  0  0  0  0  0  0  0  0  0  0  0
   -2.3621    2.5968   -1.8673 F   0  0  0  0  0  0  0  0  0  0  0  0
   -4.3579    2.6370   -2.7453 F   0  0  0  0  0  0  0  0  0  0  0  0
   -3.9920    3.5950   -0.8248 F   0  0  0  0  0  0  0  0  0  0  0  0
  1  2  1  6  0  0  0
  2  3  1  0  0  0  0
  4  9  1  0  0  0  0
  4  1  1  0  0  0  0
  5  4  2  0  0  0  0
  6 11  1  6  0  0  0
  6  5  1  0  0  0  0
  6  7  1  0  0  0  0
  7  8  2  0  0  0  0
  8  1  1  0  0  0  0
  8 13  1  0  0  0  0
 10  5  1  0  0  0  0
 12  7  1  0  0  0  0
 15 14  2  0  0  0  0
 16  6  1  0  0  0  0
 16 15  1  0  0  0  0
 17 15  1  0  0  0  0
 17 20  1  0  0  0  0
 18 17  1  0  0  0  0
 19 17  1  0  0  0  0
M  RAD  3   1   2   2   2   3   3
M  END
