Coordinates from ORCA-job PhN2+~CF3COO-_B3LYPG-6-31G_dp-NX-Scan-d89-09-n800
 OpenBabel11261920123D

 20 20  0  0  1  0  0  0  0  0999 V2000
   -5.1669   -1.7459    1.5519 C   0  0  0  0  0  0  0  0  0  0  0  0
   -5.6583   -2.0297    2.7369 N   0  0  0  0  0  0  0  0  0  0  0  0
   -6.0854   -2.2456    3.7725 N   0  0  0  0  0  0  0  0  0  0  0  0
   -6.0036   -1.0944    0.5671 C   0  0  0  0  0  0  0  0  0  0  0  0
   -5.4440   -0.6201   -0.5623 C   0  0  0  0  0  0  0  0  0  0  0  0
   -3.9580   -0.5818   -0.7241 C   0  0  2  0  0  0  0  0  0  0  0  0
   -3.2451   -1.6033    0.1013 C   0  0  0  0  0  0  0  0  0  0  0  0
   -3.7951   -2.0829    1.2330 C   0  0  0  0  0  0  0  0  0  0  0  0
   -7.0725   -1.0305    0.7467 H   0  0  0  0  0  0  0  0  0  0  0  0
   -6.0547   -0.1657   -1.3334 H   0  0  0  0  0  0  0  0  0  0  0  0
   -3.6451   -0.6065   -1.7671 H   0  0  0  0  0  0  0  0  0  0  0  0
   -2.2324   -1.8714   -0.1779 H   0  0  0  0  0  0  0  0  0  0  0  0
   -3.2486   -2.7432    1.8995 H   0  0  0  0  0  0  0  0  0  0  0  0
   -3.4820    2.9602   -0.1299 O   0  0  0  0  0  0  0  0  0  0  0  0
   -3.5397    1.9249   -0.7436 C   0  0  0  0  0  0  0  0  0  0  0  0
   -3.4744    0.7399   -0.1429 O   0  0  0  0  0  0  0  0  0  0  0  0
   -3.6274    1.9500   -2.2932 C   0  0  0  0  0  0  0  0  0  0  0  0
   -2.6441    1.1993   -2.8414 F   0  0  0  0  0  0  0  0  0  0  0  0
   -4.8093    1.4476   -2.7272 F   0  0  0  0  0  0  0  0  0  0  0  0
   -3.5132    3.1922   -2.7537 F   0  0  0  0  0  0  0  0  0  0  0  0
  1  2  1  0  0  0  0
  2  3  1  0  0  0  0
  4  9  1  0  0  0  0
  4  1  2  0  0  0  0
  5  4  1  0  0  0  0
  6 11  1  6  0  0  0
  6  5  1  0  0  0  0
  6 16  1  0  0  0  0
  6  7  1  0  0  0  0
  7  8  2  0  0  0  0
  8  1  1  0  0  0  0
  8 13  1  0  0  0  0
 10  5  1  0  0  0  0
 12  7  1  0  0  0  0
 15 16  1  0  0  0  0
 15 14  2  0  0  0  0
 17 15  1  0  0  0  0
 18 17  1  0  0  0  0
 19 17  1  0  0  0  0
 20 17  1  0  0  0  0
M  RAD  3   2   2   3   3   5   2
M  END
