Coordinates from ORCA-job PhN2+~CF3COO-_B3LYPG-6-31G_dp-NX-Scan-d89-09-n800
 OpenBabel11261920123D

 20 20  0  0  1  0  0  0  0  0999 V2000
   -5.0974   -1.4464    1.3976 C   0  0  0  0  0  0  0  0  0  0  0  0
   -5.6866   -1.3688    2.5709 N   0  0  0  0  0  0  0  0  0  0  0  0
   -6.1929   -1.2654    3.5870 N   0  0  0  0  0  0  0  0  0  0  0  0
   -5.7759   -0.9413    0.2246 C   0  0  0  0  0  0  0  0  0  0  0  0
   -5.0785   -0.7897   -0.9201 C   0  0  0  0  0  0  0  0  0  0  0  0
   -3.5902   -0.9226   -0.9196 C   0  0  2  0  0  0  0  0  0  0  0  0
   -3.0959   -1.8706    0.1254 C   0  0  0  0  0  0  0  0  0  0  0  0
   -3.7786   -2.0339    1.2752 C   0  0  0  0  0  0  0  0  0  0  0  0
   -6.8400   -0.7336    0.2790 H   0  0  0  0  0  0  0  0  0  0  0  0
   -5.5746   -0.4778   -1.8310 H   0  0  0  0  0  0  0  0  0  0  0  0
   -3.1877   -1.1307   -1.9104 H   0  0  0  0  0  0  0  0  0  0  0  0
   -2.1236   -2.3304   -0.0112 H   0  0  0  0  0  0  0  0  0  0  0  0
   -3.3838   -2.6165    2.1015 H   0  0  0  0  0  0  0  0  0  0  0  0
   -3.7049    2.3009    0.4095 O   0  0  0  0  0  0  0  0  0  0  0  0
   -3.5962    1.5645   -0.5378 C   0  0  0  0  0  0  0  0  0  0  0  0
   -2.9313    0.4069   -0.5102 O   0  0  0  0  0  0  0  0  0  0  0  0
   -4.1395    2.0429   -1.9122 C   0  0  0  0  0  0  0  0  0  0  0  0
   -3.9032    1.1583   -2.9072 F   0  0  0  0  0  0  0  0  0  0  0  0
   -5.4681    2.2469   -1.8532 F   0  0  0  0  0  0  0  0  0  0  0  0
   -3.5508    3.2005   -2.2457 F   0  0  0  0  0  0  0  0  0  0  0  0
  1  2  1  0  0  0  0
  2  3  1  0  0  0  0
  4  9  1  0  0  0  0
  4  1  2  0  0  0  0
  5  6  1  0  0  0  0
  5  4  1  0  0  0  0
  6 11  1  6  0  0  0
  6 16  1  0  0  0  0
  6  7  1  0  0  0  0
  7  8  2  0  0  0  0
  8  1  1  0  0  0  0
  8 13  1  0  0  0  0
 10  5  1  0  0  0  0
 12  7  1  0  0  0  0
 15 16  1  0  0  0  0
 15 14  2  0  0  0  0
 17 19  1  0  0  0  0
 17 15  1  0  0  0  0
 18 17  1  0  0  0  0
 20 17  1  0  0  0  0
M  RAD  3   2   2   3   3   5   2
M  END
