Coordinates from ORCA-job PhN2+~CF3COO-_B3LYPG-6-31G_dp-NX-Scan-d89-09-n800
 OpenBabel11261920123D

 20 20  0  0  1  0  0  0  0  0999 V2000
   -5.0037   -1.5307    1.3785 C   0  0  1  0  0  0  0  0  0  0  0  0
   -5.2871   -0.4762    2.1458 N   0  0  0  0  0  0  0  0  0  0  0  0
   -5.3944    0.5981    2.4787 N   0  0  0  0  0  0  0  0  0  0  0  0
   -5.9082   -1.6883    0.2458 C   0  0  0  0  0  0  0  0  0  0  0  0
   -5.3917   -1.6819   -0.9988 C   0  0  0  0  0  0  0  0  0  0  0  0
   -3.9573   -1.3264   -1.1977 C   0  0  2  0  0  0  0  0  0  0  0  0
   -3.0808   -1.7414   -0.0649 C   0  0  0  0  0  0  0  0  0  0  0  0
   -3.5743   -1.7471    1.1890 C   0  0  0  0  0  0  0  0  0  0  0  0
   -6.9748   -1.7916    0.4269 H   0  0  0  0  0  0  0  0  0  0  0  0
   -6.0125   -1.8614   -1.8708 H   0  0  0  0  0  0  0  0  0  0  0  0
   -3.5769   -1.6642   -2.1608 H   0  0  0  0  0  0  0  0  0  0  0  0
   -2.0378   -1.9646   -0.2649 H   0  0  0  0  0  0  0  0  0  0  0  0
   -2.9381   -1.8930    2.0578 H   0  0  0  0  0  0  0  0  0  0  0  0
   -4.6066    1.0730    0.5447 O   0  0  0  0  0  0  0  0  0  0  0  0
   -4.1420    1.1455   -0.5766 C   0  0  0  0  0  0  0  0  0  0  0  0
   -3.8143    0.2019   -1.4484 O   0  0  0  0  0  0  0  0  0  0  0  0
   -3.8245    2.5222   -1.2196 C   0  0  0  0  0  0  0  0  0  0  0  0
   -2.5081    2.6263   -1.4845 F   0  0  0  0  0  0  0  0  0  0  0  0
   -4.4986    2.6771   -2.3744 F   0  0  0  0  0  0  0  0  0  0  0  0
   -4.1681    3.5159   -0.3937 F   0  0  0  0  0  0  0  0  0  0  0  0
  1  2  1  6  0  0  0
  2  3  1  0  0  0  0
  4  9  1  0  0  0  0
  4  1  1  0  0  0  0
  5  4  2  0  0  0  0
  6 11  1  6  0  0  0
  6  5  1  0  0  0  0
  6  7  1  0  0  0  0
  7  8  2  0  0  0  0
  8  1  1  0  0  0  0
  8 13  1  0  0  0  0
 10  5  1  0  0  0  0
 12  7  1  0  0  0  0
 15 14  2  0  0  0  0
 16  6  1  0  0  0  0
 16 15  1  0  0  0  0
 17 15  1  0  0  0  0
 17 20  1  0  0  0  0
 18 17  1  0  0  0  0
 19 17  1  0  0  0  0
M  RAD  3   1   2   2   2   3   3
M  END
