Coordinates from ORCA-job PhN2+~CF3COO-_B3LYPG-6-31G_dp-NX-Scan-d89-09-n800
 OpenBabel11261920123D

 20 20  0  0  1  0  0  0  0  0999 V2000
   -5.0015   -1.5118    1.3722 C   0  0  1  0  0  0  0  0  0  0  0  0
   -5.2986   -0.4973    2.1721 N   0  0  0  0  0  0  0  0  0  0  0  0
   -5.4583    0.5227    2.6335 N   0  0  0  0  0  0  0  0  0  0  0  0
   -5.9068   -1.6718    0.2401 C   0  0  0  0  0  0  0  0  0  0  0  0
   -5.3906   -1.6685   -1.0034 C   0  0  0  0  0  0  0  0  0  0  0  0
   -3.9530   -1.3214   -1.2045 C   0  0  2  0  0  0  0  0  0  0  0  0
   -3.0777   -1.7302   -0.0669 C   0  0  0  0  0  0  0  0  0  0  0  0
   -3.5721   -1.7333    1.1854 C   0  0  0  0  0  0  0  0  0  0  0  0
   -6.9733   -1.7731    0.4226 H   0  0  0  0  0  0  0  0  0  0  0  0
   -6.0128   -1.8421   -1.8754 H   0  0  0  0  0  0  0  0  0  0  0  0
   -3.5744   -1.6749   -2.1630 H   0  0  0  0  0  0  0  0  0  0  0  0
   -2.0333   -1.9495   -0.2645 H   0  0  0  0  0  0  0  0  0  0  0  0
   -2.9384   -1.8792    2.0559 H   0  0  0  0  0  0  0  0  0  0  0  0
   -4.5947    1.0694    0.5265 O   0  0  0  0  0  0  0  0  0  0  0  0
   -4.1330    1.1415   -0.5932 C   0  0  0  0  0  0  0  0  0  0  0  0
   -3.8052    0.1961   -1.4665 O   0  0  0  0  0  0  0  0  0  0  0  0
   -3.8180    2.5163   -1.2402 C   0  0  0  0  0  0  0  0  0  0  0  0
   -2.5025    2.6206   -1.5095 F   0  0  0  0  0  0  0  0  0  0  0  0
   -4.4957    2.6681   -2.3936 F   0  0  0  0  0  0  0  0  0  0  0  0
   -4.1598    3.5114   -0.4157 F   0  0  0  0  0  0  0  0  0  0  0  0
  1  2  1  6  0  0  0
  2  3  1  0  0  0  0
  4  9  1  0  0  0  0
  4  1  1  0  0  0  0
  5  4  2  0  0  0  0
  6 11  1  6  0  0  0
  6  5  1  0  0  0  0
  6  7  1  0  0  0  0
  7  8  2  0  0  0  0
  8  1  1  0  0  0  0
  8 13  1  0  0  0  0
 10  5  1  0  0  0  0
 12  7  1  0  0  0  0
 15 14  2  0  0  0  0
 16  6  1  0  0  0  0
 16 15  1  0  0  0  0
 17 15  1  0  0  0  0
 17 20  1  0  0  0  0
 18 17  1  0  0  0  0
 19 17  1  0  0  0  0
M  RAD  3   1   2   2   2   3   3
M  END
