Coordinates from ORCA-job PhN2+~CF3COO-_B3LYPG-6-31G_dp-NX-Scan-d89-09-n800
 OpenBabel11261920123D

 20 20  0  0  1  0  0  0  0  0999 V2000
   -5.1049   -1.5814    1.4907 C   0  0  1  0  0  0  0  0  0  0  0  0
   -5.5407   -1.5345    2.7293 N   0  0  0  0  0  0  0  0  0  0  0  0
   -5.9199   -1.4436    3.8005 N   0  0  0  0  0  0  0  0  0  0  0  0
   -5.9270   -1.0386    0.4283 C   0  0  0  0  0  0  0  0  0  0  0  0
   -5.3450   -0.7536   -0.7527 C   0  0  0  0  0  0  0  0  0  0  0  0
   -3.8508   -0.7646   -0.8507 C   0  0  2  0  0  0  0  0  0  0  0  0
   -3.2316   -1.8274    0.0009 C   0  0  0  0  0  0  0  0  0  0  0  0
   -3.7938   -2.1230    1.1890 C   0  0  0  0  0  0  0  0  0  0  0  0
   -6.9917   -0.9093    0.5969 H   0  0  0  0  0  0  0  0  0  0  0  0
   -5.9274   -0.4075   -1.5971 H   0  0  0  0  0  0  0  0  0  0  0  0
   -3.4872   -0.7736   -1.8782 H   0  0  0  0  0  0  0  0  0  0  0  0
   -2.2776   -2.2507   -0.2913 H   0  0  0  0  0  0  0  0  0  0  0  0
   -3.3136   -2.7766    1.9108 H   0  0  0  0  0  0  0  0  0  0  0  0
   -3.8976    2.6264    0.2194 O   0  0  0  0  0  0  0  0  0  0  0  0
   -3.6946    1.7399   -0.5704 C   0  0  0  0  0  0  0  0  0  0  0  0
   -3.3292    0.5133   -0.1998 O   0  0  0  0  0  0  0  0  0  0  0  0
   -3.7520    2.0186   -2.0972 C   0  0  0  0  0  0  0  0  0  0  0  0
   -2.7139    1.4302   -2.7303 F   0  0  0  0  0  0  0  0  0  0  0  0
   -4.8891    1.5225   -2.6418 F   0  0  0  0  0  0  0  0  0  0  0  0
   -3.7123    3.3268   -2.3443 F   0  0  0  0  0  0  0  0  0  0  0  0
  1  2  1  1  0  0  0
  2  3  1  0  0  0  0
  4  9  1  0  0  0  0
  4  1  1  0  0  0  0
  5  4  2  0  0  0  0
  6 11  1  6  0  0  0
  6  5  1  0  0  0  0
  6 16  1  0  0  0  0
  6  7  1  0  0  0  0
  7  8  2  0  0  0  0
  8  1  1  0  0  0  0
  8 13  1  0  0  0  0
 10  5  1  0  0  0  0
 12  7  1  0  0  0  0
 15 16  1  0  0  0  0
 15 14  2  0  0  0  0
 17 15  1  0  0  0  0
 18 17  1  0  0  0  0
 19 17  1  0  0  0  0
 20 17  1  0  0  0  0
M  RAD  3   1   2   2   2   3   3
M  END
