Coordinates from ORCA-job PhN2+~CF3COO-_B3LYPG-6-31G_dp-NX-Scan-d89-09-n800
 OpenBabel11261920123D

 20 20  0  0  1  0  0  0  0  0999 V2000
   -5.2711   -2.0614    1.4998 C   0  0  0  0  0  0  0  0  0  0  0  0
   -5.8419   -3.0542    2.1577 N   0  0  0  0  0  0  0  0  0  0  0  0
   -6.3378   -3.9263    2.7198 N   0  0  0  0  0  0  0  0  0  0  0  0
   -6.0665   -1.0504    0.8207 C   0  0  0  0  0  0  0  0  0  0  0  0
   -5.4886   -0.1252    0.0260 C   0  0  0  0  0  0  0  0  0  0  0  0
   -4.0194   -0.1200   -0.2941 C   0  0  2  0  0  0  0  0  0  0  0  0
   -3.2439   -1.0148    0.6320 C   0  0  0  0  0  0  0  0  0  0  0  0
   -3.8233   -1.9418    1.4228 C   0  0  0  0  0  0  0  0  0  0  0  0
   -7.1426   -1.0517    0.9670 H   0  0  0  0  0  0  0  0  0  0  0  0
   -6.1030    0.6161   -0.4725 H   0  0  0  0  0  0  0  0  0  0  0  0
   -3.8470   -0.4245   -1.3302 H   0  0  0  0  0  0  0  0  0  0  0  0
   -2.1619   -0.9352    0.5949 H   0  0  0  0  0  0  0  0  0  0  0  0
   -3.2129   -2.6117    2.0205 H   0  0  0  0  0  0  0  0  0  0  0  0
   -2.5467    3.1197   -1.1088 O   0  0  0  0  0  0  0  0  0  0  0  0
   -3.1530    2.0798   -1.2176 C   0  0  0  0  0  0  0  0  0  0  0  0
   -3.4418    1.2719   -0.1801 O   0  0  0  0  0  0  0  0  0  0  0  0
   -3.6390    1.6585   -2.6340 C   0  0  0  0  0  0  0  0  0  0  0  0
   -2.9444    0.5846   -3.0798 F   0  0  0  0  0  0  0  0  0  0  0  0
   -4.9512    1.3280   -2.6325 F   0  0  0  0  0  0  0  0  0  0  0  0
   -3.4639    2.6519   -3.4997 F   0  0  0  0  0  0  0  0  0  0  0  0
  1  2  1  0  0  0  0
  2  3  1  0  0  0  0
  4  9  1  0  0  0  0
  4  1  2  0  0  0  0
  5  4  1  0  0  0  0
  6 11  1  6  0  0  0
  6 16  1  0  0  0  0
  6  5  1  0  0  0  0
  6  7  1  0  0  0  0
  7  8  2  0  0  0  0
  8  1  1  0  0  0  0
  8 13  1  0  0  0  0
 10  5  1  0  0  0  0
 12  7  1  0  0  0  0
 15 14  2  0  0  0  0
 15 16  1  0  0  0  0
 17 19  1  0  0  0  0
 17 15  1  0  0  0  0
 18 17  1  0  0  0  0
 20 17  1  0  0  0  0
M  RAD  3   2   2   3   3   5   2
M  END
