Coordinates from ORCA-job PhN2+~CF3COO-_B3LYPG-6-31G_dp-NX-Scan-d89-09-n800
 OpenBabel11261920123D

 20 20  0  0  1  0  0  0  0  0999 V2000
   -5.0236   -1.4355    1.4291 C   0  0  1  0  0  0  0  0  0  0  0  0
   -5.4970   -1.1381    2.6170 N   0  0  0  0  0  0  0  0  0  0  0  0
   -5.9042   -0.8510    3.6424 N   0  0  0  0  0  0  0  0  0  0  0  0
   -5.9213   -1.4979    0.2971 C   0  0  0  0  0  0  0  0  0  0  0  0
   -5.4114   -1.4722   -0.9489 C   0  0  0  0  0  0  0  0  0  0  0  0
   -3.9558   -1.2372   -1.1862 C   0  0  2  0  0  0  0  0  0  0  0  0
   -3.0911   -1.5401   -0.0069 C   0  0  0  0  0  0  0  0  0  0  0  0
   -3.5956   -1.5654    1.2412 C   0  0  0  0  0  0  0  0  0  0  0  0
   -6.9888   -1.5823    0.4773 H   0  0  0  0  0  0  0  0  0  0  0  0
   -6.0603   -1.5576   -1.8143 H   0  0  0  0  0  0  0  0  0  0  0  0
   -3.6057   -1.7481   -2.0854 H   0  0  0  0  0  0  0  0  0  0  0  0
   -2.0280   -1.6757   -0.1776 H   0  0  0  0  0  0  0  0  0  0  0  0
   -2.9613   -1.6983    2.1122 H   0  0  0  0  0  0  0  0  0  0  0  0
   -4.4847    1.2034    0.2727 O   0  0  0  0  0  0  0  0  0  0  0  0
   -4.0256    1.2167   -0.8444 C   0  0  0  0  0  0  0  0  0  0  0  0
   -3.7256    0.2025   -1.6496 O   0  0  0  0  0  0  0  0  0  0  0  0
   -3.6849    2.5414   -1.5726 C   0  0  0  0  0  0  0  0  0  0  0  0
   -2.3683    2.6018   -1.8508 F   0  0  0  0  0  0  0  0  0  0  0  0
   -4.3628    2.6363   -2.7320 F   0  0  0  0  0  0  0  0  0  0  0  0
   -4.0040    3.5905   -0.8083 F   0  0  0  0  0  0  0  0  0  0  0  0
  1  2  1  6  0  0  0
  2  3  1  0  0  0  0
  4  9  1  0  0  0  0
  4  1  1  0  0  0  0
  5  4  2  0  0  0  0
  6 11  1  6  0  0  0
  6  5  1  0  0  0  0
  6  7  1  0  0  0  0
  7  8  2  0  0  0  0
  8  1  1  0  0  0  0
  8 13  1  0  0  0  0
 10  5  1  0  0  0  0
 12  7  1  0  0  0  0
 15 14  2  0  0  0  0
 16  6  1  0  0  0  0
 16 15  1  0  0  0  0
 17 15  1  0  0  0  0
 17 20  1  0  0  0  0
 18 17  1  0  0  0  0
 19 17  1  0  0  0  0
M  RAD  3   1   2   2   2   3   3
M  END
