Coordinates from ORCA-job PhN2+~CF3COO-_B3LYPG-6-31G_dp-NX-Scan-d89-09-n800
 OpenBabel11261920123D

 20 20  0  0  1  0  0  0  0  0999 V2000
   -5.0971   -1.4446    1.3971 C   0  0  0  0  0  0  0  0  0  0  0  0
   -5.6867   -1.3662    2.5701 N   0  0  0  0  0  0  0  0  0  0  0  0
   -6.1931   -1.2623    3.5860 N   0  0  0  0  0  0  0  0  0  0  0  0
   -5.7752   -0.9409    0.2234 C   0  0  0  0  0  0  0  0  0  0  0  0
   -5.0776   -0.7911   -0.9214 C   0  0  0  0  0  0  0  0  0  0  0  0
   -3.5895   -0.9247   -0.9210 C   0  0  2  0  0  0  0  0  0  0  0  0
   -3.0954   -1.8705    0.1259 C   0  0  0  0  0  0  0  0  0  0  0  0
   -3.7782   -2.0321    1.2758 C   0  0  0  0  0  0  0  0  0  0  0  0
   -6.8393   -0.7329    0.2772 H   0  0  0  0  0  0  0  0  0  0  0  0
   -5.5736   -0.4803   -1.8328 H   0  0  0  0  0  0  0  0  0  0  0  0
   -3.1871   -1.1348   -1.9113 H   0  0  0  0  0  0  0  0  0  0  0  0
   -2.1230   -2.3306   -0.0097 H   0  0  0  0  0  0  0  0  0  0  0  0
   -3.3835   -2.6134    2.1031 H   0  0  0  0  0  0  0  0  0  0  0  0
   -3.7073    2.2940    0.4126 O   0  0  0  0  0  0  0  0  0  0  0  0
   -3.5967    1.5617   -0.5376 C   0  0  0  0  0  0  0  0  0  0  0  0
   -2.9291    0.4055   -0.5157 O   0  0  0  0  0  0  0  0  0  0  0  0
   -4.1408    2.0439   -1.9105 C   0  0  0  0  0  0  0  0  0  0  0  0
   -3.9071    1.1610   -2.9075 F   0  0  0  0  0  0  0  0  0  0  0  0
   -5.4690    2.2500   -1.8495 F   0  0  0  0  0  0  0  0  0  0  0  0
   -3.5505    3.2012   -2.2422 F   0  0  0  0  0  0  0  0  0  0  0  0
  1  2  1  0  0  0  0
  2  3  1  0  0  0  0
  4  9  1  0  0  0  0
  4  1  2  0  0  0  0
  5  6  1  0  0  0  0
  5  4  1  0  0  0  0
  6 11  1  6  0  0  0
  6 16  1  0  0  0  0
  6  7  1  0  0  0  0
  7  8  2  0  0  0  0
  8  1  1  0  0  0  0
  8 13  1  0  0  0  0
 10  5  1  0  0  0  0
 12  7  1  0  0  0  0
 15 16  1  0  0  0  0
 15 14  2  0  0  0  0
 17 19  1  0  0  0  0
 17 15  1  0  0  0  0
 18 17  1  0  0  0  0
 20 17  1  0  0  0  0
M  RAD  3   2   2   3   3   5   2
M  END
