Coordinates from ORCA-job PhN2+~CF3COO-_B3LYPG-6-31G_dp-NX-Scan-d89-09-n800
 OpenBabel11261920123D

 20 20  0  0  0  0  0  0  0  0999 V2000
   -3.8257   -1.1035    0.2168 C   0  0  0  0  0  0  0  0  0  0  0  0
   -3.4537    0.1384    0.8153 N   0  0  0  0  0  0  0  0  0  0  0  0
   -3.9391    1.2590    0.4801 N   0  0  0  0  0  0  0  0  0  0  0  0
   -4.6786   -1.3799   -0.8765 C   0  0  0  0  0  0  0  0  0  0  0  0
   -4.8705   -2.6991   -1.2884 C   0  0  0  0  0  0  0  0  0  0  0  0
   -4.2376   -3.7578   -0.6358 C   0  0  0  0  0  0  0  0  0  0  0  0
   -3.3927   -3.4954    0.4453 C   0  0  0  0  0  0  0  0  0  0  0  0
   -3.1893   -2.1845    0.8595 C   0  0  0  0  0  0  0  0  0  0  0  0
   -5.1885   -0.5927   -1.4098 H   0  0  0  0  0  0  0  0  0  0  0  0
   -5.5254   -2.8972   -2.1322 H   0  0  0  0  0  0  0  0  0  0  0  0
   -4.4007   -4.7786   -0.9687 H   0  0  0  0  0  0  0  0  0  0  0  0
   -2.8929   -4.3097    0.9607 H   0  0  0  0  0  0  0  0  0  0  0  0
   -2.5342   -1.9523    1.6928 H   0  0  0  0  0  0  0  0  0  0  0  0
   -4.7167    1.2999   -0.3392 O   0  0  0  0  0  0  0  0  0  0  0  0
   -5.2623    2.5523   -0.7104 C   0  0  0  0  0  0  0  0  0  0  0  0
   -6.0780    2.5850   -1.5742 O   0  0  0  0  0  0  0  0  0  0  0  0
   -4.7333    3.7949    0.0609 C   0  0  0  0  0  0  0  0  0  0  0  0
   -3.4184    3.9494   -0.1271 F   0  0  0  0  0  0  0  0  0  0  0  0
   -5.3636    4.8678   -0.4246 F   0  0  0  0  0  0  0  0  0  0  0  0
   -4.9987    3.6969    1.3676 F   0  0  0  0  0  0  0  0  0  0  0  0
  1  2  1  0  0  0  0
  1  8  2  0  0  0  0
  3  2  2  0  0  0  0
  4  1  1  0  0  0  0
  5  4  2  0  0  0  0
  5  6  1  0  0  0  0
  6  7  2  0  0  0  0
  7  8  1  0  0  0  0
  7 12  1  0  0  0  0
  8 13  1  0  0  0  0
  9  4  1  0  0  0  0
 10  5  1  0  0  0  0
 11  6  1  0  0  0  0
 14  3  1  0  0  0  0
 15 14  1  0  0  0  0
 15 17  1  0  0  0  0
 16 15  2  0  0  0  0
 17 20  1  0  0  0  0
 18 17  1  0  0  0  0
 19 17  1  0  0  0  0
M  END
