Coordinates from ORCA-job PhN2+~CF3COO-_B3LYPG-6-31G_dp-NX-Scan-d89-09-n800
 OpenBabel11261920123D

 20 20  0  0  1  0  0  0  0  0999 V2000
   -5.1747   -1.7663    1.5582 C   0  0  0  0  0  0  0  0  0  0  0  0
   -5.6731   -2.0969    2.7281 N   0  0  0  0  0  0  0  0  0  0  0  0
   -6.1061   -2.3565    3.7513 N   0  0  0  0  0  0  0  0  0  0  0  0
   -6.0119   -1.0976    0.5856 C   0  0  0  0  0  0  0  0  0  0  0  0
   -5.4543   -0.5980   -0.5338 C   0  0  0  0  0  0  0  0  0  0  0  0
   -3.9697   -0.5571   -0.7049 C   0  0  2  0  0  0  0  0  0  0  0  0
   -3.2467   -1.5710    0.1207 C   0  0  0  0  0  0  0  0  0  0  0  0
   -3.7961   -2.0755    1.2417 C   0  0  0  0  0  0  0  0  0  0  0  0
   -7.0811   -1.0405    0.7655 H   0  0  0  0  0  0  0  0  0  0  0  0
   -6.0679   -0.1282   -1.2935 H   0  0  0  0  0  0  0  0  0  0  0  0
   -3.6646   -0.5904   -1.7500 H   0  0  0  0  0  0  0  0  0  0  0  0
   -2.2271   -1.8181   -0.1532 H   0  0  0  0  0  0  0  0  0  0  0  0
   -3.2422   -2.7362    1.9017 H   0  0  0  0  0  0  0  0  0  0  0  0
   -3.4243    2.9906   -0.1795 O   0  0  0  0  0  0  0  0  0  0  0  0
   -3.5169    1.9440   -0.7693 C   0  0  0  0  0  0  0  0  0  0  0  0
   -3.4867    0.7717   -0.1412 O   0  0  0  0  0  0  0  0  0  0  0  0
   -3.6155    1.9392   -2.3184 C   0  0  0  0  0  0  0  0  0  0  0  0
   -2.6436    1.1680   -2.8586 F   0  0  0  0  0  0  0  0  0  0  0  0
   -4.8057    1.4411   -2.7344 F   0  0  0  0  0  0  0  0  0  0  0  0
   -3.4917    3.1709   -2.8039 F   0  0  0  0  0  0  0  0  0  0  0  0
  1  2  1  0  0  0  0
  2  3  1  0  0  0  0
  4  9  1  0  0  0  0
  4  1  2  0  0  0  0
  5  4  1  0  0  0  0
  6 11  1  6  0  0  0
  6  5  1  0  0  0  0
  6 16  1  0  0  0  0
  6  7  1  0  0  0  0
  7  8  2  0  0  0  0
  8  1  1  0  0  0  0
  8 13  1  0  0  0  0
 10  5  1  0  0  0  0
 12  7  1  0  0  0  0
 15 14  2  0  0  0  0
 15 16  1  0  0  0  0
 17 15  1  0  0  0  0
 18 17  1  0  0  0  0
 19 17  1  0  0  0  0
 20 17  1  0  0  0  0
M  RAD  3   2   2   3   3   5   2
M  END
