Coordinates from ORCA-job PhN2+~CF3COO-_B3LYPG-6-31G_dp-NX-Scan-d89-09-n800
 OpenBabel11261920123D

 20 20  0  0  1  0  0  0  0  0999 V2000
   -4.9898   -1.5370    1.3838 C   0  0  1  0  0  0  0  0  0  0  0  0
   -5.2707   -0.4669    2.1456 N   0  0  0  0  0  0  0  0  0  0  0  0
   -5.3641    0.6318    2.3924 N   0  0  0  0  0  0  0  0  0  0  0  0
   -5.9022   -1.7004    0.2612 C   0  0  0  0  0  0  0  0  0  0  0  0
   -5.3965   -1.7023   -0.9895 C   0  0  0  0  0  0  0  0  0  0  0  0
   -3.9690   -1.3384   -1.1993 C   0  0  2  0  0  0  0  0  0  0  0  0
   -3.0811   -1.7458   -0.0763 C   0  0  0  0  0  0  0  0  0  0  0  0
   -3.5629   -1.7416    1.1841 C   0  0  0  0  0  0  0  0  0  0  0  0
   -6.9672   -1.8042    0.4515 H   0  0  0  0  0  0  0  0  0  0  0  0
   -6.0235   -1.8943   -1.8543 H   0  0  0  0  0  0  0  0  0  0  0  0
   -3.5923   -1.6596   -2.1691 H   0  0  0  0  0  0  0  0  0  0  0  0
   -2.0391   -1.9658   -0.2844 H   0  0  0  0  0  0  0  0  0  0  0  0
   -2.9163   -1.8722    2.0478 H   0  0  0  0  0  0  0  0  0  0  0  0
   -4.7134    1.0796    0.5100 O   0  0  0  0  0  0  0  0  0  0  0  0
   -4.1853    1.1485   -0.5863 C   0  0  0  0  0  0  0  0  0  0  0  0
   -3.8277    0.2064   -1.4422 O   0  0  0  0  0  0  0  0  0  0  0  0
   -3.8118    2.5257   -1.1989 C   0  0  0  0  0  0  0  0  0  0  0  0
   -2.4837    2.6054   -1.4068 F   0  0  0  0  0  0  0  0  0  0  0  0
   -4.4331    2.7058   -2.3797 F   0  0  0  0  0  0  0  0  0  0  0  0
   -4.1704    3.5184   -0.3779 F   0  0  0  0  0  0  0  0  0  0  0  0
  1  2  1  6  0  0  0
  2  3  1  0  0  0  0
  4  9  1  0  0  0  0
  4  1  1  0  0  0  0
  5  4  2  0  0  0  0
  6 11  1  6  0  0  0
  6  5  1  0  0  0  0
  6  7  1  0  0  0  0
  7  8  2  0  0  0  0
  8  1  1  0  0  0  0
  8 13  1  0  0  0  0
 10  5  1  0  0  0  0
 12  7  1  0  0  0  0
 15 14  2  0  0  0  0
 16  6  1  0  0  0  0
 16 15  1  0  0  0  0
 17 15  1  0  0  0  0
 17 20  1  0  0  0  0
 18 17  1  0  0  0  0
 19 17  1  0  0  0  0
M  RAD  3   1   2   2   2   3   3
M  END
