Coordinates from ORCA-job PhN2+~CF3COO-_B3LYPG-6-31G_dp-NX-Scan-d89-09-n800
 OpenBabel11261920123D

 20 20  0  0  1  0  0  0  0  0999 V2000
   -5.0006   -1.4465    1.3708 C   0  0  1  0  0  0  0  0  0  0  0  0
   -5.4013   -0.7437    2.4063 N   0  0  0  0  0  0  0  0  0  0  0  0
   -5.7269   -0.0678    3.2602 N   0  0  0  0  0  0  0  0  0  0  0  0
   -5.9051   -1.5777    0.2452 C   0  0  0  0  0  0  0  0  0  0  0  0
   -5.3923   -1.5930   -0.9998 C   0  0  0  0  0  0  0  0  0  0  0  0
   -3.9457   -1.2993   -1.2194 C   0  0  2  0  0  0  0  0  0  0  0  0
   -3.0761   -1.6559   -0.0603 C   0  0  0  0  0  0  0  0  0  0  0  0
   -3.5749   -1.6397    1.1903 C   0  0  0  0  0  0  0  0  0  0  0  0
   -6.9721   -1.6596    0.4314 H   0  0  0  0  0  0  0  0  0  0  0  0
   -6.0283   -1.7376   -1.8668 H   0  0  0  0  0  0  0  0  0  0  0  0
   -3.5781   -1.7231   -2.1541 H   0  0  0  0  0  0  0  0  0  0  0  0
   -2.0237   -1.8471   -0.2427 H   0  0  0  0  0  0  0  0  0  0  0  0
   -2.9439   -1.7663    2.0650 H   0  0  0  0  0  0  0  0  0  0  0  0
   -4.5399    1.0936    0.4051 O   0  0  0  0  0  0  0  0  0  0  0  0
   -4.0817    1.1549   -0.7134 C   0  0  0  0  0  0  0  0  0  0  0  0
   -3.7629    0.1900   -1.5685 O   0  0  0  0  0  0  0  0  0  0  0  0
   -3.7618    2.5178   -1.3801 C   0  0  0  0  0  0  0  0  0  0  0  0
   -2.4464    2.6121   -1.6542 F   0  0  0  0  0  0  0  0  0  0  0  0
   -4.4413    2.6562   -2.5342 F   0  0  0  0  0  0  0  0  0  0  0  0
   -4.0972    3.5257   -0.5688 F   0  0  0  0  0  0  0  0  0  0  0  0
  1  2  1  6  0  0  0
  2  3  1  0  0  0  0
  4  9  1  0  0  0  0
  4  1  1  0  0  0  0
  5  4  2  0  0  0  0
  6 11  1  6  0  0  0
  6  5  1  0  0  0  0
  6  7  1  0  0  0  0
  7  8  2  0  0  0  0
  8  1  1  0  0  0  0
  8 13  1  0  0  0  0
 10  5  1  0  0  0  0
 12  7  1  0  0  0  0
 15 14  2  0  0  0  0
 16  6  1  0  0  0  0
 16 15  1  0  0  0  0
 17 15  1  0  0  0  0
 17 20  1  0  0  0  0
 18 17  1  0  0  0  0
 19 17  1  0  0  0  0
M  RAD  3   1   2   2   2   3   3
M  END
