Coordinates from ORCA-job PhN2+~CF3COO-_B3LYPG-6-31G_dp-NX-Scan-d89-09-n800
 OpenBabel11261920123D

 20 20  0  0  1  0  0  0  0  0999 V2000
   -4.9985   -1.4834    1.3645 C   0  0  1  0  0  0  0  0  0  0  0  0
   -5.3316   -0.5614    2.2471 N   0  0  0  0  0  0  0  0  0  0  0  0
   -5.5648    0.3459    2.8843 N   0  0  0  0  0  0  0  0  0  0  0  0
   -5.9043   -1.6378    0.2357 C   0  0  0  0  0  0  0  0  0  0  0  0
   -5.3889   -1.6469   -1.0079 C   0  0  0  0  0  0  0  0  0  0  0  0
   -3.9480   -1.3181   -1.2149 C   0  0  2  0  0  0  0  0  0  0  0  0
   -3.0748   -1.7094   -0.0695 C   0  0  0  0  0  0  0  0  0  0  0  0
   -3.5708   -1.7000    1.1819 C   0  0  0  0  0  0  0  0  0  0  0  0
   -6.9710   -1.7293    0.4204 H   0  0  0  0  0  0  0  0  0  0  0  0
   -6.0157   -1.8123   -1.8782 H   0  0  0  0  0  0  0  0  0  0  0  0
   -3.5724   -1.6942   -2.1661 H   0  0  0  0  0  0  0  0  0  0  0  0
   -2.0280   -1.9211   -0.2615 H   0  0  0  0  0  0  0  0  0  0  0  0
   -2.9391   -1.8366    2.0550 H   0  0  0  0  0  0  0  0  0  0  0  0
   -4.5738    1.0688    0.4877 O   0  0  0  0  0  0  0  0  0  0  0  0
   -4.1155    1.1395   -0.6316 C   0  0  0  0  0  0  0  0  0  0  0  0
   -3.7899    0.1908   -1.5024 O   0  0  0  0  0  0  0  0  0  0  0  0
   -3.8019    2.5123   -1.2825 C   0  0  0  0  0  0  0  0  0  0  0  0
   -2.4871    2.6155   -1.5561 F   0  0  0  0  0  0  0  0  0  0  0  0
   -4.4828    2.6615   -2.4344 F   0  0  0  0  0  0  0  0  0  0  0  0
   -4.1410    3.5093   -0.4594 F   0  0  0  0  0  0  0  0  0  0  0  0
  1  2  1  6  0  0  0
  2  3  1  0  0  0  0
  4  9  1  0  0  0  0
  4  1  1  0  0  0  0
  5  4  2  0  0  0  0
  6 11  1  6  0  0  0
  6  5  1  0  0  0  0
  6  7  1  0  0  0  0
  7  8  2  0  0  0  0
  8  1  1  0  0  0  0
  8 13  1  0  0  0  0
 10  5  1  0  0  0  0
 12  7  1  0  0  0  0
 15 14  2  0  0  0  0
 16  6  1  0  0  0  0
 16 15  1  0  0  0  0
 17 15  1  0  0  0  0
 17 20  1  0  0  0  0
 18 17  1  0  0  0  0
 19 17  1  0  0  0  0
M  RAD  3   1   2   2   2   3   3
M  END
