Coordinates from ORCA-job PhN2+~CF3COO-_B3LYPG-6-31G_dp-NX-Scan-d89-09-n800
 OpenBabel11261920123D

 20 20  0  0  0  0  0  0  0  0999 V2000
   -3.8182   -1.1652    0.2543 C   0  0  0  0  0  0  0  0  0  0  0  0
   -3.5162    0.0932    0.8128 N   0  0  0  0  0  0  0  0  0  0  0  0
   -3.8299    1.2298    0.6459 N   0  0  0  0  0  0  0  0  0  0  0  0
   -4.6882   -1.4037   -0.8283 C   0  0  0  0  0  0  0  0  0  0  0  0
   -4.8699   -2.7157   -1.2578 C   0  0  0  0  0  0  0  0  0  0  0  0
   -4.2082   -3.7754   -0.6305 C   0  0  0  0  0  0  0  0  0  0  0  0
   -3.3473   -3.5326    0.4428 C   0  0  0  0  0  0  0  0  0  0  0  0
   -3.1501   -2.2292    0.8845 C   0  0  0  0  0  0  0  0  0  0  0  0
   -5.1974   -0.5819   -1.3074 H   0  0  0  0  0  0  0  0  0  0  0  0
   -5.5361   -2.9107   -2.0925 H   0  0  0  0  0  0  0  0  0  0  0  0
   -4.3643   -4.7916   -0.9801 H   0  0  0  0  0  0  0  0  0  0  0  0
   -2.8334   -4.3539    0.9310 H   0  0  0  0  0  0  0  0  0  0  0  0
   -2.4879   -2.0063    1.7142 H   0  0  0  0  0  0  0  0  0  0  0  0
   -4.9140    1.3933   -0.5615 O   0  0  0  0  0  0  0  0  0  0  0  0
   -5.3323    2.6317   -0.8199 C   0  0  0  0  0  0  0  0  0  0  0  0
   -6.1405    2.8638   -1.6861 O   0  0  0  0  0  0  0  0  0  0  0  0
   -4.7473    3.7929    0.0312 C   0  0  0  0  0  0  0  0  0  0  0  0
   -3.4098    3.8696   -0.1064 F   0  0  0  0  0  0  0  0  0  0  0  0
   -5.2736    4.9529   -0.3711 F   0  0  0  0  0  0  0  0  0  0  0  0
   -5.0353    3.6323    1.3368 F   0  0  0  0  0  0  0  0  0  0  0  0
  1  2  1  0  0  0  0
  1  8  2  0  0  0  0
  3  2  1  0  0  0  0
  4  1  1  0  0  0  0
  5  4  2  0  0  0  0
  5  6  1  0  0  0  0
  6  7  2  0  0  0  0
  7  8  1  0  0  0  0
  7 12  1  0  0  0  0
  8 13  1  0  0  0  0
  9  4  1  0  0  0  0
 10  5  1  0  0  0  0
 11  6  1  0  0  0  0
 14  3  1  0  0  0  0
 15 14  1  0  0  0  0
 15 17  1  0  0  0  0
 16 15  2  0  0  0  0
 17 20  1  0  0  0  0
 18 17  1  0  0  0  0
 19 17  1  0  0  0  0
M  RAD  2   2   2   3   2
M  END
