Coordinates from ORCA-job PhN2+~CF3COO-_B3LYPG-6-31G_dp-NX-Scan-d89-09-n800
 OpenBabel11261920123D

 20 20  0  0  1  0  0  0  0  0999 V2000
   -5.2610   -2.0211    1.5315 C   0  0  0  0  0  0  0  0  0  0  0  0
   -5.8247   -2.9519    2.2722 N   0  0  0  0  0  0  0  0  0  0  0  0
   -6.3148   -3.7702    2.9088 N   0  0  0  0  0  0  0  0  0  0  0  0
   -6.0706   -1.0596    0.8055 C   0  0  0  0  0  0  0  0  0  0  0  0
   -5.5029   -0.1901   -0.0532 C   0  0  0  0  0  0  0  0  0  0  0  0
   -4.0334   -0.1776   -0.3562 C   0  0  2  0  0  0  0  0  0  0  0  0
   -3.2464   -1.0832    0.5444 C   0  0  0  0  0  0  0  0  0  0  0  0
   -3.8169   -1.9546    1.3986 C   0  0  0  0  0  0  0  0  0  0  0  0
   -7.1450   -1.0605    0.9631 H   0  0  0  0  0  0  0  0  0  0  0  0
   -6.1206    0.5159   -0.5970 H   0  0  0  0  0  0  0  0  0  0  0  0
   -3.8461   -0.4367   -1.4012 H   0  0  0  0  0  0  0  0  0  0  0  0
   -2.1655   -1.0407    0.4527 H   0  0  0  0  0  0  0  0  0  0  0  0
   -3.2070   -2.6238    1.9973 H   0  0  0  0  0  0  0  0  0  0  0  0
   -2.6488    3.1288   -0.9641 O   0  0  0  0  0  0  0  0  0  0  0  0
   -3.2006    2.0731   -1.1535 C   0  0  0  0  0  0  0  0  0  0  0  0
   -3.4830    1.2113   -0.1663 O   0  0  0  0  0  0  0  0  0  0  0  0
   -3.6100    1.7001   -2.6064 C   0  0  0  0  0  0  0  0  0  0  0  0
   -2.8673    0.6638   -3.0631 F   0  0  0  0  0  0  0  0  0  0  0  0
   -4.9119    1.3366   -2.6797 F   0  0  0  0  0  0  0  0  0  0  0  0
   -3.4233    2.7333   -3.4213 F   0  0  0  0  0  0  0  0  0  0  0  0
  1  2  1  0  0  0  0
  2  3  1  0  0  0  0
  4  9  1  0  0  0  0
  4  1  2  0  0  0  0
  5  4  1  0  0  0  0
  6 11  1  6  0  0  0
  6 16  1  0  0  0  0
  6  5  1  0  0  0  0
  6  7  1  0  0  0  0
  7  8  2  0  0  0  0
  8  1  1  0  0  0  0
  8 13  1  0  0  0  0
 10  5  1  0  0  0  0
 12  7  1  0  0  0  0
 15 14  2  0  0  0  0
 15 16  1  0  0  0  0
 17 15  1  0  0  0  0
 18 17  1  0  0  0  0
 19 17  1  0  0  0  0
 20 17  1  0  0  0  0
M  RAD  3   2   2   3   3   5   2
M  END
