Coordinates from ORCA-job PhN2+~CF3COO-_B3LYPG-6-31G_dp-NX-Scan-d89-09-n800
 OpenBabel11261920123D

 20 20  0  0  1  0  0  0  0  0999 V2000
   -5.1009   -1.4582    1.4036 C   0  0  0  0  0  0  0  0  0  0  0  0
   -5.6904   -1.3958    2.5777 N   0  0  0  0  0  0  0  0  0  0  0  0
   -6.1967   -1.3052    3.5949 N   0  0  0  0  0  0  0  0  0  0  0  0
   -5.7814   -0.9434    0.2360 C   0  0  0  0  0  0  0  0  0  0  0  0
   -5.0856   -0.7799   -0.9079 C   0  0  0  0  0  0  0  0  0  0  0  0
   -3.5970   -0.9107   -0.9107 C   0  0  2  0  0  0  0  0  0  0  0  0
   -3.0995   -1.8660    0.1261 C   0  0  0  0  0  0  0  0  0  0  0  0
   -3.7807   -2.0413    1.2748 C   0  0  0  0  0  0  0  0  0  0  0  0
   -6.8459   -0.7384    0.2933 H   0  0  0  0  0  0  0  0  0  0  0  0
   -5.5834   -0.4606   -1.8152 H   0  0  0  0  0  0  0  0  0  0  0  0
   -3.1955   -1.1108   -1.9034 H   0  0  0  0  0  0  0  0  0  0  0  0
   -2.1263   -2.3225   -0.0155 H   0  0  0  0  0  0  0  0  0  0  0  0
   -3.3841   -2.6307    2.0953 H   0  0  0  0  0  0  0  0  0  0  0  0
   -3.6874    2.3396    0.3867 O   0  0  0  0  0  0  0  0  0  0  0  0
   -3.5893    1.5818   -0.5448 C   0  0  0  0  0  0  0  0  0  0  0  0
   -2.9418    0.4159   -0.4889 O   0  0  0  0  0  0  0  0  0  0  0  0
   -4.1281    2.0401   -1.9280 C   0  0  0  0  0  0  0  0  0  0  0  0
   -3.8807    1.1464   -2.9123 F   0  0  0  0  0  0  0  0  0  0  0  0
   -5.4588    2.2351   -1.8783 F   0  0  0  0  0  0  0  0  0  0  0  0
   -3.5464    3.1979   -2.2714 F   0  0  0  0  0  0  0  0  0  0  0  0
  1  2  1  0  0  0  0
  2  3  1  0  0  0  0
  4  9  1  0  0  0  0
  4  1  2  0  0  0  0
  5  4  1  0  0  0  0
  6 11  1  6  0  0  0
  6  5  1  0  0  0  0
  6 16  1  0  0  0  0
  6  7  1  0  0  0  0
  7  8  2  0  0  0  0
  8  1  1  0  0  0  0
  8 13  1  0  0  0  0
 10  5  1  0  0  0  0
 12  7  1  0  0  0  0
 15 16  1  0  0  0  0
 15 14  2  0  0  0  0
 17 19  1  0  0  0  0
 17 15  1  0  0  0  0
 18 17  1  0  0  0  0
 20 17  1  0  0  0  0
M  RAD  3   2   2   3   3   5   2
M  END
