Coordinates from ORCA-job PhN2+~CF3COO-_B3LYPG-6-31G_dp-NX-Scan-d89-09-n800
 OpenBabel11261920123D

 20 20  0  0  0  0  0  0  0  0999 V2000
   -3.8281   -1.1052    0.2177 C   0  0  0  0  0  0  0  0  0  0  0  0
   -3.4597    0.1365    0.8162 N   0  0  0  0  0  0  0  0  0  0  0  0
   -3.9305    1.2598    0.4936 N   0  0  0  0  0  0  0  0  0  0  0  0
   -4.6828   -1.3810   -0.8740 C   0  0  0  0  0  0  0  0  0  0  0  0
   -4.8724   -2.7000   -1.2860 C   0  0  0  0  0  0  0  0  0  0  0  0
   -4.2353   -3.7577   -0.6351 C   0  0  0  0  0  0  0  0  0  0  0  0
   -3.3887   -3.4952    0.4444 C   0  0  0  0  0  0  0  0  0  0  0  0
   -3.1873   -2.1840    0.8593 C   0  0  0  0  0  0  0  0  0  0  0  0
   -5.1946   -0.5928   -1.4037 H   0  0  0  0  0  0  0  0  0  0  0  0
   -5.5286   -2.8996   -2.1284 H   0  0  0  0  0  0  0  0  0  0  0  0
   -4.3969   -4.7785   -0.9686 H   0  0  0  0  0  0  0  0  0  0  0  0
   -2.8862   -4.3090    0.9579 H   0  0  0  0  0  0  0  0  0  0  0  0
   -2.5313   -1.9506    1.6915 H   0  0  0  0  0  0  0  0  0  0  0  0
   -4.7323    1.3025   -0.3579 O   0  0  0  0  0  0  0  0  0  0  0  0
   -5.2616    2.5513   -0.7157 C   0  0  0  0  0  0  0  0  0  0  0  0
   -6.0751    2.6029   -1.5831 O   0  0  0  0  0  0  0  0  0  0  0  0
   -4.7324    3.7909    0.0609 C   0  0  0  0  0  0  0  0  0  0  0  0
   -3.4158    3.9435   -0.1201 F   0  0  0  0  0  0  0  0  0  0  0  0
   -5.3569    4.8675   -0.4240 F   0  0  0  0  0  0  0  0  0  0  0  0
   -5.0033    3.6919    1.3670 F   0  0  0  0  0  0  0  0  0  0  0  0
  1  2  1  0  0  0  0
  1  8  2  0  0  0  0
  3  2  2  0  0  0  0
  4  1  1  0  0  0  0
  5  4  2  0  0  0  0
  5  6  1  0  0  0  0
  6  7  2  0  0  0  0
  7  8  1  0  0  0  0
  7 12  1  0  0  0  0
  8 13  1  0  0  0  0
  9  4  1  0  0  0  0
 10  5  1  0  0  0  0
 11  6  1  0  0  0  0
 14  3  1  0  0  0  0
 15 14  1  0  0  0  0
 15 17  1  0  0  0  0
 16 15  2  0  0  0  0
 17 20  1  0  0  0  0
 18 17  1  0  0  0  0
 19 17  1  0  0  0  0
M  END
