Coordinates from ORCA-job PhN2+~CF3COO-_B3LYPG-6-31G_dp-NX-Scan-d89-09-n800
 OpenBabel11261920123D

 20 20  0  0  1  0  0  0  0  0999 V2000
   -5.0679   -1.5343    1.5262 C   0  0  0  0  0  0  0  0  0  0  0  0
   -5.5644   -1.6226    2.7396 N   0  0  0  0  0  0  0  0  0  0  0  0
   -5.9959   -1.6980    3.7947 N   0  0  0  0  0  0  0  0  0  0  0  0
   -5.9561   -1.4694    0.3858 C   0  0  0  0  0  0  0  0  0  0  0  0
   -5.4491   -1.3165   -0.8513 C   0  0  0  0  0  0  0  0  0  0  0  0
   -3.9859   -1.1357   -1.1029 C   0  0  2  0  0  0  0  0  0  0  0  0
   -3.1248   -1.3779    0.0956 C   0  0  0  0  0  0  0  0  0  0  0  0
   -3.6340   -1.5294    1.3321 C   0  0  0  0  0  0  0  0  0  0  0  0
   -7.0246   -1.5711    0.5499 H   0  0  0  0  0  0  0  0  0  0  0  0
   -6.1073   -1.2954   -1.7141 H   0  0  0  0  0  0  0  0  0  0  0  0
   -3.6557   -1.7405   -1.9534 H   0  0  0  0  0  0  0  0  0  0  0  0
   -2.0508   -1.4019   -0.0613 H   0  0  0  0  0  0  0  0  0  0  0  0
   -2.9902   -1.6741    2.1941 H   0  0  0  0  0  0  0  0  0  0  0  0
   -4.4177    1.4053    0.1434 O   0  0  0  0  0  0  0  0  0  0  0  0
   -3.9697    1.3202   -0.9724 C   0  0  0  0  0  0  0  0  0  0  0  0
   -3.7087    0.2314   -1.6927 O   0  0  0  0  0  0  0  0  0  0  0  0
   -3.5880    2.5681   -1.8075 C   0  0  0  0  0  0  0  0  0  0  0  0
   -2.2760    2.5491   -2.1115 F   0  0  0  0  0  0  0  0  0  0  0  0
   -4.2847    2.6001   -2.9593 F   0  0  0  0  0  0  0  0  0  0  0  0
   -3.8483    3.6857   -1.1230 F   0  0  0  0  0  0  0  0  0  0  0  0
  1  2  1  0  0  0  0
  2  3  1  0  0  0  0
  4  9  1  0  0  0  0
  4  1  2  0  0  0  0
  5  4  1  0  0  0  0
  6 11  1  6  0  0  0
  6  5  1  0  0  0  0
  6  7  1  0  0  0  0
  7  8  2  0  0  0  0
  8  1  1  0  0  0  0
  8 13  1  0  0  0  0
 10  5  1  0  0  0  0
 12  7  1  0  0  0  0
 15 14  2  0  0  0  0
 16  6  1  0  0  0  0
 16 15  1  0  0  0  0
 17 20  1  0  0  0  0
 17 15  1  0  0  0  0
 18 17  1  0  0  0  0
 19 17  1  0  0  0  0
M  RAD  3   2   2   3   3   5   2
M  END
