Coordinates from ORCA-job PhN2+~CF3COO-_B3LYPG-6-31G_dp-NX-Scan-d89-09-n800
 OpenBabel11261920123D

 20 20  0  0  1  0  0  0  0  0999 V2000
   -5.2411   -1.9523    1.5710 C   0  0  0  0  0  0  0  0  0  0  0  0
   -5.7883   -2.7321    2.4767 N   0  0  0  0  0  0  0  0  0  0  0  0
   -6.2638   -3.4123    3.2640 N   0  0  0  0  0  0  0  0  0  0  0  0
   -6.0700   -1.0896    0.7541 C   0  0  0  0  0  0  0  0  0  0  0  0
   -5.5172   -0.3290   -0.2097 C   0  0  0  0  0  0  0  0  0  0  0  0
   -4.0446   -0.2906   -0.4739 C   0  0  2  0  0  0  0  0  0  0  0  0
   -3.2545   -1.2230    0.3897 C   0  0  0  0  0  0  0  0  0  0  0  0
   -3.8098   -1.9857    1.3499 C   0  0  0  0  0  0  0  0  0  0  0  0
   -7.1427   -1.0864    0.9228 H   0  0  0  0  0  0  0  0  0  0  0  0
   -6.1435    0.3002   -0.8322 H   0  0  0  0  0  0  0  0  0  0  0  0
   -3.8204   -0.4614   -1.5279 H   0  0  0  0  0  0  0  0  0  0  0  0
   -2.1834   -1.2586    0.2181 H   0  0  0  0  0  0  0  0  0  0  0  0
   -3.2031   -2.6485    1.9589 H   0  0  0  0  0  0  0  0  0  0  0  0
   -2.8403    3.1326   -0.7141 O   0  0  0  0  0  0  0  0  0  0  0  0
   -3.2850    2.0599   -1.0363 C   0  0  0  0  0  0  0  0  0  0  0  0
   -3.5360    1.0942   -0.1492 O   0  0  0  0  0  0  0  0  0  0  0  0
   -3.5730    1.7879   -2.5394 C   0  0  0  0  0  0  0  0  0  0  0  0
   -2.7580    0.8177   -3.0179 F   0  0  0  0  0  0  0  0  0  0  0  0
   -4.8506    1.3823   -2.7344 F   0  0  0  0  0  0  0  0  0  0  0  0
   -3.3747    2.8877   -3.2584 F   0  0  0  0  0  0  0  0  0  0  0  0
  1  2  1  0  0  0  0
  2  3  1  0  0  0  0
  4  9  1  0  0  0  0
  4  1  2  0  0  0  0
  5  4  1  0  0  0  0
  6 11  1  6  0  0  0
  6  5  1  0  0  0  0
  6 16  1  0  0  0  0
  6  7  1  0  0  0  0
  7  8  2  0  0  0  0
  8  1  1  0  0  0  0
  8 13  1  0  0  0  0
 10  5  1  0  0  0  0
 12  7  1  0  0  0  0
 15 14  2  0  0  0  0
 15 16  1  0  0  0  0
 17 15  1  0  0  0  0
 18 17  1  0  0  0  0
 19 17  1  0  0  0  0
 20 17  1  0  0  0  0
M  RAD  3   2   2   3   3   5   2
M  END
