Coordinates from ORCA-job PhN2+~CF3COO-_B3LYPG-6-31G_dp-NX-Scan-d89-09-n800
 OpenBabel11261920123D

 20 20  0  0  1  0  0  0  0  0999 V2000
   -5.2615   -2.0229    1.5296 C   0  0  0  0  0  0  0  0  0  0  0  0
   -5.8263   -2.9584    2.2640 N   0  0  0  0  0  0  0  0  0  0  0  0
   -6.3173   -3.7806    2.8950 N   0  0  0  0  0  0  0  0  0  0  0  0
   -6.0698   -1.0585    0.8058 C   0  0  0  0  0  0  0  0  0  0  0  0
   -5.5009   -0.1857   -0.0490 C   0  0  0  0  0  0  0  0  0  0  0  0
   -4.0312   -0.1739   -0.3519 C   0  0  2  0  0  0  0  0  0  0  0  0
   -3.2453   -1.0788    0.5506 C   0  0  0  0  0  0  0  0  0  0  0  0
   -3.8171   -1.9534    1.4009 C   0  0  0  0  0  0  0  0  0  0  0  0
   -7.1444   -1.0596    0.9619 H   0  0  0  0  0  0  0  0  0  0  0  0
   -6.1180    0.5223   -0.5909 H   0  0  0  0  0  0  0  0  0  0  0  0
   -3.8442   -0.4358   -1.3964 H   0  0  0  0  0  0  0  0  0  0  0  0
   -2.1643   -1.0342    0.4623 H   0  0  0  0  0  0  0  0  0  0  0  0
   -3.2075   -2.6229    1.9997 H   0  0  0  0  0  0  0  0  0  0  0  0
   -2.6412    3.1279   -0.9739 O   0  0  0  0  0  0  0  0  0  0  0  0
   -3.1982    2.0738   -1.1572 C   0  0  0  0  0  0  0  0  0  0  0  0
   -3.4796    1.2153   -0.1665 O   0  0  0  0  0  0  0  0  0  0  0  0
   -3.6137    1.6971   -2.6075 C   0  0  0  0  0  0  0  0  0  0  0  0
   -2.8758    0.6569   -3.0630 F   0  0  0  0  0  0  0  0  0  0  0  0
   -4.9169    1.3374   -2.6749 F   0  0  0  0  0  0  0  0  0  0  0  0
   -3.4266    2.7270   -3.4265 F   0  0  0  0  0  0  0  0  0  0  0  0
  1  2  1  0  0  0  0
  2  3  1  0  0  0  0
  4  9  1  0  0  0  0
  4  1  2  0  0  0  0
  5  4  1  0  0  0  0
  6 11  1  6  0  0  0
  6 16  1  0  0  0  0
  6  5  1  0  0  0  0
  6  7  1  0  0  0  0
  7  8  2  0  0  0  0
  8  1  1  0  0  0  0
  8 13  1  0  0  0  0
 10  5  1  0  0  0  0
 12  7  1  0  0  0  0
 15 14  2  0  0  0  0
 15 16  1  0  0  0  0
 17 15  1  0  0  0  0
 18 17  1  0  0  0  0
 19 17  1  0  0  0  0
 20 17  1  0  0  0  0
M  RAD  3   2   2   3   3   5   2
M  END
