Coordinates from ORCA-job PhN2+~CF3COO-_B3LYPG-6-31G_dp-NX-Scan-d89-09-n800
 OpenBabel11261920123D

 20 20  0  0  0  0  0  0  0  0999 V2000
   -3.8305   -1.1132    0.2199 C   0  0  0  0  0  0  0  0  0  0  0  0
   -3.4717    0.1289    0.8137 N   0  0  0  0  0  0  0  0  0  0  0  0
   -3.9019    1.2607    0.5299 N   0  0  0  0  0  0  0  0  0  0  0  0
   -4.6883   -1.3868   -0.8693 C   0  0  0  0  0  0  0  0  0  0  0  0
   -4.8735   -2.7058   -1.2806 C   0  0  0  0  0  0  0  0  0  0  0  0
   -4.2291   -3.7610   -0.6313 C   0  0  0  0  0  0  0  0  0  0  0  0
   -3.3798   -3.4985    0.4457 C   0  0  0  0  0  0  0  0  0  0  0  0
   -3.1819   -2.1868    0.8613 C   0  0  0  0  0  0  0  0  0  0  0  0
   -5.2015   -0.5954   -1.3917 H   0  0  0  0  0  0  0  0  0  0  0  0
   -5.5315   -2.9083   -2.1206 H   0  0  0  0  0  0  0  0  0  0  0  0
   -4.3881   -4.7821   -0.9653 H   0  0  0  0  0  0  0  0  0  0  0  0
   -2.8733   -4.3114    0.9562 H   0  0  0  0  0  0  0  0  0  0  0  0
   -2.5246   -1.9513    1.6917 H   0  0  0  0  0  0  0  0  0  0  0  0
   -4.7797    1.3137   -0.4145 O   0  0  0  0  0  0  0  0  0  0  0  0
   -5.2707    2.5619   -0.7360 C   0  0  0  0  0  0  0  0  0  0  0  0
   -6.0832    2.6636   -1.6055 O   0  0  0  0  0  0  0  0  0  0  0  0
   -4.7321    3.7853    0.0603 C   0  0  0  0  0  0  0  0  0  0  0  0
   -3.4111    3.9276   -0.1094 F   0  0  0  0  0  0  0  0  0  0  0  0
   -5.3389    4.8791   -0.4083 F   0  0  0  0  0  0  0  0  0  0  0  0
   -5.0087    3.6728    1.3659 F   0  0  0  0  0  0  0  0  0  0  0  0
  1  2  1  0  0  0  0
  1  8  2  0  0  0  0
  3  2  2  0  0  0  0
  4  1  1  0  0  0  0
  5  4  2  0  0  0  0
  5  6  1  0  0  0  0
  6  7  2  0  0  0  0
  7  8  1  0  0  0  0
  7 12  1  0  0  0  0
  8 13  1  0  0  0  0
  9  4  1  0  0  0  0
 10  5  1  0  0  0  0
 11  6  1  0  0  0  0
 14  3  1  0  0  0  0
 15 14  1  0  0  0  0
 15 17  1  0  0  0  0
 16 15  2  0  0  0  0
 17 20  1  0  0  0  0
 18 17  1  0  0  0  0
 19 17  1  0  0  0  0
M  END
