Coordinates from ORCA-job PhN2+~CF3COO-_B3LYPG-6-31G_dp-NX-Scan-d89-09-n800
 OpenBabel11261920123D

 20 20  0  0  1  0  0  0  0  0999 V2000
   -5.2273   -1.9113    1.5793 C   0  0  0  0  0  0  0  0  0  0  0  0
   -5.7637   -2.5906    2.5681 N   0  0  0  0  0  0  0  0  0  0  0  0
   -6.2298   -3.1772    3.4313 N   0  0  0  0  0  0  0  0  0  0  0  0
   -6.0633   -1.1020    0.7179 C   0  0  0  0  0  0  0  0  0  0  0  0
   -5.5148   -0.4041   -0.2945 C   0  0  0  0  0  0  0  0  0  0  0  0
   -4.0399   -0.3554   -0.5365 C   0  0  2  0  0  0  0  0  0  0  0  0
   -3.2565   -1.3058    0.3112 C   0  0  0  0  0  0  0  0  0  0  0  0
   -3.8058   -2.0061    1.3210 C   0  0  0  0  0  0  0  0  0  0  0  0
   -7.1351   -1.0919    0.8918 H   0  0  0  0  0  0  0  0  0  0  0  0
   -6.1428    0.1830   -0.9552 H   0  0  0  0  0  0  0  0  0  0  0  0
   -3.7957   -0.4834   -1.5914 H   0  0  0  0  0  0  0  0  0  0  0  0
   -2.1945   -1.3893    0.1046 H   0  0  0  0  0  0  0  0  0  0  0  0
   -3.2057   -2.6665    1.9392 H   0  0  0  0  0  0  0  0  0  0  0  0
   -2.9679    3.1226   -0.5787 O   0  0  0  0  0  0  0  0  0  0  0  0
   -3.3382    2.0449   -0.9705 C   0  0  0  0  0  0  0  0  0  0  0  0
   -3.5480    1.0212   -0.1428 O   0  0  0  0  0  0  0  0  0  0  0  0
   -3.5654    1.8322   -2.4927 C   0  0  0  0  0  0  0  0  0  0  0  0
   -2.7095    0.9034   -2.9820 F   0  0  0  0  0  0  0  0  0  0  0  0
   -4.8244    1.4030   -2.7502 F   0  0  0  0  0  0  0  0  0  0  0  0
   -3.3717    2.9664   -3.1578 F   0  0  0  0  0  0  0  0  0  0  0  0
  1  2  1  0  0  0  0
  2  3  1  0  0  0  0
  4  9  1  0  0  0  0
  4  1  2  0  0  0  0
  5  4  1  0  0  0  0
  6 11  1  6  0  0  0
  6  5  1  0  0  0  0
  6 16  1  0  0  0  0
  6  7  1  0  0  0  0
  7  8  2  0  0  0  0
  8  1  1  0  0  0  0
  8 13  1  0  0  0  0
 10  5  1  0  0  0  0
 12  7  1  0  0  0  0
 15 14  2  0  0  0  0
 15 16  1  0  0  0  0
 17 15  1  0  0  0  0
 18 17  1  0  0  0  0
 19 17  1  0  0  0  0
 20 17  1  0  0  0  0
M  RAD  3   2   2   3   3   5   2
M  END
