Coordinates from ORCA-job PhN2+~CF3COO-_B3LYPG-6-31G_dp-NX-Scan-d89-09-n800
 OpenBabel11261920123D

 20 20  0  0  1  0  0  0  0  0999 V2000
   -4.9980   -1.4704    1.3637 C   0  0  1  0  0  0  0  0  0  0  0  0
   -5.3529   -0.6099    2.2955 N   0  0  0  0  0  0  0  0  0  0  0  0
   -5.6185    0.2301    3.0099 N   0  0  0  0  0  0  0  0  0  0  0  0
   -5.9036   -1.6191    0.2365 C   0  0  0  0  0  0  0  0  0  0  0  0
   -5.3891   -1.6326   -1.0075 C   0  0  0  0  0  0  0  0  0  0  0  0
   -3.9464   -1.3142   -1.2183 C   0  0  2  0  0  0  0  0  0  0  0  0
   -3.0744   -1.6949   -0.0687 C   0  0  0  0  0  0  0  0  0  0  0  0
   -3.5712   -1.6810    1.1824 C   0  0  0  0  0  0  0  0  0  0  0  0
   -6.9705   -1.7064    0.4221 H   0  0  0  0  0  0  0  0  0  0  0  0
   -6.0187   -1.7927   -1.8767 H   0  0  0  0  0  0  0  0  0  0  0  0
   -3.5730   -1.7040   -2.1650 H   0  0  0  0  0  0  0  0  0  0  0  0
   -2.0259   -1.9013   -0.2576 H   0  0  0  0  0  0  0  0  0  0  0  0
   -2.9399   -1.8132    2.0564 H   0  0  0  0  0  0  0  0  0  0  0  0
   -4.5636    1.0728    0.4632 O   0  0  0  0  0  0  0  0  0  0  0  0
   -4.1055    1.1419   -0.6558 C   0  0  0  0  0  0  0  0  0  0  0  0
   -3.7815    0.1896   -1.5231 O   0  0  0  0  0  0  0  0  0  0  0  0
   -3.7908    2.5127   -1.3099 C   0  0  0  0  0  0  0  0  0  0  0  0
   -2.4759    2.6140   -1.5840 F   0  0  0  0  0  0  0  0  0  0  0  0
   -4.4717    2.6598   -2.4620 F   0  0  0  0  0  0  0  0  0  0  0  0
   -4.1288    3.5118   -0.4890 F   0  0  0  0  0  0  0  0  0  0  0  0
  1  2  1  6  0  0  0
  2  3  1  0  0  0  0
  4  9  1  0  0  0  0
  4  1  1  0  0  0  0
  5  4  2  0  0  0  0
  6 11  1  6  0  0  0
  6  5  1  0  0  0  0
  6  7  1  0  0  0  0
  7  8  2  0  0  0  0
  8  1  1  0  0  0  0
  8 13  1  0  0  0  0
 10  5  1  0  0  0  0
 12  7  1  0  0  0  0
 15 14  2  0  0  0  0
 16  6  1  0  0  0  0
 16 15  1  0  0  0  0
 17 15  1  0  0  0  0
 17 20  1  0  0  0  0
 18 17  1  0  0  0  0
 19 17  1  0  0  0  0
M  RAD  3   1   2   2   2   3   3
M  END
