Coordinates from ORCA-job PhN2+~CF3COO-_B3LYPG-6-31G_dp-NX-Scan-d89-09-n800
 OpenBabel11261920123D

 20 20  0  0  1  0  0  0  0  0999 V2000
   -5.0796   -1.5783    1.5518 C   0  0  0  0  0  0  0  0  0  0  0  0
   -5.5757   -1.7584    2.7552 N   0  0  0  0  0  0  0  0  0  0  0  0
   -6.0071   -1.9185    3.8017 N   0  0  0  0  0  0  0  0  0  0  0  0
   -5.9662   -1.4677    0.4129 C   0  0  0  0  0  0  0  0  0  0  0  0
   -5.4603   -1.2684   -0.8179 C   0  0  0  0  0  0  0  0  0  0  0  0
   -3.9951   -1.1032   -1.0727 C   0  0  2  0  0  0  0  0  0  0  0  0
   -3.1361   -1.3323    0.1308 C   0  0  0  0  0  0  0  0  0  0  0  0
   -3.6456   -1.5304    1.3604 C   0  0  0  0  0  0  0  0  0  0  0  0
   -7.0351   -1.5727    0.5722 H   0  0  0  0  0  0  0  0  0  0  0  0
   -6.1206   -1.2099   -1.6776 H   0  0  0  0  0  0  0  0  0  0  0  0
   -3.6712   -1.7320   -1.9092 H   0  0  0  0  0  0  0  0  0  0  0  0
   -2.0609   -1.3209   -0.0205 H   0  0  0  0  0  0  0  0  0  0  0  0
   -2.9997   -1.6803    2.2200 H   0  0  0  0  0  0  0  0  0  0  0  0
   -4.4046    1.4729    0.1064 O   0  0  0  0  0  0  0  0  0  0  0  0
   -3.9541    1.3532   -1.0044 C   0  0  0  0  0  0  0  0  0  0  0  0
   -3.7039    0.2419   -1.6944 O   0  0  0  0  0  0  0  0  0  0  0  0
   -3.5619    2.5734   -1.8749 C   0  0  0  0  0  0  0  0  0  0  0  0
   -2.2525    2.5297   -2.1870 F   0  0  0  0  0  0  0  0  0  0  0  0
   -4.2662    2.5835   -3.0224 F   0  0  0  0  0  0  0  0  0  0  0  0
   -3.8037    3.7116   -1.2184 F   0  0  0  0  0  0  0  0  0  0  0  0
  1  2  1  0  0  0  0
  2  3  1  0  0  0  0
  4  9  1  0  0  0  0
  4  1  1  0  0  0  0
  5  4  2  0  0  0  0
  6 11  1  6  0  0  0
  6  5  1  0  0  0  0
  6  7  1  0  0  0  0
  7  8  1  0  0  0  0
  8  1  2  0  0  0  0
  8 13  1  0  0  0  0
 10  5  1  0  0  0  0
 12  7  1  0  0  0  0
 15 14  2  0  0  0  0
 16  6  1  0  0  0  0
 16 15  1  0  0  0  0
 17 20  1  0  0  0  0
 17 15  1  0  0  0  0
 18 17  1  0  0  0  0
 19 17  1  0  0  0  0
M  RAD  3   2   2   3   3   7   2
M  END
