Coordinates from ORCA-job PhN2+~CF3COO-_B3LYPG-6-31G_dp-NX-Scan-d89-09-n800
 OpenBabel11261920123D

 20 20  0  0  1  0  0  0  0  0999 V2000
   -5.0341   -1.4478    1.4528 C   0  0  0  0  0  0  0  0  0  0  0  0
   -5.5186   -1.2604    2.6588 N   0  0  0  0  0  0  0  0  0  0  0  0
   -5.9376   -1.0779    3.7039 N   0  0  0  0  0  0  0  0  0  0  0  0
   -5.9292   -1.4844    0.3178 C   0  0  0  0  0  0  0  0  0  0  0  0
   -5.4202   -1.4348   -0.9275 C   0  0  0  0  0  0  0  0  0  0  0  0
   -3.9626   -1.2143   -1.1693 C   0  0  2  0  0  0  0  0  0  0  0  0
   -3.0983   -1.4994    0.0152 C   0  0  0  0  0  0  0  0  0  0  0  0
   -3.6042   -1.5483    1.2619 C   0  0  0  0  0  0  0  0  0  0  0  0
   -6.9969   -1.5731    0.4948 H   0  0  0  0  0  0  0  0  0  0  0  0
   -6.0719   -1.4982   -1.7928 H   0  0  0  0  0  0  0  0  0  0  0  0
   -3.6174   -1.7507   -2.0562 H   0  0  0  0  0  0  0  0  0  0  0  0
   -2.0318   -1.6103   -0.1525 H   0  0  0  0  0  0  0  0  0  0  0  0
   -2.9675   -1.6829    2.1308 H   0  0  0  0  0  0  0  0  0  0  0  0
   -4.4653    1.2460    0.2388 O   0  0  0  0  0  0  0  0  0  0  0  0
   -4.0119    1.2394   -0.8800 C   0  0  0  0  0  0  0  0  0  0  0  0
   -3.7208    0.2079   -1.6672 O   0  0  0  0  0  0  0  0  0  0  0  0
   -3.6603    2.5483   -1.6308 C   0  0  0  0  0  0  0  0  0  0  0  0
   -2.3440    2.5906   -1.9139 F   0  0  0  0  0  0  0  0  0  0  0  0
   -4.3408    2.6306   -2.7896 F   0  0  0  0  0  0  0  0  0  0  0  0
   -3.9665    3.6129   -0.8830 F   0  0  0  0  0  0  0  0  0  0  0  0
  1  2  1  0  0  0  0
  2  3  1  0  0  0  0
  4  9  1  0  0  0  0
  4  1  2  0  0  0  0
  5  4  1  0  0  0  0
  6 11  1  6  0  0  0
  6  5  1  0  0  0  0
  6  7  1  0  0  0  0
  7  8  2  0  0  0  0
  8  1  1  0  0  0  0
  8 13  1  0  0  0  0
 10  5  1  0  0  0  0
 12  7  1  0  0  0  0
 15 14  2  0  0  0  0
 16  6  1  0  0  0  0
 16 15  1  0  0  0  0
 17 20  1  0  0  0  0
 17 15  1  0  0  0  0
 18 17  1  0  0  0  0
 19 17  1  0  0  0  0
M  RAD  3   2   2   3   3   5   2
M  END
