Coordinates from ORCA-job PhN2+~CF3COO-_B3LYPG-6-31G_dp-NX-Scan-d89-09-n800
 OpenBabel11261920123D

 20 20  0  0  1  0  0  0  0  0999 V2000
   -5.0541   -1.4949    1.5003 C   0  0  0  0  0  0  0  0  0  0  0  0
   -5.5480   -1.4894    2.7178 N   0  0  0  0  0  0  0  0  0  0  0  0
   -5.9767   -1.4779    3.7760 N   0  0  0  0  0  0  0  0  0  0  0  0
   -5.9451   -1.4672    0.3612 C   0  0  0  0  0  0  0  0  0  0  0  0
   -5.4376   -1.3576   -0.8806 C   0  0  0  0  0  0  0  0  0  0  0  0
   -3.9760   -1.1663   -1.1296 C   0  0  2  0  0  0  0  0  0  0  0  0
   -3.1136   -1.4270    0.0632 C   0  0  0  0  0  0  0  0  0  0  0  0
   -3.6214   -1.5358    1.3049 C   0  0  0  0  0  0  0  0  0  0  0  0
   -7.0134   -1.5616    0.5307 H   0  0  0  0  0  0  0  0  0  0  0  0
   -6.0942   -1.3681   -1.7447 H   0  0  0  0  0  0  0  0  0  0  0  0
   -3.6421   -1.7465   -1.9945 H   0  0  0  0  0  0  0  0  0  0  0  0
   -2.0419   -1.4884   -0.0991 H   0  0  0  0  0  0  0  0  0  0  0  0
   -2.9800   -1.6796    2.1689 H   0  0  0  0  0  0  0  0  0  0  0  0
   -4.4459    1.3429    0.1733 O   0  0  0  0  0  0  0  0  0  0  0  0
   -3.9851    1.2888   -0.9399 C   0  0  0  0  0  0  0  0  0  0  0  0
   -3.7088    0.2217   -1.6854 O   0  0  0  0  0  0  0  0  0  0  0  0
   -3.6154    2.5615   -1.7424 C   0  0  0  0  0  0  0  0  0  0  0  0
   -2.2987    2.5738   -2.0259 F   0  0  0  0  0  0  0  0  0  0  0  0
   -4.2946    2.6058   -2.9040 F   0  0  0  0  0  0  0  0  0  0  0  0
   -3.9072    3.6592   -1.0383 F   0  0  0  0  0  0  0  0  0  0  0  0
  1  2  1  0  0  0  0
  2  3  1  0  0  0  0
  4  9  1  0  0  0  0
  4  1  2  0  0  0  0
  5  4  1  0  0  0  0
  6 11  1  6  0  0  0
  6  5  1  0  0  0  0
  6  7  1  0  0  0  0
  7  8  2  0  0  0  0
  8  1  1  0  0  0  0
  8 13  1  0  0  0  0
 10  5  1  0  0  0  0
 12  7  1  0  0  0  0
 15 14  2  0  0  0  0
 16  6  1  0  0  0  0
 16 15  1  0  0  0  0
 17 20  1  0  0  0  0
 17 15  1  0  0  0  0
 18 17  1  0  0  0  0
 19 17  1  0  0  0  0
M  RAD  3   2   2   3   3   5   2
M  END
