Coordinates from ORCA-job PhN2+~CF3COO-_B3LYPG-6-31G_dp-NX-Scan-d89-09-n800
 OpenBabel11261920123D

 20 20  0  0  1  0  0  0  0  0999 V2000
   -4.9998   -1.4933    1.3663 C   0  0  1  0  0  0  0  0  0  0  0  0
   -5.3192   -0.5337    2.2161 N   0  0  0  0  0  0  0  0  0  0  0  0
   -5.5279    0.4175    2.7934 N   0  0  0  0  0  0  0  0  0  0  0  0
   -5.9053   -1.6512    0.2362 C   0  0  0  0  0  0  0  0  0  0  0  0
   -5.3894   -1.6559   -1.0072 C   0  0  0  0  0  0  0  0  0  0  0  0
   -3.9497   -1.3197   -1.2116 C   0  0  2  0  0  0  0  0  0  0  0  0
   -3.0757   -1.7173   -0.0690 C   0  0  0  0  0  0  0  0  0  0  0  0
   -3.5713   -1.7123    1.1826 C   0  0  0  0  0  0  0  0  0  0  0  0
   -6.9719   -1.7466    0.4201 H   0  0  0  0  0  0  0  0  0  0  0  0
   -6.0142   -1.8248   -1.8782 H   0  0  0  0  0  0  0  0  0  0  0  0
   -3.5727   -1.6873   -2.1655 H   0  0  0  0  0  0  0  0  0  0  0  0
   -2.0297   -1.9316   -0.2629 H   0  0  0  0  0  0  0  0  0  0  0  0
   -2.9391   -1.8520    2.0550 H   0  0  0  0  0  0  0  0  0  0  0  0
   -4.5773    1.0678    0.5047 O   0  0  0  0  0  0  0  0  0  0  0  0
   -4.1209    1.1392   -0.6158 C   0  0  0  0  0  0  0  0  0  0  0  0
   -3.7961    0.1922   -1.4889 O   0  0  0  0  0  0  0  0  0  0  0  0
   -3.8084    2.5130   -1.2655 C   0  0  0  0  0  0  0  0  0  0  0  0
   -2.4941    2.6166   -1.5410 F   0  0  0  0  0  0  0  0  0  0  0  0
   -4.4912    2.6636   -2.4161 F   0  0  0  0  0  0  0  0  0  0  0  0
   -4.1462    3.5089   -0.4406 F   0  0  0  0  0  0  0  0  0  0  0  0
  1  2  1  6  0  0  0
  2  3  1  0  0  0  0
  4  9  1  0  0  0  0
  4  1  1  0  0  0  0
  5  4  2  0  0  0  0
  6 11  1  6  0  0  0
  6  5  1  0  0  0  0
  6  7  1  0  0  0  0
  7  8  2  0  0  0  0
  8  1  1  0  0  0  0
  8 13  1  0  0  0  0
 10  5  1  0  0  0  0
 12  7  1  0  0  0  0
 15 14  2  0  0  0  0
 16  6  1  0  0  0  0
 16 15  1  0  0  0  0
 17 15  1  0  0  0  0
 17 20  1  0  0  0  0
 18 17  1  0  0  0  0
 19 17  1  0  0  0  0
M  RAD  3   1   2   2   2   3   3
M  END
