Coordinates from ORCA-job PhN2+~CF3COO-_B3LYPG-6-31G_dp-NX-Scan-d89-09-n800
 OpenBabel11261920123D

 20 20  0  0  0  0  0  0  0  0999 V2000
   -3.8307   -1.1141    0.2202 C   0  0  0  0  0  0  0  0  0  0  0  0
   -3.4731    0.1282    0.8135 N   0  0  0  0  0  0  0  0  0  0  0  0
   -3.9000    1.2606    0.5327 N   0  0  0  0  0  0  0  0  0  0  0  0
   -4.6888   -1.3877   -0.8688 C   0  0  0  0  0  0  0  0  0  0  0  0
   -4.8735   -2.7067   -1.2801 C   0  0  0  0  0  0  0  0  0  0  0  0
   -4.2284   -3.7616   -0.6310 C   0  0  0  0  0  0  0  0  0  0  0  0
   -3.3788   -3.4990    0.4458 C   0  0  0  0  0  0  0  0  0  0  0  0
   -3.1814   -2.1873    0.8616 C   0  0  0  0  0  0  0  0  0  0  0  0
   -5.2021   -0.5961   -1.3906 H   0  0  0  0  0  0  0  0  0  0  0  0
   -5.5317   -2.9095   -2.1198 H   0  0  0  0  0  0  0  0  0  0  0  0
   -4.3870   -4.7827   -0.9650 H   0  0  0  0  0  0  0  0  0  0  0  0
   -2.8719   -4.3117    0.9561 H   0  0  0  0  0  0  0  0  0  0  0  0
   -2.5241   -1.9516    1.6919 H   0  0  0  0  0  0  0  0  0  0  0  0
   -4.7839    1.3154   -0.4197 O   0  0  0  0  0  0  0  0  0  0  0  0
   -5.2716    2.5639   -0.7384 C   0  0  0  0  0  0  0  0  0  0  0  0
   -6.0844    2.6699   -1.6076 O   0  0  0  0  0  0  0  0  0  0  0  0
   -4.7320    3.7852    0.0602 C   0  0  0  0  0  0  0  0  0  0  0  0
   -3.4106    3.9264   -0.1087 F   0  0  0  0  0  0  0  0  0  0  0  0
   -5.3372    4.8810   -0.4061 F   0  0  0  0  0  0  0  0  0  0  0  0
   -5.0087    3.6705    1.3657 F   0  0  0  0  0  0  0  0  0  0  0  0
  1  2  1  0  0  0  0
  1  8  2  0  0  0  0
  3  2  2  0  0  0  0
  4  1  1  0  0  0  0
  5  4  2  0  0  0  0
  5  6  1  0  0  0  0
  6  7  2  0  0  0  0
  7  8  1  0  0  0  0
  7 12  1  0  0  0  0
  8 13  1  0  0  0  0
  9  4  1  0  0  0  0
 10  5  1  0  0  0  0
 11  6  1  0  0  0  0
 14  3  1  0  0  0  0
 15 14  1  0  0  0  0
 15 17  1  0  0  0  0
 16 15  2  0  0  0  0
 17 20  1  0  0  0  0
 18 17  1  0  0  0  0
 19 17  1  0  0  0  0
M  END
