Coordinates from ORCA-job PhN2+~CF3COO-_B3LYPG-6-31G_dp-NX-Scan-d89-09-n800
 OpenBabel11261920123D

 20 20  0  0  1  0  0  0  0  0999 V2000
   -5.0201   -1.4313    1.4193 C   0  0  1  0  0  0  0  0  0  0  0  0
   -5.4882   -1.0874    2.5965 N   0  0  0  0  0  0  0  0  0  0  0  0
   -5.8895   -0.7557    3.6103 N   0  0  0  0  0  0  0  0  0  0  0  0
   -5.9186   -1.5056    0.2886 C   0  0  0  0  0  0  0  0  0  0  0  0
   -5.4084   -1.4888   -0.9574 C   0  0  0  0  0  0  0  0  0  0  0  0
   -3.9539   -1.2465   -1.1929 C   0  0  2  0  0  0  0  0  0  0  0  0
   -3.0887   -1.5544   -0.0155 C   0  0  0  0  0  0  0  0  0  0  0  0
   -3.5926   -1.5705    1.2331 C   0  0  0  0  0  0  0  0  0  0  0  0
   -6.9860   -1.5895    0.4699 H   0  0  0  0  0  0  0  0  0  0  0  0
   -6.0558   -1.5840   -1.8229 H   0  0  0  0  0  0  0  0  0  0  0  0
   -3.6011   -1.7471   -2.0964 H   0  0  0  0  0  0  0  0  0  0  0  0
   -2.0269   -1.6981   -0.1872 H   0  0  0  0  0  0  0  0  0  0  0  0
   -2.9591   -1.7012    2.1050 H   0  0  0  0  0  0  0  0  0  0  0  0
   -4.4870    1.1848    0.2895 O   0  0  0  0  0  0  0  0  0  0  0  0
   -4.0315    1.2067   -0.8293 C   0  0  0  0  0  0  0  0  0  0  0  0
   -3.7301    0.1999   -1.6429 O   0  0  0  0  0  0  0  0  0  0  0  0
   -3.6946    2.5378   -1.5477 C   0  0  0  0  0  0  0  0  0  0  0  0
   -2.3787    2.6030   -1.8280 F   0  0  0  0  0  0  0  0  0  0  0  0
   -4.3749    2.6408   -2.7051 F   0  0  0  0  0  0  0  0  0  0  0  0
   -4.0142    3.5803   -0.7746 F   0  0  0  0  0  0  0  0  0  0  0  0
  1  2  1  6  0  0  0
  2  3  1  0  0  0  0
  4  9  1  0  0  0  0
  4  1  1  0  0  0  0
  5  4  2  0  0  0  0
  6 11  1  6  0  0  0
  6  5  1  0  0  0  0
  6  7  1  0  0  0  0
  7  8  2  0  0  0  0
  8  1  1  0  0  0  0
  8 13  1  0  0  0  0
 10  5  1  0  0  0  0
 12  7  1  0  0  0  0
 15 14  2  0  0  0  0
 16  6  1  0  0  0  0
 16 15  1  0  0  0  0
 17 15  1  0  0  0  0
 17 20  1  0  0  0  0
 18 17  1  0  0  0  0
 19 17  1  0  0  0  0
M  RAD  3   1   2   2   2   3   3
M  END
