Coordinates from ORCA-job PhN2+~CF3COO-_B3LYPG-6-31G_dp-NX-Scan-d89-09-n800
 OpenBabel11261920123D

 20 20  0  0  1  0  0  0  0  0999 V2000
   -5.1679   -1.7486    1.5528 C   0  0  0  0  0  0  0  0  0  0  0  0
   -5.6603   -2.0386    2.7359 N   0  0  0  0  0  0  0  0  0  0  0  0
   -6.0882   -2.2602    3.7700 N   0  0  0  0  0  0  0  0  0  0  0  0
   -6.0047   -1.0948    0.5695 C   0  0  0  0  0  0  0  0  0  0  0  0
   -5.4454   -0.6173   -0.5586 C   0  0  0  0  0  0  0  0  0  0  0  0
   -3.9596   -0.5786   -0.7216 C   0  0  2  0  0  0  0  0  0  0  0  0
   -3.2453   -1.5991    0.1038 C   0  0  0  0  0  0  0  0  0  0  0  0
   -3.7952   -2.0820    1.2341 C   0  0  0  0  0  0  0  0  0  0  0  0
   -7.0736   -1.0319    0.7491 H   0  0  0  0  0  0  0  0  0  0  0  0
   -6.0565   -0.1609   -1.3283 H   0  0  0  0  0  0  0  0  0  0  0  0
   -3.6477   -0.6043   -1.7649 H   0  0  0  0  0  0  0  0  0  0  0  0
   -2.2317   -1.8644   -0.1747 H   0  0  0  0  0  0  0  0  0  0  0  0
   -3.2477   -2.7423    1.8997 H   0  0  0  0  0  0  0  0  0  0  0  0
   -3.4743    2.9644   -0.1364 O   0  0  0  0  0  0  0  0  0  0  0  0
   -3.5367    1.9275   -0.7469 C   0  0  0  0  0  0  0  0  0  0  0  0
   -3.4761    0.7441   -0.1427 O   0  0  0  0  0  0  0  0  0  0  0  0
   -3.6258    1.9486   -2.2965 C   0  0  0  0  0  0  0  0  0  0  0  0
   -2.6440    1.1952   -2.8437 F   0  0  0  0  0  0  0  0  0  0  0  0
   -4.8088    1.4468   -2.7282 F   0  0  0  0  0  0  0  0  0  0  0  0
   -3.5103    3.1895   -2.7604 F   0  0  0  0  0  0  0  0  0  0  0  0
  1  2  1  0  0  0  0
  2  3  1  0  0  0  0
  4  9  1  0  0  0  0
  4  1  2  0  0  0  0
  5  4  1  0  0  0  0
  6 11  1  6  0  0  0
  6  5  1  0  0  0  0
  6 16  1  0  0  0  0
  6  7  1  0  0  0  0
  7  8  2  0  0  0  0
  8  1  1  0  0  0  0
  8 13  1  0  0  0  0
 10  5  1  0  0  0  0
 12  7  1  0  0  0  0
 15 16  1  0  0  0  0
 15 14  2  0  0  0  0
 17 15  1  0  0  0  0
 18 17  1  0  0  0  0
 19 17  1  0  0  0  0
 20 17  1  0  0  0  0
M  RAD  3   2   2   3   3   5   2
M  END
