Coordinates from ORCA-job PhN2+~CF3COO-_B3LYPG-6-31G_dp-NX-Scan-d89-09-n800
 OpenBabel11261920123D

 20 20  0  0  1  0  0  0  0  0999 V2000
   -5.0034   -1.5330    1.3786 C   0  0  1  0  0  0  0  0  0  0  0  0
   -5.2866   -0.4747    2.1451 N   0  0  0  0  0  0  0  0  0  0  0  0
   -5.3854    0.6075    2.4544 N   0  0  0  0  0  0  0  0  0  0  0  0
   -5.9079   -1.6901    0.2471 C   0  0  0  0  0  0  0  0  0  0  0  0
   -5.3918   -1.6857   -0.9982 C   0  0  0  0  0  0  0  0  0  0  0  0
   -3.9583   -1.3294   -1.1971 C   0  0  2  0  0  0  0  0  0  0  0  0
   -3.0815   -1.7441   -0.0655 C   0  0  0  0  0  0  0  0  0  0  0  0
   -3.5746   -1.7477    1.1891 C   0  0  0  0  0  0  0  0  0  0  0  0
   -6.9747   -1.7920    0.4282 H   0  0  0  0  0  0  0  0  0  0  0  0
   -6.0129   -1.8667   -1.8695 H   0  0  0  0  0  0  0  0  0  0  0  0
   -3.5775   -1.6627   -2.1616 H   0  0  0  0  0  0  0  0  0  0  0  0
   -2.0386   -1.9679   -0.2655 H   0  0  0  0  0  0  0  0  0  0  0  0
   -2.9375   -1.8911    2.0577 H   0  0  0  0  0  0  0  0  0  0  0  0
   -4.6100    1.0737    0.5465 O   0  0  0  0  0  0  0  0  0  0  0  0
   -4.1433    1.1460   -0.5748 C   0  0  0  0  0  0  0  0  0  0  0  0
   -3.8160    0.2032   -1.4459 O   0  0  0  0  0  0  0  0  0  0  0  0
   -3.8248    2.5236   -1.2160 C   0  0  0  0  0  0  0  0  0  0  0  0
   -2.5082    2.6276   -1.4794 F   0  0  0  0  0  0  0  0  0  0  0  0
   -4.4977    2.6796   -2.3715 F   0  0  0  0  0  0  0  0  0  0  0  0
   -4.1692    3.5166   -0.3896 F   0  0  0  0  0  0  0  0  0  0  0  0
  1  2  1  6  0  0  0
  2  3  1  0  0  0  0
  4  9  1  0  0  0  0
  4  1  1  0  0  0  0
  5  4  2  0  0  0  0
  6 11  1  6  0  0  0
  6  5  1  0  0  0  0
  6  7  1  0  0  0  0
  7  8  2  0  0  0  0
  8  1  1  0  0  0  0
  8 13  1  0  0  0  0
 10  5  1  0  0  0  0
 12  7  1  0  0  0  0
 15 14  2  0  0  0  0
 16  6  1  0  0  0  0
 16 15  1  0  0  0  0
 17 15  1  0  0  0  0
 17 20  1  0  0  0  0
 18 17  1  0  0  0  0
 19 17  1  0  0  0  0
M  RAD  3   1   2   2   2   3   3
M  END
