Coordinates from ORCA-job PhN2+~CF3COO-_B3LYPG-6-31G_dp-NX-Scan-d89-09-n800
 OpenBabel11261920123D

 20 20  0  0  1  0  0  0  0  0999 V2000
   -5.0229   -1.4318    1.4234 C   0  0  1  0  0  0  0  0  0  0  0  0
   -5.4946   -1.1122    2.6061 N   0  0  0  0  0  0  0  0  0  0  0  0
   -5.8996   -0.8039    3.6260 N   0  0  0  0  0  0  0  0  0  0  0  0
   -5.9205   -1.5011    0.2917 C   0  0  0  0  0  0  0  0  0  0  0  0
   -5.4098   -1.4807   -0.9540 C   0  0  0  0  0  0  0  0  0  0  0  0
   -3.9547   -1.2422   -1.1900 C   0  0  2  0  0  0  0  0  0  0  0  0
   -3.0903   -1.5467   -0.0110 C   0  0  0  0  0  0  0  0  0  0  0  0
   -3.5950   -1.5662    1.2371 C   0  0  0  0  0  0  0  0  0  0  0  0
   -6.9880   -1.5857    0.4720 H   0  0  0  0  0  0  0  0  0  0  0  0
   -6.0575   -1.5718   -1.8198 H   0  0  0  0  0  0  0  0  0  0  0  0
   -3.6028   -1.7481   -2.0910 H   0  0  0  0  0  0  0  0  0  0  0  0
   -2.0277   -1.6866   -0.1817 H   0  0  0  0  0  0  0  0  0  0  0  0
   -2.9615   -1.6977    2.1089 H   0  0  0  0  0  0  0  0  0  0  0  0
   -4.4750    1.1920    0.2854 O   0  0  0  0  0  0  0  0  0  0  0  0
   -4.0222    1.2106   -0.8344 C   0  0  0  0  0  0  0  0  0  0  0  0
   -3.7274    0.2007   -1.6467 O   0  0  0  0  0  0  0  0  0  0  0  0
   -3.6905    2.5391   -1.5599 C   0  0  0  0  0  0  0  0  0  0  0  0
   -2.3760    2.6046   -1.8467 F   0  0  0  0  0  0  0  0  0  0  0  0
   -4.3765    2.6366   -2.7143 F   0  0  0  0  0  0  0  0  0  0  0  0
   -4.0075    3.5843   -0.7894 F   0  0  0  0  0  0  0  0  0  0  0  0
  1  2  1  6  0  0  0
  2  3  1  0  0  0  0
  4  9  1  0  0  0  0
  4  1  1  0  0  0  0
  5  4  2  0  0  0  0
  6 11  1  6  0  0  0
  6  5  1  0  0  0  0
  6  7  1  0  0  0  0
  7  8  2  0  0  0  0
  8  1  1  0  0  0  0
  8 13  1  0  0  0  0
 10  5  1  0  0  0  0
 12  7  1  0  0  0  0
 15 14  2  0  0  0  0
 16  6  1  0  0  0  0
 16 15  1  0  0  0  0
 17 15  1  0  0  0  0
 17 20  1  0  0  0  0
 18 17  1  0  0  0  0
 19 17  1  0  0  0  0
M  RAD  3   1   2   2   2   3   3
M  END
