Coordinates from ORCA-job PhN2+~CF3COO-_B3LYPG-6-31G_dp-NX-Scan-d89-09-n800
 OpenBabel11261920123D

 20 20  0  0  1  0  0  0  0  0999 V2000
   -4.9978   -1.4632    1.3643 C   0  0  1  0  0  0  0  0  0  0  0  0
   -5.3649   -0.6419    2.3249 N   0  0  0  0  0  0  0  0  0  0  0  0
   -5.6469    0.1574    3.0797 N   0  0  0  0  0  0  0  0  0  0  0  0
   -5.9035   -1.6076    0.2380 C   0  0  0  0  0  0  0  0  0  0  0  0
   -5.3895   -1.6227   -1.0064 C   0  0  0  0  0  0  0  0  0  0  0  0
   -3.9457   -1.3112   -1.2195 C   0  0  2  0  0  0  0  0  0  0  0  0
   -3.0744   -1.6861   -0.0675 C   0  0  0  0  0  0  0  0  0  0  0  0
   -3.5715   -1.6704    1.1836 C   0  0  0  0  0  0  0  0  0  0  0  0
   -6.9704   -1.6926    0.4240 H   0  0  0  0  0  0  0  0  0  0  0  0
   -6.0209   -1.7788   -1.8748 H   0  0  0  0  0  0  0  0  0  0  0  0
   -3.5739   -1.7095   -2.1633 H   0  0  0  0  0  0  0  0  0  0  0  0
   -2.0250   -1.8892   -0.2547 H   0  0  0  0  0  0  0  0  0  0  0  0
   -2.9404   -1.8009    2.0579 H   0  0  0  0  0  0  0  0  0  0  0  0
   -4.5606    1.0764    0.4471 O   0  0  0  0  0  0  0  0  0  0  0  0
   -4.1001    1.1442   -0.6707 C   0  0  0  0  0  0  0  0  0  0  0  0
   -3.7760    0.1893   -1.5351 O   0  0  0  0  0  0  0  0  0  0  0  0
   -3.7839    2.5134   -1.3270 C   0  0  0  0  0  0  0  0  0  0  0  0
   -2.4686    2.6140   -1.5990 F   0  0  0  0  0  0  0  0  0  0  0  0
   -4.4627    2.6583   -2.4808 F   0  0  0  0  0  0  0  0  0  0  0  0
   -4.1233    3.5143   -0.5088 F   0  0  0  0  0  0  0  0  0  0  0  0
  1  2  1  6  0  0  0
  2  3  1  0  0  0  0
  4  9  1  0  0  0  0
  4  1  1  0  0  0  0
  5  4  2  0  0  0  0
  6 11  1  6  0  0  0
  6  5  1  0  0  0  0
  6  7  1  0  0  0  0
  7  8  2  0  0  0  0
  8  1  1  0  0  0  0
  8 13  1  0  0  0  0
 10  5  1  0  0  0  0
 12  7  1  0  0  0  0
 15 14  2  0  0  0  0
 16  6  1  0  0  0  0
 16 15  1  0  0  0  0
 17 15  1  0  0  0  0
 17 20  1  0  0  0  0
 18 17  1  0  0  0  0
 19 17  1  0  0  0  0
M  RAD  3   1   2   2   2   3   3
M  END
