Coordinates from ORCA-job PhN2+~CF3COO-_B3LYPG-6-31G_dp-NX-Scan-d89-09-n800
 OpenBabel11261920123D

 20 20  0  0  1  0  0  0  0  0999 V2000
   -5.1412   -1.6809    1.5302 C   0  0  1  0  0  0  0  0  0  0  0  0
   -5.6071   -1.8222    2.7508 N   0  0  0  0  0  0  0  0  0  0  0  0
   -6.0118   -1.9054    3.8140 N   0  0  0  0  0  0  0  0  0  0  0  0
   -5.9767   -1.0785    0.5125 C   0  0  0  0  0  0  0  0  0  0  0  0
   -5.4113   -0.6816   -0.6440 C   0  0  0  0  0  0  0  0  0  0  0  0
   -3.9215   -0.6562   -0.7802 C   0  0  2  0  0  0  0  0  0  0  0  0
   -3.2424   -1.7001    0.0470 C   0  0  0  0  0  0  0  0  0  0  0  0
   -3.7934   -2.1041    1.2078 C   0  0  0  0  0  0  0  0  0  0  0  0
   -7.0440   -0.9910    0.6917 H   0  0  0  0  0  0  0  0  0  0  0  0
   -6.0132   -0.2733   -1.4467 H   0  0  0  0  0  0  0  0  0  0  0  0
   -3.5873   -0.6617   -1.8170 H   0  0  0  0  0  0  0  0  0  0  0  0
   -2.2534   -2.0334   -0.2458 H   0  0  0  0  0  0  0  0  0  0  0  0
   -3.2708   -2.7634    1.8941 H   0  0  0  0  0  0  0  0  0  0  0  0
   -3.6706    2.8470    0.0187 O   0  0  0  0  0  0  0  0  0  0  0  0
   -3.6137    1.8580   -0.6673 C   0  0  0  0  0  0  0  0  0  0  0  0
   -3.4295    0.6438   -0.1550 O   0  0  0  0  0  0  0  0  0  0  0  0
   -3.6654    1.9798   -2.2142 C   0  0  0  0  0  0  0  0  0  0  0  0
   -2.6434    1.2997   -2.7817 F   0  0  0  0  0  0  0  0  0  0  0  0
   -4.8170    1.4642   -2.7096 F   0  0  0  0  0  0  0  0  0  0  0  0
   -3.5861    3.2524   -2.5934 F   0  0  0  0  0  0  0  0  0  0  0  0
  1  2  1  1  0  0  0
  2  3  1  0  0  0  0
  4  9  1  0  0  0  0
  4  1  1  0  0  0  0
  5  4  2  0  0  0  0
  6 11  1  6  0  0  0
  6  5  1  0  0  0  0
  6 16  1  0  0  0  0
  6  7  1  0  0  0  0
  7  8  2  0  0  0  0
  8  1  1  0  0  0  0
  8 13  1  0  0  0  0
 10  5  1  0  0  0  0
 12  7  1  0  0  0  0
 15 16  1  0  0  0  0
 15 14  2  0  0  0  0
 17 15  1  0  0  0  0
 18 17  1  0  0  0  0
 19 17  1  0  0  0  0
 20 17  1  0  0  0  0
M  RAD  3   1   2   2   2   3   3
M  END
