Coordinates from ORCA-job PhN2+~CF3COO-_B3LYPG-6-31G_dp-NX-Scan-d89-09-n800
 OpenBabel11261920123D

 20 20  0  0  1  0  0  0  0  0999 V2000
   -5.1408   -1.6786    1.5293 C   0  0  1  0  0  0  0  0  0  0  0  0
   -5.6075   -1.8183    2.7494 N   0  0  0  0  0  0  0  0  0  0  0  0
   -6.0131   -1.8998    3.8122 N   0  0  0  0  0  0  0  0  0  0  0  0
   -5.9751   -1.0763    0.5108 C   0  0  0  0  0  0  0  0  0  0  0  0
   -5.4087   -0.6814   -0.6457 C   0  0  0  0  0  0  0  0  0  0  0  0
   -3.9188   -0.6582   -0.7809 C   0  0  2  0  0  0  0  0  0  0  0  0
   -3.2413   -1.7022    0.0472 C   0  0  0  0  0  0  0  0  0  0  0  0
   -3.7935   -2.1043    1.2080 C   0  0  0  0  0  0  0  0  0  0  0  0
   -7.0423   -0.9874    0.6892 H   0  0  0  0  0  0  0  0  0  0  0  0
   -6.0096   -0.2734   -1.4493 H   0  0  0  0  0  0  0  0  0  0  0  0
   -3.5840   -0.6645   -1.8175 H   0  0  0  0  0  0  0  0  0  0  0  0
   -2.2529   -2.0375   -0.2451 H   0  0  0  0  0  0  0  0  0  0  0  0
   -3.2723   -2.7639    1.8951 H   0  0  0  0  0  0  0  0  0  0  0  0
   -3.6714    2.8431    0.0223 O   0  0  0  0  0  0  0  0  0  0  0  0
   -3.6127    1.8558   -0.6658 C   0  0  0  0  0  0  0  0  0  0  0  0
   -3.4257    0.6413   -0.1557 O   0  0  0  0  0  0  0  0  0  0  0  0
   -3.6690    1.9799   -2.2124 C   0  0  0  0  0  0  0  0  0  0  0  0
   -2.6474    1.3025   -2.7838 F   0  0  0  0  0  0  0  0  0  0  0  0
   -4.8210    1.4632   -2.7055 F   0  0  0  0  0  0  0  0  0  0  0  0
   -3.5929    3.2533   -2.5898 F   0  0  0  0  0  0  0  0  0  0  0  0
  1  2  1  1  0  0  0
  2  3  1  0  0  0  0
  4  9  1  0  0  0  0
  4  1  1  0  0  0  0
  5  4  2  0  0  0  0
  6 11  1  6  0  0  0
  6  5  1  0  0  0  0
  6 16  1  0  0  0  0
  6  7  1  0  0  0  0
  7  8  2  0  0  0  0
  8  1  1  0  0  0  0
  8 13  1  0  0  0  0
 10  5  1  0  0  0  0
 12  7  1  0  0  0  0
 15 16  1  0  0  0  0
 15 14  2  0  0  0  0
 17 15  1  0  0  0  0
 18 17  1  0  0  0  0
 19 17  1  0  0  0  0
 20 17  1  0  0  0  0
M  RAD  3   1   2   2   2   3   3
M  END
