Coordinates from ORCA-job PhN2+~CF3COO-_B3LYPG-6-31G_dp-NX-Scan-d89-09-n800
 OpenBabel11261920123D

 20 20  0  0  1  0  0  0  0  0999 V2000
   -5.0968   -1.5572    1.4793 C   0  0  1  0  0  0  0  0  0  0  0  0
   -5.5313   -1.4698    2.7164 N   0  0  0  0  0  0  0  0  0  0  0  0
   -5.9096   -1.3419    3.7844 N   0  0  0  0  0  0  0  0  0  0  0  0
   -5.9110   -1.0294    0.4027 C   0  0  0  0  0  0  0  0  0  0  0  0
   -5.3204   -0.7723   -0.7808 C   0  0  0  0  0  0  0  0  0  0  0  0
   -3.8253   -0.7927   -0.8657 C   0  0  2  0  0  0  0  0  0  0  0  0
   -3.2232   -1.8545   -0.0001 C   0  0  0  0  0  0  0  0  0  0  0  0
   -3.7928   -2.1234    1.1911 C   0  0  0  0  0  0  0  0  0  0  0  0
   -6.9756   -0.8901    0.5636 H   0  0  0  0  0  0  0  0  0  0  0  0
   -5.8952   -0.4422   -1.6365 H   0  0  0  0  0  0  0  0  0  0  0  0
   -3.4528   -0.8099   -1.8899 H   0  0  0  0  0  0  0  0  0  0  0  0
   -2.2755   -2.2966   -0.2847 H   0  0  0  0  0  0  0  0  0  0  0  0
   -3.3246   -2.7723    1.9249 H   0  0  0  0  0  0  0  0  0  0  0  0
   -3.9376    2.5651    0.2652 O   0  0  0  0  0  0  0  0  0  0  0  0
   -3.7082    1.7087   -0.5502 C   0  0  0  0  0  0  0  0  0  0  0  0
   -3.2947    0.4852   -0.2191 O   0  0  0  0  0  0  0  0  0  0  0  0
   -3.7857    2.0298   -2.0680 C   0  0  0  0  0  0  0  0  0  0  0  0
   -2.7792    1.4301   -2.7399 F   0  0  0  0  0  0  0  0  0  0  0  0
   -4.9481    1.5832   -2.6006 F   0  0  0  0  0  0  0  0  0  0  0  0
   -3.7122    3.3433   -2.2800 F   0  0  0  0  0  0  0  0  0  0  0  0
  1  2  1  1  0  0  0
  2  3  1  0  0  0  0
  4  9  1  0  0  0  0
  4  1  1  0  0  0  0
  5  4  2  0  0  0  0
  6 11  1  6  0  0  0
  6  5  1  0  0  0  0
  6 16  1  0  0  0  0
  6  7  1  0  0  0  0
  7  8  2  0  0  0  0
  8  1  1  0  0  0  0
  8 13  1  0  0  0  0
 10  5  1  0  0  0  0
 12  7  1  0  0  0  0
 15 16  1  0  0  0  0
 15 14  2  0  0  0  0
 17 15  1  0  0  0  0
 18 17  1  0  0  0  0
 19 17  1  0  0  0  0
 20 17  1  0  0  0  0
M  RAD  3   1   2   2   2   3   3
M  END
