Coordinates from ORCA-job PhN2+~CF3COO-_B3LYPG-6-31G_dp-NX-Scan-d89-09-n800
 OpenBabel11261920123D

 20 20  0  0  0  0  0  0  0  0999 V2000
   -3.8284   -1.1056    0.2173 C   0  0  0  0  0  0  0  0  0  0  0  0
   -3.4603    0.1362    0.8155 N   0  0  0  0  0  0  0  0  0  0  0  0
   -3.9278    1.2604    0.4963 N   0  0  0  0  0  0  0  0  0  0  0  0
   -4.6831   -1.3816   -0.8743 C   0  0  0  0  0  0  0  0  0  0  0  0
   -4.8723   -2.7007   -1.2859 C   0  0  0  0  0  0  0  0  0  0  0  0
   -4.2349   -3.7580   -0.6345 C   0  0  0  0  0  0  0  0  0  0  0  0
   -3.3883   -3.4952    0.4449 C   0  0  0  0  0  0  0  0  0  0  0  0
   -3.1872   -2.1838    0.8593 C   0  0  0  0  0  0  0  0  0  0  0  0
   -5.1948   -0.5934   -1.4040 H   0  0  0  0  0  0  0  0  0  0  0  0
   -5.5284   -2.9008   -2.1282 H   0  0  0  0  0  0  0  0  0  0  0  0
   -4.3963   -4.7790   -0.9678 H   0  0  0  0  0  0  0  0  0  0  0  0
   -2.8857   -4.3088    0.9585 H   0  0  0  0  0  0  0  0  0  0  0  0
   -2.5312   -1.9500    1.6914 H   0  0  0  0  0  0  0  0  0  0  0  0
   -4.7362    1.3033   -0.3627 O   0  0  0  0  0  0  0  0  0  0  0  0
   -5.2623    2.5521   -0.7171 C   0  0  0  0  0  0  0  0  0  0  0  0
   -6.0763    2.6074   -1.5842 O   0  0  0  0  0  0  0  0  0  0  0  0
   -4.7322    3.7903    0.0612 C   0  0  0  0  0  0  0  0  0  0  0  0
   -3.4154    3.9424   -0.1195 F   0  0  0  0  0  0  0  0  0  0  0  0
   -5.3558    4.8683   -0.4218 F   0  0  0  0  0  0  0  0  0  0  0  0
   -5.0029    3.6897    1.3674 F   0  0  0  0  0  0  0  0  0  0  0  0
  1  2  1  0  0  0  0
  1  8  2  0  0  0  0
  3  2  2  0  0  0  0
  4  1  1  0  0  0  0
  5  4  2  0  0  0  0
  5  6  1  0  0  0  0
  6  7  2  0  0  0  0
  7  8  1  0  0  0  0
  7 12  1  0  0  0  0
  8 13  1  0  0  0  0
  9  4  1  0  0  0  0
 10  5  1  0  0  0  0
 11  6  1  0  0  0  0
 14  3  1  0  0  0  0
 15 14  1  0  0  0  0
 15 17  1  0  0  0  0
 16 15  2  0  0  0  0
 17 20  1  0  0  0  0
 18 17  1  0  0  0  0
 19 17  1  0  0  0  0
M  END
