Coordinates from ORCA-job PhN2+~CF3COO-_B3LYPG-6-31G_dp-NX-Scan-d89-09-n800
 OpenBabel11261920123D

 20 20  0  0  0  0  0  0  0  0999 V2000
   -3.8298   -1.1099    0.2182 C   0  0  0  0  0  0  0  0  0  0  0  0
   -3.4670    0.1320    0.8138 N   0  0  0  0  0  0  0  0  0  0  0  0
   -3.9109    1.2611    0.5174 N   0  0  0  0  0  0  0  0  0  0  0  0
   -4.6862   -1.3848   -0.8720 C   0  0  0  0  0  0  0  0  0  0  0  0
   -4.8729   -2.7039   -1.2829 C   0  0  0  0  0  0  0  0  0  0  0  0
   -4.2314   -3.7597   -0.6323 C   0  0  0  0  0  0  0  0  0  0  0  0
   -3.3834   -3.4968    0.4458 C   0  0  0  0  0  0  0  0  0  0  0  0
   -3.1842   -2.1851    0.8604 C   0  0  0  0  0  0  0  0  0  0  0  0
   -5.1987   -0.5948   -1.3977 H   0  0  0  0  0  0  0  0  0  0  0  0
   -5.5299   -2.9058   -2.1239 H   0  0  0  0  0  0  0  0  0  0  0  0
   -4.3913   -4.7809   -0.9657 H   0  0  0  0  0  0  0  0  0  0  0  0
   -2.8785   -4.3098    0.9579 H   0  0  0  0  0  0  0  0  0  0  0  0
   -2.5276   -1.9498    1.6914 H   0  0  0  0  0  0  0  0  0  0  0  0
   -4.7641    1.3093   -0.3955 O   0  0  0  0  0  0  0  0  0  0  0  0
   -5.2673    2.5572   -0.7280 C   0  0  0  0  0  0  0  0  0  0  0  0
   -6.0809    2.6423   -1.5964 O   0  0  0  0  0  0  0  0  0  0  0  0
   -4.7318    3.7865    0.0611 C   0  0  0  0  0  0  0  0  0  0  0  0
   -3.4125    3.9331   -0.1133 F   0  0  0  0  0  0  0  0  0  0  0  0
   -5.3455    4.8741   -0.4132 F   0  0  0  0  0  0  0  0  0  0  0  0
   -5.0057    3.6790    1.3670 F   0  0  0  0  0  0  0  0  0  0  0  0
  1  2  1  0  0  0  0
  1  8  2  0  0  0  0
  3  2  2  0  0  0  0
  4  1  1  0  0  0  0
  5  4  2  0  0  0  0
  5  6  1  0  0  0  0
  6  7  2  0  0  0  0
  7  8  1  0  0  0  0
  7 12  1  0  0  0  0
  8 13  1  0  0  0  0
  9  4  1  0  0  0  0
 10  5  1  0  0  0  0
 11  6  1  0  0  0  0
 14  3  1  0  0  0  0
 15 14  1  0  0  0  0
 15 17  1  0  0  0  0
 16 15  2  0  0  0  0
 17 20  1  0  0  0  0
 18 17  1  0  0  0  0
 19 17  1  0  0  0  0
M  END
