Coordinates from ORCA-job PhN2+~CF3COO-_B3LYPG-6-31G_dp-NX-Scan-d89-09-n800
 OpenBabel11261920123D

 20 20  0  0  1  0  0  0  0  0999 V2000
   -4.9993   -1.4918    1.3661 C   0  0  1  0  0  0  0  0  0  0  0  0
   -5.3204   -0.5377    2.2210 N   0  0  0  0  0  0  0  0  0  0  0  0
   -5.5326    0.4069    2.8080 N   0  0  0  0  0  0  0  0  0  0  0  0
   -5.9049   -1.6488    0.2363 C   0  0  0  0  0  0  0  0  0  0  0  0
   -5.3892   -1.6543   -1.0072 C   0  0  0  0  0  0  0  0  0  0  0  0
   -3.9493   -1.3194   -1.2122 C   0  0  2  0  0  0  0  0  0  0  0  0
   -3.0755   -1.7166   -0.0692 C   0  0  0  0  0  0  0  0  0  0  0  0
   -3.5710   -1.7109    1.1824 C   0  0  0  0  0  0  0  0  0  0  0  0
   -6.9716   -1.7433    0.4203 H   0  0  0  0  0  0  0  0  0  0  0  0
   -6.0144   -1.8225   -1.8781 H   0  0  0  0  0  0  0  0  0  0  0  0
   -3.5726   -1.6882   -2.1658 H   0  0  0  0  0  0  0  0  0  0  0  0
   -2.0294   -1.9308   -0.2629 H   0  0  0  0  0  0  0  0  0  0  0  0
   -2.9388   -1.8504    2.0548 H   0  0  0  0  0  0  0  0  0  0  0  0
   -4.5796    1.0681    0.5011 O   0  0  0  0  0  0  0  0  0  0  0  0
   -4.1209    1.1393   -0.6185 C   0  0  0  0  0  0  0  0  0  0  0  0
   -3.7948    0.1920   -1.4907 O   0  0  0  0  0  0  0  0  0  0  0  0
   -3.8076    2.5129   -1.2681 C   0  0  0  0  0  0  0  0  0  0  0  0
   -2.4928    2.6167   -1.5414 F   0  0  0  0  0  0  0  0  0  0  0  0
   -4.4883    2.6630   -2.4199 F   0  0  0  0  0  0  0  0  0  0  0  0
   -4.1470    3.5090   -0.4442 F   0  0  0  0  0  0  0  0  0  0  0  0
  1  2  1  6  0  0  0
  2  3  1  0  0  0  0
  4  9  1  0  0  0  0
  4  1  1  0  0  0  0
  5  4  2  0  0  0  0
  6 11  1  6  0  0  0
  6  5  1  0  0  0  0
  6  7  1  0  0  0  0
  7  8  2  0  0  0  0
  8  1  1  0  0  0  0
  8 13  1  0  0  0  0
 10  5  1  0  0  0  0
 12  7  1  0  0  0  0
 15 14  2  0  0  0  0
 16  6  1  0  0  0  0
 16 15  1  0  0  0  0
 17 15  1  0  0  0  0
 17 20  1  0  0  0  0
 18 17  1  0  0  0  0
 19 17  1  0  0  0  0
M  RAD  3   1   2   2   2   3   3
M  END
