Coordinates from ORCA-job PhN2+~CF3COO-_B3LYPG-6-31G_dp-NX-Scan-d89-09-n800
 OpenBabel11261920123D

 20 20  0  0  0  0  0  0  0  0999 V2000
   -3.8313   -1.1194    0.2236 C   0  0  0  0  0  0  0  0  0  0  0  0
   -3.4803    0.1237    0.8140 N   0  0  0  0  0  0  0  0  0  0  0  0
   -3.8899    1.2586    0.5494 N   0  0  0  0  0  0  0  0  0  0  0  0
   -4.6915   -1.3903   -0.8638 C   0  0  0  0  0  0  0  0  0  0  0  0
   -4.8743   -2.7087   -1.2766 C   0  0  0  0  0  0  0  0  0  0  0  0
   -4.2250   -3.7633   -0.6304 C   0  0  0  0  0  0  0  0  0  0  0  0
   -3.3735   -3.5018    0.4451 C   0  0  0  0  0  0  0  0  0  0  0  0
   -3.1777   -2.1906    0.8633 C   0  0  0  0  0  0  0  0  0  0  0  0
   -5.2060   -0.5961   -1.3802 H   0  0  0  0  0  0  0  0  0  0  0  0
   -5.5339   -2.9118   -2.1150 H   0  0  0  0  0  0  0  0  0  0  0  0
   -4.3823   -4.7841   -0.9661 H   0  0  0  0  0  0  0  0  0  0  0  0
   -2.8642   -4.3148    0.9524 H   0  0  0  0  0  0  0  0  0  0  0  0
   -2.5195   -1.9552    1.6930 H   0  0  0  0  0  0  0  0  0  0  0  0
   -4.8037    1.3224   -0.4430 O   0  0  0  0  0  0  0  0  0  0  0  0
   -5.2772    2.5711   -0.7492 C   0  0  0  0  0  0  0  0  0  0  0  0
   -6.0877    2.6978   -1.6202 O   0  0  0  0  0  0  0  0  0  0  0  0
   -4.7326    3.7844    0.0581 C   0  0  0  0  0  0  0  0  0  0  0  0
   -3.4087    3.9181   -0.1041 F   0  0  0  0  0  0  0  0  0  0  0  0
   -5.3271    4.8889   -0.4013 F   0  0  0  0  0  0  0  0  0  0  0  0
   -5.0135    3.6641    1.3631 F   0  0  0  0  0  0  0  0  0  0  0  0
  1  2  1  0  0  0  0
  1  8  2  0  0  0  0
  3  2  2  0  0  0  0
  4  1  1  0  0  0  0
  5  4  2  0  0  0  0
  5  6  1  0  0  0  0
  6  7  2  0  0  0  0
  7  8  1  0  0  0  0
  7 12  1  0  0  0  0
  8 13  1  0  0  0  0
  9  4  1  0  0  0  0
 10  5  1  0  0  0  0
 11  6  1  0  0  0  0
 14  3  1  0  0  0  0
 15 14  1  0  0  0  0
 15 17  1  0  0  0  0
 16 15  2  0  0  0  0
 17 20  1  0  0  0  0
 18 17  1  0  0  0  0
 19 17  1  0  0  0  0
M  END
