Coordinates from ORCA-job PhN2+~CF3COO-_B3LYPG-6-31G_dp-NX-Scan-d89-09-n800
 OpenBabel11261920123D

 20 20  0  0  0  0  0  0  0  0999 V2000
   -3.8218   -1.1616    0.2526 C   0  0  0  0  0  0  0  0  0  0  0  0
   -3.5180    0.0952    0.8150 N   0  0  0  0  0  0  0  0  0  0  0  0
   -3.8399    1.2320    0.6416 N   0  0  0  0  0  0  0  0  0  0  0  0
   -4.6905   -1.4039   -0.8307 C   0  0  0  0  0  0  0  0  0  0  0  0
   -4.8699   -2.7164   -1.2597 C   0  0  0  0  0  0  0  0  0  0  0  0
   -4.2071   -3.7748   -0.6315 C   0  0  0  0  0  0  0  0  0  0  0  0
   -3.3475   -3.5296    0.4422 C   0  0  0  0  0  0  0  0  0  0  0  0
   -3.1530   -2.2254    0.8829 C   0  0  0  0  0  0  0  0  0  0  0  0
   -5.2017   -0.5849   -1.3122 H   0  0  0  0  0  0  0  0  0  0  0  0
   -5.5351   -2.9129   -2.0948 H   0  0  0  0  0  0  0  0  0  0  0  0
   -4.3613   -4.7914   -0.9806 H   0  0  0  0  0  0  0  0  0  0  0  0
   -2.8325   -4.3496    0.9314 H   0  0  0  0  0  0  0  0  0  0  0  0
   -2.4916   -2.0008    1.7128 H   0  0  0  0  0  0  0  0  0  0  0  0
   -4.9114    1.3871   -0.5512 O   0  0  0  0  0  0  0  0  0  0  0  0
   -5.3291    2.6277   -0.8135 C   0  0  0  0  0  0  0  0  0  0  0  0
   -6.1371    2.8540   -1.6802 O   0  0  0  0  0  0  0  0  0  0  0  0
   -4.7433    3.7923    0.0326 C   0  0  0  0  0  0  0  0  0  0  0  0
   -3.4067    3.8697   -0.1078 F   0  0  0  0  0  0  0  0  0  0  0  0
   -5.2722    4.9491   -0.3752 F   0  0  0  0  0  0  0  0  0  0  0  0
   -5.0303    3.6371    1.3385 F   0  0  0  0  0  0  0  0  0  0  0  0
  1  2  1  0  0  0  0
  1  8  2  0  0  0  0
  3  2  1  0  0  0  0
  4  1  1  0  0  0  0
  5  4  2  0  0  0  0
  5  6  1  0  0  0  0
  6  7  2  0  0  0  0
  7  8  1  0  0  0  0
  7 12  1  0  0  0  0
  8 13  1  0  0  0  0
  9  4  1  0  0  0  0
 10  5  1  0  0  0  0
 11  6  1  0  0  0  0
 14  3  1  0  0  0  0
 15 14  1  0  0  0  0
 15 17  1  0  0  0  0
 16 15  2  0  0  0  0
 17 20  1  0  0  0  0
 18 17  1  0  0  0  0
 19 17  1  0  0  0  0
M  RAD  2   2   2   3   2
M  END
