Coordinates from ORCA-job PhN2+~CF3COO-_B3LYPG-6-31G_dp-NX-Scan-d89-09-n800
 OpenBabel11261920123D

 20 20  0  0  1  0  0  0  0  0999 V2000
   -5.0369   -1.4518    1.4582 C   0  0  0  0  0  0  0  0  0  0  0  0
   -5.5234   -1.2879    2.6670 N   0  0  0  0  0  0  0  0  0  0  0  0
   -5.9445   -1.1276    3.7150 N   0  0  0  0  0  0  0  0  0  0  0  0
   -5.9312   -1.4810    0.3224 C   0  0  0  0  0  0  0  0  0  0  0  0
   -5.4221   -1.4252   -0.9226 C   0  0  0  0  0  0  0  0  0  0  0  0
   -3.9638   -1.2089   -1.1650 C   0  0  2  0  0  0  0  0  0  0  0  0
   -3.1002   -1.4914    0.0208 C   0  0  0  0  0  0  0  0  0  0  0  0
   -3.6067   -1.5462    1.2669 C   0  0  0  0  0  0  0  0  0  0  0  0
   -6.9991   -1.5700    0.4982 H   0  0  0  0  0  0  0  0  0  0  0  0
   -6.0743   -1.4825   -1.7880 H   0  0  0  0  0  0  0  0  0  0  0  0
   -3.6200   -1.7507   -2.0493 H   0  0  0  0  0  0  0  0  0  0  0  0
   -2.0330   -1.5974   -0.1460 H   0  0  0  0  0  0  0  0  0  0  0  0
   -2.9697   -1.6822    2.1354 H   0  0  0  0  0  0  0  0  0  0  0  0
   -4.4575    1.2565    0.2329 O   0  0  0  0  0  0  0  0  0  0  0  0
   -4.0039    1.2447   -0.8857 C   0  0  0  0  0  0  0  0  0  0  0  0
   -3.7179    0.2093   -1.6696 O   0  0  0  0  0  0  0  0  0  0  0  0
   -3.6556    2.5500   -1.6444 C   0  0  0  0  0  0  0  0  0  0  0  0
   -2.3400    2.5921   -1.9306 F   0  0  0  0  0  0  0  0  0  0  0  0
   -4.3389    2.6251   -2.8021 F   0  0  0  0  0  0  0  0  0  0  0  0
   -3.9612    3.6183   -0.9016 F   0  0  0  0  0  0  0  0  0  0  0  0
  1  2  1  0  0  0  0
  2  3  1  0  0  0  0
  4  9  1  0  0  0  0
  4  1  2  0  0  0  0
  5  4  1  0  0  0  0
  6 11  1  6  0  0  0
  6  5  1  0  0  0  0
  6  7  1  0  0  0  0
  7  8  2  0  0  0  0
  8  1  1  0  0  0  0
  8 13  1  0  0  0  0
 10  5  1  0  0  0  0
 12  7  1  0  0  0  0
 15 14  2  0  0  0  0
 16  6  1  0  0  0  0
 16 15  1  0  0  0  0
 17 20  1  0  0  0  0
 17 15  1  0  0  0  0
 18 17  1  0  0  0  0
 19 17  1  0  0  0  0
M  RAD  3   2   2   3   3   5   2
M  END
