Coordinates from ORCA-job PhN2+~CF3COO-_B3LYPG-6-31G_dp-NX-Scan-d89-09-n800
 OpenBabel11261920123D

 20 20  0  0  1  0  0  0  0  0999 V2000
   -5.0297   -1.4407    1.4419 C   0  0  0  0  0  0  0  0  0  0  0  0
   -5.5103   -1.2062    2.6411 N   0  0  0  0  0  0  0  0  0  0  0  0
   -5.9251   -0.9787    3.6787 N   0  0  0  0  0  0  0  0  0  0  0  0
   -5.9257   -1.4895    0.3080 C   0  0  0  0  0  0  0  0  0  0  0  0
   -5.4161   -1.4515   -0.9376 C   0  0  0  0  0  0  0  0  0  0  0  0
   -3.9593   -1.2248   -1.1773 C   0  0  2  0  0  0  0  0  0  0  0  0
   -3.0951   -1.5176    0.0052 C   0  0  0  0  0  0  0  0  0  0  0  0
   -3.6006   -1.5547    1.2526 C   0  0  0  0  0  0  0  0  0  0  0  0
   -6.9933   -1.5764    0.4863 H   0  0  0  0  0  0  0  0  0  0  0  0
   -6.0664   -1.5254   -1.8030 H   0  0  0  0  0  0  0  0  0  0  0  0
   -3.6118   -1.7498   -2.0696 H   0  0  0  0  0  0  0  0  0  0  0  0
   -2.0301   -1.6401   -0.1636 H   0  0  0  0  0  0  0  0  0  0  0  0
   -2.9652   -1.6887    2.1226 H   0  0  0  0  0  0  0  0  0  0  0  0
   -4.4695    1.2262    0.2554 O   0  0  0  0  0  0  0  0  0  0  0  0
   -4.0151    1.2288   -0.8633 C   0  0  0  0  0  0  0  0  0  0  0  0
   -3.7224    0.2053   -1.6597 O   0  0  0  0  0  0  0  0  0  0  0  0
   -3.6716    2.5452   -1.6050 C   0  0  0  0  0  0  0  0  0  0  0  0
   -2.3559    2.5969   -1.8891 F   0  0  0  0  0  0  0  0  0  0  0  0
   -4.3538    2.6322   -2.7625 F   0  0  0  0  0  0  0  0  0  0  0  0
   -3.9829    3.6026   -0.8491 F   0  0  0  0  0  0  0  0  0  0  0  0
  1  2  1  0  0  0  0
  2  3  1  0  0  0  0
  4  9  1  0  0  0  0
  4  1  2  0  0  0  0
  5  4  1  0  0  0  0
  6 11  1  6  0  0  0
  6  5  1  0  0  0  0
  6  7  1  0  0  0  0
  7  8  2  0  0  0  0
  8  1  1  0  0  0  0
  8 13  1  0  0  0  0
 10  5  1  0  0  0  0
 12  7  1  0  0  0  0
 15 14  2  0  0  0  0
 16  6  1  0  0  0  0
 16 15  1  0  0  0  0
 17 15  1  0  0  0  0
 17 20  1  0  0  0  0
 18 17  1  0  0  0  0
 19 17  1  0  0  0  0
M  RAD  3   2   2   3   3   5   2
M  END
