Coordinates from ORCA-job PhN2+~CF3COO-_B3LYPG-6-31G_dp-NX-Scan-d89-09-n800
 OpenBabel11261920123D

 20 19  0  0  0  0  0  0  0  0999 V2000
   -3.7751   -1.2160    0.2953 C   0  0  0  0  0  0  0  0  0  0  0  0
   -3.5001    0.0544    0.8237 N   0  0  0  0  0  0  0  0  0  0  0  0
   -3.7241    1.1886    0.7530 N   0  0  0  0  0  0  0  0  0  0  0  0
   -4.6573   -1.3990   -0.7855 C   0  0  0  0  0  0  0  0  0  0  0  0
   -4.8631   -2.6990   -1.2389 C   0  0  0  0  0  0  0  0  0  0  0  0
   -4.2131   -3.7794   -0.6340 C   0  0  0  0  0  0  0  0  0  0  0  0
   -3.3404   -3.5771    0.4399 C   0  0  0  0  0  0  0  0  0  0  0  0
   -3.1146   -2.2890    0.9115 C   0  0  0  0  0  0  0  0  0  0  0  0
   -5.1437   -0.5384   -1.2257 H   0  0  0  0  0  0  0  0  0  0  0  0
   -5.5374   -2.8677   -2.0723 H   0  0  0  0  0  0  0  0  0  0  0  0
   -4.3879   -4.7859   -1.0017 H   0  0  0  0  0  0  0  0  0  0  0  0
   -2.8398   -4.4189    0.9057 H   0  0  0  0  0  0  0  0  0  0  0  0
   -2.4445   -2.0962    1.7422 H   0  0  0  0  0  0  0  0  0  0  0  0
   -4.9806    1.4729   -0.6453 O   0  0  0  0  0  0  0  0  0  0  0  0
   -5.3936    2.6860   -0.8948 C   0  0  0  0  0  0  0  0  0  0  0  0
   -6.2005    2.9765   -1.7571 O   0  0  0  0  0  0  0  0  0  0  0  0
   -4.7902    3.8107   -0.0106 C   0  0  0  0  0  0  0  0  0  0  0  0
   -3.4444    3.8566   -0.1351 F   0  0  0  0  0  0  0  0  0  0  0  0
   -5.2761    5.0077   -0.3544 F   0  0  0  0  0  0  0  0  0  0  0  0
   -5.0735    3.6063    1.2961 F   0  0  0  0  0  0  0  0  0  0  0  0
  1  2  1  0  0  0  0
  1  8  2  0  0  0  0
  3  2  2  0  0  0  0
  4  1  1  0  0  0  0
  5  4  2  0  0  0  0
  5  6  1  0  0  0  0
  6  7  2  0  0  0  0
  7 12  1  0  0  0  0
  7  8  1  0  0  0  0
  8 13  1  0  0  0  0
  9  4  1  0  0  0  0
 10  5  1  0  0  0  0
 11  6  1  0  0  0  0
 15 14  1  0  0  0  0
 15 17  1  0  0  0  0
 16 15  2  0  0  0  0
 17 20  1  0  0  0  0
 18 17  1  0  0  0  0
 19 17  1  0  0  0  0
M  RAD  2   3   2  14   2
M  END
