Coordinates from ORCA-job PhN2+~CF3COO-_B3LYPG-6-31G_dp-NX-Scan-d89-09-n800
 OpenBabel11261920123D

 20 20  0  0  1  0  0  0  0  0999 V2000
   -5.1306   -1.6520    1.5197 C   0  0  1  0  0  0  0  0  0  0  0  0
   -5.5873   -1.7377    2.7485 N   0  0  0  0  0  0  0  0  0  0  0  0
   -5.9840   -1.7692    3.8171 N   0  0  0  0  0  0  0  0  0  0  0  0
   -5.9631   -1.0667    0.4894 C   0  0  0  0  0  0  0  0  0  0  0  0
   -5.3937   -0.7024   -0.6757 C   0  0  0  0  0  0  0  0  0  0  0  0
   -3.9025   -0.6876   -0.8015 C   0  0  2  0  0  0  0  0  0  0  0  0
   -3.2401   -1.7389    0.0301 C   0  0  0  0  0  0  0  0  0  0  0  0
   -3.7935   -2.1113    1.2003 C   0  0  0  0  0  0  0  0  0  0  0  0
   -7.0296   -0.9670    0.6669 H   0  0  0  0  0  0  0  0  0  0  0  0
   -5.9904   -0.3115   -1.4906 H   0  0  0  0  0  0  0  0  0  0  0  0
   -3.5602   -0.6912   -1.8358 H   0  0  0  0  0  0  0  0  0  0  0  0
   -2.2616   -2.0997   -0.2651 H   0  0  0  0  0  0  0  0  0  0  0  0
   -3.2829   -2.7704    1.8958 H   0  0  0  0  0  0  0  0  0  0  0  0
   -3.7422    2.7886    0.0786 O   0  0  0  0  0  0  0  0  0  0  0  0
   -3.6392    1.8255   -0.6378 C   0  0  0  0  0  0  0  0  0  0  0  0
   -3.4028    0.6042   -0.1647 O   0  0  0  0  0  0  0  0  0  0  0  0
   -3.6874    1.9908   -2.1810 C   0  0  0  0  0  0  0  0  0  0  0  0
   -2.6517    1.3451   -2.7626 F   0  0  0  0  0  0  0  0  0  0  0  0
   -4.8275    1.4692   -2.6959 F   0  0  0  0  0  0  0  0  0  0  0  0
   -3.6294    3.2753   -2.5236 F   0  0  0  0  0  0  0  0  0  0  0  0
  1  2  1  1  0  0  0
  2  3  1  0  0  0  0
  4  9  1  0  0  0  0
  4  1  1  0  0  0  0
  5  4  2  0  0  0  0
  6 11  1  6  0  0  0
  6  5  1  0  0  0  0
  6 16  1  0  0  0  0
  6  7  1  0  0  0  0
  7  8  2  0  0  0  0
  8  1  1  0  0  0  0
  8 13  1  0  0  0  0
 10  5  1  0  0  0  0
 12  7  1  0  0  0  0
 15 16  1  0  0  0  0
 15 14  2  0  0  0  0
 17 15  1  0  0  0  0
 18 17  1  0  0  0  0
 19 17  1  0  0  0  0
 20 17  1  0  0  0  0
M  RAD  3   1   2   2   2   3   3
M  END
