Coordinates from ORCA-job PhN2+~CF3COO-_B3LYPG-6-31G_dp-NX-Scan-d89-09-n800
 OpenBabel11261920123D

 20 20  0  0  1  0  0  0  0  0999 V2000
   -5.1177   -1.6174    1.5060 C   0  0  1  0  0  0  0  0  0  0  0  0
   -5.5620   -1.6349    2.7423 N   0  0  0  0  0  0  0  0  0  0  0  0
   -5.9484   -1.6032    3.8145 N   0  0  0  0  0  0  0  0  0  0  0  0
   -5.9467   -1.0537    0.4603 C   0  0  0  0  0  0  0  0  0  0  0  0
   -5.3723   -0.7286   -0.7139 C   0  0  0  0  0  0  0  0  0  0  0  0
   -3.8795   -0.7256   -0.8268 C   0  0  2  0  0  0  0  0  0  0  0  0
   -3.2375   -1.7842    0.0122 C   0  0  0  0  0  0  0  0  0  0  0  0
   -3.7938   -2.1186    1.1926 C   0  0  0  0  0  0  0  0  0  0  0  0
   -7.0122   -0.9398    0.6350 H   0  0  0  0  0  0  0  0  0  0  0  0
   -5.9628   -0.3601   -1.5434 H   0  0  0  0  0  0  0  0  0  0  0  0
   -3.5270   -0.7291   -1.8579 H   0  0  0  0  0  0  0  0  0  0  0  0
   -2.2716   -2.1768   -0.2840 H   0  0  0  0  0  0  0  0  0  0  0  0
   -3.2976   -2.7757    1.9002 H   0  0  0  0  0  0  0  0  0  0  0  0
   -3.8248    2.7117    0.1496 O   0  0  0  0  0  0  0  0  0  0  0  0
   -3.6694    1.7842   -0.6032 C   0  0  0  0  0  0  0  0  0  0  0  0
   -3.3701    0.5578   -0.1794 O   0  0  0  0  0  0  0  0  0  0  0  0
   -3.7153    2.0047   -2.1396 C   0  0  0  0  0  0  0  0  0  0  0  0
   -2.6693    1.3951   -2.7402 F   0  0  0  0  0  0  0  0  0  0  0  0
   -4.8461    1.4853   -2.6763 F   0  0  0  0  0  0  0  0  0  0  0  0
   -3.6757    3.3020   -2.4358 F   0  0  0  0  0  0  0  0  0  0  0  0
  1  2  1  1  0  0  0
  2  3  1  0  0  0  0
  4  9  1  0  0  0  0
  4  1  1  0  0  0  0
  5  4  2  0  0  0  0
  6 11  1  6  0  0  0
  6  5  1  0  0  0  0
  6 16  1  0  0  0  0
  6  7  1  0  0  0  0
  7  8  2  0  0  0  0
  8  1  1  0  0  0  0
  8 13  1  0  0  0  0
 10  5  1  0  0  0  0
 12  7  1  0  0  0  0
 15 16  1  0  0  0  0
 15 14  2  0  0  0  0
 17 15  1  0  0  0  0
 18 17  1  0  0  0  0
 19 17  1  0  0  0  0
 20 17  1  0  0  0  0
M  RAD  3   1   2   2   2   3   3
M  END
