Coordinates from ORCA-job PhN2+~CF3COO-_B3LYPG-6-31G_dp-NX-Scan-d89-09-n800
 OpenBabel11261920123D

 20 20  0  0  1  0  0  0  0  0999 V2000
   -4.9998   -1.4508    1.3686 C   0  0  1  0  0  0  0  0  0  0  0  0
   -5.3920   -0.7151    2.3849 N   0  0  0  0  0  0  0  0  0  0  0  0
   -5.7073   -0.0070    3.2156 N   0  0  0  0  0  0  0  0  0  0  0  0
   -5.9045   -1.5858    0.2428 C   0  0  0  0  0  0  0  0  0  0  0  0
   -5.3914   -1.6015   -1.0020 C   0  0  0  0  0  0  0  0  0  0  0  0
   -3.9456   -1.3028   -1.2199 C   0  0  2  0  0  0  0  0  0  0  0  0
   -3.0755   -1.6639   -0.0626 C   0  0  0  0  0  0  0  0  0  0  0  0
   -3.5739   -1.6474    1.1881 C   0  0  0  0  0  0  0  0  0  0  0  0
   -6.9715   -1.6685    0.4290 H   0  0  0  0  0  0  0  0  0  0  0  0
   -6.0262   -1.7495   -1.8694 H   0  0  0  0  0  0  0  0  0  0  0  0
   -3.5768   -1.7197   -2.1571 H   0  0  0  0  0  0  0  0  0  0  0  0
   -2.0239   -1.8583   -0.2463 H   0  0  0  0  0  0  0  0  0  0  0  0
   -2.9429   -1.7745    2.0628 H   0  0  0  0  0  0  0  0  0  0  0  0
   -4.5445    1.0884    0.4165 O   0  0  0  0  0  0  0  0  0  0  0  0
   -4.0865    1.1517   -0.7021 C   0  0  0  0  0  0  0  0  0  0  0  0
   -3.7666    0.1897   -1.5600 O   0  0  0  0  0  0  0  0  0  0  0  0
   -3.7677    2.5165   -1.3657 C   0  0  0  0  0  0  0  0  0  0  0  0
   -2.4524    2.6122   -1.6399 F   0  0  0  0  0  0  0  0  0  0  0  0
   -4.4475    2.6572   -2.5193 F   0  0  0  0  0  0  0  0  0  0  0  0
   -4.1034    3.5223   -0.5520 F   0  0  0  0  0  0  0  0  0  0  0  0
  1  2  1  6  0  0  0
  2  3  1  0  0  0  0
  4  9  1  0  0  0  0
  4  1  1  0  0  0  0
  5  4  2  0  0  0  0
  6 11  1  6  0  0  0
  6  5  1  0  0  0  0
  6  7  1  0  0  0  0
  7  8  2  0  0  0  0
  8  1  1  0  0  0  0
  8 13  1  0  0  0  0
 10  5  1  0  0  0  0
 12  7  1  0  0  0  0
 15 14  2  0  0  0  0
 16  6  1  0  0  0  0
 16 15  1  0  0  0  0
 17 15  1  0  0  0  0
 17 20  1  0  0  0  0
 18 17  1  0  0  0  0
 19 17  1  0  0  0  0
M  RAD  3   1   2   2   2   3   3
M  END
