Coordinates from ORCA-job PhN2+~CF3COO-_B3LYPG-6-31G_dp-NX-Scan-d89-09-n800
 OpenBabel11261920123D

 20 20  0  0  1  0  0  0  0  0999 V2000
   -4.9996   -1.4519    1.3681 C   0  0  1  0  0  0  0  0  0  0  0  0
   -5.3897   -0.7082    2.3795 N   0  0  0  0  0  0  0  0  0  0  0  0
   -5.7024    0.0079    3.2043 N   0  0  0  0  0  0  0  0  0  0  0  0
   -5.9045   -1.5878    0.2423 C   0  0  0  0  0  0  0  0  0  0  0  0
   -5.3912   -1.6035   -1.0025 C   0  0  0  0  0  0  0  0  0  0  0  0
   -3.9456   -1.3036   -1.2200 C   0  0  2  0  0  0  0  0  0  0  0  0
   -3.0754   -1.6659   -0.0632 C   0  0  0  0  0  0  0  0  0  0  0  0
   -3.5737   -1.6493    1.1876 C   0  0  0  0  0  0  0  0  0  0  0  0
   -6.9714   -1.6707    0.4284 H   0  0  0  0  0  0  0  0  0  0  0  0
   -6.0257   -1.7523   -1.8700 H   0  0  0  0  0  0  0  0  0  0  0  0
   -3.5765   -1.7188   -2.1578 H   0  0  0  0  0  0  0  0  0  0  0  0
   -2.0240   -1.8611   -0.2471 H   0  0  0  0  0  0  0  0  0  0  0  0
   -2.9427   -1.7767    2.0623 H   0  0  0  0  0  0  0  0  0  0  0  0
   -4.5454    1.0872    0.4195 O   0  0  0  0  0  0  0  0  0  0  0  0
   -4.0874    1.1510   -0.6992 C   0  0  0  0  0  0  0  0  0  0  0  0
   -3.7675    0.1896   -1.5578 O   0  0  0  0  0  0  0  0  0  0  0  0
   -3.7691    2.5161   -1.3622 C   0  0  0  0  0  0  0  0  0  0  0  0
   -2.4539    2.6124   -1.6366 F   0  0  0  0  0  0  0  0  0  0  0  0
   -4.4492    2.6572   -2.5156 F   0  0  0  0  0  0  0  0  0  0  0  0
   -4.1050    3.5215   -0.5479 F   0  0  0  0  0  0  0  0  0  0  0  0
  1  2  1  6  0  0  0
  2  3  1  0  0  0  0
  4  9  1  0  0  0  0
  4  1  1  0  0  0  0
  5  4  2  0  0  0  0
  6 11  1  6  0  0  0
  6  5  1  0  0  0  0
  6  7  1  0  0  0  0
  7  8  2  0  0  0  0
  8  1  1  0  0  0  0
  8 13  1  0  0  0  0
 10  5  1  0  0  0  0
 12  7  1  0  0  0  0
 15 14  2  0  0  0  0
 16  6  1  0  0  0  0
 16 15  1  0  0  0  0
 17 15  1  0  0  0  0
 17 20  1  0  0  0  0
 18 17  1  0  0  0  0
 19 17  1  0  0  0  0
M  RAD  3   1   2   2   2   3   3
M  END
