Coordinates from ORCA-job PhN2+~CF3COO-_B3LYPG-6-31G_dp-NX-Scan-d89-09-n800
 OpenBabel11261920123D

 20 20  0  0  1  0  0  0  0  0999 V2000
   -5.0016   -1.4425    1.3735 C   0  0  1  0  0  0  0  0  0  0  0  0
   -5.4107   -0.7735    2.4275 N   0  0  0  0  0  0  0  0  0  0  0  0
   -5.7461   -0.1304    3.3032 N   0  0  0  0  0  0  0  0  0  0  0  0
   -5.9057   -1.5698    0.2480 C   0  0  0  0  0  0  0  0  0  0  0  0
   -5.3932   -1.5843   -0.9972 C   0  0  0  0  0  0  0  0  0  0  0  0
   -3.9459   -1.2955   -1.2185 C   0  0  2  0  0  0  0  0  0  0  0  0
   -3.0768   -1.6473   -0.0576 C   0  0  0  0  0  0  0  0  0  0  0  0
   -3.5760   -1.6319    1.1929 C   0  0  0  0  0  0  0  0  0  0  0  0
   -6.9727   -1.6513    0.4341 H   0  0  0  0  0  0  0  0  0  0  0  0
   -6.0305   -1.7254   -1.8639 H   0  0  0  0  0  0  0  0  0  0  0  0
   -3.5796   -1.7264   -2.1506 H   0  0  0  0  0  0  0  0  0  0  0  0
   -2.0236   -1.8350   -0.2388 H   0  0  0  0  0  0  0  0  0  0  0  0
   -2.9450   -1.7581    2.0676 H   0  0  0  0  0  0  0  0  0  0  0  0
   -4.5347    1.0995    0.3937 O   0  0  0  0  0  0  0  0  0  0  0  0
   -4.0768    1.1585   -0.7248 C   0  0  0  0  0  0  0  0  0  0  0  0
   -3.7593    0.1904   -1.5770 O   0  0  0  0  0  0  0  0  0  0  0  0
   -3.7559    2.5193   -1.3950 C   0  0  0  0  0  0  0  0  0  0  0  0
   -2.4403    2.6118   -1.6692 F   0  0  0  0  0  0  0  0  0  0  0  0
   -4.4351    2.6553   -2.5496 F   0  0  0  0  0  0  0  0  0  0  0  0
   -4.0905    3.5295   -0.5863 F   0  0  0  0  0  0  0  0  0  0  0  0
  1  2  1  6  0  0  0
  2  3  1  0  0  0  0
  4  9  1  0  0  0  0
  4  1  1  0  0  0  0
  5  4  2  0  0  0  0
  6 11  1  6  0  0  0
  6  5  1  0  0  0  0
  6  7  1  0  0  0  0
  7  8  2  0  0  0  0
  8  1  1  0  0  0  0
  8 13  1  0  0  0  0
 10  5  1  0  0  0  0
 12  7  1  0  0  0  0
 15 14  2  0  0  0  0
 16  6  1  0  0  0  0
 16 15  1  0  0  0  0
 17 15  1  0  0  0  0
 17 20  1  0  0  0  0
 18 17  1  0  0  0  0
 19 17  1  0  0  0  0
M  RAD  3   1   2   2   2   3   3
M  END
