Coordinates from ORCA-job PhN2+~CF3COO-_B3LYPG-6-31G_dp-NX-Scan-d89-09-n800
 OpenBabel11261920123D

 20 20  0  0  1  0  0  0  0  0999 V2000
   -5.2162   -1.8791    1.5797 C   0  0  0  0  0  0  0  0  0  0  0  0
   -5.7456   -2.4809    2.6208 N   0  0  0  0  0  0  0  0  0  0  0  0
   -6.2053   -2.9948    3.5313 N   0  0  0  0  0  0  0  0  0  0  0  0
   -6.0541   -1.1053    0.6888 C   0  0  0  0  0  0  0  0  0  0  0  0
   -5.5053   -0.4540   -0.3539 C   0  0  0  0  0  0  0  0  0  0  0  0
   -4.0284   -0.4029   -0.5788 C   0  0  2  0  0  0  0  0  0  0  0  0
   -3.2551   -1.3681    0.2602 C   0  0  0  0  0  0  0  0  0  0  0  0
   -3.8030   -2.0223    1.3011 C   0  0  0  0  0  0  0  0  0  0  0  0
   -7.1255   -1.0872    0.8649 H   0  0  0  0  0  0  0  0  0  0  0  0
   -6.1317    0.1042   -1.0406 H   0  0  0  0  0  0  0  0  0  0  0  0
   -3.7696   -0.5039   -1.6326 H   0  0  0  0  0  0  0  0  0  0  0  0
   -2.2012   -1.4897    0.0325 H   0  0  0  0  0  0  0  0  0  0  0  0
   -3.2115   -2.6831    1.9271 H   0  0  0  0  0  0  0  0  0  0  0  0
   -3.0707    3.1077   -0.4833 O   0  0  0  0  0  0  0  0  0  0  0  0
   -3.3787    2.0291   -0.9229 C   0  0  0  0  0  0  0  0  0  0  0  0
   -3.5439    0.9649   -0.1391 O   0  0  0  0  0  0  0  0  0  0  0  0
   -3.5694    1.8608   -2.4552 C   0  0  0  0  0  0  0  0  0  0  0  0
   -2.6843    0.9654   -2.9546 F   0  0  0  0  0  0  0  0  0  0  0  0
   -4.8134    1.4134   -2.7524 F   0  0  0  0  0  0  0  0  0  0  0  0
   -3.3870    3.0191   -3.0811 F   0  0  0  0  0  0  0  0  0  0  0  0
  1  2  1  0  0  0  0
  2  3  1  0  0  0  0
  4  9  1  0  0  0  0
  4  1  2  0  0  0  0
  5  4  1  0  0  0  0
  6 11  1  6  0  0  0
  6  5  1  0  0  0  0
  6 16  1  0  0  0  0
  6  7  1  0  0  0  0
  7  8  2  0  0  0  0
  8  1  1  0  0  0  0
  8 13  1  0  0  0  0
 10  5  1  0  0  0  0
 12  7  1  0  0  0  0
 15 14  2  0  0  0  0
 15 16  1  0  0  0  0
 17 15  1  0  0  0  0
 18 17  1  0  0  0  0
 19 17  1  0  0  0  0
 20 17  1  0  0  0  0
M  RAD  3   2   2   3   3   5   2
M  END
