Coordinates from ORCA-job PhN2+~CF3COO-_B3LYPG-6-31G_dp-NX-Scan-d89-09-n800
 OpenBabel11261920123D

 20 20  0  0  1  0  0  0  0  0999 V2000
   -4.9999   -1.4957    1.3670 C   0  0  1  0  0  0  0  0  0  0  0  0
   -5.3160   -0.5280    2.2095 N   0  0  0  0  0  0  0  0  0  0  0  0
   -5.5184    0.4331    2.7722 N   0  0  0  0  0  0  0  0  0  0  0  0
   -5.9054   -1.6541    0.2367 C   0  0  0  0  0  0  0  0  0  0  0  0
   -5.3895   -1.6577   -1.0068 C   0  0  0  0  0  0  0  0  0  0  0  0
   -3.9501   -1.3199   -1.2107 C   0  0  2  0  0  0  0  0  0  0  0  0
   -3.0759   -1.7193   -0.0688 C   0  0  0  0  0  0  0  0  0  0  0  0
   -3.5713   -1.7154    1.1829 C   0  0  0  0  0  0  0  0  0  0  0  0
   -6.9720   -1.7503    0.4204 H   0  0  0  0  0  0  0  0  0  0  0  0
   -6.0139   -1.8272   -1.8780 H   0  0  0  0  0  0  0  0  0  0  0  0
   -3.5729   -1.6856   -2.1653 H   0  0  0  0  0  0  0  0  0  0  0  0
   -2.0301   -1.9343   -0.2633 H   0  0  0  0  0  0  0  0  0  0  0  0
   -2.9389   -1.8560    2.0550 H   0  0  0  0  0  0  0  0  0  0  0  0
   -4.5802    1.0679    0.5077 O   0  0  0  0  0  0  0  0  0  0  0  0
   -4.1227    1.1394   -0.6125 C   0  0  0  0  0  0  0  0  0  0  0  0
   -3.7973    0.1927   -1.4857 O   0  0  0  0  0  0  0  0  0  0  0  0
   -3.8099    2.5133   -1.2619 C   0  0  0  0  0  0  0  0  0  0  0  0
   -2.4953    2.6171   -1.5362 F   0  0  0  0  0  0  0  0  0  0  0  0
   -4.4916    2.6640   -2.4130 F   0  0  0  0  0  0  0  0  0  0  0  0
   -4.1485    3.5091   -0.4372 F   0  0  0  0  0  0  0  0  0  0  0  0
  1  2  1  6  0  0  0
  2  3  1  0  0  0  0
  4  9  1  0  0  0  0
  4  1  1  0  0  0  0
  5  4  2  0  0  0  0
  6 11  1  6  0  0  0
  6  5  1  0  0  0  0
  6  7  1  0  0  0  0
  7  8  2  0  0  0  0
  8  1  1  0  0  0  0
  8 13  1  0  0  0  0
 10  5  1  0  0  0  0
 12  7  1  0  0  0  0
 15 14  2  0  0  0  0
 16  6  1  0  0  0  0
 16 15  1  0  0  0  0
 17 15  1  0  0  0  0
 17 20  1  0  0  0  0
 18 17  1  0  0  0  0
 19 17  1  0  0  0  0
M  RAD  3   1   2   2   2   3   3
M  END
