Coordinates from ORCA-job PhN2+~CF3COO-_B3LYPG-6-31G_dp-NX-Scan-d89-09-n800
 OpenBabel11261920123D

 20 20  0  0  1  0  0  0  0  0999 V2000
   -5.2087   -1.8587    1.5778 C   0  0  0  0  0  0  0  0  0  0  0  0
   -5.7318   -2.4082    2.6505 N   0  0  0  0  0  0  0  0  0  0  0  0
   -6.1861   -2.8730    3.5893 N   0  0  0  0  0  0  0  0  0  0  0  0
   -6.0481   -1.1071    0.6698 C   0  0  0  0  0  0  0  0  0  0  0  0
   -5.4992   -0.4850   -0.3906 C   0  0  0  0  0  0  0  0  0  0  0  0
   -4.0209   -0.4330   -0.6053 C   0  0  2  0  0  0  0  0  0  0  0  0
   -3.2546   -1.4079    0.2284 C   0  0  0  0  0  0  0  0  0  0  0  0
   -3.8014   -2.0332    1.2876 C   0  0  0  0  0  0  0  0  0  0  0  0
   -7.1189   -1.0829    0.8479 H   0  0  0  0  0  0  0  0  0  0  0  0
   -6.1244    0.0555   -1.0923 H   0  0  0  0  0  0  0  0  0  0  0  0
   -3.7533   -0.5174   -1.6582 H   0  0  0  0  0  0  0  0  0  0  0  0
   -2.2067   -1.5532   -0.0114 H   0  0  0  0  0  0  0  0  0  0  0  0
   -3.2155   -2.6940    1.9190 H   0  0  0  0  0  0  0  0  0  0  0  0
   -3.1393    3.0935   -0.4222 O   0  0  0  0  0  0  0  0  0  0  0  0
   -3.4064    2.0168   -0.8923 C   0  0  0  0  0  0  0  0  0  0  0  0
   -3.5400    0.9282   -0.1374 O   0  0  0  0  0  0  0  0  0  0  0  0
   -3.5726    1.8778   -2.4301 C   0  0  0  0  0  0  0  0  0  0  0  0
   -2.6678    1.0052   -2.9343 F   0  0  0  0  0  0  0  0  0  0  0  0
   -4.8056    1.4186   -2.7542 F   0  0  0  0  0  0  0  0  0  0  0  0
   -3.3984    3.0511   -3.0300 F   0  0  0  0  0  0  0  0  0  0  0  0
  1  2  1  0  0  0  0
  2  3  1  0  0  0  0
  4  9  1  0  0  0  0
  4  1  2  0  0  0  0
  5  4  1  0  0  0  0
  6 11  1  6  0  0  0
  6  5  1  0  0  0  0
  6 16  1  0  0  0  0
  6  7  1  0  0  0  0
  7  8  2  0  0  0  0
  8  1  1  0  0  0  0
  8 13  1  0  0  0  0
 10  5  1  0  0  0  0
 12  7  1  0  0  0  0
 15 14  2  0  0  0  0
 15 16  1  0  0  0  0
 17 15  1  0  0  0  0
 18 17  1  0  0  0  0
 19 17  1  0  0  0  0
 20 17  1  0  0  0  0
M  RAD  3   2   2   3   3   5   2
M  END
