Coordinates from ORCA-job PhN2+~CF3COO-_B3LYPG-6-31G_dp-NX-Scan-d89-09-n800
 OpenBabel11261920123D

 20 20  0  0  1  0  0  0  0  0999 V2000
   -5.1883   -1.8029    1.5677 C   0  0  0  0  0  0  0  0  0  0  0  0
   -5.6967   -2.2169    2.7062 N   0  0  0  0  0  0  0  0  0  0  0  0
   -6.1383   -2.5546    3.7030 N   0  0  0  0  0  0  0  0  0  0  0  0
   -6.0271   -1.1034    0.6185 C   0  0  0  0  0  0  0  0  0  0  0  0
   -5.4737   -0.5572   -0.4808 C   0  0  0  0  0  0  0  0  0  0  0  0
   -3.9915   -0.5105   -0.6687 C   0  0  2  0  0  0  0  0  0  0  0  0
   -3.2502   -1.5102    0.1579 C   0  0  0  0  0  0  0  0  0  0  0  0
   -3.7980   -2.0607    1.2577 C   0  0  0  0  0  0  0  0  0  0  0  0
   -7.0969   -1.0594    0.7988 H   0  0  0  0  0  0  0  0  0  0  0  0
   -6.0924   -0.0602   -1.2190 H   0  0  0  0  0  0  0  0  0  0  0  0
   -3.7007   -0.5606   -1.7173 H   0  0  0  0  0  0  0  0  0  0  0  0
   -2.2190   -1.7184   -0.1054 H   0  0  0  0  0  0  0  0  0  0  0  0
   -3.2309   -2.7217    1.9059 H   0  0  0  0  0  0  0  0  0  0  0  0
   -3.3171    3.0383   -0.2705 O   0  0  0  0  0  0  0  0  0  0  0  0
   -3.4753    1.9755   -0.8157 C   0  0  0  0  0  0  0  0  0  0  0  0
   -3.5109    0.8310   -0.1381 O   0  0  0  0  0  0  0  0  0  0  0  0
   -3.5950    1.9176   -2.3624 C   0  0  0  0  0  0  0  0  0  0  0  0
   -2.6452    1.1085   -2.8873 F   0  0  0  0  0  0  0  0  0  0  0  0
   -4.8003    1.4304   -2.7459 F   0  0  0  0  0  0  0  0  0  0  0  0
   -3.4523    3.1286   -2.8925 F   0  0  0  0  0  0  0  0  0  0  0  0
  1  2  1  0  0  0  0
  2  3  1  0  0  0  0
  4  9  1  0  0  0  0
  4  1  2  0  0  0  0
  5  4  1  0  0  0  0
  6 11  1  6  0  0  0
  6  5  1  0  0  0  0
  6 16  1  0  0  0  0
  6  7  1  0  0  0  0
  7  8  2  0  0  0  0
  8  1  1  0  0  0  0
  8 13  1  0  0  0  0
 10  5  1  0  0  0  0
 12  7  1  0  0  0  0
 15 14  2  0  0  0  0
 15 16  1  0  0  0  0
 17 15  1  0  0  0  0
 18 17  1  0  0  0  0
 19 17  1  0  0  0  0
 20 17  1  0  0  0  0
M  RAD  3   2   2   3   3   5   2
M  END
