Coordinates from ORCA-job PhN2+~CF3COO-_B3LYPG-6-31G_dp-NX-Scan-d89-09-n800
 OpenBabel11261920123D

 20 20  0  0  1  0  0  0  0  0999 V2000
   -5.0032   -1.5210    1.3752 C   0  0  1  0  0  0  0  0  0  0  0  0
   -5.2931   -0.4851    2.1561 N   0  0  0  0  0  0  0  0  0  0  0  0
   -5.4284    0.5631    2.5565 N   0  0  0  0  0  0  0  0  0  0  0  0
   -5.9079   -1.6813    0.2424 C   0  0  0  0  0  0  0  0  0  0  0  0
   -5.3913   -1.6752   -1.0014 C   0  0  0  0  0  0  0  0  0  0  0  0
   -3.9552   -1.3228   -1.2011 C   0  0  2  0  0  0  0  0  0  0  0  0
   -3.0793   -1.7348   -0.0655 C   0  0  0  0  0  0  0  0  0  0  0  0
   -3.5734   -1.7403    1.1873 C   0  0  0  0  0  0  0  0  0  0  0  0
   -6.9743   -1.7851    0.4239 H   0  0  0  0  0  0  0  0  0  0  0  0
   -6.0124   -1.8519   -1.8737 H   0  0  0  0  0  0  0  0  0  0  0  0
   -3.5755   -1.6694   -2.1615 H   0  0  0  0  0  0  0  0  0  0  0  0
   -2.0354   -1.9555   -0.2643 H   0  0  0  0  0  0  0  0  0  0  0  0
   -2.9388   -1.8870    2.0570 H   0  0  0  0  0  0  0  0  0  0  0  0
   -4.5958    1.0707    0.5380 O   0  0  0  0  0  0  0  0  0  0  0  0
   -4.1363    1.1432   -0.5837 C   0  0  0  0  0  0  0  0  0  0  0  0
   -3.8104    0.1987   -1.4574 O   0  0  0  0  0  0  0  0  0  0  0  0
   -3.8213    2.5188   -1.2297 C   0  0  0  0  0  0  0  0  0  0  0  0
   -2.5061    2.6225   -1.5006 F   0  0  0  0  0  0  0  0  0  0  0  0
   -4.5005    2.6724   -2.3818 F   0  0  0  0  0  0  0  0  0  0  0  0
   -4.1613    3.5132   -0.4035 F   0  0  0  0  0  0  0  0  0  0  0  0
  1  2  1  6  0  0  0
  2  3  1  0  0  0  0
  4  9  1  0  0  0  0
  4  1  1  0  0  0  0
  5  4  2  0  0  0  0
  6 11  1  6  0  0  0
  6  5  1  0  0  0  0
  6  7  1  0  0  0  0
  7  8  2  0  0  0  0
  8  1  1  0  0  0  0
  8 13  1  0  0  0  0
 10  5  1  0  0  0  0
 12  7  1  0  0  0  0
 15 14  2  0  0  0  0
 16  6  1  0  0  0  0
 16 15  1  0  0  0  0
 17 15  1  0  0  0  0
 17 20  1  0  0  0  0
 18 17  1  0  0  0  0
 19 17  1  0  0  0  0
M  RAD  3   1   2   2   2   3   3
M  END
