Coordinates from ORCA-job PhN2+~CF3COO-_B3LYPG-6-31G_dp-NX-Scan-d89-09-n800
 OpenBabel11261920123D

 20 20  0  0  1  0  0  0  0  0999 V2000
   -5.0954   -1.4365    1.3930 C   0  0  0  0  0  0  0  0  0  0  0  0
   -5.6862   -1.3495    2.5649 N   0  0  0  0  0  0  0  0  0  0  0  0
   -6.1936   -1.2384    3.5796 N   0  0  0  0  0  0  0  0  0  0  0  0
   -5.7715   -0.9396    0.2153 C   0  0  0  0  0  0  0  0  0  0  0  0
   -5.0725   -0.7979   -0.9298 C   0  0  0  0  0  0  0  0  0  0  0  0
   -3.5846   -0.9337   -0.9274 C   0  0  2  0  0  0  0  0  0  0  0  0
   -3.0925   -1.8723    0.1268 C   0  0  0  0  0  0  0  0  0  0  0  0
   -3.7766   -2.0256    1.2771 C   0  0  0  0  0  0  0  0  0  0  0  0
   -6.8353   -0.7296    0.2667 H   0  0  0  0  0  0  0  0  0  0  0  0
   -5.5671   -0.4920   -1.8435 H   0  0  0  0  0  0  0  0  0  0  0  0
   -3.1824   -1.1519   -1.9161 H   0  0  0  0  0  0  0  0  0  0  0  0
   -2.1199   -2.3334   -0.0042 H   0  0  0  0  0  0  0  0  0  0  0  0
   -3.3829   -2.6009    2.1090 H   0  0  0  0  0  0  0  0  0  0  0  0
   -3.7144    2.2655    0.4272 O   0  0  0  0  0  0  0  0  0  0  0  0
   -3.5990    1.5493   -0.5345 C   0  0  0  0  0  0  0  0  0  0  0  0
   -2.9200    0.3991   -0.5349 O   0  0  0  0  0  0  0  0  0  0  0  0
   -4.1494    2.0466   -1.8993 C   0  0  0  0  0  0  0  0  0  0  0  0
   -3.9276    1.1702   -2.9045 F   0  0  0  0  0  0  0  0  0  0  0  0
   -5.4755    2.2607   -1.8279 F   0  0  0  0  0  0  0  0  0  0  0  0
   -3.5535    3.2030   -2.2255 F   0  0  0  0  0  0  0  0  0  0  0  0
  1  2  1  0  0  0  0
  2  3  1  0  0  0  0
  4  9  1  0  0  0  0
  4  1  2  0  0  0  0
  5  6  1  0  0  0  0
  5  4  1  0  0  0  0
  6 11  1  6  0  0  0
  6 16  1  0  0  0  0
  6  7  1  0  0  0  0
  7  8  2  0  0  0  0
  8  1  1  0  0  0  0
  8 13  1  0  0  0  0
 10  5  1  0  0  0  0
 12  7  1  0  0  0  0
 15 14  2  0  0  0  0
 16 15  1  0  0  0  0
 17 19  1  0  0  0  0
 17 15  1  0  0  0  0
 18 17  1  0  0  0  0
 20 17  1  0  0  0  0
M  RAD  3   2   2   3   3   5   2
M  END
