Coordinates from ORCA-job PhN2+~CF3COO-_B3LYPG-6-31G_dp-NX-Scan-d89-09-n800
 OpenBabel11261920123D

 20 20  0  0  1  0  0  0  0  0999 V2000
   -5.1028   -1.4639    1.4063 C   0  0  0  0  0  0  0  0  0  0  0  0
   -5.6931   -1.4092    2.5803 N   0  0  0  0  0  0  0  0  0  0  0  0
   -6.2001   -1.3249    3.5978 N   0  0  0  0  0  0  0  0  0  0  0  0
   -5.7838   -0.9443    0.2410 C   0  0  0  0  0  0  0  0  0  0  0  0
   -5.0884   -0.7752   -0.9023 C   0  0  0  0  0  0  0  0  0  0  0  0
   -3.5998   -0.9053   -0.9066 C   0  0  2  0  0  0  0  0  0  0  0  0
   -3.1007   -1.8634    0.1269 C   0  0  0  0  0  0  0  0  0  0  0  0
   -3.7817   -2.0443    1.2749 C   0  0  0  0  0  0  0  0  0  0  0  0
   -6.8485   -0.7404    0.2995 H   0  0  0  0  0  0  0  0  0  0  0  0
   -5.5869   -0.4521   -1.8080 H   0  0  0  0  0  0  0  0  0  0  0  0
   -3.1991   -1.1027   -1.9002 H   0  0  0  0  0  0  0  0  0  0  0  0
   -2.1268   -2.3177   -0.0164 H   0  0  0  0  0  0  0  0  0  0  0  0
   -3.3841   -2.6365    2.0930 H   0  0  0  0  0  0  0  0  0  0  0  0
   -3.6764    2.3575    0.3755 O   0  0  0  0  0  0  0  0  0  0  0  0
   -3.5852    1.5897   -0.5485 C   0  0  0  0  0  0  0  0  0  0  0  0
   -2.9458    0.4202   -0.4803 O   0  0  0  0  0  0  0  0  0  0  0  0
   -4.1236    2.0387   -1.9349 C   0  0  0  0  0  0  0  0  0  0  0  0
   -3.8736    1.1401   -2.9141 F   0  0  0  0  0  0  0  0  0  0  0  0
   -5.4549    2.2311   -1.8874 F   0  0  0  0  0  0  0  0  0  0  0  0
   -3.5444    3.1958   -2.2844 F   0  0  0  0  0  0  0  0  0  0  0  0
  1  2  1  0  0  0  0
  2  3  1  0  0  0  0
  4  9  1  0  0  0  0
  4  1  2  0  0  0  0
  5  4  1  0  0  0  0
  6 11  1  6  0  0  0
  6  5  1  0  0  0  0
  6 16  1  0  0  0  0
  6  7  1  0  0  0  0
  7  8  2  0  0  0  0
  8  1  1  0  0  0  0
  8 13  1  0  0  0  0
 10  5  1  0  0  0  0
 12  7  1  0  0  0  0
 15 16  1  0  0  0  0
 15 14  2  0  0  0  0
 17 19  1  0  0  0  0
 17 15  1  0  0  0  0
 18 17  1  0  0  0  0
 20 17  1  0  0  0  0
M  RAD  3   2   2   3   3   5   2
M  END
