Coordinates from ORCA-job PhN2+~CF3COO-_B3LYPG-6-31G_dp-NX-Scan-d89-09-n800
 OpenBabel11261920123D

 20 20  0  0  1  0  0  0  0  0999 V2000
   -4.9977   -1.4763    1.3639 C   0  0  1  0  0  0  0  0  0  0  0  0
   -5.3418   -0.5858    2.2725 N   0  0  0  0  0  0  0  0  0  0  0  0
   -5.5921    0.2865    2.9518 N   0  0  0  0  0  0  0  0  0  0  0  0
   -5.9037   -1.6273    0.2361 C   0  0  0  0  0  0  0  0  0  0  0  0
   -5.3889   -1.6391   -1.0078 C   0  0  0  0  0  0  0  0  0  0  0  0
   -3.9469   -1.3163   -1.2169 C   0  0  2  0  0  0  0  0  0  0  0  0
   -3.0744   -1.7025   -0.0695 C   0  0  0  0  0  0  0  0  0  0  0  0
   -3.5706   -1.6905    1.1819 C   0  0  0  0  0  0  0  0  0  0  0  0
   -6.9705   -1.7160    0.4214 H   0  0  0  0  0  0  0  0  0  0  0  0
   -6.0173   -1.8013   -1.8774 H   0  0  0  0  0  0  0  0  0  0  0  0
   -3.5727   -1.6996   -2.1659 H   0  0  0  0  0  0  0  0  0  0  0  0
   -2.0268   -1.9118   -0.2599 H   0  0  0  0  0  0  0  0  0  0  0  0
   -2.9391   -1.8250    2.0554 H   0  0  0  0  0  0  0  0  0  0  0  0
   -4.5719    1.0703    0.4735 O   0  0  0  0  0  0  0  0  0  0  0  0
   -4.1113    1.1403   -0.6446 C   0  0  0  0  0  0  0  0  0  0  0  0
   -3.7849    0.1899   -1.5132 O   0  0  0  0  0  0  0  0  0  0  0  0
   -3.7963    2.5123   -1.2965 C   0  0  0  0  0  0  0  0  0  0  0  0
   -2.4810    2.6150   -1.5679 F   0  0  0  0  0  0  0  0  0  0  0  0
   -4.4751    2.6602   -2.4498 F   0  0  0  0  0  0  0  0  0  0  0  0
   -4.1368    3.5102   -0.4751 F   0  0  0  0  0  0  0  0  0  0  0  0
  1  2  1  6  0  0  0
  2  3  1  0  0  0  0
  4  9  1  0  0  0  0
  4  1  1  0  0  0  0
  5  4  2  0  0  0  0
  6 11  1  6  0  0  0
  6  5  1  0  0  0  0
  6  7  1  0  0  0  0
  7  8  2  0  0  0  0
  8  1  1  0  0  0  0
  8 13  1  0  0  0  0
 10  5  1  0  0  0  0
 12  7  1  0  0  0  0
 15 14  2  0  0  0  0
 16  6  1  0  0  0  0
 16 15  1  0  0  0  0
 17 15  1  0  0  0  0
 17 20  1  0  0  0  0
 18 17  1  0  0  0  0
 19 17  1  0  0  0  0
M  RAD  3   1   2   2   2   3   3
M  END
