Coordinates from ORCA-job PhN2+~CF3COO-_B3LYPG-6-31G_dp-NX-Scan-d89-09-n800
 OpenBabel11261920123D

 20 20  0  0  1  0  0  0  0  0999 V2000
   -5.0142   -1.4292    1.4048 C   0  0  1  0  0  0  0  0  0  0  0  0
   -5.4708   -1.0045    2.5598 N   0  0  0  0  0  0  0  0  0  0  0  0
   -5.8596   -0.5963    3.5497 N   0  0  0  0  0  0  0  0  0  0  0  0
   -5.9144   -1.5192    0.2761 C   0  0  0  0  0  0  0  0  0  0  0  0
   -5.4036   -1.5142   -0.9699 C   0  0  0  0  0  0  0  0  0  0  0  0
   -3.9508   -1.2607   -1.2020 C   0  0  2  0  0  0  0  0  0  0  0  0
   -3.0848   -1.5797   -0.0285 C   0  0  0  0  0  0  0  0  0  0  0  0
   -3.5876   -1.5840    1.2207 C   0  0  0  0  0  0  0  0  0  0  0  0
   -6.9817   -1.6014    0.4591 H   0  0  0  0  0  0  0  0  0  0  0  0
   -6.0486   -1.6227   -1.8356 H   0  0  0  0  0  0  0  0  0  0  0  0
   -3.5944   -1.7438   -2.1131 H   0  0  0  0  0  0  0  0  0  0  0  0
   -2.0253   -1.7365   -0.2023 H   0  0  0  0  0  0  0  0  0  0  0  0
   -2.9553   -1.7127    2.0938 H   0  0  0  0  0  0  0  0  0  0  0  0
   -4.4984    1.1586    0.3149 O   0  0  0  0  0  0  0  0  0  0  0  0
   -4.0419    1.1924   -0.8037 C   0  0  0  0  0  0  0  0  0  0  0  0
   -3.7360    0.1967   -1.6288 O   0  0  0  0  0  0  0  0  0  0  0  0
   -3.7108    2.5327   -1.5079 C   0  0  0  0  0  0  0  0  0  0  0  0
   -2.3950    2.6071   -1.7863 F   0  0  0  0  0  0  0  0  0  0  0  0
   -4.3907    2.6448   -2.6647 F   0  0  0  0  0  0  0  0  0  0  0  0
   -4.0359    3.5655   -0.7241 F   0  0  0  0  0  0  0  0  0  0  0  0
  1  2  1  6  0  0  0
  2  3  1  0  0  0  0
  4  9  1  0  0  0  0
  4  1  1  0  0  0  0
  5  4  2  0  0  0  0
  6 11  1  6  0  0  0
  6  5  1  0  0  0  0
  6  7  1  0  0  0  0
  7  8  2  0  0  0  0
  8  1  1  0  0  0  0
  8 13  1  0  0  0  0
 10  5  1  0  0  0  0
 12  7  1  0  0  0  0
 15 14  2  0  0  0  0
 16  6  1  0  0  0  0
 16 15  1  0  0  0  0
 17 15  1  0  0  0  0
 17 20  1  0  0  0  0
 18 17  1  0  0  0  0
 19 17  1  0  0  0  0
M  RAD  3   1   2   2   2   3   3
M  END
