Coordinates from ORCA-job PhN2+~CF3COO-_B3LYPG-6-31G_dp-NX-Scan-d89-09-n800
 OpenBabel11261920123D

 20 20  0  0  1  0  0  0  0  0999 V2000
   -5.0047   -1.4353    1.3813 C   0  0  1  0  0  0  0  0  0  0  0  0
   -5.4314   -0.8449    2.4738 N   0  0  0  0  0  0  0  0  0  0  0  0
   -5.7868   -0.2778    3.3940 N   0  0  0  0  0  0  0  0  0  0  0  0
   -5.9079   -1.5521    0.2554 C   0  0  0  0  0  0  0  0  0  0  0  0
   -5.3959   -1.5629   -0.9901 C   0  0  0  0  0  0  0  0  0  0  0  0
   -3.9468   -1.2856   -1.2150 C   0  0  2  0  0  0  0  0  0  0  0  0
   -3.0789   -1.6270   -0.0499 C   0  0  0  0  0  0  0  0  0  0  0  0
   -3.5793   -1.6154    1.2002 C   0  0  0  0  0  0  0  0  0  0  0  0
   -6.9749   -1.6331    0.4409 H   0  0  0  0  0  0  0  0  0  0  0  0
   -6.0358   -1.6947   -1.8563 H   0  0  0  0  0  0  0  0  0  0  0  0
   -3.5835   -1.7329   -2.1408 H   0  0  0  0  0  0  0  0  0  0  0  0
   -2.0237   -1.8062   -0.2285 H   0  0  0  0  0  0  0  0  0  0  0  0
   -2.9481   -1.7416    2.0747 H   0  0  0  0  0  0  0  0  0  0  0  0
   -4.5227    1.1158    0.3679 O   0  0  0  0  0  0  0  0  0  0  0  0
   -4.0648    1.1681   -0.7505 C   0  0  0  0  0  0  0  0  0  0  0  0
   -3.7510    0.1920   -1.5950 O   0  0  0  0  0  0  0  0  0  0  0  0
   -3.7418    2.5233   -1.4303 C   0  0  0  0  0  0  0  0  0  0  0  0
   -2.4262    2.6116   -1.7056 F   0  0  0  0  0  0  0  0  0  0  0  0
   -4.4211    2.6521   -2.5857 F   0  0  0  0  0  0  0  0  0  0  0  0
   -4.0745    3.5398   -0.6287 F   0  0  0  0  0  0  0  0  0  0  0  0
  1  2  1  6  0  0  0
  2  3  1  0  0  0  0
  4  9  1  0  0  0  0
  4  1  1  0  0  0  0
  5  4  2  0  0  0  0
  6 11  1  6  0  0  0
  6  5  1  0  0  0  0
  6  7  1  0  0  0  0
  7  8  2  0  0  0  0
  8  1  1  0  0  0  0
  8 13  1  0  0  0  0
 10  5  1  0  0  0  0
 12  7  1  0  0  0  0
 15 14  2  0  0  0  0
 16  6  1  0  0  0  0
 16 15  1  0  0  0  0
 17 15  1  0  0  0  0
 17 20  1  0  0  0  0
 18 17  1  0  0  0  0
 19 17  1  0  0  0  0
M  RAD  3   1   2   2   2   3   3
M  END
