Coordinates from ORCA-job PhN2+~CF3COO-_B3LYPG-6-31G_dp-NX-Scan-d89-09-n800
 OpenBabel11261920123D

 20 20  0  0  1  0  0  0  0  0999 V2000
   -5.0460   -1.4717    1.4807 C   0  0  0  0  0  0  0  0  0  0  0  0
   -5.5374   -1.3952    2.6966 N   0  0  0  0  0  0  0  0  0  0  0  0
   -5.9635   -1.3173    3.7526 N   0  0  0  0  0  0  0  0  0  0  0  0
   -5.9385   -1.4726    0.3428 C   0  0  0  0  0  0  0  0  0  0  0  0
   -5.4302   -1.3904   -0.9010 C   0  0  0  0  0  0  0  0  0  0  0  0
   -3.9703   -1.1868   -1.1472 C   0  0  2  0  0  0  0  0  0  0  0  0
   -3.1072   -1.4570    0.0424 C   0  0  0  0  0  0  0  0  0  0  0  0
   -3.6144   -1.5384    1.2867 C   0  0  0  0  0  0  0  0  0  0  0  0
   -7.0065   -1.5652    0.5154 H   0  0  0  0  0  0  0  0  0  0  0  0
   -6.0849   -1.4248   -1.7658 H   0  0  0  0  0  0  0  0  0  0  0  0
   -3.6314   -1.7489   -2.0214 H   0  0  0  0  0  0  0  0  0  0  0  0
   -2.0375   -1.5403   -0.1222 H   0  0  0  0  0  0  0  0  0  0  0  0
   -2.9750   -1.6783    2.1528 H   0  0  0  0  0  0  0  0  0  0  0  0
   -4.4510    1.3015    0.2010 O   0  0  0  0  0  0  0  0  0  0  0  0
   -3.9955    1.2679   -0.9156 C   0  0  0  0  0  0  0  0  0  0  0  0
   -3.7139    0.2157   -1.6793 O   0  0  0  0  0  0  0  0  0  0  0  0
   -3.6339    2.5564   -1.6963 C   0  0  0  0  0  0  0  0  0  0  0  0
   -2.3174    2.5816   -1.9802 F   0  0  0  0  0  0  0  0  0  0  0  0
   -4.3139    2.6168   -2.8567 F   0  0  0  0  0  0  0  0  0  0  0  0
   -3.9317    3.6402   -0.9733 F   0  0  0  0  0  0  0  0  0  0  0  0
  1  2  1  0  0  0  0
  2  3  1  0  0  0  0
  4  9  1  0  0  0  0
  4  1  2  0  0  0  0
  5  4  1  0  0  0  0
  6 11  1  6  0  0  0
  6  5  1  0  0  0  0
  6  7  1  0  0  0  0
  7  8  2  0  0  0  0
  8  1  1  0  0  0  0
  8 13  1  0  0  0  0
 10  5  1  0  0  0  0
 12  7  1  0  0  0  0
 15 14  2  0  0  0  0
 16  6  1  0  0  0  0
 16 15  1  0  0  0  0
 17 20  1  0  0  0  0
 17 15  1  0  0  0  0
 18 17  1  0  0  0  0
 19 17  1  0  0  0  0
M  RAD  3   2   2   3   3   5   2
M  END
