Coordinates from ORCA-job PhN2+~CF3COO-_B3LYPG-6-31G_dp-NX-Scan-d89-09-n800
 OpenBabel11261920123D

 20 20  0  0  1  0  0  0  0  0999 V2000
   -5.0750   -1.5619    1.5428 C   0  0  0  0  0  0  0  0  0  0  0  0
   -5.5716   -1.7091    2.7504 N   0  0  0  0  0  0  0  0  0  0  0  0
   -6.0035   -1.8387    3.8006 N   0  0  0  0  0  0  0  0  0  0  0  0
   -5.9621   -1.4664    0.4032 C   0  0  0  0  0  0  0  0  0  0  0  0
   -5.4557   -1.2842   -0.8301 C   0  0  0  0  0  0  0  0  0  0  0  0
   -3.9910   -1.1152   -1.0837 C   0  0  2  0  0  0  0  0  0  0  0  0
   -3.1314   -1.3504    0.1179 C   0  0  0  0  0  0  0  0  0  0  0  0
   -3.6409   -1.5314    1.3501 C   0  0  0  0  0  0  0  0  0  0  0  0
   -7.0310   -1.5688    0.5643 H   0  0  0  0  0  0  0  0  0  0  0  0
   -6.1152   -1.2380   -1.6909 H   0  0  0  0  0  0  0  0  0  0  0  0
   -3.6656   -1.7357   -1.9255 H   0  0  0  0  0  0  0  0  0  0  0  0
   -2.0564   -1.3529   -0.0356 H   0  0  0  0  0  0  0  0  0  0  0  0
   -2.9958   -1.6805    2.2104 H   0  0  0  0  0  0  0  0  0  0  0  0
   -4.4129    1.4474    0.1184 O   0  0  0  0  0  0  0  0  0  0  0  0
   -3.9586    1.3408   -0.9926 C   0  0  0  0  0  0  0  0  0  0  0  0
   -3.7034    0.2377   -1.6937 O   0  0  0  0  0  0  0  0  0  0  0  0
   -3.5721    2.5715   -1.8505 C   0  0  0  0  0  0  0  0  0  0  0  0
   -2.2612    2.5400   -2.1579 F   0  0  0  0  0  0  0  0  0  0  0  0
   -4.2720    2.5870   -3.0007 F   0  0  0  0  0  0  0  0  0  0  0  0
   -3.8243    3.7022   -1.1849 F   0  0  0  0  0  0  0  0  0  0  0  0
  1  2  1  0  0  0  0
  2  3  1  0  0  0  0
  4  9  1  0  0  0  0
  4  1  1  0  0  0  0
  5  4  2  0  0  0  0
  6 11  1  6  0  0  0
  6  5  1  0  0  0  0
  6  7  1  0  0  0  0
  7  8  1  0  0  0  0
  8  1  2  0  0  0  0
  8 13  1  0  0  0  0
 10  5  1  0  0  0  0
 12  7  1  0  0  0  0
 15 14  2  0  0  0  0
 16  6  1  0  0  0  0
 16 15  1  0  0  0  0
 17 20  1  0  0  0  0
 17 15  1  0  0  0  0
 18 17  1  0  0  0  0
 19 17  1  0  0  0  0
M  RAD  3   2   2   3   3   7   2
M  END
