Coordinates from ORCA-job PhN2+~CF3COO-_B3LYPG-6-31G_dp-NX-Scan-d89-09-n800
 OpenBabel11261920123D

 20 20  0  0  1  0  0  0  0  0999 V2000
   -5.0164   -1.4306    1.4097 C   0  0  1  0  0  0  0  0  0  0  0  0
   -5.4773   -1.0336    2.5729 N   0  0  0  0  0  0  0  0  0  0  0  0
   -5.8708   -0.6516    3.5716 N   0  0  0  0  0  0  0  0  0  0  0  0
   -5.9160   -1.5149    0.2803 C   0  0  0  0  0  0  0  0  0  0  0  0
   -5.4053   -1.5054   -0.9657 C   0  0  0  0  0  0  0  0  0  0  0  0
   -3.9518   -1.2556   -1.1987 C   0  0  2  0  0  0  0  0  0  0  0  0
   -3.0863   -1.5712   -0.0239 C   0  0  0  0  0  0  0  0  0  0  0  0
   -3.5896   -1.5800    1.2250 C   0  0  0  0  0  0  0  0  0  0  0  0
   -6.9833   -1.5976    0.4626 H   0  0  0  0  0  0  0  0  0  0  0  0
   -6.0510   -1.6090   -1.8314 H   0  0  0  0  0  0  0  0  0  0  0  0
   -3.5967   -1.7448   -2.1073 H   0  0  0  0  0  0  0  0  0  0  0  0
   -2.0259   -1.7234   -0.1969 H   0  0  0  0  0  0  0  0  0  0  0  0
   -2.9569   -1.7094    2.0978 H   0  0  0  0  0  0  0  0  0  0  0  0
   -4.4925    1.1685    0.3068 O   0  0  0  0  0  0  0  0  0  0  0  0
   -4.0368    1.1979   -0.8121 C   0  0  0  0  0  0  0  0  0  0  0  0
   -3.7337    0.1981   -1.6335 O   0  0  0  0  0  0  0  0  0  0  0  0
   -3.7052    2.5349   -1.5222 C   0  0  0  0  0  0  0  0  0  0  0  0
   -2.3897    2.6068   -1.8024 F   0  0  0  0  0  0  0  0  0  0  0  0
   -4.3864    2.6428   -2.6786 F   0  0  0  0  0  0  0  0  0  0  0  0
   -4.0284    3.5712   -0.7422 F   0  0  0  0  0  0  0  0  0  0  0  0
  1  2  1  6  0  0  0
  2  3  1  0  0  0  0
  4  9  1  0  0  0  0
  4  1  1  0  0  0  0
  5  4  2  0  0  0  0
  6 11  1  6  0  0  0
  6  5  1  0  0  0  0
  6  7  1  0  0  0  0
  7  8  2  0  0  0  0
  8  1  1  0  0  0  0
  8 13  1  0  0  0  0
 10  5  1  0  0  0  0
 12  7  1  0  0  0  0
 15 14  2  0  0  0  0
 16  6  1  0  0  0  0
 16 15  1  0  0  0  0
 17 15  1  0  0  0  0
 17 20  1  0  0  0  0
 18 17  1  0  0  0  0
 19 17  1  0  0  0  0
M  RAD  3   1   2   2   2   3   3
M  END
