Coordinates from ORCA-job PhN2+~CF3COO-_B3LYPG-6-31G_dp-NX-Scan-d89-09-n800
 OpenBabel11261920123D

 20 20  0  0  1  0  0  0  0  0999 V2000
   -5.0006   -1.5031    1.3692 C   0  0  1  0  0  0  0  0  0  0  0  0
   -5.3074   -0.5123    2.1907 N   0  0  0  0  0  0  0  0  0  0  0  0
   -5.4904    0.4775    2.7073 N   0  0  0  0  0  0  0  0  0  0  0  0
   -5.9061   -1.6627    0.2380 C   0  0  0  0  0  0  0  0  0  0  0  0
   -5.3900   -1.6630   -1.0054 C   0  0  0  0  0  0  0  0  0  0  0  0
   -3.9514   -1.3206   -1.2079 C   0  0  2  0  0  0  0  0  0  0  0  0
   -3.0766   -1.7246   -0.0680 C   0  0  0  0  0  0  0  0  0  0  0  0
   -3.5716   -1.7241    1.1839 C   0  0  0  0  0  0  0  0  0  0  0  0
   -6.9726   -1.7615    0.4212 H   0  0  0  0  0  0  0  0  0  0  0  0
   -6.0133   -1.8345   -1.8770 H   0  0  0  0  0  0  0  0  0  0  0  0
   -3.5735   -1.6805   -2.1643 H   0  0  0  0  0  0  0  0  0  0  0  0
   -2.0315   -1.9416   -0.2640 H   0  0  0  0  0  0  0  0  0  0  0  0
   -2.9387   -1.8673    2.0553 H   0  0  0  0  0  0  0  0  0  0  0  0
   -4.5868    1.0685    0.5171 O   0  0  0  0  0  0  0  0  0  0  0  0
   -4.1277    1.1402   -0.6030 C   0  0  0  0  0  0  0  0  0  0  0  0
   -3.8012    0.1941   -1.4764 O   0  0  0  0  0  0  0  0  0  0  0  0
   -3.8139    2.5145   -1.2513 C   0  0  0  0  0  0  0  0  0  0  0  0
   -2.4989    2.6185   -1.5235 F   0  0  0  0  0  0  0  0  0  0  0  0
   -4.4939    2.6657   -2.4034 F   0  0  0  0  0  0  0  0  0  0  0  0
   -4.1539    3.5099   -0.4266 F   0  0  0  0  0  0  0  0  0  0  0  0
  1  2  1  6  0  0  0
  2  3  1  0  0  0  0
  4  9  1  0  0  0  0
  4  1  1  0  0  0  0
  5  4  2  0  0  0  0
  6 11  1  6  0  0  0
  6  5  1  0  0  0  0
  6  7  1  0  0  0  0
  7  8  2  0  0  0  0
  8  1  1  0  0  0  0
  8 13  1  0  0  0  0
 10  5  1  0  0  0  0
 12  7  1  0  0  0  0
 15 14  2  0  0  0  0
 16  6  1  0  0  0  0
 16 15  1  0  0  0  0
 17 15  1  0  0  0  0
 17 20  1  0  0  0  0
 18 17  1  0  0  0  0
 19 17  1  0  0  0  0
M  RAD  3   1   2   2   2   3   3
M  END
