Coordinates from ORCA-job PhN2+~CF3COO-_B3LYPG-6-31G_dp-NX-Scan-d89-09-n800
 OpenBabel11261920123D

 20 20  0  0  1  0  0  0  0  0999 V2000
   -5.1800   -1.7796    1.5620 C   0  0  0  0  0  0  0  0  0  0  0  0
   -5.6832   -2.1422    2.7202 N   0  0  0  0  0  0  0  0  0  0  0  0
   -6.1203   -2.4316    3.7336 N   0  0  0  0  0  0  0  0  0  0  0  0
   -6.0168   -1.0989    0.5976 C   0  0  0  0  0  0  0  0  0  0  0  0
   -5.4601   -0.5823   -0.5144 C   0  0  0  0  0  0  0  0  0  0  0  0
   -3.9764   -0.5400   -0.6913 C   0  0  2  0  0  0  0  0  0  0  0  0
   -3.2473   -1.5489    0.1350 C   0  0  0  0  0  0  0  0  0  0  0  0
   -3.7968   -2.0702    1.2482 C   0  0  0  0  0  0  0  0  0  0  0  0
   -7.0863   -1.0463    0.7771 H   0  0  0  0  0  0  0  0  0  0  0  0
   -6.0752   -0.1022   -1.2665 H   0  0  0  0  0  0  0  0  0  0  0  0
   -3.6762   -0.5798   -1.7376 H   0  0  0  0  0  0  0  0  0  0  0  0
   -2.2233   -1.7822   -0.1347 H   0  0  0  0  0  0  0  0  0  0  0  0
   -3.2386   -2.7314    1.9038 H   0  0  0  0  0  0  0  0  0  0  0  0
   -3.3834    3.0095   -0.2137 O   0  0  0  0  0  0  0  0  0  0  0  0
   -3.5012    1.9561   -0.7866 C   0  0  0  0  0  0  0  0  0  0  0  0
   -3.4936    0.7935   -0.1400 O   0  0  0  0  0  0  0  0  0  0  0  0
   -3.6095    1.9313   -2.3350 C   0  0  0  0  0  0  0  0  0  0  0  0
   -2.6466    1.1456   -2.8708 F   0  0  0  0  0  0  0  0  0  0  0  0
   -4.8060    1.4373   -2.7373 F   0  0  0  0  0  0  0  0  0  0  0  0
   -3.4790    3.1554   -2.8375 F   0  0  0  0  0  0  0  0  0  0  0  0
  1  2  1  0  0  0  0
  2  3  1  0  0  0  0
  4  9  1  0  0  0  0
  4  1  2  0  0  0  0
  5  4  1  0  0  0  0
  6 11  1  6  0  0  0
  6  5  1  0  0  0  0
  6 16  1  0  0  0  0
  6  7  1  0  0  0  0
  7  8  2  0  0  0  0
  8  1  1  0  0  0  0
  8 13  1  0  0  0  0
 10  5  1  0  0  0  0
 12  7  1  0  0  0  0
 15 14  2  0  0  0  0
 15 16  1  0  0  0  0
 17 15  1  0  0  0  0
 18 17  1  0  0  0  0
 19 17  1  0  0  0  0
 20 17  1  0  0  0  0
M  RAD  3   2   2   3   3   5   2
M  END
