Coordinates from ORCA-job PhN2+~CF3COO-_B3LYPG-6-31G_dp-NX-Scan-d89-09-n800
 OpenBabel11261920123D

 20 20  0  0  1  0  0  0  0  0999 V2000
   -4.9992   -1.4887    1.3653 C   0  0  1  0  0  0  0  0  0  0  0  0
   -5.3249   -0.5459    2.2300 N   0  0  0  0  0  0  0  0  0  0  0  0
   -5.5453    0.3853    2.8357 N   0  0  0  0  0  0  0  0  0  0  0  0
   -5.9048   -1.6451    0.2358 C   0  0  0  0  0  0  0  0  0  0  0  0
   -5.3892   -1.6519   -1.0077 C   0  0  0  0  0  0  0  0  0  0  0  0
   -3.9489   -1.3190   -1.2133 C   0  0  2  0  0  0  0  0  0  0  0  0
   -3.0753   -1.7137   -0.0693 C   0  0  0  0  0  0  0  0  0  0  0  0
   -3.5711   -1.7066    1.1822 C   0  0  0  0  0  0  0  0  0  0  0  0
   -6.9715   -1.7387    0.4201 H   0  0  0  0  0  0  0  0  0  0  0  0
   -6.0148   -1.8193   -1.8784 H   0  0  0  0  0  0  0  0  0  0  0  0
   -3.5725   -1.6906   -2.1659 H   0  0  0  0  0  0  0  0  0  0  0  0
   -2.0289   -1.9268   -0.2623 H   0  0  0  0  0  0  0  0  0  0  0  0
   -2.9391   -1.8447    2.0549 H   0  0  0  0  0  0  0  0  0  0  0  0
   -4.5751    1.0680    0.4972 O   0  0  0  0  0  0  0  0  0  0  0  0
   -4.1182    1.1392   -0.6229 C   0  0  0  0  0  0  0  0  0  0  0  0
   -3.7933    0.1915   -1.4952 O   0  0  0  0  0  0  0  0  0  0  0  0
   -3.8055    2.5126   -1.2732 C   0  0  0  0  0  0  0  0  0  0  0  0
   -2.4910    2.6161   -1.5481 F   0  0  0  0  0  0  0  0  0  0  0  0
   -4.4877    2.6626   -2.4241 F   0  0  0  0  0  0  0  0  0  0  0  0
   -4.1437    3.5089   -0.4490 F   0  0  0  0  0  0  0  0  0  0  0  0
  1  2  1  6  0  0  0
  2  3  1  0  0  0  0
  4  9  1  0  0  0  0
  4  1  1  0  0  0  0
  5  4  2  0  0  0  0
  6 11  1  6  0  0  0
  6  5  1  0  0  0  0
  6  7  1  0  0  0  0
  7  8  2  0  0  0  0
  8  1  1  0  0  0  0
  8 13  1  0  0  0  0
 10  5  1  0  0  0  0
 12  7  1  0  0  0  0
 15 14  2  0  0  0  0
 16  6  1  0  0  0  0
 16 15  1  0  0  0  0
 17 15  1  0  0  0  0
 17 20  1  0  0  0  0
 18 17  1  0  0  0  0
 19 17  1  0  0  0  0
M  RAD  3   1   2   2   2   3   3
M  END
