Coordinates from ORCA-job PhN2+~CF3COO-_B3LYPG-6-31G_dp-NX-Scan-d89-09-n800
 OpenBabel11261920123D

 20 20  0  0  1  0  0  0  0  0999 V2000
   -5.0008   -1.5066    1.3704 C   0  0  1  0  0  0  0  0  0  0  0  0
   -5.3034   -0.5059    2.1830 N   0  0  0  0  0  0  0  0  0  0  0  0
   -5.4771    0.4961    2.6782 N   0  0  0  0  0  0  0  0  0  0  0  0
   -5.9063   -1.6662    0.2389 C   0  0  0  0  0  0  0  0  0  0  0  0
   -5.3902   -1.6650   -1.0046 C   0  0  0  0  0  0  0  0  0  0  0  0
   -3.9520   -1.3209   -1.2066 C   0  0  2  0  0  0  0  0  0  0  0  0
   -3.0770   -1.7270   -0.0676 C   0  0  0  0  0  0  0  0  0  0  0  0
   -3.5717   -1.7280    1.1845 C   0  0  0  0  0  0  0  0  0  0  0  0
   -6.9728   -1.7659    0.4218 H   0  0  0  0  0  0  0  0  0  0  0  0
   -6.0131   -1.8372   -1.8764 H   0  0  0  0  0  0  0  0  0  0  0  0
   -3.5739   -1.6783   -2.1638 H   0  0  0  0  0  0  0  0  0  0  0  0
   -2.0322   -1.9451   -0.2644 H   0  0  0  0  0  0  0  0  0  0  0  0
   -2.9385   -1.8726    2.0554 H   0  0  0  0  0  0  0  0  0  0  0  0
   -4.5912    1.0688    0.5204 O   0  0  0  0  0  0  0  0  0  0  0  0
   -4.1302    1.1406   -0.5991 C   0  0  0  0  0  0  0  0  0  0  0  0
   -3.8026    0.1949   -1.4723 O   0  0  0  0  0  0  0  0  0  0  0  0
   -3.8157    2.5152   -1.2468 C   0  0  0  0  0  0  0  0  0  0  0  0
   -2.5003    2.6193   -1.5170 F   0  0  0  0  0  0  0  0  0  0  0  0
   -4.4940    2.6664   -2.3998 F   0  0  0  0  0  0  0  0  0  0  0  0
   -4.1570    3.5104   -0.4225 F   0  0  0  0  0  0  0  0  0  0  0  0
  1  2  1  6  0  0  0
  2  3  1  0  0  0  0
  4  9  1  0  0  0  0
  4  1  1  0  0  0  0
  5  4  2  0  0  0  0
  6 11  1  6  0  0  0
  6  5  1  0  0  0  0
  6  7  1  0  0  0  0
  7  8  2  0  0  0  0
  8  1  1  0  0  0  0
  8 13  1  0  0  0  0
 10  5  1  0  0  0  0
 12  7  1  0  0  0  0
 15 14  2  0  0  0  0
 16  6  1  0  0  0  0
 16 15  1  0  0  0  0
 17 15  1  0  0  0  0
 17 20  1  0  0  0  0
 18 17  1  0  0  0  0
 19 17  1  0  0  0  0
M  RAD  3   1   2   2   2   3   3
M  END
