Coordinates from ORCA-job PhN2+~CF3COO-_B3LYPG-6-31G_dp-NX-Scan-d89-09-n800
 OpenBabel11261920123D

 20 20  0  0  1  0  0  0  0  0999 V2000
   -5.1663   -1.7453    1.5517 C   0  0  0  0  0  0  0  0  0  0  0  0
   -5.6560   -2.0253    2.7385 N   0  0  0  0  0  0  0  0  0  0  0  0
   -6.0817   -2.2377    3.7756 N   0  0  0  0  0  0  0  0  0  0  0  0
   -6.0040   -1.0955    0.5664 C   0  0  0  0  0  0  0  0  0  0  0  0
   -5.4450   -0.6224   -0.5640 C   0  0  0  0  0  0  0  0  0  0  0  0
   -3.9590   -0.5829   -0.7256 C   0  0  2  0  0  0  0  0  0  0  0  0
   -3.2459   -1.6050    0.0989 C   0  0  0  0  0  0  0  0  0  0  0  0
   -3.7950   -2.0835    1.2317 C   0  0  0  0  0  0  0  0  0  0  0  0
   -7.0727   -1.0318    0.7466 H   0  0  0  0  0  0  0  0  0  0  0  0
   -6.0562   -0.1693   -1.3354 H   0  0  0  0  0  0  0  0  0  0  0  0
   -3.6458   -0.6061   -1.7686 H   0  0  0  0  0  0  0  0  0  0  0  0
   -2.2336   -1.8737   -0.1811 H   0  0  0  0  0  0  0  0  0  0  0  0
   -3.2481   -2.7433    1.8983 H   0  0  0  0  0  0  0  0  0  0  0  0
   -3.4875    2.9591   -0.1269 O   0  0  0  0  0  0  0  0  0  0  0  0
   -3.5431    1.9242   -0.7418 C   0  0  0  0  0  0  0  0  0  0  0  0
   -3.4760    0.7384   -0.1428 O   0  0  0  0  0  0  0  0  0  0  0  0
   -3.6259    1.9507   -2.2916 C   0  0  0  0  0  0  0  0  0  0  0  0
   -2.6412    1.2002   -2.8374 F   0  0  0  0  0  0  0  0  0  0  0  0
   -4.8066    1.4490   -2.7297 F   0  0  0  0  0  0  0  0  0  0  0  0
   -3.5100    3.1933   -2.7507 F   0  0  0  0  0  0  0  0  0  0  0  0
  1  2  1  0  0  0  0
  2  3  1  0  0  0  0
  4  9  1  0  0  0  0
  4  1  2  0  0  0  0
  5  4  1  0  0  0  0
  6 11  1  6  0  0  0
  6  5  1  0  0  0  0
  6 16  1  0  0  0  0
  6  7  1  0  0  0  0
  7  8  2  0  0  0  0
  8  1  1  0  0  0  0
  8 13  1  0  0  0  0
 10  5  1  0  0  0  0
 12  7  1  0  0  0  0
 15 16  1  0  0  0  0
 15 14  2  0  0  0  0
 17 15  1  0  0  0  0
 18 17  1  0  0  0  0
 19 17  1  0  0  0  0
 20 17  1  0  0  0  0
M  RAD  3   2   2   3   3   5   2
M  END
