Coordinates from ORCA-job PhN2+~CF3COO-_B3LYPG-6-31G_dp-NX-Scan-d89-09-n800
 OpenBabel11261920123D

 20 20  0  0  1  0  0  0  0  0999 V2000
   -5.2513   -1.9849    1.5562 C   0  0  0  0  0  0  0  0  0  0  0  0
   -5.8073   -2.8411    2.3849 N   0  0  0  0  0  0  0  0  0  0  0  0
   -6.2905   -3.5918    3.1019 N   0  0  0  0  0  0  0  0  0  0  0  0
   -6.0714   -1.0750    0.7808 C   0  0  0  0  0  0  0  0  0  0  0  0
   -5.5121   -0.2624   -0.1359 C   0  0  0  0  0  0  0  0  0  0  0  0
   -4.0410   -0.2366   -0.4185 C   0  0  2  0  0  0  0  0  0  0  0  0
   -3.2505   -1.1560    0.4612 C   0  0  0  0  0  0  0  0  0  0  0  0
   -3.8131   -1.9704    1.3737 C   0  0  0  0  0  0  0  0  0  0  0  0
   -7.1450   -1.0744    0.9443 H   0  0  0  0  0  0  0  0  0  0  0  0
   -6.1346    0.4035   -0.7232 H   0  0  0  0  0  0  0  0  0  0  0  0
   -3.8344   -0.4482   -1.4696 H   0  0  0  0  0  0  0  0  0  0  0  0
   -2.1737   -1.1542    0.3242 H   0  0  0  0  0  0  0  0  0  0  0  0
   -3.2041   -2.6368    1.9766 H   0  0  0  0  0  0  0  0  0  0  0  0
   -2.7471    3.1346   -0.8309 O   0  0  0  0  0  0  0  0  0  0  0  0
   -3.2441    2.0680   -1.0917 C   0  0  0  0  0  0  0  0  0  0  0  0
   -3.5137    1.1513   -0.1562 O   0  0  0  0  0  0  0  0  0  0  0  0
   -3.5880    1.7469   -2.5735 C   0  0  0  0  0  0  0  0  0  0  0  0
   -2.8060    0.7454   -3.0421 F   0  0  0  0  0  0  0  0  0  0  0  0
   -4.8781    1.3592   -2.7119 F   0  0  0  0  0  0  0  0  0  0  0  0
   -3.3938    2.8161   -3.3383 F   0  0  0  0  0  0  0  0  0  0  0  0
  1  2  1  0  0  0  0
  2  3  1  0  0  0  0
  4  9  1  0  0  0  0
  4  1  2  0  0  0  0
  5  4  1  0  0  0  0
  6 11  1  6  0  0  0
  6 16  1  0  0  0  0
  6  5  1  0  0  0  0
  6  7  1  0  0  0  0
  7  8  2  0  0  0  0
  8  1  1  0  0  0  0
  8 13  1  0  0  0  0
 10  5  1  0  0  0  0
 12  7  1  0  0  0  0
 15 14  2  0  0  0  0
 15 16  1  0  0  0  0
 17 15  1  0  0  0  0
 18 17  1  0  0  0  0
 19 17  1  0  0  0  0
 20 17  1  0  0  0  0
M  RAD  3   2   2   3   3   5   2
M  END
