Coordinates from ORCA-job PhN2+~CF3COO-_B3LYPG-6-31G_dp-NX-Scan-d89-09-n800
 OpenBabel11261920123D

 20 20  0  0  1  0  0  0  0  0999 V2000
   -5.0803   -1.5802    1.5530 C   0  0  0  0  0  0  0  0  0  0  0  0
   -5.5762   -1.7644    2.7558 N   0  0  0  0  0  0  0  0  0  0  0  0
   -6.0075   -1.9284    3.8018 N   0  0  0  0  0  0  0  0  0  0  0  0
   -5.9666   -1.4675    0.4141 C   0  0  0  0  0  0  0  0  0  0  0  0
   -5.4607   -1.2660   -0.8163 C   0  0  0  0  0  0  0  0  0  0  0  0
   -3.9954   -1.1013   -1.0713 C   0  0  2  0  0  0  0  0  0  0  0  0
   -3.1366   -1.3303    0.1327 C   0  0  0  0  0  0  0  0  0  0  0  0
   -3.6462   -1.5308    1.3619 C   0  0  0  0  0  0  0  0  0  0  0  0
   -7.0355   -1.5729    0.5730 H   0  0  0  0  0  0  0  0  0  0  0  0
   -6.1210   -1.2066   -1.6759 H   0  0  0  0  0  0  0  0  0  0  0  0
   -3.6719   -1.7315   -1.9069 H   0  0  0  0  0  0  0  0  0  0  0  0
   -2.0614   -1.3180   -0.0186 H   0  0  0  0  0  0  0  0  0  0  0  0
   -3.0003   -1.6815    2.2213 H   0  0  0  0  0  0  0  0  0  0  0  0
   -4.4036    1.4762    0.1049 O   0  0  0  0  0  0  0  0  0  0  0  0
   -3.9533    1.3549   -1.0059 C   0  0  0  0  0  0  0  0  0  0  0  0
   -3.7035    0.2426   -1.6945 O   0  0  0  0  0  0  0  0  0  0  0  0
   -3.5609    2.5738   -1.8782 C   0  0  0  0  0  0  0  0  0  0  0  0
   -2.2516    2.5290   -2.1907 F   0  0  0  0  0  0  0  0  0  0  0  0
   -4.2656    2.5828   -3.0254 F   0  0  0  0  0  0  0  0  0  0  0  0
   -3.8018    3.7130   -1.2229 F   0  0  0  0  0  0  0  0  0  0  0  0
  1  2  1  0  0  0  0
  2  3  1  0  0  0  0
  4  9  1  0  0  0  0
  4  1  2  0  0  0  0
  5  4  1  0  0  0  0
  6 11  1  6  0  0  0
  6  5  1  0  0  0  0
  6  7  1  0  0  0  0
  7  8  2  0  0  0  0
  8  1  1  0  0  0  0
  8 13  1  0  0  0  0
 10  5  1  0  0  0  0
 12  7  1  0  0  0  0
 15 14  2  0  0  0  0
 16  6  1  0  0  0  0
 16 15  1  0  0  0  0
 17 20  1  0  0  0  0
 17 15  1  0  0  0  0
 18 17  1  0  0  0  0
 19 17  1  0  0  0  0
M  RAD  3   2   2   3   3   5   2
M  END
