Coordinates from ORCA-job PhN2+~CF3COO-_B3LYPG-6-31G_dp-NX-Scan-d89-09-n800
 OpenBabel11261920123D

 20 20  0  0  0  0  0  0  0  0999 V2000
   -3.8288   -1.1429    0.2391 C   0  0  0  0  0  0  0  0  0  0  0  0
   -3.5057    0.1075    0.8141 N   0  0  0  0  0  0  0  0  0  0  0  0
   -3.8602    1.2452    0.6034 N   0  0  0  0  0  0  0  0  0  0  0  0
   -4.6950   -1.3999   -0.8446 C   0  0  0  0  0  0  0  0  0  0  0  0
   -4.8737   -2.7155   -1.2653 C   0  0  0  0  0  0  0  0  0  0  0  0
   -4.2132   -3.7707   -0.6300 C   0  0  0  0  0  0  0  0  0  0  0  0
   -3.3560   -3.5164    0.4431 C   0  0  0  0  0  0  0  0  0  0  0  0
   -3.1635   -2.2084    0.8731 C   0  0  0  0  0  0  0  0  0  0  0  0
   -5.2102   -0.5931   -1.3406 H   0  0  0  0  0  0  0  0  0  0  0  0
   -5.5375   -2.9167   -2.1006 H   0  0  0  0  0  0  0  0  0  0  0  0
   -4.3672   -4.7896   -0.9727 H   0  0  0  0  0  0  0  0  0  0  0  0
   -2.8410   -4.3320    0.9398 H   0  0  0  0  0  0  0  0  0  0  0  0
   -2.5031   -1.9773    1.7020 H   0  0  0  0  0  0  0  0  0  0  0  0
   -4.8691    1.3581   -0.5154 O   0  0  0  0  0  0  0  0  0  0  0  0
   -5.3042    2.6043   -0.7888 C   0  0  0  0  0  0  0  0  0  0  0  0
   -6.1111    2.7957   -1.6595 O   0  0  0  0  0  0  0  0  0  0  0  0
   -4.7372    3.7873    0.0461 C   0  0  0  0  0  0  0  0  0  0  0  0
   -3.4051    3.8888   -0.0986 F   0  0  0  0  0  0  0  0  0  0  0  0
   -5.2921    4.9240   -0.3833 F   0  0  0  0  0  0  0  0  0  0  0  0
   -5.0261    3.6448    1.3506 F   0  0  0  0  0  0  0  0  0  0  0  0
  1  2  1  0  0  0  0
  1  8  2  0  0  0  0
  3  2  1  0  0  0  0
  4  1  1  0  0  0  0
  5  4  2  0  0  0  0
  5  6  1  0  0  0  0
  6  7  2  0  0  0  0
  7  8  1  0  0  0  0
  7 12  1  0  0  0  0
  8 13  1  0  0  0  0
  9  4  1  0  0  0  0
 10  5  1  0  0  0  0
 11  6  1  0  0  0  0
 14  3  1  0  0  0  0
 15 14  1  0  0  0  0
 15 17  1  0  0  0  0
 16 15  2  0  0  0  0
 17 20  1  0  0  0  0
 18 17  1  0  0  0  0
 19 17  1  0  0  0  0
M  RAD  2   2   2   3   2
M  END
