Coordinates from ORCA-job PhN2+~CF3COO-_B3LYPG-6-31G_dp-NX-Scan-d89-09-n800
 OpenBabel11261920123D

 20 20  0  0  1  0  0  0  0  0999 V2000
   -5.2302   -1.9186    1.5783 C   0  0  0  0  0  0  0  0  0  0  0  0
   -5.7700   -2.6183    2.5508 N   0  0  0  0  0  0  0  0  0  0  0  0
   -6.2390   -3.2239    3.3992 N   0  0  0  0  0  0  0  0  0  0  0  0
   -6.0639   -1.0991    0.7242 C   0  0  0  0  0  0  0  0  0  0  0  0
   -5.5138   -0.3897   -0.2792 C   0  0  0  0  0  0  0  0  0  0  0  0
   -4.0392   -0.3432   -0.5243 C   0  0  2  0  0  0  0  0  0  0  0  0
   -3.2552   -1.2901    0.3270 C   0  0  0  0  0  0  0  0  0  0  0  0
   -3.8065   -2.0018    1.3276 C   0  0  0  0  0  0  0  0  0  0  0  0
   -7.1361   -1.0905    0.8959 H   0  0  0  0  0  0  0  0  0  0  0  0
   -6.1410    0.2050   -0.9340 H   0  0  0  0  0  0  0  0  0  0  0  0
   -3.7980   -0.4792   -1.5789 H   0  0  0  0  0  0  0  0  0  0  0  0
   -2.1912   -1.3652    0.1272 H   0  0  0  0  0  0  0  0  0  0  0  0
   -3.2057   -2.6629    1.9443 H   0  0  0  0  0  0  0  0  0  0  0  0
   -2.9409    3.1252   -0.6053 O   0  0  0  0  0  0  0  0  0  0  0  0
   -3.3264    2.0480   -0.9832 C   0  0  0  0  0  0  0  0  0  0  0  0
   -3.5442    1.0354   -0.1434 O   0  0  0  0  0  0  0  0  0  0  0  0
   -3.5688    1.8240   -2.5016 C   0  0  0  0  0  0  0  0  0  0  0  0
   -2.7223    0.8867   -2.9912 F   0  0  0  0  0  0  0  0  0  0  0  0
   -4.8324    1.3997   -2.7441 F   0  0  0  0  0  0  0  0  0  0  0  0
   -3.3751    2.9517   -3.1775 F   0  0  0  0  0  0  0  0  0  0  0  0
  1  2  1  0  0  0  0
  2  3  1  0  0  0  0
  4  9  1  0  0  0  0
  4  1  2  0  0  0  0
  5  4  1  0  0  0  0
  6 11  1  6  0  0  0
  6  5  1  0  0  0  0
  6 16  1  0  0  0  0
  6  7  1  0  0  0  0
  7  8  2  0  0  0  0
  8  1  1  0  0  0  0
  8 13  1  0  0  0  0
 10  5  1  0  0  0  0
 12  7  1  0  0  0  0
 15 14  2  0  0  0  0
 15 16  1  0  0  0  0
 17 15  1  0  0  0  0
 18 17  1  0  0  0  0
 19 17  1  0  0  0  0
 20 17  1  0  0  0  0
M  RAD  3   2   2   3   3   5   2
M  END
