Coordinates from ORCA-job PhN2+~CF3COO-_B3LYPG-6-31G_dp-NX-Scan-d89-09-n800
 OpenBabel11261920123D

 20 20  0  0  1  0  0  0  0  0999 V2000
   -5.1815   -1.7838    1.5631 C   0  0  0  0  0  0  0  0  0  0  0  0
   -5.6860   -2.1560    2.7177 N   0  0  0  0  0  0  0  0  0  0  0  0
   -6.1241   -2.4544    3.7282 N   0  0  0  0  0  0  0  0  0  0  0  0
   -6.0186   -1.0996    0.6014 C   0  0  0  0  0  0  0  0  0  0  0  0
   -5.4623   -0.5776   -0.5083 C   0  0  0  0  0  0  0  0  0  0  0  0
   -3.9789   -0.5347   -0.6872 C   0  0  2  0  0  0  0  0  0  0  0  0
   -3.2477   -1.5419    0.1393 C   0  0  0  0  0  0  0  0  0  0  0  0
   -3.7970   -2.0685    1.2500 C   0  0  0  0  0  0  0  0  0  0  0  0
   -7.0882   -1.0485    0.7809 H   0  0  0  0  0  0  0  0  0  0  0  0
   -6.0780   -0.0944   -1.2580 H   0  0  0  0  0  0  0  0  0  0  0  0
   -3.6804   -0.5764   -1.7339 H   0  0  0  0  0  0  0  0  0  0  0  0
   -2.2223   -1.7708   -0.1293 H   0  0  0  0  0  0  0  0  0  0  0  0
   -3.2373   -2.7298    1.9043 H   0  0  0  0  0  0  0  0  0  0  0  0
   -3.3711    3.0151   -0.2242 O   0  0  0  0  0  0  0  0  0  0  0  0
   -3.4965    1.9598   -0.7919 C   0  0  0  0  0  0  0  0  0  0  0  0
   -3.4964    0.8003   -0.1396 O   0  0  0  0  0  0  0  0  0  0  0  0
   -3.6071    1.9289   -2.3401 C   0  0  0  0  0  0  0  0  0  0  0  0
   -2.6467    1.1388   -2.8740 F   0  0  0  0  0  0  0  0  0  0  0  0
   -4.8054    1.4360   -2.7387 F   0  0  0  0  0  0  0  0  0  0  0  0
   -3.4745    3.1506   -2.8477 F   0  0  0  0  0  0  0  0  0  0  0  0
  1  2  1  0  0  0  0
  2  3  1  0  0  0  0
  4  9  1  0  0  0  0
  4  1  2  0  0  0  0
  5  4  1  0  0  0  0
  6 11  1  6  0  0  0
  6  5  1  0  0  0  0
  6 16  1  0  0  0  0
  6  7  1  0  0  0  0
  7  8  2  0  0  0  0
  8  1  1  0  0  0  0
  8 13  1  0  0  0  0
 10  5  1  0  0  0  0
 12  7  1  0  0  0  0
 15 14  2  0  0  0  0
 15 16  1  0  0  0  0
 17 15  1  0  0  0  0
 18 17  1  0  0  0  0
 19 17  1  0  0  0  0
 20 17  1  0  0  0  0
M  RAD  3   2   2   3   3   5   2
M  END
