Coordinates from ORCA-job PhN2+~CF3COO-_B3LYPG-6-31G_dp-NX-Scan-d89-09-n800
 OpenBabel11261920123D

 20 20  0  0  1  0  0  0  0  0999 V2000
   -5.0007   -1.4495    1.3683 C   0  0  1  0  0  0  0  0  0  0  0  0
   -5.3950   -0.7181    2.3869 N   0  0  0  0  0  0  0  0  0  0  0  0
   -5.7126   -0.0143    3.2205 N   0  0  0  0  0  0  0  0  0  0  0  0
   -5.9050   -1.5854    0.2424 C   0  0  0  0  0  0  0  0  0  0  0  0
   -5.3916   -1.6014   -1.0023 C   0  0  0  0  0  0  0  0  0  0  0  0
   -3.9459   -1.3026   -1.2203 C   0  0  2  0  0  0  0  0  0  0  0  0
   -3.0758   -1.6618   -0.0623 C   0  0  0  0  0  0  0  0  0  0  0  0
   -3.5745   -1.6446    1.1883 C   0  0  0  0  0  0  0  0  0  0  0  0
   -6.9720   -1.6687    0.4284 H   0  0  0  0  0  0  0  0  0  0  0  0
   -6.0263   -1.7499   -1.8697 H   0  0  0  0  0  0  0  0  0  0  0  0
   -3.5767   -1.7206   -2.1569 H   0  0  0  0  0  0  0  0  0  0  0  0
   -2.0239   -1.8551   -0.2454 H   0  0  0  0  0  0  0  0  0  0  0  0
   -2.9437   -1.7707    2.0632 H   0  0  0  0  0  0  0  0  0  0  0  0
   -4.5357    1.0876    0.4183 O   0  0  0  0  0  0  0  0  0  0  0  0
   -4.0834    1.1514   -0.7026 C   0  0  0  0  0  0  0  0  0  0  0  0
   -3.7672    0.1894   -1.5620 O   0  0  0  0  0  0  0  0  0  0  0  0
   -3.7669    2.5162   -1.3670 C   0  0  0  0  0  0  0  0  0  0  0  0
   -2.4527    2.6114   -1.6470 F   0  0  0  0  0  0  0  0  0  0  0  0
   -4.4517    2.6578   -2.5175 F   0  0  0  0  0  0  0  0  0  0  0  0
   -4.0985    3.5219   -0.5513 F   0  0  0  0  0  0  0  0  0  0  0  0
  1  2  1  6  0  0  0
  2  3  1  0  0  0  0
  4  9  1  0  0  0  0
  4  1  1  0  0  0  0
  5  4  2  0  0  0  0
  6 11  1  6  0  0  0
  6  5  1  0  0  0  0
  6  7  1  0  0  0  0
  7  8  2  0  0  0  0
  8  1  1  0  0  0  0
  8 13  1  0  0  0  0
 10  5  1  0  0  0  0
 12  7  1  0  0  0  0
 15 14  2  0  0  0  0
 16  6  1  0  0  0  0
 16 15  1  0  0  0  0
 17 15  1  0  0  0  0
 17 20  1  0  0  0  0
 18 17  1  0  0  0  0
 19 17  1  0  0  0  0
M  RAD  3   1   2   2   2   3   3
M  END
