Coordinates from ORCA-job PhN2+~CF3COO-_B3LYPG-6-31G_dp-NX-Scan-d89-09-n800
 OpenBabel11261920123D

 20 20  0  0  1  0  0  0  0  0999 V2000
   -5.0786   -1.5744    1.5495 C   0  0  0  0  0  0  0  0  0  0  0  0
   -5.5748   -1.7455    2.7543 N   0  0  0  0  0  0  0  0  0  0  0  0
   -6.0065   -1.8973    3.8019 N   0  0  0  0  0  0  0  0  0  0  0  0
   -5.9652   -1.4687    0.4103 C   0  0  0  0  0  0  0  0  0  0  0  0
   -5.4593   -1.2736   -0.8212 C   0  0  0  0  0  0  0  0  0  0  0  0
   -3.9943   -1.1063   -1.0756 C   0  0  2  0  0  0  0  0  0  0  0  0
   -3.1350   -1.3369    0.1274 C   0  0  0  0  0  0  0  0  0  0  0  0
   -3.6445   -1.5306    1.3578 C   0  0  0  0  0  0  0  0  0  0  0  0
   -7.0341   -1.5735    0.5701 H   0  0  0  0  0  0  0  0  0  0  0  0
   -6.1193   -1.2188   -1.6812 H   0  0  0  0  0  0  0  0  0  0  0  0
   -3.6696   -1.7325   -1.9137 H   0  0  0  0  0  0  0  0  0  0  0  0
   -2.0599   -1.3286   -0.0244 H   0  0  0  0  0  0  0  0  0  0  0  0
   -2.9988   -1.6799    2.2175 H   0  0  0  0  0  0  0  0  0  0  0  0
   -4.4059    1.4675    0.1099 O   0  0  0  0  0  0  0  0  0  0  0  0
   -3.9561    1.3507   -1.0016 C   0  0  0  0  0  0  0  0  0  0  0  0
   -3.7048    0.2413   -1.6942 O   0  0  0  0  0  0  0  0  0  0  0  0
   -3.5641    2.5733   -1.8687 C   0  0  0  0  0  0  0  0  0  0  0  0
   -2.2545    2.5311   -2.1802 F   0  0  0  0  0  0  0  0  0  0  0  0
   -4.2678    2.5859   -3.0165 F   0  0  0  0  0  0  0  0  0  0  0  0
   -3.8068    3.7098   -1.2094 F   0  0  0  0  0  0  0  0  0  0  0  0
  1  2  1  0  0  0  0
  2  3  1  0  0  0  0
  4  9  1  0  0  0  0
  4  1  1  0  0  0  0
  5  4  2  0  0  0  0
  6 11  1  6  0  0  0
  6  5  1  0  0  0  0
  6  7  1  0  0  0  0
  7  8  1  0  0  0  0
  8  1  2  0  0  0  0
  8 13  1  0  0  0  0
 10  5  1  0  0  0  0
 12  7  1  0  0  0  0
 15 14  2  0  0  0  0
 16  6  1  0  0  0  0
 16 15  1  0  0  0  0
 17 20  1  0  0  0  0
 17 15  1  0  0  0  0
 18 17  1  0  0  0  0
 19 17  1  0  0  0  0
M  RAD  3   2   2   3   3   7   2
M  END
