Coordinates from ORCA-job PhN2+~CF3COO-_B3LYPG-6-31G_dp-NX-Scan-d89-09-n800
 OpenBabel11261920123D

 20 20  0  0  1  0  0  0  0  0999 V2000
   -5.2417   -1.9532    1.5704 C   0  0  0  0  0  0  0  0  0  0  0  0
   -5.7905   -2.7375    2.4712 N   0  0  0  0  0  0  0  0  0  0  0  0
   -6.2672   -3.4219    3.2540 N   0  0  0  0  0  0  0  0  0  0  0  0
   -6.0692   -1.0881    0.7546 C   0  0  0  0  0  0  0  0  0  0  0  0
   -5.5152   -0.3253   -0.2067 C   0  0  0  0  0  0  0  0  0  0  0  0
   -4.0425   -0.2880   -0.4706 C   0  0  2  0  0  0  0  0  0  0  0  0
   -3.2533   -1.2199    0.3944 C   0  0  0  0  0  0  0  0  0  0  0  0
   -3.8099   -1.9847    1.3521 C   0  0  0  0  0  0  0  0  0  0  0  0
   -7.1422   -1.0849    0.9220 H   0  0  0  0  0  0  0  0  0  0  0  0
   -6.1407    0.3053   -0.8285 H   0  0  0  0  0  0  0  0  0  0  0  0
   -3.8184   -0.4609   -1.5243 H   0  0  0  0  0  0  0  0  0  0  0  0
   -2.1818   -1.2546    0.2248 H   0  0  0  0  0  0  0  0  0  0  0  0
   -3.2038   -2.6480    1.9611 H   0  0  0  0  0  0  0  0  0  0  0  0
   -2.8346    3.1329   -0.7210 O   0  0  0  0  0  0  0  0  0  0  0  0
   -3.2820    2.0602   -1.0392 C   0  0  0  0  0  0  0  0  0  0  0  0
   -3.5327    1.0972   -0.1490 O   0  0  0  0  0  0  0  0  0  0  0  0
   -3.5761    1.7856   -2.5406 C   0  0  0  0  0  0  0  0  0  0  0  0
   -2.7639    0.8137   -3.0204 F   0  0  0  0  0  0  0  0  0  0  0  0
   -4.8548    1.3811   -2.7298 F   0  0  0  0  0  0  0  0  0  0  0  0
   -3.3793    2.8839   -3.2625 F   0  0  0  0  0  0  0  0  0  0  0  0
  1  2  1  0  0  0  0
  2  3  1  0  0  0  0
  4  9  1  0  0  0  0
  4  1  2  0  0  0  0
  5  4  1  0  0  0  0
  6 11  1  6  0  0  0
  6  5  1  0  0  0  0
  6 16  1  0  0  0  0
  6  7  1  0  0  0  0
  7  8  2  0  0  0  0
  8  1  1  0  0  0  0
  8 13  1  0  0  0  0
 10  5  1  0  0  0  0
 12  7  1  0  0  0  0
 15 14  2  0  0  0  0
 15 16  1  0  0  0  0
 17 15  1  0  0  0  0
 18 17  1  0  0  0  0
 19 17  1  0  0  0  0
 20 17  1  0  0  0  0
M  RAD  3   2   2   3   3   5   2
M  END
