Coordinates from ORCA-job PhN2+~CF3COO-_B3LYPG-6-31G_dp-NX-Scan-d89-09-n800
 OpenBabel11261920123D

 20 20  0  0  1  0  0  0  0  0999 V2000
   -5.0512   -1.4858    1.4929 C   0  0  0  0  0  0  0  0  0  0  0  0
   -5.5442   -1.4539    2.7102 N   0  0  0  0  0  0  0  0  0  0  0  0
   -5.9722   -1.4179    3.7680 N   0  0  0  0  0  0  0  0  0  0  0  0
   -5.9426   -1.4692    0.3541 C   0  0  0  0  0  0  0  0  0  0  0  0
   -5.4349   -1.3701   -0.8885 C   0  0  0  0  0  0  0  0  0  0  0  0
   -3.9739   -1.1741   -1.1364 C   0  0  2  0  0  0  0  0  0  0  0  0
   -3.1111   -1.4381    0.0553 C   0  0  0  0  0  0  0  0  0  0  0  0
   -3.6188   -1.5363    1.2979 C   0  0  0  0  0  0  0  0  0  0  0  0
   -7.0109   -1.5629    0.5248 H   0  0  0  0  0  0  0  0  0  0  0  0
   -6.0908   -1.3896   -1.7529 H   0  0  0  0  0  0  0  0  0  0  0  0
   -3.6382   -1.7479   -2.0046 H   0  0  0  0  0  0  0  0  0  0  0  0
   -2.0402   -1.5074   -0.1079 H   0  0  0  0  0  0  0  0  0  0  0  0
   -2.9782   -1.6783    2.1628 H   0  0  0  0  0  0  0  0  0  0  0  0
   -4.4468    1.3265    0.1839 O   0  0  0  0  0  0  0  0  0  0  0  0
   -3.9887    1.2806   -0.9309 C   0  0  0  0  0  0  0  0  0  0  0  0
   -3.7108    0.2192   -1.6837 O   0  0  0  0  0  0  0  0  0  0  0  0
   -3.6224    2.5595   -1.7249 C   0  0  0  0  0  0  0  0  0  0  0  0
   -2.3057    2.5768   -2.0089 F   0  0  0  0  0  0  0  0  0  0  0  0
   -4.3021    2.6102   -2.8860 F   0  0  0  0  0  0  0  0  0  0  0  0
   -3.9163    3.6518   -1.0133 F   0  0  0  0  0  0  0  0  0  0  0  0
  1  2  1  0  0  0  0
  2  3  1  0  0  0  0
  4  9  1  0  0  0  0
  4  1  2  0  0  0  0
  5  4  1  0  0  0  0
  6 11  1  6  0  0  0
  6  5  1  0  0  0  0
  6  7  1  0  0  0  0
  7  8  2  0  0  0  0
  8  1  1  0  0  0  0
  8 13  1  0  0  0  0
 10  5  1  0  0  0  0
 12  7  1  0  0  0  0
 15 14  2  0  0  0  0
 16  6  1  0  0  0  0
 16 15  1  0  0  0  0
 17 20  1  0  0  0  0
 17 15  1  0  0  0  0
 18 17  1  0  0  0  0
 19 17  1  0  0  0  0
M  RAD  3   2   2   3   3   5   2
M  END
