Coordinates from ORCA-job PhN2+~CF3COO-_B3LYPG-6-31G_dp-NX-Scan-d89-09-n800
 OpenBabel11261920123D

 20 20  0  0  1  0  0  0  0  0999 V2000
   -4.9990   -1.4894    1.3656 C   0  0  1  0  0  0  0  0  0  0  0  0
   -5.3233   -0.5438    2.2279 N   0  0  0  0  0  0  0  0  0  0  0  0
   -5.5415    0.3908    2.8291 N   0  0  0  0  0  0  0  0  0  0  0  0
   -5.9047   -1.6458    0.2361 C   0  0  0  0  0  0  0  0  0  0  0  0
   -5.3891   -1.6524   -1.0075 C   0  0  0  0  0  0  0  0  0  0  0  0
   -3.9489   -1.3191   -1.2130 C   0  0  2  0  0  0  0  0  0  0  0  0
   -3.0753   -1.7147   -0.0693 C   0  0  0  0  0  0  0  0  0  0  0  0
   -3.5709   -1.7079    1.1822 C   0  0  0  0  0  0  0  0  0  0  0  0
   -6.9714   -1.7395    0.4203 H   0  0  0  0  0  0  0  0  0  0  0  0
   -6.0148   -1.8198   -1.8782 H   0  0  0  0  0  0  0  0  0  0  0  0
   -3.5725   -1.6899   -2.1659 H   0  0  0  0  0  0  0  0  0  0  0  0
   -2.0290   -1.9282   -0.2626 H   0  0  0  0  0  0  0  0  0  0  0  0
   -2.9388   -1.8466    2.0548 H   0  0  0  0  0  0  0  0  0  0  0  0
   -4.5781    1.0682    0.4975 O   0  0  0  0  0  0  0  0  0  0  0  0
   -4.1196    1.1393   -0.6220 C   0  0  0  0  0  0  0  0  0  0  0  0
   -3.7935    0.1916   -1.4939 O   0  0  0  0  0  0  0  0  0  0  0  0
   -3.8060    2.5127   -1.2719 C   0  0  0  0  0  0  0  0  0  0  0  0
   -2.4912    2.6162   -1.5452 F   0  0  0  0  0  0  0  0  0  0  0  0
   -4.4868    2.6626   -2.4238 F   0  0  0  0  0  0  0  0  0  0  0  0
   -4.1454    3.5090   -0.4482 F   0  0  0  0  0  0  0  0  0  0  0  0
  1  2  1  6  0  0  0
  2  3  1  0  0  0  0
  4  9  1  0  0  0  0
  4  1  1  0  0  0  0
  5  4  2  0  0  0  0
  6 11  1  6  0  0  0
  6  5  1  0  0  0  0
  6  7  1  0  0  0  0
  7  8  2  0  0  0  0
  8  1  1  0  0  0  0
  8 13  1  0  0  0  0
 10  5  1  0  0  0  0
 12  7  1  0  0  0  0
 15 14  2  0  0  0  0
 16  6  1  0  0  0  0
 16 15  1  0  0  0  0
 17 15  1  0  0  0  0
 17 20  1  0  0  0  0
 18 17  1  0  0  0  0
 19 17  1  0  0  0  0
M  RAD  3   1   2   2   2   3   3
M  END
