Coordinates from ORCA-job PhN2+~CF3COO-_B3LYPG-6-31G_dp-NX-Scan-d89-09-n800
 OpenBabel11261920123D

 20 20  0  0  1  0  0  0  0  0999 V2000
   -5.0141   -1.4294    1.4039 C   0  0  1  0  0  0  0  0  0  0  0  0
   -5.4702   -0.9998    2.5573 N   0  0  0  0  0  0  0  0  0  0  0  0
   -5.8584   -0.5869    3.5455 N   0  0  0  0  0  0  0  0  0  0  0  0
   -5.9143   -1.5205    0.2752 C   0  0  0  0  0  0  0  0  0  0  0  0
   -5.4034   -1.5160   -0.9707 C   0  0  0  0  0  0  0  0  0  0  0  0
   -3.9507   -1.2614   -1.2024 C   0  0  2  0  0  0  0  0  0  0  0  0
   -3.0847   -1.5808   -0.0291 C   0  0  0  0  0  0  0  0  0  0  0  0
   -3.5876   -1.5846    1.2201 C   0  0  0  0  0  0  0  0  0  0  0  0
   -6.9816   -1.6029    0.4583 H   0  0  0  0  0  0  0  0  0  0  0  0
   -6.0482   -1.6253   -1.8364 H   0  0  0  0  0  0  0  0  0  0  0  0
   -3.5940   -1.7435   -2.1140 H   0  0  0  0  0  0  0  0  0  0  0  0
   -2.0252   -1.7381   -0.2029 H   0  0  0  0  0  0  0  0  0  0  0  0
   -2.9553   -1.7130    2.0933 H   0  0  0  0  0  0  0  0  0  0  0  0
   -4.4967    1.1573    0.3174 O   0  0  0  0  0  0  0  0  0  0  0  0
   -4.0417    1.1917   -0.8019 C   0  0  0  0  0  0  0  0  0  0  0  0
   -3.7367    0.1966   -1.6280 O   0  0  0  0  0  0  0  0  0  0  0  0
   -3.7117    2.5325   -1.5057 C   0  0  0  0  0  0  0  0  0  0  0  0
   -2.3962    2.6073   -1.7857 F   0  0  0  0  0  0  0  0  0  0  0  0
   -4.3930    2.6452   -2.6615 F   0  0  0  0  0  0  0  0  0  0  0  0
   -4.0359    3.5648   -0.7209 F   0  0  0  0  0  0  0  0  0  0  0  0
  1  2  1  6  0  0  0
  2  3  1  0  0  0  0
  4  9  1  0  0  0  0
  4  1  1  0  0  0  0
  5  4  2  0  0  0  0
  6 11  1  6  0  0  0
  6  5  1  0  0  0  0
  6  7  1  0  0  0  0
  7  8  2  0  0  0  0
  8  1  1  0  0  0  0
  8 13  1  0  0  0  0
 10  5  1  0  0  0  0
 12  7  1  0  0  0  0
 15 14  2  0  0  0  0
 16  6  1  0  0  0  0
 16 15  1  0  0  0  0
 17 15  1  0  0  0  0
 17 20  1  0  0  0  0
 18 17  1  0  0  0  0
 19 17  1  0  0  0  0
M  RAD  3   1   2   2   2   3   3
M  END
