Coordinates from ORCA-job PhN2+~CF3COO-_B3LYPG-6-31G_dp-NX-Scan-d89-09-n800
 OpenBabel11261920123D

 20 20  0  0  1  0  0  0  0  0999 V2000
   -5.0024   -1.4412    1.3733 C   0  0  1  0  0  0  0  0  0  0  0  0
   -5.4135   -0.7768    2.4295 N   0  0  0  0  0  0  0  0  0  0  0  0
   -5.7510   -0.1383    3.3078 N   0  0  0  0  0  0  0  0  0  0  0  0
   -5.9062   -1.5693    0.2477 C   0  0  0  0  0  0  0  0  0  0  0  0
   -5.3935   -1.5841   -0.9974 C   0  0  0  0  0  0  0  0  0  0  0  0
   -3.9462   -1.2952   -1.2188 C   0  0  2  0  0  0  0  0  0  0  0  0
   -3.0771   -1.6450   -0.0572 C   0  0  0  0  0  0  0  0  0  0  0  0
   -3.5767   -1.6291    1.1932 C   0  0  0  0  0  0  0  0  0  0  0  0
   -6.9732   -1.6515    0.4336 H   0  0  0  0  0  0  0  0  0  0  0  0
   -6.0306   -1.7255   -1.8641 H   0  0  0  0  0  0  0  0  0  0  0  0
   -3.5796   -1.7273   -2.1502 H   0  0  0  0  0  0  0  0  0  0  0  0
   -2.0236   -1.8317   -0.2379 H   0  0  0  0  0  0  0  0  0  0  0  0
   -2.9458   -1.7544    2.0681 H   0  0  0  0  0  0  0  0  0  0  0  0
   -4.5265    1.0988    0.3951 O   0  0  0  0  0  0  0  0  0  0  0  0
   -4.0738    1.1582   -0.7254 C   0  0  0  0  0  0  0  0  0  0  0  0
   -3.7598    0.1902   -1.5789 O   0  0  0  0  0  0  0  0  0  0  0  0
   -3.7550    2.5191   -1.3964 C   0  0  0  0  0  0  0  0  0  0  0  0
   -2.4406    2.6111   -1.6760 F   0  0  0  0  0  0  0  0  0  0  0  0
   -4.4389    2.6559   -2.5481 F   0  0  0  0  0  0  0  0  0  0  0  0
   -4.0858    3.5292   -0.5859 F   0  0  0  0  0  0  0  0  0  0  0  0
  1  2  1  6  0  0  0
  2  3  1  0  0  0  0
  4  9  1  0  0  0  0
  4  1  1  0  0  0  0
  5  4  2  0  0  0  0
  6 11  1  6  0  0  0
  6  5  1  0  0  0  0
  6  7  1  0  0  0  0
  7  8  2  0  0  0  0
  8  1  1  0  0  0  0
  8 13  1  0  0  0  0
 10  5  1  0  0  0  0
 12  7  1  0  0  0  0
 15 14  2  0  0  0  0
 16  6  1  0  0  0  0
 16 15  1  0  0  0  0
 17 15  1  0  0  0  0
 17 20  1  0  0  0  0
 18 17  1  0  0  0  0
 19 17  1  0  0  0  0
M  RAD  3   1   2   2   2   3   3
M  END
