Coordinates from ORCA-job PhN2+~CF3COO-_B3LYPG-6-31G_dp-NX-Scan-d89-09-n800
 OpenBabel11261920123D

 20 20  0  0  1  0  0  0  0  0999 V2000
   -4.9980   -1.4678    1.3638 C   0  0  1  0  0  0  0  0  0  0  0  0
   -5.3575   -0.6212    2.3060 N   0  0  0  0  0  0  0  0  0  0  0  0
   -5.6294    0.2041    3.0354 N   0  0  0  0  0  0  0  0  0  0  0  0
   -5.9036   -1.6152    0.2369 C   0  0  0  0  0  0  0  0  0  0  0  0
   -5.3892   -1.6293   -1.0072 C   0  0  0  0  0  0  0  0  0  0  0  0
   -3.9462   -1.3132   -1.2188 C   0  0  2  0  0  0  0  0  0  0  0  0
   -3.0744   -1.6916   -0.0683 C   0  0  0  0  0  0  0  0  0  0  0  0
   -3.5713   -1.6770    1.1828 C   0  0  0  0  0  0  0  0  0  0  0  0
   -6.9705   -1.7018    0.4226 H   0  0  0  0  0  0  0  0  0  0  0  0
   -6.0195   -1.7882   -1.8761 H   0  0  0  0  0  0  0  0  0  0  0  0
   -3.5733   -1.7059   -2.1645 H   0  0  0  0  0  0  0  0  0  0  0  0
   -2.0256   -1.8967   -0.2565 H   0  0  0  0  0  0  0  0  0  0  0  0
   -2.9401   -1.8083    2.0569 H   0  0  0  0  0  0  0  0  0  0  0  0
   -4.5614    1.0741    0.4579 O   0  0  0  0  0  0  0  0  0  0  0  0
   -4.1034    1.1427   -0.6611 C   0  0  0  0  0  0  0  0  0  0  0  0
   -3.7798    0.1895   -1.5275 O   0  0  0  0  0  0  0  0  0  0  0  0
   -3.7882    2.5130   -1.3160 C   0  0  0  0  0  0  0  0  0  0  0  0
   -2.4733    2.6137   -1.5902 F   0  0  0  0  0  0  0  0  0  0  0  0
   -4.4691    2.6596   -2.4683 F   0  0  0  0  0  0  0  0  0  0  0  0
   -4.1259    3.5127   -0.4957 F   0  0  0  0  0  0  0  0  0  0  0  0
  1  2  1  6  0  0  0
  2  3  1  0  0  0  0
  4  9  1  0  0  0  0
  4  1  1  0  0  0  0
  5  4  2  0  0  0  0
  6 11  1  6  0  0  0
  6  5  1  0  0  0  0
  6  7  1  0  0  0  0
  7  8  2  0  0  0  0
  8  1  1  0  0  0  0
  8 13  1  0  0  0  0
 10  5  1  0  0  0  0
 12  7  1  0  0  0  0
 15 14  2  0  0  0  0
 16  6  1  0  0  0  0
 16 15  1  0  0  0  0
 17 15  1  0  0  0  0
 17 20  1  0  0  0  0
 18 17  1  0  0  0  0
 19 17  1  0  0  0  0
M  RAD  3   1   2   2   2   3   3
M  END
