Coordinates from ORCA-job PhN2+~CF3COO-_B3LYPG-6-31G_dp-NX-Scan-d89-09-n800
 OpenBabel11261920123D

 20 20  0  0  1  0  0  0  0  0999 V2000
   -5.0327   -1.4459    1.4520 C   0  0  0  0  0  0  0  0  0  0  0  0
   -5.5164   -1.2545    2.6578 N   0  0  0  0  0  0  0  0  0  0  0  0
   -5.9347   -1.0682    3.7025 N   0  0  0  0  0  0  0  0  0  0  0  0
   -5.9282   -1.4830    0.3173 C   0  0  0  0  0  0  0  0  0  0  0  0
   -5.4195   -1.4357   -0.9283 C   0  0  0  0  0  0  0  0  0  0  0  0
   -3.9619   -1.2156   -1.1704 C   0  0  2  0  0  0  0  0  0  0  0  0
   -3.0976   -1.5024    0.0138 C   0  0  0  0  0  0  0  0  0  0  0  0
   -3.6031   -1.5493    1.2607 C   0  0  0  0  0  0  0  0  0  0  0  0
   -6.9959   -1.5712    0.4947 H   0  0  0  0  0  0  0  0  0  0  0  0
   -6.0713   -1.5003   -1.7933 H   0  0  0  0  0  0  0  0  0  0  0  0
   -3.6170   -1.7503   -2.0583 H   0  0  0  0  0  0  0  0  0  0  0  0
   -2.0315   -1.6161   -0.1545 H   0  0  0  0  0  0  0  0  0  0  0  0
   -2.9664   -1.6850    2.1294 H   0  0  0  0  0  0  0  0  0  0  0  0
   -4.4736    1.2439    0.2374 O   0  0  0  0  0  0  0  0  0  0  0  0
   -4.0154    1.2381   -0.8794 C   0  0  0  0  0  0  0  0  0  0  0  0
   -3.7202    0.2075   -1.6660 O   0  0  0  0  0  0  0  0  0  0  0  0
   -3.6615    2.5478   -1.6279 C   0  0  0  0  0  0  0  0  0  0  0  0
   -2.3441    2.5913   -1.9054 F   0  0  0  0  0  0  0  0  0  0  0  0
   -4.3372    2.6303   -2.7895 F   0  0  0  0  0  0  0  0  0  0  0  0
   -3.9717    3.6117   -0.8808 F   0  0  0  0  0  0  0  0  0  0  0  0
  1  2  1  0  0  0  0
  2  3  1  0  0  0  0
  4  9  1  0  0  0  0
  4  1  2  0  0  0  0
  5  4  1  0  0  0  0
  6 11  1  6  0  0  0
  6  5  1  0  0  0  0
  6  7  1  0  0  0  0
  7  8  2  0  0  0  0
  8  1  1  0  0  0  0
  8 13  1  0  0  0  0
 10  5  1  0  0  0  0
 12  7  1  0  0  0  0
 15 14  2  0  0  0  0
 16  6  1  0  0  0  0
 16 15  1  0  0  0  0
 17 20  1  0  0  0  0
 17 15  1  0  0  0  0
 18 17  1  0  0  0  0
 19 17  1  0  0  0  0
M  RAD  3   2   2   3   3   5   2
M  END
