Coordinates from ORCA-job PhN2+~CF3COO-_B3LYPG-6-31G_dp-NX-Scan-d89-09-n800
 OpenBabel11261920123D

 20 20  0  0  1  0  0  0  0  0999 V2000
   -5.2388   -1.9451    1.5732 C   0  0  0  0  0  0  0  0  0  0  0  0
   -5.7841   -2.7075    2.4945 N   0  0  0  0  0  0  0  0  0  0  0  0
   -6.2580   -3.3717    3.2962 N   0  0  0  0  0  0  0  0  0  0  0  0
   -6.0691   -1.0923    0.7478 C   0  0  0  0  0  0  0  0  0  0  0  0
   -5.5174   -0.3429   -0.2253 C   0  0  0  0  0  0  0  0  0  0  0  0
   -4.0443   -0.3022   -0.4854 C   0  0  2  0  0  0  0  0  0  0  0  0
   -3.2550   -1.2377    0.3752 C   0  0  0  0  0  0  0  0  0  0  0  0
   -3.8091   -1.9891    1.3448 C   0  0  0  0  0  0  0  0  0  0  0  0
   -7.1417   -1.0882    0.9174 H   0  0  0  0  0  0  0  0  0  0  0  0
   -6.1442    0.2785   -0.8551 H   0  0  0  0  0  0  0  0  0  0  0  0
   -3.8164   -0.4649   -1.5397 H   0  0  0  0  0  0  0  0  0  0  0  0
   -2.1854   -1.2816    0.1968 H   0  0  0  0  0  0  0  0  0  0  0  0
   -3.2032   -2.6513    1.9554 H   0  0  0  0  0  0  0  0  0  0  0  0
   -2.8616    3.1314   -0.6895 O   0  0  0  0  0  0  0  0  0  0  0  0
   -3.2940    2.0577   -1.0245 C   0  0  0  0  0  0  0  0  0  0  0  0
   -3.5393    1.0815   -0.1478 O   0  0  0  0  0  0  0  0  0  0  0  0
   -3.5710    1.7963   -2.5314 C   0  0  0  0  0  0  0  0  0  0  0  0
   -2.7489    0.8332   -3.0122 F   0  0  0  0  0  0  0  0  0  0  0  0
   -4.8456    1.3867   -2.7377 F   0  0  0  0  0  0  0  0  0  0  0  0
   -3.3728    2.9024   -3.2407 F   0  0  0  0  0  0  0  0  0  0  0  0
  1  2  1  0  0  0  0
  2  3  1  0  0  0  0
  4  9  1  0  0  0  0
  4  1  2  0  0  0  0
  5  4  1  0  0  0  0
  6 11  1  6  0  0  0
  6  5  1  0  0  0  0
  6 16  1  0  0  0  0
  6  7  1  0  0  0  0
  7  8  2  0  0  0  0
  8  1  1  0  0  0  0
  8 13  1  0  0  0  0
 10  5  1  0  0  0  0
 12  7  1  0  0  0  0
 15 14  2  0  0  0  0
 15 16  1  0  0  0  0
 17 15  1  0  0  0  0
 18 17  1  0  0  0  0
 19 17  1  0  0  0  0
 20 17  1  0  0  0  0
M  RAD  3   2   2   3   3   5   2
M  END
