Coordinates from ORCA-job PhN2+~Cl-_B3LYPG-6-31G_dp-NX-Scan-d89-09-n800
 OpenBabel11261920353D

 14 13  0  0  0  0  0  0  0  0999 V2000
   -1.3025   -1.0537   -0.2322 C   0  0  0  0  0  0  0  0  0  0  0  0
   -1.7937   -2.2981   -0.4132 N   0  0  0  0  0  0  0  0  0  0  0  0
   -2.2125   -3.3446   -0.5450 N   0  0  0  0  0  0  0  0  0  0  0  0
   -2.1615    0.0700   -0.4213 C   0  0  0  0  0  0  0  0  0  0  0  0
   -1.6693    1.3235   -0.1301 C   0  0  0  0  0  0  0  0  0  0  0  0
   -0.3571    1.4990    0.3667 C   0  0  0  0  0  0  0  0  0  0  0  0
    0.5003    0.3792    0.4696 C   0  0  0  0  0  0  0  0  0  0  0  0
    0.0508   -0.8929    0.1903 C   0  0  0  0  0  0  0  0  0  0  0  0
   -3.1805   -0.0806   -0.7602 H   0  0  0  0  0  0  0  0  0  0  0  0
   -2.3042    2.1930   -0.2596 H   0  0  0  0  0  0  0  0  0  0  0  0
   -0.0164    2.4807    0.6801 H   0  0  0  0  0  0  0  0  0  0  0  0
    1.5226    0.5264    0.7999 H   0  0  0  0  0  0  0  0  0  0  0  0
    0.6856   -1.7638    0.3105 H   0  0  0  0  0  0  0  0  0  0  0  0
    0.9974    3.9128   -0.7731 Cl  0  0  0  0  0  0  0  0  0  0  0  0
  1  8  1  0  0  0  0
  2  1  1  0  0  0  0
  3  2  1  0  0  0  0
  4  1  2  0  0  0  0
  4  5  1  0  0  0  0
  5  6  2  0  0  0  0
  6  7  1  0  0  0  0
  6 11  1  0  0  0  0
  7 12  1  0  0  0  0
  8 13  1  0  0  0  0
  8  7  2  0  0  0  0
  9  4  1  0  0  0  0
 10  5  1  0  0  0  0
M  RAD  3   2   2   3   3  14   2
M  END
