Coordinates from ORCA-job PhN2+~Cl-_B3LYPG-6-31G_dp-NX-Scan-d89-09-n800
 OpenBabel11261920353D

 14 14  0  0  1  0  0  0  0  0999 V2000
   -1.2773   -0.9059   -0.0932 C   0  0  2  0  0  0  0  0  0  0  0  0
   -1.4558   -1.8707   -0.9644 N   0  0  0  0  0  0  0  0  0  0  0  0
   -1.5705   -2.6571   -1.7796 N   0  0  0  0  0  0  0  0  0  0  0  0
   -2.2217    0.2001   -0.0709 C   0  0  0  0  0  0  0  0  0  0  0  0
   -1.7192    1.4329    0.1333 C   0  0  0  0  0  0  0  0  0  0  0  0
   -0.2459    1.5991    0.1181 C   0  0  1  0  0  0  0  0  0  0  0  0
    0.4884    0.4727    0.7427 C   0  0  0  0  0  0  0  0  0  0  0  0
    0.0214   -0.7755    0.5488 C   0  0  0  0  0  0  0  0  0  0  0  0
   -3.2779    0.0098   -0.2342 H   0  0  0  0  0  0  0  0  0  0  0  0
   -2.3548    2.3099    0.1877 H   0  0  0  0  0  0  0  0  0  0  0  0
    0.1004    2.5842    0.4176 H   0  0  0  0  0  0  0  0  0  0  0  0
    1.4369    0.6606    1.2334 H   0  0  0  0  0  0  0  0  0  0  0  0
    0.5737   -1.6657    0.8318 H   0  0  0  0  0  0  0  0  0  0  0  0
    0.2614    1.5565   -1.7886 Cl  0  0  0  0  0  0  0  0  0  0  0  0
  1  2  1  6  0  0  0
  1  4  1  0  0  0  0
  1  8  1  0  0  0  0
  3  2  1  0  0  0  0
  4  5  2  0  0  0  0
  5 10  1  0  0  0  0
  6  5  1  0  0  0  0
  6 11  1  1  0  0  0
  6  7  1  0  0  0  0
  7 12  1  0  0  0  0
  8  7  2  0  0  0  0
  8 13  1  0  0  0  0
  9  4  1  0  0  0  0
 14  6  1  0  0  0  0
M  RAD  3   1   2   2   2   3   3
M  END
