Coordinates from ORCA-job PhN2+~Cl-_B3LYPG-6-31G_dp-NX-Scan-d89-09-n800
 OpenBabel11261920353D

 14 14  0  0  1  0  0  0  0  0999 V2000
   -1.3514   -0.9722    0.0708 C   0  0  2  0  0  0  0  0  0  0  0  0
   -1.2658   -1.5337   -1.1210 N   0  0  0  0  0  0  0  0  0  0  0  0
   -1.0989   -1.8385   -2.2026 N   0  0  0  0  0  0  0  0  0  0  0  0
   -2.2968    0.1637    0.1250 C   0  0  0  0  0  0  0  0  0  0  0  0
   -1.7396    1.3867    0.1507 C   0  0  0  0  0  0  0  0  0  0  0  0
   -0.2639    1.4548   -0.0440 C   0  0  1  0  0  0  0  0  0  0  0  0
    0.4604    0.4297    0.7592 C   0  0  0  0  0  0  0  0  0  0  0  0
   -0.0458   -0.8156    0.7477 C   0  0  0  0  0  0  0  0  0  0  0  0
   -3.3689   -0.0082    0.0970 H   0  0  0  0  0  0  0  0  0  0  0  0
   -2.3201    2.3011    0.2208 H   0  0  0  0  0  0  0  0  0  0  0  0
    0.1584    2.4549    0.0017 H   0  0  0  0  0  0  0  0  0  0  0  0
    1.3961    0.6845    1.2462 H   0  0  0  0  0  0  0  0  0  0  0  0
    0.4703   -1.6779    1.1582 H   0  0  0  0  0  0  0  0  0  0  0  0
    0.0251    0.9214   -1.9273 Cl  0  0  0  0  0  0  0  0  0  0  0  0
  1  2  1  6  0  0  0
  1  4  1  0  0  0  0
  1  8  1  0  0  0  0
  3  2  1  0  0  0  0
  4  5  2  0  0  0  0
  5 10  1  0  0  0  0
  6 11  1  1  0  0  0
  6  5  1  0  0  0  0
  6  7  1  0  0  0  0
  7 12  1  0  0  0  0
  8  7  2  0  0  0  0
  8 13  1  0  0  0  0
  9  4  1  0  0  0  0
 14  6  1  0  0  0  0
M  RAD  3   1   2   2   2   3   3
M  END
