Coordinates from ORCA-job PhN2+~Cl-_B3LYPG-6-31G_dp-NX-Scan-d89-09-n800
 OpenBabel11261920353D

 14 14  0  0  1  0  0  0  0  0999 V2000
   -1.2501   -0.9288   -0.2265 C   0  0  0  0  0  0  0  0  0  0  0  0
   -1.6287   -2.0970   -0.6937 N   0  0  0  0  0  0  0  0  0  0  0  0
   -1.9474   -3.1048   -1.1235 N   0  0  0  0  0  0  0  0  0  0  0  0
   -2.1567    0.1962   -0.2870 C   0  0  0  0  0  0  0  0  0  0  0  0
   -1.6915    1.4278    0.0054 C   0  0  0  0  0  0  0  0  0  0  0  0
   -0.2524    1.6651    0.2455 C   0  0  1  0  0  0  0  0  0  0  0  0
    0.5252    0.4639    0.6169 C   0  0  0  0  0  0  0  0  0  0  0  0
    0.0758   -0.7747    0.3296 C   0  0  0  0  0  0  0  0  0  0  0  0
   -3.1945    0.0229   -0.5523 H   0  0  0  0  0  0  0  0  0  0  0  0
   -2.3538    2.2864   -0.0184 H   0  0  0  0  0  0  0  0  0  0  0  0
   -0.0484    2.5311    0.8716 H   0  0  0  0  0  0  0  0  0  0  0  0
    1.5103    0.6058    1.0475 H   0  0  0  0  0  0  0  0  0  0  0  0
    0.6737   -1.6601    0.5191 H   0  0  0  0  0  0  0  0  0  0  0  0
    0.4976    2.3166   -1.4521 Cl  0  0  0  0  0  0  0  0  0  0  0  0
  1  8  2  0  0  0  0
  2  1  1  0  0  0  0
  3  2  1  0  0  0  0
  4  1  1  0  0  0  0
  4  5  2  0  0  0  0
  5  6  1  0  0  0  0
  6  7  1  0  0  0  0
  6 11  1  1  0  0  0
  7 12  1  0  0  0  0
  8 13  1  0  0  0  0
  8  7  1  0  0  0  0
  9  4  1  0  0  0  0
 10  5  1  0  0  0  0
 14  6  1  0  0  0  0
M  RAD  3   2   2   3   3   7   2
M  END
