Coordinates from ORCA-job PhN2+~Cl-_B3LYPG-6-31G_dp-NX-Scan-d89-09-n800
 OpenBabel11261920353D

 14 14  0  0  1  0  0  0  0  0999 V2000
   -1.3199   -0.9385    0.0099 C   0  0  2  0  0  0  0  0  0  0  0  0
   -1.3437   -1.6828   -1.0741 N   0  0  0  0  0  0  0  0  0  0  0  0
   -1.3075   -2.2337   -2.0683 N   0  0  0  0  0  0  0  0  0  0  0  0
   -2.2661    0.1830    0.0489 C   0  0  0  0  0  0  0  0  0  0  0  0
   -1.7308    1.4124    0.1520 C   0  0  0  0  0  0  0  0  0  0  0  0
   -0.2527    1.5226    0.0223 C   0  0  1  0  0  0  0  0  0  0  0  0
    0.4727    0.4538    0.7608 C   0  0  0  0  0  0  0  0  0  0  0  0
   -0.0170   -0.7954    0.6708 C   0  0  0  0  0  0  0  0  0  0  0  0
   -3.3331   -0.0001   -0.0365 H   0  0  0  0  0  0  0  0  0  0  0  0
   -2.3350    2.3107    0.2230 H   0  0  0  0  0  0  0  0  0  0  0  0
    0.1421    2.5240    0.1699 H   0  0  0  0  0  0  0  0  0  0  0  0
    1.4105    0.6813    1.2565 H   0  0  0  0  0  0  0  0  0  0  0  0
    0.5130   -1.6730    1.0275 H   0  0  0  0  0  0  0  0  0  0  0  0
    0.1265    1.1866   -1.8804 Cl  0  0  0  0  0  0  0  0  0  0  0  0
  1  2  1  6  0  0  0
  1  4  1  0  0  0  0
  1  8  1  0  0  0  0
  3  2  1  0  0  0  0
  4  5  2  0  0  0  0
  5 10  1  0  0  0  0
  6  5  1  0  0  0  0
  6 11  1  1  0  0  0
  6  7  1  0  0  0  0
  7 12  1  0  0  0  0
  8  7  2  0  0  0  0
  8 13  1  0  0  0  0
  9  4  1  0  0  0  0
 14  6  1  0  0  0  0
M  RAD  3   1   2   2   2   3   3
M  END
