Coordinates from ORCA-job PhN2+~Cl-_B3LYPG-6-31G_dp-NX-Scan-d89-09-n800
 OpenBabel11261920353D

 14 13  0  0  0  0  0  0  0  0999 V2000
   -1.2739   -1.0181   -0.2800 C   0  0  0  0  0  0  0  0  0  0  0  0
   -1.7713   -2.2552   -0.4265 N   0  0  0  0  0  0  0  0  0  0  0  0
   -2.2016   -3.3065   -0.5234 N   0  0  0  0  0  0  0  0  0  0  0  0
   -2.1266    0.1230   -0.4599 C   0  0  0  0  0  0  0  0  0  0  0  0
   -1.6554    1.3673   -0.1330 C   0  0  0  0  0  0  0  0  0  0  0  0
   -0.3379    1.5585    0.3894 C   0  0  0  0  0  0  0  0  0  0  0  0
    0.5234    0.4194    0.4685 C   0  0  0  0  0  0  0  0  0  0  0  0
    0.0837   -0.8387    0.1507 C   0  0  0  0  0  0  0  0  0  0  0  0
   -3.1433   -0.0205   -0.8092 H   0  0  0  0  0  0  0  0  0  0  0  0
   -2.3056    2.2286   -0.2358 H   0  0  0  0  0  0  0  0  0  0  0  0
   -0.1282    2.4248    0.9954 H   0  0  0  0  0  0  0  0  0  0  0  0
    1.5373    0.5559    0.8269 H   0  0  0  0  0  0  0  0  0  0  0  0
    0.7269   -1.7050    0.2620 H   0  0  0  0  0  0  0  0  0  0  0  0
    0.8317    3.4171   -0.9428 Cl  0  0  0  0  0  0  0  0  0  0  0  0
  1  8  1  0  0  0  0
  2  1  1  0  0  0  0
  3  2  1  0  0  0  0
  4  1  2  0  0  0  0
  4  5  1  0  0  0  0
  5  6  2  0  0  0  0
  6  7  1  0  0  0  0
  6 11  1  0  0  0  0
  7 12  1  0  0  0  0
  8 13  1  0  0  0  0
  8  7  2  0  0  0  0
  9  4  1  0  0  0  0
 10  5  1  0  0  0  0
M  RAD  3   2   2   3   3  14   2
M  END
