Coordinates from ORCA-job PhN2+~Cl-_B3LYPG-6-31G_dp-NX-Scan-d89-09-n800
 OpenBabel11261920353D

 14 14  0  0  1  0  0  0  0  0999 V2000
   -1.3544   -0.9753    0.0769 C   0  0  2  0  0  0  0  0  0  0  0  0
   -1.2597   -1.5207   -1.1229 N   0  0  0  0  0  0  0  0  0  0  0  0
   -1.0748   -1.7882   -2.2113 N   0  0  0  0  0  0  0  0  0  0  0  0
   -2.2997    0.1614    0.1321 C   0  0  0  0  0  0  0  0  0  0  0  0
   -1.7402    1.3840    0.1511 C   0  0  0  0  0  0  0  0  0  0  0  0
   -0.2656    1.4480   -0.0488 C   0  0  1  0  0  0  0  0  0  0  0  0
    0.4587    0.4275    0.7593 C   0  0  0  0  0  0  0  0  0  0  0  0
   -0.0488   -0.8177    0.7548 C   0  0  0  0  0  0  0  0  0  0  0  0
   -3.3720   -0.0091    0.1074 H   0  0  0  0  0  0  0  0  0  0  0  0
   -2.3189    2.2997    0.2195 H   0  0  0  0  0  0  0  0  0  0  0  0
    0.1599    2.4472   -0.0158 H   0  0  0  0  0  0  0  0  0  0  0  0
    1.3950    0.6842    1.2443 H   0  0  0  0  0  0  0  0  0  0  0  0
    0.4670   -1.6786    1.1684 H   0  0  0  0  0  0  0  0  0  0  0  0
    0.0125    0.8885   -1.9327 Cl  0  0  0  0  0  0  0  0  0  0  0  0
  1  2  1  6  0  0  0
  1  4  1  0  0  0  0
  1  8  1  0  0  0  0
  3  2  1  0  0  0  0
  4  5  2  0  0  0  0
  5 10  1  0  0  0  0
  6 11  1  1  0  0  0
  6  5  1  0  0  0  0
  6  7  1  0  0  0  0
  7 12  1  0  0  0  0
  8  7  2  0  0  0  0
  8 13  1  0  0  0  0
  9  4  1  0  0  0  0
 14  6  1  0  0  0  0
M  RAD  3   1   2   2   2   3   3
M  END
