Coordinates from ORCA-job PhN2+~Cl-_B3LYPG-6-31G_dp-NX-Scan-d89-09-n800
 OpenBabel11261920353D

 14 14  0  0  1  0  0  0  0  0999 V2000
   -1.2515   -0.9169   -0.2033 C   0  0  2  0  0  0  0  0  0  0  0  0
   -1.5915   -2.0552   -0.7630 N   0  0  0  0  0  0  0  0  0  0  0  0
   -1.8699   -3.0302   -1.2845 N   0  0  0  0  0  0  0  0  0  0  0  0
   -2.1703    0.2002   -0.2376 C   0  0  0  0  0  0  0  0  0  0  0  0
   -1.7000    1.4316    0.0457 C   0  0  0  0  0  0  0  0  0  0  0  0
   -0.2496    1.6568    0.2223 C   0  0  1  0  0  0  0  0  0  0  0  0
    0.5151    0.4684    0.6566 C   0  0  0  0  0  0  0  0  0  0  0  0
    0.0646   -0.7719    0.3798 C   0  0  0  0  0  0  0  0  0  0  0  0
   -3.2122    0.0210   -0.4827 H   0  0  0  0  0  0  0  0  0  0  0  0
   -2.3599    2.2922    0.0440 H   0  0  0  0  0  0  0  0  0  0  0  0
   -0.0054    2.5644    0.7693 H   0  0  0  0  0  0  0  0  0  0  0  0
    1.4907    0.6175    1.1057 H   0  0  0  0  0  0  0  0  0  0  0  0
    0.6518   -1.6604    0.5878 H   0  0  0  0  0  0  0  0  0  0  0  0
    0.4471    2.1331   -1.5577 Cl  0  0  0  0  0  0  0  0  0  0  0  0
  1  2  1  6  0  0  0
  1  8  1  0  0  0  0
  3  2  1  0  0  0  0
  4  1  1  0  0  0  0
  4  5  2  0  0  0  0
  5  6  1  0  0  0  0
  6  7  1  0  0  0  0
  6 11  1  1  0  0  0
  7 12  1  0  0  0  0
  8 13  1  0  0  0  0
  8  7  2  0  0  0  0
  9  4  1  0  0  0  0
 10  5  1  0  0  0  0
 14  6  1  0  0  0  0
M  RAD  3   1   2   2   2   3   3
M  END
