Coordinates from ORCA-job PhN2+~Cl-_B3LYPG-6-31G_dp-NX-Scan-d89-09-n800
 OpenBabel11261920353D

 14 14  0  0  1  0  0  0  0  0999 V2000
   -1.2798   -1.0202   -0.2630 C   0  0  0  0  0  0  0  0  0  0  0  0
   -1.7986   -2.2439   -0.3093 N   0  0  0  0  0  0  0  0  0  0  0  0
   -2.2515   -3.3019   -0.3327 N   0  0  0  0  0  0  0  0  0  0  0  0
   -2.0955    0.1575   -0.5021 C   0  0  0  0  0  0  0  0  0  0  0  0
   -1.6144    1.4045   -0.2651 C   0  0  0  0  0  0  0  0  0  0  0  0
   -0.2697    1.6599    0.2997 C   0  0  1  0  0  0  0  0  0  0  0  0
    0.5821    0.4497    0.3406 C   0  0  0  0  0  0  0  0  0  0  0  0
    0.1076   -0.8002    0.1059 C   0  0  0  0  0  0  0  0  0  0  0  0
   -3.1158    0.0246   -0.8478 H   0  0  0  0  0  0  0  0  0  0  0  0
   -2.2626    2.2592   -0.4264 H   0  0  0  0  0  0  0  0  0  0  0  0
   -0.2930    2.2043    1.2432 H   0  0  0  0  0  0  0  0  0  0  0  0
    1.6157    0.5726    0.6454 H   0  0  0  0  0  0  0  0  0  0  0  0
    0.7592   -1.6605    0.2236 H   0  0  0  0  0  0  0  0  0  0  0  0
    0.6755    3.2453   -0.6296 Cl  0  0  0  0  0  0  0  0  0  0  0  0
  1  8  2  0  0  0  0
  2  1  1  0  0  0  0
  3  2  1  0  0  0  0
  4  5  2  0  0  0  0
  4  1  1  0  0  0  0
  5  6  1  0  0  0  0
  6  7  1  0  0  0  0
  6 11  1  1  0  0  0
  7 12  1  0  0  0  0
  8 13  1  0  0  0  0
  8  7  1  0  0  0  0
  9  4  1  0  0  0  0
 10  5  1  0  0  0  0
 14  6  1  0  0  0  0
M  RAD  3   2   2   3   3   7   2
M  END
