Coordinates from ORCA-job PhN2+~Cl-_B3LYPG-6-31G_dp-NX-Scan-d89-09-n800
 OpenBabel11261920353D

 14 13  0  0  0  0  0  0  0  0999 V2000
   -1.3479   -1.0988   -0.1430 C   0  0  0  0  0  0  0  0  0  0  0  0
   -1.8672   -2.3490   -0.2297 N   0  0  0  0  0  0  0  0  0  0  0  0
   -2.3004   -3.3922   -0.3025 N   0  0  0  0  0  0  0  0  0  0  0  0
   -2.2061    0.0161   -0.3461 C   0  0  0  0  0  0  0  0  0  0  0  0
   -1.6524    1.2793   -0.2519 C   0  0  0  0  0  0  0  0  0  0  0  0
   -0.2854    1.4605    0.0350 C   0  0  0  0  0  0  0  0  0  0  0  0
    0.5394    0.3356    0.2315 C   0  0  0  0  0  0  0  0  0  0  0  0
    0.0352   -0.9489    0.1485 C   0  0  0  0  0  0  0  0  0  0  0  0
   -3.2561   -0.1401   -0.5680 H   0  0  0  0  0  0  0  0  0  0  0  0
   -2.2800    2.1518   -0.4019 H   0  0  0  0  0  0  0  0  0  0  0  0
    0.1376    2.4767    0.1053 H   0  0  0  0  0  0  0  0  0  0  0  0
    1.5912    0.4855    0.4531 H   0  0  0  0  0  0  0  0  0  0  0  0
    0.6569   -1.8248    0.2979 H   0  0  0  0  0  0  0  0  0  0  0  0
    0.9942    4.4992    0.2540 Cl  0  0  0  0  0  0  0  0  0  0  0  0
  1  8  2  0  0  0  0
  2  1  1  0  0  0  0
  3  2  1  0  0  0  0
  4  5  2  0  0  0  0
  4  1  1  0  0  0  0
  5  6  1  0  0  0  0
  6 11  1  0  0  0  0
  6  7  2  0  0  0  0
  7 12  1  0  0  0  0
  8  7  1  0  0  0  0
  8 13  1  0  0  0  0
  9  4  1  0  0  0  0
 10  5  1  0  0  0  0
M  RAD  3   2   2   3   3  14   2
M  END
