Coordinates from ORCA-job PhN2+~Cl-_B3LYPG-6-31G_dp-NX-Scan-d89-09-n800
 OpenBabel11261920353D

 14 14  0  0  0  0  0  0  0  0999 V2000
   -0.5937   -0.4035   -0.6913 C   0  0  0  0  0  0  0  0  0  0  0  0
   -0.4051   -1.4054   -1.7198 N   0  0  0  0  0  0  0  0  0  0  0  0
   -1.4820   -2.0392   -2.0817 N   0  0  0  0  0  0  0  0  0  0  0  0
   -1.2964    0.7911   -0.9188 C   0  0  0  0  0  0  0  0  0  0  0  0
   -1.3223    1.7855    0.0583 C   0  0  0  0  0  0  0  0  0  0  0  0
   -0.6541    1.6011    1.2713 C   0  0  0  0  0  0  0  0  0  0  0  0
    0.0552    0.4196    1.4963 C   0  0  0  0  0  0  0  0  0  0  0  0
    0.0930   -0.5740    0.5184 C   0  0  0  0  0  0  0  0  0  0  0  0
   -1.7976    0.9532   -1.8692 H   0  0  0  0  0  0  0  0  0  0  0  0
   -1.8640    2.7083   -0.1296 H   0  0  0  0  0  0  0  0  0  0  0  0
   -0.6772    2.3780    2.0302 H   0  0  0  0  0  0  0  0  0  0  0  0
    0.5881    0.2742    2.4318 H   0  0  0  0  0  0  0  0  0  0  0  0
    0.6573   -1.4888    0.6740 H   0  0  0  0  0  0  0  0  0  0  0  0
   -2.5421   -2.0496   -1.7876 Cl  0  0  0  0  0  0  0  0  0  0  0  0
  1  8  1  0  0  0  0
  2  1  1  0  0  0  0
  3 14  1  0  0  0  0
  3  2  2  0  0  0  0
  4  1  2  0  0  0  0
  4  5  1  0  0  0  0
  5  6  2  0  0  0  0
  6  7  1  0  0  0  0
  6 11  1  0  0  0  0
  7 12  1  0  0  0  0
  8 13  1  0  0  0  0
  8  7  2  0  0  0  0
  9  4  1  0  0  0  0
 10  5  1  0  0  0  0
M  END
