Coordinates from ORCA-job PhN2+~Cl-_B3LYPG-6-31G_dp-NX-Scan-d89-09-n800
 OpenBabel11261920353D

 14 13  0  0  0  0  0  0  0  0999 V2000
   -1.3532   -1.1113   -0.1438 C   0  0  0  0  0  0  0  0  0  0  0  0
   -1.8745   -2.3645   -0.2307 N   0  0  0  0  0  0  0  0  0  0  0  0
   -2.3089   -3.4089   -0.3037 N   0  0  0  0  0  0  0  0  0  0  0  0
   -2.2072    0.0070   -0.3461 C   0  0  0  0  0  0  0  0  0  0  0  0
   -1.6525    1.2716   -0.2520 C   0  0  0  0  0  0  0  0  0  0  0  0
   -0.2857    1.4553    0.0347 C   0  0  0  0  0  0  0  0  0  0  0  0
    0.5357    0.3279    0.2306 C   0  0  0  0  0  0  0  0  0  0  0  0
    0.0296   -0.9576    0.1475 C   0  0  0  0  0  0  0  0  0  0  0  0
   -3.2578   -0.1449   -0.5682 H   0  0  0  0  0  0  0  0  0  0  0  0
   -2.2825    2.1421   -0.4025 H   0  0  0  0  0  0  0  0  0  0  0  0
    0.1365    2.4696    0.1048 H   0  0  0  0  0  0  0  0  0  0  0  0
    1.5880    0.4731    0.4524 H   0  0  0  0  0  0  0  0  0  0  0  0
    0.6536   -1.8317    0.2974 H   0  0  0  0  0  0  0  0  0  0  0  0
    1.0380    4.6231    0.2621 Cl  0  0  0  0  0  0  0  0  0  0  0  0
  1  8  2  0  0  0  0
  2  1  1  0  0  0  0
  3  2  1  0  0  0  0
  4  5  2  0  0  0  0
  4  1  1  0  0  0  0
  5  6  1  0  0  0  0
  6 11  1  0  0  0  0
  6  7  2  0  0  0  0
  7 12  1  0  0  0  0
  8  7  1  0  0  0  0
  8 13  1  0  0  0  0
  9  4  1  0  0  0  0
 10  5  1  0  0  0  0
M  RAD  3   2   2   3   3  14   2
M  END
