Coordinates from ORCA-job PhN2+~Cl-_B3LYPG-6-31G_dp-NX-Scan-d89-09-n800
 OpenBabel11261920353D

 14 14  0  0  1  0  0  0  0  0999 V2000
   -1.2580   -0.9727   -0.2661 C   0  0  0  0  0  0  0  0  0  0  0  0
   -1.7284   -2.1853   -0.4716 N   0  0  0  0  0  0  0  0  0  0  0  0
   -2.1391   -3.2398   -0.6443 N   0  0  0  0  0  0  0  0  0  0  0  0
   -2.1198    0.1801   -0.4230 C   0  0  0  0  0  0  0  0  0  0  0  0
   -1.6554    1.4163   -0.1446 C   0  0  0  0  0  0  0  0  0  0  0  0
   -0.2611    1.6724    0.2887 C   0  0  1  0  0  0  0  0  0  0  0  0
    0.5618    0.4524    0.4668 C   0  0  0  0  0  0  0  0  0  0  0  0
    0.1030   -0.7863    0.1906 C   0  0  0  0  0  0  0  0  0  0  0  0
   -3.1460    0.0263   -0.7408 H   0  0  0  0  0  0  0  0  0  0  0  0
   -2.3113    2.2744   -0.2463 H   0  0  0  0  0  0  0  0  0  0  0  0
   -0.1995    2.3537    1.1385 H   0  0  0  0  0  0  0  0  0  0  0  0
    1.5763    0.5837    0.8275 H   0  0  0  0  0  0  0  0  0  0  0  0
    0.7311   -1.6600    0.3322 H   0  0  0  0  0  0  0  0  0  0  0  0
    0.6054    2.8353   -1.0254 Cl  0  0  0  0  0  0  0  0  0  0  0  0
  1  8  2  0  0  0  0
  2  1  1  0  0  0  0
  3  2  1  0  0  0  0
  4  1  1  0  0  0  0
  4  5  2  0  0  0  0
  5  6  1  0  0  0  0
  6  7  1  0  0  0  0
  6 11  1  1  0  0  0
  7 12  1  0  0  0  0
  8 13  1  0  0  0  0
  8  7  1  0  0  0  0
  9  4  1  0  0  0  0
 10  5  1  0  0  0  0
 14  6  1  0  0  0  0
M  RAD  3   2   2   3   3   7   2
M  END
