Coordinates from ORCA-job PhN2+~Cl-_B3LYPG-6-31G_dp-NX-Scan-d89-09-n800
 OpenBabel11261920353D

 14 14  0  0  1  0  0  0  0  0999 V2000
   -1.2503   -0.9247   -0.2196 C   0  0  0  0  0  0  0  0  0  0  0  0
   -1.6171   -2.0843   -0.7160 N   0  0  0  0  0  0  0  0  0  0  0  0
   -1.9234   -3.0828   -1.1749 N   0  0  0  0  0  0  0  0  0  0  0  0
   -2.1609    0.1976   -0.2714 C   0  0  0  0  0  0  0  0  0  0  0  0
   -1.6944    1.4291    0.0188 C   0  0  0  0  0  0  0  0  0  0  0  0
   -0.2515    1.6628    0.2386 C   0  0  1  0  0  0  0  0  0  0  0  0
    0.5219    0.4654    0.6301 C   0  0  0  0  0  0  0  0  0  0  0  0
    0.0724   -0.7737    0.3454 C   0  0  0  0  0  0  0  0  0  0  0  0
   -3.2001    0.0224   -0.5305 H   0  0  0  0  0  0  0  0  0  0  0  0
   -2.3562    2.2882    0.0022 H   0  0  0  0  0  0  0  0  0  0  0  0
   -0.0343    2.5431    0.8396 H   0  0  0  0  0  0  0  0  0  0  0  0
    1.5040    0.6093    1.0668 H   0  0  0  0  0  0  0  0  0  0  0  0
    0.6669   -1.6602    0.5406 H   0  0  0  0  0  0  0  0  0  0  0  0
    0.4821    2.2584   -1.4877 Cl  0  0  0  0  0  0  0  0  0  0  0  0
  1  8  2  0  0  0  0
  2  1  1  0  0  0  0
  3  2  1  0  0  0  0
  4  1  1  0  0  0  0
  4  5  2  0  0  0  0
  5  6  1  0  0  0  0
  6  7  1  0  0  0  0
  6 11  1  1  0  0  0
  7 12  1  0  0  0  0
  8 13  1  0  0  0  0
  8  7  1  0  0  0  0
  9  4  1  0  0  0  0
 10  5  1  0  0  0  0
 14  6  1  0  0  0  0
M  RAD  3   2   2   3   3   7   2
M  END
