Coordinates from ORCA-job PhN2+~Cl-_B3LYPG-6-31G_dp-NX-Scan-d89-09-n800
 OpenBabel11261920353D

 14 13  0  0  0  0  0  0  0  0999 V2000
   -1.3542   -1.1137   -0.1440 C   0  0  0  0  0  0  0  0  0  0  0  0
   -1.8758   -2.3673   -0.2308 N   0  0  0  0  0  0  0  0  0  0  0  0
   -2.3103   -3.4119   -0.3039 N   0  0  0  0  0  0  0  0  0  0  0  0
   -2.2076    0.0051   -0.3462 C   0  0  0  0  0  0  0  0  0  0  0  0
   -1.6528    1.2700   -0.2521 C   0  0  0  0  0  0  0  0  0  0  0  0
   -0.2861    1.4539    0.0345 C   0  0  0  0  0  0  0  0  0  0  0  0
    0.5350    0.3263    0.2304 C   0  0  0  0  0  0  0  0  0  0  0  0
    0.0285   -0.9594    0.1473 C   0  0  0  0  0  0  0  0  0  0  0  0
   -3.2582   -0.1461   -0.5683 H   0  0  0  0  0  0  0  0  0  0  0  0
   -2.2832    2.1402   -0.4027 H   0  0  0  0  0  0  0  0  0  0  0  0
    0.1360    2.4679    0.1046 H   0  0  0  0  0  0  0  0  0  0  0  0
    1.5873    0.4708    0.4522 H   0  0  0  0  0  0  0  0  0  0  0  0
    0.6529   -1.8332    0.2973 H   0  0  0  0  0  0  0  0  0  0  0  0
    1.0476    4.6480    0.2639 Cl  0  0  0  0  0  0  0  0  0  0  0  0
  1  8  2  0  0  0  0
  2  1  1  0  0  0  0
  3  2  1  0  0  0  0
  4  5  2  0  0  0  0
  4  1  1  0  0  0  0
  5  6  1  0  0  0  0
  6 11  1  0  0  0  0
  6  7  2  0  0  0  0
  7 12  1  0  0  0  0
  8  7  1  0  0  0  0
  8 13  1  0  0  0  0
  9  4  1  0  0  0  0
 10  5  1  0  0  0  0
M  RAD  3   2   2   3   3  14   2
M  END
