Coordinates from ORCA-job PhN2+~Cl-_B3LYPG-6-31G_dp-NX-Scan-d89-09-n800
 OpenBabel11261920353D

 14 13  0  0  0  0  0  0  0  0999 V2000
   -1.2779   -1.0231   -0.2733 C   0  0  0  0  0  0  0  0  0  0  0  0
   -1.7730   -2.2619   -0.4311 N   0  0  0  0  0  0  0  0  0  0  0  0
   -2.2001   -3.3122   -0.5375 N   0  0  0  0  0  0  0  0  0  0  0  0
   -2.1328    0.1139   -0.4521 C   0  0  0  0  0  0  0  0  0  0  0  0
   -1.6596    1.3592   -0.1242 C   0  0  0  0  0  0  0  0  0  0  0  0
   -0.3460    1.5447    0.3973 C   0  0  0  0  0  0  0  0  0  0  0  0
    0.5165    0.4125    0.4766 C   0  0  0  0  0  0  0  0  0  0  0  0
    0.0775   -0.8480    0.1587 C   0  0  0  0  0  0  0  0  0  0  0  0
   -3.1488   -0.0302   -0.8028 H   0  0  0  0  0  0  0  0  0  0  0  0
   -2.3077    2.2219   -0.2291 H   0  0  0  0  0  0  0  0  0  0  0  0
   -0.1070    2.4415    0.9452 H   0  0  0  0  0  0  0  0  0  0  0  0
    1.5310    0.5508    0.8325 H   0  0  0  0  0  0  0  0  0  0  0  0
    0.7205   -1.7145    0.2683 H   0  0  0  0  0  0  0  0  0  0  0  0
    0.8664    3.4961   -0.9461 Cl  0  0  0  0  0  0  0  0  0  0  0  0
  1  8  1  0  0  0  0
  2  1  1  0  0  0  0
  3  2  1  0  0  0  0
  4  1  2  0  0  0  0
  4  5  1  0  0  0  0
  5  6  2  0  0  0  0
  6  7  1  0  0  0  0
  6 11  1  0  0  0  0
  7 12  1  0  0  0  0
  8 13  1  0  0  0  0
  8  7  2  0  0  0  0
  9  4  1  0  0  0  0
 10  5  1  0  0  0  0
M  RAD  3   2   2   3   3  14   2
M  END
