Coordinates from ORCA-job PhN2+~Cl-_B3LYPG-6-31G_dp-NX-Scan-d89-09-n800
 OpenBabel11261920353D

 14 14  0  0  1  0  0  0  0  0999 V2000
   -1.2738   -0.9044   -0.1040 C   0  0  2  0  0  0  0  0  0  0  0  0
   -1.4673   -1.8882   -0.9504 N   0  0  0  0  0  0  0  0  0  0  0  0
   -1.5968   -2.6948   -1.7435 N   0  0  0  0  0  0  0  0  0  0  0  0
   -2.2172    0.2011   -0.0842 C   0  0  0  0  0  0  0  0  0  0  0  0
   -1.7179    1.4338    0.1290 C   0  0  0  0  0  0  0  0  0  0  0  0
   -0.2457    1.6056    0.1276 C   0  0  1  0  0  0  0  0  0  0  0  0
    0.4901    0.4734    0.7385 C   0  0  0  0  0  0  0  0  0  0  0  0
    0.0252   -0.7743    0.5353 C   0  0  0  0  0  0  0  0  0  0  0  0
   -3.2722    0.0108   -0.2548 H   0  0  0  0  0  0  0  0  0  0  0  0
   -2.3564    2.3089    0.1806 H   0  0  0  0  0  0  0  0  0  0  0  0
    0.0941    2.5873    0.4451 H   0  0  0  0  0  0  0  0  0  0  0  0
    1.4403    0.6574    1.2275 H   0  0  0  0  0  0  0  0  0  0  0  0
    0.5801   -1.6650    0.8114 H   0  0  0  0  0  0  0  0  0  0  0  0
    0.2764    1.5990   -1.7757 Cl  0  0  0  0  0  0  0  0  0  0  0  0
  1  2  1  6  0  0  0
  1  4  1  0  0  0  0
  1  8  1  0  0  0  0
  3  2  1  0  0  0  0
  4  5  2  0  0  0  0
  5 10  1  0  0  0  0
  6  5  1  0  0  0  0
  6 11  1  1  0  0  0
  6  7  1  0  0  0  0
  7 12  1  0  0  0  0
  8  7  2  0  0  0  0
  8 13  1  0  0  0  0
  9  4  1  0  0  0  0
 14  6  1  0  0  0  0
M  RAD  3   1   2   2   2   3   3
M  END
