Coordinates from ORCA-job PhN2+~Cl-_B3LYPG-6-31G_dp-NX-Scan-d89-09-n800
 OpenBabel11261920353D

 14 14  0  0  1  0  0  0  0  0999 V2000
   -1.2592   -0.9040   -0.1557 C   0  0  2  0  0  0  0  0  0  0  0  0
   -1.5255   -1.9717   -0.8709 N   0  0  0  0  0  0  0  0  0  0  0  0
   -1.7283   -2.8691   -1.5427 N   0  0  0  0  0  0  0  0  0  0  0  0
   -2.1946    0.2032   -0.1544 C   0  0  0  0  0  0  0  0  0  0  0  0
   -1.7109    1.4353    0.0990 C   0  0  0  0  0  0  0  0  0  0  0  0
   -0.2463    1.6342    0.1742 C   0  0  1  0  0  0  0  0  0  0  0  0
    0.5003    0.4738    0.7092 C   0  0  0  0  0  0  0  0  0  0  0  0
    0.0443   -0.7705    0.4642 C   0  0  0  0  0  0  0  0  0  0  0  0
   -3.2436    0.0159   -0.3607 H   0  0  0  0  0  0  0  0  0  0  0  0
   -2.3619    2.3019    0.1309 H   0  0  0  0  0  0  0  0  0  0  0  0
    0.0553    2.5911    0.5919 H   0  0  0  0  0  0  0  0  0  0  0  0
    1.4606    0.6396    1.1845 H   0  0  0  0  0  0  0  0  0  0  0  0
    0.6134   -1.6619    0.7069 H   0  0  0  0  0  0  0  0  0  0  0  0
    0.3555    1.8329   -1.6940 Cl  0  0  0  0  0  0  0  0  0  0  0  0
  1  2  1  6  0  0  0
  1  4  1  0  0  0  0
  1  8  1  0  0  0  0
  3  2  1  0  0  0  0
  4  5  2  0  0  0  0
  5 10  1  0  0  0  0
  5  6  1  0  0  0  0
  6 11  1  1  0  0  0
  6  7  1  0  0  0  0
  7 12  1  0  0  0  0
  8 13  1  0  0  0  0
  8  7  2  0  0  0  0
  9  4  1  0  0  0  0
 14  6  1  0  0  0  0
M  RAD  3   1   2   2   2   3   3
M  END
