Coordinates from ORCA-job PhN2+~Cl-_B3LYPG-6-31G_dp-NX-Scan-d89-09-n800
 OpenBabel11261920353D

 14 13  0  0  0  0  0  0  0  0999 V2000
   -0.6621   -0.5611   -0.3927 C   0  0  0  0  0  0  0  0  0  0  0  0
   -0.6926   -1.7176   -1.1915 N   0  0  0  0  0  0  0  0  0  0  0  0
   -1.1471   -2.2675   -2.0941 N   0  0  0  0  0  0  0  0  0  0  0  0
   -1.5078    0.5171   -0.6906 C   0  0  0  0  0  0  0  0  0  0  0  0
   -1.4324    1.6356    0.1360 C   0  0  0  0  0  0  0  0  0  0  0  0
   -0.5440    1.6661    1.2156 C   0  0  0  0  0  0  0  0  0  0  0  0
    0.2883    0.5750    1.4905 C   0  0  0  0  0  0  0  0  0  0  0  0
    0.2358   -0.5550    0.6825 C   0  0  0  0  0  0  0  0  0  0  0  0
   -2.1811    0.4447   -1.5419 H   0  0  0  0  0  0  0  0  0  0  0  0
   -2.0725    2.4884   -0.0665 H   0  0  0  0  0  0  0  0  0  0  0  0
   -0.4988    2.5474    1.8488 H   0  0  0  0  0  0  0  0  0  0  0  0
    0.9736    0.6072    2.3310 H   0  0  0  0  0  0  0  0  0  0  0  0
    0.8657   -1.4188    0.8652 H   0  0  0  0  0  0  0  0  0  0  0  0
   -2.8660   -1.0108   -3.3100 Cl  0  0  0  0  0  0  0  0  0  0  0  0
  1  8  1  0  0  0  0
  2  1  1  0  0  0  0
  3  2  2  0  0  0  0
  4  1  2  0  0  0  0
  4  5  1  0  0  0  0
  5  6  2  0  0  0  0
  6  7  1  0  0  0  0
  6 11  1  0  0  0  0
  7 12  1  0  0  0  0
  8 13  1  0  0  0  0
  8  7  2  0  0  0  0
  9  4  1  0  0  0  0
 10  5  1  0  0  0  0
M  RAD  2   3   2  14   2
M  END
