Coordinates from ORCA-job PhN2+~Cl-_B3LYPG-6-31G_dp-NX-Scan-d89-09-n800
 OpenBabel11261920353D

 14 14  0  0  1  0  0  0  0  0999 V2000
   -1.3521   -0.9731    0.0721 C   0  0  2  0  0  0  0  0  0  0  0  0
   -1.2643   -1.5307   -1.1216 N   0  0  0  0  0  0  0  0  0  0  0  0
   -1.0934   -1.8272   -2.2048 N   0  0  0  0  0  0  0  0  0  0  0  0
   -2.2975    0.1631    0.1267 C   0  0  0  0  0  0  0  0  0  0  0  0
   -1.7397    1.3860    0.1508 C   0  0  0  0  0  0  0  0  0  0  0  0
   -0.2643    1.4533   -0.0452 C   0  0  1  0  0  0  0  0  0  0  0  0
    0.4600    0.4292    0.7591 C   0  0  0  0  0  0  0  0  0  0  0  0
   -0.0466   -0.8161    0.7494 C   0  0  0  0  0  0  0  0  0  0  0  0
   -3.3696   -0.0084    0.0997 H   0  0  0  0  0  0  0  0  0  0  0  0
   -2.3198    2.3007    0.2206 H   0  0  0  0  0  0  0  0  0  0  0  0
    0.1588    2.4532   -0.0025 H   0  0  0  0  0  0  0  0  0  0  0  0
    1.3957    0.6844    1.2458 H   0  0  0  0  0  0  0  0  0  0  0  0
    0.4695   -1.6780    1.1608 H   0  0  0  0  0  0  0  0  0  0  0  0
    0.0224    0.9142   -1.9286 Cl  0  0  0  0  0  0  0  0  0  0  0  0
  1  2  1  6  0  0  0
  1  4  1  0  0  0  0
  1  8  1  0  0  0  0
  3  2  1  0  0  0  0
  4  5  2  0  0  0  0
  5 10  1  0  0  0  0
  6 11  1  1  0  0  0
  6  5  1  0  0  0  0
  6  7  1  0  0  0  0
  7 12  1  0  0  0  0
  8  7  2  0  0  0  0
  8 13  1  0  0  0  0
  9  4  1  0  0  0  0
 14  6  1  0  0  0  0
M  RAD  3   1   2   2   2   3   3
M  END
