Coordinates from ORCA-job PhN2+~Cl-_B3LYPG-6-31G_dp-NX-Scan-d89-09-n800
 OpenBabel11261920353D

 14 14  0  0  1  0  0  0  0  0999 V2000
   -1.3504   -0.9712    0.0687 C   0  0  2  0  0  0  0  0  0  0  0  0
   -1.2681   -1.5386   -1.1202 N   0  0  0  0  0  0  0  0  0  0  0  0
   -1.1070   -1.8552   -2.1993 N   0  0  0  0  0  0  0  0  0  0  0  0
   -2.2958    0.1644    0.1225 C   0  0  0  0  0  0  0  0  0  0  0  0
   -1.7393    1.3877    0.1507 C   0  0  0  0  0  0  0  0  0  0  0  0
   -0.2634    1.4573   -0.0422 C   0  0  1  0  0  0  0  0  0  0  0  0
    0.4609    0.4305    0.7592 C   0  0  0  0  0  0  0  0  0  0  0  0
   -0.0448   -0.8148    0.7452 C   0  0  0  0  0  0  0  0  0  0  0  0
   -3.3677   -0.0078    0.0932 H   0  0  0  0  0  0  0  0  0  0  0  0
   -2.3206    2.3015    0.2213 H   0  0  0  0  0  0  0  0  0  0  0  0
    0.1579    2.4576    0.0076 H   0  0  0  0  0  0  0  0  0  0  0  0
    1.3965    0.6846    1.2469 H   0  0  0  0  0  0  0  0  0  0  0  0
    0.4716   -1.6776    1.1544 H   0  0  0  0  0  0  0  0  0  0  0  0
    0.0293    0.9324   -1.9256 Cl  0  0  0  0  0  0  0  0  0  0  0  0
  1  2  1  6  0  0  0
  1  4  1  0  0  0  0
  1  8  1  0  0  0  0
  3  2  1  0  0  0  0
  4  5  2  0  0  0  0
  5 10  1  0  0  0  0
  6 11  1  1  0  0  0
  6  5  1  0  0  0  0
  6  7  1  0  0  0  0
  7 12  1  0  0  0  0
  8  7  2  0  0  0  0
  8 13  1  0  0  0  0
  9  4  1  0  0  0  0
 14  6  1  0  0  0  0
M  RAD  3   1   2   2   2   3   3
M  END
