Coordinates from ORCA-job PhN2+~Cl-_B3LYPG-6-31G_dp-NX-Scan-d89-09-n800
 OpenBabel11261920353D

 14 14  0  0  1  0  0  0  0  0999 V2000
   -1.2757   -0.9052   -0.0980 C   0  0  2  0  0  0  0  0  0  0  0  0
   -1.4609   -1.8786   -0.9583 N   0  0  0  0  0  0  0  0  0  0  0  0
   -1.5822   -2.6740   -1.7637 N   0  0  0  0  0  0  0  0  0  0  0  0
   -2.2197    0.2006   -0.0768 C   0  0  0  0  0  0  0  0  0  0  0  0
   -1.7186    1.4333    0.1315 C   0  0  0  0  0  0  0  0  0  0  0  0
   -0.2458    1.6020    0.1223 C   0  0  1  0  0  0  0  0  0  0  0  0
    0.4892    0.4731    0.7409 C   0  0  0  0  0  0  0  0  0  0  0  0
    0.0231   -0.7749    0.5428 C   0  0  0  0  0  0  0  0  0  0  0  0
   -3.2754    0.0102   -0.2433 H   0  0  0  0  0  0  0  0  0  0  0  0
   -2.3555    2.3095    0.1847 H   0  0  0  0  0  0  0  0  0  0  0  0
    0.0976    2.5857    0.4298 H   0  0  0  0  0  0  0  0  0  0  0  0
    1.4384    0.6592    1.2309 H   0  0  0  0  0  0  0  0  0  0  0  0
    0.5766   -1.6654    0.8227 H   0  0  0  0  0  0  0  0  0  0  0  0
    0.2680    1.5753   -1.7830 Cl  0  0  0  0  0  0  0  0  0  0  0  0
  1  2  1  6  0  0  0
  1  4  1  0  0  0  0
  1  8  1  0  0  0  0
  3  2  1  0  0  0  0
  4  5  2  0  0  0  0
  5 10  1  0  0  0  0
  6  5  1  0  0  0  0
  6 11  1  1  0  0  0
  6  7  1  0  0  0  0
  7 12  1  0  0  0  0
  8  7  2  0  0  0  0
  8 13  1  0  0  0  0
  9  4  1  0  0  0  0
 14  6  1  0  0  0  0
M  RAD  3   1   2   2   2   3   3
M  END
