Coordinates from ORCA-job PhN2+~Cl-_B3LYPG-6-31G_dp-NX-Scan-d89-09-n800
 OpenBabel11261920353D

 14 14  0  0  0  0  0  0  0  0999 V2000
   -0.5771   -0.4377   -0.6246 C   0  0  0  0  0  0  0  0  0  0  0  0
   -0.4101   -1.4841   -1.5733 N   0  0  0  0  0  0  0  0  0  0  0  0
   -1.2397   -2.0918   -2.2255 N   0  0  0  0  0  0  0  0  0  0  0  0
   -1.3237    0.7193   -0.8862 C   0  0  0  0  0  0  0  0  0  0  0  0
   -1.3451    1.7384    0.0642 C   0  0  0  0  0  0  0  0  0  0  0  0
   -0.6468    1.6031    1.2666 C   0  0  0  0  0  0  0  0  0  0  0  0
    0.1057    0.4520    1.5127 C   0  0  0  0  0  0  0  0  0  0  0  0
    0.1658   -0.5587    0.5566 C   0  0  0  0  0  0  0  0  0  0  0  0
   -1.8601    0.8256   -1.8208 H   0  0  0  0  0  0  0  0  0  0  0  0
   -1.9142    2.6411   -0.1359 H   0  0  0  0  0  0  0  0  0  0  0  0
   -0.6790    2.3995    2.0044 H   0  0  0  0  0  0  0  0  0  0  0  0
    0.6602    0.3494    2.4403 H   0  0  0  0  0  0  0  0  0  0  0  0
    0.7679   -1.4480    0.7115 H   0  0  0  0  0  0  0  0  0  0  0  0
   -2.9447   -1.7575   -2.0076 Cl  0  0  0  0  0  0  0  0  0  0  0  0
  1  8  1  0  0  0  0
  2  1  1  0  0  0  0
  3 14  1  0  0  0  0
  3  2  2  0  0  0  0
  4  1  2  0  0  0  0
  4  5  1  0  0  0  0
  5  6  2  0  0  0  0
  6  7  1  0  0  0  0
  6 11  1  0  0  0  0
  7 12  1  0  0  0  0
  8 13  1  0  0  0  0
  8  7  2  0  0  0  0
  9  4  1  0  0  0  0
 10  5  1  0  0  0  0
M  END
