Coordinates from ORCA-job PhN2+~Cl-_B3LYPG-6-31G_dp-NX-Scan-d89-09-n800
 OpenBabel11261920353D

 14 14  0  0  1  0  0  0  0  0999 V2000
   -1.2920   -0.9145   -0.0538 C   0  0  2  0  0  0  0  0  0  0  0  0
   -1.4149   -1.8057   -1.0099 N   0  0  0  0  0  0  0  0  0  0  0  0
   -1.4753   -2.5137   -1.8988 N   0  0  0  0  0  0  0  0  0  0  0  0
   -2.2380    0.1953   -0.0248 C   0  0  0  0  0  0  0  0  0  0  0  0
   -1.7234    1.4277    0.1444 C   0  0  0  0  0  0  0  0  0  0  0  0
   -0.2474    1.5737    0.0836 C   0  0  1  0  0  0  0  0  0  0  0  0
    0.4825    0.4682    0.7533 C   0  0  0  0  0  0  0  0  0  0  0  0
    0.0074   -0.7815    0.5957 C   0  0  0  0  0  0  0  0  0  0  0  0
   -3.2985    0.0062   -0.1612 H   0  0  0  0  0  0  0  0  0  0  0  0
   -2.3482    2.3121    0.2068 H   0  0  0  0  0  0  0  0  0  0  0  0
    0.1193    2.5678    0.3231 H   0  0  0  0  0  0  0  0  0  0  0  0
    1.4262    0.6702    1.2480 H   0  0  0  0  0  0  0  0  0  0  0  0
    0.5513   -1.6685    0.9043 H   0  0  0  0  0  0  0  0  0  0  0  0
    0.2101    1.4135   -1.8284 Cl  0  0  0  0  0  0  0  0  0  0  0  0
  1  2  1  6  0  0  0
  1  4  1  0  0  0  0
  1  8  1  0  0  0  0
  3  2  1  0  0  0  0
  4  5  2  0  0  0  0
  5 10  1  0  0  0  0
  6  5  1  0  0  0  0
  6 11  1  1  0  0  0
  6  7  1  0  0  0  0
  7 12  1  0  0  0  0
  8  7  2  0  0  0  0
  8 13  1  0  0  0  0
  9  4  1  0  0  0  0
 14  6  1  0  0  0  0
M  RAD  3   1   2   2   2   3   3
M  END
