Coordinates from ORCA-job PhN2+~Cl-_B3LYPG-6-31G_dp-NX-Scan-d89-09-n800
 OpenBabel11261920353D

 14 14  0  0  1  0  0  0  0  0999 V2000
   -1.3348   -0.9540    0.0393 C   0  0  2  0  0  0  0  0  0  0  0  0
   -1.3062   -1.6136   -1.1004 N   0  0  0  0  0  0  0  0  0  0  0  0
   -1.2155   -2.0669   -2.1388 N   0  0  0  0  0  0  0  0  0  0  0  0
   -2.2805    0.1747    0.0849 C   0  0  0  0  0  0  0  0  0  0  0  0
   -1.7349    1.4015    0.1519 C   0  0  0  0  0  0  0  0  0  0  0  0
   -0.2570    1.4924   -0.0098 C   0  0  1  0  0  0  0  0  0  0  0  0
    0.4675    0.4434    0.7606 C   0  0  0  0  0  0  0  0  0  0  0  0
   -0.0301   -0.8043    0.7073 C   0  0  0  0  0  0  0  0  0  0  0  0
   -3.3504   -0.0036    0.0278 H   0  0  0  0  0  0  0  0  0  0  0  0
   -2.3279    2.3073    0.2246 H   0  0  0  0  0  0  0  0  0  0  0  0
    0.1505    2.4944    0.0925 H   0  0  0  0  0  0  0  0  0  0  0  0
    1.4033    0.6842    1.2541 H   0  0  0  0  0  0  0  0  0  0  0  0
    0.4927   -1.6750    1.0905 H   0  0  0  0  0  0  0  0  0  0  0  0
    0.0824    1.0701   -1.9024 Cl  0  0  0  0  0  0  0  0  0  0  0  0
  1  2  1  6  0  0  0
  1  4  1  0  0  0  0
  1  8  1  0  0  0  0
  3  2  1  0  0  0  0
  4  5  2  0  0  0  0
  5 10  1  0  0  0  0
  6 11  1  1  0  0  0
  6  5  1  0  0  0  0
  6  7  1  0  0  0  0
  7 12  1  0  0  0  0
  8  7  2  0  0  0  0
  8 13  1  0  0  0  0
  9  4  1  0  0  0  0
 14  6  1  0  0  0  0
M  RAD  3   1   2   2   2   3   3
M  END
