Coordinates from ORCA-job PhN2+~Cl-_B3LYPG-6-31G_dp-NX-Scan-d89-09-n800
 OpenBabel11261920353D

 14 13  0  0  0  0  0  0  0  0999 V2000
   -1.3233   -1.0820   -0.2011 C   0  0  0  0  0  0  0  0  0  0  0  0
   -1.8253   -2.3307   -0.3525 N   0  0  0  0  0  0  0  0  0  0  0  0
   -2.2498   -3.3760   -0.4633 N   0  0  0  0  0  0  0  0  0  0  0  0
   -2.1760    0.0385   -0.4155 C   0  0  0  0  0  0  0  0  0  0  0  0
   -1.6607    1.2988   -0.1855 C   0  0  0  0  0  0  0  0  0  0  0  0
   -0.3387    1.4780    0.2736 C   0  0  0  0  0  0  0  0  0  0  0  0
    0.5039    0.3550    0.4144 C   0  0  0  0  0  0  0  0  0  0  0  0
    0.0348   -0.9254    0.1973 C   0  0  0  0  0  0  0  0  0  0  0  0
   -3.2025   -0.1144   -0.7294 H   0  0  0  0  0  0  0  0  0  0  0  0
   -2.2879    2.1704   -0.3394 H   0  0  0  0  0  0  0  0  0  0  0  0
    0.0422    2.4840    0.4783 H   0  0  0  0  0  0  0  0  0  0  0  0
    1.5337    0.5031    0.7217 H   0  0  0  0  0  0  0  0  0  0  0  0
    0.6604   -1.7991    0.3437 H   0  0  0  0  0  0  0  0  0  0  0  0
    1.0483    4.2507   -0.4600 Cl  0  0  0  0  0  0  0  0  0  0  0  0
  1  8  1  0  0  0  0
  2  1  1  0  0  0  0
  3  2  1  0  0  0  0
  4  1  2  0  0  0  0
  4  5  1  0  0  0  0
  5  6  2  0  0  0  0
  6  7  1  0  0  0  0
  6 11  1  0  0  0  0
  7 12  1  0  0  0  0
  8 13  1  0  0  0  0
  8  7  2  0  0  0  0
  9  4  1  0  0  0  0
 10  5  1  0  0  0  0
M  RAD  3   2   2   3   3  14   2
M  END
