Coordinates from ORCA-job PhN2+~Cl-_B3LYPG-6-31G_dp-NX-Scan-d89-09-n800
 OpenBabel11261920353D

 14 13  0  0  0  0  0  0  0  0999 V2000
   -1.3529   -1.1106   -0.1438 C   0  0  0  0  0  0  0  0  0  0  0  0
   -1.8741   -2.3636   -0.2306 N   0  0  0  0  0  0  0  0  0  0  0  0
   -2.3084   -3.4079   -0.3036 N   0  0  0  0  0  0  0  0  0  0  0  0
   -2.2070    0.0076   -0.3461 C   0  0  0  0  0  0  0  0  0  0  0  0
   -1.6524    1.2721   -0.2520 C   0  0  0  0  0  0  0  0  0  0  0  0
   -0.2856    1.4557    0.0347 C   0  0  0  0  0  0  0  0  0  0  0  0
    0.5360    0.3284    0.2306 C   0  0  0  0  0  0  0  0  0  0  0  0
    0.0299   -0.9571    0.1475 C   0  0  0  0  0  0  0  0  0  0  0  0
   -3.2576   -0.1444   -0.5682 H   0  0  0  0  0  0  0  0  0  0  0  0
   -2.2823    2.1428   -0.4025 H   0  0  0  0  0  0  0  0  0  0  0  0
    0.1367    2.4702    0.1048 H   0  0  0  0  0  0  0  0  0  0  0  0
    1.5883    0.4738    0.4524 H   0  0  0  0  0  0  0  0  0  0  0  0
    0.6538   -1.8313    0.2974 H   0  0  0  0  0  0  0  0  0  0  0  0
    1.0348    4.6148    0.2615 Cl  0  0  0  0  0  0  0  0  0  0  0  0
  1  8  2  0  0  0  0
  2  1  1  0  0  0  0
  3  2  1  0  0  0  0
  4  5  2  0  0  0  0
  4  1  1  0  0  0  0
  5  6  1  0  0  0  0
  6 11  1  0  0  0  0
  6  7  2  0  0  0  0
  7 12  1  0  0  0  0
  8  7  1  0  0  0  0
  8 13  1  0  0  0  0
  9  4  1  0  0  0  0
 10  5  1  0  0  0  0
M  RAD  3   2   2   3   3  14   2
M  END
