Coordinates from ORCA-job PhN2+~Cl-_B3LYPG-6-31G_dp-NX-Scan-d89-09-n800
 OpenBabel11261920353D

 14 14  0  0  1  0  0  0  0  0999 V2000
   -1.2711   -0.9036   -0.1123 C   0  0  2  0  0  0  0  0  0  0  0  0
   -1.4762   -1.9015   -0.9392 N   0  0  0  0  0  0  0  0  0  0  0  0
   -1.6171   -2.7233   -1.7147 N   0  0  0  0  0  0  0  0  0  0  0  0
   -2.2137    0.2017   -0.0947 C   0  0  0  0  0  0  0  0  0  0  0  0
   -1.7169    1.4344    0.1254 C   0  0  0  0  0  0  0  0  0  0  0  0
   -0.2456    1.6105    0.1348 C   0  0  1  0  0  0  0  0  0  0  0  0
    0.4916    0.4739    0.7350 C   0  0  0  0  0  0  0  0  0  0  0  0
    0.0282   -0.7734    0.5247 C   0  0  0  0  0  0  0  0  0  0  0  0
   -3.2678    0.0116   -0.2708 H   0  0  0  0  0  0  0  0  0  0  0  0
   -2.3575    2.3080    0.1745 H   0  0  0  0  0  0  0  0  0  0  0  0
    0.0890    2.5893    0.4668 H   0  0  0  0  0  0  0  0  0  0  0  0
    1.4431    0.6549    1.2224 H   0  0  0  0  0  0  0  0  0  0  0  0
    0.5851   -1.6645    0.7955 H   0  0  0  0  0  0  0  0  0  0  0  0
    0.2882    1.6328   -1.7650 Cl  0  0  0  0  0  0  0  0  0  0  0  0
  1  2  1  6  0  0  0
  1  4  1  0  0  0  0
  1  8  1  0  0  0  0
  3  2  1  0  0  0  0
  4  5  2  0  0  0  0
  5  6  1  0  0  0  0
  5 10  1  0  0  0  0
  6 11  1  1  0  0  0
  6  7  1  0  0  0  0
  7 12  1  0  0  0  0
  8  7  2  0  0  0  0
  8 13  1  0  0  0  0
  9  4  1  0  0  0  0
 14  6  1  0  0  0  0
M  RAD  3   1   2   2   2   3   3
M  END
