Coordinates from ORCA-job PhN2+~Cl-_B3LYPG-6-31G_dp-NX-Scan-d89-09-n800
 OpenBabel11261920353D

 14 14  0  0  1  0  0  0  0  0999 V2000
   -1.2635   -0.9028   -0.1386 C   0  0  2  0  0  0  0  0  0  0  0  0
   -1.5053   -1.9437   -0.9001 N   0  0  0  0  0  0  0  0  0  0  0  0
   -1.6831   -2.8120   -1.6156 N   0  0  0  0  0  0  0  0  0  0  0  0
   -2.2024    0.2030   -0.1296 C   0  0  0  0  0  0  0  0  0  0  0  0
   -1.7135    1.4354    0.1111 C   0  0  0  0  0  0  0  0  0  0  0  0
   -0.2458    1.6252    0.1583 C   0  0  1  0  0  0  0  0  0  0  0  0
    0.4965    0.4743    0.7210 C   0  0  0  0  0  0  0  0  0  0  0  0
    0.0378   -0.7713    0.4892 C   0  0  0  0  0  0  0  0  0  0  0  0
   -3.2535    0.0141   -0.3236 H   0  0  0  0  0  0  0  0  0  0  0  0
   -2.3606    2.3047    0.1509 H   0  0  0  0  0  0  0  0  0  0  0  0
    0.0702    2.5923    0.5397 H   0  0  0  0  0  0  0  0  0  0  0  0
    1.4529    0.6461    1.2021 H   0  0  0  0  0  0  0  0  0  0  0  0
    0.6016   -1.6629    0.7433 H   0  0  0  0  0  0  0  0  0  0  0  0
    0.3276    1.7483   -1.7257 Cl  0  0  0  0  0  0  0  0  0  0  0  0
  1  2  1  6  0  0  0
  1  4  1  0  0  0  0
  1  8  1  0  0  0  0
  3  2  1  0  0  0  0
  4  5  2  0  0  0  0
  5 10  1  0  0  0  0
  5  6  1  0  0  0  0
  6 11  1  1  0  0  0
  6  7  1  0  0  0  0
  7 12  1  0  0  0  0
  8  7  2  0  0  0  0
  8 13  1  0  0  0  0
  9  4  1  0  0  0  0
 14  6  1  0  0  0  0
M  RAD  3   1   2   2   2   3   3
M  END
