Coordinates from ORCA-job PhN2+~Cl-_B3LYPG-6-31G_dp-NX-Scan-d89-09-n800
 OpenBabel11261920353D

 14 14  0  0  1  0  0  0  0  0999 V2000
   -1.3529   -0.9741    0.0733 C   0  0  2  0  0  0  0  0  0  0  0  0
   -1.2629   -1.5279   -1.1224 N   0  0  0  0  0  0  0  0  0  0  0  0
   -1.0880   -1.8162   -2.2072 N   0  0  0  0  0  0  0  0  0  0  0  0
   -2.2980    0.1626    0.1283 C   0  0  0  0  0  0  0  0  0  0  0  0
   -1.7397    1.3854    0.1510 C   0  0  0  0  0  0  0  0  0  0  0  0
   -0.2645    1.4519   -0.0463 C   0  0  1  0  0  0  0  0  0  0  0  0
    0.4594    0.4288    0.7592 C   0  0  0  0  0  0  0  0  0  0  0  0
   -0.0473   -0.8165    0.7509 C   0  0  0  0  0  0  0  0  0  0  0  0
   -3.3702   -0.0084    0.1023 H   0  0  0  0  0  0  0  0  0  0  0  0
   -2.3194    2.3003    0.2207 H   0  0  0  0  0  0  0  0  0  0  0  0
    0.1593    2.4516   -0.0068 H   0  0  0  0  0  0  0  0  0  0  0  0
    1.3952    0.6845    1.2457 H   0  0  0  0  0  0  0  0  0  0  0  0
    0.4687   -1.6780    1.1634 H   0  0  0  0  0  0  0  0  0  0  0  0
    0.0195    0.9067   -1.9297 Cl  0  0  0  0  0  0  0  0  0  0  0  0
  1  2  1  6  0  0  0
  1  4  1  0  0  0  0
  1  8  1  0  0  0  0
  3  2  1  0  0  0  0
  4  5  2  0  0  0  0
  5 10  1  0  0  0  0
  6 11  1  1  0  0  0
  6  5  1  0  0  0  0
  6  7  1  0  0  0  0
  7 12  1  0  0  0  0
  8  7  2  0  0  0  0
  8 13  1  0  0  0  0
  9  4  1  0  0  0  0
 14  6  1  0  0  0  0
M  RAD  3   1   2   2   2   3   3
M  END
