Coordinates from ORCA-job PhN2+~Cl-_B3LYPG-6-31G_dp-NX-Scan-d89-09-n800
 OpenBabel11261920353D

 14 14  0  0  0  0  0  0  0  0999 V2000
   -0.5923   -0.4661   -0.5727 C   0  0  0  0  0  0  0  0  0  0  0  0
   -0.4594   -1.5529   -1.4705 N   0  0  0  0  0  0  0  0  0  0  0  0
   -1.1910   -2.1256   -2.2262 N   0  0  0  0  0  0  0  0  0  0  0  0
   -1.3634    0.6737   -0.8433 C   0  0  0  0  0  0  0  0  0  0  0  0
   -1.3631    1.7152    0.0823 C   0  0  0  0  0  0  0  0  0  0  0  0
   -0.6222    1.6193    1.2631 C   0  0  0  0  0  0  0  0  0  0  0  0
    0.1524    0.4841    1.5167 C   0  0  0  0  0  0  0  0  0  0  0  0
    0.1901   -0.5509    0.5873 C   0  0  0  0  0  0  0  0  0  0  0  0
   -1.9352    0.7437   -1.7584 H   0  0  0  0  0  0  0  0  0  0  0  0
   -1.9499    2.6058   -0.1203 H   0  0  0  0  0  0  0  0  0  0  0  0
   -0.6398    2.4349    1.9801 H   0  0  0  0  0  0  0  0  0  0  0  0
    0.7378    0.4130    2.4279 H   0  0  0  0  0  0  0  0  0  0  0  0
    0.8034   -1.4319    0.7443 H   0  0  0  0  0  0  0  0  0  0  0  0
   -3.0082   -1.6115   -2.3279 Cl  0  0  0  0  0  0  0  0  0  0  0  0
  1  8  1  0  0  0  0
  2  1  1  0  0  0  0
  3  2  2  0  0  0  0
  4  1  2  0  0  0  0
  4  5  1  0  0  0  0
  5  6  2  0  0  0  0
  6  7  1  0  0  0  0
  6 11  1  0  0  0  0
  7 12  1  0  0  0  0
  8 13  1  0  0  0  0
  8  7  2  0  0  0  0
  9  4  1  0  0  0  0
 10  5  1  0  0  0  0
 14  3  1  0  0  0  0
M  END
