Coordinates from ORCA-job PhN2+~Cl-_B3LYPG-6-31G_dp-NX-Scan-d89-09-n800
 OpenBabel11261920353D

 14 14  0  0  1  0  0  0  0  0999 V2000
   -1.2543   -0.9089   -0.1808 C   0  0  2  0  0  0  0  0  0  0  0  0
   -1.5584   -2.0148   -0.8194 N   0  0  0  0  0  0  0  0  0  0  0  0
   -1.7998   -2.9542   -1.4180 N   0  0  0  0  0  0  0  0  0  0  0  0
   -2.1824    0.2024   -0.1953 C   0  0  0  0  0  0  0  0  0  0  0  0
   -1.7060    1.4341    0.0751 C   0  0  0  0  0  0  0  0  0  0  0  0
   -0.2476    1.6468    0.1991 C   0  0  1  0  0  0  0  0  0  0  0  0
    0.5072    0.4717    0.6856 C   0  0  0  0  0  0  0  0  0  0  0  0
    0.0546   -0.7706    0.4227 C   0  0  0  0  0  0  0  0  0  0  0  0
   -3.2279    0.0186   -0.4214 H   0  0  0  0  0  0  0  0  0  0  0  0
   -2.3622    2.2972    0.0915 H   0  0  0  0  0  0  0  0  0  0  0  0
    0.0274    2.5825    0.6794 H   0  0  0  0  0  0  0  0  0  0  0  0
    1.4748    0.6285    1.1492 H   0  0  0  0  0  0  0  0  0  0  0  0
    0.6325   -1.6609    0.6477 H   0  0  0  0  0  0  0  0  0  0  0  0
    0.4012    1.9784   -1.6331 Cl  0  0  0  0  0  0  0  0  0  0  0  0
  1  2  1  6  0  0  0
  1  8  1  0  0  0  0
  3  2  1  0  0  0  0
  4  1  1  0  0  0  0
  4  5  2  0  0  0  0
  5 10  1  0  0  0  0
  5  6  1  0  0  0  0
  6 11  1  1  0  0  0
  6  7  1  0  0  0  0
  7 12  1  0  0  0  0
  8 13  1  0  0  0  0
  8  7  2  0  0  0  0
  9  4  1  0  0  0  0
 14  6  1  0  0  0  0
M  RAD  3   1   2   2   2   3   3
M  END
