Coordinates from ORCA-job PhN2+~Cl-_B3LYPG-6-31G_dp-NX-Scan-d89-09-n800
 OpenBabel11261920353D

 14 14  0  0  1  0  0  0  0  0999 V2000
   -1.2501   -0.9322   -0.2316 C   0  0  0  0  0  0  0  0  0  0  0  0
   -1.6378   -2.1066   -0.6757 N   0  0  0  0  0  0  0  0  0  0  0  0
   -1.9660   -3.1211   -1.0825 N   0  0  0  0  0  0  0  0  0  0  0  0
   -2.1533    0.1951   -0.2993 C   0  0  0  0  0  0  0  0  0  0  0  0
   -1.6891    1.4268   -0.0057 C   0  0  0  0  0  0  0  0  0  0  0  0
   -0.2532    1.6666    0.2507 C   0  0  1  0  0  0  0  0  0  0  0  0
    0.5280    0.4628    0.6059 C   0  0  0  0  0  0  0  0  0  0  0  0
    0.0785   -0.7755    0.3171 C   0  0  0  0  0  0  0  0  0  0  0  0
   -3.1902    0.0233   -0.5693 H   0  0  0  0  0  0  0  0  0  0  0  0
   -2.3517    2.2850   -0.0353 H   0  0  0  0  0  0  0  0  0  0  0  0
   -0.0599    2.5207    0.8967 H   0  0  0  0  0  0  0  0  0  0  0  0
    1.5154    0.6031    1.0316 H   0  0  0  0  0  0  0  0  0  0  0  0
    0.6791   -1.6601    0.5022 H   0  0  0  0  0  0  0  0  0  0  0  0
    0.5094    2.3629   -1.4225 Cl  0  0  0  0  0  0  0  0  0  0  0  0
  1  8  2  0  0  0  0
  2  1  1  0  0  0  0
  3  2  1  0  0  0  0
  4  1  1  0  0  0  0
  4  5  2  0  0  0  0
  5  6  1  0  0  0  0
  6  7  1  0  0  0  0
  6 11  1  1  0  0  0
  7 12  1  0  0  0  0
  8 13  1  0  0  0  0
  8  7  1  0  0  0  0
  9  4  1  0  0  0  0
 10  5  1  0  0  0  0
 14  6  1  0  0  0  0
M  RAD  3   2   2   3   3   7   2
M  END
