Coordinates from ORCA-job PhN2+~Cl-_B3LYPG-6-31G_dp-NX-Scan-d89-09-n800
 OpenBabel11261920353D

 14 13  0  0  0  0  0  0  0  0999 V2000
   -1.2795   -1.0243   -0.2694 C   0  0  0  0  0  0  0  0  0  0  0  0
   -1.7727   -2.2636   -0.4348 N   0  0  0  0  0  0  0  0  0  0  0  0
   -2.1979   -3.3134   -0.5479 N   0  0  0  0  0  0  0  0  0  0  0  0
   -2.1361    0.1104   -0.4472 C   0  0  0  0  0  0  0  0  0  0  0  0
   -1.6620    1.3562   -0.1195 C   0  0  0  0  0  0  0  0  0  0  0  0
   -0.3494    1.5387    0.4005 C   0  0  0  0  0  0  0  0  0  0  0  0
    0.5138    0.4096    0.4814 C   0  0  0  0  0  0  0  0  0  0  0  0
    0.0750   -0.8518    0.1637 C   0  0  0  0  0  0  0  0  0  0  0  0
   -3.1517   -0.0348   -0.7985 H   0  0  0  0  0  0  0  0  0  0  0  0
   -2.3083    2.2200   -0.2259 H   0  0  0  0  0  0  0  0  0  0  0  0
   -0.0967    2.4490    0.9196 H   0  0  0  0  0  0  0  0  0  0  0  0
    1.5287    0.5496    0.8353 H   0  0  0  0  0  0  0  0  0  0  0  0
    0.7172   -1.7189    0.2726 H   0  0  0  0  0  0  0  0  0  0  0  0
    0.8788    3.5239   -0.9477 Cl  0  0  0  0  0  0  0  0  0  0  0  0
  1  8  1  0  0  0  0
  2  1  1  0  0  0  0
  3  2  1  0  0  0  0
  4  1  2  0  0  0  0
  4  5  1  0  0  0  0
  5  6  2  0  0  0  0
  6  7  1  0  0  0  0
  6 11  1  0  0  0  0
  7 12  1  0  0  0  0
  8 13  1  0  0  0  0
  8  7  2  0  0  0  0
  9  4  1  0  0  0  0
 10  5  1  0  0  0  0
M  RAD  3   2   2   3   3  14   2
M  END
