Coordinates from ORCA-job PhN2+~Cl-_B3LYPG-6-31G_dp-NX-Scan-d89-09-n800
 OpenBabel11261920353D

 14 13  0  0  0  0  0  0  0  0999 V2000
   -0.6680   -0.5584   -0.3975 C   0  0  0  0  0  0  0  0  0  0  0  0
   -0.6957   -1.7171   -1.1945 N   0  0  0  0  0  0  0  0  0  0  0  0
   -1.1603   -2.2562   -2.1024 N   0  0  0  0  0  0  0  0  0  0  0  0
   -1.5109    0.5236   -0.6894 C   0  0  0  0  0  0  0  0  0  0  0  0
   -1.4326    1.6402    0.1392 C   0  0  0  0  0  0  0  0  0  0  0  0
   -0.5427    1.6670    1.2176 C   0  0  0  0  0  0  0  0  0  0  0  0
    0.2874    0.5734    1.4882 C   0  0  0  0  0  0  0  0  0  0  0  0
    0.2308   -0.5544    0.6772 C   0  0  0  0  0  0  0  0  0  0  0  0
   -2.1852    0.4561   -1.5388 H   0  0  0  0  0  0  0  0  0  0  0  0
   -2.0713    2.4947   -0.0606 H   0  0  0  0  0  0  0  0  0  0  0  0
   -0.4947    2.5468    1.8526 H   0  0  0  0  0  0  0  0  0  0  0  0
    0.9742    0.6018    2.3276 H   0  0  0  0  0  0  0  0  0  0  0  0
    0.8593   -1.4200    0.8568 H   0  0  0  0  0  0  0  0  0  0  0  0
   -2.8312   -1.0469   -3.2936 Cl  0  0  0  0  0  0  0  0  0  0  0  0
  1  8  1  0  0  0  0
  2  1  1  0  0  0  0
  3  2  2  0  0  0  0
  4  1  2  0  0  0  0
  4  5  1  0  0  0  0
  5  6  2  0  0  0  0
  6  7  1  0  0  0  0
  6 11  1  0  0  0  0
  7 12  1  0  0  0  0
  8 13  1  0  0  0  0
  8  7  2  0  0  0  0
  9  4  1  0  0  0  0
 10  5  1  0  0  0  0
M  RAD  2   3   2  14   2
M  END
