Coordinates from ORCA-job PhN2+~Cl-_B3LYPG-6-31G_dp-NX-Scan-d89-09-n800
 OpenBabel11261920353D

 14 14  0  0  0  0  0  0  0  0999 V2000
   -0.5762   -0.4138   -0.6656 C   0  0  0  0  0  0  0  0  0  0  0  0
   -0.3898   -1.4257   -1.6587 N   0  0  0  0  0  0  0  0  0  0  0  0
   -1.3025   -2.0751   -2.1975 N   0  0  0  0  0  0  0  0  0  0  0  0
   -1.3006    0.7600   -0.9138 C   0  0  0  0  0  0  0  0  0  0  0  0
   -1.3317    1.7616    0.0551 C   0  0  0  0  0  0  0  0  0  0  0  0
   -0.6597    1.5946    1.2682 C   0  0  0  0  0  0  0  0  0  0  0  0
    0.0707    0.4276    1.5043 C   0  0  0  0  0  0  0  0  0  0  0  0
    0.1352   -0.5671    0.5306 C   0  0  0  0  0  0  0  0  0  0  0  0
   -1.8146    0.8940   -1.8593 H   0  0  0  0  0  0  0  0  0  0  0  0
   -1.8858    2.6752   -0.1390 H   0  0  0  0  0  0  0  0  0  0  0  0
   -0.6953    2.3766    2.0211 H   0  0  0  0  0  0  0  0  0  0  0  0
    0.6051    0.2983    2.4406 H   0  0  0  0  0  0  0  0  0  0  0  0
    0.7220   -1.4672    0.6837 H   0  0  0  0  0  0  0  0  0  0  0  0
   -2.8177   -1.8884   -1.7872 Cl  0  0  0  0  0  0  0  0  0  0  0  0
  1  8  1  0  0  0  0
  2  1  1  0  0  0  0
  3 14  1  0  0  0  0
  3  2  2  0  0  0  0
  4  1  2  0  0  0  0
  4  5  1  0  0  0  0
  5  6  2  0  0  0  0
  6  7  1  0  0  0  0
  6 11  1  0  0  0  0
  7 12  1  0  0  0  0
  8 13  1  0  0  0  0
  8  7  2  0  0  0  0
  9  4  1  0  0  0  0
 10  5  1  0  0  0  0
M  END
