Coordinates from ORCA-job PhN2+~Cl-_B3LYPG-6-31G_dp-NX-Scan-d89-09-n800
 OpenBabel11261920353D

 14 14  0  0  1  0  0  0  0  0999 V2000
   -1.2706   -0.9990   -0.2626 C   0  0  0  0  0  0  0  0  0  0  0  0
   -1.7751   -2.2171   -0.3523 N   0  0  0  0  0  0  0  0  0  0  0  0
   -2.2172   -3.2752   -0.4161 N   0  0  0  0  0  0  0  0  0  0  0  0
   -2.1025    0.1699   -0.4801 C   0  0  0  0  0  0  0  0  0  0  0  0
   -1.6283    1.4121   -0.2339 C   0  0  0  0  0  0  0  0  0  0  0  0
   -0.2646    1.6703    0.2973 C   0  0  1  0  0  0  0  0  0  0  0  0
    0.5817    0.4514    0.3756 C   0  0  0  0  0  0  0  0  0  0  0  0
    0.1107   -0.7921    0.1307 C   0  0  0  0  0  0  0  0  0  0  0  0
   -3.1227    0.0278   -0.8221 H   0  0  0  0  0  0  0  0  0  0  0  0
   -2.2750    2.2698   -0.3849 H   0  0  0  0  0  0  0  0  0  0  0  0
   -0.2812    2.2277    1.2362 H   0  0  0  0  0  0  0  0  0  0  0  0
    1.6121    0.5797    0.6892 H   0  0  0  0  0  0  0  0  0  0  0  0
    0.7544   -1.6581    0.2497 H   0  0  0  0  0  0  0  0  0  0  0  0
    0.6371    3.0835   -0.7444 Cl  0  0  0  0  0  0  0  0  0  0  0  0
  1  8  2  0  0  0  0
  2  1  1  0  0  0  0
  3  2  1  0  0  0  0
  4  1  1  0  0  0  0
  4  5  2  0  0  0  0
  5  6  1  0  0  0  0
  6  7  1  0  0  0  0
  6 11  1  1  0  0  0
  7 12  1  0  0  0  0
  8 13  1  0  0  0  0
  8  7  1  0  0  0  0
  9  4  1  0  0  0  0
 10  5  1  0  0  0  0
 14  6  1  0  0  0  0
M  RAD  3   2   2   3   3   7   2
M  END
