Coordinates from ORCA-job PhN2+~Cl-_B3LYPG-6-31G_dp-NX-Scan-d89-09-n800
 OpenBabel11261920353D

 14 13  0  0  0  0  0  0  0  0999 V2000
   -1.3584   -1.1239   -0.1446 C   0  0  0  0  0  0  0  0  0  0  0  0
   -1.8810   -2.3788   -0.2314 N   0  0  0  0  0  0  0  0  0  0  0  0
   -2.3163   -3.4241   -0.3047 N   0  0  0  0  0  0  0  0  0  0  0  0
   -2.2099   -0.0038   -0.3465 C   0  0  0  0  0  0  0  0  0  0  0  0
   -1.6550    1.2620   -0.2526 C   0  0  0  0  0  0  0  0  0  0  0  0
   -0.2886    1.4466    0.0337 C   0  0  0  0  0  0  0  0  0  0  0  0
    0.5313    0.3185    0.2295 C   0  0  0  0  0  0  0  0  0  0  0  0
    0.0240   -0.9678    0.1465 C   0  0  0  0  0  0  0  0  0  0  0  0
   -3.2608   -0.1531   -0.5686 H   0  0  0  0  0  0  0  0  0  0  0  0
   -2.2869    2.1309   -0.4036 H   0  0  0  0  0  0  0  0  0  0  0  0
    0.1328    2.4586    0.1035 H   0  0  0  0  0  0  0  0  0  0  0  0
    1.5839    0.4609    0.4514 H   0  0  0  0  0  0  0  0  0  0  0  0
    0.6497   -1.8405    0.2969 H   0  0  0  0  0  0  0  0  0  0  0  0
    1.0941    4.7654    0.2727 Cl  0  0  0  0  0  0  0  0  0  0  0  0
  1  8  2  0  0  0  0
  2  1  1  0  0  0  0
  3  2  1  0  0  0  0
  4  5  2  0  0  0  0
  4  1  1  0  0  0  0
  5  6  1  0  0  0  0
  6 11  1  0  0  0  0
  6  7  2  0  0  0  0
  7 12  1  0  0  0  0
  8  7  1  0  0  0  0
  8 13  1  0  0  0  0
  9  4  1  0  0  0  0
 10  5  1  0  0  0  0
M  RAD  3   2   2   3   3  14   2
M  END
