Coordinates from ORCA-job PhN2+~Cl-_B3LYPG-6-31G_dp-NX-Scan-d89-09-n800
 OpenBabel11261920353D

 14 14  0  0  1  0  0  0  0  0999 V2000
   -1.2528   -0.9544   -0.2562 C   0  0  0  0  0  0  0  0  0  0  0  0
   -1.6904   -2.1562   -0.5631 N   0  0  0  0  0  0  0  0  0  0  0  0
   -2.0693   -3.1999   -0.8341 N   0  0  0  0  0  0  0  0  0  0  0  0
   -2.1340    0.1869   -0.3712 C   0  0  0  0  0  0  0  0  0  0  0  0
   -1.6720    1.4204   -0.0796 C   0  0  0  0  0  0  0  0  0  0  0  0
   -0.2580    1.6717    0.2760 C   0  0  1  0  0  0  0  0  0  0  0  0
    0.5460    0.4561    0.5321 C   0  0  0  0  0  0  0  0  0  0  0  0
    0.0933   -0.7816    0.2436 C   0  0  0  0  0  0  0  0  0  0  0  0
   -3.1650    0.0252   -0.6687 H   0  0  0  0  0  0  0  0  0  0  0  0
   -2.3328    2.2780   -0.1476 H   0  0  0  0  0  0  0  0  0  0  0  0
   -0.1352    2.4388    1.0400 H   0  0  0  0  0  0  0  0  0  0  0  0
    1.5484    0.5900    0.9241 H   0  0  0  0  0  0  0  0  0  0  0  0
    0.7096   -1.6603    0.4039 H   0  0  0  0  0  0  0  0  0  0  0  0
    0.5712    2.6360   -1.2169 Cl  0  0  0  0  0  0  0  0  0  0  0  0
  1  8  2  0  0  0  0
  2  1  1  0  0  0  0
  3  2  1  0  0  0  0
  4  1  1  0  0  0  0
  4  5  2  0  0  0  0
  5  6  1  0  0  0  0
  6  7  1  0  0  0  0
  6 11  1  1  0  0  0
  7 12  1  0  0  0  0
  8 13  1  0  0  0  0
  8  7  1  0  0  0  0
  9  4  1  0  0  0  0
 10  5  1  0  0  0  0
 14  6  1  0  0  0  0
M  RAD  3   2   2   3   3   7   2
M  END
