Coordinates from ORCA-job PhN2+~Cl-_B3LYPG-6-31G_dp-NX-Scan-d89-09-n800
 OpenBabel11261920353D

 14 14  0  0  1  0  0  0  0  0999 V2000
   -1.2700   -0.9980   -0.2629 C   0  0  0  0  0  0  0  0  0  0  0  0
   -1.7736   -2.2159   -0.3559 N   0  0  0  0  0  0  0  0  0  0  0  0
   -2.2148   -3.2740   -0.4227 N   0  0  0  0  0  0  0  0  0  0  0  0
   -2.1030    0.1704   -0.4785 C   0  0  0  0  0  0  0  0  0  0  0  0
   -1.6293    1.4122   -0.2311 C   0  0  0  0  0  0  0  0  0  0  0  0
   -0.2644    1.6705    0.2971 C   0  0  1  0  0  0  0  0  0  0  0  0
    0.5812    0.4513    0.3785 C   0  0  0  0  0  0  0  0  0  0  0  0
    0.1106   -0.7919    0.1324 C   0  0  0  0  0  0  0  0  0  0  0  0
   -3.1234    0.0278   -0.8199 H   0  0  0  0  0  0  0  0  0  0  0  0
   -2.2762    2.2701   -0.3807 H   0  0  0  0  0  0  0  0  0  0  0  0
   -0.2790    2.2314    1.2340 H   0  0  0  0  0  0  0  0  0  0  0  0
    1.6112    0.5798    0.6935 H   0  0  0  0  0  0  0  0  0  0  0  0
    0.7538   -1.6581    0.2520 H   0  0  0  0  0  0  0  0  0  0  0  0
    0.6360    3.0751   -0.7535 Cl  0  0  0  0  0  0  0  0  0  0  0  0
  1  8  2  0  0  0  0
  2  1  1  0  0  0  0
  3  2  1  0  0  0  0
  4  1  1  0  0  0  0
  4  5  2  0  0  0  0
  5  6  1  0  0  0  0
  6  7  1  0  0  0  0
  6 11  1  1  0  0  0
  7 12  1  0  0  0  0
  8 13  1  0  0  0  0
  8  7  1  0  0  0  0
  9  4  1  0  0  0  0
 10  5  1  0  0  0  0
 14  6  1  0  0  0  0
M  RAD  3   2   2   3   3   7   2
M  END
