Coordinates from ORCA-job PhN2+~Cl-_B3LYPG-6-31G_dp-NX-Scan-d89-09-n800
 OpenBabel11261920353D

 14 14  0  0  1  0  0  0  0  0999 V2000
   -1.2541   -0.9094   -0.1826 C   0  0  2  0  0  0  0  0  0  0  0  0
   -1.5609   -2.0180   -0.8153 N   0  0  0  0  0  0  0  0  0  0  0  0
   -1.8053   -2.9604   -1.4081 N   0  0  0  0  0  0  0  0  0  0  0  0
   -2.1815    0.2023   -0.1985 C   0  0  0  0  0  0  0  0  0  0  0  0
   -1.7055    1.4339    0.0731 C   0  0  0  0  0  0  0  0  0  0  0  0
   -0.2477    1.6477    0.2009 C   0  0  1  0  0  0  0  0  0  0  0  0
    0.5078    0.4715    0.6836 C   0  0  0  0  0  0  0  0  0  0  0  0
    0.0554   -0.7706    0.4195 C   0  0  0  0  0  0  0  0  0  0  0  0
   -3.2266    0.0188   -0.4261 H   0  0  0  0  0  0  0  0  0  0  0  0
   -2.3622    2.2968    0.0881 H   0  0  0  0  0  0  0  0  0  0  0  0
    0.0251    2.5814    0.6862 H   0  0  0  0  0  0  0  0  0  0  0  0
    1.4759    0.6276    1.1461 H   0  0  0  0  0  0  0  0  0  0  0  0
    0.6339   -1.6609    0.6432 H   0  0  0  0  0  0  0  0  0  0  0  0
    0.4048    1.9899   -1.6278 Cl  0  0  0  0  0  0  0  0  0  0  0  0
  1  2  1  6  0  0  0
  1  8  1  0  0  0  0
  3  2  1  0  0  0  0
  4  1  1  0  0  0  0
  4  5  2  0  0  0  0
  5 10  1  0  0  0  0
  5  6  1  0  0  0  0
  6  7  1  0  0  0  0
  6 11  1  1  0  0  0
  7 12  1  0  0  0  0
  8 13  1  0  0  0  0
  8  7  2  0  0  0  0
  9  4  1  0  0  0  0
 14  6  1  0  0  0  0
M  RAD  3   1   2   2   2   3   3
M  END
