Coordinates from ORCA-job PhN2+~Cl-_B3LYPG-6-31G_dp-NX-Scan-d89-09-n800
 OpenBabel11261920353D

 14 13  0  0  0  0  0  0  0  0999 V2000
   -1.2743   -1.0189   -0.2798 C   0  0  0  0  0  0  0  0  0  0  0  0
   -1.7721   -2.2561   -0.4252 N   0  0  0  0  0  0  0  0  0  0  0  0
   -2.2026   -3.3074   -0.5210 N   0  0  0  0  0  0  0  0  0  0  0  0
   -2.1268    0.1222   -0.4603 C   0  0  0  0  0  0  0  0  0  0  0  0
   -1.6552    1.3667   -0.1339 C   0  0  0  0  0  0  0  0  0  0  0  0
   -0.3380    1.5579    0.3888 C   0  0  0  0  0  0  0  0  0  0  0  0
    0.5233    0.4189    0.4676 C   0  0  0  0  0  0  0  0  0  0  0  0
    0.0834   -0.8394    0.1503 C   0  0  0  0  0  0  0  0  0  0  0  0
   -3.1435   -0.0210   -0.8094 H   0  0  0  0  0  0  0  0  0  0  0  0
   -2.3054    2.2280   -0.2371 H   0  0  0  0  0  0  0  0  0  0  0  0
   -0.1281    2.4244    0.9943 H   0  0  0  0  0  0  0  0  0  0  0  0
    1.5373    0.5553    0.8256 H   0  0  0  0  0  0  0  0  0  0  0  0
    0.7267   -1.7055    0.2618 H   0  0  0  0  0  0  0  0  0  0  0  0
    0.8344    3.4256   -0.9395 Cl  0  0  0  0  0  0  0  0  0  0  0  0
  1  8  1  0  0  0  0
  2  1  1  0  0  0  0
  3  2  1  0  0  0  0
  4  1  2  0  0  0  0
  4  5  1  0  0  0  0
  5  6  2  0  0  0  0
  6  7  1  0  0  0  0
  6 11  1  0  0  0  0
  7 12  1  0  0  0  0
  8 13  1  0  0  0  0
  8  7  2  0  0  0  0
  9  4  1  0  0  0  0
 10  5  1  0  0  0  0
M  RAD  3   2   2   3   3  14   2
M  END
