Coordinates from ORCA-job PhN2+~Cl-_B3LYPG-6-31G_dp-NX-Scan-d89-09-n800
 OpenBabel11261920353D

 14 14  0  0  1  0  0  0  0  0999 V2000
   -1.2501   -0.9274   -0.2242 C   0  0  0  0  0  0  0  0  0  0  0  0
   -1.6248   -2.0928   -0.7012 N   0  0  0  0  0  0  0  0  0  0  0  0
   -1.9395   -3.0976   -1.1408 N   0  0  0  0  0  0  0  0  0  0  0  0
   -2.1581    0.1967   -0.2818 C   0  0  0  0  0  0  0  0  0  0  0  0
   -1.6925    1.4283    0.0100 C   0  0  0  0  0  0  0  0  0  0  0  0
   -0.2521    1.6644    0.2432 C   0  0  1  0  0  0  0  0  0  0  0  0
    0.5241    0.4644    0.6214 C   0  0  0  0  0  0  0  0  0  0  0  0
    0.0747   -0.7743    0.3349 C   0  0  0  0  0  0  0  0  0  0  0  0
   -3.1964    0.0227   -0.5450 H   0  0  0  0  0  0  0  0  0  0  0  0
   -2.3547    2.2870   -0.0114 H   0  0  0  0  0  0  0  0  0  0  0  0
   -0.0436    2.5353    0.8609 H   0  0  0  0  0  0  0  0  0  0  0  0
    1.5082    0.6070    1.0541 H   0  0  0  0  0  0  0  0  0  0  0  0
    0.6714   -1.6601    0.5263 H   0  0  0  0  0  0  0  0  0  0  0  0
    0.4925    2.2971   -1.4643 Cl  0  0  0  0  0  0  0  0  0  0  0  0
  1  8  2  0  0  0  0
  2  1  1  0  0  0  0
  3  2  1  0  0  0  0
  4  1  1  0  0  0  0
  4  5  2  0  0  0  0
  5  6  1  0  0  0  0
  6  7  1  0  0  0  0
  6 11  1  1  0  0  0
  7 12  1  0  0  0  0
  8 13  1  0  0  0  0
  8  7  1  0  0  0  0
  9  4  1  0  0  0  0
 10  5  1  0  0  0  0
 14  6  1  0  0  0  0
M  RAD  3   2   2   3   3   7   2
M  END
