Coordinates from ORCA-job PhN2+~Cl-_B3LYPG-6-31G_dp-NX-Scan-d89-09-n800
 OpenBabel11261920353D

 14 14  0  0  1  0  0  0  0  0999 V2000
   -1.2825   -0.9085   -0.0785 C   0  0  2  0  0  0  0  0  0  0  0  0
   -1.4405   -1.8469   -0.9823 N   0  0  0  0  0  0  0  0  0  0  0  0
   -1.5352   -2.6051   -1.8260 N   0  0  0  0  0  0  0  0  0  0  0  0
   -2.2277    0.1985   -0.0534 C   0  0  0  0  0  0  0  0  0  0  0  0
   -1.7208    1.4313    0.1382 C   0  0  0  0  0  0  0  0  0  0  0  0
   -0.2463    1.5900    0.1053 C   0  0  1  0  0  0  0  0  0  0  0  0
    0.4861    0.4714    0.7474 C   0  0  0  0  0  0  0  0  0  0  0  0
    0.0162   -0.7775    0.5666 C   0  0  0  0  0  0  0  0  0  0  0  0
   -3.2855    0.0084   -0.2068 H   0  0  0  0  0  0  0  0  0  0  0  0
   -2.3525    2.3109    0.1960 H   0  0  0  0  0  0  0  0  0  0  0  0
    0.1080    2.5790    0.3815 H   0  0  0  0  0  0  0  0  0  0  0  0
    1.4326    0.6645    1.2400 H   0  0  0  0  0  0  0  0  0  0  0  0
    0.5653   -1.6667    0.8590 H   0  0  0  0  0  0  0  0  0  0  0  0
    0.2418    1.5014   -1.8046 Cl  0  0  0  0  0  0  0  0  0  0  0  0
  1  2  1  6  0  0  0
  1  4  1  0  0  0  0
  1  8  1  0  0  0  0
  3  2  1  0  0  0  0
  4  5  2  0  0  0  0
  5 10  1  0  0  0  0
  6  5  1  0  0  0  0
  6 11  1  1  0  0  0
  6  7  1  0  0  0  0
  7 12  1  0  0  0  0
  8  7  2  0  0  0  0
  8 13  1  0  0  0  0
  9  4  1  0  0  0  0
 14  6  1  0  0  0  0
M  RAD  3   1   2   2   2   3   3
M  END
