Coordinates from ORCA-job PhN2+~Cl-_B3LYPG-6-31G_dp-NX-Scan-d89-09-n800
 OpenBabel11261920353D

 14 14  0  0  1  0  0  0  0  0999 V2000
   -1.2663   -0.9028   -0.1285 C   0  0  2  0  0  0  0  0  0  0  0  0
   -1.4939   -1.9275   -0.9158 N   0  0  0  0  0  0  0  0  0  0  0  0
   -1.6574   -2.7782   -1.6552 N   0  0  0  0  0  0  0  0  0  0  0  0
   -2.2068    0.2026   -0.1158 C   0  0  0  0  0  0  0  0  0  0  0  0
   -1.7149    1.4351    0.1171 C   0  0  0  0  0  0  0  0  0  0  0  0
   -0.2456    1.6196    0.1492 C   0  0  1  0  0  0  0  0  0  0  0  0
    0.4945    0.4743    0.7269 C   0  0  0  0  0  0  0  0  0  0  0  0
    0.0340   -0.7719    0.5032 C   0  0  0  0  0  0  0  0  0  0  0  0
   -3.2591    0.0131   -0.3029 H   0  0  0  0  0  0  0  0  0  0  0  0
   -2.3595    2.3061    0.1608 H   0  0  0  0  0  0  0  0  0  0  0  0
    0.0779    2.5917    0.5108 H   0  0  0  0  0  0  0  0  0  0  0  0
    1.4489    0.6496    1.2107 H   0  0  0  0  0  0  0  0  0  0  0  0
    0.5951   -1.6635    0.7638 H   0  0  0  0  0  0  0  0  0  0  0  0
    0.3121    1.7023   -1.7419 Cl  0  0  0  0  0  0  0  0  0  0  0  0
  1  2  1  6  0  0  0
  1  4  1  0  0  0  0
  1  8  1  0  0  0  0
  3  2  1  0  0  0  0
  4  5  2  0  0  0  0
  5  6  1  0  0  0  0
  5 10  1  0  0  0  0
  6 11  1  1  0  0  0
  6  7  1  0  0  0  0
  7 12  1  0  0  0  0
  8  7  2  0  0  0  0
  8 13  1  0  0  0  0
  9  4  1  0  0  0  0
 14  6  1  0  0  0  0
M  RAD  3   1   2   2   2   3   3
M  END
