Coordinates from ORCA-job PhN2+~Cl-_B3LYPG-6-31G_dp-NX-Scan-d89-09-n800
 OpenBabel11261920353D

 14 14  0  0  1  0  0  0  0  0999 V2000
   -1.2885   -0.9122   -0.0624 C   0  0  2  0  0  0  0  0  0  0  0  0
   -1.4239   -1.8203   -1.0005 N   0  0  0  0  0  0  0  0  0  0  0  0
   -1.4964   -2.5463   -1.8740 N   0  0  0  0  0  0  0  0  0  0  0  0
   -2.2344    0.1965   -0.0347 C   0  0  0  0  0  0  0  0  0  0  0  0
   -1.7225    1.4291    0.1425 C   0  0  0  0  0  0  0  0  0  0  0  0
   -0.2469    1.5796    0.0912 C   0  0  1  0  0  0  0  0  0  0  0  0
    0.4837    0.4694    0.7515 C   0  0  0  0  0  0  0  0  0  0  0  0
    0.0105   -0.7800    0.5856 C   0  0  0  0  0  0  0  0  0  0  0  0
   -3.2939    0.0069   -0.1771 H   0  0  0  0  0  0  0  0  0  0  0  0
   -2.3497    2.3118    0.2034 H   0  0  0  0  0  0  0  0  0  0  0  0
    0.1155    2.5720    0.3433 H   0  0  0  0  0  0  0  0  0  0  0  0
    1.4283    0.6683    1.2456 H   0  0  0  0  0  0  0  0  0  0  0  0
    0.5562   -1.6679    0.8885 H   0  0  0  0  0  0  0  0  0  0  0  0
    0.2211    1.4437   -1.8205 Cl  0  0  0  0  0  0  0  0  0  0  0  0
  1  2  1  6  0  0  0
  1  4  1  0  0  0  0
  1  8  1  0  0  0  0
  3  2  1  0  0  0  0
  4  5  2  0  0  0  0
  5 10  1  0  0  0  0
  6  5  1  0  0  0  0
  6 11  1  1  0  0  0
  6  7  1  0  0  0  0
  7 12  1  0  0  0  0
  8  7  2  0  0  0  0
  8 13  1  0  0  0  0
  9  4  1  0  0  0  0
 14  6  1  0  0  0  0
M  RAD  3   1   2   2   2   3   3
M  END
