Coordinates from ORCA-job PhN2+~Cl-_B3LYPG-6-31G_dp-NX-Scan-d89-09-n800
 OpenBabel11261920353D

 14 13  0  0  0  0  0  0  0  0999 V2000
   -1.2911   -1.0385   -0.2497 C   0  0  0  0  0  0  0  0  0  0  0  0
   -1.7810   -2.2805   -0.4314 N   0  0  0  0  0  0  0  0  0  0  0  0
   -2.2009   -3.3282   -0.5608 N   0  0  0  0  0  0  0  0  0  0  0  0
   -2.1506    0.0890   -0.4307 C   0  0  0  0  0  0  0  0  0  0  0  0
   -1.6682    1.3386   -0.1163 C   0  0  0  0  0  0  0  0  0  0  0  0
   -0.3581    1.5146    0.3943 C   0  0  0  0  0  0  0  0  0  0  0  0
    0.5040    0.3933    0.4838 C   0  0  0  0  0  0  0  0  0  0  0  0
    0.0615   -0.8737    0.1808 C   0  0  0  0  0  0  0  0  0  0  0  0
   -3.1668   -0.0592   -0.7784 H   0  0  0  0  0  0  0  0  0  0  0  0
   -2.3081    2.2059   -0.2339 H   0  0  0  0  0  0  0  0  0  0  0  0
   -0.0515    2.4714    0.7925 H   0  0  0  0  0  0  0  0  0  0  0  0
    1.5225    0.5381    0.8261 H   0  0  0  0  0  0  0  0  0  0  0  0
    0.7004   -1.7428    0.2925 H   0  0  0  0  0  0  0  0  0  0  0  0
    0.9469    3.7227   -0.8865 Cl  0  0  0  0  0  0  0  0  0  0  0  0
  1  8  1  0  0  0  0
  2  1  1  0  0  0  0
  3  2  1  0  0  0  0
  4  1  2  0  0  0  0
  4  5  1  0  0  0  0
  5  6  2  0  0  0  0
  6  7  1  0  0  0  0
  6 11  1  0  0  0  0
  7 12  1  0  0  0  0
  8 13  1  0  0  0  0
  8  7  2  0  0  0  0
  9  4  1  0  0  0  0
 10  5  1  0  0  0  0
M  RAD  3   2   2   3   3  14   2
M  END
