Coordinates from ORCA-job PhN2+~Cl-_B3LYPG-6-31G_dp-NX-Scan-d89-09-n800
 OpenBabel11261920353D

 14 14  0  0  1  0  0  0  0  0999 V2000
   -1.2505   -0.9390   -0.2406 C   0  0  0  0  0  0  0  0  0  0  0  0
   -1.6550   -2.1238   -0.6407 N   0  0  0  0  0  0  0  0  0  0  0  0
   -2.0003   -3.1497   -1.0038 N   0  0  0  0  0  0  0  0  0  0  0  0
   -2.1470    0.1926   -0.3225 C   0  0  0  0  0  0  0  0  0  0  0  0
   -1.6841    1.4247   -0.0278 C   0  0  0  0  0  0  0  0  0  0  0  0
   -0.2547    1.6689    0.2599 C   0  0  1  0  0  0  0  0  0  0  0  0
    0.5334    0.4605    0.5839 C   0  0  0  0  0  0  0  0  0  0  0  0
    0.0834   -0.7774    0.2934 C   0  0  0  0  0  0  0  0  0  0  0  0
   -3.1821    0.0240   -0.6016 H   0  0  0  0  0  0  0  0  0  0  0  0
   -2.3467    2.2825   -0.0691 H   0  0  0  0  0  0  0  0  0  0  0  0
   -0.0827    2.4981    0.9438 H   0  0  0  0  0  0  0  0  0  0  0  0
    1.5255    0.5984    0.9996 H   0  0  0  0  0  0  0  0  0  0  0  0
    0.6890   -1.6602    0.4704 H   0  0  0  0  0  0  0  0  0  0  0  0
    0.5309    2.4510   -1.3624 Cl  0  0  0  0  0  0  0  0  0  0  0  0
  1  8  2  0  0  0  0
  2  1  1  0  0  0  0
  3  2  1  0  0  0  0
  4  1  1  0  0  0  0
  4  5  2  0  0  0  0
  5  6  1  0  0  0  0
  6  7  1  0  0  0  0
  6 11  1  1  0  0  0
  7 12  1  0  0  0  0
  8 13  1  0  0  0  0
  8  7  1  0  0  0  0
  9  4  1  0  0  0  0
 10  5  1  0  0  0  0
 14  6  1  0  0  0  0
M  RAD  3   2   2   3   3   7   2
M  END
