Coordinates from ORCA-job PhN2+~Cl-_B3LYPG-6-31G_dp-NX-Scan-d89-09-n800
 OpenBabel11261920353D

 14 14  0  0  1  0  0  0  0  0999 V2000
   -1.3423   -0.9624    0.0533 C   0  0  2  0  0  0  0  0  0  0  0  0
   -1.2876   -1.5777   -1.1113 N   0  0  0  0  0  0  0  0  0  0  0  0
   -1.1660   -1.9726   -2.1698 N   0  0  0  0  0  0  0  0  0  0  0  0
   -2.2878    0.1700    0.1028 C   0  0  0  0  0  0  0  0  0  0  0  0
   -1.7370    1.3951    0.1512 C   0  0  0  0  0  0  0  0  0  0  0  0
   -0.2597    1.4761   -0.0258 C   0  0  1  0  0  0  0  0  0  0  0  0
    0.4646    0.4374    0.7599 C   0  0  0  0  0  0  0  0  0  0  0  0
   -0.0370   -0.8092    0.7255 C   0  0  0  0  0  0  0  0  0  0  0  0
   -3.3588   -0.0055    0.0600 H   0  0  0  0  0  0  0  0  0  0  0  0
   -2.3242    2.3048    0.2237 H   0  0  0  0  0  0  0  0  0  0  0  0
    0.1542    2.4777    0.0528 H   0  0  0  0  0  0  0  0  0  0  0  0
    1.3999    0.6847    1.2512 H   0  0  0  0  0  0  0  0  0  0  0  0
    0.4823   -1.6761    1.1219 H   0  0  0  0  0  0  0  0  0  0  0  0
    0.0586    1.0083   -1.9131 Cl  0  0  0  0  0  0  0  0  0  0  0  0
  1  2  1  6  0  0  0
  1  4  1  0  0  0  0
  1  8  1  0  0  0  0
  3  2  1  0  0  0  0
  4  5  2  0  0  0  0
  5 10  1  0  0  0  0
  6 11  1  1  0  0  0
  6  5  1  0  0  0  0
  6  7  1  0  0  0  0
  7 12  1  0  0  0  0
  8  7  2  0  0  0  0
  8 13  1  0  0  0  0
  9  4  1  0  0  0  0
 14  6  1  0  0  0  0
M  RAD  3   1   2   2   2   3   3
M  END
