Coordinates from ORCA-job PhN2+~Cl-_B3LYPG-6-31G_dp-NX-Scan-d89-09-n800
 OpenBabel11261920353D

 14 14  0  0  1  0  0  0  0  0999 V2000
   -1.2600   -0.9037   -0.1526 C   0  0  2  0  0  0  0  0  0  0  0  0
   -1.5217   -1.9665   -0.8765 N   0  0  0  0  0  0  0  0  0  0  0  0
   -1.7199   -2.8587   -1.5566 N   0  0  0  0  0  0  0  0  0  0  0  0
   -2.1961    0.2032   -0.1497 C   0  0  0  0  0  0  0  0  0  0  0  0
   -1.7114    1.4354    0.1014 C   0  0  0  0  0  0  0  0  0  0  0  0
   -0.2461    1.6326    0.1713 C   0  0  1  0  0  0  0  0  0  0  0  0
    0.4996    0.4739    0.7115 C   0  0  0  0  0  0  0  0  0  0  0  0
    0.0431   -0.7706    0.4689 C   0  0  0  0  0  0  0  0  0  0  0  0
   -3.2454    0.0155   -0.3538 H   0  0  0  0  0  0  0  0  0  0  0  0
   -2.3617    2.3025    0.1349 H   0  0  0  0  0  0  0  0  0  0  0  0
    0.0582    2.5916    0.5820 H   0  0  0  0  0  0  0  0  0  0  0  0
    1.4591    0.6408    1.1881 H   0  0  0  0  0  0  0  0  0  0  0  0
    0.6112   -1.6621    0.7138 H   0  0  0  0  0  0  0  0  0  0  0  0
    0.3503    1.8167   -1.7003 Cl  0  0  0  0  0  0  0  0  0  0  0  0
  1  2  1  6  0  0  0
  1  4  1  0  0  0  0
  1  8  1  0  0  0  0
  3  2  1  0  0  0  0
  4  5  2  0  0  0  0
  5 10  1  0  0  0  0
  5  6  1  0  0  0  0
  6 11  1  1  0  0  0
  6  7  1  0  0  0  0
  7 12  1  0  0  0  0
  8  7  2  0  0  0  0
  8 13  1  0  0  0  0
  9  4  1  0  0  0  0
 14  6  1  0  0  0  0
M  RAD  3   1   2   2   2   3   3
M  END
