Coordinates from ORCA-job PhN2+~Cl-_B3LYPG-6-31G_dp-NX-Scan-d89-09-n800
 OpenBabel11261920353D

 14 14  0  0  1  0  0  0  0  0999 V2000
   -1.2553   -0.9075   -0.1752 C   0  0  2  0  0  0  0  0  0  0  0  0
   -1.5508   -2.0051   -0.8317 N   0  0  0  0  0  0  0  0  0  0  0  0
   -1.7835   -2.9354   -1.4476 N   0  0  0  0  0  0  0  0  0  0  0  0
   -2.1852    0.2027   -0.1858 C   0  0  0  0  0  0  0  0  0  0  0  0
   -1.7072    1.4345    0.0811 C   0  0  0  0  0  0  0  0  0  0  0  0
   -0.2472    1.6442    0.1935 C   0  0  1  0  0  0  0  0  0  0  0  0
    0.5055    0.4723    0.6915 C   0  0  0  0  0  0  0  0  0  0  0  0
    0.0523   -0.7704    0.4324 C   0  0  0  0  0  0  0  0  0  0  0  0
   -3.2315    0.0180   -0.4073 H   0  0  0  0  0  0  0  0  0  0  0  0
   -2.3624    2.2983    0.1013 H   0  0  0  0  0  0  0  0  0  0  0  0
    0.0343    2.5852    0.6589 H   0  0  0  0  0  0  0  0  0  0  0  0
    1.4713    0.6311    1.1580 H   0  0  0  0  0  0  0  0  0  0  0  0
    0.6280   -1.6611    0.6615 H   0  0  0  0  0  0  0  0  0  0  0  0
    0.3907    1.9439   -1.6483 Cl  0  0  0  0  0  0  0  0  0  0  0  0
  1  2  1  6  0  0  0
  1  8  1  0  0  0  0
  3  2  1  0  0  0  0
  4  1  1  0  0  0  0
  4  5  2  0  0  0  0
  5 10  1  0  0  0  0
  5  6  1  0  0  0  0
  6 11  1  1  0  0  0
  6  7  1  0  0  0  0
  7 12  1  0  0  0  0
  8 13  1  0  0  0  0
  8  7  2  0  0  0  0
  9  4  1  0  0  0  0
 14  6  1  0  0  0  0
M  RAD  3   1   2   2   2   3   3
M  END
