Coordinates from ORCA-job PhN2+~Cl-_B3LYPG-6-31G_dp-NX-Scan-d89-09-n800
 OpenBabel11261920353D

 14 14  0  0  1  0  0  0  0  0999 V2000
   -1.3018   -0.9220   -0.0300 C   0  0  2  0  0  0  0  0  0  0  0  0
   -1.3895   -1.7632   -1.0349 N   0  0  0  0  0  0  0  0  0  0  0  0
   -1.4153   -2.4174   -1.9655 N   0  0  0  0  0  0  0  0  0  0  0  0
   -2.2482    0.1914    0.0026 C   0  0  0  0  0  0  0  0  0  0  0  0
   -1.7259    1.4231    0.1486 C   0  0  0  0  0  0  0  0  0  0  0  0
   -0.2488    1.5563    0.0615 C   0  0  1  0  0  0  0  0  0  0  0  0
    0.4789    0.4639    0.7574 C   0  0  0  0  0  0  0  0  0  0  0  0
   -0.0014   -0.7861    0.6237 C   0  0  0  0  0  0  0  0  0  0  0  0
   -3.3112    0.0039   -0.1159 H   0  0  0  0  0  0  0  0  0  0  0  0
   -2.3436    2.3123    0.2149 H   0  0  0  0  0  0  0  0  0  0  0  0
    0.1288    2.5540    0.2665 H   0  0  0  0  0  0  0  0  0  0  0  0
    1.4201    0.6750    1.2533 H   0  0  0  0  0  0  0  0  0  0  0  0
    0.5374   -1.6702    0.9493 H   0  0  0  0  0  0  0  0  0  0  0  0
    0.1794    1.3297   -1.8493 Cl  0  0  0  0  0  0  0  0  0  0  0  0
  1  2  1  6  0  0  0
  1  4  1  0  0  0  0
  1  8  1  0  0  0  0
  3  2  1  0  0  0  0
  4  5  2  0  0  0  0
  5 10  1  0  0  0  0
  6  5  1  0  0  0  0
  6 11  1  1  0  0  0
  6  7  1  0  0  0  0
  7 12  1  0  0  0  0
  8  7  2  0  0  0  0
  8 13  1  0  0  0  0
  9  4  1  0  0  0  0
 14  6  1  0  0  0  0
M  RAD  3   1   2   2   2   3   3
M  END
