Coordinates from ORCA-job PhN2+~Cl-_B3LYPG-6-31G_dp-NX-Scan-d89-09-n800
 OpenBabel11261920353D

 14 14  0  0  0  0  0  0  0  0999 V2000
   -0.5748   -0.4250   -0.6469 C   0  0  0  0  0  0  0  0  0  0  0  0
   -0.3965   -1.4529   -1.6189 N   0  0  0  0  0  0  0  0  0  0  0  0
   -1.2698   -2.0815   -2.2147 N   0  0  0  0  0  0  0  0  0  0  0  0
   -1.3099    0.7406   -0.9022 C   0  0  0  0  0  0  0  0  0  0  0  0
   -1.3379    1.7501    0.0584 C   0  0  0  0  0  0  0  0  0  0  0  0
   -0.6550    1.5977    1.2675 C   0  0  0  0  0  0  0  0  0  0  0  0
    0.0865    0.4386    1.5086 C   0  0  0  0  0  0  0  0  0  0  0  0
    0.1511   -0.5629    0.5426 C   0  0  0  0  0  0  0  0  0  0  0  0
   -1.8334    0.8617   -1.8432 H   0  0  0  0  0  0  0  0  0  0  0  0
   -1.8992    2.6584   -0.1389 H   0  0  0  0  0  0  0  0  0  0  0  0
   -0.6904    2.3861    2.0137 H   0  0  0  0  0  0  0  0  0  0  0  0
    0.6294    0.3217    2.4415 H   0  0  0  0  0  0  0  0  0  0  0  0
    0.7459   -1.4574    0.6966 H   0  0  0  0  0  0  0  0  0  0  0  0
   -2.8870   -1.8245   -1.8819 Cl  0  0  0  0  0  0  0  0  0  0  0  0
  1  8  1  0  0  0  0
  2  1  1  0  0  0  0
  3 14  1  0  0  0  0
  3  2  2  0  0  0  0
  4  1  2  0  0  0  0
  4  5  1  0  0  0  0
  5  6  2  0  0  0  0
  6  7  1  0  0  0  0
  6 11  1  0  0  0  0
  7 12  1  0  0  0  0
  8 13  1  0  0  0  0
  8  7  2  0  0  0  0
  9  4  1  0  0  0  0
 10  5  1  0  0  0  0
M  END
