Coordinates from ORCA-job PhN2+~Cl-_B3LYPG-6-31G_dp-NX-Scan-d89-09-n800
 OpenBabel11261920353D

 14 14  0  0  0  0  0  0  0  0999 V2000
   -0.5866   -0.3861   -0.7060 C   0  0  0  0  0  0  0  0  0  0  0  0
   -0.3996   -1.3680   -1.7484 N   0  0  0  0  0  0  0  0  0  0  0  0
   -1.4036   -2.0691   -2.1123 N   0  0  0  0  0  0  0  0  0  0  0  0
   -1.2846    0.8087   -0.9341 C   0  0  0  0  0  0  0  0  0  0  0  0
   -1.3172    1.7926    0.0534 C   0  0  0  0  0  0  0  0  0  0  0  0
   -0.6632    1.5927    1.2714 C   0  0  0  0  0  0  0  0  0  0  0  0
    0.0406    0.4071    1.4928 C   0  0  0  0  0  0  0  0  0  0  0  0
    0.0918   -0.5753    0.5043 C   0  0  0  0  0  0  0  0  0  0  0  0
   -1.7790    0.9731   -1.8871 H   0  0  0  0  0  0  0  0  0  0  0  0
   -1.8545    2.7186   -0.1305 H   0  0  0  0  0  0  0  0  0  0  0  0
   -0.6929    2.3613    2.0383 H   0  0  0  0  0  0  0  0  0  0  0  0
    0.5610    0.2500    2.4332 H   0  0  0  0  0  0  0  0  0  0  0  0
    0.6548   -1.4913    0.6556 H   0  0  0  0  0  0  0  0  0  0  0  0
   -2.6078   -2.0635   -1.6483 Cl  0  0  0  0  0  0  0  0  0  0  0  0
  1  8  1  0  0  0  0
  2  1  1  0  0  0  0
  3  2  2  0  0  0  0
  3 14  1  0  0  0  0
  4  1  2  0  0  0  0
  4  5  1  0  0  0  0
  5  6  2  0  0  0  0
  6  7  1  0  0  0  0
  6 11  1  0  0  0  0
  7 12  1  0  0  0  0
  8 13  1  0  0  0  0
  8  7  2  0  0  0  0
  9  4  1  0  0  0  0
 10  5  1  0  0  0  0
M  END
