Coordinates from ORCA-job PhN2+~Cl-_B3LYPG-6-31G_dp-NX-Scan-d89-09-n800
 OpenBabel11261920353D

 14 14  0  0  1  0  0  0  0  0999 V2000
   -1.2895   -0.9128   -0.0599 C   0  0  2  0  0  0  0  0  0  0  0  0
   -1.4213   -1.8161   -1.0032 N   0  0  0  0  0  0  0  0  0  0  0  0
   -1.4904   -2.5370   -1.8811 N   0  0  0  0  0  0  0  0  0  0  0  0
   -2.2354    0.1962   -0.0319 C   0  0  0  0  0  0  0  0  0  0  0  0
   -1.7227    1.4287    0.1430 C   0  0  0  0  0  0  0  0  0  0  0  0
   -0.2470    1.5779    0.0890 C   0  0  1  0  0  0  0  0  0  0  0  0
    0.4833    0.4691    0.7520 C   0  0  0  0  0  0  0  0  0  0  0  0
    0.0096   -0.7804    0.5885 C   0  0  0  0  0  0  0  0  0  0  0  0
   -3.2952    0.0067   -0.1726 H   0  0  0  0  0  0  0  0  0  0  0  0
   -2.3493    2.3119    0.2044 H   0  0  0  0  0  0  0  0  0  0  0  0
    0.1166    2.5708    0.3375 H   0  0  0  0  0  0  0  0  0  0  0  0
    1.4277    0.6688    1.2463 H   0  0  0  0  0  0  0  0  0  0  0  0
    0.5548   -1.6681    0.8930 H   0  0  0  0  0  0  0  0  0  0  0  0
    0.2179    1.4351   -1.8228 Cl  0  0  0  0  0  0  0  0  0  0  0  0
  1  2  1  6  0  0  0
  1  4  1  0  0  0  0
  1  8  1  0  0  0  0
  3  2  1  0  0  0  0
  4  5  2  0  0  0  0
  5 10  1  0  0  0  0
  6  5  1  0  0  0  0
  6 11  1  1  0  0  0
  6  7  1  0  0  0  0
  7 12  1  0  0  0  0
  8  7  2  0  0  0  0
  8 13  1  0  0  0  0
  9  4  1  0  0  0  0
 14  6  1  0  0  0  0
M  RAD  3   1   2   2   2   3   3
M  END
