Coordinates from ORCA-job PhN2+~Cl-_B3LYPG-6-31G_dp-NX-Scan-d89-09-n800
 OpenBabel11261920353D

 14 14  0  0  1  0  0  0  0  0999 V2000
   -1.3297   -0.9485    0.0294 C   0  0  2  0  0  0  0  0  0  0  0  0
   -1.3192   -1.6378   -1.0919 N   0  0  0  0  0  0  0  0  0  0  0  0
   -1.2480   -2.1270   -2.1158 N   0  0  0  0  0  0  0  0  0  0  0  0
   -2.2755    0.1777    0.0726 C   0  0  0  0  0  0  0  0  0  0  0  0
   -1.7334    1.4055    0.1522 C   0  0  0  0  0  0  0  0  0  0  0  0
   -0.2554    1.5032    0.0013 C   0  0  1  0  0  0  0  0  0  0  0  0
    0.4694    0.4472    0.7609 C   0  0  0  0  0  0  0  0  0  0  0  0
   -0.0255   -0.8011    0.6948 C   0  0  0  0  0  0  0  0  0  0  0  0
   -3.3445   -0.0024    0.0056 H   0  0  0  0  0  0  0  0  0  0  0  0
   -2.3303    2.3087    0.2246 H   0  0  0  0  0  0  0  0  0  0  0  0
    0.1478    2.5052    0.1193 H   0  0  0  0  0  0  0  0  0  0  0  0
    1.4057    0.6835    1.2555 H   0  0  0  0  0  0  0  0  0  0  0  0
    0.4998   -1.6743    1.0688 H   0  0  0  0  0  0  0  0  0  0  0  0
    0.0979    1.1108   -1.8950 Cl  0  0  0  0  0  0  0  0  0  0  0  0
  1  2  1  6  0  0  0
  1  4  1  0  0  0  0
  1  8  1  0  0  0  0
  3  2  1  0  0  0  0
  4  5  2  0  0  0  0
  5 10  1  0  0  0  0
  6 11  1  1  0  0  0
  6  5  1  0  0  0  0
  6  7  1  0  0  0  0
  7 12  1  0  0  0  0
  8  7  2  0  0  0  0
  8 13  1  0  0  0  0
  9  4  1  0  0  0  0
 14  6  1  0  0  0  0
M  RAD  3   1   2   2   2   3   3
M  END
