Coordinates from ORCA-job PhN2+~Cl-_B3LYPG-6-31G_dp-NX-Scan-d89-09-n800
 OpenBabel11261920353D

 14 14  0  0  0  0  0  0  0  0999 V2000
   -0.6879   -0.5497   -0.4188 C   0  0  0  0  0  0  0  0  0  0  0  0
   -0.6969   -1.7179   -1.2040 N   0  0  0  0  0  0  0  0  0  0  0  0
   -1.1885   -2.2361   -2.1273 N   0  0  0  0  0  0  0  0  0  0  0  0
   -1.5205    0.5469   -0.6907 C   0  0  0  0  0  0  0  0  0  0  0  0
   -1.4322    1.6558    0.1475 C   0  0  0  0  0  0  0  0  0  0  0  0
   -0.5401    1.6688    1.2239 C   0  0  0  0  0  0  0  0  0  0  0  0
    0.2815    0.5665    1.4799 C   0  0  0  0  0  0  0  0  0  0  0  0
    0.2120   -0.5517    0.6567 C   0  0  0  0  0  0  0  0  0  0  0  0
   -2.2008    0.5073   -1.5328 H   0  0  0  0  0  0  0  0  0  0  0  0
   -2.0657    2.5163   -0.0436 H   0  0  0  0  0  0  0  0  0  0  0  0
   -0.4845    2.5428    1.8663 H   0  0  0  0  0  0  0  0  0  0  0  0
    0.9721    0.5803    2.3169 H   0  0  0  0  0  0  0  0  0  0  0  0
    0.8350   -1.4235    0.8256 H   0  0  0  0  0  0  0  0  0  0  0  0
   -2.7244   -1.1550   -3.2172 Cl  0  0  0  0  0  0  0  0  0  0  0  0
  1  8  1  0  0  0  0
  2  1  1  0  0  0  0
  3  2  2  0  0  0  0
  4  1  2  0  0  0  0
  4  5  1  0  0  0  0
  5  6  2  0  0  0  0
  6  7  1  0  0  0  0
  6 11  1  0  0  0  0
  7 12  1  0  0  0  0
  8 13  1  0  0  0  0
  8  7  2  0  0  0  0
  9  4  1  0  0  0  0
 10  5  1  0  0  0  0
 14  3  1  0  0  0  0
M  END
