Coordinates from ORCA-job PhN2+~Cl-_B3LYPG-6-31G_dp-NX-Scan-d89-09-n800
 OpenBabel11261920353D

 14 13  0  0  0  0  0  0  0  0999 V2000
   -1.2711   -1.0162   -0.2875 C   0  0  0  0  0  0  0  0  0  0  0  0
   -1.7755   -2.2504   -0.4035 N   0  0  0  0  0  0  0  0  0  0  0  0
   -2.2131   -3.3034   -0.4764 N   0  0  0  0  0  0  0  0  0  0  0  0
   -2.1162    0.1344   -0.4758 C   0  0  0  0  0  0  0  0  0  0  0  0
   -1.6452    1.3784   -0.1617 C   0  0  0  0  0  0  0  0  0  0  0  0
   -0.3197    1.5848    0.3642 C   0  0  0  0  0  0  0  0  0  0  0  0
    0.5375    0.4291    0.4407 C   0  0  0  0  0  0  0  0  0  0  0  0
    0.0924   -0.8263    0.1340 C   0  0  0  0  0  0  0  0  0  0  0  0
   -3.1352   -0.0064   -0.8201 H   0  0  0  0  0  0  0  0  0  0  0  0
   -2.2991    2.2367   -0.2669 H   0  0  0  0  0  0  0  0  0  0  0  0
   -0.1691    2.3825    1.0755 H   0  0  0  0  0  0  0  0  0  0  0  0
    1.5525    0.5607    0.7978 H   0  0  0  0  0  0  0  0  0  0  0  0
    0.7368   -1.6911    0.2512 H   0  0  0  0  0  0  0  0  0  0  0  0
    0.7842    3.3378   -0.8891 Cl  0  0  0  0  0  0  0  0  0  0  0  0
  1  8  1  0  0  0  0
  2  1  1  0  0  0  0
  3  2  1  0  0  0  0
  4  1  2  0  0  0  0
  4  5  1  0  0  0  0
  5  6  2  0  0  0  0
  6  7  1  0  0  0  0
  6 11  1  0  0  0  0
  7 12  1  0  0  0  0
  8 13  1  0  0  0  0
  8  7  2  0  0  0  0
  9  4  1  0  0  0  0
 10  5  1  0  0  0  0
M  RAD  3   2   2   3   3  14   2
M  END
