Coordinates from ORCA-job PhN2+~Cl-_B3LYPG-6-31G_dp-NX-Scan-d89-09-n800
 OpenBabel11261920353D

 14 14  0  0  1  0  0  0  0  0999 V2000
   -1.3124   -0.9314   -0.0059 C   0  0  2  0  0  0  0  0  0  0  0  0
   -1.3626   -1.7166   -1.0588 N   0  0  0  0  0  0  0  0  0  0  0  0
   -1.3523   -2.3117   -2.0281 N   0  0  0  0  0  0  0  0  0  0  0  0
   -2.2587    0.1866    0.0302 C   0  0  0  0  0  0  0  0  0  0  0  0
   -1.7287    1.4172    0.1511 C   0  0  0  0  0  0  0  0  0  0  0  0
   -0.2509    1.5369    0.0385 C   0  0  1  0  0  0  0  0  0  0  0  0
    0.4753    0.4583    0.7599 C   0  0  0  0  0  0  0  0  0  0  0  0
   -0.0106   -0.7914    0.6518 C   0  0  0  0  0  0  0  0  0  0  0  0
   -3.3242    0.0015   -0.0691 H   0  0  0  0  0  0  0  0  0  0  0  0
   -2.3386    2.3116    0.2205 H   0  0  0  0  0  0  0  0  0  0  0  0
    0.1371    2.5372    0.2093 H   0  0  0  0  0  0  0  0  0  0  0  0
    1.4143    0.6791    1.2559 H   0  0  0  0  0  0  0  0  0  0  0  0
    0.5231   -1.6719    0.9955 H   0  0  0  0  0  0  0  0  0  0  0  0
    0.1483    1.2451   -1.8683 Cl  0  0  0  0  0  0  0  0  0  0  0  0
  1  2  1  6  0  0  0
  1  4  1  0  0  0  0
  1  8  1  0  0  0  0
  3  2  1  0  0  0  0
  4  5  2  0  0  0  0
  5 10  1  0  0  0  0
  6  5  1  0  0  0  0
  6 11  1  1  0  0  0
  6  7  1  0  0  0  0
  7 12  1  0  0  0  0
  8  7  2  0  0  0  0
  8 13  1  0  0  0  0
  9  4  1  0  0  0  0
 14  6  1  0  0  0  0
M  RAD  3   1   2   2   2   3   3
M  END
