Coordinates from ORCA-job PhN2+~Cl-_B3LYPG-6-31G_dp-NX-Scan-d89-09-n800
 OpenBabel11261920353D

 14 14  0  0  1  0  0  0  0  0999 V2000
   -1.3154   -0.9342    0.0005 C   0  0  2  0  0  0  0  0  0  0  0  0
   -1.3550   -1.7031   -1.0651 N   0  0  0  0  0  0  0  0  0  0  0  0
   -1.3344   -2.2807   -2.0447 N   0  0  0  0  0  0  0  0  0  0  0  0
   -2.2617    0.1852    0.0378 C   0  0  0  0  0  0  0  0  0  0  0  0
   -1.7295    1.4153    0.1516 C   0  0  0  0  0  0  0  0  0  0  0  0
   -0.2516    1.5312    0.0320 C   0  0  1  0  0  0  0  0  0  0  0  0
    0.4743    0.4566    0.7603 C   0  0  0  0  0  0  0  0  0  0  0  0
   -0.0131   -0.7930    0.6595 C   0  0  0  0  0  0  0  0  0  0  0  0
   -3.3278    0.0009   -0.0560 H   0  0  0  0  0  0  0  0  0  0  0  0
   -2.3372    2.3113    0.2216 H   0  0  0  0  0  0  0  0  0  0  0  0
    0.1392    2.5320    0.1934 H   0  0  0  0  0  0  0  0  0  0  0  0
    1.4128    0.6801    1.2563 H   0  0  0  0  0  0  0  0  0  0  0  0
    0.5191   -1.6723    1.0084 H   0  0  0  0  0  0  0  0  0  0  0  0
    0.1395    1.2215   -1.8733 Cl  0  0  0  0  0  0  0  0  0  0  0  0
  1  2  1  6  0  0  0
  1  4  1  0  0  0  0
  1  8  1  0  0  0  0
  3  2  1  0  0  0  0
  4  5  2  0  0  0  0
  5 10  1  0  0  0  0
  6  5  1  0  0  0  0
  6 11  1  1  0  0  0
  6  7  1  0  0  0  0
  7 12  1  0  0  0  0
  8  7  2  0  0  0  0
  8 13  1  0  0  0  0
  9  4  1  0  0  0  0
 14  6  1  0  0  0  0
M  RAD  3   1   2   2   2   3   3
M  END
