Coordinates from ORCA-job PhN2+~Cl-_B3LYPG-6-31G_dp-NX-Scan-d89-09-n800
 OpenBabel11261920353D

 14 14  0  0  1  0  0  0  0  0999 V2000
   -1.2617   -0.9816   -0.2669 C   0  0  0  0  0  0  0  0  0  0  0  0
   -1.7454   -2.1968   -0.4282 N   0  0  0  0  0  0  0  0  0  0  0  0
   -2.1687   -3.2536   -0.5587 N   0  0  0  0  0  0  0  0  0  0  0  0
   -2.1134    0.1768   -0.4451 C   0  0  0  0  0  0  0  0  0  0  0  0
   -1.6464    1.4148   -0.1766 C   0  0  0  0  0  0  0  0  0  0  0  0
   -0.2624    1.6721    0.2928 C   0  0  1  0  0  0  0  0  0  0  0  0
    0.5695    0.4515    0.4344 C   0  0  0  0  0  0  0  0  0  0  0  0
    0.1067   -0.7884    0.1677 C   0  0  0  0  0  0  0  0  0  0  0  0
   -3.1373    0.0269   -0.7721 H   0  0  0  0  0  0  0  0  0  0  0  0
   -2.2991    2.2731   -0.2958 H   0  0  0  0  0  0  0  0  0  0  0  0
   -0.2303    2.3086    1.1790 H   0  0  0  0  0  0  0  0  0  0  0  0
    1.5898    0.5820    0.7785 H   0  0  0  0  0  0  0  0  0  0  0  0
    0.7403   -1.6595    0.3006 H   0  0  0  0  0  0  0  0  0  0  0  0
    0.6176    2.9245   -0.9273 Cl  0  0  0  0  0  0  0  0  0  0  0  0
  1  8  2  0  0  0  0
  2  1  1  0  0  0  0
  3  2  1  0  0  0  0
  4  1  1  0  0  0  0
  4  5  2  0  0  0  0
  5  6  1  0  0  0  0
  6  7  1  0  0  0  0
  6 11  1  1  0  0  0
  7 12  1  0  0  0  0
  8 13  1  0  0  0  0
  8  7  1  0  0  0  0
  9  4  1  0  0  0  0
 10  5  1  0  0  0  0
 14  6  1  0  0  0  0
M  RAD  3   2   2   3   3   7   2
M  END
