Coordinates from ORCA-job PhN2+~Cl-_B3LYPG-6-31G_dp-NX-Scan-d89-09-n800
 OpenBabel11261920353D

 14 14  0  0  1  0  0  0  0  0999 V2000
   -1.2794   -0.9069   -0.0871 C   0  0  2  0  0  0  0  0  0  0  0  0
   -1.4494   -1.8609   -0.9720 N   0  0  0  0  0  0  0  0  0  0  0  0
   -1.5558   -2.6357   -1.7992 N   0  0  0  0  0  0  0  0  0  0  0  0
   -2.2242    0.1995   -0.0636 C   0  0  0  0  0  0  0  0  0  0  0  0
   -1.7198    1.4323    0.1354 C   0  0  0  0  0  0  0  0  0  0  0  0
   -0.2460    1.5954    0.1128 C   0  0  1  0  0  0  0  0  0  0  0  0
    0.4874    0.4722    0.7447 C   0  0  0  0  0  0  0  0  0  0  0  0
    0.0192   -0.7763    0.5562 C   0  0  0  0  0  0  0  0  0  0  0  0
   -3.2811    0.0092   -0.2228 H   0  0  0  0  0  0  0  0  0  0  0  0
   -2.3538    2.3104    0.1913 H   0  0  0  0  0  0  0  0  0  0  0  0
    0.1036    2.5822    0.4025 H   0  0  0  0  0  0  0  0  0  0  0  0
    1.4351    0.6622    1.2363 H   0  0  0  0  0  0  0  0  0  0  0  0
    0.5702   -1.6662    0.8431 H   0  0  0  0  0  0  0  0  0  0  0  0
    0.2532    1.5333   -1.7955 Cl  0  0  0  0  0  0  0  0  0  0  0  0
  1  2  1  6  0  0  0
  1  4  1  0  0  0  0
  1  8  1  0  0  0  0
  3  2  1  0  0  0  0
  4  5  2  0  0  0  0
  5 10  1  0  0  0  0
  6  5  1  0  0  0  0
  6 11  1  1  0  0  0
  6  7  1  0  0  0  0
  7 12  1  0  0  0  0
  8  7  2  0  0  0  0
  8 13  1  0  0  0  0
  9  4  1  0  0  0  0
 14  6  1  0  0  0  0
M  RAD  3   1   2   2   2   3   3
M  END
