Coordinates from ORCA-job PhN2+~Cl-_B3LYPG-6-31G_dp-NX-Scan-d89-09-n800
 OpenBabel11261920353D

 14 14  0  0  1  0  0  0  0  0999 V2000
   -1.2796   -1.0218   -0.2660 C   0  0  0  0  0  0  0  0  0  0  0  0
   -1.7988   -2.2466   -0.3126 N   0  0  0  0  0  0  0  0  0  0  0  0
   -2.2518   -3.3043   -0.3356 N   0  0  0  0  0  0  0  0  0  0  0  0
   -2.0960    0.1552   -0.5027 C   0  0  0  0  0  0  0  0  0  0  0  0
   -1.6151    1.4025   -0.2612 C   0  0  0  0  0  0  0  0  0  0  0  0
   -0.2722    1.6553    0.3016 C   0  0  1  0  0  0  0  0  0  0  0  0
    0.5794    0.4485    0.3440 C   0  0  0  0  0  0  0  0  0  0  0  0
    0.1065   -0.8023    0.1052 C   0  0  0  0  0  0  0  0  0  0  0  0
   -3.1168    0.0227   -0.8470 H   0  0  0  0  0  0  0  0  0  0  0  0
   -2.2648    2.2569   -0.4180 H   0  0  0  0  0  0  0  0  0  0  0  0
   -0.2860    2.2153    1.2351 H   0  0  0  0  0  0  0  0  0  0  0  0
    1.6117    0.5710    0.6533 H   0  0  0  0  0  0  0  0  0  0  0  0
    0.7581   -1.6623    0.2244 H   0  0  0  0  0  0  0  0  0  0  0  0
    0.6844    3.2605   -0.6383 Cl  0  0  0  0  0  0  0  0  0  0  0  0
  1  8  2  0  0  0  0
  2  1  1  0  0  0  0
  3  2  1  0  0  0  0
  4  1  1  0  0  0  0
  4  5  2  0  0  0  0
  5  6  1  0  0  0  0
  6  7  1  0  0  0  0
  6 11  1  1  0  0  0
  7 12  1  0  0  0  0
  8 13  1  0  0  0  0
  8  7  1  0  0  0  0
  9  4  1  0  0  0  0
 10  5  1  0  0  0  0
 14  6  1  0  0  0  0
M  RAD  3   2   2   3   3   7   2
M  END
