Coordinates from ORCA-job PhN2+~Cl-_B3LYPG-6-31G_dp-NX-Scan-d89-09-n800
 OpenBabel11261920353D

 14 14  0  0  1  0  0  0  0  0999 V2000
   -1.2641   -0.9868   -0.2662 C   0  0  0  0  0  0  0  0  0  0  0  0
   -1.7548   -2.2030   -0.4036 N   0  0  0  0  0  0  0  0  0  0  0  0
   -2.1847   -3.2604   -0.5117 N   0  0  0  0  0  0  0  0  0  0  0  0
   -2.1099    0.1749   -0.4568 C   0  0  0  0  0  0  0  0  0  0  0  0
   -1.6410    1.4140   -0.1950 C   0  0  0  0  0  0  0  0  0  0  0  0
   -0.2631    1.6718    0.2946 C   0  0  1  0  0  0  0  0  0  0  0  0
    0.5737    0.4513    0.4157 C   0  0  0  0  0  0  0  0  0  0  0  0
    0.1084   -0.7895    0.1554 C   0  0  0  0  0  0  0  0  0  0  0  0
   -3.1325    0.0272   -0.7889 H   0  0  0  0  0  0  0  0  0  0  0  0
   -2.2917    2.2724   -0.3244 H   0  0  0  0  0  0  0  0  0  0  0  0
   -0.2475    2.2822    1.1997 H   0  0  0  0  0  0  0  0  0  0  0  0
    1.5973    0.5813    0.7500 H   0  0  0  0  0  0  0  0  0  0  0  0
    0.7452   -1.6591    0.2836 H   0  0  0  0  0  0  0  0  0  0  0  0
    0.6237    2.9743   -0.8698 Cl  0  0  0  0  0  0  0  0  0  0  0  0
  1  8  2  0  0  0  0
  2  1  1  0  0  0  0
  3  2  1  0  0  0  0
  4  1  1  0  0  0  0
  4  5  2  0  0  0  0
  5  6  1  0  0  0  0
  6  7  1  0  0  0  0
  6 11  1  1  0  0  0
  7 12  1  0  0  0  0
  8 13  1  0  0  0  0
  8  7  1  0  0  0  0
  9  4  1  0  0  0  0
 10  5  1  0  0  0  0
 14  6  1  0  0  0  0
M  RAD  3   2   2   3   3   7   2
M  END
