Coordinates from ORCA-job PhN2+~Cl-_B3LYPG-6-31G_dp-NX-Scan-d89-09-n800
 OpenBabel11261920353D

 14 14  0  0  1  0  0  0  0  0999 V2000
   -1.2508   -0.9423   -0.2445 C   0  0  0  0  0  0  0  0  0  0  0  0
   -1.6630   -2.1316   -0.6238 N   0  0  0  0  0  0  0  0  0  0  0  0
   -2.0162   -3.1621   -0.9663 N   0  0  0  0  0  0  0  0  0  0  0  0
   -2.1441    0.1914   -0.3334 C   0  0  0  0  0  0  0  0  0  0  0  0
   -1.6816    1.4237   -0.0389 C   0  0  0  0  0  0  0  0  0  0  0  0
   -0.2554    1.6697    0.2639 C   0  0  1  0  0  0  0  0  0  0  0  0
    0.5361    0.4595    0.5729 C   0  0  0  0  0  0  0  0  0  0  0  0
    0.0857   -0.7783    0.2822 C   0  0  0  0  0  0  0  0  0  0  0  0
   -3.1783    0.0243   -0.6167 H   0  0  0  0  0  0  0  0  0  0  0  0
   -2.3440    2.2814   -0.0859 H   0  0  0  0  0  0  0  0  0  0  0  0
   -0.0939    2.4863    0.9657 H   0  0  0  0  0  0  0  0  0  0  0  0
    1.5304    0.5963    0.9836 H   0  0  0  0  0  0  0  0  0  0  0  0
    0.6937   -1.6602    0.4555 H   0  0  0  0  0  0  0  0  0  0  0  0
    0.5406    2.4926   -1.3321 Cl  0  0  0  0  0  0  0  0  0  0  0  0
  1  8  2  0  0  0  0
  2  1  1  0  0  0  0
  3  2  1  0  0  0  0
  4  1  1  0  0  0  0
  4  5  2  0  0  0  0
  5  6  1  0  0  0  0
  6  7  1  0  0  0  0
  6 11  1  1  0  0  0
  7 12  1  0  0  0  0
  8 13  1  0  0  0  0
  8  7  1  0  0  0  0
  9  4  1  0  0  0  0
 10  5  1  0  0  0  0
 14  6  1  0  0  0  0
M  RAD  3   2   2   3   3   7   2
M  END
