Coordinates from ORCA-job PhN2+~Cl-_B3LYPG-6-31G_dp-NX-Scan-d89-09-n800
 OpenBabel11261920353D

 14 14  0  0  1  0  0  0  0  0999 V2000
   -1.2862   -0.9107   -0.0686 C   0  0  2  0  0  0  0  0  0  0  0  0
   -1.4303   -1.8306   -0.9936 N   0  0  0  0  0  0  0  0  0  0  0  0
   -1.5114   -2.5692   -1.8558 N   0  0  0  0  0  0  0  0  0  0  0  0
   -2.2318    0.1973   -0.0419 C   0  0  0  0  0  0  0  0  0  0  0  0
   -1.7218    1.4300    0.1409 C   0  0  0  0  0  0  0  0  0  0  0  0
   -0.2467    1.5836    0.0966 C   0  0  1  0  0  0  0  0  0  0  0  0
    0.4846    0.4702    0.7500 C   0  0  0  0  0  0  0  0  0  0  0  0
    0.0127   -0.7790    0.5783 C   0  0  0  0  0  0  0  0  0  0  0  0
   -3.2907    0.0075   -0.1886 H   0  0  0  0  0  0  0  0  0  0  0  0
   -2.3508    2.3115    0.2007 H   0  0  0  0  0  0  0  0  0  0  0  0
    0.1127    2.5749    0.3579 H   0  0  0  0  0  0  0  0  0  0  0  0
    1.4299    0.6669    1.2436 H   0  0  0  0  0  0  0  0  0  0  0  0
    0.5597   -1.6674    0.8771 H   0  0  0  0  0  0  0  0  0  0  0  0
    0.2290    1.4657   -1.8145 Cl  0  0  0  0  0  0  0  0  0  0  0  0
  1  2  1  6  0  0  0
  1  4  1  0  0  0  0
  1  8  1  0  0  0  0
  3  2  1  0  0  0  0
  4  5  2  0  0  0  0
  5 10  1  0  0  0  0
  6  5  1  0  0  0  0
  6 11  1  1  0  0  0
  6  7  1  0  0  0  0
  7 12  1  0  0  0  0
  8  7  2  0  0  0  0
  8 13  1  0  0  0  0
  9  4  1  0  0  0  0
 14  6  1  0  0  0  0
M  RAD  3   1   2   2   2   3   3
M  END
