Coordinates from ORCA-job PhN2+~Cl-_B3LYPG-6-31G_dp-NX-Scan-d89-09-n800
 OpenBabel11261920353D

 14 14  0  0  0  0  0  0  0  0999 V2000
   -0.5757   -0.4313   -0.6361 C   0  0  0  0  0  0  0  0  0  0  0  0
   -0.4024   -1.4684   -1.5965 N   0  0  0  0  0  0  0  0  0  0  0  0
   -1.2547   -2.0862   -2.2208 N   0  0  0  0  0  0  0  0  0  0  0  0
   -1.3164    0.7300   -0.8946 C   0  0  0  0  0  0  0  0  0  0  0  0
   -1.3414    1.7443    0.0611 C   0  0  0  0  0  0  0  0  0  0  0  0
   -0.6512    1.6002    1.2671 C   0  0  0  0  0  0  0  0  0  0  0  0
    0.0958    0.4451    1.5107 C   0  0  0  0  0  0  0  0  0  0  0  0
    0.1586   -0.5608    0.5495 C   0  0  0  0  0  0  0  0  0  0  0  0
   -1.8460    0.8441   -1.8326 H   0  0  0  0  0  0  0  0  0  0  0  0
   -1.9066    2.6498   -0.1377 H   0  0  0  0  0  0  0  0  0  0  0  0
   -0.6853    2.3924    2.0093 H   0  0  0  0  0  0  0  0  0  0  0  0
    0.6442    0.3352    2.4411 H   0  0  0  0  0  0  0  0  0  0  0  0
    0.7571   -1.4526    0.7038 H   0  0  0  0  0  0  0  0  0  0  0  0
   -2.9169   -1.7913   -1.9420 Cl  0  0  0  0  0  0  0  0  0  0  0  0
  1  8  1  0  0  0  0
  2  1  1  0  0  0  0
  3 14  1  0  0  0  0
  3  2  2  0  0  0  0
  4  1  2  0  0  0  0
  4  5  1  0  0  0  0
  5  6  2  0  0  0  0
  6  7  1  0  0  0  0
  6 11  1  0  0  0  0
  7 12  1  0  0  0  0
  8 13  1  0  0  0  0
  8  7  2  0  0  0  0
  9  4  1  0  0  0  0
 10  5  1  0  0  0  0
M  END
