Coordinates from ORCA-job PhN2+~Cl-_B3LYPG-6-31G_dp-NX-Scan-d89-09-n800
 OpenBabel11261920353D

 14 14  0  0  1  0  0  0  0  0999 V2000
   -1.2786   -0.9064   -0.0895 C   0  0  2  0  0  0  0  0  0  0  0  0
   -1.4520   -1.8648   -0.9690 N   0  0  0  0  0  0  0  0  0  0  0  0
   -1.5617   -2.6443   -1.7914 N   0  0  0  0  0  0  0  0  0  0  0  0
   -2.2232    0.1997   -0.0665 C   0  0  0  0  0  0  0  0  0  0  0  0
   -1.7196    1.4325    0.1346 C   0  0  0  0  0  0  0  0  0  0  0  0
   -0.2460    1.5969    0.1149 C   0  0  1  0  0  0  0  0  0  0  0  0
    0.4878    0.4724    0.7439 C   0  0  0  0  0  0  0  0  0  0  0  0
    0.0201   -0.7760    0.5533 C   0  0  0  0  0  0  0  0  0  0  0  0
   -3.2798    0.0094   -0.2274 H   0  0  0  0  0  0  0  0  0  0  0  0
   -2.3542    2.3102    0.1899 H   0  0  0  0  0  0  0  0  0  0  0  0
    0.1023    2.5830    0.4085 H   0  0  0  0  0  0  0  0  0  0  0  0
    1.4358    0.6616    1.2352 H   0  0  0  0  0  0  0  0  0  0  0  0
    0.5716   -1.6660    0.8386 H   0  0  0  0  0  0  0  0  0  0  0  0
    0.2565    1.5425   -1.7928 Cl  0  0  0  0  0  0  0  0  0  0  0  0
  1  2  1  6  0  0  0
  1  4  1  0  0  0  0
  1  8  1  0  0  0  0
  3  2  1  0  0  0  0
  4  5  2  0  0  0  0
  5 10  1  0  0  0  0
  6  5  1  0  0  0  0
  6 11  1  1  0  0  0
  6  7  1  0  0  0  0
  7 12  1  0  0  0  0
  8  7  2  0  0  0  0
  8 13  1  0  0  0  0
  9  4  1  0  0  0  0
 14  6  1  0  0  0  0
M  RAD  3   1   2   2   2   3   3
M  END
