Coordinates from ORCA-job PhN2+~Cl-_B3LYPG-6-31G_dp-NX-Scan-d89-09-n800
 OpenBabel11261920353D

 14 14  0  0  1  0  0  0  0  0999 V2000
   -1.2734   -0.9043   -0.1052 C   0  0  2  0  0  0  0  0  0  0  0  0
   -1.4685   -1.8901   -0.9489 N   0  0  0  0  0  0  0  0  0  0  0  0
   -1.5997   -2.6989   -1.7394 N   0  0  0  0  0  0  0  0  0  0  0  0
   -2.2167    0.2012   -0.0857 C   0  0  0  0  0  0  0  0  0  0  0  0
   -1.7178    1.4339    0.1285 C   0  0  0  0  0  0  0  0  0  0  0  0
   -0.2457    1.6063    0.1286 C   0  0  1  0  0  0  0  0  0  0  0  0
    0.4904    0.4735    0.7380 C   0  0  0  0  0  0  0  0  0  0  0  0
    0.0256   -0.7741    0.5338 C   0  0  0  0  0  0  0  0  0  0  0  0
   -3.2716    0.0109   -0.2570 H   0  0  0  0  0  0  0  0  0  0  0  0
   -2.3565    2.3088    0.1798 H   0  0  0  0  0  0  0  0  0  0  0  0
    0.0934    2.5876    0.4482 H   0  0  0  0  0  0  0  0  0  0  0  0
    1.4407    0.6571    1.2268 H   0  0  0  0  0  0  0  0  0  0  0  0
    0.5808   -1.6650    0.8091 H   0  0  0  0  0  0  0  0  0  0  0  0
    0.2780    1.6038   -1.7742 Cl  0  0  0  0  0  0  0  0  0  0  0  0
  1  2  1  6  0  0  0
  1  4  1  0  0  0  0
  1  8  1  0  0  0  0
  3  2  1  0  0  0  0
  4  5  2  0  0  0  0
  5  6  1  0  0  0  0
  5 10  1  0  0  0  0
  6 11  1  1  0  0  0
  6  7  1  0  0  0  0
  7 12  1  0  0  0  0
  8  7  2  0  0  0  0
  8 13  1  0  0  0  0
  9  4  1  0  0  0  0
 14  6  1  0  0  0  0
M  RAD  3   1   2   2   2   3   3
M  END
