Coordinates from ORCA-job PhN2+~Cl-_B3LYPG-6-31G_dp-NX-Scan-d89-09-n800
 OpenBabel11261920353D

 14 14  0  0  1  0  0  0  0  0999 V2000
   -1.2788   -1.0229   -0.2706 C   0  0  0  0  0  0  0  0  0  0  0  0
   -1.7978   -2.2490   -0.3199 N   0  0  0  0  0  0  0  0  0  0  0  0
   -2.2503   -3.3062   -0.3442 N   0  0  0  0  0  0  0  0  0  0  0  0
   -2.0972    0.1524   -0.5024 C   0  0  0  0  0  0  0  0  0  0  0  0
   -1.6172    1.3997   -0.2532 C   0  0  0  0  0  0  0  0  0  0  0  0
   -0.2763    1.6483    0.3054 C   0  0  1  0  0  0  0  0  0  0  0  0
    0.5753    0.4466    0.3514 C   0  0  0  0  0  0  0  0  0  0  0  0
    0.1052   -0.8050    0.1054 C   0  0  0  0  0  0  0  0  0  0  0  0
   -3.1185    0.0198   -0.8449 H   0  0  0  0  0  0  0  0  0  0  0  0
   -2.2686    2.2540   -0.4028 H   0  0  0  0  0  0  0  0  0  0  0  0
   -0.2745    2.2334    1.2221 H   0  0  0  0  0  0  0  0  0  0  0  0
    1.6054    0.5693    0.6678 H   0  0  0  0  0  0  0  0  0  0  0  0
    0.7562   -1.6652    0.2265 H   0  0  0  0  0  0  0  0  0  0  0  0
    0.6962    3.2754   -0.6583 Cl  0  0  0  0  0  0  0  0  0  0  0  0
  1  8  2  0  0  0  0
  2  1  1  0  0  0  0
  3  2  1  0  0  0  0
  4  1  1  0  0  0  0
  4  5  2  0  0  0  0
  5  6  1  0  0  0  0
  6  7  1  0  0  0  0
  6 11  1  1  0  0  0
  7 12  1  0  0  0  0
  8 13  1  0  0  0  0
  8  7  1  0  0  0  0
  9  4  1  0  0  0  0
 10  5  1  0  0  0  0
 14  6  1  0  0  0  0
M  RAD  3   2   2   3   3   7   2
M  END
