Coordinates from ORCA-job PhN2+~Cl-_B3LYPG-6-31G_dp-NX-Scan-d89-09-n800
 OpenBabel11261920353D

 14 14  0  0  0  0  0  0  0  0999 V2000
   -0.5976   -0.4720   -0.5621 C   0  0  0  0  0  0  0  0  0  0  0  0
   -0.4723   -1.5668   -1.4496 N   0  0  0  0  0  0  0  0  0  0  0  0
   -1.1853   -2.1337   -2.2231 N   0  0  0  0  0  0  0  0  0  0  0  0
   -1.3732    0.6648   -0.8335 C   0  0  0  0  0  0  0  0  0  0  0  0
   -1.3672    1.7110    0.0868 C   0  0  0  0  0  0  0  0  0  0  0  0
   -0.6163    1.6231    1.2620 C   0  0  0  0  0  0  0  0  0  0  0  0
    0.1621    0.4907    1.5163 C   0  0  0  0  0  0  0  0  0  0  0  0
    0.1934   -0.5497    0.5930 C   0  0  0  0  0  0  0  0  0  0  0  0
   -1.9531    0.7274   -1.7437 H   0  0  0  0  0  0  0  0  0  0  0  0
   -1.9575    2.5993   -0.1157 H   0  0  0  0  0  0  0  0  0  0  0  0
   -0.6297    2.4428    1.9745 H   0  0  0  0  0  0  0  0  0  0  0  0
    0.7547    0.4258    2.4233 H   0  0  0  0  0  0  0  0  0  0  0  0
    0.8081   -1.4296    0.7504 H   0  0  0  0  0  0  0  0  0  0  0  0
   -3.0071   -1.5822   -2.3963 Cl  0  0  0  0  0  0  0  0  0  0  0  0
  1  8  1  0  0  0  0
  2  1  1  0  0  0  0
  3  2  2  0  0  0  0
  4  1  2  0  0  0  0
  4  5  1  0  0  0  0
  5  6  2  0  0  0  0
  6  7  1  0  0  0  0
  6 11  1  0  0  0  0
  7 12  1  0  0  0  0
  8 13  1  0  0  0  0
  8  7  2  0  0  0  0
  9  4  1  0  0  0  0
 10  5  1  0  0  0  0
 14  3  1  0  0  0  0
M  END
