Coordinates from ORCA-job PhN2+~Cl-_B3LYPG-6-31G_dp-NX-Scan-d89-09-n800
 OpenBabel11261920353D

 14 13  0  0  0  0  0  0  0  0999 V2000
   -1.2743   -1.0213   -0.2841 C   0  0  0  0  0  0  0  0  0  0  0  0
   -1.7889   -2.2512   -0.3558 N   0  0  0  0  0  0  0  0  0  0  0  0
   -2.2365   -3.3065   -0.3955 N   0  0  0  0  0  0  0  0  0  0  0  0
   -2.1042    0.1441   -0.4950 C   0  0  0  0  0  0  0  0  0  0  0  0
   -1.6287    1.3900   -0.2144 C   0  0  0  0  0  0  0  0  0  0  0  0
   -0.2942    1.6204    0.3265 C   0  0  0  0  0  0  0  0  0  0  0  0
    0.5585    0.4391    0.3889 C   0  0  0  0  0  0  0  0  0  0  0  0
    0.1003   -0.8145    0.1135 C   0  0  0  0  0  0  0  0  0  0  0  0
   -3.1258    0.0084   -0.8346 H   0  0  0  0  0  0  0  0  0  0  0  0
   -2.2837    2.2453   -0.3388 H   0  0  0  0  0  0  0  0  0  0  0  0
   -0.2281    2.3039    1.1644 H   0  0  0  0  0  0  0  0  0  0  0  0
    1.5804    0.5646    0.7290 H   0  0  0  0  0  0  0  0  0  0  0  0
    0.7481   -1.6764    0.2368 H   0  0  0  0  0  0  0  0  0  0  0  0
    0.7360    3.3048   -0.7587 Cl  0  0  0  0  0  0  0  0  0  0  0  0
  1  8  1  0  0  0  0
  2  1  1  0  0  0  0
  3  2  1  0  0  0  0
  4  1  2  0  0  0  0
  4  5  1  0  0  0  0
  5  6  2  0  0  0  0
  6  7  1  0  0  0  0
  6 11  1  0  0  0  0
  7 12  1  0  0  0  0
  8 13  1  0  0  0  0
  8  7  2  0  0  0  0
  9  4  1  0  0  0  0
 10  5  1  0  0  0  0
M  RAD  3   2   2   3   3  14   2
M  END
