Coordinates from ORCA-job PhN2+~Cl-_B3LYPG-6-31G_dp-NX-Scan-d89-09-n800
 OpenBabel11261920353D

 14 14  0  0  1  0  0  0  0  0999 V2000
   -1.2647   -0.9027   -0.1341 C   0  0  2  0  0  0  0  0  0  0  0  0
   -1.5002   -1.9366   -0.9072 N   0  0  0  0  0  0  0  0  0  0  0  0
   -1.6717   -2.7971   -1.6333 N   0  0  0  0  0  0  0  0  0  0  0  0
   -2.2043    0.2029   -0.1235 C   0  0  0  0  0  0  0  0  0  0  0  0
   -1.7141    1.4353    0.1138 C   0  0  0  0  0  0  0  0  0  0  0  0
   -0.2457    1.6227    0.1543 C   0  0  1  0  0  0  0  0  0  0  0  0
    0.4956    0.4743    0.7237 C   0  0  0  0  0  0  0  0  0  0  0  0
    0.0361   -0.7715    0.4955 C   0  0  0  0  0  0  0  0  0  0  0  0
   -3.2559    0.0137   -0.3144 H   0  0  0  0  0  0  0  0  0  0  0  0
   -2.3601    2.3053    0.1554 H   0  0  0  0  0  0  0  0  0  0  0  0
    0.0737    2.5922    0.5268 H   0  0  0  0  0  0  0  0  0  0  0  0
    1.4511    0.6477    1.2060 H   0  0  0  0  0  0  0  0  0  0  0  0
    0.5987   -1.6631    0.7524 H   0  0  0  0  0  0  0  0  0  0  0  0
    0.3207    1.7277   -1.7331 Cl  0  0  0  0  0  0  0  0  0  0  0  0
  1  2  1  6  0  0  0
  1  4  1  0  0  0  0
  1  8  1  0  0  0  0
  3  2  1  0  0  0  0
  4  5  2  0  0  0  0
  5  6  1  0  0  0  0
  5 10  1  0  0  0  0
  6 11  1  1  0  0  0
  6  7  1  0  0  0  0
  7 12  1  0  0  0  0
  8  7  2  0  0  0  0
  8 13  1  0  0  0  0
  9  4  1  0  0  0  0
 14  6  1  0  0  0  0
M  RAD  3   1   2   2   2   3   3
M  END
