Coordinates from ORCA-job PhN2+~Cl-_B3LYPG-6-31G_dp-NX-Scan-d89-09-n800
 OpenBabel11261920353D

 14 14  0  0  1  0  0  0  0  0999 V2000
   -1.2669   -0.9922   -0.2648 C   0  0  0  0  0  0  0  0  0  0  0  0
   -1.7643   -2.2093   -0.3791 N   0  0  0  0  0  0  0  0  0  0  0  0
   -2.2002   -3.2672   -0.4657 N   0  0  0  0  0  0  0  0  0  0  0  0
   -2.1064    0.1728   -0.4681 C   0  0  0  0  0  0  0  0  0  0  0  0
   -1.6352    1.4132   -0.2135 C   0  0  0  0  0  0  0  0  0  0  0  0
   -0.2637    1.6713    0.2960 C   0  0  1  0  0  0  0  0  0  0  0  0
    0.5777    0.4512    0.3968 C   0  0  0  0  0  0  0  0  0  0  0  0
    0.1097   -0.7906    0.1435 C   0  0  0  0  0  0  0  0  0  0  0  0
   -3.1278    0.0275   -0.8051 H   0  0  0  0  0  0  0  0  0  0  0  0
   -2.2839    2.2714   -0.3533 H   0  0  0  0  0  0  0  0  0  0  0  0
   -0.2641    2.2558    1.2184 H   0  0  0  0  0  0  0  0  0  0  0  0
    1.6047    0.5806    0.7210 H   0  0  0  0  0  0  0  0  0  0  0  0
    0.7497   -1.6586    0.2671 H   0  0  0  0  0  0  0  0  0  0  0  0
    0.6297    3.0246   -0.8109 Cl  0  0  0  0  0  0  0  0  0  0  0  0
  1  8  2  0  0  0  0
  2  1  1  0  0  0  0
  3  2  1  0  0  0  0
  4  1  1  0  0  0  0
  4  5  2  0  0  0  0
  5  6  1  0  0  0  0
  6  7  1  0  0  0  0
  6 11  1  1  0  0  0
  7 12  1  0  0  0  0
  8 13  1  0  0  0  0
  8  7  1  0  0  0  0
  9  4  1  0  0  0  0
 10  5  1  0  0  0  0
 14  6  1  0  0  0  0
M  RAD  3   2   2   3   3   7   2
M  END
