Coordinates from ORCA-job PhN2+~Cl-_B3LYPG-6-31G_dp-NX-Scan-d89-09-n800
 OpenBabel11261920353D

 14 14  0  0  1  0  0  0  0  0999 V2000
   -1.3099   -0.9291   -0.0115 C   0  0  2  0  0  0  0  0  0  0  0  0
   -1.3689   -1.7278   -1.0534 N   0  0  0  0  0  0  0  0  0  0  0  0
   -1.3673   -2.3372   -2.0139 N   0  0  0  0  0  0  0  0  0  0  0  0
   -2.2563    0.1878    0.0238 C   0  0  0  0  0  0  0  0  0  0  0  0
   -1.7281    1.4186    0.1507 C   0  0  0  0  0  0  0  0  0  0  0  0
   -0.2503    1.5416    0.0439 C   0  0  1  0  0  0  0  0  0  0  0  0
    0.4762    0.4598    0.7594 C   0  0  0  0  0  0  0  0  0  0  0  0
   -0.0084   -0.7901    0.6452 C   0  0  0  0  0  0  0  0  0  0  0  0
   -3.3212    0.0021   -0.0801 H   0  0  0  0  0  0  0  0  0  0  0  0
   -2.3398    2.3119    0.2193 H   0  0  0  0  0  0  0  0  0  0  0  0
    0.1353    2.5414    0.2227 H   0  0  0  0  0  0  0  0  0  0  0  0
    1.4157    0.6782    1.2555 H   0  0  0  0  0  0  0  0  0  0  0  0
    0.5265   -1.6715    0.9847 H   0  0  0  0  0  0  0  0  0  0  0  0
    0.1556    1.2650   -1.8640 Cl  0  0  0  0  0  0  0  0  0  0  0  0
  1  2  1  6  0  0  0
  1  4  1  0  0  0  0
  1  8  1  0  0  0  0
  3  2  1  0  0  0  0
  4  5  2  0  0  0  0
  5 10  1  0  0  0  0
  6  5  1  0  0  0  0
  6 11  1  1  0  0  0
  6  7  1  0  0  0  0
  7 12  1  0  0  0  0
  8  7  2  0  0  0  0
  8 13  1  0  0  0  0
  9  4  1  0  0  0  0
 14  6  1  0  0  0  0
M  RAD  3   1   2   2   2   3   3
M  END
