Coordinates from ORCA-job PhN2+~Cl-_B3LYPG-6-31G_dp-NX-Scan-d89-09-n800
 OpenBabel11261920353D

 14 13  0  0  0  0  0  0  0  0999 V2000
   -1.2897   -1.0362   -0.2508 C   0  0  0  0  0  0  0  0  0  0  0  0
   -1.7788   -2.2778   -0.4353 N   0  0  0  0  0  0  0  0  0  0  0  0
   -2.1982   -3.3256   -0.5671 N   0  0  0  0  0  0  0  0  0  0  0  0
   -2.1498    0.0914   -0.4302 C   0  0  0  0  0  0  0  0  0  0  0  0
   -1.6686    1.3405   -0.1134 C   0  0  0  0  0  0  0  0  0  0  0  0
   -0.3584    1.5163    0.3981 C   0  0  0  0  0  0  0  0  0  0  0  0
    0.5043    0.3949    0.4869 C   0  0  0  0  0  0  0  0  0  0  0  0
    0.0626   -0.8714    0.1813 C   0  0  0  0  0  0  0  0  0  0  0  0
   -3.1657   -0.0570   -0.7790 H   0  0  0  0  0  0  0  0  0  0  0  0
   -2.3086    2.2079   -0.2297 H   0  0  0  0  0  0  0  0  0  0  0  0
   -0.0532    2.4719    0.7994 H   0  0  0  0  0  0  0  0  0  0  0  0
    1.5223    0.5399    0.8303 H   0  0  0  0  0  0  0  0  0  0  0  0
    0.7015   -1.7406    0.2919 H   0  0  0  0  0  0  0  0  0  0  0  0
    0.9393    3.6966   -0.8999 Cl  0  0  0  0  0  0  0  0  0  0  0  0
  1  8  1  0  0  0  0
  2  1  1  0  0  0  0
  3  2  1  0  0  0  0
  4  1  2  0  0  0  0
  4  5  1  0  0  0  0
  5  6  2  0  0  0  0
  6  7  1  0  0  0  0
  6 11  1  0  0  0  0
  7 12  1  0  0  0  0
  8 13  1  0  0  0  0
  8  7  2  0  0  0  0
  9  4  1  0  0  0  0
 10  5  1  0  0  0  0
M  RAD  3   2   2   3   3  14   2
M  END
