Coordinates from ORCA-job PhN2+~Cl-_B3LYPG-6-31G_dp-NX-Scan-d89-09-n800
 OpenBabel11261920353D

 14 14  0  0  1  0  0  0  0  0999 V2000
   -1.3209   -0.9395    0.0120 C   0  0  2  0  0  0  0  0  0  0  0  0
   -1.3412   -1.6783   -1.0760 N   0  0  0  0  0  0  0  0  0  0  0  0
   -1.3015   -2.2232   -2.0733 N   0  0  0  0  0  0  0  0  0  0  0  0
   -2.2670    0.1825    0.0513 C   0  0  0  0  0  0  0  0  0  0  0  0
   -1.7310    1.4118    0.1521 C   0  0  0  0  0  0  0  0  0  0  0  0
   -0.2529    1.5207    0.0202 C   0  0  1  0  0  0  0  0  0  0  0  0
    0.4724    0.4532    0.7608 C   0  0  0  0  0  0  0  0  0  0  0  0
   -0.0179   -0.7960    0.6732 C   0  0  0  0  0  0  0  0  0  0  0  0
   -3.3343   -0.0004   -0.0322 H   0  0  0  0  0  0  0  0  0  0  0  0
   -2.3346    2.3105    0.2232 H   0  0  0  0  0  0  0  0  0  0  0  0
    0.1427    2.5221    0.1647 H   0  0  0  0  0  0  0  0  0  0  0  0
    1.4100    0.6816    1.2565 H   0  0  0  0  0  0  0  0  0  0  0  0
    0.5117   -1.6731    1.0317 H   0  0  0  0  0  0  0  0  0  0  0  0
    0.1236    1.1789   -1.8820 Cl  0  0  0  0  0  0  0  0  0  0  0  0
  1  2  1  6  0  0  0
  1  4  1  0  0  0  0
  1  8  1  0  0  0  0
  3  2  1  0  0  0  0
  4  5  2  0  0  0  0
  5 10  1  0  0  0  0
  6  5  1  0  0  0  0
  6 11  1  1  0  0  0
  6  7  1  0  0  0  0
  7 12  1  0  0  0  0
  8  7  2  0  0  0  0
  8 13  1  0  0  0  0
  9  4  1  0  0  0  0
 14  6  1  0  0  0  0
M  RAD  3   1   2   2   2   3   3
M  END
