Coordinates from ORCA-job PhN2+~Cl-_B3LYPG-6-31G_dp-NX-Scan-d89-09-n800
 OpenBabel11261920353D

 14 14  0  0  1  0  0  0  0  0999 V2000
   -1.2529   -0.9550   -0.2568 C   0  0  0  0  0  0  0  0  0  0  0  0
   -1.6918   -2.1573   -0.5599 N   0  0  0  0  0  0  0  0  0  0  0  0
   -2.0719   -3.2016   -0.8272 N   0  0  0  0  0  0  0  0  0  0  0  0
   -2.1335    0.1867   -0.3731 C   0  0  0  0  0  0  0  0  0  0  0  0
   -1.6715    1.4202   -0.0819 C   0  0  0  0  0  0  0  0  0  0  0  0
   -0.2581    1.6717    0.2766 C   0  0  1  0  0  0  0  0  0  0  0  0
    0.5466    0.4559    0.5298 C   0  0  0  0  0  0  0  0  0  0  0  0
    0.0937   -0.7817    0.2417 C   0  0  0  0  0  0  0  0  0  0  0  0
   -3.1643    0.0252   -0.6714 H   0  0  0  0  0  0  0  0  0  0  0  0
   -2.3321    2.2779   -0.1509 H   0  0  0  0  0  0  0  0  0  0  0  0
   -0.1374    2.4360    1.0438 H   0  0  0  0  0  0  0  0  0  0  0  0
    1.5493    0.5897    0.9209 H   0  0  0  0  0  0  0  0  0  0  0  0
    0.7104   -1.6603    0.4012 H   0  0  0  0  0  0  0  0  0  0  0  0
    0.5727    2.6434   -1.2105 Cl  0  0  0  0  0  0  0  0  0  0  0  0
  1  8  2  0  0  0  0
  2  1  1  0  0  0  0
  3  2  1  0  0  0  0
  4  1  1  0  0  0  0
  4  5  2  0  0  0  0
  5  6  1  0  0  0  0
  6  7  1  0  0  0  0
  6 11  1  1  0  0  0
  7 12  1  0  0  0  0
  8 13  1  0  0  0  0
  8  7  1  0  0  0  0
  9  4  1  0  0  0  0
 10  5  1  0  0  0  0
 14  6  1  0  0  0  0
M  RAD  3   2   2   3   3   7   2
M  END
