Coordinates from ORCA-job PhN2+~Cl-_B3LYPG-6-31G_dp-NX-Scan-d89-09-n800
 OpenBabel11261920353D

 14 14  0  0  0  0  0  0  0  0999 V2000
   -0.6066   -0.4814   -0.5447 C   0  0  0  0  0  0  0  0  0  0  0  0
   -0.4945   -1.5878   -1.4174 N   0  0  0  0  0  0  0  0  0  0  0  0
   -1.1780   -2.1465   -2.2171 N   0  0  0  0  0  0  0  0  0  0  0  0
   -1.3896    0.6506   -0.8171 C   0  0  0  0  0  0  0  0  0  0  0  0
   -1.3739    1.7045    0.0942 C   0  0  0  0  0  0  0  0  0  0  0  0
   -0.6066    1.6293    1.2596 C   0  0  0  0  0  0  0  0  0  0  0  0
    0.1777    0.5010    1.5151 C   0  0  0  0  0  0  0  0  0  0  0  0
    0.1977   -0.5484    0.6021 C   0  0  0  0  0  0  0  0  0  0  0  0
   -1.9831    0.7007   -1.7191 H   0  0  0  0  0  0  0  0  0  0  0  0
   -1.9698    2.5891   -0.1078 H   0  0  0  0  0  0  0  0  0  0  0  0
   -0.6125    2.4557    1.9645 H   0  0  0  0  0  0  0  0  0  0  0  0
    0.7819    0.4460    2.4150 H   0  0  0  0  0  0  0  0  0  0  0  0
    0.8143   -1.4268    0.7603 H   0  0  0  0  0  0  0  0  0  0  0  0
   -2.9979   -1.5355   -2.5052 Cl  0  0  0  0  0  0  0  0  0  0  0  0
  1  8  1  0  0  0  0
  2  1  1  0  0  0  0
  3  2  2  0  0  0  0
  4  1  2  0  0  0  0
  4  5  1  0  0  0  0
  5  6  2  0  0  0  0
  6  7  1  0  0  0  0
  6 11  1  0  0  0  0
  7 12  1  0  0  0  0
  8 13  1  0  0  0  0
  8  7  2  0  0  0  0
  9  4  1  0  0  0  0
 10  5  1  0  0  0  0
 14  3  1  0  0  0  0
M  END
