Coordinates from ORCA-job PhN2+~Cl-_B3LYPG-6-31G_dp-NX-Scan-d89-09-n800
 OpenBabel11261920353D

 14 14  0  0  1  0  0  0  0  0999 V2000
   -1.3344   -0.9535    0.0384 C   0  0  2  0  0  0  0  0  0  0  0  0
   -1.3074   -1.6157   -1.0997 N   0  0  0  0  0  0  0  0  0  0  0  0
   -1.2185   -2.0724   -2.1368 N   0  0  0  0  0  0  0  0  0  0  0  0
   -2.2801    0.1750    0.0838 C   0  0  0  0  0  0  0  0  0  0  0  0
   -1.7348    1.4018    0.1520 C   0  0  0  0  0  0  0  0  0  0  0  0
   -0.2568    1.4934   -0.0088 C   0  0  1  0  0  0  0  0  0  0  0  0
    0.4677    0.4437    0.7607 C   0  0  0  0  0  0  0  0  0  0  0  0
   -0.0297   -0.8040    0.7062 C   0  0  0  0  0  0  0  0  0  0  0  0
   -3.3498   -0.0035    0.0259 H   0  0  0  0  0  0  0  0  0  0  0  0
   -2.3281    2.3074    0.2246 H   0  0  0  0  0  0  0  0  0  0  0  0
    0.1503    2.4954    0.0949 H   0  0  0  0  0  0  0  0  0  0  0  0
    1.4035    0.6842    1.2542 H   0  0  0  0  0  0  0  0  0  0  0  0
    0.4933   -1.6750    1.0886 H   0  0  0  0  0  0  0  0  0  0  0  0
    0.0838    1.0738   -1.9017 Cl  0  0  0  0  0  0  0  0  0  0  0  0
  1  2  1  6  0  0  0
  1  4  1  0  0  0  0
  1  8  1  0  0  0  0
  3  2  1  0  0  0  0
  4  5  2  0  0  0  0
  5 10  1  0  0  0  0
  6 11  1  1  0  0  0
  6  5  1  0  0  0  0
  6  7  1  0  0  0  0
  7 12  1  0  0  0  0
  8  7  2  0  0  0  0
  8 13  1  0  0  0  0
  9  4  1  0  0  0  0
 14  6  1  0  0  0  0
M  RAD  3   1   2   2   2   3   3
M  END
