Coordinates from ORCA-job PhN2+~Cl-_B3LYPG-6-31G_dp-NX-Scan-d89-09-n800
 OpenBabel11261920353D

 14 13  0  0  0  0  0  0  0  0999 V2000
   -0.6850   -0.5513   -0.4137 C   0  0  0  0  0  0  0  0  0  0  0  0
   -0.6994   -1.7173   -1.2014 N   0  0  0  0  0  0  0  0  0  0  0  0
   -1.1837   -2.2404   -2.1219 N   0  0  0  0  0  0  0  0  0  0  0  0
   -1.5199    0.5422   -0.6892 C   0  0  0  0  0  0  0  0  0  0  0  0
   -1.4327    1.6528    0.1468 C   0  0  0  0  0  0  0  0  0  0  0  0
   -0.5400    1.6688    1.2226 C   0  0  0  0  0  0  0  0  0  0  0  0
    0.2835    0.5682    1.4811 C   0  0  0  0  0  0  0  0  0  0  0  0
    0.2155   -0.5523    0.6608 C   0  0  0  0  0  0  0  0  0  0  0  0
   -2.1997    0.4968   -1.5323 H   0  0  0  0  0  0  0  0  0  0  0  0
   -2.0674    2.5122   -0.0456 H   0  0  0  0  0  0  0  0  0  0  0  0
   -0.4851    2.5441    1.8633 H   0  0  0  0  0  0  0  0  0  0  0  0
    0.9741    0.5850    2.3179 H   0  0  0  0  0  0  0  0  0  0  0  0
    0.8396   -1.4229    0.8316 H   0  0  0  0  0  0  0  0  0  0  0  0
   -2.7408   -1.1351   -3.2376 Cl  0  0  0  0  0  0  0  0  0  0  0  0
  1  8  1  0  0  0  0
  2  1  1  0  0  0  0
  3  2  2  0  0  0  0
  4  1  2  0  0  0  0
  4  5  1  0  0  0  0
  5  6  2  0  0  0  0
  6  7  1  0  0  0  0
  6 11  1  0  0  0  0
  7 12  1  0  0  0  0
  8 13  1  0  0  0  0
  8  7  2  0  0  0  0
  9  4  1  0  0  0  0
 10  5  1  0  0  0  0
M  RAD  2   3   2  14   2
M  END
