Coordinates from ORCA-job PhN2+~Cl-_B3LYPG-6-31G_dp-NX-Scan-d89-09-n800
 OpenBabel11261920353D

 14 14  0  0  1  0  0  0  0  0999 V2000
   -1.3560   -0.9771    0.0799 C   0  0  2  0  0  0  0  0  0  0  0  0
   -1.2574   -1.5158   -1.1236 N   0  0  0  0  0  0  0  0  0  0  0  0
   -1.0620   -1.7611   -2.2154 N   0  0  0  0  0  0  0  0  0  0  0  0
   -2.3007    0.1603    0.1356 C   0  0  0  0  0  0  0  0  0  0  0  0
   -1.7401    1.3828    0.1521 C   0  0  0  0  0  0  0  0  0  0  0  0
   -0.2665    1.4453   -0.0497 C   0  0  1  0  0  0  0  0  0  0  0  0
    0.4573    0.4269    0.7600 C   0  0  0  0  0  0  0  0  0  0  0  0
   -0.0505   -0.8186    0.7581 C   0  0  0  0  0  0  0  0  0  0  0  0
   -3.3732   -0.0091    0.1113 H   0  0  0  0  0  0  0  0  0  0  0  0
   -2.3185    2.2988    0.2194 H   0  0  0  0  0  0  0  0  0  0  0  0
    0.1611    2.4438   -0.0257 H   0  0  0  0  0  0  0  0  0  0  0  0
    1.3941    0.6839    1.2439 H   0  0  0  0  0  0  0  0  0  0  0  0
    0.4661   -1.6788    1.1724 H   0  0  0  0  0  0  0  0  0  0  0  0
    0.0052    0.8694   -1.9362 Cl  0  0  0  0  0  0  0  0  0  0  0  0
  1  2  1  6  0  0  0
  1  4  1  0  0  0  0
  1  8  1  0  0  0  0
  3  2  1  0  0  0  0
  4  5  2  0  0  0  0
  5 10  1  0  0  0  0
  6 11  1  1  0  0  0
  6  5  1  0  0  0  0
  6  7  1  0  0  0  0
  7 12  1  0  0  0  0
  8  7  2  0  0  0  0
  8 13  1  0  0  0  0
  9  4  1  0  0  0  0
 14  6  1  0  0  0  0
M  RAD  3   1   2   2   2   3   3
M  END
