Coordinates from ORCA-job PhN2+~Cl-_B3LYPG-6-31G_dp-NX-Scan-d89-09-n800
 OpenBabel11261920353D

 14 14  0  0  0  0  0  0  0  0999 V2000
   -0.5760   -0.4152   -0.6635 C   0  0  0  0  0  0  0  0  0  0  0  0
   -0.3903   -1.4289   -1.6542 N   0  0  0  0  0  0  0  0  0  0  0  0
   -1.2988   -2.0756   -2.1998 N   0  0  0  0  0  0  0  0  0  0  0  0
   -1.3017    0.7577   -0.9125 C   0  0  0  0  0  0  0  0  0  0  0  0
   -1.3324    1.7603    0.0554 C   0  0  0  0  0  0  0  0  0  0  0  0
   -0.6592    1.5950    1.2681 C   0  0  0  0  0  0  0  0  0  0  0  0
    0.0725    0.4288    1.5048 C   0  0  0  0  0  0  0  0  0  0  0  0
    0.1371   -0.5666    0.5320 C   0  0  0  0  0  0  0  0  0  0  0  0
   -1.8167    0.8903   -1.8575 H   0  0  0  0  0  0  0  0  0  0  0  0
   -1.8873    2.6732   -0.1391 H   0  0  0  0  0  0  0  0  0  0  0  0
   -0.6948    2.3777    2.0203 H   0  0  0  0  0  0  0  0  0  0  0  0
    0.6078    0.3009    2.4407 H   0  0  0  0  0  0  0  0  0  0  0  0
    0.7248   -1.4660    0.6851 H   0  0  0  0  0  0  0  0  0  0  0  0
   -2.8256   -1.8809   -1.7975 Cl  0  0  0  0  0  0  0  0  0  0  0  0
  1  8  1  0  0  0  0
  2  1  1  0  0  0  0
  3 14  1  0  0  0  0
  3  2  2  0  0  0  0
  4  1  2  0  0  0  0
  4  5  1  0  0  0  0
  5  6  2  0  0  0  0
  6  7  1  0  0  0  0
  6 11  1  0  0  0  0
  7 12  1  0  0  0  0
  8 13  1  0  0  0  0
  8  7  2  0  0  0  0
  9  4  1  0  0  0  0
 10  5  1  0  0  0  0
M  END
