Coordinates from ORCA-job PhN2+~Cl-_B3LYPG-6-31G_dp-NX-Scan-d89-09-n800
 OpenBabel11261920353D

 14 14  0  0  1  0  0  0  0  0999 V2000
   -1.2876   -0.9116   -0.0649 C   0  0  2  0  0  0  0  0  0  0  0  0
   -1.4265   -1.8244   -0.9978 N   0  0  0  0  0  0  0  0  0  0  0  0
   -1.5024   -2.5555   -1.8668 N   0  0  0  0  0  0  0  0  0  0  0  0
   -2.2334    0.1968   -0.0376 C   0  0  0  0  0  0  0  0  0  0  0  0
   -1.7222    1.4295    0.1419 C   0  0  0  0  0  0  0  0  0  0  0  0
   -0.2468    1.5812    0.0934 C   0  0  1  0  0  0  0  0  0  0  0  0
    0.4841    0.4698    0.7509 C   0  0  0  0  0  0  0  0  0  0  0  0
    0.0114   -0.7796    0.5827 C   0  0  0  0  0  0  0  0  0  0  0  0
   -3.2926    0.0072   -0.1817 H   0  0  0  0  0  0  0  0  0  0  0  0
   -2.3502    2.3117    0.2023 H   0  0  0  0  0  0  0  0  0  0  0  0
    0.1144    2.5732    0.3491 H   0  0  0  0  0  0  0  0  0  0  0  0
    1.4290    0.6677    1.2448 H   0  0  0  0  0  0  0  0  0  0  0  0
    0.5576   -1.6677    0.8839 H   0  0  0  0  0  0  0  0  0  0  0  0
    0.2242    1.4525   -1.8181 Cl  0  0  0  0  0  0  0  0  0  0  0  0
  1  2  1  6  0  0  0
  1  4  1  0  0  0  0
  1  8  1  0  0  0  0
  3  2  1  0  0  0  0
  4  5  2  0  0  0  0
  5 10  1  0  0  0  0
  6  5  1  0  0  0  0
  6 11  1  1  0  0  0
  6  7  1  0  0  0  0
  7 12  1  0  0  0  0
  8  7  2  0  0  0  0
  8 13  1  0  0  0  0
  9  4  1  0  0  0  0
 14  6  1  0  0  0  0
M  RAD  3   1   2   2   2   3   3
M  END
