Coordinates from ORCA-job PhN2+~Cl-_B3LYPG-6-31G_dp-NX-Scan-d89-09-n800
 OpenBabel11261920353D

 14 14  0  0  1  0  0  0  0  0999 V2000
   -1.2923   -0.9147   -0.0528 C   0  0  2  0  0  0  0  0  0  0  0  0
   -1.4139   -1.8039   -1.0110 N   0  0  0  0  0  0  0  0  0  0  0  0
   -1.4724   -2.5090   -1.9023 N   0  0  0  0  0  0  0  0  0  0  0  0
   -2.2385    0.1951   -0.0235 C   0  0  0  0  0  0  0  0  0  0  0  0
   -1.7235    1.4275    0.1447 C   0  0  0  0  0  0  0  0  0  0  0  0
   -0.2474    1.5729    0.0825 C   0  0  1  0  0  0  0  0  0  0  0  0
    0.4823    0.4680    0.7536 C   0  0  0  0  0  0  0  0  0  0  0  0
    0.0070   -0.7817    0.5971 C   0  0  0  0  0  0  0  0  0  0  0  0
   -3.2990    0.0060   -0.1589 H   0  0  0  0  0  0  0  0  0  0  0  0
   -2.3480    2.3121    0.2073 H   0  0  0  0  0  0  0  0  0  0  0  0
    0.1198    2.5672    0.3202 H   0  0  0  0  0  0  0  0  0  0  0  0
    1.4258    0.6704    1.2484 H   0  0  0  0  0  0  0  0  0  0  0  0
    0.5506   -1.6686    0.9066 H   0  0  0  0  0  0  0  0  0  0  0  0
    0.2086    1.4093   -1.8295 Cl  0  0  0  0  0  0  0  0  0  0  0  0
  1  2  1  6  0  0  0
  1  4  1  0  0  0  0
  1  8  1  0  0  0  0
  3  2  1  0  0  0  0
  4  5  2  0  0  0  0
  5 10  1  0  0  0  0
  6  5  1  0  0  0  0
  6 11  1  1  0  0  0
  6  7  1  0  0  0  0
  7 12  1  0  0  0  0
  8  7  2  0  0  0  0
  8 13  1  0  0  0  0
  9  4  1  0  0  0  0
 14  6  1  0  0  0  0
M  RAD  3   1   2   2   2   3   3
M  END
