Coordinates from ORCA-job PhN2+~Cl-_B3LYPG-6-31G_dp-NX-Scan-d89-09-n800
 OpenBabel11261920353D

 14 14  0  0  0  0  0  0  0  0999 V2000
   -0.5754   -0.4296   -0.6390 C   0  0  0  0  0  0  0  0  0  0  0  0
   -0.4007   -1.4642   -1.6025 N   0  0  0  0  0  0  0  0  0  0  0  0
   -1.2585   -2.0848   -2.2194 N   0  0  0  0  0  0  0  0  0  0  0  0
   -1.3146    0.7328   -0.8967 C   0  0  0  0  0  0  0  0  0  0  0  0
   -1.3405    1.7458    0.0603 C   0  0  0  0  0  0  0  0  0  0  0  0
   -0.6523    1.5995    1.2672 C   0  0  0  0  0  0  0  0  0  0  0  0
    0.0933    0.4433    1.5102 C   0  0  0  0  0  0  0  0  0  0  0  0
    0.1567   -0.5613    0.5476 C   0  0  0  0  0  0  0  0  0  0  0  0
   -1.8425    0.8488   -1.8356 H   0  0  0  0  0  0  0  0  0  0  0  0
   -1.9046    2.6520   -0.1381 H   0  0  0  0  0  0  0  0  0  0  0  0
   -0.6868    2.3907    2.0105 H   0  0  0  0  0  0  0  0  0  0  0  0
    0.6402    0.3316    2.4413 H   0  0  0  0  0  0  0  0  0  0  0  0
    0.7542   -1.4538    0.7018 H   0  0  0  0  0  0  0  0  0  0  0  0
   -2.9095   -1.8001   -1.9255 Cl  0  0  0  0  0  0  0  0  0  0  0  0
  1  8  1  0  0  0  0
  2  1  1  0  0  0  0
  3 14  1  0  0  0  0
  3  2  2  0  0  0  0
  4  1  2  0  0  0  0
  4  5  1  0  0  0  0
  5  6  2  0  0  0  0
  6  7  1  0  0  0  0
  6 11  1  0  0  0  0
  7 12  1  0  0  0  0
  8 13  1  0  0  0  0
  8  7  2  0  0  0  0
  9  4  1  0  0  0  0
 10  5  1  0  0  0  0
M  END
