Coordinates from ORCA-job PhN2+~Cl-_B3LYPG-6-31G_dp-NX-Scan-d89-09-n800
 OpenBabel11261920353D

 14 14  0  0  0  0  0  0  0  0999 V2000
   -0.5808   -0.3918   -0.6971 C   0  0  0  0  0  0  0  0  0  0  0  0
   -0.3924   -1.3787   -1.7270 N   0  0  0  0  0  0  0  0  0  0  0  0
   -1.3621   -2.0722   -2.1473 N   0  0  0  0  0  0  0  0  0  0  0  0
   -1.2862    0.7966   -0.9318 C   0  0  0  0  0  0  0  0  0  0  0  0
   -1.3207    1.7839    0.0522 C   0  0  0  0  0  0  0  0  0  0  0  0
   -0.6647    1.5912    1.2702 C   0  0  0  0  0  0  0  0  0  0  0  0
    0.0464    0.4105    1.4957 C   0  0  0  0  0  0  0  0  0  0  0  0
    0.1053   -0.5734    0.5096 C   0  0  0  0  0  0  0  0  0  0  0  0
   -1.7847    0.9528   -1.8835 H   0  0  0  0  0  0  0  0  0  0  0  0
   -1.8626    2.7065   -0.1344 H   0  0  0  0  0  0  0  0  0  0  0  0
   -0.6984    2.3621    2.0345 H   0  0  0  0  0  0  0  0  0  0  0  0
    0.5680    0.2596    2.4362 H   0  0  0  0  0  0  0  0  0  0  0  0
    0.6752   -1.4848    0.6612 H   0  0  0  0  0  0  0  0  0  0  0  0
   -2.6832   -2.0116   -1.6563 Cl  0  0  0  0  0  0  0  0  0  0  0  0
  1  8  1  0  0  0  0
  2  1  1  0  0  0  0
  3  2  2  0  0  0  0
  3 14  1  0  0  0  0
  4  1  2  0  0  0  0
  4  5  1  0  0  0  0
  5  6  2  0  0  0  0
  6  7  1  0  0  0  0
  6 11  1  0  0  0  0
  7 12  1  0  0  0  0
  8 13  1  0  0  0  0
  8  7  2  0  0  0  0
  9  4  1  0  0  0  0
 10  5  1  0  0  0  0
M  END
