Coordinates from ORCA-job PhN2+~Cl-_B3LYPG-6-31G_dp-NX-Scan-d89-09-n800
 OpenBabel11261920353D

 14 14  0  0  1  0  0  0  0  0999 V2000
   -1.2524   -0.9135   -0.1949 C   0  0  2  0  0  0  0  0  0  0  0  0
   -1.5787   -2.0400   -0.7853 N   0  0  0  0  0  0  0  0  0  0  0  0
   -1.8431   -3.0020   -1.3370 N   0  0  0  0  0  0  0  0  0  0  0  0
   -2.1750    0.2012   -0.2212 C   0  0  0  0  0  0  0  0  0  0  0  0
   -1.7024    1.4327    0.0577 C   0  0  0  0  0  0  0  0  0  0  0  0
   -0.2488    1.6533    0.2136 C   0  0  1  0  0  0  0  0  0  0  0  0
    0.5119    0.4698    0.6685 C   0  0  0  0  0  0  0  0  0  0  0  0
    0.0608   -0.7713    0.3965 C   0  0  0  0  0  0  0  0  0  0  0  0
   -3.2182    0.0201   -0.4591 H   0  0  0  0  0  0  0  0  0  0  0  0
   -2.3612    2.2942    0.0632 H   0  0  0  0  0  0  0  0  0  0  0  0
    0.0079    2.5725    0.7345 H   0  0  0  0  0  0  0  0  0  0  0  0
    1.4844    0.6217    1.1233 H   0  0  0  0  0  0  0  0  0  0  0  0
    0.6443   -1.6606    0.6109 H   0  0  0  0  0  0  0  0  0  0  0  0
    0.4295    2.0725   -1.5886 Cl  0  0  0  0  0  0  0  0  0  0  0  0
  1  2  1  6  0  0  0
  1  8  1  0  0  0  0
  3  2  1  0  0  0  0
  4  1  1  0  0  0  0
  4  5  2  0  0  0  0
  5 10  1  0  0  0  0
  5  6  1  0  0  0  0
  6  7  1  0  0  0  0
  6 11  1  1  0  0  0
  7 12  1  0  0  0  0
  8 13  1  0  0  0  0
  8  7  2  0  0  0  0
  9  4  1  0  0  0  0
 14  6  1  0  0  0  0
M  RAD  3   1   2   2   2   3   3
M  END
