Coordinates from ORCA-job PhN2+~Cl-_B3LYPG-6-31G_dp-NX-Scan-d89-09-n800
 OpenBabel11261920353D

 14 13  0  0  0  0  0  0  0  0999 V2000
   -1.3367   -1.0888   -0.1433 C   0  0  0  0  0  0  0  0  0  0  0  0
   -1.7969   -2.3627   -0.2202 N   0  0  0  0  0  0  0  0  0  0  0  0
   -2.1897   -3.4219   -0.2862 N   0  0  0  0  0  0  0  0  0  0  0  0
   -2.2542   -0.0249   -0.3565 C   0  0  0  0  0  0  0  0  0  0  0  0
   -1.7714    1.2677   -0.2721 C   0  0  0  0  0  0  0  0  0  0  0  0
   -0.4170    1.5219    0.0167 C   0  0  0  0  0  0  0  0  0  0  0  0
    0.4702    0.4479    0.2209 C   0  0  0  0  0  0  0  0  0  0  0  0
    0.0371   -0.8629    0.1479 C   0  0  0  0  0  0  0  0  0  0  0  0
   -3.2938   -0.2407   -0.5776 H   0  0  0  0  0  0  0  0  0  0  0  0
   -2.4510    2.0987   -0.4312 H   0  0  0  0  0  0  0  0  0  0  0  0
   -0.0078    2.5404    0.0868 H   0  0  0  0  0  0  0  0  0  0  0  0
    1.5086    0.6770    0.4396 H   0  0  0  0  0  0  0  0  0  0  0  0
    0.7047   -1.7030    0.3047 H   0  0  0  0  0  0  0  0  0  0  0  0
    1.5571    4.1019    0.3528 Cl  0  0  0  0  0  0  0  0  0  0  0  0
  1  8  2  0  0  0  0
  2  1  1  0  0  0  0
  3  2  1  0  0  0  0
  4  5  2  0  0  0  0
  4  1  1  0  0  0  0
  5  6  1  0  0  0  0
  6 11  1  0  0  0  0
  6  7  2  0  0  0  0
  7 12  1  0  0  0  0
  8  7  1  0  0  0  0
  8 13  1  0  0  0  0
  9  4  1  0  0  0  0
 10  5  1  0  0  0  0
M  RAD  3   2   2   3   3  14   2
M  END
