Coordinates from ORCA-job PhN2+~Cl-_B3LYPG-6-31G_dp-NX-Scan-d89-09-n800
 OpenBabel11261920353D

 14 14  0  0  0  0  0  0  0  0999 V2000
   -0.5871   -0.4589   -0.5860 C   0  0  0  0  0  0  0  0  0  0  0  0
   -0.4447   -1.5357   -1.4964 N   0  0  0  0  0  0  0  0  0  0  0  0
   -1.2005   -2.1162   -2.2286 N   0  0  0  0  0  0  0  0  0  0  0  0
   -1.3522    0.6849   -0.8550 C   0  0  0  0  0  0  0  0  0  0  0  0
   -1.3582    1.7207    0.0772 C   0  0  0  0  0  0  0  0  0  0  0  0
   -0.6291    1.6148    1.2643 C   0  0  0  0  0  0  0  0  0  0  0  0
    0.1403    0.4759    1.5165 C   0  0  0  0  0  0  0  0  0  0  0  0
    0.1851   -0.5525    0.5798 C   0  0  0  0  0  0  0  0  0  0  0  0
   -1.9144    0.7645   -1.7756 H   0  0  0  0  0  0  0  0  0  0  0  0
   -1.9406    2.6142   -0.1253 H   0  0  0  0  0  0  0  0  0  0  0  0
   -0.6513    2.4254    1.9868 H   0  0  0  0  0  0  0  0  0  0  0  0
    0.7174    0.3969    2.4324 H   0  0  0  0  0  0  0  0  0  0  0  0
    0.7962   -1.4352    0.7362 H   0  0  0  0  0  0  0  0  0  0  0  0
   -3.0018   -1.6482   -2.2439 Cl  0  0  0  0  0  0  0  0  0  0  0  0
  1  8  1  0  0  0  0
  2  1  1  0  0  0  0
  3  2  2  0  0  0  0
  4  1  2  0  0  0  0
  4  5  1  0  0  0  0
  5  6  2  0  0  0  0
  6  7  1  0  0  0  0
  6 11  1  0  0  0  0
  7 12  1  0  0  0  0
  8 13  1  0  0  0  0
  8  7  2  0  0  0  0
  9  4  1  0  0  0  0
 10  5  1  0  0  0  0
 14  3  1  0  0  0  0
M  END
