Coordinates from ORCA-job PhN2+~Cl-_B3LYPG-6-31G_dp-NX-Scan-d89-09-n800
 OpenBabel11261920353D

 14 13  0  0  0  0  0  0  0  0999 V2000
   -0.6720   -0.5567   -0.4008 C   0  0  0  0  0  0  0  0  0  0  0  0
   -0.6974   -1.7170   -1.1959 N   0  0  0  0  0  0  0  0  0  0  0  0
   -1.1666   -2.2517   -2.1068 N   0  0  0  0  0  0  0  0  0  0  0  0
   -1.5132    0.5278   -0.6889 C   0  0  0  0  0  0  0  0  0  0  0  0
   -1.4327    1.6432    0.1412 C   0  0  0  0  0  0  0  0  0  0  0  0
   -0.5419    1.6675    1.2188 C   0  0  0  0  0  0  0  0  0  0  0  0
    0.2867    0.5723    1.4865 C   0  0  0  0  0  0  0  0  0  0  0  0
    0.2274   -0.5539    0.6736 C   0  0  0  0  0  0  0  0  0  0  0  0
   -2.1886    0.4645   -1.5369 H   0  0  0  0  0  0  0  0  0  0  0  0
   -2.0706    2.4988   -0.0568 H   0  0  0  0  0  0  0  0  0  0  0  0
   -0.4921    2.5463    1.8550 H   0  0  0  0  0  0  0  0  0  0  0  0
    0.9747    0.5982    2.3252 H   0  0  0  0  0  0  0  0  0  0  0  0
    0.8549   -1.4207    0.8511 H   0  0  0  0  0  0  0  0  0  0  0  0
   -2.8095   -1.0679   -3.2829 Cl  0  0  0  0  0  0  0  0  0  0  0  0
  1  8  1  0  0  0  0
  2  1  1  0  0  0  0
  3  2  2  0  0  0  0
  4  1  2  0  0  0  0
  4  5  1  0  0  0  0
  5  6  2  0  0  0  0
  6  7  1  0  0  0  0
  6 11  1  0  0  0  0
  7 12  1  0  0  0  0
  8 13  1  0  0  0  0
  8  7  2  0  0  0  0
  9  4  1  0  0  0  0
 10  5  1  0  0  0  0
M  RAD  2   3   2  14   2
M  END
