Coordinates from ORCA-job PhN2+~Cl-_B3LYPG-6-31G_dp-NX-Scan-d89-09-n800
 OpenBabel11261920353D

 14 14  0  0  1  0  0  0  0  0999 V2000
   -1.2507   -0.9214   -0.2132 C   0  0  0  0  0  0  0  0  0  0  0  0
   -1.6068   -2.0729   -0.7352 N   0  0  0  0  0  0  0  0  0  0  0  0
   -1.9020   -3.0624   -1.2195 N   0  0  0  0  0  0  0  0  0  0  0  0
   -2.1647    0.1988   -0.2577 C   0  0  0  0  0  0  0  0  0  0  0  0
   -1.6967    1.4302    0.0300 C   0  0  0  0  0  0  0  0  0  0  0  0
   -0.2507    1.6606    0.2322 C   0  0  1  0  0  0  0  0  0  0  0  0
    0.5191    0.4666    0.6412 C   0  0  0  0  0  0  0  0  0  0  0  0
    0.0693   -0.7729    0.3593 C   0  0  0  0  0  0  0  0  0  0  0  0
   -3.2050    0.0219   -0.5112 H   0  0  0  0  0  0  0  0  0  0  0  0
   -2.3579    2.2898    0.0195 H   0  0  0  0  0  0  0  0  0  0  0  0
   -0.0223    2.5525    0.8114 H   0  0  0  0  0  0  0  0  0  0  0  0
    1.4986    0.6125    1.0830 H   0  0  0  0  0  0  0  0  0  0  0  0
    0.6608   -1.6602    0.5596 H   0  0  0  0  0  0  0  0  0  0  0  0
    0.4682    2.2076   -1.5171 Cl  0  0  0  0  0  0  0  0  0  0  0  0
  1  8  2  0  0  0  0
  2  1  1  0  0  0  0
  3  2  1  0  0  0  0
  4  1  1  0  0  0  0
  4  5  2  0  0  0  0
  5  6  1  0  0  0  0
  6  7  1  0  0  0  0
  6 11  1  1  0  0  0
  7 12  1  0  0  0  0
  8 13  1  0  0  0  0
  8  7  1  0  0  0  0
  9  4  1  0  0  0  0
 10  5  1  0  0  0  0
 14  6  1  0  0  0  0
M  RAD  3   2   2   3   3   7   2
M  END
