Coordinates from ORCA-job PhN2+~Cl-_B3LYPG-6-31G_dp-NX-Scan-d89-09-n800
 OpenBabel11261920353D

 14 14  0  0  1  0  0  0  0  0999 V2000
   -1.2522   -0.9141   -0.1966 C   0  0  2  0  0  0  0  0  0  0  0  0
   -1.5813   -2.0431   -0.7809 N   0  0  0  0  0  0  0  0  0  0  0  0
   -1.8484   -3.0078   -1.3266 N   0  0  0  0  0  0  0  0  0  0  0  0
   -2.1740    0.2010   -0.2244 C   0  0  0  0  0  0  0  0  0  0  0  0
   -1.7019    1.4325    0.0554 C   0  0  0  0  0  0  0  0  0  0  0  0
   -0.2489    1.6540    0.2154 C   0  0  1  0  0  0  0  0  0  0  0  0
    0.5126    0.4695    0.6662 C   0  0  0  0  0  0  0  0  0  0  0  0
    0.0616   -0.7714    0.3932 C   0  0  0  0  0  0  0  0  0  0  0  0
   -3.2170    0.0203   -0.4638 H   0  0  0  0  0  0  0  0  0  0  0  0
   -2.3609    2.2938    0.0594 H   0  0  0  0  0  0  0  0  0  0  0  0
    0.0053    2.5710    0.7414 H   0  0  0  0  0  0  0  0  0  0  0  0
    1.4857    0.6208    1.1199 H   0  0  0  0  0  0  0  0  0  0  0  0
    0.6458   -1.6605    0.6063 H   0  0  0  0  0  0  0  0  0  0  0  0
    0.4330    2.0845   -1.5827 Cl  0  0  0  0  0  0  0  0  0  0  0  0
  1  2  1  6  0  0  0
  1  8  1  0  0  0  0
  3  2  1  0  0  0  0
  4  1  1  0  0  0  0
  4  5  2  0  0  0  0
  5 10  1  0  0  0  0
  5  6  1  0  0  0  0
  6  7  1  0  0  0  0
  6 11  1  1  0  0  0
  7 12  1  0  0  0  0
  8 13  1  0  0  0  0
  8  7  2  0  0  0  0
  9  4  1  0  0  0  0
 14  6  1  0  0  0  0
M  RAD  3   1   2   2   2   3   3
M  END
