Coordinates from ORCA-job PhN2+~Cl-_B3LYPG-6-31G_dp-NX-Scan-d89-09-n800
 OpenBabel11261920353D

 14 14  0  0  1  0  0  0  0  0999 V2000
   -1.2792   -1.0191   -0.2633 C   0  0  0  0  0  0  0  0  0  0  0  0
   -1.7976   -2.2428   -0.3109 N   0  0  0  0  0  0  0  0  0  0  0  0
   -2.2503   -3.3008   -0.3355 N   0  0  0  0  0  0  0  0  0  0  0  0
   -2.0957    0.1582   -0.5016 C   0  0  0  0  0  0  0  0  0  0  0  0
   -1.6149    1.4050   -0.2639 C   0  0  0  0  0  0  0  0  0  0  0  0
   -0.2693    1.6609    0.2996 C   0  0  1  0  0  0  0  0  0  0  0  0
    0.5822    0.4500    0.3420 C   0  0  0  0  0  0  0  0  0  0  0  0
    0.1079   -0.7997    0.1065 C   0  0  0  0  0  0  0  0  0  0  0  0
   -3.1159    0.0248   -0.8472 H   0  0  0  0  0  0  0  0  0  0  0  0
   -2.2633    2.2598   -0.4243 H   0  0  0  0  0  0  0  0  0  0  0  0
   -0.2929    2.2048    1.2435 H   0  0  0  0  0  0  0  0  0  0  0  0
    1.6156    0.5730    0.6476 H   0  0  0  0  0  0  0  0  0  0  0  0
    0.7592   -1.6602    0.2242 H   0  0  0  0  0  0  0  0  0  0  0  0
    0.6732    3.2369   -0.6345 Cl  0  0  0  0  0  0  0  0  0  0  0  0
  1  8  2  0  0  0  0
  2  1  1  0  0  0  0
  3  2  1  0  0  0  0
  4  5  2  0  0  0  0
  4  1  1  0  0  0  0
  5  6  1  0  0  0  0
  6  7  1  0  0  0  0
  6 11  1  1  0  0  0
  7 12  1  0  0  0  0
  8 13  1  0  0  0  0
  8  7  1  0  0  0  0
  9  4  1  0  0  0  0
 10  5  1  0  0  0  0
 14  6  1  0  0  0  0
M  RAD  3   2   2   3   3   7   2
M  END
