Coordinates from ORCA-job PhN2+~Cl-_B3LYPG-6-31G_dp-NX-Scan-d89-09-n800
 OpenBabel11261920353D

 14 14  0  0  1  0  0  0  0  0999 V2000
   -1.2501   -0.9279   -0.2250 C   0  0  0  0  0  0  0  0  0  0  0  0
   -1.6261   -2.0942   -0.6987 N   0  0  0  0  0  0  0  0  0  0  0  0
   -1.9421   -3.1000   -1.1350 N   0  0  0  0  0  0  0  0  0  0  0  0
   -2.1576    0.1966   -0.2835 C   0  0  0  0  0  0  0  0  0  0  0  0
   -1.6922    1.4281    0.0085 C   0  0  0  0  0  0  0  0  0  0  0  0
   -0.2522    1.6646    0.2440 C   0  0  1  0  0  0  0  0  0  0  0  0
    0.5245    0.4643    0.6199 C   0  0  0  0  0  0  0  0  0  0  0  0
    0.0751   -0.7744    0.3331 C   0  0  0  0  0  0  0  0  0  0  0  0
   -3.1958    0.0228   -0.5474 H   0  0  0  0  0  0  0  0  0  0  0  0
   -2.3544    2.2868   -0.0137 H   0  0  0  0  0  0  0  0  0  0  0  0
   -0.0452    2.5339    0.8645 H   0  0  0  0  0  0  0  0  0  0  0  0
    1.5089    0.6066    1.0519 H   0  0  0  0  0  0  0  0  0  0  0  0
    0.6722   -1.6601    0.5239 H   0  0  0  0  0  0  0  0  0  0  0  0
    0.4942    2.3036   -1.4603 Cl  0  0  0  0  0  0  0  0  0  0  0  0
  1  8  2  0  0  0  0
  2  1  1  0  0  0  0
  3  2  1  0  0  0  0
  4  1  1  0  0  0  0
  4  5  2  0  0  0  0
  5  6  1  0  0  0  0
  6  7  1  0  0  0  0
  6 11  1  1  0  0  0
  7 12  1  0  0  0  0
  8 13  1  0  0  0  0
  8  7  1  0  0  0  0
  9  4  1  0  0  0  0
 10  5  1  0  0  0  0
 14  6  1  0  0  0  0
M  RAD  3   2   2   3   3   7   2
M  END
