Coordinates from ORCA-job PhN2+~Cl-_B3LYPG-6-31G_dp-NX-Scan-d89-09-n800
 OpenBabel11261920353D

 14 13  0  0  0  0  0  0  0  0999 V2000
   -0.6602   -0.5621   -0.3912 C   0  0  0  0  0  0  0  0  0  0  0  0
   -0.6916   -1.7180   -1.1906 N   0  0  0  0  0  0  0  0  0  0  0  0
   -1.1437   -2.2701   -2.0919 N   0  0  0  0  0  0  0  0  0  0  0  0
   -1.5067    0.5150   -0.6909 C   0  0  0  0  0  0  0  0  0  0  0  0
   -1.4324    1.6340    0.1349 C   0  0  0  0  0  0  0  0  0  0  0  0
   -0.5445    1.6658    1.2148 C   0  0  0  0  0  0  0  0  0  0  0  0
    0.2885    0.5755    1.4912 C   0  0  0  0  0  0  0  0  0  0  0  0
    0.2373   -0.5552    0.6842 C   0  0  0  0  0  0  0  0  0  0  0  0
   -2.1796    0.4405   -1.5428 H   0  0  0  0  0  0  0  0  0  0  0  0
   -2.0730    2.4863   -0.0685 H   0  0  0  0  0  0  0  0  0  0  0  0
   -0.5001    2.5476    1.8474 H   0  0  0  0  0  0  0  0  0  0  0  0
    0.9733    0.6090    2.3320 H   0  0  0  0  0  0  0  0  0  0  0  0
    0.8678   -1.4185    0.8679 H   0  0  0  0  0  0  0  0  0  0  0  0
   -2.8762   -0.9993   -3.3143 Cl  0  0  0  0  0  0  0  0  0  0  0  0
  1  8  1  0  0  0  0
  2  1  1  0  0  0  0
  3  2  2  0  0  0  0
  4  1  2  0  0  0  0
  4  5  1  0  0  0  0
  5  6  2  0  0  0  0
  6  7  1  0  0  0  0
  6 11  1  0  0  0  0
  7 12  1  0  0  0  0
  8 13  1  0  0  0  0
  8  7  2  0  0  0  0
  9  4  1  0  0  0  0
 10  5  1  0  0  0  0
M  RAD  2   3   2  14   2
M  END
