Coordinates from ORCA-job PhN2+~Cl-_B3LYPG-6-31G_dp-NX-Scan-d89-09-n800
 OpenBabel11261920353D

 14 14  0  0  1  0  0  0  0  0999 V2000
   -1.2511   -0.9446   -0.2470 C   0  0  0  0  0  0  0  0  0  0  0  0
   -1.6684   -2.1366   -0.6122 N   0  0  0  0  0  0  0  0  0  0  0  0
   -2.0268   -3.1701   -0.9408 N   0  0  0  0  0  0  0  0  0  0  0  0
   -2.1421    0.1906   -0.3408 C   0  0  0  0  0  0  0  0  0  0  0  0
   -1.6799    1.4230   -0.0465 C   0  0  0  0  0  0  0  0  0  0  0  0
   -0.2559    1.6702    0.2664 C   0  0  1  0  0  0  0  0  0  0  0  0
    0.5379    0.4588    0.5653 C   0  0  0  0  0  0  0  0  0  0  0  0
    0.0872   -0.7789    0.2747 C   0  0  0  0  0  0  0  0  0  0  0  0
   -3.1757    0.0245   -0.6269 H   0  0  0  0  0  0  0  0  0  0  0  0
   -2.3420    2.2807   -0.0975 H   0  0  0  0  0  0  0  0  0  0  0  0
   -0.1017    2.4778    0.9804 H   0  0  0  0  0  0  0  0  0  0  0  0
    1.5338    0.5950    0.9725 H   0  0  0  0  0  0  0  0  0  0  0  0
    0.6968   -1.6603    0.4454 H   0  0  0  0  0  0  0  0  0  0  0  0
    0.5469    2.5207   -1.3108 Cl  0  0  0  0  0  0  0  0  0  0  0  0
  1  8  2  0  0  0  0
  2  1  1  0  0  0  0
  3  2  1  0  0  0  0
  4  1  1  0  0  0  0
  4  5  2  0  0  0  0
  5  6  1  0  0  0  0
  6  7  1  0  0  0  0
  6 11  1  1  0  0  0
  7 12  1  0  0  0  0
  8 13  1  0  0  0  0
  8  7  1  0  0  0  0
  9  4  1  0  0  0  0
 10  5  1  0  0  0  0
 14  6  1  0  0  0  0
M  RAD  3   2   2   3   3   7   2
M  END
