Coordinates from ORCA-job PhN2+~Cl-_B3LYPG-6-31G_dp-NX-Scan-d89-09-n800
 OpenBabel11261920353D

 14 13  0  0  0  0  0  0  0  0999 V2000
   -0.6411   -0.5744   -0.3751 C   0  0  0  0  0  0  0  0  0  0  0  0
   -0.6782   -1.7256   -1.1780 N   0  0  0  0  0  0  0  0  0  0  0  0
   -1.0980   -2.3094   -2.0641 N   0  0  0  0  0  0  0  0  0  0  0  0
   -1.4972    0.4888   -0.6945 C   0  0  0  0  0  0  0  0  0  0  0  0
   -1.4337    1.6155    0.1220 C   0  0  0  0  0  0  0  0  0  0  0  0
   -0.5502    1.6626    1.2051 C   0  0  0  0  0  0  0  0  0  0  0  0
    0.2910    0.5815    1.4972 C   0  0  0  0  0  0  0  0  0  0  0  0
    0.2536   -0.5577    0.7025 C   0  0  0  0  0  0  0  0  0  0  0  0
   -2.1662    0.3950   -1.5532 H   0  0  0  0  0  0  0  0  0  0  0  0
   -2.0796    2.4612   -0.0916 H   0  0  0  0  0  0  0  0  0  0  0  0
   -0.5151    2.5508    1.8292 H   0  0  0  0  0  0  0  0  0  0  0  0
    0.9711    0.6295    2.3409 H   0  0  0  0  0  0  0  0  0  0  0  0
    0.8897   -1.4144    0.8970 H   0  0  0  0  0  0  0  0  0  0  0  0
   -2.9868   -0.8525   -3.3550 Cl  0  0  0  0  0  0  0  0  0  0  0  0
  1  8  1  0  0  0  0
  2  1  1  0  0  0  0
  3  2  2  0  0  0  0
  4  1  2  0  0  0  0
  4  5  1  0  0  0  0
  5  6  2  0  0  0  0
  6  7  1  0  0  0  0
  6 11  1  0  0  0  0
  7 12  1  0  0  0  0
  8 13  1  0  0  0  0
  8  7  2  0  0  0  0
  9  4  1  0  0  0  0
 10  5  1  0  0  0  0
M  RAD  2   3   2  14   2
M  END
