Coordinates from ORCA-job PhN2+~Cl-_B3LYPG-6-31G_dp-NX-Scan-d89-09-n800
 OpenBabel11261920353D

 14 13  0  0  0  0  0  0  0  0999 V2000
   -1.3463   -1.0951   -0.1428 C   0  0  0  0  0  0  0  0  0  0  0  0
   -1.8646   -2.3445   -0.2293 N   0  0  0  0  0  0  0  0  0  0  0  0
   -2.2971   -3.3873   -0.3020 N   0  0  0  0  0  0  0  0  0  0  0  0
   -2.2063    0.0183   -0.3461 C   0  0  0  0  0  0  0  0  0  0  0  0
   -1.6532    1.2812   -0.2520 C   0  0  0  0  0  0  0  0  0  0  0  0
   -0.2862    1.4615    0.0349 C   0  0  0  0  0  0  0  0  0  0  0  0
    0.5401    0.3379    0.2316 C   0  0  0  0  0  0  0  0  0  0  0  0
    0.0368   -0.9463    0.1488 C   0  0  0  0  0  0  0  0  0  0  0  0
   -3.2561   -0.1397   -0.5680 H   0  0  0  0  0  0  0  0  0  0  0  0
   -2.2802    2.1541   -0.4019 H   0  0  0  0  0  0  0  0  0  0  0  0
    0.1370    2.4781    0.1052 H   0  0  0  0  0  0  0  0  0  0  0  0
    1.5916    0.4898    0.4532 H   0  0  0  0  0  0  0  0  0  0  0  0
    0.6578   -1.8228    0.2980 H   0  0  0  0  0  0  0  0  0  0  0  0
    0.9859    4.4655    0.2525 Cl  0  0  0  0  0  0  0  0  0  0  0  0
  1  8  2  0  0  0  0
  2  1  1  0  0  0  0
  3  2  1  0  0  0  0
  4  5  2  0  0  0  0
  4  1  1  0  0  0  0
  5  6  1  0  0  0  0
  6 11  1  0  0  0  0
  6  7  2  0  0  0  0
  7 12  1  0  0  0  0
  8  7  1  0  0  0  0
  8 13  1  0  0  0  0
  9  4  1  0  0  0  0
 10  5  1  0  0  0  0
M  RAD  3   2   2   3   3  14   2
M  END
