Coordinates from ORCA-job PhN2+~Cl-_B3LYPG-6-31G_dp-NX-Scan-d89-09-n800
 OpenBabel11261920353D

 14 14  0  0  1  0  0  0  0  0999 V2000
   -1.2579   -0.9048   -0.1618 C   0  0  2  0  0  0  0  0  0  0  0  0
   -1.5331   -1.9819   -0.8595 N   0  0  0  0  0  0  0  0  0  0  0  0
   -1.7450   -2.8896   -1.5147 N   0  0  0  0  0  0  0  0  0  0  0  0
   -2.1918    0.2032   -0.1637 C   0  0  0  0  0  0  0  0  0  0  0  0
   -1.7098    1.4351    0.0940 C   0  0  0  0  0  0  0  0  0  0  0  0
   -0.2465    1.6374    0.1801 C   0  0  1  0  0  0  0  0  0  0  0  0
    0.5018    0.4734    0.7042 C   0  0  0  0  0  0  0  0  0  0  0  0
    0.0467   -0.7704    0.4547 C   0  0  0  0  0  0  0  0  0  0  0  0
   -3.2399    0.0165   -0.3747 H   0  0  0  0  0  0  0  0  0  0  0  0
   -2.3622    2.3009    0.1225 H   0  0  0  0  0  0  0  0  0  0  0  0
    0.0493    2.5899    0.6118 H   0  0  0  0  0  0  0  0  0  0  0  0
    1.4637    0.6370    1.1771 H   0  0  0  0  0  0  0  0  0  0  0  0
    0.6178   -1.6617    0.6933 H   0  0  0  0  0  0  0  0  0  0  0  0
    0.3660    1.8656   -1.6811 Cl  0  0  0  0  0  0  0  0  0  0  0  0
  1  2  1  6  0  0  0
  1  8  1  0  0  0  0
  3  2  1  0  0  0  0
  4  1  1  0  0  0  0
  4  5  2  0  0  0  0
  5 10  1  0  0  0  0
  5  6  1  0  0  0  0
  6 11  1  1  0  0  0
  6  7  1  0  0  0  0
  7 12  1  0  0  0  0
  8 13  1  0  0  0  0
  8  7  2  0  0  0  0
  9  4  1  0  0  0  0
 14  6  1  0  0  0  0
M  RAD  3   1   2   2   2   3   3
M  END
