Coordinates from ORCA-job PhN2+~Cl-_B3LYPG-6-31G_dp-NX-Scan-d89-09-n800
 OpenBabel11261920353D

 14 14  0  0  1  0  0  0  0  0999 V2000
   -1.2843   -0.9095   -0.0736 C   0  0  2  0  0  0  0  0  0  0  0  0
   -1.4354   -1.8388   -0.9880 N   0  0  0  0  0  0  0  0  0  0  0  0
   -1.5233   -2.5872   -1.8410 N   0  0  0  0  0  0  0  0  0  0  0  0
   -2.2298    0.1980   -0.0476 C   0  0  0  0  0  0  0  0  0  0  0  0
   -1.7213    1.4307    0.1396 C   0  0  0  0  0  0  0  0  0  0  0  0
   -0.2465    1.5869    0.1010 C   0  0  1  0  0  0  0  0  0  0  0  0
    0.4853    0.4708    0.7488 C   0  0  0  0  0  0  0  0  0  0  0  0
    0.0145   -0.7782    0.5725 C   0  0  0  0  0  0  0  0  0  0  0  0
   -3.2881    0.0079   -0.1977 H   0  0  0  0  0  0  0  0  0  0  0  0
   -2.3516    2.3112    0.1984 H   0  0  0  0  0  0  0  0  0  0  0  0
    0.1104    2.5770    0.3697 H   0  0  0  0  0  0  0  0  0  0  0  0
    1.4313    0.6657    1.2419 H   0  0  0  0  0  0  0  0  0  0  0  0
    0.5625   -1.6671    0.8681 H   0  0  0  0  0  0  0  0  0  0  0  0
    0.2354    1.4834   -1.8096 Cl  0  0  0  0  0  0  0  0  0  0  0  0
  1  2  1  6  0  0  0
  1  4  1  0  0  0  0
  1  8  1  0  0  0  0
  3  2  1  0  0  0  0
  4  5  2  0  0  0  0
  5 10  1  0  0  0  0
  6  5  1  0  0  0  0
  6 11  1  1  0  0  0
  6  7  1  0  0  0  0
  7 12  1  0  0  0  0
  8  7  2  0  0  0  0
  8 13  1  0  0  0  0
  9  4  1  0  0  0  0
 14  6  1  0  0  0  0
M  RAD  3   1   2   2   2   3   3
M  END
