Coordinates from ORCA-job PhN2+~Cl-_B3LYPG-6-31G_dp-NX-Scan-d89-09-n800
 OpenBabel11261920353D

 14 13  0  0  0  0  0  0  0  0999 V2000
   -1.3570   -1.1203   -0.1444 C   0  0  0  0  0  0  0  0  0  0  0  0
   -1.8792   -2.3749   -0.2312 N   0  0  0  0  0  0  0  0  0  0  0  0
   -2.3140   -3.4201   -0.3045 N   0  0  0  0  0  0  0  0  0  0  0  0
   -2.2091   -0.0005   -0.3464 C   0  0  0  0  0  0  0  0  0  0  0  0
   -1.6541    1.2649   -0.2524 C   0  0  0  0  0  0  0  0  0  0  0  0
   -0.2876    1.4493    0.0341 C   0  0  0  0  0  0  0  0  0  0  0  0
    0.5326    0.3213    0.2299 C   0  0  0  0  0  0  0  0  0  0  0  0
    0.0255   -0.9648    0.1467 C   0  0  0  0  0  0  0  0  0  0  0  0
   -3.2599   -0.1504   -0.5685 H   0  0  0  0  0  0  0  0  0  0  0  0
   -2.2855    2.1343   -0.4032 H   0  0  0  0  0  0  0  0  0  0  0  0
    0.1340    2.4621    0.1040 H   0  0  0  0  0  0  0  0  0  0  0  0
    1.5852    0.4643    0.4517 H   0  0  0  0  0  0  0  0  0  0  0  0
    0.6508   -1.8379    0.2970 H   0  0  0  0  0  0  0  0  0  0  0  0
    1.0773    4.7233    0.2694 Cl  0  0  0  0  0  0  0  0  0  0  0  0
  1  8  2  0  0  0  0
  2  1  1  0  0  0  0
  3  2  1  0  0  0  0
  4  5  2  0  0  0  0
  4  1  1  0  0  0  0
  5  6  1  0  0  0  0
  6 11  1  0  0  0  0
  6  7  2  0  0  0  0
  7 12  1  0  0  0  0
  8  7  1  0  0  0  0
  8 13  1  0  0  0  0
  9  4  1  0  0  0  0
 10  5  1  0  0  0  0
M  RAD  3   2   2   3   3  14   2
M  END
