Coordinates from ORCA-job PhN2+~Cl-_B3LYPG-6-31G_dp-NX-Scan-d89-09-n800
 OpenBabel11261920353D

 14 14  0  0  1  0  0  0  0  0999 V2000
   -1.2704   -0.9034   -0.1146 C   0  0  2  0  0  0  0  0  0  0  0  0
   -1.4787   -1.9053   -0.9359 N   0  0  0  0  0  0  0  0  0  0  0  0
   -1.6228   -2.7313   -1.7064 N   0  0  0  0  0  0  0  0  0  0  0  0
   -2.2127    0.2019   -0.0977 C   0  0  0  0  0  0  0  0  0  0  0  0
   -1.7166    1.4345    0.1243 C   0  0  0  0  0  0  0  0  0  0  0  0
   -0.2456    1.6118    0.1369 C   0  0  1  0  0  0  0  0  0  0  0  0
    0.4920    0.4739    0.7339 C   0  0  0  0  0  0  0  0  0  0  0  0
    0.0290   -0.7731    0.5216 C   0  0  0  0  0  0  0  0  0  0  0  0
   -3.2666    0.0118   -0.2753 H   0  0  0  0  0  0  0  0  0  0  0  0
   -2.3578    2.3078    0.1727 H   0  0  0  0  0  0  0  0  0  0  0  0
    0.0875    2.5897    0.4730 H   0  0  0  0  0  0  0  0  0  0  0  0
    1.4439    0.6542    1.2208 H   0  0  0  0  0  0  0  0  0  0  0  0
    0.5865   -1.6643    0.7910 H   0  0  0  0  0  0  0  0  0  0  0  0
    0.2916    1.6426   -1.7619 Cl  0  0  0  0  0  0  0  0  0  0  0  0
  1  2  1  6  0  0  0
  1  4  1  0  0  0  0
  1  8  1  0  0  0  0
  3  2  1  0  0  0  0
  4  5  2  0  0  0  0
  5  6  1  0  0  0  0
  5 10  1  0  0  0  0
  6 11  1  1  0  0  0
  6  7  1  0  0  0  0
  7 12  1  0  0  0  0
  8  7  2  0  0  0  0
  8 13  1  0  0  0  0
  9  4  1  0  0  0  0
 14  6  1  0  0  0  0
M  RAD  3   1   2   2   2   3   3
M  END
