Coordinates from ORCA-job PhN2+~Cl-_B3LYPG-6-31G_dp-NX-Scan-d89-09-n800
 OpenBabel11261920353D

 14 14  0  0  1  0  0  0  0  0999 V2000
   -1.2556   -0.9071   -0.1734 C   0  0  2  0  0  0  0  0  0  0  0  0
   -1.5482   -2.0019   -0.8358 N   0  0  0  0  0  0  0  0  0  0  0  0
   -1.7780   -2.9290   -1.4573 N   0  0  0  0  0  0  0  0  0  0  0  0
   -2.1861    0.2028   -0.1826 C   0  0  0  0  0  0  0  0  0  0  0  0
   -1.7076    1.4346    0.0830 C   0  0  0  0  0  0  0  0  0  0  0  0
   -0.2471    1.6432    0.1916 C   0  0  1  0  0  0  0  0  0  0  0  0
    0.5050    0.4725    0.6934 C   0  0  0  0  0  0  0  0  0  0  0  0
    0.0515   -0.7704    0.4356 C   0  0  0  0  0  0  0  0  0  0  0  0
   -3.2327    0.0178   -0.4026 H   0  0  0  0  0  0  0  0  0  0  0  0
   -2.3624    2.2987    0.1045 H   0  0  0  0  0  0  0  0  0  0  0  0
    0.0365    2.5861    0.6521 H   0  0  0  0  0  0  0  0  0  0  0  0
    1.4702    0.6319    1.1609 H   0  0  0  0  0  0  0  0  0  0  0  0
    0.6266   -1.6612    0.6660 H   0  0  0  0  0  0  0  0  0  0  0  0
    0.3872    1.9326   -1.6532 Cl  0  0  0  0  0  0  0  0  0  0  0  0
  1  2  1  6  0  0  0
  1  8  1  0  0  0  0
  3  2  1  0  0  0  0
  4  1  1  0  0  0  0
  4  5  2  0  0  0  0
  5 10  1  0  0  0  0
  5  6  1  0  0  0  0
  6 11  1  1  0  0  0
  6  7  1  0  0  0  0
  7 12  1  0  0  0  0
  8 13  1  0  0  0  0
  8  7  2  0  0  0  0
  9  4  1  0  0  0  0
 14  6  1  0  0  0  0
M  RAD  3   1   2   2   2   3   3
M  END
