Coordinates from ORCA-job PhN2+~Cl-_B3LYPG-6-31G_dp-NX-Scan-d89-09-n800
 OpenBabel11261920353D

 14 14  0  0  1  0  0  0  0  0999 V2000
   -1.2537   -0.9583   -0.2592 C   0  0  0  0  0  0  0  0  0  0  0  0
   -1.6989   -2.1632   -0.5434 N   0  0  0  0  0  0  0  0  0  0  0  0
   -2.0853   -3.2100   -0.7921 N   0  0  0  0  0  0  0  0  0  0  0  0
   -2.1308    0.1855   -0.3829 C   0  0  0  0  0  0  0  0  0  0  0  0
   -1.6687    1.4194   -0.0933 C   0  0  0  0  0  0  0  0  0  0  0  0
   -0.2587    1.6720    0.2793 C   0  0  1  0  0  0  0  0  0  0  0  0
    0.5494    0.4551    0.5184 C   0  0  0  0  0  0  0  0  0  0  0  0
    0.0956   -0.7826    0.2316 C   0  0  0  0  0  0  0  0  0  0  0  0
   -3.1608    0.0254   -0.6850 H   0  0  0  0  0  0  0  0  0  0  0  0
   -2.3286    2.2771   -0.1682 H   0  0  0  0  0  0  0  0  0  0  0  0
   -0.1489    2.4218    1.0627 H   0  0  0  0  0  0  0  0  0  0  0  0
    1.5543    0.5883    0.9040 H   0  0  0  0  0  0  0  0  0  0  0  0
    0.7144   -1.6603    0.3878 H   0  0  0  0  0  0  0  0  0  0  0  0
    0.5798    2.6806   -1.1774 Cl  0  0  0  0  0  0  0  0  0  0  0  0
  1  8  2  0  0  0  0
  2  1  1  0  0  0  0
  3  2  1  0  0  0  0
  4  1  1  0  0  0  0
  4  5  2  0  0  0  0
  5  6  1  0  0  0  0
  6  7  1  0  0  0  0
  6 11  1  1  0  0  0
  7 12  1  0  0  0  0
  8 13  1  0  0  0  0
  8  7  1  0  0  0  0
  9  4  1  0  0  0  0
 10  5  1  0  0  0  0
 14  6  1  0  0  0  0
M  RAD  3   2   2   3   3   7   2
M  END
