Coordinates from ORCA-job PhN2+~Cl-_B3LYPG-6-31G_dp-NX-Scan-d89-09-n800
 OpenBabel11261920353D

 14 14  0  0  1  0  0  0  0  0999 V2000
   -1.2501   -0.9293   -0.2272 C   0  0  0  0  0  0  0  0  0  0  0  0
   -1.6300   -2.0983   -0.6911 N   0  0  0  0  0  0  0  0  0  0  0  0
   -1.9501   -3.1071   -1.1177 N   0  0  0  0  0  0  0  0  0  0  0  0
   -2.1562    0.1961   -0.2887 C   0  0  0  0  0  0  0  0  0  0  0  0
   -1.6912    1.4277    0.0039 C   0  0  0  0  0  0  0  0  0  0  0  0
   -0.2525    1.6653    0.2463 C   0  0  1  0  0  0  0  0  0  0  0  0
    0.5256    0.4638    0.6154 C   0  0  0  0  0  0  0  0  0  0  0  0
    0.0762   -0.7748    0.3278 C   0  0  0  0  0  0  0  0  0  0  0  0
   -3.1939    0.0230   -0.5547 H   0  0  0  0  0  0  0  0  0  0  0  0
   -2.3536    2.2862   -0.0208 H   0  0  0  0  0  0  0  0  0  0  0  0
   -0.0500    2.5297    0.8752 H   0  0  0  0  0  0  0  0  0  0  0  0
    1.5110    0.6054    1.0453 H   0  0  0  0  0  0  0  0  0  0  0  0
    0.6745   -1.6601    0.5167 H   0  0  0  0  0  0  0  0  0  0  0  0
    0.4993    2.3232   -1.4480 Cl  0  0  0  0  0  0  0  0  0  0  0  0
  1  8  2  0  0  0  0
  2  1  1  0  0  0  0
  3  2  1  0  0  0  0
  4  1  1  0  0  0  0
  4  5  2  0  0  0  0
  5  6  1  0  0  0  0
  6  7  1  0  0  0  0
  6 11  1  1  0  0  0
  7 12  1  0  0  0  0
  8 13  1  0  0  0  0
  8  7  1  0  0  0  0
  9  4  1  0  0  0  0
 10  5  1  0  0  0  0
 14  6  1  0  0  0  0
M  RAD  3   2   2   3   3   7   2
M  END
