Coordinates from ORCA-job PhN2+~Cl-_B3LYPG-6-31G_dp-NX-Scan-d89-09-n800
 OpenBabel11261920353D

 14 14  0  0  1  0  0  0  0  0999 V2000
   -1.2523   -0.9138   -0.1957 C   0  0  2  0  0  0  0  0  0  0  0  0
   -1.5800   -2.0415   -0.7831 N   0  0  0  0  0  0  0  0  0  0  0  0
   -1.8457   -3.0049   -1.3318 N   0  0  0  0  0  0  0  0  0  0  0  0
   -2.1745    0.2011   -0.2228 C   0  0  0  0  0  0  0  0  0  0  0  0
   -1.7022    1.4326    0.0565 C   0  0  0  0  0  0  0  0  0  0  0  0
   -0.2489    1.6537    0.2145 C   0  0  1  0  0  0  0  0  0  0  0  0
    0.5122    0.4697    0.6673 C   0  0  0  0  0  0  0  0  0  0  0  0
    0.0612   -0.7713    0.3949 C   0  0  0  0  0  0  0  0  0  0  0  0
   -3.2176    0.0202   -0.4614 H   0  0  0  0  0  0  0  0  0  0  0  0
   -2.3610    2.2940    0.0613 H   0  0  0  0  0  0  0  0  0  0  0  0
    0.0066    2.5718    0.7380 H   0  0  0  0  0  0  0  0  0  0  0  0
    1.4850    0.6212    1.1216 H   0  0  0  0  0  0  0  0  0  0  0  0
    0.6451   -1.6606    0.6086 H   0  0  0  0  0  0  0  0  0  0  0  0
    0.4312    2.0785   -1.5857 Cl  0  0  0  0  0  0  0  0  0  0  0  0
  1  2  1  6  0  0  0
  1  8  1  0  0  0  0
  3  2  1  0  0  0  0
  4  1  1  0  0  0  0
  4  5  2  0  0  0  0
  5 10  1  0  0  0  0
  5  6  1  0  0  0  0
  6  7  1  0  0  0  0
  6 11  1  1  0  0  0
  7 12  1  0  0  0  0
  8 13  1  0  0  0  0
  8  7  2  0  0  0  0
  9  4  1  0  0  0  0
 14  6  1  0  0  0  0
M  RAD  3   1   2   2   2   3   3
M  END
