Coordinates from ORCA-job PhN2+~Cl-_B3LYPG-6-31G_dp-NX-Scan-d89-09-n800
 OpenBabel11261920353D

 14 14  0  0  1  0  0  0  0  0999 V2000
   -1.2777   -1.0140   -0.2607 C   0  0  0  0  0  0  0  0  0  0  0  0
   -1.7936   -2.2356   -0.3142 N   0  0  0  0  0  0  0  0  0  0  0  0
   -2.2447   -3.2938   -0.3447 N   0  0  0  0  0  0  0  0  0  0  0  0
   -2.0963    0.1623   -0.4981 C   0  0  0  0  0  0  0  0  0  0  0  0
   -1.6165    1.4080   -0.2625 C   0  0  0  0  0  0  0  0  0  0  0  0
   -0.2666    1.6661    0.2981 C   0  0  1  0  0  0  0  0  0  0  0  0
    0.5846    0.4512    0.3445 C   0  0  0  0  0  0  0  0  0  0  0  0
    0.1096   -0.7966    0.1107 C   0  0  0  0  0  0  0  0  0  0  0  0
   -3.1159    0.0268   -0.8447 H   0  0  0  0  0  0  0  0  0  0  0  0
   -2.2632    2.2636   -0.4256 H   0  0  0  0  0  0  0  0  0  0  0  0
   -0.2979    2.1976    1.2502 H   0  0  0  0  0  0  0  0  0  0  0  0
    1.6187    0.5756    0.6471 H   0  0  0  0  0  0  0  0  0  0  0  0
    0.7596   -1.6583    0.2267 H   0  0  0  0  0  0  0  0  0  0  0  0
    0.6592    3.1977   -0.6445 Cl  0  0  0  0  0  0  0  0  0  0  0  0
  1  8  2  0  0  0  0
  2  1  1  0  0  0  0
  3  2  1  0  0  0  0
  4  5  2  0  0  0  0
  4  1  1  0  0  0  0
  5  6  1  0  0  0  0
  6  7  1  0  0  0  0
  6 11  1  1  0  0  0
  7 12  1  0  0  0  0
  8 13  1  0  0  0  0
  8  7  1  0  0  0  0
  9  4  1  0  0  0  0
 10  5  1  0  0  0  0
 14  6  1  0  0  0  0
M  RAD  3   2   2   3   3   7   2
M  END
