Coordinates from ORCA-job PhN2+~Cl-_B3LYPG-6-31G_dp-NX-Scan-d89-09-n800
 OpenBabel11261920353D

 14 14  0  0  1  0  0  0  0  0999 V2000
   -1.3567   -0.9775    0.0819 C   0  0  2  0  0  0  0  0  0  0  0  0
   -1.2564   -1.5135   -1.1234 N   0  0  0  0  0  0  0  0  0  0  0  0
   -1.0547   -1.7452   -2.2170 N   0  0  0  0  0  0  0  0  0  0  0  0
   -2.3013    0.1597    0.1375 C   0  0  0  0  0  0  0  0  0  0  0  0
   -1.7402    1.3823    0.1530 C   0  0  0  0  0  0  0  0  0  0  0  0
   -0.2672    1.4439   -0.0494 C   0  0  1  0  0  0  0  0  0  0  0  0
    0.4566    0.4267    0.7607 C   0  0  0  0  0  0  0  0  0  0  0  0
   -0.0513   -0.8190    0.7599 C   0  0  0  0  0  0  0  0  0  0  0  0
   -3.3738   -0.0093    0.1123 H   0  0  0  0  0  0  0  0  0  0  0  0
   -2.3184    2.2984    0.2191 H   0  0  0  0  0  0  0  0  0  0  0  0
    0.1617    2.4419   -0.0308 H   0  0  0  0  0  0  0  0  0  0  0  0
    1.3940    0.6836    1.2435 H   0  0  0  0  0  0  0  0  0  0  0  0
    0.4660   -1.6791    1.1735 H   0  0  0  0  0  0  0  0  0  0  0  0
    0.0007    0.8576   -1.9385 Cl  0  0  0  0  0  0  0  0  0  0  0  0
  1  2  1  6  0  0  0
  1  4  1  0  0  0  0
  1  8  1  0  0  0  0
  3  2  1  0  0  0  0
  4  5  2  0  0  0  0
  5 10  1  0  0  0  0
  6 11  1  1  0  0  0
  6  5  1  0  0  0  0
  6  7  1  0  0  0  0
  7 12  1  0  0  0  0
  8  7  2  0  0  0  0
  8 13  1  0  0  0  0
  9  4  1  0  0  0  0
 14  6  1  0  0  0  0
M  RAD  3   1   2   2   2   3   3
M  END
