Coordinates from ORCA-job PhN2+~Cl-_B3LYPG-6-31G_dp-NX-Scan-d89-09-n800
 OpenBabel11261920353D

 14 14  0  0  0  0  0  0  0  0999 V2000
   -0.5789   -0.4439   -0.6131 C   0  0  0  0  0  0  0  0  0  0  0  0
   -0.4191   -1.4994   -1.5500 N   0  0  0  0  0  0  0  0  0  0  0  0
   -1.2250   -2.0985   -2.2285 N   0  0  0  0  0  0  0  0  0  0  0  0
   -1.3314    0.7088   -0.8775 C   0  0  0  0  0  0  0  0  0  0  0  0
   -1.3488    1.7328    0.0677 C   0  0  0  0  0  0  0  0  0  0  0  0
   -0.6419    1.6063    1.2660 C   0  0  0  0  0  0  0  0  0  0  0  0
    0.1160    0.4591    1.5143 C   0  0  0  0  0  0  0  0  0  0  0  0
    0.1727   -0.5566    0.5638 C   0  0  0  0  0  0  0  0  0  0  0  0
   -1.8750    0.8072   -1.8083 H   0  0  0  0  0  0  0  0  0  0  0  0
   -1.9220    2.6327   -0.1335 H   0  0  0  0  0  0  0  0  0  0  0  0
   -0.6718    2.4068    1.9994 H   0  0  0  0  0  0  0  0  0  0  0  0
    0.6767    0.3636    2.4389 H   0  0  0  0  0  0  0  0  0  0  0  0
    0.7778   -1.4436    0.7192 H   0  0  0  0  0  0  0  0  0  0  0  0
   -2.9700   -1.7246   -2.0763 Cl  0  0  0  0  0  0  0  0  0  0  0  0
  1  8  1  0  0  0  0
  2  1  1  0  0  0  0
  3 14  1  0  0  0  0
  3  2  2  0  0  0  0
  4  1  2  0  0  0  0
  4  5  1  0  0  0  0
  5  6  2  0  0  0  0
  6  7  1  0  0  0  0
  6 11  1  0  0  0  0
  7 12  1  0  0  0  0
  8 13  1  0  0  0  0
  8  7  2  0  0  0  0
  9  4  1  0  0  0  0
 10  5  1  0  0  0  0
M  END
