Coordinates from ORCA-job PhN2+~Cl-_B3LYPG-6-31G_dp-NX-Scan-d89-09-n800
 OpenBabel11261920353D

 14 14  0  0  1  0  0  0  0  0999 V2000
   -1.3524   -0.9733    0.0728 C   0  0  2  0  0  0  0  0  0  0  0  0
   -1.2636   -1.5291   -1.1218 N   0  0  0  0  0  0  0  0  0  0  0  0
   -1.0908   -1.8217   -2.2058 N   0  0  0  0  0  0  0  0  0  0  0  0
   -2.2978    0.1629    0.1275 C   0  0  0  0  0  0  0  0  0  0  0  0
   -1.7398    1.3858    0.1508 C   0  0  0  0  0  0  0  0  0  0  0  0
   -0.2645    1.4524   -0.0457 C   0  0  1  0  0  0  0  0  0  0  0  0
    0.4598    0.4289    0.7592 C   0  0  0  0  0  0  0  0  0  0  0  0
   -0.0469   -0.8163    0.7502 C   0  0  0  0  0  0  0  0  0  0  0  0
   -3.3699   -0.0085    0.1008 H   0  0  0  0  0  0  0  0  0  0  0  0
   -2.3197    2.3006    0.2204 H   0  0  0  0  0  0  0  0  0  0  0  0
    0.1589    2.4523   -0.0043 H   0  0  0  0  0  0  0  0  0  0  0  0
    1.3957    0.6844    1.2456 H   0  0  0  0  0  0  0  0  0  0  0  0
    0.4691   -1.6781    1.1619 H   0  0  0  0  0  0  0  0  0  0  0  0
    0.0209    0.9104   -1.9291 Cl  0  0  0  0  0  0  0  0  0  0  0  0
  1  2  1  6  0  0  0
  1  4  1  0  0  0  0
  1  8  1  0  0  0  0
  3  2  1  0  0  0  0
  4  5  2  0  0  0  0
  5 10  1  0  0  0  0
  6 11  1  1  0  0  0
  6  5  1  0  0  0  0
  6  7  1  0  0  0  0
  7 12  1  0  0  0  0
  8  7  2  0  0  0  0
  8 13  1  0  0  0  0
  9  4  1  0  0  0  0
 14  6  1  0  0  0  0
M  RAD  3   1   2   2   2   3   3
M  END
