Coordinates from ORCA-job PhN2+~Cl-_B3LYPG-6-31G_dp-NX-Scan-d89-09-n800
 OpenBabel11261920353D

 14 14  0  0  1  0  0  0  0  0999 V2000
   -1.2596   -0.9767   -0.2668 C   0  0  0  0  0  0  0  0  0  0  0  0
   -1.7360   -2.1905   -0.4522 N   0  0  0  0  0  0  0  0  0  0  0  0
   -2.1526   -3.2463   -0.6056 N   0  0  0  0  0  0  0  0  0  0  0  0
   -2.1169    0.1787   -0.4330 C   0  0  0  0  0  0  0  0  0  0  0  0
   -1.6515    1.4156   -0.1588 C   0  0  0  0  0  0  0  0  0  0  0  0
   -0.2617    1.6723    0.2907 C   0  0  1  0  0  0  0  0  0  0  0  0
    0.5653    0.4520    0.4524 C   0  0  0  0  0  0  0  0  0  0  0  0
    0.1047   -0.7872    0.1802 C   0  0  0  0  0  0  0  0  0  0  0  0
   -3.1421    0.0266   -0.7550 H   0  0  0  0  0  0  0  0  0  0  0  0
   -2.3060    2.2738   -0.2682 H   0  0  0  0  0  0  0  0  0  0  0  0
   -0.2133    2.3338    1.1572 H   0  0  0  0  0  0  0  0  0  0  0  0
    1.5824    0.5829    0.8058 H   0  0  0  0  0  0  0  0  0  0  0  0
    0.7353   -1.6598    0.3179 H   0  0  0  0  0  0  0  0  0  0  0  0
    0.6111    2.8755   -0.9821 Cl  0  0  0  0  0  0  0  0  0  0  0  0
  1  8  2  0  0  0  0
  2  1  1  0  0  0  0
  3  2  1  0  0  0  0
  4  1  1  0  0  0  0
  4  5  2  0  0  0  0
  5  6  1  0  0  0  0
  6  7  1  0  0  0  0
  6 11  1  1  0  0  0
  7 12  1  0  0  0  0
  8 13  1  0  0  0  0
  8  7  1  0  0  0  0
  9  4  1  0  0  0  0
 10  5  1  0  0  0  0
 14  6  1  0  0  0  0
M  RAD  3   2   2   3   3   7   2
M  END
