Coordinates from ORCA-job PhN2+~Cl-_B3LYPG-6-31G_dp-NX-Scan-d89-09-n800
 OpenBabel11261920353D

 14 14  0  0  1  0  0  0  0  0999 V2000
   -1.3576   -0.9776    0.0850 C   0  0  2  0  0  0  0  0  0  0  0  0
   -1.2558   -1.5114   -1.1224 N   0  0  0  0  0  0  0  0  0  0  0  0
   -1.0432   -1.7198   -2.2187 N   0  0  0  0  0  0  0  0  0  0  0  0
   -2.3019    0.1590    0.1402 C   0  0  0  0  0  0  0  0  0  0  0  0
   -1.7400    1.3820    0.1552 C   0  0  0  0  0  0  0  0  0  0  0  0
   -0.2684    1.4425   -0.0472 C   0  0  1  0  0  0  0  0  0  0  0  0
    0.4553    0.4270    0.7625 C   0  0  0  0  0  0  0  0  0  0  0  0
   -0.0526   -0.8195    0.7624 C   0  0  0  0  0  0  0  0  0  0  0  0
   -3.3744   -0.0094    0.1117 H   0  0  0  0  0  0  0  0  0  0  0  0
   -2.3185    2.2981    0.2186 H   0  0  0  0  0  0  0  0  0  0  0  0
    0.1628    2.4395   -0.0384 H   0  0  0  0  0  0  0  0  0  0  0  0
    1.3940    0.6832    1.2431 H   0  0  0  0  0  0  0  0  0  0  0  0
    0.4665   -1.6797    1.1733 H   0  0  0  0  0  0  0  0  0  0  0  0
   -0.0071    0.8368   -1.9430 Cl  0  0  0  0  0  0  0  0  0  0  0  0
  1  2  1  6  0  0  0
  1  4  1  0  0  0  0
  1  8  1  0  0  0  0
  3  2  1  0  0  0  0
  4  5  2  0  0  0  0
  5 10  1  0  0  0  0
  6 11  1  1  0  0  0
  6  5  1  0  0  0  0
  6  7  1  0  0  0  0
  7 12  1  0  0  0  0
  8  7  2  0  0  0  0
  8 13  1  0  0  0  0
  9  4  1  0  0  0  0
 14  6  1  0  0  0  0
M  RAD  3   1   2   2   2   3   3
M  END
