Coordinates from ORCA-job PhN2+~Cl-_B3LYPG-6-31G_dp-NX-Scan-d89-09-n800
 OpenBabel11261920353D

 14 14  0  0  1  0  0  0  0  0999 V2000
   -1.2505   -0.9395   -0.2413 C   0  0  0  0  0  0  0  0  0  0  0  0
   -1.6563   -2.1251   -0.6379 N   0  0  0  0  0  0  0  0  0  0  0  0
   -2.0030   -3.1518   -0.9976 N   0  0  0  0  0  0  0  0  0  0  0  0
   -2.1466    0.1924   -0.3243 C   0  0  0  0  0  0  0  0  0  0  0  0
   -1.6837    1.4245   -0.0296 C   0  0  0  0  0  0  0  0  0  0  0  0
   -0.2548    1.6690    0.2606 C   0  0  1  0  0  0  0  0  0  0  0  0
    0.5338    0.4603    0.5821 C   0  0  0  0  0  0  0  0  0  0  0  0
    0.0838   -0.7775    0.2915 C   0  0  0  0  0  0  0  0  0  0  0  0
   -3.1815    0.0241   -0.6041 H   0  0  0  0  0  0  0  0  0  0  0  0
   -2.3463    2.2824   -0.0719 H   0  0  0  0  0  0  0  0  0  0  0  0
   -0.0845    2.4962    0.9474 H   0  0  0  0  0  0  0  0  0  0  0  0
    1.5263    0.5980    0.9970 H   0  0  0  0  0  0  0  0  0  0  0  0
    0.6898   -1.6602    0.4679 H   0  0  0  0  0  0  0  0  0  0  0  0
    0.5325    2.4579   -1.3575 Cl  0  0  0  0  0  0  0  0  0  0  0  0
  1  8  2  0  0  0  0
  2  1  1  0  0  0  0
  3  2  1  0  0  0  0
  4  1  1  0  0  0  0
  4  5  2  0  0  0  0
  5  6  1  0  0  0  0
  6  7  1  0  0  0  0
  6 11  1  1  0  0  0
  7 12  1  0  0  0  0
  8 13  1  0  0  0  0
  8  7  1  0  0  0  0
  9  4  1  0  0  0  0
 10  5  1  0  0  0  0
 14  6  1  0  0  0  0
M  RAD  3   2   2   3   3   7   2
M  END
