Coordinates from ORCA-job PhN2+~Cl-_B3LYPG-6-31G_dp-NX-Scan-d89-09-n800
 OpenBabel11261920353D

 14 14  0  0  1  0  0  0  0  0999 V2000
   -1.2607   -0.9034   -0.1494 C   0  0  2  0  0  0  0  0  0  0  0  0
   -1.5179   -1.9613   -0.8821 N   0  0  0  0  0  0  0  0  0  0  0  0
   -1.7115   -2.8481   -1.5704 N   0  0  0  0  0  0  0  0  0  0  0  0
   -2.1975    0.2032   -0.1451 C   0  0  0  0  0  0  0  0  0  0  0  0
   -1.7119    1.4354    0.1037 C   0  0  0  0  0  0  0  0  0  0  0  0
   -0.2460    1.6310    0.1683 C   0  0  1  0  0  0  0  0  0  0  0  0
    0.4989    0.4741    0.7138 C   0  0  0  0  0  0  0  0  0  0  0  0
    0.0419   -0.7707    0.4736 C   0  0  0  0  0  0  0  0  0  0  0  0
   -3.2473    0.0152   -0.3468 H   0  0  0  0  0  0  0  0  0  0  0  0
   -2.3615    2.3030    0.1387 H   0  0  0  0  0  0  0  0  0  0  0  0
    0.0611    2.5919    0.5722 H   0  0  0  0  0  0  0  0  0  0  0  0
    1.4576    0.6420    1.1915 H   0  0  0  0  0  0  0  0  0  0  0  0
    0.6090   -1.6623    0.7206 H   0  0  0  0  0  0  0  0  0  0  0  0
    0.3450    1.8007   -1.7064 Cl  0  0  0  0  0  0  0  0  0  0  0  0
  1  2  1  6  0  0  0
  1  4  1  0  0  0  0
  1  8  1  0  0  0  0
  3  2  1  0  0  0  0
  4  5  2  0  0  0  0
  5 10  1  0  0  0  0
  5  6  1  0  0  0  0
  6 11  1  1  0  0  0
  6  7  1  0  0  0  0
  7 12  1  0  0  0  0
  8  7  2  0  0  0  0
  8 13  1  0  0  0  0
  9  4  1  0  0  0  0
 14  6  1  0  0  0  0
M  RAD  3   1   2   2   2   3   3
M  END
