Coordinates from ORCA-job PhN2+~Cl-_B3LYPG-6-31G_dp-NX-Scan-d89-09-n800
 OpenBabel11261920353D

 14 14  0  0  0  0  0  0  0  0999 V2000
   -0.5879   -0.3855   -0.7072 C   0  0  0  0  0  0  0  0  0  0  0  0
   -0.4014   -1.3672   -1.7515 N   0  0  0  0  0  0  0  0  0  0  0  0
   -1.4144   -2.0676   -2.1038 N   0  0  0  0  0  0  0  0  0  0  0  0
   -1.2847    0.8104   -0.9340 C   0  0  0  0  0  0  0  0  0  0  0  0
   -1.3167    1.7940    0.0539 C   0  0  0  0  0  0  0  0  0  0  0  0
   -0.6625    1.5934    1.2717 C   0  0  0  0  0  0  0  0  0  0  0  0
    0.0401    0.4069    1.4924 C   0  0  0  0  0  0  0  0  0  0  0  0
    0.0893   -0.5755    0.5037 C   0  0  0  0  0  0  0  0  0  0  0  0
   -1.7786    0.9763   -1.8871 H   0  0  0  0  0  0  0  0  0  0  0  0
   -1.8532    2.7206   -0.1296 H   0  0  0  0  0  0  0  0  0  0  0  0
   -0.6912    2.3618    2.0388 H   0  0  0  0  0  0  0  0  0  0  0  0
    0.5607    0.2490    2.4326 H   0  0  0  0  0  0  0  0  0  0  0  0
    0.6510   -1.4924    0.6551 H   0  0  0  0  0  0  0  0  0  0  0  0
   -2.5913   -2.0735   -1.6527 Cl  0  0  0  0  0  0  0  0  0  0  0  0
  1  8  1  0  0  0  0
  2  1  1  0  0  0  0
  3  2  2  0  0  0  0
  3 14  1  0  0  0  0
  4  1  2  0  0  0  0
  4  5  1  0  0  0  0
  5  6  2  0  0  0  0
  6  7  1  0  0  0  0
  6 11  1  0  0  0  0
  7 12  1  0  0  0  0
  8 13  1  0  0  0  0
  8  7  2  0  0  0  0
  9  4  1  0  0  0  0
 10  5  1  0  0  0  0
M  END
