Coordinates from ORCA-job PhN2+~Cl-_B3LYPG-6-31G_dp-NX-Scan-d89-09-n800
 OpenBabel11261920353D

 14 14  0  0  1  0  0  0  0  0999 V2000
   -1.2768   -1.0118   -0.2605 C   0  0  0  0  0  0  0  0  0  0  0  0
   -1.7914   -2.2328   -0.3176 N   0  0  0  0  0  0  0  0  0  0  0  0
   -2.2416   -3.2910   -0.3515 N   0  0  0  0  0  0  0  0  0  0  0  0
   -2.0969    0.1636   -0.4961 C   0  0  0  0  0  0  0  0  0  0  0  0
   -1.6178    1.4089   -0.2601 C   0  0  0  0  0  0  0  0  0  0  0  0
   -0.2660    1.6673    0.2979 C   0  0  1  0  0  0  0  0  0  0  0  0
    0.5848    0.4514    0.3473 C   0  0  0  0  0  0  0  0  0  0  0  0
    0.1100   -0.7957    0.1129 C   0  0  0  0  0  0  0  0  0  0  0  0
   -3.1164    0.0273   -0.8427 H   0  0  0  0  0  0  0  0  0  0  0  0
   -2.2640    2.2648   -0.4228 H   0  0  0  0  0  0  0  0  0  0  0  0
   -0.2977    2.1984    1.2506 H   0  0  0  0  0  0  0  0  0  0  0  0
    1.6188    0.5764    0.6502 H   0  0  0  0  0  0  0  0  0  0  0  0
    0.7593   -1.6580    0.2287 H   0  0  0  0  0  0  0  0  0  0  0  0
    0.6549    3.1818   -0.6539 Cl  0  0  0  0  0  0  0  0  0  0  0  0
  1  8  2  0  0  0  0
  2  1  1  0  0  0  0
  3  2  1  0  0  0  0
  4  1  1  0  0  0  0
  4  5  2  0  0  0  0
  5  6  1  0  0  0  0
  6  7  1  0  0  0  0
  6 11  1  1  0  0  0
  7 12  1  0  0  0  0
  8 13  1  0  0  0  0
  8  7  1  0  0  0  0
  9  4  1  0  0  0  0
 10  5  1  0  0  0  0
 14  6  1  0  0  0  0
M  RAD  3   2   2   3   3   7   2
M  END
