Coordinates from ORCA-job PhN2+~Cl-_B3LYPG-6-31G_dp-NX-Scan-d89-09-n800
 OpenBabel11261920353D

 14 14  0  0  1  0  0  0  0  0999 V2000
   -1.2558   -0.9068   -0.1724 C   0  0  2  0  0  0  0  0  0  0  0  0
   -1.5470   -2.0002   -0.8378 N   0  0  0  0  0  0  0  0  0  0  0  0
   -1.7753   -2.9258   -1.4621 N   0  0  0  0  0  0  0  0  0  0  0  0
   -2.1866    0.2029   -0.1810 C   0  0  0  0  0  0  0  0  0  0  0  0
   -1.7078    1.4346    0.0840 C   0  0  0  0  0  0  0  0  0  0  0  0
   -0.2471    1.6428    0.1906 C   0  0  1  0  0  0  0  0  0  0  0  0
    0.5047    0.4726    0.6944 C   0  0  0  0  0  0  0  0  0  0  0  0
    0.0511   -0.7704    0.4372 C   0  0  0  0  0  0  0  0  0  0  0  0
   -3.2333    0.0177   -0.4003 H   0  0  0  0  0  0  0  0  0  0  0  0
   -2.3624    2.2989    0.1060 H   0  0  0  0  0  0  0  0  0  0  0  0
    0.0376    2.5865    0.6488 H   0  0  0  0  0  0  0  0  0  0  0  0
    1.4696    0.6324    1.1623 H   0  0  0  0  0  0  0  0  0  0  0  0
    0.6258   -1.6612    0.6683 H   0  0  0  0  0  0  0  0  0  0  0  0
    0.3854    1.9269   -1.6556 Cl  0  0  0  0  0  0  0  0  0  0  0  0
  1  2  1  6  0  0  0
  1  8  1  0  0  0  0
  3  2  1  0  0  0  0
  4  1  1  0  0  0  0
  4  5  2  0  0  0  0
  5 10  1  0  0  0  0
  5  6  1  0  0  0  0
  6 11  1  1  0  0  0
  6  7  1  0  0  0  0
  7 12  1  0  0  0  0
  8 13  1  0  0  0  0
  8  7  2  0  0  0  0
  9  4  1  0  0  0  0
 14  6  1  0  0  0  0
M  RAD  3   1   2   2   2   3   3
M  END
