Coordinates from ORCA-job PhN2+~Cl-_B3LYPG-6-31G_dp-NX-Scan-d89-09-n800
 OpenBabel11261920353D

 14 13  0  0  0  0  0  0  0  0999 V2000
   -1.3215   -1.0796   -0.2037 C   0  0  0  0  0  0  0  0  0  0  0  0
   -1.8225   -2.3280   -0.3585 N   0  0  0  0  0  0  0  0  0  0  0  0
   -2.2462   -3.3733   -0.4723 N   0  0  0  0  0  0  0  0  0  0  0  0
   -2.1749    0.0410   -0.4157 C   0  0  0  0  0  0  0  0  0  0  0  0
   -1.6616    1.3008   -0.1798 C   0  0  0  0  0  0  0  0  0  0  0  0
   -0.3406    1.4794    0.2832 C   0  0  0  0  0  0  0  0  0  0  0  0
    0.5034    0.3567    0.4202 C   0  0  0  0  0  0  0  0  0  0  0  0
    0.0360   -0.9230    0.1972 C   0  0  0  0  0  0  0  0  0  0  0  0
   -3.2007   -0.1117   -0.7320 H   0  0  0  0  0  0  0  0  0  0  0  0
   -2.2891    2.1724   -0.3317 H   0  0  0  0  0  0  0  0  0  0  0  0
    0.0378    2.4840    0.4950 H   0  0  0  0  0  0  0  0  0  0  0  0
    1.5325    0.5048    0.7294 H   0  0  0  0  0  0  0  0  0  0  0  0
    0.6622   -1.7966    0.3411 H   0  0  0  0  0  0  0  0  0  0  0  0
    1.0444    4.2239   -0.4903 Cl  0  0  0  0  0  0  0  0  0  0  0  0
  1  8  1  0  0  0  0
  2  1  1  0  0  0  0
  3  2  1  0  0  0  0
  4  1  2  0  0  0  0
  4  5  1  0  0  0  0
  5  6  2  0  0  0  0
  6  7  1  0  0  0  0
  6 11  1  0  0  0  0
  7 12  1  0  0  0  0
  8 13  1  0  0  0  0
  8  7  2  0  0  0  0
  9  4  1  0  0  0  0
 10  5  1  0  0  0  0
M  RAD  3   2   2   3   3  14   2
M  END
