Coordinates from ORCA-job PhN2+~Cl-_B3LYPG-6-31G_dp-NX-Scan-d89-09-n800
 OpenBabel11261920353D

 14 14  0  0  1  0  0  0  0  0999 V2000
   -1.3362   -0.9555    0.0419 C   0  0  2  0  0  0  0  0  0  0  0  0
   -1.3028   -1.6071   -1.1025 N   0  0  0  0  0  0  0  0  0  0  0  0
   -1.2067   -2.0504   -2.1447 N   0  0  0  0  0  0  0  0  0  0  0  0
   -2.2818    0.1739    0.0882 C   0  0  0  0  0  0  0  0  0  0  0  0
   -1.7353    1.4004    0.1518 C   0  0  0  0  0  0  0  0  0  0  0  0
   -0.2574    1.4895   -0.0127 C   0  0  1  0  0  0  0  0  0  0  0  0
    0.4670    0.4423    0.7605 C   0  0  0  0  0  0  0  0  0  0  0  0
   -0.0314   -0.8051    0.7106 C   0  0  0  0  0  0  0  0  0  0  0  0
   -3.3519   -0.0039    0.0337 H   0  0  0  0  0  0  0  0  0  0  0  0
   -2.3272    2.3069    0.2245 H   0  0  0  0  0  0  0  0  0  0  0  0
    0.1512    2.4915    0.0853 H   0  0  0  0  0  0  0  0  0  0  0  0
    1.4027    0.6844    1.2536 H   0  0  0  0  0  0  0  0  0  0  0  0
    0.4908   -1.6752    1.0963 H   0  0  0  0  0  0  0  0  0  0  0  0
    0.0782    1.0592   -1.9043 Cl  0  0  0  0  0  0  0  0  0  0  0  0
  1  2  1  6  0  0  0
  1  4  1  0  0  0  0
  1  8  1  0  0  0  0
  3  2  1  0  0  0  0
  4  5  2  0  0  0  0
  5 10  1  0  0  0  0
  6 11  1  1  0  0  0
  6  5  1  0  0  0  0
  6  7  1  0  0  0  0
  7 12  1  0  0  0  0
  8  7  2  0  0  0  0
  8 13  1  0  0  0  0
  9  4  1  0  0  0  0
 14  6  1  0  0  0  0
M  RAD  3   1   2   2   2   3   3
M  END
