Coordinates from ORCA-job PhN2+~Cl-_B3LYPG-6-31G_dp-NX-Scan-d89-09-n800
 OpenBabel11261920353D

 14 14  0  0  1  0  0  0  0  0999 V2000
   -1.3511   -0.9720    0.0701 C   0  0  2  0  0  0  0  0  0  0  0  0
   -1.2666   -1.5353   -1.1208 N   0  0  0  0  0  0  0  0  0  0  0  0
   -1.1015   -1.8439   -2.2016 N   0  0  0  0  0  0  0  0  0  0  0  0
   -2.2965    0.1639    0.1242 C   0  0  0  0  0  0  0  0  0  0  0  0
   -1.7395    1.3870    0.1507 C   0  0  0  0  0  0  0  0  0  0  0  0
   -0.2637    1.4556   -0.0434 C   0  0  1  0  0  0  0  0  0  0  0  0
    0.4605    0.4300    0.7591 C   0  0  0  0  0  0  0  0  0  0  0  0
   -0.0455   -0.8153    0.7469 C   0  0  0  0  0  0  0  0  0  0  0  0
   -3.3685   -0.0080    0.0959 H   0  0  0  0  0  0  0  0  0  0  0  0
   -2.3203    2.3012    0.2210 H   0  0  0  0  0  0  0  0  0  0  0  0
    0.1583    2.4558    0.0035 H   0  0  0  0  0  0  0  0  0  0  0  0
    1.3962    0.6845    1.2465 H   0  0  0  0  0  0  0  0  0  0  0  0
    0.4707   -1.6777    1.1571 H   0  0  0  0  0  0  0  0  0  0  0  0
    0.0266    0.9251   -1.9268 Cl  0  0  0  0  0  0  0  0  0  0  0  0
  1  2  1  6  0  0  0
  1  4  1  0  0  0  0
  1  8  1  0  0  0  0
  3  2  1  0  0  0  0
  4  5  2  0  0  0  0
  5 10  1  0  0  0  0
  6 11  1  1  0  0  0
  6  5  1  0  0  0  0
  6  7  1  0  0  0  0
  7 12  1  0  0  0  0
  8  7  2  0  0  0  0
  8 13  1  0  0  0  0
  9  4  1  0  0  0  0
 14  6  1  0  0  0  0
M  RAD  3   1   2   2   2   3   3
M  END
