Coordinates from ORCA-job PhN2+~Cl-_B3LYPG-6-31G_dp-NX-Scan-d89-09-n800
 OpenBabel11261920353D

 14 14  0  0  0  0  0  0  0  0999 V2000
   -0.7635   -0.5712   -0.4751 C   0  0  0  0  0  0  0  0  0  0  0  0
   -0.7284   -1.8015   -1.1841 N   0  0  0  0  0  0  0  0  0  0  0  0
   -1.4857   -1.8773   -2.2545 N   0  0  0  0  0  0  0  0  0  0  0  0
   -1.5100    0.6051   -0.7325 C   0  0  0  0  0  0  0  0  0  0  0  0
   -1.3847    1.7109    0.1131 C   0  0  0  0  0  0  0  0  0  0  0  0
   -0.5327    1.6829    1.2152 C   0  0  0  0  0  0  0  0  0  0  0  0
    0.2091    0.5249    1.4787 C   0  0  0  0  0  0  0  0  0  0  0  0
    0.0941   -0.5800    0.6482 C   0  0  0  0  0  0  0  0  0  0  0  0
   -2.1799    0.6661   -1.5804 H   0  0  0  0  0  0  0  0  0  0  0  0
   -1.9650    2.6043   -0.1010 H   0  0  0  0  0  0  0  0  0  0  0  0
   -0.4445    2.5508    1.8624 H   0  0  0  0  0  0  0  0  0  0  0  0
    0.8768    0.4884    2.3351 H   0  0  0  0  0  0  0  0  0  0  0  0
    0.6604   -1.4871    0.8346 H   0  0  0  0  0  0  0  0  0  0  0  0
   -2.0869   -1.5657   -2.8774 Cl  0  0  0  0  0  0  0  0  0  0  0  0
  1  8  1  0  0  0  0
  2  1  1  0  0  0  0
  3  2  1  0  0  0  0
  4  1  2  0  0  0  0
  4  5  1  0  0  0  0
  5  6  2  0  0  0  0
  6  7  1  0  0  0  0
  6 11  1  0  0  0  0
  7 12  1  0  0  0  0
  8 13  1  0  0  0  0
  8  7  2  0  0  0  0
  9  4  1  0  0  0  0
 10  5  1  0  0  0  0
 14  3  1  0  0  0  0
M  RAD  2   2   2   3   2
M  END
