Coordinates from ORCA-job PhN2+~Cl-_B3LYPG-6-31G_dp-NX-Scan-d89-09-n800
 OpenBabel11261920353D

 14 13  0  0  0  0  0  0  0  0999 V2000
   -0.6828   -0.5529   -0.4102 C   0  0  0  0  0  0  0  0  0  0  0  0
   -0.6999   -1.7180   -1.1990 N   0  0  0  0  0  0  0  0  0  0  0  0
   -1.1801   -2.2433   -2.1179 N   0  0  0  0  0  0  0  0  0  0  0  0
   -1.5195    0.5386   -0.6884 C   0  0  0  0  0  0  0  0  0  0  0  0
   -1.4331    1.6505    0.1459 C   0  0  0  0  0  0  0  0  0  0  0  0
   -0.5400    1.6686    1.2215 C   0  0  0  0  0  0  0  0  0  0  0  0
    0.2847    0.5694    1.4819 C   0  0  0  0  0  0  0  0  0  0  0  0
    0.2181   -0.5527    0.6637 C   0  0  0  0  0  0  0  0  0  0  0  0
   -2.1988    0.4886   -1.5322 H   0  0  0  0  0  0  0  0  0  0  0  0
   -2.0687    2.5090   -0.0475 H   0  0  0  0  0  0  0  0  0  0  0  0
   -0.4858    2.5450    1.8608 H   0  0  0  0  0  0  0  0  0  0  0  0
    0.9753    0.5886    2.3187 H   0  0  0  0  0  0  0  0  0  0  0  0
    0.8430   -1.4224    0.8360 H   0  0  0  0  0  0  0  0  0  0  0  0
   -2.7533   -1.1181   -3.2510 Cl  0  0  0  0  0  0  0  0  0  0  0  0
  1  8  1  0  0  0  0
  2  1  1  0  0  0  0
  3  2  2  0  0  0  0
  4  1  2  0  0  0  0
  4  5  1  0  0  0  0
  5  6  2  0  0  0  0
  6  7  1  0  0  0  0
  6 11  1  0  0  0  0
  7 12  1  0  0  0  0
  8 13  1  0  0  0  0
  8  7  2  0  0  0  0
  9  4  1  0  0  0  0
 10  5  1  0  0  0  0
M  RAD  2   3   2  14   2
M  END
