Coordinates from ORCA-job PhN2+~Cl-_B3LYPG-6-31G_dp-NX-Scan-d89-09-n800
 OpenBabel11261920353D

 14 14  0  0  0  0  0  0  0  0999 V2000
   -0.5887   -0.3854   -0.7077 C   0  0  0  0  0  0  0  0  0  0  0  0
   -0.4025   -1.3672   -1.7529 N   0  0  0  0  0  0  0  0  0  0  0  0
   -1.4217   -2.0664   -2.0984 N   0  0  0  0  0  0  0  0  0  0  0  0
   -1.2849    0.8112   -0.9337 C   0  0  0  0  0  0  0  0  0  0  0  0
   -1.3165    1.7948    0.0542 C   0  0  0  0  0  0  0  0  0  0  0  0
   -0.6620    1.5938    1.2718 C   0  0  0  0  0  0  0  0  0  0  0  0
    0.0400    0.4070    1.4922 C   0  0  0  0  0  0  0  0  0  0  0  0
    0.0880   -0.5756    0.5036 C   0  0  0  0  0  0  0  0  0  0  0  0
   -1.7786    0.9779   -1.8869 H   0  0  0  0  0  0  0  0  0  0  0  0
   -1.8527    2.7216   -0.1291 H   0  0  0  0  0  0  0  0  0  0  0  0
   -0.6901    2.3622    2.0390 H   0  0  0  0  0  0  0  0  0  0  0  0
    0.5609    0.2488    2.4323 H   0  0  0  0  0  0  0  0  0  0  0  0
    0.6489   -1.4929    0.6551 H   0  0  0  0  0  0  0  0  0  0  0  0
   -2.5810   -2.0792   -1.6572 Cl  0  0  0  0  0  0  0  0  0  0  0  0
  1  8  1  0  0  0  0
  2  1  1  0  0  0  0
  3  2  2  0  0  0  0
  3 14  1  0  0  0  0
  4  1  2  0  0  0  0
  4  5  1  0  0  0  0
  5  6  2  0  0  0  0
  6  7  1  0  0  0  0
  6 11  1  0  0  0  0
  7 12  1  0  0  0  0
  8 13  1  0  0  0  0
  8  7  2  0  0  0  0
  9  4  1  0  0  0  0
 10  5  1  0  0  0  0
M  END
