Coordinates from ORCA-job PhN2+~Cl-_B3LYPG-6-31G_dp-NX-Scan-d89-09-n800
 OpenBabel11261920353D

 14 14  0  0  1  0  0  0  0  0999 V2000
   -1.3219   -0.9405    0.0140 C   0  0  2  0  0  0  0  0  0  0  0  0
   -1.3387   -1.6738   -1.0779 N   0  0  0  0  0  0  0  0  0  0  0  0
   -1.2956   -2.2126   -2.0783 N   0  0  0  0  0  0  0  0  0  0  0  0
   -2.2680    0.1819    0.0538 C   0  0  0  0  0  0  0  0  0  0  0  0
   -1.7313    1.4111    0.1522 C   0  0  0  0  0  0  0  0  0  0  0  0
   -0.2532    1.5187    0.0181 C   0  0  1  0  0  0  0  0  0  0  0  0
    0.4721    0.4526    0.7609 C   0  0  0  0  0  0  0  0  0  0  0  0
   -0.0187   -0.7966    0.6757 C   0  0  0  0  0  0  0  0  0  0  0  0
   -3.3355   -0.0006   -0.0280 H   0  0  0  0  0  0  0  0  0  0  0  0
   -2.3341    2.3103    0.2235 H   0  0  0  0  0  0  0  0  0  0  0  0
    0.1433    2.5203    0.1596 H   0  0  0  0  0  0  0  0  0  0  0  0
    1.4095    0.6819    1.2564 H   0  0  0  0  0  0  0  0  0  0  0  0
    0.5104   -1.6733    1.0359 H   0  0  0  0  0  0  0  0  0  0  0  0
    0.1208    1.1712   -1.8835 Cl  0  0  0  0  0  0  0  0  0  0  0  0
  1  2  1  6  0  0  0
  1  4  1  0  0  0  0
  1  8  1  0  0  0  0
  3  2  1  0  0  0  0
  4  5  2  0  0  0  0
  5 10  1  0  0  0  0
  6  5  1  0  0  0  0
  6 11  1  1  0  0  0
  6  7  1  0  0  0  0
  7 12  1  0  0  0  0
  8  7  2  0  0  0  0
  8 13  1  0  0  0  0
  9  4  1  0  0  0  0
 14  6  1  0  0  0  0
M  RAD  3   1   2   2   2   3   3
M  END
