Coordinates from ORCA-job PhN2+~Cl-_B3LYPG-6-31G_dp-NX-Scan-d89-09-n800
 OpenBabel11261920353D

 14 14  0  0  1  0  0  0  0  0999 V2000
   -1.2753   -0.9050   -0.0992 C   0  0  2  0  0  0  0  0  0  0  0  0
   -1.4622   -1.8805   -0.9567 N   0  0  0  0  0  0  0  0  0  0  0  0
   -1.5851   -2.6782   -1.7597 N   0  0  0  0  0  0  0  0  0  0  0  0
   -2.2192    0.2007   -0.0783 C   0  0  0  0  0  0  0  0  0  0  0  0
   -1.7185    1.4334    0.1310 C   0  0  0  0  0  0  0  0  0  0  0  0
   -0.2458    1.6028    0.1234 C   0  0  1  0  0  0  0  0  0  0  0  0
    0.4894    0.4732    0.7404 C   0  0  0  0  0  0  0  0  0  0  0  0
    0.0235   -0.7748    0.5413 C   0  0  0  0  0  0  0  0  0  0  0  0
   -3.2747    0.0103   -0.2456 H   0  0  0  0  0  0  0  0  0  0  0  0
   -2.3557    2.3094    0.1839 H   0  0  0  0  0  0  0  0  0  0  0  0
    0.0969    2.5860    0.4328 H   0  0  0  0  0  0  0  0  0  0  0  0
    1.4388    0.6589    1.2302 H   0  0  0  0  0  0  0  0  0  0  0  0
    0.5773   -1.6653    0.8204 H   0  0  0  0  0  0  0  0  0  0  0  0
    0.2697    1.5800   -1.7815 Cl  0  0  0  0  0  0  0  0  0  0  0  0
  1  2  1  6  0  0  0
  1  4  1  0  0  0  0
  1  8  1  0  0  0  0
  3  2  1  0  0  0  0
  4  5  2  0  0  0  0
  5 10  1  0  0  0  0
  6  5  1  0  0  0  0
  6 11  1  1  0  0  0
  6  7  1  0  0  0  0
  7 12  1  0  0  0  0
  8  7  2  0  0  0  0
  8 13  1  0  0  0  0
  9  4  1  0  0  0  0
 14  6  1  0  0  0  0
M  RAD  3   1   2   2   2   3   3
M  END
