Coordinates from ORCA-job PhN2+~Cl-_B3LYPG-6-31G_dp-NX-Scan-d89-09-n800
 OpenBabel11261920353D

 14 14  0  0  0  0  0  0  0  0999 V2000
   -0.5817   -0.3902   -0.6994 C   0  0  0  0  0  0  0  0  0  0  0  0
   -0.3936   -1.3755   -1.7323 N   0  0  0  0  0  0  0  0  0  0  0  0
   -1.3689   -2.0720   -2.1411 N   0  0  0  0  0  0  0  0  0  0  0  0
   -1.2854    0.7996   -0.9328 C   0  0  0  0  0  0  0  0  0  0  0  0
   -1.3199    1.7858    0.0522 C   0  0  0  0  0  0  0  0  0  0  0  0
   -0.6647    1.5913    1.2704 C   0  0  0  0  0  0  0  0  0  0  0  0
    0.0448    0.4095    1.4950 C   0  0  0  0  0  0  0  0  0  0  0  0
    0.1025   -0.5739    0.5081 C   0  0  0  0  0  0  0  0  0  0  0  0
   -1.7828    0.9575   -1.8849 H   0  0  0  0  0  0  0  0  0  0  0  0
   -1.8607    2.7092   -0.1337 H   0  0  0  0  0  0  0  0  0  0  0  0
   -0.6979    2.3614    2.0355 H   0  0  0  0  0  0  0  0  0  0  0  0
    0.5657    0.2569    2.4357 H   0  0  0  0  0  0  0  0  0  0  0  0
    0.6709   -1.4863    0.6596 H   0  0  0  0  0  0  0  0  0  0  0  0
   -2.6691   -2.0226   -1.6501 Cl  0  0  0  0  0  0  0  0  0  0  0  0
  1  8  1  0  0  0  0
  2  1  1  0  0  0  0
  3  2  2  0  0  0  0
  3 14  1  0  0  0  0
  4  1  2  0  0  0  0
  4  5  1  0  0  0  0
  5  6  2  0  0  0  0
  6  7  1  0  0  0  0
  6 11  1  0  0  0  0
  7 12  1  0  0  0  0
  8 13  1  0  0  0  0
  8  7  2  0  0  0  0
  9  4  1  0  0  0  0
 10  5  1  0  0  0  0
M  END
