Coordinates from ORCA-job PhN2+~Cl-_B3LYPG-6-31G_dp-NX-Scan-d89-09-n800
 OpenBabel11261920353D

 14 14  0  0  1  0  0  0  0  0999 V2000
   -1.2502   -0.9252   -0.2203 C   0  0  0  0  0  0  0  0  0  0  0  0
   -1.6184   -2.0858   -0.7136 N   0  0  0  0  0  0  0  0  0  0  0  0
   -1.9261   -3.0853   -1.1693 N   0  0  0  0  0  0  0  0  0  0  0  0
   -2.1605    0.1975   -0.2731 C   0  0  0  0  0  0  0  0  0  0  0  0
   -1.6941    1.4290    0.0174 C   0  0  0  0  0  0  0  0  0  0  0  0
   -0.2516    1.6631    0.2394 C   0  0  1  0  0  0  0  0  0  0  0  0
    0.5223    0.4652    0.6287 C   0  0  0  0  0  0  0  0  0  0  0  0
    0.0727   -0.7738    0.3437 C   0  0  0  0  0  0  0  0  0  0  0  0
   -3.1995    0.0224   -0.5329 H   0  0  0  0  0  0  0  0  0  0  0  0
   -2.3560    2.2880   -0.0000 H   0  0  0  0  0  0  0  0  0  0  0  0
   -0.0358    2.5419    0.8432 H   0  0  0  0  0  0  0  0  0  0  0  0
    1.5047    0.6089    1.0647 H   0  0  0  0  0  0  0  0  0  0  0  0
    0.6676   -1.6602    0.5383 H   0  0  0  0  0  0  0  0  0  0  0  0
    0.4839    2.2648   -1.4838 Cl  0  0  0  0  0  0  0  0  0  0  0  0
  1  8  2  0  0  0  0
  2  1  1  0  0  0  0
  3  2  1  0  0  0  0
  4  1  1  0  0  0  0
  4  5  2  0  0  0  0
  5  6  1  0  0  0  0
  6  7  1  0  0  0  0
  6 11  1  1  0  0  0
  7 12  1  0  0  0  0
  8 13  1  0  0  0  0
  8  7  1  0  0  0  0
  9  4  1  0  0  0  0
 10  5  1  0  0  0  0
 14  6  1  0  0  0  0
M  RAD  3   2   2   3   3   7   2
M  END
