Coordinates from ORCA-job PhN2+~Cl-_B3LYPG-6-31G_dp-NX-Scan-d89-09-n800
 OpenBabel11261920353D

 14 14  0  0  1  0  0  0  0  0999 V2000
   -1.2761   -0.9053   -0.0968 C   0  0  2  0  0  0  0  0  0  0  0  0
   -1.4596   -1.8766   -0.9598 N   0  0  0  0  0  0  0  0  0  0  0  0
   -1.5793   -2.6698   -1.7677 N   0  0  0  0  0  0  0  0  0  0  0  0
   -2.2202    0.2004   -0.0754 C   0  0  0  0  0  0  0  0  0  0  0  0
   -1.7187    1.4332    0.1319 C   0  0  0  0  0  0  0  0  0  0  0  0
   -0.2458    1.6013    0.1213 C   0  0  1  0  0  0  0  0  0  0  0  0
    0.4890    0.4730    0.7413 C   0  0  0  0  0  0  0  0  0  0  0  0
    0.0227   -0.7751    0.5443 C   0  0  0  0  0  0  0  0  0  0  0  0
   -3.2760    0.0101   -0.2411 H   0  0  0  0  0  0  0  0  0  0  0  0
   -2.3553    2.3096    0.1854 H   0  0  0  0  0  0  0  0  0  0  0  0
    0.0983    2.5853    0.4267 H   0  0  0  0  0  0  0  0  0  0  0  0
    1.4380    0.6595    1.2315 H   0  0  0  0  0  0  0  0  0  0  0  0
    0.5759   -1.6655    0.8250 H   0  0  0  0  0  0  0  0  0  0  0  0
    0.2664    1.5705   -1.7844 Cl  0  0  0  0  0  0  0  0  0  0  0  0
  1  2  1  6  0  0  0
  1  4  1  0  0  0  0
  1  8  1  0  0  0  0
  3  2  1  0  0  0  0
  4  5  2  0  0  0  0
  5 10  1  0  0  0  0
  6  5  1  0  0  0  0
  6 11  1  1  0  0  0
  6  7  1  0  0  0  0
  7 12  1  0  0  0  0
  8  7  2  0  0  0  0
  8 13  1  0  0  0  0
  9  4  1  0  0  0  0
 14  6  1  0  0  0  0
M  RAD  3   1   2   2   2   3   3
M  END
