Coordinates from ORCA-job PhN2+~Cl-_B3LYPG-6-31G_dp-NX-Scan-d89-09-n800
 OpenBabel11261920353D

 14 14  0  0  1  0  0  0  0  0999 V2000
   -1.2962   -0.9176   -0.0432 C   0  0  2  0  0  0  0  0  0  0  0  0
   -1.4037   -1.7871   -1.0212 N   0  0  0  0  0  0  0  0  0  0  0  0
   -1.4483   -2.4709   -1.9297 N   0  0  0  0  0  0  0  0  0  0  0  0
   -2.2426    0.1936   -0.0124 C   0  0  0  0  0  0  0  0  0  0  0  0
   -1.7245    1.4258    0.1466 C   0  0  0  0  0  0  0  0  0  0  0  0
   -0.2479    1.5661    0.0737 C   0  0  1  0  0  0  0  0  0  0  0  0
    0.4808    0.4664    0.7554 C   0  0  0  0  0  0  0  0  0  0  0  0
    0.0035   -0.7835    0.6084 C   0  0  0  0  0  0  0  0  0  0  0  0
   -3.3041    0.0051   -0.1408 H   0  0  0  0  0  0  0  0  0  0  0  0
   -2.3462    2.3122    0.2109 H   0  0  0  0  0  0  0  0  0  0  0  0
    0.1238    2.5620    0.2973 H   0  0  0  0  0  0  0  0  0  0  0  0
    1.4233    0.6725    1.2508 H   0  0  0  0  0  0  0  0  0  0  0  0
    0.5450   -1.6692    0.9246 H   0  0  0  0  0  0  0  0  0  0  0  0
    0.1962    1.3754   -1.8382 Cl  0  0  0  0  0  0  0  0  0  0  0  0
  1  2  1  6  0  0  0
  1  4  1  0  0  0  0
  1  8  1  0  0  0  0
  3  2  1  0  0  0  0
  4  5  2  0  0  0  0
  5 10  1  0  0  0  0
  6  5  1  0  0  0  0
  6 11  1  1  0  0  0
  6  7  1  0  0  0  0
  7 12  1  0  0  0  0
  8  7  2  0  0  0  0
  8 13  1  0  0  0  0
  9  4  1  0  0  0  0
 14  6  1  0  0  0  0
M  RAD  3   1   2   2   2   3   3
M  END
