Coordinates from ORCA-job PhN2+~Cl-_B3LYPG-6-31G_dp-NX-Scan-d89-09-n800
 OpenBabel11261920353D

 14 13  0  0  0  0  0  0  0  0999 V2000
   -1.2812   -1.0257   -0.2654 C   0  0  0  0  0  0  0  0  0  0  0  0
   -1.7725   -2.2654   -0.4384 N   0  0  0  0  0  0  0  0  0  0  0  0
   -2.1957   -3.3148   -0.5585 N   0  0  0  0  0  0  0  0  0  0  0  0
   -2.1394    0.1069   -0.4423 C   0  0  0  0  0  0  0  0  0  0  0  0
   -1.6643    1.3532   -0.1149 C   0  0  0  0  0  0  0  0  0  0  0  0
   -0.3526    1.5333    0.4036 C   0  0  0  0  0  0  0  0  0  0  0  0
    0.5111    0.4067    0.4859 C   0  0  0  0  0  0  0  0  0  0  0  0
    0.0723   -0.8555    0.1689 C   0  0  0  0  0  0  0  0  0  0  0  0
   -3.1547   -0.0393   -0.7939 H   0  0  0  0  0  0  0  0  0  0  0  0
   -2.3091    2.2180   -0.2227 H   0  0  0  0  0  0  0  0  0  0  0  0
   -0.0859    2.4565    0.8926 H   0  0  0  0  0  0  0  0  0  0  0  0
    1.5264    0.5483    0.8381 H   0  0  0  0  0  0  0  0  0  0  0  0
    0.7138   -1.7233    0.2771 H   0  0  0  0  0  0  0  0  0  0  0  0
    0.8906    3.5517   -0.9480 Cl  0  0  0  0  0  0  0  0  0  0  0  0
  1  8  1  0  0  0  0
  2  1  1  0  0  0  0
  3  2  1  0  0  0  0
  4  1  2  0  0  0  0
  4  5  1  0  0  0  0
  5  6  2  0  0  0  0
  6  7  1  0  0  0  0
  6 11  1  0  0  0  0
  7 12  1  0  0  0  0
  8 13  1  0  0  0  0
  8  7  2  0  0  0  0
  9  4  1  0  0  0  0
 10  5  1  0  0  0  0
M  RAD  3   2   2   3   3  14   2
M  END
