Coordinates from ORCA-job PhN2+~Cl-_B3LYPG-6-31G_dp-NX-Scan-d89-09-n800
 OpenBabel11261920353D

 14 14  0  0  1  0  0  0  0  0999 V2000
   -1.3436   -0.9638    0.0556 C   0  0  2  0  0  0  0  0  0  0  0  0
   -1.2845   -1.5717   -1.1129 N   0  0  0  0  0  0  0  0  0  0  0  0
   -1.1574   -1.9559   -2.1747 N   0  0  0  0  0  0  0  0  0  0  0  0
   -2.2890    0.1692    0.1058 C   0  0  0  0  0  0  0  0  0  0  0  0
   -1.7373    1.3940    0.1511 C   0  0  0  0  0  0  0  0  0  0  0  0
   -0.2602    1.4733   -0.0284 C   0  0  1  0  0  0  0  0  0  0  0  0
    0.4640    0.4363    0.7597 C   0  0  0  0  0  0  0  0  0  0  0  0
   -0.0382   -0.8100    0.7285 C   0  0  0  0  0  0  0  0  0  0  0  0
   -3.3602   -0.0058    0.0653 H   0  0  0  0  0  0  0  0  0  0  0  0
   -2.3236    2.3044    0.2235 H   0  0  0  0  0  0  0  0  0  0  0  0
    0.1548    2.4747    0.0460 H   0  0  0  0  0  0  0  0  0  0  0  0
    1.3993    0.6848    1.2506 H   0  0  0  0  0  0  0  0  0  0  0  0
    0.4806   -1.6763    1.1271 H   0  0  0  0  0  0  0  0  0  0  0  0
    0.0544    0.9975   -1.9149 Cl  0  0  0  0  0  0  0  0  0  0  0  0
  1  2  1  6  0  0  0
  1  4  1  0  0  0  0
  1  8  1  0  0  0  0
  3  2  1  0  0  0  0
  4  5  2  0  0  0  0
  5 10  1  0  0  0  0
  6 11  1  1  0  0  0
  6  5  1  0  0  0  0
  6  7  1  0  0  0  0
  7 12  1  0  0  0  0
  8  7  2  0  0  0  0
  8 13  1  0  0  0  0
  9  4  1  0  0  0  0
 14  6  1  0  0  0  0
M  RAD  3   1   2   2   2   3   3
M  END
