Coordinates from ORCA-job PhN2+~Cl-_B3LYPG-6-31G_dp-NX-Scan-d89-09-n800
 OpenBabel11261920353D

 14 13  0  0  0  0  0  0  0  0999 V2000
   -1.3451   -1.0922   -0.1426 C   0  0  0  0  0  0  0  0  0  0  0  0
   -1.8624   -2.3410   -0.2290 N   0  0  0  0  0  0  0  0  0  0  0  0
   -2.2942   -3.3837   -0.3015 N   0  0  0  0  0  0  0  0  0  0  0  0
   -2.2067    0.0197   -0.3462 C   0  0  0  0  0  0  0  0  0  0  0  0
   -1.6544    1.2825   -0.2522 C   0  0  0  0  0  0  0  0  0  0  0  0
   -0.2874    1.4623    0.0347 C   0  0  0  0  0  0  0  0  0  0  0  0
    0.5403    0.3400    0.2317 C   0  0  0  0  0  0  0  0  0  0  0  0
    0.0380   -0.9442    0.1491 C   0  0  0  0  0  0  0  0  0  0  0  0
   -3.2563   -0.1399   -0.5681 H   0  0  0  0  0  0  0  0  0  0  0  0
   -2.2810    2.1557   -0.4020 H   0  0  0  0  0  0  0  0  0  0  0  0
    0.1360    2.4792    0.1051 H   0  0  0  0  0  0  0  0  0  0  0  0
    1.5916    0.4937    0.4532 H   0  0  0  0  0  0  0  0  0  0  0  0
    0.6586   -1.8209    0.2982 H   0  0  0  0  0  0  0  0  0  0  0  0
    0.9819    4.4395    0.2519 Cl  0  0  0  0  0  0  0  0  0  0  0  0
  1  8  2  0  0  0  0
  2  1  1  0  0  0  0
  3  2  1  0  0  0  0
  4  5  2  0  0  0  0
  4  1  1  0  0  0  0
  5  6  1  0  0  0  0
  6 11  1  0  0  0  0
  6  7  2  0  0  0  0
  7 12  1  0  0  0  0
  8  7  1  0  0  0  0
  8 13  1  0  0  0  0
  9  4  1  0  0  0  0
 10  5  1  0  0  0  0
M  RAD  3   2   2   3   3  14   2
M  END
