Coordinates from ORCA-job PhN2+~Cl-_B3LYPG-6-31G_dp-NX-Scan-d89-09-n800
 OpenBabel11261920353D

 14 13  0  0  0  0  0  0  0  0999 V2000
   -1.3487   -1.1006   -0.1431 C   0  0  0  0  0  0  0  0  0  0  0  0
   -1.8683   -2.3513   -0.2298 N   0  0  0  0  0  0  0  0  0  0  0  0
   -2.3017   -3.3946   -0.3027 N   0  0  0  0  0  0  0  0  0  0  0  0
   -2.2061    0.0149   -0.3461 C   0  0  0  0  0  0  0  0  0  0  0  0
   -1.6522    1.2783   -0.2519 C   0  0  0  0  0  0  0  0  0  0  0  0
   -0.2852    1.4599    0.0350 C   0  0  0  0  0  0  0  0  0  0  0  0
    0.5390    0.3345    0.2313 C   0  0  0  0  0  0  0  0  0  0  0  0
    0.0344   -0.9501    0.1484 C   0  0  0  0  0  0  0  0  0  0  0  0
   -3.2562   -0.1405   -0.5680 H   0  0  0  0  0  0  0  0  0  0  0  0
   -2.2801    2.1505   -0.4019 H   0  0  0  0  0  0  0  0  0  0  0  0
    0.1377    2.4759    0.1053 H   0  0  0  0  0  0  0  0  0  0  0  0
    1.5908    0.4837    0.4530 H   0  0  0  0  0  0  0  0  0  0  0  0
    0.6564   -1.8258    0.2978 H   0  0  0  0  0  0  0  0  0  0  0  0
    0.9993    4.5158    0.2549 Cl  0  0  0  0  0  0  0  0  0  0  0  0
  1  8  2  0  0  0  0
  2  1  1  0  0  0  0
  3  2  1  0  0  0  0
  4  5  2  0  0  0  0
  4  1  1  0  0  0  0
  5  6  1  0  0  0  0
  6 11  1  0  0  0  0
  6  7  2  0  0  0  0
  7 12  1  0  0  0  0
  8  7  1  0  0  0  0
  8 13  1  0  0  0  0
  9  4  1  0  0  0  0
 10  5  1  0  0  0  0
M  RAD  3   2   2   3   3  14   2
M  END
