Coordinates from ORCA-job PhN2+~Cl-_B3LYPG-6-31G_dp-NX-Scan-d89-09-n800
 OpenBabel11261920353D

 14 13  0  0  0  0  0  0  0  0999 V2000
   -1.3147   -1.0705   -0.2145 C   0  0  0  0  0  0  0  0  0  0  0  0
   -1.8117   -2.3174   -0.3809 N   0  0  0  0  0  0  0  0  0  0  0  0
   -2.2330   -3.3630   -0.5034 N   0  0  0  0  0  0  0  0  0  0  0  0
   -2.1701    0.0513   -0.4173 C   0  0  0  0  0  0  0  0  0  0  0  0
   -1.6648    1.3088   -0.1589 C   0  0  0  0  0  0  0  0  0  0  0  0
   -0.3478    1.4859    0.3188 C   0  0  0  0  0  0  0  0  0  0  0  0
    0.5014    0.3644    0.4412 C   0  0  0  0  0  0  0  0  0  0  0  0
    0.0410   -0.9127    0.1953 C   0  0  0  0  0  0  0  0  0  0  0  0
   -3.1931   -0.1004   -0.7429 H   0  0  0  0  0  0  0  0  0  0  0  0
   -2.2948    2.1799   -0.3024 H   0  0  0  0  0  0  0  0  0  0  0  0
    0.0181    2.4835    0.5656 H   0  0  0  0  0  0  0  0  0  0  0  0
    1.5280    0.5120    0.7585 H   0  0  0  0  0  0  0  0  0  0  0  0
    0.6705   -1.7854    0.3295 H   0  0  0  0  0  0  0  0  0  0  0  0
    1.0301    4.1144   -0.6064 Cl  0  0  0  0  0  0  0  0  0  0  0  0
  1  8  1  0  0  0  0
  2  1  1  0  0  0  0
  3  2  1  0  0  0  0
  4  1  2  0  0  0  0
  4  5  1  0  0  0  0
  5  6  2  0  0  0  0
  6  7  1  0  0  0  0
  6 11  1  0  0  0  0
  7 12  1  0  0  0  0
  8 13  1  0  0  0  0
  8  7  2  0  0  0  0
  9  4  1  0  0  0  0
 10  5  1  0  0  0  0
M  RAD  3   2   2   3   3  14   2
M  END
