Coordinates from ORCA-job PhN2+~Cl-_B3LYPG-6-31G_dp-NX-Scan-d89-09-n800
 OpenBabel11261920353D

 14 13  0  0  0  0  0  0  0  0999 V2000
   -1.2999   -1.0499   -0.2355 C   0  0  0  0  0  0  0  0  0  0  0  0
   -1.7901   -2.2936   -0.4191 N   0  0  0  0  0  0  0  0  0  0  0  0
   -2.2085   -3.3403   -0.5524 N   0  0  0  0  0  0  0  0  0  0  0  0
   -2.1596    0.0742   -0.4222 C   0  0  0  0  0  0  0  0  0  0  0  0
   -1.6698    1.3268   -0.1253 C   0  0  0  0  0  0  0  0  0  0  0  0
   -0.3582    1.5020    0.3747 C   0  0  0  0  0  0  0  0  0  0  0  0
    0.5007    0.3824    0.4745 C   0  0  0  0  0  0  0  0  0  0  0  0
    0.0530   -0.8886    0.1893 C   0  0  0  0  0  0  0  0  0  0  0  0
   -3.1778   -0.0762   -0.7635 H   0  0  0  0  0  0  0  0  0  0  0  0
   -2.3055    2.1961   -0.2522 H   0  0  0  0  0  0  0  0  0  0  0  0
   -0.0233    2.4797    0.7026 H   0  0  0  0  0  0  0  0  0  0  0  0
    1.5222    0.5296    0.8071 H   0  0  0  0  0  0  0  0  0  0  0  0
    0.6887   -1.7592    0.3070 H   0  0  0  0  0  0  0  0  0  0  0  0
    0.9872    3.8678   -0.8024 Cl  0  0  0  0  0  0  0  0  0  0  0  0
  1  8  1  0  0  0  0
  2  1  1  0  0  0  0
  3  2  1  0  0  0  0
  4  1  2  0  0  0  0
  4  5  1  0  0  0  0
  5  6  2  0  0  0  0
  6  7  1  0  0  0  0
  6 11  1  0  0  0  0
  7 12  1  0  0  0  0
  8 13  1  0  0  0  0
  8  7  2  0  0  0  0
  9  4  1  0  0  0  0
 10  5  1  0  0  0  0
M  RAD  3   2   2   3   3  14   2
M  END
