Coordinates from ORCA-job PhN2+~Cl-_B3LYPG-6-31G_dp-NX-Scan-d89-09-n800
 OpenBabel11261920353D

 14 14  0  0  1  0  0  0  0  0999 V2000
   -1.2816   -0.9080   -0.0810 C   0  0  2  0  0  0  0  0  0  0  0  0
   -1.4431   -1.8509   -0.9794 N   0  0  0  0  0  0  0  0  0  0  0  0
   -1.5411   -2.6139   -1.8184 N   0  0  0  0  0  0  0  0  0  0  0  0
   -2.2267    0.1988   -0.0563 C   0  0  0  0  0  0  0  0  0  0  0  0
   -1.7205    1.4316    0.1374 C   0  0  0  0  0  0  0  0  0  0  0  0
   -0.2462    1.5916    0.1074 C   0  0  1  0  0  0  0  0  0  0  0  0
    0.4865    0.4716    0.7467 C   0  0  0  0  0  0  0  0  0  0  0  0
    0.0171   -0.7772    0.5636 C   0  0  0  0  0  0  0  0  0  0  0  0
   -3.2843    0.0086   -0.2114 H   0  0  0  0  0  0  0  0  0  0  0  0
   -2.3529    2.3108    0.1947 H   0  0  0  0  0  0  0  0  0  0  0  0
    0.1068    2.5799    0.3875 H   0  0  0  0  0  0  0  0  0  0  0  0
    1.4333    0.6639    1.2390 H   0  0  0  0  0  0  0  0  0  0  0  0
    0.5667   -1.6666    0.8544 H   0  0  0  0  0  0  0  0  0  0  0  0
    0.2450    1.5104   -1.8020 Cl  0  0  0  0  0  0  0  0  0  0  0  0
  1  2  1  6  0  0  0
  1  4  1  0  0  0  0
  1  8  1  0  0  0  0
  3  2  1  0  0  0  0
  4  5  2  0  0  0  0
  5 10  1  0  0  0  0
  6  5  1  0  0  0  0
  6 11  1  1  0  0  0
  6  7  1  0  0  0  0
  7 12  1  0  0  0  0
  8  7  2  0  0  0  0
  8 13  1  0  0  0  0
  9  4  1  0  0  0  0
 14  6  1  0  0  0  0
M  RAD  3   1   2   2   2   3   3
M  END
