Coordinates from ORCA-job PhN2+~Cl-_B3LYPG-6-31G_dp-NX-Scan-d89-09-n800
 OpenBabel11261920353D

 14 13  0  0  0  0  0  0  0  0999 V2000
   -1.2902   -1.0369   -0.2503 C   0  0  0  0  0  0  0  0  0  0  0  0
   -1.7794   -2.2786   -0.4342 N   0  0  0  0  0  0  0  0  0  0  0  0
   -2.1989   -3.3264   -0.5655 N   0  0  0  0  0  0  0  0  0  0  0  0
   -2.1502    0.0906   -0.4302 C   0  0  0  0  0  0  0  0  0  0  0  0
   -1.6686    1.3398   -0.1142 C   0  0  0  0  0  0  0  0  0  0  0  0
   -0.3583    1.5156    0.3969 C   0  0  0  0  0  0  0  0  0  0  0  0
    0.5042    0.3943    0.4860 C   0  0  0  0  0  0  0  0  0  0  0  0
    0.0622   -0.8722    0.1813 C   0  0  0  0  0  0  0  0  0  0  0  0
   -3.1662   -0.0579   -0.7786 H   0  0  0  0  0  0  0  0  0  0  0  0
   -2.3084    2.2073   -0.2310 H   0  0  0  0  0  0  0  0  0  0  0  0
   -0.0523    2.4719    0.7963 H   0  0  0  0  0  0  0  0  0  0  0  0
    1.5224    0.5394    0.8290 H   0  0  0  0  0  0  0  0  0  0  0  0
    0.7010   -1.7415    0.2923 H   0  0  0  0  0  0  0  0  0  0  0  0
    0.9419    3.7055   -0.8954 Cl  0  0  0  0  0  0  0  0  0  0  0  0
  1  8  1  0  0  0  0
  2  1  1  0  0  0  0
  3  2  1  0  0  0  0
  4  1  2  0  0  0  0
  4  5  1  0  0  0  0
  5  6  2  0  0  0  0
  6  7  1  0  0  0  0
  6 11  1  0  0  0  0
  7 12  1  0  0  0  0
  8 13  1  0  0  0  0
  8  7  2  0  0  0  0
  9  4  1  0  0  0  0
 10  5  1  0  0  0  0
M  RAD  3   2   2   3   3  14   2
M  END
