Coordinates from ORCA-job PhN2+~Cl-_B3LYPG-6-31G_dp-NX-Scan-d89-09-n800
 OpenBabel11261920353D

 14 13  0  0  0  0  0  0  0  0999 V2000
   -1.3003   -1.0508   -0.2355 C   0  0  0  0  0  0  0  0  0  0  0  0
   -1.7909   -2.2947   -0.4177 N   0  0  0  0  0  0  0  0  0  0  0  0
   -2.2097   -3.3414   -0.5497 N   0  0  0  0  0  0  0  0  0  0  0  0
   -2.1597    0.0735   -0.4227 C   0  0  0  0  0  0  0  0  0  0  0  0
   -1.6695    1.3262   -0.1264 C   0  0  0  0  0  0  0  0  0  0  0  0
   -0.3580    1.5017    0.3734 C   0  0  0  0  0  0  0  0  0  0  0  0
    0.5006    0.3820    0.4733 C   0  0  0  0  0  0  0  0  0  0  0  0
    0.0527   -0.8892    0.1887 C   0  0  0  0  0  0  0  0  0  0  0  0
   -3.1780   -0.0767   -0.7636 H   0  0  0  0  0  0  0  0  0  0  0  0
   -2.3055    2.1953   -0.2534 H   0  0  0  0  0  0  0  0  0  0  0  0
   -0.0231    2.4795    0.7015 H   0  0  0  0  0  0  0  0  0  0  0  0
    1.5222    0.5289    0.8059 H   0  0  0  0  0  0  0  0  0  0  0  0
    0.6885   -1.7597    0.3069 H   0  0  0  0  0  0  0  0  0  0  0  0
    0.9897    3.8761   -0.7984 Cl  0  0  0  0  0  0  0  0  0  0  0  0
  1  8  1  0  0  0  0
  2  1  1  0  0  0  0
  3  2  1  0  0  0  0
  4  1  2  0  0  0  0
  4  5  1  0  0  0  0
  5  6  2  0  0  0  0
  6  7  1  0  0  0  0
  6 11  1  0  0  0  0
  7 12  1  0  0  0  0
  8 13  1  0  0  0  0
  8  7  2  0  0  0  0
  9  4  1  0  0  0  0
 10  5  1  0  0  0  0
M  RAD  3   2   2   3   3  14   2
M  END
