Coordinates from ORCA-job PhN2+~Cl-_B3LYPG-6-31G_dp-NX-Scan-d89-09-n800
 OpenBabel11261920353D

 14 14  0  0  1  0  0  0  0  0999 V2000
   -1.2535   -0.9577   -0.2588 C   0  0  0  0  0  0  0  0  0  0  0  0
   -1.6975   -2.1620   -0.5467 N   0  0  0  0  0  0  0  0  0  0  0  0
   -2.0826   -3.2084   -0.7992 N   0  0  0  0  0  0  0  0  0  0  0  0
   -2.1313    0.1857   -0.3810 C   0  0  0  0  0  0  0  0  0  0  0  0
   -1.6692    1.4196   -0.0910 C   0  0  0  0  0  0  0  0  0  0  0  0
   -0.2586    1.6719    0.2788 C   0  0  1  0  0  0  0  0  0  0  0  0
    0.5488    0.4553    0.5207 C   0  0  0  0  0  0  0  0  0  0  0  0
    0.0952   -0.7824    0.2337 C   0  0  0  0  0  0  0  0  0  0  0  0
   -3.1615    0.0254   -0.6822 H   0  0  0  0  0  0  0  0  0  0  0  0
   -2.3293    2.2773   -0.1647 H   0  0  0  0  0  0  0  0  0  0  0  0
   -0.1466    2.4247    1.0589 H   0  0  0  0  0  0  0  0  0  0  0  0
    1.5533    0.5885    0.9075 H   0  0  0  0  0  0  0  0  0  0  0  0
    0.7136   -1.6603    0.3905 H   0  0  0  0  0  0  0  0  0  0  0  0
    0.5784    2.6731   -1.1841 Cl  0  0  0  0  0  0  0  0  0  0  0  0
  1  8  2  0  0  0  0
  2  1  1  0  0  0  0
  3  2  1  0  0  0  0
  4  1  1  0  0  0  0
  4  5  2  0  0  0  0
  5  6  1  0  0  0  0
  6  7  1  0  0  0  0
  6 11  1  1  0  0  0
  7 12  1  0  0  0  0
  8 13  1  0  0  0  0
  8  7  1  0  0  0  0
  9  4  1  0  0  0  0
 10  5  1  0  0  0  0
 14  6  1  0  0  0  0
M  RAD  3   2   2   3   3   7   2
M  END
