Coordinates from ORCA-job PhN2+~Cl-_B3LYPG-6-31G_dp-NX-Scan-d89-09-n800
 OpenBabel11261920353D

 14 14  0  0  1  0  0  0  0  0999 V2000
   -1.2628   -0.9842   -0.2667 C   0  0  0  0  0  0  0  0  0  0  0  0
   -1.7500   -2.1999   -0.4159 N   0  0  0  0  0  0  0  0  0  0  0  0
   -2.1769   -3.2570   -0.5352 N   0  0  0  0  0  0  0  0  0  0  0  0
   -2.1116    0.1758   -0.4510 C   0  0  0  0  0  0  0  0  0  0  0  0
   -1.6437    1.4144   -0.1858 C   0  0  0  0  0  0  0  0  0  0  0  0
   -0.2628    1.6720    0.2937 C   0  0  1  0  0  0  0  0  0  0  0  0
    0.5716    0.4514    0.4251 C   0  0  0  0  0  0  0  0  0  0  0  0
    0.1076   -0.7889    0.1615 C   0  0  0  0  0  0  0  0  0  0  0  0
   -3.1349    0.0270   -0.7805 H   0  0  0  0  0  0  0  0  0  0  0  0
   -2.2955    2.2727   -0.3100 H   0  0  0  0  0  0  0  0  0  0  0  0
   -0.2389    2.2955    1.1895 H   0  0  0  0  0  0  0  0  0  0  0  0
    1.5936    0.5817    0.7643 H   0  0  0  0  0  0  0  0  0  0  0  0
    0.7428   -1.6593    0.2921 H   0  0  0  0  0  0  0  0  0  0  0  0
    0.6207    2.9493   -0.8988 Cl  0  0  0  0  0  0  0  0  0  0  0  0
  1  8  2  0  0  0  0
  2  1  1  0  0  0  0
  3  2  1  0  0  0  0
  4  1  1  0  0  0  0
  4  5  2  0  0  0  0
  5  6  1  0  0  0  0
  6  7  1  0  0  0  0
  6 11  1  1  0  0  0
  7 12  1  0  0  0  0
  8 13  1  0  0  0  0
  8  7  1  0  0  0  0
  9  4  1  0  0  0  0
 10  5  1  0  0  0  0
 14  6  1  0  0  0  0
M  RAD  3   2   2   3   3   7   2
M  END
