Coordinates from ORCA-job PhN2+~Cl-_B3LYPG-6-31G_dp-NX-Scan-d89-09-n800
 OpenBabel11261920353D

 14 14  0  0  1  0  0  0  0  0999 V2000
   -1.2514   -0.9172   -0.2041 C   0  0  2  0  0  0  0  0  0  0  0  0
   -1.5927   -2.0567   -0.7607 N   0  0  0  0  0  0  0  0  0  0  0  0
   -1.8726   -3.0330   -1.2792 N   0  0  0  0  0  0  0  0  0  0  0  0
   -2.1699    0.2001   -0.2393 C   0  0  0  0  0  0  0  0  0  0  0  0
   -1.6997    1.4315    0.0444 C   0  0  0  0  0  0  0  0  0  0  0  0
   -0.2497    1.6572    0.2231 C   0  0  1  0  0  0  0  0  0  0  0  0
    0.5154    0.4683    0.6554 C   0  0  0  0  0  0  0  0  0  0  0  0
    0.0650   -0.7720    0.3781 C   0  0  0  0  0  0  0  0  0  0  0  0
   -3.2116    0.0211   -0.4851 H   0  0  0  0  0  0  0  0  0  0  0  0
   -2.3598    2.2920    0.0420 H   0  0  0  0  0  0  0  0  0  0  0  0
   -0.0068    2.5635    0.7728 H   0  0  0  0  0  0  0  0  0  0  0  0
    1.4914    0.6170    1.1038 H   0  0  0  0  0  0  0  0  0  0  0  0
    0.6525   -1.6604    0.5854 H   0  0  0  0  0  0  0  0  0  0  0  0
    0.4489    2.1393   -1.5545 Cl  0  0  0  0  0  0  0  0  0  0  0  0
  1  2  1  6  0  0  0
  1  8  1  0  0  0  0
  3  2  1  0  0  0  0
  4  1  1  0  0  0  0
  4  5  2  0  0  0  0
  5  6  1  0  0  0  0
  6  7  1  0  0  0  0
  6 11  1  1  0  0  0
  7 12  1  0  0  0  0
  8 13  1  0  0  0  0
  8  7  2  0  0  0  0
  9  4  1  0  0  0  0
 10  5  1  0  0  0  0
 14  6  1  0  0  0  0
M  RAD  3   1   2   2   2   3   3
M  END
