Coordinates from ORCA-job PhN2+~Cl-_B3LYPG-6-31G_dp-NX-Scan-d89-09-n800
 OpenBabel11261920353D

 14 13  0  0  0  0  0  0  0  0999 V2000
   -0.6445   -0.5717   -0.3779 C   0  0  0  0  0  0  0  0  0  0  0  0
   -0.6819   -1.7228   -1.1813 N   0  0  0  0  0  0  0  0  0  0  0  0
   -1.1084   -2.3000   -2.0703 N   0  0  0  0  0  0  0  0  0  0  0  0
   -1.4987    0.4941   -0.6936 C   0  0  0  0  0  0  0  0  0  0  0  0
   -1.4332    1.6195    0.1246 C   0  0  0  0  0  0  0  0  0  0  0  0
   -0.5491    1.6634    1.2071 C   0  0  0  0  0  0  0  0  0  0  0  0
    0.2906    0.5804    1.4962 C   0  0  0  0  0  0  0  0  0  0  0  0
    0.2508   -0.5573    0.6991 C   0  0  0  0  0  0  0  0  0  0  0  0
   -2.1680    0.4024   -1.5511 H   0  0  0  0  0  0  0  0  0  0  0  0
   -2.0781    2.4663   -0.0873 H   0  0  0  0  0  0  0  0  0  0  0  0
   -0.5120    2.5499    1.8335 H   0  0  0  0  0  0  0  0  0  0  0  0
    0.9714    0.6256    2.3396 H   0  0  0  0  0  0  0  0  0  0  0  0
    0.8858   -1.4153    0.8917 H   0  0  0  0  0  0  0  0  0  0  0  0
   -2.9655   -0.8838   -3.3480 Cl  0  0  0  0  0  0  0  0  0  0  0  0
  1  8  1  0  0  0  0
  2  1  1  0  0  0  0
  3  2  2  0  0  0  0
  4  1  2  0  0  0  0
  4  5  1  0  0  0  0
  5  6  2  0  0  0  0
  6  7  1  0  0  0  0
  6 11  1  0  0  0  0
  7 12  1  0  0  0  0
  8 13  1  0  0  0  0
  8  7  2  0  0  0  0
  9  4  1  0  0  0  0
 10  5  1  0  0  0  0
M  RAD  2   3   2  14   2
M  END
