Coordinates from ORCA-job PhN2+~Cl-_B3LYPG-6-31G_dp-NX-Scan-d89-09-n800
 OpenBabel11261920353D

 14 14  0  0  1  0  0  0  0  0999 V2000
   -1.2732   -1.0041   -0.2612 C   0  0  0  0  0  0  0  0  0  0  0  0
   -1.7823   -2.2232   -0.3356 N   0  0  0  0  0  0  0  0  0  0  0  0
   -2.2282   -3.2813   -0.3854 N   0  0  0  0  0  0  0  0  0  0  0  0
   -2.1000    0.1676   -0.4875 C   0  0  0  0  0  0  0  0  0  0  0  0
   -1.6236    1.4110   -0.2465 C   0  0  0  0  0  0  0  0  0  0  0  0
   -0.2652    1.6692    0.2978 C   0  0  1  0  0  0  0  0  0  0  0  0
    0.5837    0.4514    0.3622 C   0  0  0  0  0  0  0  0  0  0  0  0
    0.1108   -0.7934    0.1225 C   0  0  0  0  0  0  0  0  0  0  0  0
   -3.1196    0.0278   -0.8323 H   0  0  0  0  0  0  0  0  0  0  0  0
   -2.2695    2.2682   -0.4040 H   0  0  0  0  0  0  0  0  0  0  0  0
   -0.2904    2.2119    1.2449 H   0  0  0  0  0  0  0  0  0  0  0  0
    1.6161    0.5786    0.6697 H   0  0  0  0  0  0  0  0  0  0  0  0
    0.7570   -1.6578    0.2394 H   0  0  0  0  0  0  0  0  0  0  0  0
    0.6435    3.1250   -0.7018 Cl  0  0  0  0  0  0  0  0  0  0  0  0
  1  8  2  0  0  0  0
  2  1  1  0  0  0  0
  3  2  1  0  0  0  0
  4  1  1  0  0  0  0
  4  5  2  0  0  0  0
  5  6  1  0  0  0  0
  6  7  1  0  0  0  0
  6 11  1  1  0  0  0
  7 12  1  0  0  0  0
  8 13  1  0  0  0  0
  8  7  1  0  0  0  0
  9  4  1  0  0  0  0
 10  5  1  0  0  0  0
 14  6  1  0  0  0  0
M  RAD  3   2   2   3   3   7   2
M  END
