Coordinates from ORCA-job PhN2+~Cl-_B3LYPG-6-31G_dp-NX-Scan-d89-09-n800
 OpenBabel11261920353D

 14 14  0  0  1  0  0  0  0  0999 V2000
   -1.2500   -0.9302   -0.2287 C   0  0  0  0  0  0  0  0  0  0  0  0
   -1.6326   -2.1011   -0.6860 N   0  0  0  0  0  0  0  0  0  0  0  0
   -1.9554   -3.1118   -1.1060 N   0  0  0  0  0  0  0  0  0  0  0  0
   -2.1552    0.1958   -0.2922 C   0  0  0  0  0  0  0  0  0  0  0  0
   -1.6905    1.4274    0.0007 C   0  0  0  0  0  0  0  0  0  0  0  0
   -0.2528    1.6657    0.2478 C   0  0  1  0  0  0  0  0  0  0  0  0
    0.5264    0.4634    0.6123 C   0  0  0  0  0  0  0  0  0  0  0  0
    0.0770   -0.7750    0.3242 C   0  0  0  0  0  0  0  0  0  0  0  0
   -3.1927    0.0231   -0.5596 H   0  0  0  0  0  0  0  0  0  0  0  0
   -2.3530    2.2858   -0.0255 H   0  0  0  0  0  0  0  0  0  0  0  0
   -0.0532    2.5268    0.8824 H   0  0  0  0  0  0  0  0  0  0  0  0
    1.5125    0.6047    1.0408 H   0  0  0  0  0  0  0  0  0  0  0  0
    0.6760   -1.6601    0.5119 H   0  0  0  0  0  0  0  0  0  0  0  0
    0.5027    2.3364   -1.4397 Cl  0  0  0  0  0  0  0  0  0  0  0  0
  1  8  2  0  0  0  0
  2  1  1  0  0  0  0
  3  2  1  0  0  0  0
  4  1  1  0  0  0  0
  4  5  2  0  0  0  0
  5  6  1  0  0  0  0
  6  7  1  0  0  0  0
  6 11  1  1  0  0  0
  7 12  1  0  0  0  0
  8 13  1  0  0  0  0
  8  7  1  0  0  0  0
  9  4  1  0  0  0  0
 10  5  1  0  0  0  0
 14  6  1  0  0  0  0
M  RAD  3   2   2   3   3   7   2
M  END
