Coordinates from ORCA-job PhN2+~Cl-_B3LYPG-6-31G_dp-NX-Scan-d89-09-n800
 OpenBabel11261920353D

 14 14  0  0  0  0  0  0  0  0999 V2000
   -0.6893   -0.5488   -0.4214 C   0  0  0  0  0  0  0  0  0  0  0  0
   -0.6955   -1.7180   -1.2055 N   0  0  0  0  0  0  0  0  0  0  0  0
   -1.1908   -2.2341   -2.1301 N   0  0  0  0  0  0  0  0  0  0  0  0
   -1.5207    0.5493   -0.6915 C   0  0  0  0  0  0  0  0  0  0  0  0
   -1.4319    1.6573    0.1478 C   0  0  0  0  0  0  0  0  0  0  0  0
   -0.5402    1.6688    1.2246 C   0  0  0  0  0  0  0  0  0  0  0  0
    0.2805    0.5657    1.4793 C   0  0  0  0  0  0  0  0  0  0  0  0
    0.2102   -0.5515    0.6546 C   0  0  0  0  0  0  0  0  0  0  0  0
   -2.2013    0.5127   -1.5332 H   0  0  0  0  0  0  0  0  0  0  0  0
   -2.0648    2.5184   -0.0426 H   0  0  0  0  0  0  0  0  0  0  0  0
   -0.4843    2.5421    1.8679 H   0  0  0  0  0  0  0  0  0  0  0  0
    0.9710    0.5778    2.3164 H   0  0  0  0  0  0  0  0  0  0  0  0
    0.8327   -1.4238    0.8226 H   0  0  0  0  0  0  0  0  0  0  0  0
   -2.7165   -1.1654   -3.2066 Cl  0  0  0  0  0  0  0  0  0  0  0  0
  1  8  1  0  0  0  0
  2  1  1  0  0  0  0
  3  2  2  0  0  0  0
  4  1  2  0  0  0  0
  4  5  1  0  0  0  0
  5  6  2  0  0  0  0
  6  7  1  0  0  0  0
  6 11  1  0  0  0  0
  7 12  1  0  0  0  0
  8 13  1  0  0  0  0
  8  7  2  0  0  0  0
  9  4  1  0  0  0  0
 10  5  1  0  0  0  0
 14  3  1  0  0  0  0
M  END
