Coordinates from ORCA-job PhN2+~Cl-_B3LYPG-6-31G_dp-NX-Scan-d89-09-n800
 OpenBabel11261920353D

 14 14  0  0  1  0  0  0  0  0999 V2000
   -1.2848   -0.9098   -0.0723 C   0  0  2  0  0  0  0  0  0  0  0  0
   -1.4341   -1.8367   -0.9894 N   0  0  0  0  0  0  0  0  0  0  0  0
   -1.5203   -2.5827   -1.8448 N   0  0  0  0  0  0  0  0  0  0  0  0
   -2.2303    0.1978   -0.0462 C   0  0  0  0  0  0  0  0  0  0  0  0
   -1.7214    1.4305    0.1399 C   0  0  0  0  0  0  0  0  0  0  0  0
   -0.2465    1.5861    0.0999 C   0  0  1  0  0  0  0  0  0  0  0  0
    0.4852    0.4707    0.7491 C   0  0  0  0  0  0  0  0  0  0  0  0
    0.0140   -0.7784    0.5739 C   0  0  0  0  0  0  0  0  0  0  0  0
   -3.2888    0.0078   -0.1954 H   0  0  0  0  0  0  0  0  0  0  0  0
   -2.3514    2.3113    0.1990 H   0  0  0  0  0  0  0  0  0  0  0  0
    0.1110    2.5765    0.3667 H   0  0  0  0  0  0  0  0  0  0  0  0
    1.4309    0.6660    1.2424 H   0  0  0  0  0  0  0  0  0  0  0  0
    0.5618   -1.6672    0.8703 H   0  0  0  0  0  0  0  0  0  0  0  0
    0.2338    1.4790   -1.8109 Cl  0  0  0  0  0  0  0  0  0  0  0  0
  1  2  1  6  0  0  0
  1  4  1  0  0  0  0
  1  8  1  0  0  0  0
  3  2  1  0  0  0  0
  4  5  2  0  0  0  0
  5 10  1  0  0  0  0
  6  5  1  0  0  0  0
  6 11  1  1  0  0  0
  6  7  1  0  0  0  0
  7 12  1  0  0  0  0
  8  7  2  0  0  0  0
  8 13  1  0  0  0  0
  9  4  1  0  0  0  0
 14  6  1  0  0  0  0
M  RAD  3   1   2   2   2   3   3
M  END
