Coordinates from ORCA-job PhN2+~Cl-_B3LYPG-6-31G_dp-NX-Scan-d89-09-n800
 OpenBabel11261920353D

 14 14  0  0  1  0  0  0  0  0999 V2000
   -1.2564   -0.9682   -0.2647 C   0  0  0  0  0  0  0  0  0  0  0  0
   -1.7193   -2.1788   -0.4942 N   0  0  0  0  0  0  0  0  0  0  0  0
   -2.1231   -3.2315   -0.6899 N   0  0  0  0  0  0  0  0  0  0  0  0
   -2.1231    0.1818   -0.4108 C   0  0  0  0  0  0  0  0  0  0  0  0
   -1.6597    1.4172   -0.1282 C   0  0  0  0  0  0  0  0  0  0  0  0
   -0.2604    1.6724    0.2862 C   0  0  1  0  0  0  0  0  0  0  0  0
    0.5579    0.4531    0.4833 C   0  0  0  0  0  0  0  0  0  0  0  0
    0.1008   -0.7852    0.2030 C   0  0  0  0  0  0  0  0  0  0  0  0
   -3.1505    0.0260   -0.7238 H   0  0  0  0  0  0  0  0  0  0  0  0
   -2.3171    2.2752   -0.2213 H   0  0  0  0  0  0  0  0  0  0  0  0
   -0.1835    2.3761    1.1158 H   0  0  0  0  0  0  0  0  0  0  0  0
    1.5694    0.5849    0.8521 H   0  0  0  0  0  0  0  0  0  0  0  0
    0.7261   -1.6602    0.3492 H   0  0  0  0  0  0  0  0  0  0  0  0
    0.5982    2.7879   -1.0745 Cl  0  0  0  0  0  0  0  0  0  0  0  0
  1  8  2  0  0  0  0
  2  1  1  0  0  0  0
  3  2  1  0  0  0  0
  4  1  1  0  0  0  0
  4  5  2  0  0  0  0
  5  6  1  0  0  0  0
  6  7  1  0  0  0  0
  6 11  1  1  0  0  0
  7 12  1  0  0  0  0
  8 13  1  0  0  0  0
  8  7  1  0  0  0  0
  9  4  1  0  0  0  0
 10  5  1  0  0  0  0
 14  6  1  0  0  0  0
M  RAD  3   2   2   3   3   7   2
M  END
