Coordinates from ORCA-job PhN2+~Cl-_B3LYPG-6-31G_dp-NX-Scan-d89-09-n800
 OpenBabel11261920353D

 14 14  0  0  1  0  0  0  0  0999 V2000
   -1.3292   -0.9480    0.0285 C   0  0  2  0  0  0  0  0  0  0  0  0
   -1.3204   -1.6401   -1.0911 N   0  0  0  0  0  0  0  0  0  0  0  0
   -1.2510   -2.1324   -2.1136 N   0  0  0  0  0  0  0  0  0  0  0  0
   -2.2750    0.1780    0.0714 C   0  0  0  0  0  0  0  0  0  0  0  0
   -1.7333    1.4059    0.1522 C   0  0  0  0  0  0  0  0  0  0  0  0
   -0.2552    1.5041    0.0024 C   0  0  1  0  0  0  0  0  0  0  0  0
    0.4695    0.4476    0.7610 C   0  0  0  0  0  0  0  0  0  0  0  0
   -0.0251   -0.8008    0.6936 C   0  0  0  0  0  0  0  0  0  0  0  0
   -3.3439   -0.0023    0.0036 H   0  0  0  0  0  0  0  0  0  0  0  0
   -2.3306    2.3088    0.2245 H   0  0  0  0  0  0  0  0  0  0  0  0
    0.1475    2.5061    0.1218 H   0  0  0  0  0  0  0  0  0  0  0  0
    1.4059    0.6834    1.2556 H   0  0  0  0  0  0  0  0  0  0  0  0
    0.5005   -1.6743    1.0668 H   0  0  0  0  0  0  0  0  0  0  0  0
    0.0993    1.1145   -1.8943 Cl  0  0  0  0  0  0  0  0  0  0  0  0
  1  2  1  6  0  0  0
  1  4  1  0  0  0  0
  1  8  1  0  0  0  0
  3  2  1  0  0  0  0
  4  5  2  0  0  0  0
  5 10  1  0  0  0  0
  6 11  1  1  0  0  0
  6  5  1  0  0  0  0
  6  7  1  0  0  0  0
  7 12  1  0  0  0  0
  8  7  2  0  0  0  0
  8 13  1  0  0  0  0
  9  4  1  0  0  0  0
 14  6  1  0  0  0  0
M  RAD  3   1   2   2   2   3   3
M  END
