Coordinates from ORCA-job PhN2+~Cl-_B3LYPG-6-31G_dp-NX-Scan-d89-09-n800
 OpenBabel11261920353D

 14 13  0  0  0  0  0  0  0  0999 V2000
   -1.3576   -1.1217   -0.1445 C   0  0  0  0  0  0  0  0  0  0  0  0
   -1.8799   -2.3765   -0.2313 N   0  0  0  0  0  0  0  0  0  0  0  0
   -2.3148   -3.4217   -0.3046 N   0  0  0  0  0  0  0  0  0  0  0  0
   -2.2094   -0.0018   -0.3464 C   0  0  0  0  0  0  0  0  0  0  0  0
   -1.6545    1.2638   -0.2524 C   0  0  0  0  0  0  0  0  0  0  0  0
   -0.2880    1.4482    0.0340 C   0  0  0  0  0  0  0  0  0  0  0  0
    0.5321    0.3202    0.2297 C   0  0  0  0  0  0  0  0  0  0  0  0
    0.0249   -0.9660    0.1466 C   0  0  0  0  0  0  0  0  0  0  0  0
   -3.2603   -0.1515   -0.5685 H   0  0  0  0  0  0  0  0  0  0  0  0
   -2.2860    2.1330   -0.4034 H   0  0  0  0  0  0  0  0  0  0  0  0
    0.1335    2.4607    0.1038 H   0  0  0  0  0  0  0  0  0  0  0  0
    1.5847    0.4629    0.4516 H   0  0  0  0  0  0  0  0  0  0  0  0
    0.6503   -1.8390    0.2970 H   0  0  0  0  0  0  0  0  0  0  0  0
    1.0840    4.7401    0.2707 Cl  0  0  0  0  0  0  0  0  0  0  0  0
  1  8  2  0  0  0  0
  2  1  1  0  0  0  0
  3  2  1  0  0  0  0
  4  5  2  0  0  0  0
  4  1  1  0  0  0  0
  5  6  1  0  0  0  0
  6 11  1  0  0  0  0
  6  7  2  0  0  0  0
  7 12  1  0  0  0  0
  8  7  1  0  0  0  0
  8 13  1  0  0  0  0
  9  4  1  0  0  0  0
 10  5  1  0  0  0  0
M  RAD  3   2   2   3   3  14   2
M  END
