Coordinates from ORCA-job PhN2+~Cl-_B3LYPG-6-31G_dp-NX-Scan-d89-09-n800
 OpenBabel11261920353D

 14 13  0  0  0  0  0  0  0  0999 V2000
   -1.3430   -1.0872   -0.1422 C   0  0  0  0  0  0  0  0  0  0  0  0
   -1.8575   -2.3352   -0.2282 N   0  0  0  0  0  0  0  0  0  0  0  0
   -2.2870   -3.3781   -0.3004 N   0  0  0  0  0  0  0  0  0  0  0  0
   -2.2084    0.0214   -0.3466 C   0  0  0  0  0  0  0  0  0  0  0  0
   -1.6584    1.2843   -0.2530 C   0  0  0  0  0  0  0  0  0  0  0  0
   -0.2916    1.4642    0.0340 C   0  0  0  0  0  0  0  0  0  0  0  0
    0.5396    0.3448    0.2317 C   0  0  0  0  0  0  0  0  0  0  0  0
    0.0400   -0.9395    0.1495 C   0  0  0  0  0  0  0  0  0  0  0  0
   -3.2575   -0.1421   -0.5683 H   0  0  0  0  0  0  0  0  0  0  0  0
   -2.2851    2.1576   -0.4028 H   0  0  0  0  0  0  0  0  0  0  0  0
    0.1324    2.4814    0.1044 H   0  0  0  0  0  0  0  0  0  0  0  0
    1.5904    0.5029    0.4530 H   0  0  0  0  0  0  0  0  0  0  0  0
    0.6605   -1.8164    0.2985 H   0  0  0  0  0  0  0  0  0  0  0  0
    0.9848    4.3925    0.2528 Cl  0  0  0  0  0  0  0  0  0  0  0  0
  1  8  2  0  0  0  0
  2  1  1  0  0  0  0
  3  2  1  0  0  0  0
  4  5  2  0  0  0  0
  4  1  1  0  0  0  0
  5  6  1  0  0  0  0
  6 11  1  0  0  0  0
  6  7  2  0  0  0  0
  7 12  1  0  0  0  0
  8  7  1  0  0  0  0
  8 13  1  0  0  0  0
  9  4  1  0  0  0  0
 10  5  1  0  0  0  0
M  RAD  3   2   2   3   3  14   2
M  END
