Coordinates from ORCA-job PhN2+~Cl-_B3LYPG-6-31G_dp-NX-Scan-d89-09-n800
 OpenBabel11261920353D

 14 14  0  0  1  0  0  0  0  0999 V2000
   -1.3406   -0.9605    0.0501 C   0  0  2  0  0  0  0  0  0  0  0  0
   -1.2918   -1.5859   -1.1090 N   0  0  0  0  0  0  0  0  0  0  0  0
   -1.1775   -1.9949   -2.1630 N   0  0  0  0  0  0  0  0  0  0  0  0
   -2.2861    0.1711    0.0988 C   0  0  0  0  0  0  0  0  0  0  0  0
   -1.7365    1.3966    0.1514 C   0  0  0  0  0  0  0  0  0  0  0  0
   -0.2590    1.4799   -0.0222 C   0  0  1  0  0  0  0  0  0  0  0  0
    0.4653    0.4388    0.7601 C   0  0  0  0  0  0  0  0  0  0  0  0
   -0.0354   -0.8080    0.7213 C   0  0  0  0  0  0  0  0  0  0  0  0
   -3.3569   -0.0050    0.0527 H   0  0  0  0  0  0  0  0  0  0  0  0
   -2.3251    2.3054    0.2240 H   0  0  0  0  0  0  0  0  0  0  0  0
    0.1534    2.4816    0.0619 H   0  0  0  0  0  0  0  0  0  0  0  0
    1.4007    0.6847    1.2519 H   0  0  0  0  0  0  0  0  0  0  0  0
    0.4847   -1.6758    1.1148 H   0  0  0  0  0  0  0  0  0  0  0  0
    0.0642    1.0228   -1.9106 Cl  0  0  0  0  0  0  0  0  0  0  0  0
  1  2  1  6  0  0  0
  1  4  1  0  0  0  0
  1  8  1  0  0  0  0
  3  2  1  0  0  0  0
  4  5  2  0  0  0  0
  5 10  1  0  0  0  0
  6 11  1  1  0  0  0
  6  5  1  0  0  0  0
  6  7  1  0  0  0  0
  7 12  1  0  0  0  0
  8  7  2  0  0  0  0
  8 13  1  0  0  0  0
  9  4  1  0  0  0  0
 14  6  1  0  0  0  0
M  RAD  3   1   2   2   2   3   3
M  END
