Coordinates from ORCA-job PhN2+~Cl-_B3LYPG-6-31G_dp-NX-Scan-d89-09-n800
 OpenBabel11261920353D

 14 14  0  0  1  0  0  0  0  0999 V2000
   -1.2942   -0.9161   -0.0481 C   0  0  2  0  0  0  0  0  0  0  0  0
   -1.4089   -1.7957   -1.0161 N   0  0  0  0  0  0  0  0  0  0  0  0
   -1.4604   -2.4900   -1.9162 N   0  0  0  0  0  0  0  0  0  0  0  0
   -2.2405    0.1944   -0.0179 C   0  0  0  0  0  0  0  0  0  0  0  0
   -1.7240    1.4267    0.1457 C   0  0  0  0  0  0  0  0  0  0  0  0
   -0.2476    1.5696    0.0781 C   0  0  1  0  0  0  0  0  0  0  0  0
    0.4815    0.4673    0.7546 C   0  0  0  0  0  0  0  0  0  0  0  0
    0.0052   -0.7825    0.6028 C   0  0  0  0  0  0  0  0  0  0  0  0
   -3.3016    0.0056   -0.1498 H   0  0  0  0  0  0  0  0  0  0  0  0
   -2.3471    2.3122    0.2092 H   0  0  0  0  0  0  0  0  0  0  0  0
    0.1219    2.5647    0.3086 H   0  0  0  0  0  0  0  0  0  0  0  0
    1.4245    0.6715    1.2497 H   0  0  0  0  0  0  0  0  0  0  0  0
    0.5478   -1.6689    0.9156 H   0  0  0  0  0  0  0  0  0  0  0  0
    0.2024    1.3922   -1.8340 Cl  0  0  0  0  0  0  0  0  0  0  0  0
  1  2  1  6  0  0  0
  1  4  1  0  0  0  0
  1  8  1  0  0  0  0
  3  2  1  0  0  0  0
  4  5  2  0  0  0  0
  5 10  1  0  0  0  0
  6  5  1  0  0  0  0
  6 11  1  1  0  0  0
  6  7  1  0  0  0  0
  7 12  1  0  0  0  0
  8  7  2  0  0  0  0
  8 13  1  0  0  0  0
  9  4  1  0  0  0  0
 14  6  1  0  0  0  0
M  RAD  3   1   2   2   2   3   3
M  END
