Coordinates from ORCA-job PhN2+~Cl-_B3LYPG-6-31G_dp-NX-Scan-d89-09-n800
 OpenBabel11261920353D

 14 14  0  0  1  0  0  0  0  0999 V2000
   -1.2987   -0.9196   -0.0371 C   0  0  2  0  0  0  0  0  0  0  0  0
   -1.3973   -1.7763   -1.0275 N   0  0  0  0  0  0  0  0  0  0  0  0
   -1.4333   -2.4467   -1.9462 N   0  0  0  0  0  0  0  0  0  0  0  0
   -2.2451    0.1926   -0.0055 C   0  0  0  0  0  0  0  0  0  0  0  0
   -1.7252    1.4246    0.1476 C   0  0  0  0  0  0  0  0  0  0  0  0
   -0.2483    1.5617    0.0682 C   0  0  1  0  0  0  0  0  0  0  0  0
    0.4799    0.4653    0.7564 C   0  0  0  0  0  0  0  0  0  0  0  0
    0.0012   -0.7846    0.6154 C   0  0  0  0  0  0  0  0  0  0  0  0
   -3.3073    0.0046   -0.1295 H   0  0  0  0  0  0  0  0  0  0  0  0
   -2.3450    2.3123    0.2128 H   0  0  0  0  0  0  0  0  0  0  0  0
    0.1262    2.5584    0.2832 H   0  0  0  0  0  0  0  0  0  0  0  0
    1.4218    0.6737    1.2520 H   0  0  0  0  0  0  0  0  0  0  0  0
    0.5416   -1.6697    0.9359 H   0  0  0  0  0  0  0  0  0  0  0  0
    0.1885    1.3545   -1.8433 Cl  0  0  0  0  0  0  0  0  0  0  0  0
  1  2  1  6  0  0  0
  1  4  1  0  0  0  0
  1  8  1  0  0  0  0
  3  2  1  0  0  0  0
  4  5  2  0  0  0  0
  5 10  1  0  0  0  0
  6  5  1  0  0  0  0
  6 11  1  1  0  0  0
  6  7  1  0  0  0  0
  7 12  1  0  0  0  0
  8  7  2  0  0  0  0
  8 13  1  0  0  0  0
  9  4  1  0  0  0  0
 14  6  1  0  0  0  0
M  RAD  3   1   2   2   2   3   3
M  END
