Coordinates from ORCA-job PhN2+~Cl-_B3LYPG-6-31G_dp-NX-Scan-d89-09-n800
 OpenBabel11261920353D

 14 14  0  0  1  0  0  0  0  0999 V2000
   -1.3028   -0.9229   -0.0276 C   0  0  2  0  0  0  0  0  0  0  0  0
   -1.3869   -1.7588   -1.0373 N   0  0  0  0  0  0  0  0  0  0  0  0
   -1.4093   -2.4075   -1.9718 N   0  0  0  0  0  0  0  0  0  0  0  0
   -2.2492    0.1909    0.0053 C   0  0  0  0  0  0  0  0  0  0  0  0
   -1.7262    1.4225    0.1489 C   0  0  0  0  0  0  0  0  0  0  0  0
   -0.2490    1.5545    0.0593 C   0  0  1  0  0  0  0  0  0  0  0  0
    0.4786    0.4634    0.7577 C   0  0  0  0  0  0  0  0  0  0  0  0
   -0.0023   -0.7866    0.6265 C   0  0  0  0  0  0  0  0  0  0  0  0
   -3.3124    0.0037   -0.1114 H   0  0  0  0  0  0  0  0  0  0  0  0
   -2.3431    2.3123    0.2155 H   0  0  0  0  0  0  0  0  0  0  0  0
    0.1297    2.5525    0.2609 H   0  0  0  0  0  0  0  0  0  0  0  0
    1.4195    0.6754    1.2536 H   0  0  0  0  0  0  0  0  0  0  0  0
    0.5361   -1.6704    0.9538 H   0  0  0  0  0  0  0  0  0  0  0  0
    0.1764    1.3215   -1.8512 Cl  0  0  0  0  0  0  0  0  0  0  0  0
  1  2  1  6  0  0  0
  1  4  1  0  0  0  0
  1  8  1  0  0  0  0
  3  2  1  0  0  0  0
  4  5  2  0  0  0  0
  5 10  1  0  0  0  0
  6  5  1  0  0  0  0
  6 11  1  1  0  0  0
  6  7  1  0  0  0  0
  7 12  1  0  0  0  0
  8  7  2  0  0  0  0
  8 13  1  0  0  0  0
  9  4  1  0  0  0  0
 14  6  1  0  0  0  0
M  RAD  3   1   2   2   2   3   3
M  END
