Coordinates from ORCA-job PhN2+~Cl-_B3LYPG-6-31G_dp-NX-Scan-d89-09-n800
 OpenBabel11261920353D

 14 14  0  0  1  0  0  0  0  0999 V2000
   -1.2509   -0.9198   -0.2099 C   0  0  0  0  0  0  0  0  0  0  0  0
   -1.6017   -2.0670   -0.7446 N   0  0  0  0  0  0  0  0  0  0  0  0
   -1.8913   -3.0519   -1.2415 N   0  0  0  0  0  0  0  0  0  0  0  0
   -2.1666    0.1993   -0.2510 C   0  0  0  0  0  0  0  0  0  0  0  0
   -1.6979    1.4307    0.0354 C   0  0  0  0  0  0  0  0  0  0  0  0
   -0.2503    1.6594    0.2290 C   0  0  1  0  0  0  0  0  0  0  0  0
    0.5177    0.4672    0.6465 C   0  0  0  0  0  0  0  0  0  0  0  0
    0.0677   -0.7726    0.3662 C   0  0  0  0  0  0  0  0  0  0  0  0
   -3.2074    0.0216   -0.5017 H   0  0  0  0  0  0  0  0  0  0  0  0
   -2.3587    2.2906    0.0279 H   0  0  0  0  0  0  0  0  0  0  0  0
   -0.0166    2.5567    0.7973 H   0  0  0  0  0  0  0  0  0  0  0  0
    1.4959    0.6142    1.0907 H   0  0  0  0  0  0  0  0  0  0  0  0
    0.6578   -1.6603    0.5690 H   0  0  0  0  0  0  0  0  0  0  0  0
    0.4612    2.1826   -1.5311 Cl  0  0  0  0  0  0  0  0  0  0  0  0
  1  8  2  0  0  0  0
  2  1  1  0  0  0  0
  3  2  1  0  0  0  0
  4  1  1  0  0  0  0
  4  5  2  0  0  0  0
  5  6  1  0  0  0  0
  6  7  1  0  0  0  0
  6 11  1  1  0  0  0
  7 12  1  0  0  0  0
  8 13  1  0  0  0  0
  8  7  1  0  0  0  0
  9  4  1  0  0  0  0
 10  5  1  0  0  0  0
 14  6  1  0  0  0  0
M  RAD  3   2   2   3   3   7   2
M  END
