Coordinates from ORCA-job PhN2+~Cl-_B3LYPG-6-31G_dp-NX-Scan-d89-09-n800
 OpenBabel11261920353D

 14 14  0  0  1  0  0  0  0  0999 V2000
   -1.2577   -0.9720   -0.2659 C   0  0  0  0  0  0  0  0  0  0  0  0
   -1.7269   -2.1842   -0.4754 N   0  0  0  0  0  0  0  0  0  0  0  0
   -2.1364   -3.2385   -0.6519 N   0  0  0  0  0  0  0  0  0  0  0  0
   -2.1203    0.1804   -0.4209 C   0  0  0  0  0  0  0  0  0  0  0  0
   -1.6561    1.4165   -0.1418 C   0  0  0  0  0  0  0  0  0  0  0  0
   -0.2610    1.6724    0.2883 C   0  0  1  0  0  0  0  0  0  0  0  0
    0.5612    0.4525    0.4696 C   0  0  0  0  0  0  0  0  0  0  0  0
    0.1026   -0.7861    0.1927 C   0  0  0  0  0  0  0  0  0  0  0  0
   -3.1467    0.0263   -0.7379 H   0  0  0  0  0  0  0  0  0  0  0  0
   -2.3123    2.2746   -0.2420 H   0  0  0  0  0  0  0  0  0  0  0  0
   -0.1968    2.3576    1.1348 H   0  0  0  0  0  0  0  0  0  0  0  0
    1.5751    0.5839    0.8317 H   0  0  0  0  0  0  0  0  0  0  0  0
    0.7302   -1.6601    0.3350 H   0  0  0  0  0  0  0  0  0  0  0  0
    0.6043    2.8274   -1.0338 Cl  0  0  0  0  0  0  0  0  0  0  0  0
  1  8  2  0  0  0  0
  2  1  1  0  0  0  0
  3  2  1  0  0  0  0
  4  1  1  0  0  0  0
  4  5  2  0  0  0  0
  5  6  1  0  0  0  0
  6  7  1  0  0  0  0
  6 11  1  1  0  0  0
  7 12  1  0  0  0  0
  8 13  1  0  0  0  0
  8  7  1  0  0  0  0
  9  4  1  0  0  0  0
 10  5  1  0  0  0  0
 14  6  1  0  0  0  0
M  RAD  3   2   2   3   3   7   2
M  END
