Coordinates from ORCA-job PhN2+~Cl-_B3LYPG-6-31G_dp-NX-Scan-d89-09-n800
 OpenBabel11261920353D

 14 14  0  0  1  0  0  0  0  0999 V2000
   -1.2517   -0.9158   -0.2008 C   0  0  2  0  0  0  0  0  0  0  0  0
   -1.5876   -2.0507   -0.7698 N   0  0  0  0  0  0  0  0  0  0  0  0
   -1.8618   -3.0219   -1.3004 N   0  0  0  0  0  0  0  0  0  0  0  0
   -2.1717    0.2005   -0.2326 C   0  0  0  0  0  0  0  0  0  0  0  0
   -1.7007    1.4320    0.0494 C   0  0  0  0  0  0  0  0  0  0  0  0
   -0.2494    1.6558    0.2197 C   0  0  1  0  0  0  0  0  0  0  0  0
    0.5141    0.4688    0.6603 C   0  0  0  0  0  0  0  0  0  0  0  0
    0.0635   -0.7717    0.3849 C   0  0  0  0  0  0  0  0  0  0  0  0
   -3.2140    0.0207   -0.4756 H   0  0  0  0  0  0  0  0  0  0  0  0
   -2.3603    2.2928    0.0499 H   0  0  0  0  0  0  0  0  0  0  0  0
   -0.0013    2.5670    0.7588 H   0  0  0  0  0  0  0  0  0  0  0  0
    1.4888    0.6187    1.1111 H   0  0  0  0  0  0  0  0  0  0  0  0
    0.6495   -1.6604    0.5947 H   0  0  0  0  0  0  0  0  0  0  0  0
    0.4418    2.1148   -1.5673 Cl  0  0  0  0  0  0  0  0  0  0  0  0
  1  2  1  6  0  0  0
  1  8  1  0  0  0  0
  3  2  1  0  0  0  0
  4  1  1  0  0  0  0
  4  5  2  0  0  0  0
  5 10  1  0  0  0  0
  5  6  1  0  0  0  0
  6  7  1  0  0  0  0
  6 11  1  1  0  0  0
  7 12  1  0  0  0  0
  8 13  1  0  0  0  0
  8  7  2  0  0  0  0
  9  4  1  0  0  0  0
 14  6  1  0  0  0  0
M  RAD  3   1   2   2   2   3   3
M  END
