Coordinates from ORCA-job PhN2+~Cl-_B3LYPG-6-31G_dp-NX-Scan-d89-09-n800
 OpenBabel11261920353D

 14 14  0  0  1  0  0  0  0  0999 V2000
   -1.2504   -0.9230   -0.2164 C   0  0  0  0  0  0  0  0  0  0  0  0
   -1.6119   -2.0786   -0.7257 N   0  0  0  0  0  0  0  0  0  0  0  0
   -1.9127   -3.0727   -1.1974 N   0  0  0  0  0  0  0  0  0  0  0  0
   -2.1628    0.1982   -0.2645 C   0  0  0  0  0  0  0  0  0  0  0  0
   -1.6956    1.4297    0.0245 C   0  0  0  0  0  0  0  0  0  0  0  0
   -0.2511    1.6618    0.2354 C   0  0  1  0  0  0  0  0  0  0  0  0
    0.5205    0.4660    0.6358 C   0  0  0  0  0  0  0  0  0  0  0  0
    0.0708   -0.7733    0.3524 C   0  0  0  0  0  0  0  0  0  0  0  0
   -3.2025    0.0221   -0.5208 H   0  0  0  0  0  0  0  0  0  0  0  0
   -2.3571    2.2890    0.0110 H   0  0  0  0  0  0  0  0  0  0  0  0
   -0.0282    2.5479    0.8255 H   0  0  0  0  0  0  0  0  0  0  0  0
    1.5013    0.6109    1.0750 H   0  0  0  0  0  0  0  0  0  0  0  0
    0.6638   -1.6602    0.5502 H   0  0  0  0  0  0  0  0  0  0  0  0
    0.4752    2.2329   -1.5026 Cl  0  0  0  0  0  0  0  0  0  0  0  0
  1  8  2  0  0  0  0
  2  1  1  0  0  0  0
  3  2  1  0  0  0  0
  4  1  1  0  0  0  0
  4  5  2  0  0  0  0
  5  6  1  0  0  0  0
  6  7  1  0  0  0  0
  6 11  1  1  0  0  0
  7 12  1  0  0  0  0
  8 13  1  0  0  0  0
  8  7  1  0  0  0  0
  9  4  1  0  0  0  0
 10  5  1  0  0  0  0
 14  6  1  0  0  0  0
M  RAD  3   2   2   3   3   7   2
M  END
