Coordinates from ORCA-job PhN2+~Cl-_B3LYPG-6-31G_dp-NX-Scan-d89-09-n800
 OpenBabel11261920353D

 14 14  0  0  1  0  0  0  0  0999 V2000
   -1.2680   -0.9029   -0.1228 C   0  0  2  0  0  0  0  0  0  0  0  0
   -1.4876   -1.9183   -0.9243 N   0  0  0  0  0  0  0  0  0  0  0  0
   -1.6430   -2.7589   -1.6767 N   0  0  0  0  0  0  0  0  0  0  0  0
   -2.2092    0.2024   -0.1083 C   0  0  0  0  0  0  0  0  0  0  0  0
   -1.7156    1.4349    0.1202 C   0  0  0  0  0  0  0  0  0  0  0  0
   -0.2456    1.6164    0.1441 C   0  0  1  0  0  0  0  0  0  0  0  0
    0.4935    0.4742    0.7299 C   0  0  0  0  0  0  0  0  0  0  0  0
    0.0319   -0.7724    0.5109 C   0  0  0  0  0  0  0  0  0  0  0  0
   -3.2622    0.0126   -0.2914 H   0  0  0  0  0  0  0  0  0  0  0  0
   -2.3588    2.3068    0.1659 H   0  0  0  0  0  0  0  0  0  0  0  0
    0.0820    2.5911    0.4950 H   0  0  0  0  0  0  0  0  0  0  0  0
    1.4468    0.6515    1.2151 H   0  0  0  0  0  0  0  0  0  0  0  0
    0.5915   -1.6638    0.7751 H   0  0  0  0  0  0  0  0  0  0  0  0
    0.3035    1.6772   -1.7504 Cl  0  0  0  0  0  0  0  0  0  0  0  0
  1  2  1  6  0  0  0
  1  4  1  0  0  0  0
  1  8  1  0  0  0  0
  3  2  1  0  0  0  0
  4  5  2  0  0  0  0
  5  6  1  0  0  0  0
  5 10  1  0  0  0  0
  6 11  1  1  0  0  0
  6  7  1  0  0  0  0
  7 12  1  0  0  0  0
  8  7  2  0  0  0  0
  8 13  1  0  0  0  0
  9  4  1  0  0  0  0
 14  6  1  0  0  0  0
M  RAD  3   1   2   2   2   3   3
M  END
