Coordinates from ORCA-job PhN2+~Cl-_B3LYPG-6-31G_dp-NX-Scan-d89-09-n800
 OpenBabel11261920353D

 14 13  0  0  0  0  0  0  0  0999 V2000
   -1.3086   -1.0620   -0.2231 C   0  0  0  0  0  0  0  0  0  0  0  0
   -1.8022   -2.3075   -0.3987 N   0  0  0  0  0  0  0  0  0  0  0  0
   -2.2217   -3.3535   -0.5276 N   0  0  0  0  0  0  0  0  0  0  0  0
   -2.1662    0.0605   -0.4185 C   0  0  0  0  0  0  0  0  0  0  0  0
   -1.6675    1.3160   -0.1428 C   0  0  0  0  0  0  0  0  0  0  0  0
   -0.3532    1.4919    0.3449 C   0  0  0  0  0  0  0  0  0  0  0  0
    0.5004    0.3716    0.4571 C   0  0  0  0  0  0  0  0  0  0  0  0
    0.0457   -0.9031    0.1936 C   0  0  0  0  0  0  0  0  0  0  0  0
   -3.1870   -0.0908   -0.7512 H   0  0  0  0  0  0  0  0  0  0  0  0
   -2.2997    2.1866   -0.2794 H   0  0  0  0  0  0  0  0  0  0  0  0
    0.0016    2.4827    0.6215 H   0  0  0  0  0  0  0  0  0  0  0  0
    1.5249    0.5192    0.7810 H   0  0  0  0  0  0  0  0  0  0  0  0
    0.6778   -1.7750    0.3205 H   0  0  0  0  0  0  0  0  0  0  0  0
    1.0148    4.0141   -0.6950 Cl  0  0  0  0  0  0  0  0  0  0  0  0
  1  8  1  0  0  0  0
  2  1  1  0  0  0  0
  3  2  1  0  0  0  0
  4  1  2  0  0  0  0
  4  5  1  0  0  0  0
  5  6  2  0  0  0  0
  6  7  1  0  0  0  0
  6 11  1  0  0  0  0
  7 12  1  0  0  0  0
  8 13  1  0  0  0  0
  8  7  2  0  0  0  0
  9  4  1  0  0  0  0
 10  5  1  0  0  0  0
M  RAD  3   2   2   3   3  14   2
M  END
