Coordinates from ORCA-job PhN2+~Cl-_B3LYPG-6-31G_dp-NX-Scan-d89-09-n800
 OpenBabel11261920353D

 14 14  0  0  1  0  0  0  0  0999 V2000
   -1.2532   -0.9563   -0.2578 C   0  0  0  0  0  0  0  0  0  0  0  0
   -1.6946   -2.1597   -0.5533 N   0  0  0  0  0  0  0  0  0  0  0  0
   -2.0773   -3.2050   -0.8132 N   0  0  0  0  0  0  0  0  0  0  0  0
   -2.1324    0.1862   -0.3770 C   0  0  0  0  0  0  0  0  0  0  0  0
   -1.6704    1.4199   -0.0864 C   0  0  0  0  0  0  0  0  0  0  0  0
   -0.2583    1.6718    0.2777 C   0  0  1  0  0  0  0  0  0  0  0  0
    0.5477    0.4556    0.5253 C   0  0  0  0  0  0  0  0  0  0  0  0
    0.0944   -0.7821    0.2377 C   0  0  0  0  0  0  0  0  0  0  0  0
   -3.1629    0.0253   -0.6768 H   0  0  0  0  0  0  0  0  0  0  0  0
   -2.3307    2.2776   -0.1578 H   0  0  0  0  0  0  0  0  0  0  0  0
   -0.1420    2.4304    1.0513 H   0  0  0  0  0  0  0  0  0  0  0  0
    1.5513    0.5891    0.9142 H   0  0  0  0  0  0  0  0  0  0  0  0
    0.7120   -1.6603    0.3958 H   0  0  0  0  0  0  0  0  0  0  0  0
    0.5755    2.6582   -1.1975 Cl  0  0  0  0  0  0  0  0  0  0  0  0
  1  8  2  0  0  0  0
  2  1  1  0  0  0  0
  3  2  1  0  0  0  0
  4  1  1  0  0  0  0
  4  5  2  0  0  0  0
  5  6  1  0  0  0  0
  6  7  1  0  0  0  0
  6 11  1  1  0  0  0
  7 12  1  0  0  0  0
  8 13  1  0  0  0  0
  8  7  1  0  0  0  0
  9  4  1  0  0  0  0
 10  5  1  0  0  0  0
 14  6  1  0  0  0  0
M  RAD  3   2   2   3   3   7   2
M  END
