Coordinates from ORCA-job PhN2+~Cl-_B3LYPG-6-31G_dp-NX-Scan-d89-09-n800
 OpenBabel11261920353D

 14 14  0  0  1  0  0  0  0  0999 V2000
   -1.2563   -0.9062   -0.1696 C   0  0  2  0  0  0  0  0  0  0  0  0
   -1.5432   -1.9953   -0.8438 N   0  0  0  0  0  0  0  0  0  0  0  0
   -1.7671   -2.9161   -1.4766 N   0  0  0  0  0  0  0  0  0  0  0  0
   -2.1880    0.2030   -0.1763 C   0  0  0  0  0  0  0  0  0  0  0  0
   -1.7083    1.4348    0.0868 C   0  0  0  0  0  0  0  0  0  0  0  0
   -0.2469    1.6414    0.1878 C   0  0  1  0  0  0  0  0  0  0  0  0
    0.5039    0.4728    0.6972 C   0  0  0  0  0  0  0  0  0  0  0  0
    0.0499   -0.7704    0.4420 C   0  0  0  0  0  0  0  0  0  0  0  0
   -3.2351    0.0174   -0.3933 H   0  0  0  0  0  0  0  0  0  0  0  0
   -2.3624    2.2994    0.1107 H   0  0  0  0  0  0  0  0  0  0  0  0
    0.0409    2.5876    0.6386 H   0  0  0  0  0  0  0  0  0  0  0  0
    1.4680    0.6336    1.1665 H   0  0  0  0  0  0  0  0  0  0  0  0
    0.6236   -1.6613    0.6751 H   0  0  0  0  0  0  0  0  0  0  0  0
    0.3801    1.9100   -1.6628 Cl  0  0  0  0  0  0  0  0  0  0  0  0
  1  2  1  6  0  0  0
  1  8  1  0  0  0  0
  3  2  1  0  0  0  0
  4  1  1  0  0  0  0
  4  5  2  0  0  0  0
  5 10  1  0  0  0  0
  5  6  1  0  0  0  0
  6 11  1  1  0  0  0
  6  7  1  0  0  0  0
  7 12  1  0  0  0  0
  8 13  1  0  0  0  0
  8  7  2  0  0  0  0
  9  4  1  0  0  0  0
 14  6  1  0  0  0  0
M  RAD  3   1   2   2   2   3   3
M  END
