Coordinates from ORCA-job PhN2+~Cl-_B3LYPG-6-31G_dp-NX-Scan-d89-09-n800
 OpenBabel11261920353D

 14 14  0  0  1  0  0  0  0  0999 V2000
   -1.2646   -0.9876   -0.2660 C   0  0  0  0  0  0  0  0  0  0  0  0
   -1.7564   -2.2040   -0.3995 N   0  0  0  0  0  0  0  0  0  0  0  0
   -2.1873   -3.2616   -0.5040 N   0  0  0  0  0  0  0  0  0  0  0  0
   -2.1093    0.1745   -0.4587 C   0  0  0  0  0  0  0  0  0  0  0  0
   -1.6400    1.4139   -0.1981 C   0  0  0  0  0  0  0  0  0  0  0  0
   -0.2632    1.6718    0.2948 C   0  0  1  0  0  0  0  0  0  0  0  0
    0.5744    0.4513    0.4126 C   0  0  0  0  0  0  0  0  0  0  0  0
    0.1086   -0.7897    0.1534 C   0  0  0  0  0  0  0  0  0  0  0  0
   -3.1317    0.0272   -0.7917 H   0  0  0  0  0  0  0  0  0  0  0  0
   -2.2904    2.2722   -0.3293 H   0  0  0  0  0  0  0  0  0  0  0  0
   -0.2503    2.2778    1.2029 H   0  0  0  0  0  0  0  0  0  0  0  0
    1.5986    0.5812    0.7451 H   0  0  0  0  0  0  0  0  0  0  0  0
    0.7460   -1.6590    0.2808 H   0  0  0  0  0  0  0  0  0  0  0  0
    0.6247    2.9826   -0.8600 Cl  0  0  0  0  0  0  0  0  0  0  0  0
  1  8  2  0  0  0  0
  2  1  1  0  0  0  0
  3  2  1  0  0  0  0
  4  1  1  0  0  0  0
  4  5  2  0  0  0  0
  5  6  1  0  0  0  0
  6  7  1  0  0  0  0
  6 11  1  1  0  0  0
  7 12  1  0  0  0  0
  8 13  1  0  0  0  0
  8  7  1  0  0  0  0
  9  4  1  0  0  0  0
 10  5  1  0  0  0  0
 14  6  1  0  0  0  0
M  RAD  3   2   2   3   3   7   2
M  END
