Coordinates from ORCA-job PhN2+~Cl-_B3LYPG-6-31G_dp-NX-Scan-d89-09-n800
 OpenBabel11261920353D

 14 14  0  0  1  0  0  0  0  0999 V2000
   -1.3263   -0.9449    0.0228 C   0  0  2  0  0  0  0  0  0  0  0  0
   -1.3276   -1.6535   -1.0860 N   0  0  0  0  0  0  0  0  0  0  0  0
   -1.2688   -2.1647   -2.0999 N   0  0  0  0  0  0  0  0  0  0  0  0
   -2.2723    0.1796    0.0645 C   0  0  0  0  0  0  0  0  0  0  0  0
   -1.7325    1.4080    0.1523 C   0  0  0  0  0  0  0  0  0  0  0  0
   -0.2544    1.5100    0.0086 C   0  0  1  0  0  0  0  0  0  0  0  0
    0.4705    0.4496    0.7610 C   0  0  0  0  0  0  0  0  0  0  0  0
   -0.0226   -0.7991    0.6866 C   0  0  0  0  0  0  0  0  0  0  0  0
   -3.3406   -0.0016   -0.0089 H   0  0  0  0  0  0  0  0  0  0  0  0
   -2.3320    2.3095    0.2242 H   0  0  0  0  0  0  0  0  0  0  0  0
    0.1459    2.5119    0.1367 H   0  0  0  0  0  0  0  0  0  0  0  0
    1.4073    0.6829    1.2560 H   0  0  0  0  0  0  0  0  0  0  0  0
    0.5044   -1.6739    1.0546 H   0  0  0  0  0  0  0  0  0  0  0  0
    0.1079    1.1370   -1.8901 Cl  0  0  0  0  0  0  0  0  0  0  0  0
  1  2  1  6  0  0  0
  1  4  1  0  0  0  0
  1  8  1  0  0  0  0
  3  2  1  0  0  0  0
  4  5  2  0  0  0  0
  5 10  1  0  0  0  0
  6 11  1  1  0  0  0
  6  5  1  0  0  0  0
  6  7  1  0  0  0  0
  7 12  1  0  0  0  0
  8  7  2  0  0  0  0
  8 13  1  0  0  0  0
  9  4  1  0  0  0  0
 14  6  1  0  0  0  0
M  RAD  3   1   2   2   2   3   3
M  END
