Coordinates from ORCA-job PhN2+~Cl-_B3LYPG-6-31G_dp-NX-Scan-d89-09-n800
 OpenBabel11261920353D

 14 14  0  0  1  0  0  0  0  0999 V2000
   -1.2513   -0.9176   -0.2050 C   0  0  2  0  0  0  0  0  0  0  0  0
   -1.5940   -2.0582   -0.7584 N   0  0  0  0  0  0  0  0  0  0  0  0
   -1.8752   -3.0357   -1.2739 N   0  0  0  0  0  0  0  0  0  0  0  0
   -2.1694    0.2000   -0.2409 C   0  0  0  0  0  0  0  0  0  0  0  0
   -1.6995    1.4314    0.0432 C   0  0  0  0  0  0  0  0  0  0  0  0
   -0.2498    1.6575    0.2240 C   0  0  1  0  0  0  0  0  0  0  0  0
    0.5158    0.4681    0.6541 C   0  0  0  0  0  0  0  0  0  0  0  0
    0.0654   -0.7721    0.3764 C   0  0  0  0  0  0  0  0  0  0  0  0
   -3.2110    0.0211   -0.4874 H   0  0  0  0  0  0  0  0  0  0  0  0
   -2.3596    2.2918    0.0401 H   0  0  0  0  0  0  0  0  0  0  0  0
   -0.0081    2.5626    0.7763 H   0  0  0  0  0  0  0  0  0  0  0  0
    1.4920    0.6166    1.1020 H   0  0  0  0  0  0  0  0  0  0  0  0
    0.6533   -1.6604    0.5831 H   0  0  0  0  0  0  0  0  0  0  0  0
    0.4506    2.1454   -1.5512 Cl  0  0  0  0  0  0  0  0  0  0  0  0
  1  2  1  6  0  0  0
  1  8  1  0  0  0  0
  3  2  1  0  0  0  0
  4  1  1  0  0  0  0
  4  5  2  0  0  0  0
  5  6  1  0  0  0  0
  6  7  1  0  0  0  0
  6 11  1  1  0  0  0
  7 12  1  0  0  0  0
  8 13  1  0  0  0  0
  8  7  2  0  0  0  0
  9  4  1  0  0  0  0
 10  5  1  0  0  0  0
 14  6  1  0  0  0  0
M  RAD  3   1   2   2   2   3   3
M  END
