Coordinates from ORCA-job PhN2+~Cl-_B3LYPG-6-31G_dp-NX-Scan-d89-09-n800
 OpenBabel11261920353D

 14 14  0  0  1  0  0  0  0  0999 V2000
   -1.2790   -0.9066   -0.0883 C   0  0  2  0  0  0  0  0  0  0  0  0
   -1.4507   -1.8629   -0.9705 N   0  0  0  0  0  0  0  0  0  0  0  0
   -1.5588   -2.6400   -1.7953 N   0  0  0  0  0  0  0  0  0  0  0  0
   -2.2237    0.1996   -0.0651 C   0  0  0  0  0  0  0  0  0  0  0  0
   -1.7197    1.4324    0.1350 C   0  0  0  0  0  0  0  0  0  0  0  0
   -0.2460    1.5961    0.1138 C   0  0  1  0  0  0  0  0  0  0  0  0
    0.4876    0.4723    0.7443 C   0  0  0  0  0  0  0  0  0  0  0  0
    0.0197   -0.7762    0.5547 C   0  0  0  0  0  0  0  0  0  0  0  0
   -3.2804    0.0093   -0.2251 H   0  0  0  0  0  0  0  0  0  0  0  0
   -2.3540    2.3103    0.1906 H   0  0  0  0  0  0  0  0  0  0  0  0
    0.1030    2.5826    0.4055 H   0  0  0  0  0  0  0  0  0  0  0  0
    1.4354    0.6619    1.2358 H   0  0  0  0  0  0  0  0  0  0  0  0
    0.5709   -1.6661    0.8408 H   0  0  0  0  0  0  0  0  0  0  0  0
    0.2548    1.5379   -1.7941 Cl  0  0  0  0  0  0  0  0  0  0  0  0
  1  2  1  6  0  0  0
  1  4  1  0  0  0  0
  1  8  1  0  0  0  0
  3  2  1  0  0  0  0
  4  5  2  0  0  0  0
  5 10  1  0  0  0  0
  6  5  1  0  0  0  0
  6 11  1  1  0  0  0
  6  7  1  0  0  0  0
  7 12  1  0  0  0  0
  8  7  2  0  0  0  0
  8 13  1  0  0  0  0
  9  4  1  0  0  0  0
 14  6  1  0  0  0  0
M  RAD  3   1   2   2   2   3   3
M  END
