Coordinates from ORCA-job PhN2+~Cl-_B3LYPG-6-31G_dp-NX-Scan-d89-09-n800
 OpenBabel11261920353D

 14 14  0  0  1  0  0  0  0  0999 V2000
   -1.2501   -0.9283   -0.2257 C   0  0  0  0  0  0  0  0  0  0  0  0
   -1.6274   -2.0956   -0.6962 N   0  0  0  0  0  0  0  0  0  0  0  0
   -1.9448   -3.1024   -1.1293 N   0  0  0  0  0  0  0  0  0  0  0  0
   -2.1571    0.1964   -0.2852 C   0  0  0  0  0  0  0  0  0  0  0  0
   -1.6918    1.4280    0.0069 C   0  0  0  0  0  0  0  0  0  0  0  0
   -0.2523    1.6648    0.2448 C   0  0  1  0  0  0  0  0  0  0  0  0
    0.5249    0.4641    0.6184 C   0  0  0  0  0  0  0  0  0  0  0  0
    0.0754   -0.7746    0.3313 C   0  0  0  0  0  0  0  0  0  0  0  0
   -3.1952    0.0229   -0.5498 H   0  0  0  0  0  0  0  0  0  0  0  0
   -2.3541    2.2866   -0.0160 H   0  0  0  0  0  0  0  0  0  0  0  0
   -0.0468    2.5326    0.8681 H   0  0  0  0  0  0  0  0  0  0  0  0
    1.5096    0.6062    1.0497 H   0  0  0  0  0  0  0  0  0  0  0  0
    0.6730   -1.6601    0.5215 H   0  0  0  0  0  0  0  0  0  0  0  0
    0.4959    2.3101   -1.4562 Cl  0  0  0  0  0  0  0  0  0  0  0  0
  1  8  2  0  0  0  0
  2  1  1  0  0  0  0
  3  2  1  0  0  0  0
  4  1  1  0  0  0  0
  4  5  2  0  0  0  0
  5  6  1  0  0  0  0
  6  7  1  0  0  0  0
  6 11  1  1  0  0  0
  7 12  1  0  0  0  0
  8 13  1  0  0  0  0
  8  7  1  0  0  0  0
  9  4  1  0  0  0  0
 10  5  1  0  0  0  0
 14  6  1  0  0  0  0
M  RAD  3   2   2   3   3   7   2
M  END
