Coordinates from ORCA-job PhN2+~Cl-_B3LYPG-6-31G_dp-NX-Scan-d89-09-n800
 OpenBabel11261920353D

 14 14  0  0  1  0  0  0  0  0999 V2000
   -1.2502   -0.9342   -0.2345 C   0  0  0  0  0  0  0  0  0  0  0  0
   -1.6431   -2.1120   -0.6651 N   0  0  0  0  0  0  0  0  0  0  0  0
   -1.9766   -3.1302   -1.0587 N   0  0  0  0  0  0  0  0  0  0  0  0
   -2.1514    0.1943   -0.3064 C   0  0  0  0  0  0  0  0  0  0  0  0
   -1.6876    1.4262   -0.0122 C   0  0  0  0  0  0  0  0  0  0  0  0
   -0.2537    1.6674    0.2536 C   0  0  1  0  0  0  0  0  0  0  0  0
    0.5296    0.4621    0.5994 C   0  0  0  0  0  0  0  0  0  0  0  0
    0.0800   -0.7761    0.3098 C   0  0  0  0  0  0  0  0  0  0  0  0
   -3.1877    0.0236   -0.5792 H   0  0  0  0  0  0  0  0  0  0  0  0
   -2.3503    2.2842   -0.0454 H   0  0  0  0  0  0  0  0  0  0  0  0
   -0.0667    2.5142    0.9111 H   0  0  0  0  0  0  0  0  0  0  0  0
    1.5184    0.6017    1.0221 H   0  0  0  0  0  0  0  0  0  0  0  0
    0.6821   -1.6601    0.4925 H   0  0  0  0  0  0  0  0  0  0  0  0
    0.5161    2.3897   -1.4048 Cl  0  0  0  0  0  0  0  0  0  0  0  0
  1  8  2  0  0  0  0
  2  1  1  0  0  0  0
  3  2  1  0  0  0  0
  4  1  1  0  0  0  0
  4  5  2  0  0  0  0
  5  6  1  0  0  0  0
  6  7  1  0  0  0  0
  6 11  1  1  0  0  0
  7 12  1  0  0  0  0
  8 13  1  0  0  0  0
  8  7  1  0  0  0  0
  9  4  1  0  0  0  0
 10  5  1  0  0  0  0
 14  6  1  0  0  0  0
M  RAD  3   2   2   3   3   7   2
M  END
