Coordinates from ORCA-job PhN2+~Cl-_B3LYPG-6-31G_dp-NX-Scan-d89-09-n800
 OpenBabel11261920353D

 14 14  0  0  1  0  0  0  0  0999 V2000
   -1.3353   -0.9545    0.0402 C   0  0  2  0  0  0  0  0  0  0  0  0
   -1.3051   -1.6114   -1.1011 N   0  0  0  0  0  0  0  0  0  0  0  0
   -1.2126   -2.0614   -2.1408 N   0  0  0  0  0  0  0  0  0  0  0  0
   -2.2810    0.1745    0.0860 C   0  0  0  0  0  0  0  0  0  0  0  0
   -1.7350    1.4011    0.1519 C   0  0  0  0  0  0  0  0  0  0  0  0
   -0.2571    1.4914   -0.0108 C   0  0  1  0  0  0  0  0  0  0  0  0
    0.4673    0.4430    0.7606 C   0  0  0  0  0  0  0  0  0  0  0  0
   -0.0305   -0.8046    0.7084 C   0  0  0  0  0  0  0  0  0  0  0  0
   -3.3509   -0.0037    0.0298 H   0  0  0  0  0  0  0  0  0  0  0  0
   -2.3276    2.3072    0.2246 H   0  0  0  0  0  0  0  0  0  0  0  0
    0.1507    2.4934    0.0901 H   0  0  0  0  0  0  0  0  0  0  0  0
    1.4031    0.6843    1.2539 H   0  0  0  0  0  0  0  0  0  0  0  0
    0.4921   -1.6751    1.0925 H   0  0  0  0  0  0  0  0  0  0  0  0
    0.0810    1.0665   -1.9030 Cl  0  0  0  0  0  0  0  0  0  0  0  0
  1  2  1  6  0  0  0
  1  4  1  0  0  0  0
  1  8  1  0  0  0  0
  3  2  1  0  0  0  0
  4  5  2  0  0  0  0
  5 10  1  0  0  0  0
  6 11  1  1  0  0  0
  6  5  1  0  0  0  0
  6  7  1  0  0  0  0
  7 12  1  0  0  0  0
  8  7  2  0  0  0  0
  8 13  1  0  0  0  0
  9  4  1  0  0  0  0
 14  6  1  0  0  0  0
M  RAD  3   1   2   2   2   3   3
M  END
