Coordinates from ORCA-job PhN2+~Cl-_B3LYPG-6-31G_dp-NX-Scan-d89-09-n800
 OpenBabel11261920353D

 14 14  0  0  1  0  0  0  0  0999 V2000
   -1.2700   -0.9033   -0.1158 C   0  0  2  0  0  0  0  0  0  0  0  0
   -1.4800   -1.9072   -0.9343 N   0  0  0  0  0  0  0  0  0  0  0  0
   -1.6257   -2.7353   -1.7022 N   0  0  0  0  0  0  0  0  0  0  0  0
   -2.2122    0.2019   -0.0992 C   0  0  0  0  0  0  0  0  0  0  0  0
   -1.7165    1.4346    0.1237 C   0  0  0  0  0  0  0  0  0  0  0  0
   -0.2456    1.6125    0.1379 C   0  0  1  0  0  0  0  0  0  0  0  0
    0.4922    0.4740    0.7333 C   0  0  0  0  0  0  0  0  0  0  0  0
    0.0294   -0.7730    0.5201 C   0  0  0  0  0  0  0  0  0  0  0  0
   -3.2659    0.0119   -0.2776 H   0  0  0  0  0  0  0  0  0  0  0  0
   -2.3580    2.3076    0.1717 H   0  0  0  0  0  0  0  0  0  0  0  0
    0.0867    2.5899    0.4761 H   0  0  0  0  0  0  0  0  0  0  0  0
    1.4443    0.6538    1.2200 H   0  0  0  0  0  0  0  0  0  0  0  0
    0.5872   -1.6643    0.7887 H   0  0  0  0  0  0  0  0  0  0  0  0
    0.2933    1.6475   -1.7603 Cl  0  0  0  0  0  0  0  0  0  0  0  0
  1  2  1  6  0  0  0
  1  4  1  0  0  0  0
  1  8  1  0  0  0  0
  3  2  1  0  0  0  0
  4  5  2  0  0  0  0
  5  6  1  0  0  0  0
  5 10  1  0  0  0  0
  6 11  1  1  0  0  0
  6  7  1  0  0  0  0
  7 12  1  0  0  0  0
  8  7  2  0  0  0  0
  8 13  1  0  0  0  0
  9  4  1  0  0  0  0
 14  6  1  0  0  0  0
M  RAD  3   1   2   2   2   3   3
M  END
