Coordinates from ORCA-job PhN2+~Cl-_B3LYPG-6-31G_dp-NX-Scan-d89-09-n800
 OpenBabel11261920353D

 14 14  0  0  0  0  0  0  0  0999 V2000
   -0.5772   -0.4071   -0.6758 C   0  0  0  0  0  0  0  0  0  0  0  0
   -0.3887   -1.4107   -1.6804 N   0  0  0  0  0  0  0  0  0  0  0  0
   -1.3204   -2.0734   -2.1847 N   0  0  0  0  0  0  0  0  0  0  0  0
   -1.2958    0.7712   -0.9199 C   0  0  0  0  0  0  0  0  0  0  0  0
   -1.3283    1.7684    0.0538 C   0  0  0  0  0  0  0  0  0  0  0  0
   -0.6618    1.5932    1.2688 C   0  0  0  0  0  0  0  0  0  0  0  0
    0.0627    0.4219    1.5017 C   0  0  0  0  0  0  0  0  0  0  0  0
    0.1262   -0.5691    0.5239 C   0  0  0  0  0  0  0  0  0  0  0  0
   -1.8047    0.9124   -1.8676 H   0  0  0  0  0  0  0  0  0  0  0  0
   -1.8785    2.6848   -0.1382 H   0  0  0  0  0  0  0  0  0  0  0  0
   -0.6972    2.3716    2.0254 H   0  0  0  0  0  0  0  0  0  0  0  0
    0.5927    0.2858    2.4396 H   0  0  0  0  0  0  0  0  0  0  0  0
    0.7080   -1.4726    0.6765 H   0  0  0  0  0  0  0  0  0  0  0  0
   -2.7779   -1.9256   -1.7408 Cl  0  0  0  0  0  0  0  0  0  0  0  0
  1  8  1  0  0  0  0
  2  1  1  0  0  0  0
  3 14  1  0  0  0  0
  3  2  2  0  0  0  0
  4  1  2  0  0  0  0
  4  5  1  0  0  0  0
  5  6  2  0  0  0  0
  6  7  1  0  0  0  0
  6 11  1  0  0  0  0
  7 12  1  0  0  0  0
  8 13  1  0  0  0  0
  8  7  2  0  0  0  0
  9  4  1  0  0  0  0
 10  5  1  0  0  0  0
M  END
