Coordinates from ORCA-job PhN2+~Cl-_B3LYPG-6-31G_dp-NX-Scan-d89-09-n800
 OpenBabel11261920353D

 14 13  0  0  0  0  0  0  0  0999 V2000
   -1.2957   -1.0440   -0.2413 C   0  0  0  0  0  0  0  0  0  0  0  0
   -1.7847   -2.2868   -0.4278 N   0  0  0  0  0  0  0  0  0  0  0  0
   -2.2029   -3.3339   -0.5629 N   0  0  0  0  0  0  0  0  0  0  0  0
   -2.1561    0.0812   -0.4243 C   0  0  0  0  0  0  0  0  0  0  0  0
   -1.6700    1.3323   -0.1184 C   0  0  0  0  0  0  0  0  0  0  0  0
   -0.3592    1.5073    0.3865 C   0  0  0  0  0  0  0  0  0  0  0  0
    0.5016    0.3875    0.4816 C   0  0  0  0  0  0  0  0  0  0  0  0
    0.0567   -0.8817    0.1872 C   0  0  0  0  0  0  0  0  0  0  0  0
   -3.1731   -0.0687   -0.7691 H   0  0  0  0  0  0  0  0  0  0  0  0
   -2.3072    2.2010   -0.2410 H   0  0  0  0  0  0  0  0  0  0  0  0
   -0.0342    2.4779    0.7392 H   0  0  0  0  0  0  0  0  0  0  0  0
    1.5217    0.5342    0.8185 H   0  0  0  0  0  0  0  0  0  0  0  0
    0.6937   -1.7518    0.3015 H   0  0  0  0  0  0  0  0  0  0  0  0
    0.9686    3.7961   -0.8475 Cl  0  0  0  0  0  0  0  0  0  0  0  0
  1  8  1  0  0  0  0
  2  1  1  0  0  0  0
  3  2  1  0  0  0  0
  4  1  2  0  0  0  0
  4  5  1  0  0  0  0
  5  6  2  0  0  0  0
  6  7  1  0  0  0  0
  6 11  1  0  0  0  0
  7 12  1  0  0  0  0
  8 13  1  0  0  0  0
  8  7  2  0  0  0  0
  9  4  1  0  0  0  0
 10  5  1  0  0  0  0
M  RAD  3   2   2   3   3  14   2
M  END
