Coordinates from ORCA-job PhN2+~Cl-_B3LYPG-6-31G_dp-NX-Scan-d89-09-n800
 OpenBabel11261920353D

 14 14  0  0  0  0  0  0  0  0999 V2000
   -0.5807   -0.4478   -0.6060 C   0  0  0  0  0  0  0  0  0  0  0  0
   -0.4252   -1.5089   -1.5359 N   0  0  0  0  0  0  0  0  0  0  0  0
   -1.2176   -2.1028   -2.2293 N   0  0  0  0  0  0  0  0  0  0  0  0
   -1.3366    0.7025   -0.8718 C   0  0  0  0  0  0  0  0  0  0  0  0
   -1.3512    1.7296    0.0700 C   0  0  0  0  0  0  0  0  0  0  0  0
   -0.6387    1.6084    1.2656 C   0  0  0  0  0  0  0  0  0  0  0  0
    0.1223    0.4635    1.5151 C   0  0  0  0  0  0  0  0  0  0  0  0
    0.1762   -0.5554    0.5680 C   0  0  0  0  0  0  0  0  0  0  0  0
   -1.8849    0.7961   -1.8001 H   0  0  0  0  0  0  0  0  0  0  0  0
   -1.9267    2.6278   -0.1316 H   0  0  0  0  0  0  0  0  0  0  0  0
   -0.6668    2.4116    1.9963 H   0  0  0  0  0  0  0  0  0  0  0  0
    0.6871    0.3723    2.4376 H   0  0  0  0  0  0  0  0  0  0  0  0
    0.7831   -1.4413    0.7237 H   0  0  0  0  0  0  0  0  0  0  0  0
   -2.9811   -1.7048   -2.1194 Cl  0  0  0  0  0  0  0  0  0  0  0  0
  1  8  1  0  0  0  0
  2  1  1  0  0  0  0
  3 14  1  0  0  0  0
  3  2  2  0  0  0  0
  4  1  2  0  0  0  0
  4  5  1  0  0  0  0
  5  6  2  0  0  0  0
  6  7  1  0  0  0  0
  6 11  1  0  0  0  0
  7 12  1  0  0  0  0
  8 13  1  0  0  0  0
  8  7  2  0  0  0  0
  9  4  1  0  0  0  0
 10  5  1  0  0  0  0
M  END
