Coordinates from ORCA-job PhN2+~Cl-_B3LYPG-6-31G_dp-NX-Scan-d89-09-n800
 OpenBabel11261920353D

 14 14  0  0  1  0  0  0  0  0999 V2000
   -1.2765   -0.9055   -0.0956 C   0  0  2  0  0  0  0  0  0  0  0  0
   -1.4584   -1.8747   -0.9614 N   0  0  0  0  0  0  0  0  0  0  0  0
   -1.5763   -2.6656   -1.7717 N   0  0  0  0  0  0  0  0  0  0  0  0
   -2.2207    0.2003   -0.0739 C   0  0  0  0  0  0  0  0  0  0  0  0
   -1.7189    1.4331    0.1324 C   0  0  0  0  0  0  0  0  0  0  0  0
   -0.2459    1.6006    0.1202 C   0  0  1  0  0  0  0  0  0  0  0  0
    0.4888    0.4729    0.7418 C   0  0  0  0  0  0  0  0  0  0  0  0
    0.0222   -0.7752    0.5458 C   0  0  0  0  0  0  0  0  0  0  0  0
   -3.2766    0.0100   -0.2388 H   0  0  0  0  0  0  0  0  0  0  0  0
   -2.3551    2.3097    0.1862 H   0  0  0  0  0  0  0  0  0  0  0  0
    0.0990    2.5850    0.4237 H   0  0  0  0  0  0  0  0  0  0  0  0
    1.4376    0.6599    1.2322 H   0  0  0  0  0  0  0  0  0  0  0  0
    0.5751   -1.6656    0.8272 H   0  0  0  0  0  0  0  0  0  0  0  0
    0.2647    1.5658   -1.7858 Cl  0  0  0  0  0  0  0  0  0  0  0  0
  1  2  1  6  0  0  0
  1  4  1  0  0  0  0
  1  8  1  0  0  0  0
  3  2  1  0  0  0  0
  4  5  2  0  0  0  0
  5 10  1  0  0  0  0
  6  5  1  0  0  0  0
  6 11  1  1  0  0  0
  6  7  1  0  0  0  0
  7 12  1  0  0  0  0
  8  7  2  0  0  0  0
  8 13  1  0  0  0  0
  9  4  1  0  0  0  0
 14  6  1  0  0  0  0
M  RAD  3   1   2   2   2   3   3
M  END
