Coordinates from ORCA-job PhN2+~Cl-_B3LYPG-6-31G_dp-NX-Scan-d89-09-n800
 OpenBabel11261920353D

 14 14  0  0  1  0  0  0  0  0999 V2000
   -1.2540   -0.9597   -0.2602 C   0  0  0  0  0  0  0  0  0  0  0  0
   -1.7018   -2.1655   -0.5366 N   0  0  0  0  0  0  0  0  0  0  0  0
   -2.0907   -3.2133   -0.7779 N   0  0  0  0  0  0  0  0  0  0  0  0
   -2.1297    0.1850   -0.3869 C   0  0  0  0  0  0  0  0  0  0  0  0
   -1.6675    1.4191   -0.0980 C   0  0  0  0  0  0  0  0  0  0  0  0
   -0.2590    1.6721    0.2804 C   0  0  1  0  0  0  0  0  0  0  0  0
    0.5505    0.4548    0.5136 C   0  0  0  0  0  0  0  0  0  0  0  0
    0.0964   -0.7830    0.2276 C   0  0  0  0  0  0  0  0  0  0  0  0
   -3.1593    0.0255   -0.6904 H   0  0  0  0  0  0  0  0  0  0  0  0
   -2.3271    2.2768   -0.1754 H   0  0  0  0  0  0  0  0  0  0  0  0
   -0.1536    2.4158    1.0703 H   0  0  0  0  0  0  0  0  0  0  0  0
    1.5563    0.5878    0.8971 H   0  0  0  0  0  0  0  0  0  0  0  0
    0.7161   -1.6603    0.3823 H   0  0  0  0  0  0  0  0  0  0  0  0
    0.5825    2.6957   -1.1636 Cl  0  0  0  0  0  0  0  0  0  0  0  0
  1  8  2  0  0  0  0
  2  1  1  0  0  0  0
  3  2  1  0  0  0  0
  4  1  1  0  0  0  0
  4  5  2  0  0  0  0
  5  6  1  0  0  0  0
  6  7  1  0  0  0  0
  6 11  1  1  0  0  0
  7 12  1  0  0  0  0
  8 13  1  0  0  0  0
  8  7  1  0  0  0  0
  9  4  1  0  0  0  0
 10  5  1  0  0  0  0
 14  6  1  0  0  0  0
M  RAD  3   2   2   3   3   7   2
M  END
