Coordinates from ORCA-job PhN2+~Cl-_B3LYPG-6-31G_dp-NX-Scan-d89-09-n800
 OpenBabel11261920353D

 14 14  0  0  1  0  0  0  0  0999 V2000
   -1.2505   -0.9226   -0.2156 C   0  0  0  0  0  0  0  0  0  0  0  0
   -1.6107   -2.0772   -0.7281 N   0  0  0  0  0  0  0  0  0  0  0  0
   -1.9101   -3.0701   -1.2029 N   0  0  0  0  0  0  0  0  0  0  0  0
   -2.1633    0.1984   -0.2628 C   0  0  0  0  0  0  0  0  0  0  0  0
   -1.6959    1.4298    0.0259 C   0  0  0  0  0  0  0  0  0  0  0  0
   -0.2510    1.6615    0.2346 C   0  0  1  0  0  0  0  0  0  0  0  0
    0.5201    0.4662    0.6371 C   0  0  0  0  0  0  0  0  0  0  0  0
    0.0704   -0.7732    0.3541 C   0  0  0  0  0  0  0  0  0  0  0  0
   -3.2031    0.0221   -0.5184 H   0  0  0  0  0  0  0  0  0  0  0  0
   -2.3573    2.2892    0.0131 H   0  0  0  0  0  0  0  0  0  0  0  0
   -0.0268    2.5491    0.8220 H   0  0  0  0  0  0  0  0  0  0  0  0
    1.5006    0.6113    1.0770 H   0  0  0  0  0  0  0  0  0  0  0  0
    0.6631   -1.6602    0.5525 H   0  0  0  0  0  0  0  0  0  0  0  0
    0.4734    2.2265   -1.5063 Cl  0  0  0  0  0  0  0  0  0  0  0  0
  1  8  2  0  0  0  0
  2  1  1  0  0  0  0
  3  2  1  0  0  0  0
  4  1  1  0  0  0  0
  4  5  2  0  0  0  0
  5  6  1  0  0  0  0
  6  7  1  0  0  0  0
  6 11  1  1  0  0  0
  7 12  1  0  0  0  0
  8 13  1  0  0  0  0
  8  7  1  0  0  0  0
  9  4  1  0  0  0  0
 10  5  1  0  0  0  0
 14  6  1  0  0  0  0
M  RAD  3   2   2   3   3   7   2
M  END
