Coordinates from ORCA-job PhN2+~Cl-_B3LYPG-6-31G_dp-NX-Scan-d89-09-n800
 OpenBabel11261920353D

 14 14  0  0  1  0  0  0  0  0999 V2000
   -1.3134   -0.9323   -0.0038 C   0  0  2  0  0  0  0  0  0  0  0  0
   -1.3600   -1.7121   -1.0609 N   0  0  0  0  0  0  0  0  0  0  0  0
   -1.3463   -2.3014   -2.0337 N   0  0  0  0  0  0  0  0  0  0  0  0
   -2.2597    0.1862    0.0327 C   0  0  0  0  0  0  0  0  0  0  0  0
   -1.7290    1.4165    0.1513 C   0  0  0  0  0  0  0  0  0  0  0  0
   -0.2511    1.5350    0.0363 C   0  0  1  0  0  0  0  0  0  0  0  0
    0.4750    0.4578    0.7600 C   0  0  0  0  0  0  0  0  0  0  0  0
   -0.0114   -0.7919    0.6543 C   0  0  0  0  0  0  0  0  0  0  0  0
   -3.3254    0.0013   -0.0647 H   0  0  0  0  0  0  0  0  0  0  0  0
   -2.3381    2.3115    0.2209 H   0  0  0  0  0  0  0  0  0  0  0  0
    0.1378    2.5355    0.2040 H   0  0  0  0  0  0  0  0  0  0  0  0
    1.4138    0.6794    1.2561 H   0  0  0  0  0  0  0  0  0  0  0  0
    0.5218   -1.6720    0.9998 H   0  0  0  0  0  0  0  0  0  0  0  0
    0.1454    1.2372   -1.8700 Cl  0  0  0  0  0  0  0  0  0  0  0  0
  1  2  1  6  0  0  0
  1  4  1  0  0  0  0
  1  8  1  0  0  0  0
  3  2  1  0  0  0  0
  4  5  2  0  0  0  0
  5 10  1  0  0  0  0
  6  5  1  0  0  0  0
  6 11  1  1  0  0  0
  6  7  1  0  0  0  0
  7 12  1  0  0  0  0
  8  7  2  0  0  0  0
  8 13  1  0  0  0  0
  9  4  1  0  0  0  0
 14  6  1  0  0  0  0
M  RAD  3   1   2   2   2   3   3
M  END
