Coordinates from ORCA-job PhN2+~Cl-_B3LYPG-6-31G_dp-NX-Scan-d89-09-n800
 OpenBabel11261920353D

 14 14  0  0  1  0  0  0  0  0999 V2000
   -1.3357   -0.9550    0.0410 C   0  0  2  0  0  0  0  0  0  0  0  0
   -1.3040   -1.6092   -1.1018 N   0  0  0  0  0  0  0  0  0  0  0  0
   -1.2096   -2.0559   -2.1428 N   0  0  0  0  0  0  0  0  0  0  0  0
   -2.2814    0.1742    0.0871 C   0  0  0  0  0  0  0  0  0  0  0  0
   -1.7351    1.4007    0.1519 C   0  0  0  0  0  0  0  0  0  0  0  0
   -0.2573    1.4904   -0.0117 C   0  0  1  0  0  0  0  0  0  0  0  0
    0.4671    0.4427    0.7606 C   0  0  0  0  0  0  0  0  0  0  0  0
   -0.0309   -0.8048    0.7095 C   0  0  0  0  0  0  0  0  0  0  0  0
   -3.3514   -0.0038    0.0318 H   0  0  0  0  0  0  0  0  0  0  0  0
   -2.3274    2.3070    0.2245 H   0  0  0  0  0  0  0  0  0  0  0  0
    0.1510    2.4925    0.0877 H   0  0  0  0  0  0  0  0  0  0  0  0
    1.4029    0.6843    1.2538 H   0  0  0  0  0  0  0  0  0  0  0  0
    0.4914   -1.6752    1.0944 H   0  0  0  0  0  0  0  0  0  0  0  0
    0.0796    1.0628   -1.9037 Cl  0  0  0  0  0  0  0  0  0  0  0  0
  1  2  1  6  0  0  0
  1  4  1  0  0  0  0
  1  8  1  0  0  0  0
  3  2  1  0  0  0  0
  4  5  2  0  0  0  0
  5 10  1  0  0  0  0
  6 11  1  1  0  0  0
  6  5  1  0  0  0  0
  6  7  1  0  0  0  0
  7 12  1  0  0  0  0
  8  7  2  0  0  0  0
  8 13  1  0  0  0  0
  9  4  1  0  0  0  0
 14  6  1  0  0  0  0
M  RAD  3   1   2   2   2   3   3
M  END
