Coordinates from ORCA-job PhN2+~Cl-_B3LYPG-6-31G_dp-NX-Scan-d89-09-n800
 OpenBabel11261920353D

 14 13  0  0  0  0  0  0  0  0999 V2000
   -1.2760   -1.0211   -0.2772 C   0  0  0  0  0  0  0  0  0  0  0  0
   -1.7729   -2.2593   -0.4275 N   0  0  0  0  0  0  0  0  0  0  0  0
   -2.2019   -3.3101   -0.5275 N   0  0  0  0  0  0  0  0  0  0  0  0
   -2.1294    0.1182   -0.4569 C   0  0  0  0  0  0  0  0  0  0  0  0
   -1.6570    1.3631   -0.1296 C   0  0  0  0  0  0  0  0  0  0  0  0
   -0.3417    1.5517    0.3929 C   0  0  0  0  0  0  0  0  0  0  0  0
    0.5200    0.4159    0.4715 C   0  0  0  0  0  0  0  0  0  0  0  0
    0.0806   -0.8434    0.1537 C   0  0  0  0  0  0  0  0  0  0  0  0
   -3.1458   -0.0252   -0.8069 H   0  0  0  0  0  0  0  0  0  0  0  0
   -2.3066    2.2248   -0.2333 H   0  0  0  0  0  0  0  0  0  0  0  0
   -0.1185    2.4325    0.9726 H   0  0  0  0  0  0  0  0  0  0  0  0
    1.5341    0.5528    0.8289 H   0  0  0  0  0  0  0  0  0  0  0  0
    0.7240   -1.7096    0.2643 H   0  0  0  0  0  0  0  0  0  0  0  0
    0.8502    3.4604   -0.9429 Cl  0  0  0  0  0  0  0  0  0  0  0  0
  1  8  1  0  0  0  0
  2  1  1  0  0  0  0
  3  2  1  0  0  0  0
  4  1  2  0  0  0  0
  4  5  1  0  0  0  0
  5  6  2  0  0  0  0
  6  7  1  0  0  0  0
  6 11  1  0  0  0  0
  7 12  1  0  0  0  0
  8 13  1  0  0  0  0
  8  7  2  0  0  0  0
  9  4  1  0  0  0  0
 10  5  1  0  0  0  0
M  RAD  3   2   2   3   3  14   2
M  END
