Coordinates from ORCA-job PhN2+~Cl-_B3LYPG-6-31G_dp-NX-Scan-d89-09-n800
 OpenBabel11261920353D

 14 14  0  0  1  0  0  0  0  0999 V2000
   -1.2738   -1.0052   -0.2609 C   0  0  0  0  0  0  0  0  0  0  0  0
   -1.7837   -2.2245   -0.3326 N   0  0  0  0  0  0  0  0  0  0  0  0
   -2.2303   -3.2826   -0.3799 N   0  0  0  0  0  0  0  0  0  0  0  0
   -2.0995    0.1671   -0.4889 C   0  0  0  0  0  0  0  0  0  0  0  0
   -1.6227    1.4107   -0.2488 C   0  0  0  0  0  0  0  0  0  0  0  0
   -0.2653    1.6690    0.2979 C   0  0  1  0  0  0  0  0  0  0  0  0
    0.5840    0.4515    0.3597 C   0  0  0  0  0  0  0  0  0  0  0  0
    0.1107   -0.7937    0.1211 C   0  0  0  0  0  0  0  0  0  0  0  0
   -3.1190    0.0278   -0.8340 H   0  0  0  0  0  0  0  0  0  0  0  0
   -2.2685    2.2678   -0.4074 H   0  0  0  0  0  0  0  0  0  0  0  0
   -0.2919    2.2092    1.2462 H   0  0  0  0  0  0  0  0  0  0  0  0
    1.6167    0.5784    0.6662 H   0  0  0  0  0  0  0  0  0  0  0  0
    0.7574   -1.6578    0.2376 H   0  0  0  0  0  0  0  0  0  0  0  0
    0.6449    3.1332   -0.6939 Cl  0  0  0  0  0  0  0  0  0  0  0  0
  1  8  2  0  0  0  0
  2  1  1  0  0  0  0
  3  2  1  0  0  0  0
  4  1  1  0  0  0  0
  4  5  2  0  0  0  0
  5  6  1  0  0  0  0
  6  7  1  0  0  0  0
  6 11  1  1  0  0  0
  7 12  1  0  0  0  0
  8 13  1  0  0  0  0
  8  7  1  0  0  0  0
  9  4  1  0  0  0  0
 10  5  1  0  0  0  0
 14  6  1  0  0  0  0
M  RAD  3   2   2   3   3   7   2
M  END
