Coordinates from ORCA-job PhN2+~Cl-_B3LYPG-6-31G_dp-NX-Scan-d89-09-n800
 OpenBabel11261920353D

 14 14  0  0  1  0  0  0  0  0999 V2000
   -1.3089   -0.9282   -0.0137 C   0  0  2  0  0  0  0  0  0  0  0  0
   -1.3715   -1.7322   -1.0512 N   0  0  0  0  0  0  0  0  0  0  0  0
   -1.3733   -2.3473   -2.0081 N   0  0  0  0  0  0  0  0  0  0  0  0
   -2.2553    0.1883    0.0212 C   0  0  0  0  0  0  0  0  0  0  0  0
   -1.7278    1.4192    0.1505 C   0  0  0  0  0  0  0  0  0  0  0  0
   -0.2501    1.5435    0.0461 C   0  0  1  0  0  0  0  0  0  0  0  0
    0.4765    0.4603    0.7592 C   0  0  0  0  0  0  0  0  0  0  0  0
   -0.0075   -0.7896    0.6426 C   0  0  0  0  0  0  0  0  0  0  0  0
   -3.3199    0.0023   -0.0846 H   0  0  0  0  0  0  0  0  0  0  0  0
   -2.3403    2.3119    0.2189 H   0  0  0  0  0  0  0  0  0  0  0  0
    0.1345    2.5430    0.2281 H   0  0  0  0  0  0  0  0  0  0  0  0
    1.4162    0.6778    1.2553 H   0  0  0  0  0  0  0  0  0  0  0  0
    0.5279   -1.6713    0.9803 H   0  0  0  0  0  0  0  0  0  0  0  0
    0.1586    1.2730   -1.8623 Cl  0  0  0  0  0  0  0  0  0  0  0  0
  1  2  1  6  0  0  0
  1  4  1  0  0  0  0
  1  8  1  0  0  0  0
  3  2  1  0  0  0  0
  4  5  2  0  0  0  0
  5 10  1  0  0  0  0
  6  5  1  0  0  0  0
  6 11  1  1  0  0  0
  6  7  1  0  0  0  0
  7 12  1  0  0  0  0
  8  7  2  0  0  0  0
  8 13  1  0  0  0  0
  9  4  1  0  0  0  0
 14  6  1  0  0  0  0
M  RAD  3   1   2   2   2   3   3
M  END
