Coordinates from ORCA-job PhN2+~Cl-_B3LYPG-6-31G_dp-NX-Scan-d89-09-n800
 OpenBabel11261920353D

 14 14  0  0  0  0  0  0  0  0999 V2000
   -0.5909   -0.3887   -0.7055 C   0  0  0  0  0  0  0  0  0  0  0  0
   -0.4052   -1.3747   -1.7496 N   0  0  0  0  0  0  0  0  0  0  0  0
   -1.4495   -2.0582   -2.0832 N   0  0  0  0  0  0  0  0  0  0  0  0
   -1.2874    0.8087   -0.9302 C   0  0  0  0  0  0  0  0  0  0  0  0
   -1.3173    1.7943    0.0557 C   0  0  0  0  0  0  0  0  0  0  0  0
   -0.6595    1.5961    1.2721 C   0  0  0  0  0  0  0  0  0  0  0  0
    0.0429    0.4097    1.4928 C   0  0  0  0  0  0  0  0  0  0  0  0
    0.0865   -0.5754    0.5063 C   0  0  0  0  0  0  0  0  0  0  0  0
   -1.7820    0.9760   -1.8830 H   0  0  0  0  0  0  0  0  0  0  0  0
   -1.8539    2.7209   -0.1281 H   0  0  0  0  0  0  0  0  0  0  0  0
   -0.6854    2.3663    2.0377 H   0  0  0  0  0  0  0  0  0  0  0  0
    0.5667    0.2535    2.4316 H   0  0  0  0  0  0  0  0  0  0  0  0
    0.6468   -1.4930    0.6589 H   0  0  0  0  0  0  0  0  0  0  0  0
   -2.5526   -2.0848   -1.6931 Cl  0  0  0  0  0  0  0  0  0  0  0  0
  1  8  1  0  0  0  0
  2  1  1  0  0  0  0
  3  2  2  0  0  0  0
  3 14  1  0  0  0  0
  4  1  2  0  0  0  0
  4  5  1  0  0  0  0
  5  6  2  0  0  0  0
  6  7  1  0  0  0  0
  6 11  1  0  0  0  0
  7 12  1  0  0  0  0
  8 13  1  0  0  0  0
  8  7  2  0  0  0  0
  9  4  1  0  0  0  0
 10  5  1  0  0  0  0
M  END
