Coordinates from ORCA-job PhN2+~Cl-_B3LYPG-6-31G_dp-NX-Scan-d89-09-n800
 OpenBabel11261920353D

 14 14  0  0  1  0  0  0  0  0999 V2000
   -1.3573   -0.9751    0.0883 C   0  0  2  0  0  0  0  0  0  0  0  0
   -1.2578   -1.5139   -1.1190 N   0  0  0  0  0  0  0  0  0  0  0  0
   -1.0344   -1.6987   -2.2175 N   0  0  0  0  0  0  0  0  0  0  0  0
   -2.3016    0.1591    0.1417 C   0  0  0  0  0  0  0  0  0  0  0  0
   -1.7394    1.3832    0.1601 C   0  0  0  0  0  0  0  0  0  0  0  0
   -0.2705    1.4437   -0.0377 C   0  0  1  0  0  0  0  0  0  0  0  0
    0.4537    0.4292    0.7668 C   0  0  0  0  0  0  0  0  0  0  0  0
   -0.0534   -0.8189    0.7636 C   0  0  0  0  0  0  0  0  0  0  0  0
   -3.3737   -0.0091    0.1028 H   0  0  0  0  0  0  0  0  0  0  0  0
   -2.3198    2.2985    0.2177 H   0  0  0  0  0  0  0  0  0  0  0  0
    0.1640    2.4391   -0.0432 H   0  0  0  0  0  0  0  0  0  0  0  0
    1.3954    0.6824    1.2429 H   0  0  0  0  0  0  0  0  0  0  0  0
    0.4701   -1.6806    1.1654 H   0  0  0  0  0  0  0  0  0  0  0  0
   -0.0162    0.8117   -1.9497 Cl  0  0  0  0  0  0  0  0  0  0  0  0
  1  2  1  6  0  0  0
  1  4  1  0  0  0  0
  1  8  1  0  0  0  0
  3  2  1  0  0  0  0
  4  5  2  0  0  0  0
  5 10  1  0  0  0  0
  6 11  1  1  0  0  0
  6  5  1  0  0  0  0
  6  7  1  0  0  0  0
  7 12  1  0  0  0  0
  8  7  2  0  0  0  0
  8 13  1  0  0  0  0
  9  4  1  0  0  0  0
 14  6  1  0  0  0  0
M  RAD  3   1   2   2   2   3   3
M  END
