Coordinates from ORCA-job PhN2+~Cl-_B3LYPG-6-31G_dp-NX-Scan-d89-09-n800
 OpenBabel11261920353D

 14 14  0  0  1  0  0  0  0  0999 V2000
   -1.2695   -0.9970   -0.2632 C   0  0  0  0  0  0  0  0  0  0  0  0
   -1.7720   -2.2148   -0.3596 N   0  0  0  0  0  0  0  0  0  0  0  0
   -2.2125   -3.2728   -0.4296 N   0  0  0  0  0  0  0  0  0  0  0  0
   -2.1036    0.1708   -0.4768 C   0  0  0  0  0  0  0  0  0  0  0  0
   -1.6302    1.4124   -0.2283 C   0  0  0  0  0  0  0  0  0  0  0  0
   -0.2643    1.6707    0.2969 C   0  0  1  0  0  0  0  0  0  0  0  0
    0.5807    0.4513    0.3814 C   0  0  0  0  0  0  0  0  0  0  0  0
    0.1105   -0.7917    0.1342 C   0  0  0  0  0  0  0  0  0  0  0  0
   -3.1241    0.0277   -0.8176 H   0  0  0  0  0  0  0  0  0  0  0  0
   -2.2775    2.2704   -0.3763 H   0  0  0  0  0  0  0  0  0  0  0  0
   -0.2767    2.2352    1.2317 H   0  0  0  0  0  0  0  0  0  0  0  0
    1.6102    0.5800    0.6979 H   0  0  0  0  0  0  0  0  0  0  0  0
    0.7532   -1.6582    0.2544 H   0  0  0  0  0  0  0  0  0  0  0  0
    0.6349    3.0667   -0.7628 Cl  0  0  0  0  0  0  0  0  0  0  0  0
  1  8  2  0  0  0  0
  2  1  1  0  0  0  0
  3  2  1  0  0  0  0
  4  1  1  0  0  0  0
  4  5  2  0  0  0  0
  5  6  1  0  0  0  0
  6  7  1  0  0  0  0
  6 11  1  1  0  0  0
  7 12  1  0  0  0  0
  8 13  1  0  0  0  0
  8  7  1  0  0  0  0
  9  4  1  0  0  0  0
 10  5  1  0  0  0  0
 14  6  1  0  0  0  0
M  RAD  3   2   2   3   3   7   2
M  END
