Coordinates from ORCA-job PhN2+~Cl-_B3LYPG-6-31G_dp-NX-Scan-d89-09-n800
 OpenBabel11261920353D

 14 14  0  0  1  0  0  0  0  0999 V2000
   -1.2838   -0.9093   -0.0748 C   0  0  2  0  0  0  0  0  0  0  0  0
   -1.4367   -1.8408   -0.9866 N   0  0  0  0  0  0  0  0  0  0  0  0
   -1.5263   -2.5917   -1.8373 N   0  0  0  0  0  0  0  0  0  0  0  0
   -2.2293    0.1981   -0.0491 C   0  0  0  0  0  0  0  0  0  0  0  0
   -1.7212    1.4308    0.1392 C   0  0  0  0  0  0  0  0  0  0  0  0
   -0.2464    1.5876    0.1020 C   0  0  1  0  0  0  0  0  0  0  0  0
    0.4855    0.4710    0.7484 C   0  0  0  0  0  0  0  0  0  0  0  0
    0.0149   -0.7781    0.5710 C   0  0  0  0  0  0  0  0  0  0  0  0
   -3.2875    0.0080   -0.2000 H   0  0  0  0  0  0  0  0  0  0  0  0
   -2.3519    2.3112    0.1978 H   0  0  0  0  0  0  0  0  0  0  0  0
    0.1098    2.5775    0.3726 H   0  0  0  0  0  0  0  0  0  0  0  0
    1.4316    0.6654    1.2415 H   0  0  0  0  0  0  0  0  0  0  0  0
    0.5632   -1.6670    0.8658 H   0  0  0  0  0  0  0  0  0  0  0  0
    0.2370    1.4879   -1.8084 Cl  0  0  0  0  0  0  0  0  0  0  0  0
  1  2  1  6  0  0  0
  1  4  1  0  0  0  0
  1  8  1  0  0  0  0
  3  2  1  0  0  0  0
  4  5  2  0  0  0  0
  5 10  1  0  0  0  0
  6  5  1  0  0  0  0
  6 11  1  1  0  0  0
  6  7  1  0  0  0  0
  7 12  1  0  0  0  0
  8  7  2  0  0  0  0
  8 13  1  0  0  0  0
  9  4  1  0  0  0  0
 14  6  1  0  0  0  0
M  RAD  3   1   2   2   2   3   3
M  END
