Coordinates from ORCA-job PhN2+~Cl-_B3LYPG-6-31G_dp-NX-Scan-d89-09-n800
 OpenBabel11261920353D

 14 14  0  0  0  0  0  0  0  0999 V2000
   -0.6103   -0.4469   -0.6447 C   0  0  0  0  0  0  0  0  0  0  0  0
   -0.4150   -1.5019   -1.6086 N   0  0  0  0  0  0  0  0  0  0  0  0
   -1.5112   -2.0036   -2.1216 N   0  0  0  0  0  0  0  0  0  0  0  0
   -1.3296    0.7391   -0.8838 C   0  0  0  0  0  0  0  0  0  0  0  0
   -1.3360    1.7602    0.0661 C   0  0  0  0  0  0  0  0  0  0  0  0
   -0.6365    1.6164    1.2665 C   0  0  0  0  0  0  0  0  0  0  0  0
    0.0906    0.4478    1.5045 C   0  0  0  0  0  0  0  0  0  0  0  0
    0.1113   -0.5700    0.5532 C   0  0  0  0  0  0  0  0  0  0  0  0
   -1.8576    0.8847   -1.8213 H   0  0  0  0  0  0  0  0  0  0  0  0
   -1.8903    2.6729   -0.1340 H   0  0  0  0  0  0  0  0  0  0  0  0
   -0.6493    2.4136    2.0042 H   0  0  0  0  0  0  0  0  0  0  0  0
    0.6501    0.3329    2.4287 H   0  0  0  0  0  0  0  0  0  0  0  0
    0.6878   -1.4759    0.7151 H   0  0  0  0  0  0  0  0  0  0  0  0
   -2.5449   -1.9186   -2.0420 Cl  0  0  0  0  0  0  0  0  0  0  0  0
  1  8  1  0  0  0  0
  2  1  1  0  0  0  0
  3 14  1  0  0  0  0
  3  2  2  0  0  0  0
  4  1  2  0  0  0  0
  4  5  1  0  0  0  0
  5  6  2  0  0  0  0
  6  7  1  0  0  0  0
  6 11  1  0  0  0  0
  7 12  1  0  0  0  0
  8 13  1  0  0  0  0
  8  7  2  0  0  0  0
  9  4  1  0  0  0  0
 10  5  1  0  0  0  0
M  END
