Coordinates from ORCA-job PhN2+~Cl-_B3LYPG-6-31G_dp-NX-Scan-d89-09-n800
 OpenBabel11261920353D

 14 14  0  0  0  0  0  0  0  0999 V2000
   -0.5911   -0.3899   -0.7044 C   0  0  0  0  0  0  0  0  0  0  0  0
   -0.4053   -1.3772   -1.7474 N   0  0  0  0  0  0  0  0  0  0  0  0
   -1.4539   -2.0562   -2.0820 N   0  0  0  0  0  0  0  0  0  0  0  0
   -1.2882    0.8073   -0.9292 C   0  0  0  0  0  0  0  0  0  0  0  0
   -1.3177    1.7937    0.0560 C   0  0  0  0  0  0  0  0  0  0  0  0
   -0.6590    1.5966    1.2721 C   0  0  0  0  0  0  0  0  0  0  0  0
    0.0440    0.4106    1.4931 C   0  0  0  0  0  0  0  0  0  0  0  0
    0.0869   -0.5753    0.5073 C   0  0  0  0  0  0  0  0  0  0  0  0
   -1.7833    0.9742   -1.8819 H   0  0  0  0  0  0  0  0  0  0  0  0
   -1.8547    2.7199   -0.1281 H   0  0  0  0  0  0  0  0  0  0  0  0
   -0.6845    2.3674    2.0371 H   0  0  0  0  0  0  0  0  0  0  0  0
    0.5686    0.2553    2.4316 H   0  0  0  0  0  0  0  0  0  0  0  0
    0.6474   -1.4927    0.6602 H   0  0  0  0  0  0  0  0  0  0  0  0
   -2.5500   -2.0828   -1.7022 Cl  0  0  0  0  0  0  0  0  0  0  0  0
  1  8  1  0  0  0  0
  2  1  1  0  0  0  0
  3  2  2  0  0  0  0
  3 14  1  0  0  0  0
  4  1  2  0  0  0  0
  4  5  1  0  0  0  0
  5  6  2  0  0  0  0
  6  7  1  0  0  0  0
  6 11  1  0  0  0  0
  7 12  1  0  0  0  0
  8 13  1  0  0  0  0
  8  7  2  0  0  0  0
  9  4  1  0  0  0  0
 10  5  1  0  0  0  0
M  END
