Coordinates from ORCA-job PhN2+~Cl-_B3LYPG-6-31G_dp-NX-Scan-d89-09-n800
 OpenBabel11261920353D

 14 14  0  0  0  0  0  0  0  0999 V2000
   -0.6932   -0.5453   -0.4319 C   0  0  0  0  0  0  0  0  0  0  0  0
   -0.6878   -1.7178   -1.2122 N   0  0  0  0  0  0  0  0  0  0  0  0
   -1.1978   -2.2273   -2.1404 N   0  0  0  0  0  0  0  0  0  0  0  0
   -1.5202    0.5587   -0.6958 C   0  0  0  0  0  0  0  0  0  0  0  0
   -1.4302    1.6630    0.1484 C   0  0  0  0  0  0  0  0  0  0  0  0
   -0.5413    1.6685    1.2272 C   0  0  0  0  0  0  0  0  0  0  0  0
    0.2758    0.5621    1.4779 C   0  0  0  0  0  0  0  0  0  0  0  0
    0.2039   -0.5503    0.6470 C   0  0  0  0  0  0  0  0  0  0  0  0
   -2.2007    0.5335   -1.5366 H   0  0  0  0  0  0  0  0  0  0  0  0
   -2.0606    2.5264   -0.0401 H   0  0  0  0  0  0  0  0  0  0  0  0
   -0.4848    2.5389    1.8744 H   0  0  0  0  0  0  0  0  0  0  0  0
    0.9650    0.5681    2.3162 H   0  0  0  0  0  0  0  0  0  0  0  0
    0.8245   -1.4246    0.8116 H   0  0  0  0  0  0  0  0  0  0  0  0
   -2.6936   -1.2032   -3.1634 Cl  0  0  0  0  0  0  0  0  0  0  0  0
  1  8  1  0  0  0  0
  2  1  1  0  0  0  0
  3  2  2  0  0  0  0
  4  1  2  0  0  0  0
  4  5  1  0  0  0  0
  5  6  2  0  0  0  0
  6  7  1  0  0  0  0
  6 11  1  0  0  0  0
  7 12  1  0  0  0  0
  8 13  1  0  0  0  0
  8  7  2  0  0  0  0
  9  4  1  0  0  0  0
 10  5  1  0  0  0  0
 14  3  1  0  0  0  0
M  END
