Coordinates from ORCA-job PhN2+~Cl-_B3LYPG-6-31G_dp-NX-Scan-d89-09-n800
 OpenBabel11261920353D

 14 14  0  0  1  0  0  0  0  0999 V2000
   -1.3537   -0.9747    0.0755 C   0  0  2  0  0  0  0  0  0  0  0  0
   -1.2609   -1.5234   -1.1226 N   0  0  0  0  0  0  0  0  0  0  0  0
   -1.0801   -1.7993   -2.2096 N   0  0  0  0  0  0  0  0  0  0  0  0
   -2.2991    0.1619    0.1306 C   0  0  0  0  0  0  0  0  0  0  0  0
   -1.7401    1.3846    0.1509 C   0  0  0  0  0  0  0  0  0  0  0  0
   -0.2652    1.4494   -0.0478 C   0  0  1  0  0  0  0  0  0  0  0  0
    0.4591    0.4279    0.7592 C   0  0  0  0  0  0  0  0  0  0  0  0
   -0.0482   -0.8173    0.7533 C   0  0  0  0  0  0  0  0  0  0  0  0
   -3.3713   -0.0089    0.1053 H   0  0  0  0  0  0  0  0  0  0  0  0
   -2.3191    2.3000    0.2198 H   0  0  0  0  0  0  0  0  0  0  0  0
    0.1596    2.4489   -0.0120 H   0  0  0  0  0  0  0  0  0  0  0  0
    1.3952    0.6842    1.2447 H   0  0  0  0  0  0  0  0  0  0  0  0
    0.4677   -1.6785    1.1664 H   0  0  0  0  0  0  0  0  0  0  0  0
    0.0153    0.8959   -1.9315 Cl  0  0  0  0  0  0  0  0  0  0  0  0
  1  2  1  6  0  0  0
  1  4  1  0  0  0  0
  1  8  1  0  0  0  0
  3  2  1  0  0  0  0
  4  5  2  0  0  0  0
  5 10  1  0  0  0  0
  6 11  1  1  0  0  0
  6  5  1  0  0  0  0
  6  7  1  0  0  0  0
  7 12  1  0  0  0  0
  8  7  2  0  0  0  0
  8 13  1  0  0  0  0
  9  4  1  0  0  0  0
 14  6  1  0  0  0  0
M  RAD  3   1   2   2   2   3   3
M  END
