Coordinates from ORCA-job PhN2+~Cl-_B3LYPG-6-31G_dp-NX-Scan-d89-09-n800
 OpenBabel11261920353D

 14 14  0  0  1  0  0  0  0  0999 V2000
   -1.3482   -0.9688    0.0645 C   0  0  2  0  0  0  0  0  0  0  0  0
   -1.2732   -1.5489   -1.1181 N   0  0  0  0  0  0  0  0  0  0  0  0
   -1.1236   -1.8887   -2.1918 N   0  0  0  0  0  0  0  0  0  0  0  0
   -2.2937    0.1660    0.1172 C   0  0  0  0  0  0  0  0  0  0  0  0
   -1.7388    1.3897    0.1507 C   0  0  0  0  0  0  0  0  0  0  0  0
   -0.2623    1.4623   -0.0380 C   0  0  1  0  0  0  0  0  0  0  0  0
    0.4620    0.4323    0.7593 C   0  0  0  0  0  0  0  0  0  0  0  0
   -0.0427   -0.8133    0.7399 C   0  0  0  0  0  0  0  0  0  0  0  0
   -3.3654   -0.0072    0.0845 H   0  0  0  0  0  0  0  0  0  0  0  0
   -2.3216    2.3025    0.2219 H   0  0  0  0  0  0  0  0  0  0  0  0
    0.1569    2.4631    0.0202 H   0  0  0  0  0  0  0  0  0  0  0  0
    1.3975    0.6846    1.2481 H   0  0  0  0  0  0  0  0  0  0  0  0
    0.4743   -1.6772    1.1459 H   0  0  0  0  0  0  0  0  0  0  0  0
    0.0377    0.9541   -1.9220 Cl  0  0  0  0  0  0  0  0  0  0  0  0
  1  2  1  6  0  0  0
  1  4  1  0  0  0  0
  1  8  1  0  0  0  0
  3  2  1  0  0  0  0
  4  5  2  0  0  0  0
  5 10  1  0  0  0  0
  6 11  1  1  0  0  0
  6  5  1  0  0  0  0
  6  7  1  0  0  0  0
  7 12  1  0  0  0  0
  8  7  2  0  0  0  0
  8 13  1  0  0  0  0
  9  4  1  0  0  0  0
 14  6  1  0  0  0  0
M  RAD  3   1   2   2   2   3   3
M  END
