Coordinates from ORCA-job PhN2+~Cl-_B3LYPG-6-31G_dp-NX-Scan-d89-09-n800
 OpenBabel11261920353D

 14 14  0  0  0  0  0  0  0  0999 V2000
   -0.7660   -0.5705   -0.4767 C   0  0  0  0  0  0  0  0  0  0  0  0
   -0.7276   -1.8043   -1.1809 N   0  0  0  0  0  0  0  0  0  0  0  0
   -1.4791   -1.8930   -2.2557 N   0  0  0  0  0  0  0  0  0  0  0  0
   -1.5118    0.6073   -0.7323 C   0  0  0  0  0  0  0  0  0  0  0  0
   -1.3850    1.7123    0.1142 C   0  0  0  0  0  0  0  0  0  0  0  0
   -0.5323    1.6835    1.2155 C   0  0  0  0  0  0  0  0  0  0  0  0
    0.2090    0.5249    1.4777 C   0  0  0  0  0  0  0  0  0  0  0  0
    0.0923   -0.5792    0.6466 C   0  0  0  0  0  0  0  0  0  0  0  0
   -2.1824    0.6710   -1.5788 H   0  0  0  0  0  0  0  0  0  0  0  0
   -1.9650    2.6061   -0.0991 H   0  0  0  0  0  0  0  0  0  0  0  0
   -0.4432    2.5511    1.8630 H   0  0  0  0  0  0  0  0  0  0  0  0
    0.8774    0.4873    2.3336 H   0  0  0  0  0  0  0  0  0  0  0  0
    0.6580   -1.4868    0.8322 H   0  0  0  0  0  0  0  0  0  0  0  0
   -2.0854   -1.5592   -2.8769 Cl  0  0  0  0  0  0  0  0  0  0  0  0
  1  8  1  0  0  0  0
  2  1  1  0  0  0  0
  3  2  2  0  0  0  0
  4  1  2  0  0  0  0
  4  5  1  0  0  0  0
  5  6  2  0  0  0  0
  6  7  1  0  0  0  0
  6 11  1  0  0  0  0
  7 12  1  0  0  0  0
  8 13  1  0  0  0  0
  8  7  2  0  0  0  0
  9  4  1  0  0  0  0
 10  5  1  0  0  0  0
 14  3  1  0  0  0  0
M  END
