Coordinates from ORCA-job PhN2+~Cl-_B3LYPG-6-31G_dp-NX-Scan-d89-09-n800
 OpenBabel11261920353D

 14 14  0  0  1  0  0  0  0  0999 V2000
   -1.2559   -0.9667   -0.2641 C   0  0  0  0  0  0  0  0  0  0  0  0
   -1.7163   -2.1767   -0.5015 N   0  0  0  0  0  0  0  0  0  0  0  0
   -2.1177   -3.2286   -0.7049 N   0  0  0  0  0  0  0  0  0  0  0  0
   -2.1242    0.1823   -0.4068 C   0  0  0  0  0  0  0  0  0  0  0  0
   -1.6611    1.4175   -0.1230 C   0  0  0  0  0  0  0  0  0  0  0  0
   -0.2602    1.6724    0.2853 C   0  0  1  0  0  0  0  0  0  0  0  0
    0.5566    0.4534    0.4886 C   0  0  0  0  0  0  0  0  0  0  0  0
    0.1001   -0.7848    0.2072 C   0  0  0  0  0  0  0  0  0  0  0  0
   -3.1520    0.0259   -0.7182 H   0  0  0  0  0  0  0  0  0  0  0  0
   -2.3189    2.2754   -0.2132 H   0  0  0  0  0  0  0  0  0  0  0  0
   -0.1784    2.3832    1.1082 H   0  0  0  0  0  0  0  0  0  0  0  0
    1.5671    0.5854    0.8600 H   0  0  0  0  0  0  0  0  0  0  0  0
    0.7244   -1.6602    0.3548 H   0  0  0  0  0  0  0  0  0  0  0  0
    0.5957    2.7723   -1.0902 Cl  0  0  0  0  0  0  0  0  0  0  0  0
  1  8  2  0  0  0  0
  2  1  1  0  0  0  0
  3  2  1  0  0  0  0
  4  1  1  0  0  0  0
  4  5  2  0  0  0  0
  5  6  1  0  0  0  0
  6  7  1  0  0  0  0
  6 11  1  1  0  0  0
  7 12  1  0  0  0  0
  8 13  1  0  0  0  0
  8  7  1  0  0  0  0
  9  4  1  0  0  0  0
 10  5  1  0  0  0  0
 14  6  1  0  0  0  0
M  RAD  3   2   2   3   3   7   2
M  END
