Coordinates from ORCA-job PhN2+~Cl-_B3LYPG-6-31G_dp-NX-Scan-d89-09-n800
 OpenBabel11261920353D

 14 14  0  0  1  0  0  0  0  0999 V2000
   -1.3184   -0.9371    0.0069 C   0  0  2  0  0  0  0  0  0  0  0  0
   -1.3474   -1.6896   -1.0711 N   0  0  0  0  0  0  0  0  0  0  0  0
   -1.3165   -2.2495   -2.0606 N   0  0  0  0  0  0  0  0  0  0  0  0
   -2.2646    0.1837    0.0452 C   0  0  0  0  0  0  0  0  0  0  0  0
   -1.7304    1.4134    0.1519 C   0  0  0  0  0  0  0  0  0  0  0  0
   -0.2523    1.5255    0.0255 C   0  0  1  0  0  0  0  0  0  0  0  0
    0.4733    0.4548    0.7606 C   0  0  0  0  0  0  0  0  0  0  0  0
   -0.0157   -0.7946    0.6670 C   0  0  0  0  0  0  0  0  0  0  0  0
   -3.3314    0.0002   -0.0430 H   0  0  0  0  0  0  0  0  0  0  0  0
   -2.3358    2.3109    0.2226 H   0  0  0  0  0  0  0  0  0  0  0  0
    0.1412    2.5267    0.1777 H   0  0  0  0  0  0  0  0  0  0  0  0
    1.4112    0.6809    1.2565 H   0  0  0  0  0  0  0  0  0  0  0  0
    0.5151   -1.6728    1.0212 H   0  0  0  0  0  0  0  0  0  0  0  0
    0.1308    1.1982   -1.8781 Cl  0  0  0  0  0  0  0  0  0  0  0  0
  1  2  1  6  0  0  0
  1  4  1  0  0  0  0
  1  8  1  0  0  0  0
  3  2  1  0  0  0  0
  4  5  2  0  0  0  0
  5 10  1  0  0  0  0
  6  5  1  0  0  0  0
  6 11  1  1  0  0  0
  6  7  1  0  0  0  0
  7 12  1  0  0  0  0
  8  7  2  0  0  0  0
  8 13  1  0  0  0  0
  9  4  1  0  0  0  0
 14  6  1  0  0  0  0
M  RAD  3   1   2   2   2   3   3
M  END
