Coordinates from ORCA-job PhN2+~Cl-_B3LYPG-6-31G_dp-NX-Scan-d89-09-n800
 OpenBabel11261920353D

 14 13  0  0  0  0  0  0  0  0999 V2000
   -0.6626   -0.5605   -0.3931 C   0  0  0  0  0  0  0  0  0  0  0  0
   -0.6939   -1.7166   -1.1924 N   0  0  0  0  0  0  0  0  0  0  0  0
   -1.1493   -2.2656   -2.0955 N   0  0  0  0  0  0  0  0  0  0  0  0
   -1.5079    0.5179   -0.6903 C   0  0  0  0  0  0  0  0  0  0  0  0
   -1.4324    1.6362    0.1364 C   0  0  0  0  0  0  0  0  0  0  0  0
   -0.5439    1.6662    1.2158 C   0  0  0  0  0  0  0  0  0  0  0  0
    0.2882    0.5748    1.4903 C   0  0  0  0  0  0  0  0  0  0  0  0
    0.2353   -0.5550    0.6821 C   0  0  0  0  0  0  0  0  0  0  0  0
   -2.1810    0.4449   -1.5416 H   0  0  0  0  0  0  0  0  0  0  0  0
   -2.0724    2.4892   -0.0659 H   0  0  0  0  0  0  0  0  0  0  0  0
   -0.4983    2.5473    1.8493 H   0  0  0  0  0  0  0  0  0  0  0  0
    0.9737    0.6066    2.3307 H   0  0  0  0  0  0  0  0  0  0  0  0
    0.8651   -1.4190    0.8643 H   0  0  0  0  0  0  0  0  0  0  0  0
   -2.8614   -1.0157   -3.3078 Cl  0  0  0  0  0  0  0  0  0  0  0  0
  1  8  1  0  0  0  0
  2  1  1  0  0  0  0
  3  2  2  0  0  0  0
  4  1  2  0  0  0  0
  4  5  1  0  0  0  0
  5  6  2  0  0  0  0
  6  7  1  0  0  0  0
  6 11  1  0  0  0  0
  7 12  1  0  0  0  0
  8 13  1  0  0  0  0
  8  7  2  0  0  0  0
  9  4  1  0  0  0  0
 10  5  1  0  0  0  0
M  RAD  2   3   2  14   2
M  END
