Coordinates from ORCA-job PhN2+~Cl-_B3LYPG-6-31G_dp-NX-Scan-d89-09-n800
 OpenBabel11261920353D

 14 14  0  0  1  0  0  0  0  0999 V2000
   -1.2613   -0.9808   -0.2670 C   0  0  0  0  0  0  0  0  0  0  0  0
   -1.7438   -2.1957   -0.4322 N   0  0  0  0  0  0  0  0  0  0  0  0
   -2.1662   -3.2523   -0.5665 N   0  0  0  0  0  0  0  0  0  0  0  0
   -2.1140    0.1771   -0.4431 C   0  0  0  0  0  0  0  0  0  0  0  0
   -1.6473    1.4149   -0.1736 C   0  0  0  0  0  0  0  0  0  0  0  0
   -0.2623    1.6722    0.2924 C   0  0  1  0  0  0  0  0  0  0  0  0
    0.5688    0.4516    0.4375 C   0  0  0  0  0  0  0  0  0  0  0  0
    0.1064   -0.7882    0.1697 C   0  0  0  0  0  0  0  0  0  0  0  0
   -3.1381    0.0268   -0.7693 H   0  0  0  0  0  0  0  0  0  0  0  0
   -2.3003    2.2732   -0.2911 H   0  0  0  0  0  0  0  0  0  0  0  0
   -0.2275    2.3129    1.1754 H   0  0  0  0  0  0  0  0  0  0  0  0
    1.5886    0.5822    0.7831 H   0  0  0  0  0  0  0  0  0  0  0  0
    0.7395   -1.6596    0.3035 H   0  0  0  0  0  0  0  0  0  0  0  0
    0.6165    2.9163   -0.9366 Cl  0  0  0  0  0  0  0  0  0  0  0  0
  1  8  2  0  0  0  0
  2  1  1  0  0  0  0
  3  2  1  0  0  0  0
  4  1  1  0  0  0  0
  4  5  2  0  0  0  0
  5  6  1  0  0  0  0
  6  7  1  0  0  0  0
  6 11  1  1  0  0  0
  7 12  1  0  0  0  0
  8 13  1  0  0  0  0
  8  7  1  0  0  0  0
  9  4  1  0  0  0  0
 10  5  1  0  0  0  0
 14  6  1  0  0  0  0
M  RAD  3   2   2   3   3   7   2
M  END
