Coordinates from ORCA-job PhN2+~Cl-_B3LYPG-6-31G_dp-NX-Scan-d89-09-n800
 OpenBabel11261920353D

 14 13  0  0  0  0  0  0  0  0999 V2000
   -1.3226   -1.0814   -0.2028 C   0  0  0  0  0  0  0  0  0  0  0  0
   -1.8244   -2.3301   -0.3548 N   0  0  0  0  0  0  0  0  0  0  0  0
   -2.2488   -3.3754   -0.4661 N   0  0  0  0  0  0  0  0  0  0  0  0
   -2.1752    0.0395   -0.4162 C   0  0  0  0  0  0  0  0  0  0  0  0
   -1.6609    1.2995   -0.1832 C   0  0  0  0  0  0  0  0  0  0  0  0
   -0.3396    1.4789    0.2784 C   0  0  0  0  0  0  0  0  0  0  0  0
    0.5035    0.3557    0.4168 C   0  0  0  0  0  0  0  0  0  0  0  0
    0.0353   -0.9244    0.1966 C   0  0  0  0  0  0  0  0  0  0  0  0
   -3.2014   -0.1130   -0.7314 H   0  0  0  0  0  0  0  0  0  0  0  0
   -2.2886    2.1709   -0.3360 H   0  0  0  0  0  0  0  0  0  0  0  0
    0.0392    2.4838    0.4893 H   0  0  0  0  0  0  0  0  0  0  0  0
    1.5330    0.5034    0.7251 H   0  0  0  0  0  0  0  0  0  0  0  0
    0.6615   -1.7978    0.3417 H   0  0  0  0  0  0  0  0  0  0  0  0
    1.0480    4.2410   -0.4753 Cl  0  0  0  0  0  0  0  0  0  0  0  0
  1  8  1  0  0  0  0
  2  1  1  0  0  0  0
  3  2  1  0  0  0  0
  4  1  2  0  0  0  0
  4  5  1  0  0  0  0
  5  6  2  0  0  0  0
  6  7  1  0  0  0  0
  6 11  1  0  0  0  0
  7 12  1  0  0  0  0
  8 13  1  0  0  0  0
  8  7  2  0  0  0  0
  9  4  1  0  0  0  0
 10  5  1  0  0  0  0
M  RAD  3   2   2   3   3  14   2
M  END
