Coordinates from ORCA-job PhN2+~Cl-_B3LYPG-6-31G_dp-NX-Scan-d89-09-n800
 OpenBabel11261920353D

 14 13  0  0  0  0  0  0  0  0999 V2000
   -0.6690   -0.5579   -0.3983 C   0  0  0  0  0  0  0  0  0  0  0  0
   -0.6961   -1.7170   -1.1948 N   0  0  0  0  0  0  0  0  0  0  0  0
   -1.1619   -2.2551   -2.1035 N   0  0  0  0  0  0  0  0  0  0  0  0
   -1.5114    0.5246   -0.6893 C   0  0  0  0  0  0  0  0  0  0  0  0
   -1.4326    1.6410    0.1397 C   0  0  0  0  0  0  0  0  0  0  0  0
   -0.5425    1.6671    1.2179 C   0  0  0  0  0  0  0  0  0  0  0  0
    0.2872    0.5731    1.4878 C   0  0  0  0  0  0  0  0  0  0  0  0
    0.2299   -0.5543    0.6763 C   0  0  0  0  0  0  0  0  0  0  0  0
   -2.1860    0.4582   -1.5383 H   0  0  0  0  0  0  0  0  0  0  0  0
   -2.0711    2.4958   -0.0597 H   0  0  0  0  0  0  0  0  0  0  0  0
   -0.4941    2.5466    1.8532 H   0  0  0  0  0  0  0  0  0  0  0  0
    0.9743    0.6009    2.3270 H   0  0  0  0  0  0  0  0  0  0  0  0
    0.8582   -1.4202    0.8554 H   0  0  0  0  0  0  0  0  0  0  0  0
   -2.8258   -1.0522   -3.2910 Cl  0  0  0  0  0  0  0  0  0  0  0  0
  1  8  1  0  0  0  0
  2  1  1  0  0  0  0
  3  2  2  0  0  0  0
  4  1  2  0  0  0  0
  4  5  1  0  0  0  0
  5  6  2  0  0  0  0
  6  7  1  0  0  0  0
  6 11  1  0  0  0  0
  7 12  1  0  0  0  0
  8 13  1  0  0  0  0
  8  7  2  0  0  0  0
  9  4  1  0  0  0  0
 10  5  1  0  0  0  0
M  RAD  2   3   2  14   2
M  END
