Coordinates from ORCA-job PhN2+~Cl-_B3LYPG-6-31G_dp-NX-Scan-d89-09-n800
 OpenBabel11261920353D

 14 13  0  0  0  0  0  0  0  0999 V2000
   -1.3076   -1.0604   -0.2243 C   0  0  0  0  0  0  0  0  0  0  0  0
   -1.8005   -2.3057   -0.4019 N   0  0  0  0  0  0  0  0  0  0  0  0
   -2.2196   -3.3518   -0.5325 N   0  0  0  0  0  0  0  0  0  0  0  0
   -2.1656    0.0622   -0.4184 C   0  0  0  0  0  0  0  0  0  0  0  0
   -1.6680    1.3173   -0.1400 C   0  0  0  0  0  0  0  0  0  0  0  0
   -0.3540    1.4930    0.3492 C   0  0  0  0  0  0  0  0  0  0  0  0
    0.5003    0.3728    0.4600 C   0  0  0  0  0  0  0  0  0  0  0  0
    0.0464   -0.9014    0.1938 C   0  0  0  0  0  0  0  0  0  0  0  0
   -3.1861   -0.0892   -0.7522 H   0  0  0  0  0  0  0  0  0  0  0  0
   -2.3004    2.1879   -0.2754 H   0  0  0  0  0  0  0  0  0  0  0  0
   -0.0004    2.4829    0.6289 H   0  0  0  0  0  0  0  0  0  0  0  0
    1.5244    0.5205    0.7848 H   0  0  0  0  0  0  0  0  0  0  0  0
    0.6788   -1.7734    0.3193 H   0  0  0  0  0  0  0  0  0  0  0  0
    1.0114    3.9961   -0.7090 Cl  0  0  0  0  0  0  0  0  0  0  0  0
  1  8  1  0  0  0  0
  2  1  1  0  0  0  0
  3  2  1  0  0  0  0
  4  1  2  0  0  0  0
  4  5  1  0  0  0  0
  5  6  2  0  0  0  0
  6  7  1  0  0  0  0
  6 11  1  0  0  0  0
  7 12  1  0  0  0  0
  8 13  1  0  0  0  0
  8  7  2  0  0  0  0
  9  4  1  0  0  0  0
 10  5  1  0  0  0  0
M  RAD  3   2   2   3   3  14   2
M  END
