Coordinates from ORCA-job PhN2+~Cl-_B3LYPG-6-31G_dp-NX-Scan-d89-09-n800
 OpenBabel11261920353D

 14 14  0  0  1  0  0  0  0  0999 V2000
   -1.2510   -0.9194   -0.2091 C   0  0  0  0  0  0  0  0  0  0  0  0
   -1.6004   -2.0656   -0.7469 N   0  0  0  0  0  0  0  0  0  0  0  0
   -1.8886   -3.0492   -1.2469 N   0  0  0  0  0  0  0  0  0  0  0  0
   -2.1671    0.1994   -0.2493 C   0  0  0  0  0  0  0  0  0  0  0  0
   -1.6981    1.4308    0.0367 C   0  0  0  0  0  0  0  0  0  0  0  0
   -0.2502    1.6591    0.2281 C   0  0  1  0  0  0  0  0  0  0  0  0
    0.5174    0.4674    0.6478 C   0  0  0  0  0  0  0  0  0  0  0  0
    0.0673   -0.7725    0.3679 C   0  0  0  0  0  0  0  0  0  0  0  0
   -3.2080    0.0215   -0.4993 H   0  0  0  0  0  0  0  0  0  0  0  0
   -2.3588    2.2908    0.0299 H   0  0  0  0  0  0  0  0  0  0  0  0
   -0.0151    2.5577    0.7938 H   0  0  0  0  0  0  0  0  0  0  0  0
    1.4953    0.6146    1.0926 H   0  0  0  0  0  0  0  0  0  0  0  0
    0.6570   -1.6603    0.5714 H   0  0  0  0  0  0  0  0  0  0  0  0
    0.4594    2.1763   -1.5345 Cl  0  0  0  0  0  0  0  0  0  0  0  0
  1  8  2  0  0  0  0
  2  1  1  0  0  0  0
  3  2  1  0  0  0  0
  4  1  1  0  0  0  0
  4  5  2  0  0  0  0
  5  6  1  0  0  0  0
  6  7  1  0  0  0  0
  6 11  1  1  0  0  0
  7 12  1  0  0  0  0
  8 13  1  0  0  0  0
  8  7  1  0  0  0  0
  9  4  1  0  0  0  0
 10  5  1  0  0  0  0
 14  6  1  0  0  0  0
M  RAD  3   2   2   3   3   7   2
M  END
