Coordinates from ORCA-job PhN2+~Cl-_B3LYPG-6-31G_dp-NX-Scan-d89-09-n800
 OpenBabel11261920353D

 14 13  0  0  0  0  0  0  0  0999 V2000
   -1.2752   -1.0194   -0.2772 C   0  0  0  0  0  0  0  0  0  0  0  0
   -1.7711   -2.2571   -0.4303 N   0  0  0  0  0  0  0  0  0  0  0  0
   -2.1997   -3.3080   -0.5328 N   0  0  0  0  0  0  0  0  0  0  0  0
   -2.1294    0.1196   -0.4559 C   0  0  0  0  0  0  0  0  0  0  0  0
   -1.6576    1.3642   -0.1277 C   0  0  0  0  0  0  0  0  0  0  0  0
   -0.3418    1.5524    0.3941 C   0  0  0  0  0  0  0  0  0  0  0  0
    0.5204    0.4167    0.4737 C   0  0  0  0  0  0  0  0  0  0  0  0
    0.0812   -0.8423    0.1548 C   0  0  0  0  0  0  0  0  0  0  0  0
   -3.1456   -0.0244   -0.8062 H   0  0  0  0  0  0  0  0  0  0  0  0
   -2.3067    2.2263   -0.2310 H   0  0  0  0  0  0  0  0  0  0  0  0
   -0.1185    2.4332    0.9736 H   0  0  0  0  0  0  0  0  0  0  0  0
    1.5343    0.5543    0.8312 H   0  0  0  0  0  0  0  0  0  0  0  0
    0.7242   -1.7088    0.2650 H   0  0  0  0  0  0  0  0  0  0  0  0
    0.8447    3.4439   -0.9490 Cl  0  0  0  0  0  0  0  0  0  0  0  0
  1  8  1  0  0  0  0
  2  1  1  0  0  0  0
  3  2  1  0  0  0  0
  4  1  2  0  0  0  0
  4  5  1  0  0  0  0
  5  6  2  0  0  0  0
  6  7  1  0  0  0  0
  6 11  1  0  0  0  0
  7 12  1  0  0  0  0
  8 13  1  0  0  0  0
  8  7  2  0  0  0  0
  9  4  1  0  0  0  0
 10  5  1  0  0  0  0
M  RAD  3   2   2   3   3  14   2
M  END
