Coordinates from ORCA-job PhN2+~Cl-_B3LYPG-6-31G_dp-NX-Scan-d89-09-n800
 OpenBabel11261920353D

 14 14  0  0  1  0  0  0  0  0999 V2000
   -1.2866   -0.9110   -0.0674 C   0  0  2  0  0  0  0  0  0  0  0  0
   -1.4290   -1.8285   -0.9950 N   0  0  0  0  0  0  0  0  0  0  0  0
   -1.5084   -2.5646   -1.8595 N   0  0  0  0  0  0  0  0  0  0  0  0
   -2.2323    0.1972   -0.0404 C   0  0  0  0  0  0  0  0  0  0  0  0
   -1.7219    1.4298    0.1412 C   0  0  0  0  0  0  0  0  0  0  0  0
   -0.2467    1.5828    0.0956 C   0  0  1  0  0  0  0  0  0  0  0  0
    0.4844    0.4701    0.7503 C   0  0  0  0  0  0  0  0  0  0  0  0
    0.0123   -0.7792    0.5798 C   0  0  0  0  0  0  0  0  0  0  0  0
   -3.2913    0.0074   -0.1863 H   0  0  0  0  0  0  0  0  0  0  0  0
   -2.3506    2.3115    0.2013 H   0  0  0  0  0  0  0  0  0  0  0  0
    0.1133    2.5743    0.3550 H   0  0  0  0  0  0  0  0  0  0  0  0
    1.4296    0.6672    1.2441 H   0  0  0  0  0  0  0  0  0  0  0  0
    0.5590   -1.6675    0.8794 H   0  0  0  0  0  0  0  0  0  0  0  0
    0.2274    1.4613   -1.8157 Cl  0  0  0  0  0  0  0  0  0  0  0  0
  1  2  1  6  0  0  0
  1  4  1  0  0  0  0
  1  8  1  0  0  0  0
  3  2  1  0  0  0  0
  4  5  2  0  0  0  0
  5 10  1  0  0  0  0
  6  5  1  0  0  0  0
  6 11  1  1  0  0  0
  6  7  1  0  0  0  0
  7 12  1  0  0  0  0
  8  7  2  0  0  0  0
  8 13  1  0  0  0  0
  9  4  1  0  0  0  0
 14  6  1  0  0  0  0
M  RAD  3   1   2   2   2   3   3
M  END
