Coordinates from ORCA-job PhN2+~Cl-_B3LYPG-6-31G_dp-NX-Scan-d89-09-n800
 OpenBabel11261920353D

 14 14  0  0  1  0  0  0  0  0999 V2000
   -1.2650   -0.9027   -0.1330 C   0  0  2  0  0  0  0  0  0  0  0  0
   -1.4990   -1.9347   -0.9089 N   0  0  0  0  0  0  0  0  0  0  0  0
   -1.6688   -2.7933   -1.6377 N   0  0  0  0  0  0  0  0  0  0  0  0
   -2.2048    0.2028   -0.1219 C   0  0  0  0  0  0  0  0  0  0  0  0
   -1.7143    1.4353    0.1145 C   0  0  0  0  0  0  0  0  0  0  0  0
   -0.2457    1.6221    0.1533 C   0  0  1  0  0  0  0  0  0  0  0  0
    0.4954    0.4743    0.7243 C   0  0  0  0  0  0  0  0  0  0  0  0
    0.0357   -0.7716    0.4970 C   0  0  0  0  0  0  0  0  0  0  0  0
   -3.2566    0.0136   -0.3121 H   0  0  0  0  0  0  0  0  0  0  0  0
   -2.3600    2.3055    0.1565 H   0  0  0  0  0  0  0  0  0  0  0  0
    0.0745    2.5921    0.5236 H   0  0  0  0  0  0  0  0  0  0  0  0
    1.4507    0.6481    1.2070 H   0  0  0  0  0  0  0  0  0  0  0  0
    0.5980   -1.6632    0.7547 H   0  0  0  0  0  0  0  0  0  0  0  0
    0.3190    1.7226   -1.7349 Cl  0  0  0  0  0  0  0  0  0  0  0  0
  1  2  1  6  0  0  0
  1  4  1  0  0  0  0
  1  8  1  0  0  0  0
  3  2  1  0  0  0  0
  4  5  2  0  0  0  0
  5  6  1  0  0  0  0
  5 10  1  0  0  0  0
  6 11  1  1  0  0  0
  6  7  1  0  0  0  0
  7 12  1  0  0  0  0
  8  7  2  0  0  0  0
  8 13  1  0  0  0  0
  9  4  1  0  0  0  0
 14  6  1  0  0  0  0
M  RAD  3   1   2   2   2   3   3
M  END
