Coordinates from ORCA-job PhN2+~Cl-_B3LYPG-6-31G_dp-NX-Scan-d89-09-n800
 OpenBabel11261920353D

 14 13  0  0  0  0  0  0  0  0999 V2000
   -1.2786   -1.0228   -0.2700 C   0  0  0  0  0  0  0  0  0  0  0  0
   -1.7713   -2.2618   -0.4371 N   0  0  0  0  0  0  0  0  0  0  0  0
   -2.1961   -3.3117   -0.5518 N   0  0  0  0  0  0  0  0  0  0  0  0
   -2.1357    0.1120   -0.4469 C   0  0  0  0  0  0  0  0  0  0  0  0
   -1.6622    1.3575   -0.1179 C   0  0  0  0  0  0  0  0  0  0  0  0
   -0.3493    1.5400    0.4020 C   0  0  0  0  0  0  0  0  0  0  0  0
    0.5142    0.4106    0.4831 C   0  0  0  0  0  0  0  0  0  0  0  0
    0.0757   -0.8503    0.1642 C   0  0  0  0  0  0  0  0  0  0  0  0
   -3.1512   -0.0335   -0.7985 H   0  0  0  0  0  0  0  0  0  0  0  0
   -2.3086    2.2213   -0.2235 H   0  0  0  0  0  0  0  0  0  0  0  0
   -0.0974    2.4494    0.9230 H   0  0  0  0  0  0  0  0  0  0  0  0
    1.5288    0.5509    0.8377 H   0  0  0  0  0  0  0  0  0  0  0  0
    0.7178   -1.7176    0.2726 H   0  0  0  0  0  0  0  0  0  0  0  0
    0.8732    3.5068   -0.9544 Cl  0  0  0  0  0  0  0  0  0  0  0  0
  1  8  1  0  0  0  0
  2  1  1  0  0  0  0
  3  2  1  0  0  0  0
  4  1  2  0  0  0  0
  4  5  1  0  0  0  0
  5  6  2  0  0  0  0
  6  7  1  0  0  0  0
  6 11  1  0  0  0  0
  7 12  1  0  0  0  0
  8 13  1  0  0  0  0
  8  7  2  0  0  0  0
  9  4  1  0  0  0  0
 10  5  1  0  0  0  0
M  RAD  3   2   2   3   3  14   2
M  END
