Coordinates from ORCA-job PhN2+~Cl-_B3LYPG-6-31G_dp-NX-Scan-d89-09-n800
 OpenBabel11261920353D

 14 14  0  0  1  0  0  0  0  0999 V2000
   -1.2763   -1.0107   -0.2604 C   0  0  0  0  0  0  0  0  0  0  0  0
   -1.7903   -2.2314   -0.3196 N   0  0  0  0  0  0  0  0  0  0  0  0
   -2.2399   -3.2895   -0.3554 N   0  0  0  0  0  0  0  0  0  0  0  0
   -2.0973    0.1643   -0.4951 C   0  0  0  0  0  0  0  0  0  0  0  0
   -1.6185    1.4092   -0.2587 C   0  0  0  0  0  0  0  0  0  0  0  0
   -0.2658    1.6678    0.2978 C   0  0  1  0  0  0  0  0  0  0  0  0
    0.5848    0.4514    0.3489 C   0  0  0  0  0  0  0  0  0  0  0  0
    0.1102   -0.7953    0.1141 C   0  0  0  0  0  0  0  0  0  0  0  0
   -3.1168    0.0274   -0.8416 H   0  0  0  0  0  0  0  0  0  0  0  0
   -2.2646    2.2654   -0.4210 H   0  0  0  0  0  0  0  0  0  0  0  0
   -0.2973    2.1993    1.2504 H   0  0  0  0  0  0  0  0  0  0  0  0
    1.6187    0.5768    0.6521 H   0  0  0  0  0  0  0  0  0  0  0  0
    0.7591   -1.6579    0.2299 H   0  0  0  0  0  0  0  0  0  0  0  0
    0.6530    3.1738   -0.6593 Cl  0  0  0  0  0  0  0  0  0  0  0  0
  1  8  2  0  0  0  0
  2  1  1  0  0  0  0
  3  2  1  0  0  0  0
  4  1  1  0  0  0  0
  4  5  2  0  0  0  0
  5  6  1  0  0  0  0
  6  7  1  0  0  0  0
  6 11  1  1  0  0  0
  7 12  1  0  0  0  0
  8 13  1  0  0  0  0
  8  7  1  0  0  0  0
  9  4  1  0  0  0  0
 10  5  1  0  0  0  0
 14  6  1  0  0  0  0
M  RAD  3   2   2   3   3   7   2
M  END
