Coordinates from ORCA-job PhN2+~Cl-_B3LYPG-6-31G_dp-NX-Scan-d89-09-n800
 OpenBabel11261920353D

 14 13  0  0  0  0  0  0  0  0999 V2000
   -1.3081   -1.0612   -0.2236 C   0  0  0  0  0  0  0  0  0  0  0  0
   -1.8013   -2.3066   -0.4004 N   0  0  0  0  0  0  0  0  0  0  0  0
   -2.2206   -3.3526   -0.5302 N   0  0  0  0  0  0  0  0  0  0  0  0
   -2.1659    0.0613   -0.4184 C   0  0  0  0  0  0  0  0  0  0  0  0
   -1.6678    1.3167   -0.1414 C   0  0  0  0  0  0  0  0  0  0  0  0
   -0.3536    1.4924    0.3471 C   0  0  0  0  0  0  0  0  0  0  0  0
    0.5004    0.3722    0.4586 C   0  0  0  0  0  0  0  0  0  0  0  0
    0.0460   -0.9023    0.1938 C   0  0  0  0  0  0  0  0  0  0  0  0
   -3.1866   -0.0900   -0.7516 H   0  0  0  0  0  0  0  0  0  0  0  0
   -2.3001    2.1872   -0.2774 H   0  0  0  0  0  0  0  0  0  0  0  0
    0.0007    2.4828    0.6248 H   0  0  0  0  0  0  0  0  0  0  0  0
    1.5246    0.5199    0.7829 H   0  0  0  0  0  0  0  0  0  0  0  0
    0.6783   -1.7742    0.3200 H   0  0  0  0  0  0  0  0  0  0  0  0
    1.0131    4.0052   -0.7019 Cl  0  0  0  0  0  0  0  0  0  0  0  0
  1  8  1  0  0  0  0
  2  1  1  0  0  0  0
  3  2  1  0  0  0  0
  4  1  2  0  0  0  0
  4  5  1  0  0  0  0
  5  6  2  0  0  0  0
  6  7  1  0  0  0  0
  6 11  1  0  0  0  0
  7 12  1  0  0  0  0
  8 13  1  0  0  0  0
  8  7  2  0  0  0  0
  9  4  1  0  0  0  0
 10  5  1  0  0  0  0
M  RAD  3   2   2   3   3  14   2
M  END
