Coordinates from ORCA-job PhN2+~Cl-_B3LYPG-6-31G_dp-NX-Scan-d89-09-n800
 OpenBabel11261920353D

 14 13  0  0  0  0  0  0  0  0999 V2000
   -1.2791   -1.0235   -0.2696 C   0  0  0  0  0  0  0  0  0  0  0  0
   -1.7719   -2.2626   -0.4361 N   0  0  0  0  0  0  0  0  0  0  0  0
   -2.1969   -3.3124   -0.5502 N   0  0  0  0  0  0  0  0  0  0  0  0
   -2.1360    0.1111   -0.4469 C   0  0  0  0  0  0  0  0  0  0  0  0
   -1.6622    1.3568   -0.1186 C   0  0  0  0  0  0  0  0  0  0  0  0
   -0.3494    1.5392    0.4013 C   0  0  0  0  0  0  0  0  0  0  0  0
    0.5139    0.4100    0.4824 C   0  0  0  0  0  0  0  0  0  0  0  0
    0.0753   -0.8511    0.1641 C   0  0  0  0  0  0  0  0  0  0  0  0
   -3.1515   -0.0343   -0.7983 H   0  0  0  0  0  0  0  0  0  0  0  0
   -2.3085    2.2207   -0.2246 H   0  0  0  0  0  0  0  0  0  0  0  0
   -0.0969    2.4493    0.9208 H   0  0  0  0  0  0  0  0  0  0  0  0
    1.5287    0.5503    0.8366 H   0  0  0  0  0  0  0  0  0  0  0  0
    0.7174   -1.7184    0.2727 H   0  0  0  0  0  0  0  0  0  0  0  0
    0.8761    3.5154   -0.9512 Cl  0  0  0  0  0  0  0  0  0  0  0  0
  1  8  1  0  0  0  0
  2  1  1  0  0  0  0
  3  2  1  0  0  0  0
  4  1  2  0  0  0  0
  4  5  1  0  0  0  0
  5  6  2  0  0  0  0
  6  7  1  0  0  0  0
  6 11  1  0  0  0  0
  7 12  1  0  0  0  0
  8 13  1  0  0  0  0
  8  7  2  0  0  0  0
  9  4  1  0  0  0  0
 10  5  1  0  0  0  0
M  RAD  3   2   2   3   3  14   2
M  END
