Coordinates from ORCA-job PhN2+~Cl-_B3LYPG-6-31G_dp-NX-Scan-d89-09-n800
 OpenBabel11261920353D

 14 14  0  0  1  0  0  0  0  0999 V2000
   -1.3180   -0.9366    0.0058 C   0  0  2  0  0  0  0  0  0  0  0  0
   -1.3487   -1.6918   -1.0702 N   0  0  0  0  0  0  0  0  0  0  0  0
   -1.3194   -2.2547   -2.0580 N   0  0  0  0  0  0  0  0  0  0  0  0
   -2.2641    0.1840    0.0440 C   0  0  0  0  0  0  0  0  0  0  0  0
   -1.7302    1.4137    0.1519 C   0  0  0  0  0  0  0  0  0  0  0  0
   -0.2522    1.5265    0.0266 C   0  0  1  0  0  0  0  0  0  0  0  0
    0.4734    0.4551    0.7606 C   0  0  0  0  0  0  0  0  0  0  0  0
   -0.0153   -0.7944    0.6658 C   0  0  0  0  0  0  0  0  0  0  0  0
   -3.3308    0.0003   -0.0451 H   0  0  0  0  0  0  0  0  0  0  0  0
   -2.3360    2.3110    0.2224 H   0  0  0  0  0  0  0  0  0  0  0  0
    0.1408    2.5276    0.1803 H   0  0  0  0  0  0  0  0  0  0  0  0
    1.4115    0.6808    1.2565 H   0  0  0  0  0  0  0  0  0  0  0  0
    0.5157   -1.6727    1.0191 H   0  0  0  0  0  0  0  0  0  0  0  0
    0.1323    1.2020   -1.8773 Cl  0  0  0  0  0  0  0  0  0  0  0  0
  1  2  1  6  0  0  0
  1  4  1  0  0  0  0
  1  8  1  0  0  0  0
  3  2  1  0  0  0  0
  4  5  2  0  0  0  0
  5 10  1  0  0  0  0
  6  5  1  0  0  0  0
  6 11  1  1  0  0  0
  6  7  1  0  0  0  0
  7 12  1  0  0  0  0
  8  7  2  0  0  0  0
  8 13  1  0  0  0  0
  9  4  1  0  0  0  0
 14  6  1  0  0  0  0
M  RAD  3   1   2   2   2   3   3
M  END
