Coordinates from ORCA-job PhN2+~Cl-_B3LYPG-6-31G_dp-NX-Scan-d89-09-n800
 OpenBabel11261920353D

 14 14  0  0  1  0  0  0  0  0999 V2000
   -1.2506   -0.9401   -0.2419 C   0  0  0  0  0  0  0  0  0  0  0  0
   -1.6576   -2.1264   -0.6351 N   0  0  0  0  0  0  0  0  0  0  0  0
   -2.0056   -3.1539   -0.9914 N   0  0  0  0  0  0  0  0  0  0  0  0
   -2.1461    0.1922   -0.3261 C   0  0  0  0  0  0  0  0  0  0  0  0
   -1.6833    1.4244   -0.0314 C   0  0  0  0  0  0  0  0  0  0  0  0
   -0.2550    1.6692    0.2612 C   0  0  1  0  0  0  0  0  0  0  0  0
    0.5343    0.4602    0.5803 C   0  0  0  0  0  0  0  0  0  0  0  0
    0.0842   -0.7777    0.2897 C   0  0  0  0  0  0  0  0  0  0  0  0
   -3.1808    0.0241   -0.6066 H   0  0  0  0  0  0  0  0  0  0  0  0
   -2.3458    2.2822   -0.0746 H   0  0  0  0  0  0  0  0  0  0  0  0
   -0.0863    2.4943    0.9511 H   0  0  0  0  0  0  0  0  0  0  0  0
    1.5271    0.5977    0.9943 H   0  0  0  0  0  0  0  0  0  0  0  0
    0.6906   -1.6602    0.4654 H   0  0  0  0  0  0  0  0  0  0  0  0
    0.5342    2.4648   -1.3525 Cl  0  0  0  0  0  0  0  0  0  0  0  0
  1  8  2  0  0  0  0
  2  1  1  0  0  0  0
  3  2  1  0  0  0  0
  4  1  1  0  0  0  0
  4  5  2  0  0  0  0
  5  6  1  0  0  0  0
  6  7  1  0  0  0  0
  6 11  1  1  0  0  0
  7 12  1  0  0  0  0
  8 13  1  0  0  0  0
  8  7  1  0  0  0  0
  9  4  1  0  0  0  0
 10  5  1  0  0  0  0
 14  6  1  0  0  0  0
M  RAD  3   2   2   3   3   7   2
M  END
