Coordinates from ORCA-job PhN2+~Cl-_B3LYPG-6-31G_dp-NX-Scan-d89-09-n800
 OpenBabel11261920353D

 14 14  0  0  1  0  0  0  0  0999 V2000
   -1.3248   -0.9434    0.0199 C   0  0  2  0  0  0  0  0  0  0  0  0
   -1.3313   -1.6603   -1.0834 N   0  0  0  0  0  0  0  0  0  0  0  0
   -1.2777   -2.1807   -2.0929 N   0  0  0  0  0  0  0  0  0  0  0  0
   -2.2708    0.1804    0.0609 C   0  0  0  0  0  0  0  0  0  0  0  0
   -1.7321    1.4090    0.1523 C   0  0  0  0  0  0  0  0  0  0  0  0
   -0.2540    1.5129    0.0117 C   0  0  1  0  0  0  0  0  0  0  0  0
    0.4711    0.4506    0.7610 C   0  0  0  0  0  0  0  0  0  0  0  0
   -0.0213   -0.7982    0.6830 C   0  0  0  0  0  0  0  0  0  0  0  0
   -3.3389   -0.0012   -0.0152 H   0  0  0  0  0  0  0  0  0  0  0  0
   -2.3327    2.3098    0.2240 H   0  0  0  0  0  0  0  0  0  0  0  0
    0.1451    2.5147    0.1443 H   0  0  0  0  0  0  0  0  0  0  0  0
    1.4080    0.6825    1.2562 H   0  0  0  0  0  0  0  0  0  0  0  0
    0.5064   -1.6737    1.0484 H   0  0  0  0  0  0  0  0  0  0  0  0
    0.1122    1.1483   -1.8879 Cl  0  0  0  0  0  0  0  0  0  0  0  0
  1  2  1  6  0  0  0
  1  4  1  0  0  0  0
  1  8  1  0  0  0  0
  3  2  1  0  0  0  0
  4  5  2  0  0  0  0
  5 10  1  0  0  0  0
  6 11  1  1  0  0  0
  6  5  1  0  0  0  0
  6  7  1  0  0  0  0
  7 12  1  0  0  0  0
  8  7  2  0  0  0  0
  8 13  1  0  0  0  0
  9  4  1  0  0  0  0
 14  6  1  0  0  0  0
M  RAD  3   1   2   2   2   3   3
M  END
