Coordinates from ORCA-job PhN2+~Cl-_B3LYPG-6-31G_dp-NX-Scan-d89-09-n800
 OpenBabel11261920353D

 14 13  0  0  0  0  0  0  0  0999 V2000
   -1.3498   -1.1032   -0.1433 C   0  0  0  0  0  0  0  0  0  0  0  0
   -1.8699   -2.3545   -0.2301 N   0  0  0  0  0  0  0  0  0  0  0  0
   -2.3036   -3.3981   -0.3029 N   0  0  0  0  0  0  0  0  0  0  0  0
   -2.2062    0.0132   -0.3460 C   0  0  0  0  0  0  0  0  0  0  0  0
   -1.6520    1.2768   -0.2518 C   0  0  0  0  0  0  0  0  0  0  0  0
   -0.2851    1.4590    0.0350 C   0  0  0  0  0  0  0  0  0  0  0  0
    0.5383    0.3330    0.2312 C   0  0  0  0  0  0  0  0  0  0  0  0
    0.0332   -0.9519    0.1481 C   0  0  0  0  0  0  0  0  0  0  0  0
   -3.2565   -0.1413   -0.5680 H   0  0  0  0  0  0  0  0  0  0  0  0
   -2.2805    2.1486   -0.4020 H   0  0  0  0  0  0  0  0  0  0  0  0
    0.1376    2.4746    0.1052 H   0  0  0  0  0  0  0  0  0  0  0  0
    1.5903    0.4810    0.4529 H   0  0  0  0  0  0  0  0  0  0  0  0
    0.6558   -1.8271    0.2977 H   0  0  0  0  0  0  0  0  0  0  0  0
    1.0075    4.5405    0.2564 Cl  0  0  0  0  0  0  0  0  0  0  0  0
  1  8  2  0  0  0  0
  2  1  1  0  0  0  0
  3  2  1  0  0  0  0
  4  5  2  0  0  0  0
  4  1  1  0  0  0  0
  5  6  1  0  0  0  0
  6 11  1  0  0  0  0
  6  7  2  0  0  0  0
  7 12  1  0  0  0  0
  8  7  1  0  0  0  0
  8 13  1  0  0  0  0
  9  4  1  0  0  0  0
 10  5  1  0  0  0  0
M  RAD  3   2   2   3   3  14   2
M  END
