Coordinates from ORCA-job PhN2+~Cl-_B3LYPG-6-31G_dp-NX-Scan-d89-09-n800
 OpenBabel11261920353D

 14 14  0  0  1  0  0  0  0  0999 V2000
   -1.2585   -0.9044   -0.1587 C   0  0  2  0  0  0  0  0  0  0  0  0
   -1.5293   -1.9768   -0.8652 N   0  0  0  0  0  0  0  0  0  0  0  0
   -1.7367   -2.8794   -1.5288 N   0  0  0  0  0  0  0  0  0  0  0  0
   -2.1932    0.2032   -0.1591 C   0  0  0  0  0  0  0  0  0  0  0  0
   -1.7103    1.4352    0.0965 C   0  0  0  0  0  0  0  0  0  0  0  0
   -0.2464    1.6358    0.1772 C   0  0  1  0  0  0  0  0  0  0  0  0
    0.5011    0.4736    0.7067 C   0  0  0  0  0  0  0  0  0  0  0  0
    0.0455   -0.7704    0.4594 C   0  0  0  0  0  0  0  0  0  0  0  0
   -3.2418    0.0162   -0.3677 H   0  0  0  0  0  0  0  0  0  0  0  0
   -2.3621    2.3014    0.1268 H   0  0  0  0  0  0  0  0  0  0  0  0
    0.0523    2.5906    0.6018 H   0  0  0  0  0  0  0  0  0  0  0  0
    1.4621    0.6383    1.1809 H   0  0  0  0  0  0  0  0  0  0  0  0
    0.6156   -1.6618    0.7001 H   0  0  0  0  0  0  0  0  0  0  0  0
    0.3608    1.8492   -1.6876 Cl  0  0  0  0  0  0  0  0  0  0  0  0
  1  2  1  6  0  0  0
  1  8  1  0  0  0  0
  3  2  1  0  0  0  0
  4  1  1  0  0  0  0
  4  5  2  0  0  0  0
  5 10  1  0  0  0  0
  5  6  1  0  0  0  0
  6 11  1  1  0  0  0
  6  7  1  0  0  0  0
  7 12  1  0  0  0  0
  8 13  1  0  0  0  0
  8  7  2  0  0  0  0
  9  4  1  0  0  0  0
 14  6  1  0  0  0  0
M  RAD  3   1   2   2   2   3   3
M  END
