Coordinates from ORCA-job PhN2+~Cl-_B3LYPG-6-31G_dp-NX-Scan-d89-09-n800
 OpenBabel11261920353D

 14 14  0  0  1  0  0  0  0  0999 V2000
   -1.2727   -1.0031   -0.2614 C   0  0  0  0  0  0  0  0  0  0  0  0
   -1.7809   -2.2219   -0.3387 N   0  0  0  0  0  0  0  0  0  0  0  0
   -2.2261   -3.2801   -0.3912 N   0  0  0  0  0  0  0  0  0  0  0  0
   -2.1004    0.1681   -0.4861 C   0  0  0  0  0  0  0  0  0  0  0  0
   -1.6245    1.4112   -0.2441 C   0  0  0  0  0  0  0  0  0  0  0  0
   -0.2651    1.6695    0.2977 C   0  0  1  0  0  0  0  0  0  0  0  0
    0.5834    0.4514    0.3647 C   0  0  0  0  0  0  0  0  0  0  0  0
    0.1108   -0.7931    0.1241 C   0  0  0  0  0  0  0  0  0  0  0  0
   -3.1202    0.0278   -0.8304 H   0  0  0  0  0  0  0  0  0  0  0  0
   -2.2705    2.2685   -0.4005 H   0  0  0  0  0  0  0  0  0  0  0  0
   -0.2888    2.2147    1.2434 H   0  0  0  0  0  0  0  0  0  0  0  0
    1.6154    0.5789    0.6733 H   0  0  0  0  0  0  0  0  0  0  0  0
    0.7565   -1.6579    0.2413 H   0  0  0  0  0  0  0  0  0  0  0  0
    0.6421    3.1167   -0.7099 Cl  0  0  0  0  0  0  0  0  0  0  0  0
  1  8  2  0  0  0  0
  2  1  1  0  0  0  0
  3  2  1  0  0  0  0
  4  1  1  0  0  0  0
  4  5  2  0  0  0  0
  5  6  1  0  0  0  0
  6  7  1  0  0  0  0
  6 11  1  1  0  0  0
  7 12  1  0  0  0  0
  8 13  1  0  0  0  0
  8  7  1  0  0  0  0
  9  4  1  0  0  0  0
 10  5  1  0  0  0  0
 14  6  1  0  0  0  0
M  RAD  3   2   2   3   3   7   2
M  END
