Coordinates from ORCA-job PhN2+~Cl-_B3LYPG-6-31G_dp-NX-Scan-d89-09-n800
 OpenBabel11261920353D

 14 13  0  0  0  0  0  0  0  0999 V2000
   -1.3459   -1.0942   -0.1427 C   0  0  0  0  0  0  0  0  0  0  0  0
   -1.8639   -2.3433   -0.2292 N   0  0  0  0  0  0  0  0  0  0  0  0
   -2.2962   -3.3861   -0.3018 N   0  0  0  0  0  0  0  0  0  0  0  0
   -2.2064    0.0188   -0.3462 C   0  0  0  0  0  0  0  0  0  0  0  0
   -1.6536    1.2816   -0.2521 C   0  0  0  0  0  0  0  0  0  0  0  0
   -0.2865    1.4618    0.0348 C   0  0  0  0  0  0  0  0  0  0  0  0
    0.5402    0.3386    0.2317 C   0  0  0  0  0  0  0  0  0  0  0  0
    0.0372   -0.9456    0.1489 C   0  0  0  0  0  0  0  0  0  0  0  0
   -3.2561   -0.1398   -0.5680 H   0  0  0  0  0  0  0  0  0  0  0  0
   -2.2804    2.1547   -0.4019 H   0  0  0  0  0  0  0  0  0  0  0  0
    0.1367    2.4785    0.1052 H   0  0  0  0  0  0  0  0  0  0  0  0
    1.5917    0.4910    0.4532 H   0  0  0  0  0  0  0  0  0  0  0  0
    0.6581   -1.8222    0.2981 H   0  0  0  0  0  0  0  0  0  0  0  0
    0.9843    4.4569    0.2522 Cl  0  0  0  0  0  0  0  0  0  0  0  0
  1  8  2  0  0  0  0
  2  1  1  0  0  0  0
  3  2  1  0  0  0  0
  4  5  2  0  0  0  0
  4  1  1  0  0  0  0
  5  6  1  0  0  0  0
  6 11  1  0  0  0  0
  6  7  2  0  0  0  0
  7 12  1  0  0  0  0
  8  7  1  0  0  0  0
  8 13  1  0  0  0  0
  9  4  1  0  0  0  0
 10  5  1  0  0  0  0
M  RAD  3   2   2   3   3  14   2
M  END
