Coordinates from ORCA-job PhN2+~Cl-_B3LYPG-6-31G_dp-NX-Scan-d89-09-n800
 OpenBabel11261920353D

 14 14  0  0  1  0  0  0  0  0999 V2000
   -1.3339   -0.9530    0.0375 C   0  0  2  0  0  0  0  0  0  0  0  0
   -1.3086   -1.6179   -1.0989 N   0  0  0  0  0  0  0  0  0  0  0  0
   -1.2214   -2.0779   -2.1348 N   0  0  0  0  0  0  0  0  0  0  0  0
   -2.2796    0.1753    0.0827 C   0  0  0  0  0  0  0  0  0  0  0  0
   -1.7346    1.4022    0.1520 C   0  0  0  0  0  0  0  0  0  0  0  0
   -0.2567    1.4943   -0.0078 C   0  0  1  0  0  0  0  0  0  0  0  0
    0.4678    0.4441    0.7607 C   0  0  0  0  0  0  0  0  0  0  0  0
   -0.0293   -0.8037    0.7051 C   0  0  0  0  0  0  0  0  0  0  0  0
   -3.3493   -0.0034    0.0239 H   0  0  0  0  0  0  0  0  0  0  0  0
   -2.3283    2.3076    0.2246 H   0  0  0  0  0  0  0  0  0  0  0  0
    0.1500    2.4964    0.0973 H   0  0  0  0  0  0  0  0  0  0  0  0
    1.4037    0.6841    1.2544 H   0  0  0  0  0  0  0  0  0  0  0  0
    0.4940   -1.6749    1.0866 H   0  0  0  0  0  0  0  0  0  0  0  0
    0.0852    1.0775   -1.9010 Cl  0  0  0  0  0  0  0  0  0  0  0  0
  1  2  1  6  0  0  0
  1  4  1  0  0  0  0
  1  8  1  0  0  0  0
  3  2  1  0  0  0  0
  4  5  2  0  0  0  0
  5 10  1  0  0  0  0
  6 11  1  1  0  0  0
  6  5  1  0  0  0  0
  6  7  1  0  0  0  0
  7 12  1  0  0  0  0
  8  7  2  0  0  0  0
  8 13  1  0  0  0  0
  9  4  1  0  0  0  0
 14  6  1  0  0  0  0
M  RAD  3   1   2   2   2   3   3
M  END
