Coordinates from ORCA-job PhN2+~Cl-_B3LYPG-6-31G_dp-NX-Scan-d89-09-n800
 OpenBabel11261920353D

 14 14  0  0  1  0  0  0  0  0999 V2000
   -1.2510   -0.9191   -0.2083 C   0  0  0  0  0  0  0  0  0  0  0  0
   -1.5991   -2.0641   -0.7493 N   0  0  0  0  0  0  0  0  0  0  0  0
   -1.8859   -3.0465   -1.2523 N   0  0  0  0  0  0  0  0  0  0  0  0
   -2.1675    0.1995   -0.2476 C   0  0  0  0  0  0  0  0  0  0  0  0
   -1.6984    1.4309    0.0380 C   0  0  0  0  0  0  0  0  0  0  0  0
   -0.2501    1.6588    0.2273 C   0  0  1  0  0  0  0  0  0  0  0  0
    0.5171    0.4675    0.6491 C   0  0  0  0  0  0  0  0  0  0  0  0
    0.0669   -0.7724    0.3696 C   0  0  0  0  0  0  0  0  0  0  0  0
   -3.2086    0.0214   -0.4969 H   0  0  0  0  0  0  0  0  0  0  0  0
   -2.3590    2.2910    0.0320 H   0  0  0  0  0  0  0  0  0  0  0  0
   -0.0137    2.5587    0.7903 H   0  0  0  0  0  0  0  0  0  0  0  0
    1.4946    0.6150    1.0945 H   0  0  0  0  0  0  0  0  0  0  0  0
    0.6563   -1.6603    0.5737 H   0  0  0  0  0  0  0  0  0  0  0  0
    0.4577    2.1701   -1.5379 Cl  0  0  0  0  0  0  0  0  0  0  0  0
  1  8  1  0  0  0  0
  2  1  1  0  0  0  0
  3  2  1  0  0  0  0
  4  1  2  0  0  0  0
  4  5  1  0  0  0  0
  5  6  1  0  0  0  0
  6  7  1  0  0  0  0
  6 11  1  1  0  0  0
  7 12  1  0  0  0  0
  8 13  1  0  0  0  0
  8  7  2  0  0  0  0
  9  4  1  0  0  0  0
 10  5  1  0  0  0  0
 14  6  1  0  0  0  0
M  RAD  3   2   2   3   3   5   2
M  END
