Coordinates from ORCA-job PhN2+~Cl-_B3LYPG-6-31G_dp-NX-Scan-d89-09-n800
 OpenBabel11261920353D

 14 13  0  0  0  0  0  0  0  0999 V2000
   -0.6644   -0.5600   -0.3946 C   0  0  0  0  0  0  0  0  0  0  0  0
   -0.6940   -1.7172   -1.1928 N   0  0  0  0  0  0  0  0  0  0  0  0
   -1.1532   -2.2621   -2.0978 N   0  0  0  0  0  0  0  0  0  0  0  0
   -1.5089    0.5196   -0.6900 C   0  0  0  0  0  0  0  0  0  0  0  0
   -1.4324    1.6374    0.1373 C   0  0  0  0  0  0  0  0  0  0  0  0
   -0.5435    1.6665    1.2164 C   0  0  0  0  0  0  0  0  0  0  0  0
    0.2880    0.5744    1.4896 C   0  0  0  0  0  0  0  0  0  0  0  0
    0.2338   -0.5547    0.6805 C   0  0  0  0  0  0  0  0  0  0  0  0
   -2.1826    0.4492   -1.5405 H   0  0  0  0  0  0  0  0  0  0  0  0
   -2.0720    2.4909   -0.0642 H   0  0  0  0  0  0  0  0  0  0  0  0
   -0.4972    2.5472    1.8503 H   0  0  0  0  0  0  0  0  0  0  0  0
    0.9739    0.6051    2.3297 H   0  0  0  0  0  0  0  0  0  0  0  0
    0.8632   -1.4193    0.8618 H   0  0  0  0  0  0  0  0  0  0  0  0
   -2.8516   -1.0262   -3.3035 Cl  0  0  0  0  0  0  0  0  0  0  0  0
  1  8  1  0  0  0  0
  2  1  1  0  0  0  0
  3  2  2  0  0  0  0
  4  1  2  0  0  0  0
  4  5  1  0  0  0  0
  5  6  2  0  0  0  0
  6  7  1  0  0  0  0
  6 11  1  0  0  0  0
  7 12  1  0  0  0  0
  8 13  1  0  0  0  0
  8  7  2  0  0  0  0
  9  4  1  0  0  0  0
 10  5  1  0  0  0  0
M  RAD  2   3   2  14   2
M  END
