Coordinates from ORCA-job PhN2+~Cl-_B3LYPG-6-31G_dp-NX-Scan-d89-09-n800
 OpenBabel11261920353D

 14 13  0  0  0  0  0  0  0  0999 V2000
   -1.2860   -1.0314   -0.2567 C   0  0  0  0  0  0  0  0  0  0  0  0
   -1.7754   -2.2722   -0.4387 N   0  0  0  0  0  0  0  0  0  0  0  0
   -2.1958   -3.3207   -0.5677 N   0  0  0  0  0  0  0  0  0  0  0  0
   -2.1458    0.0980   -0.4343 C   0  0  0  0  0  0  0  0  0  0  0  0
   -1.6674    1.3458   -0.1119 C   0  0  0  0  0  0  0  0  0  0  0  0
   -0.3569    1.5227    0.4029 C   0  0  0  0  0  0  0  0  0  0  0  0
    0.5066    0.3998    0.4886 C   0  0  0  0  0  0  0  0  0  0  0  0
    0.0665   -0.8648    0.1772 C   0  0  0  0  0  0  0  0  0  0  0  0
   -3.1612   -0.0497   -0.7849 H   0  0  0  0  0  0  0  0  0  0  0  0
   -2.3092    2.2123   -0.2244 H   0  0  0  0  0  0  0  0  0  0  0  0
   -0.0655    2.4672    0.8365 H   0  0  0  0  0  0  0  0  0  0  0  0
    1.5234    0.5436    0.8359 H   0  0  0  0  0  0  0  0  0  0  0  0
    0.7065   -1.7335    0.2861 H   0  0  0  0  0  0  0  0  0  0  0  0
    0.9194    3.6334   -0.9264 Cl  0  0  0  0  0  0  0  0  0  0  0  0
  1  8  1  0  0  0  0
  2  1  1  0  0  0  0
  3  2  1  0  0  0  0
  4  1  2  0  0  0  0
  4  5  1  0  0  0  0
  5  6  2  0  0  0  0
  6  7  1  0  0  0  0
  6 11  1  0  0  0  0
  7 12  1  0  0  0  0
  8 13  1  0  0  0  0
  8  7  2  0  0  0  0
  9  4  1  0  0  0  0
 10  5  1  0  0  0  0
M  RAD  3   2   2   3   3  14   2
M  END
