Coordinates from ORCA-job PhN2+~Cl-_B3LYPG-6-31G_dp-NX-Scan-d89-09-n800
 OpenBabel11261920353D

 14 14  0  0  0  0  0  0  0  0999 V2000
   -0.5764   -0.4347   -0.6302 C   0  0  0  0  0  0  0  0  0  0  0  0
   -0.4062   -1.4766   -1.5845 N   0  0  0  0  0  0  0  0  0  0  0  0
   -1.2472   -2.0890   -2.2233 N   0  0  0  0  0  0  0  0  0  0  0  0
   -1.3202    0.7245   -0.8903 C   0  0  0  0  0  0  0  0  0  0  0  0
   -1.3433    1.7412    0.0627 C   0  0  0  0  0  0  0  0  0  0  0  0
   -0.6490    1.6017    1.2668 C   0  0  0  0  0  0  0  0  0  0  0  0
    0.1009    0.4487    1.5117 C   0  0  0  0  0  0  0  0  0  0  0  0
    0.1623   -0.5597    0.5531 C   0  0  0  0  0  0  0  0  0  0  0  0
   -1.8532    0.8347   -1.8266 H   0  0  0  0  0  0  0  0  0  0  0  0
   -1.9105    2.6453   -0.1368 H   0  0  0  0  0  0  0  0  0  0  0  0
   -0.6821    2.3961    2.0068 H   0  0  0  0  0  0  0  0  0  0  0  0
    0.6524    0.3425    2.4407 H   0  0  0  0  0  0  0  0  0  0  0  0
    0.7627   -1.4502    0.7077 H   0  0  0  0  0  0  0  0  0  0  0  0
   -2.9311   -1.7737   -1.9755 Cl  0  0  0  0  0  0  0  0  0  0  0  0
  1  8  1  0  0  0  0
  2  1  1  0  0  0  0
  3 14  1  0  0  0  0
  3  2  2  0  0  0  0
  4  1  2  0  0  0  0
  4  5  1  0  0  0  0
  5  6  2  0  0  0  0
  6  7  1  0  0  0  0
  6 11  1  0  0  0  0
  7 12  1  0  0  0  0
  8 13  1  0  0  0  0
  8  7  2  0  0  0  0
  9  4  1  0  0  0  0
 10  5  1  0  0  0  0
M  END
