Coordinates from ORCA-job PhN2+~Cl-_B3LYPG-6-31G_dp-NX-Scan-d89-09-n800
 OpenBabel11261920353D

 14 14  0  0  1  0  0  0  0  0999 V2000
   -1.2881   -0.9119   -0.0637 C   0  0  2  0  0  0  0  0  0  0  0  0
   -1.4252   -1.8224   -0.9992 N   0  0  0  0  0  0  0  0  0  0  0  0
   -1.4994   -2.5509   -1.8704 N   0  0  0  0  0  0  0  0  0  0  0  0
   -2.2339    0.1967   -0.0361 C   0  0  0  0  0  0  0  0  0  0  0  0
   -1.7223    1.4293    0.1422 C   0  0  0  0  0  0  0  0  0  0  0  0
   -0.2469    1.5804    0.0923 C   0  0  1  0  0  0  0  0  0  0  0  0
    0.4839    0.4696    0.7512 C   0  0  0  0  0  0  0  0  0  0  0  0
    0.0110   -0.7798    0.5842 C   0  0  0  0  0  0  0  0  0  0  0  0
   -3.2933    0.0070   -0.1794 H   0  0  0  0  0  0  0  0  0  0  0  0
   -2.3500    2.3117    0.2029 H   0  0  0  0  0  0  0  0  0  0  0  0
    0.1150    2.5726    0.3462 H   0  0  0  0  0  0  0  0  0  0  0  0
    1.4287    0.6680    1.2452 H   0  0  0  0  0  0  0  0  0  0  0  0
    0.5569   -1.6678    0.8862 H   0  0  0  0  0  0  0  0  0  0  0  0
    0.2227    1.4481   -1.8193 Cl  0  0  0  0  0  0  0  0  0  0  0  0
  1  2  1  6  0  0  0
  1  4  1  0  0  0  0
  1  8  1  0  0  0  0
  3  2  1  0  0  0  0
  4  5  2  0  0  0  0
  5 10  1  0  0  0  0
  6  5  1  0  0  0  0
  6 11  1  1  0  0  0
  6  7  1  0  0  0  0
  7 12  1  0  0  0  0
  8  7  2  0  0  0  0
  8 13  1  0  0  0  0
  9  4  1  0  0  0  0
 14  6  1  0  0  0  0
M  RAD  3   1   2   2   2   3   3
M  END
