Coordinates from ORCA-job PhN2+~Cl-_B3LYPG-6-31G_dp-NX-Scan-d89-09-n800
 OpenBabel11261920353D

 14 14  0  0  0  0  0  0  0  0999 V2000
   -0.5776   -0.4042   -0.6800 C   0  0  0  0  0  0  0  0  0  0  0  0
   -0.3886   -1.4044   -1.6894 N   0  0  0  0  0  0  0  0  0  0  0  0
   -1.3275   -2.0730   -2.1788 N   0  0  0  0  0  0  0  0  0  0  0  0
   -1.2938    0.7760   -0.9224 C   0  0  0  0  0  0  0  0  0  0  0  0
   -1.3268    1.7712    0.0533 C   0  0  0  0  0  0  0  0  0  0  0  0
   -0.6626    1.5927    1.2690 C   0  0  0  0  0  0  0  0  0  0  0  0
    0.0594    0.4196    1.5005 C   0  0  0  0  0  0  0  0  0  0  0  0
    0.1224   -0.5700    0.5211 C   0  0  0  0  0  0  0  0  0  0  0  0
   -1.8006    0.9201   -1.8709 H   0  0  0  0  0  0  0  0  0  0  0  0
   -1.8755    2.6888   -0.1377 H   0  0  0  0  0  0  0  0  0  0  0  0
   -0.6978    2.3696    2.0272 H   0  0  0  0  0  0  0  0  0  0  0  0
    0.5876    0.2805    2.4391 H   0  0  0  0  0  0  0  0  0  0  0  0
    0.7021   -1.4749    0.6735 H   0  0  0  0  0  0  0  0  0  0  0  0
   -2.7616   -1.9415   -1.7223 Cl  0  0  0  0  0  0  0  0  0  0  0  0
  1  8  1  0  0  0  0
  2  1  1  0  0  0  0
  3 14  1  0  0  0  0
  3  2  2  0  0  0  0
  4  1  2  0  0  0  0
  4  5  1  0  0  0  0
  5  6  2  0  0  0  0
  6  7  1  0  0  0  0
  6 11  1  0  0  0  0
  7 12  1  0  0  0  0
  8 13  1  0  0  0  0
  8  7  2  0  0  0  0
  9  4  1  0  0  0  0
 10  5  1  0  0  0  0
M  END
