Coordinates from ORCA-job PhN2+~Cl-_B3LYPG-6-31G_dp-NX-Scan-d89-09-n800
 OpenBabel11261920353D

 14 14  0  0  1  0  0  0  0  0999 V2000
   -1.2730   -0.9041   -0.1064 C   0  0  2  0  0  0  0  0  0  0  0  0
   -1.4698   -1.8920   -0.9473 N   0  0  0  0  0  0  0  0  0  0  0  0
   -1.6026   -2.7030   -1.7354 N   0  0  0  0  0  0  0  0  0  0  0  0
   -2.2162    0.2013   -0.0872 C   0  0  0  0  0  0  0  0  0  0  0  0
   -1.7176    1.4340    0.1280 C   0  0  0  0  0  0  0  0  0  0  0  0
   -0.2457    1.6070    0.1296 C   0  0  1  0  0  0  0  0  0  0  0  0
    0.4906    0.4736    0.7375 C   0  0  0  0  0  0  0  0  0  0  0  0
    0.0260   -0.7740    0.5322 C   0  0  0  0  0  0  0  0  0  0  0  0
   -3.2710    0.0110   -0.2593 H   0  0  0  0  0  0  0  0  0  0  0  0
   -2.3567    2.3087    0.1789 H   0  0  0  0  0  0  0  0  0  0  0  0
    0.0927    2.5879    0.4513 H   0  0  0  0  0  0  0  0  0  0  0  0
    1.4411    0.6567    1.2261 H   0  0  0  0  0  0  0  0  0  0  0  0
    0.5815   -1.6649    0.8068 H   0  0  0  0  0  0  0  0  0  0  0  0
    0.2797    1.6086   -1.7727 Cl  0  0  0  0  0  0  0  0  0  0  0  0
  1  2  1  6  0  0  0
  1  4  1  0  0  0  0
  1  8  1  0  0  0  0
  3  2  1  0  0  0  0
  4  5  2  0  0  0  0
  5  6  1  0  0  0  0
  5 10  1  0  0  0  0
  6 11  1  1  0  0  0
  6  7  1  0  0  0  0
  7 12  1  0  0  0  0
  8  7  2  0  0  0  0
  8 13  1  0  0  0  0
  9  4  1  0  0  0  0
 14  6  1  0  0  0  0
M  RAD  3   1   2   2   2   3   3
M  END
