Coordinates from ORCA-job PhN2+~Cl-_B3LYPG-6-31G_dp-NX-Scan-d89-09-n800
 OpenBabel11261920353D

 14 13  0  0  0  0  0  0  0  0999 V2000
   -1.2735   -1.0188   -0.2826 C   0  0  0  0  0  0  0  0  0  0  0  0
   -1.7737   -2.2555   -0.4184 N   0  0  0  0  0  0  0  0  0  0  0  0
   -2.2064   -3.3072   -0.5064 N   0  0  0  0  0  0  0  0  0  0  0  0
   -2.1236    0.1251   -0.4653 C   0  0  0  0  0  0  0  0  0  0  0  0
   -1.6522    1.3694   -0.1419 C   0  0  0  0  0  0  0  0  0  0  0  0
   -0.3332    1.5648    0.3821 C   0  0  0  0  0  0  0  0  0  0  0  0
    0.5268    0.4215    0.4597 C   0  0  0  0  0  0  0  0  0  0  0  0
    0.0857   -0.8361    0.1449 C   0  0  0  0  0  0  0  0  0  0  0  0
   -3.1410   -0.0171   -0.8131 H   0  0  0  0  0  0  0  0  0  0  0  0
   -2.3039    2.2296   -0.2451 H   0  0  0  0  0  0  0  0  0  0  0  0
   -0.1395    2.4134    1.0180 H   0  0  0  0  0  0  0  0  0  0  0  0
    1.5409    0.5561    0.8180 H   0  0  0  0  0  0  0  0  0  0  0  0
    0.7296   -1.7017    0.2581 H   0  0  0  0  0  0  0  0  0  0  0  0
    0.8231    3.4072   -0.9256 Cl  0  0  0  0  0  0  0  0  0  0  0  0
  1  8  1  0  0  0  0
  2  1  1  0  0  0  0
  3  2  1  0  0  0  0
  4  1  2  0  0  0  0
  4  5  1  0  0  0  0
  5  6  2  0  0  0  0
  6  7  1  0  0  0  0
  6 11  1  0  0  0  0
  7 12  1  0  0  0  0
  8 13  1  0  0  0  0
  8  7  2  0  0  0  0
  9  4  1  0  0  0  0
 10  5  1  0  0  0  0
M  RAD  3   2   2   3   3  14   2
M  END
