Coordinates from ORCA-job PhN2+~Cl-_B3LYPG-6-31G_dp-NX-Scan-d89-09-n800
 OpenBabel11261920353D

 14 14  0  0  1  0  0  0  0  0999 V2000
   -1.3094   -0.9286   -0.0126 C   0  0  2  0  0  0  0  0  0  0  0  0
   -1.3702   -1.7300   -1.0523 N   0  0  0  0  0  0  0  0  0  0  0  0
   -1.3703   -2.3423   -2.0110 N   0  0  0  0  0  0  0  0  0  0  0  0
   -2.2558    0.1880    0.0225 C   0  0  0  0  0  0  0  0  0  0  0  0
   -1.7279    1.4189    0.1506 C   0  0  0  0  0  0  0  0  0  0  0  0
   -0.2502    1.5425    0.0450 C   0  0  1  0  0  0  0  0  0  0  0  0
    0.4763    0.4600    0.7593 C   0  0  0  0  0  0  0  0  0  0  0  0
   -0.0080   -0.7898    0.6439 C   0  0  0  0  0  0  0  0  0  0  0  0
   -3.3205    0.0022   -0.0824 H   0  0  0  0  0  0  0  0  0  0  0  0
   -2.3400    2.3119    0.2191 H   0  0  0  0  0  0  0  0  0  0  0  0
    0.1349    2.5422    0.2254 H   0  0  0  0  0  0  0  0  0  0  0  0
    1.4159    0.6780    1.2554 H   0  0  0  0  0  0  0  0  0  0  0  0
    0.5272   -1.6714    0.9825 H   0  0  0  0  0  0  0  0  0  0  0  0
    0.1571    1.2690   -1.8631 Cl  0  0  0  0  0  0  0  0  0  0  0  0
  1  2  1  6  0  0  0
  1  4  1  0  0  0  0
  1  8  1  0  0  0  0
  3  2  1  0  0  0  0
  4  5  2  0  0  0  0
  5 10  1  0  0  0  0
  6  5  1  0  0  0  0
  6 11  1  1  0  0  0
  6  7  1  0  0  0  0
  7 12  1  0  0  0  0
  8  7  2  0  0  0  0
  8 13  1  0  0  0  0
  9  4  1  0  0  0  0
 14  6  1  0  0  0  0
M  RAD  3   1   2   2   2   3   3
M  END
