Coordinates from ORCA-job PhN2+~Cl-_B3LYPG-6-31G_dp-NX-Scan-d89-09-n800
 OpenBabel11261920353D

 14 13  0  0  0  0  0  0  0  0999 V2000
   -1.2725   -1.0181   -0.2852 C   0  0  0  0  0  0  0  0  0  0  0  0
   -1.7749   -2.2538   -0.4113 N   0  0  0  0  0  0  0  0  0  0  0  0
   -2.2100   -3.3061   -0.4915 N   0  0  0  0  0  0  0  0  0  0  0  0
   -2.1202    0.1288   -0.4705 C   0  0  0  0  0  0  0  0  0  0  0  0
   -1.6489    1.3730   -0.1509 C   0  0  0  0  0  0  0  0  0  0  0  0
   -0.3274    1.5732    0.3741 C   0  0  0  0  0  0  0  0  0  0  0  0
    0.5312    0.4247    0.4509 C   0  0  0  0  0  0  0  0  0  0  0  0
    0.0885   -0.8321    0.1395 C   0  0  0  0  0  0  0  0  0  0  0  0
   -3.1384   -0.0124   -0.8167 H   0  0  0  0  0  0  0  0  0  0  0  0
   -2.3019    2.2322   -0.2547 H   0  0  0  0  0  0  0  0  0  0  0  0
   -0.1526    2.4001    1.0442 H   0  0  0  0  0  0  0  0  0  0  0  0
    1.5457    0.5576    0.8091 H   0  0  0  0  0  0  0  0  0  0  0  0
    0.7329   -1.6971    0.2546 H   0  0  0  0  0  0  0  0  0  0  0  0
    0.8076    3.3807   -0.9092 Cl  0  0  0  0  0  0  0  0  0  0  0  0
  1  8  1  0  0  0  0
  2  1  1  0  0  0  0
  3  2  1  0  0  0  0
  4  1  2  0  0  0  0
  4  5  1  0  0  0  0
  5  6  2  0  0  0  0
  6  7  1  0  0  0  0
  6 11  1  0  0  0  0
  7 12  1  0  0  0  0
  8 13  1  0  0  0  0
  8  7  2  0  0  0  0
  9  4  1  0  0  0  0
 10  5  1  0  0  0  0
M  RAD  3   2   2   3   3  14   2
M  END
