Coordinates from ORCA-job PhN2+~Cl-_B3LYPG-6-31G_dp-NX-Scan-d89-09-n800
 OpenBabel11261920353D

 14 14  0  0  1  0  0  0  0  0999 V2000
   -1.2569   -0.9697   -0.2652 C   0  0  0  0  0  0  0  0  0  0  0  0
   -1.7223   -2.1810   -0.4868 N   0  0  0  0  0  0  0  0  0  0  0  0
   -2.1284   -3.2344   -0.6748 N   0  0  0  0  0  0  0  0  0  0  0  0
   -2.1220    0.1813   -0.4149 C   0  0  0  0  0  0  0  0  0  0  0  0
   -1.6583    1.4169   -0.1336 C   0  0  0  0  0  0  0  0  0  0  0  0
   -0.2607    1.6724    0.2870 C   0  0  1  0  0  0  0  0  0  0  0  0
    0.5592    0.4529    0.4779 C   0  0  0  0  0  0  0  0  0  0  0  0
    0.1016   -0.7856    0.1989 C   0  0  0  0  0  0  0  0  0  0  0  0
   -3.1490    0.0261   -0.7294 H   0  0  0  0  0  0  0  0  0  0  0  0
   -2.3152    2.2749   -0.2294 H   0  0  0  0  0  0  0  0  0  0  0  0
   -0.1888    2.3688    1.1234 H   0  0  0  0  0  0  0  0  0  0  0  0
    1.5716    0.5845    0.8441 H   0  0  0  0  0  0  0  0  0  0  0  0
    0.7277   -1.6601    0.3435 H   0  0  0  0  0  0  0  0  0  0  0  0
    0.6007    2.8036   -1.0585 Cl  0  0  0  0  0  0  0  0  0  0  0  0
  1  8  2  0  0  0  0
  2  1  1  0  0  0  0
  3  2  1  0  0  0  0
  4  1  1  0  0  0  0
  4  5  2  0  0  0  0
  5  6  1  0  0  0  0
  6  7  1  0  0  0  0
  6 11  1  1  0  0  0
  7 12  1  0  0  0  0
  8 13  1  0  0  0  0
  8  7  1  0  0  0  0
  9  4  1  0  0  0  0
 10  5  1  0  0  0  0
 14  6  1  0  0  0  0
M  RAD  3   2   2   3   3   7   2
M  END
