Coordinates from ORCA-job PhN2+~Cl-_B3LYPG-6-31G_dp-NX-Scan-d89-09-n800
 OpenBabel11261920353D

 14 14  0  0  0  0  0  0  0  0999 V2000
   -0.5780   -0.4010   -0.6843 C   0  0  0  0  0  0  0  0  0  0  0  0
   -0.3889   -1.3978   -1.6987 N   0  0  0  0  0  0  0  0  0  0  0  0
   -1.3345   -2.0728   -2.1724 N   0  0  0  0  0  0  0  0  0  0  0  0
   -1.2916    0.7811   -0.9250 C   0  0  0  0  0  0  0  0  0  0  0  0
   -1.3253    1.7742    0.0529 C   0  0  0  0  0  0  0  0  0  0  0  0
   -0.6634    1.5921    1.2693 C   0  0  0  0  0  0  0  0  0  0  0  0
    0.0560    0.4172    1.4994 C   0  0  0  0  0  0  0  0  0  0  0  0
    0.1186   -0.5708    0.5182 C   0  0  0  0  0  0  0  0  0  0  0  0
   -1.7963    0.9281   -1.8744 H   0  0  0  0  0  0  0  0  0  0  0  0
   -1.8723    2.6930   -0.1371 H   0  0  0  0  0  0  0  0  0  0  0  0
   -0.6985    2.3675    2.0290 H   0  0  0  0  0  0  0  0  0  0  0  0
    0.5824    0.2752    2.4386 H   0  0  0  0  0  0  0  0  0  0  0  0
    0.6959   -1.4773    0.6704 H   0  0  0  0  0  0  0  0  0  0  0  0
   -2.7449   -1.9580   -1.7035 Cl  0  0  0  0  0  0  0  0  0  0  0  0
  1  8  1  0  0  0  0
  2  1  1  0  0  0  0
  3 14  1  0  0  0  0
  3  2  2  0  0  0  0
  4  1  2  0  0  0  0
  4  5  1  0  0  0  0
  5  6  2  0  0  0  0
  6  7  1  0  0  0  0
  6 11  1  0  0  0  0
  7 12  1  0  0  0  0
  8 13  1  0  0  0  0
  8  7  2  0  0  0  0
  9  4  1  0  0  0  0
 10  5  1  0  0  0  0
M  END
