Coordinates from ORCA-job PhN2+~Cl-_B3LYPG-6-31G_dp-NX-Scan-d89-09-n800
 OpenBabel11261920353D

 14 13  0  0  0  0  0  0  0  0999 V2000
   -1.3142   -1.0697   -0.2149 C   0  0  0  0  0  0  0  0  0  0  0  0
   -1.8107   -2.3163   -0.3827 N   0  0  0  0  0  0  0  0  0  0  0  0
   -2.2317   -3.3619   -0.5065 N   0  0  0  0  0  0  0  0  0  0  0  0
   -2.1700    0.0521   -0.4169 C   0  0  0  0  0  0  0  0  0  0  0  0
   -1.6651    1.3094   -0.1573 C   0  0  0  0  0  0  0  0  0  0  0  0
   -0.3483    1.4861    0.3209 C   0  0  0  0  0  0  0  0  0  0  0  0
    0.5014    0.3649    0.4428 C   0  0  0  0  0  0  0  0  0  0  0  0
    0.0413   -0.9120    0.1957 C   0  0  0  0  0  0  0  0  0  0  0  0
   -3.1929   -0.0998   -0.7431 H   0  0  0  0  0  0  0  0  0  0  0  0
   -2.2951    2.1806   -0.3004 H   0  0  0  0  0  0  0  0  0  0  0  0
    0.0175    2.4836    0.5679 H   0  0  0  0  0  0  0  0  0  0  0  0
    1.5278    0.5127    0.7605 H   0  0  0  0  0  0  0  0  0  0  0  0
    0.6709   -1.7848    0.3294 H   0  0  0  0  0  0  0  0  0  0  0  0
    1.0283    4.1059   -0.6131 Cl  0  0  0  0  0  0  0  0  0  0  0  0
  1  8  1  0  0  0  0
  2  1  1  0  0  0  0
  3  2  1  0  0  0  0
  4  1  2  0  0  0  0
  4  5  1  0  0  0  0
  5  6  2  0  0  0  0
  6  7  1  0  0  0  0
  6 11  1  0  0  0  0
  7 12  1  0  0  0  0
  8 13  1  0  0  0  0
  8  7  2  0  0  0  0
  9  4  1  0  0  0  0
 10  5  1  0  0  0  0
M  RAD  3   2   2   3   3  14   2
M  END
