Coordinates from ORCA-job PhN2+~Cl-_B3LYPG-6-31G_dp-NX-Scan-d89-09-n800
 OpenBabel11261920353D

 14 14  0  0  1  0  0  0  0  0999 V2000
   -1.2621   -0.9030   -0.1440 C   0  0  2  0  0  0  0  0  0  0  0  0
   -1.5116   -1.9526   -0.8912 N   0  0  0  0  0  0  0  0  0  0  0  0
   -1.6973   -2.8302   -1.5931 N   0  0  0  0  0  0  0  0  0  0  0  0
   -2.1999    0.2032   -0.1373 C   0  0  0  0  0  0  0  0  0  0  0  0
   -1.7127    1.4354    0.1075 C   0  0  0  0  0  0  0  0  0  0  0  0
   -0.2459    1.6281    0.1634 C   0  0  1  0  0  0  0  0  0  0  0  0
    0.4977    0.4742    0.7175 C   0  0  0  0  0  0  0  0  0  0  0  0
    0.0398   -0.7710    0.4814 C   0  0  0  0  0  0  0  0  0  0  0  0
   -3.2504    0.0147   -0.3352 H   0  0  0  0  0  0  0  0  0  0  0  0
   -2.3611    2.3038    0.1450 H   0  0  0  0  0  0  0  0  0  0  0  0
    0.0657    2.5923    0.5558 H   0  0  0  0  0  0  0  0  0  0  0  0
    1.4552    0.6441    1.1969 H   0  0  0  0  0  0  0  0  0  0  0  0
    0.6053   -1.6626    0.7319 H   0  0  0  0  0  0  0  0  0  0  0  0
    0.3363    1.7743   -1.7163 Cl  0  0  0  0  0  0  0  0  0  0  0  0
  1  2  1  6  0  0  0
  1  4  1  0  0  0  0
  1  8  1  0  0  0  0
  3  2  1  0  0  0  0
  4  5  2  0  0  0  0
  5 10  1  0  0  0  0
  5  6  1  0  0  0  0
  6 11  1  1  0  0  0
  6  7  1  0  0  0  0
  7 12  1  0  0  0  0
  8  7  2  0  0  0  0
  8 13  1  0  0  0  0
  9  4  1  0  0  0  0
 14  6  1  0  0  0  0
M  RAD  3   1   2   2   2   3   3
M  END
