Coordinates from ORCA-job PhN2+~Cl-_B3LYPG-6-31G_dp-NX-Scan-d89-09-n800
 OpenBabel11261920353D

 14 13  0  0  0  0  0  0  0  0999 V2000
   -0.6474   -0.5696   -0.3804 C   0  0  0  0  0  0  0  0  0  0  0  0
   -0.6842   -1.7214   -1.1835 N   0  0  0  0  0  0  0  0  0  0  0  0
   -1.1164   -2.2928   -2.0751 N   0  0  0  0  0  0  0  0  0  0  0  0
   -1.5000    0.4984   -0.6930 C   0  0  0  0  0  0  0  0  0  0  0  0
   -1.4329    1.6225    0.1267 C   0  0  0  0  0  0  0  0  0  0  0  0
   -0.5481    1.6639    1.2088 C   0  0  0  0  0  0  0  0  0  0  0  0
    0.2902    0.5794    1.4954 C   0  0  0  0  0  0  0  0  0  0  0  0
    0.2483   -0.5569    0.6963 C   0  0  0  0  0  0  0  0  0  0  0  0
   -2.1699    0.4096   -1.5494 H   0  0  0  0  0  0  0  0  0  0  0  0
   -2.0770    2.4704   -0.0835 H   0  0  0  0  0  0  0  0  0  0  0  0
   -0.5096    2.5495    1.8364 H   0  0  0  0  0  0  0  0  0  0  0  0
    0.9718    0.6223    2.3384 H   0  0  0  0  0  0  0  0  0  0  0  0
    0.8823   -1.4160    0.8871 H   0  0  0  0  0  0  0  0  0  0  0  0
   -2.9479   -0.9086   -3.3421 Cl  0  0  0  0  0  0  0  0  0  0  0  0
  1  8  1  0  0  0  0
  2  1  1  0  0  0  0
  3  2  2  0  0  0  0
  4  1  2  0  0  0  0
  4  5  1  0  0  0  0
  5  6  2  0  0  0  0
  6  7  1  0  0  0  0
  6 11  1  0  0  0  0
  7 12  1  0  0  0  0
  8 13  1  0  0  0  0
  8  7  2  0  0  0  0
  9  4  1  0  0  0  0
 10  5  1  0  0  0  0
M  RAD  2   3   2  14   2
M  END
