Coordinates from ORCA-job PhN2+~Cl-_B3LYPG-6-31G_dp-NX-Scan-d89-09-n800
 OpenBabel11261920353D

 14 14  0  0  1  0  0  0  0  0999 V2000
   -1.2679   -0.9941   -0.2642 C   0  0  0  0  0  0  0  0  0  0  0  0
   -1.7674   -2.2114   -0.3712 N   0  0  0  0  0  0  0  0  0  0  0  0
   -2.2052   -3.2694   -0.4509 N   0  0  0  0  0  0  0  0  0  0  0  0
   -2.1052    0.1720   -0.4717 C   0  0  0  0  0  0  0  0  0  0  0  0
   -1.6332    1.4129   -0.2195 C   0  0  0  0  0  0  0  0  0  0  0  0
   -0.2640    1.6711    0.2964 C   0  0  1  0  0  0  0  0  0  0  0  0
    0.5790    0.4513    0.3905 C   0  0  0  0  0  0  0  0  0  0  0  0
    0.1101   -0.7910    0.1397 C   0  0  0  0  0  0  0  0  0  0  0  0
   -3.1263    0.0276   -0.8102 H   0  0  0  0  0  0  0  0  0  0  0  0
   -2.2813    2.2711   -0.3627 H   0  0  0  0  0  0  0  0  0  0  0  0
   -0.2694    2.2473    1.2241 H   0  0  0  0  0  0  0  0  0  0  0  0
    1.6070    0.5804    0.7116 H   0  0  0  0  0  0  0  0  0  0  0  0
    0.7512   -1.6584    0.2619 H   0  0  0  0  0  0  0  0  0  0  0  0
    0.6317    3.0415   -0.7914 Cl  0  0  0  0  0  0  0  0  0  0  0  0
  1  8  2  0  0  0  0
  2  1  1  0  0  0  0
  3  2  1  0  0  0  0
  4  1  1  0  0  0  0
  4  5  2  0  0  0  0
  5  6  1  0  0  0  0
  6  7  1  0  0  0  0
  6 11  1  1  0  0  0
  7 12  1  0  0  0  0
  8 13  1  0  0  0  0
  8  7  1  0  0  0  0
  9  4  1  0  0  0  0
 10  5  1  0  0  0  0
 14  6  1  0  0  0  0
M  RAD  3   2   2   3   3   7   2
M  END
