Coordinates from ORCA-job PhN2+~Cl-_B3LYPG-6-31G_dp-NX-Scan-d89-09-n800
 OpenBabel11261920353D

 14 14  0  0  0  0  0  0  0  0999 V2000
   -0.6818   -0.5147   -0.5595 C   0  0  0  0  0  0  0  0  0  0  0  0
   -0.5202   -1.6813   -1.3709 N   0  0  0  0  0  0  0  0  0  0  0  0
   -1.4882   -1.9895   -2.2010 N   0  0  0  0  0  0  0  0  0  0  0  0
   -1.4167    0.6681   -0.8100 C   0  0  0  0  0  0  0  0  0  0  0  0
   -1.3562    1.7348    0.0897 C   0  0  0  0  0  0  0  0  0  0  0  0
   -0.5866    1.6539    1.2496 C   0  0  0  0  0  0  0  0  0  0  0  0
    0.1524    0.4936    1.5030 C   0  0  0  0  0  0  0  0  0  0  0  0
    0.1119   -0.5660    0.6063 C   0  0  0  0  0  0  0  0  0  0  0  0
   -2.0188    0.7793   -1.7018 H   0  0  0  0  0  0  0  0  0  0  0  0
   -1.9241    2.6366   -0.1222 H   0  0  0  0  0  0  0  0  0  0  0  0
   -0.5561    2.4875    1.9454 H   0  0  0  0  0  0  0  0  0  0  0  0
    0.7659    0.4214    2.3967 H   0  0  0  0  0  0  0  0  0  0  0  0
    0.6928   -1.4676    0.7745 H   0  0  0  0  0  0  0  0  0  0  0  0
   -2.4154   -1.7054   -2.5175 Cl  0  0  0  0  0  0  0  0  0  0  0  0
  1  8  1  0  0  0  0
  2  1  1  0  0  0  0
  3  2  2  0  0  0  0
  4  1  2  0  0  0  0
  4  5  1  0  0  0  0
  5  6  2  0  0  0  0
  6  7  1  0  0  0  0
  6 11  1  0  0  0  0
  7 12  1  0  0  0  0
  8 13  1  0  0  0  0
  8  7  2  0  0  0  0
  9  4  1  0  0  0  0
 10  5  1  0  0  0  0
 14  3  1  0  0  0  0
M  END
