Coordinates from ORCA-job PhN2+~Cl-_B3LYPG-6-31G_dp-NX-Scan-d89-09-n800
 OpenBabel11261920353D

 14 13  0  0  0  0  0  0  0  0999 V2000
   -1.2925   -1.0397   -0.2462 C   0  0  0  0  0  0  0  0  0  0  0  0
   -1.7812   -2.2818   -0.4327 N   0  0  0  0  0  0  0  0  0  0  0  0
   -2.1998   -3.3293   -0.5670 N   0  0  0  0  0  0  0  0  0  0  0  0
   -2.1529    0.0867   -0.4270 C   0  0  0  0  0  0  0  0  0  0  0  0
   -1.6695    1.3367   -0.1148 C   0  0  0  0  0  0  0  0  0  0  0  0
   -0.3591    1.5119    0.3937 C   0  0  0  0  0  0  0  0  0  0  0  0
    0.5028    0.3915    0.4853 C   0  0  0  0  0  0  0  0  0  0  0  0
    0.0597   -0.8762    0.1846 C   0  0  0  0  0  0  0  0  0  0  0  0
   -3.1692   -0.0625   -0.7742 H   0  0  0  0  0  0  0  0  0  0  0  0
   -2.3081    2.2048   -0.2340 H   0  0  0  0  0  0  0  0  0  0  0  0
   -0.0437    2.4753    0.7703 H   0  0  0  0  0  0  0  0  0  0  0  0
    1.5218    0.5374    0.8257 H   0  0  0  0  0  0  0  0  0  0  0  0
    0.6978   -1.7459    0.2966 H   0  0  0  0  0  0  0  0  0  0  0  0
    0.9531    3.7419   -0.8779 Cl  0  0  0  0  0  0  0  0  0  0  0  0
  1  8  1  0  0  0  0
  2  1  1  0  0  0  0
  3  2  1  0  0  0  0
  4  1  2  0  0  0  0
  4  5  1  0  0  0  0
  5  6  2  0  0  0  0
  6  7  1  0  0  0  0
  6 11  1  0  0  0  0
  7 12  1  0  0  0  0
  8 13  1  0  0  0  0
  8  7  2  0  0  0  0
  9  4  1  0  0  0  0
 10  5  1  0  0  0  0
M  RAD  3   2   2   3   3  14   2
M  END
