Coordinates from ORCA-job PhN2+~Cl-_B3LYPG-6-31G_dp-NX-Scan-d89-09-n800
 OpenBabel11261920353D

 14 14  0  0  0  0  0  0  0  0999 V2000
   -0.7706   -0.5679   -0.4811 C   0  0  0  0  0  0  0  0  0  0  0  0
   -0.7224   -1.8097   -1.1749 N   0  0  0  0  0  0  0  0  0  0  0  0
   -1.4593   -1.9370   -2.2559 N   0  0  0  0  0  0  0  0  0  0  0  0
   -1.5148    0.6128   -0.7327 C   0  0  0  0  0  0  0  0  0  0  0  0
   -1.3854    1.7158    0.1162 C   0  0  0  0  0  0  0  0  0  0  0  0
   -0.5318    1.6846    1.2166 C   0  0  0  0  0  0  0  0  0  0  0  0
    0.2083    0.5249    1.4762 C   0  0  0  0  0  0  0  0  0  0  0  0
    0.0885   -0.5768    0.6428 C   0  0  0  0  0  0  0  0  0  0  0  0
   -2.1868    0.6838   -1.5762 H   0  0  0  0  0  0  0  0  0  0  0  0
   -1.9646    2.6107   -0.0951 H   0  0  0  0  0  0  0  0  0  0  0  0
   -0.4413    2.5512    1.8653 H   0  0  0  0  0  0  0  0  0  0  0  0
    0.8776    0.4845    2.3312 H   0  0  0  0  0  0  0  0  0  0  0  0
    0.6528   -1.4857    0.8261 H   0  0  0  0  0  0  0  0  0  0  0  0
   -2.0910   -1.5403   -2.8761 Cl  0  0  0  0  0  0  0  0  0  0  0  0
  1  8  1  0  0  0  0
  2  1  1  0  0  0  0
  3  2  2  0  0  0  0
  4  1  2  0  0  0  0
  4  5  1  0  0  0  0
  5  6  2  0  0  0  0
  6  7  1  0  0  0  0
  6 11  1  0  0  0  0
  7 12  1  0  0  0  0
  8 13  1  0  0  0  0
  8  7  2  0  0  0  0
  9  4  1  0  0  0  0
 10  5  1  0  0  0  0
 14  3  1  0  0  0  0
M  END
