Coordinates from ORCA-job PhN2+~Cl-_B3LYPG-6-31G_dp-NX-Scan-d89-09-n800
 OpenBabel11261920353D

 14 13  0  0  0  0  0  0  0  0999 V2000
   -0.6484   -0.5691   -0.3814 C   0  0  0  0  0  0  0  0  0  0  0  0
   -0.6839   -1.7218   -1.1836 N   0  0  0  0  0  0  0  0  0  0  0  0
   -1.1180   -2.2914   -2.0760 N   0  0  0  0  0  0  0  0  0  0  0  0
   -1.5006    0.4998   -0.6930 C   0  0  0  0  0  0  0  0  0  0  0  0
   -1.4328    1.6234    0.1274 C   0  0  0  0  0  0  0  0  0  0  0  0
   -0.5478    1.6640    1.2093 C   0  0  0  0  0  0  0  0  0  0  0  0
    0.2900    0.5791    1.4951 C   0  0  0  0  0  0  0  0  0  0  0  0
    0.2473   -0.5567    0.6953 C   0  0  0  0  0  0  0  0  0  0  0  0
   -2.1711    0.4130   -1.5489 H   0  0  0  0  0  0  0  0  0  0  0  0
   -2.0765    2.4717   -0.0823 H   0  0  0  0  0  0  0  0  0  0  0  0
   -0.5089    2.5493    1.8374 H   0  0  0  0  0  0  0  0  0  0  0  0
    0.9718    0.6212    2.3380 H   0  0  0  0  0  0  0  0  0  0  0  0
    0.8811   -1.4161    0.8856 H   0  0  0  0  0  0  0  0  0  0  0  0
   -2.9432   -0.9156   -3.3406 Cl  0  0  0  0  0  0  0  0  0  0  0  0
  1  8  1  0  0  0  0
  2  1  1  0  0  0  0
  3  2  2  0  0  0  0
  4  1  2  0  0  0  0
  4  5  1  0  0  0  0
  5  6  2  0  0  0  0
  6  7  1  0  0  0  0
  6 11  1  0  0  0  0
  7 12  1  0  0  0  0
  8 13  1  0  0  0  0
  8  7  2  0  0  0  0
  9  4  1  0  0  0  0
 10  5  1  0  0  0  0
M  RAD  2   3   2  14   2
M  END
