Coordinates from ORCA-job PhN2+~Cl-_B3LYPG-6-31G_dp-NX-Scan-d89-09-n800
 OpenBabel11261920353D

 14 14  0  0  1  0  0  0  0  0999 V2000
   -1.3569   -0.9776    0.0825 C   0  0  2  0  0  0  0  0  0  0  0  0
   -1.2562   -1.5128   -1.1233 N   0  0  0  0  0  0  0  0  0  0  0  0
   -1.0523   -1.7400   -2.2174 N   0  0  0  0  0  0  0  0  0  0  0  0
   -2.3015    0.1596    0.1381 C   0  0  0  0  0  0  0  0  0  0  0  0
   -1.7401    1.3822    0.1533 C   0  0  0  0  0  0  0  0  0  0  0  0
   -0.2674    1.4435   -0.0492 C   0  0  1  0  0  0  0  0  0  0  0  0
    0.4564    0.4267    0.7610 C   0  0  0  0  0  0  0  0  0  0  0  0
   -0.0516   -0.8192    0.7605 C   0  0  0  0  0  0  0  0  0  0  0  0
   -3.3740   -0.0093    0.1124 H   0  0  0  0  0  0  0  0  0  0  0  0
   -2.3184    2.2983    0.2189 H   0  0  0  0  0  0  0  0  0  0  0  0
    0.1619    2.4413   -0.0324 H   0  0  0  0  0  0  0  0  0  0  0  0
    1.3940    0.6835    1.2434 H   0  0  0  0  0  0  0  0  0  0  0  0
    0.4660   -1.6792    1.1738 H   0  0  0  0  0  0  0  0  0  0  0  0
   -0.0008    0.8536   -1.9393 Cl  0  0  0  0  0  0  0  0  0  0  0  0
  1  2  1  6  0  0  0
  1  4  1  0  0  0  0
  1  8  1  0  0  0  0
  3  2  1  0  0  0  0
  4  5  2  0  0  0  0
  5 10  1  0  0  0  0
  6 11  1  1  0  0  0
  6  5  1  0  0  0  0
  6  7  1  0  0  0  0
  7 12  1  0  0  0  0
  8  7  2  0  0  0  0
  8 13  1  0  0  0  0
  9  4  1  0  0  0  0
 14  6  1  0  0  0  0
M  RAD  3   1   2   2   2   3   3
M  END
