Coordinates from ORCA-job PhN2+~Cl-_B3LYPG-6-31G_dp-NX-Scan-d89-09-n800
 OpenBabel11261920353D

 14 14  0  0  1  0  0  0  0  0999 V2000
   -1.2527   -0.9125   -0.1923 C   0  0  2  0  0  0  0  0  0  0  0  0
   -1.5749   -2.0354   -0.7918 N   0  0  0  0  0  0  0  0  0  0  0  0
   -1.8350   -2.9933   -1.3524 N   0  0  0  0  0  0  0  0  0  0  0  0
   -2.1764    0.2015   -0.2163 C   0  0  0  0  0  0  0  0  0  0  0  0
   -1.7031    1.4330    0.0611 C   0  0  0  0  0  0  0  0  0  0  0  0
   -0.2485    1.6522    0.2110 C   0  0  1  0  0  0  0  0  0  0  0  0
    0.5110    0.4702    0.6719 C   0  0  0  0  0  0  0  0  0  0  0  0
    0.0596   -0.7711    0.4015 C   0  0  0  0  0  0  0  0  0  0  0  0
   -3.2200    0.0199   -0.4520 H   0  0  0  0  0  0  0  0  0  0  0  0
   -2.3614    2.2948    0.0687 H   0  0  0  0  0  0  0  0  0  0  0  0
    0.0117    2.5747    0.7241 H   0  0  0  0  0  0  0  0  0  0  0  0
    1.4825    0.6229    1.1284 H   0  0  0  0  0  0  0  0  0  0  0  0
    0.6421   -1.6606    0.6179 H   0  0  0  0  0  0  0  0  0  0  0  0
    0.4242    2.0546   -1.5974 Cl  0  0  0  0  0  0  0  0  0  0  0  0
  1  2  1  6  0  0  0
  1  8  1  0  0  0  0
  3  2  1  0  0  0  0
  4  1  1  0  0  0  0
  4  5  2  0  0  0  0
  5 10  1  0  0  0  0
  5  6  1  0  0  0  0
  6  7  1  0  0  0  0
  6 11  1  1  0  0  0
  7 12  1  0  0  0  0
  8 13  1  0  0  0  0
  8  7  2  0  0  0  0
  9  4  1  0  0  0  0
 14  6  1  0  0  0  0
M  RAD  3   1   2   2   2   3   3
M  END
