Coordinates from ORCA-job PhN2+~Cl-_B3LYPG-6-31G_dp-NX-Scan-d89-09-n800
 OpenBabel11261920353D

 14 14  0  0  0  0  0  0  0  0999 V2000
   -0.5761   -0.4330   -0.6331 C   0  0  0  0  0  0  0  0  0  0  0  0
   -0.4043   -1.4726   -1.5904 N   0  0  0  0  0  0  0  0  0  0  0  0
   -1.2509   -2.0876   -2.2221 N   0  0  0  0  0  0  0  0  0  0  0  0
   -1.3183    0.7272   -0.8924 C   0  0  0  0  0  0  0  0  0  0  0  0
   -1.3424    1.7427    0.0619 C   0  0  0  0  0  0  0  0  0  0  0  0
   -0.6501    1.6010    1.2670 C   0  0  0  0  0  0  0  0  0  0  0  0
    0.0983    0.4469    1.5112 C   0  0  0  0  0  0  0  0  0  0  0  0
    0.1604   -0.5602    0.5513 C   0  0  0  0  0  0  0  0  0  0  0  0
   -1.8496    0.8394   -1.8296 H   0  0  0  0  0  0  0  0  0  0  0  0
   -1.9085    2.6475   -0.1373 H   0  0  0  0  0  0  0  0  0  0  0  0
   -0.6837    2.3943    2.0080 H   0  0  0  0  0  0  0  0  0  0  0  0
    0.6484    0.3388    2.4409 H   0  0  0  0  0  0  0  0  0  0  0  0
    0.7600   -1.4514    0.7057 H   0  0  0  0  0  0  0  0  0  0  0  0
   -2.9241   -1.7824   -1.9588 Cl  0  0  0  0  0  0  0  0  0  0  0  0
  1  8  1  0  0  0  0
  2  1  1  0  0  0  0
  3 14  1  0  0  0  0
  3  2  2  0  0  0  0
  4  1  2  0  0  0  0
  4  5  1  0  0  0  0
  5  6  2  0  0  0  0
  6  7  1  0  0  0  0
  6 11  1  0  0  0  0
  7 12  1  0  0  0  0
  8 13  1  0  0  0  0
  8  7  2  0  0  0  0
  9  4  1  0  0  0  0
 10  5  1  0  0  0  0
M  END
