Coordinates from ORCA-job PhN2+~Cl-_B3LYPG-6-31G_dp-NX-Scan-d89-09-n800
 OpenBabel11261920353D

 14 14  0  0  1  0  0  0  0  0999 V2000
   -1.2771   -1.0230   -0.2770 C   0  0  0  0  0  0  0  0  0  0  0  0
   -1.7949   -2.2507   -0.3335 N   0  0  0  0  0  0  0  0  0  0  0  0
   -2.2458   -3.3071   -0.3622 N   0  0  0  0  0  0  0  0  0  0  0  0
   -2.0996    0.1488   -0.5004 C   0  0  0  0  0  0  0  0  0  0  0  0
   -1.6213    1.3957   -0.2387 C   0  0  0  0  0  0  0  0  0  0  0  0
   -0.2831    1.6374    0.3126 C   0  0  1  0  0  0  0  0  0  0  0  0
    0.5687    0.4436    0.3653 C   0  0  0  0  0  0  0  0  0  0  0  0
    0.1033   -0.8089    0.1076 C   0  0  0  0  0  0  0  0  0  0  0  0
   -3.1213    0.0154   -0.8410 H   0  0  0  0  0  0  0  0  0  0  0  0
   -2.2747    2.2502   -0.3774 H   0  0  0  0  0  0  0  0  0  0  0  0
   -0.2562    2.2619    1.2004 H   0  0  0  0  0  0  0  0  0  0  0  0
    1.5953    0.5670    0.6921 H   0  0  0  0  0  0  0  0  0  0  0  0
    0.7531   -1.6696    0.2304 H   0  0  0  0  0  0  0  0  0  0  0  0
    0.7127    3.2901   -0.6959 Cl  0  0  0  0  0  0  0  0  0  0  0  0
  1  8  2  0  0  0  0
  2  1  1  0  0  0  0
  3  2  1  0  0  0  0
  4  1  1  0  0  0  0
  4  5  2  0  0  0  0
  5  6  1  0  0  0  0
  6  7  1  0  0  0  0
  6 11  1  1  0  0  0
  7 12  1  0  0  0  0
  8 13  1  0  0  0  0
  8  7  1  0  0  0  0
  9  4  1  0  0  0  0
 10  5  1  0  0  0  0
 14  6  1  0  0  0  0
M  RAD  3   2   2   3   3   7   2
M  END
