Coordinates from ORCA-job PhN2+~Cl-_B3LYPG-6-31G_dp-NX-Scan-d89-09-n800
 OpenBabel11261920353D

 14 13  0  0  0  0  0  0  0  0999 V2000
   -1.3582   -1.1231   -0.1445 C   0  0  0  0  0  0  0  0  0  0  0  0
   -1.8806   -2.3780   -0.2314 N   0  0  0  0  0  0  0  0  0  0  0  0
   -2.3157   -3.4234   -0.3047 N   0  0  0  0  0  0  0  0  0  0  0  0
   -2.2098   -0.0031   -0.3465 C   0  0  0  0  0  0  0  0  0  0  0  0
   -1.6548    1.2626   -0.2525 C   0  0  0  0  0  0  0  0  0  0  0  0
   -0.2884    1.4471    0.0338 C   0  0  0  0  0  0  0  0  0  0  0  0
    0.5316    0.3190    0.2296 C   0  0  0  0  0  0  0  0  0  0  0  0
    0.0243   -0.9672    0.1465 C   0  0  0  0  0  0  0  0  0  0  0  0
   -3.2606   -0.1526   -0.5685 H   0  0  0  0  0  0  0  0  0  0  0  0
   -2.2866    2.1317   -0.4035 H   0  0  0  0  0  0  0  0  0  0  0  0
    0.1330    2.4592    0.1036 H   0  0  0  0  0  0  0  0  0  0  0  0
    1.5842    0.4615    0.4515 H   0  0  0  0  0  0  0  0  0  0  0  0
    0.6499   -1.8400    0.2969 H   0  0  0  0  0  0  0  0  0  0  0  0
    1.0908    4.7569    0.2720 Cl  0  0  0  0  0  0  0  0  0  0  0  0
  1  8  2  0  0  0  0
  2  1  1  0  0  0  0
  3  2  1  0  0  0  0
  4  5  2  0  0  0  0
  4  1  1  0  0  0  0
  5  6  1  0  0  0  0
  6 11  1  0  0  0  0
  6  7  2  0  0  0  0
  7 12  1  0  0  0  0
  8  7  1  0  0  0  0
  8 13  1  0  0  0  0
  9  4  1  0  0  0  0
 10  5  1  0  0  0  0
M  RAD  3   2   2   3   3  14   2
M  END
