Coordinates from ORCA-job PhN2+~Cl-_B3LYPG-6-31G_dp-NX-Scan-d89-09-n800
 OpenBabel11261920353D

 14 14  0  0  1  0  0  0  0  0999 V2000
   -1.3519   -0.9730    0.0713 C   0  0  2  0  0  0  0  0  0  0  0  0
   -1.2651   -1.5324   -1.1217 N   0  0  0  0  0  0  0  0  0  0  0  0
   -1.0961   -1.8329   -2.2041 N   0  0  0  0  0  0  0  0  0  0  0  0
   -2.2971    0.1633    0.1259 C   0  0  0  0  0  0  0  0  0  0  0  0
   -1.7395    1.3864    0.1509 C   0  0  0  0  0  0  0  0  0  0  0  0
   -0.2640    1.4542   -0.0446 C   0  0  1  0  0  0  0  0  0  0  0  0
    0.4600    0.4296    0.7592 C   0  0  0  0  0  0  0  0  0  0  0  0
   -0.0463   -0.8158    0.7485 C   0  0  0  0  0  0  0  0  0  0  0  0
   -3.3692   -0.0081    0.0987 H   0  0  0  0  0  0  0  0  0  0  0  0
   -2.3198    2.3008    0.2211 H   0  0  0  0  0  0  0  0  0  0  0  0
    0.1588    2.4542   -0.0009 H   0  0  0  0  0  0  0  0  0  0  0  0
    1.3956    0.6846    1.2463 H   0  0  0  0  0  0  0  0  0  0  0  0
    0.4698   -1.6777    1.1598 H   0  0  0  0  0  0  0  0  0  0  0  0
    0.0237    0.9177   -1.9279 Cl  0  0  0  0  0  0  0  0  0  0  0  0
  1  2  1  6  0  0  0
  1  4  1  0  0  0  0
  1  8  1  0  0  0  0
  3  2  1  0  0  0  0
  4  5  2  0  0  0  0
  5 10  1  0  0  0  0
  6 11  1  1  0  0  0
  6  5  1  0  0  0  0
  6  7  1  0  0  0  0
  7 12  1  0  0  0  0
  8  7  2  0  0  0  0
  8 13  1  0  0  0  0
  9  4  1  0  0  0  0
 14  6  1  0  0  0  0
M  RAD  3   1   2   2   2   3   3
M  END
