Coordinates from ORCA-job PhN2+~Cl-_B3LYPG-6-31G_dp-NX-Scan-d89-09-n800
 OpenBabel11261920353D

 14 14  0  0  1  0  0  0  0  0999 V2000
   -1.2805   -1.0214   -0.2624 C   0  0  0  0  0  0  0  0  0  0  0  0
   -1.7997   -2.2455   -0.3075 N   0  0  0  0  0  0  0  0  0  0  0  0
   -2.2530   -3.3034   -0.3299 N   0  0  0  0  0  0  0  0  0  0  0  0
   -2.0953    0.1569   -0.5026 C   0  0  0  0  0  0  0  0  0  0  0  0
   -1.6136    1.4041   -0.2667 C   0  0  0  0  0  0  0  0  0  0  0  0
   -0.2694    1.6601    0.2990 C   0  0  1  0  0  0  0  0  0  0  0  0
    0.5821    0.4497    0.3387 C   0  0  0  0  0  0  0  0  0  0  0  0
    0.1072   -0.8006    0.1052 C   0  0  0  0  0  0  0  0  0  0  0  0
   -3.1157    0.0245   -0.8483 H   0  0  0  0  0  0  0  0  0  0  0  0
   -2.2621    2.2585   -0.4287 H   0  0  0  0  0  0  0  0  0  0  0  0
   -0.2937    2.2028    1.2433 H   0  0  0  0  0  0  0  0  0  0  0  0
    1.6159    0.5720    0.6430 H   0  0  0  0  0  0  0  0  0  0  0  0
    0.7593   -1.6605    0.2231 H   0  0  0  0  0  0  0  0  0  0  0  0
    0.6775    3.2534   -0.6240 Cl  0  0  0  0  0  0  0  0  0  0  0  0
  1  8  2  0  0  0  0
  2  1  1  0  0  0  0
  3  2  1  0  0  0  0
  4  5  2  0  0  0  0
  4  1  1  0  0  0  0
  5  6  1  0  0  0  0
  6  7  1  0  0  0  0
  6 11  1  1  0  0  0
  7 12  1  0  0  0  0
  8 13  1  0  0  0  0
  8  7  1  0  0  0  0
  9  4  1  0  0  0  0
 10  5  1  0  0  0  0
 14  6  1  0  0  0  0
M  RAD  3   2   2   3   3   7   2
M  END
