Coordinates from ORCA-job PhN2+~Cl-_B3LYPG-6-31G_dp-NX-Scan-d89-09-n800
 OpenBabel11261920353D

 14 13  0  0  0  0  0  0  0  0999 V2000
   -1.3354   -1.0882   -0.1441 C   0  0  0  0  0  0  0  0  0  0  0  0
   -1.7913   -2.3638   -0.2213 N   0  0  0  0  0  0  0  0  0  0  0  0
   -2.1809   -3.4243   -0.2874 N   0  0  0  0  0  0  0  0  0  0  0  0
   -2.2571   -0.0282   -0.3578 C   0  0  0  0  0  0  0  0  0  0  0  0
   -1.7805    1.2666   -0.2722 C   0  0  0  0  0  0  0  0  0  0  0  0
   -0.4278    1.5267    0.0188 C   0  0  0  0  0  0  0  0  0  0  0  0
    0.4645    0.4568    0.2223 C   0  0  0  0  0  0  0  0  0  0  0  0
    0.0372   -0.8559    0.1482 C   0  0  0  0  0  0  0  0  0  0  0  0
   -3.2957   -0.2482   -0.5799 H   0  0  0  0  0  0  0  0  0  0  0  0
   -2.4643    2.0940   -0.4318 H   0  0  0  0  0  0  0  0  0  0  0  0
   -0.0223    2.5457    0.0899 H   0  0  0  0  0  0  0  0  0  0  0  0
    1.5013    0.6925    0.4413 H   0  0  0  0  0  0  0  0  0  0  0  0
    0.7087   -1.6929    0.3054 H   0  0  0  0  0  0  0  0  0  0  0  0
    1.6027    4.0699    0.3509 Cl  0  0  0  0  0  0  0  0  0  0  0  0
  1  8  2  0  0  0  0
  2  1  1  0  0  0  0
  3  2  1  0  0  0  0
  4  5  2  0  0  0  0
  4  1  1  0  0  0  0
  5  6  1  0  0  0  0
  6 11  1  0  0  0  0
  6  7  2  0  0  0  0
  7 12  1  0  0  0  0
  8  7  1  0  0  0  0
  8 13  1  0  0  0  0
  9  4  1  0  0  0  0
 10  5  1  0  0  0  0
M  RAD  3   2   2   3   3  14   2
M  END
