Coordinates from ORCA-job PhN2+~Cl-_B3LYPG-6-31G_dp-NX-Scan-d89-09-n800
 OpenBabel11261920353D

 14 13  0  0  0  0  0  0  0  0999 V2000
   -1.3548   -1.1152   -0.1441 C   0  0  0  0  0  0  0  0  0  0  0  0
   -1.8766   -2.3690   -0.2309 N   0  0  0  0  0  0  0  0  0  0  0  0
   -2.3112   -3.4138   -0.3040 N   0  0  0  0  0  0  0  0  0  0  0  0
   -2.2079    0.0039   -0.3462 C   0  0  0  0  0  0  0  0  0  0  0  0
   -1.6531    1.2689   -0.2521 C   0  0  0  0  0  0  0  0  0  0  0  0
   -0.2864    1.4530    0.0345 C   0  0  0  0  0  0  0  0  0  0  0  0
    0.5344    0.3252    0.2303 C   0  0  0  0  0  0  0  0  0  0  0  0
    0.0278   -0.9606    0.1471 C   0  0  0  0  0  0  0  0  0  0  0  0
   -3.2586   -0.1470   -0.5683 H   0  0  0  0  0  0  0  0  0  0  0  0
   -2.2837    2.1389   -0.4028 H   0  0  0  0  0  0  0  0  0  0  0  0
    0.1356    2.4667    0.1045 H   0  0  0  0  0  0  0  0  0  0  0  0
    1.5869    0.4694    0.4521 H   0  0  0  0  0  0  0  0  0  0  0  0
    0.6525   -1.8342    0.2972 H   0  0  0  0  0  0  0  0  0  0  0  0
    1.0541    4.6646    0.2651 Cl  0  0  0  0  0  0  0  0  0  0  0  0
  1  8  2  0  0  0  0
  2  1  1  0  0  0  0
  3  2  1  0  0  0  0
  4  5  2  0  0  0  0
  4  1  1  0  0  0  0
  5  6  1  0  0  0  0
  6 11  1  0  0  0  0
  6  7  2  0  0  0  0
  7 12  1  0  0  0  0
  8  7  1  0  0  0  0
  8 13  1  0  0  0  0
  9  4  1  0  0  0  0
 10  5  1  0  0  0  0
M  RAD  3   2   2   3   3  14   2
M  END
