Coordinates from ORCA-job PhN2+~Cl-_B3LYPG-6-31G_dp-NX-Scan-d89-09-n800
 OpenBabel11261920353D

 14 13  0  0  0  0  0  0  0  0999 V2000
   -1.3490   -1.1014   -0.1432 C   0  0  0  0  0  0  0  0  0  0  0  0
   -1.8689   -2.3524   -0.2299 N   0  0  0  0  0  0  0  0  0  0  0  0
   -2.3024   -3.3958   -0.3028 N   0  0  0  0  0  0  0  0  0  0  0  0
   -2.2061    0.0143   -0.3460 C   0  0  0  0  0  0  0  0  0  0  0  0
   -1.6521    1.2778   -0.2519 C   0  0  0  0  0  0  0  0  0  0  0  0
   -0.2851    1.4596    0.0350 C   0  0  0  0  0  0  0  0  0  0  0  0
    0.5388    0.3340    0.2313 C   0  0  0  0  0  0  0  0  0  0  0  0
    0.0340   -0.9507    0.1483 C   0  0  0  0  0  0  0  0  0  0  0  0
   -3.2563   -0.1408   -0.5680 H   0  0  0  0  0  0  0  0  0  0  0  0
   -2.2802    2.1499   -0.4020 H   0  0  0  0  0  0  0  0  0  0  0  0
    0.1377    2.4755    0.1053 H   0  0  0  0  0  0  0  0  0  0  0  0
    1.5907    0.4828    0.4530 H   0  0  0  0  0  0  0  0  0  0  0  0
    0.6562   -1.8262    0.2978 H   0  0  0  0  0  0  0  0  0  0  0  0
    1.0019    4.5240    0.2554 Cl  0  0  0  0  0  0  0  0  0  0  0  0
  1  8  2  0  0  0  0
  2  1  1  0  0  0  0
  3  2  1  0  0  0  0
  4  5  2  0  0  0  0
  4  1  1  0  0  0  0
  5  6  1  0  0  0  0
  6 11  1  0  0  0  0
  6  7  2  0  0  0  0
  7 12  1  0  0  0  0
  8  7  1  0  0  0  0
  8 13  1  0  0  0  0
  9  4  1  0  0  0  0
 10  5  1  0  0  0  0
M  RAD  3   2   2   3   3  14   2
M  END
