Coordinates from ORCA-job PhN2+~Cl-_B3LYPG-6-31G_dp-NX-Scan-d89-09-n800
 OpenBabel11261920353D

 14 14  0  0  0  0  0  0  0  0999 V2000
   -0.5799   -0.3937   -0.6946 C   0  0  0  0  0  0  0  0  0  0  0  0
   -0.3913   -1.3824   -1.7212 N   0  0  0  0  0  0  0  0  0  0  0  0
   -1.3553   -2.0724   -2.1534 N   0  0  0  0  0  0  0  0  0  0  0  0
   -1.2871    0.7934   -0.9306 C   0  0  0  0  0  0  0  0  0  0  0  0
   -1.3217    1.7818    0.0522 C   0  0  0  0  0  0  0  0  0  0  0  0
   -0.6647    1.5913    1.2700 C   0  0  0  0  0  0  0  0  0  0  0  0
    0.0483    0.4118    1.4964 C   0  0  0  0  0  0  0  0  0  0  0  0
    0.1083   -0.5728    0.5113 C   0  0  0  0  0  0  0  0  0  0  0  0
   -1.7868    0.9476   -1.8819 H   0  0  0  0  0  0  0  0  0  0  0  0
   -1.8647    2.7036   -0.1351 H   0  0  0  0  0  0  0  0  0  0  0  0
   -0.6989    2.3630    2.0334 H   0  0  0  0  0  0  0  0  0  0  0  0
    0.5707    0.2627    2.4368 H   0  0  0  0  0  0  0  0  0  0  0  0
    0.6798   -1.4832    0.6630 H   0  0  0  0  0  0  0  0  0  0  0  0
   -2.6977   -1.9999   -1.6642 Cl  0  0  0  0  0  0  0  0  0  0  0  0
  1  8  1  0  0  0  0
  2  1  1  0  0  0  0
  3  2  2  0  0  0  0
  3 14  1  0  0  0  0
  4  1  2  0  0  0  0
  4  5  1  0  0  0  0
  5  6  2  0  0  0  0
  6  7  1  0  0  0  0
  6 11  1  0  0  0  0
  7 12  1  0  0  0  0
  8 13  1  0  0  0  0
  8  7  2  0  0  0  0
  9  4  1  0  0  0  0
 10  5  1  0  0  0  0
M  END
