Coordinates from ORCA-job PhN2+~Cl-_B3LYPG-6-31G_dp-NX-Scan-d89-09-n800
 OpenBabel11261920353D

 14 14  0  0  0  0  0  0  0  0999 V2000
   -0.5767   -0.4098   -0.6718 C   0  0  0  0  0  0  0  0  0  0  0  0
   -0.3889   -1.4166   -1.6718 N   0  0  0  0  0  0  0  0  0  0  0  0
   -1.3133   -2.0739   -2.1901 N   0  0  0  0  0  0  0  0  0  0  0  0
   -1.2976    0.7667   -0.9176 C   0  0  0  0  0  0  0  0  0  0  0  0
   -1.3297    1.7657    0.0543 C   0  0  0  0  0  0  0  0  0  0  0  0
   -0.6611    1.5938    1.2686 C   0  0  0  0  0  0  0  0  0  0  0  0
    0.0658    0.4241    1.5027 C   0  0  0  0  0  0  0  0  0  0  0  0
    0.1298   -0.5683    0.5266 C   0  0  0  0  0  0  0  0  0  0  0  0
   -1.8085    0.9050   -1.8644 H   0  0  0  0  0  0  0  0  0  0  0  0
   -1.8814    2.6809   -0.1386 H   0  0  0  0  0  0  0  0  0  0  0  0
   -0.6965    2.3736    2.0237 H   0  0  0  0  0  0  0  0  0  0  0  0
    0.5975    0.2907    2.4400 H   0  0  0  0  0  0  0  0  0  0  0  0
    0.7136   -1.4704    0.6794 H   0  0  0  0  0  0  0  0  0  0  0  0
   -2.7939   -1.9107   -1.7586 Cl  0  0  0  0  0  0  0  0  0  0  0  0
  1  8  1  0  0  0  0
  2  1  1  0  0  0  0
  3 14  1  0  0  0  0
  3  2  2  0  0  0  0
  4  1  2  0  0  0  0
  4  5  1  0  0  0  0
  5  6  2  0  0  0  0
  6  7  1  0  0  0  0
  6 11  1  0  0  0  0
  7 12  1  0  0  0  0
  8 13  1  0  0  0  0
  8  7  2  0  0  0  0
  9  4  1  0  0  0  0
 10  5  1  0  0  0  0
M  END
