Coordinates from ORCA-job PhN2+~Cl-_B3LYPG-6-31G_dp-NX-Scan-d89-09-n800
 OpenBabel11261920353D

 14 13  0  0  0  0  0  0  0  0999 V2000
   -1.3204   -1.0781   -0.2057 C   0  0  0  0  0  0  0  0  0  0  0  0
   -1.8207   -2.3262   -0.3625 N   0  0  0  0  0  0  0  0  0  0  0  0
   -2.2439   -3.3716   -0.4779 N   0  0  0  0  0  0  0  0  0  0  0  0
   -2.1740    0.0428   -0.4160 C   0  0  0  0  0  0  0  0  0  0  0  0
   -1.6621    1.3021   -0.1760 C   0  0  0  0  0  0  0  0  0  0  0  0
   -0.3419    1.4805    0.2898 C   0  0  0  0  0  0  0  0  0  0  0  0
    0.5030    0.3580    0.4241 C   0  0  0  0  0  0  0  0  0  0  0  0
    0.0369   -0.9213    0.1968 C   0  0  0  0  0  0  0  0  0  0  0  0
   -3.1994   -0.1097   -0.7340 H   0  0  0  0  0  0  0  0  0  0  0  0
   -2.2901    2.1737   -0.3264 H   0  0  0  0  0  0  0  0  0  0  0  0
    0.0342    2.4839    0.5082 H   0  0  0  0  0  0  0  0  0  0  0  0
    1.5317    0.5058    0.7348 H   0  0  0  0  0  0  0  0  0  0  0  0
    0.6637   -1.7948    0.3390 H   0  0  0  0  0  0  0  0  0  0  0  0
    1.0422    4.2057   -0.5118 Cl  0  0  0  0  0  0  0  0  0  0  0  0
  1  8  1  0  0  0  0
  2  1  1  0  0  0  0
  3  2  1  0  0  0  0
  4  1  2  0  0  0  0
  4  5  1  0  0  0  0
  5  6  2  0  0  0  0
  6  7  1  0  0  0  0
  6 11  1  0  0  0  0
  7 12  1  0  0  0  0
  8 13  1  0  0  0  0
  8  7  2  0  0  0  0
  9  4  1  0  0  0  0
 10  5  1  0  0  0  0
M  RAD  3   2   2   3   3  14   2
M  END
