Coordinates from ORCA-job PhN2+~Cl-_B3LYPG-6-31G_dp-NX-Scan-d89-09-n800
 OpenBabel11261920353D

 14 13  0  0  0  0  0  0  0  0999 V2000
   -1.2870   -1.0328   -0.2555 C   0  0  0  0  0  0  0  0  0  0  0  0
   -1.7766   -2.2738   -0.4369 N   0  0  0  0  0  0  0  0  0  0  0  0
   -2.1971   -3.3221   -0.5652 N   0  0  0  0  0  0  0  0  0  0  0  0
   -2.1466    0.0962   -0.4340 C   0  0  0  0  0  0  0  0  0  0  0  0
   -1.6674    1.3444   -0.1131 C   0  0  0  0  0  0  0  0  0  0  0  0
   -0.3571    1.5211    0.4010 C   0  0  0  0  0  0  0  0  0  0  0  0
    0.5062    0.3986    0.4873 C   0  0  0  0  0  0  0  0  0  0  0  0
    0.0656   -0.8665    0.1775 C   0  0  0  0  0  0  0  0  0  0  0  0
   -3.1621   -0.0514   -0.7840 H   0  0  0  0  0  0  0  0  0  0  0  0
   -2.3089    2.2110   -0.2266 H   0  0  0  0  0  0  0  0  0  0  0  0
   -0.0634    2.4675    0.8295 H   0  0  0  0  0  0  0  0  0  0  0  0
    1.5233    0.5425    0.8337 H   0  0  0  0  0  0  0  0  0  0  0  0
    0.7054   -1.7352    0.2870 H   0  0  0  0  0  0  0  0  0  0  0  0
    0.9249    3.6512   -0.9184 Cl  0  0  0  0  0  0  0  0  0  0  0  0
  1  8  1  0  0  0  0
  2  1  1  0  0  0  0
  3  2  1  0  0  0  0
  4  1  2  0  0  0  0
  4  5  1  0  0  0  0
  5  6  2  0  0  0  0
  6  7  1  0  0  0  0
  6 11  1  0  0  0  0
  7 12  1  0  0  0  0
  8 13  1  0  0  0  0
  8  7  2  0  0  0  0
  9  4  1  0  0  0  0
 10  5  1  0  0  0  0
M  RAD  3   2   2   3   3  14   2
M  END
