Coordinates from ORCA-job PhN2+~Cl-_B3LYPG-6-31G_dp-NX-Scan-d89-09-n800
 OpenBabel11261920353D

 14 14  0  0  0  0  0  0  0  0999 V2000
   -0.5897   -0.3860   -0.7076 C   0  0  0  0  0  0  0  0  0  0  0  0
   -0.4040   -1.3689   -1.7532 N   0  0  0  0  0  0  0  0  0  0  0  0
   -1.4332   -2.0637   -2.0911 N   0  0  0  0  0  0  0  0  0  0  0  0
   -1.2856    0.8112   -0.9327 C   0  0  0  0  0  0  0  0  0  0  0  0
   -1.3165    1.7952    0.0548 C   0  0  0  0  0  0  0  0  0  0  0  0
   -0.6611    1.5947    1.2720 C   0  0  0  0  0  0  0  0  0  0  0  0
    0.0406    0.4076    1.4923 C   0  0  0  0  0  0  0  0  0  0  0  0
    0.0867   -0.5756    0.5041 C   0  0  0  0  0  0  0  0  0  0  0  0
   -1.7793    0.9786   -1.8859 H   0  0  0  0  0  0  0  0  0  0  0  0
   -1.8525    2.7221   -0.1285 H   0  0  0  0  0  0  0  0  0  0  0  0
   -0.6882    2.3635    2.0388 H   0  0  0  0  0  0  0  0  0  0  0  0
    0.5623    0.2497    2.4319 H   0  0  0  0  0  0  0  0  0  0  0  0
    0.6470   -1.4933    0.6559 H   0  0  0  0  0  0  0  0  0  0  0  0
   -2.5673   -2.0844   -1.6687 Cl  0  0  0  0  0  0  0  0  0  0  0  0
  1  8  1  0  0  0  0
  2  1  1  0  0  0  0
  3  2  2  0  0  0  0
  3 14  1  0  0  0  0
  4  1  2  0  0  0  0
  4  5  1  0  0  0  0
  5  6  2  0  0  0  0
  6  7  1  0  0  0  0
  6 11  1  0  0  0  0
  7 12  1  0  0  0  0
  8 13  1  0  0  0  0
  8  7  2  0  0  0  0
  9  4  1  0  0  0  0
 10  5  1  0  0  0  0
M  END
