Coordinates from ORCA-job PhN2+~Cl-_B3LYPG-6-31G_dp-NX-Scan-d89-09-n800
 OpenBabel11261920353D

 14 14  0  0  1  0  0  0  0  0999 V2000
   -1.2536   -0.9102   -0.1853 C   0  0  2  0  0  0  0  0  0  0  0  0
   -1.5647   -2.0228   -0.8090 N   0  0  0  0  0  0  0  0  0  0  0  0
   -1.8134   -2.9695   -1.3930 N   0  0  0  0  0  0  0  0  0  0  0  0
   -2.1801    0.2021   -0.2034 C   0  0  0  0  0  0  0  0  0  0  0  0
   -1.7049    1.4337    0.0699 C   0  0  0  0  0  0  0  0  0  0  0  0
   -0.2479    1.6490    0.2037 C   0  0  1  0  0  0  0  0  0  0  0  0
    0.5086    0.4711    0.6805 C   0  0  0  0  0  0  0  0  0  0  0  0
    0.0565   -0.7707    0.4146 C   0  0  0  0  0  0  0  0  0  0  0  0
   -3.2248    0.0191   -0.4331 H   0  0  0  0  0  0  0  0  0  0  0  0
   -2.3620    2.2963    0.0830 H   0  0  0  0  0  0  0  0  0  0  0  0
    0.0215    2.5798    0.6965 H   0  0  0  0  0  0  0  0  0  0  0  0
    1.4777    0.6264    1.1414 H   0  0  0  0  0  0  0  0  0  0  0  0
    0.6362   -1.6608    0.6363 H   0  0  0  0  0  0  0  0  0  0  0  0
    0.4100    2.0074   -1.6198 Cl  0  0  0  0  0  0  0  0  0  0  0  0
  1  2  1  6  0  0  0
  1  8  1  0  0  0  0
  3  2  1  0  0  0  0
  4  1  1  0  0  0  0
  4  5  2  0  0  0  0
  5 10  1  0  0  0  0
  5  6  1  0  0  0  0
  6  7  1  0  0  0  0
  6 11  1  1  0  0  0
  7 12  1  0  0  0  0
  8 13  1  0  0  0  0
  8  7  2  0  0  0  0
  9  4  1  0  0  0  0
 14  6  1  0  0  0  0
M  RAD  3   1   2   2   2   3   3
M  END
