Coordinates from ORCA-job PhN2+~Cl-_B3LYPG-6-31G_dp-NX-Scan-d89-09-n800
 OpenBabel11261920353D

 14 14  0  0  0  0  0  0  0  0999 V2000
   -0.5861   -0.3863   -0.7056 C   0  0  0  0  0  0  0  0  0  0  0  0
   -0.3990   -1.3683   -1.7473 N   0  0  0  0  0  0  0  0  0  0  0  0
   -1.4001   -2.0695   -2.1151 N   0  0  0  0  0  0  0  0  0  0  0  0
   -1.2846    0.8080   -0.9342 C   0  0  0  0  0  0  0  0  0  0  0  0
   -1.3174    1.7921    0.0533 C   0  0  0  0  0  0  0  0  0  0  0  0
   -0.6634    1.5925    1.2713 C   0  0  0  0  0  0  0  0  0  0  0  0
    0.0408    0.4072    1.4930 C   0  0  0  0  0  0  0  0  0  0  0  0
    0.0927   -0.5752    0.5045 C   0  0  0  0  0  0  0  0  0  0  0  0
   -1.7792    0.9719   -1.8871 H   0  0  0  0  0  0  0  0  0  0  0  0
   -1.8549    2.7179   -0.1308 H   0  0  0  0  0  0  0  0  0  0  0  0
   -0.6935    2.3612    2.0381 H   0  0  0  0  0  0  0  0  0  0  0  0
    0.5611    0.2504    2.4334 H   0  0  0  0  0  0  0  0  0  0  0  0
    0.6561   -1.4909    0.6558 H   0  0  0  0  0  0  0  0  0  0  0  0
   -2.6134   -2.0602   -1.6470 Cl  0  0  0  0  0  0  0  0  0  0  0  0
  1  8  1  0  0  0  0
  2  1  1  0  0  0  0
  3  2  2  0  0  0  0
  3 14  1  0  0  0  0
  4  1  2  0  0  0  0
  4  5  1  0  0  0  0
  5  6  2  0  0  0  0
  6  7  1  0  0  0  0
  6 11  1  0  0  0  0
  7 12  1  0  0  0  0
  8 13  1  0  0  0  0
  8  7  2  0  0  0  0
  9  4  1  0  0  0  0
 10  5  1  0  0  0  0
M  END
