Coordinates from ORCA-job PhN2+~Cl-_B3LYPG-6-31G_dp-NX-Scan-d89-09-n800
 OpenBabel11261920353D

 14 13  0  0  0  0  0  0  0  0999 V2000
   -1.3053   -1.0575   -0.2280 C   0  0  0  0  0  0  0  0  0  0  0  0
   -1.7974   -2.3023   -0.4070 N   0  0  0  0  0  0  0  0  0  0  0  0
   -2.2164   -3.3486   -0.5379 N   0  0  0  0  0  0  0  0  0  0  0  0
   -2.1637    0.0656   -0.4199 C   0  0  0  0  0  0  0  0  0  0  0  0
   -1.6686    1.3201   -0.1355 C   0  0  0  0  0  0  0  0  0  0  0  0
   -0.3556    1.4957    0.3574 C   0  0  0  0  0  0  0  0  0  0  0  0
    0.5002    0.3757    0.4644 C   0  0  0  0  0  0  0  0  0  0  0  0
    0.0484   -0.8975    0.1920 C   0  0  0  0  0  0  0  0  0  0  0  0
   -3.1835   -0.0853   -0.7560 H   0  0  0  0  0  0  0  0  0  0  0  0
   -2.3023    2.1901   -0.2681 H   0  0  0  0  0  0  0  0  0  0  0  0
   -0.0082    2.4817    0.6534 H   0  0  0  0  0  0  0  0  0  0  0  0
    1.5235    0.5232    0.7917 H   0  0  0  0  0  0  0  0  0  0  0  0
    0.6820   -1.7689    0.3150 H   0  0  0  0  0  0  0  0  0  0  0  0
    1.0059    3.9588   -0.7392 Cl  0  0  0  0  0  0  0  0  0  0  0  0
  1  8  1  0  0  0  0
  2  1  1  0  0  0  0
  3  2  1  0  0  0  0
  4  1  2  0  0  0  0
  4  5  1  0  0  0  0
  5  6  2  0  0  0  0
  6  7  1  0  0  0  0
  6 11  1  0  0  0  0
  7 12  1  0  0  0  0
  8 13  1  0  0  0  0
  8  7  2  0  0  0  0
  9  4  1  0  0  0  0
 10  5  1  0  0  0  0
M  RAD  3   2   2   3   3  14   2
M  END
