Coordinates from ORCA-job PhN2+~Cl-_B3LYPG-6-31G_dp-NX-Scan-d89-09-n800
 OpenBabel11261920353D

 14 14  0  0  1  0  0  0  0  0999 V2000
   -1.2545   -0.9087   -0.1799 C   0  0  2  0  0  0  0  0  0  0  0  0
   -1.5571   -2.0132   -0.8215 N   0  0  0  0  0  0  0  0  0  0  0  0
   -1.7971   -2.9511   -1.4230 N   0  0  0  0  0  0  0  0  0  0  0  0
   -2.1829    0.2025   -0.1937 C   0  0  0  0  0  0  0  0  0  0  0  0
   -1.7062    1.4341    0.0761 C   0  0  0  0  0  0  0  0  0  0  0  0
   -0.2475    1.6464    0.1981 C   0  0  1  0  0  0  0  0  0  0  0  0
    0.5069    0.4718    0.6866 C   0  0  0  0  0  0  0  0  0  0  0  0
    0.0542   -0.7705    0.4243 C   0  0  0  0  0  0  0  0  0  0  0  0
   -3.2285    0.0185   -0.4190 H   0  0  0  0  0  0  0  0  0  0  0  0
   -2.3623    2.2974    0.0931 H   0  0  0  0  0  0  0  0  0  0  0  0
    0.0286    2.5830    0.6759 H   0  0  0  0  0  0  0  0  0  0  0  0
    1.4742    0.6289    1.1507 H   0  0  0  0  0  0  0  0  0  0  0  0
    0.6317   -1.6610    0.6500 H   0  0  0  0  0  0  0  0  0  0  0  0
    0.3995    1.9726   -1.6356 Cl  0  0  0  0  0  0  0  0  0  0  0  0
  1  2  1  6  0  0  0
  1  8  1  0  0  0  0
  3  2  1  0  0  0  0
  4  1  1  0  0  0  0
  4  5  2  0  0  0  0
  5 10  1  0  0  0  0
  5  6  1  0  0  0  0
  6 11  1  1  0  0  0
  6  7  1  0  0  0  0
  7 12  1  0  0  0  0
  8 13  1  0  0  0  0
  8  7  2  0  0  0  0
  9  4  1  0  0  0  0
 14  6  1  0  0  0  0
M  RAD  3   1   2   2   2   3   3
M  END
