Coordinates from ORCA-job PhN2+~Cl-_B3LYPG-6-31G_dp-NX-Scan-d89-09-n800
 OpenBabel11261920353D

 14 14  0  0  1  0  0  0  0  0999 V2000
   -1.2697   -0.9032   -0.1170 C   0  0  2  0  0  0  0  0  0  0  0  0
   -1.4812   -1.9090   -0.9327 N   0  0  0  0  0  0  0  0  0  0  0  0
   -1.6286   -2.7393   -1.6980 N   0  0  0  0  0  0  0  0  0  0  0  0
   -2.2117    0.2020   -0.1007 C   0  0  0  0  0  0  0  0  0  0  0  0
   -1.7164    1.4346    0.1231 C   0  0  0  0  0  0  0  0  0  0  0  0
   -0.2456    1.6131    0.1390 C   0  0  1  0  0  0  0  0  0  0  0  0
    0.4924    0.4740    0.7328 C   0  0  0  0  0  0  0  0  0  0  0  0
    0.0298   -0.7729    0.5186 C   0  0  0  0  0  0  0  0  0  0  0  0
   -3.2653    0.0120   -0.2799 H   0  0  0  0  0  0  0  0  0  0  0  0
   -2.3581    2.3075    0.1708 H   0  0  0  0  0  0  0  0  0  0  0  0
    0.0859    2.5902    0.4793 H   0  0  0  0  0  0  0  0  0  0  0  0
    1.4447    0.6534    1.2192 H   0  0  0  0  0  0  0  0  0  0  0  0
    0.5879   -1.6642    0.7864 H   0  0  0  0  0  0  0  0  0  0  0  0
    0.2950    1.6524   -1.7586 Cl  0  0  0  0  0  0  0  0  0  0  0  0
  1  2  1  6  0  0  0
  1  4  1  0  0  0  0
  1  8  1  0  0  0  0
  3  2  1  0  0  0  0
  4  5  2  0  0  0  0
  5  6  1  0  0  0  0
  5 10  1  0  0  0  0
  6 11  1  1  0  0  0
  6  7  1  0  0  0  0
  7 12  1  0  0  0  0
  8  7  2  0  0  0  0
  8 13  1  0  0  0  0
  9  4  1  0  0  0  0
 14  6  1  0  0  0  0
M  RAD  3   1   2   2   2   3   3
M  END
