Coordinates from ORCA-job PhN2+~Cl-_B3LYPG-6-31G_dp-NX-Scan-d89-09-n800
 OpenBabel11261920353D

 14 13  0  0  0  0  0  0  0  0999 V2000
   -1.2879   -1.0344   -0.2549 C   0  0  0  0  0  0  0  0  0  0  0  0
   -1.7782   -2.2757   -0.4342 N   0  0  0  0  0  0  0  0  0  0  0  0
   -2.1990   -3.3239   -0.5607 N   0  0  0  0  0  0  0  0  0  0  0  0
   -2.1469    0.0947   -0.4344 C   0  0  0  0  0  0  0  0  0  0  0  0
   -1.6671    1.3431   -0.1151 C   0  0  0  0  0  0  0  0  0  0  0  0
   -0.3569    1.5201    0.3987 C   0  0  0  0  0  0  0  0  0  0  0  0
    0.5060    0.3975    0.4852 C   0  0  0  0  0  0  0  0  0  0  0  0
    0.0649   -0.8679    0.1769 C   0  0  0  0  0  0  0  0  0  0  0  0
   -3.1628   -0.0527   -0.7838 H   0  0  0  0  0  0  0  0  0  0  0  0
   -2.3086    2.2097   -0.2293 H   0  0  0  0  0  0  0  0  0  0  0  0
   -0.0626    2.4671    0.8258 H   0  0  0  0  0  0  0  0  0  0  0  0
    1.5234    0.5412    0.8309 H   0  0  0  0  0  0  0  0  0  0  0  0
    0.7048   -1.7365    0.2872 H   0  0  0  0  0  0  0  0  0  0  0  0
    0.9300    3.6684   -0.9100 Cl  0  0  0  0  0  0  0  0  0  0  0  0
  1  8  1  0  0  0  0
  2  1  1  0  0  0  0
  3  2  1  0  0  0  0
  4  1  2  0  0  0  0
  4  5  1  0  0  0  0
  5  6  2  0  0  0  0
  6  7  1  0  0  0  0
  6 11  1  0  0  0  0
  7 12  1  0  0  0  0
  8 13  1  0  0  0  0
  8  7  2  0  0  0  0
  9  4  1  0  0  0  0
 10  5  1  0  0  0  0
M  RAD  3   2   2   3   3  14   2
M  END
