Coordinates from ORCA-job PhN2+~Cl-_B3LYPG-6-31G_dp-NX-Scan-d89-09-n800
 OpenBabel11261920353D

 14 14  0  0  0  0  0  0  0  0999 V2000
   -0.6948   -0.5430   -0.4387 C   0  0  0  0  0  0  0  0  0  0  0  0
   -0.6813   -1.7173   -1.2171 N   0  0  0  0  0  0  0  0  0  0  0  0
   -1.2016   -2.2235   -2.1467 N   0  0  0  0  0  0  0  0  0  0  0  0
   -1.5189    0.5644   -0.6991 C   0  0  0  0  0  0  0  0  0  0  0  0
   -1.4288    1.6664    0.1482 C   0  0  0  0  0  0  0  0  0  0  0  0
   -0.5425    1.6680    1.2290 C   0  0  0  0  0  0  0  0  0  0  0  0
    0.2724    0.5597    1.4774 C   0  0  0  0  0  0  0  0  0  0  0  0
    0.2003   -0.5496    0.6423 C   0  0  0  0  0  0  0  0  0  0  0  0
   -2.1989    0.5466   -1.5399 H   0  0  0  0  0  0  0  0  0  0  0  0
   -2.0575    2.5313   -0.0394 H   0  0  0  0  0  0  0  0  0  0  0  0
   -0.4861    2.5366    1.8788 H   0  0  0  0  0  0  0  0  0  0  0  0
    0.9603    0.5619    2.3168 H   0  0  0  0  0  0  0  0  0  0  0  0
    0.8199   -1.4250    0.8050 H   0  0  0  0  0  0  0  0  0  0  0  0
   -2.6835   -1.2257   -3.1345 Cl  0  0  0  0  0  0  0  0  0  0  0  0
  1  8  1  0  0  0  0
  2  1  1  0  0  0  0
  3  2  2  0  0  0  0
  4  1  2  0  0  0  0
  4  5  1  0  0  0  0
  5  6  2  0  0  0  0
  6  7  1  0  0  0  0
  6 11  1  0  0  0  0
  7 12  1  0  0  0  0
  8 13  1  0  0  0  0
  8  7  2  0  0  0  0
  9  4  1  0  0  0  0
 10  5  1  0  0  0  0
 14  3  1  0  0  0  0
M  END
