Coordinates from ORCA-job PhN2+~Cl-_B3LYPG-6-31G_dp-NX-Scan-d89-09-n800
 OpenBabel11261920353D

 14 14  0  0  1  0  0  0  0  0999 V2000
   -1.2502   -0.9256   -0.2211 C   0  0  0  0  0  0  0  0  0  0  0  0
   -1.6197   -2.0872   -0.7111 N   0  0  0  0  0  0  0  0  0  0  0  0
   -1.9288   -3.0878   -1.1636 N   0  0  0  0  0  0  0  0  0  0  0  0
   -2.1600    0.1973   -0.2748 C   0  0  0  0  0  0  0  0  0  0  0  0
   -1.6938    1.4288    0.0159 C   0  0  0  0  0  0  0  0  0  0  0  0
   -0.2517    1.6634    0.2402 C   0  0  1  0  0  0  0  0  0  0  0  0
    0.5226    0.4651    0.6273 C   0  0  0  0  0  0  0  0  0  0  0  0
    0.0731   -0.7739    0.3419 C   0  0  0  0  0  0  0  0  0  0  0  0
   -3.1989    0.0225   -0.5353 H   0  0  0  0  0  0  0  0  0  0  0  0
   -2.3557    2.2878   -0.0023 H   0  0  0  0  0  0  0  0  0  0  0  0
   -0.0374    2.5406    0.8467 H   0  0  0  0  0  0  0  0  0  0  0  0
    1.5054    0.6086    1.0626 H   0  0  0  0  0  0  0  0  0  0  0  0
    0.6684   -1.6601    0.5359 H   0  0  0  0  0  0  0  0  0  0  0  0
    0.4856    2.2712   -1.4800 Cl  0  0  0  0  0  0  0  0  0  0  0  0
  1  8  2  0  0  0  0
  2  1  1  0  0  0  0
  3  2  1  0  0  0  0
  4  1  1  0  0  0  0
  4  5  2  0  0  0  0
  5  6  1  0  0  0  0
  6  7  1  0  0  0  0
  6 11  1  1  0  0  0
  7 12  1  0  0  0  0
  8 13  1  0  0  0  0
  8  7  1  0  0  0  0
  9  4  1  0  0  0  0
 10  5  1  0  0  0  0
 14  6  1  0  0  0  0
M  RAD  3   2   2   3   3   7   2
M  END
