Coordinates from ORCA-job PhN2+~Cl-_B3LYPG-6-31G_dp-NX-Scan-d89-09-n800
 OpenBabel11261920353D

 14 14  0  0  1  0  0  0  0  0999 V2000
   -1.3432   -0.9633    0.0548 C   0  0  2  0  0  0  0  0  0  0  0  0
   -1.2855   -1.5737   -1.1124 N   0  0  0  0  0  0  0  0  0  0  0  0
   -1.1602   -1.9615   -2.1731 N   0  0  0  0  0  0  0  0  0  0  0  0
   -2.2886    0.1695    0.1048 C   0  0  0  0  0  0  0  0  0  0  0  0
   -1.7372    1.3944    0.1512 C   0  0  0  0  0  0  0  0  0  0  0  0
   -0.2600    1.4742   -0.0276 C   0  0  1  0  0  0  0  0  0  0  0  0
    0.4642    0.4367    0.7598 C   0  0  0  0  0  0  0  0  0  0  0  0
   -0.0378   -0.8097    0.7275 C   0  0  0  0  0  0  0  0  0  0  0  0
   -3.3597   -0.0057    0.0635 H   0  0  0  0  0  0  0  0  0  0  0  0
   -2.3238    2.3045    0.2235 H   0  0  0  0  0  0  0  0  0  0  0  0
    0.1546    2.4757    0.0483 H   0  0  0  0  0  0  0  0  0  0  0  0
    1.3995    0.6848    1.2508 H   0  0  0  0  0  0  0  0  0  0  0  0
    0.4812   -1.6762    1.1254 H   0  0  0  0  0  0  0  0  0  0  0  0
    0.0558    1.0011   -1.9143 Cl  0  0  0  0  0  0  0  0  0  0  0  0
  1  2  1  6  0  0  0
  1  4  1  0  0  0  0
  1  8  1  0  0  0  0
  3  2  1  0  0  0  0
  4  5  2  0  0  0  0
  5 10  1  0  0  0  0
  6 11  1  1  0  0  0
  6  5  1  0  0  0  0
  6  7  1  0  0  0  0
  7 12  1  0  0  0  0
  8  7  2  0  0  0  0
  8 13  1  0  0  0  0
  9  4  1  0  0  0  0
 14  6  1  0  0  0  0
M  RAD  3   1   2   2   2   3   3
M  END
