Coordinates from ORCA-job PhN2+~Cl-_B3LYPG-6-31G_dp-NX-Scan-d89-09-n800
 OpenBabel11261920353D

 14 14  0  0  0  0  0  0  0  0999 V2000
   -0.5900   -0.3865   -0.7073 C   0  0  0  0  0  0  0  0  0  0  0  0
   -0.4043   -1.3699   -1.7528 N   0  0  0  0  0  0  0  0  0  0  0  0
   -1.4371   -2.0625   -2.0889 N   0  0  0  0  0  0  0  0  0  0  0  0
   -1.2860    0.8109   -0.9322 C   0  0  0  0  0  0  0  0  0  0  0  0
   -1.3166    1.7952    0.0550 C   0  0  0  0  0  0  0  0  0  0  0  0
   -0.6608    1.5950    1.2721 C   0  0  0  0  0  0  0  0  0  0  0  0
    0.0410    0.4080    1.4923 C   0  0  0  0  0  0  0  0  0  0  0  0
    0.0864   -0.5756    0.5045 C   0  0  0  0  0  0  0  0  0  0  0  0
   -1.7798    0.9783   -1.8853 H   0  0  0  0  0  0  0  0  0  0  0  0
   -1.8527    2.7221   -0.1283 H   0  0  0  0  0  0  0  0  0  0  0  0
   -0.6875    2.3640    2.0387 H   0  0  0  0  0  0  0  0  0  0  0  0
    0.5631    0.2504    2.4318 H   0  0  0  0  0  0  0  0  0  0  0  0
    0.6467   -1.4933    0.6564 H   0  0  0  0  0  0  0  0  0  0  0  0
   -2.5632   -2.0853   -1.6736 Cl  0  0  0  0  0  0  0  0  0  0  0  0
  1  8  1  0  0  0  0
  2  1  1  0  0  0  0
  3  2  2  0  0  0  0
  3 14  1  0  0  0  0
  4  1  2  0  0  0  0
  4  5  1  0  0  0  0
  5  6  2  0  0  0  0
  6  7  1  0  0  0  0
  6 11  1  0  0  0  0
  7 12  1  0  0  0  0
  8 13  1  0  0  0  0
  8  7  2  0  0  0  0
  9  4  1  0  0  0  0
 10  5  1  0  0  0  0
M  END
