Coordinates from ORCA-job PhN2+~Cl-_B3LYPG-6-31G_dp-NX-Scan-d89-09-n800
 OpenBabel11261920353D

 14 14  0  0  1  0  0  0  0  0999 V2000
   -1.2660   -0.9027   -0.1296 C   0  0  2  0  0  0  0  0  0  0  0  0
   -1.4952   -1.9293   -0.9141 N   0  0  0  0  0  0  0  0  0  0  0  0
   -1.6602   -2.7820   -1.6508 N   0  0  0  0  0  0  0  0  0  0  0  0
   -2.2063    0.2027   -0.1174 C   0  0  0  0  0  0  0  0  0  0  0  0
   -1.7147    1.4352    0.1164 C   0  0  0  0  0  0  0  0  0  0  0  0
   -0.2457    1.6203    0.1502 C   0  0  1  0  0  0  0  0  0  0  0  0
    0.4947    0.4743    0.7263 C   0  0  0  0  0  0  0  0  0  0  0  0
    0.0344   -0.7719    0.5017 C   0  0  0  0  0  0  0  0  0  0  0  0
   -3.2584    0.0133   -0.3052 H   0  0  0  0  0  0  0  0  0  0  0  0
   -2.3596    2.3059    0.1597 H   0  0  0  0  0  0  0  0  0  0  0  0
    0.0771    2.5918    0.5140 H   0  0  0  0  0  0  0  0  0  0  0  0
    1.4493    0.6492    1.2098 H   0  0  0  0  0  0  0  0  0  0  0  0
    0.5958   -1.6634    0.7615 H   0  0  0  0  0  0  0  0  0  0  0  0
    0.3138    1.7074   -1.7402 Cl  0  0  0  0  0  0  0  0  0  0  0  0
  1  2  1  6  0  0  0
  1  4  1  0  0  0  0
  1  8  1  0  0  0  0
  3  2  1  0  0  0  0
  4  5  2  0  0  0  0
  5  6  1  0  0  0  0
  5 10  1  0  0  0  0
  6 11  1  1  0  0  0
  6  7  1  0  0  0  0
  7 12  1  0  0  0  0
  8  7  2  0  0  0  0
  8 13  1  0  0  0  0
  9  4  1  0  0  0  0
 14  6  1  0  0  0  0
M  RAD  3   1   2   2   2   3   3
M  END
