Coordinates from ORCA-job PhN2+~Cl-_B3LYPG-6-31G_dp-NX-Scan-d89-09-n800
 OpenBabel11261920353D

 14 14  0  0  1  0  0  0  0  0999 V2000
   -1.2527   -0.9537   -0.2557 C   0  0  0  0  0  0  0  0  0  0  0  0
   -1.6890   -2.1550   -0.5663 N   0  0  0  0  0  0  0  0  0  0  0  0
   -2.0666   -3.1981   -0.8410 N   0  0  0  0  0  0  0  0  0  0  0  0
   -2.1345    0.1872   -0.3693 C   0  0  0  0  0  0  0  0  0  0  0  0
   -1.6725    1.4206   -0.0774 C   0  0  0  0  0  0  0  0  0  0  0  0
   -0.2578    1.6716    0.2755 C   0  0  1  0  0  0  0  0  0  0  0  0
    0.5455    0.4562    0.5343 C   0  0  0  0  0  0  0  0  0  0  0  0
    0.0929   -0.7814    0.2456 C   0  0  0  0  0  0  0  0  0  0  0  0
   -3.1657    0.0251   -0.6661 H   0  0  0  0  0  0  0  0  0  0  0  0
   -2.3334    2.2782   -0.1442 H   0  0  0  0  0  0  0  0  0  0  0  0
   -0.1330    2.4415    1.0363 H   0  0  0  0  0  0  0  0  0  0  0  0
    1.5474    0.5903    0.9274 H   0  0  0  0  0  0  0  0  0  0  0  0
    0.7087   -1.6603    0.4065 H   0  0  0  0  0  0  0  0  0  0  0  0
    0.5698    2.6287   -1.2232 Cl  0  0  0  0  0  0  0  0  0  0  0  0
  1  8  2  0  0  0  0
  2  1  1  0  0  0  0
  3  2  1  0  0  0  0
  4  1  1  0  0  0  0
  4  5  2  0  0  0  0
  5  6  1  0  0  0  0
  6  7  1  0  0  0  0
  6 11  1  1  0  0  0
  7 12  1  0  0  0  0
  8 13  1  0  0  0  0
  8  7  1  0  0  0  0
  9  4  1  0  0  0  0
 10  5  1  0  0  0  0
 14  6  1  0  0  0  0
M  RAD  3   2   2   3   3   7   2
M  END
