Coordinates from ORCA-job PhN2+~Cl-_B3LYPG-6-31G_dp-NX-Scan-d89-09-n800
 OpenBabel11261920353D

 14 14  0  0  0  0  0  0  0  0999 V2000
   -0.6945   -0.5436   -0.4369 C   0  0  0  0  0  0  0  0  0  0  0  0
   -0.6831   -1.7175   -1.2157 N   0  0  0  0  0  0  0  0  0  0  0  0
   -1.2007   -2.2244   -2.1451 N   0  0  0  0  0  0  0  0  0  0  0  0
   -1.5193    0.5629   -0.6982 C   0  0  0  0  0  0  0  0  0  0  0  0
   -1.4292    1.6655    0.1483 C   0  0  0  0  0  0  0  0  0  0  0  0
   -0.5421    1.6682    1.2285 C   0  0  0  0  0  0  0  0  0  0  0  0
    0.2733    0.5603    1.4775 C   0  0  0  0  0  0  0  0  0  0  0  0
    0.2012   -0.5498    0.6435 C   0  0  0  0  0  0  0  0  0  0  0  0
   -2.1995    0.5432   -1.5389 H   0  0  0  0  0  0  0  0  0  0  0  0
   -2.0584    2.5300   -0.0395 H   0  0  0  0  0  0  0  0  0  0  0  0
   -0.4856    2.5372    1.8776 H   0  0  0  0  0  0  0  0  0  0  0  0
    0.9616    0.5635    2.3166 H   0  0  0  0  0  0  0  0  0  0  0  0
    0.8211   -1.4249    0.8067 H   0  0  0  0  0  0  0  0  0  0  0  0
   -2.6857   -1.2199   -3.1421 Cl  0  0  0  0  0  0  0  0  0  0  0  0
  1  8  1  0  0  0  0
  2  1  1  0  0  0  0
  3  2  2  0  0  0  0
  4  1  2  0  0  0  0
  4  5  1  0  0  0  0
  5  6  2  0  0  0  0
  6  7  1  0  0  0  0
  6 11  1  0  0  0  0
  7 12  1  0  0  0  0
  8 13  1  0  0  0  0
  8  7  2  0  0  0  0
  9  4  1  0  0  0  0
 10  5  1  0  0  0  0
 14  3  1  0  0  0  0
M  END
