Coordinates from ORCA-job PhN2+~Cl-_B3LYPG-6-31G_dp-NX-Scan-d89-09-n800
 OpenBabel11261920353D

 14 14  0  0  1  0  0  0  0  0999 V2000
   -1.3573   -0.9777    0.0838 C   0  0  2  0  0  0  0  0  0  0  0  0
   -1.2559   -1.5119   -1.1229 N   0  0  0  0  0  0  0  0  0  0  0  0
   -1.0477   -1.7298   -2.2182 N   0  0  0  0  0  0  0  0  0  0  0  0
   -2.3018    0.1593    0.1392 C   0  0  0  0  0  0  0  0  0  0  0  0
   -1.7401    1.3820    0.1541 C   0  0  0  0  0  0  0  0  0  0  0  0
   -0.2679    1.4429   -0.0484 C   0  0  1  0  0  0  0  0  0  0  0  0
    0.4559    0.4268    0.7616 C   0  0  0  0  0  0  0  0  0  0  0  0
   -0.0521   -0.8194    0.7615 C   0  0  0  0  0  0  0  0  0  0  0  0
   -3.3742   -0.0094    0.1124 H   0  0  0  0  0  0  0  0  0  0  0  0
   -2.3184    2.2982    0.2188 H   0  0  0  0  0  0  0  0  0  0  0  0
    0.1624    2.4403   -0.0355 H   0  0  0  0  0  0  0  0  0  0  0  0
    1.3939    0.6834    1.2432 H   0  0  0  0  0  0  0  0  0  0  0  0
    0.4661   -1.6794    1.1738 H   0  0  0  0  0  0  0  0  0  0  0  0
   -0.0039    0.8453   -1.9410 Cl  0  0  0  0  0  0  0  0  0  0  0  0
  1  2  1  6  0  0  0
  1  4  1  0  0  0  0
  1  8  1  0  0  0  0
  3  2  1  0  0  0  0
  4  5  2  0  0  0  0
  5 10  1  0  0  0  0
  6 11  1  1  0  0  0
  6  5  1  0  0  0  0
  6  7  1  0  0  0  0
  7 12  1  0  0  0  0
  8  7  2  0  0  0  0
  8 13  1  0  0  0  0
  9  4  1  0  0  0  0
 14  6  1  0  0  0  0
M  RAD  3   1   2   2   2   3   3
M  END
