Coordinates from ORCA-job PhN2+~Cl-_B3LYPG-6-31G_dp-NX-Scan-d89-09-n800
 OpenBabel11261920353D

 14 14  0  0  1  0  0  0  0  0999 V2000
   -1.2997   -0.9204   -0.0347 C   0  0  2  0  0  0  0  0  0  0  0  0
   -1.3947   -1.7720   -1.0300 N   0  0  0  0  0  0  0  0  0  0  0  0
   -1.4273   -2.4370   -1.9527 N   0  0  0  0  0  0  0  0  0  0  0  0
   -2.2461    0.1922   -0.0028 C   0  0  0  0  0  0  0  0  0  0  0  0
   -1.7254    1.4241    0.1479 C   0  0  0  0  0  0  0  0  0  0  0  0
   -0.2485    1.5599    0.0660 C   0  0  1  0  0  0  0  0  0  0  0  0
    0.4796    0.4649    0.7567 C   0  0  0  0  0  0  0  0  0  0  0  0
    0.0004   -0.7851    0.6182 C   0  0  0  0  0  0  0  0  0  0  0  0
   -3.3086    0.0044   -0.1249 H   0  0  0  0  0  0  0  0  0  0  0  0
   -2.3445    2.3123    0.2135 H   0  0  0  0  0  0  0  0  0  0  0  0
    0.1271    2.5570    0.2776 H   0  0  0  0  0  0  0  0  0  0  0  0
    1.4213    0.6741    1.2525 H   0  0  0  0  0  0  0  0  0  0  0  0
    0.5402   -1.6698    0.9404 H   0  0  0  0  0  0  0  0  0  0  0  0
    0.1855    1.3462   -1.8453 Cl  0  0  0  0  0  0  0  0  0  0  0  0
  1  2  1  6  0  0  0
  1  4  1  0  0  0  0
  1  8  1  0  0  0  0
  3  2  1  0  0  0  0
  4  5  2  0  0  0  0
  5 10  1  0  0  0  0
  6  5  1  0  0  0  0
  6 11  1  1  0  0  0
  6  7  1  0  0  0  0
  7 12  1  0  0  0  0
  8  7  2  0  0  0  0
  8 13  1  0  0  0  0
  9  4  1  0  0  0  0
 14  6  1  0  0  0  0
M  RAD  3   1   2   2   2   3   3
M  END
