Coordinates from ORCA-job PhN2+~Cl-_B3LYPG-6-31G_dp-NX-Scan-d89-09-n800
 OpenBabel11261920353D

 14 14  0  0  1  0  0  0  0  0999 V2000
   -1.2927   -0.9150   -0.0517 C   0  0  2  0  0  0  0  0  0  0  0  0
   -1.4127   -1.8019   -1.0122 N   0  0  0  0  0  0  0  0  0  0  0  0
   -1.4694   -2.5043   -1.9059 N   0  0  0  0  0  0  0  0  0  0  0  0
   -2.2390    0.1949   -0.0221 C   0  0  0  0  0  0  0  0  0  0  0  0
   -1.7236    1.4273    0.1449 C   0  0  0  0  0  0  0  0  0  0  0  0
   -0.2475    1.5721    0.0814 C   0  0  1  0  0  0  0  0  0  0  0  0
    0.4821    0.4678    0.7539 C   0  0  0  0  0  0  0  0  0  0  0  0
    0.0066   -0.7819    0.5985 C   0  0  0  0  0  0  0  0  0  0  0  0
   -3.2997    0.0059   -0.1567 H   0  0  0  0  0  0  0  0  0  0  0  0
   -2.3477    2.3121    0.2078 H   0  0  0  0  0  0  0  0  0  0  0  0
    0.1203    2.5666    0.3173 H   0  0  0  0  0  0  0  0  0  0  0  0
    1.4255    0.6707    1.2488 H   0  0  0  0  0  0  0  0  0  0  0  0
    0.5499   -1.6687    0.9088 H   0  0  0  0  0  0  0  0  0  0  0  0
    0.2070    1.4050   -1.8306 Cl  0  0  0  0  0  0  0  0  0  0  0  0
  1  2  1  6  0  0  0
  1  4  1  0  0  0  0
  1  8  1  0  0  0  0
  3  2  1  0  0  0  0
  4  5  2  0  0  0  0
  5 10  1  0  0  0  0
  6  5  1  0  0  0  0
  6 11  1  1  0  0  0
  6  7  1  0  0  0  0
  7 12  1  0  0  0  0
  8  7  2  0  0  0  0
  8 13  1  0  0  0  0
  9  4  1  0  0  0  0
 14  6  1  0  0  0  0
M  RAD  3   1   2   2   2   3   3
M  END
