Coordinates from ORCA-job PhN2+~Cl-_B3LYPG-6-31G_dp-NX-Scan-d89-09-n800
 OpenBabel11261920353D

 14 14  0  0  1  0  0  0  0  0999 V2000
   -1.2516   -0.9476   -0.2500 C   0  0  0  0  0  0  0  0  0  0  0  0
   -1.6752   -2.1429   -0.5974 N   0  0  0  0  0  0  0  0  0  0  0  0
   -2.0401   -3.1798   -0.9083 N   0  0  0  0  0  0  0  0  0  0  0  0
   -2.1396    0.1895   -0.3502 C   0  0  0  0  0  0  0  0  0  0  0  0
   -1.6776    1.4222   -0.0564 C   0  0  0  0  0  0  0  0  0  0  0  0
   -0.2566    1.6707    0.2696 C   0  0  1  0  0  0  0  0  0  0  0  0
    0.5404    0.4579    0.5554 C   0  0  0  0  0  0  0  0  0  0  0  0
    0.0891   -0.7797    0.2651 C   0  0  0  0  0  0  0  0  0  0  0  0
   -3.1724    0.0247   -0.6397 H   0  0  0  0  0  0  0  0  0  0  0  0
   -2.3394    2.2798   -0.1124 H   0  0  0  0  0  0  0  0  0  0  0  0
   -0.1117    2.4665    0.9989 H   0  0  0  0  0  0  0  0  0  0  0  0
    1.5382    0.5933    0.9581 H   0  0  0  0  0  0  0  0  0  0  0  0
    0.7008   -1.6603    0.4326 H   0  0  0  0  0  0  0  0  0  0  0  0
    0.5547    2.5562   -1.2831 Cl  0  0  0  0  0  0  0  0  0  0  0  0
  1  8  2  0  0  0  0
  2  1  1  0  0  0  0
  3  2  1  0  0  0  0
  4  1  1  0  0  0  0
  4  5  2  0  0  0  0
  5  6  1  0  0  0  0
  6  7  1  0  0  0  0
  6 11  1  1  0  0  0
  7 12  1  0  0  0  0
  8 13  1  0  0  0  0
  8  7  1  0  0  0  0
  9  4  1  0  0  0  0
 10  5  1  0  0  0  0
 14  6  1  0  0  0  0
M  RAD  3   2   2   3   3   7   2
M  END
