Coordinates from ORCA-job PhN2+~Cl-_B3LYPG-6-31G_dp-NX-Scan-d89-09-n800
 OpenBabel11261920353D

 14 14  0  0  1  0  0  0  0  0999 V2000
   -1.2743   -1.0063   -0.2607 C   0  0  0  0  0  0  0  0  0  0  0  0
   -1.7851   -2.2258   -0.3297 N   0  0  0  0  0  0  0  0  0  0  0  0
   -2.2323   -3.2839   -0.3745 N   0  0  0  0  0  0  0  0  0  0  0  0
   -2.0990    0.1665   -0.4902 C   0  0  0  0  0  0  0  0  0  0  0  0
   -1.6218    1.4104   -0.2510 C   0  0  0  0  0  0  0  0  0  0  0  0
   -0.2655    1.6687    0.2979 C   0  0  1  0  0  0  0  0  0  0  0  0
    0.5843    0.4515    0.3574 C   0  0  0  0  0  0  0  0  0  0  0  0
    0.1107   -0.7940    0.1196 C   0  0  0  0  0  0  0  0  0  0  0  0
   -3.1185    0.0277   -0.8357 H   0  0  0  0  0  0  0  0  0  0  0  0
   -2.2676    2.2674   -0.4106 H   0  0  0  0  0  0  0  0  0  0  0  0
   -0.2933    2.2067    1.2474 H   0  0  0  0  0  0  0  0  0  0  0  0
    1.6173    0.5781    0.6629 H   0  0  0  0  0  0  0  0  0  0  0  0
    0.7578   -1.6578    0.2359 H   0  0  0  0  0  0  0  0  0  0  0  0
    0.6464    3.1415   -0.6863 Cl  0  0  0  0  0  0  0  0  0  0  0  0
  1  8  2  0  0  0  0
  2  1  1  0  0  0  0
  3  2  1  0  0  0  0
  4  1  1  0  0  0  0
  4  5  2  0  0  0  0
  5  6  1  0  0  0  0
  6  7  1  0  0  0  0
  6 11  1  1  0  0  0
  7 12  1  0  0  0  0
  8 13  1  0  0  0  0
  8  7  1  0  0  0  0
  9  4  1  0  0  0  0
 10  5  1  0  0  0  0
 14  6  1  0  0  0  0
M  RAD  3   2   2   3   3   7   2
M  END
