Coordinates from ORCA-job PhN2+~Cl-_B3LYPG-6-31G_dp-NX-Scan-d89-09-n800
 OpenBabel11261920353D

 14 14  0  0  1  0  0  0  0  0999 V2000
   -1.2520   -0.9148   -0.1983 C   0  0  2  0  0  0  0  0  0  0  0  0
   -1.5838   -2.0461   -0.7765 N   0  0  0  0  0  0  0  0  0  0  0  0
   -1.8538   -3.0134   -1.3162 N   0  0  0  0  0  0  0  0  0  0  0  0
   -2.1731    0.2008   -0.2277 C   0  0  0  0  0  0  0  0  0  0  0  0
   -1.7015    1.4323    0.0530 C   0  0  0  0  0  0  0  0  0  0  0  0
   -0.2491    1.6548    0.2171 C   0  0  1  0  0  0  0  0  0  0  0  0
    0.5132    0.4693    0.6638 C   0  0  0  0  0  0  0  0  0  0  0  0
    0.0623   -0.7715    0.3899 C   0  0  0  0  0  0  0  0  0  0  0  0
   -3.2158    0.0205   -0.4685 H   0  0  0  0  0  0  0  0  0  0  0  0
   -2.3607    2.2934    0.0557 H   0  0  0  0  0  0  0  0  0  0  0  0
    0.0027    2.5695    0.7484 H   0  0  0  0  0  0  0  0  0  0  0  0
    1.4869    0.6200    1.1164 H   0  0  0  0  0  0  0  0  0  0  0  0
    0.6473   -1.6605    0.6017 H   0  0  0  0  0  0  0  0  0  0  0  0
    0.4365    2.0966   -1.5766 Cl  0  0  0  0  0  0  0  0  0  0  0  0
  1  2  1  6  0  0  0
  1  8  1  0  0  0  0
  3  2  1  0  0  0  0
  4  1  1  0  0  0  0
  4  5  2  0  0  0  0
  5 10  1  0  0  0  0
  5  6  1  0  0  0  0
  6  7  1  0  0  0  0
  6 11  1  1  0  0  0
  7 12  1  0  0  0  0
  8 13  1  0  0  0  0
  8  7  2  0  0  0  0
  9  4  1  0  0  0  0
 14  6  1  0  0  0  0
M  RAD  3   1   2   2   2   3   3
M  END
