Coordinates from ORCA-job PhN2+~Cl-_B3LYPG-6-31G_dp-NX-Scan-d89-09-n800
 OpenBabel11261920353D

 14 14  0  0  0  0  0  0  0  0999 V2000
   -0.6906   -0.5479   -0.4242 C   0  0  0  0  0  0  0  0  0  0  0  0
   -0.6937   -1.7180   -1.2071 N   0  0  0  0  0  0  0  0  0  0  0  0
   -1.1929   -2.2322   -2.1329 N   0  0  0  0  0  0  0  0  0  0  0  0
   -1.5208    0.5519   -0.6925 C   0  0  0  0  0  0  0  0  0  0  0  0
   -1.4315    1.6589    0.1481 C   0  0  0  0  0  0  0  0  0  0  0  0
   -0.5404    1.6688    1.2253 C   0  0  0  0  0  0  0  0  0  0  0  0
    0.2793    0.5647    1.4788 C   0  0  0  0  0  0  0  0  0  0  0  0
    0.2084   -0.5512    0.6525 C   0  0  0  0  0  0  0  0  0  0  0  0
   -2.2014    0.5184   -1.5339 H   0  0  0  0  0  0  0  0  0  0  0  0
   -2.0637    2.5206   -0.0417 H   0  0  0  0  0  0  0  0  0  0  0  0
   -0.4842    2.5413    1.8697 H   0  0  0  0  0  0  0  0  0  0  0  0
    0.9696    0.5752    2.3162 H   0  0  0  0  0  0  0  0  0  0  0  0
    0.8303   -1.4240    0.8195 H   0  0  0  0  0  0  0  0  0  0  0  0
   -2.7093   -1.1759   -3.1952 Cl  0  0  0  0  0  0  0  0  0  0  0  0
  1  8  1  0  0  0  0
  2  1  1  0  0  0  0
  3  2  2  0  0  0  0
  4  1  2  0  0  0  0
  4  5  1  0  0  0  0
  5  6  2  0  0  0  0
  6  7  1  0  0  0  0
  6 11  1  0  0  0  0
  7 12  1  0  0  0  0
  8 13  1  0  0  0  0
  8  7  2  0  0  0  0
  9  4  1  0  0  0  0
 10  5  1  0  0  0  0
 14  3  1  0  0  0  0
M  END
