Coordinates from ORCA-job PhN2+~Cl-_B3LYPG-6-31G_dp-NX-Scan-d89-09-n800
 OpenBabel11261920353D

 14 14  0  0  1  0  0  0  0  0999 V2000
   -1.3440   -0.9643    0.0564 C   0  0  2  0  0  0  0  0  0  0  0  0
   -1.2835   -1.5697   -1.1134 N   0  0  0  0  0  0  0  0  0  0  0  0
   -1.1545   -1.9503   -2.1763 N   0  0  0  0  0  0  0  0  0  0  0  0
   -2.2894    0.1689    0.1068 C   0  0  0  0  0  0  0  0  0  0  0  0
   -1.7375    1.3936    0.1511 C   0  0  0  0  0  0  0  0  0  0  0  0
   -0.2603    1.4723   -0.0293 C   0  0  1  0  0  0  0  0  0  0  0  0
    0.4639    0.4360    0.7597 C   0  0  0  0  0  0  0  0  0  0  0  0
   -0.0386   -0.8103    0.7295 C   0  0  0  0  0  0  0  0  0  0  0  0
   -3.3606   -0.0059    0.0670 H   0  0  0  0  0  0  0  0  0  0  0  0
   -2.3234    2.3042    0.2234 H   0  0  0  0  0  0  0  0  0  0  0  0
    0.1550    2.4738    0.0438 H   0  0  0  0  0  0  0  0  0  0  0  0
    1.3991    0.6848    1.2504 H   0  0  0  0  0  0  0  0  0  0  0  0
    0.4800   -1.6763    1.1288 H   0  0  0  0  0  0  0  0  0  0  0  0
    0.0530    0.9939   -1.9155 Cl  0  0  0  0  0  0  0  0  0  0  0  0
  1  2  1  6  0  0  0
  1  4  1  0  0  0  0
  1  8  1  0  0  0  0
  3  2  1  0  0  0  0
  4  5  2  0  0  0  0
  5 10  1  0  0  0  0
  6 11  1  1  0  0  0
  6  5  1  0  0  0  0
  6  7  1  0  0  0  0
  7 12  1  0  0  0  0
  8  7  2  0  0  0  0
  8 13  1  0  0  0  0
  9  4  1  0  0  0  0
 14  6  1  0  0  0  0
M  RAD  3   1   2   2   2   3   3
M  END
