Coordinates from ORCA-job PhN2+~Cl-_B3LYPG-6-31G_dp-NX-Scan-d89-09-n800
 OpenBabel11261920353D

 14 14  0  0  0  0  0  0  0  0999 V2000
   -0.5763   -0.4125   -0.6677 C   0  0  0  0  0  0  0  0  0  0  0  0
   -0.3895   -1.4226   -1.6632 N   0  0  0  0  0  0  0  0  0  0  0  0
   -1.3061   -2.0746   -2.1951 N   0  0  0  0  0  0  0  0  0  0  0  0
   -1.2996    0.7622   -0.9151 C   0  0  0  0  0  0  0  0  0  0  0  0
   -1.3310    1.7630    0.0548 C   0  0  0  0  0  0  0  0  0  0  0  0
   -0.6602    1.5943    1.2683 C   0  0  0  0  0  0  0  0  0  0  0  0
    0.0690    0.4264    1.5037 C   0  0  0  0  0  0  0  0  0  0  0  0
    0.1334   -0.5675    0.5292 C   0  0  0  0  0  0  0  0  0  0  0  0
   -1.8125    0.8977   -1.8610 H   0  0  0  0  0  0  0  0  0  0  0  0
   -1.8843    2.6771   -0.1389 H   0  0  0  0  0  0  0  0  0  0  0  0
   -0.6958    2.3755    2.0220 H   0  0  0  0  0  0  0  0  0  0  0  0
    0.6025    0.2957    2.4404 H   0  0  0  0  0  0  0  0  0  0  0  0
    0.7192   -1.4683    0.6822 H   0  0  0  0  0  0  0  0  0  0  0  0
   -2.8098   -1.8959   -1.7773 Cl  0  0  0  0  0  0  0  0  0  0  0  0
  1  8  1  0  0  0  0
  2  1  1  0  0  0  0
  3 14  1  0  0  0  0
  3  2  2  0  0  0  0
  4  1  2  0  0  0  0
  4  5  1  0  0  0  0
  5  6  2  0  0  0  0
  6  7  1  0  0  0  0
  6 11  1  0  0  0  0
  7 12  1  0  0  0  0
  8 13  1  0  0  0  0
  8  7  2  0  0  0  0
  9  4  1  0  0  0  0
 10  5  1  0  0  0  0
M  END
