Coordinates from ORCA-job PhN2+~Cl-_B3LYPG-6-31G_dp-NX-Scan-d89-09-n800
 OpenBabel11261920353D

 14 13  0  0  0  0  0  0  0  0999 V2000
   -0.6459   -0.5706   -0.3791 C   0  0  0  0  0  0  0  0  0  0  0  0
   -0.6831   -1.7221   -1.1824 N   0  0  0  0  0  0  0  0  0  0  0  0
   -1.1124   -2.2964   -2.0727 N   0  0  0  0  0  0  0  0  0  0  0  0
   -1.4993    0.4962   -0.6933 C   0  0  0  0  0  0  0  0  0  0  0  0
   -1.4331    1.6210    0.1257 C   0  0  0  0  0  0  0  0  0  0  0  0
   -0.5486    1.6636    1.2080 C   0  0  0  0  0  0  0  0  0  0  0  0
    0.2904    0.5799    1.4958 C   0  0  0  0  0  0  0  0  0  0  0  0
    0.2496   -0.5571    0.6977 C   0  0  0  0  0  0  0  0  0  0  0  0
   -2.1690    0.4060   -1.5502 H   0  0  0  0  0  0  0  0  0  0  0  0
   -2.0776    2.4684   -0.0854 H   0  0  0  0  0  0  0  0  0  0  0  0
   -0.5108    2.5497    1.8350 H   0  0  0  0  0  0  0  0  0  0  0  0
    0.9716    0.6239    2.3390 H   0  0  0  0  0  0  0  0  0  0  0  0
    0.8841   -1.4156    0.8894 H   0  0  0  0  0  0  0  0  0  0  0  0
   -2.9567   -0.8962   -3.3451 Cl  0  0  0  0  0  0  0  0  0  0  0  0
  1  8  1  0  0  0  0
  2  1  1  0  0  0  0
  3  2  2  0  0  0  0
  4  1  2  0  0  0  0
  4  5  1  0  0  0  0
  5  6  2  0  0  0  0
  6  7  1  0  0  0  0
  6 11  1  0  0  0  0
  7 12  1  0  0  0  0
  8 13  1  0  0  0  0
  8  7  2  0  0  0  0
  9  4  1  0  0  0  0
 10  5  1  0  0  0  0
M  RAD  2   3   2  14   2
M  END
