Coordinates from ORCA-job PhN2+~Cl-_B3LYPG-6-31G_dp-NX-Scan-d89-09-n800
 OpenBabel11261920353D

 14 13  0  0  0  0  0  0  0  0999 V2000
   -1.3508   -1.1057   -0.1435 C   0  0  0  0  0  0  0  0  0  0  0  0
   -1.8714   -2.3576   -0.2303 N   0  0  0  0  0  0  0  0  0  0  0  0
   -2.3054   -3.4015   -0.3032 N   0  0  0  0  0  0  0  0  0  0  0  0
   -2.2064    0.0113   -0.3461 C   0  0  0  0  0  0  0  0  0  0  0  0
   -1.6520    1.2753   -0.2519 C   0  0  0  0  0  0  0  0  0  0  0  0
   -0.2851    1.4580    0.0349 C   0  0  0  0  0  0  0  0  0  0  0  0
    0.5375    0.3315    0.2310 C   0  0  0  0  0  0  0  0  0  0  0  0
    0.0321   -0.9536    0.1479 C   0  0  0  0  0  0  0  0  0  0  0  0
   -3.2568   -0.1422   -0.5681 H   0  0  0  0  0  0  0  0  0  0  0  0
   -2.2810    2.1467   -0.4022 H   0  0  0  0  0  0  0  0  0  0  0  0
    0.1374    2.4733    0.1051 H   0  0  0  0  0  0  0  0  0  0  0  0
    1.5896    0.4785    0.4527 H   0  0  0  0  0  0  0  0  0  0  0  0
    0.6551   -1.8285    0.2976 H   0  0  0  0  0  0  0  0  0  0  0  0
    1.0162    4.5653    0.2580 Cl  0  0  0  0  0  0  0  0  0  0  0  0
  1  8  2  0  0  0  0
  2  1  1  0  0  0  0
  3  2  1  0  0  0  0
  4  5  2  0  0  0  0
  4  1  1  0  0  0  0
  5  6  1  0  0  0  0
  6 11  1  0  0  0  0
  6  7  2  0  0  0  0
  7 12  1  0  0  0  0
  8  7  1  0  0  0  0
  8 13  1  0  0  0  0
  9  4  1  0  0  0  0
 10  5  1  0  0  0  0
M  RAD  3   2   2   3   3  14   2
M  END
