Coordinates from ORCA-job PhN2+~Cl-_B3LYPG-6-31G_dp-NX-Scan-d89-09-n800
 OpenBabel11261920353D

 14 14  0  0  1  0  0  0  0  0999 V2000
   -1.2518   -0.9155   -0.2000 C   0  0  2  0  0  0  0  0  0  0  0  0
   -1.5864   -2.0492   -0.7720 N   0  0  0  0  0  0  0  0  0  0  0  0
   -1.8592   -3.0191   -1.3057 N   0  0  0  0  0  0  0  0  0  0  0  0
   -2.1722    0.2006   -0.2310 C   0  0  0  0  0  0  0  0  0  0  0  0
   -1.7010    1.4321    0.0506 C   0  0  0  0  0  0  0  0  0  0  0  0
   -0.2493    1.6555    0.2189 C   0  0  1  0  0  0  0  0  0  0  0  0
    0.5138    0.4690    0.6615 C   0  0  0  0  0  0  0  0  0  0  0  0
    0.0631   -0.7716    0.3865 C   0  0  0  0  0  0  0  0  0  0  0  0
   -3.2146    0.0206   -0.4732 H   0  0  0  0  0  0  0  0  0  0  0  0
   -2.3605    2.2930    0.0518 H   0  0  0  0  0  0  0  0  0  0  0  0
    0.0000    2.5678    0.7553 H   0  0  0  0  0  0  0  0  0  0  0  0
    1.4882    0.6191    1.1129 H   0  0  0  0  0  0  0  0  0  0  0  0
    0.6488   -1.6605    0.5971 H   0  0  0  0  0  0  0  0  0  0  0  0
    0.4401    2.1087   -1.5704 Cl  0  0  0  0  0  0  0  0  0  0  0  0
  1  2  1  6  0  0  0
  1  8  1  0  0  0  0
  3  2  1  0  0  0  0
  4  1  1  0  0  0  0
  4  5  2  0  0  0  0
  5 10  1  0  0  0  0
  5  6  1  0  0  0  0
  6  7  1  0  0  0  0
  6 11  1  1  0  0  0
  7 12  1  0  0  0  0
  8 13  1  0  0  0  0
  8  7  2  0  0  0  0
  9  4  1  0  0  0  0
 14  6  1  0  0  0  0
M  RAD  3   1   2   2   2   3   3
M  END
