Coordinates from ORCA-job PhN2+~Cl-_B3LYPG-6-31G_dp-NX-Scan-d89-09-n800
 OpenBabel11261920353D

 14 14  0  0  1  0  0  0  0  0999 V2000
   -1.2526   -0.9128   -0.1932 C   0  0  2  0  0  0  0  0  0  0  0  0
   -1.5762   -2.0369   -0.7896 N   0  0  0  0  0  0  0  0  0  0  0  0
   -1.8377   -2.9962   -1.3473 N   0  0  0  0  0  0  0  0  0  0  0  0
   -2.1759    0.2014   -0.2179 C   0  0  0  0  0  0  0  0  0  0  0  0
   -1.7029    1.4329    0.0600 C   0  0  0  0  0  0  0  0  0  0  0  0
   -0.2486    1.6525    0.2119 C   0  0  1  0  0  0  0  0  0  0  0  0
    0.5113    0.4700    0.6707 C   0  0  0  0  0  0  0  0  0  0  0  0
    0.0600   -0.7712    0.3998 C   0  0  0  0  0  0  0  0  0  0  0  0
   -3.2194    0.0200   -0.4543 H   0  0  0  0  0  0  0  0  0  0  0  0
   -2.3613    2.2946    0.0669 H   0  0  0  0  0  0  0  0  0  0  0  0
    0.0104    2.5740    0.7276 H   0  0  0  0  0  0  0  0  0  0  0  0
    1.4832    0.6225    1.1267 H   0  0  0  0  0  0  0  0  0  0  0  0
    0.6428   -1.6606    0.6156 H   0  0  0  0  0  0  0  0  0  0  0  0
    0.4259    2.0606   -1.5945 Cl  0  0  0  0  0  0  0  0  0  0  0  0
  1  2  1  6  0  0  0
  1  8  1  0  0  0  0
  3  2  1  0  0  0  0
  4  1  1  0  0  0  0
  4  5  2  0  0  0  0
  5 10  1  0  0  0  0
  5  6  1  0  0  0  0
  6  7  1  0  0  0  0
  6 11  1  1  0  0  0
  7 12  1  0  0  0  0
  8 13  1  0  0  0  0
  8  7  2  0  0  0  0
  9  4  1  0  0  0  0
 14  6  1  0  0  0  0
M  RAD  3   1   2   2   2   3   3
M  END
