Coordinates from ORCA-job PhN2+~Cl-_B3LYPG-6-31G_dp-NX-Scan-d89-09-n800
 OpenBabel11261920353D

 14 14  0  0  1  0  0  0  0  0999 V2000
   -1.3562   -0.9772    0.0806 C   0  0  2  0  0  0  0  0  0  0  0  0
   -1.2570   -1.5149   -1.1236 N   0  0  0  0  0  0  0  0  0  0  0  0
   -1.0595   -1.7558   -2.2160 N   0  0  0  0  0  0  0  0  0  0  0  0
   -2.3009    0.1601    0.1363 C   0  0  0  0  0  0  0  0  0  0  0  0
   -1.7402    1.3826    0.1524 C   0  0  0  0  0  0  0  0  0  0  0  0
   -0.2667    1.4448   -0.0496 C   0  0  1  0  0  0  0  0  0  0  0  0
    0.4571    0.4268    0.7602 C   0  0  0  0  0  0  0  0  0  0  0  0
   -0.0508   -0.8188    0.7588 C   0  0  0  0  0  0  0  0  0  0  0  0
   -3.3734   -0.0092    0.1117 H   0  0  0  0  0  0  0  0  0  0  0  0
   -2.3184    2.2986    0.2193 H   0  0  0  0  0  0  0  0  0  0  0  0
    0.1613    2.4431   -0.0274 H   0  0  0  0  0  0  0  0  0  0  0  0
    1.3941    0.6838    1.2438 H   0  0  0  0  0  0  0  0  0  0  0  0
    0.4660   -1.6789    1.1729 H   0  0  0  0  0  0  0  0  0  0  0  0
    0.0037    0.8655   -1.9370 Cl  0  0  0  0  0  0  0  0  0  0  0  0
  1  2  1  6  0  0  0
  1  4  1  0  0  0  0
  1  8  1  0  0  0  0
  3  2  1  0  0  0  0
  4  5  2  0  0  0  0
  5 10  1  0  0  0  0
  6 11  1  1  0  0  0
  6  5  1  0  0  0  0
  6  7  1  0  0  0  0
  7 12  1  0  0  0  0
  8  7  2  0  0  0  0
  8 13  1  0  0  0  0
  9  4  1  0  0  0  0
 14  6  1  0  0  0  0
M  RAD  3   1   2   2   2   3   3
M  END
