Coordinates from ORCA-job PhN2+~Cl-_B3LYPG-6-31G_dp-NX-Scan-d89-09-n800
 OpenBabel11261920353D

 14 13  0  0  0  0  0  0  0  0999 V2000
   -0.6865   -0.5506   -0.4163 C   0  0  0  0  0  0  0  0  0  0  0  0
   -0.6979   -1.7178   -1.2026 N   0  0  0  0  0  0  0  0  0  0  0  0
   -1.1861   -2.2381   -2.1246 N   0  0  0  0  0  0  0  0  0  0  0  0
   -1.5202    0.5445   -0.6900 C   0  0  0  0  0  0  0  0  0  0  0  0
   -1.4324    1.6542    0.1471 C   0  0  0  0  0  0  0  0  0  0  0  0
   -0.5401    1.6688    1.2232 C   0  0  0  0  0  0  0  0  0  0  0  0
    0.2825    0.5674    1.4805 C   0  0  0  0  0  0  0  0  0  0  0  0
    0.2138   -0.5520    0.6587 C   0  0  0  0  0  0  0  0  0  0  0  0
   -2.2003    0.5020   -1.5326 H   0  0  0  0  0  0  0  0  0  0  0  0
   -2.0665    2.5141   -0.0447 H   0  0  0  0  0  0  0  0  0  0  0  0
   -0.4849    2.5435    1.8648 H   0  0  0  0  0  0  0  0  0  0  0  0
    0.9731    0.5827    2.3174 H   0  0  0  0  0  0  0  0  0  0  0  0
    0.8373   -1.4232    0.8286 H   0  0  0  0  0  0  0  0  0  0  0  0
   -2.7327   -1.1448   -3.2272 Cl  0  0  0  0  0  0  0  0  0  0  0  0
  1  8  1  0  0  0  0
  2  1  1  0  0  0  0
  3  2  2  0  0  0  0
  4  1  2  0  0  0  0
  4  5  1  0  0  0  0
  5  6  2  0  0  0  0
  6  7  1  0  0  0  0
  6 11  1  0  0  0  0
  7 12  1  0  0  0  0
  8 13  1  0  0  0  0
  8  7  2  0  0  0  0
  9  4  1  0  0  0  0
 10  5  1  0  0  0  0
M  RAD  2   3   2  14   2
M  END
