Coordinates from ORCA-job PhN2+~Cl-_B3LYPG-6-31G_dp-NX-Scan-d89-09-n800
 OpenBabel11261920353D

 14 13  0  0  0  0  0  0  0  0999 V2000
   -1.3501   -1.1040   -0.1433 C   0  0  0  0  0  0  0  0  0  0  0  0
   -1.8704   -2.3556   -0.2301 N   0  0  0  0  0  0  0  0  0  0  0  0
   -2.3042   -3.3993   -0.3030 N   0  0  0  0  0  0  0  0  0  0  0  0
   -2.2063    0.0126   -0.3460 C   0  0  0  0  0  0  0  0  0  0  0  0
   -1.6520    1.2763   -0.2519 C   0  0  0  0  0  0  0  0  0  0  0  0
   -0.2851    1.4587    0.0349 C   0  0  0  0  0  0  0  0  0  0  0  0
    0.5380    0.3325    0.2311 C   0  0  0  0  0  0  0  0  0  0  0  0
    0.0329   -0.9524    0.1481 C   0  0  0  0  0  0  0  0  0  0  0  0
   -3.2566   -0.1416   -0.5680 H   0  0  0  0  0  0  0  0  0  0  0  0
   -2.2806    2.1480   -0.4021 H   0  0  0  0  0  0  0  0  0  0  0  0
    0.1376    2.4742    0.1052 H   0  0  0  0  0  0  0  0  0  0  0  0
    1.5901    0.4802    0.4528 H   0  0  0  0  0  0  0  0  0  0  0  0
    0.6556   -1.8276    0.2977 H   0  0  0  0  0  0  0  0  0  0  0  0
    1.0103    4.5488    0.2569 Cl  0  0  0  0  0  0  0  0  0  0  0  0
  1  8  2  0  0  0  0
  2  1  1  0  0  0  0
  3  2  1  0  0  0  0
  4  5  2  0  0  0  0
  4  1  1  0  0  0  0
  5  6  1  0  0  0  0
  6 11  1  0  0  0  0
  6  7  2  0  0  0  0
  7 12  1  0  0  0  0
  8  7  1  0  0  0  0
  8 13  1  0  0  0  0
  9  4  1  0  0  0  0
 10  5  1  0  0  0  0
M  RAD  3   2   2   3   3  14   2
M  END
