Coordinates from ORCA-job PhN2+~Cl-_B3LYPG-6-31G_dp-NX-Scan-d89-09-n800
 OpenBabel11261920353D

 14 14  0  0  1  0  0  0  0  0999 V2000
   -1.3084   -0.9277   -0.0148 C   0  0  2  0  0  0  0  0  0  0  0  0
   -1.3728   -1.7345   -1.0500 N   0  0  0  0  0  0  0  0  0  0  0  0
   -1.3763   -2.3524   -2.0052 N   0  0  0  0  0  0  0  0  0  0  0  0
   -2.2548    0.1885    0.0199 C   0  0  0  0  0  0  0  0  0  0  0  0
   -1.7277    1.4195    0.1504 C   0  0  0  0  0  0  0  0  0  0  0  0
   -0.2500    1.5444    0.0472 C   0  0  1  0  0  0  0  0  0  0  0  0
    0.4767    0.4606    0.7591 C   0  0  0  0  0  0  0  0  0  0  0  0
   -0.0071   -0.7893    0.6413 C   0  0  0  0  0  0  0  0  0  0  0  0
   -3.3193    0.0025   -0.0868 H   0  0  0  0  0  0  0  0  0  0  0  0
   -2.3405    2.3120    0.2186 H   0  0  0  0  0  0  0  0  0  0  0  0
    0.1341    2.5438    0.2308 H   0  0  0  0  0  0  0  0  0  0  0  0
    1.4165    0.6776    1.2552 H   0  0  0  0  0  0  0  0  0  0  0  0
    0.5285   -1.6713    0.9781 H   0  0  0  0  0  0  0  0  0  0  0  0
    0.1601    1.2770   -1.8614 Cl  0  0  0  0  0  0  0  0  0  0  0  0
  1  2  1  6  0  0  0
  1  4  1  0  0  0  0
  1  8  1  0  0  0  0
  3  2  1  0  0  0  0
  4  5  2  0  0  0  0
  5 10  1  0  0  0  0
  6  5  1  0  0  0  0
  6 11  1  1  0  0  0
  6  7  1  0  0  0  0
  7 12  1  0  0  0  0
  8  7  2  0  0  0  0
  8 13  1  0  0  0  0
  9  4  1  0  0  0  0
 14  6  1  0  0  0  0
M  RAD  3   1   2   2   2   3   3
M  END
