Coordinates from ORCA-job PhN2+~Cl-_B3LYPG-6-31G_dp-NX-Scan-d89-09-n800
 OpenBabel11261920353D

 14 14  0  0  1  0  0  0  0  0999 V2000
   -1.3048   -0.9246   -0.0229 C   0  0  2  0  0  0  0  0  0  0  0  0
   -1.3818   -1.7500   -1.0420 N   0  0  0  0  0  0  0  0  0  0  0  0
   -1.3973   -2.3876   -1.9841 N   0  0  0  0  0  0  0  0  0  0  0  0
   -2.2512    0.1901    0.0107 C   0  0  0  0  0  0  0  0  0  0  0  0
   -1.7267    1.4215    0.1495 C   0  0  0  0  0  0  0  0  0  0  0  0
   -0.2494    1.5509    0.0549 C   0  0  1  0  0  0  0  0  0  0  0  0
    0.4779    0.4624    0.7583 C   0  0  0  0  0  0  0  0  0  0  0  0
   -0.0040   -0.7875    0.6319 C   0  0  0  0  0  0  0  0  0  0  0  0
   -3.3149    0.0032   -0.1024 H   0  0  0  0  0  0  0  0  0  0  0  0
   -2.3422    2.3122    0.2167 H   0  0  0  0  0  0  0  0  0  0  0  0
    0.1314    2.5494    0.2499 H   0  0  0  0  0  0  0  0  0  0  0  0
    1.4184    0.6763    1.2543 H   0  0  0  0  0  0  0  0  0  0  0  0
    0.5333   -1.6707    0.9627 H   0  0  0  0  0  0  0  0  0  0  0  0
    0.1704    1.3052   -1.8550 Cl  0  0  0  0  0  0  0  0  0  0  0  0
  1  2  1  6  0  0  0
  1  4  1  0  0  0  0
  1  8  1  0  0  0  0
  3  2  1  0  0  0  0
  4  5  2  0  0  0  0
  5 10  1  0  0  0  0
  6  5  1  0  0  0  0
  6 11  1  1  0  0  0
  6  7  1  0  0  0  0
  7 12  1  0  0  0  0
  8  7  2  0  0  0  0
  8 13  1  0  0  0  0
  9  4  1  0  0  0  0
 14  6  1  0  0  0  0
M  RAD  3   1   2   2   2   3   3
M  END
