Coordinates from ORCA-job PhN2+~Cl-_B3LYPG-6-31G_dp-NX-Scan-d89-09-n800
 OpenBabel11261920353D

 14 13  0  0  0  0  0  0  0  0999 V2000
   -1.2838   -1.0289   -0.2609 C   0  0  0  0  0  0  0  0  0  0  0  0
   -1.7742   -2.2692   -0.4383 N   0  0  0  0  0  0  0  0  0  0  0  0
   -2.1960   -3.3180   -0.5627 N   0  0  0  0  0  0  0  0  0  0  0  0
   -2.1428    0.1020   -0.4382 C   0  0  0  0  0  0  0  0  0  0  0  0
   -1.6659    1.3491   -0.1133 C   0  0  0  0  0  0  0  0  0  0  0  0
   -0.3550    1.5274    0.4033 C   0  0  0  0  0  0  0  0  0  0  0  0
    0.5086    0.4029    0.4873 C   0  0  0  0  0  0  0  0  0  0  0  0
    0.0692   -0.8606    0.1731 C   0  0  0  0  0  0  0  0  0  0  0  0
   -3.1581   -0.0449   -0.7894 H   0  0  0  0  0  0  0  0  0  0  0  0
   -2.3091    2.2148   -0.2236 H   0  0  0  0  0  0  0  0  0  0  0  0
   -0.0753    2.4621    0.8635 H   0  0  0  0  0  0  0  0  0  0  0  0
    1.5247    0.5457    0.8369 H   0  0  0  0  0  0  0  0  0  0  0  0
    0.7099   -1.7288    0.2817 H   0  0  0  0  0  0  0  0  0  0  0  0
    0.9068    3.5969   -0.9368 Cl  0  0  0  0  0  0  0  0  0  0  0  0
  1  8  1  0  0  0  0
  2  1  1  0  0  0  0
  3  2  1  0  0  0  0
  4  1  2  0  0  0  0
  4  5  1  0  0  0  0
  5  6  2  0  0  0  0
  6  7  1  0  0  0  0
  6 11  1  0  0  0  0
  7 12  1  0  0  0  0
  8 13  1  0  0  0  0
  8  7  2  0  0  0  0
  9  4  1  0  0  0  0
 10  5  1  0  0  0  0
M  RAD  3   2   2   3   3  14   2
M  END
