Coordinates from ORCA-job PhN2+~Cl-_B3LYPG-6-31G_dp-NX-Scan-d89-09-n800
 OpenBabel11261920353D

 14 14  0  0  1  0  0  0  0  0999 V2000
   -1.2748   -1.0074   -0.2605 C   0  0  0  0  0  0  0  0  0  0  0  0
   -1.7864   -2.2271   -0.3269 N   0  0  0  0  0  0  0  0  0  0  0  0
   -2.2343   -3.2853   -0.3694 N   0  0  0  0  0  0  0  0  0  0  0  0
   -2.0986    0.1660   -0.4914 C   0  0  0  0  0  0  0  0  0  0  0  0
   -1.6209    1.4101   -0.2531 C   0  0  0  0  0  0  0  0  0  0  0  0
   -0.2655    1.6685    0.2979 C   0  0  1  0  0  0  0  0  0  0  0  0
    0.5845    0.4515    0.3550 C   0  0  0  0  0  0  0  0  0  0  0  0
    0.1106   -0.7943    0.1182 C   0  0  0  0  0  0  0  0  0  0  0  0
   -3.1181    0.0277   -0.8373 H   0  0  0  0  0  0  0  0  0  0  0  0
   -2.2667    2.2669   -0.4137 H   0  0  0  0  0  0  0  0  0  0  0  0
   -0.2946    2.2044    1.2485 H   0  0  0  0  0  0  0  0  0  0  0  0
    1.6178    0.5778    0.6597 H   0  0  0  0  0  0  0  0  0  0  0  0
    0.7582   -1.6578    0.2343 H   0  0  0  0  0  0  0  0  0  0  0  0
    0.6479    3.1497   -0.6789 Cl  0  0  0  0  0  0  0  0  0  0  0  0
  1  8  2  0  0  0  0
  2  1  1  0  0  0  0
  3  2  1  0  0  0  0
  4  1  1  0  0  0  0
  4  5  2  0  0  0  0
  5  6  1  0  0  0  0
  6  7  1  0  0  0  0
  6 11  1  1  0  0  0
  7 12  1  0  0  0  0
  8 13  1  0  0  0  0
  8  7  1  0  0  0  0
  9  4  1  0  0  0  0
 10  5  1  0  0  0  0
 14  6  1  0  0  0  0
M  RAD  3   2   2   3   3   7   2
M  END
