Coordinates from ORCA-job PhN2+~Cl-_B3LYPG-6-31G_dp-NX-Scan-d89-09-n800
 OpenBabel11261920353D

 14 14  0  0  0  0  0  0  0  0999 V2000
   -0.5785   -0.3981   -0.6883 C   0  0  0  0  0  0  0  0  0  0  0  0
   -0.3895   -1.3917   -1.7073 N   0  0  0  0  0  0  0  0  0  0  0  0
   -1.3414   -2.0727   -2.1660 N   0  0  0  0  0  0  0  0  0  0  0  0
   -1.2897    0.7858   -0.9273 C   0  0  0  0  0  0  0  0  0  0  0  0
   -1.3239    1.7770    0.0525 C   0  0  0  0  0  0  0  0  0  0  0  0
   -0.6640    1.5917    1.2695 C   0  0  0  0  0  0  0  0  0  0  0  0
    0.0530    0.4151    1.4983 C   0  0  0  0  0  0  0  0  0  0  0  0
    0.1148   -0.5716    0.5155 C   0  0  0  0  0  0  0  0  0  0  0  0
   -1.7925    0.9355   -1.8774 H   0  0  0  0  0  0  0  0  0  0  0  0
   -1.8694    2.6970   -0.1365 H   0  0  0  0  0  0  0  0  0  0  0  0
   -0.6989    2.3656    2.0307 H   0  0  0  0  0  0  0  0  0  0  0  0
    0.5777    0.2703    2.4380 H   0  0  0  0  0  0  0  0  0  0  0  0
    0.6900   -1.4795    0.6675 H   0  0  0  0  0  0  0  0  0  0  0  0
   -2.7284   -1.9736   -1.6870 Cl  0  0  0  0  0  0  0  0  0  0  0  0
  1  8  1  0  0  0  0
  2  1  1  0  0  0  0
  3  2  2  0  0  0  0
  3 14  1  0  0  0  0
  4  1  2  0  0  0  0
  4  5  1  0  0  0  0
  5  6  2  0  0  0  0
  6  7  1  0  0  0  0
  6 11  1  0  0  0  0
  7 12  1  0  0  0  0
  8 13  1  0  0  0  0
  8  7  2  0  0  0  0
  9  4  1  0  0  0  0
 10  5  1  0  0  0  0
M  END
