Coordinates from ORCA-job PhN2+~Cl-_B3LYPG-6-31G_dp-NX-Scan-d89-09-n800
 OpenBabel11261920353D

 14 14  0  0  1  0  0  0  0  0999 V2000
   -1.2799   -0.9071   -0.0859 C   0  0  2  0  0  0  0  0  0  0  0  0
   -1.4482   -1.8589   -0.9735 N   0  0  0  0  0  0  0  0  0  0  0  0
   -1.5529   -2.6314   -1.8031 N   0  0  0  0  0  0  0  0  0  0  0  0
   -2.2247    0.1994   -0.0621 C   0  0  0  0  0  0  0  0  0  0  0  0
   -1.7200    1.4321    0.1358 C   0  0  0  0  0  0  0  0  0  0  0  0
   -0.2461    1.5946    0.1117 C   0  0  1  0  0  0  0  0  0  0  0  0
    0.4872    0.4721    0.7451 C   0  0  0  0  0  0  0  0  0  0  0  0
    0.0188   -0.7765    0.5577 C   0  0  0  0  0  0  0  0  0  0  0  0
   -3.2817    0.0091   -0.2205 H   0  0  0  0  0  0  0  0  0  0  0  0
   -2.3536    2.3104    0.1920 H   0  0  0  0  0  0  0  0  0  0  0  0
    0.1043    2.5817    0.3995 H   0  0  0  0  0  0  0  0  0  0  0  0
    1.4347    0.6626    1.2369 H   0  0  0  0  0  0  0  0  0  0  0  0
    0.5695   -1.6662    0.8454 H   0  0  0  0  0  0  0  0  0  0  0  0
    0.2515    1.5287   -1.7968 Cl  0  0  0  0  0  0  0  0  0  0  0  0
  1  2  1  6  0  0  0
  1  4  1  0  0  0  0
  1  8  1  0  0  0  0
  3  2  1  0  0  0  0
  4  5  2  0  0  0  0
  5 10  1  0  0  0  0
  6  5  1  0  0  0  0
  6 11  1  1  0  0  0
  6  7  1  0  0  0  0
  7 12  1  0  0  0  0
  8  7  2  0  0  0  0
  8 13  1  0  0  0  0
  9  4  1  0  0  0  0
 14  6  1  0  0  0  0
M  RAD  3   1   2   2   2   3   3
M  END
