Coordinates from ORCA-job PhN2+~Cl-_B3LYPG-6-31G_dp-NX-Scan-d89-09-n800
 OpenBabel11261920353D

 14 14  0  0  1  0  0  0  0  0999 V2000
   -1.2548   -0.9082   -0.1780 C   0  0  2  0  0  0  0  0  0  0  0  0
   -1.5546   -2.0100   -0.8256 N   0  0  0  0  0  0  0  0  0  0  0  0
   -1.7917   -2.9448   -1.4328 N   0  0  0  0  0  0  0  0  0  0  0  0
   -2.1838    0.2026   -0.1905 C   0  0  0  0  0  0  0  0  0  0  0  0
   -1.7066    1.4343    0.0782 C   0  0  0  0  0  0  0  0  0  0  0  0
   -0.2474    1.6455    0.1963 C   0  0  1  0  0  0  0  0  0  0  0  0
    0.5064    0.4720    0.6886 C   0  0  0  0  0  0  0  0  0  0  0  0
    0.0534   -0.7705    0.4275 C   0  0  0  0  0  0  0  0  0  0  0  0
   -3.2297    0.0183   -0.4143 H   0  0  0  0  0  0  0  0  0  0  0  0
   -2.3623    2.2978    0.0964 H   0  0  0  0  0  0  0  0  0  0  0  0
    0.0309    2.5839    0.6691 H   0  0  0  0  0  0  0  0  0  0  0  0
    1.4730    0.6298    1.1537 H   0  0  0  0  0  0  0  0  0  0  0  0
    0.6303   -1.6610    0.6546 H   0  0  0  0  0  0  0  0  0  0  0  0
    0.3960    1.9611   -1.6408 Cl  0  0  0  0  0  0  0  0  0  0  0  0
  1  2  1  6  0  0  0
  1  8  1  0  0  0  0
  3  2  1  0  0  0  0
  4  1  1  0  0  0  0
  4  5  2  0  0  0  0
  5 10  1  0  0  0  0
  5  6  1  0  0  0  0
  6 11  1  1  0  0  0
  6  7  1  0  0  0  0
  7 12  1  0  0  0  0
  8 13  1  0  0  0  0
  8  7  2  0  0  0  0
  9  4  1  0  0  0  0
 14  6  1  0  0  0  0
M  RAD  3   1   2   2   2   3   3
M  END
