Coordinates from ORCA-job PhN2+~Cl-_B3LYPG-6-31G_dp-NX-Scan-d89-09-n800
 OpenBabel11261920353D

 14 13  0  0  0  0  0  0  0  0999 V2000
   -1.3564   -1.1188   -0.1443 C   0  0  0  0  0  0  0  0  0  0  0  0
   -1.8785   -2.3733   -0.2312 N   0  0  0  0  0  0  0  0  0  0  0  0
   -2.3133   -3.4183   -0.3043 N   0  0  0  0  0  0  0  0  0  0  0  0
   -2.2087    0.0007   -0.3463 C   0  0  0  0  0  0  0  0  0  0  0  0
   -1.6538    1.2661   -0.2523 C   0  0  0  0  0  0  0  0  0  0  0  0
   -0.2872    1.4504    0.0342 C   0  0  0  0  0  0  0  0  0  0  0  0
    0.5332    0.3225    0.2300 C   0  0  0  0  0  0  0  0  0  0  0  0
    0.0262   -0.9636    0.1469 C   0  0  0  0  0  0  0  0  0  0  0  0
   -3.2595   -0.1494   -0.5684 H   0  0  0  0  0  0  0  0  0  0  0  0
   -2.2849    2.1356   -0.4031 H   0  0  0  0  0  0  0  0  0  0  0  0
    0.1345    2.4634    0.1041 H   0  0  0  0  0  0  0  0  0  0  0  0
    1.5857    0.4658    0.4518 H   0  0  0  0  0  0  0  0  0  0  0  0
    0.6513   -1.8368    0.2971 H   0  0  0  0  0  0  0  0  0  0  0  0
    1.0706    4.7065    0.2682 Cl  0  0  0  0  0  0  0  0  0  0  0  0
  1  8  2  0  0  0  0
  2  1  1  0  0  0  0
  3  2  1  0  0  0  0
  4  5  2  0  0  0  0
  4  1  1  0  0  0  0
  5  6  1  0  0  0  0
  6 11  1  0  0  0  0
  6  7  2  0  0  0  0
  7 12  1  0  0  0  0
  8  7  1  0  0  0  0
  8 13  1  0  0  0  0
  9  4  1  0  0  0  0
 10  5  1  0  0  0  0
M  RAD  3   2   2   3   3  14   2
M  END
