Coordinates from ORCA-job PhN2+~Cl-_B3LYPG-6-31G_dp-NX-Scan-d89-09-n800
 OpenBabel11261920353D

 14 14  0  0  1  0  0  0  0  0999 V2000
   -1.3301   -0.9490    0.0303 C   0  0  2  0  0  0  0  0  0  0  0  0
   -1.3180   -1.6356   -1.0928 N   0  0  0  0  0  0  0  0  0  0  0  0
   -1.2451   -2.1215   -2.1179 N   0  0  0  0  0  0  0  0  0  0  0  0
   -2.2760    0.1775    0.0737 C   0  0  0  0  0  0  0  0  0  0  0  0
   -1.7336    1.4051    0.1522 C   0  0  0  0  0  0  0  0  0  0  0  0
   -0.2555    1.5022    0.0003 C   0  0  1  0  0  0  0  0  0  0  0  0
    0.4692    0.4469    0.7609 C   0  0  0  0  0  0  0  0  0  0  0  0
   -0.0259   -0.8014    0.6959 C   0  0  0  0  0  0  0  0  0  0  0  0
   -3.3450   -0.0025    0.0077 H   0  0  0  0  0  0  0  0  0  0  0  0
   -2.3301    2.3086    0.2246 H   0  0  0  0  0  0  0  0  0  0  0  0
    0.1481    2.5042    0.1168 H   0  0  0  0  0  0  0  0  0  0  0  0
    1.4055    0.6836    1.2554 H   0  0  0  0  0  0  0  0  0  0  0  0
    0.4992   -1.6744    1.0708 H   0  0  0  0  0  0  0  0  0  0  0  0
    0.0965    1.1070   -1.8957 Cl  0  0  0  0  0  0  0  0  0  0  0  0
  1  2  1  6  0  0  0
  1  4  1  0  0  0  0
  1  8  1  0  0  0  0
  3  2  1  0  0  0  0
  4  5  2  0  0  0  0
  5 10  1  0  0  0  0
  6 11  1  1  0  0  0
  6  5  1  0  0  0  0
  6  7  1  0  0  0  0
  7 12  1  0  0  0  0
  8  7  2  0  0  0  0
  8 13  1  0  0  0  0
  9  4  1  0  0  0  0
 14  6  1  0  0  0  0
M  RAD  3   1   2   2   2   3   3
M  END
