Coordinates from ORCA-job PhN2+~Cl-_B3LYPG-6-31G_dp-NX-Scan-d89-09-n800
 OpenBabel11261920353D

 14 13  0  0  0  0  0  0  0  0999 V2000
   -1.3573   -1.1210   -0.1444 C   0  0  0  0  0  0  0  0  0  0  0  0
   -1.8795   -2.3757   -0.2313 N   0  0  0  0  0  0  0  0  0  0  0  0
   -2.3144   -3.4209   -0.3045 N   0  0  0  0  0  0  0  0  0  0  0  0
   -2.2093   -0.0012   -0.3464 C   0  0  0  0  0  0  0  0  0  0  0  0
   -1.6543    1.2643   -0.2524 C   0  0  0  0  0  0  0  0  0  0  0  0
   -0.2878    1.4488    0.0340 C   0  0  0  0  0  0  0  0  0  0  0  0
    0.5324    0.3208    0.2298 C   0  0  0  0  0  0  0  0  0  0  0  0
    0.0252   -0.9654    0.1467 C   0  0  0  0  0  0  0  0  0  0  0  0
   -3.2601   -0.1509   -0.5685 H   0  0  0  0  0  0  0  0  0  0  0  0
   -2.2857    2.1337   -0.4033 H   0  0  0  0  0  0  0  0  0  0  0  0
    0.1338    2.4614    0.1039 H   0  0  0  0  0  0  0  0  0  0  0  0
    1.5849    0.4636    0.4517 H   0  0  0  0  0  0  0  0  0  0  0  0
    0.6505   -1.8384    0.2970 H   0  0  0  0  0  0  0  0  0  0  0  0
    1.0807    4.7317    0.2700 Cl  0  0  0  0  0  0  0  0  0  0  0  0
  1  8  2  0  0  0  0
  2  1  1  0  0  0  0
  3  2  1  0  0  0  0
  4  5  2  0  0  0  0
  4  1  1  0  0  0  0
  5  6  1  0  0  0  0
  6 11  1  0  0  0  0
  6  7  2  0  0  0  0
  7 12  1  0  0  0  0
  8  7  1  0  0  0  0
  8 13  1  0  0  0  0
  9  4  1  0  0  0  0
 10  5  1  0  0  0  0
M  RAD  3   2   2   3   3  14   2
M  END
