Coordinates from ORCA-job PhN2+~Cl-_B3LYPG-6-31G_dp-NX-Scan-d89-09-n800
 OpenBabel11261920353D

 14 14  0  0  0  0  0  0  0  0999 V2000
   -0.5874   -0.3857   -0.7069 C   0  0  0  0  0  0  0  0  0  0  0  0
   -0.4008   -1.3675   -1.7505 N   0  0  0  0  0  0  0  0  0  0  0  0
   -1.4108   -2.0681   -2.1067 N   0  0  0  0  0  0  0  0  0  0  0  0
   -1.2847    0.8099   -0.9341 C   0  0  0  0  0  0  0  0  0  0  0  0
   -1.3169    1.7936    0.0537 C   0  0  0  0  0  0  0  0  0  0  0  0
   -0.6628    1.5931    1.2716 C   0  0  0  0  0  0  0  0  0  0  0  0
    0.0402    0.4069    1.4925 C   0  0  0  0  0  0  0  0  0  0  0  0
    0.0901   -0.5754    0.5039 C   0  0  0  0  0  0  0  0  0  0  0  0
   -1.7787    0.9753   -1.8872 H   0  0  0  0  0  0  0  0  0  0  0  0
   -1.8536    2.7200   -0.1299 H   0  0  0  0  0  0  0  0  0  0  0  0
   -0.6918    2.3616    2.0386 H   0  0  0  0  0  0  0  0  0  0  0  0
    0.5607    0.2493    2.4328 H   0  0  0  0  0  0  0  0  0  0  0  0
    0.6522   -1.4920    0.6553 H   0  0  0  0  0  0  0  0  0  0  0  0
   -2.5967   -2.0703   -1.6510 Cl  0  0  0  0  0  0  0  0  0  0  0  0
  1  8  1  0  0  0  0
  2  1  1  0  0  0  0
  3  2  2  0  0  0  0
  3 14  1  0  0  0  0
  4  1  2  0  0  0  0
  4  5  1  0  0  0  0
  5  6  2  0  0  0  0
  6  7  1  0  0  0  0
  6 11  1  0  0  0  0
  7 12  1  0  0  0  0
  8 13  1  0  0  0  0
  8  7  2  0  0  0  0
  9  4  1  0  0  0  0
 10  5  1  0  0  0  0
M  END
