Coordinates from ORCA-job PhN2+~Cl-_B3LYPG-6-31G_dp-NX-Scan-d89-09-n800
 OpenBabel11261920353D

 14 14  0  0  1  0  0  0  0  0999 V2000
   -1.3316   -0.9505    0.0331 C   0  0  2  0  0  0  0  0  0  0  0  0
   -1.3144   -1.6289   -1.0951 N   0  0  0  0  0  0  0  0  0  0  0  0
   -1.2362   -2.1052   -2.1244 N   0  0  0  0  0  0  0  0  0  0  0  0
   -2.2773    0.1767    0.0771 C   0  0  0  0  0  0  0  0  0  0  0  0
   -1.7340    1.4041    0.1521 C   0  0  0  0  0  0  0  0  0  0  0  0
   -0.2559    1.4992   -0.0028 C   0  0  1  0  0  0  0  0  0  0  0  0
    0.4687    0.4458    0.7609 C   0  0  0  0  0  0  0  0  0  0  0  0
   -0.0272   -0.8022    0.6994 C   0  0  0  0  0  0  0  0  0  0  0  0
   -3.3466   -0.0028    0.0138 H   0  0  0  0  0  0  0  0  0  0  0  0
   -2.3294    2.3082    0.2246 H   0  0  0  0  0  0  0  0  0  0  0  0
    0.1488    2.5013    0.1095 H   0  0  0  0  0  0  0  0  0  0  0  0
    1.4048    0.6838    1.2550 H   0  0  0  0  0  0  0  0  0  0  0  0
    0.4972   -1.6746    1.0768 H   0  0  0  0  0  0  0  0  0  0  0  0
    0.0922    1.0959   -1.8977 Cl  0  0  0  0  0  0  0  0  0  0  0  0
  1  2  1  6  0  0  0
  1  4  1  0  0  0  0
  1  8  1  0  0  0  0
  3  2  1  0  0  0  0
  4  5  2  0  0  0  0
  5 10  1  0  0  0  0
  6 11  1  1  0  0  0
  6  5  1  0  0  0  0
  6  7  1  0  0  0  0
  7 12  1  0  0  0  0
  8  7  2  0  0  0  0
  8 13  1  0  0  0  0
  9  4  1  0  0  0  0
 14  6  1  0  0  0  0
M  RAD  3   1   2   2   2   3   3
M  END
