Coordinates from ORCA-job PhN2+~Cl-_B3LYPG-6-31G_dp-NX-Scan-d89-09-n800
 OpenBabel11261920353D

 14 14  0  0  0  0  0  0  0  0999 V2000
   -0.6937   -0.5447   -0.4335 C   0  0  0  0  0  0  0  0  0  0  0  0
   -0.6863   -1.7177   -1.2133 N   0  0  0  0  0  0  0  0  0  0  0  0
   -1.1988   -2.2263   -2.1420 N   0  0  0  0  0  0  0  0  0  0  0  0
   -1.5199    0.5601   -0.6965 C   0  0  0  0  0  0  0  0  0  0  0  0
   -1.4298    1.6638    0.1484 C   0  0  0  0  0  0  0  0  0  0  0  0
   -0.5416    1.6684    1.2277 C   0  0  0  0  0  0  0  0  0  0  0  0
    0.2750    0.5615    1.4777 C   0  0  0  0  0  0  0  0  0  0  0  0
    0.2030   -0.5502    0.6458 C   0  0  0  0  0  0  0  0  0  0  0  0
   -2.2004    0.5367   -1.5373 H   0  0  0  0  0  0  0  0  0  0  0  0
   -2.0599    2.5276   -0.0399 H   0  0  0  0  0  0  0  0  0  0  0  0
   -0.4850    2.5384    1.8755 H   0  0  0  0  0  0  0  0  0  0  0  0
    0.9639    0.5666    2.3163 H   0  0  0  0  0  0  0  0  0  0  0  0
    0.8233   -1.4247    0.8100 H   0  0  0  0  0  0  0  0  0  0  0  0
   -2.6908   -1.2087   -3.1565 Cl  0  0  0  0  0  0  0  0  0  0  0  0
  1  8  1  0  0  0  0
  2  1  1  0  0  0  0
  3  2  2  0  0  0  0
  4  1  2  0  0  0  0
  4  5  1  0  0  0  0
  5  6  2  0  0  0  0
  6  7  1  0  0  0  0
  6 11  1  0  0  0  0
  7 12  1  0  0  0  0
  8 13  1  0  0  0  0
  8  7  2  0  0  0  0
  9  4  1  0  0  0  0
 10  5  1  0  0  0  0
 14  3  1  0  0  0  0
M  END
