Coordinates from ORCA-job PhN2+~Cl-_B3LYPG-6-31G_dp-NX-Scan-d89-09-n800
 OpenBabel11261920353D

 14 13  0  0  0  0  0  0  0  0999 V2000
   -1.3030   -1.0546   -0.2319 C   0  0  0  0  0  0  0  0  0  0  0  0
   -1.7946   -2.2991   -0.4116 N   0  0  0  0  0  0  0  0  0  0  0  0
   -2.2137   -3.3456   -0.5423 N   0  0  0  0  0  0  0  0  0  0  0  0
   -2.1617    0.0692   -0.4216 C   0  0  0  0  0  0  0  0  0  0  0  0
   -1.6690    1.3229   -0.1315 C   0  0  0  0  0  0  0  0  0  0  0  0
   -0.3567    1.4986    0.3649 C   0  0  0  0  0  0  0  0  0  0  0  0
    0.5004    0.3787    0.4682 C   0  0  0  0  0  0  0  0  0  0  0  0
    0.0504   -0.8936    0.1900 C   0  0  0  0  0  0  0  0  0  0  0  0
   -3.1807   -0.0813   -0.7600 H   0  0  0  0  0  0  0  0  0  0  0  0
   -2.3039    2.1923   -0.2614 H   0  0  0  0  0  0  0  0  0  0  0  0
   -0.0158    2.4805    0.6778 H   0  0  0  0  0  0  0  0  0  0  0  0
    1.5228    0.5258    0.7981 H   0  0  0  0  0  0  0  0  0  0  0  0
    0.6852   -1.7645    0.3107 H   0  0  0  0  0  0  0  0  0  0  0  0
    0.9994    3.9214   -0.7672 Cl  0  0  0  0  0  0  0  0  0  0  0  0
  1  8  1  0  0  0  0
  2  1  1  0  0  0  0
  3  2  1  0  0  0  0
  4  1  2  0  0  0  0
  4  5  1  0  0  0  0
  5  6  2  0  0  0  0
  6  7  1  0  0  0  0
  6 11  1  0  0  0  0
  7 12  1  0  0  0  0
  8 13  1  0  0  0  0
  8  7  2  0  0  0  0
  9  4  1  0  0  0  0
 10  5  1  0  0  0  0
M  RAD  3   2   2   3   3  14   2
M  END
