Coordinates from ORCA-job PhN2+~Cl-_B3LYPG-6-31G_dp-NX-Scan-d89-09-n800
 OpenBabel11261920353D

 14 13  0  0  0  0  0  0  0  0999 V2000
   -0.6775   -0.5544   -0.4052 C   0  0  0  0  0  0  0  0  0  0  0  0
   -0.7001   -1.7162   -1.1980 N   0  0  0  0  0  0  0  0  0  0  0  0
   -1.1733   -2.2479   -2.1123 N   0  0  0  0  0  0  0  0  0  0  0  0
   -1.5164    0.5333   -0.6884 C   0  0  0  0  0  0  0  0  0  0  0  0
   -1.4330    1.6470    0.1438 C   0  0  0  0  0  0  0  0  0  0  0  0
   -0.5408    1.6681    1.2203 C   0  0  0  0  0  0  0  0  0  0  0  0
    0.2859    0.5709    1.4843 C   0  0  0  0  0  0  0  0  0  0  0  0
    0.2229   -0.5534    0.6688 C   0  0  0  0  0  0  0  0  0  0  0  0
   -2.1936    0.4761   -1.5344 H   0  0  0  0  0  0  0  0  0  0  0  0
   -2.0696    2.5041   -0.0518 H   0  0  0  0  0  0  0  0  0  0  0  0
   -0.4887    2.5457    1.8581 H   0  0  0  0  0  0  0  0  0  0  0  0
    0.9753    0.5934    2.3219 H   0  0  0  0  0  0  0  0  0  0  0  0
    0.8490   -1.4217    0.8436 H   0  0  0  0  0  0  0  0  0  0  0  0
   -2.7810   -1.0943   -3.2684 Cl  0  0  0  0  0  0  0  0  0  0  0  0
  1  8  1  0  0  0  0
  2  1  1  0  0  0  0
  3  2  2  0  0  0  0
  4  1  2  0  0  0  0
  4  5  1  0  0  0  0
  5  6  2  0  0  0  0
  6  7  1  0  0  0  0
  6 11  1  0  0  0  0
  7 12  1  0  0  0  0
  8 13  1  0  0  0  0
  8  7  2  0  0  0  0
  9  4  1  0  0  0  0
 10  5  1  0  0  0  0
M  RAD  2   3   2  14   2
M  END
