Coordinates from ORCA-job PhN2+~Cl-_B3LYPG-6-31G_dp-NX-Scan-d89-09-n800
 OpenBabel11261920353D

 14 14  0  0  0  0  0  0  0  0999 V2000
   -0.5903   -0.4636   -0.5774 C   0  0  0  0  0  0  0  0  0  0  0  0
   -0.4541   -1.5468   -1.4797 N   0  0  0  0  0  0  0  0  0  0  0  0
   -1.1941   -2.1221   -2.2273 N   0  0  0  0  0  0  0  0  0  0  0  0
   -1.3594    0.6776   -0.8475 C   0  0  0  0  0  0  0  0  0  0  0  0
   -1.3613    1.7171    0.0804 C   0  0  0  0  0  0  0  0  0  0  0  0
   -0.6247    1.6177    1.2635 C   0  0  0  0  0  0  0  0  0  0  0  0
    0.1481    0.4812    1.5167 C   0  0  0  0  0  0  0  0  0  0  0  0
    0.1885   -0.5514    0.5847 C   0  0  0  0  0  0  0  0  0  0  0  0
   -1.9277    0.7509   -1.7646 H   0  0  0  0  0  0  0  0  0  0  0  0
   -1.9466    2.6087   -0.1222 H   0  0  0  0  0  0  0  0  0  0  0  0
   -0.6440    2.4315    1.9825 H   0  0  0  0  0  0  0  0  0  0  0  0
    0.7305    0.4074    2.4296 H   0  0  0  0  0  0  0  0  0  0  0  0
    0.8010   -1.4330    0.7416 H   0  0  0  0  0  0  0  0  0  0  0  0
   -3.0069   -1.6244   -2.2979 Cl  0  0  0  0  0  0  0  0  0  0  0  0
  1  8  1  0  0  0  0
  2  1  1  0  0  0  0
  3  2  2  0  0  0  0
  4  1  2  0  0  0  0
  4  5  1  0  0  0  0
  5  6  2  0  0  0  0
  6  7  1  0  0  0  0
  6 11  1  0  0  0  0
  7 12  1  0  0  0  0
  8 13  1  0  0  0  0
  8  7  2  0  0  0  0
  9  4  1  0  0  0  0
 10  5  1  0  0  0  0
 14  3  1  0  0  0  0
M  END
