Coordinates from ORCA-job PhN2+~Cl-_B3LYPG-6-31G_dp-NX-Scan-d89-09-n800
 OpenBabel11261920353D

 14 14  0  0  1  0  0  0  0  0999 V2000
   -1.2501   -0.9327   -0.2323 C   0  0  0  0  0  0  0  0  0  0  0  0
   -1.6392   -2.1079   -0.6731 N   0  0  0  0  0  0  0  0  0  0  0  0
   -1.9686   -3.1234   -1.0766 N   0  0  0  0  0  0  0  0  0  0  0  0
   -2.1528    0.1949   -0.3010 C   0  0  0  0  0  0  0  0  0  0  0  0
   -1.6887    1.4266   -0.0073 C   0  0  0  0  0  0  0  0  0  0  0  0
   -0.2533    1.6668    0.2514 C   0  0  1  0  0  0  0  0  0  0  0  0
    0.5284    0.4626    0.6043 C   0  0  0  0  0  0  0  0  0  0  0  0
    0.0789   -0.7757    0.3153 C   0  0  0  0  0  0  0  0  0  0  0  0
   -3.1896    0.0234   -0.5718 H   0  0  0  0  0  0  0  0  0  0  0  0
   -2.3513    2.2848   -0.0378 H   0  0  0  0  0  0  0  0  0  0  0  0
   -0.0616    2.5191    0.9003 H   0  0  0  0  0  0  0  0  0  0  0  0
    1.5162    0.6028    1.0292 H   0  0  0  0  0  0  0  0  0  0  0  0
    0.6798   -1.6601    0.4998 H   0  0  0  0  0  0  0  0  0  0  0  0
    0.5111    2.3696   -1.4182 Cl  0  0  0  0  0  0  0  0  0  0  0  0
  1  8  2  0  0  0  0
  2  1  1  0  0  0  0
  3  2  1  0  0  0  0
  4  1  1  0  0  0  0
  4  5  2  0  0  0  0
  5  6  1  0  0  0  0
  6  7  1  0  0  0  0
  6 11  1  1  0  0  0
  7 12  1  0  0  0  0
  8 13  1  0  0  0  0
  8  7  1  0  0  0  0
  9  4  1  0  0  0  0
 10  5  1  0  0  0  0
 14  6  1  0  0  0  0
M  RAD  3   2   2   3   3   7   2
M  END
