Coordinates from ORCA-job PhN2+~Cl-_B3LYPG-6-31G_dp-NX-Scan-d89-09-n800
 OpenBabel11261920353D

 14 13  0  0  0  0  0  0  0  0999 V2000
   -1.3243   -1.0837   -0.2002 C   0  0  0  0  0  0  0  0  0  0  0  0
   -1.8272   -2.3328   -0.3488 N   0  0  0  0  0  0  0  0  0  0  0  0
   -2.2524   -3.3781   -0.4570 N   0  0  0  0  0  0  0  0  0  0  0  0
   -2.1762    0.0369   -0.4160 C   0  0  0  0  0  0  0  0  0  0  0  0
   -1.6601    1.2975   -0.1889 C   0  0  0  0  0  0  0  0  0  0  0  0
   -0.3376    1.4775    0.2687 C   0  0  0  0  0  0  0  0  0  0  0  0
    0.5041    0.3540    0.4110 C   0  0  0  0  0  0  0  0  0  0  0  0
    0.0341   -0.9267    0.1968 C   0  0  0  0  0  0  0  0  0  0  0  0
   -3.2032   -0.1157   -0.7288 H   0  0  0  0  0  0  0  0  0  0  0  0
   -2.2874    2.1689   -0.3437 H   0  0  0  0  0  0  0  0  0  0  0  0
    0.0436    2.4837    0.4725 H   0  0  0  0  0  0  0  0  0  0  0  0
    1.5342    0.5017    0.7173 H   0  0  0  0  0  0  0  0  0  0  0  0
    0.6596   -1.8002    0.3443 H   0  0  0  0  0  0  0  0  0  0  0  0
    1.0519    4.2678   -0.4448 Cl  0  0  0  0  0  0  0  0  0  0  0  0
  1  8  1  0  0  0  0
  2  1  1  0  0  0  0
  3  2  1  0  0  0  0
  4  1  2  0  0  0  0
  4  5  1  0  0  0  0
  5  6  2  0  0  0  0
  6  7  1  0  0  0  0
  6 11  1  0  0  0  0
  7 12  1  0  0  0  0
  8 13  1  0  0  0  0
  8  7  2  0  0  0  0
  9  4  1  0  0  0  0
 10  5  1  0  0  0  0
M  RAD  3   2   2   3   3  14   2
M  END
