Coordinates from ORCA-job PhN2+~Cl-_B3LYPG-6-31G_dp-NX-Scan-d89-09-n800
 OpenBabel11261920353D

 14 13  0  0  0  0  0  0  0  0999 V2000
   -1.3505   -1.1049   -0.1434 C   0  0  0  0  0  0  0  0  0  0  0  0
   -1.8709   -2.3566   -0.2302 N   0  0  0  0  0  0  0  0  0  0  0  0
   -2.3048   -3.4004   -0.3031 N   0  0  0  0  0  0  0  0  0  0  0  0
   -2.2063    0.0120   -0.3461 C   0  0  0  0  0  0  0  0  0  0  0  0
   -1.6520    1.2758   -0.2519 C   0  0  0  0  0  0  0  0  0  0  0  0
   -0.2851    1.4583    0.0349 C   0  0  0  0  0  0  0  0  0  0  0  0
    0.5378    0.3320    0.2311 C   0  0  0  0  0  0  0  0  0  0  0  0
    0.0325   -0.9530    0.1480 C   0  0  0  0  0  0  0  0  0  0  0  0
   -3.2567   -0.1419   -0.5681 H   0  0  0  0  0  0  0  0  0  0  0  0
   -2.2808    2.1473   -0.4021 H   0  0  0  0  0  0  0  0  0  0  0  0
    0.1375    2.4737    0.1052 H   0  0  0  0  0  0  0  0  0  0  0  0
    1.5899    0.4793    0.4528 H   0  0  0  0  0  0  0  0  0  0  0  0
    0.6554   -1.8280    0.2977 H   0  0  0  0  0  0  0  0  0  0  0  0
    1.0133    4.5570    0.2575 Cl  0  0  0  0  0  0  0  0  0  0  0  0
  1  8  2  0  0  0  0
  2  1  1  0  0  0  0
  3  2  1  0  0  0  0
  4  5  2  0  0  0  0
  4  1  1  0  0  0  0
  5  6  1  0  0  0  0
  6 11  1  0  0  0  0
  6  7  2  0  0  0  0
  7 12  1  0  0  0  0
  8  7  1  0  0  0  0
  8 13  1  0  0  0  0
  9  4  1  0  0  0  0
 10  5  1  0  0  0  0
M  RAD  3   2   2   3   3  14   2
M  END
