Coordinates from ORCA-job PhN2+~Cl-_B3LYPG-6-31G_dp-NX-Scan-d89-09-n800
 OpenBabel11261920353D

 14 13  0  0  0  0  0  0  0  0999 V2000
   -1.3271   -1.0874   -0.1954 C   0  0  0  0  0  0  0  0  0  0  0  0
   -1.8315   -2.3373   -0.3387 N   0  0  0  0  0  0  0  0  0  0  0  0
   -2.2586   -3.3823   -0.4408 N   0  0  0  0  0  0  0  0  0  0  0  0
   -2.1783    0.0325   -0.4156 C   0  0  0  0  0  0  0  0  0  0  0  0
   -1.6589    1.2941   -0.1991 C   0  0  0  0  0  0  0  0  0  0  0  0
   -0.3343    1.4749    0.2508 C   0  0  0  0  0  0  0  0  0  0  0  0
    0.5051    0.3512    0.4006 C   0  0  0  0  0  0  0  0  0  0  0  0
    0.0322   -0.9307    0.1972 C   0  0  0  0  0  0  0  0  0  0  0  0
   -3.2065   -0.1206   -0.7239 H   0  0  0  0  0  0  0  0  0  0  0  0
   -2.2855    2.1654   -0.3574 H   0  0  0  0  0  0  0  0  0  0  0  0
    0.0516    2.4833    0.4415 H   0  0  0  0  0  0  0  0  0  0  0  0
    1.5363    0.4993    0.7034 H   0  0  0  0  0  0  0  0  0  0  0  0
    0.6565   -1.8043    0.3492 H   0  0  0  0  0  0  0  0  0  0  0  0
    1.0583    4.3125   -0.3895 Cl  0  0  0  0  0  0  0  0  0  0  0  0
  1  8  2  0  0  0  0
  2  1  1  0  0  0  0
  3  2  1  0  0  0  0
  4  5  2  0  0  0  0
  4  1  1  0  0  0  0
  5  6  1  0  0  0  0
  6  7  2  0  0  0  0
  6 11  1  0  0  0  0
  7 12  1  0  0  0  0
  8 13  1  0  0  0  0
  8  7  1  0  0  0  0
  9  4  1  0  0  0  0
 10  5  1  0  0  0  0
M  RAD  3   2   2   3   3  14   2
M  END
