Coordinates from ORCA-job PhN2+~Cl-_B3LYPG-6-31G_dp-NX-Scan-d89-09-n800
 OpenBabel11261920353D

 14 13  0  0  0  0  0  0  0  0999 V2000
   -1.2731   -1.0179   -0.2826 C   0  0  0  0  0  0  0  0  0  0  0  0
   -1.7727   -2.2543   -0.4200 N   0  0  0  0  0  0  0  0  0  0  0  0
   -2.2052   -3.3061   -0.5093 N   0  0  0  0  0  0  0  0  0  0  0  0
   -2.1237    0.1258   -0.4648 C   0  0  0  0  0  0  0  0  0  0  0  0
   -1.6526    1.3699   -0.1407 C   0  0  0  0  0  0  0  0  0  0  0  0
   -0.3333    1.5649    0.3828 C   0  0  0  0  0  0  0  0  0  0  0  0
    0.5269    0.4218    0.4609 C   0  0  0  0  0  0  0  0  0  0  0  0
    0.0860   -0.8356    0.1456 C   0  0  0  0  0  0  0  0  0  0  0  0
   -3.1410   -0.0168   -0.8127 H   0  0  0  0  0  0  0  0  0  0  0  0
   -2.3040    2.2304   -0.2437 H   0  0  0  0  0  0  0  0  0  0  0  0
   -0.1392    2.4141    1.0179 H   0  0  0  0  0  0  0  0  0  0  0  0
    1.5409    0.5568    0.8194 H   0  0  0  0  0  0  0  0  0  0  0  0
    0.7297   -1.7014    0.2585 H   0  0  0  0  0  0  0  0  0  0  0  0
    0.8205    3.3990   -0.9291 Cl  0  0  0  0  0  0  0  0  0  0  0  0
  1  8  1  0  0  0  0
  2  1  1  0  0  0  0
  3  2  1  0  0  0  0
  4  1  2  0  0  0  0
  4  5  1  0  0  0  0
  5  6  2  0  0  0  0
  6  7  1  0  0  0  0
  6 11  1  0  0  0  0
  7 12  1  0  0  0  0
  8 13  1  0  0  0  0
  8  7  2  0  0  0  0
  9  4  1  0  0  0  0
 10  5  1  0  0  0  0
M  RAD  3   2   2   3   3  14   2
M  END
