Coordinates from ORCA-job PhN2+~Cl-_B3LYPG-6-31G_dp-NX-Scan-d89-09-n800
 OpenBabel11261920353D

 14 13  0  0  0  0  0  0  0  0999 V2000
   -1.3048   -1.0567   -0.2286 C   0  0  0  0  0  0  0  0  0  0  0  0
   -1.7966   -2.3014   -0.4086 N   0  0  0  0  0  0  0  0  0  0  0  0
   -2.2154   -3.3478   -0.5403 N   0  0  0  0  0  0  0  0  0  0  0  0
   -2.1635    0.0664   -0.4198 C   0  0  0  0  0  0  0  0  0  0  0  0
   -1.6689    1.3207   -0.1341 C   0  0  0  0  0  0  0  0  0  0  0  0
   -0.3559    1.4962    0.3594 C   0  0  0  0  0  0  0  0  0  0  0  0
    0.5002    0.3763    0.4657 C   0  0  0  0  0  0  0  0  0  0  0  0
    0.0488   -0.8967    0.1921 C   0  0  0  0  0  0  0  0  0  0  0  0
   -3.1830   -0.0845   -0.7565 H   0  0  0  0  0  0  0  0  0  0  0  0
   -2.3027    2.1907   -0.2662 H   0  0  0  0  0  0  0  0  0  0  0  0
   -0.0091    2.4819    0.6567 H   0  0  0  0  0  0  0  0  0  0  0  0
    1.5233    0.5239    0.7936 H   0  0  0  0  0  0  0  0  0  0  0  0
    0.6825   -1.7681    0.3146 H   0  0  0  0  0  0  0  0  0  0  0  0
    1.0040    3.9499   -0.7457 Cl  0  0  0  0  0  0  0  0  0  0  0  0
  1  8  1  0  0  0  0
  2  1  1  0  0  0  0
  3  2  1  0  0  0  0
  4  1  2  0  0  0  0
  4  5  1  0  0  0  0
  5  6  2  0  0  0  0
  6  7  1  0  0  0  0
  6 11  1  0  0  0  0
  7 12  1  0  0  0  0
  8 13  1  0  0  0  0
  8  7  2  0  0  0  0
  9  4  1  0  0  0  0
 10  5  1  0  0  0  0
M  RAD  3   2   2   3   3  14   2
M  END
