Coordinates from ORCA-job PhN2+~Cl-_B3LYPG-6-31G_dp-NX-Scan-d89-09-n800
 OpenBabel11261920353D

 14 13  0  0  0  0  0  0  0  0999 V2000
   -1.3250   -1.0843   -0.1986 C   0  0  0  0  0  0  0  0  0  0  0  0
   -1.8281   -2.3335   -0.3465 N   0  0  0  0  0  0  0  0  0  0  0  0
   -2.2535   -3.3787   -0.4538 N   0  0  0  0  0  0  0  0  0  0  0  0
   -2.1770    0.0359   -0.4155 C   0  0  0  0  0  0  0  0  0  0  0  0
   -1.6599    1.2968   -0.1914 C   0  0  0  0  0  0  0  0  0  0  0  0
   -0.3367    1.4766    0.2638 C   0  0  0  0  0  0  0  0  0  0  0  0
    0.5045    0.3533    0.4085 C   0  0  0  0  0  0  0  0  0  0  0  0
    0.0337   -0.9278    0.1974 C   0  0  0  0  0  0  0  0  0  0  0  0
   -3.2043   -0.1171   -0.7269 H   0  0  0  0  0  0  0  0  0  0  0  0
   -2.2867    2.1683   -0.3472 H   0  0  0  0  0  0  0  0  0  0  0  0
    0.0465    2.4838    0.4617 H   0  0  0  0  0  0  0  0  0  0  0  0
    1.5349    0.5014    0.7137 H   0  0  0  0  0  0  0  0  0  0  0  0
    0.6586   -1.8014    0.3462 H   0  0  0  0  0  0  0  0  0  0  0  0
    1.0523    4.2774   -0.4291 Cl  0  0  0  0  0  0  0  0  0  0  0  0
  1  8  1  0  0  0  0
  2  1  1  0  0  0  0
  3  2  1  0  0  0  0
  4  1  2  0  0  0  0
  4  5  1  0  0  0  0
  5  6  2  0  0  0  0
  6  7  1  0  0  0  0
  6 11  1  0  0  0  0
  7 12  1  0  0  0  0
  8 13  1  0  0  0  0
  8  7  2  0  0  0  0
  9  4  1  0  0  0  0
 10  5  1  0  0  0  0
M  RAD  3   2   2   3   3  14   2
M  END
