Coordinates from ORCA-job PhN2+~Cl-_B3LYPG-6-31G_dp-NX-Scan-d89-09-n800
 OpenBabel11261920353D

 14 14  0  0  1  0  0  0  0  0999 V2000
   -1.3472   -0.9678    0.0623 C   0  0  2  0  0  0  0  0  0  0  0  0
   -1.2758   -1.5544   -1.1172 N   0  0  0  0  0  0  0  0  0  0  0  0
   -1.1319   -1.9056   -2.1881 N   0  0  0  0  0  0  0  0  0  0  0  0
   -2.2925    0.1667    0.1145 C   0  0  0  0  0  0  0  0  0  0  0  0
   -1.7383    1.3907    0.1508 C   0  0  0  0  0  0  0  0  0  0  0  0
   -0.2617    1.4651   -0.0358 C   0  0  1  0  0  0  0  0  0  0  0  0
    0.4624    0.4333    0.7594 C   0  0  0  0  0  0  0  0  0  0  0  0
   -0.0416   -0.8125    0.7372 C   0  0  0  0  0  0  0  0  0  0  0  0
   -3.3641   -0.0068    0.0803 H   0  0  0  0  0  0  0  0  0  0  0  0
   -2.3220    2.3029    0.2226 H   0  0  0  0  0  0  0  0  0  0  0  0
    0.1565    2.4661    0.0262 H   0  0  0  0  0  0  0  0  0  0  0  0
    1.3977    0.6848    1.2489 H   0  0  0  0  0  0  0  0  0  0  0  0
    0.4758   -1.6768    1.1418 H   0  0  0  0  0  0  0  0  0  0  0  0
    0.0419    0.9649   -1.9202 Cl  0  0  0  0  0  0  0  0  0  0  0  0
  1  2  1  6  0  0  0
  1  4  1  0  0  0  0
  1  8  1  0  0  0  0
  3  2  1  0  0  0  0
  4  5  2  0  0  0  0
  5 10  1  0  0  0  0
  6 11  1  1  0  0  0
  6  5  1  0  0  0  0
  6  7  1  0  0  0  0
  7 12  1  0  0  0  0
  8  7  2  0  0  0  0
  8 13  1  0  0  0  0
  9  4  1  0  0  0  0
 14  6  1  0  0  0  0
M  RAD  3   1   2   2   2   3   3
M  END
