Coordinates from ORCA-job PhN2+~Cl-_B3LYPG-6-31G_dp-NX-Scan-d89-09-n800
 OpenBabel11261920353D

 14 14  0  0  1  0  0  0  0  0999 V2000
   -1.3508   -0.9719    0.0692 C   0  0  2  0  0  0  0  0  0  0  0  0
   -1.2673   -1.5371   -1.1209 N   0  0  0  0  0  0  0  0  0  0  0  0
   -1.1042   -1.8496   -2.2008 N   0  0  0  0  0  0  0  0  0  0  0  0
   -2.2961    0.1641    0.1234 C   0  0  0  0  0  0  0  0  0  0  0  0
   -1.7393    1.3873    0.1508 C   0  0  0  0  0  0  0  0  0  0  0  0
   -0.2635    1.4566   -0.0428 C   0  0  1  0  0  0  0  0  0  0  0  0
    0.4606    0.4304    0.7592 C   0  0  0  0  0  0  0  0  0  0  0  0
   -0.0453   -0.8151    0.7460 C   0  0  0  0  0  0  0  0  0  0  0  0
   -3.3681   -0.0078    0.0948 H   0  0  0  0  0  0  0  0  0  0  0  0
   -2.3203    2.3013    0.2215 H   0  0  0  0  0  0  0  0  0  0  0  0
    0.1583    2.4568    0.0052 H   0  0  0  0  0  0  0  0  0  0  0  0
    1.3961    0.6846    1.2469 H   0  0  0  0  0  0  0  0  0  0  0  0
    0.4711   -1.6775    1.1560 H   0  0  0  0  0  0  0  0  0  0  0  0
    0.0279    0.9286   -1.9262 Cl  0  0  0  0  0  0  0  0  0  0  0  0
  1  2  1  6  0  0  0
  1  4  1  0  0  0  0
  1  8  1  0  0  0  0
  3  2  1  0  0  0  0
  4  5  2  0  0  0  0
  5 10  1  0  0  0  0
  6 11  1  1  0  0  0
  6  5  1  0  0  0  0
  6  7  1  0  0  0  0
  7 12  1  0  0  0  0
  8  7  2  0  0  0  0
  8 13  1  0  0  0  0
  9  4  1  0  0  0  0
 14  6  1  0  0  0  0
M  RAD  3   1   2   2   2   3   3
M  END
