Coordinates from ORCA-job PhN2+~Cl-_B3LYPG-6-31G_dp-NX-Scan-d89-09-n800
 OpenBabel11261920353D

 14 14  0  0  0  0  0  0  0  0999 V2000
   -0.5751   -0.4280   -0.6418 C   0  0  0  0  0  0  0  0  0  0  0  0
   -0.3991   -1.4602   -1.6082 N   0  0  0  0  0  0  0  0  0  0  0  0
   -1.2623   -2.0836   -2.2179 N   0  0  0  0  0  0  0  0  0  0  0  0
   -1.3129    0.7355   -0.8986 C   0  0  0  0  0  0  0  0  0  0  0  0
   -1.3396    1.7473    0.0596 C   0  0  0  0  0  0  0  0  0  0  0  0
   -0.6533    1.5989    1.2673 C   0  0  0  0  0  0  0  0  0  0  0  0
    0.0909    0.4417    1.5097 C   0  0  0  0  0  0  0  0  0  0  0  0
    0.1548   -0.5619    0.5459 C   0  0  0  0  0  0  0  0  0  0  0  0
   -1.8392    0.8533   -1.8383 H   0  0  0  0  0  0  0  0  0  0  0  0
   -1.9027    2.6542   -0.1384 H   0  0  0  0  0  0  0  0  0  0  0  0
   -0.6881    2.3890    2.0116 H   0  0  0  0  0  0  0  0  0  0  0  0
    0.6363    0.3281    2.4414 H   0  0  0  0  0  0  0  0  0  0  0  0
    0.7514   -1.4551    0.7000 H   0  0  0  0  0  0  0  0  0  0  0  0
   -2.9021   -1.8086   -1.9100 Cl  0  0  0  0  0  0  0  0  0  0  0  0
  1  8  1  0  0  0  0
  2  1  1  0  0  0  0
  3 14  1  0  0  0  0
  3  2  2  0  0  0  0
  4  1  2  0  0  0  0
  4  5  1  0  0  0  0
  5  6  2  0  0  0  0
  6  7  1  0  0  0  0
  6 11  1  0  0  0  0
  7 12  1  0  0  0  0
  8 13  1  0  0  0  0
  8  7  2  0  0  0  0
  9  4  1  0  0  0  0
 10  5  1  0  0  0  0
M  END
