Coordinates from ORCA-job PhN2+~Cl-_B3LYPG-6-31G_dp-NX-Scan-d89-09-n800
 OpenBabel11261920353D

 14 14  0  0  1  0  0  0  0  0999 V2000
   -1.3325   -0.9515    0.0349 C   0  0  2  0  0  0  0  0  0  0  0  0
   -1.3120   -1.6245   -1.0967 N   0  0  0  0  0  0  0  0  0  0  0  0
   -1.2303   -2.0943   -2.1286 N   0  0  0  0  0  0  0  0  0  0  0  0
   -2.2783    0.1761    0.0794 C   0  0  0  0  0  0  0  0  0  0  0  0
   -1.7342    1.4033    0.1521 C   0  0  0  0  0  0  0  0  0  0  0  0
   -0.2562    1.4973   -0.0048 C   0  0  1  0  0  0  0  0  0  0  0  0
    0.4683    0.4451    0.7608 C   0  0  0  0  0  0  0  0  0  0  0  0
   -0.0280   -0.8028    0.7017 C   0  0  0  0  0  0  0  0  0  0  0  0
   -3.3477   -0.0030    0.0178 H   0  0  0  0  0  0  0  0  0  0  0  0
   -2.3290    2.3080    0.2246 H   0  0  0  0  0  0  0  0  0  0  0  0
    0.1493    2.4993    0.1046 H   0  0  0  0  0  0  0  0  0  0  0  0
    1.4044    0.6839    1.2548 H   0  0  0  0  0  0  0  0  0  0  0  0
    0.4959   -1.6747    1.0807 H   0  0  0  0  0  0  0  0  0  0  0  0
    0.0894    1.0885   -1.8991 Cl  0  0  0  0  0  0  0  0  0  0  0  0
  1  2  1  6  0  0  0
  1  4  1  0  0  0  0
  1  8  1  0  0  0  0
  3  2  1  0  0  0  0
  4  5  2  0  0  0  0
  5 10  1  0  0  0  0
  6 11  1  1  0  0  0
  6  5  1  0  0  0  0
  6  7  1  0  0  0  0
  7 12  1  0  0  0  0
  8  7  2  0  0  0  0
  8 13  1  0  0  0  0
  9  4  1  0  0  0  0
 14  6  1  0  0  0  0
M  RAD  3   1   2   2   2   3   3
M  END
