Coordinates from ORCA-job PhN2+~Cl-_B3LYPG-6-31G_dp-NX-Scan-d89-09-n800
 OpenBabel11261920353D

 14 14  0  0  0  0  0  0  0  0999 V2000
   -0.5755   -0.4191   -0.6572 C   0  0  0  0  0  0  0  0  0  0  0  0
   -0.3922   -1.4381   -1.6407 N   0  0  0  0  0  0  0  0  0  0  0  0
   -1.2880   -2.0774   -2.2061 N   0  0  0  0  0  0  0  0  0  0  0  0
   -1.3048    0.7510   -0.9086 C   0  0  0  0  0  0  0  0  0  0  0  0
   -1.3345    1.7563    0.0565 C   0  0  0  0  0  0  0  0  0  0  0  0
   -0.6577    1.5960    1.2678 C   0  0  0  0  0  0  0  0  0  0  0  0
    0.0777    0.4325    1.5063 C   0  0  0  0  0  0  0  0  0  0  0  0
    0.1425   -0.5653    0.5361 C   0  0  0  0  0  0  0  0  0  0  0  0
   -1.8230    0.8792   -1.8522 H   0  0  0  0  0  0  0  0  0  0  0  0
   -1.8919    2.6675   -0.1392 H   0  0  0  0  0  0  0  0  0  0  0  0
   -0.6933    2.3808    2.0177 H   0  0  0  0  0  0  0  0  0  0  0  0
    0.6159    0.3088    2.4411 H   0  0  0  0  0  0  0  0  0  0  0  0
    0.7330   -1.4627    0.6895 H   0  0  0  0  0  0  0  0  0  0  0  0
   -2.8491   -1.8588   -1.8287 Cl  0  0  0  0  0  0  0  0  0  0  0  0
  1  8  1  0  0  0  0
  2  1  1  0  0  0  0
  3 14  1  0  0  0  0
  3  2  2  0  0  0  0
  4  1  2  0  0  0  0
  4  5  1  0  0  0  0
  5  6  2  0  0  0  0
  6  7  1  0  0  0  0
  6 11  1  0  0  0  0
  7 12  1  0  0  0  0
  8 13  1  0  0  0  0
  8  7  2  0  0  0  0
  9  4  1  0  0  0  0
 10  5  1  0  0  0  0
M  END
