Coordinates from ORCA-job PhN2+~Cl-_B3LYPG-6-31G_dp-NX-Scan-d89-09-n800
 OpenBabel11261920353D

 14 13  0  0  0  0  0  0  0  0999 V2000
   -1.3539   -1.1129   -0.1439 C   0  0  0  0  0  0  0  0  0  0  0  0
   -1.8754   -2.3663   -0.2308 N   0  0  0  0  0  0  0  0  0  0  0  0
   -2.3099   -3.4109   -0.3038 N   0  0  0  0  0  0  0  0  0  0  0  0
   -2.2074    0.0058   -0.3462 C   0  0  0  0  0  0  0  0  0  0  0  0
   -1.6527    1.2705   -0.2520 C   0  0  0  0  0  0  0  0  0  0  0  0
   -0.2860    1.4544    0.0346 C   0  0  0  0  0  0  0  0  0  0  0  0
    0.5352    0.3268    0.2304 C   0  0  0  0  0  0  0  0  0  0  0  0
    0.0289   -0.9588    0.1473 C   0  0  0  0  0  0  0  0  0  0  0  0
   -3.2581   -0.1457   -0.5682 H   0  0  0  0  0  0  0  0  0  0  0  0
   -2.2830    2.1408   -0.4026 H   0  0  0  0  0  0  0  0  0  0  0  0
    0.1361    2.4685    0.1047 H   0  0  0  0  0  0  0  0  0  0  0  0
    1.5876    0.4716    0.4523 H   0  0  0  0  0  0  0  0  0  0  0  0
    0.6532   -1.8327    0.2973 H   0  0  0  0  0  0  0  0  0  0  0  0
    1.0444    4.6397    0.2633 Cl  0  0  0  0  0  0  0  0  0  0  0  0
  1  8  2  0  0  0  0
  2  1  1  0  0  0  0
  3  2  1  0  0  0  0
  4  5  2  0  0  0  0
  4  1  1  0  0  0  0
  5  6  1  0  0  0  0
  6 11  1  0  0  0  0
  6  7  2  0  0  0  0
  7 12  1  0  0  0  0
  8  7  1  0  0  0  0
  8 13  1  0  0  0  0
  9  4  1  0  0  0  0
 10  5  1  0  0  0  0
M  RAD  3   2   2   3   3  14   2
M  END
