Coordinates from ORCA-job PhN2+~Cl-_B3LYPG-6-31G_dp-NX-Scan-d89-09-n800
 OpenBabel11261920353D

 14 13  0  0  0  0  0  0  0  0999 V2000
   -1.3567   -1.1196   -0.1443 C   0  0  0  0  0  0  0  0  0  0  0  0
   -1.8788   -2.3741   -0.2312 N   0  0  0  0  0  0  0  0  0  0  0  0
   -2.3136   -3.4192   -0.3044 N   0  0  0  0  0  0  0  0  0  0  0  0
   -2.2089    0.0001   -0.3464 C   0  0  0  0  0  0  0  0  0  0  0  0
   -1.6539    1.2655   -0.2523 C   0  0  0  0  0  0  0  0  0  0  0  0
   -0.2874    1.4499    0.0342 C   0  0  0  0  0  0  0  0  0  0  0  0
    0.5329    0.3219    0.2299 C   0  0  0  0  0  0  0  0  0  0  0  0
    0.0259   -0.9642    0.1468 C   0  0  0  0  0  0  0  0  0  0  0  0
   -3.2597   -0.1499   -0.5684 H   0  0  0  0  0  0  0  0  0  0  0  0
   -2.2852    2.1350   -0.4032 H   0  0  0  0  0  0  0  0  0  0  0  0
    0.1342    2.4627    0.1040 H   0  0  0  0  0  0  0  0  0  0  0  0
    1.5854    0.4650    0.4518 H   0  0  0  0  0  0  0  0  0  0  0  0
    0.6510   -1.8373    0.2970 H   0  0  0  0  0  0  0  0  0  0  0  0
    1.0739    4.7149    0.2688 Cl  0  0  0  0  0  0  0  0  0  0  0  0
  1  8  2  0  0  0  0
  2  1  1  0  0  0  0
  3  2  1  0  0  0  0
  4  5  2  0  0  0  0
  4  1  1  0  0  0  0
  5  6  1  0  0  0  0
  6 11  1  0  0  0  0
  6  7  2  0  0  0  0
  7 12  1  0  0  0  0
  8  7  1  0  0  0  0
  8 13  1  0  0  0  0
  9  4  1  0  0  0  0
 10  5  1  0  0  0  0
M  RAD  3   2   2   3   3  14   2
M  END
