Coordinates from ORCA-job PhN2+~Cl-_B3LYPG-6-31G_dp-NX-Scan-d89-09-n800
 OpenBabel11261920353D

 14 13  0  0  0  0  0  0  0  0999 V2000
   -1.2807   -1.0250   -0.2659 C   0  0  0  0  0  0  0  0  0  0  0  0
   -1.7719   -2.2646   -0.4393 N   0  0  0  0  0  0  0  0  0  0  0  0
   -2.1951   -3.3141   -0.5596 N   0  0  0  0  0  0  0  0  0  0  0  0
   -2.1390    0.1078   -0.4424 C   0  0  0  0  0  0  0  0  0  0  0  0
   -1.6643    1.3539   -0.1144 C   0  0  0  0  0  0  0  0  0  0  0  0
   -0.3524    1.5342    0.4042 C   0  0  0  0  0  0  0  0  0  0  0  0
    0.5114    0.4073    0.4864 C   0  0  0  0  0  0  0  0  0  0  0  0
    0.0728   -0.8547    0.1688 C   0  0  0  0  0  0  0  0  0  0  0  0
   -3.1542   -0.0385   -0.7942 H   0  0  0  0  0  0  0  0  0  0  0  0
   -2.3092    2.2187   -0.2218 H   0  0  0  0  0  0  0  0  0  0  0  0
   -0.0868    2.4563    0.8957 H   0  0  0  0  0  0  0  0  0  0  0  0
    1.5265    0.5489    0.8391 H   0  0  0  0  0  0  0  0  0  0  0  0
    0.7143   -1.7224    0.2768 H   0  0  0  0  0  0  0  0  0  0  0  0
    0.8877    3.5429   -0.9512 Cl  0  0  0  0  0  0  0  0  0  0  0  0
  1  8  1  0  0  0  0
  2  1  1  0  0  0  0
  3  2  1  0  0  0  0
  4  1  2  0  0  0  0
  4  5  1  0  0  0  0
  5  6  2  0  0  0  0
  6  7  1  0  0  0  0
  6 11  1  0  0  0  0
  7 12  1  0  0  0  0
  8 13  1  0  0  0  0
  8  7  2  0  0  0  0
  9  4  1  0  0  0  0
 10  5  1  0  0  0  0
M  RAD  3   2   2   3   3  14   2
M  END
