Coordinates from ORCA-job PhN2+~Cl-_B3LYPG-6-31G_dp-NX-Scan-d89-09-n800
 OpenBabel11261920353D

 14 14  0  0  1  0  0  0  0  0999 V2000
   -1.2829   -0.9087   -0.0773 C   0  0  2  0  0  0  0  0  0  0  0  0
   -1.4392   -1.8449   -0.9837 N   0  0  0  0  0  0  0  0  0  0  0  0
   -1.5322   -2.6006   -1.8298 N   0  0  0  0  0  0  0  0  0  0  0  0
   -2.2282    0.1984   -0.0520 C   0  0  0  0  0  0  0  0  0  0  0  0
   -1.7209    1.4311    0.1385 C   0  0  0  0  0  0  0  0  0  0  0  0
   -0.2463    1.5892    0.1042 C   0  0  1  0  0  0  0  0  0  0  0  0
    0.4859    0.4713    0.7477 C   0  0  0  0  0  0  0  0  0  0  0  0
    0.0158   -0.7777    0.5681 C   0  0  0  0  0  0  0  0  0  0  0  0
   -3.2862    0.0083   -0.2045 H   0  0  0  0  0  0  0  0  0  0  0  0
   -2.3523    2.3110    0.1966 H   0  0  0  0  0  0  0  0  0  0  0  0
    0.1086    2.5785    0.3786 H   0  0  0  0  0  0  0  0  0  0  0  0
    1.4323    0.6648    1.2405 H   0  0  0  0  0  0  0  0  0  0  0  0
    0.5646   -1.6668    0.8613 H   0  0  0  0  0  0  0  0  0  0  0  0
    0.2402    1.4969   -1.8059 Cl  0  0  0  0  0  0  0  0  0  0  0  0
  1  2  1  6  0  0  0
  1  4  1  0  0  0  0
  1  8  1  0  0  0  0
  3  2  1  0  0  0  0
  4  5  2  0  0  0  0
  5 10  1  0  0  0  0
  6  5  1  0  0  0  0
  6 11  1  1  0  0  0
  6  7  1  0  0  0  0
  7 12  1  0  0  0  0
  8  7  2  0  0  0  0
  8 13  1  0  0  0  0
  9  4  1  0  0  0  0
 14  6  1  0  0  0  0
M  RAD  3   1   2   2   2   3   3
M  END
