Coordinates from ORCA-job PhN2+~Cl-_B3LYPG-6-31G_dp-NX-Scan-d89-09-n800
 OpenBabel11261920353D

 14 14  0  0  1  0  0  0  0  0999 V2000
   -1.2947   -0.9165   -0.0469 C   0  0  2  0  0  0  0  0  0  0  0  0
   -1.4076   -1.7936   -1.0174 N   0  0  0  0  0  0  0  0  0  0  0  0
   -1.4574   -2.4853   -1.9196 N   0  0  0  0  0  0  0  0  0  0  0  0
   -2.2410    0.1942   -0.0165 C   0  0  0  0  0  0  0  0  0  0  0  0
   -1.7241    1.4264    0.1459 C   0  0  0  0  0  0  0  0  0  0  0  0
   -0.2477    1.5687    0.0770 C   0  0  1  0  0  0  0  0  0  0  0  0
    0.4813    0.4671    0.7548 C   0  0  0  0  0  0  0  0  0  0  0  0
    0.0048   -0.7828    0.6042 C   0  0  0  0  0  0  0  0  0  0  0  0
   -3.3022    0.0055   -0.1476 H   0  0  0  0  0  0  0  0  0  0  0  0
   -2.3468    2.3122    0.2097 H   0  0  0  0  0  0  0  0  0  0  0  0
    0.1224    2.5640    0.3058 H   0  0  0  0  0  0  0  0  0  0  0  0
    1.4242    0.6717    1.2500 H   0  0  0  0  0  0  0  0  0  0  0  0
    0.5471   -1.6690    0.9179 H   0  0  0  0  0  0  0  0  0  0  0  0
    0.2008    1.3880   -1.8350 Cl  0  0  0  0  0  0  0  0  0  0  0  0
  1  2  1  6  0  0  0
  1  4  1  0  0  0  0
  1  8  1  0  0  0  0
  3  2  1  0  0  0  0
  4  5  2  0  0  0  0
  5 10  1  0  0  0  0
  6  5  1  0  0  0  0
  6 11  1  1  0  0  0
  6  7  1  0  0  0  0
  7 12  1  0  0  0  0
  8  7  2  0  0  0  0
  8 13  1  0  0  0  0
  9  4  1  0  0  0  0
 14  6  1  0  0  0  0
M  RAD  3   1   2   2   2   3   3
M  END
