Coordinates from ORCA-job PhN2+~Cl-_B3LYPG-6-31G_dp-NX-Scan-d89-09-n800
 OpenBabel11261920353D

 14 14  0  0  1  0  0  0  0  0999 V2000
   -1.2952   -0.9168   -0.0456 C   0  0  2  0  0  0  0  0  0  0  0  0
   -1.4063   -1.7914   -1.0186 N   0  0  0  0  0  0  0  0  0  0  0  0
   -1.4544   -2.4805   -1.9230 N   0  0  0  0  0  0  0  0  0  0  0  0
   -2.2415    0.1940   -0.0151 C   0  0  0  0  0  0  0  0  0  0  0  0
   -1.7242    1.4262    0.1462 C   0  0  0  0  0  0  0  0  0  0  0  0
   -0.2478    1.5678    0.0759 C   0  0  1  0  0  0  0  0  0  0  0  0
    0.4812    0.4669    0.7550 C   0  0  0  0  0  0  0  0  0  0  0  0
    0.0043   -0.7830    0.6056 C   0  0  0  0  0  0  0  0  0  0  0  0
   -3.3029    0.0054   -0.1453 H   0  0  0  0  0  0  0  0  0  0  0  0
   -2.3466    2.3122    0.2101 H   0  0  0  0  0  0  0  0  0  0  0  0
    0.1229    2.5633    0.3029 H   0  0  0  0  0  0  0  0  0  0  0  0
    1.4239    0.6720    1.2503 H   0  0  0  0  0  0  0  0  0  0  0  0
    0.5464   -1.6691    0.9201 H   0  0  0  0  0  0  0  0  0  0  0  0
    0.1993    1.3838   -1.8361 Cl  0  0  0  0  0  0  0  0  0  0  0  0
  1  2  1  6  0  0  0
  1  4  1  0  0  0  0
  1  8  1  0  0  0  0
  3  2  1  0  0  0  0
  4  5  2  0  0  0  0
  5 10  1  0  0  0  0
  6  5  1  0  0  0  0
  6 11  1  1  0  0  0
  6  7  1  0  0  0  0
  7 12  1  0  0  0  0
  8  7  2  0  0  0  0
  8 13  1  0  0  0  0
  9  4  1  0  0  0  0
 14  6  1  0  0  0  0
M  RAD  3   1   2   2   2   3   3
M  END
