Coordinates from ORCA-job PhN2+~Cl-_B3LYPG-6-31G_dp-NX-Scan-d89-09-n800
 OpenBabel11261920353D

 14 14  0  0  1  0  0  0  0  0999 V2000
   -1.3376   -0.9570    0.0444 C   0  0  2  0  0  0  0  0  0  0  0  0
   -1.2994   -1.6006   -1.1045 N   0  0  0  0  0  0  0  0  0  0  0  0
   -1.1979   -2.0338   -2.1504 N   0  0  0  0  0  0  0  0  0  0  0  0
   -2.2832    0.1731    0.0914 C   0  0  0  0  0  0  0  0  0  0  0  0
   -1.7356    1.3992    0.1517 C   0  0  0  0  0  0  0  0  0  0  0  0
   -0.2579    1.4866   -0.0156 C   0  0  1  0  0  0  0  0  0  0  0  0
    0.4665    0.4412    0.7604 C   0  0  0  0  0  0  0  0  0  0  0  0
   -0.0326   -0.8060    0.7139 C   0  0  0  0  0  0  0  0  0  0  0  0
   -3.3534   -0.0042    0.0395 H   0  0  0  0  0  0  0  0  0  0  0  0
   -2.3265    2.3065    0.2244 H   0  0  0  0  0  0  0  0  0  0  0  0
    0.1519    2.4885    0.0782 H   0  0  0  0  0  0  0  0  0  0  0  0
    1.4021    0.6845    1.2531 H   0  0  0  0  0  0  0  0  0  0  0  0
    0.4889   -1.6754    1.1020 H   0  0  0  0  0  0  0  0  0  0  0  0
    0.0740    1.0482   -1.9062 Cl  0  0  0  0  0  0  0  0  0  0  0  0
  1  2  1  6  0  0  0
  1  4  1  0  0  0  0
  1  8  1  0  0  0  0
  3  2  1  0  0  0  0
  4  5  2  0  0  0  0
  5 10  1  0  0  0  0
  6 11  1  1  0  0  0
  6  5  1  0  0  0  0
  6  7  1  0  0  0  0
  7 12  1  0  0  0  0
  8  7  2  0  0  0  0
  8 13  1  0  0  0  0
  9  4  1  0  0  0  0
 14  6  1  0  0  0  0
M  RAD  3   1   2   2   2   3   3
M  END
