Coordinates from ORCA-job PhN2+~Cl-_B3LYPG-6-31G_dp-NX-Scan-d89-09-n800
 OpenBabel11261920353D

 14 13  0  0  0  0  0  0  0  0999 V2000
   -1.2971   -1.0464   -0.2402 C   0  0  0  0  0  0  0  0  0  0  0  0
   -1.7871   -2.2895   -0.4235 N   0  0  0  0  0  0  0  0  0  0  0  0
   -2.2059   -3.3365   -0.5558 N   0  0  0  0  0  0  0  0  0  0  0  0
   -2.1568    0.0788   -0.4249 C   0  0  0  0  0  0  0  0  0  0  0  0
   -1.6695    1.3305   -0.1218 C   0  0  0  0  0  0  0  0  0  0  0  0
   -0.3586    1.5058    0.3820 C   0  0  0  0  0  0  0  0  0  0  0  0
    0.5015    0.3859    0.4780 C   0  0  0  0  0  0  0  0  0  0  0  0
    0.0556   -0.8839    0.1866 C   0  0  0  0  0  0  0  0  0  0  0  0
   -3.1743   -0.0708   -0.7684 H   0  0  0  0  0  0  0  0  0  0  0  0
   -2.3067    2.1990   -0.2456 H   0  0  0  0  0  0  0  0  0  0  0  0
   -0.0325    2.4774    0.7321 H   0  0  0  0  0  0  0  0  0  0  0  0
    1.5220    0.5323    0.8138 H   0  0  0  0  0  0  0  0  0  0  0  0
    0.6925   -1.7539    0.3021 H   0  0  0  0  0  0  0  0  0  0  0  0
    0.9757    3.8221   -0.8322 Cl  0  0  0  0  0  0  0  0  0  0  0  0
  1  8  1  0  0  0  0
  2  1  1  0  0  0  0
  3  2  1  0  0  0  0
  4  1  2  0  0  0  0
  4  5  1  0  0  0  0
  5  6  2  0  0  0  0
  6  7  1  0  0  0  0
  6 11  1  0  0  0  0
  7 12  1  0  0  0  0
  8 13  1  0  0  0  0
  8  7  2  0  0  0  0
  9  4  1  0  0  0  0
 10  5  1  0  0  0  0
M  RAD  3   2   2   3   3  14   2
M  END
