Coordinates from ORCA-job 4-MeOPhN2+~CF3COO-_B3LYPG-6-31G_dp-NX-Scan-d89-09-n800
 OpenBabel11261920413D

 24 23  0  0  0  0  0  0  0  0999 V2000
   -2.6461    0.1920   -1.1014 C   0  0  0  0  0  0  0  0  0  0  0  0
   -3.4449    0.3763   -2.2480 N   0  0  0  0  0  0  0  0  0  0  0  0
   -3.5104    0.8120   -3.2876 N   0  0  0  0  0  0  0  0  0  0  0  0
   -1.4526    0.9391   -1.0496 C   0  0  0  0  0  0  0  0  0  0  0  0
   -0.6189    0.7825    0.0383 C   0  0  0  0  0  0  0  0  0  0  0  0
   -0.9589   -0.1166    1.0717 C   0  0  0  0  0  0  0  0  0  0  0  0
   -0.0748   -0.1900    2.0847 O   0  0  0  0  0  0  0  0  0  0  0  0
   -0.3467   -1.0621    3.1816 C   0  0  0  0  0  0  0  0  0  0  0  0
   -2.1504   -0.8582    0.9953 C   0  0  0  0  0  0  0  0  0  0  0  0
   -3.0009   -0.7015   -0.0926 C   0  0  0  0  0  0  0  0  0  0  0  0
   -1.2059    1.6290   -1.8488 H   0  0  0  0  0  0  0  0  0  0  0  0
    0.3049    1.3434    0.1215 H   0  0  0  0  0  0  0  0  0  0  0  0
    0.4918   -0.9422    3.8680 H   0  0  0  0  0  0  0  0  0  0  0  0
   -0.4042   -2.1062    2.8539 H   0  0  0  0  0  0  0  0  0  0  0  0
   -1.2772   -0.7830    3.6888 H   0  0  0  0  0  0  0  0  0  0  0  0
   -2.4269   -1.5529    1.7782 H   0  0  0  0  0  0  0  0  0  0  0  0
   -3.9281   -1.2502   -0.1885 H   0  0  0  0  0  0  0  0  0  0  0  0
   -5.2121   -0.6790   -1.7738 O   0  0  0  0  0  0  0  0  0  0  0  0
   -5.9441    0.2452   -1.2641 C   0  0  0  0  0  0  0  0  0  0  0  0
   -5.6218    1.3792   -0.9202 O   0  0  0  0  0  0  0  0  0  0  0  0
   -7.4097   -0.2280   -1.0451 C   0  0  0  0  0  0  0  0  0  0  0  0
   -8.2123    0.7782   -0.6696 F   0  0  0  0  0  0  0  0  0  0  0  0
   -7.9284   -0.7783   -2.1606 F   0  0  0  0  0  0  0  0  0  0  0  0
   -7.4451   -1.1690   -0.0701 F   0  0  0  0  0  0  0  0  0  0  0  0
  1  4  2  0  0  0  0
  1 10  1  0  0  0  0
  2  1  1  0  0  0  0
  3  2  2  0  0  0  0
  4  5  1  0  0  0  0
  5 12  1  0  0  0  0
  5  6  2  0  0  0  0
  6  7  1  0  0  0  0
  7  8  1  0  0  0  0
  8 15  1  0  0  0  0
  8 13  1  0  0  0  0
  9  6  1  0  0  0  0
  9 16  1  0  0  0  0
 10  9  2  0  0  0  0
 11  4  1  0  0  0  0
 14  8  1  0  0  0  0
 17 10  1  0  0  0  0
 18 19  2  0  0  0  0
 19 21  1  0  0  0  0
 19 20  1  0  0  0  0
 21 22  1  0  0  0  0
 21 24  1  0  0  0  0
 23 21  1  0  0  0  0
M  RAD  2   3   2  20   2
M  END
