Coordinates from ORCA-job 4-MeOPhN2+~CF3COO-_B3LYPG-6-31G_dp-NX-Scan-d89-09-n800
 OpenBabel11261920413D

 24 23  0  0  0  0  0  0  0  0999 V2000
   -2.5819    0.3692   -1.0532 C   0  0  0  0  0  0  0  0  0  0  0  0
   -3.3846    0.5839   -2.1840 N   0  0  0  0  0  0  0  0  0  0  0  0
   -3.5086    0.8767   -3.2647 N   0  0  0  0  0  0  0  0  0  0  0  0
   -1.3600    1.0720   -1.0130 C   0  0  0  0  0  0  0  0  0  0  0  0
   -0.5216    0.8655    0.0621 C   0  0  0  0  0  0  0  0  0  0  0  0
   -0.8821   -0.0456    1.0800 C   0  0  0  0  0  0  0  0  0  0  0  0
    0.0102   -0.1686    2.0795 O   0  0  0  0  0  0  0  0  0  0  0  0
   -0.2717   -1.0625    3.1575 C   0  0  0  0  0  0  0  0  0  0  0  0
   -2.0977   -0.7486    1.0021 C   0  0  0  0  0  0  0  0  0  0  0  0
   -2.9639   -0.5360   -0.0629 C   0  0  0  0  0  0  0  0  0  0  0  0
   -1.0974    1.7652   -1.8048 H   0  0  0  0  0  0  0  0  0  0  0  0
    0.4218    1.3924    0.1468 H   0  0  0  0  0  0  0  0  0  0  0  0
    0.5791   -0.9836    3.8345 H   0  0  0  0  0  0  0  0  0  0  0  0
   -0.3628   -2.0949    2.8025 H   0  0  0  0  0  0  0  0  0  0  0  0
   -1.1873   -0.7712    3.6840 H   0  0  0  0  0  0  0  0  0  0  0  0
   -2.3813   -1.4590    1.7686 H   0  0  0  0  0  0  0  0  0  0  0  0
   -3.9120   -1.0729   -0.1738 H   0  0  0  0  0  0  0  0  0  0  0  0
   -5.6519   -1.5666   -0.8249 O   0  0  0  0  0  0  0  0  0  0  0  0
   -6.0547   -0.4310   -1.1080 C   0  0  0  0  0  0  0  0  0  0  0  0
   -5.3970    0.6285   -1.3546 O   0  0  0  0  0  0  0  0  0  0  0  0
   -7.5943   -0.2006   -1.1831 C   0  0  0  0  0  0  0  0  0  0  0  0
   -7.9801    0.7481   -0.3020 F   0  0  0  0  0  0  0  0  0  0  0  0
   -7.9559    0.2164   -2.4163 F   0  0  0  0  0  0  0  0  0  0  0  0
   -8.2880   -1.3170   -0.9101 F   0  0  0  0  0  0  0  0  0  0  0  0
  1  4  2  0  0  0  0
  1 10  1  0  0  0  0
  2  1  1  0  0  0  0
  3  2  2  0  0  0  0
  4  5  1  0  0  0  0
  5 12  1  0  0  0  0
  5  6  2  0  0  0  0
  6  7  1  0  0  0  0
  7  8  1  0  0  0  0
  8 15  1  0  0  0  0
  8 13  1  0  0  0  0
  9  6  1  0  0  0  0
  9 16  1  0  0  0  0
 10  9  2  0  0  0  0
 11  4  1  0  0  0  0
 14  8  1  0  0  0  0
 17 10  1  0  0  0  0
 19 18  1  0  0  0  0
 20 19  2  0  0  0  0
 21 19  1  0  0  0  0
 21 24  1  0  0  0  0
 21 22  1  0  0  0  0
 23 21  1  0  0  0  0
M  RAD  2   3   2  18   2
M  END
