Coordinates from ORCA-job 4-MeOPhN2+~CF3COO-_B3LYPG-6-31G_dp-NX-Scan-d89-09-n800
 OpenBabel11261920413D

 24 23  0  0  0  0  0  0  0  0999 V2000
   -2.5685    0.4386   -1.0375 C   0  0  0  0  0  0  0  0  0  0  0  0
   -3.3681    0.7073   -2.1559 N   0  0  0  0  0  0  0  0  0  0  0  0
   -3.5062    1.0832   -3.2079 N   0  0  0  0  0  0  0  0  0  0  0  0
   -1.3175    1.0934   -1.0060 C   0  0  0  0  0  0  0  0  0  0  0  0
   -0.4734    0.8459    0.0543 C   0  0  0  0  0  0  0  0  0  0  0  0
   -0.8568   -0.0588    1.0709 C   0  0  0  0  0  0  0  0  0  0  0  0
    0.0427   -0.2247    2.0567 O   0  0  0  0  0  0  0  0  0  0  0  0
   -0.2609   -1.1137    3.1335 C   0  0  0  0  0  0  0  0  0  0  0  0
   -2.1002   -0.7111    1.0036 C   0  0  0  0  0  0  0  0  0  0  0  0
   -2.9720   -0.4599   -0.0491 C   0  0  0  0  0  0  0  0  0  0  0  0
   -1.0384    1.7819   -1.7963 H   0  0  0  0  0  0  0  0  0  0  0  0
    0.4910    1.3346    0.1298 H   0  0  0  0  0  0  0  0  0  0  0  0
    0.6026   -1.0754    3.7978 H   0  0  0  0  0  0  0  0  0  0  0  0
   -0.4012   -2.1385    2.7732 H   0  0  0  0  0  0  0  0  0  0  0  0
   -1.1554   -0.7871    3.6752 H   0  0  0  0  0  0  0  0  0  0  0  0
   -2.4036   -1.4140    1.7696 H   0  0  0  0  0  0  0  0  0  0  0  0
   -3.9446   -0.9618   -0.1317 H   0  0  0  0  0  0  0  0  0  0  0  0
   -5.7057   -1.5151   -0.5251 O   0  0  0  0  0  0  0  0  0  0  0  0
   -6.0957   -0.4540   -1.0299 C   0  0  0  0  0  0  0  0  0  0  0  0
   -5.4339    0.5526   -1.4316 O   0  0  0  0  0  0  0  0  0  0  0  0
   -7.6304   -0.2672   -1.2307 C   0  0  0  0  0  0  0  0  0  0  0  0
   -8.0685    0.8404   -0.5936 F   0  0  0  0  0  0  0  0  0  0  0  0
   -7.9242   -0.1260   -2.5424 F   0  0  0  0  0  0  0  0  0  0  0  0
   -8.3350   -1.3107   -0.7649 F   0  0  0  0  0  0  0  0  0  0  0  0
  1  4  2  0  0  0  0
  1 10  1  0  0  0  0
  2  1  1  0  0  0  0
  3  2  2  0  0  0  0
  4  5  1  0  0  0  0
  5 12  1  0  0  0  0
  5  6  2  0  0  0  0
  6  7  1  0  0  0  0
  7  8  1  0  0  0  0
  8 15  1  0  0  0  0
  8 13  1  0  0  0  0
  9  6  1  0  0  0  0
  9 16  1  0  0  0  0
 10  9  2  0  0  0  0
 11  4  1  0  0  0  0
 14  8  1  0  0  0  0
 17 10  1  0  0  0  0
 19 18  1  0  0  0  0
 20 19  2  0  0  0  0
 21 19  1  0  0  0  0
 21 24  1  0  0  0  0
 21 22  1  0  0  0  0
 23 21  1  0  0  0  0
M  RAD  2   3   2  18   2
M  END
