Coordinates from ORCA-job 4-MeOPhN2+~CF3COO-_B3LYPG-6-31G_dp-NX-Scan-d89-09-n800
 OpenBabel11261920413D

 24 23  0  0  0  0  0  0  0  0999 V2000
   -2.5737    0.6574   -0.9432 C   0  0  0  0  0  0  0  0  0  0  0  0
   -3.3966    1.0962   -1.9819 N   0  0  0  0  0  0  0  0  0  0  0  0
   -3.6084    1.6594   -2.9319 N   0  0  0  0  0  0  0  0  0  0  0  0
   -1.2341    1.1114   -1.0051 C   0  0  0  0  0  0  0  0  0  0  0  0
   -0.3590    0.7231   -0.0171 C   0  0  0  0  0  0  0  0  0  0  0  0
   -0.8021   -0.1139    1.0344 C   0  0  0  0  0  0  0  0  0  0  0  0
    0.1338   -0.4301    1.9447 O   0  0  0  0  0  0  0  0  0  0  0  0
   -0.2225   -1.2665    3.0489 C   0  0  0  0  0  0  0  0  0  0  0  0
   -2.1367   -0.5515    1.0717 C   0  0  0  0  0  0  0  0  0  0  0  0
   -3.0361   -0.1699    0.0832 C   0  0  0  0  0  0  0  0  0  0  0  0
   -0.9114    1.7528   -1.8183 H   0  0  0  0  0  0  0  0  0  0  0  0
    0.6750    1.0482   -0.0229 H   0  0  0  0  0  0  0  0  0  0  0  0
    0.6877   -1.3778    3.6377 H   0  0  0  0  0  0  0  0  0  0  0  0
   -0.5608   -2.2499    2.7061 H   0  0  0  0  0  0  0  0  0  0  0  0
   -1.0020   -0.7999    3.6609 H   0  0  0  0  0  0  0  0  0  0  0  0
   -2.4933   -1.1925    1.8682 H   0  0  0  0  0  0  0  0  0  0  0  0
   -4.0793   -0.5121    0.1140 H   0  0  0  0  0  0  0  0  0  0  0  0
   -5.8806   -1.0629    0.1296 O   0  0  0  0  0  0  0  0  0  0  0  0
   -6.1769   -0.4354   -0.8969 C   0  0  0  0  0  0  0  0  0  0  0  0
   -5.4558    0.2913   -1.6471 O   0  0  0  0  0  0  0  0  0  0  0  0
   -7.6522   -0.5156   -1.3940 C   0  0  0  0  0  0  0  0  0  0  0  0
   -8.2094    0.7147   -1.4447 F   0  0  0  0  0  0  0  0  0  0  0  0
   -7.7104   -1.0398   -2.6386 F   0  0  0  0  0  0  0  0  0  0  0  0
   -8.4189   -1.2766   -0.5959 F   0  0  0  0  0  0  0  0  0  0  0  0
  1 10  1  0  0  0  0
  2  1  1  0  0  0  0
  3  2  2  0  0  0  0
  4  1  2  0  0  0  0
  4  5  1  0  0  0  0
  5  6  2  0  0  0  0
  6  9  1  0  0  0  0
  6  7  1  0  0  0  0
  7  8  1  0  0  0  0
  8 13  1  0  0  0  0
  8 15  1  0  0  0  0
  9 16  1  0  0  0  0
 10 17  1  0  0  0  0
 10  9  2  0  0  0  0
 11  4  1  0  0  0  0
 12  5  1  0  0  0  0
 14  8  1  0  0  0  0
 19 18  1  0  0  0  0
 20 19  2  0  0  0  0
 21 19  1  0  0  0  0
 21 24  1  0  0  0  0
 22 21  1  0  0  0  0
 23 21  1  0  0  0  0
M  RAD  2   3   2  18   2
M  END
