Coordinates from ORCA-job 4-MeOPhN2+~CF3COO-_B3LYPG-6-31G_dp-NX-Scan-d89-09-n800
 OpenBabel11261920413D

 24 23  0  0  0  0  0  0  0  0999 V2000
   -2.6744    0.1793   -1.0628 C   0  0  0  0  0  0  0  0  0  0  0  0
   -3.5074    0.3567   -2.1880 N   0  0  0  0  0  0  0  0  0  0  0  0
   -3.6112    0.7715   -3.2323 N   0  0  0  0  0  0  0  0  0  0  0  0
   -1.4640    0.8967   -1.0594 C   0  0  0  0  0  0  0  0  0  0  0  0
   -0.6044    0.7428    0.0096 C   0  0  0  0  0  0  0  0  0  0  0  0
   -0.9379   -0.1245    1.0712 C   0  0  0  0  0  0  0  0  0  0  0  0
   -0.0282   -0.1980    2.0627 O   0  0  0  0  0  0  0  0  0  0  0  0
   -0.2917   -1.0402    3.1840 C   0  0  0  0  0  0  0  0  0  0  0  0
   -2.1481   -0.8382    1.0430 C   0  0  0  0  0  0  0  0  0  0  0  0
   -3.0228   -0.6833   -0.0262 C   0  0  0  0  0  0  0  0  0  0  0  0
   -1.2230    1.5620   -1.8809 H   0  0  0  0  0  0  0  0  0  0  0  0
    0.3347    1.2819    0.0559 H   0  0  0  0  0  0  0  0  0  0  0  0
    0.5678   -0.9280    3.8454 H   0  0  0  0  0  0  0  0  0  0  0  0
   -0.3841   -2.0892    2.8801 H   0  0  0  0  0  0  0  0  0  0  0  0
   -1.2009   -0.7277    3.7102 H   0  0  0  0  0  0  0  0  0  0  0  0
   -2.4198   -1.5094    1.8478 H   0  0  0  0  0  0  0  0  0  0  0  0
   -3.9607   -1.2179   -0.0850 H   0  0  0  0  0  0  0  0  0  0  0  0
   -5.1839   -0.5780   -1.7949 O   0  0  0  0  0  0  0  0  0  0  0  0
   -5.9550    0.2772   -1.2109 C   0  0  0  0  0  0  0  0  0  0  0  0
   -5.6608    1.3587   -0.7179 O   0  0  0  0  0  0  0  0  0  0  0  0
   -7.4231   -0.2296   -1.1435 C   0  0  0  0  0  0  0  0  0  0  0  0
   -8.2541    0.7133   -0.6785 F   0  0  0  0  0  0  0  0  0  0  0  0
   -7.8691   -0.6193   -2.3539 F   0  0  0  0  0  0  0  0  0  0  0  0
   -7.5017   -1.2970   -0.3137 F   0  0  0  0  0  0  0  0  0  0  0  0
  1  4  2  0  0  0  0
  1 10  1  0  0  0  0
  2  1  1  0  0  0  0
  3  2  2  0  0  0  0
  4  5  1  0  0  0  0
  5 12  1  0  0  0  0
  5  6  2  0  0  0  0
  6  7  1  0  0  0  0
  7  8  1  0  0  0  0
  8 15  1  0  0  0  0
  8 13  1  0  0  0  0
  9  6  1  0  0  0  0
  9 16  1  0  0  0  0
 10  9  2  0  0  0  0
 11  4  1  0  0  0  0
 14  8  1  0  0  0  0
 17 10  1  0  0  0  0
 18 19  2  0  0  0  0
 19 21  1  0  0  0  0
 19 20  1  0  0  0  0
 21 22  1  0  0  0  0
 21 24  1  0  0  0  0
 23 21  1  0  0  0  0
M  RAD  2   3   2  20   2
M  END
