Coordinates from ORCA-job 4-MeOPhN2+~CF3COO-_B3LYPG-6-31G_dp-NX-Scan-d89-09-n800
 OpenBabel11261920413D

 24 23  0  0  0  0  0  0  0  0999 V2000
   -1.7832    2.2123   -1.4657 C   0  0  0  0  0  0  0  0  0  0  0  0
   -1.9881    3.2749   -2.2623 N   0  0  0  0  0  0  0  0  0  0  0  0
   -2.1612    4.1723   -2.9250 N   0  0  0  0  0  0  0  0  0  0  0  0
   -0.4415    1.8050   -1.2033 C   0  0  0  0  0  0  0  0  0  0  0  0
   -0.2433    0.7363   -0.3748 C   0  0  0  0  0  0  0  0  0  0  0  0
   -1.3540    0.0568    0.2153 C   0  0  0  0  0  0  0  0  0  0  0  0
   -1.0355   -0.9318    1.0173 O   0  0  0  0  0  0  0  0  0  0  0  0
   -2.0722   -1.6613    1.7415 C   0  0  0  0  0  0  0  0  0  0  0  0
   -2.6906    0.4575   -0.0656 C   0  0  0  0  0  0  0  0  0  0  0  0
   -2.9002    1.5272   -0.8999 C   0  0  0  0  0  0  0  0  0  0  0  0
    0.3884    2.3394   -1.6514 H   0  0  0  0  0  0  0  0  0  0  0  0
    0.7554    0.3871   -0.1390 H   0  0  0  0  0  0  0  0  0  0  0  0
   -1.5224   -2.3933    2.3305 H   0  0  0  0  0  0  0  0  0  0  0  0
   -2.7942   -2.1461    1.0673 H   0  0  0  0  0  0  0  0  0  0  0  0
   -2.6093   -0.9670    2.3924 H   0  0  0  0  0  0  0  0  0  0  0  0
   -3.5830   -0.0723    0.3446 H   0  0  0  0  0  0  0  0  0  0  0  0
   -3.9115    1.8473   -1.1290 H   0  0  0  0  0  0  0  0  0  0  0  0
   -4.6353   -2.8626    0.6715 O   0  0  0  0  0  0  0  0  0  0  0  0
   -5.4174   -1.8934    0.7125 C   0  0  0  0  0  0  0  0  0  0  0  0
   -5.1858   -0.6542    0.7560 O   0  0  0  0  0  0  0  0  0  0  0  0
   -6.9401   -2.2263    0.7100 C   0  0  0  0  0  0  0  0  0  0  0  0
   -7.5544   -1.7114    1.8021 F   0  0  0  0  0  0  0  0  0  0  0  0
   -7.5478   -1.6883   -0.3776 F   0  0  0  0  0  0  0  0  0  0  0  0
   -7.1965   -3.5481    0.6944 F   0  0  0  0  0  0  0  0  0  0  0  0
  1  4  2  0  0  0  0
  1 10  1  0  0  0  0
  2  1  1  0  0  0  0
  3  2  1  0  0  0  0
  4  5  1  0  0  0  0
  5 12  1  0  0  0  0
  5  6  2  0  0  0  0
  6  7  1  0  0  0  0
  7  8  1  0  0  0  0
  8 13  1  0  0  0  0
  8 15  1  0  0  0  0
  9  6  1  0  0  0  0
  9 16  1  0  0  0  0
 10  9  2  0  0  0  0
 11  4  1  0  0  0  0
 14  8  1  0  0  0  0
 17 10  1  0  0  0  0
 18 19  2  0  0  0  0
 19 20  1  0  0  0  0
 21 19  1  0  0  0  0
 21 22  1  0  0  0  0
 23 21  1  0  0  0  0
 24 21  1  0  0  0  0
M  RAD  3   2   2   3   3  20   2
M  END
