Coordinates from ORCA-job 4-MeOPhN2+~CF3COO-_B3LYPG-6-31G_dp-NX-Scan-d89-09-n800
 OpenBabel11261920413D

 24 23  0  0  0  0  0  0  0  0999 V2000
   -2.9375    1.6458   -0.9083 C   0  0  0  0  0  0  0  0  0  0  0  0
   -3.7267    2.4601   -1.6198 N   0  0  0  0  0  0  0  0  0  0  0  0
   -4.4024    3.1437   -2.2069 N   0  0  0  0  0  0  0  0  0  0  0  0
   -2.0178    0.8001   -1.5923 C   0  0  0  0  0  0  0  0  0  0  0  0
   -1.3399   -0.1373   -0.8659 C   0  0  0  0  0  0  0  0  0  0  0  0
   -1.5955   -0.2840    0.5305 C   0  0  0  0  0  0  0  0  0  0  0  0
   -0.9772   -1.3088    1.1102 O   0  0  0  0  0  0  0  0  0  0  0  0
   -1.4313   -1.7388    2.4117 C   0  0  0  0  0  0  0  0  0  0  0  0
   -2.4387    0.6115    1.2067 C   0  0  0  0  0  0  0  0  0  0  0  0
   -3.1681    1.5442    0.4931 C   0  0  0  0  0  0  0  0  0  0  0  0
   -1.8930    0.8887   -2.6654 H   0  0  0  0  0  0  0  0  0  0  0  0
   -0.6537   -0.8305   -1.3381 H   0  0  0  0  0  0  0  0  0  0  0  0
   -0.9457   -2.6991    2.5791 H   0  0  0  0  0  0  0  0  0  0  0  0
   -2.5192   -1.8459    2.3956 H   0  0  0  0  0  0  0  0  0  0  0  0
   -1.1117   -1.0291    3.1823 H   0  0  0  0  0  0  0  0  0  0  0  0
   -2.6298    0.5018    2.2638 H   0  0  0  0  0  0  0  0  0  0  0  0
   -3.8403    2.2297    0.9853 H   0  0  0  0  0  0  0  0  0  0  0  0
   -4.4453   -1.4111    1.1121 O   0  0  0  0  0  0  0  0  0  0  0  0
   -5.0364   -0.7189    0.2657 C   0  0  0  0  0  0  0  0  0  0  0  0
   -5.3155    0.5133    0.2694 O   0  0  0  0  0  0  0  0  0  0  0  0
   -5.4212   -1.4183   -1.0735 C   0  0  0  0  0  0  0  0  0  0  0  0
   -6.6970   -1.1725   -1.4372 F   0  0  0  0  0  0  0  0  0  0  0  0
   -4.6271   -0.9329   -2.0809 F   0  0  0  0  0  0  0  0  0  0  0  0
   -5.2528   -2.7516   -1.0553 F   0  0  0  0  0  0  0  0  0  0  0  0
  1 10  1  0  0  0  0
  2  1  1  0  0  0  0
  3  2  1  0  0  0  0
  4  1  2  0  0  0  0
  4  5  1  0  0  0  0
  5  6  2  0  0  0  0
  6  7  1  0  0  0  0
  6  9  1  0  0  0  0
  7  8  1  0  0  0  0
  8 13  1  0  0  0  0
  8 15  1  0  0  0  0
  9 16  1  0  0  0  0
 10 17  1  0  0  0  0
 10  9  2  0  0  0  0
 11  4  1  0  0  0  0
 12  5  1  0  0  0  0
 14  8  1  0  0  0  0
 19 20  2  0  0  0  0
 19 18  1  0  0  0  0
 21 24  1  0  0  0  0
 21 19  1  0  0  0  0
 22 21  1  0  0  0  0
 23 21  1  0  0  0  0
M  RAD  3   2   2   3   3  18   2
M  END
