Coordinates from ORCA-job 4-MeOPhN2+~CF3COO-_B3LYPG-6-31G_dp-NX-Scan-d89-09-n800
 OpenBabel11261920413D

 24 23  0  0  0  0  0  0  0  0999 V2000
   -1.7730    2.2215   -1.4674 C   0  0  0  0  0  0  0  0  0  0  0  0
   -1.9711    3.2882   -2.2602 N   0  0  0  0  0  0  0  0  0  0  0  0
   -2.1370    4.1895   -2.9196 N   0  0  0  0  0  0  0  0  0  0  0  0
   -0.4334    1.8132   -1.1964 C   0  0  0  0  0  0  0  0  0  0  0  0
   -0.2414    0.7415   -0.3703 C   0  0  0  0  0  0  0  0  0  0  0  0
   -1.3563    0.0601    0.2094 C   0  0  0  0  0  0  0  0  0  0  0  0
   -1.0436   -0.9293    1.0124 O   0  0  0  0  0  0  0  0  0  0  0  0
   -2.0850   -1.6599    1.7289 C   0  0  0  0  0  0  0  0  0  0  0  0
   -2.6911    0.4603   -0.0817 C   0  0  0  0  0  0  0  0  0  0  0  0
   -2.8943    1.5334   -0.9134 C   0  0  0  0  0  0  0  0  0  0  0  0
    0.3999    2.3494   -1.6359 H   0  0  0  0  0  0  0  0  0  0  0  0
    0.7556    0.3917   -0.1279 H   0  0  0  0  0  0  0  0  0  0  0  0
   -1.5382   -2.3820    2.3327 H   0  0  0  0  0  0  0  0  0  0  0  0
   -2.7935   -2.1570    1.0498 H   0  0  0  0  0  0  0  0  0  0  0  0
   -2.6384   -0.9642    2.3641 H   0  0  0  0  0  0  0  0  0  0  0  0
   -3.5846   -0.0732    0.3209 H   0  0  0  0  0  0  0  0  0  0  0  0
   -3.9036    1.8547   -1.1497 H   0  0  0  0  0  0  0  0  0  0  0  0
   -4.6427   -2.8874    0.6882 O   0  0  0  0  0  0  0  0  0  0  0  0
   -5.4185   -1.9128    0.7164 C   0  0  0  0  0  0  0  0  0  0  0  0
   -5.1799   -0.6742    0.7380 O   0  0  0  0  0  0  0  0  0  0  0  0
   -6.9433   -2.2361    0.7295 C   0  0  0  0  0  0  0  0  0  0  0  0
   -7.5435   -1.7120    1.8253 F   0  0  0  0  0  0  0  0  0  0  0  0
   -7.5586   -1.6996   -0.3545 F   0  0  0  0  0  0  0  0  0  0  0  0
   -7.2082   -3.5562    0.7231 F   0  0  0  0  0  0  0  0  0  0  0  0
  1  4  2  0  0  0  0
  1 10  1  0  0  0  0
  2  1  1  0  0  0  0
  3  2  1  0  0  0  0
  4  5  1  0  0  0  0
  5 12  1  0  0  0  0
  5  6  2  0  0  0  0
  6  7  1  0  0  0  0
  7  8  1  0  0  0  0
  8 13  1  0  0  0  0
  8 15  1  0  0  0  0
  9  6  1  0  0  0  0
  9 16  1  0  0  0  0
 10  9  2  0  0  0  0
 11  4  1  0  0  0  0
 14  8  1  0  0  0  0
 17 10  1  0  0  0  0
 18 19  2  0  0  0  0
 19 21  1  0  0  0  0
 19 20  1  0  0  0  0
 21 22  1  0  0  0  0
 23 21  1  0  0  0  0
 24 21  1  0  0  0  0
M  RAD  3   2   2   3   3  20   2
M  END
