Coordinates from ORCA-job 4-MeOPhN2+~CF3COO-_B3LYPG-6-31G_dp-NX-Scan-d89-09-n800
 OpenBabel11261920413D

 24 23  0  0  0  0  0  0  0  0999 V2000
   -2.9523    1.5354   -0.8828 C   0  0  0  0  0  0  0  0  0  0  0  0
   -3.8877    2.1723   -1.6040 N   0  0  0  0  0  0  0  0  0  0  0  0
   -4.7025    2.6774   -2.1884 N   0  0  0  0  0  0  0  0  0  0  0  0
   -2.0228    0.6946   -1.5541 C   0  0  0  0  0  0  0  0  0  0  0  0
   -1.2800   -0.1762   -0.8051 C   0  0  0  0  0  0  0  0  0  0  0  0
   -1.5082   -0.2758    0.5970 C   0  0  0  0  0  0  0  0  0  0  0  0
   -0.8810   -1.2789    1.2052 O   0  0  0  0  0  0  0  0  0  0  0  0
   -1.3735   -1.7055    2.4936 C   0  0  0  0  0  0  0  0  0  0  0  0
   -2.3462    0.6382    1.2592 C   0  0  0  0  0  0  0  0  0  0  0  0
   -3.1111    1.5250    0.5298 C   0  0  0  0  0  0  0  0  0  0  0  0
   -1.9504    0.7195   -2.6354 H   0  0  0  0  0  0  0  0  0  0  0  0
   -0.5868   -0.8699   -1.2658 H   0  0  0  0  0  0  0  0  0  0  0  0
   -0.9022   -2.6707    2.6738 H   0  0  0  0  0  0  0  0  0  0  0  0
   -2.4616   -1.8048    2.4462 H   0  0  0  0  0  0  0  0  0  0  0  0
   -1.0706   -1.0008    3.2753 H   0  0  0  0  0  0  0  0  0  0  0  0
   -2.4929    0.5800    2.3283 H   0  0  0  0  0  0  0  0  0  0  0  0
   -3.8009    2.2028    1.0076 H   0  0  0  0  0  0  0  0  0  0  0  0
   -4.3485   -1.4479    0.8662 O   0  0  0  0  0  0  0  0  0  0  0  0
   -5.0251   -0.6775    0.1660 C   0  0  0  0  0  0  0  0  0  0  0  0
   -5.3463    0.5296    0.3464 O   0  0  0  0  0  0  0  0  0  0  0  0
   -5.4931   -1.2192   -1.2222 C   0  0  0  0  0  0  0  0  0  0  0  0
   -6.8111   -1.0311   -1.4345 F   0  0  0  0  0  0  0  0  0  0  0  0
   -4.8390   -0.5347   -2.2237 F   0  0  0  0  0  0  0  0  0  0  0  0
   -5.2298   -2.5218   -1.4169 F   0  0  0  0  0  0  0  0  0  0  0  0
  1 10  1  0  0  0  0
  2  1  1  0  0  0  0
  3  2  1  0  0  0  0
  4  1  2  0  0  0  0
  4  5  1  0  0  0  0
  5  6  2  0  0  0  0
  6  7  1  0  0  0  0
  6  9  1  0  0  0  0
  7  8  1  0  0  0  0
  8 13  1  0  0  0  0
  8 15  1  0  0  0  0
  9 16  1  0  0  0  0
 10 17  1  0  0  0  0
 10  9  2  0  0  0  0
 11  4  1  0  0  0  0
 12  5  1  0  0  0  0
 14  8  1  0  0  0  0
 19 20  2  0  0  0  0
 19 18  1  0  0  0  0
 21 19  1  0  0  0  0
 22 21  1  0  0  0  0
 23 21  1  0  0  0  0
 24 21  1  0  0  0  0
M  RAD  3   2   2   3   3  18   2
M  END
