Coordinates from ORCA-job 4-MeOPhN2+~CF3COO-_B3LYPG-6-31G_dp-NX-Scan-d89-09-n800
 OpenBabel11261920413D

 24 23  0  0  0  0  0  0  0  0999 V2000
   -1.8377    2.1681   -1.4543 C   0  0  0  0  0  0  0  0  0  0  0  0
   -2.0757    3.2112   -2.2668 N   0  0  0  0  0  0  0  0  0  0  0  0
   -2.2813    4.0919   -2.9420 N   0  0  0  0  0  0  0  0  0  0  0  0
   -0.4891    1.7480   -1.2561 C   0  0  0  0  0  0  0  0  0  0  0  0
   -0.2598    0.6937   -0.4169 C   0  0  0  0  0  0  0  0  0  0  0  0
   -1.3459    0.0397    0.2436 C   0  0  0  0  0  0  0  0  0  0  0  0
   -0.9994   -0.9462    1.0378 O   0  0  0  0  0  0  0  0  0  0  0  0
   -2.0101   -1.6602    1.8121 C   0  0  0  0  0  0  0  0  0  0  0  0
   -2.6886    0.4601    0.0337 C   0  0  0  0  0  0  0  0  0  0  0  0
   -2.9303    1.5137   -0.8114 C   0  0  0  0  0  0  0  0  0  0  0  0
    0.3221    2.2607   -1.7605 H   0  0  0  0  0  0  0  0  0  0  0  0
    0.7456    0.3341   -0.2300 H   0  0  0  0  0  0  0  0  0  0  0  0
   -1.4485   -2.4273    2.3423 H   0  0  0  0  0  0  0  0  0  0  0  0
   -2.7918   -2.0986    1.1708 H   0  0  0  0  0  0  0  0  0  0  0  0
   -2.4704   -0.9660    2.5201 H   0  0  0  0  0  0  0  0  0  0  0  0
   -3.5716   -0.0411    0.4937 H   0  0  0  0  0  0  0  0  0  0  0  0
   -3.9497    1.8405   -0.9904 H   0  0  0  0  0  0  0  0  0  0  0  0
   -4.5934   -2.7492    0.6358 O   0  0  0  0  0  0  0  0  0  0  0  0
   -5.4068   -1.8069    0.7036 C   0  0  0  0  0  0  0  0  0  0  0  0
   -5.2135   -0.5687    0.8410 O   0  0  0  0  0  0  0  0  0  0  0  0
   -6.9154   -2.1819    0.5940 C   0  0  0  0  0  0  0  0  0  0  0  0
   -7.6148   -1.7242    1.6591 F   0  0  0  0  0  0  0  0  0  0  0  0
   -7.4673   -1.6227   -0.5133 F   0  0  0  0  0  0  0  0  0  0  0  0
   -7.1302   -3.5089    0.5162 F   0  0  0  0  0  0  0  0  0  0  0  0
  1  4  2  0  0  0  0
  1 10  1  0  0  0  0
  2  1  1  0  0  0  0
  3  2  1  0  0  0  0
  4  5  1  0  0  0  0
  5 12  1  0  0  0  0
  5  6  2  0  0  0  0
  6  7  1  0  0  0  0
  7  8  1  0  0  0  0
  8 13  1  0  0  0  0
  8 15  1  0  0  0  0
  9  6  1  0  0  0  0
  9 16  1  0  0  0  0
 10  9  2  0  0  0  0
 11  4  1  0  0  0  0
 14  8  1  0  0  0  0
 17 10  1  0  0  0  0
 18 19  2  0  0  0  0
 19 20  1  0  0  0  0
 21 19  1  0  0  0  0
 21 22  1  0  0  0  0
 23 21  1  0  0  0  0
 24 21  1  0  0  0  0
M  RAD  3   2   2   3   3  20   2
M  END
