Coordinates from ORCA-job 4-MeOPhN2+~CF3COO-_B3LYPG-6-31G_dp-NX-Scan-d89-09-n800
 OpenBabel11261920413D

 24 23  0  0  0  0  0  0  0  0999 V2000
   -1.8398    2.1661   -1.4541 C   0  0  0  0  0  0  0  0  0  0  0  0
   -2.0791    3.2081   -2.2676 N   0  0  0  0  0  0  0  0  0  0  0  0
   -2.2863    4.0877   -2.9437 N   0  0  0  0  0  0  0  0  0  0  0  0
   -0.4908    1.7464   -1.2572 C   0  0  0  0  0  0  0  0  0  0  0  0
   -0.2603    0.6930   -0.4173 C   0  0  0  0  0  0  0  0  0  0  0  0
   -1.3454    0.0393    0.2451 C   0  0  0  0  0  0  0  0  0  0  0  0
   -0.9979   -0.9463    1.0392 O   0  0  0  0  0  0  0  0  0  0  0  0
   -2.0081   -1.6605    1.8142 C   0  0  0  0  0  0  0  0  0  0  0  0
   -2.6884    0.4596    0.0368 C   0  0  0  0  0  0  0  0  0  0  0  0
   -2.9314    1.5124   -0.8090 C   0  0  0  0  0  0  0  0  0  0  0  0
    0.3196    2.2586   -1.7632 H   0  0  0  0  0  0  0  0  0  0  0  0
    0.7454    0.3336   -0.2314 H   0  0  0  0  0  0  0  0  0  0  0  0
   -1.4465   -2.4295    2.3417 H   0  0  0  0  0  0  0  0  0  0  0  0
   -2.7915   -2.0964    1.1732 H   0  0  0  0  0  0  0  0  0  0  0  0
   -2.4658   -0.9670    2.5245 H   0  0  0  0  0  0  0  0  0  0  0  0
   -3.5710   -0.0408    0.4983 H   0  0  0  0  0  0  0  0  0  0  0  0
   -3.9511    1.8388   -0.9867 H   0  0  0  0  0  0  0  0  0  0  0  0
   -4.5917   -2.7444    0.6330 O   0  0  0  0  0  0  0  0  0  0  0  0
   -5.4063   -1.8032    0.7030 C   0  0  0  0  0  0  0  0  0  0  0  0
   -5.2144   -0.5654    0.8445 O   0  0  0  0  0  0  0  0  0  0  0  0
   -6.9143   -2.1797    0.5903 C   0  0  0  0  0  0  0  0  0  0  0  0
   -7.6159   -1.7252    1.6554 F   0  0  0  0  0  0  0  0  0  0  0  0
   -7.4651   -1.6185   -0.5165 F   0  0  0  0  0  0  0  0  0  0  0  0
   -7.1275   -3.5067    0.5092 F   0  0  0  0  0  0  0  0  0  0  0  0
  1  4  2  0  0  0  0
  1 10  1  0  0  0  0
  2  1  1  0  0  0  0
  3  2  1  0  0  0  0
  4  5  1  0  0  0  0
  5 12  1  0  0  0  0
  5  6  2  0  0  0  0
  6  7  1  0  0  0  0
  7  8  1  0  0  0  0
  8 13  1  0  0  0  0
  8 15  1  0  0  0  0
  9  6  1  0  0  0  0
  9 16  1  0  0  0  0
 10  9  2  0  0  0  0
 11  4  1  0  0  0  0
 14  8  1  0  0  0  0
 17 10  1  0  0  0  0
 18 19  2  0  0  0  0
 19 20  1  0  0  0  0
 21 19  1  0  0  0  0
 21 22  1  0  0  0  0
 23 21  1  0  0  0  0
 24 21  1  0  0  0  0
M  RAD  3   2   2   3   3  20   2
M  END
