Coordinates from ORCA-job 4-MeOPhN2+~CF3COO-_B3LYPG-6-31G_dp-NX-Scan-d89-09-n800
 OpenBabel11261920413D

 24 23  0  0  0  0  0  0  0  0999 V2000
   -2.6415    0.2811   -1.0354 C   0  0  0  0  0  0  0  0  0  0  0  0
   -3.4749    0.4504   -2.1566 N   0  0  0  0  0  0  0  0  0  0  0  0
   -3.5973    0.6194   -3.2637 N   0  0  0  0  0  0  0  0  0  0  0  0
   -1.4310    0.9963   -1.0306 C   0  0  0  0  0  0  0  0  0  0  0  0
   -0.5751    0.8309    0.0410 C   0  0  0  0  0  0  0  0  0  0  0  0
   -0.9122   -0.0494    1.0904 C   0  0  0  0  0  0  0  0  0  0  0  0
   -0.0056   -0.1347    2.0831 O   0  0  0  0  0  0  0  0  0  0  0  0
   -0.2680   -0.9957    3.1910 C   0  0  0  0  0  0  0  0  0  0  0  0
   -2.1221   -0.7662    1.0505 C   0  0  0  0  0  0  0  0  0  0  0  0
   -3.0009   -0.5926   -0.0106 C   0  0  0  0  0  0  0  0  0  0  0  0
   -1.1859    1.6689   -1.8452 H   0  0  0  0  0  0  0  0  0  0  0  0
    0.3641    1.3689    0.0957 H   0  0  0  0  0  0  0  0  0  0  0  0
    0.5897   -0.8898    3.8556 H   0  0  0  0  0  0  0  0  0  0  0  0
   -0.3552   -2.0400    2.8705 H   0  0  0  0  0  0  0  0  0  0  0  0
   -1.1796   -0.6952    3.7199 H   0  0  0  0  0  0  0  0  0  0  0  0
   -2.3885   -1.4558    1.8416 H   0  0  0  0  0  0  0  0  0  0  0  0
   -3.9313   -1.1437   -0.1019 H   0  0  0  0  0  0  0  0  0  0  0  0
   -5.4900   -1.4083   -1.5452 O   0  0  0  0  0  0  0  0  0  0  0  0
   -5.9687   -0.2933   -1.2968 C   0  0  0  0  0  0  0  0  0  0  0  0
   -5.3584    0.8125   -1.1567 O   0  0  0  0  0  0  0  0  0  0  0  0
   -7.5113   -0.1646   -1.1419 C   0  0  0  0  0  0  0  0  0  0  0  0
   -7.8340    0.4884   -0.0050 F   0  0  0  0  0  0  0  0  0  0  0  0
   -8.0281    0.5340   -2.1765 F   0  0  0  0  0  0  0  0  0  0  0  0
   -8.1178   -1.3615   -1.1114 F   0  0  0  0  0  0  0  0  0  0  0  0
  1  4  2  0  0  0  0
  1 10  1  0  0  0  0
  2  1  1  0  0  0  0
  3  2  2  0  0  0  0
  4  5  1  0  0  0  0
  5 12  1  0  0  0  0
  5  6  2  0  0  0  0
  6  7  1  0  0  0  0
  7  8  1  0  0  0  0
  8 15  1  0  0  0  0
  8 13  1  0  0  0  0
  9  6  1  0  0  0  0
  9 16  1  0  0  0  0
 10  9  2  0  0  0  0
 11  4  1  0  0  0  0
 14  8  1  0  0  0  0
 17 10  1  0  0  0  0
 18 19  2  0  0  0  0
 19 20  1  0  0  0  0
 19 21  1  0  0  0  0
 21 24  1  0  0  0  0
 21 22  1  0  0  0  0
 23 21  1  0  0  0  0
M  RAD  2   3   2  20   2
M  END
