Coordinates from ORCA-job 4-MeOPhN2+~CF3COO-_B3LYPG-6-31G_dp-NX-Scan-d89-09-n800
 OpenBabel11261920413D

 24 23  0  0  0  0  0  0  0  0999 V2000
   -2.6420    0.2525   -1.0428 C   0  0  0  0  0  0  0  0  0  0  0  0
   -3.4716    0.4109   -2.1643 N   0  0  0  0  0  0  0  0  0  0  0  0
   -3.6343    0.5629   -3.2666 N   0  0  0  0  0  0  0  0  0  0  0  0
   -1.4430    0.9869   -1.0318 C   0  0  0  0  0  0  0  0  0  0  0  0
   -0.5895    0.8325    0.0433 C   0  0  0  0  0  0  0  0  0  0  0  0
   -0.9188   -0.0527    1.0910 C   0  0  0  0  0  0  0  0  0  0  0  0
   -0.0155   -0.1260    2.0872 O   0  0  0  0  0  0  0  0  0  0  0  0
   -0.2711   -0.9896    3.1949 C   0  0  0  0  0  0  0  0  0  0  0  0
   -2.1191   -0.7860    1.0463 C   0  0  0  0  0  0  0  0  0  0  0  0
   -2.9947   -0.6256   -0.0188 C   0  0  0  0  0  0  0  0  0  0  0  0
   -1.2039    1.6638   -1.8446 H   0  0  0  0  0  0  0  0  0  0  0  0
    0.3421    1.3831    0.1022 H   0  0  0  0  0  0  0  0  0  0  0  0
    0.5828   -0.8723    3.8625 H   0  0  0  0  0  0  0  0  0  0  0  0
   -0.3437   -2.0351    2.8746 H   0  0  0  0  0  0  0  0  0  0  0  0
   -1.1883   -0.7003    3.7202 H   0  0  0  0  0  0  0  0  0  0  0  0
   -2.3805   -1.4770    1.8377 H   0  0  0  0  0  0  0  0  0  0  0  0
   -3.9215   -1.1817   -0.1137 H   0  0  0  0  0  0  0  0  0  0  0  0
   -5.4463   -1.3175   -1.6096 O   0  0  0  0  0  0  0  0  0  0  0  0
   -5.9526   -0.2268   -1.2955 C   0  0  0  0  0  0  0  0  0  0  0  0
   -5.3665    0.8786   -1.1051 O   0  0  0  0  0  0  0  0  0  0  0  0
   -7.4979   -0.1554   -1.1343 C   0  0  0  0  0  0  0  0  0  0  0  0
   -7.8446    0.4985   -0.0056 F   0  0  0  0  0  0  0  0  0  0  0  0
   -8.0429    0.5102   -2.1771 F   0  0  0  0  0  0  0  0  0  0  0  0
   -8.0605   -1.3741   -1.0881 F   0  0  0  0  0  0  0  0  0  0  0  0
  1  4  2  0  0  0  0
  1 10  1  0  0  0  0
  2  1  1  0  0  0  0
  3  2  2  0  0  0  0
  4  5  1  0  0  0  0
  5 12  1  0  0  0  0
  5  6  2  0  0  0  0
  6  7  1  0  0  0  0
  7  8  1  0  0  0  0
  8 15  1  0  0  0  0
  8 13  1  0  0  0  0
  9  6  1  0  0  0  0
  9 16  1  0  0  0  0
 10  9  2  0  0  0  0
 11  4  1  0  0  0  0
 14  8  1  0  0  0  0
 17 10  1  0  0  0  0
 18 19  2  0  0  0  0
 19 21  1  0  0  0  0
 19 20  1  0  0  0  0
 21 24  1  0  0  0  0
 21 22  1  0  0  0  0
 23 21  1  0  0  0  0
M  RAD  2   3   2  20   2
M  END
