Coordinates from ORCA-job 4-MeOPhN2+~CF3COO-_B3LYPG-6-31G_dp-NX-Scan-d89-09-n800
 OpenBabel11261920413D

 24 23  0  0  0  0  0  0  0  0999 V2000
   -1.8808   -1.0752    0.4584 C   0  0  0  0  0  0  0  0  0  0  0  0
   -2.0789   -2.3326    1.0300 N   0  0  0  0  0  0  0  0  0  0  0  0
   -2.8863   -3.1238    1.3097 N   0  0  0  0  0  0  0  0  0  0  0  0
   -0.5550   -0.6021    0.4433 C   0  0  0  0  0  0  0  0  0  0  0  0
   -0.2758    0.6364   -0.0982 C   0  0  0  0  0  0  0  0  0  0  0  0
   -1.3179    1.4197   -0.6339 C   0  0  0  0  0  0  0  0  0  0  0  0
   -0.9449    2.6118   -1.1399 O   0  0  0  0  0  0  0  0  0  0  0  0
   -1.9378    3.4720   -1.6986 C   0  0  0  0  0  0  0  0  0  0  0  0
   -2.6412    0.9412   -0.6167 C   0  0  0  0  0  0  0  0  0  0  0  0
   -2.9301   -0.3040   -0.0748 C   0  0  0  0  0  0  0  0  0  0  0  0
    0.2324   -1.2191    0.8618 H   0  0  0  0  0  0  0  0  0  0  0  0
    0.7342    1.0298   -0.1228 H   0  0  0  0  0  0  0  0  0  0  0  0
   -1.4032    4.3614   -2.0315 H   0  0  0  0  0  0  0  0  0  0  0  0
   -2.6855    3.7542   -0.9492 H   0  0  0  0  0  0  0  0  0  0  0  0
   -2.4333    3.0027   -2.5556 H   0  0  0  0  0  0  0  0  0  0  0  0
   -3.4510    1.5324   -1.0252 H   0  0  0  0  0  0  0  0  0  0  0  0
   -3.9414   -0.6891   -0.0519 H   0  0  0  0  0  0  0  0  0  0  0  0
   -4.5569   -2.5782    0.6969 O   0  0  0  0  0  0  0  0  0  0  0  0
   -5.4527   -2.7309    1.6305 C   0  0  0  0  0  0  0  0  0  0  0  0
   -5.3243   -3.0902    2.7830 O   0  0  0  0  0  0  0  0  0  0  0  0
   -6.8526   -2.3384    1.0733 C   0  0  0  0  0  0  0  0  0  0  0  0
   -7.7901   -2.3742    2.0264 F   0  0  0  0  0  0  0  0  0  0  0  0
   -6.8200   -1.0793    0.5687 F   0  0  0  0  0  0  0  0  0  0  0  0
   -7.2307   -3.1646    0.0784 F   0  0  0  0  0  0  0  0  0  0  0  0
  1  2  1  0  0  0  0
  2  3  2  0  0  0  0
  4  1  1  0  0  0  0
  4 11  1  0  0  0  0
  5  4  2  0  0  0  0
  6  9  2  0  0  0  0
  6  5  1  0  0  0  0
  7  6  1  0  0  0  0
  8  7  1  0  0  0  0
  8 14  1  0  0  0  0
  9 10  1  0  0  0  0
 10 17  1  0  0  0  0
 10  1  2  0  0  0  0
 12  5  1  0  0  0  0
 13  8  1  0  0  0  0
 15  8  1  0  0  0  0
 16  9  1  0  0  0  0
 18 19  2  0  0  0  0
 19 20  1  0  0  0  0
 21 19  1  0  0  0  0
 21 22  1  0  0  0  0
 23 21  1  0  0  0  0
 24 21  1  0  0  0  0
M  RAD  2   3   2  20   2
M  END
