Coordinates from ORCA-job 4-MeOPhN2+~CF3COO-_B3LYPG-6-31G_dp-NX-Scan-d89-09-n800
 OpenBabel11261920413D

 24 24  0  0  0  0  0  0  0  0999 V2000
   -2.0502   -0.9771    0.6952 C   0  0  0  0  0  0  0  0  0  0  0  0
   -2.1460   -2.1808    1.4370 N   0  0  0  0  0  0  0  0  0  0  0  0
   -3.1914   -2.8099    1.7193 N   0  0  0  0  0  0  0  0  0  0  0  0
   -0.7074   -0.6631    0.3854 C   0  0  0  0  0  0  0  0  0  0  0  0
   -0.3704    0.4755   -0.3209 C   0  0  0  0  0  0  0  0  0  0  0  0
   -1.3780    1.3658   -0.7293 C   0  0  0  0  0  0  0  0  0  0  0  0
   -0.9583    2.4589   -1.4137 O   0  0  0  0  0  0  0  0  0  0  0  0
   -1.9269    3.4016   -1.8563 C   0  0  0  0  0  0  0  0  0  0  0  0
   -2.7158    1.0870   -0.4133 C   0  0  0  0  0  0  0  0  0  0  0  0
   -3.0519   -0.0719    0.2844 C   0  0  0  0  0  0  0  0  0  0  0  0
    0.0578   -1.3549    0.7207 H   0  0  0  0  0  0  0  0  0  0  0  0
    0.6605    0.7078   -0.5654 H   0  0  0  0  0  0  0  0  0  0  0  0
   -1.3701    4.1769   -2.3838 H   0  0  0  0  0  0  0  0  0  0  0  0
   -2.4643    3.8517   -1.0131 H   0  0  0  0  0  0  0  0  0  0  0  0
   -2.6493    2.9429   -2.5430 H   0  0  0  0  0  0  0  0  0  0  0  0
   -3.5078    1.7646   -0.7088 H   0  0  0  0  0  0  0  0  0  0  0  0
   -4.0926   -0.2445    0.5105 H   0  0  0  0  0  0  0  0  0  0  0  0
   -4.2571   -2.3265    1.2787 O   0  0  0  0  0  0  0  0  0  0  0  0
   -5.4148   -2.9942    1.6300 C   0  0  0  0  0  0  0  0  0  0  0  0
   -5.5134   -3.9347    2.3544 O   0  0  0  0  0  0  0  0  0  0  0  0
   -6.5844   -2.3105    0.8926 C   0  0  0  0  0  0  0  0  0  0  0  0
   -7.7440   -2.7909    1.3347 F   0  0  0  0  0  0  0  0  0  0  0  0
   -6.5598   -0.9775    1.0947 F   0  0  0  0  0  0  0  0  0  0  0  0
   -6.4883   -2.5363   -0.4281 F   0  0  0  0  0  0  0  0  0  0  0  0
  1  2  1  0  0  0  0
  2  3  2  0  0  0  0
  4  1  1  0  0  0  0
  4 11  1  0  0  0  0
  5  4  2  0  0  0  0
  6  9  2  0  0  0  0
  6  5  1  0  0  0  0
  7  6  1  0  0  0  0
  8  7  1  0  0  0  0
  8 14  1  0  0  0  0
  9 10  1  0  0  0  0
 10 17  1  0  0  0  0
 10  1  2  0  0  0  0
 12  5  1  0  0  0  0
 13  8  1  0  0  0  0
 15  8  1  0  0  0  0
 16  9  1  0  0  0  0
 18 19  1  0  0  0  0
 18  3  1  0  0  0  0
 19 20  2  0  0  0  0
 21 23  1  0  0  0  0
 21 22  1  0  0  0  0
 21 19  1  0  0  0  0
 24 21  1  0  0  0  0
M  END
