Coordinates from ORCA-job 4-MeOPhN2+~CF3COO-_B3LYPG-6-31G_dp-NX-Scan-d89-09-n800
 OpenBabel11261920413D

 24 23  0  0  0  0  0  0  0  0999 V2000
   -1.9504    2.0766   -1.4309 C   0  0  0  0  0  0  0  0  0  0  0  0
   -2.2558    3.0743   -2.2764 N   0  0  0  0  0  0  0  0  0  0  0  0
   -2.5277    3.9153   -2.9775 N   0  0  0  0  0  0  0  0  0  0  0  0
   -0.5926    1.6533   -1.3247 C   0  0  0  0  0  0  0  0  0  0  0  0
   -0.3021    0.6314   -0.4642 C   0  0  0  0  0  0  0  0  0  0  0  0
   -1.3369    0.0095    0.3012 C   0  0  0  0  0  0  0  0  0  0  0  0
   -0.9414   -0.9667    1.0854 O   0  0  0  0  0  0  0  0  0  0  0  0
   -1.9116   -1.6749    1.9151 C   0  0  0  0  0  0  0  0  0  0  0  0
   -2.6844    0.4478    0.1957 C   0  0  0  0  0  0  0  0  0  0  0  0
   -2.9896    1.4668   -0.6694 C   0  0  0  0  0  0  0  0  0  0  0  0
    0.1778    2.1358   -1.9156 H   0  0  0  0  0  0  0  0  0  0  0  0
    0.7123    0.2673   -0.3481 H   0  0  0  0  0  0  0  0  0  0  0  0
   -1.3369   -2.4763    2.3760 H   0  0  0  0  0  0  0  0  0  0  0  0
   -2.7479   -2.0605    1.3086 H   0  0  0  0  0  0  0  0  0  0  0  0
   -2.2902   -0.9911    2.6798 H   0  0  0  0  0  0  0  0  0  0  0  0
   -3.5377   -0.0119    0.7378 H   0  0  0  0  0  0  0  0  0  0  0  0
   -4.0195    1.7931   -0.7730 H   0  0  0  0  0  0  0  0  0  0  0  0
   -4.5011   -2.5373    0.5162 O   0  0  0  0  0  0  0  0  0  0  0  0
   -5.3642   -1.6532    0.6917 C   0  0  0  0  0  0  0  0  0  0  0  0
   -5.2353   -0.4512    1.0445 O   0  0  0  0  0  0  0  0  0  0  0  0
   -6.8394   -2.0619    0.4005 C   0  0  0  0  0  0  0  0  0  0  0  0
   -7.6727   -1.6718    1.3912 F   0  0  0  0  0  0  0  0  0  0  0  0
   -7.2738   -1.4657   -0.7417 F   0  0  0  0  0  0  0  0  0  0  0  0
   -7.0025   -3.3889    0.2398 F   0  0  0  0  0  0  0  0  0  0  0  0
  1  4  2  0  0  0  0
  1 10  1  0  0  0  0
  2  1  1  0  0  0  0
  3  2  1  0  0  0  0
  4  5  1  0  0  0  0
  5 12  1  0  0  0  0
  5  6  2  0  0  0  0
  6  7  1  0  0  0  0
  7  8  1  0  0  0  0
  8 13  1  0  0  0  0
  8 15  1  0  0  0  0
  9  6  1  0  0  0  0
  9 16  1  0  0  0  0
 10  9  2  0  0  0  0
 11  4  1  0  0  0  0
 14  8  1  0  0  0  0
 17 10  1  0  0  0  0
 18 19  2  0  0  0  0
 19 20  1  0  0  0  0
 21 19  1  0  0  0  0
 21 22  1  0  0  0  0
 23 21  1  0  0  0  0
 24 21  1  0  0  0  0
M  RAD  3   2   2   3   3  20   2
M  END
