Coordinates from ORCA-job 4-MeOPhN2+~CF3COO-_B3LYPG-6-31G_dp-NX-Scan-d89-09-n800
 OpenBabel11261920413D

 24 23  0  0  0  0  0  0  0  0999 V2000
   -1.9872    2.0397   -1.4251 C   0  0  0  0  0  0  0  0  0  0  0  0
   -2.3215    3.0091   -2.2923 N   0  0  0  0  0  0  0  0  0  0  0  0
   -2.6240    3.8240   -3.0112 N   0  0  0  0  0  0  0  0  0  0  0  0
   -0.6240    1.6313   -1.3341 C   0  0  0  0  0  0  0  0  0  0  0  0
   -0.3093    0.6280   -0.4599 C   0  0  0  0  0  0  0  0  0  0  0  0
   -1.3263    0.0078    0.3301 C   0  0  0  0  0  0  0  0  0  0  0  0
   -0.9142   -0.9631    1.1130 O   0  0  0  0  0  0  0  0  0  0  0  0
   -1.8788   -1.6852    1.9383 C   0  0  0  0  0  0  0  0  0  0  0  0
   -2.6767    0.4401    0.2468 C   0  0  0  0  0  0  0  0  0  0  0  0
   -3.0069    1.4398   -0.6310 C   0  0  0  0  0  0  0  0  0  0  0  0
    0.1314    2.1083   -1.9483 H   0  0  0  0  0  0  0  0  0  0  0  0
    0.7100    0.2735   -0.3565 H   0  0  0  0  0  0  0  0  0  0  0  0
   -1.3099   -2.5121    2.3596 H   0  0  0  0  0  0  0  0  0  0  0  0
   -2.7303   -2.0320    1.3304 H   0  0  0  0  0  0  0  0  0  0  0  0
   -2.2302   -1.0218    2.7334 H   0  0  0  0  0  0  0  0  0  0  0  0
   -3.5187   -0.0097    0.8104 H   0  0  0  0  0  0  0  0  0  0  0  0
   -4.0418    1.7545   -0.7192 H   0  0  0  0  0  0  0  0  0  0  0  0
   -4.4771   -2.4690    0.4945 O   0  0  0  0  0  0  0  0  0  0  0  0
   -5.3539   -1.6009    0.6842 C   0  0  0  0  0  0  0  0  0  0  0  0
   -5.2445   -0.4118    1.0837 O   0  0  0  0  0  0  0  0  0  0  0  0
   -6.8176   -2.0124    0.3435 C   0  0  0  0  0  0  0  0  0  0  0  0
   -7.6762   -1.6754    1.3318 F   0  0  0  0  0  0  0  0  0  0  0  0
   -7.2339   -1.3703   -0.7808 F   0  0  0  0  0  0  0  0  0  0  0  0
   -6.9621   -3.3324    0.1205 F   0  0  0  0  0  0  0  0  0  0  0  0
  1  4  2  0  0  0  0
  1 10  1  0  0  0  0
  2  1  1  0  0  0  0
  3  2  1  0  0  0  0
  4  5  1  0  0  0  0
  5 12  1  0  0  0  0
  5  6  2  0  0  0  0
  6  7  1  0  0  0  0
  7  8  1  0  0  0  0
  8 13  1  0  0  0  0
  8 15  1  0  0  0  0
  9  6  1  0  0  0  0
  9 16  1  0  0  0  0
 10  9  2  0  0  0  0
 11  4  1  0  0  0  0
 14  8  1  0  0  0  0
 17 10  1  0  0  0  0
 18 19  2  0  0  0  0
 19 20  1  0  0  0  0
 21 19  1  0  0  0  0
 21 22  1  0  0  0  0
 23 21  1  0  0  0  0
 24 21  1  0  0  0  0
M  RAD  3   2   2   3   3  20   2
M  END
