Coordinates from ORCA-job 4-MeOPhN2+~CF3COO-_B3LYPG-6-31G_dp-NX-Scan-d89-09-n800
 OpenBabel11261920413D

 24 23  0  0  0  0  0  0  0  0999 V2000
   -2.2774    1.8438   -1.3505 C   0  0  0  0  0  0  0  0  0  0  0  0
   -2.7515    2.7381   -2.2340 N   0  0  0  0  0  0  0  0  0  0  0  0
   -3.1673    3.4914   -2.9623 N   0  0  0  0  0  0  0  0  0  0  0  0
   -0.9289    1.3974   -1.4736 C   0  0  0  0  0  0  0  0  0  0  0  0
   -0.4797    0.4515   -0.5935 C   0  0  0  0  0  0  0  0  0  0  0  0
   -1.3510   -0.0768    0.4082 C   0  0  0  0  0  0  0  0  0  0  0  0
   -0.8370   -1.0228    1.1633 O   0  0  0  0  0  0  0  0  0  0  0  0
   -1.6778   -1.6871    2.1534 C   0  0  0  0  0  0  0  0  0  0  0  0
   -2.6741    0.4122    0.5450 C   0  0  0  0  0  0  0  0  0  0  0  0
   -3.1458    1.3492   -0.3372 C   0  0  0  0  0  0  0  0  0  0  0  0
   -0.2901    1.7972   -2.2533 H   0  0  0  0  0  0  0  0  0  0  0  0
    0.5314    0.0653   -0.6530 H   0  0  0  0  0  0  0  0  0  0  0  0
   -1.0720   -2.5184    2.5100 H   0  0  0  0  0  0  0  0  0  0  0  0
   -2.6133   -2.0231    1.6819 H   0  0  0  0  0  0  0  0  0  0  0  0
   -1.8831   -0.9918    2.9723 H   0  0  0  0  0  0  0  0  0  0  0  0
   -3.4078    0.0244    1.2609 H   0  0  0  0  0  0  0  0  0  0  0  0
   -4.1805    1.6678   -0.2668 H   0  0  0  0  0  0  0  0  0  0  0  0
   -4.3083   -2.2090    0.5602 O   0  0  0  0  0  0  0  0  0  0  0  0
   -5.2404   -1.3884    0.7091 C   0  0  0  0  0  0  0  0  0  0  0  0
   -5.2753   -0.3112    1.3549 O   0  0  0  0  0  0  0  0  0  0  0  0
   -6.5389   -1.6846   -0.0997 C   0  0  0  0  0  0  0  0  0  0  0  0
   -7.6586   -1.4051    0.5998 F   0  0  0  0  0  0  0  0  0  0  0  0
   -6.5626   -0.8990   -1.2158 F   0  0  0  0  0  0  0  0  0  0  0  0
   -6.6337   -2.9612   -0.5174 F   0  0  0  0  0  0  0  0  0  0  0  0
  1 10  1  0  0  0  0
  2  1  1  0  0  0  0
  3  2  1  0  0  0  0
  4  1  2  0  0  0  0
  4  5  1  0  0  0  0
  5  6  2  0  0  0  0
  6  9  1  0  0  0  0
  6  7  1  0  0  0  0
  7  8  1  0  0  0  0
  8 13  1  0  0  0  0
  8 15  1  0  0  0  0
  9 16  1  0  0  0  0
 10 17  1  0  0  0  0
 10  9  2  0  0  0  0
 11  4  1  0  0  0  0
 12  5  1  0  0  0  0
 14  8  1  0  0  0  0
 18 19  2  0  0  0  0
 19 20  1  0  0  0  0
 21 22  1  0  0  0  0
 21 19  1  0  0  0  0
 23 21  1  0  0  0  0
 24 21  1  0  0  0  0
M  RAD  3   2   2   3   3  20   2
M  END
