Coordinates from ORCA-job 4-MeOPhN2+~CF3COO-_B3LYPG-6-31G_dp-NX-Scan-d89-09-n800
 OpenBabel11261920413D

 24 23  0  0  0  0  0  0  0  0999 V2000
   -2.8963    1.7620   -0.9103 C   0  0  0  0  0  0  0  0  0  0  0  0
   -3.6822    2.6029   -1.5948 N   0  0  0  0  0  0  0  0  0  0  0  0
   -4.3735    3.3014   -2.1444 N   0  0  0  0  0  0  0  0  0  0  0  0
   -1.9533    0.9592   -1.6127 C   0  0  0  0  0  0  0  0  0  0  0  0
   -1.3074   -0.0273   -0.9220 C   0  0  0  0  0  0  0  0  0  0  0  0
   -1.6145   -0.2587    0.4522 C   0  0  0  0  0  0  0  0  0  0  0  0
   -1.0295   -1.3277    0.9864 O   0  0  0  0  0  0  0  0  0  0  0  0
   -1.5276   -1.8305    2.2465 C   0  0  0  0  0  0  0  0  0  0  0  0
   -2.4767    0.5986    1.1544 C   0  0  0  0  0  0  0  0  0  0  0  0
   -3.1749    1.5787    0.4729 C   0  0  0  0  0  0  0  0  0  0  0  0
   -1.7861    1.1163   -2.6721 H   0  0  0  0  0  0  0  0  0  0  0  0
   -0.6061   -0.6932   -1.4110 H   0  0  0  0  0  0  0  0  0  0  0  0
   -1.0468   -2.7991    2.3743 H   0  0  0  0  0  0  0  0  0  0  0  0
   -2.6157   -1.9317    2.1935 H   0  0  0  0  0  0  0  0  0  0  0  0
   -1.2342   -1.1659    3.0659 H   0  0  0  0  0  0  0  0  0  0  0  0
   -2.7212    0.4154    2.1891 H   0  0  0  0  0  0  0  0  0  0  0  0
   -3.8722    2.2273    0.9798 H   0  0  0  0  0  0  0  0  0  0  0  0
   -4.6510   -1.1179    1.3745 O   0  0  0  0  0  0  0  0  0  0  0  0
   -5.1113   -0.6204    0.3310 C   0  0  0  0  0  0  0  0  0  0  0  0
   -5.3289    0.5877    0.0391 O   0  0  0  0  0  0  0  0  0  0  0  0
   -5.3279   -1.6011   -0.8586 C   0  0  0  0  0  0  0  0  0  0  0  0
   -6.3720   -1.2652   -1.6430 F   0  0  0  0  0  0  0  0  0  0  0  0
   -4.2125   -1.5725   -1.6538 F   0  0  0  0  0  0  0  0  0  0  0  0
   -5.5017   -2.8784   -0.4749 F   0  0  0  0  0  0  0  0  0  0  0  0
  1 10  2  0  0  0  0
  2  1  1  0  0  0  0
  3  2  1  0  0  0  0
  4  5  2  0  0  0  0
  4  1  1  0  0  0  0
  5  6  1  0  0  0  0
  6  7  1  0  0  0  0
  6  9  2  0  0  0  0
  7  8  1  0  0  0  0
  8 13  1  0  0  0  0
  8 15  1  0  0  0  0
  9 16  1  0  0  0  0
 10 17  1  0  0  0  0
 10  9  1  0  0  0  0
 11  4  1  0  0  0  0
 12  5  1  0  0  0  0
 14  8  1  0  0  0  0
 19 18  1  0  0  0  0
 20 19  2  0  0  0  0
 21 24  1  0  0  0  0
 21 19  1  0  0  0  0
 22 21  1  0  0  0  0
 23 21  1  0  0  0  0
M  RAD  3   2   2   3   3  18   2
M  END
