Coordinates from ORCA-job 4-MeOPhN2+~CF3COO-_B3LYPG-6-31G_dp-NX-Scan-d89-09-n800
 OpenBabel11261920413D

 24 24  0  0  0  0  0  0  0  0999 V2000
   -1.9980   -0.9845    0.6170 C   0  0  0  0  0  0  0  0  0  0  0  0
   -2.1299   -2.2031    1.3052 N   0  0  0  0  0  0  0  0  0  0  0  0
   -3.0850   -2.8804    1.6344 N   0  0  0  0  0  0  0  0  0  0  0  0
   -0.6497   -0.6316    0.3885 C   0  0  0  0  0  0  0  0  0  0  0  0
   -0.3167    0.5365   -0.2685 C   0  0  0  0  0  0  0  0  0  0  0  0
   -1.3337    1.4010   -0.7113 C   0  0  0  0  0  0  0  0  0  0  0  0
   -0.9172    2.5215   -1.3437 O   0  0  0  0  0  0  0  0  0  0  0  0
   -1.8906    3.4437   -1.8244 C   0  0  0  0  0  0  0  0  0  0  0  0
   -2.6792    1.0694   -0.4802 C   0  0  0  0  0  0  0  0  0  0  0  0
   -3.0139   -0.1119    0.1737 C   0  0  0  0  0  0  0  0  0  0  0  0
    0.1200   -1.3085    0.7430 H   0  0  0  0  0  0  0  0  0  0  0  0
    0.7164    0.8106   -0.4522 H   0  0  0  0  0  0  0  0  0  0  0  0
   -1.3284    4.2501   -2.2958 H   0  0  0  0  0  0  0  0  0  0  0  0
   -2.4936    3.8520   -1.0052 H   0  0  0  0  0  0  0  0  0  0  0  0
   -2.5500    2.9781   -2.5666 H   0  0  0  0  0  0  0  0  0  0  0  0
   -3.4756    1.7256   -0.8093 H   0  0  0  0  0  0  0  0  0  0  0  0
   -4.0539   -0.3448    0.3414 H   0  0  0  0  0  0  0  0  0  0  0  0
   -4.3821   -2.3050    1.1776 O   0  0  0  0  0  0  0  0  0  0  0  0
   -5.4562   -2.9531    1.6595 C   0  0  0  0  0  0  0  0  0  0  0  0
   -5.5057   -3.8386    2.4666 O   0  0  0  0  0  0  0  0  0  0  0  0
   -6.7163   -2.3745    0.9668 C   0  0  0  0  0  0  0  0  0  0  0  0
   -7.8202   -2.7538    1.6113 F   0  0  0  0  0  0  0  0  0  0  0  0
   -6.6802   -1.0246    0.9375 F   0  0  0  0  0  0  0  0  0  0  0  0
   -6.7839   -2.8143   -0.3034 F   0  0  0  0  0  0  0  0  0  0  0  0
  1  2  1  0  0  0  0
  2  3  1  0  0  0  0
  4  1  1  0  0  0  0
  4 11  1  0  0  0  0
  5  4  2  0  0  0  0
  6  9  2  0  0  0  0
  6  5  1  0  0  0  0
  7  6  1  0  0  0  0
  8  7  1  0  0  0  0
  8 14  1  0  0  0  0
  9 10  1  0  0  0  0
 10 17  1  0  0  0  0
 10  1  2  0  0  0  0
 12  5  1  0  0  0  0
 13  8  1  0  0  0  0
 15  8  1  0  0  0  0
 16  9  1  0  0  0  0
 18  3  1  0  0  0  0
 18 19  1  0  0  0  0
 19 20  2  0  0  0  0
 21 22  1  0  0  0  0
 21 19  1  0  0  0  0
 23 21  1  0  0  0  0
 24 21  1  0  0  0  0
M  RAD  2   2   2   3   2
M  END
