Coordinates from ORCA-job 4-MeOPhN2+~CF3COO-_B3LYPG-6-31G_dp-NX-Scan-d89-09-n800
 OpenBabel11261920413D

 24 23  0  0  0  0  0  0  0  0999 V2000
   -1.8821    2.1267   -1.4476 C   0  0  0  0  0  0  0  0  0  0  0  0
   -2.1495    3.1464   -2.2801 N   0  0  0  0  0  0  0  0  0  0  0  0
   -2.3856    4.0060   -2.9719 N   0  0  0  0  0  0  0  0  0  0  0  0
   -0.5277    1.7119   -1.2809 C   0  0  0  0  0  0  0  0  0  0  0  0
   -0.2723    0.6744   -0.4282 C   0  0  0  0  0  0  0  0  0  0  0  0
   -1.3383    0.0301    0.2733 C   0  0  0  0  0  0  0  0  0  0  0  0
   -0.9710   -0.9507    1.0649 O   0  0  0  0  0  0  0  0  0  0  0  0
   -1.9681   -1.6669    1.8553 C   0  0  0  0  0  0  0  0  0  0  0  0
   -2.6850    0.4529    0.1019 C   0  0  0  0  0  0  0  0  0  0  0  0
   -2.9538    1.4885   -0.7564 C   0  0  0  0  0  0  0  0  0  0  0  0
    0.2675    2.2141   -1.8201 H   0  0  0  0  0  0  0  0  0  0  0  0
    0.7384    0.3176   -0.2660 H   0  0  0  0  0  0  0  0  0  0  0  0
   -1.4070   -2.4660    2.3365 H   0  0  0  0  0  0  0  0  0  0  0  0
   -2.7832   -2.0596    1.2251 H   0  0  0  0  0  0  0  0  0  0  0  0
   -2.3792   -0.9857    2.6052 H   0  0  0  0  0  0  0  0  0  0  0  0
   -3.5582   -0.0307    0.5945 H   0  0  0  0  0  0  0  0  0  0  0  0
   -3.9793    1.8102   -0.9081 H   0  0  0  0  0  0  0  0  0  0  0  0
   -4.5557   -2.6503    0.5758 O   0  0  0  0  0  0  0  0  0  0  0  0
   -5.3934   -1.7335    0.6915 C   0  0  0  0  0  0  0  0  0  0  0  0
   -5.2301   -0.5047    0.9181 O   0  0  0  0  0  0  0  0  0  0  0  0
   -6.8890   -2.1341    0.5162 C   0  0  0  0  0  0  0  0  0  0  0  0
   -7.6349   -1.7341    1.5725 F   0  0  0  0  0  0  0  0  0  0  0  0
   -7.4138   -1.5416   -0.5875 F   0  0  0  0  0  0  0  0  0  0  0  0
   -7.0724   -3.4608    0.3777 F   0  0  0  0  0  0  0  0  0  0  0  0
  1  4  2  0  0  0  0
  1 10  1  0  0  0  0
  2  1  1  0  0  0  0
  3  2  1  0  0  0  0
  4  5  1  0  0  0  0
  5 12  1  0  0  0  0
  5  6  2  0  0  0  0
  6  7  1  0  0  0  0
  7  8  1  0  0  0  0
  8 13  1  0  0  0  0
  8 15  1  0  0  0  0
  9  6  1  0  0  0  0
  9 16  1  0  0  0  0
 10  9  2  0  0  0  0
 11  4  1  0  0  0  0
 14  8  1  0  0  0  0
 17 10  1  0  0  0  0
 18 19  2  0  0  0  0
 19 20  1  0  0  0  0
 21 19  1  0  0  0  0
 21 22  1  0  0  0  0
 23 21  1  0  0  0  0
 24 21  1  0  0  0  0
M  RAD  3   2   2   3   3  20   2
M  END
