Coordinates from ORCA-job 4-MeOPhN2+~CF3COO-_B3LYPG-6-31G_dp-NX-Scan-d89-09-n800
 OpenBabel11261920413D

 24 23  0  0  0  0  0  0  0  0999 V2000
   -1.7533    2.2409   -1.4703 C   0  0  0  0  0  0  0  0  0  0  0  0
   -1.9372    3.3169   -2.2544 N   0  0  0  0  0  0  0  0  0  0  0  0
   -2.0867    4.2266   -2.9064 N   0  0  0  0  0  0  0  0  0  0  0  0
   -0.4178    1.8299   -1.1829 C   0  0  0  0  0  0  0  0  0  0  0  0
   -0.2381    0.7516   -0.3629 C   0  0  0  0  0  0  0  0  0  0  0  0
   -1.3612    0.0666    0.1963 C   0  0  0  0  0  0  0  0  0  0  0  0
   -1.0596   -0.9251    1.0005 O   0  0  0  0  0  0  0  0  0  0  0  0
   -2.1089   -1.6576    1.7033 C   0  0  0  0  0  0  0  0  0  0  0  0
   -2.6922    0.4667   -0.1144 C   0  0  0  0  0  0  0  0  0  0  0  0
   -2.8828    1.5471   -0.9400 C   0  0  0  0  0  0  0  0  0  0  0  0
    0.4219    2.3697   -1.6055 H   0  0  0  0  0  0  0  0  0  0  0  0
    0.7552    0.4001   -0.1080 H   0  0  0  0  0  0  0  0  0  0  0  0
   -1.5680   -2.3610    2.3339 H   0  0  0  0  0  0  0  0  0  0  0  0
   -2.7927   -2.1775    1.0175 H   0  0  0  0  0  0  0  0  0  0  0  0
   -2.6912   -0.9599    2.3094 H   0  0  0  0  0  0  0  0  0  0  0  0
   -3.5873   -0.0747    0.2728 H   0  0  0  0  0  0  0  0  0  0  0  0
   -3.8880    1.8709   -1.1897 H   0  0  0  0  0  0  0  0  0  0  0  0
   -4.6590   -2.9382    0.7367 O   0  0  0  0  0  0  0  0  0  0  0  0
   -5.4217   -1.9531    0.7276 C   0  0  0  0  0  0  0  0  0  0  0  0
   -5.1688   -0.7174    0.6965 O   0  0  0  0  0  0  0  0  0  0  0  0
   -6.9506   -2.2557    0.7669 C   0  0  0  0  0  0  0  0  0  0  0  0
   -7.5264   -1.7077    1.8648 F   0  0  0  0  0  0  0  0  0  0  0  0
   -7.5764   -1.7270   -0.3144 F   0  0  0  0  0  0  0  0  0  0  0  0
   -7.2330   -3.5721    0.7846 F   0  0  0  0  0  0  0  0  0  0  0  0
  1  4  2  0  0  0  0
  1 10  1  0  0  0  0
  2  1  1  0  0  0  0
  3  2  1  0  0  0  0
  4  5  1  0  0  0  0
  5 12  1  0  0  0  0
  5  6  2  0  0  0  0
  6  7  1  0  0  0  0
  7  8  1  0  0  0  0
  8 15  1  0  0  0  0
  8 13  1  0  0  0  0
  9  6  1  0  0  0  0
  9 16  1  0  0  0  0
 10  9  2  0  0  0  0
 11  4  1  0  0  0  0
 14  8  1  0  0  0  0
 17 10  1  0  0  0  0
 19 18  1  0  0  0  0
 19 21  1  0  0  0  0
 20 19  2  0  0  0  0
 21 24  1  0  0  0  0
 21 22  1  0  0  0  0
 23 21  1  0  0  0  0
M  RAD  3   2   2   3   3  18   2
M  END
