Coordinates from ORCA-job 4-MeOPhN2+~CF3COO-_B3LYPG-6-31G_dp-NX-Scan-d89-09-n800
 OpenBabel11261920413D

 24 23  0  0  0  0  0  0  0  0999 V2000
   -1.9520    2.0745   -1.4308 C   0  0  0  0  0  0  0  0  0  0  0  0
   -2.2592    3.0703   -2.2779 N   0  0  0  0  0  0  0  0  0  0  0  0
   -2.5331    3.9095   -2.9803 N   0  0  0  0  0  0  0  0  0  0  0  0
   -0.5939    1.6524   -1.3248 C   0  0  0  0  0  0  0  0  0  0  0  0
   -0.3022    0.6317   -0.4633 C   0  0  0  0  0  0  0  0  0  0  0  0
   -1.3362    0.0097    0.3031 C   0  0  0  0  0  0  0  0  0  0  0  0
   -0.9400   -0.9661    1.0873 O   0  0  0  0  0  0  0  0  0  0  0  0
   -1.9103   -1.6756    1.9159 C   0  0  0  0  0  0  0  0  0  0  0  0
   -2.6839    0.4474    0.1983 C   0  0  0  0  0  0  0  0  0  0  0  0
   -2.9904    1.4652   -0.6678 C   0  0  0  0  0  0  0  0  0  0  0  0
    0.1757    2.1347   -1.9168 H   0  0  0  0  0  0  0  0  0  0  0  0
    0.7126    0.2684   -0.3473 H   0  0  0  0  0  0  0  0  0  0  0  0
   -1.3360   -2.4784    2.3749 H   0  0  0  0  0  0  0  0  0  0  0  0
   -2.7468   -2.0591    1.3085 H   0  0  0  0  0  0  0  0  0  0  0  0
   -2.2882   -0.9932    2.6822 H   0  0  0  0  0  0  0  0  0  0  0  0
   -3.5367   -0.0117    0.7415 H   0  0  0  0  0  0  0  0  0  0  0  0
   -4.0206    1.7907   -0.7709 H   0  0  0  0  0  0  0  0  0  0  0  0
   -4.4997   -2.5333    0.5134 O   0  0  0  0  0  0  0  0  0  0  0  0
   -5.3636   -1.6503    0.6909 C   0  0  0  0  0  0  0  0  0  0  0  0
   -5.2356   -0.4491    1.0469 O   0  0  0  0  0  0  0  0  0  0  0  0
   -6.8384   -2.0593    0.3980 C   0  0  0  0  0  0  0  0  0  0  0  0
   -7.6720   -1.6734    1.3901 F   0  0  0  0  0  0  0  0  0  0  0  0
   -7.2731   -1.4593   -0.7420 F   0  0  0  0  0  0  0  0  0  0  0  0
   -7.0003   -3.3858    0.2326 F   0  0  0  0  0  0  0  0  0  0  0  0
  1  4  2  0  0  0  0
  1 10  1  0  0  0  0
  2  1  1  0  0  0  0
  3  2  1  0  0  0  0
  4  5  1  0  0  0  0
  5 12  1  0  0  0  0
  5  6  2  0  0  0  0
  6  7  1  0  0  0  0
  7  8  1  0  0  0  0
  8 13  1  0  0  0  0
  8 15  1  0  0  0  0
  9  6  1  0  0  0  0
  9 16  1  0  0  0  0
 10  9  2  0  0  0  0
 11  4  1  0  0  0  0
 14  8  1  0  0  0  0
 17 10  1  0  0  0  0
 18 19  2  0  0  0  0
 19 20  1  0  0  0  0
 21 19  1  0  0  0  0
 21 22  1  0  0  0  0
 23 21  1  0  0  0  0
 24 21  1  0  0  0  0
M  RAD  3   2   2   3   3  20   2
M  END
