Coordinates from ORCA-job 4-MeOPhN2+~CF3COO-_B3LYPG-6-31G_dp-NX-Scan-d89-09-n800
 OpenBabel11261920413D

 24 23  0  0  0  0  0  0  0  0999 V2000
   -1.6957   -0.1517   -0.0572 C   0  0  0  0  0  0  0  0  0  0  0  0
   -3.0342   -0.3072    0.0521 N   0  0  0  0  0  0  0  0  0  0  0  0
   -4.1588   -0.4369    0.1432 N   0  0  0  0  0  0  0  0  0  0  0  0
   -1.1502    1.1596   -0.1312 C   0  0  0  0  0  0  0  0  0  0  0  0
    0.2125    1.2986   -0.2432 C   0  0  0  0  0  0  0  0  0  0  0  0
    1.0580    0.1641   -0.2841 C   0  0  0  0  0  0  0  0  0  0  0  0
    2.3690    0.4280   -0.3950 O   0  0  0  0  0  0  0  0  0  0  0  0
    3.3040   -0.6529   -0.4441 C   0  0  0  0  0  0  0  0  0  0  0  0
    0.5033   -1.1310   -0.2088 C   0  0  0  0  0  0  0  0  0  0  0  0
   -0.8645   -1.2981   -0.0961 C   0  0  0  0  0  0  0  0  0  0  0  0
   -1.8038    2.0236   -0.0988 H   0  0  0  0  0  0  0  0  0  0  0  0
    0.6677    2.2809   -0.3024 H   0  0  0  0  0  0  0  0  0  0  0  0
    4.2847   -0.1876   -0.5339 H   0  0  0  0  0  0  0  0  0  0  0  0
    3.1212   -1.2927   -1.3145 H   0  0  0  0  0  0  0  0  0  0  0  0
    3.2647   -1.2497    0.4739 H   0  0  0  0  0  0  0  0  0  0  0  0
    1.1360   -2.0090   -0.2375 H   0  0  0  0  0  0  0  0  0  0  0  0
   -1.3023   -2.2881   -0.0376 H   0  0  0  0  0  0  0  0  0  0  0  0
  -12.9581   -1.1086    1.0369 O   0  0  0  0  0  0  0  0  0  0  0  0
  -11.7299   -1.0040    0.8977 C   0  0  0  0  0  0  0  0  0  0  0  0
  -10.7599   -1.7755    0.8522 O   0  0  0  0  0  0  0  0  0  0  0  0
  -11.3092    0.5408    0.7520 C   0  0  0  0  0  0  0  0  0  0  0  0
   -9.9944    0.7166    0.5144 F   0  0  0  0  0  0  0  0  0  0  0  0
  -11.9793    1.1269   -0.2609 F   0  0  0  0  0  0  0  0  0  0  0  0
  -11.6044    1.2137    1.8847 F   0  0  0  0  0  0  0  0  0  0  0  0
  1  2  1  0  0  0  0
  2  3  1  0  0  0  0
  4 11  1  0  0  0  0
  4  1  2  0  0  0  0
  5  4  1  0  0  0  0
  6  5  2  0  0  0  0
  6  9  1  0  0  0  0
  7  6  1  0  0  0  0
  8  7  1  0  0  0  0
  8 15  1  0  0  0  0
  9 10  2  0  0  0  0
 10  1  1  0  0  0  0
 10 17  1  0  0  0  0
 12  5  1  0  0  0  0
 13  8  1  0  0  0  0
 14  8  1  0  0  0  0
 16  9  1  0  0  0  0
 19 18  1  0  0  0  0
 20 19  2  0  0  0  0
 21 19  1  0  0  0  0
 21 24  1  0  0  0  0
 22 21  1  0  0  0  0
 23 21  1  0  0  0  0
M  RAD  3   2   2   3   3  18   2
M  END
