Coordinates from ORCA-job 4-MeOPhN2+~CF3COO-_B3LYPG-6-31G_dp-NX-Scan-d89-09-n800
 OpenBabel11261920413D

 24 23  0  0  0  0  0  0  0  0999 V2000
   -1.7619    2.2322   -1.4691 C   0  0  0  0  0  0  0  0  0  0  0  0
   -1.9521    3.3040   -2.2572 N   0  0  0  0  0  0  0  0  0  0  0  0
   -2.1092    4.2099   -2.9125 N   0  0  0  0  0  0  0  0  0  0  0  0
   -0.4245    1.8224   -1.1888 C   0  0  0  0  0  0  0  0  0  0  0  0
   -0.2394    0.7471   -0.3660 C   0  0  0  0  0  0  0  0  0  0  0  0
   -1.3590    0.0637    0.2023 C   0  0  0  0  0  0  0  0  0  0  0  0
   -1.0526   -0.9268    1.0062 O   0  0  0  0  0  0  0  0  0  0  0  0
   -2.0986   -1.6585    1.7146 C   0  0  0  0  0  0  0  0  0  0  0  0
   -2.6917    0.4638   -0.0999 C   0  0  0  0  0  0  0  0  0  0  0  0
   -2.8878    1.5409   -0.9284 C   0  0  0  0  0  0  0  0  0  0  0  0
    0.4124    2.3607   -1.6189 H   0  0  0  0  0  0  0  0  0  0  0  0
    0.7555    0.3965   -0.1164 H   0  0  0  0  0  0  0  0  0  0  0  0
   -1.5552   -2.3698    2.3341 H   0  0  0  0  0  0  0  0  0  0  0  0
   -2.7929   -2.1686    1.0313 H   0  0  0  0  0  0  0  0  0  0  0  0
   -2.6689   -0.9615    2.3331 H   0  0  0  0  0  0  0  0  0  0  0  0
   -3.5862   -0.0741    0.2942 H   0  0  0  0  0  0  0  0  0  0  0  0
   -3.8948    1.8635   -1.1722 H   0  0  0  0  0  0  0  0  0  0  0  0
   -4.6516   -2.9157    0.7129 O   0  0  0  0  0  0  0  0  0  0  0  0
   -5.4201   -1.9351    0.7221 C   0  0  0  0  0  0  0  0  0  0  0  0
   -5.1736   -0.6978    0.7155 O   0  0  0  0  0  0  0  0  0  0  0  0
   -6.9473   -2.2471    0.7507 C   0  0  0  0  0  0  0  0  0  0  0  0
   -7.5331   -1.7106    1.8486 F   0  0  0  0  0  0  0  0  0  0  0  0
   -7.5692   -1.7141   -0.3309 F   0  0  0  0  0  0  0  0  0  0  0  0
   -7.2218   -3.5653    0.7567 F   0  0  0  0  0  0  0  0  0  0  0  0
  1  4  2  0  0  0  0
  1 10  1  0  0  0  0
  2  1  1  0  0  0  0
  3  2  1  0  0  0  0
  4  5  1  0  0  0  0
  5 12  1  0  0  0  0
  5  6  2  0  0  0  0
  6  7  1  0  0  0  0
  7  8  1  0  0  0  0
  8 15  1  0  0  0  0
  8 13  1  0  0  0  0
  9  6  1  0  0  0  0
  9 16  1  0  0  0  0
 10  9  2  0  0  0  0
 11  4  1  0  0  0  0
 14  8  1  0  0  0  0
 17 10  1  0  0  0  0
 18 19  2  0  0  0  0
 19 21  1  0  0  0  0
 20 19  1  0  0  0  0
 21 24  1  0  0  0  0
 21 22  1  0  0  0  0
 23 21  1  0  0  0  0
M  RAD  3   2   2   3   3  20   2
M  END
