Coordinates from ORCA-job 4-MeOPhN2+~CF3COO-_B3LYPG-6-31G_dp-NX-Scan-d89-09-n800
 OpenBabel11261920413D

 24 23  0  0  0  0  0  0  0  0999 V2000
   -2.5863    0.3647   -1.0524 C   0  0  0  0  0  0  0  0  0  0  0  0
   -3.3913    0.5789   -2.1834 N   0  0  0  0  0  0  0  0  0  0  0  0
   -3.5043    0.8727   -3.2652 N   0  0  0  0  0  0  0  0  0  0  0  0
   -1.3676    1.0722   -1.0111 C   0  0  0  0  0  0  0  0  0  0  0  0
   -0.5283    0.8683    0.0641 C   0  0  0  0  0  0  0  0  0  0  0  0
   -0.8852   -0.0450    1.0811 C   0  0  0  0  0  0  0  0  0  0  0  0
    0.0072   -0.1650    2.0811 O   0  0  0  0  0  0  0  0  0  0  0  0
   -0.2719   -1.0607    3.1583 C   0  0  0  0  0  0  0  0  0  0  0  0
   -2.0976   -0.7532    1.0018 C   0  0  0  0  0  0  0  0  0  0  0  0
   -2.9645   -0.5428   -0.0634 C   0  0  0  0  0  0  0  0  0  0  0  0
   -1.1079    1.7675   -1.8020 H   0  0  0  0  0  0  0  0  0  0  0  0
    0.4127    1.3992    0.1494 H   0  0  0  0  0  0  0  0  0  0  0  0
    0.5779   -0.9786    3.8363 H   0  0  0  0  0  0  0  0  0  0  0  0
   -0.3581   -2.0933    2.8027 H   0  0  0  0  0  0  0  0  0  0  0  0
   -1.1893   -0.7737    3.6842 H   0  0  0  0  0  0  0  0  0  0  0  0
   -2.3782   -1.4661    1.7670 H   0  0  0  0  0  0  0  0  0  0  0  0
   -3.9078   -1.0860   -0.1749 H   0  0  0  0  0  0  0  0  0  0  0  0
   -5.6485   -1.5747   -0.8639 O   0  0  0  0  0  0  0  0  0  0  0  0
   -6.0495   -0.4324   -1.1178 C   0  0  0  0  0  0  0  0  0  0  0  0
   -5.3904    0.6307   -1.3475 O   0  0  0  0  0  0  0  0  0  0  0  0
   -7.5887   -0.1942   -1.1781 C   0  0  0  0  0  0  0  0  0  0  0  0
   -7.9619    0.7685   -0.3076 F   0  0  0  0  0  0  0  0  0  0  0  0
   -7.9595    0.2066   -2.4141 F   0  0  0  0  0  0  0  0  0  0  0  0
   -8.2847   -1.3036   -0.8826 F   0  0  0  0  0  0  0  0  0  0  0  0
  1  4  2  0  0  0  0
  1 10  1  0  0  0  0
  2  1  1  0  0  0  0
  3  2  2  0  0  0  0
  4  5  1  0  0  0  0
  5 12  1  0  0  0  0
  5  6  2  0  0  0  0
  6  7  1  0  0  0  0
  7  8  1  0  0  0  0
  8 15  1  0  0  0  0
  8 13  1  0  0  0  0
  9  6  1  0  0  0  0
  9 16  1  0  0  0  0
 10  9  2  0  0  0  0
 11  4  1  0  0  0  0
 14  8  1  0  0  0  0
 17 10  1  0  0  0  0
 19 18  1  0  0  0  0
 20 19  2  0  0  0  0
 21 19  1  0  0  0  0
 21 24  1  0  0  0  0
 21 22  1  0  0  0  0
 23 21  1  0  0  0  0
M  RAD  2   3   2  18   2
M  END
