Coordinates from ORCA-job 4-MeOPhN2+~CF3COO-_B3LYPG-6-31G_dp-NX-Scan-d89-09-n800
 OpenBabel11261920413D

 24 23  0  0  0  0  0  0  0  0999 V2000
   -1.9228    2.0927   -1.4383 C   0  0  0  0  0  0  0  0  0  0  0  0
   -2.2168    3.0927   -2.2854 N   0  0  0  0  0  0  0  0  0  0  0  0
   -2.4798    3.9345   -2.9892 N   0  0  0  0  0  0  0  0  0  0  0  0
   -0.5643    1.6804   -1.3023 C   0  0  0  0  0  0  0  0  0  0  0  0
   -0.2855    0.6561   -0.4408 C   0  0  0  0  0  0  0  0  0  0  0  0
   -1.3324    0.0211    0.2969 C   0  0  0  0  0  0  0  0  0  0  0  0
   -0.9469   -0.9566    1.0840 O   0  0  0  0  0  0  0  0  0  0  0  0
   -1.9307   -1.6748    1.8896 C   0  0  0  0  0  0  0  0  0  0  0  0
   -2.6812    0.4483    0.1619 C   0  0  0  0  0  0  0  0  0  0  0  0
   -2.9745    1.4697   -0.7048 C   0  0  0  0  0  0  0  0  0  0  0  0
    0.2155    2.1727   -1.8721 H   0  0  0  0  0  0  0  0  0  0  0  0
    0.7291    0.3002   -0.3026 H   0  0  0  0  0  0  0  0  0  0  0  0
   -1.3697   -2.4951    2.3337 H   0  0  0  0  0  0  0  0  0  0  0  0
   -2.7696   -2.0351    1.2714 H   0  0  0  0  0  0  0  0  0  0  0  0
   -2.3041   -1.0043    2.6686 H   0  0  0  0  0  0  0  0  0  0  0  0
   -3.5435   -0.0204    0.6829 H   0  0  0  0  0  0  0  0  0  0  0  0
   -4.0044    1.7883   -0.8305 H   0  0  0  0  0  0  0  0  0  0  0  0
   -4.5244   -2.5714    0.5396 O   0  0  0  0  0  0  0  0  0  0  0  0
   -5.3806   -1.6754    0.6847 C   0  0  0  0  0  0  0  0  0  0  0  0
   -5.2414   -0.4582    0.9781 O   0  0  0  0  0  0  0  0  0  0  0  0
   -6.8637   -2.0897    0.4471 C   0  0  0  0  0  0  0  0  0  0  0  0
   -7.6568   -1.7092    1.4749 F   0  0  0  0  0  0  0  0  0  0  0  0
   -7.3484   -1.4899   -0.6717 F   0  0  0  0  0  0  0  0  0  0  0  0
   -7.0270   -3.4165    0.2862 F   0  0  0  0  0  0  0  0  0  0  0  0
  1  4  2  0  0  0  0
  1 10  1  0  0  0  0
  2  1  1  0  0  0  0
  3  2  1  0  0  0  0
  4  5  1  0  0  0  0
  5 12  1  0  0  0  0
  5  6  2  0  0  0  0
  6  7  1  0  0  0  0
  7  8  1  0  0  0  0
  8 13  1  0  0  0  0
  8 15  1  0  0  0  0
  9  6  1  0  0  0  0
  9 16  1  0  0  0  0
 10  9  2  0  0  0  0
 11  4  1  0  0  0  0
 14  8  1  0  0  0  0
 17 10  1  0  0  0  0
 18 19  2  0  0  0  0
 19 20  1  0  0  0  0
 21 19  1  0  0  0  0
 21 22  1  0  0  0  0
 23 21  1  0  0  0  0
 24 21  1  0  0  0  0
M  RAD  3   2   2   3   3  20   2
M  END
