Coordinates from ORCA-job 4-MeOPhN2+~CF3COO-_B3LYPG-6-31G_dp-NX-Scan-d89-09-n800
 OpenBabel11261920413D

 24 23  0  0  0  0  0  0  0  0999 V2000
   -1.7596   -0.0972   -0.0817 C   0  0  0  0  0  0  0  0  0  0  0  0
   -3.1023   -0.2257    0.0135 N   0  0  0  0  0  0  0  0  0  0  0  0
   -4.2298   -0.3346    0.0932 N   0  0  0  0  0  0  0  0  0  0  0  0
   -1.1870    1.2025   -0.1505 C   0  0  0  0  0  0  0  0  0  0  0  0
    0.1796    1.3137   -0.2467 C   0  0  0  0  0  0  0  0  0  0  0  0
    1.0020    0.1621   -0.2765 C   0  0  0  0  0  0  0  0  0  0  0  0
    2.3194    0.3990   -0.3717 O   0  0  0  0  0  0  0  0  0  0  0  0
    3.2327   -0.7009   -0.4076 C   0  0  0  0  0  0  0  0  0  0  0  0
    0.4203   -1.1214   -0.2070 C   0  0  0  0  0  0  0  0  0  0  0  0
   -0.9519   -1.2605   -0.1101 C   0  0  0  0  0  0  0  0  0  0  0  0
   -1.8233    2.0796   -0.1265 H   0  0  0  0  0  0  0  0  0  0  0  0
    0.6554    2.2864   -0.3014 H   0  0  0  0  0  0  0  0  0  0  0  0
    4.2238   -0.2559   -0.4842 H   0  0  0  0  0  0  0  0  0  0  0  0
    3.0485   -1.3374   -1.2801 H   0  0  0  0  0  0  0  0  0  0  0  0
    3.1684   -1.2962    0.5100 H   0  0  0  0  0  0  0  0  0  0  0  0
    1.0355   -2.0120   -0.2278 H   0  0  0  0  0  0  0  0  0  0  0  0
   -1.4105   -2.2412   -0.0558 H   0  0  0  0  0  0  0  0  0  0  0  0
  -12.7879   -1.1586    1.0405 O   0  0  0  0  0  0  0  0  0  0  0  0
  -11.5619   -1.0372    0.8947 C   0  0  0  0  0  0  0  0  0  0  0  0
  -10.5822   -1.7963    0.8413 O   0  0  0  0  0  0  0  0  0  0  0  0
  -11.1613    0.5128    0.7525 C   0  0  0  0  0  0  0  0  0  0  0  0
   -9.8508    0.7057    0.5028 F   0  0  0  0  0  0  0  0  0  0  0  0
  -11.8482    1.0966   -0.2505 F   0  0  0  0  0  0  0  0  0  0  0  0
  -11.4528    1.1766    1.8916 F   0  0  0  0  0  0  0  0  0  0  0  0
  1  2  1  0  0  0  0
  2  3  1  0  0  0  0
  4 11  1  0  0  0  0
  4  1  2  0  0  0  0
  5  4  1  0  0  0  0
  6  5  2  0  0  0  0
  6  9  1  0  0  0  0
  7  6  1  0  0  0  0
  8  7  1  0  0  0  0
  8 15  1  0  0  0  0
  9 10  2  0  0  0  0
 10  1  1  0  0  0  0
 10 17  1  0  0  0  0
 12  5  1  0  0  0  0
 13  8  1  0  0  0  0
 14  8  1  0  0  0  0
 16  9  1  0  0  0  0
 19 18  1  0  0  0  0
 20 19  2  0  0  0  0
 21 19  1  0  0  0  0
 21 24  1  0  0  0  0
 22 21  1  0  0  0  0
 23 21  1  0  0  0  0
M  RAD  3   2   2   3   3  18   2
M  END
