Coordinates from ORCA-job 4-MeOPhN2+~CF3COO-_B3LYPG-6-31G_dp-NX-Scan-d89-09-n800
 OpenBabel11261920413D

 24 23  0  0  0  0  0  0  0  0999 V2000
   -2.6420    0.2515   -1.0430 C   0  0  0  0  0  0  0  0  0  0  0  0
   -3.4715    0.4094   -2.1642 N   0  0  0  0  0  0  0  0  0  0  0  0
   -3.6374    0.5601   -3.2661 N   0  0  0  0  0  0  0  0  0  0  0  0
   -1.4432    0.9863   -1.0320 C   0  0  0  0  0  0  0  0  0  0  0  0
   -0.5897    0.8322    0.0432 C   0  0  0  0  0  0  0  0  0  0  0  0
   -0.9188   -0.0529    1.0910 C   0  0  0  0  0  0  0  0  0  0  0  0
   -0.0156   -0.1258    2.0873 O   0  0  0  0  0  0  0  0  0  0  0  0
   -0.2710   -0.9892    3.1951 C   0  0  0  0  0  0  0  0  0  0  0  0
   -2.1190   -0.7865    1.0464 C   0  0  0  0  0  0  0  0  0  0  0  0
   -2.9946   -0.6265   -0.0187 C   0  0  0  0  0  0  0  0  0  0  0  0
   -1.2043    1.6631   -1.8449 H   0  0  0  0  0  0  0  0  0  0  0  0
    0.3418    1.3830    0.1019 H   0  0  0  0  0  0  0  0  0  0  0  0
    0.5828   -0.8715    3.8627 H   0  0  0  0  0  0  0  0  0  0  0  0
   -0.3434   -2.0347    2.8752 H   0  0  0  0  0  0  0  0  0  0  0  0
   -1.1883   -0.6999    3.7203 H   0  0  0  0  0  0  0  0  0  0  0  0
   -2.3803   -1.4774    1.8380 H   0  0  0  0  0  0  0  0  0  0  0  0
   -3.9213   -1.1827   -0.1135 H   0  0  0  0  0  0  0  0  0  0  0  0
   -5.4444   -1.3131   -1.6142 O   0  0  0  0  0  0  0  0  0  0  0  0
   -5.9520   -0.2240   -1.2957 C   0  0  0  0  0  0  0  0  0  0  0  0
   -5.3670    0.8810   -1.1014 O   0  0  0  0  0  0  0  0  0  0  0  0
   -7.4974   -0.1553   -1.1344 C   0  0  0  0  0  0  0  0  0  0  0  0
   -7.8452    0.4970   -0.0051 F   0  0  0  0  0  0  0  0  0  0  0  0
   -8.0434    0.5105   -2.1766 F   0  0  0  0  0  0  0  0  0  0  0  0
   -8.0582   -1.3749   -1.0894 F   0  0  0  0  0  0  0  0  0  0  0  0
  1  4  2  0  0  0  0
  1 10  1  0  0  0  0
  2  1  1  0  0  0  0
  3  2  2  0  0  0  0
  4  5  1  0  0  0  0
  5 12  1  0  0  0  0
  5  6  2  0  0  0  0
  6  7  1  0  0  0  0
  7  8  1  0  0  0  0
  8 15  1  0  0  0  0
  8 13  1  0  0  0  0
  9  6  1  0  0  0  0
  9 16  1  0  0  0  0
 10  9  2  0  0  0  0
 11  4  1  0  0  0  0
 14  8  1  0  0  0  0
 17 10  1  0  0  0  0
 18 19  2  0  0  0  0
 19 21  1  0  0  0  0
 19 20  1  0  0  0  0
 21 24  1  0  0  0  0
 21 22  1  0  0  0  0
 23 21  1  0  0  0  0
M  RAD  2   3   2  20   2
M  END
