Coordinates from ORCA-job 4-MeOPhN2+~CF3COO-_B3LYPG-6-31G_dp-NX-Scan-d89-09-n800
 OpenBabel11261920413D

 24 23  0  0  0  0  0  0  0  0999 V2000
   -1.8278    2.1783   -1.4552 C   0  0  0  0  0  0  0  0  0  0  0  0
   -2.0586    3.2276   -2.2618 N   0  0  0  0  0  0  0  0  0  0  0  0
   -2.2564    4.1139   -2.9321 N   0  0  0  0  0  0  0  0  0  0  0  0
   -0.4809    1.7552   -1.2514 C   0  0  0  0  0  0  0  0  0  0  0  0
   -0.2579    0.6964   -0.4163 C   0  0  0  0  0  0  0  0  0  0  0  0
   -1.3485    0.0412    0.2356 C   0  0  0  0  0  0  0  0  0  0  0  0
   -1.0070   -0.9462    1.0298 O   0  0  0  0  0  0  0  0  0  0  0  0
   -2.0203   -1.6580    1.8027 C   0  0  0  0  0  0  0  0  0  0  0  0
   -2.6898    0.4626    0.0181 C   0  0  0  0  0  0  0  0  0  0  0  0
   -2.9251    1.5211   -0.8230 C   0  0  0  0  0  0  0  0  0  0  0  0
    0.3339    2.2696   -1.7481 H   0  0  0  0  0  0  0  0  0  0  0  0
    0.7460    0.3349   -0.2249 H   0  0  0  0  0  0  0  0  0  0  0  0
   -1.4583   -2.4155    2.3462 H   0  0  0  0  0  0  0  0  0  0  0  0
   -2.7937   -2.1095    1.1606 H   0  0  0  0  0  0  0  0  0  0  0  0
   -2.4922   -0.9596    2.4986 H   0  0  0  0  0  0  0  0  0  0  0  0
   -3.5747   -0.0425    0.4709 H   0  0  0  0  0  0  0  0  0  0  0  0
   -3.9427    1.8502   -1.0072 H   0  0  0  0  0  0  0  0  0  0  0  0
   -4.6013   -2.7726    0.6501 O   0  0  0  0  0  0  0  0  0  0  0  0
   -5.4091   -1.8249    0.7068 C   0  0  0  0  0  0  0  0  0  0  0  0
   -5.2092   -0.5857    0.8237 O   0  0  0  0  0  0  0  0  0  0  0  0
   -6.9204   -2.1933    0.6112 C   0  0  0  0  0  0  0  0  0  0  0  0
   -7.6106   -1.7173    1.6744 F   0  0  0  0  0  0  0  0  0  0  0  0
   -7.4762   -1.6461   -0.5000 F   0  0  0  0  0  0  0  0  0  0  0  0
   -7.1427   -3.5201    0.5529 F   0  0  0  0  0  0  0  0  0  0  0  0
  1  4  2  0  0  0  0
  1 10  1  0  0  0  0
  2  1  1  0  0  0  0
  3  2  1  0  0  0  0
  4  5  1  0  0  0  0
  5 12  1  0  0  0  0
  5  6  2  0  0  0  0
  6  7  1  0  0  0  0
  7  8  1  0  0  0  0
  8 13  1  0  0  0  0
  8 15  1  0  0  0  0
  9  6  1  0  0  0  0
  9 16  1  0  0  0  0
 10  9  2  0  0  0  0
 11  4  1  0  0  0  0
 14  8  1  0  0  0  0
 17 10  1  0  0  0  0
 18 19  2  0  0  0  0
 19 20  1  0  0  0  0
 21 19  1  0  0  0  0
 21 22  1  0  0  0  0
 23 21  1  0  0  0  0
 24 21  1  0  0  0  0
M  RAD  3   2   2   3   3  20   2
M  END
