Coordinates from ORCA-job 4-MeOPhN2+~CF3COO-_B3LYPG-6-31G_dp-NX-Scan-d89-09-n800
 OpenBabel11261920413D

 24 23  0  0  0  0  0  0  0  0999 V2000
   -2.9559    1.4824   -0.8526 C   0  0  0  0  0  0  0  0  0  0  0  0
   -3.9341    2.0600   -1.5735 N   0  0  0  0  0  0  0  0  0  0  0  0
   -4.7861    2.4979   -2.1545 N   0  0  0  0  0  0  0  0  0  0  0  0
   -2.0097    0.6624   -1.5222 C   0  0  0  0  0  0  0  0  0  0  0  0
   -1.2327   -0.1757   -0.7680 C   0  0  0  0  0  0  0  0  0  0  0  0
   -1.4502   -0.2649    0.6339 C   0  0  0  0  0  0  0  0  0  0  0  0
   -0.7998   -1.2492    1.2510 O   0  0  0  0  0  0  0  0  0  0  0  0
   -1.2898   -1.6824    2.5367 C   0  0  0  0  0  0  0  0  0  0  0  0
   -2.3081    0.6349    1.2922 C   0  0  0  0  0  0  0  0  0  0  0  0
   -3.0957    1.4970    0.5595 C   0  0  0  0  0  0  0  0  0  0  0  0
   -1.9520    0.6705   -2.6047 H   0  0  0  0  0  0  0  0  0  0  0  0
   -0.5252   -0.8563   -1.2264 H   0  0  0  0  0  0  0  0  0  0  0  0
   -0.7968   -2.6350    2.7253 H   0  0  0  0  0  0  0  0  0  0  0  0
   -2.3746   -1.8111    2.4851 H   0  0  0  0  0  0  0  0  0  0  0  0
   -1.0129   -0.9679    3.3191 H   0  0  0  0  0  0  0  0  0  0  0  0
   -2.4417    0.5884    2.3640 H   0  0  0  0  0  0  0  0  0  0  0  0
   -3.8142    2.1486    1.0313 H   0  0  0  0  0  0  0  0  0  0  0  0
   -4.3486   -1.4196    0.7138 O   0  0  0  0  0  0  0  0  0  0  0  0
   -5.0770   -0.6433    0.0774 C   0  0  0  0  0  0  0  0  0  0  0  0
   -5.4100    0.5516    0.3075 O   0  0  0  0  0  0  0  0  0  0  0  0
   -5.5949   -1.1573   -1.3048 C   0  0  0  0  0  0  0  0  0  0  0  0
   -6.8965   -0.8797   -1.5163 F   0  0  0  0  0  0  0  0  0  0  0  0
   -4.8964   -0.5176   -2.3102 F   0  0  0  0  0  0  0  0  0  0  0  0
   -5.4207   -2.4739   -1.5017 F   0  0  0  0  0  0  0  0  0  0  0  0
  1 10  1  0  0  0  0
  2  1  1  0  0  0  0
  3  2  1  0  0  0  0
  4  1  2  0  0  0  0
  4  5  1  0  0  0  0
  5  6  2  0  0  0  0
  6  7  1  0  0  0  0
  6  9  1  0  0  0  0
  7  8  1  0  0  0  0
  8 13  1  0  0  0  0
  8 15  1  0  0  0  0
  9 16  1  0  0  0  0
 10 17  1  0  0  0  0
 10  9  2  0  0  0  0
 11  4  1  0  0  0  0
 12  5  1  0  0  0  0
 14  8  1  0  0  0  0
 19 20  2  0  0  0  0
 19 18  1  0  0  0  0
 21 19  1  0  0  0  0
 22 21  1  0  0  0  0
 23 21  1  0  0  0  0
 24 21  1  0  0  0  0
M  RAD  3   2   2   3   3  18   2
M  END
