Coordinates from ORCA-job 4-MeOPhN2+~CF3COO-_B3LYPG-6-31G_dp-NX-Scan-d89-09-n800
 OpenBabel11261920413D

 24 23  0  0  0  0  0  0  0  0999 V2000
   -2.5531    1.6468   -1.3045 C   0  0  0  0  0  0  0  0  0  0  0  0
   -3.1479    2.4529   -2.2013 N   0  0  0  0  0  0  0  0  0  0  0  0
   -3.6594    3.1305   -2.9417 N   0  0  0  0  0  0  0  0  0  0  0  0
   -1.2210    1.2027   -1.5513 C   0  0  0  0  0  0  0  0  0  0  0  0
   -0.6582    0.3266   -0.6637 C   0  0  0  0  0  0  0  0  0  0  0  0
   -1.4025   -0.1340    0.4647 C   0  0  0  0  0  0  0  0  0  0  0  0
   -0.8091   -1.0467    1.2061 O   0  0  0  0  0  0  0  0  0  0  0  0
   -1.5579   -1.6867    2.2802 C   0  0  0  0  0  0  0  0  0  0  0  0
   -2.6959    0.3739    0.7290 C   0  0  0  0  0  0  0  0  0  0  0  0
   -3.2879    1.2359   -0.1593 C   0  0  0  0  0  0  0  0  0  0  0  0
   -0.6856    1.5433   -2.4304 H   0  0  0  0  0  0  0  0  0  0  0  0
    0.3413   -0.0633   -0.8171 H   0  0  0  0  0  0  0  0  0  0  0  0
   -0.9148   -2.4993    2.6143 H   0  0  0  0  0  0  0  0  0  0  0  0
   -2.5194   -2.0502    1.8912 H   0  0  0  0  0  0  0  0  0  0  0  0
   -1.7101   -0.9707    3.0931 H   0  0  0  0  0  0  0  0  0  0  0  0
   -3.3207    0.0297    1.5518 H   0  0  0  0  0  0  0  0  0  0  0  0
   -4.3197    1.5297   -0.0037 H   0  0  0  0  0  0  0  0  0  0  0  0
   -4.2629   -2.1883    0.7227 O   0  0  0  0  0  0  0  0  0  0  0  0
   -5.1503   -1.3093    0.7726 C   0  0  0  0  0  0  0  0  0  0  0  0
   -5.2967   -0.3392    1.5546 O   0  0  0  0  0  0  0  0  0  0  0  0
   -6.1663   -1.3111   -0.4103 C   0  0  0  0  0  0  0  0  0  0  0  0
   -7.4279   -1.0342   -0.0276 F   0  0  0  0  0  0  0  0  0  0  0  0
   -5.8009   -0.3214   -1.2952 F   0  0  0  0  0  0  0  0  0  0  0  0
   -6.1969   -2.4576   -1.1123 F   0  0  0  0  0  0  0  0  0  0  0  0
  1 10  1  0  0  0  0
  2  1  1  0  0  0  0
  3  2  1  0  0  0  0
  4  1  2  0  0  0  0
  4  5  1  0  0  0  0
  5  6  2  0  0  0  0
  6  9  1  0  0  0  0
  6  7  1  0  0  0  0
  7  8  1  0  0  0  0
  8 13  1  0  0  0  0
  8 15  1  0  0  0  0
  9 16  1  0  0  0  0
 10 17  1  0  0  0  0
 10  9  2  0  0  0  0
 11  4  1  0  0  0  0
 12  5  1  0  0  0  0
 14  8  1  0  0  0  0
 18 19  2  0  0  0  0
 19 20  1  0  0  0  0
 21 22  1  0  0  0  0
 21 19  1  0  0  0  0
 23 21  1  0  0  0  0
 24 21  1  0  0  0  0
M  RAD  3   2   2   3   3  20   2
M  END
