Coordinates from ORCA-job 4-MeOPhN2+~CF3COO-_B3LYPG-6-31G_dp-NX-Scan-d89-09-n800
 OpenBabel11261920413D

 24 23  0  0  0  0  0  0  0  0999 V2000
   -2.6107    0.3387   -1.0407 C   0  0  0  0  0  0  0  0  0  0  0  0
   -3.4281    0.5370   -2.1689 N   0  0  0  0  0  0  0  0  0  0  0  0
   -3.5274    0.7909   -3.2630 N   0  0  0  0  0  0  0  0  0  0  0  0
   -1.3952    1.0495   -1.0138 C   0  0  0  0  0  0  0  0  0  0  0  0
   -0.5479    0.8588    0.0586 C   0  0  0  0  0  0  0  0  0  0  0  0
   -0.8947   -0.0450    1.0864 C   0  0  0  0  0  0  0  0  0  0  0  0
    0.0050   -0.1536    2.0821 O   0  0  0  0  0  0  0  0  0  0  0  0
   -0.2647   -1.0402    3.1685 C   0  0  0  0  0  0  0  0  0  0  0  0
   -2.1056   -0.7576    1.0221 C   0  0  0  0  0  0  0  0  0  0  0  0
   -2.9791   -0.5588   -0.0397 C   0  0  0  0  0  0  0  0  0  0  0  0
   -1.1427    1.7382   -1.8128 H   0  0  0  0  0  0  0  0  0  0  0  0
    0.3921    1.3933    0.1323 H   0  0  0  0  0  0  0  0  0  0  0  0
    0.5892   -0.9502    3.8403 H   0  0  0  0  0  0  0  0  0  0  0  0
   -0.3507   -2.0764    2.8229 H   0  0  0  0  0  0  0  0  0  0  0  0
   -1.1793   -0.7511    3.6983 H   0  0  0  0  0  0  0  0  0  0  0  0
   -2.3783   -1.4648    1.7954 H   0  0  0  0  0  0  0  0  0  0  0  0
   -3.9152   -1.1079   -0.1474 H   0  0  0  0  0  0  0  0  0  0  0  0
   -5.5986   -1.5611   -1.1254 O   0  0  0  0  0  0  0  0  0  0  0  0
   -6.0216   -0.4010   -1.1880 C   0  0  0  0  0  0  0  0  0  0  0  0
   -5.3751    0.6921   -1.2753 O   0  0  0  0  0  0  0  0  0  0  0  0
   -7.5633   -0.1772   -1.1676 C   0  0  0  0  0  0  0  0  0  0  0  0
   -7.9137    0.7131   -0.2157 F   0  0  0  0  0  0  0  0  0  0  0  0
   -7.9833    0.3080   -2.3570 F   0  0  0  0  0  0  0  0  0  0  0  0
   -8.2348   -1.3149   -0.9297 F   0  0  0  0  0  0  0  0  0  0  0  0
  1  4  2  0  0  0  0
  1 10  1  0  0  0  0
  2  1  1  0  0  0  0
  3  2  2  0  0  0  0
  4  5  1  0  0  0  0
  5 12  1  0  0  0  0
  5  6  2  0  0  0  0
  6  7  1  0  0  0  0
  7  8  1  0  0  0  0
  8 15  1  0  0  0  0
  8 13  1  0  0  0  0
  9  6  1  0  0  0  0
  9 16  1  0  0  0  0
 10  9  2  0  0  0  0
 11  4  1  0  0  0  0
 14  8  1  0  0  0  0
 17 10  1  0  0  0  0
 19 21  1  0  0  0  0
 19 18  1  0  0  0  0
 20 19  2  0  0  0  0
 21 24  1  0  0  0  0
 21 22  1  0  0  0  0
 23 21  1  0  0  0  0
M  RAD  2   3   2  18   2
M  END
