Coordinates from ORCA-job 4-MeOPhN2+~CF3COO-_B3LYPG-6-31G_dp-NX-Scan-d89-09-n800
 OpenBabel11261920413D

 24 23  0  0  0  0  0  0  0  0999 V2000
   -2.7348    1.5692   -1.1833 C   0  0  0  0  0  0  0  0  0  0  0  0
   -3.4501    2.2921   -2.0611 N   0  0  0  0  0  0  0  0  0  0  0  0
   -4.0704    2.8920   -2.7839 N   0  0  0  0  0  0  0  0  0  0  0  0
   -1.4955    1.0014   -1.5969 C   0  0  0  0  0  0  0  0  0  0  0  0
   -0.8599    0.1493   -0.7360 C   0  0  0  0  0  0  0  0  0  0  0  0
   -1.4558   -0.1837    0.5175 C   0  0  0  0  0  0  0  0  0  0  0  0
   -0.8315   -1.1139    1.2146 O   0  0  0  0  0  0  0  0  0  0  0  0
   -1.4952   -1.6887    2.3729 C   0  0  0  0  0  0  0  0  0  0  0  0
   -2.6409    0.4582    0.9410 C   0  0  0  0  0  0  0  0  0  0  0  0
   -3.2966    1.3179    0.0956 C   0  0  0  0  0  0  0  0  0  0  0  0
   -1.0919    1.2251   -2.5778 H   0  0  0  0  0  0  0  0  0  0  0  0
    0.0700   -0.3356   -1.0086 H   0  0  0  0  0  0  0  0  0  0  0  0
   -0.8818   -2.5460    2.6454 H   0  0  0  0  0  0  0  0  0  0  0  0
   -2.5116   -1.9855    2.0849 H   0  0  0  0  0  0  0  0  0  0  0  0
   -1.5027   -0.9628    3.1923 H   0  0  0  0  0  0  0  0  0  0  0  0
   -3.1525    0.1847    1.8539 H   0  0  0  0  0  0  0  0  0  0  0  0
   -4.2730    1.6966    0.3705 H   0  0  0  0  0  0  0  0  0  0  0  0
   -4.1430   -2.0052    0.7103 O   0  0  0  0  0  0  0  0  0  0  0  0
   -5.0582   -1.1550    0.6400 C   0  0  0  0  0  0  0  0  0  0  0  0
   -5.3652   -0.2143    1.4069 O   0  0  0  0  0  0  0  0  0  0  0  0
   -5.8672   -1.1640   -0.6955 C   0  0  0  0  0  0  0  0  0  0  0  0
   -7.1726   -0.8802   -0.5316 F   0  0  0  0  0  0  0  0  0  0  0  0
   -5.3594   -0.1784   -1.5218 F   0  0  0  0  0  0  0  0  0  0  0  0
   -5.7840   -2.3132   -1.3874 F   0  0  0  0  0  0  0  0  0  0  0  0
  1 10  1  0  0  0  0
  2  1  1  0  0  0  0
  3  2  1  0  0  0  0
  4  1  2  0  0  0  0
  4  5  1  0  0  0  0
  5  6  2  0  0  0  0
  6  9  1  0  0  0  0
  6  7  1  0  0  0  0
  7  8  1  0  0  0  0
  8 13  1  0  0  0  0
  8 15  1  0  0  0  0
  9 16  1  0  0  0  0
 10 17  1  0  0  0  0
 10  9  2  0  0  0  0
 11  4  1  0  0  0  0
 12  5  1  0  0  0  0
 14  8  1  0  0  0  0
 19 18  2  0  0  0  0
 19 20  1  0  0  0  0
 21 22  1  0  0  0  0
 21 19  1  0  0  0  0
 23 21  1  0  0  0  0
 24 21  1  0  0  0  0
M  RAD  3   2   2   3   3  20   2
M  END
