Coordinates from ORCA-job 4-MeOPhN2+~CF3COO-_B3LYPG-6-31G_dp-NX-Scan-d89-09-n800
 OpenBabel11261920413D

 24 23  0  0  0  0  0  0  0  0999 V2000
   -1.8481    2.1581   -1.4530 C   0  0  0  0  0  0  0  0  0  0  0  0
   -2.0931    3.1956   -2.2704 N   0  0  0  0  0  0  0  0  0  0  0  0
   -2.3061    4.0713   -2.9498 N   0  0  0  0  0  0  0  0  0  0  0  0
   -0.4979    1.7398   -1.2618 C   0  0  0  0  0  0  0  0  0  0  0  0
   -0.2624    0.6896   -0.4192 C   0  0  0  0  0  0  0  0  0  0  0  0
   -1.3438    0.0375    0.2508 C   0  0  0  0  0  0  0  0  0  0  0  0
   -0.9922   -0.9470    1.0446 O   0  0  0  0  0  0  0  0  0  0  0  0
   -1.9998   -1.6617    1.8225 C   0  0  0  0  0  0  0  0  0  0  0  0
   -2.6876    0.4578    0.0496 C   0  0  0  0  0  0  0  0  0  0  0  0
   -2.9359    1.5071   -0.7989 C   0  0  0  0  0  0  0  0  0  0  0  0
    0.3095    2.2502   -1.7743 H   0  0  0  0  0  0  0  0  0  0  0  0
    0.7444    0.3311   -0.2378 H   0  0  0  0  0  0  0  0  0  0  0  0
   -1.4384   -2.4376    2.3400 H   0  0  0  0  0  0  0  0  0  0  0  0
   -2.7903   -2.0881    1.1835 H   0  0  0  0  0  0  0  0  0  0  0  0
   -2.4476   -0.9709    2.5417 H   0  0  0  0  0  0  0  0  0  0  0  0
   -3.5686   -0.0393    0.5172 H   0  0  0  0  0  0  0  0  0  0  0  0
   -3.9568    1.8322   -0.9717 H   0  0  0  0  0  0  0  0  0  0  0  0
   -4.5848   -2.7253    0.6218 O   0  0  0  0  0  0  0  0  0  0  0  0
   -5.4041   -1.7888    0.7007 C   0  0  0  0  0  0  0  0  0  0  0  0
   -5.2180   -0.5522    0.8590 O   0  0  0  0  0  0  0  0  0  0  0  0
   -6.9097   -2.1707    0.5756 C   0  0  0  0  0  0  0  0  0  0  0  0
   -7.6200   -1.7287    1.6402 F   0  0  0  0  0  0  0  0  0  0  0  0
   -7.4560   -1.6021   -0.5298 F   0  0  0  0  0  0  0  0  0  0  0  0
   -7.1167   -3.4979    0.4813 F   0  0  0  0  0  0  0  0  0  0  0  0
  1  4  2  0  0  0  0
  1 10  1  0  0  0  0
  2  1  1  0  0  0  0
  3  2  1  0  0  0  0
  4  5  1  0  0  0  0
  5 12  1  0  0  0  0
  5  6  2  0  0  0  0
  6  7  1  0  0  0  0
  7  8  1  0  0  0  0
  8 13  1  0  0  0  0
  8 15  1  0  0  0  0
  9  6  1  0  0  0  0
  9 16  1  0  0  0  0
 10  9  2  0  0  0  0
 11  4  1  0  0  0  0
 14  8  1  0  0  0  0
 17 10  1  0  0  0  0
 18 19  2  0  0  0  0
 19 20  1  0  0  0  0
 21 19  1  0  0  0  0
 21 22  1  0  0  0  0
 23 21  1  0  0  0  0
 24 21  1  0  0  0  0
M  RAD  3   2   2   3   3  20   2
M  END
