Coordinates from ORCA-job 4-MeOPhN2+~CF3COO-_B3LYPG-6-31G_dp-NX-Scan-d89-09-n800
 OpenBabel11261920413D

 24 23  0  0  0  0  0  0  0  0999 V2000
   -2.3896    0.3490   -1.1479 C   0  0  0  0  0  0  0  0  0  0  0  0
   -3.1862    0.6098   -2.2377 N   0  0  0  0  0  0  0  0  0  0  0  0
   -3.9103    0.7936   -3.0729 N   0  0  0  0  0  0  0  0  0  0  0  0
   -1.0019    0.5842   -1.2825 C   0  0  0  0  0  0  0  0  0  0  0  0
   -0.1836    0.3314   -0.2058 C   0  0  0  0  0  0  0  0  0  0  0  0
   -0.7342   -0.1540    1.0047 C   0  0  0  0  0  0  0  0  0  0  0  0
    0.1530   -0.3649    1.9883 O   0  0  0  0  0  0  0  0  0  0  0  0
   -0.3071   -0.8500    3.2548 C   0  0  0  0  0  0  0  0  0  0  0  0
   -2.1186   -0.3816    1.1156 C   0  0  0  0  0  0  0  0  0  0  0  0
   -2.9638   -0.1339    0.0444 C   0  0  0  0  0  0  0  0  0  0  0  0
   -0.5983    0.9569   -2.2176 H   0  0  0  0  0  0  0  0  0  0  0  0
    0.8863    0.4975   -0.2587 H   0  0  0  0  0  0  0  0  0  0  0  0
    0.5838   -0.9318    3.8765 H   0  0  0  0  0  0  0  0  0  0  0  0
   -0.7761   -1.8340    3.1523 H   0  0  0  0  0  0  0  0  0  0  0  0
   -1.0124   -0.1476    3.7116 H   0  0  0  0  0  0  0  0  0  0  0  0
   -2.5532   -0.7541    2.0346 H   0  0  0  0  0  0  0  0  0  0  0  0
   -4.0427   -0.3042    0.1127 H   0  0  0  0  0  0  0  0  0  0  0  0
   -5.4269    0.0938   -1.5778 O   0  0  0  0  0  0  0  0  0  0  0  0
   -6.3141   -0.3130   -0.7686 C   0  0  0  0  0  0  0  0  0  0  0  0
   -6.1405   -0.6920    0.3993 O   0  0  0  0  0  0  0  0  0  0  0  0
   -7.7561   -0.3248   -1.3421 C   0  0  0  0  0  0  0  0  0  0  0  0
   -8.6695   -0.7502   -0.4525 F   0  0  0  0  0  0  0  0  0  0  0  0
   -8.1264    0.9147   -1.7437 F   0  0  0  0  0  0  0  0  0  0  0  0
   -7.8354   -1.1349   -2.4252 F   0  0  0  0  0  0  0  0  0  0  0  0
  1 10  1  0  0  0  0
  2  1  1  0  0  0  0
  3  2  1  0  0  0  0
  4  1  2  0  0  0  0
  4  5  1  0  0  0  0
  5  6  2  0  0  0  0
  6  9  1  0  0  0  0
  6  7  1  0  0  0  0
  7  8  1  0  0  0  0
  8 15  1  0  0  0  0
  8 13  1  0  0  0  0
  9 16  1  0  0  0  0
 10 17  1  0  0  0  0
 10  9  2  0  0  0  0
 11  4  1  0  0  0  0
 12  5  1  0  0  0  0
 14  8  1  0  0  0  0
 18 19  2  0  0  0  0
 19 20  1  0  0  0  0
 21 19  1  0  0  0  0
 21 22  1  0  0  0  0
 23 21  1  0  0  0  0
 24 21  1  0  0  0  0
M  RAD  3   2   2   3   3  20   2
M  END
