Coordinates from ORCA-job 4-MeOPhN2+~CF3COO-_B3LYPG-6-31G_dp-NX-Scan-d89-09-n800
 OpenBabel11261920413D

 24 24  0  0  0  0  0  0  0  0999 V2000
   -2.0213   -0.9834    0.6454 C   0  0  0  0  0  0  0  0  0  0  0  0
   -2.1344   -2.1975    1.3533 N   0  0  0  0  0  0  0  0  0  0  0  0
   -3.1242   -2.8576    1.6690 N   0  0  0  0  0  0  0  0  0  0  0  0
   -0.6743   -0.6441    0.3868 C   0  0  0  0  0  0  0  0  0  0  0  0
   -0.3380    0.5131   -0.2880 C   0  0  0  0  0  0  0  0  0  0  0  0
   -1.3512    1.3879   -0.7175 C   0  0  0  0  0  0  0  0  0  0  0  0
   -0.9326    2.4987   -1.3685 O   0  0  0  0  0  0  0  0  0  0  0  0
   -1.9041    3.4292   -1.8343 C   0  0  0  0  0  0  0  0  0  0  0  0
   -2.6949    1.0761   -0.4550 C   0  0  0  0  0  0  0  0  0  0  0  0
   -3.0314   -0.0971    0.2143 C   0  0  0  0  0  0  0  0  0  0  0  0
    0.0932   -1.3272    0.7341 H   0  0  0  0  0  0  0  0  0  0  0  0
    0.6951    0.7713   -0.4940 H   0  0  0  0  0  0  0  0  0  0  0  0
   -1.3430    4.2237   -2.3270 H   0  0  0  0  0  0  0  0  0  0  0  0
   -2.4821    3.8537   -1.0053 H   0  0  0  0  0  0  0  0  0  0  0  0
   -2.5882    2.9663   -2.5559 H   0  0  0  0  0  0  0  0  0  0  0  0
   -3.4896    1.7408   -0.7712 H   0  0  0  0  0  0  0  0  0  0  0  0
   -4.0729   -0.3058    0.4024 H   0  0  0  0  0  0  0  0  0  0  0  0
   -4.3317   -2.3112    1.2160 O   0  0  0  0  0  0  0  0  0  0  0  0
   -5.4369   -2.9675    1.6501 C   0  0  0  0  0  0  0  0  0  0  0  0
   -5.5085   -3.8729    2.4282 O   0  0  0  0  0  0  0  0  0  0  0  0
   -6.6635   -2.3503    0.9367 C   0  0  0  0  0  0  0  0  0  0  0  0
   -7.7902   -2.7561    1.5202 F   0  0  0  0  0  0  0  0  0  0  0  0
   -6.6191   -1.0017    0.9760 F   0  0  0  0  0  0  0  0  0  0  0  0
   -6.6800   -2.7283   -0.3538 F   0  0  0  0  0  0  0  0  0  0  0  0
  1  2  1  0  0  0  0
  2  3  1  0  0  0  0
  4  1  1  0  0  0  0
  4 11  1  0  0  0  0
  5  4  2  0  0  0  0
  6  9  2  0  0  0  0
  6  5  1  0  0  0  0
  7  6  1  0  0  0  0
  8  7  1  0  0  0  0
  8 14  1  0  0  0  0
  9 10  1  0  0  0  0
 10 17  1  0  0  0  0
 10  1  2  0  0  0  0
 12  5  1  0  0  0  0
 13  8  1  0  0  0  0
 15  8  1  0  0  0  0
 16  9  1  0  0  0  0
 18 19  1  0  0  0  0
 18  3  1  0  0  0  0
 19 20  2  0  0  0  0
 21 23  1  0  0  0  0
 21 22  1  0  0  0  0
 21 19  1  0  0  0  0
 24 21  1  0  0  0  0
M  RAD  2   2   2   3   2
M  END
