Coordinates from ORCA-job 4-MeOPhN2+~CF3COO-_B3LYPG-6-31G_dp-NX-Scan-d89-09-n800
 OpenBabel11261920413D

 24 23  0  0  0  0  0  0  0  0999 V2000
   -1.9052    2.1070   -1.4427 C   0  0  0  0  0  0  0  0  0  0  0  0
   -2.1876    3.1153   -2.2839 N   0  0  0  0  0  0  0  0  0  0  0  0
   -2.4390    3.9647   -2.9829 N   0  0  0  0  0  0  0  0  0  0  0  0
   -0.5484    1.6937   -1.2932 C   0  0  0  0  0  0  0  0  0  0  0  0
   -0.2797    0.6639   -0.4352 C   0  0  0  0  0  0  0  0  0  0  0  0
   -1.3351    0.0250    0.2871 C   0  0  0  0  0  0  0  0  0  0  0  0
   -0.9574   -0.9539    1.0764 O   0  0  0  0  0  0  0  0  0  0  0  0
   -1.9470   -1.6712    1.8755 C   0  0  0  0  0  0  0  0  0  0  0  0
   -2.6830    0.4503    0.1364 C   0  0  0  0  0  0  0  0  0  0  0  0
   -2.9657    1.4777   -0.7271 C   0  0  0  0  0  0  0  0  0  0  0  0
    0.2382    2.1901   -1.8501 H   0  0  0  0  0  0  0  0  0  0  0  0
    0.7333    0.3076   -0.2865 H   0  0  0  0  0  0  0  0  0  0  0  0
   -1.3860   -2.4831    2.3349 H   0  0  0  0  0  0  0  0  0  0  0  0
   -2.7761   -2.0447    1.2518 H   0  0  0  0  0  0  0  0  0  0  0  0
   -2.3360   -0.9962    2.6427 H   0  0  0  0  0  0  0  0  0  0  0  0
   -3.5503   -0.0245    0.6454 H   0  0  0  0  0  0  0  0  0  0  0  0
   -3.9937    1.7977   -0.8640 H   0  0  0  0  0  0  0  0  0  0  0  0
   -4.5372   -2.6038    0.5518 O   0  0  0  0  0  0  0  0  0  0  0  0
   -5.3860   -1.6995    0.6868 C   0  0  0  0  0  0  0  0  0  0  0  0
   -5.2368   -0.4773    0.9538 O   0  0  0  0  0  0  0  0  0  0  0  0
   -6.8745   -2.1091    0.4768 C   0  0  0  0  0  0  0  0  0  0  0  0
   -7.6466   -1.7235    1.5191 F   0  0  0  0  0  0  0  0  0  0  0  0
   -7.3787   -1.5105   -0.6336 F   0  0  0  0  0  0  0  0  0  0  0  0
   -7.0453   -3.4358    0.3225 F   0  0  0  0  0  0  0  0  0  0  0  0
  1  4  2  0  0  0  0
  1 10  1  0  0  0  0
  2  1  1  0  0  0  0
  3  2  1  0  0  0  0
  4  5  1  0  0  0  0
  5 12  1  0  0  0  0
  5  6  2  0  0  0  0
  6  7  1  0  0  0  0
  7  8  1  0  0  0  0
  8 13  1  0  0  0  0
  8 15  1  0  0  0  0
  9  6  1  0  0  0  0
  9 16  1  0  0  0  0
 10  9  2  0  0  0  0
 11  4  1  0  0  0  0
 14  8  1  0  0  0  0
 17 10  1  0  0  0  0
 18 19  2  0  0  0  0
 19 20  1  0  0  0  0
 21 19  1  0  0  0  0
 21 22  1  0  0  0  0
 23 21  1  0  0  0  0
 24 21  1  0  0  0  0
M  RAD  3   2   2   3   3  20   2
M  END
