Coordinates from ORCA-job 4-MeOPhN2+~CF3COO-_B3LYPG-6-31G_dp-NX-Scan-d89-09-n800
 OpenBabel11261920413D

 24 23  0  0  0  0  0  0  0  0999 V2000
   -2.9522    1.5181   -0.8736 C   0  0  0  0  0  0  0  0  0  0  0  0
   -3.9106    2.1241   -1.5933 N   0  0  0  0  0  0  0  0  0  0  0  0
   -4.7483    2.5941   -2.1728 N   0  0  0  0  0  0  0  0  0  0  0  0
   -2.0172    0.6837   -1.5439 C   0  0  0  0  0  0  0  0  0  0  0  0
   -1.2618   -0.1749   -0.7925 C   0  0  0  0  0  0  0  0  0  0  0  0
   -1.4870   -0.2703    0.6095 C   0  0  0  0  0  0  0  0  0  0  0  0
   -0.8552   -1.2688    1.2212 O   0  0  0  0  0  0  0  0  0  0  0  0
   -1.3534   -1.6994    2.5059 C   0  0  0  0  0  0  0  0  0  0  0  0
   -2.3294    0.6414    1.2701 C   0  0  0  0  0  0  0  0  0  0  0  0
   -3.1018    1.5196    0.5393 C   0  0  0  0  0  0  0  0  0  0  0  0
   -1.9516    0.7008   -2.6258 H   0  0  0  0  0  0  0  0  0  0  0  0
   -0.5643   -0.8651   -1.2520 H   0  0  0  0  0  0  0  0  0  0  0  0
   -0.8790   -2.6627    2.6879 H   0  0  0  0  0  0  0  0  0  0  0  0
   -2.4407   -1.8041    2.4522 H   0  0  0  0  0  0  0  0  0  0  0  0
   -1.0593   -0.9947    3.2909 H   0  0  0  0  0  0  0  0  0  0  0  0
   -2.4703    0.5887    2.3405 H   0  0  0  0  0  0  0  0  0  0  0  0
   -3.7999    2.1905    1.0149 H   0  0  0  0  0  0  0  0  0  0  0  0
   -4.3395   -1.4390    0.8137 O   0  0  0  0  0  0  0  0  0  0  0  0
   -5.0362   -0.6652    0.1381 C   0  0  0  0  0  0  0  0  0  0  0  0
   -5.3634    0.5366    0.3396 O   0  0  0  0  0  0  0  0  0  0  0  0
   -5.5226   -1.1944   -1.2492 C   0  0  0  0  0  0  0  0  0  0  0  0
   -6.8367   -0.9788   -1.4575 F   0  0  0  0  0  0  0  0  0  0  0  0
   -4.8573   -0.5193   -2.2514 F   0  0  0  0  0  0  0  0  0  0  0  0
   -5.2859   -2.5010   -1.4499 F   0  0  0  0  0  0  0  0  0  0  0  0
  1 10  1  0  0  0  0
  2  1  1  0  0  0  0
  3  2  1  0  0  0  0
  4  1  2  0  0  0  0
  4  5  1  0  0  0  0
  5  6  2  0  0  0  0
  6  7  1  0  0  0  0
  6  9  1  0  0  0  0
  7  8  1  0  0  0  0
  8 13  1  0  0  0  0
  8 15  1  0  0  0  0
  9 16  1  0  0  0  0
 10 17  1  0  0  0  0
 10  9  2  0  0  0  0
 11  4  1  0  0  0  0
 12  5  1  0  0  0  0
 14  8  1  0  0  0  0
 19 20  2  0  0  0  0
 19 18  1  0  0  0  0
 21 19  1  0  0  0  0
 22 21  1  0  0  0  0
 23 21  1  0  0  0  0
 24 21  1  0  0  0  0
M  RAD  3   2   2   3   3  18   2
M  END
