Coordinates from ORCA-job 4-MeOPhN2+~CF3COO-_B3LYPG-6-31G_dp-NX-Scan-d89-09-n800
 OpenBabel11261920413D

 24 23  0  0  0  0  0  0  0  0999 V2000
   -2.5959    1.6085   -1.2794 C   0  0  0  0  0  0  0  0  0  0  0  0
   -3.2347    2.3628   -2.1904 N   0  0  0  0  0  0  0  0  0  0  0  0
   -3.7938    2.9897   -2.9407 N   0  0  0  0  0  0  0  0  0  0  0  0
   -1.2724    1.1574   -1.5545 C   0  0  0  0  0  0  0  0  0  0  0  0
   -0.6850    0.3030   -0.6614 C   0  0  0  0  0  0  0  0  0  0  0  0
   -1.4014   -0.1360    0.4930 C   0  0  0  0  0  0  0  0  0  0  0  0
   -0.7966   -1.0476    1.2279 O   0  0  0  0  0  0  0  0  0  0  0  0
   -1.5369   -1.6924    2.3038 C   0  0  0  0  0  0  0  0  0  0  0  0
   -2.6815    0.3873    0.7872 C   0  0  0  0  0  0  0  0  0  0  0  0
   -3.2940    1.2360   -0.0996 C   0  0  0  0  0  0  0  0  0  0  0  0
   -0.7641    1.4721   -2.4589 H   0  0  0  0  0  0  0  0  0  0  0  0
    0.3083   -0.0944   -0.8344 H   0  0  0  0  0  0  0  0  0  0  0  0
   -0.8902   -2.5039    2.6335 H   0  0  0  0  0  0  0  0  0  0  0  0
   -2.4961   -2.0574    1.9123 H   0  0  0  0  0  0  0  0  0  0  0  0
   -1.6898   -0.9806    3.1204 H   0  0  0  0  0  0  0  0  0  0  0  0
   -3.2844    0.0530    1.6277 H   0  0  0  0  0  0  0  0  0  0  0  0
   -4.3205    1.5363    0.0742 H   0  0  0  0  0  0  0  0  0  0  0  0
   -4.2019   -2.1130    0.6394 O   0  0  0  0  0  0  0  0  0  0  0  0
   -5.1188   -1.2668    0.7253 C   0  0  0  0  0  0  0  0  0  0  0  0
   -5.3059   -0.3446    1.5535 O   0  0  0  0  0  0  0  0  0  0  0  0
   -6.1157   -1.2405   -0.4742 C   0  0  0  0  0  0  0  0  0  0  0  0
   -7.3865   -0.9897   -0.1069 F   0  0  0  0  0  0  0  0  0  0  0  0
   -5.7456   -0.2168   -1.3205 F   0  0  0  0  0  0  0  0  0  0  0  0
   -6.1204   -2.3624   -1.2155 F   0  0  0  0  0  0  0  0  0  0  0  0
  1 10  1  0  0  0  0
  2  1  1  0  0  0  0
  3  2  1  0  0  0  0
  4  1  2  0  0  0  0
  4  5  1  0  0  0  0
  5  6  2  0  0  0  0
  6  9  1  0  0  0  0
  6  7  1  0  0  0  0
  7  8  1  0  0  0  0
  8 13  1  0  0  0  0
  8 15  1  0  0  0  0
  9 16  1  0  0  0  0
 10 17  1  0  0  0  0
 10  9  2  0  0  0  0
 11  4  1  0  0  0  0
 12  5  1  0  0  0  0
 14  8  1  0  0  0  0
 18 19  2  0  0  0  0
 19 20  1  0  0  0  0
 21 22  1  0  0  0  0
 21 19  1  0  0  0  0
 23 21  1  0  0  0  0
 24 21  1  0  0  0  0
M  RAD  3   2   2   3   3  20   2
M  END
