Coordinates from ORCA-job 4-MeOPhN2+~CF3COO-_B3LYPG-6-31G_dp-NX-Scan-d89-09-n800
 OpenBabel11261920413D

 24 23  0  0  0  0  0  0  0  0999 V2000
   -2.0043    2.0245   -1.4213 C   0  0  0  0  0  0  0  0  0  0  0  0
   -2.3512    2.9834   -2.2953 N   0  0  0  0  0  0  0  0  0  0  0  0
   -2.6664    3.7884   -3.0196 N   0  0  0  0  0  0  0  0  0  0  0  0
   -0.6392    1.6204   -1.3399 C   0  0  0  0  0  0  0  0  0  0  0  0
   -0.3138    0.6240   -0.4617 C   0  0  0  0  0  0  0  0  0  0  0  0
   -1.3223    0.0057    0.3406 C   0  0  0  0  0  0  0  0  0  0  0  0
   -0.9028   -0.9634    1.1220 O   0  0  0  0  0  0  0  0  0  0  0  0
   -1.8633   -1.6889    1.9493 C   0  0  0  0  0  0  0  0  0  0  0  0
   -2.6734    0.4370    0.2693 C   0  0  0  0  0  0  0  0  0  0  0  0
   -3.0148    1.4294   -0.6124 C   0  0  0  0  0  0  0  0  0  0  0  0
    0.1091    2.0945   -1.9650 H   0  0  0  0  0  0  0  0  0  0  0  0
    0.7071    0.2722   -0.3660 H   0  0  0  0  0  0  0  0  0  0  0  0
   -1.2959   -2.5240    2.3560 H   0  0  0  0  0  0  0  0  0  0  0  0
   -2.7218   -2.0224    1.3442 H   0  0  0  0  0  0  0  0  0  0  0  0
   -2.2027   -1.0319    2.7550 H   0  0  0  0  0  0  0  0  0  0  0  0
   -3.5099   -0.0085    0.8423 H   0  0  0  0  0  0  0  0  0  0  0  0
   -4.0515    1.7403   -0.6919 H   0  0  0  0  0  0  0  0  0  0  0  0
   -4.4678   -2.4438    0.4948 O   0  0  0  0  0  0  0  0  0  0  0  0
   -5.3495   -1.5801    0.6834 C   0  0  0  0  0  0  0  0  0  0  0  0
   -5.2482   -0.3960    1.0989 O   0  0  0  0  0  0  0  0  0  0  0  0
   -6.8070   -1.9905    0.3161 C   0  0  0  0  0  0  0  0  0  0  0  0
   -7.6812   -1.6676    1.2952 F   0  0  0  0  0  0  0  0  0  0  0  0
   -7.2075   -1.3350   -0.8064 F   0  0  0  0  0  0  0  0  0  0  0  0
   -6.9454   -3.3079    0.0743 F   0  0  0  0  0  0  0  0  0  0  0  0
  1  4  2  0  0  0  0
  1 10  1  0  0  0  0
  2  1  1  0  0  0  0
  3  2  1  0  0  0  0
  4  5  1  0  0  0  0
  5 12  1  0  0  0  0
  5  6  2  0  0  0  0
  6  7  1  0  0  0  0
  7  8  1  0  0  0  0
  8 13  1  0  0  0  0
  8 15  1  0  0  0  0
  9  6  1  0  0  0  0
  9 16  1  0  0  0  0
 10  9  2  0  0  0  0
 11  4  1  0  0  0  0
 14  8  1  0  0  0  0
 17 10  1  0  0  0  0
 18 19  2  0  0  0  0
 19 20  1  0  0  0  0
 21 19  1  0  0  0  0
 21 22  1  0  0  0  0
 23 21  1  0  0  0  0
 24 21  1  0  0  0  0
M  RAD  3   2   2   3   3  20   2
M  END
