Coordinates from ORCA-job 4-MeOPhN2+~CF3COO-_B3LYPG-6-31G_dp-NX-Scan-d89-09-n800
 OpenBabel11261920413D

 24 23  0  0  0  0  0  0  0  0999 V2000
   -1.8709   -1.1389    0.4194 C   0  0  0  0  0  0  0  0  0  0  0  0
   -2.0659   -2.4153    0.9448 N   0  0  0  0  0  0  0  0  0  0  0  0
   -2.8346   -3.2465    1.1840 N   0  0  0  0  0  0  0  0  0  0  0  0
   -0.5680   -0.6135    0.4947 C   0  0  0  0  0  0  0  0  0  0  0  0
   -0.3150    0.6485   -0.0032 C   0  0  0  0  0  0  0  0  0  0  0  0
   -1.3584    1.3980   -0.5843 C   0  0  0  0  0  0  0  0  0  0  0  0
   -1.0098    2.6163   -1.0406 O   0  0  0  0  0  0  0  0  0  0  0  0
   -2.0056    3.4486   -1.6369 C   0  0  0  0  0  0  0  0  0  0  0  0
   -2.6578    0.8621   -0.6591 C   0  0  0  0  0  0  0  0  0  0  0  0
   -2.9219   -0.4060   -0.1606 C   0  0  0  0  0  0  0  0  0  0  0  0
    0.2204   -1.2050    0.9466 H   0  0  0  0  0  0  0  0  0  0  0  0
    0.6754    1.0870    0.0416 H   0  0  0  0  0  0  0  0  0  0  0  0
   -1.4907    4.3664   -1.9195 H   0  0  0  0  0  0  0  0  0  0  0  0
   -2.8047    3.6821   -0.9249 H   0  0  0  0  0  0  0  0  0  0  0  0
   -2.4319    2.9798   -2.5304 H   0  0  0  0  0  0  0  0  0  0  0  0
   -3.4674    1.4269   -1.1037 H   0  0  0  0  0  0  0  0  0  0  0  0
   -3.9131   -0.8407   -0.2066 H   0  0  0  0  0  0  0  0  0  0  0  0
   -4.5891   -2.7418    0.5239 O   0  0  0  0  0  0  0  0  0  0  0  0
   -5.3667   -2.6095    1.5524 C   0  0  0  0  0  0  0  0  0  0  0  0
   -5.1100   -2.7000    2.7399 O   0  0  0  0  0  0  0  0  0  0  0  0
   -6.8045   -2.2331    1.0889 C   0  0  0  0  0  0  0  0  0  0  0  0
   -7.6365   -2.0707    2.1241 F   0  0  0  0  0  0  0  0  0  0  0  0
   -6.7719   -1.0639    0.3972 F   0  0  0  0  0  0  0  0  0  0  0  0
   -7.3251   -3.1709    0.2743 F   0  0  0  0  0  0  0  0  0  0  0  0
  1  4  1  0  0  0  0
  1  2  1  0  0  0  0
  2  3  2  0  0  0  0
  4 11  1  0  0  0  0
  5 12  1  0  0  0  0
  5  4  2  0  0  0  0
  6  5  1  0  0  0  0
  7  6  1  0  0  0  0
  8  7  1  0  0  0  0
  8 14  1  0  0  0  0
  9  6  2  0  0  0  0
  9 10  1  0  0  0  0
 10  1  2  0  0  0  0
 13  8  1  0  0  0  0
 15  8  1  0  0  0  0
 16  9  1  0  0  0  0
 17 10  1  0  0  0  0
 18 19  2  0  0  0  0
 19 20  1  0  0  0  0
 21 19  1  0  0  0  0
 21 22  1  0  0  0  0
 23 21  1  0  0  0  0
 24 21  1  0  0  0  0
M  RAD  2   3   2  20   2
M  END
