Coordinates from ORCA-job 4-MeOPhN2+~CF3COO-_B3LYPG-6-31G_dp-NX-Scan-d89-09-n800
 OpenBabel11261920413D

 24 23  0  0  0  0  0  0  0  0999 V2000
   -1.7046   -0.1485   -0.0576 C   0  0  0  0  0  0  0  0  0  0  0  0
   -3.0433   -0.3025    0.0512 N   0  0  0  0  0  0  0  0  0  0  0  0
   -4.1681   -0.4314    0.1419 N   0  0  0  0  0  0  0  0  0  0  0  0
   -1.1576    1.1622   -0.1314 C   0  0  0  0  0  0  0  0  0  0  0  0
    0.2053    1.2996   -0.2428 C   0  0  0  0  0  0  0  0  0  0  0  0
    1.0495    0.1641   -0.2832 C   0  0  0  0  0  0  0  0  0  0  0  0
    2.3609    0.4265   -0.3936 O   0  0  0  0  0  0  0  0  0  0  0  0
    3.2947   -0.6554   -0.4422 C   0  0  0  0  0  0  0  0  0  0  0  0
    0.4933   -1.1303   -0.2081 C   0  0  0  0  0  0  0  0  0  0  0  0
   -0.8748   -1.2959   -0.0961 C   0  0  0  0  0  0  0  0  0  0  0  0
   -1.8103    2.0269   -0.0993 H   0  0  0  0  0  0  0  0  0  0  0  0
    0.6617    2.2814   -0.3018 H   0  0  0  0  0  0  0  0  0  0  0  0
    4.2759   -0.1912   -0.5314 H   0  0  0  0  0  0  0  0  0  0  0  0
    3.1116   -1.2951   -1.3126 H   0  0  0  0  0  0  0  0  0  0  0  0
    3.2542   -1.2522    0.4758 H   0  0  0  0  0  0  0  0  0  0  0  0
    1.1251   -2.0090   -0.2365 H   0  0  0  0  0  0  0  0  0  0  0  0
   -1.3137   -2.2854   -0.0377 H   0  0  0  0  0  0  0  0  0  0  0  0
  -12.9365   -1.1106    1.0351 O   0  0  0  0  0  0  0  0  0  0  0  0
  -11.7083   -1.0060    0.8964 C   0  0  0  0  0  0  0  0  0  0  0  0
  -10.7382   -1.7775    0.8513 O   0  0  0  0  0  0  0  0  0  0  0  0
  -11.2875    0.5388    0.7506 C   0  0  0  0  0  0  0  0  0  0  0  0
   -9.9727    0.7145    0.5126 F   0  0  0  0  0  0  0  0  0  0  0  0
  -11.9578    1.1251   -0.2620 F   0  0  0  0  0  0  0  0  0  0  0  0
  -11.5823    1.2116    1.8835 F   0  0  0  0  0  0  0  0  0  0  0  0
  1  2  1  0  0  0  0
  2  3  1  0  0  0  0
  4 11  1  0  0  0  0
  4  1  2  0  0  0  0
  5  4  1  0  0  0  0
  6  5  2  0  0  0  0
  6  9  1  0  0  0  0
  7  6  1  0  0  0  0
  8  7  1  0  0  0  0
  8 15  1  0  0  0  0
  9 10  2  0  0  0  0
 10  1  1  0  0  0  0
 10 17  1  0  0  0  0
 12  5  1  0  0  0  0
 13  8  1  0  0  0  0
 14  8  1  0  0  0  0
 16  9  1  0  0  0  0
 19 18  1  0  0  0  0
 20 19  2  0  0  0  0
 21 19  1  0  0  0  0
 21 24  1  0  0  0  0
 22 21  1  0  0  0  0
 23 21  1  0  0  0  0
M  RAD  3   2   2   3   3  18   2
M  END
