Coordinates from ORCA-job 4-MeOPhN2+~CF3COO-_B3LYPG-6-31G_dp-NX-Scan-d89-09-n800
 OpenBabel11261920413D

 24 24  0  0  0  0  0  0  0  0999 V2000
   -2.0651   -0.9703    0.7331 C   0  0  0  0  0  0  0  0  0  0  0  0
   -2.1594   -2.1625    1.5046 N   0  0  0  0  0  0  0  0  0  0  0  0
   -3.2852   -2.7415    1.7269 N   0  0  0  0  0  0  0  0  0  0  0  0
   -0.7273   -0.6751    0.3833 C   0  0  0  0  0  0  0  0  0  0  0  0
   -0.3919    0.4510   -0.3443 C   0  0  0  0  0  0  0  0  0  0  0  0
   -1.3942    1.3526   -0.7400 C   0  0  0  0  0  0  0  0  0  0  0  0
   -0.9725    2.4338   -1.4502 O   0  0  0  0  0  0  0  0  0  0  0  0
   -1.9389    3.3837   -1.8746 C   0  0  0  0  0  0  0  0  0  0  0  0
   -2.7248    1.0967   -0.3880 C   0  0  0  0  0  0  0  0  0  0  0  0
   -3.0587   -0.0518    0.3335 C   0  0  0  0  0  0  0  0  0  0  0  0
    0.0374   -1.3729    0.7079 H   0  0  0  0  0  0  0  0  0  0  0  0
    0.6365    0.6644   -0.6159 H   0  0  0  0  0  0  0  0  0  0  0  0
   -1.3880    4.1483   -2.4243 H   0  0  0  0  0  0  0  0  0  0  0  0
   -2.4494    3.8490   -1.0223 H   0  0  0  0  0  0  0  0  0  0  0  0
   -2.6870    2.9300   -2.5373 H   0  0  0  0  0  0  0  0  0  0  0  0
   -3.5156    1.7815   -0.6712 H   0  0  0  0  0  0  0  0  0  0  0  0
   -4.0986   -0.1967    0.5860 H   0  0  0  0  0  0  0  0  0  0  0  0
   -4.1750   -2.3492    1.3305 O   0  0  0  0  0  0  0  0  0  0  0  0
   -5.4274   -3.0368    1.6187 C   0  0  0  0  0  0  0  0  0  0  0  0
   -5.5097   -3.9978    2.3056 O   0  0  0  0  0  0  0  0  0  0  0  0
   -6.5381   -2.2897    0.8685 C   0  0  0  0  0  0  0  0  0  0  0  0
   -7.7206   -2.8126    1.1809 F   0  0  0  0  0  0  0  0  0  0  0  0
   -6.5287   -0.9868    1.2048 F   0  0  0  0  0  0  0  0  0  0  0  0
   -6.3416   -2.3876   -0.4543 F   0  0  0  0  0  0  0  0  0  0  0  0
  1  2  1  0  0  0  0
  2  3  2  0  0  0  0
  4 11  1  0  0  0  0
  4  1  1  0  0  0  0
  5  4  2  0  0  0  0
  6  9  2  0  0  0  0
  6  5  1  0  0  0  0
  7  6  1  0  0  0  0
  8  7  1  0  0  0  0
  8 14  1  0  0  0  0
  9 10  1  0  0  0  0
 10 17  1  0  0  0  0
 10  1  2  0  0  0  0
 12  5  1  0  0  0  0
 13  8  1  0  0  0  0
 15  8  1  0  0  0  0
 16  9  1  0  0  0  0
 18 19  1  0  0  0  0
 18  3  1  0  0  0  0
 19 20  2  0  0  0  0
 21 22  1  0  0  0  0
 21 23  1  0  0  0  0
 21 19  1  0  0  0  0
 24 21  1  0  0  0  0
M  END
