Coordinates from ORCA-job 4-MeOPhN2+~CF3COO-_B3LYPG-6-31G_dp-NX-Scan-d89-09-n800
 OpenBabel11261920413D

 24 23  0  0  0  0  0  0  0  0999 V2000
   -2.6803    0.1774   -1.0563 C   0  0  0  0  0  0  0  0  0  0  0  0
   -3.5208    0.3524   -2.1767 N   0  0  0  0  0  0  0  0  0  0  0  0
   -3.6295    0.7570   -3.2240 N   0  0  0  0  0  0  0  0  0  0  0  0
   -1.4658    0.8869   -1.0641 C   0  0  0  0  0  0  0  0  0  0  0  0
   -0.6004    0.7344    0.0006 C   0  0  0  0  0  0  0  0  0  0  0  0
   -0.9326   -0.1244    1.0691 C   0  0  0  0  0  0  0  0  0  0  0  0
   -0.0174   -0.1980    2.0560 O   0  0  0  0  0  0  0  0  0  0  0  0
   -0.2793   -1.0333    3.1827 C   0  0  0  0  0  0  0  0  0  0  0  0
   -2.1473   -0.8307    1.0524 C   0  0  0  0  0  0  0  0  0  0  0  0
   -3.0277   -0.6762   -0.0123 C   0  0  0  0  0  0  0  0  0  0  0  0
   -1.2260    1.5453   -1.8916 H   0  0  0  0  0  0  0  0  0  0  0  0
    0.3423    1.2680    0.0378 H   0  0  0  0  0  0  0  0  0  0  0  0
    0.5849   -0.9235    3.8383 H   0  0  0  0  0  0  0  0  0  0  0  0
   -0.3802   -2.0831    2.8845 H   0  0  0  0  0  0  0  0  0  0  0  0
   -1.1832   -0.7127    3.7131 H   0  0  0  0  0  0  0  0  0  0  0  0
   -2.4183   -1.4954    1.8629 H   0  0  0  0  0  0  0  0  0  0  0  0
   -3.9676   -1.2084   -0.0585 H   0  0  0  0  0  0  0  0  0  0  0  0
   -5.1800   -0.5475   -1.8082 O   0  0  0  0  0  0  0  0  0  0  0  0
   -5.9569    0.2723   -1.1792 C   0  0  0  0  0  0  0  0  0  0  0  0
   -5.6630    1.3129   -0.6066 O   0  0  0  0  0  0  0  0  0  0  0  0
   -7.4290   -0.2268   -1.1726 C   0  0  0  0  0  0  0  0  0  0  0  0
   -8.2672    0.7100   -0.7081 F   0  0  0  0  0  0  0  0  0  0  0  0
   -7.8411   -0.5828   -2.4046 F   0  0  0  0  0  0  0  0  0  0  0  0
   -7.5373   -1.3140   -0.3727 F   0  0  0  0  0  0  0  0  0  0  0  0
  1 10  1  0  0  0  0
  2  1  1  0  0  0  0
  3  2  2  0  0  0  0
  4  1  2  0  0  0  0
  4  5  1  0  0  0  0
  5 12  1  0  0  0  0
  5  6  2  0  0  0  0
  6  7  1  0  0  0  0
  7  8  1  0  0  0  0
  8 15  1  0  0  0  0
  8 13  1  0  0  0  0
  9  6  1  0  0  0  0
  9 16  1  0  0  0  0
 10  9  2  0  0  0  0
 11  4  1  0  0  0  0
 14  8  1  0  0  0  0
 17 10  1  0  0  0  0
 18 19  2  0  0  0  0
 19 21  1  0  0  0  0
 19 20  1  0  0  0  0
 21 22  1  0  0  0  0
 21 24  1  0  0  0  0
 23 21  1  0  0  0  0
M  RAD  2   3   2  20   2
M  END
