Coordinates from ORCA-job 4-MeOPhN2+~CF3COO-_B3LYPG-6-31G_dp-NX-Scan-d89-09-n800
 OpenBabel11261920413D

 24 23  0  0  0  0  0  0  0  0999 V2000
   -2.9524    1.5060   -0.8667 C   0  0  0  0  0  0  0  0  0  0  0  0
   -3.9223    2.0965   -1.5854 N   0  0  0  0  0  0  0  0  0  0  0  0
   -4.7716    2.5481   -2.1615 N   0  0  0  0  0  0  0  0  0  0  0  0
   -2.0134    0.6766   -1.5366 C   0  0  0  0  0  0  0  0  0  0  0  0
   -1.2499   -0.1742   -0.7838 C   0  0  0  0  0  0  0  0  0  0  0  0
   -1.4729   -0.2673    0.6180 C   0  0  0  0  0  0  0  0  0  0  0  0
   -0.8364   -1.2618    1.2319 O   0  0  0  0  0  0  0  0  0  0  0  0
   -1.3356   -1.6946    2.5152 C   0  0  0  0  0  0  0  0  0  0  0  0
   -2.3197    0.6415    1.2777 C   0  0  0  0  0  0  0  0  0  0  0  0
   -3.0971    1.5141    0.5462 C   0  0  0  0  0  0  0  0  0  0  0  0
   -1.9515    0.6895   -2.6188 H   0  0  0  0  0  0  0  0  0  0  0  0
   -0.5491   -0.8615   -1.2427 H   0  0  0  0  0  0  0  0  0  0  0  0
   -0.8570   -2.6555    2.6988 H   0  0  0  0  0  0  0  0  0  0  0  0
   -2.4222   -1.8053    2.4593 H   0  0  0  0  0  0  0  0  0  0  0  0
   -1.0476   -0.9884    3.3011 H   0  0  0  0  0  0  0  0  0  0  0  0
   -2.4576    0.5913    2.3487 H   0  0  0  0  0  0  0  0  0  0  0  0
   -3.8016    2.1793    1.0203 H   0  0  0  0  0  0  0  0  0  0  0  0
   -4.3375   -1.4299    0.7777 O   0  0  0  0  0  0  0  0  0  0  0  0
   -5.0479   -0.6559    0.1171 C   0  0  0  0  0  0  0  0  0  0  0  0
   -5.3786    0.5429    0.3297 O   0  0  0  0  0  0  0  0  0  0  0  0
   -5.5459   -1.1803   -1.2681 C   0  0  0  0  0  0  0  0  0  0  0  0
   -6.8562   -0.9438   -1.4769 F   0  0  0  0  0  0  0  0  0  0  0  0
   -4.8698   -0.5168   -2.2718 F   0  0  0  0  0  0  0  0  0  0  0  0
   -5.3301   -2.4905   -1.4676 F   0  0  0  0  0  0  0  0  0  0  0  0
  1 10  1  0  0  0  0
  2  1  1  0  0  0  0
  3  2  1  0  0  0  0
  4  1  2  0  0  0  0
  4  5  1  0  0  0  0
  5  6  2  0  0  0  0
  6  7  1  0  0  0  0
  6  9  1  0  0  0  0
  7  8  1  0  0  0  0
  8 13  1  0  0  0  0
  8 15  1  0  0  0  0
  9 16  1  0  0  0  0
 10 17  1  0  0  0  0
 10  9  2  0  0  0  0
 11  4  1  0  0  0  0
 12  5  1  0  0  0  0
 14  8  1  0  0  0  0
 19 20  2  0  0  0  0
 19 18  1  0  0  0  0
 21 19  1  0  0  0  0
 22 21  1  0  0  0  0
 23 21  1  0  0  0  0
 24 21  1  0  0  0  0
M  RAD  3   2   2   3   3  18   2
M  END
