Coordinates from ORCA-job 4-MeOPhN2+~CF3COO-_B3LYPG-6-31G_dp-NX-Scan-d89-09-n800
 OpenBabel11261920413D

 24 23  0  0  0  0  0  0  0  0999 V2000
   -1.8861   -1.0438    0.4824 C   0  0  0  0  0  0  0  0  0  0  0  0
   -2.0866   -2.2897    1.0786 N   0  0  0  0  0  0  0  0  0  0  0  0
   -2.9089   -3.0606    1.3827 N   0  0  0  0  0  0  0  0  0  0  0  0
   -0.5518   -0.5980    0.4218 C   0  0  0  0  0  0  0  0  0  0  0  0
   -0.2617    0.6274   -0.1435 C   0  0  0  0  0  0  0  0  0  0  0  0
   -1.3020    1.4271   -0.6574 C   0  0  0  0  0  0  0  0  0  0  0  0
   -0.9189    2.6052   -1.1887 O   0  0  0  0  0  0  0  0  0  0  0  0
   -1.9096    3.4794   -1.7287 C   0  0  0  0  0  0  0  0  0  0  0  0
   -2.6340    0.9776   -0.5948 C   0  0  0  0  0  0  0  0  0  0  0  0
   -2.9333   -0.2548   -0.0293 C   0  0  0  0  0  0  0  0  0  0  0  0
    0.2343   -1.2270    0.8246 H   0  0  0  0  0  0  0  0  0  0  0  0
    0.7555    0.9978   -0.2033 H   0  0  0  0  0  0  0  0  0  0  0  0
   -1.3672    4.3545   -2.0859 H   0  0  0  0  0  0  0  0  0  0  0  0
   -2.6306    3.7842   -0.9622 H   0  0  0  0  0  0  0  0  0  0  0  0
   -2.4382    3.0114   -2.5666 H   0  0  0  0  0  0  0  0  0  0  0  0
   -3.4427    1.5816   -0.9865 H   0  0  0  0  0  0  0  0  0  0  0  0
   -3.9518   -0.6158    0.0274 H   0  0  0  0  0  0  0  0  0  0  0  0
   -4.5488   -2.4910    0.8002 O   0  0  0  0  0  0  0  0  0  0  0  0
   -5.4887   -2.7925    1.6550 C   0  0  0  0  0  0  0  0  0  0  0  0
   -5.4104   -3.2988    2.7539 O   0  0  0  0  0  0  0  0  0  0  0  0
   -6.8691   -2.3799    1.0647 C   0  0  0  0  0  0  0  0  0  0  0  0
   -7.8462   -2.5012    1.9695 F   0  0  0  0  0  0  0  0  0  0  0  0
   -6.8433   -1.0896    0.6491 F   0  0  0  0  0  0  0  0  0  0  0  0
   -7.1834   -3.1435   -0.0011 F   0  0  0  0  0  0  0  0  0  0  0  0
  1  2  1  0  0  0  0
  2  3  2  0  0  0  0
  4  1  1  0  0  0  0
  4 11  1  0  0  0  0
  5  4  2  0  0  0  0
  6  9  2  0  0  0  0
  6  5  1  0  0  0  0
  7  6  1  0  0  0  0
  8  7  1  0  0  0  0
  8 14  1  0  0  0  0
  9 10  1  0  0  0  0
 10 17  1  0  0  0  0
 10  1  2  0  0  0  0
 12  5  1  0  0  0  0
 13  8  1  0  0  0  0
 15  8  1  0  0  0  0
 16  9  1  0  0  0  0
 18 19  2  0  0  0  0
 19 20  1  0  0  0  0
 21 19  1  0  0  0  0
 21 22  1  0  0  0  0
 23 21  1  0  0  0  0
 24 21  1  0  0  0  0
M  RAD  2   3   2  20   2
M  END
