Coordinates from ORCA-job 4-MeOPhN2+~CF3COO-_B3LYPG-6-31G_dp-NX-Scan-d89-09-n800
 OpenBabel11261920413D

 24 24  0  0  0  0  0  0  0  0999 V2000
   -1.9330   -1.0000    0.5381 C   0  0  0  0  0  0  0  0  0  0  0  0
   -2.1146   -2.2302    1.1783 N   0  0  0  0  0  0  0  0  0  0  0  0
   -2.9922   -2.9515    1.5141 N   0  0  0  0  0  0  0  0  0  0  0  0
   -0.5872   -0.6047    0.3972 C   0  0  0  0  0  0  0  0  0  0  0  0
   -0.2709    0.5939   -0.2106 C   0  0  0  0  0  0  0  0  0  0  0  0
   -1.2991    1.4274   -0.6908 C   0  0  0  0  0  0  0  0  0  0  0  0
   -0.8940    2.5778   -1.2690 O   0  0  0  0  0  0  0  0  0  0  0  0
   -1.8739    3.4773   -1.7834 C   0  0  0  0  0  0  0  0  0  0  0  0
   -2.6428    1.0369   -0.5499 C   0  0  0  0  0  0  0  0  0  0  0  0
   -2.9652   -0.1698    0.0589 C   0  0  0  0  0  0  0  0  0  0  0  0
    0.1900   -1.2594    0.7755 H   0  0  0  0  0  0  0  0  0  0  0  0
    0.7575    0.9163   -0.3294 H   0  0  0  0  0  0  0  0  0  0  0  0
   -1.3162    4.3212   -2.1894 H   0  0  0  0  0  0  0  0  0  0  0  0
   -2.5449    3.8304   -0.9924 H   0  0  0  0  0  0  0  0  0  0  0  0
   -2.4615    3.0111   -2.5826 H   0  0  0  0  0  0  0  0  0  0  0  0
   -3.4444    1.6672   -0.9141 H   0  0  0  0  0  0  0  0  0  0  0  0
   -3.9969   -0.4712    0.1691 H   0  0  0  0  0  0  0  0  0  0  0  0
   -4.4933   -2.3467    1.0238 O   0  0  0  0  0  0  0  0  0  0  0  0
   -5.4998   -2.8953    1.6763 C   0  0  0  0  0  0  0  0  0  0  0  0
   -5.4909   -3.6576    2.6120 O   0  0  0  0  0  0  0  0  0  0  0  0
   -6.8334   -2.4150    1.0367 C   0  0  0  0  0  0  0  0  0  0  0  0
   -7.8705   -2.6760    1.8370 F   0  0  0  0  0  0  0  0  0  0  0  0
   -6.8103   -1.0836    0.7976 F   0  0  0  0  0  0  0  0  0  0  0  0
   -7.0363   -3.0387   -0.1412 F   0  0  0  0  0  0  0  0  0  0  0  0
  1  2  1  0  0  0  0
  2  3  1  0  0  0  0
  4  1  1  0  0  0  0
  4 11  1  0  0  0  0
  5  4  2  0  0  0  0
  6  9  2  0  0  0  0
  6  5  1  0  0  0  0
  7  6  1  0  0  0  0
  8  7  1  0  0  0  0
  8 14  1  0  0  0  0
  9 10  1  0  0  0  0
 10 17  1  0  0  0  0
 10  1  2  0  0  0  0
 12  5  1  0  0  0  0
 13  8  1  0  0  0  0
 15  8  1  0  0  0  0
 16  9  1  0  0  0  0
 18  3  1  0  0  0  0
 18 19  1  0  0  0  0
 19 20  2  0  0  0  0
 21 19  1  0  0  0  0
 21 22  1  0  0  0  0
 23 21  1  0  0  0  0
 24 21  1  0  0  0  0
M  RAD  2   2   2   3   2
M  END
