Coordinates from ORCA-job 4-MeOPhN2+~CF3COO-_B3LYPG-6-31G_dp-NX-Scan-d89-09-n800
 OpenBabel11261920413D

 24 23  0  0  0  0  0  0  0  0999 V2000
   -2.5746    0.4121   -1.0406 C   0  0  0  0  0  0  0  0  0  0  0  0
   -3.3761    0.6568   -2.1641 N   0  0  0  0  0  0  0  0  0  0  0  0
   -3.5125    0.9963   -3.2290 N   0  0  0  0  0  0  0  0  0  0  0  0
   -1.3382    1.0918   -1.0027 C   0  0  0  0  0  0  0  0  0  0  0  0
   -0.4960    0.8606    0.0634 C   0  0  0  0  0  0  0  0  0  0  0  0
   -0.8666   -0.0527    1.0766 C   0  0  0  0  0  0  0  0  0  0  0  0
    0.0307   -0.2013    2.0676 O   0  0  0  0  0  0  0  0  0  0  0  0
   -0.2597   -1.0994    3.1402 C   0  0  0  0  0  0  0  0  0  0  0  0
   -2.0960   -0.7309    1.0019 C   0  0  0  0  0  0  0  0  0  0  0  0
   -2.9664   -0.4945   -0.0551 C   0  0  0  0  0  0  0  0  0  0  0  0
   -1.0683    1.7864   -1.7909 H   0  0  0  0  0  0  0  0  0  0  0  0
    0.4578    1.3686    0.1453 H   0  0  0  0  0  0  0  0  0  0  0  0
    0.5987   -1.0438    3.8100 H   0  0  0  0  0  0  0  0  0  0  0  0
   -0.3749   -2.1262    2.7766 H   0  0  0  0  0  0  0  0  0  0  0  0
   -1.1645   -0.7943    3.6775 H   0  0  0  0  0  0  0  0  0  0  0  0
   -2.3885   -1.4414    1.7650 H   0  0  0  0  0  0  0  0  0  0  0  0
   -3.9274   -1.0139   -0.1529 H   0  0  0  0  0  0  0  0  0  0  0  0
   -5.6856   -1.5386   -0.6414 O   0  0  0  0  0  0  0  0  0  0  0  0
   -6.0816   -0.4410   -1.0548 C   0  0  0  0  0  0  0  0  0  0  0  0
   -5.4218    0.5909   -1.3920 O   0  0  0  0  0  0  0  0  0  0  0  0
   -7.6185   -0.2364   -1.2159 C   0  0  0  0  0  0  0  0  0  0  0  0
   -8.0373    0.8515   -0.5341 F   0  0  0  0  0  0  0  0  0  0  0  0
   -7.9357   -0.0498   -2.5168 F   0  0  0  0  0  0  0  0  0  0  0  0
   -8.3208   -1.2909   -0.7719 F   0  0  0  0  0  0  0  0  0  0  0  0
  1  4  2  0  0  0  0
  1 10  1  0  0  0  0
  2  1  1  0  0  0  0
  3  2  2  0  0  0  0
  4  5  1  0  0  0  0
  5 12  1  0  0  0  0
  5  6  2  0  0  0  0
  6  7  1  0  0  0  0
  7  8  1  0  0  0  0
  8 15  1  0  0  0  0
  8 13  1  0  0  0  0
  9  6  1  0  0  0  0
  9 16  1  0  0  0  0
 10  9  2  0  0  0  0
 11  4  1  0  0  0  0
 14  8  1  0  0  0  0
 17 10  1  0  0  0  0
 19 18  1  0  0  0  0
 20 19  2  0  0  0  0
 21 19  1  0  0  0  0
 21 24  1  0  0  0  0
 21 22  1  0  0  0  0
 23 21  1  0  0  0  0
M  RAD  2   3   2  18   2
M  END
