Coordinates from ORCA-job 4-MeOPhN2+~CF3COO-_B3LYPG-6-31G_dp-NX-Scan-d89-09-n800
 OpenBabel11261920413D

 24 23  0  0  0  0  0  0  0  0999 V2000
   -1.8073    2.1913   -1.4613 C   0  0  0  0  0  0  0  0  0  0  0  0
   -2.0278    3.2443   -2.2661 N   0  0  0  0  0  0  0  0  0  0  0  0
   -2.2168    4.1332   -2.9358 N   0  0  0  0  0  0  0  0  0  0  0  0
   -0.4614    1.7848   -1.2210 C   0  0  0  0  0  0  0  0  0  0  0  0
   -0.2485    0.7230   -0.3870 C   0  0  0  0  0  0  0  0  0  0  0  0
   -1.3487    0.0492    0.2287 C   0  0  0  0  0  0  0  0  0  0  0  0
   -1.0170   -0.9376    1.0279 O   0  0  0  0  0  0  0  0  0  0  0  0
   -2.0426   -1.6639    1.7708 C   0  0  0  0  0  0  0  0  0  0  0  0
   -2.6892    0.4523   -0.0268 C   0  0  0  0  0  0  0  0  0  0  0  0
   -2.9138    1.5142   -0.8667 C   0  0  0  0  0  0  0  0  0  0  0  0
    0.3605    2.3137   -1.6899 H   0  0  0  0  0  0  0  0  0  0  0  0
    0.7541    0.3740   -0.1681 H   0  0  0  0  0  0  0  0  0  0  0  0
   -1.4874   -2.4178    2.3262 H   0  0  0  0  0  0  0  0  0  0  0  0
   -2.7950   -2.1209    1.1092 H   0  0  0  0  0  0  0  0  0  0  0  0
   -2.5416   -0.9731    2.4552 H   0  0  0  0  0  0  0  0  0  0  0  0
   -3.5783   -0.0683    0.4015 H   0  0  0  0  0  0  0  0  0  0  0  0
   -3.9296    1.8326   -1.0781 H   0  0  0  0  0  0  0  0  0  0  0  0
   -4.6179   -2.8062    0.6438 O   0  0  0  0  0  0  0  0  0  0  0  0
   -5.4147   -1.8499    0.7060 C   0  0  0  0  0  0  0  0  0  0  0  0
   -5.2000   -0.6103    0.7949 O   0  0  0  0  0  0  0  0  0  0  0  0
   -6.9318   -2.2038    0.6630 C   0  0  0  0  0  0  0  0  0  0  0  0
   -7.5810   -1.7115    1.7448 F   0  0  0  0  0  0  0  0  0  0  0  0
   -7.5191   -1.6607   -0.4336 F   0  0  0  0  0  0  0  0  0  0  0  0
   -7.1689   -3.5287    0.6244 F   0  0  0  0  0  0  0  0  0  0  0  0
  1  4  2  0  0  0  0
  1 10  1  0  0  0  0
  2  1  1  0  0  0  0
  3  2  1  0  0  0  0
  4  5  1  0  0  0  0
  5 12  1  0  0  0  0
  5  6  2  0  0  0  0
  6  7  1  0  0  0  0
  7  8  1  0  0  0  0
  8 13  1  0  0  0  0
  8 15  1  0  0  0  0
  9  6  1  0  0  0  0
  9 16  1  0  0  0  0
 10  9  2  0  0  0  0
 11  4  1  0  0  0  0
 14  8  1  0  0  0  0
 17 10  1  0  0  0  0
 18 19  2  0  0  0  0
 19 20  1  0  0  0  0
 21 19  1  0  0  0  0
 21 22  1  0  0  0  0
 23 21  1  0  0  0  0
 24 21  1  0  0  0  0
M  RAD  3   2   2   3   3  20   2
M  END
