Coordinates from ORCA-job 4-MeOPhN2+~CF3COO-_B3LYPG-6-31G_dp-NX-Scan-d89-09-n800
 OpenBabel11261920413D

 24 23  0  0  0  0  0  0  0  0999 V2000
   -2.9510    1.5534   -0.8898 C   0  0  0  0  0  0  0  0  0  0  0  0
   -3.8617    2.2223   -1.6117 N   0  0  0  0  0  0  0  0  0  0  0  0
   -4.6528    2.7626   -2.1987 N   0  0  0  0  0  0  0  0  0  0  0  0
   -2.0257    0.7081   -1.5626 C   0  0  0  0  0  0  0  0  0  0  0  0
   -1.2951   -0.1748   -0.8164 C   0  0  0  0  0  0  0  0  0  0  0  0
   -1.5271   -0.2800    0.5853 C   0  0  0  0  0  0  0  0  0  0  0  0
   -0.9034   -1.2874    1.1894 O   0  0  0  0  0  0  0  0  0  0  0  0
   -1.3893   -1.7113    2.4815 C   0  0  0  0  0  0  0  0  0  0  0  0
   -2.3625    0.6344    1.2494 C   0  0  0  0  0  0  0  0  0  0  0  0
   -3.1202    1.5296    0.5220 C   0  0  0  0  0  0  0  0  0  0  0  0
   -1.9456    0.7423   -2.6431 H   0  0  0  0  0  0  0  0  0  0  0  0
   -0.6051   -0.8707   -1.2786 H   0  0  0  0  0  0  0  0  0  0  0  0
   -0.9193   -2.6774    2.6597 H   0  0  0  0  0  0  0  0  0  0  0  0
   -2.4778   -1.8072    2.4407 H   0  0  0  0  0  0  0  0  0  0  0  0
   -1.0790   -1.0063    3.2599 H   0  0  0  0  0  0  0  0  0  0  0  0
   -2.5158    0.5694    2.3171 H   0  0  0  0  0  0  0  0  0  0  0  0
   -3.8041    2.2120    1.0020 H   0  0  0  0  0  0  0  0  0  0  0  0
   -4.3581   -1.4502    0.9124 O   0  0  0  0  0  0  0  0  0  0  0  0
   -5.0188   -0.6876    0.1883 C   0  0  0  0  0  0  0  0  0  0  0  0
   -5.3349    0.5243    0.3449 O   0  0  0  0  0  0  0  0  0  0  0  0
   -5.4717   -1.2486   -1.1968 C   0  0  0  0  0  0  0  0  0  0  0  0
   -6.7905   -1.0752   -1.4180 F   0  0  0  0  0  0  0  0  0  0  0  0
   -4.8183   -0.5705   -2.2013 F   0  0  0  0  0  0  0  0  0  0  0  0
   -5.1959   -2.5514   -1.3736 F   0  0  0  0  0  0  0  0  0  0  0  0
  1 10  1  0  0  0  0
  2  1  1  0  0  0  0
  3  2  1  0  0  0  0
  4  1  2  0  0  0  0
  4  5  1  0  0  0  0
  5  6  2  0  0  0  0
  6  7  1  0  0  0  0
  6  9  1  0  0  0  0
  7  8  1  0  0  0  0
  8 13  1  0  0  0  0
  8 15  1  0  0  0  0
  9 16  1  0  0  0  0
 10 17  1  0  0  0  0
 10  9  2  0  0  0  0
 11  4  1  0  0  0  0
 12  5  1  0  0  0  0
 14  8  1  0  0  0  0
 19 20  2  0  0  0  0
 19 18  1  0  0  0  0
 21 19  1  0  0  0  0
 22 21  1  0  0  0  0
 23 21  1  0  0  0  0
 24 21  1  0  0  0  0
M  RAD  3   2   2   3   3  18   2
M  END
