Coordinates from ORCA-job 4-MeOPhN2+~CF3COO-_B3LYPG-6-31G_dp-NX-Scan-d89-09-n800
 OpenBabel11261920413D

 24 23  0  0  0  0  0  0  0  0999 V2000
   -2.4743    0.3235   -1.1009 C   0  0  0  0  0  0  0  0  0  0  0  0
   -3.2826    0.5835   -2.1895 N   0  0  0  0  0  0  0  0  0  0  0  0
   -3.7599    0.8498   -3.1655 N   0  0  0  0  0  0  0  0  0  0  0  0
   -1.0913    0.5703   -1.2693 C   0  0  0  0  0  0  0  0  0  0  0  0
   -0.2454    0.3267   -0.2118 C   0  0  0  0  0  0  0  0  0  0  0  0
   -0.7625   -0.1605    1.0122 C   0  0  0  0  0  0  0  0  0  0  0  0
    0.1505   -0.3621    1.9755 O   0  0  0  0  0  0  0  0  0  0  0  0
   -0.2766   -0.8473    3.2525 C   0  0  0  0  0  0  0  0  0  0  0  0
   -2.1412   -0.3985    1.1547 C   0  0  0  0  0  0  0  0  0  0  0  0
   -3.0136   -0.1597    0.1016 C   0  0  0  0  0  0  0  0  0  0  0  0
   -0.7129    0.9443   -2.2144 H   0  0  0  0  0  0  0  0  0  0  0  0
    0.8213    0.5020   -0.2917 H   0  0  0  0  0  0  0  0  0  0  0  0
    0.6285   -0.9202    3.8547 H   0  0  0  0  0  0  0  0  0  0  0  0
   -0.7397   -1.8355    3.1636 H   0  0  0  0  0  0  0  0  0  0  0  0
   -0.9775   -0.1499    3.7238 H   0  0  0  0  0  0  0  0  0  0  0  0
   -2.5503   -0.7723    2.0848 H   0  0  0  0  0  0  0  0  0  0  0  0
   -4.0915   -0.3413    0.2024 H   0  0  0  0  0  0  0  0  0  0  0  0
   -5.4040    0.1249   -1.6792 O   0  0  0  0  0  0  0  0  0  0  0  0
   -6.2476   -0.2857   -0.8259 C   0  0  0  0  0  0  0  0  0  0  0  0
   -6.0394   -0.6556    0.3401 O   0  0  0  0  0  0  0  0  0  0  0  0
   -7.7094   -0.3151   -1.3533 C   0  0  0  0  0  0  0  0  0  0  0  0
   -8.5859   -0.7309   -0.4240 F   0  0  0  0  0  0  0  0  0  0  0  0
   -8.1000    0.9146   -1.7614 F   0  0  0  0  0  0  0  0  0  0  0  0
   -7.8182   -1.1450   -2.4171 F   0  0  0  0  0  0  0  0  0  0  0  0
  1 10  1  0  0  0  0
  2  1  1  0  0  0  0
  3  2  1  0  0  0  0
  4  1  2  0  0  0  0
  4  5  1  0  0  0  0
  5  6  2  0  0  0  0
  6  9  1  0  0  0  0
  6  7  1  0  0  0  0
  7  8  1  0  0  0  0
  8 15  1  0  0  0  0
  8 13  1  0  0  0  0
  9 16  1  0  0  0  0
 10 17  1  0  0  0  0
 10  9  2  0  0  0  0
 11  4  1  0  0  0  0
 12  5  1  0  0  0  0
 14  8  1  0  0  0  0
 18 19  2  0  0  0  0
 19 20  1  0  0  0  0
 21 19  1  0  0  0  0
 21 22  1  0  0  0  0
 23 21  1  0  0  0  0
 24 21  1  0  0  0  0
M  RAD  3   2   2   3   3  20   2
M  END
