Coordinates from ORCA-job 4-MeOPhN2+~CF3COO-_B3LYPG-6-31G_dp-NX-Scan-d89-09-n800
 OpenBabel11261920413D

 24 24  0  0  0  0  0  0  0  0999 V2000
   -2.0555   -0.9765    0.7050 C   0  0  0  0  0  0  0  0  0  0  0  0
   -2.1491   -2.1778    1.4544 N   0  0  0  0  0  0  0  0  0  0  0  0
   -3.2093   -2.7977    1.7258 N   0  0  0  0  0  0  0  0  0  0  0  0
   -0.7138   -0.6670    0.3856 C   0  0  0  0  0  0  0  0  0  0  0  0
   -0.3772    0.4682   -0.3266 C   0  0  0  0  0  0  0  0  0  0  0  0
   -1.3838    1.3610   -0.7316 C   0  0  0  0  0  0  0  0  0  0  0  0
   -0.9641    2.4510   -1.4224 O   0  0  0  0  0  0  0  0  0  0  0  0
   -1.9323    3.3956   -1.8605 C   0  0  0  0  0  0  0  0  0  0  0  0
   -2.7201    1.0880   -0.4062 C   0  0  0  0  0  0  0  0  0  0  0  0
   -3.0556   -0.0683    0.2972 C   0  0  0  0  0  0  0  0  0  0  0  0
    0.0513   -1.3600    0.7188 H   0  0  0  0  0  0  0  0  0  0  0  0
    0.6530    0.6960   -0.5781 H   0  0  0  0  0  0  0  0  0  0  0  0
   -1.3768    4.1680   -2.3938 H   0  0  0  0  0  0  0  0  0  0  0  0
   -2.4626    3.8498   -1.0149 H   0  0  0  0  0  0  0  0  0  0  0  0
   -2.6613    2.9380   -2.5410 H   0  0  0  0  0  0  0  0  0  0  0  0
   -3.5118    1.7674   -0.6983 H   0  0  0  0  0  0  0  0  0  0  0  0
   -4.0960   -0.2345    0.5300 H   0  0  0  0  0  0  0  0  0  0  0  0
   -4.2390   -2.3321    1.2922 O   0  0  0  0  0  0  0  0  0  0  0  0
   -5.4117   -3.0009    1.6254 C   0  0  0  0  0  0  0  0  0  0  0  0
   -5.5141   -3.9475    2.3393 O   0  0  0  0  0  0  0  0  0  0  0  0
   -6.5674   -2.3007    0.8846 C   0  0  0  0  0  0  0  0  0  0  0  0
   -7.7332   -2.7936    1.2944 F   0  0  0  0  0  0  0  0  0  0  0  0
   -6.5466   -0.9738    1.1217 F   0  0  0  0  0  0  0  0  0  0  0  0
   -6.4467   -2.4929   -0.4390 F   0  0  0  0  0  0  0  0  0  0  0  0
  1  2  1  0  0  0  0
  2  3  2  0  0  0  0
  4  1  1  0  0  0  0
  4 11  1  0  0  0  0
  5  4  2  0  0  0  0
  6  9  2  0  0  0  0
  6  5  1  0  0  0  0
  7  6  1  0  0  0  0
  8  7  1  0  0  0  0
  8 14  1  0  0  0  0
  9 10  1  0  0  0  0
 10 17  1  0  0  0  0
 10  1  2  0  0  0  0
 12  5  1  0  0  0  0
 13  8  1  0  0  0  0
 15  8  1  0  0  0  0
 16  9  1  0  0  0  0
 18 19  1  0  0  0  0
 18  3  1  0  0  0  0
 19 20  2  0  0  0  0
 21 23  1  0  0  0  0
 21 22  1  0  0  0  0
 21 19  1  0  0  0  0
 24 21  1  0  0  0  0
M  END
