Coordinates from ORCA-job 4-MeOPhN2+~CF3COO-_B3LYPG-6-31G_dp-NX-Scan-d89-09-n800
 OpenBabel11261920413D

 24 23  0  0  0  0  0  0  0  0999 V2000
   -2.6129    0.3350   -1.0400 C   0  0  0  0  0  0  0  0  0  0  0  0
   -3.4317    0.5314   -2.1677 N   0  0  0  0  0  0  0  0  0  0  0  0
   -3.5310    0.7804   -3.2630 N   0  0  0  0  0  0  0  0  0  0  0  0
   -1.3982    1.0467   -1.0143 C   0  0  0  0  0  0  0  0  0  0  0  0
   -0.5502    0.8578    0.0580 C   0  0  0  0  0  0  0  0  0  0  0  0
   -0.8958   -0.0450    1.0869 C   0  0  0  0  0  0  0  0  0  0  0  0
    0.0044   -0.1519    2.0824 O   0  0  0  0  0  0  0  0  0  0  0  0
   -0.2642   -1.0374    3.1699 C   0  0  0  0  0  0  0  0  0  0  0  0
   -2.1062   -0.7587    1.0239 C   0  0  0  0  0  0  0  0  0  0  0  0
   -2.9802   -0.5616   -0.0378 C   0  0  0  0  0  0  0  0  0  0  0  0
   -1.1466    1.7348   -1.8141 H   0  0  0  0  0  0  0  0  0  0  0  0
    0.3894    1.3931    0.1306 H   0  0  0  0  0  0  0  0  0  0  0  0
    0.5898   -0.9460    3.8413 H   0  0  0  0  0  0  0  0  0  0  0  0
   -0.3495   -2.0741    2.8255 H   0  0  0  0  0  0  0  0  0  0  0  0
   -1.1789   -0.7485    3.6997 H   0  0  0  0  0  0  0  0  0  0  0  0
   -2.3780   -1.4653    1.7981 H   0  0  0  0  0  0  0  0  0  0  0  0
   -3.9153   -1.1116   -0.1451 H   0  0  0  0  0  0  0  0  0  0  0  0
   -5.5933   -1.5565   -1.1534 O   0  0  0  0  0  0  0  0  0  0  0  0
   -6.0185   -0.3963   -1.1953 C   0  0  0  0  0  0  0  0  0  0  0  0
   -5.3732    0.6987   -1.2671 O   0  0  0  0  0  0  0  0  0  0  0  0
   -7.5604   -0.1751   -1.1663 C   0  0  0  0  0  0  0  0  0  0  0  0
   -7.9085    0.7044   -0.2036 F   0  0  0  0  0  0  0  0  0  0  0  0
   -7.9856    0.3220   -2.3488 F   0  0  0  0  0  0  0  0  0  0  0  0
   -8.2291   -1.3164   -0.9378 F   0  0  0  0  0  0  0  0  0  0  0  0
  1  4  2  0  0  0  0
  1 10  1  0  0  0  0
  2  1  1  0  0  0  0
  3  2  2  0  0  0  0
  4  5  1  0  0  0  0
  5 12  1  0  0  0  0
  5  6  2  0  0  0  0
  6  7  1  0  0  0  0
  7  8  1  0  0  0  0
  8 15  1  0  0  0  0
  8 13  1  0  0  0  0
  9  6  1  0  0  0  0
  9 16  1  0  0  0  0
 10  9  2  0  0  0  0
 11  4  1  0  0  0  0
 14  8  1  0  0  0  0
 17 10  1  0  0  0  0
 19 21  1  0  0  0  0
 19 18  1  0  0  0  0
 20 19  2  0  0  0  0
 21 24  1  0  0  0  0
 21 22  1  0  0  0  0
 23 21  1  0  0  0  0
M  RAD  2   3   2  18   2
M  END
