Coordinates from ORCA-job 4-MeOPhN2+~CF3COO-_B3LYPG-6-31G_dp-NX-Scan-d89-09-n800
 OpenBabel11261920413D

 24 23  0  0  0  0  0  0  0  0999 V2000
   -2.0377    2.0083   -1.4112 C   0  0  0  0  0  0  0  0  0  0  0  0
   -2.3917    2.9752   -2.2735 N   0  0  0  0  0  0  0  0  0  0  0  0
   -2.7070    3.7892   -2.9876 N   0  0  0  0  0  0  0  0  0  0  0  0
   -0.6780    1.5798   -1.3728 C   0  0  0  0  0  0  0  0  0  0  0  0
   -0.3418    0.5805   -0.5020 C   0  0  0  0  0  0  0  0  0  0  0  0
   -1.3338   -0.0152    0.3371 C   0  0  0  0  0  0  0  0  0  0  0  0
   -0.9029   -0.9822    1.1149 O   0  0  0  0  0  0  0  0  0  0  0  0
   -1.8393   -1.6791    1.9915 C   0  0  0  0  0  0  0  0  0  0  0  0
   -2.6793    0.4366    0.3045 C   0  0  0  0  0  0  0  0  0  0  0  0
   -3.0322    1.4314   -0.5701 C   0  0  0  0  0  0  0  0  0  0  0  0
    0.0580    2.0389   -2.0232 H   0  0  0  0  0  0  0  0  0  0  0  0
    0.6754    0.2113   -0.4379 H   0  0  0  0  0  0  0  0  0  0  0  0
   -1.2556   -2.4937    2.4168 H   0  0  0  0  0  0  0  0  0  0  0  0
   -2.7083   -2.0427    1.4197 H   0  0  0  0  0  0  0  0  0  0  0  0
   -2.1642   -0.9944    2.7799 H   0  0  0  0  0  0  0  0  0  0  0  0
   -3.5037    0.0013    0.8997 H   0  0  0  0  0  0  0  0  0  0  0  0
   -4.0665    1.7562   -0.6203 H   0  0  0  0  0  0  0  0  0  0  0  0
   -4.4390   -2.4071    0.4994 O   0  0  0  0  0  0  0  0  0  0  0  0
   -5.3334   -1.5560    0.6878 C   0  0  0  0  0  0  0  0  0  0  0  0
   -5.2546   -0.3856    1.1436 O   0  0  0  0  0  0  0  0  0  0  0  0
   -6.7734   -1.9643    0.2545 C   0  0  0  0  0  0  0  0  0  0  0  0
   -7.6898   -1.6594    1.1996 F   0  0  0  0  0  0  0  0  0  0  0  0
   -7.1273   -1.2913   -0.8741 F   0  0  0  0  0  0  0  0  0  0  0  0
   -6.8974   -3.2778   -0.0146 F   0  0  0  0  0  0  0  0  0  0  0  0
  1  4  2  0  0  0  0
  1 10  1  0  0  0  0
  2  1  1  0  0  0  0
  3  2  1  0  0  0  0
  4  5  1  0  0  0  0
  5 12  1  0  0  0  0
  5  6  2  0  0  0  0
  6  7  1  0  0  0  0
  7  8  1  0  0  0  0
  8 13  1  0  0  0  0
  8 15  1  0  0  0  0
  9  6  1  0  0  0  0
  9 16  1  0  0  0  0
 10  9  2  0  0  0  0
 11  4  1  0  0  0  0
 14  8  1  0  0  0  0
 17 10  1  0  0  0  0
 18 19  2  0  0  0  0
 19 20  1  0  0  0  0
 21 19  1  0  0  0  0
 21 22  1  0  0  0  0
 23 21  1  0  0  0  0
 24 21  1  0  0  0  0
M  RAD  3   2   2   3   3  20   2
M  END
