Coordinates from ORCA-job 4-MeOPhN2+~CF3COO-_B3LYPG-6-31G_dp-NX-Scan-d89-09-n800
 OpenBabel11261920413D

 24 23  0  0  0  0  0  0  0  0999 V2000
   -2.6663    0.1825   -1.0737 C   0  0  0  0  0  0  0  0  0  0  0  0
   -3.4905    0.3636   -2.2049 N   0  0  0  0  0  0  0  0  0  0  0  0
   -3.5785    0.7882   -3.2471 N   0  0  0  0  0  0  0  0  0  0  0  0
   -1.4579    0.9043   -1.0592 C   0  0  0  0  0  0  0  0  0  0  0  0
   -0.6050    0.7492    0.0146 C   0  0  0  0  0  0  0  0  0  0  0  0
   -0.9425   -0.1235    1.0707 C   0  0  0  0  0  0  0  0  0  0  0  0
   -0.0393   -0.1974    2.0678 O   0  0  0  0  0  0  0  0  0  0  0  0
   -0.3076   -1.0439    3.1849 C   0  0  0  0  0  0  0  0  0  0  0  0
   -2.1499   -0.8414    1.0315 C   0  0  0  0  0  0  0  0  0  0  0  0
   -3.0183   -0.6856   -0.0428 C   0  0  0  0  0  0  0  0  0  0  0  0
   -1.2137    1.5740   -1.8761 H   0  0  0  0  0  0  0  0  0  0  0  0
    0.3318    1.2916    0.0692 H   0  0  0  0  0  0  0  0  0  0  0  0
    0.5469   -0.9304    3.8525 H   0  0  0  0  0  0  0  0  0  0  0  0
   -0.3942   -2.0923    2.8774 H   0  0  0  0  0  0  0  0  0  0  0  0
   -1.2215   -0.7360    3.7055 H   0  0  0  0  0  0  0  0  0  0  0  0
   -2.4246   -1.5166    1.8319 H   0  0  0  0  0  0  0  0  0  0  0  0
   -3.9547   -1.2222   -0.1100 H   0  0  0  0  0  0  0  0  0  0  0  0
   -5.1908   -0.6026   -1.7864 O   0  0  0  0  0  0  0  0  0  0  0  0
   -5.9540    0.2722   -1.2249 C   0  0  0  0  0  0  0  0  0  0  0  0
   -5.6561    1.3731   -0.7775 O   0  0  0  0  0  0  0  0  0  0  0  0
   -7.4204   -0.2334   -1.1158 C   0  0  0  0  0  0  0  0  0  0  0  0
   -8.2426    0.7171   -0.6500 F   0  0  0  0  0  0  0  0  0  0  0  0
   -7.8918   -0.6441   -2.3098 F   0  0  0  0  0  0  0  0  0  0  0  0
   -7.4819   -1.2865   -0.2662 F   0  0  0  0  0  0  0  0  0  0  0  0
  1  4  2  0  0  0  0
  1 10  1  0  0  0  0
  2  1  1  0  0  0  0
  3  2  2  0  0  0  0
  4  5  1  0  0  0  0
  5 12  1  0  0  0  0
  5  6  2  0  0  0  0
  6  7  1  0  0  0  0
  7  8  1  0  0  0  0
  8 15  1  0  0  0  0
  8 13  1  0  0  0  0
  9  6  1  0  0  0  0
  9 16  1  0  0  0  0
 10  9  2  0  0  0  0
 11  4  1  0  0  0  0
 14  8  1  0  0  0  0
 17 10  1  0  0  0  0
 18 19  2  0  0  0  0
 19 21  1  0  0  0  0
 19 20  1  0  0  0  0
 21 22  1  0  0  0  0
 21 24  1  0  0  0  0
 23 21  1  0  0  0  0
M  RAD  2   3   2  20   2
M  END
