Coordinates from ORCA-job 4-MeOPhN2+~CF3COO-_B3LYPG-6-31G_dp-NX-Scan-d89-09-n800
 OpenBabel11261920413D

 24 23  0  0  0  0  0  0  0  0999 V2000
   -1.9177    2.0969   -1.4396 C   0  0  0  0  0  0  0  0  0  0  0  0
   -2.2082    3.0993   -2.2850 N   0  0  0  0  0  0  0  0  0  0  0  0
   -2.4679    3.9433   -2.9874 N   0  0  0  0  0  0  0  0  0  0  0  0
   -0.5597    1.6842   -1.2997 C   0  0  0  0  0  0  0  0  0  0  0  0
   -0.2838    0.6583   -0.4392 C   0  0  0  0  0  0  0  0  0  0  0  0
   -1.3332    0.0222    0.2940 C   0  0  0  0  0  0  0  0  0  0  0  0
   -0.9499   -0.9559    1.0818 O   0  0  0  0  0  0  0  0  0  0  0  0
   -1.9354   -1.6738    1.8856 C   0  0  0  0  0  0  0  0  0  0  0  0
   -2.6817    0.4489    0.1545 C   0  0  0  0  0  0  0  0  0  0  0  0
   -2.9719    1.4720   -0.7113 C   0  0  0  0  0  0  0  0  0  0  0  0
    0.2222    2.1778   -1.8657 H   0  0  0  0  0  0  0  0  0  0  0  0
    0.7304    0.3023   -0.2979 H   0  0  0  0  0  0  0  0  0  0  0  0
   -1.3744   -2.4917    2.3340 H   0  0  0  0  0  0  0  0  0  0  0  0
   -2.7716   -2.0378    1.2658 H   0  0  0  0  0  0  0  0  0  0  0  0
   -2.3132   -1.0019    2.6612 H   0  0  0  0  0  0  0  0  0  0  0  0
   -3.5456   -0.0216    0.6721 H   0  0  0  0  0  0  0  0  0  0  0  0
   -4.0013    1.7911   -0.8402 H   0  0  0  0  0  0  0  0  0  0  0  0
   -4.5281   -2.5806    0.5427 O   0  0  0  0  0  0  0  0  0  0  0  0
   -5.3822   -1.6823    0.6852 C   0  0  0  0  0  0  0  0  0  0  0  0
   -5.2402   -0.4636    0.9711 O   0  0  0  0  0  0  0  0  0  0  0  0
   -6.8669   -2.0954    0.4557 C   0  0  0  0  0  0  0  0  0  0  0  0
   -7.6539   -1.7135    1.4879 F   0  0  0  0  0  0  0  0  0  0  0  0
   -7.3574   -1.4961   -0.6607 F   0  0  0  0  0  0  0  0  0  0  0  0
   -7.0322   -3.4222    0.2968 F   0  0  0  0  0  0  0  0  0  0  0  0
  1  4  2  0  0  0  0
  1 10  1  0  0  0  0
  2  1  1  0  0  0  0
  3  2  1  0  0  0  0
  4  5  1  0  0  0  0
  5 12  1  0  0  0  0
  5  6  2  0  0  0  0
  6  7  1  0  0  0  0
  7  8  1  0  0  0  0
  8 13  1  0  0  0  0
  8 15  1  0  0  0  0
  9  6  1  0  0  0  0
  9 16  1  0  0  0  0
 10  9  2  0  0  0  0
 11  4  1  0  0  0  0
 14  8  1  0  0  0  0
 17 10  1  0  0  0  0
 18 19  2  0  0  0  0
 19 20  1  0  0  0  0
 21 19  1  0  0  0  0
 21 22  1  0  0  0  0
 23 21  1  0  0  0  0
 24 21  1  0  0  0  0
M  RAD  3   2   2   3   3  20   2
M  END
