Coordinates from ORCA-job 4-MeOPhN2+~CF3COO-_B3LYPG-6-31G_dp-NX-Scan-d89-09-n800
 OpenBabel11261920413D

 24 24  0  0  0  0  0  0  0  0999 V2000
   -2.0344   -0.9800    0.6700 C   0  0  0  0  0  0  0  0  0  0  0  0
   -2.1380   -2.1892    1.3936 N   0  0  0  0  0  0  0  0  0  0  0  0
   -3.1506   -2.8374    1.6964 N   0  0  0  0  0  0  0  0  0  0  0  0
   -0.6891   -0.6527    0.3864 C   0  0  0  0  0  0  0  0  0  0  0  0
   -0.3525    0.4954   -0.3040 C   0  0  0  0  0  0  0  0  0  0  0  0
   -1.3634    1.3773   -0.7231 C   0  0  0  0  0  0  0  0  0  0  0  0
   -0.9447    2.4793   -1.3906 O   0  0  0  0  0  0  0  0  0  0  0  0
   -1.9152    3.4155   -1.8455 C   0  0  0  0  0  0  0  0  0  0  0  0
   -2.7046    1.0814   -0.4340 C   0  0  0  0  0  0  0  0  0  0  0  0
   -3.0409   -0.0848    0.2492 C   0  0  0  0  0  0  0  0  0  0  0  0
    0.0774   -1.3398    0.7279 H   0  0  0  0  0  0  0  0  0  0  0  0
    0.6797    0.7411   -0.5291 H   0  0  0  0  0  0  0  0  0  0  0  0
   -1.3561    4.2002   -2.3562 H   0  0  0  0  0  0  0  0  0  0  0  0
   -2.4730    3.8533   -1.0094 H   0  0  0  0  0  0  0  0  0  0  0  0
   -2.6184    2.9538   -2.5495 H   0  0  0  0  0  0  0  0  0  0  0  0
   -3.4983    1.7523   -0.7398 H   0  0  0  0  0  0  0  0  0  0  0  0
   -4.0822   -0.2763    0.4559 H   0  0  0  0  0  0  0  0  0  0  0  0
   -4.2994   -2.3150    1.2445 O   0  0  0  0  0  0  0  0  0  0  0  0
   -5.4259   -2.9794    1.6393 C   0  0  0  0  0  0  0  0  0  0  0  0
   -5.5110   -3.9034    2.3906 O   0  0  0  0  0  0  0  0  0  0  0  0
   -6.6278   -2.3315    0.9153 C   0  0  0  0  0  0  0  0  0  0  0  0
   -7.7706   -2.7775    1.4328 F   0  0  0  0  0  0  0  0  0  0  0  0
   -6.5933   -0.9878    1.0348 F   0  0  0  0  0  0  0  0  0  0  0  0
   -6.5914   -2.6348   -0.3938 F   0  0  0  0  0  0  0  0  0  0  0  0
  1  2  1  0  0  0  0
  2  3  1  0  0  0  0
  4  1  1  0  0  0  0
  4 11  1  0  0  0  0
  5  4  2  0  0  0  0
  6  9  2  0  0  0  0
  6  5  1  0  0  0  0
  7  6  1  0  0  0  0
  8  7  1  0  0  0  0
  8 14  1  0  0  0  0
  9 10  1  0  0  0  0
 10 17  1  0  0  0  0
 10  1  2  0  0  0  0
 12  5  1  0  0  0  0
 13  8  1  0  0  0  0
 15  8  1  0  0  0  0
 16  9  1  0  0  0  0
 18 19  1  0  0  0  0
 18  3  1  0  0  0  0
 19 20  2  0  0  0  0
 21 23  1  0  0  0  0
 21 22  1  0  0  0  0
 21 19  1  0  0  0  0
 24 21  1  0  0  0  0
M  RAD  2   2   2   3   2
M  END
