Coordinates from ORCA-job 4-MeOPhN2+~CF3COO-_B3LYPG-6-31G_dp-NX-Scan-d89-09-n800
 OpenBabel11261920413D

 24 23  0  0  0  0  0  0  0  0999 V2000
   -1.9538    2.0724   -1.4307 C   0  0  0  0  0  0  0  0  0  0  0  0
   -2.2626    3.0663   -2.2793 N   0  0  0  0  0  0  0  0  0  0  0  0
   -2.5385    3.9038   -2.9830 N   0  0  0  0  0  0  0  0  0  0  0  0
   -0.5953    1.6514   -1.3250 C   0  0  0  0  0  0  0  0  0  0  0  0
   -0.3023    0.6319   -0.4624 C   0  0  0  0  0  0  0  0  0  0  0  0
   -1.3355    0.0099    0.3050 C   0  0  0  0  0  0  0  0  0  0  0  0
   -0.9385   -0.9656    1.0893 O   0  0  0  0  0  0  0  0  0  0  0  0
   -1.9088   -1.6763    1.9169 C   0  0  0  0  0  0  0  0  0  0  0  0
   -2.6834    0.4470    0.2010 C   0  0  0  0  0  0  0  0  0  0  0  0
   -2.9912    1.4636   -0.6660 C   0  0  0  0  0  0  0  0  0  0  0  0
    0.1736    2.1335   -1.9181 H   0  0  0  0  0  0  0  0  0  0  0  0
    0.7127    0.2694   -0.3468 H   0  0  0  0  0  0  0  0  0  0  0  0
   -1.3350   -2.4807    2.3738 H   0  0  0  0  0  0  0  0  0  0  0  0
   -2.7457   -2.0575    1.3087 H   0  0  0  0  0  0  0  0  0  0  0  0
   -2.2858   -0.9953    2.6849 H   0  0  0  0  0  0  0  0  0  0  0  0
   -3.5357   -0.0115    0.7454 H   0  0  0  0  0  0  0  0  0  0  0  0
   -4.0217    1.7882   -0.7686 H   0  0  0  0  0  0  0  0  0  0  0  0
   -4.4983   -2.5292    0.5108 O   0  0  0  0  0  0  0  0  0  0  0  0
   -5.3629   -1.6473    0.6901 C   0  0  0  0  0  0  0  0  0  0  0  0
   -5.2359   -0.4470    1.0492 O   0  0  0  0  0  0  0  0  0  0  0  0
   -6.8373   -2.0566    0.3954 C   0  0  0  0  0  0  0  0  0  0  0  0
   -7.6715   -1.6749    1.3886 F   0  0  0  0  0  0  0  0  0  0  0  0
   -7.2723   -1.4531   -0.7427 F   0  0  0  0  0  0  0  0  0  0  0  0
   -6.9981   -3.3826    0.2253 F   0  0  0  0  0  0  0  0  0  0  0  0
  1  4  2  0  0  0  0
  1 10  1  0  0  0  0
  2  1  1  0  0  0  0
  3  2  1  0  0  0  0
  4  5  1  0  0  0  0
  5 12  1  0  0  0  0
  5  6  2  0  0  0  0
  6  7  1  0  0  0  0
  7  8  1  0  0  0  0
  8 13  1  0  0  0  0
  8 15  1  0  0  0  0
  9  6  1  0  0  0  0
  9 16  1  0  0  0  0
 10  9  2  0  0  0  0
 11  4  1  0  0  0  0
 14  8  1  0  0  0  0
 17 10  1  0  0  0  0
 18 19  2  0  0  0  0
 19 20  1  0  0  0  0
 21 19  1  0  0  0  0
 21 22  1  0  0  0  0
 23 21  1  0  0  0  0
 24 21  1  0  0  0  0
M  RAD  3   2   2   3   3  20   2
M  END
