Coordinates from ORCA-job 4-MeOPhN2+~CF3COO-_B3LYPG-6-31G_dp-NX-Scan-d89-09-n800
 OpenBabel11261920413D

 24 23  0  0  0  0  0  0  0  0999 V2000
   -2.7191    1.5914   -1.1962 C   0  0  0  0  0  0  0  0  0  0  0  0
   -3.4011    2.3568   -2.0646 N   0  0  0  0  0  0  0  0  0  0  0  0
   -3.9862    2.9970   -2.7825 N   0  0  0  0  0  0  0  0  0  0  0  0
   -1.4776    1.0216   -1.6019 C   0  0  0  0  0  0  0  0  0  0  0  0
   -0.8579    0.1535   -0.7457 C   0  0  0  0  0  0  0  0  0  0  0  0
   -1.4666   -0.1881    0.4997 C   0  0  0  0  0  0  0  0  0  0  0  0
   -0.8459   -1.1184    1.1988 O   0  0  0  0  0  0  0  0  0  0  0  0
   -1.5049   -1.6841    2.3646 C   0  0  0  0  0  0  0  0  0  0  0  0
   -2.6583    0.4487    0.9135 C   0  0  0  0  0  0  0  0  0  0  0  0
   -3.3017    1.3188    0.0693 C   0  0  0  0  0  0  0  0  0  0  0  0
   -1.0587    1.2592   -2.5731 H   0  0  0  0  0  0  0  0  0  0  0  0
    0.0736   -0.3314   -1.0131 H   0  0  0  0  0  0  0  0  0  0  0  0
   -0.8883   -2.5374    2.6424 H   0  0  0  0  0  0  0  0  0  0  0  0
   -2.5226   -1.9855    2.0848 H   0  0  0  0  0  0  0  0  0  0  0  0
   -1.5102   -0.9500    3.1766 H   0  0  0  0  0  0  0  0  0  0  0  0
   -3.1809    0.1695    1.8190 H   0  0  0  0  0  0  0  0  0  0  0  0
   -4.2792    1.6990    0.3388 H   0  0  0  0  0  0  0  0  0  0  0  0
   -4.1638   -2.0387    0.7548 O   0  0  0  0  0  0  0  0  0  0  0  0
   -5.0703   -1.1805    0.6692 C   0  0  0  0  0  0  0  0  0  0  0  0
   -5.3656   -0.2218    1.4185 O   0  0  0  0  0  0  0  0  0  0  0  0
   -5.8809   -1.2055   -0.6645 C   0  0  0  0  0  0  0  0  0  0  0  0
   -7.1830   -0.9034   -0.5042 F   0  0  0  0  0  0  0  0  0  0  0  0
   -5.3620   -0.2421   -1.5080 F   0  0  0  0  0  0  0  0  0  0  0  0
   -5.8125   -2.3688   -1.3342 F   0  0  0  0  0  0  0  0  0  0  0  0
  1 10  1  0  0  0  0
  2  1  1  0  0  0  0
  3  2  1  0  0  0  0
  4  1  2  0  0  0  0
  4  5  1  0  0  0  0
  5  6  2  0  0  0  0
  6  9  1  0  0  0  0
  6  7  1  0  0  0  0
  7  8  1  0  0  0  0
  8 13  1  0  0  0  0
  8 15  1  0  0  0  0
  9 16  1  0  0  0  0
 10 17  1  0  0  0  0
 10  9  2  0  0  0  0
 11  4  1  0  0  0  0
 12  5  1  0  0  0  0
 14  8  1  0  0  0  0
 19 18  2  0  0  0  0
 19 20  1  0  0  0  0
 21 22  1  0  0  0  0
 21 19  1  0  0  0  0
 23 21  1  0  0  0  0
 24 21  1  0  0  0  0
M  RAD  3   2   2   3   3  20   2
M  END
