Coordinates from ORCA-job 4-MeOPhN2+~CF3COO-_B3LYPG-6-31G_dp-NX-Scan-d89-09-n800
 OpenBabel11261920413D

 24 23  0  0  0  0  0  0  0  0999 V2000
   -1.8544    2.1521   -1.4521 C   0  0  0  0  0  0  0  0  0  0  0  0
   -2.1035    3.1864   -2.2724 N   0  0  0  0  0  0  0  0  0  0  0  0
   -2.3209    4.0591   -2.9542 N   0  0  0  0  0  0  0  0  0  0  0  0
   -0.5033    1.7347   -1.2654 C   0  0  0  0  0  0  0  0  0  0  0  0
   -0.2641    0.6869   -0.4208 C   0  0  0  0  0  0  0  0  0  0  0  0
   -1.3426    0.0361    0.2551 C   0  0  0  0  0  0  0  0  0  0  0  0
   -0.9881   -0.9476    1.0486 O   0  0  0  0  0  0  0  0  0  0  0  0
   -1.9938   -1.6627    1.8288 C   0  0  0  0  0  0  0  0  0  0  0  0
   -2.6871    0.4567    0.0593 C   0  0  0  0  0  0  0  0  0  0  0  0
   -2.9392    1.5034   -0.7911 C   0  0  0  0  0  0  0  0  0  0  0  0
    0.3019    2.2437   -1.7828 H   0  0  0  0  0  0  0  0  0  0  0  0
    0.7436    0.3288   -0.2428 H   0  0  0  0  0  0  0  0  0  0  0  0
   -1.4324   -2.4433    2.3390 H   0  0  0  0  0  0  0  0  0  0  0  0
   -2.7893   -2.0822    1.1913 H   0  0  0  0  0  0  0  0  0  0  0  0
   -2.4343   -0.9736    2.5542 H   0  0  0  0  0  0  0  0  0  0  0  0
   -3.5667   -0.0380    0.5315 H   0  0  0  0  0  0  0  0  0  0  0  0
   -3.9610    1.8277   -0.9601 H   0  0  0  0  0  0  0  0  0  0  0  0
   -4.5795   -2.7111    0.6131 O   0  0  0  0  0  0  0  0  0  0  0  0
   -5.4023   -1.7782    0.6989 C   0  0  0  0  0  0  0  0  0  0  0  0
   -5.2205   -0.5427    0.8701 O   0  0  0  0  0  0  0  0  0  0  0  0
   -6.9061   -2.1640    0.5646 C   0  0  0  0  0  0  0  0  0  0  0  0
   -7.6229   -1.7309    1.6283 F   0  0  0  0  0  0  0  0  0  0  0  0
   -7.4488   -1.5902   -0.5400 F   0  0  0  0  0  0  0  0  0  0  0  0
   -7.1084   -3.4911    0.4609 F   0  0  0  0  0  0  0  0  0  0  0  0
  1  4  2  0  0  0  0
  1 10  1  0  0  0  0
  2  1  1  0  0  0  0
  3  2  1  0  0  0  0
  4  5  1  0  0  0  0
  5 12  1  0  0  0  0
  5  6  2  0  0  0  0
  6  7  1  0  0  0  0
  7  8  1  0  0  0  0
  8 13  1  0  0  0  0
  8 15  1  0  0  0  0
  9  6  1  0  0  0  0
  9 16  1  0  0  0  0
 10  9  2  0  0  0  0
 11  4  1  0  0  0  0
 14  8  1  0  0  0  0
 17 10  1  0  0  0  0
 18 19  2  0  0  0  0
 19 20  1  0  0  0  0
 21 19  1  0  0  0  0
 21 22  1  0  0  0  0
 23 21  1  0  0  0  0
 24 21  1  0  0  0  0
M  RAD  3   2   2   3   3  20   2
M  END
