Coordinates from ORCA-job 4-MeOPhN2+~CF3COO-_B3LYPG-6-31G_dp-NX-Scan-d89-09-n800
 OpenBabel11261920413D

 24 23  0  0  0  0  0  0  0  0999 V2000
   -2.0772    1.9691   -1.4030 C   0  0  0  0  0  0  0  0  0  0  0  0
   -2.4647    2.9007   -2.2893 N   0  0  0  0  0  0  0  0  0  0  0  0
   -2.8155    3.6824   -3.0225 N   0  0  0  0  0  0  0  0  0  0  0  0
   -0.7110    1.5620   -1.3756 C   0  0  0  0  0  0  0  0  0  0  0  0
   -0.3474    0.5849   -0.4902 C   0  0  0  0  0  0  0  0  0  0  0  0
   -1.3203   -0.0129    0.3691 C   0  0  0  0  0  0  0  0  0  0  0  0
   -0.8723   -0.9741    1.1454 O   0  0  0  0  0  0  0  0  0  0  0  0
   -1.8072   -1.6962    2.0040 C   0  0  0  0  0  0  0  0  0  0  0  0
   -2.6690    0.4282    0.3553 C   0  0  0  0  0  0  0  0  0  0  0  0
   -3.0499    1.4009   -0.5318 C   0  0  0  0  0  0  0  0  0  0  0  0
    0.0083    2.0170   -2.0473 H   0  0  0  0  0  0  0  0  0  0  0  0
    0.6754    0.2297   -0.4359 H   0  0  0  0  0  0  0  0  0  0  0  0
   -1.2254   -2.5246    2.4039 H   0  0  0  0  0  0  0  0  0  0  0  0
   -2.6745   -2.0366    1.4167 H   0  0  0  0  0  0  0  0  0  0  0  0
   -2.1313   -1.0351    2.8125 H   0  0  0  0  0  0  0  0  0  0  0  0
   -3.4794    0.0003    0.9710 H   0  0  0  0  0  0  0  0  0  0  0  0
   -4.0894    1.7103   -0.5686 H   0  0  0  0  0  0  0  0  0  0  0  0
   -4.4175   -2.3430    0.4730 O   0  0  0  0  0  0  0  0  0  0  0  0
   -5.3211   -1.5059    0.6818 C   0  0  0  0  0  0  0  0  0  0  0  0
   -5.2572   -0.3549    1.1861 O   0  0  0  0  0  0  0  0  0  0  0  0
   -6.7489   -1.9044    0.2020 C   0  0  0  0  0  0  0  0  0  0  0  0
   -7.6918   -1.6194    1.1265 F   0  0  0  0  0  0  0  0  0  0  0  0
   -7.0710   -1.2068   -0.9220 F   0  0  0  0  0  0  0  0  0  0  0  0
   -6.8653   -3.2117   -0.0990 F   0  0  0  0  0  0  0  0  0  0  0  0
  1  4  2  0  0  0  0
  1 10  1  0  0  0  0
  2  1  1  0  0  0  0
  3  2  1  0  0  0  0
  4  5  1  0  0  0  0
  5 12  1  0  0  0  0
  5  6  2  0  0  0  0
  6  7  1  0  0  0  0
  7  8  1  0  0  0  0
  8 13  1  0  0  0  0
  8 15  1  0  0  0  0
  9  6  1  0  0  0  0
  9 16  1  0  0  0  0
 10  9  2  0  0  0  0
 11  4  1  0  0  0  0
 14  8  1  0  0  0  0
 17 10  1  0  0  0  0
 18 19  2  0  0  0  0
 19 20  1  0  0  0  0
 21 19  1  0  0  0  0
 21 22  1  0  0  0  0
 23 21  1  0  0  0  0
 24 21  1  0  0  0  0
M  RAD  3   2   2   3   3  20   2
M  END
