Coordinates from ORCA-job 4-MeOPhN2+~CF3COO-_B3LYPG-6-31G_dp-NX-Scan-d89-09-n800
 OpenBabel11261920413D

 24 23  0  0  0  0  0  0  0  0999 V2000
   -1.7874    2.2086   -1.4649 C   0  0  0  0  0  0  0  0  0  0  0  0
   -1.9951    3.2694   -2.2630 N   0  0  0  0  0  0  0  0  0  0  0  0
   -2.1712    4.1653   -2.9270 N   0  0  0  0  0  0  0  0  0  0  0  0
   -0.4450    1.8016   -1.2063 C   0  0  0  0  0  0  0  0  0  0  0  0
   -0.2442    0.7341   -0.3768 C   0  0  0  0  0  0  0  0  0  0  0  0
   -1.3530    0.0554    0.2177 C   0  0  0  0  0  0  0  0  0  0  0  0
   -1.0322   -0.9329    1.0191 O   0  0  0  0  0  0  0  0  0  0  0  0
   -2.0669   -1.6618    1.7467 C   0  0  0  0  0  0  0  0  0  0  0  0
   -2.6904    0.4564   -0.0588 C   0  0  0  0  0  0  0  0  0  0  0  0
   -2.9026    1.5247   -0.8942 C   0  0  0  0  0  0  0  0  0  0  0  0
    0.3836    2.3351   -1.6579 H   0  0  0  0  0  0  0  0  0  0  0  0
    0.7553    0.3850   -0.1439 H   0  0  0  0  0  0  0  0  0  0  0  0
   -1.5159   -2.3979    2.3295 H   0  0  0  0  0  0  0  0  0  0  0  0
   -2.7946   -2.1416    1.0747 H   0  0  0  0  0  0  0  0  0  0  0  0
   -2.5970   -0.9681    2.4040 H   0  0  0  0  0  0  0  0  0  0  0  0
   -3.5823   -0.0718    0.3544 H   0  0  0  0  0  0  0  0  0  0  0  0
   -3.9147    1.8444   -1.1203 H   0  0  0  0  0  0  0  0  0  0  0  0
   -4.6322   -2.8525    0.6658 O   0  0  0  0  0  0  0  0  0  0  0  0
   -5.4170   -1.8855    0.7112 C   0  0  0  0  0  0  0  0  0  0  0  0
   -5.1883   -0.6461    0.7631 O   0  0  0  0  0  0  0  0  0  0  0  0
   -6.9388   -2.2223    0.7018 C   0  0  0  0  0  0  0  0  0  0  0  0
   -7.5592   -1.7111    1.7921 F   0  0  0  0  0  0  0  0  0  0  0  0
   -7.5430   -1.6838   -0.3876 F   0  0  0  0  0  0  0  0  0  0  0  0
   -7.1917   -3.5447    0.6825 F   0  0  0  0  0  0  0  0  0  0  0  0
  1  4  2  0  0  0  0
  1 10  1  0  0  0  0
  2  1  1  0  0  0  0
  3  2  1  0  0  0  0
  4  5  1  0  0  0  0
  5 12  1  0  0  0  0
  5  6  2  0  0  0  0
  6  7  1  0  0  0  0
  7  8  1  0  0  0  0
  8 13  1  0  0  0  0
  8 15  1  0  0  0  0
  9  6  1  0  0  0  0
  9 16  1  0  0  0  0
 10  9  2  0  0  0  0
 11  4  1  0  0  0  0
 14  8  1  0  0  0  0
 17 10  1  0  0  0  0
 18 19  2  0  0  0  0
 19 20  1  0  0  0  0
 21 19  1  0  0  0  0
 21 22  1  0  0  0  0
 23 21  1  0  0  0  0
 24 21  1  0  0  0  0
M  RAD  3   2   2   3   3  20   2
M  END
