Coordinates from ORCA-job 4-MeOPhN2+~CF3COO-_B3LYPG-6-31G_dp-NX-Scan-d89-09-n800
 OpenBabel11261920413D

 24 23  0  0  0  0  0  0  0  0999 V2000
   -1.9577    2.0680   -1.4303 C   0  0  0  0  0  0  0  0  0  0  0  0
   -2.2698    3.0583   -2.2820 N   0  0  0  0  0  0  0  0  0  0  0  0
   -2.5495    3.8925   -2.9880 N   0  0  0  0  0  0  0  0  0  0  0  0
   -0.5984    1.6493   -1.3256 C   0  0  0  0  0  0  0  0  0  0  0  0
   -0.3028    0.6321   -0.4611 C   0  0  0  0  0  0  0  0  0  0  0  0
   -1.3342    0.0100    0.3088 C   0  0  0  0  0  0  0  0  0  0  0  0
   -0.9353   -0.9648    1.0931 O   0  0  0  0  0  0  0  0  0  0  0  0
   -1.9055   -1.6776    1.9191 C   0  0  0  0  0  0  0  0  0  0  0  0
   -2.6825    0.4461    0.2067 C   0  0  0  0  0  0  0  0  0  0  0  0
   -2.9930    1.4602   -0.6621 C   0  0  0  0  0  0  0  0  0  0  0  0
    0.1689    2.1308   -1.9211 H   0  0  0  0  0  0  0  0  0  0  0  0
    0.7129    0.2711   -0.3463 H   0  0  0  0  0  0  0  0  0  0  0  0
   -1.3325   -2.4852    2.3715 H   0  0  0  0  0  0  0  0  0  0  0  0
   -2.7437   -2.0541    1.3098 H   0  0  0  0  0  0  0  0  0  0  0  0
   -2.2801   -0.9995    2.6907 H   0  0  0  0  0  0  0  0  0  0  0  0
   -3.5336   -0.0112    0.7533 H   0  0  0  0  0  0  0  0  0  0  0  0
   -4.0241    1.7833   -0.7635 H   0  0  0  0  0  0  0  0  0  0  0  0
   -4.4954   -2.5209    0.5063 O   0  0  0  0  0  0  0  0  0  0  0  0
   -5.3617   -1.6412    0.6887 C   0  0  0  0  0  0  0  0  0  0  0  0
   -5.2368   -0.4425    1.0540 O   0  0  0  0  0  0  0  0  0  0  0  0
   -6.8350   -2.0510    0.3897 C   0  0  0  0  0  0  0  0  0  0  0  0
   -7.6709   -1.6771    1.3845 F   0  0  0  0  0  0  0  0  0  0  0  0
   -7.2697   -1.4407   -0.7449 F   0  0  0  0  0  0  0  0  0  0  0  0
   -6.9934   -3.3761    0.2107 F   0  0  0  0  0  0  0  0  0  0  0  0
  1  4  2  0  0  0  0
  1 10  1  0  0  0  0
  2  1  1  0  0  0  0
  3  2  1  0  0  0  0
  4  5  1  0  0  0  0
  5 12  1  0  0  0  0
  5  6  2  0  0  0  0
  6  7  1  0  0  0  0
  7  8  1  0  0  0  0
  8 13  1  0  0  0  0
  8 15  1  0  0  0  0
  9  6  1  0  0  0  0
  9 16  1  0  0  0  0
 10  9  2  0  0  0  0
 11  4  1  0  0  0  0
 14  8  1  0  0  0  0
 17 10  1  0  0  0  0
 18 19  2  0  0  0  0
 19 20  1  0  0  0  0
 21 19  1  0  0  0  0
 21 22  1  0  0  0  0
 23 21  1  0  0  0  0
 24 21  1  0  0  0  0
M  RAD  3   2   2   3   3  20   2
M  END
