Coordinates from ORCA-job 4-MeOPhN2+~CF3COO-_B3LYPG-6-31G_dp-NX-Scan-d89-09-n800
 OpenBabel11261920413D

 24 23  0  0  0  0  0  0  0  0999 V2000
   -2.8947    1.7756   -0.9138 C   0  0  0  0  0  0  0  0  0  0  0  0
   -3.6552    2.6413   -1.5957 N   0  0  0  0  0  0  0  0  0  0  0  0
   -4.3184    3.3642   -2.1493 N   0  0  0  0  0  0  0  0  0  0  0  0
   -1.9524    0.9716   -1.6170 C   0  0  0  0  0  0  0  0  0  0  0  0
   -1.3153   -0.0224   -0.9296 C   0  0  0  0  0  0  0  0  0  0  0  0
   -1.6259   -0.2579    0.4436 C   0  0  0  0  0  0  0  0  0  0  0  0
   -1.0424   -1.3288    0.9751 O   0  0  0  0  0  0  0  0  0  0  0  0
   -1.5371   -1.8321    2.2363 C   0  0  0  0  0  0  0  0  0  0  0  0
   -2.4883    0.5983    1.1464 C   0  0  0  0  0  0  0  0  0  0  0  0
   -3.1835    1.5817    0.4660 C   0  0  0  0  0  0  0  0  0  0  0  0
   -1.7776    1.1360   -2.6741 H   0  0  0  0  0  0  0  0  0  0  0  0
   -0.6150   -0.6889   -1.4193 H   0  0  0  0  0  0  0  0  0  0  0  0
   -1.0547   -2.8001    2.3632 H   0  0  0  0  0  0  0  0  0  0  0  0
   -2.6253   -1.9343    2.1858 H   0  0  0  0  0  0  0  0  0  0  0  0
   -1.2426   -1.1668    3.0548 H   0  0  0  0  0  0  0  0  0  0  0  0
   -2.7376    0.4107    2.1791 H   0  0  0  0  0  0  0  0  0  0  0  0
   -3.8814    2.2293    0.9734 H   0  0  0  0  0  0  0  0  0  0  0  0
   -4.6546   -1.1221    1.3930 O   0  0  0  0  0  0  0  0  0  0  0  0
   -5.1107   -0.6342    0.3428 C   0  0  0  0  0  0  0  0  0  0  0  0
   -5.3274    0.5710    0.0387 O   0  0  0  0  0  0  0  0  0  0  0  0
   -5.3218   -1.6268   -0.8379 C   0  0  0  0  0  0  0  0  0  0  0  0
   -6.3599   -1.2970   -1.6325 F   0  0  0  0  0  0  0  0  0  0  0  0
   -4.2011   -1.6092   -1.6255 F   0  0  0  0  0  0  0  0  0  0  0  0
   -5.5010   -2.8995   -0.4415 F   0  0  0  0  0  0  0  0  0  0  0  0
  1 10  2  0  0  0  0
  2  1  1  0  0  0  0
  3  2  1  0  0  0  0
  4  5  2  0  0  0  0
  4  1  1  0  0  0  0
  5  6  1  0  0  0  0
  6  7  1  0  0  0  0
  6  9  2  0  0  0  0
  7  8  1  0  0  0  0
  8 13  1  0  0  0  0
  8 15  1  0  0  0  0
  9 16  1  0  0  0  0
 10 17  1  0  0  0  0
 10  9  1  0  0  0  0
 11  4  1  0  0  0  0
 12  5  1  0  0  0  0
 14  8  1  0  0  0  0
 19 18  1  0  0  0  0
 20 19  2  0  0  0  0
 21 24  1  0  0  0  0
 21 19  1  0  0  0  0
 22 21  1  0  0  0  0
 23 21  1  0  0  0  0
M  RAD  3   2   2   3   3  18   2
M  END
