Coordinates from ORCA-job 4-MeOPhN2+~CF3COO-_B3LYPG-6-31G_dp-NX-Scan-d89-09-n800
 OpenBabel11261920413D

 24 23  0  0  0  0  0  0  0  0999 V2000
   -1.9270    2.0885   -1.4374 C   0  0  0  0  0  0  0  0  0  0  0  0
   -2.2248    3.0854   -2.2867 N   0  0  0  0  0  0  0  0  0  0  0  0
   -2.4923    3.9244   -2.9919 N   0  0  0  0  0  0  0  0  0  0  0  0
   -0.5679    1.6776   -1.3037 C   0  0  0  0  0  0  0  0  0  0  0  0
   -0.2863    0.6552   -0.4408 C   0  0  0  0  0  0  0  0  0  0  0  0
   -1.3312    0.0205    0.3000 C   0  0  0  0  0  0  0  0  0  0  0  0
   -0.9439   -0.9569    1.0867 O   0  0  0  0  0  0  0  0  0  0  0  0
   -1.9270   -1.6759    1.8925 C   0  0  0  0  0  0  0  0  0  0  0  0
   -2.6803    0.4474    0.1682 C   0  0  0  0  0  0  0  0  0  0  0  0
   -2.9764    1.4668   -0.6998 C   0  0  0  0  0  0  0  0  0  0  0  0
    0.2103    2.1693   -1.8764 H   0  0  0  0  0  0  0  0  0  0  0  0
    0.7288    0.3000   -0.3045 H   0  0  0  0  0  0  0  0  0  0  0  0
   -1.3665   -2.4984    2.3330 H   0  0  0  0  0  0  0  0  0  0  0  0
   -2.7674   -2.0325    1.2741 H   0  0  0  0  0  0  0  0  0  0  0  0
   -2.2978   -1.0070    2.6741 H   0  0  0  0  0  0  0  0  0  0  0  0
   -3.5416   -0.0199    0.6917 H   0  0  0  0  0  0  0  0  0  0  0  0
   -4.0068    1.7844   -0.8234 H   0  0  0  0  0  0  0  0  0  0  0  0
   -4.5213   -2.5634    0.5356 O   0  0  0  0  0  0  0  0  0  0  0  0
   -5.3790   -1.6692    0.6838 C   0  0  0  0  0  0  0  0  0  0  0  0
   -5.2417   -0.4536    0.9840 O   0  0  0  0  0  0  0  0  0  0  0  0
   -6.8609   -2.0839    0.4402 C   0  0  0  0  0  0  0  0  0  0  0  0
   -7.6578   -1.7072    1.4664 F   0  0  0  0  0  0  0  0  0  0  0  0
   -7.3424   -1.4811   -0.6785 F   0  0  0  0  0  0  0  0  0  0  0  0
   -7.0227   -3.4104    0.2746 F   0  0  0  0  0  0  0  0  0  0  0  0
  1  4  2  0  0  0  0
  1 10  1  0  0  0  0
  2  1  1  0  0  0  0
  3  2  1  0  0  0  0
  4  5  1  0  0  0  0
  5 12  1  0  0  0  0
  5  6  2  0  0  0  0
  6  7  1  0  0  0  0
  7  8  1  0  0  0  0
  8 13  1  0  0  0  0
  8 15  1  0  0  0  0
  9  6  1  0  0  0  0
  9 16  1  0  0  0  0
 10  9  2  0  0  0  0
 11  4  1  0  0  0  0
 14  8  1  0  0  0  0
 17 10  1  0  0  0  0
 18 19  2  0  0  0  0
 19 20  1  0  0  0  0
 21 19  1  0  0  0  0
 21 22  1  0  0  0  0
 23 21  1  0  0  0  0
 24 21  1  0  0  0  0
M  RAD  3   2   2   3   3  20   2
M  END
