Coordinates from ORCA-job 4-MeOPhN2+~CF3COO-_B3LYPG-6-31G_dp-NX-Scan-d89-09-n800
 OpenBabel11261920413D

 24 23  0  0  0  0  0  0  0  0999 V2000
   -2.9516    1.5462   -0.8871 C   0  0  0  0  0  0  0  0  0  0  0  0
   -3.8728    2.2017   -1.6088 N   0  0  0  0  0  0  0  0  0  0  0  0
   -4.6738    2.7276   -2.1949 N   0  0  0  0  0  0  0  0  0  0  0  0
   -2.0249    0.7026   -1.5594 C   0  0  0  0  0  0  0  0  0  0  0  0
   -1.2893   -0.1755   -0.8121 C   0  0  0  0  0  0  0  0  0  0  0  0
   -1.5197   -0.2784    0.5898 C   0  0  0  0  0  0  0  0  0  0  0  0
   -0.8949   -1.2843    1.1955 O   0  0  0  0  0  0  0  0  0  0  0  0
   -1.3836   -1.7093    2.4861 C   0  0  0  0  0  0  0  0  0  0  0  0
   -2.3559    0.6360    1.2532 C   0  0  0  0  0  0  0  0  0  0  0  0
   -3.1164    1.5279    0.5251 C   0  0  0  0  0  0  0  0  0  0  0  0
   -1.9480    0.7329   -2.6402 H   0  0  0  0  0  0  0  0  0  0  0  0
   -0.5981   -0.8706   -1.2738 H   0  0  0  0  0  0  0  0  0  0  0  0
   -0.9136   -2.6753    2.6649 H   0  0  0  0  0  0  0  0  0  0  0  0
   -2.4721   -1.8060    2.4426 H   0  0  0  0  0  0  0  0  0  0  0  0
   -1.0760   -1.0046    3.2659 H   0  0  0  0  0  0  0  0  0  0  0  0
   -2.5063    0.5738    2.3215 H   0  0  0  0  0  0  0  0  0  0  0  0
   -3.8026    2.2086    1.0042 H   0  0  0  0  0  0  0  0  0  0  0  0
   -4.3547   -1.4490    0.8954 O   0  0  0  0  0  0  0  0  0  0  0  0
   -5.0211   -0.6832    0.1801 C   0  0  0  0  0  0  0  0  0  0  0  0
   -5.3393    0.5269    0.3459 O   0  0  0  0  0  0  0  0  0  0  0  0
   -5.4790   -1.2364   -1.2066 C   0  0  0  0  0  0  0  0  0  0  0  0
   -6.7976   -1.0585   -1.4245 F   0  0  0  0  0  0  0  0  0  0  0  0
   -4.8260   -0.5545   -2.2096 F   0  0  0  0  0  0  0  0  0  0  0  0
   -5.2066   -2.5387   -1.3911 F   0  0  0  0  0  0  0  0  0  0  0  0
  1 10  1  0  0  0  0
  2  1  1  0  0  0  0
  3  2  1  0  0  0  0
  4  1  2  0  0  0  0
  4  5  1  0  0  0  0
  5  6  2  0  0  0  0
  6  7  1  0  0  0  0
  6  9  1  0  0  0  0
  7  8  1  0  0  0  0
  8 13  1  0  0  0  0
  8 15  1  0  0  0  0
  9 16  1  0  0  0  0
 10 17  1  0  0  0  0
 10  9  2  0  0  0  0
 11  4  1  0  0  0  0
 12  5  1  0  0  0  0
 14  8  1  0  0  0  0
 19 20  2  0  0  0  0
 19 18  1  0  0  0  0
 21 19  1  0  0  0  0
 22 21  1  0  0  0  0
 23 21  1  0  0  0  0
 24 21  1  0  0  0  0
M  RAD  3   2   2   3   3  18   2
M  END
