Coordinates from ORCA-job 4-MeOPhN2+~CF3COO-_B3LYPG-6-31G_dp-NX-Scan-d89-09-n800
 OpenBabel11261920413D

 24 23  0  0  0  0  0  0  0  0999 V2000
   -2.5734    0.6589   -0.9440 C   0  0  0  0  0  0  0  0  0  0  0  0
   -3.3953    1.0989   -1.9830 N   0  0  0  0  0  0  0  0  0  0  0  0
   -3.6058    1.6630   -2.9330 N   0  0  0  0  0  0  0  0  0  0  0  0
   -1.2334    1.1119   -1.0057 C   0  0  0  0  0  0  0  0  0  0  0  0
   -0.3586    0.7229   -0.0177 C   0  0  0  0  0  0  0  0  0  0  0  0
   -0.8024   -0.1139    1.0338 C   0  0  0  0  0  0  0  0  0  0  0  0
    0.1332   -0.4309    1.9441 O   0  0  0  0  0  0  0  0  0  0  0  0
   -0.2239   -1.2671    3.0482 C   0  0  0  0  0  0  0  0  0  0  0  0
   -2.1373   -0.5505    1.0709 C   0  0  0  0  0  0  0  0  0  0  0  0
   -3.0363   -0.1682    0.0823 C   0  0  0  0  0  0  0  0  0  0  0  0
   -0.9100    1.7531   -1.8188 H   0  0  0  0  0  0  0  0  0  0  0  0
    0.6757    1.0472   -0.0234 H   0  0  0  0  0  0  0  0  0  0  0  0
    0.6863   -1.3790    3.6370 H   0  0  0  0  0  0  0  0  0  0  0  0
   -0.5627   -2.2501    2.7053 H   0  0  0  0  0  0  0  0  0  0  0  0
   -1.0030   -0.7999    3.6601 H   0  0  0  0  0  0  0  0  0  0  0  0
   -2.4946   -1.1913    1.8673 H   0  0  0  0  0  0  0  0  0  0  0  0
   -4.0795   -0.5098    0.1136 H   0  0  0  0  0  0  0  0  0  0  0  0
   -5.8841   -1.0642    0.1350 O   0  0  0  0  0  0  0  0  0  0  0  0
   -6.1771   -0.4374   -0.8931 C   0  0  0  0  0  0  0  0  0  0  0  0
   -5.4544    0.2883   -1.6432 O   0  0  0  0  0  0  0  0  0  0  0  0
   -7.6515   -0.5170   -1.3934 C   0  0  0  0  0  0  0  0  0  0  0  0
   -8.2078    0.7137   -1.4460 F   0  0  0  0  0  0  0  0  0  0  0  0
   -7.7074   -1.0417   -2.6378 F   0  0  0  0  0  0  0  0  0  0  0  0
   -8.4204   -1.2771   -0.5966 F   0  0  0  0  0  0  0  0  0  0  0  0
  1 10  1  0  0  0  0
  2  1  1  0  0  0  0
  3  2  2  0  0  0  0
  4  1  2  0  0  0  0
  4  5  1  0  0  0  0
  5  6  2  0  0  0  0
  6  9  1  0  0  0  0
  6  7  1  0  0  0  0
  7  8  1  0  0  0  0
  8 13  1  0  0  0  0
  8 15  1  0  0  0  0
  9 16  1  0  0  0  0
 10 17  1  0  0  0  0
 10  9  2  0  0  0  0
 11  4  1  0  0  0  0
 12  5  1  0  0  0  0
 14  8  1  0  0  0  0
 19 18  1  0  0  0  0
 20 19  2  0  0  0  0
 21 19  1  0  0  0  0
 21 24  1  0  0  0  0
 22 21  1  0  0  0  0
 23 21  1  0  0  0  0
M  RAD  2   3   2  18   2
M  END
