Coordinates from ORCA-job 4-MeOPhN2+~CF3COO-_B3LYPG-6-31G_dp-NX-Scan-d89-09-n800
 OpenBabel11261920413D

 24 23  0  0  0  0  0  0  0  0999 V2000
   -1.7567    2.2374   -1.4698 C   0  0  0  0  0  0  0  0  0  0  0  0
   -1.9431    3.3118   -2.2555 N   0  0  0  0  0  0  0  0  0  0  0  0
   -2.0956    4.2200   -2.9088 N   0  0  0  0  0  0  0  0  0  0  0  0
   -0.4205    1.8269   -1.1852 C   0  0  0  0  0  0  0  0  0  0  0  0
   -0.2386    0.7498   -0.3641 C   0  0  0  0  0  0  0  0  0  0  0  0
   -1.3603    0.0654    0.1987 C   0  0  0  0  0  0  0  0  0  0  0  0
   -1.0568   -0.9258    1.0028 O   0  0  0  0  0  0  0  0  0  0  0  0
   -2.1049   -1.6579    1.7078 C   0  0  0  0  0  0  0  0  0  0  0  0
   -2.6920    0.4655   -0.1087 C   0  0  0  0  0  0  0  0  0  0  0  0
   -2.8847    1.5446   -0.9354 C   0  0  0  0  0  0  0  0  0  0  0  0
    0.4182    2.3661   -1.6108 H   0  0  0  0  0  0  0  0  0  0  0  0
    0.7553    0.3987   -0.1113 H   0  0  0  0  0  0  0  0  0  0  0  0
   -1.5630   -2.3644    2.3341 H   0  0  0  0  0  0  0  0  0  0  0  0
   -2.7928   -2.1740    1.0229 H   0  0  0  0  0  0  0  0  0  0  0  0
   -2.6826   -0.9605    2.3187 H   0  0  0  0  0  0  0  0  0  0  0  0
   -3.5869   -0.0745    0.2813 H   0  0  0  0  0  0  0  0  0  0  0  0
   -3.8907    1.8680   -1.1828 H   0  0  0  0  0  0  0  0  0  0  0  0
   -4.6560   -2.9293    0.7269 O   0  0  0  0  0  0  0  0  0  0  0  0
   -5.4211   -1.9459    0.7253 C   0  0  0  0  0  0  0  0  0  0  0  0
   -5.1707   -0.7095    0.7041 O   0  0  0  0  0  0  0  0  0  0  0  0
   -6.9493   -2.2523    0.7605 C   0  0  0  0  0  0  0  0  0  0  0  0
   -7.5289   -1.7090    1.8586 F   0  0  0  0  0  0  0  0  0  0  0  0
   -7.5737   -1.7217   -0.3207 F   0  0  0  0  0  0  0  0  0  0  0  0
   -7.2285   -3.5695    0.7734 F   0  0  0  0  0  0  0  0  0  0  0  0
  1  4  2  0  0  0  0
  1 10  1  0  0  0  0
  2  1  1  0  0  0  0
  3  2  1  0  0  0  0
  4  5  1  0  0  0  0
  5 12  1  0  0  0  0
  5  6  2  0  0  0  0
  6  7  1  0  0  0  0
  7  8  1  0  0  0  0
  8 15  1  0  0  0  0
  8 13  1  0  0  0  0
  9  6  1  0  0  0  0
  9 16  1  0  0  0  0
 10  9  2  0  0  0  0
 11  4  1  0  0  0  0
 14  8  1  0  0  0  0
 17 10  1  0  0  0  0
 19 18  1  0  0  0  0
 19 21  1  0  0  0  0
 20 19  2  0  0  0  0
 21 24  1  0  0  0  0
 21 22  1  0  0  0  0
 23 21  1  0  0  0  0
M  RAD  3   2   2   3   3  18   2
M  END
