Coordinates from ORCA-job 4-MeOPhN2+~CF3COO-_B3LYPG-6-31G_dp-NX-Scan-d89-09-n800
 OpenBabel11261920413D

 24 23  0  0  0  0  0  0  0  0999 V2000
   -2.5883    0.3573   -1.0520 C   0  0  0  0  0  0  0  0  0  0  0  0
   -3.3948    0.5646   -2.1829 N   0  0  0  0  0  0  0  0  0  0  0  0
   -3.5133    0.8434   -3.2681 N   0  0  0  0  0  0  0  0  0  0  0  0
   -1.3728    1.0699   -1.0110 C   0  0  0  0  0  0  0  0  0  0  0  0
   -0.5335    0.8699    0.0651 C   0  0  0  0  0  0  0  0  0  0  0  0
   -0.8872   -0.0443    1.0824 C   0  0  0  0  0  0  0  0  0  0  0  0
    0.0053   -0.1602    2.0828 O   0  0  0  0  0  0  0  0  0  0  0  0
   -0.2704   -1.0566    3.1602 C   0  0  0  0  0  0  0  0  0  0  0  0
   -2.0968   -0.7575    1.0033 C   0  0  0  0  0  0  0  0  0  0  0  0
   -2.9636   -0.5510   -0.0624 C   0  0  0  0  0  0  0  0  0  0  0  0
   -1.1154    1.7657   -1.8021 H   0  0  0  0  0  0  0  0  0  0  0  0
    0.4054    1.4044    0.1507 H   0  0  0  0  0  0  0  0  0  0  0  0
    0.5788   -0.9707    3.8384 H   0  0  0  0  0  0  0  0  0  0  0  0
   -0.3522   -2.0897    2.8050 H   0  0  0  0  0  0  0  0  0  0  0  0
   -1.1891   -0.7733    3.6858 H   0  0  0  0  0  0  0  0  0  0  0  0
   -2.3747   -1.4711    1.7689 H   0  0  0  0  0  0  0  0  0  0  0  0
   -3.9055   -1.0958   -0.1780 H   0  0  0  0  0  0  0  0  0  0  0  0
   -5.6396   -1.5691   -0.8997 O   0  0  0  0  0  0  0  0  0  0  0  0
   -6.0454   -0.4220   -1.1249 C   0  0  0  0  0  0  0  0  0  0  0  0
   -5.3887    0.6472   -1.3310 O   0  0  0  0  0  0  0  0  0  0  0  0
   -7.5852   -0.1879   -1.1766 C   0  0  0  0  0  0  0  0  0  0  0  0
   -7.9592    0.7595   -0.2898 F   0  0  0  0  0  0  0  0  0  0  0  0
   -7.9605    0.2314   -2.4051 F   0  0  0  0  0  0  0  0  0  0  0  0
   -8.2769   -1.3041   -0.8972 F   0  0  0  0  0  0  0  0  0  0  0  0
  1  4  2  0  0  0  0
  1 10  1  0  0  0  0
  2  1  1  0  0  0  0
  3  2  2  0  0  0  0
  4  5  1  0  0  0  0
  5 12  1  0  0  0  0
  5  6  2  0  0  0  0
  6  7  1  0  0  0  0
  7  8  1  0  0  0  0
  8 15  1  0  0  0  0
  8 13  1  0  0  0  0
  9  6  1  0  0  0  0
  9 16  1  0  0  0  0
 10  9  2  0  0  0  0
 11  4  1  0  0  0  0
 14  8  1  0  0  0  0
 17 10  1  0  0  0  0
 19 18  1  0  0  0  0
 20 19  2  0  0  0  0
 21 19  1  0  0  0  0
 21 24  1  0  0  0  0
 21 22  1  0  0  0  0
 23 21  1  0  0  0  0
M  RAD  2   3   2  18   2
M  END
