Coordinates from ORCA-job 4-MeOPhN2+~CF3COO-_B3LYPG-6-31G_dp-NX-Scan-d89-09-n800
 OpenBabel11261920413D

 24 23  0  0  0  0  0  0  0  0999 V2000
   -2.1676    1.8992   -1.3783 C   0  0  0  0  0  0  0  0  0  0  0  0
   -2.6064    2.7910   -2.2818 N   0  0  0  0  0  0  0  0  0  0  0  0
   -3.0036    3.5371   -3.0279 N   0  0  0  0  0  0  0  0  0  0  0  0
   -0.8035    1.4866   -1.4138 C   0  0  0  0  0  0  0  0  0  0  0  0
   -0.3946    0.5355   -0.5194 C   0  0  0  0  0  0  0  0  0  0  0  0
   -1.3225   -0.0341    0.4057 C   0  0  0  0  0  0  0  0  0  0  0  0
   -0.8425   -0.9871    1.1745 O   0  0  0  0  0  0  0  0  0  0  0  0
   -1.7472   -1.7039    2.0681 C   0  0  0  0  0  0  0  0  0  0  0  0
   -2.6636    0.4228    0.4602 C   0  0  0  0  0  0  0  0  0  0  0  0
   -3.0911    1.3699   -0.4333 C   0  0  0  0  0  0  0  0  0  0  0  0
   -0.1216    1.9146   -2.1401 H   0  0  0  0  0  0  0  0  0  0  0  0
    0.6275    0.1742   -0.5131 H   0  0  0  0  0  0  0  0  0  0  0  0
   -1.1500   -2.5256    2.4595 H   0  0  0  0  0  0  0  0  0  0  0  0
   -2.6240   -2.0517    1.5022 H   0  0  0  0  0  0  0  0  0  0  0  0
   -2.0529   -1.0380    2.8799 H   0  0  0  0  0  0  0  0  0  0  0  0
   -3.4393    0.0149    1.1245 H   0  0  0  0  0  0  0  0  0  0  0  0
   -4.1314    1.6785   -0.4217 H   0  0  0  0  0  0  0  0  0  0  0  0
   -4.3438   -2.2130    0.4204 O   0  0  0  0  0  0  0  0  0  0  0  0
   -5.2774   -1.4186    0.6666 C   0  0  0  0  0  0  0  0  0  0  0  0
   -5.2647   -0.3227    1.2825 O   0  0  0  0  0  0  0  0  0  0  0  0
   -6.6660   -1.7930    0.0670 C   0  0  0  0  0  0  0  0  0  0  0  0
   -7.6753   -1.5614    0.9332 F   0  0  0  0  0  0  0  0  0  0  0  0
   -6.9092   -1.0336   -1.0380 F   0  0  0  0  0  0  0  0  0  0  0  0
   -6.7529   -3.0816   -0.3150 F   0  0  0  0  0  0  0  0  0  0  0  0
  1 10  1  0  0  0  0
  2  1  1  0  0  0  0
  3  2  1  0  0  0  0
  4  1  2  0  0  0  0
  4  5  1  0  0  0  0
  5 12  1  0  0  0  0
  5  6  2  0  0  0  0
  6  9  1  0  0  0  0
  6  7  1  0  0  0  0
  7  8  1  0  0  0  0
  8 13  1  0  0  0  0
  8 15  1  0  0  0  0
  9 16  1  0  0  0  0
 10 17  1  0  0  0  0
 10  9  2  0  0  0  0
 11  4  1  0  0  0  0
 14  8  1  0  0  0  0
 18 19  2  0  0  0  0
 19 20  1  0  0  0  0
 21 19  1  0  0  0  0
 21 22  1  0  0  0  0
 23 21  1  0  0  0  0
 24 21  1  0  0  0  0
M  RAD  3   2   2   3   3  20   2
M  END
