Coordinates from ORCA-job 4-MeOPhN2+~CF3COO-_B3LYPG-6-31G_dp-NX-Scan-d89-09-n800
 OpenBabel11261920413D

 24 23  0  0  0  0  0  0  0  0999 V2000
   -2.6356    0.2962   -1.0349 C   0  0  0  0  0  0  0  0  0  0  0  0
   -3.4663    0.4743   -2.1580 N   0  0  0  0  0  0  0  0  0  0  0  0
   -3.5728    0.6670   -3.2636 N   0  0  0  0  0  0  0  0  0  0  0  0
   -1.4257    1.0133   -1.0229 C   0  0  0  0  0  0  0  0  0  0  0  0
   -0.5716    0.8414    0.0487 C   0  0  0  0  0  0  0  0  0  0  0  0
   -0.9087   -0.0479    1.0907 C   0  0  0  0  0  0  0  0  0  0  0  0
   -0.0036   -0.1390    2.0841 O   0  0  0  0  0  0  0  0  0  0  0  0
   -0.2654   -1.0099    3.1844 C   0  0  0  0  0  0  0  0  0  0  0  0
   -2.1170   -0.7668    1.0430 C   0  0  0  0  0  0  0  0  0  0  0  0
   -2.9950   -0.5865   -0.0180 C   0  0  0  0  0  0  0  0  0  0  0  0
   -1.1805    1.6925   -1.8320 H   0  0  0  0  0  0  0  0  0  0  0  0
    0.3664    1.3810    0.1095 H   0  0  0  0  0  0  0  0  0  0  0  0
    0.5911   -0.9074    3.8511 H   0  0  0  0  0  0  0  0  0  0  0  0
   -0.3495   -2.0516    2.8550 H   0  0  0  0  0  0  0  0  0  0  0  0
   -1.1785   -0.7162    3.7145 H   0  0  0  0  0  0  0  0  0  0  0  0
   -2.3830   -1.4636    1.8279 H   0  0  0  0  0  0  0  0  0  0  0  0
   -3.9245   -1.1400   -0.1154 H   0  0  0  0  0  0  0  0  0  0  0  0
   -5.5201   -1.4581   -1.4544 O   0  0  0  0  0  0  0  0  0  0  0  0
   -5.9814   -0.3242   -1.2741 C   0  0  0  0  0  0  0  0  0  0  0  0
   -5.3591    0.7819   -1.1870 O   0  0  0  0  0  0  0  0  0  0  0  0
   -7.5243   -0.1641   -1.1466 C   0  0  0  0  0  0  0  0  0  0  0  0
   -7.8526    0.5874   -0.0745 F   0  0  0  0  0  0  0  0  0  0  0  0
   -8.0213    0.4481   -2.2440 F   0  0  0  0  0  0  0  0  0  0  0  0
   -8.1448   -1.3478   -1.0213 F   0  0  0  0  0  0  0  0  0  0  0  0
  1  4  2  0  0  0  0
  1 10  1  0  0  0  0
  2  1  1  0  0  0  0
  3  2  2  0  0  0  0
  4  5  1  0  0  0  0
  5 12  1  0  0  0  0
  5  6  2  0  0  0  0
  6  7  1  0  0  0  0
  7  8  1  0  0  0  0
  8 15  1  0  0  0  0
  8 13  1  0  0  0  0
  9  6  1  0  0  0  0
  9 16  1  0  0  0  0
 10  9  2  0  0  0  0
 11  4  1  0  0  0  0
 14  8  1  0  0  0  0
 17 10  1  0  0  0  0
 18 19  2  0  0  0  0
 19 20  1  0  0  0  0
 19 21  1  0  0  0  0
 21 24  1  0  0  0  0
 21 22  1  0  0  0  0
 23 21  1  0  0  0  0
M  RAD  2   3   2  20   2
M  END
