Coordinates from ORCA-job 4-MeOPhN2+~CF3COO-_B3LYPG-6-31G_dp-NX-Scan-d89-09-n800
 OpenBabel11261920413D

 24 23  0  0  0  0  0  0  0  0999 V2000
   -1.7637    2.2304   -1.4688 C   0  0  0  0  0  0  0  0  0  0  0  0
   -1.9552    3.3014   -2.2577 N   0  0  0  0  0  0  0  0  0  0  0  0
   -2.1137    4.2065   -2.9137 N   0  0  0  0  0  0  0  0  0  0  0  0
   -0.4259    1.8209   -1.1900 C   0  0  0  0  0  0  0  0  0  0  0  0
   -0.2397    0.7462   -0.3666 C   0  0  0  0  0  0  0  0  0  0  0  0
   -1.3585    0.0631    0.2035 C   0  0  0  0  0  0  0  0  0  0  0  0
   -1.0511   -0.9272    1.0072 O   0  0  0  0  0  0  0  0  0  0  0  0
   -2.0965   -1.6587    1.7169 C   0  0  0  0  0  0  0  0  0  0  0  0
   -2.6916    0.4632   -0.0970 C   0  0  0  0  0  0  0  0  0  0  0  0
   -2.8888    1.5396   -0.9260 C   0  0  0  0  0  0  0  0  0  0  0  0
    0.4104    2.3589   -1.6216 H   0  0  0  0  0  0  0  0  0  0  0  0
    0.7555    0.3958   -0.1182 H   0  0  0  0  0  0  0  0  0  0  0  0
   -1.5525   -2.3717    2.3340 H   0  0  0  0  0  0  0  0  0  0  0  0
   -2.7929   -2.1668    1.0342 H   0  0  0  0  0  0  0  0  0  0  0  0
   -2.6642   -0.9619    2.3380 H   0  0  0  0  0  0  0  0  0  0  0  0
   -3.5860   -0.0739    0.2985 H   0  0  0  0  0  0  0  0  0  0  0  0
   -3.8962    1.8621   -1.1686 H   0  0  0  0  0  0  0  0  0  0  0  0
   -4.6501   -2.9110    0.7085 O   0  0  0  0  0  0  0  0  0  0  0  0
   -5.4198   -1.9314    0.7211 C   0  0  0  0  0  0  0  0  0  0  0  0
   -5.1746   -0.6939    0.7193 O   0  0  0  0  0  0  0  0  0  0  0  0
   -6.9466   -2.2453    0.7473 C   0  0  0  0  0  0  0  0  0  0  0  0
   -7.5346   -1.7110    1.8451 F   0  0  0  0  0  0  0  0  0  0  0  0
   -7.5676   -1.7116   -0.3345 F   0  0  0  0  0  0  0  0  0  0  0  0
   -7.2195   -3.5638    0.7511 F   0  0  0  0  0  0  0  0  0  0  0  0
  1  4  2  0  0  0  0
  1 10  1  0  0  0  0
  2  1  1  0  0  0  0
  3  2  1  0  0  0  0
  4  5  1  0  0  0  0
  5 12  1  0  0  0  0
  5  6  2  0  0  0  0
  6  7  1  0  0  0  0
  7  8  1  0  0  0  0
  8 13  1  0  0  0  0
  8 15  1  0  0  0  0
  9  6  1  0  0  0  0
  9 16  1  0  0  0  0
 10  9  2  0  0  0  0
 11  4  1  0  0  0  0
 14  8  1  0  0  0  0
 17 10  1  0  0  0  0
 18 19  2  0  0  0  0
 19 21  1  0  0  0  0
 20 19  1  0  0  0  0
 21 24  1  0  0  0  0
 21 22  1  0  0  0  0
 23 21  1  0  0  0  0
M  RAD  3   2   2   3   3  20   2
M  END
