Coordinates from ORCA-job 4-MeOPhN2+~CF3COO-_B3LYPG-6-31G_dp-NX-Scan-d89-09-n800
 OpenBabel11261920413D

 24 23  0  0  0  0  0  0  0  0999 V2000
   -1.7134   -0.1449   -0.0585 C   0  0  0  0  0  0  0  0  0  0  0  0
   -3.0525   -0.2972    0.0496 N   0  0  0  0  0  0  0  0  0  0  0  0
   -4.1774   -0.4247    0.1398 N   0  0  0  0  0  0  0  0  0  0  0  0
   -1.1647    1.1651   -0.1320 C   0  0  0  0  0  0  0  0  0  0  0  0
    0.1985    1.3007   -0.2426 C   0  0  0  0  0  0  0  0  0  0  0  0
    1.0411    0.1641   -0.2824 C   0  0  0  0  0  0  0  0  0  0  0  0
    2.3530    0.4248   -0.3919 O   0  0  0  0  0  0  0  0  0  0  0  0
    3.2854   -0.6584   -0.4397 C   0  0  0  0  0  0  0  0  0  0  0  0
    0.4832   -1.1296   -0.2075 C   0  0  0  0  0  0  0  0  0  0  0  0
   -0.8851   -1.2934   -0.0963 C   0  0  0  0  0  0  0  0  0  0  0  0
   -1.8163    2.0306   -0.1004 H   0  0  0  0  0  0  0  0  0  0  0  0
    0.6561    2.2819   -0.3015 H   0  0  0  0  0  0  0  0  0  0  0  0
    4.2673   -0.1955   -0.5283 H   0  0  0  0  0  0  0  0  0  0  0  0
    3.1021   -1.2979   -1.3103 H   0  0  0  0  0  0  0  0  0  0  0  0
    3.2434   -1.2550    0.4783 H   0  0  0  0  0  0  0  0  0  0  0  0
    1.1139   -2.0091   -0.2355 H   0  0  0  0  0  0  0  0  0  0  0  0
   -1.3254   -2.2823   -0.0381 H   0  0  0  0  0  0  0  0  0  0  0  0
  -12.9147   -1.1133    1.0336 O   0  0  0  0  0  0  0  0  0  0  0  0
  -11.6865   -1.0082    0.8950 C   0  0  0  0  0  0  0  0  0  0  0  0
  -10.7162   -1.7794    0.8500 O   0  0  0  0  0  0  0  0  0  0  0  0
  -11.2662    0.5367    0.7495 C   0  0  0  0  0  0  0  0  0  0  0  0
   -9.9515    0.7128    0.5109 F   0  0  0  0  0  0  0  0  0  0  0  0
  -11.9372    1.1233   -0.2625 F   0  0  0  0  0  0  0  0  0  0  0  0
  -11.5605    1.2090    1.8828 F   0  0  0  0  0  0  0  0  0  0  0  0
  1  2  1  0  0  0  0
  2  3  1  0  0  0  0
  4 11  1  0  0  0  0
  4  1  2  0  0  0  0
  5  4  1  0  0  0  0
  6  5  2  0  0  0  0
  6  9  1  0  0  0  0
  7  6  1  0  0  0  0
  8  7  1  0  0  0  0
  8 15  1  0  0  0  0
  9 10  2  0  0  0  0
 10  1  1  0  0  0  0
 10 17  1  0  0  0  0
 12  5  1  0  0  0  0
 13  8  1  0  0  0  0
 14  8  1  0  0  0  0
 16  9  1  0  0  0  0
 19 18  1  0  0  0  0
 20 19  2  0  0  0  0
 21 19  1  0  0  0  0
 21 24  1  0  0  0  0
 22 21  1  0  0  0  0
 23 21  1  0  0  0  0
M  RAD  3   2   2   3   3  18   2
M  END
