Coordinates from ORCA-job 4-MeOPhN2+~CF3COO-_B3LYPG-6-31G_dp-NX-Scan-d89-09-n800
 OpenBabel11261920413D

 24 23  0  0  0  0  0  0  0  0999 V2000
   -2.1481    1.9176   -1.3810 C   0  0  0  0  0  0  0  0  0  0  0  0
   -2.5753    2.8229   -2.2761 N   0  0  0  0  0  0  0  0  0  0  0  0
   -2.9626    3.5818   -3.0143 N   0  0  0  0  0  0  0  0  0  0  0  0
   -0.7854    1.4997   -1.4094 C   0  0  0  0  0  0  0  0  0  0  0  0
   -0.3876    0.5391   -0.5204 C   0  0  0  0  0  0  0  0  0  0  0  0
   -1.3246   -0.0334    0.3941 C   0  0  0  0  0  0  0  0  0  0  0  0
   -0.8520   -0.9898    1.1626 O   0  0  0  0  0  0  0  0  0  0  0  0
   -1.7598   -1.7004    2.0578 C   0  0  0  0  0  0  0  0  0  0  0  0
   -2.6657    0.4253    0.4388 C   0  0  0  0  0  0  0  0  0  0  0  0
   -3.0817    1.3815   -0.4501 C   0  0  0  0  0  0  0  0  0  0  0  0
   -0.0958    1.9320   -2.1259 H   0  0  0  0  0  0  0  0  0  0  0  0
    0.6331    0.1744   -0.5082 H   0  0  0  0  0  0  0  0  0  0  0  0
   -1.1664   -2.5247    2.4495 H   0  0  0  0  0  0  0  0  0  0  0  0
   -2.6405   -2.0453    1.4955 H   0  0  0  0  0  0  0  0  0  0  0  0
   -2.0600   -1.0312    2.8690 H   0  0  0  0  0  0  0  0  0  0  0  0
   -3.4500    0.0144    1.0923 H   0  0  0  0  0  0  0  0  0  0  0  0
   -4.1208    1.6943   -0.4452 H   0  0  0  0  0  0  0  0  0  0  0  0
   -4.3573   -2.2390    0.4335 O   0  0  0  0  0  0  0  0  0  0  0  0
   -5.2863   -1.4365    0.6696 C   0  0  0  0  0  0  0  0  0  0  0  0
   -5.2651   -0.3269    1.2607 O   0  0  0  0  0  0  0  0  0  0  0  0
   -6.6816   -1.8214    0.0924 C   0  0  0  0  0  0  0  0  0  0  0  0
   -7.6828   -1.5590    0.9593 F   0  0  0  0  0  0  0  0  0  0  0  0
   -6.9302   -1.0948   -1.0330 F   0  0  0  0  0  0  0  0  0  0  0  0
   -6.7773   -3.1206   -0.2494 F   0  0  0  0  0  0  0  0  0  0  0  0
  1 10  1  0  0  0  0
  2  1  1  0  0  0  0
  3  2  1  0  0  0  0
  4  1  2  0  0  0  0
  4  5  1  0  0  0  0
  5 12  1  0  0  0  0
  5  6  2  0  0  0  0
  6  9  1  0  0  0  0
  6  7  1  0  0  0  0
  7  8  1  0  0  0  0
  8 13  1  0  0  0  0
  8 15  1  0  0  0  0
  9 16  1  0  0  0  0
 10 17  1  0  0  0  0
 10  9  2  0  0  0  0
 11  4  1  0  0  0  0
 14  8  1  0  0  0  0
 18 19  2  0  0  0  0
 19 20  1  0  0  0  0
 21 19  1  0  0  0  0
 21 22  1  0  0  0  0
 23 21  1  0  0  0  0
 24 21  1  0  0  0  0
M  RAD  3   2   2   3   3  20   2
M  END
