Coordinates from ORCA-job 4-MeOPhN2+~CF3COO-_B3LYPG-6-31G_dp-NX-Scan-d89-09-n800
 OpenBabel11261920413D

 24 23  0  0  0  0  0  0  0  0999 V2000
   -2.4257    0.3396   -1.1298 C   0  0  0  0  0  0  0  0  0  0  0  0
   -3.2242    0.6015   -2.2194 N   0  0  0  0  0  0  0  0  0  0  0  0
   -3.8424    0.8246   -3.1247 N   0  0  0  0  0  0  0  0  0  0  0  0
   -1.0392    0.5789   -1.2770 C   0  0  0  0  0  0  0  0  0  0  0  0
   -0.2106    0.3289   -0.2076 C   0  0  0  0  0  0  0  0  0  0  0  0
   -0.7491   -0.1575    1.0079 C   0  0  0  0  0  0  0  0  0  0  0  0
    0.1476   -0.3652    1.9839 O   0  0  0  0  0  0  0  0  0  0  0  0
   -0.3003   -0.8503    3.2544 C   0  0  0  0  0  0  0  0  0  0  0  0
   -2.1315   -0.3886    1.1303 C   0  0  0  0  0  0  0  0  0  0  0  0
   -2.9874   -0.1439    0.0662 C   0  0  0  0  0  0  0  0  0  0  0  0
   -0.6447    0.9523   -2.2158 H   0  0  0  0  0  0  0  0  0  0  0  0
    0.8582    0.4982   -0.2706 H   0  0  0  0  0  0  0  0  0  0  0  0
    0.5960   -0.9289    3.8689 H   0  0  0  0  0  0  0  0  0  0  0  0
   -0.7673   -1.8358    3.1570 H   0  0  0  0  0  0  0  0  0  0  0  0
   -1.0039   -0.1496    3.7166 H   0  0  0  0  0  0  0  0  0  0  0  0
   -2.5566   -0.7619    2.0535 H   0  0  0  0  0  0  0  0  0  0  0  0
   -4.0665   -0.3196    0.1497 H   0  0  0  0  0  0  0  0  0  0  0  0
   -5.4160    0.1113   -1.6343 O   0  0  0  0  0  0  0  0  0  0  0  0
   -6.2769   -0.2982   -0.7997 C   0  0  0  0  0  0  0  0  0  0  0  0
   -6.0763   -0.6717    0.3671 O   0  0  0  0  0  0  0  0  0  0  0  0
   -7.7329   -0.3235   -1.3387 C   0  0  0  0  0  0  0  0  0  0  0  0
   -8.6212   -0.7424   -0.4213 F   0  0  0  0  0  0  0  0  0  0  0  0
   -8.1189    0.9091   -1.7456 F   0  0  0  0  0  0  0  0  0  0  0  0
   -7.8340   -1.1474   -2.4090 F   0  0  0  0  0  0  0  0  0  0  0  0
  1 10  1  0  0  0  0
  2  1  1  0  0  0  0
  3  2  1  0  0  0  0
  4  1  2  0  0  0  0
  4  5  1  0  0  0  0
  5  6  2  0  0  0  0
  6  9  1  0  0  0  0
  6  7  1  0  0  0  0
  7  8  1  0  0  0  0
  8 15  1  0  0  0  0
  8 13  1  0  0  0  0
  9 16  1  0  0  0  0
 10 17  1  0  0  0  0
 10  9  2  0  0  0  0
 11  4  1  0  0  0  0
 12  5  1  0  0  0  0
 14  8  1  0  0  0  0
 18 19  2  0  0  0  0
 19 20  1  0  0  0  0
 21 19  1  0  0  0  0
 21 22  1  0  0  0  0
 23 21  1  0  0  0  0
 24 21  1  0  0  0  0
M  RAD  3   2   2   3   3  20   2
M  END
