Coordinates from ORCA-job 4-MeOPhN2+~CF3COO-_B3LYPG-6-31G_dp-NX-Scan-d89-09-n800
 OpenBabel11261920413D

 24 23  0  0  0  0  0  0  0  0999 V2000
   -1.7770    2.2178   -1.4667 C   0  0  0  0  0  0  0  0  0  0  0  0
   -1.9778    3.2829   -2.2611 N   0  0  0  0  0  0  0  0  0  0  0  0
   -2.1466    4.1827   -2.9218 N   0  0  0  0  0  0  0  0  0  0  0  0
   -0.4366    1.8100   -1.1991 C   0  0  0  0  0  0  0  0  0  0  0  0
   -0.2421    0.7395   -0.3720 C   0  0  0  0  0  0  0  0  0  0  0  0
   -1.3554    0.0588    0.2118 C   0  0  0  0  0  0  0  0  0  0  0  0
   -1.0405   -0.9303    1.0144 O   0  0  0  0  0  0  0  0  0  0  0  0
   -2.0800   -1.6605    1.7338 C   0  0  0  0  0  0  0  0  0  0  0  0
   -2.6909    0.4592   -0.0754 C   0  0  0  0  0  0  0  0  0  0  0  0
   -2.8966    1.5309   -0.9081 C   0  0  0  0  0  0  0  0  0  0  0  0
    0.3954    2.3455   -1.6419 H   0  0  0  0  0  0  0  0  0  0  0  0
    0.7555    0.3900   -0.1321 H   0  0  0  0  0  0  0  0  0  0  0  0
   -1.5320   -2.3864    2.3319 H   0  0  0  0  0  0  0  0  0  0  0  0
   -2.7938   -2.1528    1.0566 H   0  0  0  0  0  0  0  0  0  0  0  0
   -2.6271   -0.9653    2.3752 H   0  0  0  0  0  0  0  0  0  0  0  0
   -3.5840   -0.0729    0.3302 H   0  0  0  0  0  0  0  0  0  0  0  0
   -3.9067    1.8517   -1.1416 H   0  0  0  0  0  0  0  0  0  0  0  0
   -4.6398   -2.8776    0.6811 O   0  0  0  0  0  0  0  0  0  0  0  0
   -5.4180   -1.9051    0.7148 C   0  0  0  0  0  0  0  0  0  0  0  0
   -5.1821   -0.6662    0.7452 O   0  0  0  0  0  0  0  0  0  0  0  0
   -6.9420   -2.2322    0.7219 C   0  0  0  0  0  0  0  0  0  0  0  0
   -7.5477   -1.7118    1.8164 F   0  0  0  0  0  0  0  0  0  0  0  0
   -7.5544   -1.6951   -0.3634 F   0  0  0  0  0  0  0  0  0  0  0  0
   -7.2036   -3.5530    0.7118 F   0  0  0  0  0  0  0  0  0  0  0  0
  1  4  2  0  0  0  0
  1 10  1  0  0  0  0
  2  1  1  0  0  0  0
  3  2  1  0  0  0  0
  4  5  1  0  0  0  0
  5 12  1  0  0  0  0
  5  6  2  0  0  0  0
  6  7  1  0  0  0  0
  7  8  1  0  0  0  0
  8 13  1  0  0  0  0
  8 15  1  0  0  0  0
  9  6  1  0  0  0  0
  9 16  1  0  0  0  0
 10  9  2  0  0  0  0
 11  4  1  0  0  0  0
 14  8  1  0  0  0  0
 17 10  1  0  0  0  0
 18 19  2  0  0  0  0
 19 21  1  0  0  0  0
 19 20  1  0  0  0  0
 21 22  1  0  0  0  0
 23 21  1  0  0  0  0
 24 21  1  0  0  0  0
M  RAD  3   2   2   3   3  20   2
M  END
