Coordinates from ORCA-job 4-MeOPhN2+~CF3COO-_B3LYPG-6-31G_dp-NX-Scan-d89-09-n800
 OpenBabel11261920413D

 24 23  0  0  0  0  0  0  0  0999 V2000
   -2.6340    0.2994   -1.0351 C   0  0  0  0  0  0  0  0  0  0  0  0
   -3.4639    0.4786   -2.1588 N   0  0  0  0  0  0  0  0  0  0  0  0
   -3.5683    0.6756   -3.2640 N   0  0  0  0  0  0  0  0  0  0  0  0
   -1.4242    1.0168   -1.0215 C   0  0  0  0  0  0  0  0  0  0  0  0
   -0.5706    0.8437    0.0502 C   0  0  0  0  0  0  0  0  0  0  0  0
   -0.9080   -0.0474    1.0907 C   0  0  0  0  0  0  0  0  0  0  0  0
   -0.0033   -0.1396    2.0843 O   0  0  0  0  0  0  0  0  0  0  0  0
   -0.2651   -1.0126    3.1831 C   0  0  0  0  0  0  0  0  0  0  0  0
   -2.1160   -0.7665    1.0414 C   0  0  0  0  0  0  0  0  0  0  0  0
   -2.9936   -0.5850   -0.0197 C   0  0  0  0  0  0  0  0  0  0  0  0
   -1.1788    1.6971   -1.8297 H   0  0  0  0  0  0  0  0  0  0  0  0
    0.3672    1.3835    0.1122 H   0  0  0  0  0  0  0  0  0  0  0  0
    0.5911   -0.9108    3.8502 H   0  0  0  0  0  0  0  0  0  0  0  0
   -0.3486   -2.0538    2.8518 H   0  0  0  0  0  0  0  0  0  0  0  0
   -1.1785   -0.7202    3.7133 H   0  0  0  0  0  0  0  0  0  0  0  0
   -2.3821   -1.4646    1.8251 H   0  0  0  0  0  0  0  0  0  0  0  0
   -3.9231   -1.1387   -0.1185 H   0  0  0  0  0  0  0  0  0  0  0  0
   -5.5265   -1.4688   -1.4326 O   0  0  0  0  0  0  0  0  0  0  0  0
   -5.9842   -0.3311   -1.2688 C   0  0  0  0  0  0  0  0  0  0  0  0
   -5.3594    0.7747   -1.1942 O   0  0  0  0  0  0  0  0  0  0  0  0
   -7.5271   -0.1641   -1.1477 C   0  0  0  0  0  0  0  0  0  0  0  0
   -7.8558    0.6029   -0.0869 F   0  0  0  0  0  0  0  0  0  0  0  0
   -8.0191    0.4348   -2.2547 F   0  0  0  0  0  0  0  0  0  0  0  0
   -8.1518   -1.3440   -1.0081 F   0  0  0  0  0  0  0  0  0  0  0  0
  1  4  2  0  0  0  0
  1 10  1  0  0  0  0
  2  1  1  0  0  0  0
  3  2  2  0  0  0  0
  4  5  1  0  0  0  0
  5 12  1  0  0  0  0
  5  6  2  0  0  0  0
  6  7  1  0  0  0  0
  7  8  1  0  0  0  0
  8 15  1  0  0  0  0
  8 13  1  0  0  0  0
  9  6  1  0  0  0  0
  9 16  1  0  0  0  0
 10  9  2  0  0  0  0
 11  4  1  0  0  0  0
 14  8  1  0  0  0  0
 17 10  1  0  0  0  0
 18 19  2  0  0  0  0
 19 20  1  0  0  0  0
 19 21  1  0  0  0  0
 21 24  1  0  0  0  0
 21 22  1  0  0  0  0
 23 21  1  0  0  0  0
M  RAD  2   3   2  20   2
M  END
