Coordinates from ORCA-job 4-MeOPhN2+~CF3COO-_B3LYPG-6-31G_dp-NX-Scan-d89-09-n800
 OpenBabel11261920413D

 24 23  0  0  0  0  0  0  0  0999 V2000
   -2.7290    1.5766   -1.1885 C   0  0  0  0  0  0  0  0  0  0  0  0
   -3.4333    2.3134   -2.0637 N   0  0  0  0  0  0  0  0  0  0  0  0
   -4.0421    2.9269   -2.7850 N   0  0  0  0  0  0  0  0  0  0  0  0
   -1.4882    1.0092   -1.5986 C   0  0  0  0  0  0  0  0  0  0  0  0
   -0.8581    0.1519   -0.7389 C   0  0  0  0  0  0  0  0  0  0  0  0
   -1.4592   -0.1849    0.5113 C   0  0  0  0  0  0  0  0  0  0  0  0
   -0.8361   -1.1151    1.2092 O   0  0  0  0  0  0  0  0  0  0  0  0
   -1.4987   -1.6874    2.3695 C   0  0  0  0  0  0  0  0  0  0  0  0
   -2.6473    0.4543    0.9308 C   0  0  0  0  0  0  0  0  0  0  0  0
   -3.2988    1.3172    0.0854 C   0  0  0  0  0  0  0  0  0  0  0  0
   -1.0787    1.2382   -2.5758 H   0  0  0  0  0  0  0  0  0  0  0  0
    0.0730   -0.3322   -1.0091 H   0  0  0  0  0  0  0  0  0  0  0  0
   -0.8843   -2.5434    2.6437 H   0  0  0  0  0  0  0  0  0  0  0  0
   -2.5155   -1.9858    2.0837 H   0  0  0  0  0  0  0  0  0  0  0  0
   -1.5059   -0.9590    3.1866 H   0  0  0  0  0  0  0  0  0  0  0  0
   -3.1637    0.1781    1.8403 H   0  0  0  0  0  0  0  0  0  0  0  0
   -4.2761    1.6956    0.3577 H   0  0  0  0  0  0  0  0  0  0  0  0
   -4.1516   -2.0182    0.7272 O   0  0  0  0  0  0  0  0  0  0  0  0
   -5.0629   -1.1643    0.6516 C   0  0  0  0  0  0  0  0  0  0  0  0
   -5.3654   -0.2175    1.4130 O   0  0  0  0  0  0  0  0  0  0  0  0
   -5.8720   -1.1773   -0.6836 C   0  0  0  0  0  0  0  0  0  0  0  0
   -7.1763   -0.8872   -0.5211 F   0  0  0  0  0  0  0  0  0  0  0  0
   -5.3599   -0.1985   -1.5148 F   0  0  0  0  0  0  0  0  0  0  0  0
   -5.7937   -2.3307   -1.3691 F   0  0  0  0  0  0  0  0  0  0  0  0
  1 10  1  0  0  0  0
  2  1  1  0  0  0  0
  3  2  1  0  0  0  0
  4  1  2  0  0  0  0
  4  5  1  0  0  0  0
  5  6  2  0  0  0  0
  6  9  1  0  0  0  0
  6  7  1  0  0  0  0
  7  8  1  0  0  0  0
  8 13  1  0  0  0  0
  8 15  1  0  0  0  0
  9 16  1  0  0  0  0
 10 17  1  0  0  0  0
 10  9  2  0  0  0  0
 11  4  1  0  0  0  0
 12  5  1  0  0  0  0
 14  8  1  0  0  0  0
 19 18  2  0  0  0  0
 19 20  1  0  0  0  0
 21 22  1  0  0  0  0
 21 19  1  0  0  0  0
 23 21  1  0  0  0  0
 24 21  1  0  0  0  0
M  RAD  3   2   2   3   3  20   2
M  END
