Coordinates from ORCA-job 4-MeOPhN2+~CF3COO-_B3LYPG-6-31G_dp-NX-Scan-d89-09-n800
 OpenBabel11261920413D

 24 23  0  0  0  0  0  0  0  0999 V2000
   -2.1156    1.9505   -1.3877 C   0  0  0  0  0  0  0  0  0  0  0  0
   -2.5160    2.8854   -2.2650 N   0  0  0  0  0  0  0  0  0  0  0  0
   -2.8747    3.6726   -2.9882 N   0  0  0  0  0  0  0  0  0  0  0  0
   -0.7568    1.5191   -1.4055 C   0  0  0  0  0  0  0  0  0  0  0  0
   -0.3799    0.5404   -0.5277 C   0  0  0  0  0  0  0  0  0  0  0  0
   -1.3322   -0.0348    0.3694 C   0  0  0  0  0  0  0  0  0  0  0  0
   -0.8718   -0.9961    1.1383 O   0  0  0  0  0  0  0  0  0  0  0  0
   -1.7805   -1.6903    2.0452 C   0  0  0  0  0  0  0  0  0  0  0  0
   -2.6726    0.4289    0.3981 C   0  0  0  0  0  0  0  0  0  0  0  0
   -3.0678    1.4026   -0.4818 C   0  0  0  0  0  0  0  0  0  0  0  0
   -0.0532    1.9581   -2.1041 H   0  0  0  0  0  0  0  0  0  0  0  0
    0.6378    0.1674   -0.5067 H   0  0  0  0  0  0  0  0  0  0  0  0
   -1.1904   -2.5149    2.4415 H   0  0  0  0  0  0  0  0  0  0  0  0
   -2.6701   -2.0370    1.4970 H   0  0  0  0  0  0  0  0  0  0  0  0
   -2.0685   -1.0096    2.8512 H   0  0  0  0  0  0  0  0  0  0  0  0
   -3.4693    0.0116    1.0349 H   0  0  0  0  0  0  0  0  0  0  0  0
   -4.1040    1.7247   -0.4878 H   0  0  0  0  0  0  0  0  0  0  0  0
   -4.3822   -2.2916    0.4710 O   0  0  0  0  0  0  0  0  0  0  0  0
   -5.3030   -1.4723    0.6786 C   0  0  0  0  0  0  0  0  0  0  0  0
   -5.2688   -0.3378    1.2203 O   0  0  0  0  0  0  0  0  0  0  0  0
   -6.7072   -1.8725    0.1346 C   0  0  0  0  0  0  0  0  0  0  0  0
   -7.6944   -1.5788    1.0079 F   0  0  0  0  0  0  0  0  0  0  0  0
   -6.9718   -1.1835   -1.0101 F   0  0  0  0  0  0  0  0  0  0  0  0
   -6.8106   -3.1822   -0.1616 F   0  0  0  0  0  0  0  0  0  0  0  0
  1 10  1  0  0  0  0
  2  1  1  0  0  0  0
  3  2  1  0  0  0  0
  4  1  2  0  0  0  0
  4  5  1  0  0  0  0
  5 12  1  0  0  0  0
  5  6  2  0  0  0  0
  6  9  1  0  0  0  0
  6  7  1  0  0  0  0
  7  8  1  0  0  0  0
  8 13  1  0  0  0  0
  8 15  1  0  0  0  0
  9 16  1  0  0  0  0
 10  9  2  0  0  0  0
 11  4  1  0  0  0  0
 14  8  1  0  0  0  0
 17 10  1  0  0  0  0
 18 19  2  0  0  0  0
 19 20  1  0  0  0  0
 21 19  1  0  0  0  0
 21 22  1  0  0  0  0
 23 21  1  0  0  0  0
 24 21  1  0  0  0  0
M  RAD  3   2   2   3   3  20   2
M  END
