Coordinates from ORCA-job 4-MeOPhN2+~CF3COO-_B3LYPG-6-31G_dp-NX-Scan-d89-09-n800
 OpenBabel11261920413D

 24 23  0  0  0  0  0  0  0  0999 V2000
   -1.7654   -0.0838   -0.0903 C   0  0  0  0  0  0  0  0  0  0  0  0
   -3.1090   -0.2055    0.0005 N   0  0  0  0  0  0  0  0  0  0  0  0
   -4.2372   -0.3090    0.0765 N   0  0  0  0  0  0  0  0  0  0  0  0
   -1.1859    1.2131   -0.1570 C   0  0  0  0  0  0  0  0  0  0  0  0
    0.1816    1.3172   -0.2483 C   0  0  0  0  0  0  0  0  0  0  0  0
    0.9982    0.1614   -0.2752 C   0  0  0  0  0  0  0  0  0  0  0  0
    2.3172    0.3915   -0.3656 O   0  0  0  0  0  0  0  0  0  0  0  0
    3.2248   -0.7132   -0.3979 C   0  0  0  0  0  0  0  0  0  0  0  0
    0.4097   -1.1191   -0.2079 C   0  0  0  0  0  0  0  0  0  0  0  0
   -0.9635   -1.2512   -0.1159 C   0  0  0  0  0  0  0  0  0  0  0  0
   -1.8177    2.0934   -0.1352 H   0  0  0  0  0  0  0  0  0  0  0  0
    0.6626    2.2874   -0.3012 H   0  0  0  0  0  0  0  0  0  0  0  0
    4.2186   -0.2733   -0.4704 H   0  0  0  0  0  0  0  0  0  0  0  0
    3.0409   -1.3486   -1.2712 H   0  0  0  0  0  0  0  0  0  0  0  0
    3.1537   -1.3082    0.5194 H   0  0  0  0  0  0  0  0  0  0  0  0
    1.0204   -2.0129   -0.2266 H   0  0  0  0  0  0  0  0  0  0  0  0
   -1.4274   -2.2295   -0.0633 H   0  0  0  0  0  0  0  0  0  0  0  0
  -12.7687   -1.1718    1.0462 O   0  0  0  0  0  0  0  0  0  0  0  0
  -11.5436   -1.0453    0.8972 C   0  0  0  0  0  0  0  0  0  0  0  0
  -10.5609   -1.8003    0.8406 O   0  0  0  0  0  0  0  0  0  0  0  0
  -11.1496    0.5064    0.7552 C   0  0  0  0  0  0  0  0  0  0  0  0
   -9.8405    0.7046    0.5017 F   0  0  0  0  0  0  0  0  0  0  0  0
  -11.8416    1.0884   -0.2452 F   0  0  0  0  0  0  0  0  0  0  0  0
  -11.4402    1.1681    1.8958 F   0  0  0  0  0  0  0  0  0  0  0  0
  1  2  1  0  0  0  0
  2  3  1  0  0  0  0
  4 11  1  0  0  0  0
  4  1  2  0  0  0  0
  5  4  1  0  0  0  0
  6  5  2  0  0  0  0
  6  9  1  0  0  0  0
  7  6  1  0  0  0  0
  8  7  1  0  0  0  0
  8 15  1  0  0  0  0
  9 10  2  0  0  0  0
 10  1  1  0  0  0  0
 10 17  1  0  0  0  0
 12  5  1  0  0  0  0
 13  8  1  0  0  0  0
 14  8  1  0  0  0  0
 16  9  1  0  0  0  0
 19 18  1  0  0  0  0
 20 19  2  0  0  0  0
 21 19  1  0  0  0  0
 21 24  1  0  0  0  0
 22 21  1  0  0  0  0
 23 21  1  0  0  0  0
M  RAD  3   2   2   3   3  18   2
M  END
