Coordinates from ORCA-job 4-MeOPhN2+~CF3COO-_B3LYPG-6-31G_dp-NX-Scan-d89-09-n800
 OpenBabel11261920413D

 24 23  0  0  0  0  0  0  0  0999 V2000
   -2.5430    1.6588   -1.3085 C   0  0  0  0  0  0  0  0  0  0  0  0
   -3.1264    2.4795   -2.1995 N   0  0  0  0  0  0  0  0  0  0  0  0
   -3.6248    3.1708   -2.9363 N   0  0  0  0  0  0  0  0  0  0  0  0
   -1.2111    1.2117   -1.5517 C   0  0  0  0  0  0  0  0  0  0  0  0
   -0.6550    0.3284   -0.6672 C   0  0  0  0  0  0  0  0  0  0  0  0
   -1.4048   -0.1350    0.4566 C   0  0  0  0  0  0  0  0  0  0  0  0
   -0.8148   -1.0491    1.1984 O   0  0  0  0  0  0  0  0  0  0  0  0
   -1.5637   -1.6847    2.2752 C   0  0  0  0  0  0  0  0  0  0  0  0
   -2.6992    0.3729    0.7162 C   0  0  0  0  0  0  0  0  0  0  0  0
   -3.2854    1.2405   -0.1706 C   0  0  0  0  0  0  0  0  0  0  0  0
   -0.6702    1.5571   -2.4257 H   0  0  0  0  0  0  0  0  0  0  0  0
    0.3443   -0.0631   -0.8183 H   0  0  0  0  0  0  0  0  0  0  0  0
   -0.9214   -2.4972    2.6110 H   0  0  0  0  0  0  0  0  0  0  0  0
   -2.5270   -2.0482    1.8896 H   0  0  0  0  0  0  0  0  0  0  0  0
   -1.7135   -0.9656    3.0859 H   0  0  0  0  0  0  0  0  0  0  0  0
   -3.3281    0.0277    1.5360 H   0  0  0  0  0  0  0  0  0  0  0  0
   -4.3171    1.5360   -0.0175 H   0  0  0  0  0  0  0  0  0  0  0  0
   -4.2751   -2.2042    0.7449 O   0  0  0  0  0  0  0  0  0  0  0  0
   -5.1568   -1.3189    0.7827 C   0  0  0  0  0  0  0  0  0  0  0  0
   -5.2954   -0.3359    1.5501 O   0  0  0  0  0  0  0  0  0  0  0  0
   -6.1762   -1.3322   -0.3970 C   0  0  0  0  0  0  0  0  0  0  0  0
   -7.4356   -1.0458   -0.0135 F   0  0  0  0  0  0  0  0  0  0  0  0
   -5.8101   -0.3557   -1.2953 F   0  0  0  0  0  0  0  0  0  0  0  0
   -6.2134   -2.4878   -1.0836 F   0  0  0  0  0  0  0  0  0  0  0  0
  1 10  1  0  0  0  0
  2  1  1  0  0  0  0
  3  2  1  0  0  0  0
  4  1  2  0  0  0  0
  4  5  1  0  0  0  0
  5  6  2  0  0  0  0
  6  9  1  0  0  0  0
  6  7  1  0  0  0  0
  7  8  1  0  0  0  0
  8 13  1  0  0  0  0
  8 15  1  0  0  0  0
  9 16  1  0  0  0  0
 10 17  1  0  0  0  0
 10  9  2  0  0  0  0
 11  4  1  0  0  0  0
 12  5  1  0  0  0  0
 14  8  1  0  0  0  0
 18 19  2  0  0  0  0
 19 20  1  0  0  0  0
 21 22  1  0  0  0  0
 21 19  1  0  0  0  0
 23 21  1  0  0  0  0
 24 21  1  0  0  0  0
M  RAD  3   2   2   3   3  20   2
M  END
