Coordinates from ORCA-job 4-MeOPhN2+~CF3COO-_B3LYPG-6-31G_dp-NX-Scan-d89-09-n800
 OpenBabel11261920413D

 24 23  0  0  0  0  0  0  0  0999 V2000
   -1.8777    2.1306   -1.4484 C   0  0  0  0  0  0  0  0  0  0  0  0
   -2.1422    3.1525   -2.2790 N   0  0  0  0  0  0  0  0  0  0  0  0
   -2.3754    4.0142   -2.9694 N   0  0  0  0  0  0  0  0  0  0  0  0
   -0.5238    1.7155   -1.2785 C   0  0  0  0  0  0  0  0  0  0  0  0
   -0.2710    0.6764   -0.4270 C   0  0  0  0  0  0  0  0  0  0  0  0
   -1.3390    0.0310    0.2705 C   0  0  0  0  0  0  0  0  0  0  0  0
   -0.9736   -0.9502    1.0625 O   0  0  0  0  0  0  0  0  0  0  0  0
   -1.9721   -1.6662    1.8513 C   0  0  0  0  0  0  0  0  0  0  0  0
   -2.6853    0.4534    0.0952 C   0  0  0  0  0  0  0  0  0  0  0  0
   -2.9516    1.4907   -0.7619 C   0  0  0  0  0  0  0  0  0  0  0  0
    0.2730    2.2187   -1.8143 H   0  0  0  0  0  0  0  0  0  0  0  0
    0.7393    0.3195   -0.2622 H   0  0  0  0  0  0  0  0  0  0  0  0
   -1.4110   -2.4626    2.3368 H   0  0  0  0  0  0  0  0  0  0  0  0
   -2.7843   -2.0628    1.2199 H   0  0  0  0  0  0  0  0  0  0  0  0
   -2.3876   -0.9837    2.5976 H   0  0  0  0  0  0  0  0  0  0  0  0
   -3.5596   -0.0319    0.5847 H   0  0  0  0  0  0  0  0  0  0  0  0
   -3.9765    1.8127   -0.9164 H   0  0  0  0  0  0  0  0  0  0  0  0
   -4.5594   -2.6596    0.5813 O   0  0  0  0  0  0  0  0  0  0  0  0
   -5.3949   -1.7403    0.6926 C   0  0  0  0  0  0  0  0  0  0  0  0
   -5.2287   -0.5103    0.9108 O   0  0  0  0  0  0  0  0  0  0  0  0
   -6.8917   -2.1388    0.5238 C   0  0  0  0  0  0  0  0  0  0  0  0
   -7.6330   -1.7346    1.5818 F   0  0  0  0  0  0  0  0  0  0  0  0
   -7.4197   -1.5486   -0.5796 F   0  0  0  0  0  0  0  0  0  0  0  0
   -7.0779   -3.4656    0.3897 F   0  0  0  0  0  0  0  0  0  0  0  0
  1  4  2  0  0  0  0
  1 10  1  0  0  0  0
  2  1  1  0  0  0  0
  3  2  1  0  0  0  0
  4  5  1  0  0  0  0
  5 12  1  0  0  0  0
  5  6  2  0  0  0  0
  6  7  1  0  0  0  0
  7  8  1  0  0  0  0
  8 13  1  0  0  0  0
  8 15  1  0  0  0  0
  9  6  1  0  0  0  0
  9 16  1  0  0  0  0
 10  9  2  0  0  0  0
 11  4  1  0  0  0  0
 14  8  1  0  0  0  0
 17 10  1  0  0  0  0
 18 19  2  0  0  0  0
 19 20  1  0  0  0  0
 21 19  1  0  0  0  0
 21 22  1  0  0  0  0
 23 21  1  0  0  0  0
 24 21  1  0  0  0  0
M  RAD  3   2   2   3   3  20   2
M  END
