Coordinates from ORCA-job 4-MeOPhN2+~CF3COO-_B3LYPG-6-31G_dp-NX-Scan-d89-09-n800
 OpenBabel11261920413D

 24 23  0  0  0  0  0  0  0  0999 V2000
   -2.6513    0.1912   -1.0963 C   0  0  0  0  0  0  0  0  0  0  0  0
   -3.4565    0.3774   -2.2398 N   0  0  0  0  0  0  0  0  0  0  0  0
   -3.5242    0.8133   -3.2791 N   0  0  0  0  0  0  0  0  0  0  0  0
   -1.4513    0.9275   -1.0551 C   0  0  0  0  0  0  0  0  0  0  0  0
   -0.6130    0.7699    0.0293 C   0  0  0  0  0  0  0  0  0  0  0  0
   -0.9556   -0.1196    1.0700 C   0  0  0  0  0  0  0  0  0  0  0  0
   -0.0668   -0.1947    2.0792 O   0  0  0  0  0  0  0  0  0  0  0  0
   -0.3416   -1.0568    3.1831 C   0  0  0  0  0  0  0  0  0  0  0  0
   -2.1538   -0.8511    1.0040 C   0  0  0  0  0  0  0  0  0  0  0  0
   -3.0083   -0.6932   -0.0807 C   0  0  0  0  0  0  0  0  0  0  0  0
   -1.2026    1.6103   -1.8598 H   0  0  0  0  0  0  0  0  0  0  0  0
    0.3162    1.3230    0.1043 H   0  0  0  0  0  0  0  0  0  0  0  0
    0.5012   -0.9401    3.8648 H   0  0  0  0  0  0  0  0  0  0  0  0
   -0.4105   -2.1025    2.8627 H   0  0  0  0  0  0  0  0  0  0  0  0
   -1.2671   -0.7656    3.6927 H   0  0  0  0  0  0  0  0  0  0  0  0
   -2.4324   -1.5388    1.7923 H   0  0  0  0  0  0  0  0  0  0  0  0
   -3.9394   -1.2365   -0.1681 H   0  0  0  0  0  0  0  0  0  0  0  0
   -5.2027   -0.6503   -1.7841 O   0  0  0  0  0  0  0  0  0  0  0  0
   -5.9453    0.2560   -1.2535 C   0  0  0  0  0  0  0  0  0  0  0  0
   -5.6328    1.3818   -0.8788 O   0  0  0  0  0  0  0  0  0  0  0  0
   -7.4082   -0.2349   -1.0587 C   0  0  0  0  0  0  0  0  0  0  0  0
   -8.2183    0.7520   -0.6505 F   0  0  0  0  0  0  0  0  0  0  0  0
   -7.9176   -0.7469   -2.1966 F   0  0  0  0  0  0  0  0  0  0  0  0
   -7.4417   -1.2115   -0.1196 F   0  0  0  0  0  0  0  0  0  0  0  0
  1  4  2  0  0  0  0
  1 10  1  0  0  0  0
  2  1  1  0  0  0  0
  3  2  2  0  0  0  0
  4  5  1  0  0  0  0
  5 12  1  0  0  0  0
  5  6  2  0  0  0  0
  6  7  1  0  0  0  0
  7  8  1  0  0  0  0
  8 15  1  0  0  0  0
  8 13  1  0  0  0  0
  9  6  1  0  0  0  0
  9 16  1  0  0  0  0
 10  9  2  0  0  0  0
 11  4  1  0  0  0  0
 14  8  1  0  0  0  0
 17 10  1  0  0  0  0
 18 19  2  0  0  0  0
 19 21  1  0  0  0  0
 19 20  1  0  0  0  0
 21 22  1  0  0  0  0
 21 24  1  0  0  0  0
 23 21  1  0  0  0  0
M  RAD  2   3   2  20   2
M  END
