Coordinates from ORCA-job 4-MeOPhN2+~CF3COO-_B3LYPG-6-31G_dp-NX-Scan-d89-09-n800
 OpenBabel11261920413D

 24 23  0  0  0  0  0  0  0  0999 V2000
   -1.7692    2.2251   -1.4680 C   0  0  0  0  0  0  0  0  0  0  0  0
   -1.9646    3.2935   -2.2592 N   0  0  0  0  0  0  0  0  0  0  0  0
   -2.1276    4.1963   -2.9173 N   0  0  0  0  0  0  0  0  0  0  0  0
   -0.4303    1.8163   -1.1937 C   0  0  0  0  0  0  0  0  0  0  0  0
   -0.2407    0.7434   -0.3687 C   0  0  0  0  0  0  0  0  0  0  0  0
   -1.3572    0.0613    0.2070 C   0  0  0  0  0  0  0  0  0  0  0  0
   -1.0467   -0.9285    1.0104 O   0  0  0  0  0  0  0  0  0  0  0  0
   -2.0897   -1.6594    1.7240 C   0  0  0  0  0  0  0  0  0  0  0  0
   -2.6913    0.4615   -0.0879 C   0  0  0  0  0  0  0  0  0  0  0  0
   -2.8921    1.5359   -0.9186 C   0  0  0  0  0  0  0  0  0  0  0  0
    0.4042    2.3533   -1.6301 H   0  0  0  0  0  0  0  0  0  0  0  0
    0.7556    0.3934   -0.1238 H   0  0  0  0  0  0  0  0  0  0  0  0
   -1.5441   -2.3777    2.3333 H   0  0  0  0  0  0  0  0  0  0  0  0
   -2.7932   -2.1610    1.0434 H   0  0  0  0  0  0  0  0  0  0  0  0
   -2.6491   -0.9632    2.3534 H   0  0  0  0  0  0  0  0  0  0  0  0
   -3.5852   -0.0735    0.3118 H   0  0  0  0  0  0  0  0  0  0  0  0
   -3.9006    1.8577   -1.1574 H   0  0  0  0  0  0  0  0  0  0  0  0
   -4.6457   -2.8970    0.6959 O   0  0  0  0  0  0  0  0  0  0  0  0
   -5.4190   -1.9203    0.7182 C   0  0  0  0  0  0  0  0  0  0  0  0
   -5.1777   -0.6821    0.7306 O   0  0  0  0  0  0  0  0  0  0  0  0
   -6.9446   -2.2398    0.7368 C   0  0  0  0  0  0  0  0  0  0  0  0
   -7.5397   -1.7118    1.8336 F   0  0  0  0  0  0  0  0  0  0  0  0
   -7.5624   -1.7043   -0.3461 F   0  0  0  0  0  0  0  0  0  0  0  0
   -7.2127   -3.5594    0.7343 F   0  0  0  0  0  0  0  0  0  0  0  0
  1  4  2  0  0  0  0
  1 10  1  0  0  0  0
  2  1  1  0  0  0  0
  3  2  1  0  0  0  0
  4  5  1  0  0  0  0
  5 12  1  0  0  0  0
  5  6  2  0  0  0  0
  6  7  1  0  0  0  0
  7  8  1  0  0  0  0
  8 13  1  0  0  0  0
  8 15  1  0  0  0  0
  9  6  1  0  0  0  0
  9 16  1  0  0  0  0
 10  9  2  0  0  0  0
 11  4  1  0  0  0  0
 14  8  1  0  0  0  0
 17 10  1  0  0  0  0
 18 19  2  0  0  0  0
 19 20  1  0  0  0  0
 19 21  1  0  0  0  0
 21 22  1  0  0  0  0
 23 21  1  0  0  0  0
 24 21  1  0  0  0  0
M  RAD  3   2   2   3   3  20   2
M  END
