Coordinates from ORCA-job 4-MeOPhN2+~CF3COO-_B3LYPG-6-31G_dp-NX-Scan-d89-09-n800
 OpenBabel11261920413D

 24 23  0  0  0  0  0  0  0  0999 V2000
   -1.8671   -1.1407    0.4190 C   0  0  0  0  0  0  0  0  0  0  0  0
   -2.0639   -2.4178    0.9407 N   0  0  0  0  0  0  0  0  0  0  0  0
   -2.8248   -3.2543    1.1782 N   0  0  0  0  0  0  0  0  0  0  0  0
   -0.5665   -0.6110    0.5013 C   0  0  0  0  0  0  0  0  0  0  0  0
   -0.3164    0.6521    0.0050 C   0  0  0  0  0  0  0  0  0  0  0  0
   -1.3601    1.3975   -0.5814 C   0  0  0  0  0  0  0  0  0  0  0  0
   -1.0142    2.6170   -1.0356 O   0  0  0  0  0  0  0  0  0  0  0  0
   -2.0103    3.4457   -1.6367 C   0  0  0  0  0  0  0  0  0  0  0  0
   -2.6569    0.8563   -0.6629 C   0  0  0  0  0  0  0  0  0  0  0  0
   -2.9187   -0.4129   -0.1659 C   0  0  0  0  0  0  0  0  0  0  0  0
    0.2221   -1.1995    0.9569 H   0  0  0  0  0  0  0  0  0  0  0  0
    0.6720    1.0946    0.0548 H   0  0  0  0  0  0  0  0  0  0  0  0
   -1.4975    4.3655   -1.9166 H   0  0  0  0  0  0  0  0  0  0  0  0
   -2.8137    3.6759   -0.9286 H   0  0  0  0  0  0  0  0  0  0  0  0
   -2.4303    2.9754   -2.5325 H   0  0  0  0  0  0  0  0  0  0  0  0
   -3.4667    1.4179   -1.1112 H   0  0  0  0  0  0  0  0  0  0  0  0
   -3.9081   -0.8517   -0.2162 H   0  0  0  0  0  0  0  0  0  0  0  0
   -4.5979   -2.7497    0.5088 O   0  0  0  0  0  0  0  0  0  0  0  0
   -5.3648   -2.6104    1.5426 C   0  0  0  0  0  0  0  0  0  0  0  0
   -5.0987   -2.7001    2.7288 O   0  0  0  0  0  0  0  0  0  0  0  0
   -6.8046   -2.2236    1.0931 C   0  0  0  0  0  0  0  0  0  0  0  0
   -7.6272   -2.0582    2.1356 F   0  0  0  0  0  0  0  0  0  0  0  0
   -6.7703   -1.0527    0.4041 F   0  0  0  0  0  0  0  0  0  0  0  0
   -7.3391   -3.1554    0.2805 F   0  0  0  0  0  0  0  0  0  0  0  0
  1  4  1  0  0  0  0
  1  2  1  0  0  0  0
  2  3  2  0  0  0  0
  4 11  1  0  0  0  0
  5 12  1  0  0  0  0
  5  4  2  0  0  0  0
  6  5  1  0  0  0  0
  7  6  1  0  0  0  0
  8  7  1  0  0  0  0
  8 14  1  0  0  0  0
  9  6  2  0  0  0  0
  9 10  1  0  0  0  0
 10  1  2  0  0  0  0
 13  8  1  0  0  0  0
 15  8  1  0  0  0  0
 16  9  1  0  0  0  0
 17 10  1  0  0  0  0
 18 19  2  0  0  0  0
 19 20  1  0  0  0  0
 21 19  1  0  0  0  0
 21 22  1  0  0  0  0
 23 21  1  0  0  0  0
 24 21  1  0  0  0  0
M  RAD  2   3   2  20   2
M  END
