Coordinates from ORCA-job 4-MeOPhN2+~CF3COO-_B3LYPG-6-31G_dp-NX-Scan-d89-09-n800
 OpenBabel11261920413D

 24 23  0  0  0  0  0  0  0  0999 V2000
   -2.4349    0.3366   -1.1248 C   0  0  0  0  0  0  0  0  0  0  0  0
   -3.2345    0.5981   -2.2144 N   0  0  0  0  0  0  0  0  0  0  0  0
   -3.8268    0.8299   -3.1344 N   0  0  0  0  0  0  0  0  0  0  0  0
   -1.0488    0.5771   -1.2757 C   0  0  0  0  0  0  0  0  0  0  0  0
   -0.2173    0.3283   -0.2084 C   0  0  0  0  0  0  0  0  0  0  0  0
   -0.7520   -0.1581    1.0087 C   0  0  0  0  0  0  0  0  0  0  0  0
    0.1476   -0.3648    1.9823 O   0  0  0  0  0  0  0  0  0  0  0  0
   -0.2966   -0.8499    3.2542 C   0  0  0  0  0  0  0  0  0  0  0  0
   -2.1338   -0.3904    1.1347 C   0  0  0  0  0  0  0  0  0  0  0  0
   -2.9926   -0.1467    0.0726 C   0  0  0  0  0  0  0  0  0  0  0  0
   -0.6571    0.9505   -2.2156 H   0  0  0  0  0  0  0  0  0  0  0  0
    0.8512    0.4985   -0.2744 H   0  0  0  0  0  0  0  0  0  0  0  0
    0.6013   -0.9275    3.8663 H   0  0  0  0  0  0  0  0  0  0  0  0
   -0.7629   -1.8358    3.1583 H   0  0  0  0  0  0  0  0  0  0  0  0
   -0.9996   -0.1498    3.7179 H   0  0  0  0  0  0  0  0  0  0  0  0
   -2.5561   -0.7636    2.0591 H   0  0  0  0  0  0  0  0  0  0  0  0
   -4.0716   -0.3234    0.1593 H   0  0  0  0  0  0  0  0  0  0  0  0
   -5.4136    0.1147   -1.6436 O   0  0  0  0  0  0  0  0  0  0  0  0
   -6.2704   -0.2949   -0.8048 C   0  0  0  0  0  0  0  0  0  0  0  0
   -6.0673   -0.6670    0.3621 O   0  0  0  0  0  0  0  0  0  0  0  0
   -7.7279   -0.3223   -1.3405 C   0  0  0  0  0  0  0  0  0  0  0  0
   -8.6129   -0.7424   -0.4205 F   0  0  0  0  0  0  0  0  0  0  0  0
   -8.1166    0.9096   -1.7464 F   0  0  0  0  0  0  0  0  0  0  0  0
   -7.8305   -1.1467   -2.4101 F   0  0  0  0  0  0  0  0  0  0  0  0
  1 10  1  0  0  0  0
  2  1  1  0  0  0  0
  3  2  1  0  0  0  0
  4  1  2  0  0  0  0
  4  5  1  0  0  0  0
  5  6  2  0  0  0  0
  6  9  1  0  0  0  0
  6  7  1  0  0  0  0
  7  8  1  0  0  0  0
  8 15  1  0  0  0  0
  8 13  1  0  0  0  0
  9 16  1  0  0  0  0
 10 17  1  0  0  0  0
 10  9  2  0  0  0  0
 11  4  1  0  0  0  0
 12  5  1  0  0  0  0
 14  8  1  0  0  0  0
 18 19  2  0  0  0  0
 19 20  1  0  0  0  0
 21 19  1  0  0  0  0
 21 22  1  0  0  0  0
 23 21  1  0  0  0  0
 24 21  1  0  0  0  0
M  RAD  3   2   2   3   3  20   2
M  END
