Coordinates from ORCA-job 4-MeOPhN2+~CF3COO-_B3LYPG-6-31G_dp-NX-Scan-d89-09-n800
 OpenBabel11261920413D

 24 23  0  0  0  0  0  0  0  0999 V2000
   -2.6122    0.3362   -1.0402 C   0  0  0  0  0  0  0  0  0  0  0  0
   -3.4306    0.5333   -2.1680 N   0  0  0  0  0  0  0  0  0  0  0  0
   -3.5300    0.7840   -3.2629 N   0  0  0  0  0  0  0  0  0  0  0  0
   -1.3972    1.0476   -1.0141 C   0  0  0  0  0  0  0  0  0  0  0  0
   -0.5493    0.8580    0.0582 C   0  0  0  0  0  0  0  0  0  0  0  0
   -0.8954   -0.0451    1.0867 C   0  0  0  0  0  0  0  0  0  0  0  0
    0.0047   -0.1525    2.0822 O   0  0  0  0  0  0  0  0  0  0  0  0
   -0.2643   -1.0384    3.1694 C   0  0  0  0  0  0  0  0  0  0  0  0
   -2.1059   -0.7583    1.0234 C   0  0  0  0  0  0  0  0  0  0  0  0
   -2.9799   -0.5606   -0.0383 C   0  0  0  0  0  0  0  0  0  0  0  0
   -1.1453    1.7358   -1.8137 H   0  0  0  0  0  0  0  0  0  0  0  0
    0.3904    1.3930    0.1311 H   0  0  0  0  0  0  0  0  0  0  0  0
    0.5898   -0.9475    3.8409 H   0  0  0  0  0  0  0  0  0  0  0  0
   -0.3499   -2.0748    2.8247 H   0  0  0  0  0  0  0  0  0  0  0  0
   -1.1788   -0.7493    3.6993 H   0  0  0  0  0  0  0  0  0  0  0  0
   -2.3781   -1.4650    1.7973 H   0  0  0  0  0  0  0  0  0  0  0  0
   -3.9154   -1.1102   -0.1457 H   0  0  0  0  0  0  0  0  0  0  0  0
   -5.5951   -1.5581   -1.1439 O   0  0  0  0  0  0  0  0  0  0  0  0
   -6.0196   -0.3979   -1.1927 C   0  0  0  0  0  0  0  0  0  0  0  0
   -5.3739    0.6966   -1.2696 O   0  0  0  0  0  0  0  0  0  0  0  0
   -7.5615   -0.1759   -1.1669 C   0  0  0  0  0  0  0  0  0  0  0  0
   -7.9105    0.7072   -0.2078 F   0  0  0  0  0  0  0  0  0  0  0  0
   -7.9847    0.3174   -2.3518 F   0  0  0  0  0  0  0  0  0  0  0  0
   -8.2311   -1.3160   -0.9355 F   0  0  0  0  0  0  0  0  0  0  0  0
  1  4  2  0  0  0  0
  1 10  1  0  0  0  0
  2  1  1  0  0  0  0
  3  2  2  0  0  0  0
  4  5  1  0  0  0  0
  5 12  1  0  0  0  0
  5  6  2  0  0  0  0
  6  7  1  0  0  0  0
  7  8  1  0  0  0  0
  8 15  1  0  0  0  0
  8 13  1  0  0  0  0
  9  6  1  0  0  0  0
  9 16  1  0  0  0  0
 10  9  2  0  0  0  0
 11  4  1  0  0  0  0
 14  8  1  0  0  0  0
 17 10  1  0  0  0  0
 19 21  1  0  0  0  0
 19 18  1  0  0  0  0
 20 19  2  0  0  0  0
 21 24  1  0  0  0  0
 21 22  1  0  0  0  0
 23 21  1  0  0  0  0
M  RAD  2   3   2  18   2
M  END
