Coordinates from ORCA-job 4-MeOPhN2+~CF3COO-_B3LYPG-6-31G_dp-NX-Scan-d89-09-n800
 OpenBabel11261920413D

 24 23  0  0  0  0  0  0  0  0999 V2000
   -2.5666    0.4777   -1.0193 C   0  0  0  0  0  0  0  0  0  0  0  0
   -3.3692    0.7705   -2.1274 N   0  0  0  0  0  0  0  0  0  0  0  0
   -3.5283    1.1722   -3.1663 N   0  0  0  0  0  0  0  0  0  0  0  0
   -1.3017    1.1075   -0.9965 C   0  0  0  0  0  0  0  0  0  0  0  0
   -0.4521    0.8366    0.0530 C   0  0  0  0  0  0  0  0  0  0  0  0
   -0.8434   -0.0665    1.0685 C   0  0  0  0  0  0  0  0  0  0  0  0
    0.0633   -0.2572    2.0427 O   0  0  0  0  0  0  0  0  0  0  0  0
   -0.2463   -1.1475    3.1172 C   0  0  0  0  0  0  0  0  0  0  0  0
   -2.1009   -0.6918    1.0112 C   0  0  0  0  0  0  0  0  0  0  0  0
   -2.9783   -0.4180   -0.0312 C   0  0  0  0  0  0  0  0  0  0  0  0
   -1.0167    1.7945   -1.7861 H   0  0  0  0  0  0  0  0  0  0  0  0
    0.5231    1.3047    0.1209 H   0  0  0  0  0  0  0  0  0  0  0  0
    0.6263   -1.1335    3.7703 H   0  0  0  0  0  0  0  0  0  0  0  0
   -0.4143   -2.1660    2.7511 H   0  0  0  0  0  0  0  0  0  0  0  0
   -1.1263   -0.8049    3.6726 H   0  0  0  0  0  0  0  0  0  0  0  0
   -2.4117   -1.3916    1.7769 H   0  0  0  0  0  0  0  0  0  0  0  0
   -3.9631   -0.8993   -0.0999 H   0  0  0  0  0  0  0  0  0  0  0  0
   -5.7283   -1.4597   -0.4038 O   0  0  0  0  0  0  0  0  0  0  0  0
   -6.1172   -0.4442   -0.9963 C   0  0  0  0  0  0  0  0  0  0  0  0
   -5.4552    0.5369   -1.4546 O   0  0  0  0  0  0  0  0  0  0  0  0
   -7.6464   -0.3033   -1.2643 C   0  0  0  0  0  0  0  0  0  0  0  0
   -8.1116    0.8855   -0.8245 F   0  0  0  0  0  0  0  0  0  0  0  0
   -7.8993   -0.3744   -2.5910 F   0  0  0  0  0  0  0  0  0  0  0  0
   -8.3596   -1.2681   -0.6612 F   0  0  0  0  0  0  0  0  0  0  0  0
  1  4  2  0  0  0  0
  1 10  1  0  0  0  0
  2  1  1  0  0  0  0
  3  2  2  0  0  0  0
  4  5  1  0  0  0  0
  5 12  1  0  0  0  0
  5  6  2  0  0  0  0
  6  7  1  0  0  0  0
  7  8  1  0  0  0  0
  8 15  1  0  0  0  0
  8 13  1  0  0  0  0
  9  6  1  0  0  0  0
  9 16  1  0  0  0  0
 10  9  2  0  0  0  0
 11  4  1  0  0  0  0
 14  8  1  0  0  0  0
 17 10  1  0  0  0  0
 19 18  1  0  0  0  0
 20 19  2  0  0  0  0
 21 19  1  0  0  0  0
 21 22  1  0  0  0  0
 21 24  1  0  0  0  0
 23 21  1  0  0  0  0
M  RAD  2   3   2  18   2
M  END
