Coordinates from ORCA-job 4-MeOPhN2+~CF3COO-_B3LYPG-6-31G_dp-NX-Scan-d89-09-n800
 OpenBabel11261920413D

 24 23  0  0  0  0  0  0  0  0999 V2000
   -2.9544    1.4873   -0.8560 C   0  0  0  0  0  0  0  0  0  0  0  0
   -3.9333    2.0649   -1.5752 N   0  0  0  0  0  0  0  0  0  0  0  0
   -4.7891    2.5017   -2.1518 N   0  0  0  0  0  0  0  0  0  0  0  0
   -2.0096    0.6653   -1.5254 C   0  0  0  0  0  0  0  0  0  0  0  0
   -1.2354   -0.1752   -0.7713 C   0  0  0  0  0  0  0  0  0  0  0  0
   -1.4544   -0.2650    0.6306 C   0  0  0  0  0  0  0  0  0  0  0  0
   -0.8076   -1.2518    1.2473 O   0  0  0  0  0  0  0  0  0  0  0  0
   -1.3011   -1.6854    2.5318 C   0  0  0  0  0  0  0  0  0  0  0  0
   -2.3096    0.6372    1.2890 C   0  0  0  0  0  0  0  0  0  0  0  0
   -3.0946    1.5017    0.5564 C   0  0  0  0  0  0  0  0  0  0  0  0
   -1.9514    0.6739   -2.6079 H   0  0  0  0  0  0  0  0  0  0  0  0
   -0.5293   -0.8575   -1.2295 H   0  0  0  0  0  0  0  0  0  0  0  0
   -0.8120   -2.6402    2.7192 H   0  0  0  0  0  0  0  0  0  0  0  0
   -2.3864   -1.8094    2.4781 H   0  0  0  0  0  0  0  0  0  0  0  0
   -1.0220   -0.9733    3.3156 H   0  0  0  0  0  0  0  0  0  0  0  0
   -2.4442    0.5900    2.3606 H   0  0  0  0  0  0  0  0  0  0  0  0
   -3.8092    2.1574    1.0287 H   0  0  0  0  0  0  0  0  0  0  0  0
   -4.3443   -1.4203    0.7263 O   0  0  0  0  0  0  0  0  0  0  0  0
   -5.0703   -0.6449    0.0854 C   0  0  0  0  0  0  0  0  0  0  0  0
   -5.4031    0.5506    0.3125 O   0  0  0  0  0  0  0  0  0  0  0  0
   -5.5840   -1.1613   -1.2973 C   0  0  0  0  0  0  0  0  0  0  0  0
   -6.8878   -0.8934   -1.5081 F   0  0  0  0  0  0  0  0  0  0  0  0
   -4.8907   -0.5159   -2.3022 F   0  0  0  0  0  0  0  0  0  0  0  0
   -5.4000   -2.4766   -1.4949 F   0  0  0  0  0  0  0  0  0  0  0  0
  1 10  1  0  0  0  0
  2  1  1  0  0  0  0
  3  2  1  0  0  0  0
  4  1  2  0  0  0  0
  4  5  1  0  0  0  0
  5  6  2  0  0  0  0
  6  7  1  0  0  0  0
  6  9  1  0  0  0  0
  7  8  1  0  0  0  0
  8 13  1  0  0  0  0
  8 15  1  0  0  0  0
  9 16  1  0  0  0  0
 10 17  1  0  0  0  0
 10  9  2  0  0  0  0
 11  4  1  0  0  0  0
 12  5  1  0  0  0  0
 14  8  1  0  0  0  0
 19 20  2  0  0  0  0
 19 18  1  0  0  0  0
 21 19  1  0  0  0  0
 22 21  1  0  0  0  0
 23 21  1  0  0  0  0
 24 21  1  0  0  0  0
M  RAD  3   2   2   3   3  18   2
M  END
