Coordinates from ORCA-job 4-MeOPhN2+~CF3COO-_B3LYPG-6-31G_dp-NX-Scan-d89-09-n800
 OpenBabel11261920413D

 24 23  0  0  0  0  0  0  0  0999 V2000
   -2.5649    0.5066   -1.0100 C   0  0  0  0  0  0  0  0  0  0  0  0
   -3.3690    0.8254   -2.1090 N   0  0  0  0  0  0  0  0  0  0  0  0
   -3.5335    1.2600   -3.1336 N   0  0  0  0  0  0  0  0  0  0  0  0
   -1.2854    1.1082   -0.9984 C   0  0  0  0  0  0  0  0  0  0  0  0
   -0.4316    0.8189    0.0423 C   0  0  0  0  0  0  0  0  0  0  0  0
   -0.8337   -0.0739    1.0630 C   0  0  0  0  0  0  0  0  0  0  0  0
    0.0776   -0.2845    2.0284 O   0  0  0  0  0  0  0  0  0  0  0  0
   -0.2425   -1.1655    3.1077 C   0  0  0  0  0  0  0  0  0  0  0  0
   -2.1058   -0.6695    1.0184 C   0  0  0  0  0  0  0  0  0  0  0  0
   -2.9869   -0.3787   -0.0165 C   0  0  0  0  0  0  0  0  0  0  0  0
   -0.9926    1.7881   -1.7913 H   0  0  0  0  0  0  0  0  0  0  0  0
    0.5546    1.2647    0.0998 H   0  0  0  0  0  0  0  0  0  0  0  0
    0.6371   -1.1719    3.7516 H   0  0  0  0  0  0  0  0  0  0  0  0
   -0.4393   -2.1800    2.7451 H   0  0  0  0  0  0  0  0  0  0  0  0
   -1.1079   -0.8005    3.6715 H   0  0  0  0  0  0  0  0  0  0  0  0
   -2.4262   -1.3602    1.7884 H   0  0  0  0  0  0  0  0  0  0  0  0
   -3.9826   -0.8400   -0.0664 H   0  0  0  0  0  0  0  0  0  0  0  0
   -5.7516   -1.4151   -0.2991 O   0  0  0  0  0  0  0  0  0  0  0  0
   -6.1313   -0.4485   -0.9739 C   0  0  0  0  0  0  0  0  0  0  0  0
   -5.4645    0.5018   -1.4869 O   0  0  0  0  0  0  0  0  0  0  0  0
   -7.6546   -0.3376   -1.2861 C   0  0  0  0  0  0  0  0  0  0  0  0
   -8.1395    0.8682   -0.9199 F   0  0  0  0  0  0  0  0  0  0  0  0
   -7.8756   -0.4800   -2.6128 F   0  0  0  0  0  0  0  0  0  0  0  0
   -8.3741   -1.2762   -0.6503 F   0  0  0  0  0  0  0  0  0  0  0  0
  1  4  2  0  0  0  0
  1 10  1  0  0  0  0
  2  1  1  0  0  0  0
  3  2  2  0  0  0  0
  4  5  1  0  0  0  0
  5 12  1  0  0  0  0
  5  6  2  0  0  0  0
  6  7  1  0  0  0  0
  7  8  1  0  0  0  0
  8 15  1  0  0  0  0
  8 13  1  0  0  0  0
  9  6  1  0  0  0  0
  9 16  1  0  0  0  0
 10  9  2  0  0  0  0
 11  4  1  0  0  0  0
 14  8  1  0  0  0  0
 17 10  1  0  0  0  0
 19 18  1  0  0  0  0
 20 19  2  0  0  0  0
 21 19  1  0  0  0  0
 21 22  1  0  0  0  0
 21 24  1  0  0  0  0
 23 21  1  0  0  0  0
M  RAD  2   3   2  18   2
M  END
