Coordinates from ORCA-job 4-MeOPhN2+~CF3COO-_B3LYPG-6-31G_dp-NX-Scan-d89-09-n800
 OpenBabel11261920413D

 24 23  0  0  0  0  0  0  0  0999 V2000
   -2.1647    1.9020   -1.3787 C   0  0  0  0  0  0  0  0  0  0  0  0
   -2.6017    2.7958   -2.2810 N   0  0  0  0  0  0  0  0  0  0  0  0
   -2.9974    3.5437   -3.0262 N   0  0  0  0  0  0  0  0  0  0  0  0
   -0.8008    1.4886   -1.4130 C   0  0  0  0  0  0  0  0  0  0  0  0
   -0.3936    0.5362   -0.5195 C   0  0  0  0  0  0  0  0  0  0  0  0
   -1.3228   -0.0339    0.4041 C   0  0  0  0  0  0  0  0  0  0  0  0
   -0.8439   -0.9874    1.1728 O   0  0  0  0  0  0  0  0  0  0  0  0
   -1.7490   -1.7036    2.0664 C   0  0  0  0  0  0  0  0  0  0  0  0
   -2.6639    0.4232    0.4571 C   0  0  0  0  0  0  0  0  0  0  0  0
   -3.0898    1.3717   -0.4358 C   0  0  0  0  0  0  0  0  0  0  0  0
   -0.1178    1.9173   -2.1379 H   0  0  0  0  0  0  0  0  0  0  0  0
    0.6283    0.1744   -0.5122 H   0  0  0  0  0  0  0  0  0  0  0  0
   -1.1524   -2.5257    2.4577 H   0  0  0  0  0  0  0  0  0  0  0  0
   -2.6263   -2.0510    1.5008 H   0  0  0  0  0  0  0  0  0  0  0  0
   -2.0541   -1.0374    2.8782 H   0  0  0  0  0  0  0  0  0  0  0  0
   -3.4408    0.0148    1.1199 H   0  0  0  0  0  0  0  0  0  0  0  0
   -4.1299    1.6809   -0.4251 H   0  0  0  0  0  0  0  0  0  0  0  0
   -4.3458   -2.2165    0.4219 O   0  0  0  0  0  0  0  0  0  0  0  0
   -5.2787   -1.4211    0.6671 C   0  0  0  0  0  0  0  0  0  0  0  0
   -5.2648   -0.3233    1.2796 O   0  0  0  0  0  0  0  0  0  0  0  0
   -6.6684   -1.7973    0.0709 C   0  0  0  0  0  0  0  0  0  0  0  0
   -7.6766   -1.5601    0.9368 F   0  0  0  0  0  0  0  0  0  0  0  0
   -6.9119   -1.0436   -1.0380 F   0  0  0  0  0  0  0  0  0  0  0  0
   -6.7568   -3.0878   -0.3041 F   0  0  0  0  0  0  0  0  0  0  0  0
  1 10  1  0  0  0  0
  2  1  1  0  0  0  0
  3  2  1  0  0  0  0
  4  1  2  0  0  0  0
  4  5  1  0  0  0  0
  5 12  1  0  0  0  0
  5  6  2  0  0  0  0
  6  9  1  0  0  0  0
  6  7  1  0  0  0  0
  7  8  1  0  0  0  0
  8 13  1  0  0  0  0
  8 15  1  0  0  0  0
  9 16  1  0  0  0  0
 10 17  1  0  0  0  0
 10  9  2  0  0  0  0
 11  4  1  0  0  0  0
 14  8  1  0  0  0  0
 18 19  2  0  0  0  0
 19 20  1  0  0  0  0
 21 19  1  0  0  0  0
 21 22  1  0  0  0  0
 23 21  1  0  0  0  0
 24 21  1  0  0  0  0
M  RAD  3   2   2   3   3  20   2
M  END
