Coordinates from ORCA-job 4-MeOPhN2+~CF3COO-_B3LYPG-6-31G_dp-NX-Scan-d89-09-n800
 OpenBabel11261920413D

 24 24  0  0  0  0  0  0  0  0999 V2000
   -1.8987   -1.0145    0.5114 C   0  0  0  0  0  0  0  0  0  0  0  0
   -2.0971   -2.2508    1.1296 N   0  0  0  0  0  0  0  0  0  0  0  0
   -2.9366   -3.0023    1.4527 N   0  0  0  0  0  0  0  0  0  0  0  0
   -0.5580   -0.5939    0.4106 C   0  0  0  0  0  0  0  0  0  0  0  0
   -0.2567    0.6177   -0.1781 C   0  0  0  0  0  0  0  0  0  0  0  0
   -1.2930    1.4319   -0.6764 C   0  0  0  0  0  0  0  0  0  0  0  0
   -0.9000    2.5953   -1.2335 O   0  0  0  0  0  0  0  0  0  0  0  0
   -1.8864    3.4794   -1.7642 C   0  0  0  0  0  0  0  0  0  0  0  0
   -2.6313    1.0105   -0.5733 C   0  0  0  0  0  0  0  0  0  0  0  0
   -2.9411   -0.2085    0.0161 C   0  0  0  0  0  0  0  0  0  0  0  0
    0.2250   -1.2341    0.8018 H   0  0  0  0  0  0  0  0  0  0  0  0
    0.7661    0.9657   -0.2685 H   0  0  0  0  0  0  0  0  0  0  0  0
   -1.3366    4.3388   -2.1475 H   0  0  0  0  0  0  0  0  0  0  0  0
   -2.5840    3.8097   -0.9866 H   0  0  0  0  0  0  0  0  0  0  0  0
   -2.4430    3.0087   -2.5824 H   0  0  0  0  0  0  0  0  0  0  0  0
   -3.4376    1.6259   -0.9520 H   0  0  0  0  0  0  0  0  0  0  0  0
   -3.9657   -0.5437    0.1025 H   0  0  0  0  0  0  0  0  0  0  0  0
   -4.5374   -2.4093    0.9108 O   0  0  0  0  0  0  0  0  0  0  0  0
   -5.5100   -2.8581    1.6638 C   0  0  0  0  0  0  0  0  0  0  0  0
   -5.4693   -3.5198    2.6769 O   0  0  0  0  0  0  0  0  0  0  0  0
   -6.8713   -2.4056    1.0590 C   0  0  0  0  0  0  0  0  0  0  0  0
   -7.8791   -2.6240    1.9097 F   0  0  0  0  0  0  0  0  0  0  0  0
   -6.8531   -1.0840    0.7626 F   0  0  0  0  0  0  0  0  0  0  0  0
   -7.1287   -3.0750   -0.0831 F   0  0  0  0  0  0  0  0  0  0  0  0
  1  2  1  0  0  0  0
  2  3  1  0  0  0  0
  4  1  1  0  0  0  0
  4 11  1  0  0  0  0
  5  4  2  0  0  0  0
  6  9  2  0  0  0  0
  6  5  1  0  0  0  0
  7  6  1  0  0  0  0
  8  7  1  0  0  0  0
  8 14  1  0  0  0  0
  9 10  1  0  0  0  0
 10 17  1  0  0  0  0
 10  1  2  0  0  0  0
 12  5  1  0  0  0  0
 13  8  1  0  0  0  0
 15  8  1  0  0  0  0
 16  9  1  0  0  0  0
 18  3  1  0  0  0  0
 18 19  1  0  0  0  0
 19 20  2  0  0  0  0
 21 19  1  0  0  0  0
 21 22  1  0  0  0  0
 23 21  1  0  0  0  0
 24 21  1  0  0  0  0
M  RAD  2   2   2   3   2
M  END
