Coordinates from ORCA-job 4-MeOPhN2+~CF3COO-_B3LYPG-6-31G_dp-NX-Scan-d89-09-n800
 OpenBabel11261920413D

 24 23  0  0  0  0  0  0  0  0999 V2000
   -2.7453    1.5572   -1.1728 C   0  0  0  0  0  0  0  0  0  0  0  0
   -3.4786    2.2581   -2.0536 N   0  0  0  0  0  0  0  0  0  0  0  0
   -4.1179    2.8356   -2.7778 N   0  0  0  0  0  0  0  0  0  0  0  0
   -1.5107    0.9856   -1.5946 C   0  0  0  0  0  0  0  0  0  0  0  0
   -0.8661    0.1414   -0.7324 C   0  0  0  0  0  0  0  0  0  0  0  0
   -1.4514   -0.1826    0.5282 C   0  0  0  0  0  0  0  0  0  0  0  0
   -0.8249   -1.1132    1.2237 O   0  0  0  0  0  0  0  0  0  0  0  0
   -1.4889   -1.6902    2.3804 C   0  0  0  0  0  0  0  0  0  0  0  0
   -2.6292    0.4665    0.9601 C   0  0  0  0  0  0  0  0  0  0  0  0
   -3.2917    1.3217    0.1154 C   0  0  0  0  0  0  0  0  0  0  0  0
   -1.1186    1.1986   -2.5824 H   0  0  0  0  0  0  0  0  0  0  0  0
    0.0602   -0.3472   -1.0105 H   0  0  0  0  0  0  0  0  0  0  0  0
   -0.8772   -2.5495    2.6503 H   0  0  0  0  0  0  0  0  0  0  0  0
   -2.5051   -1.9845    2.0903 H   0  0  0  0  0  0  0  0  0  0  0  0
   -1.4956   -0.9674    3.2026 H   0  0  0  0  0  0  0  0  0  0  0  0
   -3.1309    0.1993    1.8799 H   0  0  0  0  0  0  0  0  0  0  0  0
   -4.2651    1.7037    0.3960 H   0  0  0  0  0  0  0  0  0  0  0  0
   -4.1237   -1.9793    0.6773 O   0  0  0  0  0  0  0  0  0  0  0  0
   -5.0480   -1.1383    0.6163 C   0  0  0  0  0  0  0  0  0  0  0  0
   -5.3644   -0.2086    1.3927 O   0  0  0  0  0  0  0  0  0  0  0  0
   -5.8584   -1.1433   -0.7184 C   0  0  0  0  0  0  0  0  0  0  0  0
   -7.1662   -0.8739   -0.5510 F   0  0  0  0  0  0  0  0  0  0  0  0
   -5.3615   -0.1449   -1.5369 F   0  0  0  0  0  0  0  0  0  0  0  0
   -5.7644   -2.2850   -1.4210 F   0  0  0  0  0  0  0  0  0  0  0  0
  1 10  1  0  0  0  0
  2  1  1  0  0  0  0
  3  2  1  0  0  0  0
  4  1  2  0  0  0  0
  4  5  1  0  0  0  0
  5  6  2  0  0  0  0
  6  9  1  0  0  0  0
  6  7  1  0  0  0  0
  7  8  1  0  0  0  0
  8 13  1  0  0  0  0
  8 15  1  0  0  0  0
  9 16  1  0  0  0  0
 10 17  1  0  0  0  0
 10  9  2  0  0  0  0
 11  4  1  0  0  0  0
 12  5  1  0  0  0  0
 14  8  1  0  0  0  0
 19 18  2  0  0  0  0
 19 20  1  0  0  0  0
 21 22  1  0  0  0  0
 21 19  1  0  0  0  0
 23 21  1  0  0  0  0
 24 21  1  0  0  0  0
M  RAD  3   2   2   3   3  20   2
M  END
