Coordinates from ORCA-job 4-MeOPhN2+~CF3COO-_B3LYPG-6-31G_dp-NX-Scan-d89-09-n800
 OpenBabel11261920413D

 24 23  0  0  0  0  0  0  0  0999 V2000
   -2.0800    1.9666   -1.4022 C   0  0  0  0  0  0  0  0  0  0  0  0
   -2.4696    2.8963   -2.2897 N   0  0  0  0  0  0  0  0  0  0  0  0
   -2.8224    3.6762   -3.0239 N   0  0  0  0  0  0  0  0  0  0  0  0
   -0.7134    1.5607   -1.3760 C   0  0  0  0  0  0  0  0  0  0  0  0
   -0.3480    0.5849   -0.4900 C   0  0  0  0  0  0  0  0  0  0  0  0
   -1.3195   -0.0130    0.3709 C   0  0  0  0  0  0  0  0  0  0  0  0
   -0.8702   -0.9739    1.1469 O   0  0  0  0  0  0  0  0  0  0  0  0
   -1.8047   -1.6973    2.0050 C   0  0  0  0  0  0  0  0  0  0  0  0
   -2.6683    0.4276    0.3587 C   0  0  0  0  0  0  0  0  0  0  0  0
   -3.0511    1.3991   -0.5289 C   0  0  0  0  0  0  0  0  0  0  0  0
    0.0047    2.0154   -2.0492 H   0  0  0  0  0  0  0  0  0  0  0  0
    0.6751    0.2304   -0.4367 H   0  0  0  0  0  0  0  0  0  0  0  0
   -1.2228   -2.5264    2.4033 H   0  0  0  0  0  0  0  0  0  0  0  0
   -2.6721   -2.0365    1.4174 H   0  0  0  0  0  0  0  0  0  0  0  0
   -2.1284   -1.0374    2.8147 H   0  0  0  0  0  0  0  0  0  0  0  0
   -3.4776    0.0001    0.9758 H   0  0  0  0  0  0  0  0  0  0  0  0
   -4.0910    1.7075   -0.5645 H   0  0  0  0  0  0  0  0  0  0  0  0
   -4.4164   -2.3389    0.4727 O   0  0  0  0  0  0  0  0  0  0  0  0
   -5.3206   -1.5024    0.6814 C   0  0  0  0  0  0  0  0  0  0  0  0
   -5.2578   -0.3523    1.1878 O   0  0  0  0  0  0  0  0  0  0  0  0
   -6.7474   -1.9006    0.1982 C   0  0  0  0  0  0  0  0  0  0  0  0
   -7.6926   -1.6153    1.1201 F   0  0  0  0  0  0  0  0  0  0  0  0
   -7.0663   -1.2030   -0.9268 F   0  0  0  0  0  0  0  0  0  0  0  0
   -6.8633   -3.2079   -0.1031 F   0  0  0  0  0  0  0  0  0  0  0  0
  1  4  2  0  0  0  0
  1 10  1  0  0  0  0
  2  1  1  0  0  0  0
  3  2  1  0  0  0  0
  4  5  1  0  0  0  0
  5 12  1  0  0  0  0
  5  6  2  0  0  0  0
  6  7  1  0  0  0  0
  7  8  1  0  0  0  0
  8 13  1  0  0  0  0
  8 15  1  0  0  0  0
  9  6  1  0  0  0  0
  9 16  1  0  0  0  0
 10  9  2  0  0  0  0
 11  4  1  0  0  0  0
 14  8  1  0  0  0  0
 17 10  1  0  0  0  0
 18 19  2  0  0  0  0
 19 20  1  0  0  0  0
 21 19  1  0  0  0  0
 21 22  1  0  0  0  0
 23 21  1  0  0  0  0
 24 21  1  0  0  0  0
M  RAD  3   2   2   3   3  20   2
M  END
