Coordinates from ORCA-job 4-MeOPhN2+~CF3COO-_B3LYPG-6-31G_dp-NX-Scan-d89-09-n800
 OpenBabel11261920413D

 24 23  0  0  0  0  0  0  0  0999 V2000
   -2.0076    2.0218   -1.4207 C   0  0  0  0  0  0  0  0  0  0  0  0
   -2.3564    2.9788   -2.2960 N   0  0  0  0  0  0  0  0  0  0  0  0
   -2.6733    3.7821   -3.0216 N   0  0  0  0  0  0  0  0  0  0  0  0
   -0.6423    1.6184   -1.3411 C   0  0  0  0  0  0  0  0  0  0  0  0
   -0.3149    0.6233   -0.4621 C   0  0  0  0  0  0  0  0  0  0  0  0
   -1.3217    0.0055    0.3426 C   0  0  0  0  0  0  0  0  0  0  0  0
   -0.9006   -0.9631    1.1238 O   0  0  0  0  0  0  0  0  0  0  0  0
   -1.8602   -1.6898    1.9514 C   0  0  0  0  0  0  0  0  0  0  0  0
   -2.6729    0.4367    0.2736 C   0  0  0  0  0  0  0  0  0  0  0  0
   -3.0164    1.4278   -0.6088 C   0  0  0  0  0  0  0  0  0  0  0  0
    0.1048    2.0917   -1.9683 H   0  0  0  0  0  0  0  0  0  0  0  0
    0.7064    0.2719   -0.3679 H   0  0  0  0  0  0  0  0  0  0  0  0
   -1.2929   -2.5265    2.3549 H   0  0  0  0  0  0  0  0  0  0  0  0
   -2.7202   -2.0207    1.3470 H   0  0  0  0  0  0  0  0  0  0  0  0
   -2.1971   -1.0343    2.7593 H   0  0  0  0  0  0  0  0  0  0  0  0
   -3.5083   -0.0082    0.8486 H   0  0  0  0  0  0  0  0  0  0  0  0
   -4.0535    1.7380   -0.6867 H   0  0  0  0  0  0  0  0  0  0  0  0
   -4.4662   -2.4393    0.4952 O   0  0  0  0  0  0  0  0  0  0  0  0
   -5.3488   -1.5764    0.6835 C   0  0  0  0  0  0  0  0  0  0  0  0
   -5.2492   -0.3932    1.1020 O   0  0  0  0  0  0  0  0  0  0  0  0
   -6.8051   -1.9865    0.3110 C   0  0  0  0  0  0  0  0  0  0  0  0
   -7.6825   -1.6660    1.2879 F   0  0  0  0  0  0  0  0  0  0  0  0
   -7.2022   -1.3288   -0.8115 F   0  0  0  0  0  0  0  0  0  0  0  0
   -6.9423   -3.3034    0.0659 F   0  0  0  0  0  0  0  0  0  0  0  0
  1  4  2  0  0  0  0
  1 10  1  0  0  0  0
  2  1  1  0  0  0  0
  3  2  1  0  0  0  0
  4  5  1  0  0  0  0
  5 12  1  0  0  0  0
  5  6  2  0  0  0  0
  6  7  1  0  0  0  0
  7  8  1  0  0  0  0
  8 13  1  0  0  0  0
  8 15  1  0  0  0  0
  9  6  1  0  0  0  0
  9 16  1  0  0  0  0
 10  9  2  0  0  0  0
 11  4  1  0  0  0  0
 14  8  1  0  0  0  0
 17 10  1  0  0  0  0
 18 19  2  0  0  0  0
 19 20  1  0  0  0  0
 21 19  1  0  0  0  0
 21 22  1  0  0  0  0
 23 21  1  0  0  0  0
 24 21  1  0  0  0  0
M  RAD  3   2   2   3   3  20   2
M  END
