Coordinates from ORCA-job 4-MeOPhN2+~CF3COO-_B3LYPG-6-31G_dp-NX-Scan-d89-09-n800
 OpenBabel11261920413D

 24 24  0  0  0  0  0  0  0  0999 V2000
   -2.0652   -0.9711    0.7327 C   0  0  0  0  0  0  0  0  0  0  0  0
   -2.1589   -2.1638    1.5034 N   0  0  0  0  0  0  0  0  0  0  0  0
   -3.2799   -2.7455    1.7292 N   0  0  0  0  0  0  0  0  0  0  0  0
   -0.7274   -0.6756    0.3834 C   0  0  0  0  0  0  0  0  0  0  0  0
   -0.3923    0.4505   -0.3441 C   0  0  0  0  0  0  0  0  0  0  0  0
   -1.3950    1.3519   -0.7395 C   0  0  0  0  0  0  0  0  0  0  0  0
   -0.9739    2.4333   -1.4492 O   0  0  0  0  0  0  0  0  0  0  0  0
   -1.9405    3.3832   -1.8736 C   0  0  0  0  0  0  0  0  0  0  0  0
   -2.7258    1.0956   -0.3875 C   0  0  0  0  0  0  0  0  0  0  0  0
   -3.0593   -0.0530    0.3336 C   0  0  0  0  0  0  0  0  0  0  0  0
    0.0374   -1.3733    0.7081 H   0  0  0  0  0  0  0  0  0  0  0  0
    0.6360    0.6644   -0.6158 H   0  0  0  0  0  0  0  0  0  0  0  0
   -1.3896    4.1478   -2.4232 H   0  0  0  0  0  0  0  0  0  0  0  0
   -2.4510    3.8482   -1.0212 H   0  0  0  0  0  0  0  0  0  0  0  0
   -2.6884    2.9293   -2.5365 H   0  0  0  0  0  0  0  0  0  0  0  0
   -3.5166    1.7803   -0.6705 H   0  0  0  0  0  0  0  0  0  0  0  0
   -4.0991   -0.1989    0.5861 H   0  0  0  0  0  0  0  0  0  0  0  0
   -4.1782   -2.3491    1.3293 O   0  0  0  0  0  0  0  0  0  0  0  0
   -5.4238   -3.0327    1.6182 C   0  0  0  0  0  0  0  0  0  0  0  0
   -5.5112   -3.9924    2.3072 O   0  0  0  0  0  0  0  0  0  0  0  0
   -6.5356   -2.2874    0.8669 C   0  0  0  0  0  0  0  0  0  0  0  0
   -7.7178   -2.8096    1.1818 F   0  0  0  0  0  0  0  0  0  0  0  0
   -6.5266   -0.9833    1.1993 F   0  0  0  0  0  0  0  0  0  0  0  0
   -6.3409   -2.3887   -0.4561 F   0  0  0  0  0  0  0  0  0  0  0  0
  1  2  1  0  0  0  0
  2  3  2  0  0  0  0
  4 11  1  0  0  0  0
  4  1  1  0  0  0  0
  5  4  2  0  0  0  0
  6  9  2  0  0  0  0
  6  5  1  0  0  0  0
  7  6  1  0  0  0  0
  8  7  1  0  0  0  0
  8 14  1  0  0  0  0
  9 10  1  0  0  0  0
 10 17  1  0  0  0  0
 10  1  2  0  0  0  0
 12  5  1  0  0  0  0
 13  8  1  0  0  0  0
 15  8  1  0  0  0  0
 16  9  1  0  0  0  0
 18 19  1  0  0  0  0
 18  3  1  0  0  0  0
 19 20  2  0  0  0  0
 21 22  1  0  0  0  0
 21 23  1  0  0  0  0
 21 19  1  0  0  0  0
 24 21  1  0  0  0  0
M  END
