Coordinates from ORCA-job 4-MeOPhN2+~CF3COO-_B3LYPG-6-31G_dp-NX-Scan-d89-09-n800
 OpenBabel11261920413D

 24 23  0  0  0  0  0  0  0  0999 V2000
   -1.8705   -1.1230    0.4277 C   0  0  0  0  0  0  0  0  0  0  0  0
   -2.0682   -2.3954    0.9620 N   0  0  0  0  0  0  0  0  0  0  0  0
   -2.8426   -3.2200    1.2095 N   0  0  0  0  0  0  0  0  0  0  0  0
   -0.5620   -0.6089    0.4834 C   0  0  0  0  0  0  0  0  0  0  0  0
   -0.3033    0.6480   -0.0242 C   0  0  0  0  0  0  0  0  0  0  0  0
   -1.3470    1.4045   -0.5958 C   0  0  0  0  0  0  0  0  0  0  0  0
   -0.9929    2.6170   -1.0631 O   0  0  0  0  0  0  0  0  0  0  0  0
   -1.9887    3.4555   -1.6507 C   0  0  0  0  0  0  0  0  0  0  0  0
   -2.6522    0.8805   -0.6503 C   0  0  0  0  0  0  0  0  0  0  0  0
   -2.9220   -0.3827   -0.1420 C   0  0  0  0  0  0  0  0  0  0  0  0
    0.2265   -1.2058    0.9281 H   0  0  0  0  0  0  0  0  0  0  0  0
    0.6919    1.0770    0.0054 H   0  0  0  0  0  0  0  0  0  0  0  0
   -1.4692    4.3671   -1.9445 H   0  0  0  0  0  0  0  0  0  0  0  0
   -2.7764    3.6996   -0.9298 H   0  0  0  0  0  0  0  0  0  0  0  0
   -2.4306    2.9862   -2.5365 H   0  0  0  0  0  0  0  0  0  0  0  0
   -3.4623    1.4507   -1.0869 H   0  0  0  0  0  0  0  0  0  0  0  0
   -3.9184   -0.8066   -0.1723 H   0  0  0  0  0  0  0  0  0  0  0  0
   -4.5849   -2.7055    0.5541 O   0  0  0  0  0  0  0  0  0  0  0  0
   -5.3896   -2.6391    1.5690 C   0  0  0  0  0  0  0  0  0  0  0  0
   -5.1628   -2.7928    2.7554 O   0  0  0  0  0  0  0  0  0  0  0  0
   -6.8209   -2.2598    1.0873 C   0  0  0  0  0  0  0  0  0  0  0  0
   -7.6735   -2.1314    2.1105 F   0  0  0  0  0  0  0  0  0  0  0  0
   -6.7865   -1.0736    0.4263 F   0  0  0  0  0  0  0  0  0  0  0  0
   -7.3173   -3.1816    0.2394 F   0  0  0  0  0  0  0  0  0  0  0  0
  1  4  1  0  0  0  0
  1  2  1  0  0  0  0
  2  3  2  0  0  0  0
  4 11  1  0  0  0  0
  5 12  1  0  0  0  0
  5  4  2  0  0  0  0
  6  5  1  0  0  0  0
  7  6  1  0  0  0  0
  8  7  1  0  0  0  0
  8 14  1  0  0  0  0
  9  6  2  0  0  0  0
  9 10  1  0  0  0  0
 10  1  2  0  0  0  0
 13  8  1  0  0  0  0
 15  8  1  0  0  0  0
 16  9  1  0  0  0  0
 17 10  1  0  0  0  0
 18 19  2  0  0  0  0
 19 20  1  0  0  0  0
 21 19  1  0  0  0  0
 21 22  1  0  0  0  0
 23 21  1  0  0  0  0
 24 21  1  0  0  0  0
M  RAD  2   3   2  20   2
M  END
