Coordinates from ORCA-job 4-MeOPhN2+~CF3COO-_B3LYPG-6-31G_dp-NX-Scan-d89-09-n800
 OpenBabel11261920413D

 24 23  0  0  0  0  0  0  0  0999 V2000
   -1.9557    2.0702   -1.4305 C   0  0  0  0  0  0  0  0  0  0  0  0
   -2.2661    3.0623   -2.2807 N   0  0  0  0  0  0  0  0  0  0  0  0
   -2.5439    3.8981   -2.9856 N   0  0  0  0  0  0  0  0  0  0  0  0
   -0.5968    1.6504   -1.3252 C   0  0  0  0  0  0  0  0  0  0  0  0
   -0.3026    0.6321   -0.4617 C   0  0  0  0  0  0  0  0  0  0  0  0
   -1.3348    0.0100    0.3069 C   0  0  0  0  0  0  0  0  0  0  0  0
   -0.9369   -0.9652    1.0912 O   0  0  0  0  0  0  0  0  0  0  0  0
   -1.9072   -1.6770    1.9179 C   0  0  0  0  0  0  0  0  0  0  0  0
   -2.6830    0.4466    0.2038 C   0  0  0  0  0  0  0  0  0  0  0  0
   -2.9921    1.4619   -0.6641 C   0  0  0  0  0  0  0  0  0  0  0  0
    0.1713    2.1322   -1.9195 H   0  0  0  0  0  0  0  0  0  0  0  0
    0.7129    0.2703   -0.3465 H   0  0  0  0  0  0  0  0  0  0  0  0
   -1.3338   -2.4829    2.3726 H   0  0  0  0  0  0  0  0  0  0  0  0
   -2.7447   -2.0558    1.3091 H   0  0  0  0  0  0  0  0  0  0  0  0
   -2.2831   -0.9974    2.6877 H   0  0  0  0  0  0  0  0  0  0  0  0
   -3.5347   -0.0114    0.7493 H   0  0  0  0  0  0  0  0  0  0  0  0
   -4.0229    1.7858   -0.7661 H   0  0  0  0  0  0  0  0  0  0  0  0
   -4.4968   -2.5251    0.5085 O   0  0  0  0  0  0  0  0  0  0  0  0
   -5.3623   -1.6443    0.6894 C   0  0  0  0  0  0  0  0  0  0  0  0
   -5.2363   -0.4447    1.0516 O   0  0  0  0  0  0  0  0  0  0  0  0
   -6.8362   -2.0538    0.3926 C   0  0  0  0  0  0  0  0  0  0  0  0
   -7.6711   -1.6761    1.3867 F   0  0  0  0  0  0  0  0  0  0  0  0
   -7.2711   -1.4469   -0.7436 F   0  0  0  0  0  0  0  0  0  0  0  0
   -6.9957   -3.3794    0.2180 F   0  0  0  0  0  0  0  0  0  0  0  0
  1  4  2  0  0  0  0
  1 10  1  0  0  0  0
  2  1  1  0  0  0  0
  3  2  1  0  0  0  0
  4  5  1  0  0  0  0
  5 12  1  0  0  0  0
  5  6  2  0  0  0  0
  6  7  1  0  0  0  0
  7  8  1  0  0  0  0
  8 13  1  0  0  0  0
  8 15  1  0  0  0  0
  9  6  1  0  0  0  0
  9 16  1  0  0  0  0
 10  9  2  0  0  0  0
 11  4  1  0  0  0  0
 14  8  1  0  0  0  0
 17 10  1  0  0  0  0
 18 19  2  0  0  0  0
 19 20  1  0  0  0  0
 21 19  1  0  0  0  0
 21 22  1  0  0  0  0
 23 21  1  0  0  0  0
 24 21  1  0  0  0  0
M  RAD  3   2   2   3   3  20   2
M  END
