Coordinates from ORCA-job 4-MeOPhN2+~CF3COO-_B3LYPG-6-31G_dp-NX-Scan-d89-09-n800
 OpenBabel11261920413D

 24 24  0  0  0  0  0  0  0  0999 V2000
   -1.9017   -1.0119    0.5148 C   0  0  0  0  0  0  0  0  0  0  0  0
   -2.0996   -2.2469    1.1358 N   0  0  0  0  0  0  0  0  0  0  0  0
   -2.9423   -2.9949    1.4614 N   0  0  0  0  0  0  0  0  0  0  0  0
   -0.5604   -0.5946    0.4091 C   0  0  0  0  0  0  0  0  0  0  0  0
   -0.2576    0.6154   -0.1823 C   0  0  0  0  0  0  0  0  0  0  0  0
   -1.2930    1.4317   -0.6785 C   0  0  0  0  0  0  0  0  0  0  0  0
   -0.8985    2.5933   -1.2386 O   0  0  0  0  0  0  0  0  0  0  0  0
   -1.8841    3.4792   -1.7675 C   0  0  0  0  0  0  0  0  0  0  0  0
   -2.6322    1.0141   -0.5708 C   0  0  0  0  0  0  0  0  0  0  0  0
   -2.9433   -0.2033    0.0213 C   0  0  0  0  0  0  0  0  0  0  0  0
    0.2221   -1.2363    0.7988 H   0  0  0  0  0  0  0  0  0  0  0  0
    0.7659    0.9605   -0.2764 H   0  0  0  0  0  0  0  0  0  0  0  0
   -1.3333    4.3366   -2.1537 H   0  0  0  0  0  0  0  0  0  0  0  0
   -2.5786    3.8124   -0.9883 H   0  0  0  0  0  0  0  0  0  0  0  0
   -2.4445    3.0088   -2.5834 H   0  0  0  0  0  0  0  0  0  0  0  0
   -3.4379    1.6312   -0.9479 H   0  0  0  0  0  0  0  0  0  0  0  0
   -3.9686   -0.5351    0.1110 H   0  0  0  0  0  0  0  0  0  0  0  0
   -4.5335   -2.4005    0.9255 O   0  0  0  0  0  0  0  0  0  0  0  0
   -5.5103   -2.8640    1.6654 C   0  0  0  0  0  0  0  0  0  0  0  0
   -5.4740   -3.5417    2.6676 O   0  0  0  0  0  0  0  0  0  0  0  0
   -6.8686   -2.4076    1.0573 C   0  0  0  0  0  0  0  0  0  0  0  0
   -7.8804   -2.6362    1.9003 F   0  0  0  0  0  0  0  0  0  0  0  0
   -6.8513   -1.0834    0.7736 F   0  0  0  0  0  0  0  0  0  0  0  0
   -7.1181   -3.0668   -0.0925 F   0  0  0  0  0  0  0  0  0  0  0  0
  1  2  1  0  0  0  0
  2  3  1  0  0  0  0
  4  1  1  0  0  0  0
  4 11  1  0  0  0  0
  5  4  2  0  0  0  0
  6  9  2  0  0  0  0
  6  5  1  0  0  0  0
  7  6  1  0  0  0  0
  8  7  1  0  0  0  0
  8 14  1  0  0  0  0
  9 10  1  0  0  0  0
 10 17  1  0  0  0  0
 10  1  2  0  0  0  0
 12  5  1  0  0  0  0
 13  8  1  0  0  0  0
 15  8  1  0  0  0  0
 16  9  1  0  0  0  0
 18  3  1  0  0  0  0
 18 19  1  0  0  0  0
 19 20  2  0  0  0  0
 21 19  1  0  0  0  0
 21 22  1  0  0  0  0
 23 21  1  0  0  0  0
 24 21  1  0  0  0  0
M  RAD  2   2   2   3   2
M  END
