Coordinates from ORCA-job 4-MeOPhN2+~CF3COO-_B3LYPG-6-31G_dp-NX-Scan-d89-09-n800
 OpenBabel11261920413D

 24 23  0  0  0  0  0  0  0  0999 V2000
   -1.7421    2.2532   -1.4716 C   0  0  0  0  0  0  0  0  0  0  0  0
   -1.9173    3.3350   -2.2500 N   0  0  0  0  0  0  0  0  0  0  0  0
   -2.0560    4.2501   -2.8971 N   0  0  0  0  0  0  0  0  0  0  0  0
   -0.4093    1.8399   -1.1753 C   0  0  0  0  0  0  0  0  0  0  0  0
   -0.2367    0.7573   -0.3595 C   0  0  0  0  0  0  0  0  0  0  0  0
   -1.3645    0.0702    0.1876 C   0  0  0  0  0  0  0  0  0  0  0  0
   -1.0690   -0.9233    0.9916 O   0  0  0  0  0  0  0  0  0  0  0  0
   -2.1218   -1.6568    1.6882 C   0  0  0  0  0  0  0  0  0  0  0  0
   -2.6930    0.4709   -0.1338 C   0  0  0  0  0  0  0  0  0  0  0  0
   -2.8762    1.5560   -0.9553 C   0  0  0  0  0  0  0  0  0  0  0  0
    0.4342    2.3817   -1.5879 H   0  0  0  0  0  0  0  0  0  0  0  0
    0.7543    0.4045   -0.0979 H   0  0  0  0  0  0  0  0  0  0  0  0
   -1.5837   -2.3499    2.3325 H   0  0  0  0  0  0  0  0  0  0  0  0
   -2.7930   -2.1893    1.0004 H   0  0  0  0  0  0  0  0  0  0  0  0
   -2.7184   -0.9584    2.2790 H   0  0  0  0  0  0  0  0  0  0  0  0
   -3.5888   -0.0754    0.2438 H   0  0  0  0  0  0  0  0  0  0  0  0
   -3.8790    1.8816   -1.2125 H   0  0  0  0  0  0  0  0  0  0  0  0
   -4.6695   -2.9685    0.7735 O   0  0  0  0  0  0  0  0  0  0  0  0
   -5.4241   -1.9779    0.7364 C   0  0  0  0  0  0  0  0  0  0  0  0
   -5.1623   -0.7454    0.6701 O   0  0  0  0  0  0  0  0  0  0  0  0
   -6.9554   -2.2672    0.7879 C   0  0  0  0  0  0  0  0  0  0  0  0
   -7.5196   -1.7004    1.8827 F   0  0  0  0  0  0  0  0  0  0  0  0
   -7.5840   -1.7472   -0.2956 F   0  0  0  0  0  0  0  0  0  0  0  0
   -7.2485   -3.5809    0.8246 F   0  0  0  0  0  0  0  0  0  0  0  0
  1  4  2  0  0  0  0
  1 10  1  0  0  0  0
  2  1  1  0  0  0  0
  3  2  1  0  0  0  0
  4  5  1  0  0  0  0
  5 12  1  0  0  0  0
  5  6  2  0  0  0  0
  6  7  1  0  0  0  0
  7  8  1  0  0  0  0
  8 15  1  0  0  0  0
  8 13  1  0  0  0  0
  9  6  1  0  0  0  0
  9 16  1  0  0  0  0
 10  9  2  0  0  0  0
 11  4  1  0  0  0  0
 14  8  1  0  0  0  0
 17 10  1  0  0  0  0
 19 18  1  0  0  0  0
 19 21  1  0  0  0  0
 20 19  2  0  0  0  0
 21 24  1  0  0  0  0
 21 22  1  0  0  0  0
 23 21  1  0  0  0  0
M  RAD  3   2   2   3   3  18   2
M  END
