Coordinates from ORCA-job 4-MeOPhN2+~CF3COO-_B3LYPG-6-31G_dp-NX-Scan-d89-09-n800
 OpenBabel11261920413D

 24 23  0  0  0  0  0  0  0  0999 V2000
   -2.4143    0.3425   -1.1366 C   0  0  0  0  0  0  0  0  0  0  0  0
   -3.2109    0.6042   -2.2268 N   0  0  0  0  0  0  0  0  0  0  0  0
   -3.8602    0.8165   -3.1132 N   0  0  0  0  0  0  0  0  0  0  0  0
   -1.0273    0.5808   -1.2788 C   0  0  0  0  0  0  0  0  0  0  0  0
   -0.2026    0.3300   -0.2067 C   0  0  0  0  0  0  0  0  0  0  0  0
   -0.7456   -0.1565    1.0068 C   0  0  0  0  0  0  0  0  0  0  0  0
    0.1475   -0.3652    1.9857 O   0  0  0  0  0  0  0  0  0  0  0  0
   -0.3050   -0.8504    3.2548 C   0  0  0  0  0  0  0  0  0  0  0  0
   -2.1287   -0.3869    1.1246 C   0  0  0  0  0  0  0  0  0  0  0  0
   -2.9807   -0.1413    0.0579 C   0  0  0  0  0  0  0  0  0  0  0  0
   -0.6294    0.9543   -2.2161 H   0  0  0  0  0  0  0  0  0  0  0  0
    0.8665    0.4986   -0.2657 H   0  0  0  0  0  0  0  0  0  0  0  0
    0.5893   -0.9299    3.8720 H   0  0  0  0  0  0  0  0  0  0  0  0
   -0.7723   -1.8355    3.1553 H   0  0  0  0  0  0  0  0  0  0  0  0
   -1.0096   -0.1494    3.7147 H   0  0  0  0  0  0  0  0  0  0  0  0
   -2.5573   -0.7602    2.0461 H   0  0  0  0  0  0  0  0  0  0  0  0
   -4.0598   -0.3156    0.1366 H   0  0  0  0  0  0  0  0  0  0  0  0
   -5.4193    0.1067   -1.6212 O   0  0  0  0  0  0  0  0  0  0  0  0
   -6.2853   -0.3019   -0.7917 C   0  0  0  0  0  0  0  0  0  0  0  0
   -6.0891   -0.6766    0.3753 O   0  0  0  0  0  0  0  0  0  0  0  0
   -7.7390   -0.3243   -1.3363 C   0  0  0  0  0  0  0  0  0  0  0  0
   -8.6319   -0.7447   -0.4240 F   0  0  0  0  0  0  0  0  0  0  0  0
   -8.1221    0.9099   -1.7416 F   0  0  0  0  0  0  0  0  0  0  0  0
   -7.8368   -1.1451   -2.4094 F   0  0  0  0  0  0  0  0  0  0  0  0
  1 10  1  0  0  0  0
  2  1  1  0  0  0  0
  3  2  1  0  0  0  0
  4  1  2  0  0  0  0
  4  5  1  0  0  0  0
  5  6  2  0  0  0  0
  6  9  1  0  0  0  0
  6  7  1  0  0  0  0
  7  8  1  0  0  0  0
  8 15  1  0  0  0  0
  8 13  1  0  0  0  0
  9 16  1  0  0  0  0
 10 17  1  0  0  0  0
 10  9  2  0  0  0  0
 11  4  1  0  0  0  0
 12  5  1  0  0  0  0
 14  8  1  0  0  0  0
 18 19  2  0  0  0  0
 19 20  1  0  0  0  0
 21 19  1  0  0  0  0
 21 22  1  0  0  0  0
 23 21  1  0  0  0  0
 24 21  1  0  0  0  0
M  RAD  3   2   2   3   3  20   2
M  END
