Coordinates from ORCA-job 4-MeOPhN2+~CF3COO-_B3LYPG-6-31G_dp-NX-Scan-d89-09-n800
 OpenBabel11261920413D

 24 23  0  0  0  0  0  0  0  0999 V2000
   -2.5741    0.6557   -0.9422 C   0  0  0  0  0  0  0  0  0  0  0  0
   -3.3978    1.0933   -1.9807 N   0  0  0  0  0  0  0  0  0  0  0  0
   -3.6110    1.6554   -2.9309 N   0  0  0  0  0  0  0  0  0  0  0  0
   -1.2350    1.1110   -1.0044 C   0  0  0  0  0  0  0  0  0  0  0  0
   -0.3595    0.7235   -0.0163 C   0  0  0  0  0  0  0  0  0  0  0  0
   -0.8018   -0.1139    1.0352 C   0  0  0  0  0  0  0  0  0  0  0  0
    0.1346   -0.4293    1.9454 O   0  0  0  0  0  0  0  0  0  0  0  0
   -0.2209   -1.2659    3.0496 C   0  0  0  0  0  0  0  0  0  0  0  0
   -2.1359   -0.5528    1.0726 C   0  0  0  0  0  0  0  0  0  0  0  0
   -3.0357   -0.1720    0.0841 C   0  0  0  0  0  0  0  0  0  0  0  0
   -0.9130    1.7527   -1.8176 H   0  0  0  0  0  0  0  0  0  0  0  0
    0.6742    1.0495   -0.0222 H   0  0  0  0  0  0  0  0  0  0  0  0
    0.6895   -1.3764    3.6383 H   0  0  0  0  0  0  0  0  0  0  0  0
   -0.5583   -2.2496    2.7069 H   0  0  0  0  0  0  0  0  0  0  0  0
   -1.0007   -0.8000    3.6617 H   0  0  0  0  0  0  0  0  0  0  0  0
   -2.4918   -1.1942    1.8692 H   0  0  0  0  0  0  0  0  0  0  0  0
   -4.0789   -0.5149    0.1145 H   0  0  0  0  0  0  0  0  0  0  0  0
   -5.8776   -1.0614    0.1243 O   0  0  0  0  0  0  0  0  0  0  0  0
   -6.1771   -0.4334   -0.9009 C   0  0  0  0  0  0  0  0  0  0  0  0
   -5.4573    0.2943   -1.6511 O   0  0  0  0  0  0  0  0  0  0  0  0
   -7.6532   -0.5141   -1.3948 C   0  0  0  0  0  0  0  0  0  0  0  0
   -8.2110    0.7159   -1.4440 F   0  0  0  0  0  0  0  0  0  0  0  0
   -7.7137   -1.0379   -2.6394 F   0  0  0  0  0  0  0  0  0  0  0  0
   -8.4178   -1.2757   -0.5953 F   0  0  0  0  0  0  0  0  0  0  0  0
  1 10  1  0  0  0  0
  2  1  1  0  0  0  0
  3  2  2  0  0  0  0
  4  1  2  0  0  0  0
  4  5  1  0  0  0  0
  5  6  2  0  0  0  0
  6  9  1  0  0  0  0
  6  7  1  0  0  0  0
  7  8  1  0  0  0  0
  8 13  1  0  0  0  0
  8 15  1  0  0  0  0
  9 16  1  0  0  0  0
 10 17  1  0  0  0  0
 10  9  2  0  0  0  0
 11  4  1  0  0  0  0
 12  5  1  0  0  0  0
 14  8  1  0  0  0  0
 19 18  1  0  0  0  0
 20 19  2  0  0  0  0
 21 19  1  0  0  0  0
 21 24  1  0  0  0  0
 22 21  1  0  0  0  0
 23 21  1  0  0  0  0
M  RAD  2   3   2  18   2
M  END
