Coordinates from ORCA-job 4-MeOPhN2+~CF3COO-_B3LYPG-6-31G_dp-NX-Scan-d89-09-n800
 OpenBabel11261920413D

 24 23  0  0  0  0  0  0  0  0999 V2000
   -2.8873    1.8115   -0.9213 C   0  0  0  0  0  0  0  0  0  0  0  0
   -3.6003    2.7224   -1.5952 N   0  0  0  0  0  0  0  0  0  0  0  0
   -4.2078    3.4938   -2.1489 N   0  0  0  0  0  0  0  0  0  0  0  0
   -1.9443    1.0078   -1.6265 C   0  0  0  0  0  0  0  0  0  0  0  0
   -1.3259   -0.0030   -0.9480 C   0  0  0  0  0  0  0  0  0  0  0  0
   -1.6479   -0.2526    0.4211 C   0  0  0  0  0  0  0  0  0  0  0  0
   -1.0705   -1.3305    0.9437 O   0  0  0  0  0  0  0  0  0  0  0  0
   -1.5600   -1.8373    2.2058 C   0  0  0  0  0  0  0  0  0  0  0  0
   -2.5119    0.5993    1.1263 C   0  0  0  0  0  0  0  0  0  0  0  0
   -3.1997    1.5915    0.4498 C   0  0  0  0  0  0  0  0  0  0  0  0
   -1.7520    1.1901   -2.6775 H   0  0  0  0  0  0  0  0  0  0  0  0
   -0.6260   -0.6683   -1.4397 H   0  0  0  0  0  0  0  0  0  0  0  0
   -1.0736   -2.8036    2.3298 H   0  0  0  0  0  0  0  0  0  0  0  0
   -2.6482   -1.9422    2.1587 H   0  0  0  0  0  0  0  0  0  0  0  0
   -1.2653   -1.1715    3.0238 H   0  0  0  0  0  0  0  0  0  0  0  0
   -2.7792    0.3954    2.1513 H   0  0  0  0  0  0  0  0  0  0  0  0
   -3.9003    2.2352    0.9589 H   0  0  0  0  0  0  0  0  0  0  0  0
   -4.6708   -1.1247    1.4382 O   0  0  0  0  0  0  0  0  0  0  0  0
   -5.1122   -0.6626    0.3690 C   0  0  0  0  0  0  0  0  0  0  0  0
   -5.3200    0.5345    0.0299 O   0  0  0  0  0  0  0  0  0  0  0  0
   -5.3101   -1.6900   -0.7838 C   0  0  0  0  0  0  0  0  0  0  0  0
   -6.3031   -1.3568   -1.6321 F   0  0  0  0  0  0  0  0  0  0  0  0
   -4.1583   -1.7384   -1.5228 F   0  0  0  0  0  0  0  0  0  0  0  0
   -5.5490   -2.9404   -0.3488 F   0  0  0  0  0  0  0  0  0  0  0  0
  1 10  2  0  0  0  0
  2  1  1  0  0  0  0
  3  2  1  0  0  0  0
  4  5  2  0  0  0  0
  4  1  1  0  0  0  0
  5  6  1  0  0  0  0
  6  7  1  0  0  0  0
  6  9  2  0  0  0  0
  7  8  1  0  0  0  0
  8 13  1  0  0  0  0
  8 15  1  0  0  0  0
  9 16  1  0  0  0  0
 10 17  1  0  0  0  0
 10  9  1  0  0  0  0
 11  4  1  0  0  0  0
 12  5  1  0  0  0  0
 14  8  1  0  0  0  0
 19 18  1  0  0  0  0
 20 19  2  0  0  0  0
 21 24  1  0  0  0  0
 21 19  1  0  0  0  0
 22 21  1  0  0  0  0
 23 21  1  0  0  0  0
M  RAD  3   2   2   3   3  18   2
M  END
