Coordinates from ORCA-job 4-MeOPhN2+~CF3COO-_B3LYPG-6-31G_dp-NX-Scan-d89-09-n800
 OpenBabel11261920413D

 24 23  0  0  0  0  0  0  0  0999 V2000
   -1.8554   -1.1971    0.3980 C   0  0  0  0  0  0  0  0  0  0  0  0
   -2.0545   -2.4870    0.8771 N   0  0  0  0  0  0  0  0  0  0  0  0
   -2.7622   -3.3621    1.0905 N   0  0  0  0  0  0  0  0  0  0  0  0
   -0.5869   -0.6166    0.5720 C   0  0  0  0  0  0  0  0  0  0  0  0
   -0.3681    0.6650    0.1103 C   0  0  0  0  0  0  0  0  0  0  0  0
   -1.4076    1.3718   -0.5308 C   0  0  0  0  0  0  0  0  0  0  0  0
   -1.0911    2.6130   -0.9427 O   0  0  0  0  0  0  0  0  0  0  0  0
   -2.0851    3.4077   -1.5931 C   0  0  0  0  0  0  0  0  0  0  0  0
   -2.6702    0.7735   -0.7050 C   0  0  0  0  0  0  0  0  0  0  0  0
   -2.9029   -0.5136   -0.2432 C   0  0  0  0  0  0  0  0  0  0  0  0
    0.1983   -1.1753    1.0691 H   0  0  0  0  0  0  0  0  0  0  0  0
    0.5926    1.1527    0.2295 H   0  0  0  0  0  0  0  0  0  0  0  0
   -1.5983    4.3547   -1.8240 H   0  0  0  0  0  0  0  0  0  0  0  0
   -2.9411    3.5870   -0.9339 H   0  0  0  0  0  0  0  0  0  0  0  0
   -2.4248    2.9359   -2.5213 H   0  0  0  0  0  0  0  0  0  0  0  0
   -3.4753    1.3056   -1.1958 H   0  0  0  0  0  0  0  0  0  0  0  0
   -3.8632   -1.0040   -0.3613 H   0  0  0  0  0  0  0  0  0  0  0  0
   -4.6695   -2.8849    0.3481 O   0  0  0  0  0  0  0  0  0  0  0  0
   -5.2780   -2.5203    1.4193 C   0  0  0  0  0  0  0  0  0  0  0  0
   -4.8473   -2.4162    2.5622 O   0  0  0  0  0  0  0  0  0  0  0  0
   -6.7450   -2.0956    1.1174 C   0  0  0  0  0  0  0  0  0  0  0  0
   -7.4293   -1.8034    2.2317 F   0  0  0  0  0  0  0  0  0  0  0  0
   -6.7372   -0.9811    0.3368 F   0  0  0  0  0  0  0  0  0  0  0  0
   -7.4218   -3.0497    0.4509 F   0  0  0  0  0  0  0  0  0  0  0  0
  1  4  1  0  0  0  0
  1  2  1  0  0  0  0
  2  3  2  0  0  0  0
  4 11  1  0  0  0  0
  5 12  1  0  0  0  0
  5  4  2  0  0  0  0
  6  5  1  0  0  0  0
  7  6  1  0  0  0  0
  8  7  1  0  0  0  0
  8 14  1  0  0  0  0
  9  6  2  0  0  0  0
  9 10  1  0  0  0  0
 10  1  2  0  0  0  0
 13  8  1  0  0  0  0
 15  8  1  0  0  0  0
 16  9  1  0  0  0  0
 17 10  1  0  0  0  0
 18 19  2  0  0  0  0
 19 20  1  0  0  0  0
 21 19  1  0  0  0  0
 21 22  1  0  0  0  0
 23 21  1  0  0  0  0
 24 21  1  0  0  0  0
M  RAD  2   3   2  20   2
M  END
