Coordinates from ORCA-job 4-MeOPhN2+~CF3COO-_B3LYPG-6-31G_dp-NX-Scan-d89-09-n800
 OpenBabel11261920413D

 24 24  0  0  0  0  0  0  0  0999 V2000
   -2.0644   -0.9694    0.7336 C   0  0  0  0  0  0  0  0  0  0  0  0
   -2.1593   -2.1613    1.5056 N   0  0  0  0  0  0  0  0  0  0  0  0
   -3.2904   -2.7370    1.7248 N   0  0  0  0  0  0  0  0  0  0  0  0
   -0.7267   -0.6745    0.3829 C   0  0  0  0  0  0  0  0  0  0  0  0
   -0.3912    0.4514   -0.3447 C   0  0  0  0  0  0  0  0  0  0  0  0
   -1.3933    1.3534   -0.7405 C   0  0  0  0  0  0  0  0  0  0  0  0
   -0.9712    2.4345   -1.4511 O   0  0  0  0  0  0  0  0  0  0  0  0
   -1.9374    3.3844   -1.8752 C   0  0  0  0  0  0  0  0  0  0  0  0
   -2.7237    1.0979   -0.3882 C   0  0  0  0  0  0  0  0  0  0  0  0
   -3.0576   -0.0504    0.3340 C   0  0  0  0  0  0  0  0  0  0  0  0
    0.0380   -1.3726    0.7072 H   0  0  0  0  0  0  0  0  0  0  0  0
    0.6372    0.6644   -0.6168 H   0  0  0  0  0  0  0  0  0  0  0  0
   -1.3868    4.1490   -2.4252 H   0  0  0  0  0  0  0  0  0  0  0  0
   -2.4477    3.8499   -1.0228 H   0  0  0  0  0  0  0  0  0  0  0  0
   -2.6860    2.9309   -2.5377 H   0  0  0  0  0  0  0  0  0  0  0  0
   -3.5144    1.7827   -0.6714 H   0  0  0  0  0  0  0  0  0  0  0  0
   -4.0977   -0.1945    0.5867 H   0  0  0  0  0  0  0  0  0  0  0  0
   -4.1716   -2.3490    1.3313 O   0  0  0  0  0  0  0  0  0  0  0  0
   -5.4319   -3.0410    1.6194 C   0  0  0  0  0  0  0  0  0  0  0  0
   -5.5086   -4.0022    2.3057 O   0  0  0  0  0  0  0  0  0  0  0  0
   -6.5411   -2.2924    0.8695 C   0  0  0  0  0  0  0  0  0  0  0  0
   -7.7245   -2.8144    1.1807 F   0  0  0  0  0  0  0  0  0  0  0  0
   -6.5299   -0.9902    1.2072 F   0  0  0  0  0  0  0  0  0  0  0  0
   -6.3434   -2.3898   -0.4530 F   0  0  0  0  0  0  0  0  0  0  0  0
  1  2  1  0  0  0  0
  2  3  2  0  0  0  0
  4 11  1  0  0  0  0
  4  1  1  0  0  0  0
  5  4  2  0  0  0  0
  6  9  2  0  0  0  0
  6  5  1  0  0  0  0
  7  6  1  0  0  0  0
  8  7  1  0  0  0  0
  8 14  1  0  0  0  0
  9 10  1  0  0  0  0
 10 17  1  0  0  0  0
 10  1  2  0  0  0  0
 12  5  1  0  0  0  0
 13  8  1  0  0  0  0
 15  8  1  0  0  0  0
 16  9  1  0  0  0  0
 18 19  1  0  0  0  0
 18  3  1  0  0  0  0
 19 20  2  0  0  0  0
 21 22  1  0  0  0  0
 21 23  1  0  0  0  0
 21 19  1  0  0  0  0
 24 21  1  0  0  0  0
M  END
