Coordinates from ORCA-job 4-MeOPhN2+~CF3COO-_B3LYPG-6-31G_dp-NX-Scan-d89-09-n800
 OpenBabel11261920413D

 24 24  0  0  0  0  0  0  0  0999 V2000
   -2.0580   -0.9643    0.7308 C   0  0  0  0  0  0  0  0  0  0  0  0
   -2.1561   -2.1563    1.5022 N   0  0  0  0  0  0  0  0  0  0  0  0
   -3.3120   -2.7159    1.7065 N   0  0  0  0  0  0  0  0  0  0  0  0
   -0.7195   -0.6674    0.3830 C   0  0  0  0  0  0  0  0  0  0  0  0
   -0.3826    0.4598   -0.3420 C   0  0  0  0  0  0  0  0  0  0  0  0
   -1.3833    1.3613   -0.7420 C   0  0  0  0  0  0  0  0  0  0  0  0
   -0.9585    2.4438   -1.4516 O   0  0  0  0  0  0  0  0  0  0  0  0
   -1.9245    3.3916   -1.8786 C   0  0  0  0  0  0  0  0  0  0  0  0
   -2.7140    1.1038   -0.3957 C   0  0  0  0  0  0  0  0  0  0  0  0
   -3.0494   -0.0453    0.3265 C   0  0  0  0  0  0  0  0  0  0  0  0
    0.0451   -1.3653    0.7081 H   0  0  0  0  0  0  0  0  0  0  0  0
    0.6469    0.6734   -0.6100 H   0  0  0  0  0  0  0  0  0  0  0  0
   -1.3738    4.1577   -2.4265 H   0  0  0  0  0  0  0  0  0  0  0  0
   -2.4392    3.8560   -1.0281 H   0  0  0  0  0  0  0  0  0  0  0  0
   -2.6703    2.9373   -2.5439 H   0  0  0  0  0  0  0  0  0  0  0  0
   -3.5049    1.7870   -0.6824 H   0  0  0  0  0  0  0  0  0  0  0  0
   -4.0912   -0.1888    0.5743 H   0  0  0  0  0  0  0  0  0  0  0  0
   -4.1587   -2.3419    1.3277 O   0  0  0  0  0  0  0  0  0  0  0  0
   -5.4606   -3.0653    1.6242 C   0  0  0  0  0  0  0  0  0  0  0  0
   -5.4996   -4.0291    2.3044 O   0  0  0  0  0  0  0  0  0  0  0  0
   -6.5722   -2.3142    0.8847 C   0  0  0  0  0  0  0  0  0  0  0  0
   -7.7567   -2.8296    1.2047 F   0  0  0  0  0  0  0  0  0  0  0  0
   -6.5482   -1.0138    1.2230 F   0  0  0  0  0  0  0  0  0  0  0  0
   -6.3823   -2.4148   -0.4378 F   0  0  0  0  0  0  0  0  0  0  0  0
  1  2  1  0  0  0  0
  2  3  2  0  0  0  0
  4 11  1  0  0  0  0
  4  1  1  0  0  0  0
  5  4  2  0  0  0  0
  6  9  2  0  0  0  0
  6  5  1  0  0  0  0
  7  6  1  0  0  0  0
  8  7  1  0  0  0  0
  8 14  1  0  0  0  0
  9 10  1  0  0  0  0
 10 17  1  0  0  0  0
 10  1  2  0  0  0  0
 12  5  1  0  0  0  0
 13  8  1  0  0  0  0
 15  8  1  0  0  0  0
 16  9  1  0  0  0  0
 18 19  1  0  0  0  0
 18  3  1  0  0  0  0
 19 20  2  0  0  0  0
 21 22  1  0  0  0  0
 21 23  1  0  0  0  0
 21 19  1  0  0  0  0
 24 21  1  0  0  0  0
M  END
