Coordinates from ORCA-job 4-MeOPhN2+~CF3COO-_B3LYPG-6-31G_dp-NX-Scan-d89-09-n800
 OpenBabel11261920413D

 24 23  0  0  0  0  0  0  0  0999 V2000
   -2.5462    1.6546   -1.3074 C   0  0  0  0  0  0  0  0  0  0  0  0
   -3.1336    2.4701   -2.2006 N   0  0  0  0  0  0  0  0  0  0  0  0
   -3.6368    3.1566   -2.9385 N   0  0  0  0  0  0  0  0  0  0  0  0
   -1.2141    1.2090   -1.5514 C   0  0  0  0  0  0  0  0  0  0  0  0
   -0.6557    0.3282   -0.6657 C   0  0  0  0  0  0  0  0  0  0  0  0
   -1.4038   -0.1345    0.4594 C   0  0  0  0  0  0  0  0  0  0  0  0
   -0.8127   -1.0481    1.2012 O   0  0  0  0  0  0  0  0  0  0  0  0
   -1.5618   -1.6855    2.2767 C   0  0  0  0  0  0  0  0  0  0  0  0
   -2.6982    0.3731    0.7202 C   0  0  0  0  0  0  0  0  0  0  0  0
   -3.2862    1.2386   -0.1672 C   0  0  0  0  0  0  0  0  0  0  0  0
   -0.6748    1.5529   -2.4269 H   0  0  0  0  0  0  0  0  0  0  0  0
    0.3438   -0.0624   -0.8173 H   0  0  0  0  0  0  0  0  0  0  0  0
   -0.9194   -2.4982    2.6118 H   0  0  0  0  0  0  0  0  0  0  0  0
   -2.5245   -2.0487    1.8897 H   0  0  0  0  0  0  0  0  0  0  0  0
   -1.7124   -0.9676    3.0884 H   0  0  0  0  0  0  0  0  0  0  0  0
   -3.3259    0.0281    1.5409 H   0  0  0  0  0  0  0  0  0  0  0  0
   -4.3182    1.5331   -0.0136 H   0  0  0  0  0  0  0  0  0  0  0  0
   -4.2713   -2.1993    0.7376 O   0  0  0  0  0  0  0  0  0  0  0  0
   -5.1547   -1.3158    0.7796 C   0  0  0  0  0  0  0  0  0  0  0  0
   -5.2956   -0.3373    1.5521 O   0  0  0  0  0  0  0  0  0  0  0  0
   -6.1730   -1.3248   -0.4011 C   0  0  0  0  0  0  0  0  0  0  0  0
   -7.4331   -1.0417   -0.0177 F   0  0  0  0  0  0  0  0  0  0  0  0
   -5.8072   -0.3435   -1.2946 F   0  0  0  0  0  0  0  0  0  0  0  0
   -6.2081   -2.4771   -1.0934 F   0  0  0  0  0  0  0  0  0  0  0  0
  1 10  1  0  0  0  0
  2  1  1  0  0  0  0
  3  2  1  0  0  0  0
  4  1  2  0  0  0  0
  4  5  1  0  0  0  0
  5  6  2  0  0  0  0
  6  9  1  0  0  0  0
  6  7  1  0  0  0  0
  7  8  1  0  0  0  0
  8 13  1  0  0  0  0
  8 15  1  0  0  0  0
  9 16  1  0  0  0  0
 10 17  1  0  0  0  0
 10  9  2  0  0  0  0
 11  4  1  0  0  0  0
 12  5  1  0  0  0  0
 14  8  1  0  0  0  0
 18 19  2  0  0  0  0
 19 20  1  0  0  0  0
 21 22  1  0  0  0  0
 21 19  1  0  0  0  0
 23 21  1  0  0  0  0
 24 21  1  0  0  0  0
M  RAD  3   2   2   3   3  20   2
M  END
