Coordinates from ORCA-job 4-MeOPhN2+~CF3COO-_B3LYPG-6-31G_dp-NX-Scan-d89-09-n800
 OpenBabel11261920413D

 24 23  0  0  0  0  0  0  0  0999 V2000
   -1.8670    2.1403   -1.4502 C   0  0  0  0  0  0  0  0  0  0  0  0
   -2.1245    3.1679   -2.2762 N   0  0  0  0  0  0  0  0  0  0  0  0
   -2.3504    4.0346   -2.9627 N   0  0  0  0  0  0  0  0  0  0  0  0
   -0.5144    1.7243   -1.2725 C   0  0  0  0  0  0  0  0  0  0  0  0
   -0.2677    0.6812   -0.4241 C   0  0  0  0  0  0  0  0  0  0  0  0
   -1.3406    0.0333    0.2635 C   0  0  0  0  0  0  0  0  0  0  0  0
   -0.9801   -0.9490    1.0563 O   0  0  0  0  0  0  0  0  0  0  0  0
   -1.9819   -1.6645    1.8411 C   0  0  0  0  0  0  0  0  0  0  0  0
   -2.6861    0.4547    0.0787 C   0  0  0  0  0  0  0  0  0  0  0  0
   -2.9459    1.4963   -0.7754 C   0  0  0  0  0  0  0  0  0  0  0  0
    0.2863    2.2302   -1.7999 H   0  0  0  0  0  0  0  0  0  0  0  0
    0.7414    0.3239   -0.2532 H   0  0  0  0  0  0  0  0  0  0  0  0
   -1.4207   -2.4541    2.3377 H   0  0  0  0  0  0  0  0  0  0  0  0
   -2.7868   -2.0713    1.2069 H   0  0  0  0  0  0  0  0  0  0  0  0
   -2.4086   -0.9791    2.5783 H   0  0  0  0  0  0  0  0  0  0  0  0
   -3.5629   -0.0349    0.5603 H   0  0  0  0  0  0  0  0  0  0  0  0
   -3.9695    1.8193   -0.9366 H   0  0  0  0  0  0  0  0  0  0  0  0
   -4.5686   -2.6829    0.5956 O   0  0  0  0  0  0  0  0  0  0  0  0
   -5.3984   -1.7574    0.6955 C   0  0  0  0  0  0  0  0  0  0  0  0
   -5.2251   -0.5247    0.8924 O   0  0  0  0  0  0  0  0  0  0  0  0
   -6.8984   -2.1504    0.5424 C   0  0  0  0  0  0  0  0  0  0  0  0
   -7.6285   -1.7340    1.6037 F   0  0  0  0  0  0  0  0  0  0  0  0
   -7.4335   -1.5670   -0.5610 F   0  0  0  0  0  0  0  0  0  0  0  0
   -7.0918   -3.4774    0.4212 F   0  0  0  0  0  0  0  0  0  0  0  0
  1  4  2  0  0  0  0
  1 10  1  0  0  0  0
  2  1  1  0  0  0  0
  3  2  1  0  0  0  0
  4  5  1  0  0  0  0
  5 12  1  0  0  0  0
  5  6  2  0  0  0  0
  6  7  1  0  0  0  0
  7  8  1  0  0  0  0
  8 13  1  0  0  0  0
  8 15  1  0  0  0  0
  9  6  1  0  0  0  0
  9 16  1  0  0  0  0
 10  9  2  0  0  0  0
 11  4  1  0  0  0  0
 14  8  1  0  0  0  0
 17 10  1  0  0  0  0
 18 19  2  0  0  0  0
 19 20  1  0  0  0  0
 21 19  1  0  0  0  0
 21 22  1  0  0  0  0
 23 21  1  0  0  0  0
 24 21  1  0  0  0  0
M  RAD  3   2   2   3   3  20   2
M  END
