Coordinates from ORCA-job 4-MeOPhN2+~CF3COO-_B3LYPG-6-31G_dp-NX-Scan-d89-09-n800
 OpenBabel11261920413D

 24 23  0  0  0  0  0  0  0  0999 V2000
   -2.5653    0.4900   -1.0151 C   0  0  0  0  0  0  0  0  0  0  0  0
   -3.3685    0.7924   -2.1196 N   0  0  0  0  0  0  0  0  0  0  0  0
   -3.5321    1.2056   -3.1532 N   0  0  0  0  0  0  0  0  0  0  0  0
   -1.2942    1.1080   -0.9971 C   0  0  0  0  0  0  0  0  0  0  0  0
   -0.4430    0.8293    0.0488 C   0  0  0  0  0  0  0  0  0  0  0  0
   -0.8389   -0.0695    1.0665 C   0  0  0  0  0  0  0  0  0  0  0  0
    0.0697   -0.2687    2.0370 O   0  0  0  0  0  0  0  0  0  0  0  0
   -0.2444   -1.1552    3.1135 C   0  0  0  0  0  0  0  0  0  0  0  0
   -2.1027   -0.6823    1.0145 C   0  0  0  0  0  0  0  0  0  0  0  0
   -2.9816   -0.4012   -0.0248 C   0  0  0  0  0  0  0  0  0  0  0  0
   -1.0056    1.7919   -1.7881 H   0  0  0  0  0  0  0  0  0  0  0  0
    0.5370    1.2879    0.1125 H   0  0  0  0  0  0  0  0  0  0  0  0
    0.6313   -1.1498    3.7627 H   0  0  0  0  0  0  0  0  0  0  0  0
   -0.4246   -2.1720    2.7487 H   0  0  0  0  0  0  0  0  0  0  0  0
   -1.1182   -0.8030    3.6725 H   0  0  0  0  0  0  0  0  0  0  0  0
   -2.4178   -1.3783    1.7821 H   0  0  0  0  0  0  0  0  0  0  0  0
   -3.9715   -0.8734   -0.0864 H   0  0  0  0  0  0  0  0  0  0  0  0
   -5.7369   -1.4399   -0.3597 O   0  0  0  0  0  0  0  0  0  0  0  0
   -6.1236   -0.4450   -0.9877 C   0  0  0  0  0  0  0  0  0  0  0  0
   -5.4605    0.5234   -1.4702 O   0  0  0  0  0  0  0  0  0  0  0  0
   -7.6508   -0.3178   -1.2737 C   0  0  0  0  0  0  0  0  0  0  0  0
   -8.1254    0.8773   -0.8616 F   0  0  0  0  0  0  0  0  0  0  0  0
   -7.8911   -0.4159   -2.6010 F   0  0  0  0  0  0  0  0  0  0  0  0
   -8.3652   -1.2739   -0.6585 F   0  0  0  0  0  0  0  0  0  0  0  0
  1  4  2  0  0  0  0
  1 10  1  0  0  0  0
  2  1  1  0  0  0  0
  3  2  2  0  0  0  0
  4  5  1  0  0  0  0
  5 12  1  0  0  0  0
  5  6  2  0  0  0  0
  6  7  1  0  0  0  0
  7  8  1  0  0  0  0
  8 15  1  0  0  0  0
  8 13  1  0  0  0  0
  9  6  1  0  0  0  0
  9 16  1  0  0  0  0
 10  9  2  0  0  0  0
 11  4  1  0  0  0  0
 14  8  1  0  0  0  0
 17 10  1  0  0  0  0
 19 18  1  0  0  0  0
 20 19  2  0  0  0  0
 21 19  1  0  0  0  0
 21 22  1  0  0  0  0
 21 24  1  0  0  0  0
 23 21  1  0  0  0  0
M  RAD  2   3   2  18   2
M  END
