Coordinates from ORCA-job 4-MeOPhN2+~CF3COO-_B3LYPG-6-31G_dp-NX-Scan-d89-09-n800
 OpenBabel11261920413D

 24 23  0  0  0  0  0  0  0  0999 V2000
   -2.4824    0.3214   -1.0958 C   0  0  0  0  0  0  0  0  0  0  0  0
   -3.2925    0.5816   -2.1845 N   0  0  0  0  0  0  0  0  0  0  0  0
   -3.7443    0.8554   -3.1707 N   0  0  0  0  0  0  0  0  0  0  0  0
   -1.0999    0.5683   -1.2682 C   0  0  0  0  0  0  0  0  0  0  0  0
   -0.2510    0.3254   -0.2128 C   0  0  0  0  0  0  0  0  0  0  0  0
   -0.7646   -0.1612    1.0128 C   0  0  0  0  0  0  0  0  0  0  0  0
    0.1512   -0.3621    1.9738 O   0  0  0  0  0  0  0  0  0  0  0  0
   -0.2725   -0.8468    3.2520 C   0  0  0  0  0  0  0  0  0  0  0  0
   -2.1427   -0.3992    1.1590 C   0  0  0  0  0  0  0  0  0  0  0  0
   -3.0179   -0.1610    0.1079 C   0  0  0  0  0  0  0  0  0  0  0  0
   -0.7243    0.9418   -2.2146 H   0  0  0  0  0  0  0  0  0  0  0  0
    0.8155    0.5008   -0.2959 H   0  0  0  0  0  0  0  0  0  0  0  0
    0.6341   -0.9193    3.8520 H   0  0  0  0  0  0  0  0  0  0  0  0
   -0.7357   -1.8352    3.1649 H   0  0  0  0  0  0  0  0  0  0  0  0
   -0.9723   -0.1494    3.7249 H   0  0  0  0  0  0  0  0  0  0  0  0
   -2.5492   -0.7725    2.0904 H   0  0  0  0  0  0  0  0  0  0  0  0
   -4.0956   -0.3431    0.2117 H   0  0  0  0  0  0  0  0  0  0  0  0
   -5.4025    0.1267   -1.6863 O   0  0  0  0  0  0  0  0  0  0  0  0
   -6.2434   -0.2840   -0.8297 C   0  0  0  0  0  0  0  0  0  0  0  0
   -6.0347   -0.6527    0.3363 O   0  0  0  0  0  0  0  0  0  0  0  0
   -7.7059   -0.3145   -1.3562 C   0  0  0  0  0  0  0  0  0  0  0  0
   -8.5805   -0.7317   -0.4259 F   0  0  0  0  0  0  0  0  0  0  0  0
   -8.0978    0.9151   -1.7630 F   0  0  0  0  0  0  0  0  0  0  0  0
   -7.8147   -1.1439   -2.4202 F   0  0  0  0  0  0  0  0  0  0  0  0
  1 10  1  0  0  0  0
  2  1  1  0  0  0  0
  3  2  1  0  0  0  0
  4  1  2  0  0  0  0
  4  5  1  0  0  0  0
  5  6  2  0  0  0  0
  6  9  1  0  0  0  0
  6  7  1  0  0  0  0
  7  8  1  0  0  0  0
  8 15  1  0  0  0  0
  8 13  1  0  0  0  0
  9 16  1  0  0  0  0
 10 17  1  0  0  0  0
 10  9  2  0  0  0  0
 11  4  1  0  0  0  0
 12  5  1  0  0  0  0
 14  8  1  0  0  0  0
 18 19  2  0  0  0  0
 19 20  1  0  0  0  0
 21 19  1  0  0  0  0
 21 22  1  0  0  0  0
 23 21  1  0  0  0  0
 24 21  1  0  0  0  0
M  RAD  3   2   2   3   3  20   2
M  END
