Coordinates from ORCA-job 4-MeOPhN2+~CF3COO-_B3LYPG-6-31G_dp-NX-Scan-d89-09-n800
 OpenBabel11261920413D

 24 23  0  0  0  0  0  0  0  0999 V2000
   -2.9524    1.5258   -0.8780 C   0  0  0  0  0  0  0  0  0  0  0  0
   -3.9009    2.1451   -1.5985 N   0  0  0  0  0  0  0  0  0  0  0  0
   -4.7287    2.6304   -2.1805 N   0  0  0  0  0  0  0  0  0  0  0  0
   -2.0200    0.6882   -1.5487 C   0  0  0  0  0  0  0  0  0  0  0  0
   -1.2703   -0.1758   -0.7982 C   0  0  0  0  0  0  0  0  0  0  0  0
   -1.4967   -0.2728    0.6038 C   0  0  0  0  0  0  0  0  0  0  0  0
   -0.8673   -1.2735    1.2141 O   0  0  0  0  0  0  0  0  0  0  0  0
   -1.3633   -1.7022    2.5004 C   0  0  0  0  0  0  0  0  0  0  0  0
   -2.3368    0.6403    1.2651 C   0  0  0  0  0  0  0  0  0  0  0  0
   -3.1059    1.5222    0.5348 C   0  0  0  0  0  0  0  0  0  0  0  0
   -1.9515    0.7086   -2.6303 H   0  0  0  0  0  0  0  0  0  0  0  0
   -0.5748   -0.8677   -1.2582 H   0  0  0  0  0  0  0  0  0  0  0  0
   -0.8906   -2.6665    2.6816 H   0  0  0  0  0  0  0  0  0  0  0  0
   -2.4509   -1.8041    2.4493 H   0  0  0  0  0  0  0  0  0  0  0  0
   -1.0651   -0.9976    3.2839 H   0  0  0  0  0  0  0  0  0  0  0  0
   -2.4802    0.5853    2.3350 H   0  0  0  0  0  0  0  0  0  0  0  0
   -3.7999    2.1967    1.0114 H   0  0  0  0  0  0  0  0  0  0  0  0
   -4.3427   -1.4442    0.8375 O   0  0  0  0  0  0  0  0  0  0  0  0
   -5.0302   -0.6712    0.1512 C   0  0  0  0  0  0  0  0  0  0  0  0
   -5.3546    0.5329    0.3441 O   0  0  0  0  0  0  0  0  0  0  0  0
   -5.5084   -1.2048   -1.2369 C   0  0  0  0  0  0  0  0  0  0  0  0
   -6.8248   -1.0030   -1.4458 F   0  0  0  0  0  0  0  0  0  0  0  0
   -4.8498   -0.5232   -2.2384 F   0  0  0  0  0  0  0  0  0  0  0  0
   -5.2582   -2.5091   -1.4369 F   0  0  0  0  0  0  0  0  0  0  0  0
  1 10  1  0  0  0  0
  2  1  1  0  0  0  0
  3  2  1  0  0  0  0
  4  1  2  0  0  0  0
  4  5  1  0  0  0  0
  5  6  2  0  0  0  0
  6  7  1  0  0  0  0
  6  9  1  0  0  0  0
  7  8  1  0  0  0  0
  8 13  1  0  0  0  0
  8 15  1  0  0  0  0
  9 16  1  0  0  0  0
 10 17  1  0  0  0  0
 10  9  2  0  0  0  0
 11  4  1  0  0  0  0
 12  5  1  0  0  0  0
 14  8  1  0  0  0  0
 19 20  2  0  0  0  0
 19 18  1  0  0  0  0
 21 19  1  0  0  0  0
 22 21  1  0  0  0  0
 23 21  1  0  0  0  0
 24 21  1  0  0  0  0
M  RAD  3   2   2   3   3  18   2
M  END
