Coordinates from ORCA-job 4-MeOPhN2+~CF3COO-_B3LYPG-6-31G_dp-NX-Scan-d89-09-n800
 OpenBabel11261920413D

 24 23  0  0  0  0  0  0  0  0999 V2000
   -2.9595    1.4643   -0.8433 C   0  0  0  0  0  0  0  0  0  0  0  0
   -3.9394    2.0397   -1.5655 N   0  0  0  0  0  0  0  0  0  0  0  0
   -4.7901    2.4749   -2.1495 N   0  0  0  0  0  0  0  0  0  0  0  0
   -2.0090    0.6499   -1.5126 C   0  0  0  0  0  0  0  0  0  0  0  0
   -1.2248   -0.1811   -0.7575 C   0  0  0  0  0  0  0  0  0  0  0  0
   -1.4383   -0.2677    0.6446 C   0  0  0  0  0  0  0  0  0  0  0  0
   -0.7746   -1.2429    1.2636 O   0  0  0  0  0  0  0  0  0  0  0  0
   -1.2485   -1.6714    2.5559 C   0  0  0  0  0  0  0  0  0  0  0  0
   -2.3054    0.6241    1.3017 C   0  0  0  0  0  0  0  0  0  0  0  0
   -3.0985    1.4807    0.5683 C   0  0  0  0  0  0  0  0  0  0  0  0
   -1.9529    0.6562   -2.5952 H   0  0  0  0  0  0  0  0  0  0  0  0
   -0.5125   -0.8570   -1.2155 H   0  0  0  0  0  0  0  0  0  0  0  0
   -0.7404   -2.6150    2.7497 H   0  0  0  0  0  0  0  0  0  0  0  0
   -2.3316   -1.8176    2.5153 H   0  0  0  0  0  0  0  0  0  0  0  0
   -0.9776   -0.9460    3.3303 H   0  0  0  0  0  0  0  0  0  0  0  0
   -2.4380    0.5785    2.3737 H   0  0  0  0  0  0  0  0  0  0  0  0
   -3.8231    2.1263    1.0390 H   0  0  0  0  0  0  0  0  0  0  0  0
   -4.3719   -1.4148    0.6744 O   0  0  0  0  0  0  0  0  0  0  0  0
   -5.1046   -0.6341    0.0489 C   0  0  0  0  0  0  0  0  0  0  0  0
   -5.4336    0.5604    0.2876 O   0  0  0  0  0  0  0  0  0  0  0  0
   -5.6298   -1.1392   -1.3339 C   0  0  0  0  0  0  0  0  0  0  0  0
   -6.9250   -0.8376   -1.5508 F   0  0  0  0  0  0  0  0  0  0  0  0
   -4.9154   -0.5122   -2.3368 F   0  0  0  0  0  0  0  0  0  0  0  0
   -5.4791   -2.4587   -1.5305 F   0  0  0  0  0  0  0  0  0  0  0  0
  1 10  1  0  0  0  0
  2  1  1  0  0  0  0
  3  2  1  0  0  0  0
  4  1  2  0  0  0  0
  4  5  1  0  0  0  0
  5  6  2  0  0  0  0
  6  7  1  0  0  0  0
  6  9  1  0  0  0  0
  7  8  1  0  0  0  0
  8 13  1  0  0  0  0
  8 15  1  0  0  0  0
  9 16  1  0  0  0  0
 10 17  1  0  0  0  0
 10  9  2  0  0  0  0
 11  4  1  0  0  0  0
 12  5  1  0  0  0  0
 14  8  1  0  0  0  0
 19 20  2  0  0  0  0
 19 18  1  0  0  0  0
 21 19  1  0  0  0  0
 22 21  1  0  0  0  0
 23 21  1  0  0  0  0
 24 21  1  0  0  0  0
M  RAD  3   2   2   3   3  18   2
M  END
