Coordinates from ORCA-job 4-MeOPhN2+~CF3COO-_B3LYPG-6-31G_dp-NX-Scan-d89-09-n800
 OpenBabel11261920413D

 24 23  0  0  0  0  0  0  0  0999 V2000
   -2.6746    0.1757   -1.0336 C   0  0  0  0  0  0  0  0  0  0  0  0
   -3.5357    0.3516   -2.1327 N   0  0  0  0  0  0  0  0  0  0  0  0
   -3.7012    0.7424   -3.1765 N   0  0  0  0  0  0  0  0  0  0  0  0
   -1.4290    0.8277   -1.0995 C   0  0  0  0  0  0  0  0  0  0  0  0
   -0.5447    0.6761   -0.0508 C   0  0  0  0  0  0  0  0  0  0  0  0
   -0.8901   -0.1237    1.0593 C   0  0  0  0  0  0  0  0  0  0  0  0
    0.0441   -0.2001    2.0268 O   0  0  0  0  0  0  0  0  0  0  0  0
   -0.2279   -0.9751    3.1942 C   0  0  0  0  0  0  0  0  0  0  0  0
   -2.1358   -0.7734    1.0998 C   0  0  0  0  0  0  0  0  0  0  0  0
   -3.0348   -0.6197    0.0516 C   0  0  0  0  0  0  0  0  0  0  0  0
   -1.1802    1.4401   -1.9590 H   0  0  0  0  0  0  0  0  0  0  0  0
    0.4225    1.1650   -0.0570 H   0  0  0  0  0  0  0  0  0  0  0  0
    0.6563   -0.8782    3.8246 H   0  0  0  0  0  0  0  0  0  0  0  0
   -0.3837   -2.0303    2.9429 H   0  0  0  0  0  0  0  0  0  0  0  0
   -1.1031   -0.5906    3.7301 H   0  0  0  0  0  0  0  0  0  0  0  0
   -2.4169   -1.3902    1.9436 H   0  0  0  0  0  0  0  0  0  0  0  0
   -3.9997   -1.1046    0.0507 H   0  0  0  0  0  0  0  0  0  0  0  0
   -5.2140   -0.5388   -1.8028 O   0  0  0  0  0  0  0  0  0  0  0  0
   -6.0014    0.1428   -1.0405 C   0  0  0  0  0  0  0  0  0  0  0  0
   -5.7109    0.9764   -0.1906 O   0  0  0  0  0  0  0  0  0  0  0  0
   -7.4943   -0.2120   -1.2952 C   0  0  0  0  0  0  0  0  0  0  0  0
   -8.3179    0.5902   -0.6054 F   0  0  0  0  0  0  0  0  0  0  0  0
   -7.8073   -0.1052   -2.6023 F   0  0  0  0  0  0  0  0  0  0  0  0
   -7.7437   -1.4861   -0.9157 F   0  0  0  0  0  0  0  0  0  0  0  0
  1 10  1  0  0  0  0
  2  1  1  0  0  0  0
  3  2  2  0  0  0  0
  4  1  2  0  0  0  0
  4  5  1  0  0  0  0
  5  6  2  0  0  0  0
  6  9  1  0  0  0  0
  6  7  1  0  0  0  0
  7  8  1  0  0  0  0
  8 15  1  0  0  0  0
  8 13  1  0  0  0  0
  9 16  1  0  0  0  0
 10  9  2  0  0  0  0
 11  4  1  0  0  0  0
 12  5  1  0  0  0  0
 14  8  1  0  0  0  0
 17 10  1  0  0  0  0
 18 19  2  0  0  0  0
 19 20  1  0  0  0  0
 21 19  1  0  0  0  0
 21 24  1  0  0  0  0
 21 22  1  0  0  0  0
 23 21  1  0  0  0  0
M  RAD  2   3   2  20   2
M  END
