Coordinates from ORCA-job 4-MeOPhN2+~CF3COO-_B3LYPG-6-31G_dp-NX-Scan-d89-09-n800
 OpenBabel11261920413D

 24 23  0  0  0  0  0  0  0  0999 V2000
   -2.5666    0.4789   -1.0198 C   0  0  0  0  0  0  0  0  0  0  0  0
   -3.3686    0.7741   -2.1276 N   0  0  0  0  0  0  0  0  0  0  0  0
   -3.5255    1.1796   -3.1654 N   0  0  0  0  0  0  0  0  0  0  0  0
   -1.3011    1.1076   -0.9968 C   0  0  0  0  0  0  0  0  0  0  0  0
   -0.4514    0.8359    0.0524 C   0  0  0  0  0  0  0  0  0  0  0  0
   -0.8433   -0.0667    1.0680 C   0  0  0  0  0  0  0  0  0  0  0  0
    0.0633   -0.2584    2.0420 O   0  0  0  0  0  0  0  0  0  0  0  0
   -0.2469   -1.1484    3.1166 C   0  0  0  0  0  0  0  0  0  0  0  0
   -2.1015   -0.6908    1.0108 C   0  0  0  0  0  0  0  0  0  0  0  0
   -2.9790   -0.4163   -0.0313 C   0  0  0  0  0  0  0  0  0  0  0  0
   -1.0156    1.7945   -1.7864 H   0  0  0  0  0  0  0  0  0  0  0  0
    0.5242    1.3032    0.1201 H   0  0  0  0  0  0  0  0  0  0  0  0
    0.6259   -1.1353    3.7695 H   0  0  0  0  0  0  0  0  0  0  0  0
   -0.4160   -2.1667    2.7505 H   0  0  0  0  0  0  0  0  0  0  0  0
   -1.1264   -0.8049    3.6722 H   0  0  0  0  0  0  0  0  0  0  0  0
   -2.4129   -1.3901    1.7768 H   0  0  0  0  0  0  0  0  0  0  0  0
   -3.9641   -0.8972   -0.0982 H   0  0  0  0  0  0  0  0  0  0  0  0
   -5.7301   -1.4593   -0.3973 O   0  0  0  0  0  0  0  0  0  0  0  0
   -6.1175   -0.4458   -0.9945 C   0  0  0  0  0  0  0  0  0  0  0  0
   -5.4547    0.5336   -1.4560 O   0  0  0  0  0  0  0  0  0  0  0  0
   -7.6463   -0.3051   -1.2644 C   0  0  0  0  0  0  0  0  0  0  0  0
   -8.1111    0.8857   -0.8296 F   0  0  0  0  0  0  0  0  0  0  0  0
   -7.8980   -0.3812   -2.5911 F   0  0  0  0  0  0  0  0  0  0  0  0
   -8.3604   -1.2671   -0.6583 F   0  0  0  0  0  0  0  0  0  0  0  0
  1  4  2  0  0  0  0
  1 10  1  0  0  0  0
  2  1  1  0  0  0  0
  3  2  2  0  0  0  0
  4  5  1  0  0  0  0
  5 12  1  0  0  0  0
  5  6  2  0  0  0  0
  6  7  1  0  0  0  0
  7  8  1  0  0  0  0
  8 15  1  0  0  0  0
  8 13  1  0  0  0  0
  9  6  1  0  0  0  0
  9 16  1  0  0  0  0
 10  9  2  0  0  0  0
 11  4  1  0  0  0  0
 14  8  1  0  0  0  0
 17 10  1  0  0  0  0
 19 18  1  0  0  0  0
 20 19  2  0  0  0  0
 21 19  1  0  0  0  0
 21 22  1  0  0  0  0
 21 24  1  0  0  0  0
 23 21  1  0  0  0  0
M  RAD  2   3   2  18   2
M  END
