Coordinates from ORCA-job 4-MeOPhN2+~CF3COO-_B3LYPG-6-31G_dp-NX-Scan-d89-09-n800
 OpenBabel11261920413D

 24 23  0  0  0  0  0  0  0  0999 V2000
   -2.6177    0.2259   -1.1108 C   0  0  0  0  0  0  0  0  0  0  0  0
   -3.3931    0.4150   -2.2630 N   0  0  0  0  0  0  0  0  0  0  0  0
   -3.5116    0.7882   -3.3178 N   0  0  0  0  0  0  0  0  0  0  0  0
   -1.4483    1.0088   -1.0204 C   0  0  0  0  0  0  0  0  0  0  0  0
   -0.6302    0.8459    0.0777 C   0  0  0  0  0  0  0  0  0  0  0  0
   -0.9619   -0.0922    1.0797 C   0  0  0  0  0  0  0  0  0  0  0  0
   -0.0942   -0.1672    2.1051 O   0  0  0  0  0  0  0  0  0  0  0  0
   -0.3575   -1.0765    3.1747 C   0  0  0  0  0  0  0  0  0  0  0  0
   -2.1294   -0.8677    0.9617 C   0  0  0  0  0  0  0  0  0  0  0  0
   -2.9663   -0.7063   -0.1341 C   0  0  0  0  0  0  0  0  0  0  0  0
   -1.2085    1.7279   -1.7958 H   0  0  0  0  0  0  0  0  0  0  0  0
    0.2751    1.4305    0.1929 H   0  0  0  0  0  0  0  0  0  0  0  0
    0.4655   -0.9490    3.8780 H   0  0  0  0  0  0  0  0  0  0  0  0
   -0.3772   -2.1124    2.8182 H   0  0  0  0  0  0  0  0  0  0  0  0
   -1.3044   -0.8388    3.6722 H   0  0  0  0  0  0  0  0  0  0  0  0
   -2.3967   -1.5924    1.7202 H   0  0  0  0  0  0  0  0  0  0  0  0
   -3.8816   -1.2707   -0.2760 H   0  0  0  0  0  0  0  0  0  0  0  0
   -5.3072   -0.9618   -1.6841 O   0  0  0  0  0  0  0  0  0  0  0  0
   -5.9272    0.0673   -1.2816 C   0  0  0  0  0  0  0  0  0  0  0  0
   -5.4793    1.2039   -1.0638 O   0  0  0  0  0  0  0  0  0  0  0  0
   -7.4390   -0.1839   -1.0109 C   0  0  0  0  0  0  0  0  0  0  0  0
   -8.1046    0.9436   -0.7106 F   0  0  0  0  0  0  0  0  0  0  0  0
   -8.0409   -0.7428   -2.0810 F   0  0  0  0  0  0  0  0  0  0  0  0
   -7.5875   -1.0356    0.0316 F   0  0  0  0  0  0  0  0  0  0  0  0
  1  4  2  0  0  0  0
  1 10  1  0  0  0  0
  2  1  1  0  0  0  0
  3  2  2  0  0  0  0
  4  5  1  0  0  0  0
  5 12  1  0  0  0  0
  5  6  2  0  0  0  0
  6  7  1  0  0  0  0
  7  8  1  0  0  0  0
  8 15  1  0  0  0  0
  8 13  1  0  0  0  0
  9  6  1  0  0  0  0
  9 16  1  0  0  0  0
 10  9  2  0  0  0  0
 11  4  1  0  0  0  0
 14  8  1  0  0  0  0
 17 10  1  0  0  0  0
 18 19  2  0  0  0  0
 19 20  1  0  0  0  0
 19 21  1  0  0  0  0
 21 22  1  0  0  0  0
 21 24  1  0  0  0  0
 23 21  1  0  0  0  0
M  RAD  2   3   2  20   2
M  END
