Coordinates from ORCA-job 4-MeOPhN2+~CF3COO-_B3LYPG-6-31G_dp-NX-Scan-d89-09-n800
 OpenBabel11261920413D

 24 24  0  0  0  0  0  0  0  0999 V2000
   -2.0535   -0.9775    0.7030 C   0  0  0  0  0  0  0  0  0  0  0  0
   -2.1471   -2.1796    1.4501 N   0  0  0  0  0  0  0  0  0  0  0  0
   -3.2041   -2.8013    1.7244 N   0  0  0  0  0  0  0  0  0  0  0  0
   -0.7117   -0.6663    0.3858 C   0  0  0  0  0  0  0  0  0  0  0  0
   -0.3756    0.4700   -0.3249 C   0  0  0  0  0  0  0  0  0  0  0  0
   -1.3830    1.3617   -0.7307 C   0  0  0  0  0  0  0  0  0  0  0  0
   -0.9639    2.4527   -1.4198 O   0  0  0  0  0  0  0  0  0  0  0  0
   -1.9326    3.3964   -1.8590 C   0  0  0  0  0  0  0  0  0  0  0  0
   -2.7195    1.0865   -0.4075 C   0  0  0  0  0  0  0  0  0  0  0  0
   -3.0545   -0.0705    0.2946 C   0  0  0  0  0  0  0  0  0  0  0  0
    0.0538   -1.3587    0.7193 H   0  0  0  0  0  0  0  0  0  0  0  0
    0.6546    0.6994   -0.5748 H   0  0  0  0  0  0  0  0  0  0  0  0
   -1.3773    4.1698   -2.3908 H   0  0  0  0  0  0  0  0  0  0  0  0
   -2.4649    3.8493   -1.0139 H   0  0  0  0  0  0  0  0  0  0  0  0
   -2.6598    2.9382   -2.5409 H   0  0  0  0  0  0  0  0  0  0  0  0
   -3.5117    1.7651   -0.7005 H   0  0  0  0  0  0  0  0  0  0  0  0
   -4.0949   -0.2388    0.5259 H   0  0  0  0  0  0  0  0  0  0  0  0
   -4.2424   -2.3309    1.2884 O   0  0  0  0  0  0  0  0  0  0  0  0
   -5.4121   -2.9980    1.6259 C   0  0  0  0  0  0  0  0  0  0  0  0
   -5.5152   -3.9423    2.3432 O   0  0  0  0  0  0  0  0  0  0  0  0
   -6.5704   -2.3010    0.8853 C   0  0  0  0  0  0  0  0  0  0  0  0
   -7.7353   -2.7884    1.3043 F   0  0  0  0  0  0  0  0  0  0  0  0
   -6.5463   -0.9722    1.1118 F   0  0  0  0  0  0  0  0  0  0  0  0
   -6.4565   -2.5037   -0.4374 F   0  0  0  0  0  0  0  0  0  0  0  0
  1  2  1  0  0  0  0
  2  3  2  0  0  0  0
  4  1  1  0  0  0  0
  4 11  1  0  0  0  0
  5  4  2  0  0  0  0
  6  9  2  0  0  0  0
  6  5  1  0  0  0  0
  7  6  1  0  0  0  0
  8  7  1  0  0  0  0
  8 14  1  0  0  0  0
  9 10  1  0  0  0  0
 10 17  1  0  0  0  0
 10  1  2  0  0  0  0
 12  5  1  0  0  0  0
 13  8  1  0  0  0  0
 15  8  1  0  0  0  0
 16  9  1  0  0  0  0
 18 19  1  0  0  0  0
 18  3  1  0  0  0  0
 19 20  2  0  0  0  0
 21 23  1  0  0  0  0
 21 22  1  0  0  0  0
 21 19  1  0  0  0  0
 24 21  1  0  0  0  0
M  END
