Coordinates from ORCA-job 4-MeOPhN2+~CF3COO-_B3LYPG-6-31G_dp-NX-Scan-d89-09-n800
 OpenBabel11261920413D

 24 23  0  0  0  0  0  0  0  0999 V2000
   -2.1350    1.9310   -1.3840 C   0  0  0  0  0  0  0  0  0  0  0  0
   -2.5510    2.8483   -2.2726 N   0  0  0  0  0  0  0  0  0  0  0  0
   -2.9262    3.6184   -3.0057 N   0  0  0  0  0  0  0  0  0  0  0  0
   -0.7738    1.5079   -1.4076 C   0  0  0  0  0  0  0  0  0  0  0  0
   -0.3845    0.5401   -0.5228 C   0  0  0  0  0  0  0  0  0  0  0  0
   -1.3278   -0.0337    0.3845 C   0  0  0  0  0  0  0  0  0  0  0  0
   -0.8600   -0.9919    1.1533 O   0  0  0  0  0  0  0  0  0  0  0  0
   -1.7684   -1.6969    2.0523 C   0  0  0  0  0  0  0  0  0  0  0  0
   -2.6687    0.4270    0.4226 C   0  0  0  0  0  0  0  0  0  0  0  0
   -3.0763    1.3901   -0.4630 C   0  0  0  0  0  0  0  0  0  0  0  0
   -0.0784    1.9429   -2.1168 H   0  0  0  0  0  0  0  0  0  0  0  0
    0.6351    0.1723   -0.5068 H   0  0  0  0  0  0  0  0  0  0  0  0
   -1.1764   -2.5215    2.4454 H   0  0  0  0  0  0  0  0  0  0  0  0
   -2.6523   -2.0423    1.4948 H   0  0  0  0  0  0  0  0  0  0  0  0
   -2.0643   -1.0238    2.8618 H   0  0  0  0  0  0  0  0  0  0  0  0
   -3.4578    0.0135    1.0699 H   0  0  0  0  0  0  0  0  0  0  0  0
   -4.1142    1.7068   -0.4626 H   0  0  0  0  0  0  0  0  0  0  0  0
   -4.3671   -2.2597    0.4468 O   0  0  0  0  0  0  0  0  0  0  0  0
   -5.2929   -1.4508    0.6734 C   0  0  0  0  0  0  0  0  0  0  0  0
   -5.2663   -0.3316    1.2460 O   0  0  0  0  0  0  0  0  0  0  0  0
   -6.6919   -1.8422    0.1100 C   0  0  0  0  0  0  0  0  0  0  0  0
   -7.6874   -1.5663    0.9794 F   0  0  0  0  0  0  0  0  0  0  0  0
   -6.9470   -1.1315   -1.0240 F   0  0  0  0  0  0  0  0  0  0  0  0
   -6.7910   -3.1460   -0.2124 F   0  0  0  0  0  0  0  0  0  0  0  0
  1 10  1  0  0  0  0
  2  1  1  0  0  0  0
  3  2  1  0  0  0  0
  4  1  2  0  0  0  0
  4  5  1  0  0  0  0
  5 12  1  0  0  0  0
  5  6  2  0  0  0  0
  6  9  1  0  0  0  0
  6  7  1  0  0  0  0
  7  8  1  0  0  0  0
  8 13  1  0  0  0  0
  8 15  1  0  0  0  0
  9 16  1  0  0  0  0
 10 17  1  0  0  0  0
 10  9  2  0  0  0  0
 11  4  1  0  0  0  0
 14  8  1  0  0  0  0
 18 19  2  0  0  0  0
 19 20  1  0  0  0  0
 21 19  1  0  0  0  0
 21 22  1  0  0  0  0
 23 21  1  0  0  0  0
 24 21  1  0  0  0  0
M  RAD  3   2   2   3   3  20   2
M  END
