Coordinates from ORCA-job 4-MeOPhN2+~CF3COO-_B3LYPG-6-31G_dp-NX-Scan-d89-09-n800
 OpenBabel11261920413D

 24 23  0  0  0  0  0  0  0  0999 V2000
   -1.7750    2.2197   -1.4671 C   0  0  0  0  0  0  0  0  0  0  0  0
   -1.9744    3.2856   -2.2606 N   0  0  0  0  0  0  0  0  0  0  0  0
   -2.1418    4.1861   -2.9207 N   0  0  0  0  0  0  0  0  0  0  0  0
   -0.4349    1.8116   -1.1977 C   0  0  0  0  0  0  0  0  0  0  0  0
   -0.2417    0.7405   -0.3711 C   0  0  0  0  0  0  0  0  0  0  0  0
   -1.3558    0.0595    0.2106 C   0  0  0  0  0  0  0  0  0  0  0  0
   -1.0421   -0.9298    1.0134 O   0  0  0  0  0  0  0  0  0  0  0  0
   -2.0825   -1.6602    1.7313 C   0  0  0  0  0  0  0  0  0  0  0  0
   -2.6910    0.4598   -0.0786 C   0  0  0  0  0  0  0  0  0  0  0  0
   -2.8954    1.5322   -0.9108 C   0  0  0  0  0  0  0  0  0  0  0  0
    0.3977    2.3475   -1.6389 H   0  0  0  0  0  0  0  0  0  0  0  0
    0.7555    0.3909   -0.1299 H   0  0  0  0  0  0  0  0  0  0  0  0
   -1.5351   -2.3842    2.3323 H   0  0  0  0  0  0  0  0  0  0  0  0
   -2.7936   -2.1549    1.0531 H   0  0  0  0  0  0  0  0  0  0  0  0
   -2.6329   -0.9647    2.3696 H   0  0  0  0  0  0  0  0  0  0  0  0
   -3.5843   -0.0730    0.3256 H   0  0  0  0  0  0  0  0  0  0  0  0
   -3.9051    1.8533   -1.1457 H   0  0  0  0  0  0  0  0  0  0  0  0
   -4.6412   -2.8825    0.6845 O   0  0  0  0  0  0  0  0  0  0  0  0
   -5.4182   -1.9090    0.7156 C   0  0  0  0  0  0  0  0  0  0  0  0
   -5.1810   -0.6702    0.7417 O   0  0  0  0  0  0  0  0  0  0  0  0
   -6.9427   -2.2342    0.7257 C   0  0  0  0  0  0  0  0  0  0  0  0
   -7.5455   -1.7120    1.8210 F   0  0  0  0  0  0  0  0  0  0  0  0
   -7.5566   -1.6973   -0.3588 F   0  0  0  0  0  0  0  0  0  0  0  0
   -7.2059   -3.5547    0.7174 F   0  0  0  0  0  0  0  0  0  0  0  0
  1  4  2  0  0  0  0
  1 10  1  0  0  0  0
  2  1  1  0  0  0  0
  3  2  1  0  0  0  0
  4  5  1  0  0  0  0
  5 12  1  0  0  0  0
  5  6  2  0  0  0  0
  6  7  1  0  0  0  0
  7  8  1  0  0  0  0
  8 13  1  0  0  0  0
  8 15  1  0  0  0  0
  9  6  1  0  0  0  0
  9 16  1  0  0  0  0
 10  9  2  0  0  0  0
 11  4  1  0  0  0  0
 14  8  1  0  0  0  0
 17 10  1  0  0  0  0
 18 19  2  0  0  0  0
 19 21  1  0  0  0  0
 19 20  1  0  0  0  0
 21 22  1  0  0  0  0
 23 21  1  0  0  0  0
 24 21  1  0  0  0  0
M  RAD  3   2   2   3   3  20   2
M  END
