Coordinates from ORCA-job 4-MeOPhN2+~CF3COO-_B3LYPG-6-31G_dp-NX-Scan-d89-09-n800
 OpenBabel11261920413D

 24 23  0  0  0  0  0  0  0  0999 V2000
   -2.6254    0.2068   -1.0909 C   0  0  0  0  0  0  0  0  0  0  0  0
   -3.4157    0.3777   -2.2346 N   0  0  0  0  0  0  0  0  0  0  0  0
   -3.5587    0.7006   -3.3020 N   0  0  0  0  0  0  0  0  0  0  0  0
   -1.4518    0.9854   -1.0295 C   0  0  0  0  0  0  0  0  0  0  0  0
   -0.6209    0.8372    0.0614 C   0  0  0  0  0  0  0  0  0  0  0  0
   -0.9446   -0.0816    1.0834 C   0  0  0  0  0  0  0  0  0  0  0  0
   -0.0646   -0.1432    2.0993 O   0  0  0  0  0  0  0  0  0  0  0  0
   -0.3191   -1.0323    3.1877 C   0  0  0  0  0  0  0  0  0  0  0  0
   -2.1170   -0.8539    0.9931 C   0  0  0  0  0  0  0  0  0  0  0  0
   -2.9671   -0.7068   -0.0943 C   0  0  0  0  0  0  0  0  0  0  0  0
   -1.2180    1.6896   -1.8202 H   0  0  0  0  0  0  0  0  0  0  0  0
    0.2888    1.4190    0.1553 H   0  0  0  0  0  0  0  0  0  0  0  0
    0.5131   -0.8965    3.8786 H   0  0  0  0  0  0  0  0  0  0  0  0
   -0.3480   -2.0742    2.8499 H   0  0  0  0  0  0  0  0  0  0  0  0
   -1.2586   -0.7813    3.6925 H   0  0  0  0  0  0  0  0  0  0  0  0
   -2.3775   -1.5651    1.7667 H   0  0  0  0  0  0  0  0  0  0  0  0
   -3.8853   -1.2713   -0.2185 H   0  0  0  0  0  0  0  0  0  0  0  0
   -5.3369   -1.0433   -1.6250 O   0  0  0  0  0  0  0  0  0  0  0  0
   -5.9341    0.0055   -1.2526 C   0  0  0  0  0  0  0  0  0  0  0  0
   -5.4564    1.1371   -1.0526 O   0  0  0  0  0  0  0  0  0  0  0  0
   -7.4687   -0.1663   -1.0581 C   0  0  0  0  0  0  0  0  0  0  0  0
   -8.0170    0.8495   -0.3691 F   0  0  0  0  0  0  0  0  0  0  0  0
   -8.0837   -0.2245   -2.2609 F   0  0  0  0  0  0  0  0  0  0  0  0
   -7.7565   -1.3080   -0.3976 F   0  0  0  0  0  0  0  0  0  0  0  0
  1  4  2  0  0  0  0
  1 10  1  0  0  0  0
  2  1  1  0  0  0  0
  3  2  2  0  0  0  0
  4  5  1  0  0  0  0
  5 12  1  0  0  0  0
  5  6  2  0  0  0  0
  6  7  1  0  0  0  0
  7  8  1  0  0  0  0
  8 15  1  0  0  0  0
  8 13  1  0  0  0  0
  9  6  1  0  0  0  0
  9 16  1  0  0  0  0
 10  9  2  0  0  0  0
 11  4  1  0  0  0  0
 14  8  1  0  0  0  0
 17 10  1  0  0  0  0
 18 19  2  0  0  0  0
 19 21  1  0  0  0  0
 19 20  1  0  0  0  0
 21 24  1  0  0  0  0
 21 22  1  0  0  0  0
 23 21  1  0  0  0  0
M  RAD  2   3   2  20   2
M  END
