Coordinates from ORCA-job 4-MeOPhN2+~CF3COO-_B3LYPG-6-31G_dp-NX-Scan-d89-09-n800
 OpenBabel11261920413D

 24 23  0  0  0  0  0  0  0  0999 V2000
   -2.5797    1.6217   -1.2897 C   0  0  0  0  0  0  0  0  0  0  0  0
   -3.2016    2.3960   -2.1959 N   0  0  0  0  0  0  0  0  0  0  0  0
   -3.7427    3.0425   -2.9428 N   0  0  0  0  0  0  0  0  0  0  0  0
   -1.2519    1.1753   -1.5529 C   0  0  0  0  0  0  0  0  0  0  0  0
   -0.6735    0.3132   -0.6614 C   0  0  0  0  0  0  0  0  0  0  0  0
   -1.4010   -0.1350    0.4827 C   0  0  0  0  0  0  0  0  0  0  0  0
   -0.8001   -1.0463    1.2206 O   0  0  0  0  0  0  0  0  0  0  0  0
   -1.5440   -1.6903    2.2949 C   0  0  0  0  0  0  0  0  0  0  0  0
   -2.6872    0.3807    0.7645 C   0  0  0  0  0  0  0  0  0  0  0  0
   -3.2924    1.2335   -0.1234 C   0  0  0  0  0  0  0  0  0  0  0  0
   -0.7328    1.5008   -2.4474 H   0  0  0  0  0  0  0  0  0  0  0  0
    0.3229   -0.0799   -0.8261 H   0  0  0  0  0  0  0  0  0  0  0  0
   -0.8981   -2.5016    2.6269 H   0  0  0  0  0  0  0  0  0  0  0  0
   -2.5032   -2.0558    1.9034 H   0  0  0  0  0  0  0  0  0  0  0  0
   -1.6985   -0.9772    3.1101 H   0  0  0  0  0  0  0  0  0  0  0  0
   -3.2987    0.0417    1.5978 H   0  0  0  0  0  0  0  0  0  0  0  0
   -4.3215    1.5297    0.0429 H   0  0  0  0  0  0  0  0  0  0  0  0
   -4.2258   -2.1416    0.6692 O   0  0  0  0  0  0  0  0  0  0  0  0
   -5.1314   -1.2825    0.7434 C   0  0  0  0  0  0  0  0  0  0  0  0
   -5.3024   -0.3428    1.5558 O   0  0  0  0  0  0  0  0  0  0  0  0
   -6.1364   -1.2659   -0.4492 C   0  0  0  0  0  0  0  0  0  0  0  0
   -7.4035   -1.0053   -0.0749 F   0  0  0  0  0  0  0  0  0  0  0  0
   -5.7685   -0.2545   -1.3100 F   0  0  0  0  0  0  0  0  0  0  0  0
   -6.1516   -2.3967   -1.1766 F   0  0  0  0  0  0  0  0  0  0  0  0
  1 10  1  0  0  0  0
  2  1  1  0  0  0  0
  3  2  1  0  0  0  0
  4  1  2  0  0  0  0
  4  5  1  0  0  0  0
  5  6  2  0  0  0  0
  6  9  1  0  0  0  0
  6  7  1  0  0  0  0
  7  8  1  0  0  0  0
  8 13  1  0  0  0  0
  8 15  1  0  0  0  0
  9 16  1  0  0  0  0
 10 17  1  0  0  0  0
 10  9  2  0  0  0  0
 11  4  1  0  0  0  0
 12  5  1  0  0  0  0
 14  8  1  0  0  0  0
 18 19  2  0  0  0  0
 19 20  1  0  0  0  0
 21 22  1  0  0  0  0
 21 19  1  0  0  0  0
 23 21  1  0  0  0  0
 24 21  1  0  0  0  0
M  RAD  3   2   2   3   3  20   2
M  END
