Coordinates from ORCA-job 4-MeOPhN2+~CF3COO-_B3LYPG-6-31G_dp-NX-Scan-d89-09-n800
 OpenBabel11261920413D

 24 23  0  0  0  0  0  0  0  0999 V2000
   -2.5775    0.3842   -1.0545 C   0  0  0  0  0  0  0  0  0  0  0  0
   -3.3770    0.6130   -2.1852 N   0  0  0  0  0  0  0  0  0  0  0  0
   -3.4910    0.9337   -3.2589 N   0  0  0  0  0  0  0  0  0  0  0  0
   -1.3479    1.0746   -1.0150 C   0  0  0  0  0  0  0  0  0  0  0  0
   -0.5097    0.8598    0.0583 C   0  0  0  0  0  0  0  0  0  0  0  0
   -0.8781   -0.0479    1.0768 C   0  0  0  0  0  0  0  0  0  0  0  0
    0.0142   -0.1801    2.0750 O   0  0  0  0  0  0  0  0  0  0  0  0
   -0.2762   -1.0701    3.1541 C   0  0  0  0  0  0  0  0  0  0  0  0
   -2.1008   -0.7381    1.0000 C   0  0  0  0  0  0  0  0  0  0  0  0
   -2.9667   -0.5174   -0.0640 C   0  0  0  0  0  0  0  0  0  0  0  0
   -1.0796    1.7654   -1.8071 H   0  0  0  0  0  0  0  0  0  0  0  0
    0.4389    1.3772    0.1417 H   0  0  0  0  0  0  0  0  0  0  0  0
    0.5761   -0.9997    3.8302 H   0  0  0  0  0  0  0  0  0  0  0  0
   -0.3788   -2.1017    2.8001 H   0  0  0  0  0  0  0  0  0  0  0  0
   -1.1881   -0.7684    3.6812 H   0  0  0  0  0  0  0  0  0  0  0  0
   -2.3909   -1.4455    1.7668 H   0  0  0  0  0  0  0  0  0  0  0  0
   -3.9199   -1.0475   -0.1674 H   0  0  0  0  0  0  0  0  0  0  0  0
   -5.6646   -1.5691   -0.7554 O   0  0  0  0  0  0  0  0  0  0  0  0
   -6.0617   -0.4476   -1.0955 C   0  0  0  0  0  0  0  0  0  0  0  0
   -5.4019    0.5986   -1.3884 O   0  0  0  0  0  0  0  0  0  0  0  0
   -7.6006   -0.2161   -1.1852 C   0  0  0  0  0  0  0  0  0  0  0  0
   -7.9881    0.7518   -0.3257 F   0  0  0  0  0  0  0  0  0  0  0  0
   -7.9560    0.1757   -2.4281 F   0  0  0  0  0  0  0  0  0  0  0  0
   -8.2979   -1.3251   -0.8918 F   0  0  0  0  0  0  0  0  0  0  0  0
  1  4  2  0  0  0  0
  1 10  1  0  0  0  0
  2  1  1  0  0  0  0
  3  2  2  0  0  0  0
  4  5  1  0  0  0  0
  5 12  1  0  0  0  0
  5  6  2  0  0  0  0
  6  7  1  0  0  0  0
  7  8  1  0  0  0  0
  8 15  1  0  0  0  0
  8 13  1  0  0  0  0
  9  6  1  0  0  0  0
  9 16  1  0  0  0  0
 10  9  2  0  0  0  0
 11  4  1  0  0  0  0
 14  8  1  0  0  0  0
 17 10  1  0  0  0  0
 19 18  1  0  0  0  0
 20 19  2  0  0  0  0
 21 19  1  0  0  0  0
 21 24  1  0  0  0  0
 21 22  1  0  0  0  0
 23 21  1  0  0  0  0
M  RAD  2   3   2  18   2
M  END
