Coordinates from ORCA-job 4-MeOPhN2+~CF3COO-_B3LYPG-6-31G_dp-NX-Scan-d89-09-n800
 OpenBabel11261920413D

 24 23  0  0  0  0  0  0  0  0999 V2000
   -2.8946    1.7728   -0.9130 C   0  0  0  0  0  0  0  0  0  0  0  0
   -3.6627    2.6314   -1.5954 N   0  0  0  0  0  0  0  0  0  0  0  0
   -4.3351    3.3469   -2.1472 N   0  0  0  0  0  0  0  0  0  0  0  0
   -1.9520    0.9692   -1.6160 C   0  0  0  0  0  0  0  0  0  0  0  0
   -1.3129   -0.0231   -0.9279 C   0  0  0  0  0  0  0  0  0  0  0  0
   -1.6230   -0.2580    0.4455 C   0  0  0  0  0  0  0  0  0  0  0  0
   -1.0396   -1.3289    0.9773 O   0  0  0  0  0  0  0  0  0  0  0  0
   -1.5354   -1.8321    2.2381 C   0  0  0  0  0  0  0  0  0  0  0  0
   -2.4853    0.5984    1.1482 C   0  0  0  0  0  0  0  0  0  0  0  0
   -3.1809    1.5814    0.4677 C   0  0  0  0  0  0  0  0  0  0  0  0
   -1.7789    1.1320   -2.6736 H   0  0  0  0  0  0  0  0  0  0  0  0
   -0.6123   -0.6893   -1.4174 H   0  0  0  0  0  0  0  0  0  0  0  0
   -1.0534   -2.8003    2.3652 H   0  0  0  0  0  0  0  0  0  0  0  0
   -2.6235   -1.9340    2.1869 H   0  0  0  0  0  0  0  0  0  0  0  0
   -1.2412   -1.1672    3.0569 H   0  0  0  0  0  0  0  0  0  0  0  0
   -2.7342    0.4113    2.1811 H   0  0  0  0  0  0  0  0  0  0  0  0
   -3.8784    2.2294    0.9751 H   0  0  0  0  0  0  0  0  0  0  0  0
   -4.6542   -1.1198    1.3891 O   0  0  0  0  0  0  0  0  0  0  0  0
   -5.1107   -0.6301    0.3399 C   0  0  0  0  0  0  0  0  0  0  0  0
   -5.3268    0.5758    0.0379 O   0  0  0  0  0  0  0  0  0  0  0  0
   -5.3228   -1.6206   -0.8423 C   0  0  0  0  0  0  0  0  0  0  0  0
   -6.3604   -1.2884   -1.6366 F   0  0  0  0  0  0  0  0  0  0  0  0
   -4.2019   -1.6031   -1.6297 F   0  0  0  0  0  0  0  0  0  0  0  0
   -5.5036   -2.8937   -0.4479 F   0  0  0  0  0  0  0  0  0  0  0  0
  1 10  2  0  0  0  0
  2  1  1  0  0  0  0
  3  2  1  0  0  0  0
  4  5  2  0  0  0  0
  4  1  1  0  0  0  0
  5  6  1  0  0  0  0
  6  7  1  0  0  0  0
  6  9  2  0  0  0  0
  7  8  1  0  0  0  0
  8 13  1  0  0  0  0
  8 15  1  0  0  0  0
  9 16  1  0  0  0  0
 10 17  1  0  0  0  0
 10  9  1  0  0  0  0
 11  4  1  0  0  0  0
 12  5  1  0  0  0  0
 14  8  1  0  0  0  0
 19 18  1  0  0  0  0
 20 19  2  0  0  0  0
 21 24  1  0  0  0  0
 21 19  1  0  0  0  0
 22 21  1  0  0  0  0
 23 21  1  0  0  0  0
M  RAD  3   2   2   3   3  18   2
M  END
