Coordinates from ORCA-job 4-MeOPhN2+~CF3COO-_B3LYPG-6-31G_dp-NX-Scan-d89-09-n800
 OpenBabel11261920413D

 24 23  0  0  0  0  0  0  0  0999 V2000
   -2.5699    0.6662   -0.9503 C   0  0  0  0  0  0  0  0  0  0  0  0
   -3.3866    1.1110   -1.9913 N   0  0  0  0  0  0  0  0  0  0  0  0
   -3.5900    1.6792   -2.9411 N   0  0  0  0  0  0  0  0  0  0  0  0
   -1.2280    1.1149   -1.0088 C   0  0  0  0  0  0  0  0  0  0  0  0
   -0.3560    0.7227   -0.0198 C   0  0  0  0  0  0  0  0  0  0  0  0
   -0.8040   -0.1132    1.0305 C   0  0  0  0  0  0  0  0  0  0  0  0
    0.1288   -0.4335    1.9422 O   0  0  0  0  0  0  0  0  0  0  0  0
   -0.2327   -1.2693    3.0454 C   0  0  0  0  0  0  0  0  0  0  0  0
   -2.1404   -0.5456    1.0650 C   0  0  0  0  0  0  0  0  0  0  0  0
   -3.0367   -0.1603    0.0755 C   0  0  0  0  0  0  0  0  0  0  0  0
   -0.9013    1.7556   -1.8210 H   0  0  0  0  0  0  0  0  0  0  0  0
    0.6793    1.0440   -0.0238 H   0  0  0  0  0  0  0  0  0  0  0  0
    0.6761   -1.3841    3.6357 H   0  0  0  0  0  0  0  0  0  0  0  0
   -0.5738   -2.2511    2.7013 H   0  0  0  0  0  0  0  0  0  0  0  0
   -1.0115   -0.8000    3.6561 H   0  0  0  0  0  0  0  0  0  0  0  0
   -2.5013   -1.1857    1.8604 H   0  0  0  0  0  0  0  0  0  0  0  0
   -4.0798   -0.4999    0.1074 H   0  0  0  0  0  0  0  0  0  0  0  0
   -5.8977   -1.0745    0.1581 O   0  0  0  0  0  0  0  0  0  0  0  0
   -6.1773   -0.4479   -0.8748 C   0  0  0  0  0  0  0  0  0  0  0  0
   -5.4491    0.2750   -1.6241 O   0  0  0  0  0  0  0  0  0  0  0  0
   -7.6483   -0.5233   -1.3872 C   0  0  0  0  0  0  0  0  0  0  0  0
   -8.2007    0.7090   -1.4448 F   0  0  0  0  0  0  0  0  0  0  0  0
   -7.6961   -1.0483   -2.6320 F   0  0  0  0  0  0  0  0  0  0  0  0
   -8.4265   -1.2808   -0.5967 F   0  0  0  0  0  0  0  0  0  0  0  0
  1 10  1  0  0  0  0
  2  1  1  0  0  0  0
  3  2  2  0  0  0  0
  4  1  2  0  0  0  0
  4  5  1  0  0  0  0
  5  6  2  0  0  0  0
  6  9  1  0  0  0  0
  6  7  1  0  0  0  0
  7  8  1  0  0  0  0
  8 13  1  0  0  0  0
  8 15  1  0  0  0  0
  9 16  1  0  0  0  0
 10 17  1  0  0  0  0
 10  9  2  0  0  0  0
 11  4  1  0  0  0  0
 12  5  1  0  0  0  0
 14  8  1  0  0  0  0
 19 18  1  0  0  0  0
 20 19  2  0  0  0  0
 21 19  1  0  0  0  0
 21 24  1  0  0  0  0
 22 21  1  0  0  0  0
 23 21  1  0  0  0  0
M  RAD  2   3   2  18   2
M  END
