Coordinates from ORCA-job 4-MeOPhN2+~CF3COO-_B3LYPG-6-31G_dp-NX-Scan-d89-09-n800
 OpenBabel11261920413D

 24 23  0  0  0  0  0  0  0  0999 V2000
   -2.3144    1.8108   -1.3420 C   0  0  0  0  0  0  0  0  0  0  0  0
   -2.8128    2.6810   -2.2361 N   0  0  0  0  0  0  0  0  0  0  0  0
   -3.2528    3.4115   -2.9733 N   0  0  0  0  0  0  0  0  0  0  0  0
   -0.9651    1.3718   -1.4802 C   0  0  0  0  0  0  0  0  0  0  0  0
   -0.4957    0.4412   -0.5939 C   0  0  0  0  0  0  0  0  0  0  0  0
   -1.3491   -0.0804    0.4263 C   0  0  0  0  0  0  0  0  0  0  0  0
   -0.8224   -1.0216    1.1797 O   0  0  0  0  0  0  0  0  0  0  0  0
   -1.6556   -1.6927    2.1714 C   0  0  0  0  0  0  0  0  0  0  0  0
   -2.6699    0.4077    0.5815 C   0  0  0  0  0  0  0  0  0  0  0  0
   -3.1621    1.3297   -0.3055 C   0  0  0  0  0  0  0  0  0  0  0  0
   -0.3419    1.7632   -2.2766 H   0  0  0  0  0  0  0  0  0  0  0  0
    0.5160    0.0589   -0.6652 H   0  0  0  0  0  0  0  0  0  0  0  0
   -1.0442   -2.5213    2.5246 H   0  0  0  0  0  0  0  0  0  0  0  0
   -2.5890   -2.0322    1.6995 H   0  0  0  0  0  0  0  0  0  0  0  0
   -1.8638   -1.0010    2.9927 H   0  0  0  0  0  0  0  0  0  0  0  0
   -3.3883    0.0257    1.3137 H   0  0  0  0  0  0  0  0  0  0  0  0
   -4.1982    1.6408   -0.2231 H   0  0  0  0  0  0  0  0  0  0  0  0
   -4.2857   -2.1701    0.5429 O   0  0  0  0  0  0  0  0  0  0  0  0
   -5.2242   -1.3585    0.7019 C   0  0  0  0  0  0  0  0  0  0  0  0
   -5.2765   -0.3041    1.3826 O   0  0  0  0  0  0  0  0  0  0  0  0
   -6.5028   -1.6294   -0.1464 C   0  0  0  0  0  0  0  0  0  0  0  0
   -7.6396   -1.3702    0.5324 F   0  0  0  0  0  0  0  0  0  0  0  0
   -6.4982   -0.8089   -1.2387 F   0  0  0  0  0  0  0  0  0  0  0  0
   -6.5874   -2.8919   -0.6065 F   0  0  0  0  0  0  0  0  0  0  0  0
  1 10  1  0  0  0  0
  2  1  1  0  0  0  0
  3  2  1  0  0  0  0
  4  1  2  0  0  0  0
  4  5  1  0  0  0  0
  5  6  2  0  0  0  0
  6  9  1  0  0  0  0
  6  7  1  0  0  0  0
  7  8  1  0  0  0  0
  8 13  1  0  0  0  0
  8 15  1  0  0  0  0
  9 16  1  0  0  0  0
 10 17  1  0  0  0  0
 10  9  2  0  0  0  0
 11  4  1  0  0  0  0
 12  5  1  0  0  0  0
 14  8  1  0  0  0  0
 18 19  2  0  0  0  0
 19 20  1  0  0  0  0
 21 22  1  0  0  0  0
 21 19  1  0  0  0  0
 23 21  1  0  0  0  0
 24 21  1  0  0  0  0
M  RAD  3   2   2   3   3  20   2
M  END
