Coordinates from ORCA-job 4-MeOPhN2+~CF3COO-_B3LYPG-6-31G_dp-NX-Scan-d89-09-n800
 OpenBabel11261920413D

 24 23  0  0  0  0  0  0  0  0999 V2000
   -1.9297    2.0864   -1.4369 C   0  0  0  0  0  0  0  0  0  0  0  0
   -2.2289    3.0819   -2.2873 N   0  0  0  0  0  0  0  0  0  0  0  0
   -2.4978    3.9197   -2.9935 N   0  0  0  0  0  0  0  0  0  0  0  0
   -0.5704    1.6757   -1.3050 C   0  0  0  0  0  0  0  0  0  0  0  0
   -0.2872    0.6542   -0.4415 C   0  0  0  0  0  0  0  0  0  0  0  0
   -1.3309    0.0202    0.3016 C   0  0  0  0  0  0  0  0  0  0  0  0
   -0.9423   -0.9570    1.0882 O   0  0  0  0  0  0  0  0  0  0  0  0
   -1.9244   -1.6766    1.8946 C   0  0  0  0  0  0  0  0  0  0  0  0
   -2.6801    0.4472    0.1720 C   0  0  0  0  0  0  0  0  0  0  0  0
   -2.9778    1.4656   -0.6966 C   0  0  0  0  0  0  0  0  0  0  0  0
    0.2068    2.1667   -1.8797 H   0  0  0  0  0  0  0  0  0  0  0  0
    0.7281    0.2992   -0.3066 H   0  0  0  0  0  0  0  0  0  0  0  0
   -1.3639   -2.5006    2.3323 H   0  0  0  0  0  0  0  0  0  0  0  0
   -2.7663   -2.0310    1.2771 H   0  0  0  0  0  0  0  0  0  0  0  0
   -2.2927   -1.0089    2.6783 H   0  0  0  0  0  0  0  0  0  0  0  0
   -3.5406   -0.0193    0.6975 H   0  0  0  0  0  0  0  0  0  0  0  0
   -4.0085    1.7830   -0.8186 H   0  0  0  0  0  0  0  0  0  0  0  0
   -4.5195   -2.5586    0.5339 O   0  0  0  0  0  0  0  0  0  0  0  0
   -5.3782   -1.6657    0.6837 C   0  0  0  0  0  0  0  0  0  0  0  0
   -5.2425   -0.4509    0.9879 O   0  0  0  0  0  0  0  0  0  0  0  0
   -6.8594   -2.0810    0.4357 C   0  0  0  0  0  0  0  0  0  0  0  0
   -7.6593   -1.7057    1.4601 F   0  0  0  0  0  0  0  0  0  0  0  0
   -7.3380   -1.4773   -0.6837 F   0  0  0  0  0  0  0  0  0  0  0  0
   -7.0199   -3.4074    0.2684 F   0  0  0  0  0  0  0  0  0  0  0  0
  1  4  2  0  0  0  0
  1 10  1  0  0  0  0
  2  1  1  0  0  0  0
  3  2  1  0  0  0  0
  4  5  1  0  0  0  0
  5 12  1  0  0  0  0
  5  6  2  0  0  0  0
  6  7  1  0  0  0  0
  7  8  1  0  0  0  0
  8 13  1  0  0  0  0
  8 15  1  0  0  0  0
  9  6  1  0  0  0  0
  9 16  1  0  0  0  0
 10  9  2  0  0  0  0
 11  4  1  0  0  0  0
 14  8  1  0  0  0  0
 17 10  1  0  0  0  0
 18 19  2  0  0  0  0
 19 20  1  0  0  0  0
 21 19  1  0  0  0  0
 21 22  1  0  0  0  0
 23 21  1  0  0  0  0
 24 21  1  0  0  0  0
M  RAD  3   2   2   3   3  20   2
M  END
