Coordinates from ORCA-job 4-MeOPhN2+~CF3COO-_B3LYPG-6-31G_dp-NX-Scan-d89-09-n800
 OpenBabel11261920413D

 24 23  0  0  0  0  0  0  0  0999 V2000
   -1.8889   -1.0373    0.4888 C   0  0  0  0  0  0  0  0  0  0  0  0
   -2.0887   -2.2810    1.0900 N   0  0  0  0  0  0  0  0  0  0  0  0
   -2.9152   -3.0474    1.3985 N   0  0  0  0  0  0  0  0  0  0  0  0
   -0.5530   -0.5972    0.4186 C   0  0  0  0  0  0  0  0  0  0  0  0
   -0.2603    0.6251   -0.1520 C   0  0  0  0  0  0  0  0  0  0  0  0
   -1.2999    1.4282   -0.6619 C   0  0  0  0  0  0  0  0  0  0  0  0
   -0.9145    2.6030   -1.1993 O   0  0  0  0  0  0  0  0  0  0  0  0
   -1.9043    3.4796   -1.7368 C   0  0  0  0  0  0  0  0  0  0  0  0
   -2.6335    0.9853   -0.5895 C   0  0  0  0  0  0  0  0  0  0  0  0
   -2.9352   -0.2441   -0.0186 C   0  0  0  0  0  0  0  0  0  0  0  0
    0.2325   -1.2289    0.8183 H   0  0  0  0  0  0  0  0  0  0  0  0
    0.7582    0.9904   -0.2191 H   0  0  0  0  0  0  0  0  0  0  0  0
   -1.3602    4.3512   -2.0999 H   0  0  0  0  0  0  0  0  0  0  0  0
   -2.6199    3.7900   -0.9675 H   0  0  0  0  0  0  0  0  0  0  0  0
   -2.4395    3.0110   -2.5703 H   0  0  0  0  0  0  0  0  0  0  0  0
   -3.4418    1.5920   -0.9779 H   0  0  0  0  0  0  0  0  0  0  0  0
   -3.9552   -0.5991    0.0454 H   0  0  0  0  0  0  0  0  0  0  0  0
   -4.5454   -2.4726    0.8251 O   0  0  0  0  0  0  0  0  0  0  0  0
   -5.4942   -2.8068    1.6590 C   0  0  0  0  0  0  0  0  0  0  0  0
   -5.4262   -3.3487    2.7410 O   0  0  0  0  0  0  0  0  0  0  0  0
   -6.8695   -2.3860    1.0628 C   0  0  0  0  0  0  0  0  0  0  0  0
   -7.8554   -2.5316    1.9542 F   0  0  0  0  0  0  0  0  0  0  0  0
   -6.8451   -1.0872    0.6757 F   0  0  0  0  0  0  0  0  0  0  0  0
   -7.1685   -3.1278   -0.0228 F   0  0  0  0  0  0  0  0  0  0  0  0
  1  2  1  0  0  0  0
  2  3  2  0  0  0  0
  4  1  1  0  0  0  0
  4 11  1  0  0  0  0
  5  4  2  0  0  0  0
  6  9  2  0  0  0  0
  6  5  1  0  0  0  0
  7  6  1  0  0  0  0
  8  7  1  0  0  0  0
  8 14  1  0  0  0  0
  9 10  1  0  0  0  0
 10 17  1  0  0  0  0
 10  1  2  0  0  0  0
 12  5  1  0  0  0  0
 13  8  1  0  0  0  0
 15  8  1  0  0  0  0
 16  9  1  0  0  0  0
 18 19  2  0  0  0  0
 19 20  1  0  0  0  0
 21 19  1  0  0  0  0
 21 22  1  0  0  0  0
 23 21  1  0  0  0  0
 24 21  1  0  0  0  0
M  RAD  2   3   2  20   2
M  END
