Coordinates from ORCA-job 4-MeOPhN2+~CF3COO-_B3LYPG-6-31G_dp-NX-Scan-d89-09-n800
 OpenBabel11261920413D

 24 23  0  0  0  0  0  0  0  0999 V2000
   -2.5905    0.3522   -1.0517 C   0  0  0  0  0  0  0  0  0  0  0  0
   -3.3981    0.5559   -2.1825 N   0  0  0  0  0  0  0  0  0  0  0  0
   -3.5171    0.8274   -3.2697 N   0  0  0  0  0  0  0  0  0  0  0  0
   -1.3775    1.0686   -1.0104 C   0  0  0  0  0  0  0  0  0  0  0  0
   -0.5379    0.8713    0.0661 C   0  0  0  0  0  0  0  0  0  0  0  0
   -0.8890   -0.0437    1.0833 C   0  0  0  0  0  0  0  0  0  0  0  0
    0.0037   -0.1567    2.0841 O   0  0  0  0  0  0  0  0  0  0  0  0
   -0.2695   -1.0540    3.1613 C   0  0  0  0  0  0  0  0  0  0  0  0
   -2.0963   -0.7609    1.0040 C   0  0  0  0  0  0  0  0  0  0  0  0
   -2.9633   -0.5571   -0.0620 C   0  0  0  0  0  0  0  0  0  0  0  0
   -1.1220    1.7652   -1.8016 H   0  0  0  0  0  0  0  0  0  0  0  0
    0.3993    1.4089    0.1520 H   0  0  0  0  0  0  0  0  0  0  0  0
    0.5792   -0.9653    3.8399 H   0  0  0  0  0  0  0  0  0  0  0  0
   -0.3478   -2.0874    2.8061 H   0  0  0  0  0  0  0  0  0  0  0  0
   -1.1893   -0.7737    3.6867 H   0  0  0  0  0  0  0  0  0  0  0  0
   -2.3720   -1.4753    1.7696 H   0  0  0  0  0  0  0  0  0  0  0  0
   -3.9032   -1.1043   -0.1793 H   0  0  0  0  0  0  0  0  0  0  0  0
   -5.6348   -1.5675   -0.9263 O   0  0  0  0  0  0  0  0  0  0  0  0
   -6.0421   -0.4170   -1.1305 C   0  0  0  0  0  0  0  0  0  0  0  0
   -5.3859    0.6556   -1.3206 O   0  0  0  0  0  0  0  0  0  0  0  0
   -7.5821   -0.1831   -1.1750 C   0  0  0  0  0  0  0  0  0  0  0  0
   -7.9538    0.7590   -0.2817 F   0  0  0  0  0  0  0  0  0  0  0  0
   -7.9613    0.2430   -2.4000 F   0  0  0  0  0  0  0  0  0  0  0  0
   -8.2723   -1.3012   -0.8998 F   0  0  0  0  0  0  0  0  0  0  0  0
  1  4  2  0  0  0  0
  1 10  1  0  0  0  0
  2  1  1  0  0  0  0
  3  2  2  0  0  0  0
  4  5  1  0  0  0  0
  5 12  1  0  0  0  0
  5  6  2  0  0  0  0
  6  7  1  0  0  0  0
  7  8  1  0  0  0  0
  8 15  1  0  0  0  0
  8 13  1  0  0  0  0
  9  6  1  0  0  0  0
  9 16  1  0  0  0  0
 10  9  2  0  0  0  0
 11  4  1  0  0  0  0
 14  8  1  0  0  0  0
 17 10  1  0  0  0  0
 19 18  1  0  0  0  0
 20 19  2  0  0  0  0
 21 19  1  0  0  0  0
 21 24  1  0  0  0  0
 21 22  1  0  0  0  0
 23 21  1  0  0  0  0
M  RAD  2   3   2  18   2
M  END
