Coordinates from ORCA-job 4-MeOPhN2+~CF3COO-_B3LYPG-6-31G_dp-NX-Scan-d89-09-n800
 OpenBabel11261920413D

 24 23  0  0  0  0  0  0  0  0999 V2000
   -2.5744    0.6424   -0.9395 C   0  0  0  0  0  0  0  0  0  0  0  0
   -3.4017    1.0696   -1.9790 N   0  0  0  0  0  0  0  0  0  0  0  0
   -3.6228    1.6217   -2.9326 N   0  0  0  0  0  0  0  0  0  0  0  0
   -1.2394    1.1091   -0.9999 C   0  0  0  0  0  0  0  0  0  0  0  0
   -0.3629    0.7291   -0.0097 C   0  0  0  0  0  0  0  0  0  0  0  0
   -0.8002   -0.1123    1.0408 C   0  0  0  0  0  0  0  0  0  0  0  0
    0.1373   -0.4196    1.9529 O   0  0  0  0  0  0  0  0  0  0  0  0
   -0.2130   -1.2595    3.0561 C   0  0  0  0  0  0  0  0  0  0  0  0
   -2.1304   -0.5629    1.0755 C   0  0  0  0  0  0  0  0  0  0  0  0
   -3.0314   -0.1892    0.0852 C   0  0  0  0  0  0  0  0  0  0  0  0
   -0.9213    1.7534   -1.8126 H   0  0  0  0  0  0  0  0  0  0  0  0
    0.6681    1.0638   -0.0132 H   0  0  0  0  0  0  0  0  0  0  0  0
    0.6972   -1.3625    3.6465 H   0  0  0  0  0  0  0  0  0  0  0  0
   -0.5416   -2.2459    2.7126 H   0  0  0  0  0  0  0  0  0  0  0  0
   -0.9978   -0.8003    3.6670 H   0  0  0  0  0  0  0  0  0  0  0  0
   -2.4818   -1.2078    1.8713 H   0  0  0  0  0  0  0  0  0  0  0  0
   -4.0730   -0.5400    0.1091 H   0  0  0  0  0  0  0  0  0  0  0  0
   -5.8543   -1.0692    0.0798 O   0  0  0  0  0  0  0  0  0  0  0  0
   -6.1771   -0.4246   -0.9269 C   0  0  0  0  0  0  0  0  0  0  0  0
   -5.4679    0.3156   -1.6723 O   0  0  0  0  0  0  0  0  0  0  0  0
   -7.6612   -0.5001   -1.3947 C   0  0  0  0  0  0  0  0  0  0  0  0
   -8.2200    0.7301   -1.4197 F   0  0  0  0  0  0  0  0  0  0  0  0
   -7.7433   -1.0093   -2.6442 F   0  0  0  0  0  0  0  0  0  0  0  0
   -8.4106   -1.2716   -0.5906 F   0  0  0  0  0  0  0  0  0  0  0  0
  1 10  1  0  0  0  0
  2  1  1  0  0  0  0
  3  2  2  0  0  0  0
  4  1  2  0  0  0  0
  4  5  1  0  0  0  0
  5  6  2  0  0  0  0
  6  9  1  0  0  0  0
  6  7  1  0  0  0  0
  7  8  1  0  0  0  0
  8 13  1  0  0  0  0
  8 15  1  0  0  0  0
  9 16  1  0  0  0  0
 10 17  1  0  0  0  0
 10  9  2  0  0  0  0
 11  4  1  0  0  0  0
 12  5  1  0  0  0  0
 14  8  1  0  0  0  0
 19 18  1  0  0  0  0
 20 19  2  0  0  0  0
 21 19  1  0  0  0  0
 21 24  1  0  0  0  0
 22 21  1  0  0  0  0
 23 21  1  0  0  0  0
M  RAD  2   3   2  18   2
M  END
