Coordinates from ORCA-job 4-MeOPhN2+~CF3COO-_B3LYPG-6-31G_dp-NX-Scan-d89-09-n800
 OpenBabel11261920413D

 24 23  0  0  0  0  0  0  0  0999 V2000
   -2.8869    1.8070   -0.9198 C   0  0  0  0  0  0  0  0  0  0  0  0
   -3.6134    2.7066   -1.5946 N   0  0  0  0  0  0  0  0  0  0  0  0
   -4.2416    3.4627   -2.1458 N   0  0  0  0  0  0  0  0  0  0  0  0
   -1.9423    1.0054   -1.6246 C   0  0  0  0  0  0  0  0  0  0  0  0
   -1.3209   -0.0031   -0.9452 C   0  0  0  0  0  0  0  0  0  0  0  0
   -1.6429   -0.2528    0.4237 C   0  0  0  0  0  0  0  0  0  0  0  0
   -1.0659   -1.3308    0.9468 O   0  0  0  0  0  0  0  0  0  0  0  0
   -1.5592   -1.8394    2.2067 C   0  0  0  0  0  0  0  0  0  0  0  0
   -2.5069    0.5991    1.1291 C   0  0  0  0  0  0  0  0  0  0  0  0
   -3.1955    1.5906    0.4527 C   0  0  0  0  0  0  0  0  0  0  0  0
   -1.7522    1.1861   -2.6763 H   0  0  0  0  0  0  0  0  0  0  0  0
   -0.6200   -0.6676   -1.4368 H   0  0  0  0  0  0  0  0  0  0  0  0
   -1.0761   -2.8076    2.3289 H   0  0  0  0  0  0  0  0  0  0  0  0
   -2.6476   -1.9409    2.1576 H   0  0  0  0  0  0  0  0  0  0  0  0
   -1.2636   -1.1768    3.0269 H   0  0  0  0  0  0  0  0  0  0  0  0
   -2.7720    0.3966    2.1549 H   0  0  0  0  0  0  0  0  0  0  0  0
   -3.8951    2.2351    0.9620 H   0  0  0  0  0  0  0  0  0  0  0  0
   -4.6724   -1.1138    1.4337 O   0  0  0  0  0  0  0  0  0  0  0  0
   -5.1125   -0.6524    0.3639 C   0  0  0  0  0  0  0  0  0  0  0  0
   -5.3187    0.5446    0.0238 O   0  0  0  0  0  0  0  0  0  0  0  0
   -5.3097   -1.6805   -0.7885 C   0  0  0  0  0  0  0  0  0  0  0  0
   -6.3000   -1.3463   -1.6395 F   0  0  0  0  0  0  0  0  0  0  0  0
   -4.1562   -1.7317   -1.5247 F   0  0  0  0  0  0  0  0  0  0  0  0
   -5.5521   -2.9301   -0.3529 F   0  0  0  0  0  0  0  0  0  0  0  0
  1 10  2  0  0  0  0
  2  1  1  0  0  0  0
  3  2  1  0  0  0  0
  4  5  2  0  0  0  0
  4  1  1  0  0  0  0
  5  6  1  0  0  0  0
  6  7  1  0  0  0  0
  6  9  2  0  0  0  0
  7  8  1  0  0  0  0
  8 13  1  0  0  0  0
  8 15  1  0  0  0  0
  9 16  1  0  0  0  0
 10 17  1  0  0  0  0
 10  9  1  0  0  0  0
 11  4  1  0  0  0  0
 12  5  1  0  0  0  0
 14  8  1  0  0  0  0
 19 18  1  0  0  0  0
 20 19  2  0  0  0  0
 21 24  1  0  0  0  0
 21 19  1  0  0  0  0
 22 21  1  0  0  0  0
 23 21  1  0  0  0  0
M  RAD  3   2   2   3   3  18   2
M  END
