Coordinates from ORCA-job 4-MeOPhN2+~CF3COO-_B3LYPG-6-31G_dp-NX-Scan-d89-09-n800
 OpenBabel11261920413D

 24 23  0  0  0  0  0  0  0  0999 V2000
   -2.5782    0.4023   -1.0424 C   0  0  0  0  0  0  0  0  0  0  0  0
   -3.3806    0.6412   -2.1677 N   0  0  0  0  0  0  0  0  0  0  0  0
   -3.5084    0.9741   -3.2359 N   0  0  0  0  0  0  0  0  0  0  0  0
   -1.3468    1.0900   -1.0024 C   0  0  0  0  0  0  0  0  0  0  0  0
   -0.5049    0.8648    0.0655 C   0  0  0  0  0  0  0  0  0  0  0  0
   -0.8710   -0.0506    1.0781 C   0  0  0  0  0  0  0  0  0  0  0  0
    0.0254   -0.1929    2.0710 O   0  0  0  0  0  0  0  0  0  0  0  0
   -0.2608   -1.0932    3.1428 C   0  0  0  0  0  0  0  0  0  0  0  0
   -2.0955   -0.7373    1.0011 C   0  0  0  0  0  0  0  0  0  0  0  0
   -2.9656   -0.5065   -0.0576 C   0  0  0  0  0  0  0  0  0  0  0  0
   -1.0802    1.7864   -1.7902 H   0  0  0  0  0  0  0  0  0  0  0  0
    0.4453    1.3795    0.1489 H   0  0  0  0  0  0  0  0  0  0  0  0
    0.5955   -1.0315    3.8146 H   0  0  0  0  0  0  0  0  0  0  0  0
   -0.3677   -2.1208    2.7788 H   0  0  0  0  0  0  0  0  0  0  0  0
   -1.1690   -0.7949    3.6781 H   0  0  0  0  0  0  0  0  0  0  0  0
   -2.3843   -1.4500    1.7635 H   0  0  0  0  0  0  0  0  0  0  0  0
   -3.9215   -1.0334   -0.1583 H   0  0  0  0  0  0  0  0  0  0  0  0
   -5.6800   -1.5508   -0.6865 O   0  0  0  0  0  0  0  0  0  0  0  0
   -6.0749   -0.4411   -1.0660 C   0  0  0  0  0  0  0  0  0  0  0  0
   -5.4138    0.5976   -1.3807 O   0  0  0  0  0  0  0  0  0  0  0  0
   -7.6121   -0.2256   -1.2087 C   0  0  0  0  0  0  0  0  0  0  0  0
   -8.0189    0.8540   -0.5069 F   0  0  0  0  0  0  0  0  0  0  0  0
   -7.9402   -0.0181   -2.5037 F   0  0  0  0  0  0  0  0  0  0  0  0
   -8.3155   -1.2832   -0.7738 F   0  0  0  0  0  0  0  0  0  0  0  0
  1  4  2  0  0  0  0
  1 10  1  0  0  0  0
  2  1  1  0  0  0  0
  3  2  2  0  0  0  0
  4  5  1  0  0  0  0
  5 12  1  0  0  0  0
  5  6  2  0  0  0  0
  6  7  1  0  0  0  0
  7  8  1  0  0  0  0
  8 15  1  0  0  0  0
  8 13  1  0  0  0  0
  9  6  1  0  0  0  0
  9 16  1  0  0  0  0
 10  9  2  0  0  0  0
 11  4  1  0  0  0  0
 14  8  1  0  0  0  0
 17 10  1  0  0  0  0
 19 18  1  0  0  0  0
 20 19  2  0  0  0  0
 21 19  1  0  0  0  0
 21 24  1  0  0  0  0
 21 22  1  0  0  0  0
 23 21  1  0  0  0  0
M  RAD  2   3   2  18   2
M  END
