Coordinates from ORCA-job 4-MeOPhN2+~CF3COO-_B3LYPG-6-31G_dp-NX-Scan-d89-09-n800
 OpenBabel11261920413D

 24 23  0  0  0  0  0  0  0  0999 V2000
   -2.5710    0.4257   -1.0395 C   0  0  0  0  0  0  0  0  0  0  0  0
   -3.3706    0.6829   -2.1607 N   0  0  0  0  0  0  0  0  0  0  0  0
   -3.5098    1.0408   -3.2189 N   0  0  0  0  0  0  0  0  0  0  0  0
   -1.3270    1.0928   -1.0045 C   0  0  0  0  0  0  0  0  0  0  0  0
   -0.4841    0.8533    0.0588 C   0  0  0  0  0  0  0  0  0  0  0  0
   -0.8614   -0.0557    1.0735 C   0  0  0  0  0  0  0  0  0  0  0  0
    0.0369   -0.2131    2.0620 O   0  0  0  0  0  0  0  0  0  0  0  0
   -0.2603   -1.1069    3.1366 C   0  0  0  0  0  0  0  0  0  0  0  0
   -2.0980   -0.7208    1.0022 C   0  0  0  0  0  0  0  0  0  0  0  0
   -2.9691   -0.4770   -0.0526 C   0  0  0  0  0  0  0  0  0  0  0  0
   -1.0523    1.7843   -1.7937 H   0  0  0  0  0  0  0  0  0  0  0  0
    0.4752    1.3516    0.1377 H   0  0  0  0  0  0  0  0  0  0  0  0
    0.6006   -1.0601    3.8037 H   0  0  0  0  0  0  0  0  0  0  0  0
   -0.3882   -2.1327    2.7744 H   0  0  0  0  0  0  0  0  0  0  0  0
   -1.1600   -0.7909    3.6760 H   0  0  0  0  0  0  0  0  0  0  0  0
   -2.3962   -1.4274    1.7668 H   0  0  0  0  0  0  0  0  0  0  0  0
   -3.9362   -0.9875   -0.1415 H   0  0  0  0  0  0  0  0  0  0  0  0
   -5.6969   -1.5266   -0.5770 O   0  0  0  0  0  0  0  0  0  0  0  0
   -6.0895   -0.4475   -1.0400 C   0  0  0  0  0  0  0  0  0  0  0  0
   -5.4283    0.5716   -1.4110 O   0  0  0  0  0  0  0  0  0  0  0  0
   -7.6250   -0.2524   -1.2240 C   0  0  0  0  0  0  0  0  0  0  0  0
   -8.0551    0.8455   -0.5651 F   0  0  0  0  0  0  0  0  0  0  0  0
   -7.9283   -0.0884   -2.5310 F   0  0  0  0  0  0  0  0  0  0  0  0
   -8.3289   -1.3017   -0.7704 F   0  0  0  0  0  0  0  0  0  0  0  0
  1  4  2  0  0  0  0
  1 10  1  0  0  0  0
  2  1  1  0  0  0  0
  3  2  2  0  0  0  0
  4  5  1  0  0  0  0
  5 12  1  0  0  0  0
  5  6  2  0  0  0  0
  6  7  1  0  0  0  0
  7  8  1  0  0  0  0
  8 15  1  0  0  0  0
  8 13  1  0  0  0  0
  9  6  1  0  0  0  0
  9 16  1  0  0  0  0
 10  9  2  0  0  0  0
 11  4  1  0  0  0  0
 14  8  1  0  0  0  0
 17 10  1  0  0  0  0
 19 18  1  0  0  0  0
 20 19  2  0  0  0  0
 21 19  1  0  0  0  0
 21 24  1  0  0  0  0
 21 22  1  0  0  0  0
 23 21  1  0  0  0  0
M  RAD  2   3   2  18   2
M  END
