Coordinates from ORCA-job 4-MeOPhN2+~CF3COO-_B3LYPG-6-31G_dp-NX-Scan-d89-09-n800
 OpenBabel11261920413D

 24 23  0  0  0  0  0  0  0  0999 V2000
   -2.6552    0.1891   -1.0922 C   0  0  0  0  0  0  0  0  0  0  0  0
   -3.4637    0.3743   -2.2332 N   0  0  0  0  0  0  0  0  0  0  0  0
   -3.5414    0.8067   -3.2730 N   0  0  0  0  0  0  0  0  0  0  0  0
   -1.4543    0.9236   -1.0555 C   0  0  0  0  0  0  0  0  0  0  0  0
   -0.6132    0.7666    0.0270 C   0  0  0  0  0  0  0  0  0  0  0  0
   -0.9546   -0.1204    1.0701 C   0  0  0  0  0  0  0  0  0  0  0  0
   -0.0634   -0.1949    2.0774 O   0  0  0  0  0  0  0  0  0  0  0  0
   -0.3368   -1.0543    3.1836 C   0  0  0  0  0  0  0  0  0  0  0  0
   -2.1540   -0.8502    1.0086 C   0  0  0  0  0  0  0  0  0  0  0  0
   -3.0111   -0.6931   -0.0743 C   0  0  0  0  0  0  0  0  0  0  0  0
   -1.2068    1.6045   -1.8622 H   0  0  0  0  0  0  0  0  0  0  0  0
    0.3170    1.3183    0.0986 H   0  0  0  0  0  0  0  0  0  0  0  0
    0.5078   -0.9377    3.8630 H   0  0  0  0  0  0  0  0  0  0  0  0
   -0.4082   -2.1006    2.8655 H   0  0  0  0  0  0  0  0  0  0  0  0
   -1.2605   -0.7606    3.6950 H   0  0  0  0  0  0  0  0  0  0  0  0
   -2.4316   -1.5361    1.7990 H   0  0  0  0  0  0  0  0  0  0  0  0
   -3.9428   -1.2358   -0.1584 H   0  0  0  0  0  0  0  0  0  0  0  0
   -5.1979   -0.6399   -1.7906 O   0  0  0  0  0  0  0  0  0  0  0  0
   -5.9433    0.2599   -1.2516 C   0  0  0  0  0  0  0  0  0  0  0  0
   -5.6320    1.3812   -0.8633 O   0  0  0  0  0  0  0  0  0  0  0  0
   -7.4063   -0.2339   -1.0676 C   0  0  0  0  0  0  0  0  0  0  0  0
   -8.2171    0.7467   -0.6462 F   0  0  0  0  0  0  0  0  0  0  0  0
   -7.9128   -0.7286   -2.2144 F   0  0  0  0  0  0  0  0  0  0  0  0
   -7.4417   -1.2248   -0.1436 F   0  0  0  0  0  0  0  0  0  0  0  0
  1  4  2  0  0  0  0
  1 10  1  0  0  0  0
  2  1  1  0  0  0  0
  3  2  2  0  0  0  0
  4  5  1  0  0  0  0
  5 12  1  0  0  0  0
  5  6  2  0  0  0  0
  6  7  1  0  0  0  0
  7  8  1  0  0  0  0
  8 15  1  0  0  0  0
  8 13  1  0  0  0  0
  9  6  1  0  0  0  0
  9 16  1  0  0  0  0
 10  9  2  0  0  0  0
 11  4  1  0  0  0  0
 14  8  1  0  0  0  0
 17 10  1  0  0  0  0
 18 19  2  0  0  0  0
 19 21  1  0  0  0  0
 19 20  1  0  0  0  0
 21 22  1  0  0  0  0
 21 24  1  0  0  0  0
 23 21  1  0  0  0  0
M  RAD  2   3   2  20   2
M  END
