Coordinates from ORCA-job 4-MeOPhN2+~CF3COO-_B3LYPG-6-31G_dp-NX-Scan-d89-09-n800
 OpenBabel11261920413D

 24 23  0  0  0  0  0  0  0  0999 V2000
   -2.9533    1.4952   -0.8604 C   0  0  0  0  0  0  0  0  0  0  0  0
   -3.9294    2.0769   -1.5791 N   0  0  0  0  0  0  0  0  0  0  0  0
   -4.7837    2.5184   -2.1548 N   0  0  0  0  0  0  0  0  0  0  0  0
   -2.0109    0.6702   -1.5300 C   0  0  0  0  0  0  0  0  0  0  0  0
   -1.2409   -0.1744   -0.7764 C   0  0  0  0  0  0  0  0  0  0  0  0
   -1.4617   -0.2656    0.6254 C   0  0  0  0  0  0  0  0  0  0  0  0
   -0.8196   -1.2559    1.2410 O   0  0  0  0  0  0  0  0  0  0  0  0
   -1.3164   -1.6895    2.5245 C   0  0  0  0  0  0  0  0  0  0  0  0
   -2.3131    0.6396    1.2844 C   0  0  0  0  0  0  0  0  0  0  0  0
   -3.0949    1.5075    0.5522 C   0  0  0  0  0  0  0  0  0  0  0  0
   -1.9514    0.6803   -2.6124 H   0  0  0  0  0  0  0  0  0  0  0  0
   -0.5371   -0.8589   -1.2349 H   0  0  0  0  0  0  0  0  0  0  0  0
   -0.8323   -2.6472    2.7101 H   0  0  0  0  0  0  0  0  0  0  0  0
   -2.4023   -1.8074    2.4691 H   0  0  0  0  0  0  0  0  0  0  0  0
   -1.0338   -0.9804    3.3098 H   0  0  0  0  0  0  0  0  0  0  0  0
   -2.4488    0.5914    2.3558 H   0  0  0  0  0  0  0  0  0  0  0  0
   -3.8053    2.1672    1.0252 H   0  0  0  0  0  0  0  0  0  0  0  0
   -4.3400   -1.4236    0.7471 O   0  0  0  0  0  0  0  0  0  0  0  0
   -5.0604   -0.6491    0.0985 C   0  0  0  0  0  0  0  0  0  0  0  0
   -5.3928    0.5476    0.3197 O   0  0  0  0  0  0  0  0  0  0  0  0
   -5.5680   -1.1691   -1.2850 C   0  0  0  0  0  0  0  0  0  0  0  0
   -6.8747   -0.9145   -1.4946 F   0  0  0  0  0  0  0  0  0  0  0  0
   -4.8822   -0.5161   -2.2898 F   0  0  0  0  0  0  0  0  0  0  0  0
   -5.3706   -2.4824   -1.4834 F   0  0  0  0  0  0  0  0  0  0  0  0
  1 10  1  0  0  0  0
  2  1  1  0  0  0  0
  3  2  1  0  0  0  0
  4  1  2  0  0  0  0
  4  5  1  0  0  0  0
  5  6  2  0  0  0  0
  6  7  1  0  0  0  0
  6  9  1  0  0  0  0
  7  8  1  0  0  0  0
  8 13  1  0  0  0  0
  8 15  1  0  0  0  0
  9 16  1  0  0  0  0
 10 17  1  0  0  0  0
 10  9  2  0  0  0  0
 11  4  1  0  0  0  0
 12  5  1  0  0  0  0
 14  8  1  0  0  0  0
 19 20  2  0  0  0  0
 19 18  1  0  0  0  0
 21 19  1  0  0  0  0
 22 21  1  0  0  0  0
 23 21  1  0  0  0  0
 24 21  1  0  0  0  0
M  RAD  3   2   2   3   3  18   2
M  END
