Coordinates from ORCA-job 4-MeOPhN2+~CF3COO-_B3LYPG-6-31G_dp-NX-Scan-d89-09-n800
 OpenBabel11261920413D

 24 23  0  0  0  0  0  0  0  0999 V2000
   -2.6311    0.3044   -1.0359 C   0  0  0  0  0  0  0  0  0  0  0  0
   -3.4593    0.4854   -2.1606 N   0  0  0  0  0  0  0  0  0  0  0  0
   -3.5611    0.6889   -3.2649 N   0  0  0  0  0  0  0  0  0  0  0  0
   -1.4213    1.0221   -1.0199 C   0  0  0  0  0  0  0  0  0  0  0  0
   -0.5687    0.8471    0.0523 C   0  0  0  0  0  0  0  0  0  0  0  0
   -0.9067   -0.0465    1.0905 C   0  0  0  0  0  0  0  0  0  0  0  0
   -0.0029   -0.1405    2.0847 O   0  0  0  0  0  0  0  0  0  0  0  0
   -0.2651   -1.0164    3.1811 C   0  0  0  0  0  0  0  0  0  0  0  0
   -2.1144   -0.7660    1.0385 C   0  0  0  0  0  0  0  0  0  0  0  0
   -2.9913   -0.5825   -0.0229 C   0  0  0  0  0  0  0  0  0  0  0  0
   -1.1754    1.7042   -1.8264 H   0  0  0  0  0  0  0  0  0  0  0  0
    0.3687    1.3872    0.1164 H   0  0  0  0  0  0  0  0  0  0  0  0
    0.5905   -0.9157    3.8492 H   0  0  0  0  0  0  0  0  0  0  0  0
   -0.3475   -2.0568    2.8470 H   0  0  0  0  0  0  0  0  0  0  0  0
   -1.1792   -0.7260    3.7112 H   0  0  0  0  0  0  0  0  0  0  0  0
   -2.3809   -1.4660    1.8203 H   0  0  0  0  0  0  0  0  0  0  0  0
   -3.9209   -1.1366   -0.1239 H   0  0  0  0  0  0  0  0  0  0  0  0
   -5.5371   -1.4859   -1.3944 O   0  0  0  0  0  0  0  0  0  0  0  0
   -5.9889   -0.3424   -1.2593 C   0  0  0  0  0  0  0  0  0  0  0  0
   -5.3600    0.7627   -1.2062 O   0  0  0  0  0  0  0  0  0  0  0  0
   -7.5316   -0.1642   -1.1494 C   0  0  0  0  0  0  0  0  0  0  0  0
   -7.8611    0.6232   -0.1040 F   0  0  0  0  0  0  0  0  0  0  0  0
   -8.0146    0.4178   -2.2693 F   0  0  0  0  0  0  0  0  0  0  0  0
   -8.1639   -1.3378   -0.9921 F   0  0  0  0  0  0  0  0  0  0  0  0
  1  4  2  0  0  0  0
  1 10  1  0  0  0  0
  2  1  1  0  0  0  0
  3  2  2  0  0  0  0
  4  5  1  0  0  0  0
  5 12  1  0  0  0  0
  5  6  2  0  0  0  0
  6  7  1  0  0  0  0
  7  8  1  0  0  0  0
  8 15  1  0  0  0  0
  8 13  1  0  0  0  0
  9  6  1  0  0  0  0
  9 16  1  0  0  0  0
 10  9  2  0  0  0  0
 11  4  1  0  0  0  0
 14  8  1  0  0  0  0
 17 10  1  0  0  0  0
 18 19  2  0  0  0  0
 19 20  1  0  0  0  0
 19 21  1  0  0  0  0
 21 24  1  0  0  0  0
 21 22  1  0  0  0  0
 23 21  1  0  0  0  0
M  RAD  2   3   2  20   2
M  END
