Coordinates from ORCA-job 4-MeOPhN2+~CF3COO-_B3LYPG-6-31G_dp-NX-Scan-d89-09-n800
 OpenBabel11261920413D

 24 23  0  0  0  0  0  0  0  0999 V2000
   -2.5215   -0.4575    0.2722 C   0  0  0  0  0  0  0  0  0  0  0  0
   -3.1996   -1.5958    0.8478 N   0  0  0  0  0  0  0  0  0  0  0  0
   -4.4616   -1.5528    0.7419 N   0  0  0  0  0  0  0  0  0  0  0  0
   -1.1299   -0.4669    0.4610 C   0  0  0  0  0  0  0  0  0  0  0  0
   -0.3443    0.5591   -0.0362 C   0  0  0  0  0  0  0  0  0  0  0  0
   -0.9307    1.6251   -0.7392 C   0  0  0  0  0  0  0  0  0  0  0  0
   -0.0722    2.5839   -1.1849 O   0  0  0  0  0  0  0  0  0  0  0  0
   -0.6072    3.6882   -1.8992 C   0  0  0  0  0  0  0  0  0  0  0  0
   -2.3154    1.6391   -0.9344 C   0  0  0  0  0  0  0  0  0  0  0  0
   -3.1059    0.6008   -0.4297 C   0  0  0  0  0  0  0  0  0  0  0  0
   -0.6873   -1.2949    1.0045 H   0  0  0  0  0  0  0  0  0  0  0  0
    0.7311    0.5615    0.1076 H   0  0  0  0  0  0  0  0  0  0  0  0
    0.2430    4.3223   -2.1537 H   0  0  0  0  0  0  0  0  0  0  0  0
   -1.3149    4.2613   -1.2862 H   0  0  0  0  0  0  0  0  0  0  0  0
   -1.1069    3.3685   -2.8226 H   0  0  0  0  0  0  0  0  0  0  0  0
   -2.7953    2.4457   -1.4753 H   0  0  0  0  0  0  0  0  0  0  0  0
   -4.1757    0.6489   -0.6089 H   0  0  0  0  0  0  0  0  0  0  0  0
   -5.2270   -1.1600    0.4776 O   0  0  0  0  0  0  0  0  0  0  0  0
   -6.3238   -3.0313    1.4462 C   0  0  0  0  0  0  0  0  0  0  0  0
   -5.1303   -3.2232    1.6240 O   0  0  0  0  0  0  0  0  0  0  0  0
   -7.2490   -4.1256    2.0119 C   0  0  0  0  0  0  0  0  0  0  0  0
   -6.6317   -5.1807    2.5766 F   0  0  0  0  0  0  0  0  0  0  0  0
   -8.0420   -3.5648    2.9463 F   0  0  0  0  0  0  0  0  0  0  0  0
   -8.0257   -4.5910    1.0147 F   0  0  0  0  0  0  0  0  0  0  0  0
  1  4  1  0  0  0  0
  1  2  1  0  0  0  0
  3  2  1  0  0  0  0
  4 11  1  0  0  0  0
  5 12  1  0  0  0  0
  5  4  2  0  0  0  0
  6  5  1  0  0  0  0
  7  6  1  0  0  0  0
  8 14  1  0  0  0  0
  8  7  1  0  0  0  0
  9  6  2  0  0  0  0
  9 10  1  0  0  0  0
 10  1  2  0  0  0  0
 13  8  1  0  0  0  0
 15  8  1  0  0  0  0
 16  9  1  0  0  0  0
 17 10  1  0  0  0  0
 18  3  2  0  0  0  0
 19 20  1  0  0  0  0
 19 21  1  0  0  0  0
 21 22  1  0  0  0  0
 21 23  1  0  0  0  0
 24 21  1  0  0  0  0
M  RAD  3   2   2  19   3  20   2
M  END
