Coordinates from ORCA-job 4-MeOPhN2+~CF3COO-_B3LYPG-6-31G_dp-NX-Scan-d89-09-n800
 OpenBabel11261920413D

 24 23  0  0  0  0  0  0  0  0999 V2000
   -2.6709    0.1812   -1.0677 C   0  0  0  0  0  0  0  0  0  0  0  0
   -3.5004    0.3611   -2.1956 N   0  0  0  0  0  0  0  0  0  0  0  0
   -3.5925    0.7820   -3.2389 N   0  0  0  0  0  0  0  0  0  0  0  0
   -1.4602    0.8986   -1.0604 C   0  0  0  0  0  0  0  0  0  0  0  0
   -0.6032    0.7439    0.0103 C   0  0  0  0  0  0  0  0  0  0  0  0
   -0.9392   -0.1242    1.0704 C   0  0  0  0  0  0  0  0  0  0  0  0
   -0.0321   -0.1985    2.0641 O   0  0  0  0  0  0  0  0  0  0  0  0
   -0.2984   -1.0414    3.1843 C   0  0  0  0  0  0  0  0  0  0  0  0
   -2.1493   -0.8379    1.0386 C   0  0  0  0  0  0  0  0  0  0  0  0
   -3.0217   -0.6822   -0.0326 C   0  0  0  0  0  0  0  0  0  0  0  0
   -1.2171    1.5647   -1.8807 H   0  0  0  0  0  0  0  0  0  0  0  0
    0.3358    1.2832    0.0592 H   0  0  0  0  0  0  0  0  0  0  0  0
    0.5594   -0.9296    3.8479 H   0  0  0  0  0  0  0  0  0  0  0  0
   -0.3901   -2.0902    2.8796 H   0  0  0  0  0  0  0  0  0  0  0  0
   -1.2089   -0.7291    3.7083 H   0  0  0  0  0  0  0  0  0  0  0  0
   -2.4231   -1.5097    1.8421 H   0  0  0  0  0  0  0  0  0  0  0  0
   -3.9593   -1.2171   -0.0932 H   0  0  0  0  0  0  0  0  0  0  0  0
   -5.1872   -0.5864   -1.7906 O   0  0  0  0  0  0  0  0  0  0  0  0
   -5.9559    0.2747   -1.2134 C   0  0  0  0  0  0  0  0  0  0  0  0
   -5.6610    1.3625   -0.7344 O   0  0  0  0  0  0  0  0  0  0  0  0
   -7.4233   -0.2328   -1.1328 C   0  0  0  0  0  0  0  0  0  0  0  0
   -8.2520    0.7119   -0.6670 F   0  0  0  0  0  0  0  0  0  0  0  0
   -7.8772   -0.6288   -2.3382 F   0  0  0  0  0  0  0  0  0  0  0  0
   -7.4959   -1.2961   -0.2972 F   0  0  0  0  0  0  0  0  0  0  0  0
  1  4  2  0  0  0  0
  1 10  1  0  0  0  0
  2  1  1  0  0  0  0
  3  2  2  0  0  0  0
  4  5  1  0  0  0  0
  5 12  1  0  0  0  0
  5  6  2  0  0  0  0
  6  7  1  0  0  0  0
  7  8  1  0  0  0  0
  8 15  1  0  0  0  0
  8 13  1  0  0  0  0
  9  6  1  0  0  0  0
  9 16  1  0  0  0  0
 10  9  2  0  0  0  0
 11  4  1  0  0  0  0
 14  8  1  0  0  0  0
 17 10  1  0  0  0  0
 18 19  2  0  0  0  0
 19 21  1  0  0  0  0
 19 20  1  0  0  0  0
 21 22  1  0  0  0  0
 21 24  1  0  0  0  0
 23 21  1  0  0  0  0
M  RAD  2   3   2  20   2
M  END
