Coordinates from ORCA-job 4-MeOPhN2+~CF3COO-_B3LYPG-6-31G_dp-NX-Scan-d89-09-n800
 OpenBabel11261920413D

 24 23  0  0  0  0  0  0  0  0999 V2000
   -1.8260    2.1804   -1.4552 C   0  0  0  0  0  0  0  0  0  0  0  0
   -2.0552    3.2312   -2.2604 N   0  0  0  0  0  0  0  0  0  0  0  0
   -2.2513    4.1187   -2.9296 N   0  0  0  0  0  0  0  0  0  0  0  0
   -0.4794    1.7565   -1.2507 C   0  0  0  0  0  0  0  0  0  0  0  0
   -0.2577    0.6966   -0.4166 C   0  0  0  0  0  0  0  0  0  0  0  0
   -1.3491    0.0413    0.2338 C   0  0  0  0  0  0  0  0  0  0  0  0
   -1.0086   -0.9465    1.0280 O   0  0  0  0  0  0  0  0  0  0  0  0
   -2.0222   -1.6575    1.8012 C   0  0  0  0  0  0  0  0  0  0  0  0
   -2.6901    0.4631    0.0151 C   0  0  0  0  0  0  0  0  0  0  0  0
   -2.9242    1.5227   -0.8250 C   0  0  0  0  0  0  0  0  0  0  0  0
    0.3360    2.2711   -1.7460 H   0  0  0  0  0  0  0  0  0  0  0  0
    0.7459    0.3345   -0.2246 H   0  0  0  0  0  0  0  0  0  0  0  0
   -1.4600   -2.4129    2.3473 H   0  0  0  0  0  0  0  0  0  0  0  0
   -2.7943   -2.1117    1.1595 H   0  0  0  0  0  0  0  0  0  0  0  0
   -2.4959   -0.9579    2.4946 H   0  0  0  0  0  0  0  0  0  0  0  0
   -3.5753   -0.0428    0.4665 H   0  0  0  0  0  0  0  0  0  0  0  0
   -3.9414    1.8524   -1.0100 H   0  0  0  0  0  0  0  0  0  0  0  0
   -4.6028   -2.7771    0.6533 O   0  0  0  0  0  0  0  0  0  0  0  0
   -5.4096   -1.8284    0.7075 C   0  0  0  0  0  0  0  0  0  0  0  0
   -5.2085   -0.5890    0.8203 O   0  0  0  0  0  0  0  0  0  0  0  0
   -6.9213   -2.1956    0.6143 C   0  0  0  0  0  0  0  0  0  0  0  0
   -7.6102   -1.7155    1.6765 F   0  0  0  0  0  0  0  0  0  0  0  0
   -7.4775   -1.6514   -0.4983 F   0  0  0  0  0  0  0  0  0  0  0  0
   -7.1450   -3.5223    0.5605 F   0  0  0  0  0  0  0  0  0  0  0  0
  1  4  2  0  0  0  0
  1 10  1  0  0  0  0
  2  1  1  0  0  0  0
  3  2  1  0  0  0  0
  4  5  1  0  0  0  0
  5 12  1  0  0  0  0
  5  6  2  0  0  0  0
  6  7  1  0  0  0  0
  7  8  1  0  0  0  0
  8 13  1  0  0  0  0
  8 15  1  0  0  0  0
  9  6  1  0  0  0  0
  9 16  1  0  0  0  0
 10  9  2  0  0  0  0
 11  4  1  0  0  0  0
 14  8  1  0  0  0  0
 17 10  1  0  0  0  0
 18 19  2  0  0  0  0
 19 20  1  0  0  0  0
 21 19  1  0  0  0  0
 21 22  1  0  0  0  0
 23 21  1  0  0  0  0
 24 21  1  0  0  0  0
M  RAD  3   2   2   3   3  20   2
M  END
