Coordinates from ORCA-job 4-MeOPhN2+~CF3COO-_B3LYPG-6-31G_dp-NX-Scan-d89-09-n800
 OpenBabel11261920413D

 24 23  0  0  0  0  0  0  0  0999 V2000
   -2.4558    0.3299   -1.1123 C   0  0  0  0  0  0  0  0  0  0  0  0
   -3.2595    0.5908   -2.2012 N   0  0  0  0  0  0  0  0  0  0  0  0
   -3.7929    0.8410   -3.1518 N   0  0  0  0  0  0  0  0  0  0  0  0
   -1.0711    0.5733   -1.2724 C   0  0  0  0  0  0  0  0  0  0  0  0
   -0.2321    0.3271   -0.2103 C   0  0  0  0  0  0  0  0  0  0  0  0
   -0.7577   -0.1595    1.0105 C   0  0  0  0  0  0  0  0  0  0  0  0
    0.1489   -0.3637    1.9788 O   0  0  0  0  0  0  0  0  0  0  0  0
   -0.2864   -0.8486    3.2534 C   0  0  0  0  0  0  0  0  0  0  0  0
   -2.1380   -0.3943    1.1452 C   0  0  0  0  0  0  0  0  0  0  0  0
   -3.0040   -0.1531    0.0880 C   0  0  0  0  0  0  0  0  0  0  0  0
   -0.6863    0.9469   -2.2151 H   0  0  0  0  0  0  0  0  0  0  0  0
    0.8356    0.4997   -0.2836 H   0  0  0  0  0  0  0  0  0  0  0  0
    0.6153   -0.9240    3.8603 H   0  0  0  0  0  0  0  0  0  0  0  0
   -0.7514   -1.8357    3.1612 H   0  0  0  0  0  0  0  0  0  0  0  0
   -0.9882   -0.1497    3.7211 H   0  0  0  0  0  0  0  0  0  0  0  0
   -2.5534   -0.7677    2.0727 H   0  0  0  0  0  0  0  0  0  0  0  0
   -4.0826   -0.3323    0.1824 H   0  0  0  0  0  0  0  0  0  0  0  0
   -5.4080    0.1202   -1.6631 O   0  0  0  0  0  0  0  0  0  0  0  0
   -6.2576   -0.2898   -0.8166 C   0  0  0  0  0  0  0  0  0  0  0  0
   -6.0510   -0.6604    0.3500 O   0  0  0  0  0  0  0  0  0  0  0  0
   -7.7177   -0.3189   -1.3469 C   0  0  0  0  0  0  0  0  0  0  0  0
   -8.5975   -0.7377   -0.4216 F   0  0  0  0  0  0  0  0  0  0  0  0
   -8.1084    0.9119   -1.7531 F   0  0  0  0  0  0  0  0  0  0  0  0
   -7.8239   -1.1456   -2.4139 F   0  0  0  0  0  0  0  0  0  0  0  0
  1 10  1  0  0  0  0
  2  1  1  0  0  0  0
  3  2  1  0  0  0  0
  4  1  2  0  0  0  0
  4  5  1  0  0  0  0
  5  6  2  0  0  0  0
  6  9  1  0  0  0  0
  6  7  1  0  0  0  0
  7  8  1  0  0  0  0
  8 15  1  0  0  0  0
  8 13  1  0  0  0  0
  9 16  1  0  0  0  0
 10 17  1  0  0  0  0
 10  9  2  0  0  0  0
 11  4  1  0  0  0  0
 12  5  1  0  0  0  0
 14  8  1  0  0  0  0
 18 19  2  0  0  0  0
 19 20  1  0  0  0  0
 21 19  1  0  0  0  0
 21 22  1  0  0  0  0
 23 21  1  0  0  0  0
 24 21  1  0  0  0  0
M  RAD  3   2   2   3   3  20   2
M  END
