Coordinates from ORCA-job 4-MeOPhN2+~CF3COO-_B3LYPG-6-31G_dp-NX-Scan-d89-09-n800
 OpenBabel11261920413D

 24 23  0  0  0  0  0  0  0  0999 V2000
   -2.5748    0.6480   -0.9394 C   0  0  0  0  0  0  0  0  0  0  0  0
   -3.4014    1.0796   -1.9779 N   0  0  0  0  0  0  0  0  0  0  0  0
   -3.6202    1.6361   -2.9297 N   0  0  0  0  0  0  0  0  0  0  0  0
   -1.2380    1.1095   -1.0015 C   0  0  0  0  0  0  0  0  0  0  0  0
   -0.3615    0.7261   -0.0127 C   0  0  0  0  0  0  0  0  0  0  0  0
   -0.8005   -0.1134    1.0386 C   0  0  0  0  0  0  0  0  0  0  0  0
    0.1370   -0.4243    1.9494 O   0  0  0  0  0  0  0  0  0  0  0  0
   -0.2151   -1.2625    3.0533 C   0  0  0  0  0  0  0  0  0  0  0  0
   -2.1325   -0.5585    1.0754 C   0  0  0  0  0  0  0  0  0  0  0  0
   -3.0335   -0.1817    0.0863 C   0  0  0  0  0  0  0  0  0  0  0  0
   -0.9186    1.7525   -1.8147 H   0  0  0  0  0  0  0  0  0  0  0  0
    0.6708    1.0567   -0.0178 H   0  0  0  0  0  0  0  0  0  0  0  0
    0.6955   -1.3689    3.6424 H   0  0  0  0  0  0  0  0  0  0  0  0
   -0.5480   -2.2477    2.7105 H   0  0  0  0  0  0  0  0  0  0  0  0
   -0.9973   -0.8002    3.6651 H   0  0  0  0  0  0  0  0  0  0  0  0
   -2.4855   -1.2017    1.8718 H   0  0  0  0  0  0  0  0  0  0  0  0
   -4.0760   -0.5285    0.1133 H   0  0  0  0  0  0  0  0  0  0  0  0
   -5.8635   -1.0622    0.0980 O   0  0  0  0  0  0  0  0  0  0  0  0
   -6.1773   -0.4266   -0.9175 C   0  0  0  0  0  0  0  0  0  0  0  0
   -5.4640    0.3076   -1.6658 O   0  0  0  0  0  0  0  0  0  0  0  0
   -7.6580   -0.5063   -1.3962 C   0  0  0  0  0  0  0  0  0  0  0  0
   -8.2175    0.7233   -1.4334 F   0  0  0  0  0  0  0  0  0  0  0  0
   -7.7305   -1.0238   -2.6429 F   0  0  0  0  0  0  0  0  0  0  0  0
   -8.4131   -1.2730   -0.5927 F   0  0  0  0  0  0  0  0  0  0  0  0
  1 10  1  0  0  0  0
  2  1  1  0  0  0  0
  3  2  2  0  0  0  0
  4  1  2  0  0  0  0
  4  5  1  0  0  0  0
  5  6  2  0  0  0  0
  6  9  1  0  0  0  0
  6  7  1  0  0  0  0
  7  8  1  0  0  0  0
  8 13  1  0  0  0  0
  8 15  1  0  0  0  0
  9 16  1  0  0  0  0
 10 17  1  0  0  0  0
 10  9  2  0  0  0  0
 11  4  1  0  0  0  0
 12  5  1  0  0  0  0
 14  8  1  0  0  0  0
 19 18  1  0  0  0  0
 20 19  2  0  0  0  0
 21 19  1  0  0  0  0
 21 24  1  0  0  0  0
 22 21  1  0  0  0  0
 23 21  1  0  0  0  0
M  RAD  2   3   2  18   2
M  END
