Coordinates from ORCA-job 4-MeOPhN2+~CF3COO-_B3LYPG-6-31G_dp-NX-Scan-d89-09-n800
 OpenBabel11261920413D

 24 23  0  0  0  0  0  0  0  0999 V2000
   -2.9479    1.5735   -0.8975 C   0  0  0  0  0  0  0  0  0  0  0  0
   -3.8286    2.2792   -1.6201 N   0  0  0  0  0  0  0  0  0  0  0  0
   -4.5909    2.8579   -2.2103 N   0  0  0  0  0  0  0  0  0  0  0  0
   -2.0259    0.7246   -1.5716 C   0  0  0  0  0  0  0  0  0  0  0  0
   -1.3092   -0.1714   -0.8284 C   0  0  0  0  0  0  0  0  0  0  0  0
   -1.5466   -0.2838    0.5727 C   0  0  0  0  0  0  0  0  0  0  0  0
   -0.9259   -1.2953    1.1725 O   0  0  0  0  0  0  0  0  0  0  0  0
   -1.4039   -1.7169    2.4683 C   0  0  0  0  0  0  0  0  0  0  0  0
   -2.3818    0.6291    1.2382 C   0  0  0  0  0  0  0  0  0  0  0  0
   -3.1312    1.5335    0.5126 C   0  0  0  0  0  0  0  0  0  0  0  0
   -1.9352    0.7700   -2.6508 H   0  0  0  0  0  0  0  0  0  0  0  0
   -0.6213   -0.8687   -1.2918 H   0  0  0  0  0  0  0  0  0  0  0  0
   -0.9329   -2.6828    2.6450 H   0  0  0  0  0  0  0  0  0  0  0  0
   -2.4927   -1.8121    2.4345 H   0  0  0  0  0  0  0  0  0  0  0  0
   -1.0880   -1.0103    3.2431 H   0  0  0  0  0  0  0  0  0  0  0  0
   -2.5448    0.5551    2.3038 H   0  0  0  0  0  0  0  0  0  0  0  0
   -3.8106    2.2190    0.9946 H   0  0  0  0  0  0  0  0  0  0  0  0
   -4.3697   -1.4529    0.9598 O   0  0  0  0  0  0  0  0  0  0  0  0
   -5.0152   -0.6998    0.2119 C   0  0  0  0  0  0  0  0  0  0  0  0
   -5.3257    0.5168    0.3430 O   0  0  0  0  0  0  0  0  0  0  0  0
   -5.4541   -1.2824   -1.1681 C   0  0  0  0  0  0  0  0  0  0  0  0
   -6.7732   -1.1220   -1.3984 F   0  0  0  0  0  0  0  0  0  0  0  0
   -4.8002   -0.6146   -2.1772 F   0  0  0  0  0  0  0  0  0  0  0  0
   -5.1684   -2.5860   -1.3239 F   0  0  0  0  0  0  0  0  0  0  0  0
  1 10  1  0  0  0  0
  2  1  1  0  0  0  0
  3  2  1  0  0  0  0
  4  1  2  0  0  0  0
  4  5  1  0  0  0  0
  5  6  2  0  0  0  0
  6  7  1  0  0  0  0
  6  9  1  0  0  0  0
  7  8  1  0  0  0  0
  8 13  1  0  0  0  0
  8 15  1  0  0  0  0
  9 16  1  0  0  0  0
 10 17  1  0  0  0  0
 10  9  2  0  0  0  0
 11  4  1  0  0  0  0
 12  5  1  0  0  0  0
 14  8  1  0  0  0  0
 19 20  2  0  0  0  0
 19 18  1  0  0  0  0
 21 19  1  0  0  0  0
 22 21  1  0  0  0  0
 23 21  1  0  0  0  0
 24 21  1  0  0  0  0
M  RAD  3   2   2   3   3  18   2
M  END
