Coordinates from ORCA-job 4-MeOPhN2+~CF3COO-_B3LYPG-6-31G_dp-NX-Scan-d89-09-n800
 OpenBabel11261920413D

 24 24  0  0  0  0  0  0  0  0999 V2000
   -1.9053   -1.0098    0.5171 C   0  0  0  0  0  0  0  0  0  0  0  0
   -2.1019   -2.2440    1.1405 N   0  0  0  0  0  0  0  0  0  0  0  0
   -2.9484   -2.9891    1.4677 N   0  0  0  0  0  0  0  0  0  0  0  0
   -0.5633   -0.5955    0.4073 C   0  0  0  0  0  0  0  0  0  0  0  0
   -0.2586    0.6131   -0.1859 C   0  0  0  0  0  0  0  0  0  0  0  0
   -1.2930    1.4317   -0.6803 C   0  0  0  0  0  0  0  0  0  0  0  0
   -0.8969    2.5919   -1.2425 O   0  0  0  0  0  0  0  0  0  0  0  0
   -1.8816    3.4798   -1.7696 C   0  0  0  0  0  0  0  0  0  0  0  0
   -2.6329    1.0176   -0.5687 C   0  0  0  0  0  0  0  0  0  0  0  0
   -2.9457   -0.1984    0.0253 C   0  0  0  0  0  0  0  0  0  0  0  0
    0.2184   -1.2389    0.7957 H   0  0  0  0  0  0  0  0  0  0  0  0
    0.7657    0.9554   -0.2829 H   0  0  0  0  0  0  0  0  0  0  0  0
   -1.3297    4.3355   -2.1580 H   0  0  0  0  0  0  0  0  0  0  0  0
   -2.5734    3.8154   -0.9890 H   0  0  0  0  0  0  0  0  0  0  0  0
   -2.4452    3.0100   -2.5837 H   0  0  0  0  0  0  0  0  0  0  0  0
   -3.4379    1.6365   -0.9444 H   0  0  0  0  0  0  0  0  0  0  0  0
   -3.9718   -0.5266    0.1175 H   0  0  0  0  0  0  0  0  0  0  0  0
   -4.5300   -2.3941    0.9373 O   0  0  0  0  0  0  0  0  0  0  0  0
   -5.5101   -2.8687    1.6674 C   0  0  0  0  0  0  0  0  0  0  0  0
   -5.4769   -3.5568    2.6621 O   0  0  0  0  0  0  0  0  0  0  0  0
   -6.8660   -2.4105    1.0556 C   0  0  0  0  0  0  0  0  0  0  0  0
   -7.8805   -2.6433    1.8940 F   0  0  0  0  0  0  0  0  0  0  0  0
   -6.8488   -1.0854    0.7767 F   0  0  0  0  0  0  0  0  0  0  0  0
   -7.1100   -3.0661   -0.0973 F   0  0  0  0  0  0  0  0  0  0  0  0
  1  2  1  0  0  0  0
  2  3  1  0  0  0  0
  4  1  1  0  0  0  0
  4 11  1  0  0  0  0
  5  4  2  0  0  0  0
  6  9  2  0  0  0  0
  6  5  1  0  0  0  0
  7  6  1  0  0  0  0
  8  7  1  0  0  0  0
  8 14  1  0  0  0  0
  9 10  1  0  0  0  0
 10 17  1  0  0  0  0
 10  1  2  0  0  0  0
 12  5  1  0  0  0  0
 13  8  1  0  0  0  0
 15  8  1  0  0  0  0
 16  9  1  0  0  0  0
 18  3  1  0  0  0  0
 18 19  1  0  0  0  0
 19 20  2  0  0  0  0
 21 19  1  0  0  0  0
 21 22  1  0  0  0  0
 23 21  1  0  0  0  0
 24 21  1  0  0  0  0
M  RAD  2   2   2   3   2
M  END
