Coordinates from ORCA-job 4-MeOPhN2+~CF3COO-_B3LYPG-6-31G_dp-NX-Scan-d89-09-n800
 OpenBabel11261920413D

 24 23  0  0  0  0  0  0  0  0999 V2000
   -1.7302    2.2696   -1.4724 C   0  0  0  0  0  0  0  0  0  0  0  0
   -1.8924    3.3616   -2.2397 N   0  0  0  0  0  0  0  0  0  0  0  0
   -2.0119    4.2860   -2.8773 N   0  0  0  0  0  0  0  0  0  0  0  0
   -0.4006    1.8493   -1.1701 C   0  0  0  0  0  0  0  0  0  0  0  0
   -0.2369    0.7595   -0.3623 C   0  0  0  0  0  0  0  0  0  0  0  0
   -1.3704    0.0723    0.1731 C   0  0  0  0  0  0  0  0  0  0  0  0
   -1.0819   -0.9240    0.9756 O   0  0  0  0  0  0  0  0  0  0  0  0
   -2.1355   -1.6535    1.6752 C   0  0  0  0  0  0  0  0  0  0  0  0
   -2.6958    0.4768   -0.1580 C   0  0  0  0  0  0  0  0  0  0  0  0
   -2.8699    1.5696   -0.9718 C   0  0  0  0  0  0  0  0  0  0  0  0
    0.4473    2.3924   -1.5716 H   0  0  0  0  0  0  0  0  0  0  0  0
    0.7511    0.4021   -0.0959 H   0  0  0  0  0  0  0  0  0  0  0  0
   -1.5970   -2.3310    2.3357 H   0  0  0  0  0  0  0  0  0  0  0  0
   -2.7969   -2.2049    0.9934 H   0  0  0  0  0  0  0  0  0  0  0  0
   -2.7436   -0.9508    2.2484 H   0  0  0  0  0  0  0  0  0  0  0  0
   -3.5914   -0.0756    0.2087 H   0  0  0  0  0  0  0  0  0  0  0  0
   -3.8695    1.8996   -1.2351 H   0  0  0  0  0  0  0  0  0  0  0  0
   -4.6819   -3.0043    0.8210 O   0  0  0  0  0  0  0  0  0  0  0  0
   -5.4273   -2.0086    0.7484 C   0  0  0  0  0  0  0  0  0  0  0  0
   -5.1560   -0.7812    0.6401 O   0  0  0  0  0  0  0  0  0  0  0  0
   -6.9612   -2.2831    0.8097 C   0  0  0  0  0  0  0  0  0  0  0  0
   -7.5175   -1.6864    1.8929 F   0  0  0  0  0  0  0  0  0  0  0  0
   -7.5887   -1.7827   -0.2836 F   0  0  0  0  0  0  0  0  0  0  0  0
   -7.2657   -3.5929    0.8776 F   0  0  0  0  0  0  0  0  0  0  0  0
  1  4  2  0  0  0  0
  1 10  1  0  0  0  0
  2  1  1  0  0  0  0
  3  2  1  0  0  0  0
  4  5  1  0  0  0  0
  5 12  1  0  0  0  0
  5  6  2  0  0  0  0
  6  7  1  0  0  0  0
  7  8  1  0  0  0  0
  8 15  1  0  0  0  0
  8 13  1  0  0  0  0
  9  6  1  0  0  0  0
  9 16  1  0  0  0  0
 10  9  2  0  0  0  0
 11  4  1  0  0  0  0
 14  8  1  0  0  0  0
 17 10  1  0  0  0  0
 19 21  1  0  0  0  0
 19 18  1  0  0  0  0
 20 19  2  0  0  0  0
 21 24  1  0  0  0  0
 21 22  1  0  0  0  0
 23 21  1  0  0  0  0
M  RAD  3   2   2   3   3  18   2
M  END
