Coordinates from ORCA-job 4-MeOPhN2+~CF3COO-_B3LYPG-6-31G_dp-NX-Scan-d89-09-n800
 OpenBabel11261920413D

 24 23  0  0  0  0  0  0  0  0999 V2000
   -2.2855    1.8359   -1.3489 C   0  0  0  0  0  0  0  0  0  0  0  0
   -2.7656    2.7237   -2.2356 N   0  0  0  0  0  0  0  0  0  0  0  0
   -3.1881    3.4708   -2.9665 N   0  0  0  0  0  0  0  0  0  0  0  0
   -0.9364    1.3921   -1.4745 C   0  0  0  0  0  0  0  0  0  0  0  0
   -0.4824    0.4502   -0.5924 C   0  0  0  0  0  0  0  0  0  0  0  0
   -1.3499   -0.0770    0.4131 C   0  0  0  0  0  0  0  0  0  0  0  0
   -0.8329   -1.0218    1.1679 O   0  0  0  0  0  0  0  0  0  0  0  0
   -1.6727   -1.6888    2.1571 C   0  0  0  0  0  0  0  0  0  0  0  0
   -2.6727    0.4111    0.5535 C   0  0  0  0  0  0  0  0  0  0  0  0
   -3.1493    1.3443   -0.3303 C   0  0  0  0  0  0  0  0  0  0  0  0
   -0.3010    1.7901   -2.2579 H   0  0  0  0  0  0  0  0  0  0  0  0
    0.5291    0.0655   -0.6540 H   0  0  0  0  0  0  0  0  0  0  0  0
   -1.0661   -2.5201    2.5122 H   0  0  0  0  0  0  0  0  0  0  0  0
   -2.6075   -2.0247    1.6846 H   0  0  0  0  0  0  0  0  0  0  0  0
   -1.8790   -0.9953    2.9774 H   0  0  0  0  0  0  0  0  0  0  0  0
   -3.4033    0.0248    1.2729 H   0  0  0  0  0  0  0  0  0  0  0  0
   -4.1846    1.6606   -0.2576 H   0  0  0  0  0  0  0  0  0  0  0  0
   -4.3033   -2.1997    0.5548 O   0  0  0  0  0  0  0  0  0  0  0  0
   -5.2367   -1.3812    0.7069 C   0  0  0  0  0  0  0  0  0  0  0  0
   -5.2751   -0.3092    1.3610 O   0  0  0  0  0  0  0  0  0  0  0  0
   -6.5315   -1.6717   -0.1099 C   0  0  0  0  0  0  0  0  0  0  0  0
   -7.6545   -1.3986    0.5868 F   0  0  0  0  0  0  0  0  0  0  0  0
   -6.5507   -0.8765   -1.2196 F   0  0  0  0  0  0  0  0  0  0  0  0
   -6.6237   -2.9446   -0.5389 F   0  0  0  0  0  0  0  0  0  0  0  0
  1 10  1  0  0  0  0
  2  1  1  0  0  0  0
  3  2  1  0  0  0  0
  4  1  2  0  0  0  0
  4  5  1  0  0  0  0
  5  6  2  0  0  0  0
  6  9  1  0  0  0  0
  6  7  1  0  0  0  0
  7  8  1  0  0  0  0
  8 13  1  0  0  0  0
  8 15  1  0  0  0  0
  9 16  1  0  0  0  0
 10 17  1  0  0  0  0
 10  9  2  0  0  0  0
 11  4  1  0  0  0  0
 12  5  1  0  0  0  0
 14  8  1  0  0  0  0
 18 19  2  0  0  0  0
 19 20  1  0  0  0  0
 21 22  1  0  0  0  0
 21 19  1  0  0  0  0
 23 21  1  0  0  0  0
 24 21  1  0  0  0  0
M  RAD  3   2   2   3   3  20   2
M  END
