Coordinates from ORCA-job 4-MeOPhN2+~CF3COO-_B3LYPG-6-31G_dp-NX-Scan-d89-09-n800
 OpenBabel11261920413D

 24 23  0  0  0  0  0  0  0  0999 V2000
   -2.5697    0.4547   -1.0264 C   0  0  0  0  0  0  0  0  0  0  0  0
   -3.3723    0.7313   -2.1396 N   0  0  0  0  0  0  0  0  0  0  0  0
   -3.5238    1.1123   -3.1877 N   0  0  0  0  0  0  0  0  0  0  0  0
   -1.3157    1.1043   -0.9968 C   0  0  0  0  0  0  0  0  0  0  0  0
   -0.4683    0.8472    0.0584 C   0  0  0  0  0  0  0  0  0  0  0  0
   -0.8511   -0.0620    1.0714 C   0  0  0  0  0  0  0  0  0  0  0  0
    0.0522   -0.2374    2.0518 O   0  0  0  0  0  0  0  0  0  0  0  0
   -0.2498   -1.1322    3.1246 C   0  0  0  0  0  0  0  0  0  0  0  0
   -2.0976   -0.7086    1.0061 C   0  0  0  0  0  0  0  0  0  0  0  0
   -2.9729   -0.4478   -0.0413 C   0  0  0  0  0  0  0  0  0  0  0  0
   -1.0370    1.7960   -1.7846 H   0  0  0  0  0  0  0  0  0  0  0  0
    0.4986    1.3311    0.1325 H   0  0  0  0  0  0  0  0  0  0  0  0
    0.6176   -1.1024    3.7843 H   0  0  0  0  0  0  0  0  0  0  0  0
   -0.3969   -2.1538    2.7581 H   0  0  0  0  0  0  0  0  0  0  0  0
   -1.1397   -0.8049    3.6732 H   0  0  0  0  0  0  0  0  0  0  0  0
   -2.4009   -1.4143    1.7695 H   0  0  0  0  0  0  0  0  0  0  0  0
   -3.9487   -0.9446   -0.1218 H   0  0  0  0  0  0  0  0  0  0  0  0
   -5.7134   -1.4913   -0.4859 O   0  0  0  0  0  0  0  0  0  0  0  0
   -6.1053   -0.4411   -1.0121 C   0  0  0  0  0  0  0  0  0  0  0  0
   -5.4447    0.5617   -1.4240 O   0  0  0  0  0  0  0  0  0  0  0  0
   -7.6376   -0.2780   -1.2482 C   0  0  0  0  0  0  0  0  0  0  0  0
   -8.0886    0.8920   -0.7480 F   0  0  0  0  0  0  0  0  0  0  0  0
   -7.9105   -0.2872   -2.5729 F   0  0  0  0  0  0  0  0  0  0  0  0
   -8.3475   -1.2653   -0.6788 F   0  0  0  0  0  0  0  0  0  0  0  0
  1  4  2  0  0  0  0
  1 10  1  0  0  0  0
  2  1  1  0  0  0  0
  3  2  2  0  0  0  0
  4  5  1  0  0  0  0
  5 12  1  0  0  0  0
  5  6  2  0  0  0  0
  6  7  1  0  0  0  0
  7  8  1  0  0  0  0
  8 15  1  0  0  0  0
  8 13  1  0  0  0  0
  9  6  1  0  0  0  0
  9 16  1  0  0  0  0
 10  9  2  0  0  0  0
 11  4  1  0  0  0  0
 14  8  1  0  0  0  0
 17 10  1  0  0  0  0
 19 18  1  0  0  0  0
 20 19  2  0  0  0  0
 21 19  1  0  0  0  0
 21 22  1  0  0  0  0
 21 24  1  0  0  0  0
 23 21  1  0  0  0  0
M  RAD  2   3   2  18   2
M  END
