Coordinates from ORCA-job 4-MeOPhN2+~CF3COO-_B3LYPG-6-31G_dp-NX-Scan-d89-09-n800
 OpenBabel11261920413D

 24 23  0  0  0  0  0  0  0  0999 V2000
   -2.8869    1.8083   -0.9204 C   0  0  0  0  0  0  0  0  0  0  0  0
   -3.6098    2.7111   -1.5947 N   0  0  0  0  0  0  0  0  0  0  0  0
   -4.2334    3.4708   -2.1463 N   0  0  0  0  0  0  0  0  0  0  0  0
   -1.9426    1.0063   -1.6252 C   0  0  0  0  0  0  0  0  0  0  0  0
   -1.3222   -0.0030   -0.9460 C   0  0  0  0  0  0  0  0  0  0  0  0
   -1.6443   -0.2527    0.4229 C   0  0  0  0  0  0  0  0  0  0  0  0
   -1.0672   -1.3307    0.9459 O   0  0  0  0  0  0  0  0  0  0  0  0
   -1.5597   -1.8390    2.2062 C   0  0  0  0  0  0  0  0  0  0  0  0
   -2.5083    0.5992    1.1282 C   0  0  0  0  0  0  0  0  0  0  0  0
   -3.1966    1.5909    0.4518 C   0  0  0  0  0  0  0  0  0  0  0  0
   -1.7517    1.1875   -2.6767 H   0  0  0  0  0  0  0  0  0  0  0  0
   -0.6215   -0.6677   -1.4376 H   0  0  0  0  0  0  0  0  0  0  0  0
   -1.0761   -2.8069    2.3286 H   0  0  0  0  0  0  0  0  0  0  0  0
   -2.6482   -1.9410    2.1576 H   0  0  0  0  0  0  0  0  0  0  0  0
   -1.2642   -1.1759    3.0260 H   0  0  0  0  0  0  0  0  0  0  0  0
   -2.7739    0.3964    2.1538 H   0  0  0  0  0  0  0  0  0  0  0  0
   -3.8964    2.2353    0.9610 H   0  0  0  0  0  0  0  0  0  0  0  0
   -4.6720   -1.1163    1.4352 O   0  0  0  0  0  0  0  0  0  0  0  0
   -5.1123   -0.6550    0.3654 C   0  0  0  0  0  0  0  0  0  0  0  0
   -5.3189    0.5420    0.0252 O   0  0  0  0  0  0  0  0  0  0  0  0
   -5.3095   -1.6832   -0.7869 C   0  0  0  0  0  0  0  0  0  0  0  0
   -6.3002   -1.3494   -1.6376 F   0  0  0  0  0  0  0  0  0  0  0  0
   -4.1562   -1.7340   -1.5234 F   0  0  0  0  0  0  0  0  0  0  0  0
   -5.5513   -2.9328   -0.3512 F   0  0  0  0  0  0  0  0  0  0  0  0
  1 10  2  0  0  0  0
  2  1  1  0  0  0  0
  3  2  1  0  0  0  0
  4  5  2  0  0  0  0
  4  1  1  0  0  0  0
  5  6  1  0  0  0  0
  6  7  1  0  0  0  0
  6  9  2  0  0  0  0
  7  8  1  0  0  0  0
  8 13  1  0  0  0  0
  8 15  1  0  0  0  0
  9 16  1  0  0  0  0
 10 17  1  0  0  0  0
 10  9  1  0  0  0  0
 11  4  1  0  0  0  0
 12  5  1  0  0  0  0
 14  8  1  0  0  0  0
 19 18  1  0  0  0  0
 20 19  2  0  0  0  0
 21 24  1  0  0  0  0
 21 19  1  0  0  0  0
 22 21  1  0  0  0  0
 23 21  1  0  0  0  0
M  RAD  3   2   2   3   3  18   2
M  END
