Coordinates from ORCA-job 4-MeOPhN2+~CF3COO-_B3LYPG-6-31G_dp-NX-Scan-d89-09-n800
 OpenBabel11261920413D

 24 23  0  0  0  0  0  0  0  0999 V2000
   -2.7489    1.5534   -1.1691 C   0  0  0  0  0  0  0  0  0  0  0  0
   -3.4879    2.2477   -2.0505 N   0  0  0  0  0  0  0  0  0  0  0  0
   -4.1330    2.8184   -2.7748 N   0  0  0  0  0  0  0  0  0  0  0  0
   -1.5166    0.9796   -1.5940 C   0  0  0  0  0  0  0  0  0  0  0  0
   -0.8692    0.1378   -0.7316 C   0  0  0  0  0  0  0  0  0  0  0  0
   -1.4505   -0.1827    0.5316 C   0  0  0  0  0  0  0  0  0  0  0  0
   -0.8233   -1.1134    1.2267 O   0  0  0  0  0  0  0  0  0  0  0  0
   -1.4869   -1.6903    2.3833 C   0  0  0  0  0  0  0  0  0  0  0  0
   -2.6253    0.4696    0.9667 C   0  0  0  0  0  0  0  0  0  0  0  0
   -3.2899    1.3237    0.1224 C   0  0  0  0  0  0  0  0  0  0  0  0
   -1.1285    1.1887   -2.5843 H   0  0  0  0  0  0  0  0  0  0  0  0
    0.0555   -0.3527   -1.0118 H   0  0  0  0  0  0  0  0  0  0  0  0
   -0.8758   -2.5502    2.6527 H   0  0  0  0  0  0  0  0  0  0  0  0
   -2.5031   -1.9840    2.0931 H   0  0  0  0  0  0  0  0  0  0  0  0
   -1.4930   -0.9682    3.2060 H   0  0  0  0  0  0  0  0  0  0  0  0
   -3.1234    0.2049    1.8890 H   0  0  0  0  0  0  0  0  0  0  0  0
   -4.2619    1.7075    0.4052 H   0  0  0  0  0  0  0  0  0  0  0  0
   -4.1160   -1.9703    0.6653 O   0  0  0  0  0  0  0  0  0  0  0  0
   -5.0438   -1.1329    0.6077 C   0  0  0  0  0  0  0  0  0  0  0  0
   -5.3638   -0.2073    1.3875 O   0  0  0  0  0  0  0  0  0  0  0  0
   -5.8551   -1.1368   -0.7265 C   0  0  0  0  0  0  0  0  0  0  0  0
   -7.1638   -0.8735   -0.5575 F   0  0  0  0  0  0  0  0  0  0  0  0
   -5.3629   -0.1335   -1.5421 F   0  0  0  0  0  0  0  0  0  0  0  0
   -5.7565   -2.2757   -1.4332 F   0  0  0  0  0  0  0  0  0  0  0  0
  1 10  1  0  0  0  0
  2  1  1  0  0  0  0
  3  2  1  0  0  0  0
  4  1  2  0  0  0  0
  4  5  1  0  0  0  0
  5  6  2  0  0  0  0
  6  9  1  0  0  0  0
  6  7  1  0  0  0  0
  7  8  1  0  0  0  0
  8 13  1  0  0  0  0
  8 15  1  0  0  0  0
  9 16  1  0  0  0  0
 10 17  1  0  0  0  0
 10  9  2  0  0  0  0
 11  4  1  0  0  0  0
 12  5  1  0  0  0  0
 14  8  1  0  0  0  0
 19 18  2  0  0  0  0
 19 20  1  0  0  0  0
 21 22  1  0  0  0  0
 21 19  1  0  0  0  0
 23 21  1  0  0  0  0
 24 21  1  0  0  0  0
M  RAD  3   2   2   3   3  20   2
M  END
