Coordinates from ORCA-job 4-MeOPhN2+~CF3COO-_B3LYPG-6-31G_dp-NX-Scan-d89-09-n800
 OpenBabel11261920413D

 24 23  0  0  0  0  0  0  0  0999 V2000
   -1.9342    2.0822   -1.4359 C   0  0  0  0  0  0  0  0  0  0  0  0
   -2.2371    3.0747   -2.2885 N   0  0  0  0  0  0  0  0  0  0  0  0
   -2.5102    3.9097   -2.9962 N   0  0  0  0  0  0  0  0  0  0  0  0
   -0.5743    1.6727   -1.3066 C   0  0  0  0  0  0  0  0  0  0  0  0
   -0.2883    0.6531   -0.4418 C   0  0  0  0  0  0  0  0  0  0  0  0
   -1.3298    0.0195    0.3047 C   0  0  0  0  0  0  0  0  0  0  0  0
   -0.9392   -0.9573    1.0908 O   0  0  0  0  0  0  0  0  0  0  0  0
   -1.9205   -1.6777    1.8977 C   0  0  0  0  0  0  0  0  0  0  0  0
   -2.6793    0.4464    0.1785 C   0  0  0  0  0  0  0  0  0  0  0  0
   -2.9799    1.4627   -0.6914 C   0  0  0  0  0  0  0  0  0  0  0  0
    0.2011    2.1629   -1.8843 H   0  0  0  0  0  0  0  0  0  0  0  0
    0.7276    0.2988   -0.3089 H   0  0  0  0  0  0  0  0  0  0  0  0
   -1.3605   -2.5040    2.3315 H   0  0  0  0  0  0  0  0  0  0  0  0
   -2.7642   -2.0283    1.2805 H   0  0  0  0  0  0  0  0  0  0  0  0
   -2.2857   -1.0116    2.6843 H   0  0  0  0  0  0  0  0  0  0  0  0
   -3.5386   -0.0187    0.7066 H   0  0  0  0  0  0  0  0  0  0  0  0
   -4.0112    1.7791   -0.8111 H   0  0  0  0  0  0  0  0  0  0  0  0
   -4.5163   -2.5503    0.5303 O   0  0  0  0  0  0  0  0  0  0  0  0
   -5.3766   -1.6594    0.6829 C   0  0  0  0  0  0  0  0  0  0  0  0
   -5.2430   -0.4462    0.9940 O   0  0  0  0  0  0  0  0  0  0  0  0
   -6.8565   -2.0752    0.4284 C   0  0  0  0  0  0  0  0  0  0  0  0
   -7.6605   -1.7036    1.4509 F   0  0  0  0  0  0  0  0  0  0  0  0
   -7.3314   -1.4684   -0.6910 F   0  0  0  0  0  0  0  0  0  0  0  0
   -7.0153   -3.4012    0.2564 F   0  0  0  0  0  0  0  0  0  0  0  0
  1  4  2  0  0  0  0
  1 10  1  0  0  0  0
  2  1  1  0  0  0  0
  3  2  1  0  0  0  0
  4  5  1  0  0  0  0
  5 12  1  0  0  0  0
  5  6  2  0  0  0  0
  6  7  1  0  0  0  0
  7  8  1  0  0  0  0
  8 13  1  0  0  0  0
  8 15  1  0  0  0  0
  9  6  1  0  0  0  0
  9 16  1  0  0  0  0
 10  9  2  0  0  0  0
 11  4  1  0  0  0  0
 14  8  1  0  0  0  0
 17 10  1  0  0  0  0
 18 19  2  0  0  0  0
 19 20  1  0  0  0  0
 21 19  1  0  0  0  0
 21 22  1  0  0  0  0
 23 21  1  0  0  0  0
 24 21  1  0  0  0  0
M  RAD  3   2   2   3   3  20   2
M  END
