Coordinates from ORCA-job 4-MeOPhN2+~CF3COO-_B3LYPG-6-31G_dp-NX-Scan-d89-09-n800
 OpenBabel11261920413D

 24 24  0  0  0  0  0  0  0  0999 V2000
   -2.0417   -0.9792    0.6817 C   0  0  0  0  0  0  0  0  0  0  0  0
   -2.1408   -2.1861    1.4135 N   0  0  0  0  0  0  0  0  0  0  0  0
   -3.1683   -2.8260    1.7074 N   0  0  0  0  0  0  0  0  0  0  0  0
   -0.6975   -0.6573    0.3866 C   0  0  0  0  0  0  0  0  0  0  0  0
   -0.3607    0.4865   -0.3111 C   0  0  0  0  0  0  0  0  0  0  0  0
   -1.3704    1.3719   -0.7256 C   0  0  0  0  0  0  0  0  0  0  0  0
   -0.9514    2.4699   -1.4008 O   0  0  0  0  0  0  0  0  0  0  0  0
   -1.9213    3.4085   -1.8508 C   0  0  0  0  0  0  0  0  0  0  0  0
   -2.7102    1.0833   -0.4245 C   0  0  0  0  0  0  0  0  0  0  0  0
   -3.0462   -0.0796    0.2651 C   0  0  0  0  0  0  0  0  0  0  0  0
    0.0686   -1.3463    0.7256 H   0  0  0  0  0  0  0  0  0  0  0  0
    0.6709    0.7265   -0.5447 H   0  0  0  0  0  0  0  0  0  0  0  0
   -1.3634    4.1889   -2.3692 H   0  0  0  0  0  0  0  0  0  0  0  0
   -2.4702    3.8521   -1.0117 H   0  0  0  0  0  0  0  0  0  0  0  0
   -2.6329    2.9476   -2.5469 H   0  0  0  0  0  0  0  0  0  0  0  0
   -3.5032    1.7570   -0.7258 H   0  0  0  0  0  0  0  0  0  0  0  0
   -4.0873   -0.2628    0.4805 H   0  0  0  0  0  0  0  0  0  0  0  0
   -4.2797   -2.3198    1.2602 O   0  0  0  0  0  0  0  0  0  0  0  0
   -5.4201   -2.9862    1.6339 C   0  0  0  0  0  0  0  0  0  0  0  0
   -5.5124   -3.9187    2.3718 O   0  0  0  0  0  0  0  0  0  0  0  0
   -6.6072   -2.3202    0.9049 C   0  0  0  0  0  0  0  0  0  0  0  0
   -7.7581   -2.7826    1.3881 F   0  0  0  0  0  0  0  0  0  0  0  0
   -6.5759   -0.9810    1.0644 F   0  0  0  0  0  0  0  0  0  0  0  0
   -6.5442   -2.5862   -0.4108 F   0  0  0  0  0  0  0  0  0  0  0  0
  1  2  1  0  0  0  0
  2  3  2  0  0  0  0
  4  1  1  0  0  0  0
  4 11  1  0  0  0  0
  5  4  2  0  0  0  0
  6  9  2  0  0  0  0
  6  5  1  0  0  0  0
  7  6  1  0  0  0  0
  8  7  1  0  0  0  0
  8 14  1  0  0  0  0
  9 10  1  0  0  0  0
 10 17  1  0  0  0  0
 10  1  2  0  0  0  0
 12  5  1  0  0  0  0
 13  8  1  0  0  0  0
 15  8  1  0  0  0  0
 16  9  1  0  0  0  0
 18 19  1  0  0  0  0
 18  3  1  0  0  0  0
 19 20  2  0  0  0  0
 21 23  1  0  0  0  0
 21 22  1  0  0  0  0
 21 19  1  0  0  0  0
 24 21  1  0  0  0  0
M  END
