Coordinates from ORCA-job 4-MeOPhN2+~CF3COO-_B3LYPG-6-31G_dp-NX-Scan-d89-09-n800
 OpenBabel11261920413D

 24 23  0  0  0  0  0  0  0  0999 V2000
   -2.6388    0.2876   -1.0350 C   0  0  0  0  0  0  0  0  0  0  0  0
   -3.4719    0.4621   -2.1566 N   0  0  0  0  0  0  0  0  0  0  0  0
   -3.5849    0.6439   -3.2631 N   0  0  0  0  0  0  0  0  0  0  0  0
   -1.4288    1.0039   -1.0271 C   0  0  0  0  0  0  0  0  0  0  0  0
   -0.5734    0.8355    0.0443 C   0  0  0  0  0  0  0  0  0  0  0  0
   -0.9102   -0.0490    1.0903 C   0  0  0  0  0  0  0  0  0  0  0  0
   -0.0042   -0.1366    2.0833 O   0  0  0  0  0  0  0  0  0  0  0  0
   -0.2663   -1.0017    3.1881 C   0  0  0  0  0  0  0  0  0  0  0  0
   -2.1192   -0.7671    1.0469 C   0  0  0  0  0  0  0  0  0  0  0  0
   -2.9979   -0.5905   -0.0140 C   0  0  0  0  0  0  0  0  0  0  0  0
   -1.1839    1.6796   -1.8392 H   0  0  0  0  0  0  0  0  0  0  0  0
    0.3652    1.3744    0.1017 H   0  0  0  0  0  0  0  0  0  0  0  0
    0.5909   -0.8970    3.8536 H   0  0  0  0  0  0  0  0  0  0  0  0
   -0.3520   -2.0450    2.8640 H   0  0  0  0  0  0  0  0  0  0  0  0
   -1.1786   -0.7041    3.7174 H   0  0  0  0  0  0  0  0  0  0  0  0
   -2.3851   -1.4601    1.8352 H   0  0  0  0  0  0  0  0  0  0  0  0
   -3.9277   -1.1429   -0.1079 H   0  0  0  0  0  0  0  0  0  0  0  0
   -5.5054   -1.4336   -1.5010 O   0  0  0  0  0  0  0  0  0  0  0  0
   -5.9751   -0.3086   -1.2855 C   0  0  0  0  0  0  0  0  0  0  0  0
   -5.3585    0.7974   -1.1699 O   0  0  0  0  0  0  0  0  0  0  0  0
   -7.5180   -0.1639   -1.1448 C   0  0  0  0  0  0  0  0  0  0  0  0
   -7.8446    0.5343   -0.0365 F   0  0  0  0  0  0  0  0  0  0  0  0
   -8.0234    0.4969   -2.2095 F   0  0  0  0  0  0  0  0  0  0  0  0
   -8.1319   -1.3553   -1.0726 F   0  0  0  0  0  0  0  0  0  0  0  0
  1  4  2  0  0  0  0
  1 10  1  0  0  0  0
  2  1  1  0  0  0  0
  3  2  2  0  0  0  0
  4  5  1  0  0  0  0
  5 12  1  0  0  0  0
  5  6  2  0  0  0  0
  6  7  1  0  0  0  0
  7  8  1  0  0  0  0
  8 15  1  0  0  0  0
  8 13  1  0  0  0  0
  9  6  1  0  0  0  0
  9 16  1  0  0  0  0
 10  9  2  0  0  0  0
 11  4  1  0  0  0  0
 14  8  1  0  0  0  0
 17 10  1  0  0  0  0
 18 19  2  0  0  0  0
 19 20  1  0  0  0  0
 19 21  1  0  0  0  0
 21 24  1  0  0  0  0
 21 22  1  0  0  0  0
 23 21  1  0  0  0  0
M  RAD  2   3   2  20   2
M  END
