Coordinates from ORCA-job 4-MeOPhN2+~CF3COO-_B3LYPG-6-31G_dp-NX-Scan-d89-09-n800
 OpenBabel11261920413D

 24 23  0  0  0  0  0  0  0  0999 V2000
   -2.1412    1.9245   -1.3823 C   0  0  0  0  0  0  0  0  0  0  0  0
   -2.5631    2.8358   -2.2738 N   0  0  0  0  0  0  0  0  0  0  0  0
   -2.9450    3.6003   -3.0092 N   0  0  0  0  0  0  0  0  0  0  0  0
   -0.7793    1.5039   -1.4085 C   0  0  0  0  0  0  0  0  0  0  0  0
   -0.3858    0.5396   -0.5216 C   0  0  0  0  0  0  0  0  0  0  0  0
   -1.3260   -0.0336    0.3892 C   0  0  0  0  0  0  0  0  0  0  0  0
   -0.8560   -0.9911    1.1577 O   0  0  0  0  0  0  0  0  0  0  0  0
   -1.7643   -1.6985    2.0549 C   0  0  0  0  0  0  0  0  0  0  0  0
   -2.6670    0.4261    0.4305 C   0  0  0  0  0  0  0  0  0  0  0  0
   -3.0786    1.3859   -0.4565 C   0  0  0  0  0  0  0  0  0  0  0  0
   -0.0868    1.9377   -2.1213 H   0  0  0  0  0  0  0  0  0  0  0  0
    0.6344    0.1732   -0.5076 H   0  0  0  0  0  0  0  0  0  0  0  0
   -1.1718   -2.5231    2.4474 H   0  0  0  0  0  0  0  0  0  0  0  0
   -2.6467   -2.0435    1.4950 H   0  0  0  0  0  0  0  0  0  0  0  0
   -2.0621   -1.0272    2.8652 H   0  0  0  0  0  0  0  0  0  0  0  0
   -3.4539    0.0139    1.0805 H   0  0  0  0  0  0  0  0  0  0  0  0
   -4.1172    1.7007   -0.4540 H   0  0  0  0  0  0  0  0  0  0  0  0
   -4.3624   -2.2496    0.4404 O   0  0  0  0  0  0  0  0  0  0  0  0
   -5.2897   -1.4438    0.6713 C   0  0  0  0  0  0  0  0  0  0  0  0
   -5.2656   -0.3290    1.2526 O   0  0  0  0  0  0  0  0  0  0  0  0
   -6.6870   -1.8321    0.1013 C   0  0  0  0  0  0  0  0  0  0  0  0
   -7.6852   -1.5619    0.9693 F   0  0  0  0  0  0  0  0  0  0  0  0
   -6.9386   -1.1144   -1.0290 F   0  0  0  0  0  0  0  0  0  0  0  0
   -6.7847   -3.1339   -0.2296 F   0  0  0  0  0  0  0  0  0  0  0  0
  1 10  1  0  0  0  0
  2  1  1  0  0  0  0
  3  2  1  0  0  0  0
  4  1  2  0  0  0  0
  4  5  1  0  0  0  0
  5 12  1  0  0  0  0
  5  6  2  0  0  0  0
  6  9  1  0  0  0  0
  6  7  1  0  0  0  0
  7  8  1  0  0  0  0
  8 13  1  0  0  0  0
  8 15  1  0  0  0  0
  9 16  1  0  0  0  0
 10 17  1  0  0  0  0
 10  9  2  0  0  0  0
 11  4  1  0  0  0  0
 14  8  1  0  0  0  0
 18 19  2  0  0  0  0
 19 20  1  0  0  0  0
 21 19  1  0  0  0  0
 21 22  1  0  0  0  0
 23 21  1  0  0  0  0
 24 21  1  0  0  0  0
M  RAD  3   2   2   3   3  20   2
M  END
