Coordinates from ORCA-job 4-MeOPhN2+~CF3COO-_B3LYPG-6-31G_dp-NX-Scan-d89-09-n800
 OpenBabel11261920413D

 24 23  0  0  0  0  0  0  0  0999 V2000
   -1.7984    2.1990   -1.4629 C   0  0  0  0  0  0  0  0  0  0  0  0
   -2.0132    3.2556   -2.2647 N   0  0  0  0  0  0  0  0  0  0  0  0
   -2.1964    4.1477   -2.9319 N   0  0  0  0  0  0  0  0  0  0  0  0
   -0.4539    1.7925   -1.2142 C   0  0  0  0  0  0  0  0  0  0  0  0
   -0.2465    0.7282   -0.3823 C   0  0  0  0  0  0  0  0  0  0  0  0
   -1.3506    0.0519    0.2237 C   0  0  0  0  0  0  0  0  0  0  0  0
   -1.0237   -0.9356    1.0239 O   0  0  0  0  0  0  0  0  0  0  0  0
   -2.0533   -1.6631    1.7601 C   0  0  0  0  0  0  0  0  0  0  0  0
   -2.6897    0.4539   -0.0414 C   0  0  0  0  0  0  0  0  0  0  0  0
   -2.9088    1.5187   -0.8792 C   0  0  0  0  0  0  0  0  0  0  0  0
    0.3710    2.3237   -1.6752 H   0  0  0  0  0  0  0  0  0  0  0  0
    0.7548    0.3793   -0.1570 H   0  0  0  0  0  0  0  0  0  0  0  0
   -1.4997   -2.4093    2.3273 H   0  0  0  0  0  0  0  0  0  0  0  0
   -2.7950   -2.1300    1.0939 H   0  0  0  0  0  0  0  0  0  0  0  0
   -2.5657   -0.9710    2.4330 H   0  0  0  0  0  0  0  0  0  0  0  0
   -3.5802   -0.0702    0.3800 H   0  0  0  0  0  0  0  0  0  0  0  0
   -3.9230    1.8375   -1.0974 H   0  0  0  0  0  0  0  0  0  0  0  0
   -4.6245   -2.8268    0.6531 O   0  0  0  0  0  0  0  0  0  0  0  0
   -5.4159   -1.8657    0.7081 C   0  0  0  0  0  0  0  0  0  0  0  0
   -5.1948   -0.6260    0.7806 O   0  0  0  0  0  0  0  0  0  0  0  0
   -6.9352   -2.2121    0.6805 C   0  0  0  0  0  0  0  0  0  0  0  0
   -7.5715   -1.7106    1.7659 F   0  0  0  0  0  0  0  0  0  0  0  0
   -7.5301   -1.6717   -0.4132 F   0  0  0  0  0  0  0  0  0  0  0  0
   -7.1793   -3.5359    0.6513 F   0  0  0  0  0  0  0  0  0  0  0  0
  1  4  2  0  0  0  0
  1 10  1  0  0  0  0
  2  1  1  0  0  0  0
  3  2  1  0  0  0  0
  4  5  1  0  0  0  0
  5 12  1  0  0  0  0
  5  6  2  0  0  0  0
  6  7  1  0  0  0  0
  7  8  1  0  0  0  0
  8 13  1  0  0  0  0
  8 15  1  0  0  0  0
  9  6  1  0  0  0  0
  9 16  1  0  0  0  0
 10  9  2  0  0  0  0
 11  4  1  0  0  0  0
 14  8  1  0  0  0  0
 17 10  1  0  0  0  0
 18 19  2  0  0  0  0
 19 20  1  0  0  0  0
 21 19  1  0  0  0  0
 21 22  1  0  0  0  0
 23 21  1  0  0  0  0
 24 21  1  0  0  0  0
M  RAD  3   2   2   3   3  20   2
M  END
