Coordinates from ORCA-job 4-MeOPhN2+~CF3COO-_B3LYPG-6-31G_dp-NX-Scan-d89-09-n800
 OpenBabel11261920413D

 24 23  0  0  0  0  0  0  0  0999 V2000
   -2.6420    0.2533   -1.0427 C   0  0  0  0  0  0  0  0  0  0  0  0
   -3.4716    0.4122   -2.1644 N   0  0  0  0  0  0  0  0  0  0  0  0
   -3.6310    0.5657   -3.2671 N   0  0  0  0  0  0  0  0  0  0  0  0
   -1.4429    0.9876   -1.0315 C   0  0  0  0  0  0  0  0  0  0  0  0
   -0.5895    0.8329    0.0436 C   0  0  0  0  0  0  0  0  0  0  0  0
   -0.9187   -0.0526    1.0910 C   0  0  0  0  0  0  0  0  0  0  0  0
   -0.0154   -0.1261    2.0872 O   0  0  0  0  0  0  0  0  0  0  0  0
   -0.2710   -0.9901    3.1946 C   0  0  0  0  0  0  0  0  0  0  0  0
   -2.1190   -0.7857    1.0461 C   0  0  0  0  0  0  0  0  0  0  0  0
   -2.9948   -0.6250   -0.0189 C   0  0  0  0  0  0  0  0  0  0  0  0
   -1.2038    1.6646   -1.8442 H   0  0  0  0  0  0  0  0  0  0  0  0
    0.3422    1.3835    0.1025 H   0  0  0  0  0  0  0  0  0  0  0  0
    0.5829   -0.8730    3.8622 H   0  0  0  0  0  0  0  0  0  0  0  0
   -0.3436   -2.0354    2.8740 H   0  0  0  0  0  0  0  0  0  0  0  0
   -1.1882   -0.7009    3.7200 H   0  0  0  0  0  0  0  0  0  0  0  0
   -2.3805   -1.4770    1.8373 H   0  0  0  0  0  0  0  0  0  0  0  0
   -3.9215   -1.1811   -0.1140 H   0  0  0  0  0  0  0  0  0  0  0  0
   -5.4480   -1.3216   -1.6046 O   0  0  0  0  0  0  0  0  0  0  0  0
   -5.9532   -0.2292   -1.2950 C   0  0  0  0  0  0  0  0  0  0  0  0
   -5.3662    0.8766   -1.1088 O   0  0  0  0  0  0  0  0  0  0  0  0
   -7.4985   -0.1555   -1.1343 C   0  0  0  0  0  0  0  0  0  0  0  0
   -7.8444    0.5006   -0.0066 F   0  0  0  0  0  0  0  0  0  0  0  0
   -8.0423    0.5094   -2.1781 F   0  0  0  0  0  0  0  0  0  0  0  0
   -8.0627   -1.3733   -1.0863 F   0  0  0  0  0  0  0  0  0  0  0  0
  1  4  2  0  0  0  0
  1 10  1  0  0  0  0
  2  1  1  0  0  0  0
  3  2  2  0  0  0  0
  4  5  1  0  0  0  0
  5 12  1  0  0  0  0
  5  6  2  0  0  0  0
  6  7  1  0  0  0  0
  7  8  1  0  0  0  0
  8 15  1  0  0  0  0
  8 13  1  0  0  0  0
  9  6  1  0  0  0  0
  9 16  1  0  0  0  0
 10  9  2  0  0  0  0
 11  4  1  0  0  0  0
 14  8  1  0  0  0  0
 17 10  1  0  0  0  0
 18 19  2  0  0  0  0
 19 21  1  0  0  0  0
 19 20  1  0  0  0  0
 21 24  1  0  0  0  0
 21 22  1  0  0  0  0
 23 21  1  0  0  0  0
M  RAD  2   3   2  20   2
M  END
