Coordinates from ORCA-job 4-MeOPhN2+~CF3COO-_B3LYPG-6-31G_dp-NX-Scan-d89-09-n800
 OpenBabel11261920413D

 24 23  0  0  0  0  0  0  0  0999 V2000
   -2.9455    1.6018   -0.9058 C   0  0  0  0  0  0  0  0  0  0  0  0
   -3.7747    2.3673   -1.6270 N   0  0  0  0  0  0  0  0  0  0  0  0
   -4.4867    3.0057   -2.2205 N   0  0  0  0  0  0  0  0  0  0  0  0
   -2.0295    0.7475   -1.5828 C   0  0  0  0  0  0  0  0  0  0  0  0
   -1.3328   -0.1675   -0.8448 C   0  0  0  0  0  0  0  0  0  0  0  0
   -1.5751   -0.2883    0.5557 C   0  0  0  0  0  0  0  0  0  0  0  0
   -0.9562   -1.3042    1.1494 O   0  0  0  0  0  0  0  0  0  0  0  0
   -1.4195   -1.7213    2.4519 C   0  0  0  0  0  0  0  0  0  0  0  0
   -2.4089    0.6230    1.2240 C   0  0  0  0  0  0  0  0  0  0  0  0
   -3.1481    1.5391    0.5014 C   0  0  0  0  0  0  0  0  0  0  0  0
   -1.9244    0.8087   -2.6600 H   0  0  0  0  0  0  0  0  0  0  0  0
   -0.6494   -0.8675   -1.3106 H   0  0  0  0  0  0  0  0  0  0  0  0
   -0.9442   -2.6853    2.6276 H   0  0  0  0  0  0  0  0  0  0  0  0
   -2.5083   -1.8186    2.4301 H   0  0  0  0  0  0  0  0  0  0  0  0
   -1.0965   -1.0102    3.2197 H   0  0  0  0  0  0  0  0  0  0  0  0
   -2.5827    0.5380    2.2868 H   0  0  0  0  0  0  0  0  0  0  0  0
   -3.8208    2.2292    0.9866 H   0  0  0  0  0  0  0  0  0  0  0  0
   -4.3814   -1.4601    1.0151 O   0  0  0  0  0  0  0  0  0  0  0  0
   -5.0113   -0.7220    0.2384 C   0  0  0  0  0  0  0  0  0  0  0  0
   -5.3152    0.4995    0.3356 O   0  0  0  0  0  0  0  0  0  0  0  0
   -5.4359   -1.3363   -1.1316 C   0  0  0  0  0  0  0  0  0  0  0  0
   -6.7536   -1.1817   -1.3767 F   0  0  0  0  0  0  0  0  0  0  0  0
   -4.7729   -0.6931   -2.1482 F   0  0  0  0  0  0  0  0  0  0  0  0
   -5.1498   -2.6438   -1.2524 F   0  0  0  0  0  0  0  0  0  0  0  0
  1 10  1  0  0  0  0
  2  1  1  0  0  0  0
  3  2  1  0  0  0  0
  4  1  2  0  0  0  0
  4  5  1  0  0  0  0
  5  6  2  0  0  0  0
  6  7  1  0  0  0  0
  6  9  1  0  0  0  0
  7  8  1  0  0  0  0
  8 13  1  0  0  0  0
  8 15  1  0  0  0  0
  9 16  1  0  0  0  0
 10 17  1  0  0  0  0
 10  9  2  0  0  0  0
 11  4  1  0  0  0  0
 12  5  1  0  0  0  0
 14  8  1  0  0  0  0
 19 20  2  0  0  0  0
 19 18  1  0  0  0  0
 21 19  1  0  0  0  0
 22 21  1  0  0  0  0
 23 21  1  0  0  0  0
 24 21  1  0  0  0  0
M  RAD  3   2   2   3   3  18   2
M  END
