Coordinates from ORCA-job 4-MeOPhN2+~CF3COO-_B3LYPG-6-31G_dp-NX-Scan-d89-09-n800
 OpenBabel11261920413D

 24 23  0  0  0  0  0  0  0  0999 V2000
   -1.7251   -0.1385   -0.0606 C   0  0  0  0  0  0  0  0  0  0  0  0
   -3.0646   -0.2877    0.0461 N   0  0  0  0  0  0  0  0  0  0  0  0
   -4.1899   -0.4128    0.1351 N   0  0  0  0  0  0  0  0  0  0  0  0
   -1.1733    1.1701   -0.1337 C   0  0  0  0  0  0  0  0  0  0  0  0
    0.1904    1.3025   -0.2427 C   0  0  0  0  0  0  0  0  0  0  0  0
    1.0304    0.1640   -0.2812 C   0  0  0  0  0  0  0  0  0  0  0  0
    2.3430    0.4215   -0.3891 O   0  0  0  0  0  0  0  0  0  0  0  0
    3.2729   -0.6639   -0.4355 C   0  0  0  0  0  0  0  0  0  0  0  0
    0.4694   -1.1284   -0.2069 C   0  0  0  0  0  0  0  0  0  0  0  0
   -0.8995   -1.2889   -0.0972 C   0  0  0  0  0  0  0  0  0  0  0  0
   -1.8228    2.0372   -0.1030 H   0  0  0  0  0  0  0  0  0  0  0  0
    0.6504    2.2826   -0.3011 H   0  0  0  0  0  0  0  0  0  0  0  0
    4.2560   -0.2034   -0.5227 H   0  0  0  0  0  0  0  0  0  0  0  0
    3.0893   -1.3030   -1.3062 H   0  0  0  0  0  0  0  0  0  0  0  0
    3.2281   -1.2603    0.4826 H   0  0  0  0  0  0  0  0  0  0  0  0
    1.0980   -2.0094   -0.2339 H   0  0  0  0  0  0  0  0  0  0  0  0
   -1.3422   -2.2768   -0.0394 H   0  0  0  0  0  0  0  0  0  0  0  0
  -12.8851   -1.1189    1.0323 O   0  0  0  0  0  0  0  0  0  0  0  0
  -11.6570   -1.0122    0.8935 C   0  0  0  0  0  0  0  0  0  0  0  0
  -10.6858   -1.7822    0.8480 O   0  0  0  0  0  0  0  0  0  0  0  0
  -11.2386    0.5332    0.7485 C   0  0  0  0  0  0  0  0  0  0  0  0
   -9.9243    0.7109    0.5087 F   0  0  0  0  0  0  0  0  0  0  0  0
  -11.9112    1.1199   -0.2623 F   0  0  0  0  0  0  0  0  0  0  0  0
  -11.5323    1.2045    1.8826 F   0  0  0  0  0  0  0  0  0  0  0  0
  1  2  1  0  0  0  0
  2  3  1  0  0  0  0
  4 11  1  0  0  0  0
  4  1  2  0  0  0  0
  5  4  1  0  0  0  0
  6  5  2  0  0  0  0
  6  9  1  0  0  0  0
  7  6  1  0  0  0  0
  8  7  1  0  0  0  0
  8 15  1  0  0  0  0
  9 10  2  0  0  0  0
 10  1  1  0  0  0  0
 10 17  1  0  0  0  0
 12  5  1  0  0  0  0
 13  8  1  0  0  0  0
 14  8  1  0  0  0  0
 16  9  1  0  0  0  0
 19 18  1  0  0  0  0
 20 19  2  0  0  0  0
 21 19  1  0  0  0  0
 21 24  1  0  0  0  0
 22 21  1  0  0  0  0
 23 21  1  0  0  0  0
M  RAD  3   2   2   3   3  18   2
M  END
