Coordinates from ORCA-job 4-MeOPhN2+~CF3COO-_B3LYPG-6-31G_dp-NX-Scan-d89-09-n800
 OpenBabel11261920413D

 24 23  0  0  0  0  0  0  0  0999 V2000
   -2.5871    1.6159   -1.2848 C   0  0  0  0  0  0  0  0  0  0  0  0
   -3.2168    2.3813   -2.1930 N   0  0  0  0  0  0  0  0  0  0  0  0
   -3.7660    3.0192   -2.9413 N   0  0  0  0  0  0  0  0  0  0  0  0
   -1.2614    1.1672   -1.5537 C   0  0  0  0  0  0  0  0  0  0  0  0
   -0.6789    0.3084   -0.6616 C   0  0  0  0  0  0  0  0  0  0  0  0
   -1.4013   -0.1356    0.4872 C   0  0  0  0  0  0  0  0  0  0  0  0
   -0.7985   -1.0471    1.2236 O   0  0  0  0  0  0  0  0  0  0  0  0
   -1.5406   -1.6912    2.2989 C   0  0  0  0  0  0  0  0  0  0  0  0
   -2.6847    0.3836    0.7749 C   0  0  0  0  0  0  0  0  0  0  0  0
   -3.2932    1.2347   -0.1124 C   0  0  0  0  0  0  0  0  0  0  0  0
   -0.7473    1.4879   -2.4527 H   0  0  0  0  0  0  0  0  0  0  0  0
    0.3160   -0.0868   -0.8304 H   0  0  0  0  0  0  0  0  0  0  0  0
   -0.8941   -2.5025    2.6300 H   0  0  0  0  0  0  0  0  0  0  0  0
   -2.4998   -2.0567    1.9077 H   0  0  0  0  0  0  0  0  0  0  0  0
   -1.6942   -0.9786    3.1146 H   0  0  0  0  0  0  0  0  0  0  0  0
   -3.2922    0.0467    1.6115 H   0  0  0  0  0  0  0  0  0  0  0  0
   -4.3211    1.5328    0.0575 H   0  0  0  0  0  0  0  0  0  0  0  0
   -4.2155   -2.1288    0.6567 O   0  0  0  0  0  0  0  0  0  0  0  0
   -5.1260   -1.2752    0.7354 C   0  0  0  0  0  0  0  0  0  0  0  0
   -5.3044   -0.3430    1.5544 O   0  0  0  0  0  0  0  0  0  0  0  0
   -6.1268   -1.2546   -0.4609 C   0  0  0  0  0  0  0  0  0  0  0  0
   -7.3955   -0.9968   -0.0906 F   0  0  0  0  0  0  0  0  0  0  0  0
   -5.7565   -0.2388   -1.3159 F   0  0  0  0  0  0  0  0  0  0  0  0
   -6.1379   -2.3822   -1.1934 F   0  0  0  0  0  0  0  0  0  0  0  0
  1 10  1  0  0  0  0
  2  1  1  0  0  0  0
  3  2  1  0  0  0  0
  4  1  2  0  0  0  0
  4  5  1  0  0  0  0
  5  6  2  0  0  0  0
  6  9  1  0  0  0  0
  6  7  1  0  0  0  0
  7  8  1  0  0  0  0
  8 13  1  0  0  0  0
  8 15  1  0  0  0  0
  9 16  1  0  0  0  0
 10 17  1  0  0  0  0
 10  9  2  0  0  0  0
 11  4  1  0  0  0  0
 12  5  1  0  0  0  0
 14  8  1  0  0  0  0
 18 19  2  0  0  0  0
 19 20  1  0  0  0  0
 21 22  1  0  0  0  0
 21 19  1  0  0  0  0
 23 21  1  0  0  0  0
 24 21  1  0  0  0  0
M  RAD  3   2   2   3   3  20   2
M  END
