Coordinates from ORCA-job 4-MeOPhN2+~CF3COO-_B3LYPG-6-31G_dp-NX-Scan-d89-09-n800
 OpenBabel11261920413D

 24 23  0  0  0  0  0  0  0  0999 V2000
   -2.5700    1.6299   -1.2953 C   0  0  0  0  0  0  0  0  0  0  0  0
   -3.1831    2.4143   -2.1988 N   0  0  0  0  0  0  0  0  0  0  0  0
   -3.7149    3.0709   -2.9437 N   0  0  0  0  0  0  0  0  0  0  0  0
   -1.2403    1.1853   -1.5519 C   0  0  0  0  0  0  0  0  0  0  0  0
   -0.6672    0.3189   -0.6613 C   0  0  0  0  0  0  0  0  0  0  0  0
   -1.4010   -0.1343    0.4768 C   0  0  0  0  0  0  0  0  0  0  0  0
   -0.8026   -1.0458    1.2162 O   0  0  0  0  0  0  0  0  0  0  0  0
   -1.5486   -1.6893    2.2896 C   0  0  0  0  0  0  0  0  0  0  0  0
   -2.6903    0.3777    0.7518 C   0  0  0  0  0  0  0  0  0  0  0  0
   -3.2909    1.2332   -0.1366 C   0  0  0  0  0  0  0  0  0  0  0  0
   -0.7151    1.5165   -2.4408 H   0  0  0  0  0  0  0  0  0  0  0  0
    0.3307   -0.0723   -0.8214 H   0  0  0  0  0  0  0  0  0  0  0  0
   -0.9036   -2.5010    2.6224 H   0  0  0  0  0  0  0  0  0  0  0  0
   -2.5083   -2.0541    1.8982 H   0  0  0  0  0  0  0  0  0  0  0  0
   -1.7031   -0.9756    3.1043 H   0  0  0  0  0  0  0  0  0  0  0  0
   -3.3066    0.0366    1.5812 H   0  0  0  0  0  0  0  0  0  0  0  0
   -4.3213    1.5280    0.0252 H   0  0  0  0  0  0  0  0  0  0  0  0
   -4.2389   -2.1578    0.6865 O   0  0  0  0  0  0  0  0  0  0  0  0
   -5.1381   -1.2917    0.7536 C   0  0  0  0  0  0  0  0  0  0  0  0
   -5.3000   -0.3418    1.5563 O   0  0  0  0  0  0  0  0  0  0  0  0
   -6.1477   -1.2806   -0.4351 C   0  0  0  0  0  0  0  0  0  0  0  0
   -7.4128   -1.0153   -0.0567 F   0  0  0  0  0  0  0  0  0  0  0  0
   -5.7817   -0.2756   -1.3035 F   0  0  0  0  0  0  0  0  0  0  0  0
   -6.1683   -2.4162   -1.1550 F   0  0  0  0  0  0  0  0  0  0  0  0
  1 10  1  0  0  0  0
  2  1  1  0  0  0  0
  3  2  1  0  0  0  0
  4  1  2  0  0  0  0
  4  5  1  0  0  0  0
  5  6  2  0  0  0  0
  6  9  1  0  0  0  0
  6  7  1  0  0  0  0
  7  8  1  0  0  0  0
  8 13  1  0  0  0  0
  8 15  1  0  0  0  0
  9 16  1  0  0  0  0
 10 17  1  0  0  0  0
 10  9  2  0  0  0  0
 11  4  1  0  0  0  0
 12  5  1  0  0  0  0
 14  8  1  0  0  0  0
 18 19  2  0  0  0  0
 19 20  1  0  0  0  0
 21 22  1  0  0  0  0
 21 19  1  0  0  0  0
 23 21  1  0  0  0  0
 24 21  1  0  0  0  0
M  RAD  3   2   2   3   3  20   2
M  END
