Coordinates from ORCA-job 4-MeOPhN2+~CF3COO-_B3LYPG-6-31G_dp-NX-Scan-d89-09-n800
 OpenBabel11261920413D

 24 23  0  0  0  0  0  0  0  0999 V2000
   -2.5630    0.5386   -0.9981 C   0  0  0  0  0  0  0  0  0  0  0  0
   -3.3690    0.8825   -2.0869 N   0  0  0  0  0  0  0  0  0  0  0  0
   -3.5443    1.3441   -3.0974 N   0  0  0  0  0  0  0  0  0  0  0  0
   -1.2679    1.1077   -1.0008 C   0  0  0  0  0  0  0  0  0  0  0  0
   -0.4100    0.7978    0.0300 C   0  0  0  0  0  0  0  0  0  0  0  0
   -0.8239   -0.0821    1.0576 C   0  0  0  0  0  0  0  0  0  0  0  0
    0.0925   -0.3155    2.0124 O   0  0  0  0  0  0  0  0  0  0  0  0
   -0.2384   -1.1858    3.0975 C   0  0  0  0  0  0  0  0  0  0  0  0
   -2.1120   -0.6428    1.0291 C   0  0  0  0  0  0  0  0  0  0  0  0
   -2.9967   -0.3331    0.0026 C   0  0  0  0  0  0  0  0  0  0  0  0
   -0.9663    1.7782   -1.7984 H   0  0  0  0  0  0  0  0  0  0  0  0
    0.5884    1.2172    0.0751 H   0  0  0  0  0  0  0  0  0  0  0  0
    0.6489   -1.2161    3.7299 H   0  0  0  0  0  0  0  0  0  0  0  0
   -0.4685   -2.1946    2.7391 H   0  0  0  0  0  0  0  0  0  0  0  0
   -1.0858   -0.7955    3.6715 H   0  0  0  0  0  0  0  0  0  0  0  0
   -2.4429   -1.3218    1.8051 H   0  0  0  0  0  0  0  0  0  0  0  0
   -4.0053   -0.7684   -0.0287 H   0  0  0  0  0  0  0  0  0  0  0  0
   -5.7732   -1.3473   -0.1919 O   0  0  0  0  0  0  0  0  0  0  0  0
   -6.1451   -0.4460   -0.9559 C   0  0  0  0  0  0  0  0  0  0  0  0
   -5.4743    0.4646   -1.5303 O   0  0  0  0  0  0  0  0  0  0  0  0
   -7.6617   -0.3773   -1.3095 C   0  0  0  0  0  0  0  0  0  0  0  0
   -8.1741    0.8357   -1.0081 F   0  0  0  0  0  0  0  0  0  0  0  0
   -7.8500   -0.5814   -2.6329 F   0  0  0  0  0  0  0  0  0  0  0  0
   -8.3813   -1.2987   -0.6490 F   0  0  0  0  0  0  0  0  0  0  0  0
  1 10  1  0  0  0  0
  2  1  1  0  0  0  0
  3  2  2  0  0  0  0
  4  1  2  0  0  0  0
  4  5  1  0  0  0  0
  5 12  1  0  0  0  0
  5  6  2  0  0  0  0
  6  7  1  0  0  0  0
  7  8  1  0  0  0  0
  8 15  1  0  0  0  0
  8 13  1  0  0  0  0
  9  6  1  0  0  0  0
  9 16  1  0  0  0  0
 10  9  2  0  0  0  0
 11  4  1  0  0  0  0
 14  8  1  0  0  0  0
 17 10  1  0  0  0  0
 19 18  1  0  0  0  0
 20 19  2  0  0  0  0
 21 22  1  0  0  0  0
 21 19  1  0  0  0  0
 21 24  1  0  0  0  0
 23 21  1  0  0  0  0
M  RAD  2   3   2  18   2
M  END
