Coordinates from ORCA-job 4-MeOPhN2+~CF3COO-_B3LYPG-6-31G_dp-NX-Scan-d89-09-n800
 OpenBabel11261920413D

 24 23  0  0  0  0  0  0  0  0999 V2000
   -2.6000    0.3369   -1.0485 C   0  0  0  0  0  0  0  0  0  0  0  0
   -3.4132    0.5315   -2.1785 N   0  0  0  0  0  0  0  0  0  0  0  0
   -3.5273    0.7824   -3.2715 N   0  0  0  0  0  0  0  0  0  0  0  0
   -1.3933    1.0622   -1.0093 C   0  0  0  0  0  0  0  0  0  0  0  0
   -0.5514    0.8728    0.0675 C   0  0  0  0  0  0  0  0  0  0  0  0
   -0.8948   -0.0427    1.0863 C   0  0  0  0  0  0  0  0  0  0  0  0
   -0.0006   -0.1477    2.0870 O   0  0  0  0  0  0  0  0  0  0  0  0
   -0.2666   -1.0452    3.1655 C   0  0  0  0  0  0  0  0  0  0  0  0
   -2.0967   -0.7693    1.0090 C   0  0  0  0  0  0  0  0  0  0  0  0
   -2.9654   -0.5730   -0.0570 C   0  0  0  0  0  0  0  0  0  0  0  0
   -1.1435    1.7597   -1.8014 H   0  0  0  0  0  0  0  0  0  0  0  0
    0.3819    1.4174    0.1518 H   0  0  0  0  0  0  0  0  0  0  0  0
    0.5815   -0.9493    3.8437 H   0  0  0  0  0  0  0  0  0  0  0  0
   -0.3375   -2.0798    2.8121 H   0  0  0  0  0  0  0  0  0  0  0  0
   -1.1883   -0.7711    3.6910 H   0  0  0  0  0  0  0  0  0  0  0  0
   -2.3662   -1.4850    1.7756 H   0  0  0  0  0  0  0  0  0  0  0  0
   -3.8990   -1.1275   -0.1770 H   0  0  0  0  0  0  0  0  0  0  0  0
   -5.6155   -1.5607   -1.0353 O   0  0  0  0  0  0  0  0  0  0  0  0
   -6.0294   -0.4012   -1.1573 C   0  0  0  0  0  0  0  0  0  0  0  0
   -5.3762    0.6827   -1.2882 O   0  0  0  0  0  0  0  0  0  0  0  0
   -7.5702   -0.1697   -1.1684 C   0  0  0  0  0  0  0  0  0  0  0  0
   -7.9300    0.7553   -0.2535 F   0  0  0  0  0  0  0  0  0  0  0  0
   -7.9697    0.2761   -2.3802 F   0  0  0  0  0  0  0  0  0  0  0  0
   -8.2523   -1.2948   -0.9016 F   0  0  0  0  0  0  0  0  0  0  0  0
  1  4  2  0  0  0  0
  1 10  1  0  0  0  0
  2  1  1  0  0  0  0
  3  2  2  0  0  0  0
  4  5  1  0  0  0  0
  5 12  1  0  0  0  0
  5  6  2  0  0  0  0
  6  7  1  0  0  0  0
  7  8  1  0  0  0  0
  8 15  1  0  0  0  0
  8 13  1  0  0  0  0
  9  6  1  0  0  0  0
  9 16  1  0  0  0  0
 10  9  2  0  0  0  0
 11  4  1  0  0  0  0
 14  8  1  0  0  0  0
 17 10  1  0  0  0  0
 19 18  1  0  0  0  0
 20 19  2  0  0  0  0
 21 19  1  0  0  0  0
 21 24  1  0  0  0  0
 21 22  1  0  0  0  0
 23 21  1  0  0  0  0
M  RAD  2   3   2  18   2
M  END
