Coordinates from ORCA-job 4-MeOPhN2+~CF3COO-_B3LYPG-6-31G_dp-NX-Scan-d89-09-n800
 OpenBabel11261920413D

 24 23  0  0  0  0  0  0  0  0999 V2000
   -1.7510   -0.1124   -0.0728 C   0  0  0  0  0  0  0  0  0  0  0  0
   -3.0926   -0.2486    0.0270 N   0  0  0  0  0  0  0  0  0  0  0  0
   -4.2192   -0.3634    0.1104 N   0  0  0  0  0  0  0  0  0  0  0  0
   -1.1861    1.1907   -0.1436 C   0  0  0  0  0  0  0  0  0  0  0  0
    0.1794    1.3096   -0.2449 C   0  0  0  0  0  0  0  0  0  0  0  0
    1.0084    0.1629   -0.2780 C   0  0  0  0  0  0  0  0  0  0  0  0
    2.3240    0.4074   -0.3783 O   0  0  0  0  0  0  0  0  0  0  0  0
    3.2435   -0.6872   -0.4182 C   0  0  0  0  0  0  0  0  0  0  0  0
    0.4343   -1.1239   -0.2064 C   0  0  0  0  0  0  0  0  0  0  0  0
   -0.9366   -1.2710   -0.1044 C   0  0  0  0  0  0  0  0  0  0  0  0
   -1.8273    2.0640   -0.1170 H   0  0  0  0  0  0  0  0  0  0  0  0
    0.6494    2.2851   -0.3012 H   0  0  0  0  0  0  0  0  0  0  0  0
    4.2317   -0.2364   -0.4991 H   0  0  0  0  0  0  0  0  0  0  0  0
    3.0593   -1.3247   -1.2900 H   0  0  0  0  0  0  0  0  0  0  0  0
    3.1867   -1.2828    0.4997 H   0  0  0  0  0  0  0  0  0  0  0  0
    1.0545   -2.0111   -0.2296 H   0  0  0  0  0  0  0  0  0  0  0  0
   -1.3894   -2.2544   -0.0485 H   0  0  0  0  0  0  0  0  0  0  0  0
  -12.8142   -1.1438    1.0356 O   0  0  0  0  0  0  0  0  0  0  0  0
  -11.5873   -1.0281    0.8929 C   0  0  0  0  0  0  0  0  0  0  0  0
  -10.6109   -1.7915    0.8429 O   0  0  0  0  0  0  0  0  0  0  0  0
  -11.1797    0.5201    0.7500 C   0  0  0  0  0  0  0  0  0  0  0  0
   -9.8676    0.7071    0.5042 F   0  0  0  0  0  0  0  0  0  0  0  0
  -11.8609    1.1054   -0.2560 F   0  0  0  0  0  0  0  0  0  0  0  0
  -11.4720    1.1867    1.8873 F   0  0  0  0  0  0  0  0  0  0  0  0
  1  2  1  0  0  0  0
  2  3  1  0  0  0  0
  4 11  1  0  0  0  0
  4  1  2  0  0  0  0
  5  4  1  0  0  0  0
  6  5  2  0  0  0  0
  6  9  1  0  0  0  0
  7  6  1  0  0  0  0
  8  7  1  0  0  0  0
  8 15  1  0  0  0  0
  9 10  2  0  0  0  0
 10  1  1  0  0  0  0
 10 17  1  0  0  0  0
 12  5  1  0  0  0  0
 13  8  1  0  0  0  0
 14  8  1  0  0  0  0
 16  9  1  0  0  0  0
 19 18  1  0  0  0  0
 20 19  2  0  0  0  0
 21 19  1  0  0  0  0
 21 24  1  0  0  0  0
 22 21  1  0  0  0  0
 23 21  1  0  0  0  0
M  RAD  3   2   2   3   3  18   2
M  END
