Coordinates from ORCA-job 4-MeOPhN2+~CF3COO-_B3LYPG-6-31G_dp-NX-Scan-d89-09-n800
 OpenBabel11261920413D

 24 23  0  0  0  0  0  0  0  0999 V2000
   -2.9503    1.5603   -0.8925 C   0  0  0  0  0  0  0  0  0  0  0  0
   -3.8500    2.2431   -1.6146 N   0  0  0  0  0  0  0  0  0  0  0  0
   -4.6307    2.7979   -2.2026 N   0  0  0  0  0  0  0  0  0  0  0  0
   -2.0264    0.7135   -1.5658 C   0  0  0  0  0  0  0  0  0  0  0  0
   -1.3008   -0.1741   -0.8206 C   0  0  0  0  0  0  0  0  0  0  0  0
   -1.5343   -0.2814    0.5810 C   0  0  0  0  0  0  0  0  0  0  0  0
   -0.9115   -1.2901    1.1837 O   0  0  0  0  0  0  0  0  0  0  0  0
   -1.3944   -1.7131    2.4771 C   0  0  0  0  0  0  0  0  0  0  0  0
   -2.3693    0.6327    1.2456 C   0  0  0  0  0  0  0  0  0  0  0  0
   -3.1242    1.5310    0.5188 C   0  0  0  0  0  0  0  0  0  0  0  0
   -1.9427    0.7515   -2.6459 H   0  0  0  0  0  0  0  0  0  0  0  0
   -0.6118   -0.8707   -1.2833 H   0  0  0  0  0  0  0  0  0  0  0  0
   -0.9243   -2.6792    2.6548 H   0  0  0  0  0  0  0  0  0  0  0  0
   -2.4831   -1.8084    2.4390 H   0  0  0  0  0  0  0  0  0  0  0  0
   -1.0819   -1.0075    3.2542 H   0  0  0  0  0  0  0  0  0  0  0  0
   -2.5254    0.5649    2.3127 H   0  0  0  0  0  0  0  0  0  0  0  0
   -3.8062    2.2149    0.9995 H   0  0  0  0  0  0  0  0  0  0  0  0
   -4.3610   -1.4519    0.9283 O   0  0  0  0  0  0  0  0  0  0  0  0
   -5.0168   -0.6924    0.1963 C   0  0  0  0  0  0  0  0  0  0  0  0
   -5.3311    0.5211    0.3444 O   0  0  0  0  0  0  0  0  0  0  0  0
   -5.4652   -1.2607   -1.1871 C   0  0  0  0  0  0  0  0  0  0  0  0
   -6.7842   -1.0918   -1.4111 F   0  0  0  0  0  0  0  0  0  0  0  0
   -4.8120   -0.5860   -2.1933 F   0  0  0  0  0  0  0  0  0  0  0  0
   -5.1859   -2.5637   -1.3568 F   0  0  0  0  0  0  0  0  0  0  0  0
  1 10  1  0  0  0  0
  2  1  1  0  0  0  0
  3  2  1  0  0  0  0
  4  1  2  0  0  0  0
  4  5  1  0  0  0  0
  5  6  2  0  0  0  0
  6  7  1  0  0  0  0
  6  9  1  0  0  0  0
  7  8  1  0  0  0  0
  8 13  1  0  0  0  0
  8 15  1  0  0  0  0
  9 16  1  0  0  0  0
 10 17  1  0  0  0  0
 10  9  2  0  0  0  0
 11  4  1  0  0  0  0
 12  5  1  0  0  0  0
 14  8  1  0  0  0  0
 19 20  2  0  0  0  0
 19 18  1  0  0  0  0
 21 19  1  0  0  0  0
 22 21  1  0  0  0  0
 23 21  1  0  0  0  0
 24 21  1  0  0  0  0
M  RAD  3   2   2   3   3  18   2
M  END
