Coordinates from ORCA-job 4-MeOPhN2+~CF3COO-_B3LYPG-6-31G_dp-NX-Scan-d89-09-n800
 OpenBabel11261920413D

 24 23  0  0  0  0  0  0  0  0999 V2000
   -2.5660    0.5888   -0.9739 C   0  0  0  0  0  0  0  0  0  0  0  0
   -3.3802    0.9716   -2.0424 N   0  0  0  0  0  0  0  0  0  0  0  0
   -3.5727    1.4741   -3.0297 N   0  0  0  0  0  0  0  0  0  0  0  0
   -1.2533    1.1171   -0.9960 C   0  0  0  0  0  0  0  0  0  0  0  0
   -0.3877    0.7745    0.0175 C   0  0  0  0  0  0  0  0  0  0  0  0
   -0.8122   -0.0954    1.0496 C   0  0  0  0  0  0  0  0  0  0  0  0
    0.1128   -0.3624    1.9869 O   0  0  0  0  0  0  0  0  0  0  0  0
   -0.2276   -1.2244    3.0759 C   0  0  0  0  0  0  0  0  0  0  0  0
   -2.1184   -0.6129    1.0424 C   0  0  0  0  0  0  0  0  0  0  0  0
   -3.0098   -0.2726    0.0317 C   0  0  0  0  0  0  0  0  0  0  0  0
   -0.9443    1.7813   -1.7961 H   0  0  0  0  0  0  0  0  0  0  0  0
    0.6247    1.1604    0.0459 H   0  0  0  0  0  0  0  0  0  0  0  0
    0.6693   -1.2863    3.6920 H   0  0  0  0  0  0  0  0  0  0  0  0
   -0.4980   -2.2237    2.7192 H   0  0  0  0  0  0  0  0  0  0  0  0
   -1.0511   -0.8074    3.6658 H   0  0  0  0  0  0  0  0  0  0  0  0
   -2.4586   -1.2827    1.8224 H   0  0  0  0  0  0  0  0  0  0  0  0
   -4.0324   -0.6753    0.0213 H   0  0  0  0  0  0  0  0  0  0  0  0
   -5.8092   -1.2454   -0.0624 O   0  0  0  0  0  0  0  0  0  0  0  0
   -6.1639   -0.4313   -0.9261 C   0  0  0  0  0  0  0  0  0  0  0  0
   -5.4816    0.4256   -1.5659 O   0  0  0  0  0  0  0  0  0  0  0  0
   -7.6648   -0.4311   -1.3461 C   0  0  0  0  0  0  0  0  0  0  0  0
   -8.1927    0.8096   -1.2756 F   0  0  0  0  0  0  0  0  0  0  0  0
   -7.7954   -0.8567   -2.6235 F   0  0  0  0  0  0  0  0  0  0  0  0
   -8.4104   -1.2356   -0.5711 F   0  0  0  0  0  0  0  0  0  0  0  0
  1 10  1  0  0  0  0
  2  1  1  0  0  0  0
  3  2  2  0  0  0  0
  4  1  2  0  0  0  0
  4  5  1  0  0  0  0
  5 12  1  0  0  0  0
  5  6  2  0  0  0  0
  6  7  1  0  0  0  0
  7  8  1  0  0  0  0
  8 15  1  0  0  0  0
  8 13  1  0  0  0  0
  9  6  1  0  0  0  0
  9 16  1  0  0  0  0
 10  9  2  0  0  0  0
 11  4  1  0  0  0  0
 14  8  1  0  0  0  0
 17 10  1  0  0  0  0
 19 18  1  0  0  0  0
 20 19  2  0  0  0  0
 21 22  1  0  0  0  0
 21 19  1  0  0  0  0
 21 24  1  0  0  0  0
 23 21  1  0  0  0  0
M  RAD  2   3   2  18   2
M  END
