Coordinates from ORCA-job 4-MeOPhN2+~CF3COO-_B3LYPG-6-31G_dp-NX-Scan-d89-09-n800
 OpenBabel11261920413D

 24 23  0  0  0  0  0  0  0  0999 V2000
   -2.5747    0.6522   -0.9405 C   0  0  0  0  0  0  0  0  0  0  0  0
   -3.4000    1.0872   -1.9787 N   0  0  0  0  0  0  0  0  0  0  0  0
   -3.6161    1.6469   -2.9295 N   0  0  0  0  0  0  0  0  0  0  0  0
   -1.2366    1.1101   -1.0030 C   0  0  0  0  0  0  0  0  0  0  0  0
   -0.3604    0.7244   -0.0148 C   0  0  0  0  0  0  0  0  0  0  0  0
   -0.8011   -0.1138    1.0368 C   0  0  0  0  0  0  0  0  0  0  0  0
    0.1360   -0.4273    1.9470 O   0  0  0  0  0  0  0  0  0  0  0  0
   -0.2178   -1.2645    3.0512 C   0  0  0  0  0  0  0  0  0  0  0  0
   -2.1343   -0.5553    1.0743 C   0  0  0  0  0  0  0  0  0  0  0  0
   -3.0348   -0.1762    0.0857 C   0  0  0  0  0  0  0  0  0  0  0  0
   -0.9158    1.7523   -1.8163 H   0  0  0  0  0  0  0  0  0  0  0  0
    0.6727    1.0523   -0.0206 H   0  0  0  0  0  0  0  0  0  0  0  0
    0.6928   -1.3733    3.6399 H   0  0  0  0  0  0  0  0  0  0  0  0
   -0.5534   -2.2489    2.7086 H   0  0  0  0  0  0  0  0  0  0  0  0
   -0.9985   -0.8000    3.6634 H   0  0  0  0  0  0  0  0  0  0  0  0
   -2.4888   -1.1974    1.8710 H   0  0  0  0  0  0  0  0  0  0  0  0
   -4.0778   -0.5207    0.1148 H   0  0  0  0  0  0  0  0  0  0  0  0
   -5.8710   -1.0604    0.1123 O   0  0  0  0  0  0  0  0  0  0  0  0
   -6.1773   -0.4297   -0.9090 C   0  0  0  0  0  0  0  0  0  0  0  0
   -5.4605    0.3006   -1.6586 O   0  0  0  0  0  0  0  0  0  0  0  0
   -7.6554   -0.5107   -1.3960 C   0  0  0  0  0  0  0  0  0  0  0  0
   -8.2144    0.7189   -1.4405 F   0  0  0  0  0  0  0  0  0  0  0  0
   -7.7211   -1.0324   -2.6413 F   0  0  0  0  0  0  0  0  0  0  0  0
   -8.4154   -1.2745   -0.5943 F   0  0  0  0  0  0  0  0  0  0  0  0
  1 10  1  0  0  0  0
  2  1  1  0  0  0  0
  3  2  2  0  0  0  0
  4  1  2  0  0  0  0
  4  5  1  0  0  0  0
  5  6  2  0  0  0  0
  6  9  1  0  0  0  0
  6  7  1  0  0  0  0
  7  8  1  0  0  0  0
  8 13  1  0  0  0  0
  8 15  1  0  0  0  0
  9 16  1  0  0  0  0
 10 17  1  0  0  0  0
 10  9  2  0  0  0  0
 11  4  1  0  0  0  0
 12  5  1  0  0  0  0
 14  8  1  0  0  0  0
 19 18  1  0  0  0  0
 20 19  2  0  0  0  0
 21 19  1  0  0  0  0
 21 24  1  0  0  0  0
 22 21  1  0  0  0  0
 23 21  1  0  0  0  0
M  RAD  2   3   2  18   2
M  END
