Coordinates from ORCA-job 4-MeOPhN2+~CF3COO-_B3LYPG-6-31G_dp-NX-Scan-d89-09-n800
 OpenBabel11261920413D

 24 23  0  0  0  0  0  0  0  0999 V2000
   -2.8869    1.8095   -0.9208 C   0  0  0  0  0  0  0  0  0  0  0  0
   -3.6063    2.7153   -1.5948 N   0  0  0  0  0  0  0  0  0  0  0  0
   -4.2250    3.4787   -2.1469 N   0  0  0  0  0  0  0  0  0  0  0  0
   -1.9430    1.0069   -1.6257 C   0  0  0  0  0  0  0  0  0  0  0  0
   -1.3235   -0.0030   -0.9468 C   0  0  0  0  0  0  0  0  0  0  0  0
   -1.6457   -0.2526    0.4222 C   0  0  0  0  0  0  0  0  0  0  0  0
   -1.0685   -1.3306    0.9451 O   0  0  0  0  0  0  0  0  0  0  0  0
   -1.5601   -1.8385    2.2059 C   0  0  0  0  0  0  0  0  0  0  0  0
   -2.5096    0.5993    1.1274 C   0  0  0  0  0  0  0  0  0  0  0  0
   -3.1977    1.5912    0.4509 C   0  0  0  0  0  0  0  0  0  0  0  0
   -1.7515    1.1886   -2.6770 H   0  0  0  0  0  0  0  0  0  0  0  0
   -0.6231   -0.6679   -1.4384 H   0  0  0  0  0  0  0  0  0  0  0  0
   -1.0758   -2.8061    2.3286 H   0  0  0  0  0  0  0  0  0  0  0  0
   -2.6485   -1.9412    2.1577 H   0  0  0  0  0  0  0  0  0  0  0  0
   -1.2647   -1.1748    3.0252 H   0  0  0  0  0  0  0  0  0  0  0  0
   -2.7757    0.3962    2.1529 H   0  0  0  0  0  0  0  0  0  0  0  0
   -3.8977    2.2354    0.9601 H   0  0  0  0  0  0  0  0  0  0  0  0
   -4.6716   -1.1189    1.4364 O   0  0  0  0  0  0  0  0  0  0  0  0
   -5.1122   -0.6575    0.3667 C   0  0  0  0  0  0  0  0  0  0  0  0
   -5.3193    0.5394    0.0267 O   0  0  0  0  0  0  0  0  0  0  0  0
   -5.3095   -1.6857   -0.7855 C   0  0  0  0  0  0  0  0  0  0  0  0
   -6.3008   -1.3524   -1.6357 F   0  0  0  0  0  0  0  0  0  0  0  0
   -4.1566   -1.7359   -1.5227 F   0  0  0  0  0  0  0  0  0  0  0  0
   -5.5503   -2.9355   -0.3498 F   0  0  0  0  0  0  0  0  0  0  0  0
  1 10  2  0  0  0  0
  2  1  1  0  0  0  0
  3  2  1  0  0  0  0
  4  5  2  0  0  0  0
  4  1  1  0  0  0  0
  5  6  1  0  0  0  0
  6  7  1  0  0  0  0
  6  9  2  0  0  0  0
  7  8  1  0  0  0  0
  8 13  1  0  0  0  0
  8 15  1  0  0  0  0
  9 16  1  0  0  0  0
 10 17  1  0  0  0  0
 10  9  1  0  0  0  0
 11  4  1  0  0  0  0
 12  5  1  0  0  0  0
 14  8  1  0  0  0  0
 19 18  1  0  0  0  0
 20 19  2  0  0  0  0
 21 24  1  0  0  0  0
 21 19  1  0  0  0  0
 22 21  1  0  0  0  0
 23 21  1  0  0  0  0
M  RAD  3   2   2   3   3  18   2
M  END
