Coordinates from ORCA-job 4-MeOPhN2+~CF3COO-_B3LYPG-6-31G_dp-NX-Scan-d89-09-n800
 OpenBabel11261920413D

 24 23  0  0  0  0  0  0  0  0999 V2000
   -2.9506    1.5641   -0.8938 C   0  0  0  0  0  0  0  0  0  0  0  0
   -3.8416    2.2570   -1.6170 N   0  0  0  0  0  0  0  0  0  0  0  0
   -4.6123    2.8231   -2.2078 N   0  0  0  0  0  0  0  0  0  0  0  0
   -2.0277    0.7164   -1.5675 C   0  0  0  0  0  0  0  0  0  0  0  0
   -1.3046   -0.1737   -0.8230 C   0  0  0  0  0  0  0  0  0  0  0  0
   -1.5381   -0.2818    0.5786 C   0  0  0  0  0  0  0  0  0  0  0  0
   -0.9152   -1.2909    1.1807 O   0  0  0  0  0  0  0  0  0  0  0  0
   -1.3970   -1.7137    2.4747 C   0  0  0  0  0  0  0  0  0  0  0  0
   -2.3730    0.6320    1.2436 C   0  0  0  0  0  0  0  0  0  0  0  0
   -3.1273    1.5311    0.5170 C   0  0  0  0  0  0  0  0  0  0  0  0
   -1.9421    0.7564   -2.6473 H   0  0  0  0  0  0  0  0  0  0  0  0
   -0.6161   -0.8706   -1.2861 H   0  0  0  0  0  0  0  0  0  0  0  0
   -0.9270   -2.6800    2.6518 H   0  0  0  0  0  0  0  0  0  0  0  0
   -2.4858   -1.8087    2.4375 H   0  0  0  0  0  0  0  0  0  0  0  0
   -1.0834   -1.0082    3.2514 H   0  0  0  0  0  0  0  0  0  0  0  0
   -2.5297    0.5636    2.3105 H   0  0  0  0  0  0  0  0  0  0  0  0
   -3.8095    2.2146    0.9981 H   0  0  0  0  0  0  0  0  0  0  0  0
   -4.3633   -1.4547    0.9375 O   0  0  0  0  0  0  0  0  0  0  0  0
   -5.0160   -0.6966    0.2014 C   0  0  0  0  0  0  0  0  0  0  0  0
   -5.3295    0.5177    0.3451 O   0  0  0  0  0  0  0  0  0  0  0  0
   -5.4621   -1.2685   -1.1812 C   0  0  0  0  0  0  0  0  0  0  0  0
   -6.7815   -1.1028   -1.4059 F   0  0  0  0  0  0  0  0  0  0  0  0
   -4.8100   -0.5946   -2.1884 F   0  0  0  0  0  0  0  0  0  0  0  0
   -5.1802   -2.5714   -1.3481 F   0  0  0  0  0  0  0  0  0  0  0  0
  1 10  1  0  0  0  0
  2  1  1  0  0  0  0
  3  2  1  0  0  0  0
  4  1  2  0  0  0  0
  4  5  1  0  0  0  0
  5  6  2  0  0  0  0
  6  7  1  0  0  0  0
  6  9  1  0  0  0  0
  7  8  1  0  0  0  0
  8 13  1  0  0  0  0
  8 15  1  0  0  0  0
  9 16  1  0  0  0  0
 10 17  1  0  0  0  0
 10  9  2  0  0  0  0
 11  4  1  0  0  0  0
 12  5  1  0  0  0  0
 14  8  1  0  0  0  0
 19 20  2  0  0  0  0
 19 18  1  0  0  0  0
 21 19  1  0  0  0  0
 22 21  1  0  0  0  0
 23 21  1  0  0  0  0
 24 21  1  0  0  0  0
M  RAD  3   2   2   3   3  18   2
M  END
