Coordinates from ORCA-job 4-MeOPhN2+~CF3COO-_B3LYPG-6-31G_dp-NX-Scan-d89-09-n800
 OpenBabel11261920413D

 24 24  0  0  0  0  0  0  0  0999 V2000
   -1.9301   -1.0003    0.5347 C   0  0  0  0  0  0  0  0  0  0  0  0
   -2.1142   -2.2309    1.1728 N   0  0  0  0  0  0  0  0  0  0  0  0
   -2.9878   -2.9550    1.5081 N   0  0  0  0  0  0  0  0  0  0  0  0
   -0.5845   -0.6032    0.3979 C   0  0  0  0  0  0  0  0  0  0  0  0
   -0.2688    0.5965   -0.2079 C   0  0  0  0  0  0  0  0  0  0  0  0
   -1.2974    1.4287   -0.6899 C   0  0  0  0  0  0  0  0  0  0  0  0
   -0.8927    2.5802   -1.2659 O   0  0  0  0  0  0  0  0  0  0  0  0
   -1.8726    3.4788   -1.7820 C   0  0  0  0  0  0  0  0  0  0  0  0
   -2.6408    1.0360   -0.5529 C   0  0  0  0  0  0  0  0  0  0  0  0
   -2.9628   -0.1718    0.0539 C   0  0  0  0  0  0  0  0  0  0  0  0
    0.1930   -1.2570    0.7775 H   0  0  0  0  0  0  0  0  0  0  0  0
    0.7593    0.9208   -0.3238 H   0  0  0  0  0  0  0  0  0  0  0  0
   -1.3152    4.3240   -2.1855 H   0  0  0  0  0  0  0  0  0  0  0  0
   -2.5463    3.8299   -0.9924 H   0  0  0  0  0  0  0  0  0  0  0  0
   -2.4573    3.0125   -2.5833 H   0  0  0  0  0  0  0  0  0  0  0  0
   -3.4425    1.6653   -0.9187 H   0  0  0  0  0  0  0  0  0  0  0  0
   -3.9940   -0.4760    0.1616 H   0  0  0  0  0  0  0  0  0  0  0  0
   -4.4995   -2.3516    1.0141 O   0  0  0  0  0  0  0  0  0  0  0  0
   -5.5020   -2.8927    1.6767 C   0  0  0  0  0  0  0  0  0  0  0  0
   -5.4892   -3.6469    2.6194 O   0  0  0  0  0  0  0  0  0  0  0  0
   -6.8393   -2.4176    1.0404 C   0  0  0  0  0  0  0  0  0  0  0  0
   -7.8731   -2.6761    1.8459 F   0  0  0  0  0  0  0  0  0  0  0  0
   -6.8191   -1.0871    0.7952 F   0  0  0  0  0  0  0  0  0  0  0  0
   -7.0466   -3.0465   -0.1340 F   0  0  0  0  0  0  0  0  0  0  0  0
  1  2  1  0  0  0  0
  2  3  1  0  0  0  0
  4  1  1  0  0  0  0
  4 11  1  0  0  0  0
  5  4  2  0  0  0  0
  6  9  2  0  0  0  0
  6  5  1  0  0  0  0
  7  6  1  0  0  0  0
  8  7  1  0  0  0  0
  8 14  1  0  0  0  0
  9 10  1  0  0  0  0
 10 17  1  0  0  0  0
 10  1  2  0  0  0  0
 12  5  1  0  0  0  0
 13  8  1  0  0  0  0
 15  8  1  0  0  0  0
 16  9  1  0  0  0  0
 18  3  1  0  0  0  0
 18 19  1  0  0  0  0
 19 20  2  0  0  0  0
 21 19  1  0  0  0  0
 21 22  1  0  0  0  0
 23 21  1  0  0  0  0
 24 21  1  0  0  0  0
M  RAD  2   2   2   3   2
M  END
