Coordinates from ORCA-job 4-MeOPhN2+~CF3COO-_B3LYPG-6-31G_dp-NX-Scan-d89-09-n800
 OpenBabel11261920413D

 24 23  0  0  0  0  0  0  0  0999 V2000
   -2.9521    1.5132   -0.8708 C   0  0  0  0  0  0  0  0  0  0  0  0
   -3.9160    2.1119   -1.5900 N   0  0  0  0  0  0  0  0  0  0  0  0
   -4.7591    2.5732   -2.1682 N   0  0  0  0  0  0  0  0  0  0  0  0
   -2.0154    0.6810   -1.5409 C   0  0  0  0  0  0  0  0  0  0  0  0
   -1.2566   -0.1744   -0.7889 C   0  0  0  0  0  0  0  0  0  0  0  0
   -1.4810   -0.2689    0.6130 C   0  0  0  0  0  0  0  0  0  0  0  0
   -0.8476   -1.2659    1.2256 O   0  0  0  0  0  0  0  0  0  0  0  0
   -1.3466   -1.6976    2.5095 C   0  0  0  0  0  0  0  0  0  0  0  0
   -2.3251    0.6418    1.2732 C   0  0  0  0  0  0  0  0  0  0  0  0
   -3.0995    1.5177    0.5421 C   0  0  0  0  0  0  0  0  0  0  0  0
   -1.9514    0.6962   -2.6229 H   0  0  0  0  0  0  0  0  0  0  0  0
   -0.5577   -0.8634   -1.2481 H   0  0  0  0  0  0  0  0  0  0  0  0
   -0.8708   -2.6600    2.6921 H   0  0  0  0  0  0  0  0  0  0  0  0
   -2.4337   -1.8044    2.4545 H   0  0  0  0  0  0  0  0  0  0  0  0
   -1.0551   -0.9925    3.2951 H   0  0  0  0  0  0  0  0  0  0  0  0
   -2.4647    0.5902    2.3439 H   0  0  0  0  0  0  0  0  0  0  0  0
   -3.8003    2.1862    1.0171 H   0  0  0  0  0  0  0  0  0  0  0  0
   -4.3383   -1.4356    0.7989 O   0  0  0  0  0  0  0  0  0  0  0  0
   -5.0407   -0.6614    0.1297 C   0  0  0  0  0  0  0  0  0  0  0  0
   -5.3694    0.5391    0.3361 O   0  0  0  0  0  0  0  0  0  0  0  0
   -5.5319   -1.1883   -1.2568 C   0  0  0  0  0  0  0  0  0  0  0  0
   -6.8444   -0.9636   -1.4654 F   0  0  0  0  0  0  0  0  0  0  0  0
   -4.8619   -0.5181   -2.2596 F   0  0  0  0  0  0  0  0  0  0  0  0
   -5.3043   -2.4965   -1.4572 F   0  0  0  0  0  0  0  0  0  0  0  0
  1 10  1  0  0  0  0
  2  1  1  0  0  0  0
  3  2  1  0  0  0  0
  4  1  2  0  0  0  0
  4  5  1  0  0  0  0
  5  6  2  0  0  0  0
  6  7  1  0  0  0  0
  6  9  1  0  0  0  0
  7  8  1  0  0  0  0
  8 13  1  0  0  0  0
  8 15  1  0  0  0  0
  9 16  1  0  0  0  0
 10 17  1  0  0  0  0
 10  9  2  0  0  0  0
 11  4  1  0  0  0  0
 12  5  1  0  0  0  0
 14  8  1  0  0  0  0
 19 20  2  0  0  0  0
 19 18  1  0  0  0  0
 21 19  1  0  0  0  0
 22 21  1  0  0  0  0
 23 21  1  0  0  0  0
 24 21  1  0  0  0  0
M  RAD  3   2   2   3   3  18   2
M  END
