Coordinates from ORCA-job 4-MeOPhN2+~CF3COO-_B3LYPG-6-31G_dp-NX-Scan-d89-09-n800
 OpenBabel11261920413D

 24 23  0  0  0  0  0  0  0  0999 V2000
   -2.6429    0.2755   -1.0356 C   0  0  0  0  0  0  0  0  0  0  0  0
   -3.4762    0.4414   -2.1565 N   0  0  0  0  0  0  0  0  0  0  0  0
   -3.6108    0.6000   -3.2632 N   0  0  0  0  0  0  0  0  0  0  0  0
   -1.4328    0.9913   -1.0324 C   0  0  0  0  0  0  0  0  0  0  0  0
   -0.5766    0.8280    0.0393 C   0  0  0  0  0  0  0  0  0  0  0  0
   -0.9133   -0.0502    1.0905 C   0  0  0  0  0  0  0  0  0  0  0  0
   -0.0066   -0.1337    2.0831 O   0  0  0  0  0  0  0  0  0  0  0  0
   -0.2685   -0.9928    3.1926 C   0  0  0  0  0  0  0  0  0  0  0  0
   -2.1235   -0.7670    1.0525 C   0  0  0  0  0  0  0  0  0  0  0  0
   -3.0023   -0.5958   -0.0087 C   0  0  0  0  0  0  0  0  0  0  0  0
   -1.1879    1.6624   -1.8483 H   0  0  0  0  0  0  0  0  0  0  0  0
    0.3627    1.3660    0.0927 H   0  0  0  0  0  0  0  0  0  0  0  0
    0.5897   -0.8860    3.8565 H   0  0  0  0  0  0  0  0  0  0  0  0
   -0.3560   -2.0376    2.8739 H   0  0  0  0  0  0  0  0  0  0  0  0
   -1.1797   -0.6912    3.7216 H   0  0  0  0  0  0  0  0  0  0  0  0
   -2.3899   -1.4545    1.8454 H   0  0  0  0  0  0  0  0  0  0  0  0
   -3.9331   -1.1460   -0.0986 H   0  0  0  0  0  0  0  0  0  0  0  0
   -5.4755   -1.3824   -1.5746 O   0  0  0  0  0  0  0  0  0  0  0  0
   -5.9638   -0.2764   -1.3015 C   0  0  0  0  0  0  0  0  0  0  0  0
   -5.3610    0.8294   -1.1415 O   0  0  0  0  0  0  0  0  0  0  0  0
   -7.5070   -0.1650   -1.1410 C   0  0  0  0  0  0  0  0  0  0  0  0
   -7.8331    0.4669    0.0068 F   0  0  0  0  0  0  0  0  0  0  0  0
   -8.0329    0.5451   -2.1632 F   0  0  0  0  0  0  0  0  0  0  0  0
   -8.1028   -1.3678   -1.1279 F   0  0  0  0  0  0  0  0  0  0  0  0
  1  4  2  0  0  0  0
  1 10  1  0  0  0  0
  2  1  1  0  0  0  0
  3  2  2  0  0  0  0
  4  5  1  0  0  0  0
  5 12  1  0  0  0  0
  5  6  2  0  0  0  0
  6  7  1  0  0  0  0
  7  8  1  0  0  0  0
  8 15  1  0  0  0  0
  8 13  1  0  0  0  0
  9  6  1  0  0  0  0
  9 16  1  0  0  0  0
 10  9  2  0  0  0  0
 11  4  1  0  0  0  0
 14  8  1  0  0  0  0
 17 10  1  0  0  0  0
 18 19  2  0  0  0  0
 19 20  1  0  0  0  0
 19 21  1  0  0  0  0
 21 24  1  0  0  0  0
 21 22  1  0  0  0  0
 23 21  1  0  0  0  0
M  RAD  2   3   2  20   2
M  END
