Coordinates from ORCA-job 4-MeOPhN2+~CF3COO-_B3LYPG-6-31G_dp-NX-Scan-d89-09-n800
 OpenBabel11261920413D

 24 24  0  0  0  0  0  0  0  0999 V2000
   -2.0492   -0.9581    0.7209 C   0  0  0  0  0  0  0  0  0  0  0  0
   -2.1514   -2.1523    1.4885 N   0  0  0  0  0  0  0  0  0  0  0  0
   -3.3251   -2.6985    1.6831 N   0  0  0  0  0  0  0  0  0  0  0  0
   -0.7088   -0.6566    0.3840 C   0  0  0  0  0  0  0  0  0  0  0  0
   -0.3689    0.4738   -0.3347 C   0  0  0  0  0  0  0  0  0  0  0  0
   -1.3682    1.3733   -0.7426 C   0  0  0  0  0  0  0  0  0  0  0  0
   -0.9395    2.4590   -1.4468 O   0  0  0  0  0  0  0  0  0  0  0  0
   -1.9049    3.4034   -1.8809 C   0  0  0  0  0  0  0  0  0  0  0  0
   -2.7007    1.1104   -0.4098 C   0  0  0  0  0  0  0  0  0  0  0  0
   -3.0390   -0.0411    0.3084 C   0  0  0  0  0  0  0  0  0  0  0  0
    0.0553   -1.3532    0.7132 H   0  0  0  0  0  0  0  0  0  0  0  0
    0.6625    0.6905   -0.5930 H   0  0  0  0  0  0  0  0  0  0  0  0
   -1.3526    4.1729   -2.4226 H   0  0  0  0  0  0  0  0  0  0  0  0
   -2.4296    3.8645   -1.0345 H   0  0  0  0  0  0  0  0  0  0  0  0
   -2.6432    2.9475   -2.5537 H   0  0  0  0  0  0  0  0  0  0  0  0
   -3.4915    1.7909   -0.7032 H   0  0  0  0  0  0  0  0  0  0  0  0
   -4.0831   -0.1878    0.5454 H   0  0  0  0  0  0  0  0  0  0  0  0
   -4.1551   -2.3283    1.3162 O   0  0  0  0  0  0  0  0  0  0  0  0
   -5.4920   -3.0896    1.6312 C   0  0  0  0  0  0  0  0  0  0  0  0
   -5.4874   -4.0563    2.3038 O   0  0  0  0  0  0  0  0  0  0  0  0
   -6.6186   -2.3456    0.9098 C   0  0  0  0  0  0  0  0  0  0  0  0
   -7.7996   -2.8516    1.2592 F   0  0  0  0  0  0  0  0  0  0  0  0
   -6.5792   -1.0432    1.2340 F   0  0  0  0  0  0  0  0  0  0  0  0
   -6.4541   -2.4638   -0.4140 F   0  0  0  0  0  0  0  0  0  0  0  0
  1  2  1  0  0  0  0
  2  3  2  0  0  0  0
  4 11  1  0  0  0  0
  4  1  1  0  0  0  0
  5  4  2  0  0  0  0
  6  9  2  0  0  0  0
  6  5  1  0  0  0  0
  7  6  1  0  0  0  0
  8  7  1  0  0  0  0
  8 14  1  0  0  0  0
  9 10  1  0  0  0  0
 10 17  1  0  0  0  0
 10  1  2  0  0  0  0
 12  5  1  0  0  0  0
 13  8  1  0  0  0  0
 15  8  1  0  0  0  0
 16  9  1  0  0  0  0
 18 19  1  0  0  0  0
 18  3  1  0  0  0  0
 19 20  2  0  0  0  0
 21 23  1  0  0  0  0
 21 22  1  0  0  0  0
 21 19  1  0  0  0  0
 24 21  1  0  0  0  0
M  END
