Coordinates from ORCA-job 4-MeOPhN2+~CF3COO-_B3LYPG-6-31G_dp-NX-Scan-d89-09-n800
 OpenBabel11261920413D

 24 23  0  0  0  0  0  0  0  0999 V2000
   -2.0859    1.9617   -1.4003 C   0  0  0  0  0  0  0  0  0  0  0  0
   -2.4799    2.8875   -2.2901 N   0  0  0  0  0  0  0  0  0  0  0  0
   -2.8367    3.6636   -3.0262 N   0  0  0  0  0  0  0  0  0  0  0  0
   -0.7187    1.5579   -1.3769 C   0  0  0  0  0  0  0  0  0  0  0  0
   -0.3493    0.5845   -0.4898 C   0  0  0  0  0  0  0  0  0  0  0  0
   -1.3177   -0.0133    0.3745 C   0  0  0  0  0  0  0  0  0  0  0  0
   -0.8658   -0.9737    1.1498 O   0  0  0  0  0  0  0  0  0  0  0  0
   -1.7992   -1.6996    2.0071 C   0  0  0  0  0  0  0  0  0  0  0  0
   -2.6668    0.4263    0.3659 C   0  0  0  0  0  0  0  0  0  0  0  0
   -3.0536    1.3953   -0.5227 C   0  0  0  0  0  0  0  0  0  0  0  0
   -0.0031    2.0120   -2.0533 H   0  0  0  0  0  0  0  0  0  0  0  0
    0.6744    0.2315   -0.4388 H   0  0  0  0  0  0  0  0  0  0  0  0
   -1.2169   -2.5302    2.4021 H   0  0  0  0  0  0  0  0  0  0  0  0
   -2.6671   -2.0364    1.4192 H   0  0  0  0  0  0  0  0  0  0  0  0
   -2.1216   -1.0422    2.8193 H   0  0  0  0  0  0  0  0  0  0  0  0
   -3.4739   -0.0004    0.9859 H   0  0  0  0  0  0  0  0  0  0  0  0
   -4.0942    1.7018   -0.5556 H   0  0  0  0  0  0  0  0  0  0  0  0
   -4.4143   -2.3305    0.4729 O   0  0  0  0  0  0  0  0  0  0  0  0
   -5.3197   -1.4951    0.6807 C   0  0  0  0  0  0  0  0  0  0  0  0
   -5.2596   -0.3464    1.1906 O   0  0  0  0  0  0  0  0  0  0  0  0
   -6.7441   -1.8927    0.1899 C   0  0  0  0  0  0  0  0  0  0  0  0
   -7.6946   -1.6054    1.1057 F   0  0  0  0  0  0  0  0  0  0  0  0
   -7.0558   -1.1962   -0.9379 F   0  0  0  0  0  0  0  0  0  0  0  0
   -6.8594   -3.2003   -0.1104 F   0  0  0  0  0  0  0  0  0  0  0  0
  1  4  2  0  0  0  0
  1 10  1  0  0  0  0
  2  1  1  0  0  0  0
  3  2  1  0  0  0  0
  4  5  1  0  0  0  0
  5 12  1  0  0  0  0
  5  6  2  0  0  0  0
  6  7  1  0  0  0  0
  7  8  1  0  0  0  0
  8 13  1  0  0  0  0
  8 15  1  0  0  0  0
  9  6  1  0  0  0  0
  9 16  1  0  0  0  0
 10  9  2  0  0  0  0
 11  4  1  0  0  0  0
 14  8  1  0  0  0  0
 17 10  1  0  0  0  0
 18 19  2  0  0  0  0
 19 20  1  0  0  0  0
 21 19  1  0  0  0  0
 21 22  1  0  0  0  0
 23 21  1  0  0  0  0
 24 21  1  0  0  0  0
M  RAD  3   2   2   3   3  20   2
M  END
