Coordinates from ORCA-job 4-MeOPhN2+~CF3COO-_B3LYPG-6-31G_dp-NX-Scan-d89-09-n800
 OpenBabel11261920413D

 24 23  0  0  0  0  0  0  0  0999 V2000
   -2.0745    1.9715   -1.4038 C   0  0  0  0  0  0  0  0  0  0  0  0
   -2.4600    2.9051   -2.2889 N   0  0  0  0  0  0  0  0  0  0  0  0
   -2.8087    3.6887   -3.0210 N   0  0  0  0  0  0  0  0  0  0  0  0
   -0.7087    1.5632   -1.3753 C   0  0  0  0  0  0  0  0  0  0  0  0
   -0.3469    0.5849   -0.4906 C   0  0  0  0  0  0  0  0  0  0  0  0
   -1.3212   -0.0129    0.3673 C   0  0  0  0  0  0  0  0  0  0  0  0
   -0.8743   -0.9743    1.1438 O   0  0  0  0  0  0  0  0  0  0  0  0
   -1.8096   -1.6951    2.0030 C   0  0  0  0  0  0  0  0  0  0  0  0
   -2.6697    0.4287    0.3520 C   0  0  0  0  0  0  0  0  0  0  0  0
   -3.0487    1.4027   -0.5346 C   0  0  0  0  0  0  0  0  0  0  0  0
    0.0118    2.0185   -2.0456 H   0  0  0  0  0  0  0  0  0  0  0  0
    0.6756    0.2290   -0.4353 H   0  0  0  0  0  0  0  0  0  0  0  0
   -1.2278   -2.5228    2.4046 H   0  0  0  0  0  0  0  0  0  0  0  0
   -2.6767   -2.0368    1.4163 H   0  0  0  0  0  0  0  0  0  0  0  0
   -2.1341   -1.0327    2.8104 H   0  0  0  0  0  0  0  0  0  0  0  0
   -3.4811    0.0004    0.9664 H   0  0  0  0  0  0  0  0  0  0  0  0
   -4.0879    1.7131   -0.5725 H   0  0  0  0  0  0  0  0  0  0  0  0
   -4.4187   -2.3470    0.4736 O   0  0  0  0  0  0  0  0  0  0  0  0
   -5.3216   -1.5092    0.6822 C   0  0  0  0  0  0  0  0  0  0  0  0
   -5.2566   -0.3574    1.1844 O   0  0  0  0  0  0  0  0  0  0  0  0
   -6.7505   -1.9081    0.2057 C   0  0  0  0  0  0  0  0  0  0  0  0
   -7.6912   -1.6233    1.1324 F   0  0  0  0  0  0  0  0  0  0  0  0
   -7.0754   -1.2108   -0.9177 F   0  0  0  0  0  0  0  0  0  0  0  0
   -6.8672   -3.2155   -0.0948 F   0  0  0  0  0  0  0  0  0  0  0  0
  1  4  2  0  0  0  0
  1 10  1  0  0  0  0
  2  1  1  0  0  0  0
  3  2  1  0  0  0  0
  4  5  1  0  0  0  0
  5 12  1  0  0  0  0
  5  6  2  0  0  0  0
  6  7  1  0  0  0  0
  7  8  1  0  0  0  0
  8 13  1  0  0  0  0
  8 15  1  0  0  0  0
  9  6  1  0  0  0  0
  9 16  1  0  0  0  0
 10  9  2  0  0  0  0
 11  4  1  0  0  0  0
 14  8  1  0  0  0  0
 17 10  1  0  0  0  0
 18 19  2  0  0  0  0
 19 20  1  0  0  0  0
 21 19  1  0  0  0  0
 21 22  1  0  0  0  0
 23 21  1  0  0  0  0
 24 21  1  0  0  0  0
M  RAD  3   2   2   3   3  20   2
M  END
