Coordinates from ORCA-job 4-MeOPhN2+~CF3COO-_B3LYPG-6-31G_dp-NX-Scan-d89-09-n800
 OpenBabel11261920413D

 24 23  0  0  0  0  0  0  0  0999 V2000
   -2.5727    0.6604   -0.9453 C   0  0  0  0  0  0  0  0  0  0  0  0
   -3.3936    1.1013   -1.9847 N   0  0  0  0  0  0  0  0  0  0  0  0
   -3.6023    1.6664   -2.9346 N   0  0  0  0  0  0  0  0  0  0  0  0
   -1.2324    1.1125   -1.0063 C   0  0  0  0  0  0  0  0  0  0  0  0
   -0.3582    0.7229   -0.0181 C   0  0  0  0  0  0  0  0  0  0  0  0
   -0.8028   -0.1138    1.0331 C   0  0  0  0  0  0  0  0  0  0  0  0
    0.1322   -0.4314    1.9437 O   0  0  0  0  0  0  0  0  0  0  0  0
   -0.2257   -1.2676    3.0476 C   0  0  0  0  0  0  0  0  0  0  0  0
   -2.1379   -0.5495    1.0696 C   0  0  0  0  0  0  0  0  0  0  0  0
   -3.0365   -0.1667    0.0809 C   0  0  0  0  0  0  0  0  0  0  0  0
   -0.9084    1.7537   -1.8192 H   0  0  0  0  0  0  0  0  0  0  0  0
    0.6763    1.0466   -0.0234 H   0  0  0  0  0  0  0  0  0  0  0  0
    0.6841   -1.3801    3.6368 H   0  0  0  0  0  0  0  0  0  0  0  0
   -0.5650   -2.2504    2.7044 H   0  0  0  0  0  0  0  0  0  0  0  0
   -1.0049   -0.8000    3.6593 H   0  0  0  0  0  0  0  0  0  0  0  0
   -2.4960   -1.1902    1.8658 H   0  0  0  0  0  0  0  0  0  0  0  0
   -4.0797   -0.5080    0.1123 H   0  0  0  0  0  0  0  0  0  0  0  0
   -5.8866   -1.0658    0.1398 O   0  0  0  0  0  0  0  0  0  0  0  0
   -6.1770   -0.4393   -0.8894 C   0  0  0  0  0  0  0  0  0  0  0  0
   -5.4534    0.2858   -1.6397 O   0  0  0  0  0  0  0  0  0  0  0  0
   -7.6507   -0.5183   -1.3920 C   0  0  0  0  0  0  0  0  0  0  0  0
   -8.2064    0.7126   -1.4458 F   0  0  0  0  0  0  0  0  0  0  0  0
   -7.7050   -1.0434   -2.6364 F   0  0  0  0  0  0  0  0  0  0  0  0
   -8.4213   -1.2778   -0.5963 F   0  0  0  0  0  0  0  0  0  0  0  0
  1 10  1  0  0  0  0
  2  1  1  0  0  0  0
  3  2  2  0  0  0  0
  4  1  2  0  0  0  0
  4  5  1  0  0  0  0
  5  6  2  0  0  0  0
  6  9  1  0  0  0  0
  6  7  1  0  0  0  0
  7  8  1  0  0  0  0
  8 13  1  0  0  0  0
  8 15  1  0  0  0  0
  9 16  1  0  0  0  0
 10 17  1  0  0  0  0
 10  9  2  0  0  0  0
 11  4  1  0  0  0  0
 12  5  1  0  0  0  0
 14  8  1  0  0  0  0
 19 18  1  0  0  0  0
 20 19  2  0  0  0  0
 21 19  1  0  0  0  0
 21 24  1  0  0  0  0
 22 21  1  0  0  0  0
 23 21  1  0  0  0  0
M  RAD  2   3   2  18   2
M  END
