Coordinates from ORCA-job 4-MeOPhN2+~CF3COO-_B3LYPG-6-31G_dp-NX-Scan-d89-09-n800
 OpenBabel11261920413D

 24 24  0  0  0  0  0  0  0  0999 V2000
   -1.9775   -0.9845    0.5954 C   0  0  0  0  0  0  0  0  0  0  0  0
   -2.1268   -2.2054    1.2702 N   0  0  0  0  0  0  0  0  0  0  0  0
   -3.0546   -2.8958    1.6072 N   0  0  0  0  0  0  0  0  0  0  0  0
   -0.6290   -0.6222    0.3892 C   0  0  0  0  0  0  0  0  0  0  0  0
   -0.2997    0.5539   -0.2552 C   0  0  0  0  0  0  0  0  0  0  0  0
   -1.3200    1.4105   -0.7074 C   0  0  0  0  0  0  0  0  0  0  0  0
   -0.9058    2.5384   -1.3261 O   0  0  0  0  0  0  0  0  0  0  0  0
   -1.8808    3.4549   -1.8160 C   0  0  0  0  0  0  0  0  0  0  0  0
   -2.6661    1.0640   -0.4994 C   0  0  0  0  0  0  0  0  0  0  0  0
   -2.9984   -0.1235    0.1434 C   0  0  0  0  0  0  0  0  0  0  0  0
    0.1428   -1.2938    0.7491 H   0  0  0  0  0  0  0  0  0  0  0  0
    0.7327    0.8402   -0.4228 H   0  0  0  0  0  0  0  0  0  0  0  0
   -1.3187    4.2709   -2.2705 H   0  0  0  0  0  0  0  0  0  0  0  0
   -2.5019    3.8495   -1.0037 H   0  0  0  0  0  0  0  0  0  0  0  0
   -2.5217    2.9886   -2.5736 H   0  0  0  0  0  0  0  0  0  0  0  0
   -3.4639    1.7135   -0.8379 H   0  0  0  0  0  0  0  0  0  0  0  0
   -4.0365   -0.3757    0.2968 H   0  0  0  0  0  0  0  0  0  0  0  0
   -4.4229   -2.3038    1.1451 O   0  0  0  0  0  0  0  0  0  0  0  0
   -5.4734   -2.9410    1.6661 C   0  0  0  0  0  0  0  0  0  0  0  0
   -5.5049   -3.8060    2.4998 O   0  0  0  0  0  0  0  0  0  0  0  0
   -6.7586   -2.3940    0.9894 C   0  0  0  0  0  0  0  0  0  0  0  0
   -7.8441   -2.7541    1.6766 F   0  0  0  0  0  0  0  0  0  0  0  0
   -6.7334   -1.0453    0.9090 F   0  0  0  0  0  0  0  0  0  0  0  0
   -6.8609   -2.8794   -0.2628 F   0  0  0  0  0  0  0  0  0  0  0  0
  1  2  1  0  0  0  0
  2  3  1  0  0  0  0
  4  1  1  0  0  0  0
  4 11  1  0  0  0  0
  5  4  2  0  0  0  0
  6  9  2  0  0  0  0
  6  5  1  0  0  0  0
  7  6  1  0  0  0  0
  8  7  1  0  0  0  0
  8 14  1  0  0  0  0
  9 10  1  0  0  0  0
 10 17  1  0  0  0  0
 10  1  2  0  0  0  0
 12  5  1  0  0  0  0
 13  8  1  0  0  0  0
 15  8  1  0  0  0  0
 16  9  1  0  0  0  0
 18  3  1  0  0  0  0
 18 19  1  0  0  0  0
 19 20  2  0  0  0  0
 21 19  1  0  0  0  0
 21 22  1  0  0  0  0
 23 21  1  0  0  0  0
 24 21  1  0  0  0  0
M  RAD  2   2   2   3   2
M  END
