Coordinates from ORCA-job 4-MeOPhN2+~CF3COO-_B3LYPG-6-31G_dp-NX-Scan-d89-09-n800
 OpenBabel11261920413D

 24 23  0  0  0  0  0  0  0  0999 V2000
   -1.7366   -0.1295   -0.0643 C   0  0  0  0  0  0  0  0  0  0  0  0
   -3.0769   -0.2742    0.0402 N   0  0  0  0  0  0  0  0  0  0  0  0
   -4.2026   -0.3957    0.1274 N   0  0  0  0  0  0  0  0  0  0  0  0
   -1.1804    1.1773   -0.1367 C   0  0  0  0  0  0  0  0  0  0  0  0
    0.1840    1.3050   -0.2432 C   0  0  0  0  0  0  0  0  0  0  0  0
    1.0202    0.1636   -0.2799 C   0  0  0  0  0  0  0  0  0  0  0  0
    2.3338    0.4167   -0.3854 O   0  0  0  0  0  0  0  0  0  0  0  0
    3.2601   -0.6719   -0.4296 C   0  0  0  0  0  0  0  0  0  0  0  0
    0.4547   -1.1268   -0.2064 C   0  0  0  0  0  0  0  0  0  0  0  0
   -0.9149   -1.2827   -0.0992 C   0  0  0  0  0  0  0  0  0  0  0  0
   -1.8270    2.0465   -0.1075 H   0  0  0  0  0  0  0  0  0  0  0  0
    0.6474    2.2836   -0.3011 H   0  0  0  0  0  0  0  0  0  0  0  0
    4.2450   -0.2147   -0.5147 H   0  0  0  0  0  0  0  0  0  0  0  0
    3.0762   -1.3105   -1.3006 H   0  0  0  0  0  0  0  0  0  0  0  0
    3.2113   -1.2680    0.4885 H   0  0  0  0  0  0  0  0  0  0  0  0
    1.0804   -2.0100   -0.2321 H   0  0  0  0  0  0  0  0  0  0  0  0
   -1.3611   -2.2690   -0.0420 H   0  0  0  0  0  0  0  0  0  0  0  0
  -12.8545   -1.1274    1.0324 O   0  0  0  0  0  0  0  0  0  0  0  0
  -11.6268   -1.0177    0.8925 C   0  0  0  0  0  0  0  0  0  0  0  0
  -10.6539   -1.7857    0.8458 O   0  0  0  0  0  0  0  0  0  0  0  0
  -11.2118    0.5285    0.7484 C   0  0  0  0  0  0  0  0  0  0  0  0
   -9.8982    0.7092    0.5066 F   0  0  0  0  0  0  0  0  0  0  0  0
  -11.8872    1.1150   -0.2608 F   0  0  0  0  0  0  0  0  0  0  0  0
  -11.5050    1.1982    1.8837 F   0  0  0  0  0  0  0  0  0  0  0  0
  1  2  1  0  0  0  0
  2  3  1  0  0  0  0
  4 11  1  0  0  0  0
  4  1  2  0  0  0  0
  5  4  1  0  0  0  0
  6  5  2  0  0  0  0
  6  9  1  0  0  0  0
  7  6  1  0  0  0  0
  8  7  1  0  0  0  0
  8 15  1  0  0  0  0
  9 10  2  0  0  0  0
 10  1  1  0  0  0  0
 10 17  1  0  0  0  0
 12  5  1  0  0  0  0
 13  8  1  0  0  0  0
 14  8  1  0  0  0  0
 16  9  1  0  0  0  0
 19 18  1  0  0  0  0
 20 19  2  0  0  0  0
 21 19  1  0  0  0  0
 21 24  1  0  0  0  0
 22 21  1  0  0  0  0
 23 21  1  0  0  0  0
M  RAD  3   2   2   3   3  18   2
M  END
