Coordinates from ORCA-job 4-MeOPhN2+~CF3COO-_B3LYPG-6-31G_dp-NX-Scan-d89-09-n800
 OpenBabel11261920413D

 24 23  0  0  0  0  0  0  0  0999 V2000
   -1.7484    2.2462   -1.4709 C   0  0  0  0  0  0  0  0  0  0  0  0
   -1.9285    3.3246   -2.2527 N   0  0  0  0  0  0  0  0  0  0  0  0
   -2.0734    4.2366   -2.9026 N   0  0  0  0  0  0  0  0  0  0  0  0
   -0.4141    1.8342   -1.1796 C   0  0  0  0  0  0  0  0  0  0  0  0
   -0.2374    0.7541   -0.3613 C   0  0  0  0  0  0  0  0  0  0  0  0
   -1.3626    0.0682    0.1927 C   0  0  0  0  0  0  0  0  0  0  0  0
   -1.0636   -0.9242    0.9968 O   0  0  0  0  0  0  0  0  0  0  0  0
   -2.1146   -1.6572    1.6967 C   0  0  0  0  0  0  0  0  0  0  0  0
   -2.6925    0.4685   -0.1228 C   0  0  0  0  0  0  0  0  0  0  0  0
   -2.8799    1.5508   -0.9467 C   0  0  0  0  0  0  0  0  0  0  0  0
    0.4273    2.3750   -1.5978 H   0  0  0  0  0  0  0  0  0  0  0  0
    0.7549    0.4022   -0.1034 H   0  0  0  0  0  0  0  0  0  0  0  0
   -1.5750   -2.3562    2.3333 H   0  0  0  0  0  0  0  0  0  0  0  0
   -2.7928   -2.1825    1.0097 H   0  0  0  0  0  0  0  0  0  0  0  0
   -2.7033   -0.9593    2.2960 H   0  0  0  0  0  0  0  0  0  0  0  0
   -3.5879   -0.0750    0.2603 H   0  0  0  0  0  0  0  0  0  0  0  0
   -3.8840    1.8754   -1.1997 H   0  0  0  0  0  0  0  0  0  0  0  0
   -4.6635   -2.9513    0.7522 O   0  0  0  0  0  0  0  0  0  0  0  0
   -5.4227   -1.9638    0.7313 C   0  0  0  0  0  0  0  0  0  0  0  0
   -5.1661   -0.7293    0.6851 O   0  0  0  0  0  0  0  0  0  0  0  0
   -6.9527   -2.2607    0.7761 C   0  0  0  0  0  0  0  0  0  0  0  0
   -7.5232   -1.7051    1.8731 F   0  0  0  0  0  0  0  0  0  0  0  0
   -7.5800   -1.7353   -0.3057 F   0  0  0  0  0  0  0  0  0  0  0  0
   -7.2397   -3.5760    0.8015 F   0  0  0  0  0  0  0  0  0  0  0  0
  1  4  2  0  0  0  0
  1 10  1  0  0  0  0
  2  1  1  0  0  0  0
  3  2  1  0  0  0  0
  4  5  1  0  0  0  0
  5 12  1  0  0  0  0
  5  6  2  0  0  0  0
  6  7  1  0  0  0  0
  7  8  1  0  0  0  0
  8 15  1  0  0  0  0
  8 13  1  0  0  0  0
  9  6  1  0  0  0  0
  9 16  1  0  0  0  0
 10  9  2  0  0  0  0
 11  4  1  0  0  0  0
 14  8  1  0  0  0  0
 17 10  1  0  0  0  0
 19 18  1  0  0  0  0
 19 21  1  0  0  0  0
 20 19  2  0  0  0  0
 21 24  1  0  0  0  0
 21 22  1  0  0  0  0
 23 21  1  0  0  0  0
M  RAD  3   2   2   3   3  18   2
M  END
