Coordinates from ORCA-job 4-MeOPhN2+~CF3COO-_B3LYPG-6-31G_dp-NX-Scan-d89-09-n800
 OpenBabel11261920413D

 24 23  0  0  0  0  0  0  0  0999 V2000
   -2.8878    1.8122   -0.9213 C   0  0  0  0  0  0  0  0  0  0  0  0
   -3.5981    2.7250   -1.5957 N   0  0  0  0  0  0  0  0  0  0  0  0
   -4.1981    3.5008   -2.1513 N   0  0  0  0  0  0  0  0  0  0  0  0
   -1.9453    1.0080   -1.6268 C   0  0  0  0  0  0  0  0  0  0  0  0
   -1.3273   -0.0030   -0.9482 C   0  0  0  0  0  0  0  0  0  0  0  0
   -1.6489   -0.2525    0.4209 C   0  0  0  0  0  0  0  0  0  0  0  0
   -1.0710   -1.3304    0.9433 O   0  0  0  0  0  0  0  0  0  0  0  0
   -1.5590   -1.8371    2.2059 C   0  0  0  0  0  0  0  0  0  0  0  0
   -2.5131    0.5994    1.1261 C   0  0  0  0  0  0  0  0  0  0  0  0
   -3.2006    1.5917    0.4497 C   0  0  0  0  0  0  0  0  0  0  0  0
   -1.7529    1.1905   -2.6777 H   0  0  0  0  0  0  0  0  0  0  0  0
   -0.6275   -0.6686   -1.4399 H   0  0  0  0  0  0  0  0  0  0  0  0
   -1.0691   -2.8015    2.3315 H   0  0  0  0  0  0  0  0  0  0  0  0
   -2.6469   -1.9461    2.1584 H   0  0  0  0  0  0  0  0  0  0  0  0
   -1.2673   -1.1692    3.0232 H   0  0  0  0  0  0  0  0  0  0  0  0
   -2.7809    0.3953    2.1508 H   0  0  0  0  0  0  0  0  0  0  0  0
   -3.9017    2.2351    0.9587 H   0  0  0  0  0  0  0  0  0  0  0  0
   -4.6709   -1.1271    1.4388 O   0  0  0  0  0  0  0  0  0  0  0  0
   -5.1127   -0.6647    0.3699 C   0  0  0  0  0  0  0  0  0  0  0  0
   -5.3208    0.5328    0.0314 O   0  0  0  0  0  0  0  0  0  0  0  0
   -5.3107   -1.6915   -0.7832 C   0  0  0  0  0  0  0  0  0  0  0  0
   -6.3047   -1.3583   -1.6304 F   0  0  0  0  0  0  0  0  0  0  0  0
   -4.1597   -1.7389   -1.5233 F   0  0  0  0  0  0  0  0  0  0  0  0
   -5.5488   -2.9423   -0.3487 F   0  0  0  0  0  0  0  0  0  0  0  0
  1 10  2  0  0  0  0
  2  1  1  0  0  0  0
  3  2  1  0  0  0  0
  4  5  2  0  0  0  0
  4  1  1  0  0  0  0
  5  6  1  0  0  0  0
  6  7  1  0  0  0  0
  6  9  2  0  0  0  0
  7  8  1  0  0  0  0
  8 13  1  0  0  0  0
  8 15  1  0  0  0  0
  9 16  1  0  0  0  0
 10 17  1  0  0  0  0
 10  9  1  0  0  0  0
 11  4  1  0  0  0  0
 12  5  1  0  0  0  0
 14  8  1  0  0  0  0
 19 18  1  0  0  0  0
 20 19  2  0  0  0  0
 21 24  1  0  0  0  0
 21 19  1  0  0  0  0
 22 21  1  0  0  0  0
 23 21  1  0  0  0  0
M  RAD  3   2   2   3   3  18   2
M  END
