Coordinates from ORCA-job 4-MeOPhN2+~CF3COO-_B3LYPG-6-31G_dp-NX-Scan-d89-09-n800
 OpenBabel11261920413D

 24 23  0  0  0  0  0  0  0  0999 V2000
   -1.9902    2.0371   -1.4245 C   0  0  0  0  0  0  0  0  0  0  0  0
   -2.3264    3.0049   -2.2928 N   0  0  0  0  0  0  0  0  0  0  0  0
   -2.6309    3.8181   -3.0127 N   0  0  0  0  0  0  0  0  0  0  0  0
   -0.6266    1.6294   -1.3351 C   0  0  0  0  0  0  0  0  0  0  0  0
   -0.3101    0.6272   -0.4603 C   0  0  0  0  0  0  0  0  0  0  0  0
   -1.3257    0.0075    0.3319 C   0  0  0  0  0  0  0  0  0  0  0  0
   -0.9123   -0.9631    1.1146 O   0  0  0  0  0  0  0  0  0  0  0  0
   -1.8761   -1.6859    1.9402 C   0  0  0  0  0  0  0  0  0  0  0  0
   -2.6761    0.4396    0.2507 C   0  0  0  0  0  0  0  0  0  0  0  0
   -3.0083    1.4381   -0.6279 C   0  0  0  0  0  0  0  0  0  0  0  0
    0.1276    2.1059   -1.9512 H   0  0  0  0  0  0  0  0  0  0  0  0
    0.7095    0.2732   -0.3582 H   0  0  0  0  0  0  0  0  0  0  0  0
   -1.3075   -2.5142    2.3589 H   0  0  0  0  0  0  0  0  0  0  0  0
   -2.7290   -2.0302    1.3330 H   0  0  0  0  0  0  0  0  0  0  0  0
   -2.2252   -1.0236    2.7373 H   0  0  0  0  0  0  0  0  0  0  0  0
   -3.5172   -0.0095    0.8159 H   0  0  0  0  0  0  0  0  0  0  0  0
   -4.0435    1.7522   -0.7145 H   0  0  0  0  0  0  0  0  0  0  0  0
   -4.4755   -2.4647    0.4946 O   0  0  0  0  0  0  0  0  0  0  0  0
   -5.3532   -1.5973    0.6841 C   0  0  0  0  0  0  0  0  0  0  0  0
   -5.2453   -0.4090    1.0863 O   0  0  0  0  0  0  0  0  0  0  0  0
   -6.8159   -2.0088    0.3388 C   0  0  0  0  0  0  0  0  0  0  0  0
   -7.6772   -1.6742    1.3256 F   0  0  0  0  0  0  0  0  0  0  0  0
   -7.2295   -1.3644   -0.7852 F   0  0  0  0  0  0  0  0  0  0  0  0
   -6.9592   -3.3284    0.1125 F   0  0  0  0  0  0  0  0  0  0  0  0
  1  4  2  0  0  0  0
  1 10  1  0  0  0  0
  2  1  1  0  0  0  0
  3  2  1  0  0  0  0
  4  5  1  0  0  0  0
  5 12  1  0  0  0  0
  5  6  2  0  0  0  0
  6  7  1  0  0  0  0
  7  8  1  0  0  0  0
  8 13  1  0  0  0  0
  8 15  1  0  0  0  0
  9  6  1  0  0  0  0
  9 16  1  0  0  0  0
 10  9  2  0  0  0  0
 11  4  1  0  0  0  0
 14  8  1  0  0  0  0
 17 10  1  0  0  0  0
 18 19  2  0  0  0  0
 19 20  1  0  0  0  0
 21 19  1  0  0  0  0
 21 22  1  0  0  0  0
 23 21  1  0  0  0  0
 24 21  1  0  0  0  0
M  RAD  3   2   2   3   3  20   2
M  END
