Coordinates from ORCA-job 4-MeOPhN2+~CF3COO-_B3LYPG-6-31G_dp-NX-Scan-d89-09-n800
 OpenBabel11261920413D

 24 23  0  0  0  0  0  0  0  0999 V2000
   -2.2799    1.8412   -1.3500 C   0  0  0  0  0  0  0  0  0  0  0  0
   -2.7560    2.7332   -2.2347 N   0  0  0  0  0  0  0  0  0  0  0  0
   -3.1743    3.4844   -2.9638 N   0  0  0  0  0  0  0  0  0  0  0  0
   -0.9312    1.3958   -1.4738 C   0  0  0  0  0  0  0  0  0  0  0  0
   -0.4804    0.4513   -0.5930 C   0  0  0  0  0  0  0  0  0  0  0  0
   -1.3505   -0.0768    0.4099 C   0  0  0  0  0  0  0  0  0  0  0  0
   -0.8356   -1.0224    1.1649 O   0  0  0  0  0  0  0  0  0  0  0  0
   -1.6762   -1.6877    2.1545 C   0  0  0  0  0  0  0  0  0  0  0  0
   -2.6736    0.4118    0.5477 C   0  0  0  0  0  0  0  0  0  0  0  0
   -3.1468    1.3476   -0.3350 C   0  0  0  0  0  0  0  0  0  0  0  0
   -0.2935    1.7951   -2.2547 H   0  0  0  0  0  0  0  0  0  0  0  0
    0.5308    0.0656   -0.6530 H   0  0  0  0  0  0  0  0  0  0  0  0
   -1.0701   -2.5191    2.5105 H   0  0  0  0  0  0  0  0  0  0  0  0
   -2.6114   -2.0235    1.6826 H   0  0  0  0  0  0  0  0  0  0  0  0
   -1.8818   -0.9931    2.9740 H   0  0  0  0  0  0  0  0  0  0  0  0
   -3.4064    0.0245    1.2647 H   0  0  0  0  0  0  0  0  0  0  0  0
   -4.1818    1.6654   -0.2639 H   0  0  0  0  0  0  0  0  0  0  0  0
   -4.3067   -2.2060    0.5583 O   0  0  0  0  0  0  0  0  0  0  0  0
   -5.2393   -1.3860    0.7083 C   0  0  0  0  0  0  0  0  0  0  0  0
   -5.2752   -0.3105    1.3568 O   0  0  0  0  0  0  0  0  0  0  0  0
   -6.5367   -1.6804   -0.1029 C   0  0  0  0  0  0  0  0  0  0  0  0
   -7.6573   -1.4032    0.5960 F   0  0  0  0  0  0  0  0  0  0  0  0
   -6.5592   -0.8915   -1.2168 F   0  0  0  0  0  0  0  0  0  0  0  0
   -6.6306   -2.9557   -0.5245 F   0  0  0  0  0  0  0  0  0  0  0  0
  1 10  1  0  0  0  0
  2  1  1  0  0  0  0
  3  2  1  0  0  0  0
  4  1  2  0  0  0  0
  4  5  1  0  0  0  0
  5  6  2  0  0  0  0
  6  9  1  0  0  0  0
  6  7  1  0  0  0  0
  7  8  1  0  0  0  0
  8 13  1  0  0  0  0
  8 15  1  0  0  0  0
  9 16  1  0  0  0  0
 10 17  1  0  0  0  0
 10  9  2  0  0  0  0
 11  4  1  0  0  0  0
 12  5  1  0  0  0  0
 14  8  1  0  0  0  0
 18 19  2  0  0  0  0
 19 20  1  0  0  0  0
 21 22  1  0  0  0  0
 21 19  1  0  0  0  0
 23 21  1  0  0  0  0
 24 21  1  0  0  0  0
M  RAD  3   2   2   3   3  20   2
M  END
