Coordinates from ORCA-job 4-MeOPhN2+~CF3COO-_B3LYPG-6-31G_dp-NX-Scan-d89-09-n800
 OpenBabel11261920413D

 24 23  0  0  0  0  0  0  0  0999 V2000
   -2.9449    1.5997   -0.9057 C   0  0  0  0  0  0  0  0  0  0  0  0
   -3.7803    2.3586   -1.6264 N   0  0  0  0  0  0  0  0  0  0  0  0
   -4.5027    2.9884   -2.2166 N   0  0  0  0  0  0  0  0  0  0  0  0
   -2.0283    0.7455   -1.5820 C   0  0  0  0  0  0  0  0  0  0  0  0
   -1.3303   -0.1680   -0.8435 C   0  0  0  0  0  0  0  0  0  0  0  0
   -1.5728   -0.2882    0.5570 C   0  0  0  0  0  0  0  0  0  0  0  0
   -0.9541   -1.3039    1.1513 O   0  0  0  0  0  0  0  0  0  0  0  0
   -1.4186   -1.7213    2.4533 C   0  0  0  0  0  0  0  0  0  0  0  0
   -2.4067    0.6232    1.2249 C   0  0  0  0  0  0  0  0  0  0  0  0
   -3.1462    1.5388    0.5019 C   0  0  0  0  0  0  0  0  0  0  0  0
   -1.9243    0.8052   -2.6594 H   0  0  0  0  0  0  0  0  0  0  0  0
   -0.6468   -0.8683   -1.3090 H   0  0  0  0  0  0  0  0  0  0  0  0
   -0.9438   -2.6854    2.6292 H   0  0  0  0  0  0  0  0  0  0  0  0
   -2.5075   -1.8182    2.4305 H   0  0  0  0  0  0  0  0  0  0  0  0
   -1.0961   -1.0105    3.2216 H   0  0  0  0  0  0  0  0  0  0  0  0
   -2.5805    0.5386    2.2877 H   0  0  0  0  0  0  0  0  0  0  0  0
   -3.8193    2.2287    0.9867 H   0  0  0  0  0  0  0  0  0  0  0  0
   -4.3802   -1.4579    1.0112 O   0  0  0  0  0  0  0  0  0  0  0  0
   -5.0110   -0.7189    0.2363 C   0  0  0  0  0  0  0  0  0  0  0  0
   -5.3151    0.5025    0.3359 O   0  0  0  0  0  0  0  0  0  0  0  0
   -5.4364   -1.3305   -1.1348 C   0  0  0  0  0  0  0  0  0  0  0  0
   -6.7538   -1.1742   -1.3798 F   0  0  0  0  0  0  0  0  0  0  0  0
   -4.7727   -0.6860   -2.1503 F   0  0  0  0  0  0  0  0  0  0  0  0
   -5.1514   -2.6380   -1.2580 F   0  0  0  0  0  0  0  0  0  0  0  0
  1 10  1  0  0  0  0
  2  1  1  0  0  0  0
  3  2  1  0  0  0  0
  4  1  2  0  0  0  0
  4  5  1  0  0  0  0
  5  6  2  0  0  0  0
  6  7  1  0  0  0  0
  6  9  1  0  0  0  0
  7  8  1  0  0  0  0
  8 13  1  0  0  0  0
  8 15  1  0  0  0  0
  9 16  1  0  0  0  0
 10 17  1  0  0  0  0
 10  9  2  0  0  0  0
 11  4  1  0  0  0  0
 12  5  1  0  0  0  0
 14  8  1  0  0  0  0
 19 20  2  0  0  0  0
 19 18  1  0  0  0  0
 21 19  1  0  0  0  0
 22 21  1  0  0  0  0
 23 21  1  0  0  0  0
 24 21  1  0  0  0  0
M  RAD  3   2   2   3   3  18   2
M  END
