Coordinates from ORCA-job 4-MeOPhN2+~CF3COO-_B3LYPG-6-31G_dp-NX-Scan-d89-09-n800
 OpenBabel11261920413D

 24 23  0  0  0  0  0  0  0  0999 V2000
   -2.0527    1.9923   -1.4089 C   0  0  0  0  0  0  0  0  0  0  0  0
   -2.4202    2.9445   -2.2819 N   0  0  0  0  0  0  0  0  0  0  0  0
   -2.7504    3.7452   -3.0042 N   0  0  0  0  0  0  0  0  0  0  0  0
   -0.6903    1.5730   -1.3734 C   0  0  0  0  0  0  0  0  0  0  0  0
   -0.3435    0.5832   -0.4959 C   0  0  0  0  0  0  0  0  0  0  0  0
   -1.3285   -0.0137    0.3505 C   0  0  0  0  0  0  0  0  0  0  0  0
   -0.8911   -0.9780    1.1284 O   0  0  0  0  0  0  0  0  0  0  0  0
   -1.8280   -1.6858    1.9961 C   0  0  0  0  0  0  0  0  0  0  0  0
   -2.6755    0.4334    0.3241 C   0  0  0  0  0  0  0  0  0  0  0  0
   -3.0391    1.4189   -0.5563 C   0  0  0  0  0  0  0  0  0  0  0  0
    0.0395    2.0306   -2.0320 H   0  0  0  0  0  0  0  0  0  0  0  0
    0.6761    0.2200   -0.4345 H   0  0  0  0  0  0  0  0  0  0  0  0
   -1.2456   -2.5064    2.4113 H   0  0  0  0  0  0  0  0  0  0  0  0
   -2.6954   -2.0396    1.4163 H   0  0  0  0  0  0  0  0  0  0  0  0
   -2.1538   -1.0112    2.7927 H   0  0  0  0  0  0  0  0  0  0  0  0
   -3.4947    0.0012    0.9275 H   0  0  0  0  0  0  0  0  0  0  0  0
   -4.0755    1.7376   -0.6022 H   0  0  0  0  0  0  0  0  0  0  0  0
   -4.4296   -2.3818    0.4848 O   0  0  0  0  0  0  0  0  0  0  0  0
   -5.3275   -1.5369    0.6856 C   0  0  0  0  0  0  0  0  0  0  0  0
   -5.2539   -0.3756    1.1645 O   0  0  0  0  0  0  0  0  0  0  0  0
   -6.7635   -1.9403    0.2349 C   0  0  0  0  0  0  0  0  0  0  0  0
   -7.6885   -1.6488    1.1756 F   0  0  0  0  0  0  0  0  0  0  0  0
   -7.1078   -1.2520   -0.8879 F   0  0  0  0  0  0  0  0  0  0  0  0
   -6.8842   -3.2501   -0.0532 F   0  0  0  0  0  0  0  0  0  0  0  0
  1  4  2  0  0  0  0
  1 10  1  0  0  0  0
  2  1  1  0  0  0  0
  3  2  1  0  0  0  0
  4  5  1  0  0  0  0
  5 12  1  0  0  0  0
  5  6  2  0  0  0  0
  6  7  1  0  0  0  0
  7  8  1  0  0  0  0
  8 13  1  0  0  0  0
  8 15  1  0  0  0  0
  9  6  1  0  0  0  0
  9 16  1  0  0  0  0
 10  9  2  0  0  0  0
 11  4  1  0  0  0  0
 14  8  1  0  0  0  0
 17 10  1  0  0  0  0
 18 19  2  0  0  0  0
 19 20  1  0  0  0  0
 21 19  1  0  0  0  0
 21 22  1  0  0  0  0
 23 21  1  0  0  0  0
 24 21  1  0  0  0  0
M  RAD  3   2   2   3   3  20   2
M  END
