Coordinates from ORCA-job 4-MeOPhN2+~CF3COO-_B3LYPG-6-31G_dp-NX-Scan-d89-09-n800
 OpenBabel11261920413D

 24 23  0  0  0  0  0  0  0  0999 V2000
   -2.5972    0.3430   -1.0494 C   0  0  0  0  0  0  0  0  0  0  0  0
   -3.4087    0.5415   -2.1797 N   0  0  0  0  0  0  0  0  0  0  0  0
   -3.5214    0.8014   -3.2706 N   0  0  0  0  0  0  0  0  0  0  0  0
   -1.3878    1.0645   -1.0096 C   0  0  0  0  0  0  0  0  0  0  0  0
   -0.5466    0.8720    0.0669 C   0  0  0  0  0  0  0  0  0  0  0  0
   -0.8930   -0.0431    1.0853 C   0  0  0  0  0  0  0  0  0  0  0  0
    0.0009   -0.1514    2.0859 O   0  0  0  0  0  0  0  0  0  0  0  0
   -0.2681   -1.0485    3.1641 C   0  0  0  0  0  0  0  0  0  0  0  0
   -2.0972   -0.7658    1.0075 C   0  0  0  0  0  0  0  0  0  0  0  0
   -2.9654   -0.5663   -0.0584 C   0  0  0  0  0  0  0  0  0  0  0  0
   -1.1359    1.7615   -1.8015 H   0  0  0  0  0  0  0  0  0  0  0  0
    0.3884    1.4136    0.1515 H   0  0  0  0  0  0  0  0  0  0  0  0
    0.5804   -0.9556    3.8423 H   0  0  0  0  0  0  0  0  0  0  0  0
   -0.3422   -2.0827    2.8101 H   0  0  0  0  0  0  0  0  0  0  0  0
   -1.1889   -0.7717    3.6896 H   0  0  0  0  0  0  0  0  0  0  0  0
   -2.3691   -1.4809    1.7737 H   0  0  0  0  0  0  0  0  0  0  0  0
   -3.9010   -1.1184   -0.1772 H   0  0  0  0  0  0  0  0  0  0  0  0
   -5.6217   -1.5653   -1.0016 O   0  0  0  0  0  0  0  0  0  0  0  0
   -6.0333   -0.4082   -1.1499 C   0  0  0  0  0  0  0  0  0  0  0  0
   -5.3793    0.6724   -1.3014 O   0  0  0  0  0  0  0  0  0  0  0  0
   -7.5739   -0.1749   -1.1696 C   0  0  0  0  0  0  0  0  0  0  0  0
   -7.9355    0.7590   -0.2644 F   0  0  0  0  0  0  0  0  0  0  0  0
   -7.9686    0.2605   -2.3867 F   0  0  0  0  0  0  0  0  0  0  0  0
   -8.2587   -1.2964   -0.8949 F   0  0  0  0  0  0  0  0  0  0  0  0
  1  4  2  0  0  0  0
  1 10  1  0  0  0  0
  2  1  1  0  0  0  0
  3  2  2  0  0  0  0
  4  5  1  0  0  0  0
  5 12  1  0  0  0  0
  5  6  2  0  0  0  0
  6  7  1  0  0  0  0
  7  8  1  0  0  0  0
  8 15  1  0  0  0  0
  8 13  1  0  0  0  0
  9  6  1  0  0  0  0
  9 16  1  0  0  0  0
 10  9  2  0  0  0  0
 11  4  1  0  0  0  0
 14  8  1  0  0  0  0
 17 10  1  0  0  0  0
 19 18  1  0  0  0  0
 20 19  2  0  0  0  0
 21 19  1  0  0  0  0
 21 24  1  0  0  0  0
 21 22  1  0  0  0  0
 23 21  1  0  0  0  0
M  RAD  2   3   2  18   2
M  END
