Coordinates from ORCA-job 4-MeOPhN2+~CF3COO-_B3LYPG-6-31G_dp-NX-Scan-d89-09-n800
 OpenBabel11261920413D

 24 23  0  0  0  0  0  0  0  0999 V2000
   -2.6279    0.3092   -1.0370 C   0  0  0  0  0  0  0  0  0  0  0  0
   -3.4544    0.4920   -2.1627 N   0  0  0  0  0  0  0  0  0  0  0  0
   -3.5544    0.7024   -3.2660 N   0  0  0  0  0  0  0  0  0  0  0  0
   -1.4181    1.0271   -1.0186 C   0  0  0  0  0  0  0  0  0  0  0  0
   -0.5666    0.8502    0.0540 C   0  0  0  0  0  0  0  0  0  0  0  0
   -0.9054   -0.0457    1.0902 C   0  0  0  0  0  0  0  0  0  0  0  0
   -0.0025   -0.1414    2.0849 O   0  0  0  0  0  0  0  0  0  0  0  0
   -0.2653   -1.0199    3.1792 C   0  0  0  0  0  0  0  0  0  0  0  0
   -2.1128   -0.7654    1.0354 C   0  0  0  0  0  0  0  0  0  0  0  0
   -2.9889   -0.5800   -0.0263 C   0  0  0  0  0  0  0  0  0  0  0  0
   -1.1714    1.7108   -1.8236 H   0  0  0  0  0  0  0  0  0  0  0  0
    0.3707    1.3905    0.1203 H   0  0  0  0  0  0  0  0  0  0  0  0
    0.5896   -0.9202    3.8483 H   0  0  0  0  0  0  0  0  0  0  0  0
   -0.3470   -2.0595    2.8428 H   0  0  0  0  0  0  0  0  0  0  0  0
   -1.1801   -0.7310    3.7090 H   0  0  0  0  0  0  0  0  0  0  0  0
   -2.3798   -1.4672    1.8156 H   0  0  0  0  0  0  0  0  0  0  0  0
   -3.9188   -1.1343   -0.1293 H   0  0  0  0  0  0  0  0  0  0  0  0
   -5.5474   -1.5018   -1.3545 O   0  0  0  0  0  0  0  0  0  0  0  0
   -5.9936   -0.3532   -1.2492 C   0  0  0  0  0  0  0  0  0  0  0  0
   -5.3610    0.7508   -1.2180 O   0  0  0  0  0  0  0  0  0  0  0  0
   -7.5361   -0.1647   -1.1511 C   0  0  0  0  0  0  0  0  0  0  0  0
   -7.8667    0.6400   -0.1193 F   0  0  0  0  0  0  0  0  0  0  0  0
   -8.0097    0.4034   -2.2821 F   0  0  0  0  0  0  0  0  0  0  0  0
   -8.1760   -1.3322   -0.9800 F   0  0  0  0  0  0  0  0  0  0  0  0
  1  4  2  0  0  0  0
  1 10  1  0  0  0  0
  2  1  1  0  0  0  0
  3  2  2  0  0  0  0
  4  5  1  0  0  0  0
  5 12  1  0  0  0  0
  5  6  2  0  0  0  0
  6  7  1  0  0  0  0
  7  8  1  0  0  0  0
  8 15  1  0  0  0  0
  8 13  1  0  0  0  0
  9  6  1  0  0  0  0
  9 16  1  0  0  0  0
 10  9  2  0  0  0  0
 11  4  1  0  0  0  0
 14  8  1  0  0  0  0
 17 10  1  0  0  0  0
 18 19  2  0  0  0  0
 19 20  1  0  0  0  0
 19 21  1  0  0  0  0
 21 24  1  0  0  0  0
 21 22  1  0  0  0  0
 23 21  1  0  0  0  0
M  RAD  2   3   2  20   2
M  END
