Coordinates from ORCA-job 4-MeOPhN2+~CF3COO-_B3LYPG-6-31G_dp-NX-Scan-d89-09-n800
 OpenBabel11261920413D

 24 23  0  0  0  0  0  0  0  0999 V2000
   -2.6781    0.1772   -1.0580 C   0  0  0  0  0  0  0  0  0  0  0  0
   -3.5149    0.3520   -2.1806 N   0  0  0  0  0  0  0  0  0  0  0  0
   -3.6277    0.7603   -3.2263 N   0  0  0  0  0  0  0  0  0  0  0  0
   -1.4675    0.8938   -1.0591 C   0  0  0  0  0  0  0  0  0  0  0  0
   -0.6050    0.7410    0.0079 C   0  0  0  0  0  0  0  0  0  0  0  0
   -0.9360   -0.1246    1.0715 C   0  0  0  0  0  0  0  0  0  0  0  0
   -0.0236   -0.1972    2.0608 O   0  0  0  0  0  0  0  0  0  0  0  0
   -0.2843   -1.0383    3.1835 C   0  0  0  0  0  0  0  0  0  0  0  0
   -2.1467   -0.8377    1.0479 C   0  0  0  0  0  0  0  0  0  0  0  0
   -3.0242   -0.6837   -0.0192 C   0  0  0  0  0  0  0  0  0  0  0  0
   -1.2285    1.5575   -1.8825 H   0  0  0  0  0  0  0  0  0  0  0  0
    0.3346    1.2796    0.0509 H   0  0  0  0  0  0  0  0  0  0  0  0
    0.5771   -0.9259    3.8424 H   0  0  0  0  0  0  0  0  0  0  0  0
   -0.3781   -2.0875    2.8810 H   0  0  0  0  0  0  0  0  0  0  0  0
   -1.1919   -0.7249    3.7121 H   0  0  0  0  0  0  0  0  0  0  0  0
   -2.4165   -1.5076    1.8544 H   0  0  0  0  0  0  0  0  0  0  0  0
   -3.9624   -1.2183   -0.0745 H   0  0  0  0  0  0  0  0  0  0  0  0
   -5.1808   -0.5669   -1.7993 O   0  0  0  0  0  0  0  0  0  0  0  0
   -5.9550    0.2790   -1.2041 C   0  0  0  0  0  0  0  0  0  0  0  0
   -5.6616    1.3501   -0.6893 O   0  0  0  0  0  0  0  0  0  0  0  0
   -7.4241   -0.2264   -1.1562 C   0  0  0  0  0  0  0  0  0  0  0  0
   -8.2582    0.7142   -0.6918 F   0  0  0  0  0  0  0  0  0  0  0  0
   -7.8587   -0.6059   -2.3738 F   0  0  0  0  0  0  0  0  0  0  0  0
   -7.5118   -1.3000   -0.3356 F   0  0  0  0  0  0  0  0  0  0  0  0
  1 10  1  0  0  0  0
  2  1  1  0  0  0  0
  3  2  2  0  0  0  0
  4  1  2  0  0  0  0
  4  5  1  0  0  0  0
  5 12  1  0  0  0  0
  5  6  2  0  0  0  0
  6  7  1  0  0  0  0
  7  8  1  0  0  0  0
  8 15  1  0  0  0  0
  8 13  1  0  0  0  0
  9  6  1  0  0  0  0
  9 16  1  0  0  0  0
 10  9  2  0  0  0  0
 11  4  1  0  0  0  0
 14  8  1  0  0  0  0
 17 10  1  0  0  0  0
 18 19  2  0  0  0  0
 19 21  1  0  0  0  0
 19 20  1  0  0  0  0
 21 22  1  0  0  0  0
 21 24  1  0  0  0  0
 23 21  1  0  0  0  0
M  RAD  2   3   2  20   2
M  END
