Coordinates from ORCA-job 4-MeOPhN2+~CF3COO-_B3LYPG-6-31G_dp-NX-Scan-d89-09-n800
 OpenBabel11261920413D

 24 23  0  0  0  0  0  0  0  0999 V2000
   -2.6405    0.1919   -1.1064 C   0  0  0  0  0  0  0  0  0  0  0  0
   -3.4318    0.3736   -2.2579 N   0  0  0  0  0  0  0  0  0  0  0  0
   -3.5041    0.8034   -3.2989 N   0  0  0  0  0  0  0  0  0  0  0  0
   -1.4553    0.9517   -1.0437 C   0  0  0  0  0  0  0  0  0  0  0  0
   -0.6265    0.7972    0.0480 C   0  0  0  0  0  0  0  0  0  0  0  0
   -0.9629   -0.1123    1.0738 C   0  0  0  0  0  0  0  0  0  0  0  0
   -0.0838   -0.1828    2.0910 O   0  0  0  0  0  0  0  0  0  0  0  0
   -0.3519   -1.0651    3.1808 C   0  0  0  0  0  0  0  0  0  0  0  0
   -2.1460   -0.8661    0.9860 C   0  0  0  0  0  0  0  0  0  0  0  0
   -2.9920   -0.7117   -0.1055 C   0  0  0  0  0  0  0  0  0  0  0  0
   -1.2112    1.6493   -1.8371 H   0  0  0  0  0  0  0  0  0  0  0  0
    0.2906    1.3675    0.1403 H   0  0  0  0  0  0  0  0  0  0  0  0
    0.4815   -0.9405    3.8724 H   0  0  0  0  0  0  0  0  0  0  0  0
   -0.3962   -2.1075    2.8457 H   0  0  0  0  0  0  0  0  0  0  0  0
   -1.2881   -0.7995    3.6847 H   0  0  0  0  0  0  0  0  0  0  0  0
   -2.4195   -1.5686    1.7630 H   0  0  0  0  0  0  0  0  0  0  0  0
   -3.9149   -1.2664   -0.2121 H   0  0  0  0  0  0  0  0  0  0  0  0
   -5.2219   -0.7176   -1.7606 O   0  0  0  0  0  0  0  0  0  0  0  0
   -5.9393    0.2258   -1.2709 C   0  0  0  0  0  0  0  0  0  0  0  0
   -5.6008    1.3659   -0.9593 O   0  0  0  0  0  0  0  0  0  0  0  0
   -7.4109   -0.2178   -1.0312 C   0  0  0  0  0  0  0  0  0  0  0  0
   -8.1959    0.8096   -0.6750 F   0  0  0  0  0  0  0  0  0  0  0  0
   -7.9453   -0.7852   -2.1309 F   0  0  0  0  0  0  0  0  0  0  0  0
   -7.4569   -1.1351   -0.0344 F   0  0  0  0  0  0  0  0  0  0  0  0
  1  4  2  0  0  0  0
  1 10  1  0  0  0  0
  2  1  1  0  0  0  0
  3  2  2  0  0  0  0
  4  5  1  0  0  0  0
  5 12  1  0  0  0  0
  5  6  2  0  0  0  0
  6  7  1  0  0  0  0
  7  8  1  0  0  0  0
  8 15  1  0  0  0  0
  8 13  1  0  0  0  0
  9  6  1  0  0  0  0
  9 16  1  0  0  0  0
 10  9  2  0  0  0  0
 11  4  1  0  0  0  0
 14  8  1  0  0  0  0
 17 10  1  0  0  0  0
 18 19  2  0  0  0  0
 19 21  1  0  0  0  0
 19 20  1  0  0  0  0
 21 22  1  0  0  0  0
 21 24  1  0  0  0  0
 23 21  1  0  0  0  0
M  RAD  2   3   2  20   2
M  END
