Coordinates from ORCA-job 4-MeOPhN2+~CF3COO-_B3LYPG-6-31G_dp-NX-Scan-d89-09-n800
 OpenBabel11261920413D

 24 23  0  0  0  0  0  0  0  0999 V2000
   -2.6317    0.3035   -1.0357 C   0  0  0  0  0  0  0  0  0  0  0  0
   -3.4603    0.4841   -2.1602 N   0  0  0  0  0  0  0  0  0  0  0  0
   -3.5625    0.6863   -3.2647 N   0  0  0  0  0  0  0  0  0  0  0  0
   -1.4219    1.0211   -1.0202 C   0  0  0  0  0  0  0  0  0  0  0  0
   -0.5691    0.8465    0.0519 C   0  0  0  0  0  0  0  0  0  0  0  0
   -0.9070   -0.0467    1.0906 C   0  0  0  0  0  0  0  0  0  0  0  0
   -0.0030   -0.1403    2.0846 O   0  0  0  0  0  0  0  0  0  0  0  0
   -0.2650   -1.0157    3.1814 C   0  0  0  0  0  0  0  0  0  0  0  0
   -2.1147   -0.7661    1.0391 C   0  0  0  0  0  0  0  0  0  0  0  0
   -2.9918   -0.5830   -0.0223 C   0  0  0  0  0  0  0  0  0  0  0  0
   -1.1761    1.7028   -1.8270 H   0  0  0  0  0  0  0  0  0  0  0  0
    0.3684    1.3865    0.1156 H   0  0  0  0  0  0  0  0  0  0  0  0
    0.5907   -0.9148    3.8494 H   0  0  0  0  0  0  0  0  0  0  0  0
   -0.3477   -2.0562    2.8480 H   0  0  0  0  0  0  0  0  0  0  0  0
   -1.1790   -0.7249    3.7116 H   0  0  0  0  0  0  0  0  0  0  0  0
   -2.3811   -1.4658    1.8213 H   0  0  0  0  0  0  0  0  0  0  0  0
   -3.9213   -1.1371   -0.1228 H   0  0  0  0  0  0  0  0  0  0  0  0
   -5.5350   -1.4825   -1.4022 O   0  0  0  0  0  0  0  0  0  0  0  0
   -5.9880   -0.3402   -1.2613 C   0  0  0  0  0  0  0  0  0  0  0  0
   -5.3599    0.7651   -1.2038 O   0  0  0  0  0  0  0  0  0  0  0  0
   -7.5307   -0.1642   -1.1491 C   0  0  0  0  0  0  0  0  0  0  0  0
   -7.8600    0.6196   -0.1008 F   0  0  0  0  0  0  0  0  0  0  0  0
   -8.0156    0.4208   -2.2666 F   0  0  0  0  0  0  0  0  0  0  0  0
   -8.1614   -1.3390   -0.9949 F   0  0  0  0  0  0  0  0  0  0  0  0
  1  4  2  0  0  0  0
  1 10  1  0  0  0  0
  2  1  1  0  0  0  0
  3  2  2  0  0  0  0
  4  5  1  0  0  0  0
  5 12  1  0  0  0  0
  5  6  2  0  0  0  0
  6  7  1  0  0  0  0
  7  8  1  0  0  0  0
  8 15  1  0  0  0  0
  8 13  1  0  0  0  0
  9  6  1  0  0  0  0
  9 16  1  0  0  0  0
 10  9  2  0  0  0  0
 11  4  1  0  0  0  0
 14  8  1  0  0  0  0
 17 10  1  0  0  0  0
 18 19  2  0  0  0  0
 19 20  1  0  0  0  0
 19 21  1  0  0  0  0
 21 24  1  0  0  0  0
 21 22  1  0  0  0  0
 23 21  1  0  0  0  0
M  RAD  2   3   2  20   2
M  END
