Coordinates from ORCA-job 4-MeOPhN2+~CF3COO-_B3LYPG-6-31G_dp-NX-Scan-d89-09-n800
 OpenBabel11261920413D

 24 23  0  0  0  0  0  0  0  0999 V2000
   -2.6440    0.2691   -1.0361 C   0  0  0  0  0  0  0  0  0  0  0  0
   -3.4770    0.4320   -2.1562 N   0  0  0  0  0  0  0  0  0  0  0  0
   -3.6252    0.5816   -3.2618 N   0  0  0  0  0  0  0  0  0  0  0  0
   -1.4351    0.9869   -1.0335 C   0  0  0  0  0  0  0  0  0  0  0  0
   -0.5787    0.8259    0.0383 C   0  0  0  0  0  0  0  0  0  0  0  0
   -0.9143   -0.0514    1.0906 C   0  0  0  0  0  0  0  0  0  0  0  0
   -0.0074   -0.1327    2.0831 O   0  0  0  0  0  0  0  0  0  0  0  0
   -0.2682   -0.9905    3.1939 C   0  0  0  0  0  0  0  0  0  0  0  0
   -2.1237   -0.7697    1.0537 C   0  0  0  0  0  0  0  0  0  0  0  0
   -3.0026   -0.6012   -0.0077 C   0  0  0  0  0  0  0  0  0  0  0  0
   -1.1911    1.6575   -1.8501 H   0  0  0  0  0  0  0  0  0  0  0  0
    0.3600    1.3650    0.0909 H   0  0  0  0  0  0  0  0  0  0  0  0
    0.5900   -0.8820    3.8574 H   0  0  0  0  0  0  0  0  0  0  0  0
   -0.3549   -2.0358    2.8766 H   0  0  0  0  0  0  0  0  0  0  0  0
   -1.1795   -0.6890    3.7227 H   0  0  0  0  0  0  0  0  0  0  0  0
   -2.3895   -1.4559    1.8478 H   0  0  0  0  0  0  0  0  0  0  0  0
   -3.9334   -1.1510   -0.0966 H   0  0  0  0  0  0  0  0  0  0  0  0
   -5.4616   -1.3539   -1.6010 O   0  0  0  0  0  0  0  0  0  0  0  0
   -5.9594   -0.2571   -1.3033 C   0  0  0  0  0  0  0  0  0  0  0  0
   -5.3643    0.8481   -1.1225 O   0  0  0  0  0  0  0  0  0  0  0  0
   -7.5034   -0.1645   -1.1409 C   0  0  0  0  0  0  0  0  0  0  0  0
   -7.8366    0.4562    0.0108 F   0  0  0  0  0  0  0  0  0  0  0  0
   -8.0375    0.5463   -2.1586 F   0  0  0  0  0  0  0  0  0  0  0  0
   -8.0862   -1.3739   -1.1356 F   0  0  0  0  0  0  0  0  0  0  0  0
  1  4  2  0  0  0  0
  1 10  1  0  0  0  0
  2  1  1  0  0  0  0
  3  2  2  0  0  0  0
  4  5  1  0  0  0  0
  5 12  1  0  0  0  0
  5  6  2  0  0  0  0
  6  7  1  0  0  0  0
  7  8  1  0  0  0  0
  8 15  1  0  0  0  0
  8 13  1  0  0  0  0
  9  6  1  0  0  0  0
  9 16  1  0  0  0  0
 10  9  2  0  0  0  0
 11  4  1  0  0  0  0
 14  8  1  0  0  0  0
 17 10  1  0  0  0  0
 18 19  2  0  0  0  0
 19 21  1  0  0  0  0
 19 20  1  0  0  0  0
 21 24  1  0  0  0  0
 21 22  1  0  0  0  0
 23 21  1  0  0  0  0
M  RAD  2   3   2  20   2
M  END
