Coordinates from ORCA-job 4-MeOPhN2+~CF3COO-_B3LYPG-6-31G_dp-NX-Scan-d89-09-n800
 OpenBabel11261920413D

 24 23  0  0  0  0  0  0  0  0999 V2000
   -2.2946    1.8277   -1.3468 C   0  0  0  0  0  0  0  0  0  0  0  0
   -2.7808    2.7095   -2.2363 N   0  0  0  0  0  0  0  0  0  0  0  0
   -3.2092    3.4509   -2.9694 N   0  0  0  0  0  0  0  0  0  0  0  0
   -0.9453    1.3858   -1.4761 C   0  0  0  0  0  0  0  0  0  0  0  0
   -0.4863    0.4478   -0.5924 C   0  0  0  0  0  0  0  0  0  0  0  0
   -1.3494   -0.0778    0.4176 C   0  0  0  0  0  0  0  0  0  0  0  0
   -0.8293   -1.0214    1.1721 O   0  0  0  0  0  0  0  0  0  0  0  0
   -1.6674   -1.6902    2.1614 C   0  0  0  0  0  0  0  0  0  0  0  0
   -2.6716    0.4100    0.5626 C   0  0  0  0  0  0  0  0  0  0  0  0
   -3.1533    1.3394   -0.3225 C   0  0  0  0  0  0  0  0  0  0  0  0
   -0.3137    1.7818   -2.2636 H   0  0  0  0  0  0  0  0  0  0  0  0
    0.5254    0.0641   -0.6569 H   0  0  0  0  0  0  0  0  0  0  0  0
   -1.0594   -2.5209    2.5157 H   0  0  0  0  0  0  0  0  0  0  0  0
   -2.6016   -2.0270    1.6886 H   0  0  0  0  0  0  0  0  0  0  0  0
   -1.8744   -0.9977    2.9824 H   0  0  0  0  0  0  0  0  0  0  0  0
   -3.3985    0.0251    1.2860 H   0  0  0  0  0  0  0  0  0  0  0  0
   -4.1890    1.6538   -0.2469 H   0  0  0  0  0  0  0  0  0  0  0  0
   -4.2975   -2.1899    0.5502 O   0  0  0  0  0  0  0  0  0  0  0  0
   -5.2327   -1.3737    0.7051 C   0  0  0  0  0  0  0  0  0  0  0  0
   -5.2753   -0.3074    1.3680 O   0  0  0  0  0  0  0  0  0  0  0  0
   -6.5227   -1.6580   -0.1213 C   0  0  0  0  0  0  0  0  0  0  0  0
   -7.6498   -1.3901    0.5705 F   0  0  0  0  0  0  0  0  0  0  0  0
   -6.5351   -0.8542   -1.2252 F   0  0  0  0  0  0  0  0  0  0  0  0
   -6.6123   -2.9275   -0.5608 F   0  0  0  0  0  0  0  0  0  0  0  0
  1 10  1  0  0  0  0
  2  1  1  0  0  0  0
  3  2  1  0  0  0  0
  4  1  2  0  0  0  0
  4  5  1  0  0  0  0
  5  6  2  0  0  0  0
  6  9  1  0  0  0  0
  6  7  1  0  0  0  0
  7  8  1  0  0  0  0
  8 13  1  0  0  0  0
  8 15  1  0  0  0  0
  9 16  1  0  0  0  0
 10 17  1  0  0  0  0
 10  9  2  0  0  0  0
 11  4  1  0  0  0  0
 12  5  1  0  0  0  0
 14  8  1  0  0  0  0
 18 19  2  0  0  0  0
 19 20  1  0  0  0  0
 21 22  1  0  0  0  0
 21 19  1  0  0  0  0
 23 21  1  0  0  0  0
 24 21  1  0  0  0  0
M  RAD  3   2   2   3   3  20   2
M  END
