Coordinates from ORCA-job 4-MeOPhN2+~CF3COO-_B3LYPG-6-31G_dp-NX-Scan-d89-09-n800
 OpenBabel11261920413D

 24 23  0  0  0  0  0  0  0  0999 V2000
   -1.8888    2.1208   -1.4463 C   0  0  0  0  0  0  0  0  0  0  0  0
   -2.1605    3.1372   -2.2814 N   0  0  0  0  0  0  0  0  0  0  0  0
   -2.4010    3.9938   -2.9755 N   0  0  0  0  0  0  0  0  0  0  0  0
   -0.5337    1.7065   -1.2845 C   0  0  0  0  0  0  0  0  0  0  0  0
   -0.2745    0.6713   -0.4302 C   0  0  0  0  0  0  0  0  0  0  0  0
   -1.3374    0.0286    0.2774 C   0  0  0  0  0  0  0  0  0  0  0  0
   -0.9671   -0.9516    1.0685 O   0  0  0  0  0  0  0  0  0  0  0  0
   -1.9621   -1.6681    1.8614 C   0  0  0  0  0  0  0  0  0  0  0  0
   -2.6845    0.4521    0.1120 C   0  0  0  0  0  0  0  0  0  0  0  0
   -2.9573    1.4853   -0.7479 C   0  0  0  0  0  0  0  0  0  0  0  0
    0.2591    2.2069   -1.8289 H   0  0  0  0  0  0  0  0  0  0  0  0
    0.7370    0.3147   -0.2718 H   0  0  0  0  0  0  0  0  0  0  0  0
   -1.4010   -2.4711    2.3361 H   0  0  0  0  0  0  0  0  0  0  0  0
   -2.7814   -2.0549    1.2330 H   0  0  0  0  0  0  0  0  0  0  0  0
   -2.3666   -0.9886    2.6165 H   0  0  0  0  0  0  0  0  0  0  0  0
   -3.5560   -0.0288    0.6095 H   0  0  0  0  0  0  0  0  0  0  0  0
   -3.9835    1.8065   -0.8953 H   0  0  0  0  0  0  0  0  0  0  0  0
   -4.5501   -2.6363    0.5679 O   0  0  0  0  0  0  0  0  0  0  0  0
   -5.3912   -1.7234    0.6899 C   0  0  0  0  0  0  0  0  0  0  0  0
   -5.2321   -0.4964    0.9290 O   0  0  0  0  0  0  0  0  0  0  0  0
   -6.8847   -2.1269    0.5047 C   0  0  0  0  0  0  0  0  0  0  0  0
   -7.6380   -1.7324    1.5578 F   0  0  0  0  0  0  0  0  0  0  0  0
   -7.4042   -1.5317   -0.6001 F   0  0  0  0  0  0  0  0  0  0  0  0
   -7.0641   -3.4535    0.3602 F   0  0  0  0  0  0  0  0  0  0  0  0
  1  4  2  0  0  0  0
  1 10  1  0  0  0  0
  2  1  1  0  0  0  0
  3  2  1  0  0  0  0
  4  5  1  0  0  0  0
  5 12  1  0  0  0  0
  5  6  2  0  0  0  0
  6  7  1  0  0  0  0
  7  8  1  0  0  0  0
  8 13  1  0  0  0  0
  8 15  1  0  0  0  0
  9  6  1  0  0  0  0
  9 16  1  0  0  0  0
 10  9  2  0  0  0  0
 11  4  1  0  0  0  0
 14  8  1  0  0  0  0
 17 10  1  0  0  0  0
 18 19  2  0  0  0  0
 19 20  1  0  0  0  0
 21 19  1  0  0  0  0
 21 22  1  0  0  0  0
 23 21  1  0  0  0  0
 24 21  1  0  0  0  0
M  RAD  3   2   2   3   3  20   2
M  END
