Coordinates from ORCA-job 4-MeOPhN2+~CF3COO-_B3LYPG-6-31G_dp-NX-Scan-d89-09-n800
 OpenBabel11261920413D

 24 23  0  0  0  0  0  0  0  0999 V2000
   -1.9816    2.0447   -1.4263 C   0  0  0  0  0  0  0  0  0  0  0  0
   -2.3119    3.0176   -2.2911 N   0  0  0  0  0  0  0  0  0  0  0  0
   -2.6105    3.8356   -3.0080 N   0  0  0  0  0  0  0  0  0  0  0  0
   -0.6190    1.6348   -1.3321 C   0  0  0  0  0  0  0  0  0  0  0  0
   -0.3078    0.6292   -0.4594 C   0  0  0  0  0  0  0  0  0  0  0  0
   -1.3276    0.0085    0.3266 C   0  0  0  0  0  0  0  0  0  0  0  0
   -0.9180   -0.9631    1.1099 O   0  0  0  0  0  0  0  0  0  0  0  0
   -1.8839   -1.6840    1.9345 C   0  0  0  0  0  0  0  0  0  0  0  0
   -2.6777    0.4411    0.2394 C   0  0  0  0  0  0  0  0  0  0  0  0
   -3.0042    1.4432   -0.6371 C   0  0  0  0  0  0  0  0  0  0  0  0
    0.1387    2.1128   -1.9428 H   0  0  0  0  0  0  0  0  0  0  0  0
    0.7109    0.2739   -0.3534 H   0  0  0  0  0  0  0  0  0  0  0  0
   -1.3146   -2.5077    2.3612 H   0  0  0  0  0  0  0  0  0  0  0  0
   -2.7329   -2.0356    1.3257 H   0  0  0  0  0  0  0  0  0  0  0  0
   -2.2399   -1.0183    2.7257 H   0  0  0  0  0  0  0  0  0  0  0  0
   -3.5215   -0.0100    0.7998 H   0  0  0  0  0  0  0  0  0  0  0  0
   -4.0385    1.7593   -0.7280 H   0  0  0  0  0  0  0  0  0  0  0  0
   -4.4802   -2.4778    0.4948 O   0  0  0  0  0  0  0  0  0  0  0  0
   -5.3553   -1.6079    0.6845 C   0  0  0  0  0  0  0  0  0  0  0  0
   -5.2430   -0.4173    1.0786 O   0  0  0  0  0  0  0  0  0  0  0  0
   -6.8210   -2.0194    0.3525 C   0  0  0  0  0  0  0  0  0  0  0  0
   -7.6745   -1.6772    1.3434 F   0  0  0  0  0  0  0  0  0  0  0  0
   -7.2421   -1.3821   -0.7726 F   0  0  0  0  0  0  0  0  0  0  0  0
   -6.9677   -3.3403    0.1361 F   0  0  0  0  0  0  0  0  0  0  0  0
  1  4  2  0  0  0  0
  1 10  1  0  0  0  0
  2  1  1  0  0  0  0
  3  2  1  0  0  0  0
  4  5  1  0  0  0  0
  5 12  1  0  0  0  0
  5  6  2  0  0  0  0
  6  7  1  0  0  0  0
  7  8  1  0  0  0  0
  8 13  1  0  0  0  0
  8 15  1  0  0  0  0
  9  6  1  0  0  0  0
  9 16  1  0  0  0  0
 10  9  2  0  0  0  0
 11  4  1  0  0  0  0
 14  8  1  0  0  0  0
 17 10  1  0  0  0  0
 18 19  2  0  0  0  0
 19 20  1  0  0  0  0
 21 19  1  0  0  0  0
 21 22  1  0  0  0  0
 23 21  1  0  0  0  0
 24 21  1  0  0  0  0
M  RAD  3   2   2   3   3  20   2
M  END
