Coordinates from ORCA-job 4-MeOPhN2+~CF3COO-_B3LYPG-6-31G_dp-NX-Scan-d89-09-n800
 OpenBabel11261920413D

 24 23  0  0  0  0  0  0  0  0999 V2000
   -2.1068    1.9606   -1.3893 C   0  0  0  0  0  0  0  0  0  0  0  0
   -2.4977    2.9063   -2.2593 N   0  0  0  0  0  0  0  0  0  0  0  0
   -2.8437    3.7042   -2.9771 N   0  0  0  0  0  0  0  0  0  0  0  0
   -0.7494    1.5240   -1.4055 C   0  0  0  0  0  0  0  0  0  0  0  0
   -0.3789    0.5390   -0.5322 C   0  0  0  0  0  0  0  0  0  0  0  0
   -1.3355   -0.0364    0.3602 C   0  0  0  0  0  0  0  0  0  0  0  0
   -0.8785   -0.9993    1.1291 O   0  0  0  0  0  0  0  0  0  0  0  0
   -1.7859   -1.6865    2.0426 C   0  0  0  0  0  0  0  0  0  0  0  0
   -2.6754    0.4295    0.3851 C   0  0  0  0  0  0  0  0  0  0  0  0
   -3.0643    1.4091   -0.4910 C   0  0  0  0  0  0  0  0  0  0  0  0
   -0.0418    1.9649   -2.0988 H   0  0  0  0  0  0  0  0  0  0  0  0
    0.6376    0.1629   -0.5097 H   0  0  0  0  0  0  0  0  0  0  0  0
   -1.1947   -2.5078    2.4439 H   0  0  0  0  0  0  0  0  0  0  0  0
   -2.6776   -2.0382    1.5006 H   0  0  0  0  0  0  0  0  0  0  0  0
   -2.0717   -0.9992    2.8439 H   0  0  0  0  0  0  0  0  0  0  0  0
   -3.4742    0.0095    1.0180 H   0  0  0  0  0  0  0  0  0  0  0  0
   -4.0994    1.7348   -0.4994 H   0  0  0  0  0  0  0  0  0  0  0  0
   -4.3900   -2.3076    0.4851 O   0  0  0  0  0  0  0  0  0  0  0  0
   -5.3086   -1.4833    0.6821 C   0  0  0  0  0  0  0  0  0  0  0  0
   -5.2713   -0.3414    1.2078 O   0  0  0  0  0  0  0  0  0  0  0  0
   -6.7146   -1.8883    0.1464 C   0  0  0  0  0  0  0  0  0  0  0  0
   -7.6990   -1.5849    1.0197 F   0  0  0  0  0  0  0  0  0  0  0  0
   -6.9824   -1.2111   -1.0046 F   0  0  0  0  0  0  0  0  0  0  0  0
   -6.8198   -3.2009   -0.1357 F   0  0  0  0  0  0  0  0  0  0  0  0
  1 10  1  0  0  0  0
  2  1  1  0  0  0  0
  3  2  1  0  0  0  0
  4  1  2  0  0  0  0
  4  5  1  0  0  0  0
  5 12  1  0  0  0  0
  5  6  2  0  0  0  0
  6  9  1  0  0  0  0
  6  7  1  0  0  0  0
  7  8  1  0  0  0  0
  8 13  1  0  0  0  0
  8 15  1  0  0  0  0
  9 16  1  0  0  0  0
 10  9  2  0  0  0  0
 11  4  1  0  0  0  0
 14  8  1  0  0  0  0
 17 10  1  0  0  0  0
 18 19  2  0  0  0  0
 19 20  1  0  0  0  0
 21 19  1  0  0  0  0
 21 22  1  0  0  0  0
 23 21  1  0  0  0  0
 24 21  1  0  0  0  0
M  RAD  3   2   2   3   3  20   2
M  END
