Coordinates from ORCA-job 4-MeOPhN2+~CF3COO-_B3LYPG-6-31G_dp-NX-Scan-d89-09-n800
 OpenBabel11261920413D

 24 23  0  0  0  0  0  0  0  0999 V2000
   -2.6392    0.2865   -1.0352 C   0  0  0  0  0  0  0  0  0  0  0  0
   -3.4722    0.4603   -2.1568 N   0  0  0  0  0  0  0  0  0  0  0  0
   -3.5869    0.6406   -3.2633 N   0  0  0  0  0  0  0  0  0  0  0  0
   -1.4291    1.0027   -1.0277 C   0  0  0  0  0  0  0  0  0  0  0  0
   -0.5737    0.8349    0.0438 C   0  0  0  0  0  0  0  0  0  0  0  0
   -0.9106   -0.0490    1.0903 C   0  0  0  0  0  0  0  0  0  0  0  0
   -0.0046   -0.1362    2.0834 O   0  0  0  0  0  0  0  0  0  0  0  0
   -0.2668   -1.0006    3.1887 C   0  0  0  0  0  0  0  0  0  0  0  0
   -2.1196   -0.7671    1.0473 C   0  0  0  0  0  0  0  0  0  0  0  0
   -2.9983   -0.5910   -0.0137 C   0  0  0  0  0  0  0  0  0  0  0  0
   -1.1842    1.6780   -1.8402 H   0  0  0  0  0  0  0  0  0  0  0  0
    0.3649    1.3737    0.1009 H   0  0  0  0  0  0  0  0  0  0  0  0
    0.5904   -0.8956    3.8542 H   0  0  0  0  0  0  0  0  0  0  0  0
   -0.3525   -2.0441    2.8652 H   0  0  0  0  0  0  0  0  0  0  0  0
   -1.1791   -0.7026    3.7178 H   0  0  0  0  0  0  0  0  0  0  0  0
   -2.3856   -1.4596    1.8360 H   0  0  0  0  0  0  0  0  0  0  0  0
   -3.9281   -1.1433   -0.1074 H   0  0  0  0  0  0  0  0  0  0  0  0
   -5.5032   -1.4307   -1.5084 O   0  0  0  0  0  0  0  0  0  0  0  0
   -5.9741   -0.3072   -1.2876 C   0  0  0  0  0  0  0  0  0  0  0  0
   -5.3582    0.7986   -1.1685 O   0  0  0  0  0  0  0  0  0  0  0  0
   -7.5169   -0.1638   -1.1440 C   0  0  0  0  0  0  0  0  0  0  0  0
   -7.8418    0.5270   -0.0306 F   0  0  0  0  0  0  0  0  0  0  0  0
   -8.0239    0.5040   -2.2036 F   0  0  0  0  0  0  0  0  0  0  0  0
   -8.1305   -1.3558   -1.0788 F   0  0  0  0  0  0  0  0  0  0  0  0
  1  4  2  0  0  0  0
  1 10  1  0  0  0  0
  2  1  1  0  0  0  0
  3  2  2  0  0  0  0
  4  5  1  0  0  0  0
  5 12  1  0  0  0  0
  5  6  2  0  0  0  0
  6  7  1  0  0  0  0
  7  8  1  0  0  0  0
  8 15  1  0  0  0  0
  8 13  1  0  0  0  0
  9  6  1  0  0  0  0
  9 16  1  0  0  0  0
 10  9  2  0  0  0  0
 11  4  1  0  0  0  0
 14  8  1  0  0  0  0
 17 10  1  0  0  0  0
 18 19  2  0  0  0  0
 19 20  1  0  0  0  0
 19 21  1  0  0  0  0
 21 24  1  0  0  0  0
 21 22  1  0  0  0  0
 23 21  1  0  0  0  0
M  RAD  2   3   2  20   2
M  END
