Coordinates from ORCA-job 4-MeOPhN2+~CF3COO-_B3LYPG-6-31G_dp-NX-Scan-d89-09-n800
 OpenBabel11261920413D

 24 23  0  0  0  0  0  0  0  0999 V2000
   -2.5682    1.6315   -1.2963 C   0  0  0  0  0  0  0  0  0  0  0  0
   -3.1795    2.4180   -2.1992 N   0  0  0  0  0  0  0  0  0  0  0  0
   -3.7095    3.0766   -2.9436 N   0  0  0  0  0  0  0  0  0  0  0  0
   -1.2381    1.1872   -1.5518 C   0  0  0  0  0  0  0  0  0  0  0  0
   -0.6661    0.3199   -0.6614 C   0  0  0  0  0  0  0  0  0  0  0  0
   -1.4010   -0.1342    0.4756 C   0  0  0  0  0  0  0  0  0  0  0  0
   -0.8032   -1.0458    1.2152 O   0  0  0  0  0  0  0  0  0  0  0  0
   -1.5495   -1.6891    2.2886 C   0  0  0  0  0  0  0  0  0  0  0  0
   -2.6908    0.3772    0.7494 C   0  0  0  0  0  0  0  0  0  0  0  0
   -3.2906    1.2333   -0.1391 C   0  0  0  0  0  0  0  0  0  0  0  0
   -0.7119    1.5195   -2.4396 H   0  0  0  0  0  0  0  0  0  0  0  0
    0.3321   -0.0711   -0.8207 H   0  0  0  0  0  0  0  0  0  0  0  0
   -0.9048   -2.5009    2.6215 H   0  0  0  0  0  0  0  0  0  0  0  0
   -2.5094   -2.0538    1.8973 H   0  0  0  0  0  0  0  0  0  0  0  0
   -1.7038   -0.9752    3.1032 H   0  0  0  0  0  0  0  0  0  0  0  0
   -3.3081    0.0357    1.5781 H   0  0  0  0  0  0  0  0  0  0  0  0
   -4.3212    1.5279    0.0219 H   0  0  0  0  0  0  0  0  0  0  0  0
   -4.2415   -2.1610    0.6901 O   0  0  0  0  0  0  0  0  0  0  0  0
   -5.1394   -1.2935    0.7556 C   0  0  0  0  0  0  0  0  0  0  0  0
   -5.2996   -0.3415    1.5563 O   0  0  0  0  0  0  0  0  0  0  0  0
   -6.1498   -1.2836   -0.4325 C   0  0  0  0  0  0  0  0  0  0  0  0
   -7.4144   -1.0171   -0.0535 F   0  0  0  0  0  0  0  0  0  0  0  0
   -5.7838   -0.2800   -1.3025 F   0  0  0  0  0  0  0  0  0  0  0  0
   -6.1714   -2.4202   -1.1507 F   0  0  0  0  0  0  0  0  0  0  0  0
  1 10  1  0  0  0  0
  2  1  1  0  0  0  0
  3  2  1  0  0  0  0
  4  1  2  0  0  0  0
  4  5  1  0  0  0  0
  5  6  2  0  0  0  0
  6  9  1  0  0  0  0
  6  7  1  0  0  0  0
  7  8  1  0  0  0  0
  8 13  1  0  0  0  0
  8 15  1  0  0  0  0
  9 16  1  0  0  0  0
 10 17  1  0  0  0  0
 10  9  2  0  0  0  0
 11  4  1  0  0  0  0
 12  5  1  0  0  0  0
 14  8  1  0  0  0  0
 18 19  2  0  0  0  0
 19 20  1  0  0  0  0
 21 22  1  0  0  0  0
 21 19  1  0  0  0  0
 23 21  1  0  0  0  0
 24 21  1  0  0  0  0
M  RAD  3   2   2   3   3  20   2
M  END
