Coordinates from ORCA-job 4-MeOPhN2+~CF3COO-_B3LYPG-6-31G_dp-NX-Scan-d89-09-n800
 OpenBabel11261920413D

 24 23  0  0  0  0  0  0  0  0999 V2000
   -1.9789    2.0471   -1.4268 C   0  0  0  0  0  0  0  0  0  0  0  0
   -2.3072    3.0217   -2.2904 N   0  0  0  0  0  0  0  0  0  0  0  0
   -2.6039    3.8414   -3.0063 N   0  0  0  0  0  0  0  0  0  0  0  0
   -0.6166    1.6365   -1.3312 C   0  0  0  0  0  0  0  0  0  0  0  0
   -0.3071    0.6298   -0.4592 C   0  0  0  0  0  0  0  0  0  0  0  0
   -1.3282    0.0088    0.3248 C   0  0  0  0  0  0  0  0  0  0  0  0
   -0.9199   -0.9631    1.1083 O   0  0  0  0  0  0  0  0  0  0  0  0
   -1.8864   -1.6834    1.9327 C   0  0  0  0  0  0  0  0  0  0  0  0
   -2.6782    0.4416    0.2358 C   0  0  0  0  0  0  0  0  0  0  0  0
   -3.0030    1.4449   -0.6400 C   0  0  0  0  0  0  0  0  0  0  0  0
    0.1422    2.1149   -1.9402 H   0  0  0  0  0  0  0  0  0  0  0  0
    0.7113    0.2739   -0.3521 H   0  0  0  0  0  0  0  0  0  0  0  0
   -1.3168   -2.5055    2.3621 H   0  0  0  0  0  0  0  0  0  0  0  0
   -2.7341   -2.0375    1.3235 H   0  0  0  0  0  0  0  0  0  0  0  0
   -2.2445   -1.0165    2.7219 H   0  0  0  0  0  0  0  0  0  0  0  0
   -3.5228   -0.0102    0.7946 H   0  0  0  0  0  0  0  0  0  0  0  0
   -4.0369    1.7617   -0.7322 H   0  0  0  0  0  0  0  0  0  0  0  0
   -4.4818   -2.4821    0.4952 O   0  0  0  0  0  0  0  0  0  0  0  0
   -5.3559   -1.6114    0.6848 C   0  0  0  0  0  0  0  0  0  0  0  0
   -5.2423   -0.4199    1.0761 O   0  0  0  0  0  0  0  0  0  0  0  0
   -6.8226   -2.0229    0.3568 C   0  0  0  0  0  0  0  0  0  0  0  0
   -7.6737   -1.6779    1.3488 F   0  0  0  0  0  0  0  0  0  0  0  0
   -7.2458   -1.3879   -0.7688 F   0  0  0  0  0  0  0  0  0  0  0  0
   -6.9705   -3.3442    0.1438 F   0  0  0  0  0  0  0  0  0  0  0  0
  1  4  2  0  0  0  0
  1 10  1  0  0  0  0
  2  1  1  0  0  0  0
  3  2  1  0  0  0  0
  4  5  1  0  0  0  0
  5 12  1  0  0  0  0
  5  6  2  0  0  0  0
  6  7  1  0  0  0  0
  7  8  1  0  0  0  0
  8 13  1  0  0  0  0
  8 15  1  0  0  0  0
  9  6  1  0  0  0  0
  9 16  1  0  0  0  0
 10  9  2  0  0  0  0
 11  4  1  0  0  0  0
 14  8  1  0  0  0  0
 17 10  1  0  0  0  0
 18 19  2  0  0  0  0
 19 20  1  0  0  0  0
 21 19  1  0  0  0  0
 21 22  1  0  0  0  0
 23 21  1  0  0  0  0
 24 21  1  0  0  0  0
M  RAD  3   2   2   3   3  20   2
M  END
