Coordinates from ORCA-job 4-MeOPhN2+~CF3COO-_B3LYPG-6-31G_dp-NX-Scan-d89-09-n800
 OpenBabel11261920413D

 24 23  0  0  0  0  0  0  0  0999 V2000
   -2.3075    1.8166   -1.3437 C   0  0  0  0  0  0  0  0  0  0  0  0
   -2.8018    2.6906   -2.2363 N   0  0  0  0  0  0  0  0  0  0  0  0
   -3.2379    3.4247   -2.9723 N   0  0  0  0  0  0  0  0  0  0  0  0
   -0.9582    1.3767   -1.4787 C   0  0  0  0  0  0  0  0  0  0  0  0
   -0.4924    0.4436   -0.5932 C   0  0  0  0  0  0  0  0  0  0  0  0
   -1.3491   -0.0794    0.4234 C   0  0  0  0  0  0  0  0  0  0  0  0
   -0.8247   -1.0214    1.1772 O   0  0  0  0  0  0  0  0  0  0  0  0
   -1.6597   -1.6919    2.1679 C   0  0  0  0  0  0  0  0  0  0  0  0
   -2.6704    0.4085    0.5751 C   0  0  0  0  0  0  0  0  0  0  0  0
   -3.1591    1.3329   -0.3114 C   0  0  0  0  0  0  0  0  0  0  0  0
   -0.3321    1.7697   -2.2720 H   0  0  0  0  0  0  0  0  0  0  0  0
    0.5194    0.0609   -0.6621 H   0  0  0  0  0  0  0  0  0  0  0  0
   -1.0494   -2.5213    2.5214 H   0  0  0  0  0  0  0  0  0  0  0  0
   -2.5933   -2.0304    1.6955 H   0  0  0  0  0  0  0  0  0  0  0  0
   -1.8675   -1.0001    2.9892 H   0  0  0  0  0  0  0  0  0  0  0  0
   -3.3917    0.0255    1.3043 H   0  0  0  0  0  0  0  0  0  0  0  0
   -4.1951    1.6452   -0.2313 H   0  0  0  0  0  0  0  0  0  0  0  0
   -4.2897   -2.1767    0.5450 O   0  0  0  0  0  0  0  0  0  0  0  0
   -5.2271   -1.3636    0.7029 C   0  0  0  0  0  0  0  0  0  0  0  0
   -5.2760   -0.3052    1.3777 O   0  0  0  0  0  0  0  0  0  0  0  0
   -6.5098   -1.6392   -0.1377 C   0  0  0  0  0  0  0  0  0  0  0  0
   -7.6432   -1.3773    0.5458 F   0  0  0  0  0  0  0  0  0  0  0  0
   -6.5114   -0.8243   -1.2339 F   0  0  0  0  0  0  0  0  0  0  0  0
   -6.5960   -2.9041   -0.5909 F   0  0  0  0  0  0  0  0  0  0  0  0
  1 10  1  0  0  0  0
  2  1  1  0  0  0  0
  3  2  1  0  0  0  0
  4  1  2  0  0  0  0
  4  5  1  0  0  0  0
  5  6  2  0  0  0  0
  6  9  1  0  0  0  0
  6  7  1  0  0  0  0
  7  8  1  0  0  0  0
  8 13  1  0  0  0  0
  8 15  1  0  0  0  0
  9 16  1  0  0  0  0
 10 17  1  0  0  0  0
 10  9  2  0  0  0  0
 11  4  1  0  0  0  0
 12  5  1  0  0  0  0
 14  8  1  0  0  0  0
 18 19  2  0  0  0  0
 19 20  1  0  0  0  0
 21 22  1  0  0  0  0
 21 19  1  0  0  0  0
 23 21  1  0  0  0  0
 24 21  1  0  0  0  0
M  RAD  3   2   2   3   3  20   2
M  END
