Coordinates from ORCA-job 4-MeOPhN2+~CF3COO-_B3LYPG-6-31G_dp-NX-Scan-d89-09-n800
 OpenBabel11261920413D

 24 24  0  0  0  0  0  0  0  0999 V2000
   -1.9123   -1.0064    0.5221 C   0  0  0  0  0  0  0  0  0  0  0  0
   -2.1058   -2.2394    1.1500 N   0  0  0  0  0  0  0  0  0  0  0  0
   -2.9602   -2.9780    1.4802 N   0  0  0  0  0  0  0  0  0  0  0  0
   -0.5690   -0.5975    0.4041 C   0  0  0  0  0  0  0  0  0  0  0  0
   -0.2610    0.6084   -0.1929 C   0  0  0  0  0  0  0  0  0  0  0  0
   -1.2936    1.4312   -0.6835 C   0  0  0  0  0  0  0  0  0  0  0  0
   -0.8948    2.5888   -1.2498 O   0  0  0  0  0  0  0  0  0  0  0  0
   -1.8781    3.4800   -1.7736 C   0  0  0  0  0  0  0  0  0  0  0  0
   -2.6347    1.0237   -0.5642 C   0  0  0  0  0  0  0  0  0  0  0  0
   -2.9504   -0.1899    0.0337 C   0  0  0  0  0  0  0  0  0  0  0  0
    0.2114   -1.2441    0.7898 H   0  0  0  0  0  0  0  0  0  0  0  0
    0.7645    0.9452   -0.2956 H   0  0  0  0  0  0  0  0  0  0  0  0
   -1.3243    4.3325   -2.1664 H   0  0  0  0  0  0  0  0  0  0  0  0
   -2.5645    3.8202   -0.9903 H   0  0  0  0  0  0  0  0  0  0  0  0
   -2.4480    3.0113   -2.5839 H   0  0  0  0  0  0  0  0  0  0  0  0
   -3.4387    1.6457   -0.9369 H   0  0  0  0  0  0  0  0  0  0  0  0
   -3.9781   -0.5109    0.1308 H   0  0  0  0  0  0  0  0  0  0  0  0
   -4.5218   -2.3792    0.9617 O   0  0  0  0  0  0  0  0  0  0  0  0
   -5.5087   -2.8763    1.6708 C   0  0  0  0  0  0  0  0  0  0  0  0
   -5.4818   -3.5869    2.6489 O   0  0  0  0  0  0  0  0  0  0  0  0
   -6.8595   -2.4140    1.0517 C   0  0  0  0  0  0  0  0  0  0  0  0
   -7.8796   -2.6550    1.8806 F   0  0  0  0  0  0  0  0  0  0  0  0
   -6.8424   -1.0873    0.7823 F   0  0  0  0  0  0  0  0  0  0  0  0
   -7.0924   -3.0624   -0.1076 F   0  0  0  0  0  0  0  0  0  0  0  0
  1  2  1  0  0  0  0
  2  3  1  0  0  0  0
  4  1  1  0  0  0  0
  4 11  1  0  0  0  0
  5  4  2  0  0  0  0
  6  9  2  0  0  0  0
  6  5  1  0  0  0  0
  7  6  1  0  0  0  0
  8  7  1  0  0  0  0
  8 14  1  0  0  0  0
  9 10  1  0  0  0  0
 10 17  1  0  0  0  0
 10  1  2  0  0  0  0
 12  5  1  0  0  0  0
 13  8  1  0  0  0  0
 15  8  1  0  0  0  0
 16  9  1  0  0  0  0
 18  3  1  0  0  0  0
 18 19  1  0  0  0  0
 19 20  2  0  0  0  0
 21 19  1  0  0  0  0
 21 22  1  0  0  0  0
 23 21  1  0  0  0  0
 24 21  1  0  0  0  0
M  RAD  2   2   2   3   2
M  END
