Coordinates from ORCA-job 4-MeOPhN2+~CF3COO-_B3LYPG-6-31G_dp-NX-Scan-d89-09-n800
 OpenBabel11261920413D

 24 23  0  0  0  0  0  0  0  0999 V2000
   -2.6413    0.2414   -1.0482 C   0  0  0  0  0  0  0  0  0  0  0  0
   -3.4668    0.3985   -2.1712 N   0  0  0  0  0  0  0  0  0  0  0  0
   -3.6338    0.5611   -3.2707 N   0  0  0  0  0  0  0  0  0  0  0  0
   -1.4470    0.9842   -1.0322 C   0  0  0  0  0  0  0  0  0  0  0  0
   -0.5955    0.8335    0.0447 C   0  0  0  0  0  0  0  0  0  0  0  0
   -0.9219   -0.0552    1.0904 C   0  0  0  0  0  0  0  0  0  0  0  0
   -0.0210   -0.1239    2.0888 O   0  0  0  0  0  0  0  0  0  0  0  0
   -0.2743   -0.9895    3.1955 C   0  0  0  0  0  0  0  0  0  0  0  0
   -2.1176   -0.7958    1.0416 C   0  0  0  0  0  0  0  0  0  0  0  0
   -2.9910   -0.6402   -0.0258 C   0  0  0  0  0  0  0  0  0  0  0  0
   -1.2103    1.6640   -1.8432 H   0  0  0  0  0  0  0  0  0  0  0  0
    0.3326    1.3899    0.1066 H   0  0  0  0  0  0  0  0  0  0  0  0
    0.5771   -0.8674    3.8653 H   0  0  0  0  0  0  0  0  0  0  0  0
   -0.3399   -2.0353    2.8746 H   0  0  0  0  0  0  0  0  0  0  0  0
   -1.1946   -0.7057    3.7184 H   0  0  0  0  0  0  0  0  0  0  0  0
   -2.3773   -1.4886    1.8321 H   0  0  0  0  0  0  0  0  0  0  0  0
   -3.9160   -1.1989   -0.1234 H   0  0  0  0  0  0  0  0  0  0  0  0
   -5.4305   -1.2843   -1.6136 O   0  0  0  0  0  0  0  0  0  0  0  0
   -5.9475   -0.1993   -1.2883 C   0  0  0  0  0  0  0  0  0  0  0  0
   -5.3733    0.9082   -1.0920 O   0  0  0  0  0  0  0  0  0  0  0  0
   -7.4941   -0.1532   -1.1285 C   0  0  0  0  0  0  0  0  0  0  0  0
   -7.8558    0.5230   -0.0182 F   0  0  0  0  0  0  0  0  0  0  0  0
   -8.0496    0.4743   -2.1895 F   0  0  0  0  0  0  0  0  0  0  0  0
   -8.0343   -1.3809   -1.0513 F   0  0  0  0  0  0  0  0  0  0  0  0
  1  4  2  0  0  0  0
  1 10  1  0  0  0  0
  2  1  1  0  0  0  0
  3  2  2  0  0  0  0
  4  5  1  0  0  0  0
  5 12  1  0  0  0  0
  5  6  2  0  0  0  0
  6  7  1  0  0  0  0
  7  8  1  0  0  0  0
  8 15  1  0  0  0  0
  8 13  1  0  0  0  0
  9  6  1  0  0  0  0
  9 16  1  0  0  0  0
 10  9  2  0  0  0  0
 11  4  1  0  0  0  0
 14  8  1  0  0  0  0
 17 10  1  0  0  0  0
 18 19  2  0  0  0  0
 19 21  1  0  0  0  0
 19 20  1  0  0  0  0
 21 24  1  0  0  0  0
 21 22  1  0  0  0  0
 23 21  1  0  0  0  0
M  RAD  2   3   2  20   2
M  END
