Coordinates from ORCA-job 4-MeOPhN2+~CF3COO-_B3LYPG-6-31G_dp-NX-Scan-d89-09-n800
 OpenBabel11261920413D

 24 24  0  0  0  0  0  0  0  0999 V2000
   -2.0378   -0.9799    0.6762 C   0  0  0  0  0  0  0  0  0  0  0  0
   -2.1388   -2.1881    1.4035 N   0  0  0  0  0  0  0  0  0  0  0  0
   -3.1591   -2.8320    1.7021 N   0  0  0  0  0  0  0  0  0  0  0  0
   -0.6931   -0.6551    0.3865 C   0  0  0  0  0  0  0  0  0  0  0  0
   -0.3567    0.4910   -0.3075 C   0  0  0  0  0  0  0  0  0  0  0  0
   -1.3671    1.3745   -0.7242 C   0  0  0  0  0  0  0  0  0  0  0  0
   -0.9485    2.4746   -1.3956 O   0  0  0  0  0  0  0  0  0  0  0  0
   -1.9188    3.4118   -1.8479 C   0  0  0  0  0  0  0  0  0  0  0  0
   -2.7076    1.0820   -0.4289 C   0  0  0  0  0  0  0  0  0  0  0  0
   -3.0435   -0.0825    0.2576 C   0  0  0  0  0  0  0  0  0  0  0  0
    0.0733   -1.3432    0.7264 H   0  0  0  0  0  0  0  0  0  0  0  0
    0.6751    0.7340   -0.5371 H   0  0  0  0  0  0  0  0  0  0  0  0
   -1.3604    4.1945   -2.3625 H   0  0  0  0  0  0  0  0  0  0  0  0
   -2.4722    3.8525   -1.0102 H   0  0  0  0  0  0  0  0  0  0  0  0
   -2.6262    2.9504   -2.5479 H   0  0  0  0  0  0  0  0  0  0  0  0
   -3.5010    1.7543   -0.7324 H   0  0  0  0  0  0  0  0  0  0  0  0
   -4.0846   -0.2700    0.4690 H   0  0  0  0  0  0  0  0  0  0  0  0
   -4.2891   -2.3177    1.2522 O   0  0  0  0  0  0  0  0  0  0  0  0
   -5.4229   -2.9826    1.6363 C   0  0  0  0  0  0  0  0  0  0  0  0
   -5.5125   -3.9100    2.3817 O   0  0  0  0  0  0  0  0  0  0  0  0
   -6.6170   -2.3253    0.9094 C   0  0  0  0  0  0  0  0  0  0  0  0
   -7.7642   -2.7778    1.4109 F   0  0  0  0  0  0  0  0  0  0  0  0
   -6.5826   -0.9836    1.0471 F   0  0  0  0  0  0  0  0  0  0  0  0
   -6.5682   -2.6117   -0.4028 F   0  0  0  0  0  0  0  0  0  0  0  0
  1  2  1  0  0  0  0
  2  3  1  0  0  0  0
  4  1  1  0  0  0  0
  4 11  1  0  0  0  0
  5  4  2  0  0  0  0
  6  9  2  0  0  0  0
  6  5  1  0  0  0  0
  7  6  1  0  0  0  0
  8  7  1  0  0  0  0
  8 14  1  0  0  0  0
  9 10  1  0  0  0  0
 10 17  1  0  0  0  0
 10  1  2  0  0  0  0
 12  5  1  0  0  0  0
 13  8  1  0  0  0  0
 15  8  1  0  0  0  0
 16  9  1  0  0  0  0
 18 19  1  0  0  0  0
 18  3  1  0  0  0  0
 19 20  2  0  0  0  0
 21 23  1  0  0  0  0
 21 22  1  0  0  0  0
 21 19  1  0  0  0  0
 24 21  1  0  0  0  0
M  RAD  2   2   2   3   2
M  END
