Coordinates from ORCA-job 4-MeOPhN2+~CF3COO-_B3LYPG-6-31G_dp-NX-Scan-d89-09-n800
 OpenBabel11261920413D

 24 23  0  0  0  0  0  0  0  0999 V2000
   -2.6286    0.3083   -1.0368 C   0  0  0  0  0  0  0  0  0  0  0  0
   -3.4554    0.4906   -2.1622 N   0  0  0  0  0  0  0  0  0  0  0  0
   -3.5557    0.6996   -3.2658 N   0  0  0  0  0  0  0  0  0  0  0  0
   -1.4188    1.0262   -1.0188 C   0  0  0  0  0  0  0  0  0  0  0  0
   -0.5671    0.8497    0.0537 C   0  0  0  0  0  0  0  0  0  0  0  0
   -0.9057   -0.0458    1.0902 C   0  0  0  0  0  0  0  0  0  0  0  0
   -0.0026   -0.1412    2.0849 O   0  0  0  0  0  0  0  0  0  0  0  0
   -0.2653   -1.0192    3.1795 C   0  0  0  0  0  0  0  0  0  0  0  0
   -2.1131   -0.7655    1.0360 C   0  0  0  0  0  0  0  0  0  0  0  0
   -2.9894   -0.5805   -0.0257 C   0  0  0  0  0  0  0  0  0  0  0  0
   -1.1723    1.7095   -1.8241 H   0  0  0  0  0  0  0  0  0  0  0  0
    0.3702    1.3899    0.1195 H   0  0  0  0  0  0  0  0  0  0  0  0
    0.5898   -0.9193    3.8485 H   0  0  0  0  0  0  0  0  0  0  0  0
   -0.3471   -2.0590    2.8436 H   0  0  0  0  0  0  0  0  0  0  0  0
   -1.1799   -0.7301    3.7095 H   0  0  0  0  0  0  0  0  0  0  0  0
   -2.3800   -1.4670    1.8165 H   0  0  0  0  0  0  0  0  0  0  0  0
   -3.9192   -1.1348   -0.1283 H   0  0  0  0  0  0  0  0  0  0  0  0
   -5.5453   -1.4987   -1.3625 O   0  0  0  0  0  0  0  0  0  0  0  0
   -5.9927   -0.3511   -1.2513 C   0  0  0  0  0  0  0  0  0  0  0  0
   -5.3608    0.7532   -1.2156 O   0  0  0  0  0  0  0  0  0  0  0  0
   -7.5352   -0.1646   -1.1508 C   0  0  0  0  0  0  0  0  0  0  0  0
   -7.8655    0.6368   -0.1163 F   0  0  0  0  0  0  0  0  0  0  0  0
   -8.0107    0.4062   -2.2796 F   0  0  0  0  0  0  0  0  0  0  0  0
   -8.1736   -1.3333   -0.9822 F   0  0  0  0  0  0  0  0  0  0  0  0
  1  4  2  0  0  0  0
  1 10  1  0  0  0  0
  2  1  1  0  0  0  0
  3  2  2  0  0  0  0
  4  5  1  0  0  0  0
  5 12  1  0  0  0  0
  5  6  2  0  0  0  0
  6  7  1  0  0  0  0
  7  8  1  0  0  0  0
  8 15  1  0  0  0  0
  8 13  1  0  0  0  0
  9  6  1  0  0  0  0
  9 16  1  0  0  0  0
 10  9  2  0  0  0  0
 11  4  1  0  0  0  0
 14  8  1  0  0  0  0
 17 10  1  0  0  0  0
 18 19  2  0  0  0  0
 19 20  1  0  0  0  0
 19 21  1  0  0  0  0
 21 24  1  0  0  0  0
 21 22  1  0  0  0  0
 23 21  1  0  0  0  0
M  RAD  2   3   2  20   2
M  END
