Coordinates from ORCA-job 4-MeOPhN2+~CF3COO-_B3LYPG-6-31G_dp-NX-Scan-d89-09-n800
 OpenBabel11261920413D

 24 23  0  0  0  0  0  0  0  0999 V2000
   -2.6392    0.1923   -1.1078 C   0  0  0  0  0  0  0  0  0  0  0  0
   -3.4294    0.3741   -2.2601 N   0  0  0  0  0  0  0  0  0  0  0  0
   -3.4988    0.8045   -3.3011 N   0  0  0  0  0  0  0  0  0  0  0  0
   -1.4545    0.9528   -1.0437 C   0  0  0  0  0  0  0  0  0  0  0  0
   -0.6265    0.7983    0.0487 C   0  0  0  0  0  0  0  0  0  0  0  0
   -0.9633   -0.1119    1.0737 C   0  0  0  0  0  0  0  0  0  0  0  0
   -0.0849   -0.1823    2.0917 O   0  0  0  0  0  0  0  0  0  0  0  0
   -0.3535   -1.0653    3.1808 C   0  0  0  0  0  0  0  0  0  0  0  0
   -2.1459   -0.8663    0.9845 C   0  0  0  0  0  0  0  0  0  0  0  0
   -2.9910   -0.7119   -0.1076 C   0  0  0  0  0  0  0  0  0  0  0  0
   -1.2101    1.6509   -1.8365 H   0  0  0  0  0  0  0  0  0  0  0  0
    0.2902    1.3691    0.1419 H   0  0  0  0  0  0  0  0  0  0  0  0
    0.4793   -0.9405    3.8732 H   0  0  0  0  0  0  0  0  0  0  0  0
   -0.3968   -2.1076    2.8452 H   0  0  0  0  0  0  0  0  0  0  0  0
   -1.2903   -0.8005    3.6840 H   0  0  0  0  0  0  0  0  0  0  0  0
   -2.4196   -1.5694    1.7610 H   0  0  0  0  0  0  0  0  0  0  0  0
   -3.9136   -1.2669   -0.2153 H   0  0  0  0  0  0  0  0  0  0  0  0
   -5.2240   -0.7218   -1.7583 O   0  0  0  0  0  0  0  0  0  0  0  0
   -5.9397    0.2237   -1.2709 C   0  0  0  0  0  0  0  0  0  0  0  0
   -5.5999    1.3646   -0.9629 O   0  0  0  0  0  0  0  0  0  0  0  0
   -7.4116   -0.2177   -1.0285 C   0  0  0  0  0  0  0  0  0  0  0  0
   -8.1950    0.8113   -0.6730 F   0  0  0  0  0  0  0  0  0  0  0  0
   -7.9480   -0.7860   -2.1268 F   0  0  0  0  0  0  0  0  0  0  0  0
   -7.4577   -1.1335   -0.0303 F   0  0  0  0  0  0  0  0  0  0  0  0
  1  4  2  0  0  0  0
  1 10  1  0  0  0  0
  2  1  1  0  0  0  0
  3  2  2  0  0  0  0
  4  5  1  0  0  0  0
  5 12  1  0  0  0  0
  5  6  2  0  0  0  0
  6  7  1  0  0  0  0
  7  8  1  0  0  0  0
  8 15  1  0  0  0  0
  8 13  1  0  0  0  0
  9  6  1  0  0  0  0
  9 16  1  0  0  0  0
 10  9  2  0  0  0  0
 11  4  1  0  0  0  0
 14  8  1  0  0  0  0
 17 10  1  0  0  0  0
 18 19  2  0  0  0  0
 19 21  1  0  0  0  0
 19 20  1  0  0  0  0
 21 22  1  0  0  0  0
 21 24  1  0  0  0  0
 23 21  1  0  0  0  0
M  RAD  2   3   2  20   2
M  END
