Coordinates from ORCA-job 4-MeOPhN2+~CF3COO-_B3LYPG-6-31G_dp-NX-Scan-d89-09-n800
 OpenBabel11261920413D

 24 23  0  0  0  0  0  0  0  0999 V2000
   -2.2632    1.8501   -1.3577 C   0  0  0  0  0  0  0  0  0  0  0  0
   -2.7302    2.7474   -2.2418 N   0  0  0  0  0  0  0  0  0  0  0  0
   -3.1372    3.5054   -2.9703 N   0  0  0  0  0  0  0  0  0  0  0  0
   -0.9128    1.4066   -1.4691 C   0  0  0  0  0  0  0  0  0  0  0  0
   -0.4702    0.4590   -0.5874 C   0  0  0  0  0  0  0  0  0  0  0  0
   -1.3499   -0.0739    0.4044 C   0  0  0  0  0  0  0  0  0  0  0  0
   -0.8411   -1.0206    1.1620 O   0  0  0  0  0  0  0  0  0  0  0  0
   -1.6871   -1.6833    2.1486 C   0  0  0  0  0  0  0  0  0  0  0  0
   -2.6759    0.4107    0.5289 C   0  0  0  0  0  0  0  0  0  0  0  0
   -3.1406    1.3502   -0.3544 C   0  0  0  0  0  0  0  0  0  0  0  0
   -0.2673    1.8107   -2.2410 H   0  0  0  0  0  0  0  0  0  0  0  0
    0.5426    0.0757   -0.6377 H   0  0  0  0  0  0  0  0  0  0  0  0
   -1.0836   -2.5145    2.5093 H   0  0  0  0  0  0  0  0  0  0  0  0
   -2.6209   -2.0200    1.6741 H   0  0  0  0  0  0  0  0  0  0  0  0
   -1.8961   -0.9868    2.9657 H   0  0  0  0  0  0  0  0  0  0  0  0
   -3.4145    0.0228    1.2408 H   0  0  0  0  0  0  0  0  0  0  0  0
   -4.1760    1.6683   -0.2919 H   0  0  0  0  0  0  0  0  0  0  0  0
   -4.3141   -2.2233    0.5525 O   0  0  0  0  0  0  0  0  0  0  0  0
   -5.2431   -1.4008    0.7072 C   0  0  0  0  0  0  0  0  0  0  0  0
   -5.2698   -0.3201    1.3482 O   0  0  0  0  0  0  0  0  0  0  0  0
   -6.5546   -1.6980   -0.0800 C   0  0  0  0  0  0  0  0  0  0  0  0
   -7.6610   -1.4562    0.6541 F   0  0  0  0  0  0  0  0  0  0  0  0
   -6.6188   -0.8846   -1.1738 F   0  0  0  0  0  0  0  0  0  0  0  0
   -6.6384   -2.9648   -0.5288 F   0  0  0  0  0  0  0  0  0  0  0  0
  1 10  1  0  0  0  0
  2  1  1  0  0  0  0
  3  2  1  0  0  0  0
  4  1  2  0  0  0  0
  4  5  1  0  0  0  0
  5  6  2  0  0  0  0
  6  9  1  0  0  0  0
  6  7  1  0  0  0  0
  7  8  1  0  0  0  0
  8 13  1  0  0  0  0
  8 15  1  0  0  0  0
  9 16  1  0  0  0  0
 10 17  1  0  0  0  0
 10  9  2  0  0  0  0
 11  4  1  0  0  0  0
 12  5  1  0  0  0  0
 14  8  1  0  0  0  0
 18 19  2  0  0  0  0
 19 20  1  0  0  0  0
 21 22  1  0  0  0  0
 21 19  1  0  0  0  0
 23 21  1  0  0  0  0
 24 21  1  0  0  0  0
M  RAD  3   2   2   3   3  20   2
M  END
