Coordinates from ORCA-job 4-MeOPhN2+~CF3COO-_B3LYPG-6-31G_dp-NX-Scan-d89-09-n800
 OpenBabel11261920413D

 24 23  0  0  0  0  0  0  0  0999 V2000
   -2.9559    1.4783   -0.8507 C   0  0  0  0  0  0  0  0  0  0  0  0
   -3.9368    2.0526   -1.5709 N   0  0  0  0  0  0  0  0  0  0  0  0
   -4.7923    2.4859   -2.1500 N   0  0  0  0  0  0  0  0  0  0  0  0
   -2.0085    0.6597   -1.5201 C   0  0  0  0  0  0  0  0  0  0  0  0
   -1.2297   -0.1765   -0.7654 C   0  0  0  0  0  0  0  0  0  0  0  0
   -1.4467   -0.2650    0.6365 C   0  0  0  0  0  0  0  0  0  0  0  0
   -0.7939   -1.2476    1.2542 O   0  0  0  0  0  0  0  0  0  0  0  0
   -1.2817   -1.6803    2.5407 C   0  0  0  0  0  0  0  0  0  0  0  0
   -2.3064    0.6334    1.2943 C   0  0  0  0  0  0  0  0  0  0  0  0
   -3.0950    1.4943    0.5614 C   0  0  0  0  0  0  0  0  0  0  0  0
   -1.9515    0.6669   -2.6026 H   0  0  0  0  0  0  0  0  0  0  0  0
   -0.5210   -0.8561   -1.2235 H   0  0  0  0  0  0  0  0  0  0  0  0
   -0.7860   -2.6313    2.7303 H   0  0  0  0  0  0  0  0  0  0  0  0
   -2.3662   -1.8123    2.4904 H   0  0  0  0  0  0  0  0  0  0  0  0
   -1.0064   -0.9640    3.3220 H   0  0  0  0  0  0  0  0  0  0  0  0
   -2.4399    0.5871    2.3662 H   0  0  0  0  0  0  0  0  0  0  0  0
   -3.8141    2.1455    1.0329 H   0  0  0  0  0  0  0  0  0  0  0  0
   -4.3523   -1.4172    0.7035 O   0  0  0  0  0  0  0  0  0  0  0  0
   -5.0832   -0.6403    0.0705 C   0  0  0  0  0  0  0  0  0  0  0  0
   -5.4158    0.5542    0.3033 O   0  0  0  0  0  0  0  0  0  0  0  0
   -5.6029   -1.1524   -1.3116 C   0  0  0  0  0  0  0  0  0  0  0  0
   -6.9030   -0.8697   -1.5245 F   0  0  0  0  0  0  0  0  0  0  0  0
   -4.9008   -0.5155   -2.3165 F   0  0  0  0  0  0  0  0  0  0  0  0
   -5.4337   -2.4698   -1.5083 F   0  0  0  0  0  0  0  0  0  0  0  0
  1 10  1  0  0  0  0
  2  1  1  0  0  0  0
  3  2  1  0  0  0  0
  4  1  2  0  0  0  0
  4  5  1  0  0  0  0
  5  6  2  0  0  0  0
  6  7  1  0  0  0  0
  6  9  1  0  0  0  0
  7  8  1  0  0  0  0
  8 13  1  0  0  0  0
  8 15  1  0  0  0  0
  9 16  1  0  0  0  0
 10 17  1  0  0  0  0
 10  9  2  0  0  0  0
 11  4  1  0  0  0  0
 12  5  1  0  0  0  0
 14  8  1  0  0  0  0
 19 20  2  0  0  0  0
 19 18  1  0  0  0  0
 21 19  1  0  0  0  0
 22 21  1  0  0  0  0
 23 21  1  0  0  0  0
 24 21  1  0  0  0  0
M  RAD  3   2   2   3   3  18   2
M  END
