Coordinates from ORCA-job 4-MeOPhN2+~CF3COO-_B3LYPG-6-31G_dp-NX-Scan-d89-09-n800
 OpenBabel11261920413D

 24 23  0  0  0  0  0  0  0  0999 V2000
   -2.9453    1.5922   -0.9042 C   0  0  0  0  0  0  0  0  0  0  0  0
   -3.7940    2.3357   -1.6258 N   0  0  0  0  0  0  0  0  0  0  0  0
   -4.5301    2.9501   -2.2149 N   0  0  0  0  0  0  0  0  0  0  0  0
   -2.0264    0.7399   -1.5794 C   0  0  0  0  0  0  0  0  0  0  0  0
   -1.3235   -0.1688   -0.8394 C   0  0  0  0  0  0  0  0  0  0  0  0
   -1.5655   -0.2872    0.5612 C   0  0  0  0  0  0  0  0  0  0  0  0
   -0.9464   -1.3018    1.1571 O   0  0  0  0  0  0  0  0  0  0  0  0
   -1.4150   -1.7204    2.4573 C   0  0  0  0  0  0  0  0  0  0  0  0
   -2.4003    0.6243    1.2280 C   0  0  0  0  0  0  0  0  0  0  0  0
   -3.1422    1.5370    0.5041 C   0  0  0  0  0  0  0  0  0  0  0  0
   -1.9255    0.7959   -2.6573 H   0  0  0  0  0  0  0  0  0  0  0  0
   -0.6383   -0.8679   -1.3040 H   0  0  0  0  0  0  0  0  0  0  0  0
   -0.9410   -2.6850    2.6335 H   0  0  0  0  0  0  0  0  0  0  0  0
   -2.5037   -1.8170    2.4311 H   0  0  0  0  0  0  0  0  0  0  0  0
   -1.0945   -1.0107    3.2274 H   0  0  0  0  0  0  0  0  0  0  0  0
   -2.5722    0.5420    2.2914 H   0  0  0  0  0  0  0  0  0  0  0  0
   -3.8171    2.2258    0.9880 H   0  0  0  0  0  0  0  0  0  0  0  0
   -4.3777   -1.4563    0.9984 O   0  0  0  0  0  0  0  0  0  0  0  0
   -5.0122   -0.7131    0.2308 C   0  0  0  0  0  0  0  0  0  0  0  0
   -5.3178    0.5071    0.3392 O   0  0  0  0  0  0  0  0  0  0  0  0
   -5.4409   -1.3161   -1.1433 C   0  0  0  0  0  0  0  0  0  0  0  0
   -6.7589   -1.1595   -1.3840 F   0  0  0  0  0  0  0  0  0  0  0  0
   -4.7805   -0.6639   -2.1566 F   0  0  0  0  0  0  0  0  0  0  0  0
   -5.1546   -2.6223   -1.2764 F   0  0  0  0  0  0  0  0  0  0  0  0
  1 10  1  0  0  0  0
  2  1  1  0  0  0  0
  3  2  1  0  0  0  0
  4  1  2  0  0  0  0
  4  5  1  0  0  0  0
  5  6  2  0  0  0  0
  6  7  1  0  0  0  0
  6  9  1  0  0  0  0
  7  8  1  0  0  0  0
  8 13  1  0  0  0  0
  8 15  1  0  0  0  0
  9 16  1  0  0  0  0
 10 17  1  0  0  0  0
 10  9  2  0  0  0  0
 11  4  1  0  0  0  0
 12  5  1  0  0  0  0
 14  8  1  0  0  0  0
 19 20  2  0  0  0  0
 19 18  1  0  0  0  0
 21 19  1  0  0  0  0
 22 21  1  0  0  0  0
 23 21  1  0  0  0  0
 24 21  1  0  0  0  0
M  RAD  3   2   2   3   3  18   2
M  END
