Coordinates from ORCA-job 4-MeOPhN2+~CF3COO-_B3LYPG-6-31G_dp-NX-Scan-d89-09-n800
 OpenBabel11261920413D

 24 24  0  0  0  0  0  0  0  0999 V2000
   -1.9923   -0.9841    0.6112 C   0  0  0  0  0  0  0  0  0  0  0  0
   -2.1291   -2.2033    1.2958 N   0  0  0  0  0  0  0  0  0  0  0  0
   -3.0764   -2.8845    1.6275 N   0  0  0  0  0  0  0  0  0  0  0  0
   -0.6440   -0.6288    0.3888 C   0  0  0  0  0  0  0  0  0  0  0  0
   -0.3118    0.5414   -0.2649 C   0  0  0  0  0  0  0  0  0  0  0  0
   -1.3297    1.4038   -0.7103 C   0  0  0  0  0  0  0  0  0  0  0  0
   -0.9138    2.5262   -1.3391 O   0  0  0  0  0  0  0  0  0  0  0  0
   -1.8875    3.4468   -1.8226 C   0  0  0  0  0  0  0  0  0  0  0  0
   -2.6755    1.0683   -0.4854 C   0  0  0  0  0  0  0  0  0  0  0  0
   -3.0096   -0.1146    0.1656 C   0  0  0  0  0  0  0  0  0  0  0  0
    0.1262   -1.3043    0.7447 H   0  0  0  0  0  0  0  0  0  0  0  0
    0.7211    0.8187   -0.4443 H   0  0  0  0  0  0  0  0  0  0  0  0
   -1.3253    4.2556   -2.2896 H   0  0  0  0  0  0  0  0  0  0  0  0
   -2.4955    3.8517   -1.0053 H   0  0  0  0  0  0  0  0  0  0  0  0
   -2.5419    2.9808   -2.5689 H   0  0  0  0  0  0  0  0  0  0  0  0
   -3.4722    1.7227   -0.8171 H   0  0  0  0  0  0  0  0  0  0  0  0
   -4.0492   -0.3527    0.3296 H   0  0  0  0  0  0  0  0  0  0  0  0
   -4.3938   -2.3042    1.1691 O   0  0  0  0  0  0  0  0  0  0  0  0
   -5.4610   -2.9506    1.6610 C   0  0  0  0  0  0  0  0  0  0  0  0
   -5.5055   -3.8314    2.4746 O   0  0  0  0  0  0  0  0  0  0  0  0
   -6.7284   -2.3803    0.9733 C   0  0  0  0  0  0  0  0  0  0  0  0
   -7.8273   -2.7558    1.6291 F   0  0  0  0  0  0  0  0  0  0  0  0
   -6.6957   -1.0304    0.9319 F   0  0  0  0  0  0  0  0  0  0  0  0
   -6.8054   -2.8308   -0.2929 F   0  0  0  0  0  0  0  0  0  0  0  0
  1  2  1  0  0  0  0
  2  3  1  0  0  0  0
  4  1  1  0  0  0  0
  4 11  1  0  0  0  0
  5  4  2  0  0  0  0
  6  9  2  0  0  0  0
  6  5  1  0  0  0  0
  7  6  1  0  0  0  0
  8  7  1  0  0  0  0
  8 14  1  0  0  0  0
  9 10  1  0  0  0  0
 10 17  1  0  0  0  0
 10  1  2  0  0  0  0
 12  5  1  0  0  0  0
 13  8  1  0  0  0  0
 15  8  1  0  0  0  0
 16  9  1  0  0  0  0
 18  3  1  0  0  0  0
 18 19  1  0  0  0  0
 19 20  2  0  0  0  0
 21 22  1  0  0  0  0
 21 19  1  0  0  0  0
 23 21  1  0  0  0  0
 24 21  1  0  0  0  0
M  RAD  2   2   2   3   2
M  END
