Coordinates from ORCA-job 4-MeOPhN2+~CF3COO-_B3LYPG-6-31G_dp-NX-Scan-d89-09-n800
 OpenBabel11261920413D

 24 23  0  0  0  0  0  0  0  0999 V2000
   -2.5683    0.4371   -1.0374 C   0  0  0  0  0  0  0  0  0  0  0  0
   -3.3679    0.7034   -2.1562 N   0  0  0  0  0  0  0  0  0  0  0  0
   -3.5087    1.0747   -3.2095 N   0  0  0  0  0  0  0  0  0  0  0  0
   -1.3182    1.0935   -1.0056 C   0  0  0  0  0  0  0  0  0  0  0  0
   -0.4745    0.8469    0.0552 C   0  0  0  0  0  0  0  0  0  0  0  0
   -0.8571   -0.0583    1.0715 C   0  0  0  0  0  0  0  0  0  0  0  0
    0.0424   -0.2232    2.0574 O   0  0  0  0  0  0  0  0  0  0  0  0
   -0.2602   -1.1130    3.1340 C   0  0  0  0  0  0  0  0  0  0  0  0
   -2.0997   -0.7122    1.0039 C   0  0  0  0  0  0  0  0  0  0  0  0
   -2.9715   -0.4617   -0.0489 C   0  0  0  0  0  0  0  0  0  0  0  0
   -1.0395    1.7823   -1.7959 H   0  0  0  0  0  0  0  0  0  0  0  0
    0.4894    1.3366    0.1311 H   0  0  0  0  0  0  0  0  0  0  0  0
    0.6032   -1.0737    3.7984 H   0  0  0  0  0  0  0  0  0  0  0  0
   -0.3989   -2.1378    2.7732 H   0  0  0  0  0  0  0  0  0  0  0  0
   -1.1552   -0.7878    3.6756 H   0  0  0  0  0  0  0  0  0  0  0  0
   -2.4025   -1.4154    1.7697 H   0  0  0  0  0  0  0  0  0  0  0  0
   -3.9434   -0.9645   -0.1326 H   0  0  0  0  0  0  0  0  0  0  0  0
   -5.7045   -1.5154   -0.5320 O   0  0  0  0  0  0  0  0  0  0  0  0
   -6.0957   -0.4522   -1.0315 C   0  0  0  0  0  0  0  0  0  0  0  0
   -5.4342    0.5564   -1.4294 O   0  0  0  0  0  0  0  0  0  0  0  0
   -7.6304   -0.2653   -1.2305 C   0  0  0  0  0  0  0  0  0  0  0  0
   -8.0686    0.8400   -0.5894 F   0  0  0  0  0  0  0  0  0  0  0  0
   -7.9252   -0.1197   -2.5415 F   0  0  0  0  0  0  0  0  0  0  0  0
   -8.3343   -1.3107   -0.7678 F   0  0  0  0  0  0  0  0  0  0  0  0
  1  4  2  0  0  0  0
  1 10  1  0  0  0  0
  2  1  1  0  0  0  0
  3  2  2  0  0  0  0
  4  5  1  0  0  0  0
  5 12  1  0  0  0  0
  5  6  2  0  0  0  0
  6  7  1  0  0  0  0
  7  8  1  0  0  0  0
  8 15  1  0  0  0  0
  8 13  1  0  0  0  0
  9  6  1  0  0  0  0
  9 16  1  0  0  0  0
 10  9  2  0  0  0  0
 11  4  1  0  0  0  0
 14  8  1  0  0  0  0
 17 10  1  0  0  0  0
 19 18  1  0  0  0  0
 20 19  2  0  0  0  0
 21 19  1  0  0  0  0
 21 24  1  0  0  0  0
 21 22  1  0  0  0  0
 23 21  1  0  0  0  0
M  RAD  2   3   2  18   2
M  END
