Coordinates from ORCA-job 4-MeOPhN2+~CF3COO-_B3LYPG-6-31G_dp-NX-Scan-d89-09-n800
 OpenBabel11261920413D

 24 23  0  0  0  0  0  0  0  0999 V2000
   -1.8471   -1.2029    0.4005 C   0  0  0  0  0  0  0  0  0  0  0  0
   -2.0559   -2.4915    0.8736 N   0  0  0  0  0  0  0  0  0  0  0  0
   -2.7406   -3.3770    1.0941 N   0  0  0  0  0  0  0  0  0  0  0  0
   -0.5881   -0.6103    0.5985 C   0  0  0  0  0  0  0  0  0  0  0  0
   -0.3776    0.6734    0.1393 C   0  0  0  0  0  0  0  0  0  0  0  0
   -1.4145    1.3676   -0.5207 C   0  0  0  0  0  0  0  0  0  0  0  0
   -1.1053    2.6124   -0.9262 O   0  0  0  0  0  0  0  0  0  0  0  0
   -2.0974    3.3968   -1.5926 C   0  0  0  0  0  0  0  0  0  0  0  0
   -2.6664    0.7544   -0.7186 C   0  0  0  0  0  0  0  0  0  0  0  0
   -2.8920   -0.5352   -0.2607 C   0  0  0  0  0  0  0  0  0  0  0  0
    0.1945   -1.1587    1.1109 H   0  0  0  0  0  0  0  0  0  0  0  0
    0.5744    1.1734    0.2757 H   0  0  0  0  0  0  0  0  0  0  0  0
   -1.6182    4.3503   -1.8119 H   0  0  0  0  0  0  0  0  0  0  0  0
   -2.9672    3.5633   -0.9483 H   0  0  0  0  0  0  0  0  0  0  0  0
   -2.4143    2.9233   -2.5279 H   0  0  0  0  0  0  0  0  0  0  0  0
   -3.4686    1.2767   -1.2243 H   0  0  0  0  0  0  0  0  0  0  0  0
   -3.8426   -1.0419   -0.3957 H   0  0  0  0  0  0  0  0  0  0  0  0
   -4.7163   -2.9014    0.2734 O   0  0  0  0  0  0  0  0  0  0  0  0
   -5.2675   -2.5135    1.3603 C   0  0  0  0  0  0  0  0  0  0  0  0
   -4.7770   -2.3930    2.4817 O   0  0  0  0  0  0  0  0  0  0  0  0
   -6.7428   -2.0700    1.1362 C   0  0  0  0  0  0  0  0  0  0  0  0
   -7.3741   -1.7869    2.2845 F   0  0  0  0  0  0  0  0  0  0  0  0
   -6.7582   -0.9436    0.3727 F   0  0  0  0  0  0  0  0  0  0  0  0
   -7.4611   -3.0059    0.4873 F   0  0  0  0  0  0  0  0  0  0  0  0
  1  4  1  0  0  0  0
  1  2  1  0  0  0  0
  2  3  2  0  0  0  0
  4 11  1  0  0  0  0
  5 12  1  0  0  0  0
  5  4  2  0  0  0  0
  6  5  1  0  0  0  0
  7  6  1  0  0  0  0
  8 14  1  0  0  0  0
  8  7  1  0  0  0  0
  9  6  2  0  0  0  0
  9 10  1  0  0  0  0
 10  1  2  0  0  0  0
 13  8  1  0  0  0  0
 15  8  1  0  0  0  0
 16  9  1  0  0  0  0
 17 10  1  0  0  0  0
 18 19  2  0  0  0  0
 19 20  1  0  0  0  0
 21 19  1  0  0  0  0
 21 22  1  0  0  0  0
 23 21  1  0  0  0  0
 24 21  1  0  0  0  0
M  RAD  2   3   2  20   2
M  END
