Coordinates from ORCA-job 4-MeOPhN2+~CF3COO-_B3LYPG-6-31G_dp-NX-Scan-d89-09-n800
 OpenBabel11261920413D

 24 23  0  0  0  0  0  0  0  0999 V2000
   -2.3042    1.8194   -1.3445 C   0  0  0  0  0  0  0  0  0  0  0  0
   -2.7964    2.6954   -2.2364 N   0  0  0  0  0  0  0  0  0  0  0  0
   -3.2306    3.4312   -2.9717 N   0  0  0  0  0  0  0  0  0  0  0  0
   -0.9548    1.3791   -1.4780 C   0  0  0  0  0  0  0  0  0  0  0  0
   -0.4907    0.4448   -0.5929 C   0  0  0  0  0  0  0  0  0  0  0  0
   -1.3491   -0.0790    0.4220 C   0  0  0  0  0  0  0  0  0  0  0  0
   -0.8258   -1.0214    1.1760 O   0  0  0  0  0  0  0  0  0  0  0  0
   -1.6616   -1.6915    2.1662 C   0  0  0  0  0  0  0  0  0  0  0  0
   -2.6707    0.4089    0.5719 C   0  0  0  0  0  0  0  0  0  0  0  0
   -3.1576    1.3345   -0.3143 C   0  0  0  0  0  0  0  0  0  0  0  0
   -0.3273    1.7729   -2.2698 H   0  0  0  0  0  0  0  0  0  0  0  0
    0.5211    0.0619   -0.6606 H   0  0  0  0  0  0  0  0  0  0  0  0
   -1.0520   -2.5212    2.5199 H   0  0  0  0  0  0  0  0  0  0  0  0
   -2.5954   -2.0295    1.6936 H   0  0  0  0  0  0  0  0  0  0  0  0
   -1.8693   -0.9996    2.9875 H   0  0  0  0  0  0  0  0  0  0  0  0
   -3.3934    0.0254    1.2996 H   0  0  0  0  0  0  0  0  0  0  0  0
   -4.1935    1.6473   -0.2354 H   0  0  0  0  0  0  0  0  0  0  0  0
   -4.2917   -2.1800    0.5461 O   0  0  0  0  0  0  0  0  0  0  0  0
   -5.2286   -1.3662    0.7034 C   0  0  0  0  0  0  0  0  0  0  0  0
   -5.2759   -0.3058    1.3753 O   0  0  0  0  0  0  0  0  0  0  0  0
   -6.5132   -1.6440   -0.1334 C   0  0  0  0  0  0  0  0  0  0  0  0
   -7.6450   -1.3808    0.5524 F   0  0  0  0  0  0  0  0  0  0  0  0
   -6.5178   -0.8318   -1.2316 F   0  0  0  0  0  0  0  0  0  0  0  0
   -6.6003   -2.9101   -0.5833 F   0  0  0  0  0  0  0  0  0  0  0  0
  1 10  1  0  0  0  0
  2  1  1  0  0  0  0
  3  2  1  0  0  0  0
  4  1  2  0  0  0  0
  4  5  1  0  0  0  0
  5  6  2  0  0  0  0
  6  9  1  0  0  0  0
  6  7  1  0  0  0  0
  7  8  1  0  0  0  0
  8 13  1  0  0  0  0
  8 15  1  0  0  0  0
  9 16  1  0  0  0  0
 10 17  1  0  0  0  0
 10  9  2  0  0  0  0
 11  4  1  0  0  0  0
 12  5  1  0  0  0  0
 14  8  1  0  0  0  0
 18 19  2  0  0  0  0
 19 20  1  0  0  0  0
 21 22  1  0  0  0  0
 21 19  1  0  0  0  0
 23 21  1  0  0  0  0
 24 21  1  0  0  0  0
M  RAD  3   2   2   3   3  20   2
M  END
