Coordinates from ORCA-job 4-MeOPhN2+~CF3COO-_B3LYPG-6-31G_dp-NX-Scan-d89-09-n800
 OpenBabel11261920413D

 24 23  0  0  0  0  0  0  0  0999 V2000
   -2.5514    1.6487   -1.3053 C   0  0  0  0  0  0  0  0  0  0  0  0
   -3.1443    2.4570   -2.2013 N   0  0  0  0  0  0  0  0  0  0  0  0
   -3.6538    3.1368   -2.9411 N   0  0  0  0  0  0  0  0  0  0  0  0
   -1.2192    1.2043   -1.5513 C   0  0  0  0  0  0  0  0  0  0  0  0
   -0.6575    0.3271   -0.6641 C   0  0  0  0  0  0  0  0  0  0  0  0
   -1.4028   -0.1340    0.4634 C   0  0  0  0  0  0  0  0  0  0  0  0
   -0.8099   -1.0469    1.2049 O   0  0  0  0  0  0  0  0  0  0  0  0
   -1.5589   -1.6864    2.2793 C   0  0  0  0  0  0  0  0  0  0  0  0
   -2.6965    0.3736    0.7267 C   0  0  0  0  0  0  0  0  0  0  0  0
   -3.2875    1.2364   -0.1614 C   0  0  0  0  0  0  0  0  0  0  0  0
   -0.6828    1.5458   -2.4295 H   0  0  0  0  0  0  0  0  0  0  0  0
    0.3421   -0.0629   -0.8170 H   0  0  0  0  0  0  0  0  0  0  0  0
   -0.9160   -2.4991    2.6136 H   0  0  0  0  0  0  0  0  0  0  0  0
   -2.5207   -2.0498    1.8907 H   0  0  0  0  0  0  0  0  0  0  0  0
   -1.7107   -0.9700    3.0920 H   0  0  0  0  0  0  0  0  0  0  0  0
   -3.3221    0.0292    1.5490 H   0  0  0  0  0  0  0  0  0  0  0  0
   -4.3194    1.5303   -0.0064 H   0  0  0  0  0  0  0  0  0  0  0  0
   -4.2651   -2.1912    0.7264 O   0  0  0  0  0  0  0  0  0  0  0  0
   -5.1514   -1.3110    0.7745 C   0  0  0  0  0  0  0  0  0  0  0  0
   -5.2964   -0.3389    1.5542 O   0  0  0  0  0  0  0  0  0  0  0  0
   -6.1680   -1.3143   -0.4079 C   0  0  0  0  0  0  0  0  0  0  0  0
   -7.4292   -1.0361   -0.0250 F   0  0  0  0  0  0  0  0  0  0  0  0
   -5.8026   -0.3265   -1.2948 F   0  0  0  0  0  0  0  0  0  0  0  0
   -6.1997   -2.4621   -1.1078 F   0  0  0  0  0  0  0  0  0  0  0  0
  1 10  1  0  0  0  0
  2  1  1  0  0  0  0
  3  2  1  0  0  0  0
  4  1  2  0  0  0  0
  4  5  1  0  0  0  0
  5  6  2  0  0  0  0
  6  9  1  0  0  0  0
  6  7  1  0  0  0  0
  7  8  1  0  0  0  0
  8 13  1  0  0  0  0
  8 15  1  0  0  0  0
  9 16  1  0  0  0  0
 10 17  1  0  0  0  0
 10  9  2  0  0  0  0
 11  4  1  0  0  0  0
 12  5  1  0  0  0  0
 14  8  1  0  0  0  0
 18 19  2  0  0  0  0
 19 20  1  0  0  0  0
 21 22  1  0  0  0  0
 21 19  1  0  0  0  0
 23 21  1  0  0  0  0
 24 21  1  0  0  0  0
M  RAD  3   2   2   3   3  20   2
M  END
