Coordinates from ORCA-job 4-MeOPhN2+~CF3COO-_B3LYPG-6-31G_dp-NX-Scan-d89-09-n800
 OpenBabel11261920413D

 24 23  0  0  0  0  0  0  0  0999 V2000
   -2.6260    0.3122   -1.0377 C   0  0  0  0  0  0  0  0  0  0  0  0
   -3.4515    0.4962   -2.1638 N   0  0  0  0  0  0  0  0  0  0  0  0
   -3.5505    0.7110   -3.2664 N   0  0  0  0  0  0  0  0  0  0  0  0
   -1.4159    1.0299   -1.0180 C   0  0  0  0  0  0  0  0  0  0  0  0
   -0.5651    0.8518    0.0548 C   0  0  0  0  0  0  0  0  0  0  0  0
   -0.9046   -0.0453    1.0898 C   0  0  0  0  0  0  0  0  0  0  0  0
   -0.0022   -0.1421    2.0850 O   0  0  0  0  0  0  0  0  0  0  0  0
   -0.2655   -1.0219    3.1781 C   0  0  0  0  0  0  0  0  0  0  0  0
   -2.1119   -0.7650    1.0336 C   0  0  0  0  0  0  0  0  0  0  0  0
   -2.9876   -0.5783   -0.0283 C   0  0  0  0  0  0  0  0  0  0  0  0
   -1.1688    1.7143   -1.8222 H   0  0  0  0  0  0  0  0  0  0  0  0
    0.3721    1.3920    0.1222 H   0  0  0  0  0  0  0  0  0  0  0  0
    0.5890   -0.9229    3.8478 H   0  0  0  0  0  0  0  0  0  0  0  0
   -0.3469   -2.0611    2.8404 H   0  0  0  0  0  0  0  0  0  0  0  0
   -1.1806   -0.7337    3.7077 H   0  0  0  0  0  0  0  0  0  0  0  0
   -2.3793   -1.4676    1.8128 H   0  0  0  0  0  0  0  0  0  0  0  0
   -3.9177   -1.1326   -0.1324 H   0  0  0  0  0  0  0  0  0  0  0  0
   -5.5535   -1.5107   -1.3301 O   0  0  0  0  0  0  0  0  0  0  0  0
   -5.9965   -0.3595   -1.2430 C   0  0  0  0  0  0  0  0  0  0  0  0
   -5.3618    0.7438   -1.2249 O   0  0  0  0  0  0  0  0  0  0  0  0
   -7.5388   -0.1653   -1.1523 C   0  0  0  0  0  0  0  0  0  0  0  0
   -7.8703    0.6489   -0.1282 F   0  0  0  0  0  0  0  0  0  0  0  0
   -8.0067    0.3951   -2.2894 F   0  0  0  0  0  0  0  0  0  0  0  0
   -8.1832   -1.3292   -0.9738 F   0  0  0  0  0  0  0  0  0  0  0  0
  1  4  2  0  0  0  0
  1 10  1  0  0  0  0
  2  1  1  0  0  0  0
  3  2  2  0  0  0  0
  4  5  1  0  0  0  0
  5 12  1  0  0  0  0
  5  6  2  0  0  0  0
  6  7  1  0  0  0  0
  7  8  1  0  0  0  0
  8 15  1  0  0  0  0
  8 13  1  0  0  0  0
  9  6  1  0  0  0  0
  9 16  1  0  0  0  0
 10  9  2  0  0  0  0
 11  4  1  0  0  0  0
 14  8  1  0  0  0  0
 17 10  1  0  0  0  0
 18 19  2  0  0  0  0
 19 20  1  0  0  0  0
 19 21  1  0  0  0  0
 21 24  1  0  0  0  0
 21 22  1  0  0  0  0
 23 21  1  0  0  0  0
M  RAD  2   3   2  20   2
M  END
