Coordinates from ORCA-job 4-MeOPhN2+~CF3COO-_B3LYPG-6-31G_dp-NX-Scan-d89-09-n800
 OpenBabel11261920413D

 24 23  0  0  0  0  0  0  0  0999 V2000
   -2.3831    0.3496   -1.1490 C   0  0  0  0  0  0  0  0  0  0  0  0
   -3.1819    0.6091   -2.2376 N   0  0  0  0  0  0  0  0  0  0  0  0
   -3.9314    0.7824   -3.0535 N   0  0  0  0  0  0  0  0  0  0  0  0
   -0.9957    0.5845   -1.2833 C   0  0  0  0  0  0  0  0  0  0  0  0
   -0.1776    0.3320   -0.2063 C   0  0  0  0  0  0  0  0  0  0  0  0
   -0.7283   -0.1530    1.0043 C   0  0  0  0  0  0  0  0  0  0  0  0
    0.1587   -0.3637    1.9881 O   0  0  0  0  0  0  0  0  0  0  0  0
   -0.3015   -0.8485    3.2546 C   0  0  0  0  0  0  0  0  0  0  0  0
   -2.1129   -0.3805    1.1153 C   0  0  0  0  0  0  0  0  0  0  0  0
   -2.9575   -0.1328    0.0438 C   0  0  0  0  0  0  0  0  0  0  0  0
   -0.5919    0.9568   -2.2185 H   0  0  0  0  0  0  0  0  0  0  0  0
    0.8923    0.4980   -0.2589 H   0  0  0  0  0  0  0  0  0  0  0  0
    0.5894   -0.9304    3.8763 H   0  0  0  0  0  0  0  0  0  0  0  0
   -0.7706   -1.8324    3.1522 H   0  0  0  0  0  0  0  0  0  0  0  0
   -1.0067   -0.1459    3.7113 H   0  0  0  0  0  0  0  0  0  0  0  0
   -2.5476   -0.7526    2.0344 H   0  0  0  0  0  0  0  0  0  0  0  0
   -4.0359   -0.3017    0.1083 H   0  0  0  0  0  0  0  0  0  0  0  0
   -5.4292    0.0869   -1.5524 O   0  0  0  0  0  0  0  0  0  0  0  0
   -6.3302   -0.3191   -0.7570 C   0  0  0  0  0  0  0  0  0  0  0  0
   -6.1739   -0.7019    0.4112 O   0  0  0  0  0  0  0  0  0  0  0  0
   -7.7635   -0.3224   -1.3516 C   0  0  0  0  0  0  0  0  0  0  0  0
   -8.6912   -0.7509   -0.4785 F   0  0  0  0  0  0  0  0  0  0  0  0
   -8.1240    0.9210   -1.7502 F   0  0  0  0  0  0  0  0  0  0  0  0
   -7.8295   -1.1248   -2.4414 F   0  0  0  0  0  0  0  0  0  0  0  0
  1 10  1  0  0  0  0
  2  1  1  0  0  0  0
  3  2  1  0  0  0  0
  4  1  2  0  0  0  0
  4  5  1  0  0  0  0
  5  6  2  0  0  0  0
  6  9  1  0  0  0  0
  6  7  1  0  0  0  0
  7  8  1  0  0  0  0
  8 15  1  0  0  0  0
  8 13  1  0  0  0  0
  9 16  1  0  0  0  0
 10 17  1  0  0  0  0
 10  9  2  0  0  0  0
 11  4  1  0  0  0  0
 12  5  1  0  0  0  0
 14  8  1  0  0  0  0
 18 19  2  0  0  0  0
 19 20  1  0  0  0  0
 21 19  1  0  0  0  0
 21 22  1  0  0  0  0
 23 21  1  0  0  0  0
 24 21  1  0  0  0  0
M  RAD  3   2   2   3   3  20   2
M  END
