Coordinates from ORCA-job 4-MeOPhN2+~CF3COO-_B3LYPG-6-31G_dp-NX-Scan-d89-09-n800
 OpenBabel11261920413D

 24 23  0  0  0  0  0  0  0  0999 V2000
   -2.6809    0.1808   -1.0530 C   0  0  0  0  0  0  0  0  0  0  0  0
   -3.5241    0.3565   -2.1704 N   0  0  0  0  0  0  0  0  0  0  0  0
   -3.6441    0.7582   -3.2176 N   0  0  0  0  0  0  0  0  0  0  0  0
   -1.4617    0.8820   -1.0679 C   0  0  0  0  0  0  0  0  0  0  0  0
   -0.5940    0.7275   -0.0053 C   0  0  0  0  0  0  0  0  0  0  0  0
   -0.9288   -0.1247    1.0678 C   0  0  0  0  0  0  0  0  0  0  0  0
   -0.0110   -0.2008    2.0519 O   0  0  0  0  0  0  0  0  0  0  0  0
   -0.2750   -1.0296    3.1828 C   0  0  0  0  0  0  0  0  0  0  0  0
   -2.1485   -0.8226    1.0580 C   0  0  0  0  0  0  0  0  0  0  0  0
   -3.0312   -0.6660   -0.0044 C   0  0  0  0  0  0  0  0  0  0  0  0
   -1.2200    1.5352   -1.8989 H   0  0  0  0  0  0  0  0  0  0  0  0
    0.3526    1.2545    0.0269 H   0  0  0  0  0  0  0  0  0  0  0  0
    0.5921   -0.9234    3.8352 H   0  0  0  0  0  0  0  0  0  0  0  0
   -0.3843   -2.0799    2.8892 H   0  0  0  0  0  0  0  0  0  0  0  0
   -1.1749   -0.7005    3.7149 H   0  0  0  0  0  0  0  0  0  0  0  0
   -2.4217   -1.4818    1.8722 H   0  0  0  0  0  0  0  0  0  0  0  0
   -3.9750   -1.1913   -0.0462 H   0  0  0  0  0  0  0  0  0  0  0  0
   -5.1804   -0.5413   -1.8165 O   0  0  0  0  0  0  0  0  0  0  0  0
   -5.9578    0.2611   -1.1662 C   0  0  0  0  0  0  0  0  0  0  0  0
   -5.6623    1.2805   -0.5569 O   0  0  0  0  0  0  0  0  0  0  0  0
   -7.4327   -0.2290   -1.1855 C   0  0  0  0  0  0  0  0  0  0  0  0
   -8.2700    0.7024   -0.7085 F   0  0  0  0  0  0  0  0  0  0  0  0
   -7.8351   -0.5553   -2.4288 F   0  0  0  0  0  0  0  0  0  0  0  0
   -7.5550   -1.3328   -0.4108 F   0  0  0  0  0  0  0  0  0  0  0  0
  1 10  1  0  0  0  0
  2  1  1  0  0  0  0
  3  2  2  0  0  0  0
  4  1  2  0  0  0  0
  4  5  1  0  0  0  0
  5 12  1  0  0  0  0
  5  6  2  0  0  0  0
  6  7  1  0  0  0  0
  7  8  1  0  0  0  0
  8 15  1  0  0  0  0
  8 13  1  0  0  0  0
  9  6  1  0  0  0  0
  9 16  1  0  0  0  0
 10  9  2  0  0  0  0
 11  4  1  0  0  0  0
 14  8  1  0  0  0  0
 17 10  1  0  0  0  0
 18 19  2  0  0  0  0
 19 20  1  0  0  0  0
 21 19  1  0  0  0  0
 21 22  1  0  0  0  0
 21 24  1  0  0  0  0
 23 21  1  0  0  0  0
M  RAD  2   3   2  20   2
M  END
