Coordinates from ORCA-job 4-MeOPhN2+~CF3COO-_B3LYPG-6-31G_dp-NX-Scan-d89-09-n800
 OpenBabel11261920413D

 24 23  0  0  0  0  0  0  0  0999 V2000
   -2.8895    1.8013   -0.9173 C   0  0  0  0  0  0  0  0  0  0  0  0
   -3.6235    2.6931   -1.5947 N   0  0  0  0  0  0  0  0  0  0  0  0
   -4.2538    3.4443   -2.1497 N   0  0  0  0  0  0  0  0  0  0  0  0
   -1.9442    1.0013   -1.6225 C   0  0  0  0  0  0  0  0  0  0  0  0
   -1.3181   -0.0041   -0.9424 C   0  0  0  0  0  0  0  0  0  0  0  0
   -1.6381   -0.2527    0.4269 C   0  0  0  0  0  0  0  0  0  0  0  0
   -1.0596   -1.3297    0.9509 O   0  0  0  0  0  0  0  0  0  0  0  0
   -1.5552   -1.8395    2.2094 C   0  0  0  0  0  0  0  0  0  0  0  0
   -2.5025    0.5986    1.1326 C   0  0  0  0  0  0  0  0  0  0  0  0
   -3.1938    1.5881    0.4564 C   0  0  0  0  0  0  0  0  0  0  0  0
   -1.7572    1.1799   -2.6752 H   0  0  0  0  0  0  0  0  0  0  0  0
   -0.6161   -0.6673   -1.4340 H   0  0  0  0  0  0  0  0  0  0  0  0
   -1.0736   -2.8085    2.3310 H   0  0  0  0  0  0  0  0  0  0  0  0
   -2.6437   -1.9398    2.1589 H   0  0  0  0  0  0  0  0  0  0  0  0
   -1.2600   -1.1786    3.0311 H   0  0  0  0  0  0  0  0  0  0  0  0
   -2.7635    0.3985    2.1600 H   0  0  0  0  0  0  0  0  0  0  0  0
   -3.8936    2.2322    0.9660 H   0  0  0  0  0  0  0  0  0  0  0  0
   -4.6740   -1.1093    1.4280 O   0  0  0  0  0  0  0  0  0  0  0  0
   -5.1146   -0.6463    0.3592 C   0  0  0  0  0  0  0  0  0  0  0  0
   -5.3216    0.5512    0.0211 O   0  0  0  0  0  0  0  0  0  0  0  0
   -5.3120   -1.6722   -0.7949 C   0  0  0  0  0  0  0  0  0  0  0  0
   -6.3051   -1.3384   -1.6429 F   0  0  0  0  0  0  0  0  0  0  0  0
   -4.1602   -1.7189   -1.5342 F   0  0  0  0  0  0  0  0  0  0  0  0
   -5.5502   -2.9234   -0.3618 F   0  0  0  0  0  0  0  0  0  0  0  0
  1 10  2  0  0  0  0
  2  1  1  0  0  0  0
  3  2  1  0  0  0  0
  4  5  2  0  0  0  0
  4  1  1  0  0  0  0
  5  6  1  0  0  0  0
  6  7  1  0  0  0  0
  6  9  2  0  0  0  0
  7  8  1  0  0  0  0
  8 13  1  0  0  0  0
  8 15  1  0  0  0  0
  9 16  1  0  0  0  0
 10 17  1  0  0  0  0
 10  9  1  0  0  0  0
 11  4  1  0  0  0  0
 12  5  1  0  0  0  0
 14  8  1  0  0  0  0
 19 18  1  0  0  0  0
 20 19  2  0  0  0  0
 21 24  1  0  0  0  0
 21 19  1  0  0  0  0
 22 21  1  0  0  0  0
 23 21  1  0  0  0  0
M  RAD  3   2   2   3   3  18   2
M  END
