Coordinates from ORCA-job 4-MeOPhN2+~CF3COO-_B3LYPG-6-31G_dp-NX-Scan-d89-09-n800
 OpenBabel11261920413D

 24 23  0  0  0  0  0  0  0  0999 V2000
   -2.1509    1.9152   -1.3809 C   0  0  0  0  0  0  0  0  0  0  0  0
   -2.5794    2.8184   -2.2778 N   0  0  0  0  0  0  0  0  0  0  0  0
   -2.9678    3.5752   -3.0177 N   0  0  0  0  0  0  0  0  0  0  0  0
   -0.7880    1.4981   -1.4098 C   0  0  0  0  0  0  0  0  0  0  0  0
   -0.3887    0.5391   -0.5197 C   0  0  0  0  0  0  0  0  0  0  0  0
   -1.3244   -0.0333    0.3960 C   0  0  0  0  0  0  0  0  0  0  0  0
   -0.8506   -0.9892    1.1645 O   0  0  0  0  0  0  0  0  0  0  0  0
   -1.7580   -1.7015    2.0589 C   0  0  0  0  0  0  0  0  0  0  0  0
   -2.6656    0.4251    0.4420 C   0  0  0  0  0  0  0  0  0  0  0  0
   -3.0833    1.3799   -0.4479 C   0  0  0  0  0  0  0  0  0  0  0  0
   -0.0993    1.9299   -2.1274 H   0  0  0  0  0  0  0  0  0  0  0  0
    0.6323    0.1751   -0.5080 H   0  0  0  0  0  0  0  0  0  0  0  0
   -1.1640   -2.5256    2.4500 H   0  0  0  0  0  0  0  0  0  0  0  0
   -2.6380   -2.0465    1.4957 H   0  0  0  0  0  0  0  0  0  0  0  0
   -2.0592   -1.0333    2.8706 H   0  0  0  0  0  0  0  0  0  0  0  0
   -3.4487    0.0145    1.0972 H   0  0  0  0  0  0  0  0  0  0  0  0
   -4.1226    1.6921   -0.4422 H   0  0  0  0  0  0  0  0  0  0  0  0
   -4.3553   -2.2349    0.4309 O   0  0  0  0  0  0  0  0  0  0  0  0
   -5.2850   -1.4338    0.6693 C   0  0  0  0  0  0  0  0  0  0  0  0
   -5.2649   -0.3264    1.2645 O   0  0  0  0  0  0  0  0  0  0  0  0
   -6.6794   -1.8174    0.0892 C   0  0  0  0  0  0  0  0  0  0  0  0
   -7.6817   -1.5587    0.9559 F   0  0  0  0  0  0  0  0  0  0  0  0
   -6.9272   -1.0866   -1.0338 F   0  0  0  0  0  0  0  0  0  0  0  0
   -6.7740   -3.1153   -0.2577 F   0  0  0  0  0  0  0  0  0  0  0  0
  1 10  1  0  0  0  0
  2  1  1  0  0  0  0
  3  2  1  0  0  0  0
  4  1  2  0  0  0  0
  4  5  1  0  0  0  0
  5 12  1  0  0  0  0
  5  6  2  0  0  0  0
  6  9  1  0  0  0  0
  6  7  1  0  0  0  0
  7  8  1  0  0  0  0
  8 13  1  0  0  0  0
  8 15  1  0  0  0  0
  9 16  1  0  0  0  0
 10 17  1  0  0  0  0
 10  9  2  0  0  0  0
 11  4  1  0  0  0  0
 14  8  1  0  0  0  0
 18 19  2  0  0  0  0
 19 20  1  0  0  0  0
 21 19  1  0  0  0  0
 21 22  1  0  0  0  0
 23 21  1  0  0  0  0
 24 21  1  0  0  0  0
M  RAD  3   2   2   3   3  20   2
M  END
