Coordinates from ORCA-job 4-MeOPhN2+~CF3COO-_B3LYPG-6-31G_dp-NX-Scan-d89-09-n800
 OpenBabel11261920413D

 24 23  0  0  0  0  0  0  0  0999 V2000
   -2.6377    0.2917   -1.0345 C   0  0  0  0  0  0  0  0  0  0  0  0
   -3.4701    0.4681   -2.1565 N   0  0  0  0  0  0  0  0  0  0  0  0
   -3.5800    0.6550   -3.2626 N   0  0  0  0  0  0  0  0  0  0  0  0
   -1.4276    1.0081   -1.0250 C   0  0  0  0  0  0  0  0  0  0  0  0
   -0.5725    0.8379    0.0463 C   0  0  0  0  0  0  0  0  0  0  0  0
   -0.9093   -0.0487    1.0905 C   0  0  0  0  0  0  0  0  0  0  0  0
   -0.0035   -0.1380    2.0835 O   0  0  0  0  0  0  0  0  0  0  0  0
   -0.2654   -1.0057    3.1863 C   0  0  0  0  0  0  0  0  0  0  0  0
   -2.1182   -0.7669    1.0455 C   0  0  0  0  0  0  0  0  0  0  0  0
   -2.9968   -0.5884   -0.0152 C   0  0  0  0  0  0  0  0  0  0  0  0
   -1.1827    1.6854   -1.8358 H   0  0  0  0  0  0  0  0  0  0  0  0
    0.3659    1.3770    0.1049 H   0  0  0  0  0  0  0  0  0  0  0  0
    0.5917   -0.9022    3.8522 H   0  0  0  0  0  0  0  0  0  0  0  0
   -0.3507   -2.0483    2.8599 H   0  0  0  0  0  0  0  0  0  0  0  0
   -1.1778   -0.7096    3.7162 H   0  0  0  0  0  0  0  0  0  0  0  0
   -2.3841   -1.4615    1.8323 H   0  0  0  0  0  0  0  0  0  0  0  0
   -3.9266   -1.1412   -0.1105 H   0  0  0  0  0  0  0  0  0  0  0  0
   -5.5117   -1.4441   -1.4815 O   0  0  0  0  0  0  0  0  0  0  0  0
   -5.9779   -0.3153   -1.2807 C   0  0  0  0  0  0  0  0  0  0  0  0
   -5.3589    0.7908   -1.1769 O   0  0  0  0  0  0  0  0  0  0  0  0
   -7.5210   -0.1641   -1.1462 C   0  0  0  0  0  0  0  0  0  0  0  0
   -7.8490    0.5606   -0.0555 F   0  0  0  0  0  0  0  0  0  0  0  0
   -8.0228    0.4722   -2.2275 F   0  0  0  0  0  0  0  0  0  0  0  0
   -8.1371   -1.3526   -1.0475 F   0  0  0  0  0  0  0  0  0  0  0  0
  1  4  2  0  0  0  0
  1 10  1  0  0  0  0
  2  1  1  0  0  0  0
  3  2  2  0  0  0  0
  4  5  1  0  0  0  0
  5 12  1  0  0  0  0
  5  6  2  0  0  0  0
  6  7  1  0  0  0  0
  7  8  1  0  0  0  0
  8 15  1  0  0  0  0
  8 13  1  0  0  0  0
  9  6  1  0  0  0  0
  9 16  1  0  0  0  0
 10  9  2  0  0  0  0
 11  4  1  0  0  0  0
 14  8  1  0  0  0  0
 17 10  1  0  0  0  0
 18 19  2  0  0  0  0
 19 20  1  0  0  0  0
 19 21  1  0  0  0  0
 21 24  1  0  0  0  0
 21 22  1  0  0  0  0
 23 21  1  0  0  0  0
M  RAD  2   3   2  20   2
M  END
