Coordinates from ORCA-job 4-MeOPhN2+~CF3COO-_B3LYPG-6-31G_dp-NX-Scan-d89-09-n800
 OpenBabel11261920413D

 24 23  0  0  0  0  0  0  0  0999 V2000
   -2.6253    0.3131   -1.0379 C   0  0  0  0  0  0  0  0  0  0  0  0
   -3.4505    0.4976   -2.1642 N   0  0  0  0  0  0  0  0  0  0  0  0
   -3.5492    0.7140   -3.2665 N   0  0  0  0  0  0  0  0  0  0  0  0
   -1.4152    1.0308   -1.0178 C   0  0  0  0  0  0  0  0  0  0  0  0
   -0.5645    0.8523    0.0551 C   0  0  0  0  0  0  0  0  0  0  0  0
   -0.9042   -0.0453    1.0897 C   0  0  0  0  0  0  0  0  0  0  0  0
   -0.0021   -0.1424    2.0849 O   0  0  0  0  0  0  0  0  0  0  0  0
   -0.2656   -1.0225    3.1777 C   0  0  0  0  0  0  0  0  0  0  0  0
   -2.1116   -0.7648    1.0331 C   0  0  0  0  0  0  0  0  0  0  0  0
   -2.9871   -0.5777   -0.0290 C   0  0  0  0  0  0  0  0  0  0  0  0
   -1.1679    1.7155   -1.8217 H   0  0  0  0  0  0  0  0  0  0  0  0
    0.3727    1.3924    0.1229 H   0  0  0  0  0  0  0  0  0  0  0  0
    0.5889   -0.9238    3.8476 H   0  0  0  0  0  0  0  0  0  0  0  0
   -0.3469   -2.0616    2.8397 H   0  0  0  0  0  0  0  0  0  0  0  0
   -1.1807   -0.7345    3.7073 H   0  0  0  0  0  0  0  0  0  0  0  0
   -2.3791   -1.4677    1.8119 H   0  0  0  0  0  0  0  0  0  0  0  0
   -3.9174   -1.1319   -0.1333 H   0  0  0  0  0  0  0  0  0  0  0  0
   -5.5555   -1.5136   -1.3219 O   0  0  0  0  0  0  0  0  0  0  0  0
   -5.9975   -0.3615   -1.2409 C   0  0  0  0  0  0  0  0  0  0  0  0
   -5.3621    0.7414   -1.2272 O   0  0  0  0  0  0  0  0  0  0  0  0
   -7.5398   -0.1655   -1.1527 C   0  0  0  0  0  0  0  0  0  0  0  0
   -7.8716    0.6517   -0.1312 F   0  0  0  0  0  0  0  0  0  0  0  0
   -8.0058    0.3924   -2.2919 F   0  0  0  0  0  0  0  0  0  0  0  0
   -8.1856   -1.3283   -0.9719 F   0  0  0  0  0  0  0  0  0  0  0  0
  1  4  2  0  0  0  0
  1 10  1  0  0  0  0
  2  1  1  0  0  0  0
  3  2  2  0  0  0  0
  4  5  1  0  0  0  0
  5 12  1  0  0  0  0
  5  6  2  0  0  0  0
  6  7  1  0  0  0  0
  7  8  1  0  0  0  0
  8 15  1  0  0  0  0
  8 13  1  0  0  0  0
  9  6  1  0  0  0  0
  9 16  1  0  0  0  0
 10  9  2  0  0  0  0
 11  4  1  0  0  0  0
 14  8  1  0  0  0  0
 17 10  1  0  0  0  0
 18 19  2  0  0  0  0
 19 20  1  0  0  0  0
 19 21  1  0  0  0  0
 21 24  1  0  0  0  0
 21 22  1  0  0  0  0
 23 21  1  0  0  0  0
M  RAD  2   3   2  20   2
M  END
