Coordinates from ORCA-job 4-MeOPhN2+~CF3COO-_B3LYPG-6-31G_dp-NX-Scan-d89-09-n800
 OpenBabel11261920413D

 24 23  0  0  0  0  0  0  0  0999 V2000
   -2.9534    1.4968   -0.8614 C   0  0  0  0  0  0  0  0  0  0  0  0
   -3.9279    2.0807   -1.5803 N   0  0  0  0  0  0  0  0  0  0  0  0
   -4.7805    2.5249   -2.1566 N   0  0  0  0  0  0  0  0  0  0  0  0
   -2.0115    0.6711   -1.5311 C   0  0  0  0  0  0  0  0  0  0  0  0
   -1.2425   -0.1745   -0.7776 C   0  0  0  0  0  0  0  0  0  0  0  0
   -1.4635   -0.2658    0.6242 C   0  0  0  0  0  0  0  0  0  0  0  0
   -0.8222   -1.2567    1.2396 O   0  0  0  0  0  0  0  0  0  0  0  0
   -1.3194   -1.6902    2.5231 C   0  0  0  0  0  0  0  0  0  0  0  0
   -2.3142    0.6399    1.2833 C   0  0  0  0  0  0  0  0  0  0  0  0
   -3.0956    1.5084    0.5513 C   0  0  0  0  0  0  0  0  0  0  0  0
   -1.9516    0.6817   -2.6134 H   0  0  0  0  0  0  0  0  0  0  0  0
   -0.5391   -0.8593   -1.2362 H   0  0  0  0  0  0  0  0  0  0  0  0
   -0.8361   -2.6484    2.7084 H   0  0  0  0  0  0  0  0  0  0  0  0
   -2.4054   -1.8071    2.4676 H   0  0  0  0  0  0  0  0  0  0  0  0
   -1.0359   -0.9816    3.3084 H   0  0  0  0  0  0  0  0  0  0  0  0
   -2.4502    0.5914    2.3547 H   0  0  0  0  0  0  0  0  0  0  0  0
   -3.8053    2.1686    1.0244 H   0  0  0  0  0  0  0  0  0  0  0  0
   -4.3394   -1.4250    0.7520 O   0  0  0  0  0  0  0  0  0  0  0  0
   -5.0582   -0.6506    0.1015 C   0  0  0  0  0  0  0  0  0  0  0  0
   -5.3904    0.5465    0.3214 O   0  0  0  0  0  0  0  0  0  0  0  0
   -5.5646   -1.1712   -1.2822 C   0  0  0  0  0  0  0  0  0  0  0  0
   -6.8718   -0.9192   -1.4915 F   0  0  0  0  0  0  0  0  0  0  0  0
   -4.8803   -0.5166   -2.2868 F   0  0  0  0  0  0  0  0  0  0  0  0
   -5.3645   -2.4840   -1.4808 F   0  0  0  0  0  0  0  0  0  0  0  0
  1 10  1  0  0  0  0
  2  1  1  0  0  0  0
  3  2  1  0  0  0  0
  4  1  2  0  0  0  0
  4  5  1  0  0  0  0
  5  6  2  0  0  0  0
  6  7  1  0  0  0  0
  6  9  1  0  0  0  0
  7  8  1  0  0  0  0
  8 13  1  0  0  0  0
  8 15  1  0  0  0  0
  9 16  1  0  0  0  0
 10 17  1  0  0  0  0
 10  9  2  0  0  0  0
 11  4  1  0  0  0  0
 12  5  1  0  0  0  0
 14  8  1  0  0  0  0
 19 20  2  0  0  0  0
 19 18  1  0  0  0  0
 21 19  1  0  0  0  0
 22 21  1  0  0  0  0
 23 21  1  0  0  0  0
 24 21  1  0  0  0  0
M  RAD  3   2   2   3   3  18   2
M  END
