Coordinates from ORCA-job 4-MeOPhN2+~CF3COO-_B3LYPG-6-31G_dp-NX-Scan-d89-09-n800
 OpenBabel11261920413D

 24 23  0  0  0  0  0  0  0  0999 V2000
   -2.9559    1.4805   -0.8521 C   0  0  0  0  0  0  0  0  0  0  0  0
   -3.9355    2.0566   -1.5723 N   0  0  0  0  0  0  0  0  0  0  0  0
   -4.7901    2.4921   -2.1511 N   0  0  0  0  0  0  0  0  0  0  0  0
   -2.0091    0.6610   -1.5215 C   0  0  0  0  0  0  0  0  0  0  0  0
   -1.2315   -0.1763   -0.7670 C   0  0  0  0  0  0  0  0  0  0  0  0
   -1.4489   -0.2651    0.6349 C   0  0  0  0  0  0  0  0  0  0  0  0
   -0.7974   -1.2486    1.2524 O   0  0  0  0  0  0  0  0  0  0  0  0
   -1.2866   -1.6815    2.5385 C   0  0  0  0  0  0  0  0  0  0  0  0
   -2.3075    0.6343    1.2929 C   0  0  0  0  0  0  0  0  0  0  0  0
   -3.0953    1.4960    0.5601 C   0  0  0  0  0  0  0  0  0  0  0  0
   -1.9518    0.6686   -2.6040 H   0  0  0  0  0  0  0  0  0  0  0  0
   -0.5236   -0.8567   -1.2251 H   0  0  0  0  0  0  0  0  0  0  0  0
   -0.7925   -2.6334    2.7275 H   0  0  0  0  0  0  0  0  0  0  0  0
   -2.3713   -1.8115    2.4874 H   0  0  0  0  0  0  0  0  0  0  0  0
   -1.0103   -0.9663    3.3204 H   0  0  0  0  0  0  0  0  0  0  0  0
   -2.4412    0.5877    2.3647 H   0  0  0  0  0  0  0  0  0  0  0  0
   -3.8137    2.1479    1.0317 H   0  0  0  0  0  0  0  0  0  0  0  0
   -4.3499   -1.4183    0.7095 O   0  0  0  0  0  0  0  0  0  0  0  0
   -5.0794   -0.6418    0.0745 C   0  0  0  0  0  0  0  0  0  0  0  0
   -5.4120    0.5530    0.3058 O   0  0  0  0  0  0  0  0  0  0  0  0
   -5.5979   -1.1549   -1.3078 C   0  0  0  0  0  0  0  0  0  0  0  0
   -6.8991   -0.8759   -1.5199 F   0  0  0  0  0  0  0  0  0  0  0  0
   -4.8982   -0.5158   -2.3126 F   0  0  0  0  0  0  0  0  0  0  0  0
   -5.4250   -2.4717   -1.5048 F   0  0  0  0  0  0  0  0  0  0  0  0
  1 10  1  0  0  0  0
  2  1  1  0  0  0  0
  3  2  1  0  0  0  0
  4  1  2  0  0  0  0
  4  5  1  0  0  0  0
  5  6  2  0  0  0  0
  6  7  1  0  0  0  0
  6  9  1  0  0  0  0
  7  8  1  0  0  0  0
  8 13  1  0  0  0  0
  8 15  1  0  0  0  0
  9 16  1  0  0  0  0
 10 17  1  0  0  0  0
 10  9  2  0  0  0  0
 11  4  1  0  0  0  0
 12  5  1  0  0  0  0
 14  8  1  0  0  0  0
 19 20  2  0  0  0  0
 19 18  1  0  0  0  0
 21 19  1  0  0  0  0
 22 21  1  0  0  0  0
 23 21  1  0  0  0  0
 24 21  1  0  0  0  0
M  RAD  3   2   2   3   3  18   2
M  END
