Coordinates from ORCA-job 4-MeOPhN2+~CF3COO-_B3LYPG-6-31G_dp-NX-Scan-d89-09-n800
 OpenBabel11261920413D

 24 23  0  0  0  0  0  0  0  0999 V2000
   -2.6757    0.1786   -1.0612 C   0  0  0  0  0  0  0  0  0  0  0  0
   -3.5099    0.3551   -2.1855 N   0  0  0  0  0  0  0  0  0  0  0  0
   -3.6169    0.7678   -3.2303 N   0  0  0  0  0  0  0  0  0  0  0  0
   -1.4652    0.8958   -1.0592 C   0  0  0  0  0  0  0  0  0  0  0  0
   -0.6047    0.7423    0.0091 C   0  0  0  0  0  0  0  0  0  0  0  0
   -0.9373   -0.1245    1.0713 C   0  0  0  0  0  0  0  0  0  0  0  0
   -0.0267   -0.1977    2.0621 O   0  0  0  0  0  0  0  0  0  0  0  0
   -0.2892   -1.0397    3.1838 C   0  0  0  0  0  0  0  0  0  0  0  0
   -2.1476   -0.8381    1.0446 C   0  0  0  0  0  0  0  0  0  0  0  0
   -3.0233   -0.6835   -0.0239 C   0  0  0  0  0  0  0  0  0  0  0  0
   -1.2249    1.5606   -1.8814 H   0  0  0  0  0  0  0  0  0  0  0  0
    0.3346    1.2812    0.0543 H   0  0  0  0  0  0  0  0  0  0  0  0
    0.5708   -0.9274    3.8444 H   0  0  0  0  0  0  0  0  0  0  0  0
   -0.3821   -2.0887    2.8804 H   0  0  0  0  0  0  0  0  0  0  0  0
   -1.1979   -0.7269    3.7108 H   0  0  0  0  0  0  0  0  0  0  0  0
   -2.4187   -1.5089    1.8500 H   0  0  0  0  0  0  0  0  0  0  0  0
   -3.9613   -1.2181   -0.0816 H   0  0  0  0  0  0  0  0  0  0  0  0
   -5.1828   -0.5744   -1.7963 O   0  0  0  0  0  0  0  0  0  0  0  0
   -5.9550    0.2779   -1.2090 C   0  0  0  0  0  0  0  0  0  0  0  0
   -5.6611    1.3564   -0.7094 O   0  0  0  0  0  0  0  0  0  0  0  0
   -7.4234   -0.2285   -1.1476 C   0  0  0  0  0  0  0  0  0  0  0  0
   -8.2554    0.7136   -0.6828 F   0  0  0  0  0  0  0  0  0  0  0  0
   -7.8658   -0.6151   -2.3602 F   0  0  0  0  0  0  0  0  0  0  0  0
   -7.5047   -1.2979   -0.3206 F   0  0  0  0  0  0  0  0  0  0  0  0
  1  4  2  0  0  0  0
  1 10  1  0  0  0  0
  2  1  1  0  0  0  0
  3  2  2  0  0  0  0
  4  5  1  0  0  0  0
  5 12  1  0  0  0  0
  5  6  2  0  0  0  0
  6  7  1  0  0  0  0
  7  8  1  0  0  0  0
  8 15  1  0  0  0  0
  8 13  1  0  0  0  0
  9  6  1  0  0  0  0
  9 16  1  0  0  0  0
 10  9  2  0  0  0  0
 11  4  1  0  0  0  0
 14  8  1  0  0  0  0
 17 10  1  0  0  0  0
 18 19  2  0  0  0  0
 19 21  1  0  0  0  0
 19 20  1  0  0  0  0
 21 22  1  0  0  0  0
 21 24  1  0  0  0  0
 23 21  1  0  0  0  0
M  RAD  2   3   2  20   2
M  END
