Coordinates from ORCA-job 4-MeOPhN2+~CF3COO-_B3LYPG-6-31G_dp-NX-Scan-d89-09-n800
 OpenBabel11261920413D

 24 23  0  0  0  0  0  0  0  0999 V2000
   -2.9378    1.6277   -0.9048 C   0  0  0  0  0  0  0  0  0  0  0  0
   -3.7574    2.4087   -1.6195 N   0  0  0  0  0  0  0  0  0  0  0  0
   -4.4654    3.0597   -2.2046 N   0  0  0  0  0  0  0  0  0  0  0  0
   -2.0136    0.7855   -1.5859 C   0  0  0  0  0  0  0  0  0  0  0  0
   -1.3241   -0.1407   -0.8553 C   0  0  0  0  0  0  0  0  0  0  0  0
   -1.5785   -0.2825    0.5413 C   0  0  0  0  0  0  0  0  0  0  0  0
   -0.9596   -1.3046    1.1254 O   0  0  0  0  0  0  0  0  0  0  0  0
   -1.4222   -1.7358    2.4236 C   0  0  0  0  0  0  0  0  0  0  0  0
   -2.4237    0.6135    1.2148 C   0  0  0  0  0  0  0  0  0  0  0  0
   -3.1571    1.5405    0.4990 C   0  0  0  0  0  0  0  0  0  0  0  0
   -1.8962    0.8649   -2.6605 H   0  0  0  0  0  0  0  0  0  0  0  0
   -0.6342   -0.8318   -1.3250 H   0  0  0  0  0  0  0  0  0  0  0  0
   -0.9397   -2.6974    2.5923 H   0  0  0  0  0  0  0  0  0  0  0  0
   -2.5103   -1.8408    2.4009 H   0  0  0  0  0  0  0  0  0  0  0  0
   -1.1060   -1.0282    3.1975 H   0  0  0  0  0  0  0  0  0  0  0  0
   -2.6114    0.5089    2.2732 H   0  0  0  0  0  0  0  0  0  0  0  0
   -3.8334    2.2237    0.9886 H   0  0  0  0  0  0  0  0  0  0  0  0
   -4.4332   -1.4099    1.0784 O   0  0  0  0  0  0  0  0  0  0  0  0
   -5.0362   -0.7064    0.2505 C   0  0  0  0  0  0  0  0  0  0  0  0
   -5.3193    0.5244    0.2767 O   0  0  0  0  0  0  0  0  0  0  0  0
   -5.4344   -1.3850   -1.0959 C   0  0  0  0  0  0  0  0  0  0  0  0
   -6.7179   -1.1464   -1.4358 F   0  0  0  0  0  0  0  0  0  0  0  0
   -4.6611   -0.8717   -2.1067 F   0  0  0  0  0  0  0  0  0  0  0  0
   -5.2511   -2.7164   -1.1063 F   0  0  0  0  0  0  0  0  0  0  0  0
  1 10  1  0  0  0  0
  2  1  1  0  0  0  0
  3  2  1  0  0  0  0
  4  1  2  0  0  0  0
  4  5  1  0  0  0  0
  5  6  2  0  0  0  0
  6  7  1  0  0  0  0
  6  9  1  0  0  0  0
  7  8  1  0  0  0  0
  8 13  1  0  0  0  0
  8 15  1  0  0  0  0
  9 16  1  0  0  0  0
 10 17  1  0  0  0  0
 10  9  2  0  0  0  0
 11  4  1  0  0  0  0
 12  5  1  0  0  0  0
 14  8  1  0  0  0  0
 19 20  2  0  0  0  0
 19 18  1  0  0  0  0
 21 19  1  0  0  0  0
 22 21  1  0  0  0  0
 23 21  1  0  0  0  0
 24 21  1  0  0  0  0
M  RAD  3   2   2   3   3  18   2
M  END
