Coordinates from ORCA-job 4-MeOPhN2+~CF3COO-_B3LYPG-6-31G_dp-NX-Scan-d89-09-n800
 OpenBabel11261920413D

 24 23  0  0  0  0  0  0  0  0999 V2000
   -2.9524    1.5273   -0.8788 C   0  0  0  0  0  0  0  0  0  0  0  0
   -3.8988    2.1495   -1.5995 N   0  0  0  0  0  0  0  0  0  0  0  0
   -4.7245    2.6380   -2.1819 N   0  0  0  0  0  0  0  0  0  0  0  0
   -2.0205    0.6892   -1.5496 C   0  0  0  0  0  0  0  0  0  0  0  0
   -1.2719   -0.1759   -0.7993 C   0  0  0  0  0  0  0  0  0  0  0  0
   -1.4987   -0.2733    0.6027 C   0  0  0  0  0  0  0  0  0  0  0  0
   -0.8696   -1.2744    1.2126 O   0  0  0  0  0  0  0  0  0  0  0  0
   -1.3651   -1.7027    2.4993 C   0  0  0  0  0  0  0  0  0  0  0  0
   -2.3384    0.6400    1.2641 C   0  0  0  0  0  0  0  0  0  0  0  0
   -3.1067    1.5227    0.5340 C   0  0  0  0  0  0  0  0  0  0  0  0
   -1.9514    0.7103   -2.6312 H   0  0  0  0  0  0  0  0  0  0  0  0
   -0.5768   -0.8682   -1.2594 H   0  0  0  0  0  0  0  0  0  0  0  0
   -0.8926   -2.6672    2.6804 H   0  0  0  0  0  0  0  0  0  0  0  0
   -2.4528   -1.8042    2.4488 H   0  0  0  0  0  0  0  0  0  0  0  0
   -1.0661   -0.9981    3.2825 H   0  0  0  0  0  0  0  0  0  0  0  0
   -2.4822    0.5846    2.3339 H   0  0  0  0  0  0  0  0  0  0  0  0
   -3.8001    2.1978    1.0107 H   0  0  0  0  0  0  0  0  0  0  0  0
   -4.3435   -1.4450    0.8422 O   0  0  0  0  0  0  0  0  0  0  0  0
   -5.0292   -0.6723    0.1538 C   0  0  0  0  0  0  0  0  0  0  0  0
   -5.3531    0.5322    0.3448 O   0  0  0  0  0  0  0  0  0  0  0  0
   -5.5058   -1.2071   -1.2345 C   0  0  0  0  0  0  0  0  0  0  0  0
   -6.8225   -1.0078   -1.4437 F   0  0  0  0  0  0  0  0  0  0  0  0
   -4.8482   -0.5245   -2.2359 F   0  0  0  0  0  0  0  0  0  0  0  0
   -5.2531   -2.5109   -1.4339 F   0  0  0  0  0  0  0  0  0  0  0  0
  1 10  1  0  0  0  0
  2  1  1  0  0  0  0
  3  2  1  0  0  0  0
  4  1  2  0  0  0  0
  4  5  1  0  0  0  0
  5  6  2  0  0  0  0
  6  7  1  0  0  0  0
  6  9  1  0  0  0  0
  7  8  1  0  0  0  0
  8 13  1  0  0  0  0
  8 15  1  0  0  0  0
  9 16  1  0  0  0  0
 10 17  1  0  0  0  0
 10  9  2  0  0  0  0
 11  4  1  0  0  0  0
 12  5  1  0  0  0  0
 14  8  1  0  0  0  0
 19 20  2  0  0  0  0
 19 18  1  0  0  0  0
 21 19  1  0  0  0  0
 22 21  1  0  0  0  0
 23 21  1  0  0  0  0
 24 21  1  0  0  0  0
M  RAD  3   2   2   3   3  18   2
M  END
