Coordinates from ORCA-job 4-MeOPhN2+~CF3COO-_B3LYPG-6-31G_dp-NX-Scan-d89-09-n800
 OpenBabel11261920413D

 24 23  0  0  0  0  0  0  0  0999 V2000
   -2.0573    1.9878   -1.4080 C   0  0  0  0  0  0  0  0  0  0  0  0
   -2.4286    2.9358   -2.2838 N   0  0  0  0  0  0  0  0  0  0  0  0
   -2.7630    3.7326   -3.0084 N   0  0  0  0  0  0  0  0  0  0  0  0
   -0.6941    1.5710   -1.3737 C   0  0  0  0  0  0  0  0  0  0  0  0
   -0.3441    0.5837   -0.4944 C   0  0  0  0  0  0  0  0  0  0  0  0
   -1.3269   -0.0133    0.3543 C   0  0  0  0  0  0  0  0  0  0  0  0
   -0.8876   -0.9770    1.1320 O   0  0  0  0  0  0  0  0  0  0  0  0
   -1.8243   -1.6878    1.9975 C   0  0  0  0  0  0  0  0  0  0  0  0
   -2.6743    0.4324    0.3301 C   0  0  0  0  0  0  0  0  0  0  0  0
   -3.0411    1.4154   -0.5518 C   0  0  0  0  0  0  0  0  0  0  0  0
    0.0338    2.0281   -2.0347 H   0  0  0  0  0  0  0  0  0  0  0  0
    0.6761    0.2222   -0.4341 H   0  0  0  0  0  0  0  0  0  0  0  0
   -1.2421   -2.5101    2.4097 H   0  0  0  0  0  0  0  0  0  0  0  0
   -2.6915   -2.0388    1.4157 H   0  0  0  0  0  0  0  0  0  0  0  0
   -2.1501   -1.0160    2.7964 H   0  0  0  0  0  0  0  0  0  0  0  0
   -3.4919    0.0011    0.9358 H   0  0  0  0  0  0  0  0  0  0  0  0
   -4.0781    1.7322   -0.5962 H   0  0  0  0  0  0  0  0  0  0  0  0
   -4.4271   -2.3742    0.4815 O   0  0  0  0  0  0  0  0  0  0  0  0
   -5.3260   -1.5311    0.6848 C   0  0  0  0  0  0  0  0  0  0  0  0
   -5.2541   -0.3720    1.1695 O   0  0  0  0  0  0  0  0  0  0  0  0
   -6.7606   -1.9333    0.2289 C   0  0  0  0  0  0  0  0  0  0  0  0
   -7.6887   -1.6442    1.1673 F   0  0  0  0  0  0  0  0  0  0  0  0
   -7.1014   -1.2422   -0.8933 F   0  0  0  0  0  0  0  0  0  0  0  0
   -6.8805   -3.2423   -0.0630 F   0  0  0  0  0  0  0  0  0  0  0  0
  1  4  2  0  0  0  0
  1 10  1  0  0  0  0
  2  1  1  0  0  0  0
  3  2  1  0  0  0  0
  4  5  1  0  0  0  0
  5 12  1  0  0  0  0
  5  6  2  0  0  0  0
  6  7  1  0  0  0  0
  7  8  1  0  0  0  0
  8 13  1  0  0  0  0
  8 15  1  0  0  0  0
  9  6  1  0  0  0  0
  9 16  1  0  0  0  0
 10  9  2  0  0  0  0
 11  4  1  0  0  0  0
 14  8  1  0  0  0  0
 17 10  1  0  0  0  0
 18 19  2  0  0  0  0
 19 20  1  0  0  0  0
 21 19  1  0  0  0  0
 21 22  1  0  0  0  0
 23 21  1  0  0  0  0
 24 21  1  0  0  0  0
M  RAD  3   2   2   3   3  20   2
M  END
