Coordinates from ORCA-job 4-MeOPhN2+~CF3COO-_B3LYPG-6-31G_dp-NX-Scan-d89-09-n800
 OpenBabel11261920413D

 24 23  0  0  0  0  0  0  0  0999 V2000
   -2.9536    1.4984   -0.8622 C   0  0  0  0  0  0  0  0  0  0  0  0
   -3.9264    2.0844   -1.5815 N   0  0  0  0  0  0  0  0  0  0  0  0
   -4.7769    2.5315   -2.1588 N   0  0  0  0  0  0  0  0  0  0  0  0
   -2.0122    0.6721   -1.5320 C   0  0  0  0  0  0  0  0  0  0  0  0
   -1.2441   -0.1744   -0.7787 C   0  0  0  0  0  0  0  0  0  0  0  0
   -1.4652   -0.2660    0.6232 C   0  0  0  0  0  0  0  0  0  0  0  0
   -0.8245   -1.2574    1.2383 O   0  0  0  0  0  0  0  0  0  0  0  0
   -1.3221   -1.6909    2.5217 C   0  0  0  0  0  0  0  0  0  0  0  0
   -2.3152    0.6402    1.2824 C   0  0  0  0  0  0  0  0  0  0  0  0
   -3.0962    1.5091    0.5505 C   0  0  0  0  0  0  0  0  0  0  0  0
   -1.9518    0.6832   -2.6143 H   0  0  0  0  0  0  0  0  0  0  0  0
   -0.5411   -0.8596   -1.2374 H   0  0  0  0  0  0  0  0  0  0  0  0
   -0.8395   -2.6496    2.7066 H   0  0  0  0  0  0  0  0  0  0  0  0
   -2.4082   -1.8067    2.4661 H   0  0  0  0  0  0  0  0  0  0  0  0
   -1.0379   -0.9828    3.3072 H   0  0  0  0  0  0  0  0  0  0  0  0
   -2.4513    0.5916    2.3538 H   0  0  0  0  0  0  0  0  0  0  0  0
   -3.8057    2.1696    1.0238 H   0  0  0  0  0  0  0  0  0  0  0  0
   -4.3388   -1.4263    0.7564 O   0  0  0  0  0  0  0  0  0  0  0  0
   -5.0562   -0.6521    0.1043 C   0  0  0  0  0  0  0  0  0  0  0  0
   -5.3882    0.5453    0.3229 O   0  0  0  0  0  0  0  0  0  0  0  0
   -5.5615   -1.1732   -1.2795 C   0  0  0  0  0  0  0  0  0  0  0  0
   -6.8693   -0.9235   -1.4885 F   0  0  0  0  0  0  0  0  0  0  0  0
   -4.8785   -0.5173   -2.2841 F   0  0  0  0  0  0  0  0  0  0  0  0
   -5.3593   -2.4857   -1.4783 F   0  0  0  0  0  0  0  0  0  0  0  0
  1 10  1  0  0  0  0
  2  1  1  0  0  0  0
  3  2  1  0  0  0  0
  4  1  2  0  0  0  0
  4  5  1  0  0  0  0
  5  6  2  0  0  0  0
  6  7  1  0  0  0  0
  6  9  1  0  0  0  0
  7  8  1  0  0  0  0
  8 13  1  0  0  0  0
  8 15  1  0  0  0  0
  9 16  1  0  0  0  0
 10 17  1  0  0  0  0
 10  9  2  0  0  0  0
 11  4  1  0  0  0  0
 12  5  1  0  0  0  0
 14  8  1  0  0  0  0
 19 20  2  0  0  0  0
 19 18  1  0  0  0  0
 21 19  1  0  0  0  0
 22 21  1  0  0  0  0
 23 21  1  0  0  0  0
 24 21  1  0  0  0  0
M  RAD  3   2   2   3   3  18   2
M  END
