Coordinates from ORCA-job 4-MeOPhN2+~CF3COO-_B3LYPG-6-31G_dp-NX-Scan-d89-09-n800
 OpenBabel11261920413D

 24 23  0  0  0  0  0  0  0  0999 V2000
   -2.5701    0.4576   -1.0263 C   0  0  0  0  0  0  0  0  0  0  0  0
   -3.3722    0.7388   -2.1390 N   0  0  0  0  0  0  0  0  0  0  0  0
   -3.5200    1.1282   -3.1846 N   0  0  0  0  0  0  0  0  0  0  0  0
   -1.3148    1.1050   -0.9968 C   0  0  0  0  0  0  0  0  0  0  0  0
   -0.4670    0.8462    0.0576 C   0  0  0  0  0  0  0  0  0  0  0  0
   -0.8507   -0.0624    1.0707 C   0  0  0  0  0  0  0  0  0  0  0  0
    0.0528   -0.2398    2.0505 O   0  0  0  0  0  0  0  0  0  0  0  0
   -0.2501   -1.1344    3.1231 C   0  0  0  0  0  0  0  0  0  0  0  0
   -2.0985   -0.7065    1.0058 C   0  0  0  0  0  0  0  0  0  0  0  0
   -2.9741   -0.4444   -0.0411 C   0  0  0  0  0  0  0  0  0  0  0  0
   -1.0355    1.7965   -1.7846 H   0  0  0  0  0  0  0  0  0  0  0  0
    0.5008    1.3286    0.1309 H   0  0  0  0  0  0  0  0  0  0  0  0
    0.6176   -1.1065    3.7823 H   0  0  0  0  0  0  0  0  0  0  0  0
   -0.3994   -2.1556    2.7563 H   0  0  0  0  0  0  0  0  0  0  0  0
   -1.1392   -0.8057    3.6724 H   0  0  0  0  0  0  0  0  0  0  0  0
   -2.4026   -1.4118    1.7692 H   0  0  0  0  0  0  0  0  0  0  0  0
   -3.9502   -0.9407   -0.1181 H   0  0  0  0  0  0  0  0  0  0  0  0
   -5.7178   -1.4914   -0.4726 O   0  0  0  0  0  0  0  0  0  0  0  0
   -6.1060   -0.4450   -1.0086 C   0  0  0  0  0  0  0  0  0  0  0  0
   -5.4435    0.5540   -1.4272 O   0  0  0  0  0  0  0  0  0  0  0  0
   -7.6376   -0.2811   -1.2495 C   0  0  0  0  0  0  0  0  0  0  0  0
   -8.0870    0.8957   -0.7642 F   0  0  0  0  0  0  0  0  0  0  0  0
   -7.9079   -0.3055   -2.5746 F   0  0  0  0  0  0  0  0  0  0  0  0
   -8.3508   -1.2599   -0.6698 F   0  0  0  0  0  0  0  0  0  0  0  0
  1  4  2  0  0  0  0
  1 10  1  0  0  0  0
  2  1  1  0  0  0  0
  3  2  2  0  0  0  0
  4  5  1  0  0  0  0
  5 12  1  0  0  0  0
  5  6  2  0  0  0  0
  6  7  1  0  0  0  0
  7  8  1  0  0  0  0
  8 15  1  0  0  0  0
  8 13  1  0  0  0  0
  9  6  1  0  0  0  0
  9 16  1  0  0  0  0
 10  9  2  0  0  0  0
 11  4  1  0  0  0  0
 14  8  1  0  0  0  0
 17 10  1  0  0  0  0
 19 18  1  0  0  0  0
 20 19  2  0  0  0  0
 21 19  1  0  0  0  0
 21 22  1  0  0  0  0
 21 24  1  0  0  0  0
 23 21  1  0  0  0  0
M  RAD  2   3   2  18   2
M  END
