Coordinates from ORCA-job 4-MeOPhN2+~CF3COO-_B3LYPG-6-31G_dp-NX-Scan-d89-09-n800
 OpenBabel11261920413D

 24 24  0  0  0  0  0  0  0  0999 V2000
   -1.9543   -0.9928    0.5594 C   0  0  0  0  0  0  0  0  0  0  0  0
   -2.1223   -2.2193    1.2142 N   0  0  0  0  0  0  0  0  0  0  0  0
   -3.0231   -2.9244    1.5542 N   0  0  0  0  0  0  0  0  0  0  0  0
   -0.6065   -0.6128    0.3907 C   0  0  0  0  0  0  0  0  0  0  0  0
   -0.2826    0.5766   -0.2312 C   0  0  0  0  0  0  0  0  0  0  0  0
   -1.3065    1.4216   -0.6988 C   0  0  0  0  0  0  0  0  0  0  0  0
   -0.8957    2.5629   -1.2926 O   0  0  0  0  0  0  0  0  0  0  0  0
   -1.8724    3.4716   -1.7952 C   0  0  0  0  0  0  0  0  0  0  0  0
   -2.6522    1.0509   -0.5305 C   0  0  0  0  0  0  0  0  0  0  0  0
   -2.9807   -0.1478    0.0918 C   0  0  0  0  0  0  0  0  0  0  0  0
    0.1676   -1.2761    0.7605 H   0  0  0  0  0  0  0  0  0  0  0  0
    0.7483    0.8826   -0.3703 H   0  0  0  0  0  0  0  0  0  0  0  0
   -1.3115    4.3044   -2.2193 H   0  0  0  0  0  0  0  0  0  0  0  0
   -2.5231    3.8411   -0.9945 H   0  0  0  0  0  0  0  0  0  0  0  0
   -2.4825    3.0075   -2.5789 H   0  0  0  0  0  0  0  0  0  0  0  0
   -3.4515    1.6903   -0.8839 H   0  0  0  0  0  0  0  0  0  0  0  0
   -4.0159   -0.4271    0.2191 H   0  0  0  0  0  0  0  0  0  0  0  0
   -4.4636   -2.3210    1.0842 O   0  0  0  0  0  0  0  0  0  0  0  0
   -5.4895   -2.9146    1.6781 C   0  0  0  0  0  0  0  0  0  0  0  0
   -5.4981   -3.7245    2.5698 O   0  0  0  0  0  0  0  0  0  0  0  0
   -6.8031   -2.4127    1.0174 C   0  0  0  0  0  0  0  0  0  0  0  0
   -7.8605   -2.7053    1.7784 F   0  0  0  0  0  0  0  0  0  0  0  0
   -6.7771   -1.0745    0.8258 F   0  0  0  0  0  0  0  0  0  0  0  0
   -6.9668   -2.9966   -0.1862 F   0  0  0  0  0  0  0  0  0  0  0  0
  1  2  1  0  0  0  0
  2  3  1  0  0  0  0
  4  1  1  0  0  0  0
  4 11  1  0  0  0  0
  5  4  2  0  0  0  0
  6  9  2  0  0  0  0
  6  5  1  0  0  0  0
  7  6  1  0  0  0  0
  8  7  1  0  0  0  0
  8 14  1  0  0  0  0
  9 10  1  0  0  0  0
 10 17  1  0  0  0  0
 10  1  2  0  0  0  0
 12  5  1  0  0  0  0
 13  8  1  0  0  0  0
 15  8  1  0  0  0  0
 16  9  1  0  0  0  0
 18  3  1  0  0  0  0
 18 19  1  0  0  0  0
 19 20  2  0  0  0  0
 21 19  1  0  0  0  0
 21 22  1  0  0  0  0
 23 21  1  0  0  0  0
 24 21  1  0  0  0  0
M  RAD  2   2   2   3   2
M  END
