Coordinates from ORCA-job 4-MeOPhN2+~CF3COO-_B3LYPG-6-31G_dp-NX-Scan-d89-09-n800
 OpenBabel11261920413D

 24 23  0  0  0  0  0  0  0  0999 V2000
   -2.6360    0.2951   -1.0349 C   0  0  0  0  0  0  0  0  0  0  0  0
   -3.4671    0.4727   -2.1579 N   0  0  0  0  0  0  0  0  0  0  0  0
   -3.5744    0.6640   -3.2636 N   0  0  0  0  0  0  0  0  0  0  0  0
   -1.4262    1.0121   -1.0234 C   0  0  0  0  0  0  0  0  0  0  0  0
   -0.5719    0.8407    0.0482 C   0  0  0  0  0  0  0  0  0  0  0  0
   -0.9090   -0.0481    1.0907 C   0  0  0  0  0  0  0  0  0  0  0  0
   -0.0037   -0.1387    2.0840 O   0  0  0  0  0  0  0  0  0  0  0  0
   -0.2656   -1.0089    3.1849 C   0  0  0  0  0  0  0  0  0  0  0  0
   -2.1173   -0.7669    1.0435 C   0  0  0  0  0  0  0  0  0  0  0  0
   -2.9954   -0.5871   -0.0175 C   0  0  0  0  0  0  0  0  0  0  0  0
   -1.1810    1.6908   -1.8329 H   0  0  0  0  0  0  0  0  0  0  0  0
    0.3662    1.3802    0.1085 H   0  0  0  0  0  0  0  0  0  0  0  0
    0.5910   -0.9062    3.8514 H   0  0  0  0  0  0  0  0  0  0  0  0
   -0.3499   -2.0508    2.8561 H   0  0  0  0  0  0  0  0  0  0  0  0
   -1.1786   -0.7147    3.7149 H   0  0  0  0  0  0  0  0  0  0  0  0
   -2.3833   -1.4632    1.8288 H   0  0  0  0  0  0  0  0  0  0  0  0
   -3.9249   -1.1405   -0.1145 H   0  0  0  0  0  0  0  0  0  0  0  0
   -5.5179   -1.4545   -1.4615 O   0  0  0  0  0  0  0  0  0  0  0  0
   -5.9804   -0.3219   -1.2758 C   0  0  0  0  0  0  0  0  0  0  0  0
   -5.3590    0.7842   -1.1847 O   0  0  0  0  0  0  0  0  0  0  0  0
   -7.5234   -0.1641   -1.1462 C   0  0  0  0  0  0  0  0  0  0  0  0
   -7.8514    0.5814   -0.0698 F   0  0  0  0  0  0  0  0  0  0  0  0
   -8.0220    0.4533   -2.2399 F   0  0  0  0  0  0  0  0  0  0  0  0
   -8.1426   -1.3491   -1.0265 F   0  0  0  0  0  0  0  0  0  0  0  0
  1  4  2  0  0  0  0
  1 10  1  0  0  0  0
  2  1  1  0  0  0  0
  3  2  2  0  0  0  0
  4  5  1  0  0  0  0
  5 12  1  0  0  0  0
  5  6  2  0  0  0  0
  6  7  1  0  0  0  0
  7  8  1  0  0  0  0
  8 15  1  0  0  0  0
  8 13  1  0  0  0  0
  9  6  1  0  0  0  0
  9 16  1  0  0  0  0
 10  9  2  0  0  0  0
 11  4  1  0  0  0  0
 14  8  1  0  0  0  0
 17 10  1  0  0  0  0
 18 19  2  0  0  0  0
 19 20  1  0  0  0  0
 19 21  1  0  0  0  0
 21 24  1  0  0  0  0
 21 22  1  0  0  0  0
 23 21  1  0  0  0  0
M  RAD  2   3   2  20   2
M  END
