Coordinates from ORCA-job 4-MeOPhN2+~CF3COO-_B3LYPG-6-31G_dp-NX-Scan-d89-09-n800
 OpenBabel11261920413D

 24 23  0  0  0  0  0  0  0  0999 V2000
   -2.9382    1.6289   -0.9047 C   0  0  0  0  0  0  0  0  0  0  0  0
   -3.7552    2.4125   -1.6200 N   0  0  0  0  0  0  0  0  0  0  0  0
   -4.4575    3.0676   -2.2072 N   0  0  0  0  0  0  0  0  0  0  0  0
   -2.0140    0.7870   -1.5862 C   0  0  0  0  0  0  0  0  0  0  0  0
   -1.3248   -0.1397   -0.8559 C   0  0  0  0  0  0  0  0  0  0  0  0
   -1.5794   -0.2823    0.5405 C   0  0  0  0  0  0  0  0  0  0  0  0
   -0.9604   -1.3045    1.1242 O   0  0  0  0  0  0  0  0  0  0  0  0
   -1.4226   -1.7360    2.4224 C   0  0  0  0  0  0  0  0  0  0  0  0
   -2.4248    0.6133    1.2144 C   0  0  0  0  0  0  0  0  0  0  0  0
   -3.1582    1.5406    0.4988 C   0  0  0  0  0  0  0  0  0  0  0  0
   -1.8959    0.8673   -2.6607 H   0  0  0  0  0  0  0  0  0  0  0  0
   -0.6346   -0.8304   -1.3259 H   0  0  0  0  0  0  0  0  0  0  0  0
   -0.9398   -2.6975    2.5909 H   0  0  0  0  0  0  0  0  0  0  0  0
   -2.5106   -1.8413    2.4000 H   0  0  0  0  0  0  0  0  0  0  0  0
   -1.1065   -1.0285    3.1963 H   0  0  0  0  0  0  0  0  0  0  0  0
   -2.6129    0.5082    2.2726 H   0  0  0  0  0  0  0  0  0  0  0  0
   -3.8344    2.2237    0.9886 H   0  0  0  0  0  0  0  0  0  0  0  0
   -4.4344   -1.4106    1.0809 O   0  0  0  0  0  0  0  0  0  0  0  0
   -5.0369   -0.7078    0.2519 C   0  0  0  0  0  0  0  0  0  0  0  0
   -5.3199    0.5230    0.2765 O   0  0  0  0  0  0  0  0  0  0  0  0
   -5.4343   -1.3880   -1.0938 C   0  0  0  0  0  0  0  0  0  0  0  0
   -6.7170   -1.1482   -1.4357 F   0  0  0  0  0  0  0  0  0  0  0  0
   -4.6588   -0.8775   -2.1043 F   0  0  0  0  0  0  0  0  0  0  0  0
   -5.2529   -2.7197   -1.1017 F   0  0  0  0  0  0  0  0  0  0  0  0
  1 10  1  0  0  0  0
  2  1  1  0  0  0  0
  3  2  1  0  0  0  0
  4  1  2  0  0  0  0
  4  5  1  0  0  0  0
  5  6  2  0  0  0  0
  6  7  1  0  0  0  0
  6  9  1  0  0  0  0
  7  8  1  0  0  0  0
  8 13  1  0  0  0  0
  8 15  1  0  0  0  0
  9 16  1  0  0  0  0
 10 17  1  0  0  0  0
 10  9  2  0  0  0  0
 11  4  1  0  0  0  0
 12  5  1  0  0  0  0
 14  8  1  0  0  0  0
 19 20  2  0  0  0  0
 19 18  1  0  0  0  0
 21 19  1  0  0  0  0
 22 21  1  0  0  0  0
 23 21  1  0  0  0  0
 24 21  1  0  0  0  0
M  RAD  3   2   2   3   3  18   2
M  END
