Coordinates from ORCA-job 4-MeOPhN2+~CF3COO-_B3LYPG-6-31G_dp-NX-Scan-d89-09-n800
 OpenBabel11261920413D

 24 23  0  0  0  0  0  0  0  0999 V2000
   -2.0719    1.9738   -1.4045 C   0  0  0  0  0  0  0  0  0  0  0  0
   -2.4553    2.9095   -2.2883 N   0  0  0  0  0  0  0  0  0  0  0  0
   -2.8019    3.6950   -3.0194 N   0  0  0  0  0  0  0  0  0  0  0  0
   -0.7064    1.5644   -1.3750 C   0  0  0  0  0  0  0  0  0  0  0  0
   -0.3465    0.5848   -0.4910 C   0  0  0  0  0  0  0  0  0  0  0  0
   -1.3220   -0.0129    0.3654 C   0  0  0  0  0  0  0  0  0  0  0  0
   -0.8763   -0.9746    1.1422 O   0  0  0  0  0  0  0  0  0  0  0  0
   -1.8119   -1.6940    2.0022 C   0  0  0  0  0  0  0  0  0  0  0  0
   -2.6704    0.4293    0.3487 C   0  0  0  0  0  0  0  0  0  0  0  0
   -3.0476    1.4046   -0.5372 C   0  0  0  0  0  0  0  0  0  0  0  0
    0.0152    2.0200   -2.0439 H   0  0  0  0  0  0  0  0  0  0  0  0
    0.6757    0.2281   -0.4349 H   0  0  0  0  0  0  0  0  0  0  0  0
   -1.2301   -2.5210    2.4053 H   0  0  0  0  0  0  0  0  0  0  0  0
   -2.6790   -2.0370    1.4159 H   0  0  0  0  0  0  0  0  0  0  0  0
   -2.1367   -1.0303    2.8083 H   0  0  0  0  0  0  0  0  0  0  0  0
   -3.4827    0.0005    0.9618 H   0  0  0  0  0  0  0  0  0  0  0  0
   -4.0865    1.7159   -0.5762 H   0  0  0  0  0  0  0  0  0  0  0  0
   -4.4198   -2.3510    0.4743 O   0  0  0  0  0  0  0  0  0  0  0  0
   -5.3222   -1.5125    0.6825 C   0  0  0  0  0  0  0  0  0  0  0  0
   -5.2561   -0.3597    1.1825 O   0  0  0  0  0  0  0  0  0  0  0  0
   -6.7520   -1.9118    0.2092 C   0  0  0  0  0  0  0  0  0  0  0  0
   -7.6907   -1.6268    1.1381 F   0  0  0  0  0  0  0  0  0  0  0  0
   -7.0795   -1.2149   -0.9136 F   0  0  0  0  0  0  0  0  0  0  0  0
   -6.8691   -3.2193   -0.0906 F   0  0  0  0  0  0  0  0  0  0  0  0
  1  4  2  0  0  0  0
  1 10  1  0  0  0  0
  2  1  1  0  0  0  0
  3  2  1  0  0  0  0
  4  5  1  0  0  0  0
  5 12  1  0  0  0  0
  5  6  2  0  0  0  0
  6  7  1  0  0  0  0
  7  8  1  0  0  0  0
  8 13  1  0  0  0  0
  8 15  1  0  0  0  0
  9  6  1  0  0  0  0
  9 16  1  0  0  0  0
 10  9  2  0  0  0  0
 11  4  1  0  0  0  0
 14  8  1  0  0  0  0
 17 10  1  0  0  0  0
 18 19  2  0  0  0  0
 19 20  1  0  0  0  0
 21 19  1  0  0  0  0
 21 22  1  0  0  0  0
 23 21  1  0  0  0  0
 24 21  1  0  0  0  0
M  RAD  3   2   2   3   3  20   2
M  END
