Coordinates from ORCA-job 4-MeOPhN2+~CF3COO-_B3LYPG-6-31G_dp-NX-Scan-d89-09-n800
 OpenBabel11261920413D

 24 23  0  0  0  0  0  0  0  0999 V2000
   -1.8439    2.1621   -1.4536 C   0  0  0  0  0  0  0  0  0  0  0  0
   -2.0861    3.2018   -2.2691 N   0  0  0  0  0  0  0  0  0  0  0  0
   -2.2962    4.0795   -2.9468 N   0  0  0  0  0  0  0  0  0  0  0  0
   -0.4943    1.7431   -1.2595 C   0  0  0  0  0  0  0  0  0  0  0  0
   -0.2613    0.6913   -0.4182 C   0  0  0  0  0  0  0  0  0  0  0  0
   -1.3446    0.0384    0.2480 C   0  0  0  0  0  0  0  0  0  0  0  0
   -0.9950   -0.9466    1.0420 O   0  0  0  0  0  0  0  0  0  0  0  0
   -2.0039   -1.6611    1.8183 C   0  0  0  0  0  0  0  0  0  0  0  0
   -2.6880    0.4587    0.0432 C   0  0  0  0  0  0  0  0  0  0  0  0
   -2.9336    1.5097   -0.8040 C   0  0  0  0  0  0  0  0  0  0  0  0
    0.3146    2.2545   -1.7687 H   0  0  0  0  0  0  0  0  0  0  0  0
    0.7450    0.3324   -0.2345 H   0  0  0  0  0  0  0  0  0  0  0  0
   -1.4424   -2.4336    2.3408 H   0  0  0  0  0  0  0  0  0  0  0  0
   -2.7909   -2.0922    1.1783 H   0  0  0  0  0  0  0  0  0  0  0  0
   -2.4567   -0.9690    2.5332 H   0  0  0  0  0  0  0  0  0  0  0  0
   -3.5698   -0.0401    0.5077 H   0  0  0  0  0  0  0  0  0  0  0  0
   -3.9539    1.8354   -0.9793 H   0  0  0  0  0  0  0  0  0  0  0  0
   -4.5883   -2.7348    0.6274 O   0  0  0  0  0  0  0  0  0  0  0  0
   -5.4053   -1.7960    0.7018 C   0  0  0  0  0  0  0  0  0  0  0  0
   -5.2162   -0.5587    0.8517 O   0  0  0  0  0  0  0  0  0  0  0  0
   -6.9121   -2.1752    0.5830 C   0  0  0  0  0  0  0  0  0  0  0  0
   -7.6179   -1.7271    1.6479 F   0  0  0  0  0  0  0  0  0  0  0  0
   -7.4607   -1.6102   -0.5230 F   0  0  0  0  0  0  0  0  0  0  0  0
   -7.1222   -3.5023    0.4951 F   0  0  0  0  0  0  0  0  0  0  0  0
  1  4  2  0  0  0  0
  1 10  1  0  0  0  0
  2  1  1  0  0  0  0
  3  2  1  0  0  0  0
  4  5  1  0  0  0  0
  5 12  1  0  0  0  0
  5  6  2  0  0  0  0
  6  7  1  0  0  0  0
  7  8  1  0  0  0  0
  8 13  1  0  0  0  0
  8 15  1  0  0  0  0
  9  6  1  0  0  0  0
  9 16  1  0  0  0  0
 10  9  2  0  0  0  0
 11  4  1  0  0  0  0
 14  8  1  0  0  0  0
 17 10  1  0  0  0  0
 18 19  2  0  0  0  0
 19 20  1  0  0  0  0
 21 19  1  0  0  0  0
 21 22  1  0  0  0  0
 23 21  1  0  0  0  0
 24 21  1  0  0  0  0
M  RAD  3   2   2   3   3  20   2
M  END
