Coordinates from ORCA-job 4-MeOPhN2+~CF3COO-_B3LYPG-6-31G_dp-NX-Scan-d89-09-n800
 OpenBabel11261920413D

 24 23  0  0  0  0  0  0  0  0999 V2000
   -2.6588    0.1875   -1.0846 C   0  0  0  0  0  0  0  0  0  0  0  0
   -3.4749    0.3727   -2.2211 N   0  0  0  0  0  0  0  0  0  0  0  0
   -3.5498    0.8059   -3.2611 N   0  0  0  0  0  0  0  0  0  0  0  0
   -1.4518    0.9120   -1.0597 C   0  0  0  0  0  0  0  0  0  0  0  0
   -0.6053    0.7548    0.0187 C   0  0  0  0  0  0  0  0  0  0  0  0
   -0.9474   -0.1226    1.0695 C   0  0  0  0  0  0  0  0  0  0  0  0
   -0.0506   -0.1981    2.0718 O   0  0  0  0  0  0  0  0  0  0  0  0
   -0.3245   -1.0480    3.1851 C   0  0  0  0  0  0  0  0  0  0  0  0
   -2.1531   -0.8429    1.0199 C   0  0  0  0  0  0  0  0  0  0  0  0
   -3.0153   -0.6853   -0.0590 C   0  0  0  0  0  0  0  0  0  0  0  0
   -1.2037    1.5856   -1.8723 H   0  0  0  0  0  0  0  0  0  0  0  0
    0.3299    1.2992    0.0809 H   0  0  0  0  0  0  0  0  0  0  0  0
    0.5252   -0.9344    3.8586 H   0  0  0  0  0  0  0  0  0  0  0  0
   -0.4067   -2.0958    2.8743 H   0  0  0  0  0  0  0  0  0  0  0  0
   -1.2426   -0.7433    3.7002 H   0  0  0  0  0  0  0  0  0  0  0  0
   -2.4314   -1.5217    1.8161 H   0  0  0  0  0  0  0  0  0  0  0  0
   -3.9507   -1.2226   -0.1339 H   0  0  0  0  0  0  0  0  0  0  0  0
   -5.1967   -0.6225   -1.7860 O   0  0  0  0  0  0  0  0  0  0  0  0
   -5.9512    0.2649   -1.2362 C   0  0  0  0  0  0  0  0  0  0  0  0
   -5.6483    1.3775   -0.8200 O   0  0  0  0  0  0  0  0  0  0  0  0
   -7.4156   -0.2379   -1.0893 C   0  0  0  0  0  0  0  0  0  0  0  0
   -8.2311    0.7231   -0.6333 F   0  0  0  0  0  0  0  0  0  0  0  0
   -7.9077   -0.6789   -2.2641 F   0  0  0  0  0  0  0  0  0  0  0  0
   -7.4617   -1.2696   -0.2126 F   0  0  0  0  0  0  0  0  0  0  0  0
  1  4  2  0  0  0  0
  1 10  1  0  0  0  0
  2  1  1  0  0  0  0
  3  2  2  0  0  0  0
  4  5  1  0  0  0  0
  5 12  1  0  0  0  0
  5  6  2  0  0  0  0
  6  7  1  0  0  0  0
  7  8  1  0  0  0  0
  8 15  1  0  0  0  0
  8 13  1  0  0  0  0
  9  6  1  0  0  0  0
  9 16  1  0  0  0  0
 10  9  2  0  0  0  0
 11  4  1  0  0  0  0
 14  8  1  0  0  0  0
 17 10  1  0  0  0  0
 18 19  2  0  0  0  0
 19 21  1  0  0  0  0
 19 20  1  0  0  0  0
 21 22  1  0  0  0  0
 21 24  1  0  0  0  0
 23 21  1  0  0  0  0
M  RAD  2   3   2  20   2
M  END
