Coordinates from ORCA-job 4-MeOPhN2+~CF3COO-_B3LYPG-6-31G_dp-NX-Scan-d89-09-n800
 OpenBabel11261920413D

 24 23  0  0  0  0  0  0  0  0999 V2000
   -2.6614    0.1855   -1.0808 C   0  0  0  0  0  0  0  0  0  0  0  0
   -3.4800    0.3689   -2.2154 N   0  0  0  0  0  0  0  0  0  0  0  0
   -3.5629    0.7980   -3.2563 N   0  0  0  0  0  0  0  0  0  0  0  0
   -1.4546    0.9103   -1.0588 C   0  0  0  0  0  0  0  0  0  0  0  0
   -0.6061    0.7539    0.0182 C   0  0  0  0  0  0  0  0  0  0  0  0
   -0.9463   -0.1228    1.0702 C   0  0  0  0  0  0  0  0  0  0  0  0
   -0.0475   -0.1975    2.0710 O   0  0  0  0  0  0  0  0  0  0  0  0
   -0.3191   -1.0469    3.1851 C   0  0  0  0  0  0  0  0  0  0  0  0
   -2.1519   -0.8434    1.0235 C   0  0  0  0  0  0  0  0  0  0  0  0
   -3.0159   -0.6867   -0.0540 C   0  0  0  0  0  0  0  0  0  0  0  0
   -1.2081    1.5832   -1.8725 H   0  0  0  0  0  0  0  0  0  0  0  0
    0.3292    1.2983    0.0785 H   0  0  0  0  0  0  0  0  0  0  0  0
    0.5320   -0.9328    3.8570 H   0  0  0  0  0  0  0  0  0  0  0  0
   -0.4016   -2.0948    2.8750 H   0  0  0  0  0  0  0  0  0  0  0  0
   -1.2362   -0.7422    3.7020 H   0  0  0  0  0  0  0  0  0  0  0  0
   -2.4285   -1.5217    1.8207 H   0  0  0  0  0  0  0  0  0  0  0  0
   -3.9514   -1.2239   -0.1278 H   0  0  0  0  0  0  0  0  0  0  0  0
   -5.1942   -0.6170   -1.7866 O   0  0  0  0  0  0  0  0  0  0  0  0
   -5.9511    0.2677   -1.2349 C   0  0  0  0  0  0  0  0  0  0  0  0
   -5.6494    1.3780   -0.8120 O   0  0  0  0  0  0  0  0  0  0  0  0
   -7.4161   -0.2355   -1.0972 C   0  0  0  0  0  0  0  0  0  0  0  0
   -8.2329    0.7227   -0.6378 F   0  0  0  0  0  0  0  0  0  0  0  0
   -7.9034   -0.6680   -2.2771 F   0  0  0  0  0  0  0  0  0  0  0  0
   -7.4661   -1.2733   -0.2280 F   0  0  0  0  0  0  0  0  0  0  0  0
  1  4  2  0  0  0  0
  1 10  1  0  0  0  0
  2  1  1  0  0  0  0
  3  2  2  0  0  0  0
  4  5  1  0  0  0  0
  5 12  1  0  0  0  0
  5  6  2  0  0  0  0
  6  7  1  0  0  0  0
  7  8  1  0  0  0  0
  8 15  1  0  0  0  0
  8 13  1  0  0  0  0
  9  6  1  0  0  0  0
  9 16  1  0  0  0  0
 10  9  2  0  0  0  0
 11  4  1  0  0  0  0
 14  8  1  0  0  0  0
 17 10  1  0  0  0  0
 18 19  2  0  0  0  0
 19 21  1  0  0  0  0
 19 20  1  0  0  0  0
 21 22  1  0  0  0  0
 21 24  1  0  0  0  0
 23 21  1  0  0  0  0
M  RAD  2   3   2  20   2
M  END
