Coordinates from ORCA-job 4-MeOPhN2+~CF3COO-_B3LYPG-6-31G_dp-NX-Scan-d89-09-n800
 OpenBabel11261920413D

 24 23  0  0  0  0  0  0  0  0999 V2000
   -1.9489    2.0786   -1.4309 C   0  0  0  0  0  0  0  0  0  0  0  0
   -2.2526    3.0783   -2.2748 N   0  0  0  0  0  0  0  0  0  0  0  0
   -2.5223    3.9210   -2.9747 N   0  0  0  0  0  0  0  0  0  0  0  0
   -0.5914    1.6542   -1.3247 C   0  0  0  0  0  0  0  0  0  0  0  0
   -0.3021    0.6310   -0.4653 C   0  0  0  0  0  0  0  0  0  0  0  0
   -1.3377    0.0093    0.2993 C   0  0  0  0  0  0  0  0  0  0  0  0
   -0.9429   -0.9672    1.0834 O   0  0  0  0  0  0  0  0  0  0  0  0
   -1.9128   -1.6741    1.9144 C   0  0  0  0  0  0  0  0  0  0  0  0
   -2.6850    0.4481    0.1931 C   0  0  0  0  0  0  0  0  0  0  0  0
   -2.9889    1.4684   -0.6710 C   0  0  0  0  0  0  0  0  0  0  0  0
    0.1796    2.1368   -1.9146 H   0  0  0  0  0  0  0  0  0  0  0  0
    0.7120    0.2661   -0.3490 H   0  0  0  0  0  0  0  0  0  0  0  0
   -1.3376   -2.4742    2.3770 H   0  0  0  0  0  0  0  0  0  0  0  0
   -2.7490   -2.0619    1.3091 H   0  0  0  0  0  0  0  0  0  0  0  0
   -2.2918   -0.9890    2.6776 H   0  0  0  0  0  0  0  0  0  0  0  0
   -3.5387   -0.0121    0.7342 H   0  0  0  0  0  0  0  0  0  0  0  0
   -4.0186    1.7955   -0.7749 H   0  0  0  0  0  0  0  0  0  0  0  0
   -4.5024   -2.5412    0.5191 O   0  0  0  0  0  0  0  0  0  0  0  0
   -5.3649   -1.6561    0.6926 C   0  0  0  0  0  0  0  0  0  0  0  0
   -5.2351   -0.4532    1.0422 O   0  0  0  0  0  0  0  0  0  0  0  0
   -6.8404   -2.0645    0.4027 C   0  0  0  0  0  0  0  0  0  0  0  0
   -7.6734   -1.6700    1.3919 F   0  0  0  0  0  0  0  0  0  0  0  0
   -7.2741   -1.4721   -0.7417 F   0  0  0  0  0  0  0  0  0  0  0  0
   -7.0047   -3.3919    0.2469 F   0  0  0  0  0  0  0  0  0  0  0  0
  1  4  2  0  0  0  0
  1 10  1  0  0  0  0
  2  1  1  0  0  0  0
  3  2  1  0  0  0  0
  4  5  1  0  0  0  0
  5 12  1  0  0  0  0
  5  6  2  0  0  0  0
  6  7  1  0  0  0  0
  7  8  1  0  0  0  0
  8 13  1  0  0  0  0
  8 15  1  0  0  0  0
  9  6  1  0  0  0  0
  9 16  1  0  0  0  0
 10  9  2  0  0  0  0
 11  4  1  0  0  0  0
 14  8  1  0  0  0  0
 17 10  1  0  0  0  0
 18 19  2  0  0  0  0
 19 20  1  0  0  0  0
 21 19  1  0  0  0  0
 21 22  1  0  0  0  0
 23 21  1  0  0  0  0
 24 21  1  0  0  0  0
M  RAD  3   2   2   3   3  20   2
M  END
