Coordinates from ORCA-job 4-MeOPhN2+~CF3COO-_B3LYPG-6-31G_dp-NX-Scan-d89-09-n800
 OpenBabel11261920413D

 24 23  0  0  0  0  0  0  0  0999 V2000
   -1.8501   -1.2007    0.3986 C   0  0  0  0  0  0  0  0  0  0  0  0
   -2.0526   -2.4903    0.8747 N   0  0  0  0  0  0  0  0  0  0  0  0
   -2.7496   -3.3706    1.0905 N   0  0  0  0  0  0  0  0  0  0  0  0
   -0.5858   -0.6145    0.5824 C   0  0  0  0  0  0  0  0  0  0  0  0
   -0.3716    0.6683    0.1222 C   0  0  0  0  0  0  0  0  0  0  0  0
   -1.4108    1.3694   -0.5261 C   0  0  0  0  0  0  0  0  0  0  0  0
   -1.0984    2.6124   -0.9350 O   0  0  0  0  0  0  0  0  0  0  0  0
   -2.0924    3.4025   -1.5914 C   0  0  0  0  0  0  0  0  0  0  0  0
   -2.6687    0.7641   -0.7099 C   0  0  0  0  0  0  0  0  0  0  0  0
   -2.8974   -0.5244   -0.2501 C   0  0  0  0  0  0  0  0  0  0  0  0
    0.1989   -1.1686    1.0853 H   0  0  0  0  0  0  0  0  0  0  0  0
    0.5853    1.1618    0.2483 H   0  0  0  0  0  0  0  0  0  0  0  0
   -1.6094    4.3525   -1.8175 H   0  0  0  0  0  0  0  0  0  0  0  0
   -2.9540    3.5757   -0.9379 H   0  0  0  0  0  0  0  0  0  0  0  0
   -2.4228    2.9299   -2.5226 H   0  0  0  0  0  0  0  0  0  0  0  0
   -3.4733    1.2918   -1.2063 H   0  0  0  0  0  0  0  0  0  0  0  0
   -3.8535   -1.0222   -0.3751 H   0  0  0  0  0  0  0  0  0  0  0  0
   -4.6892   -2.8930    0.3184 O   0  0  0  0  0  0  0  0  0  0  0  0
   -5.2737   -2.5148    1.3954 C   0  0  0  0  0  0  0  0  0  0  0  0
   -4.8182   -2.3999    2.5293 O   0  0  0  0  0  0  0  0  0  0  0  0
   -6.7445   -2.0827    1.1238 C   0  0  0  0  0  0  0  0  0  0  0  0
   -7.4077   -1.7913    2.2514 F   0  0  0  0  0  0  0  0  0  0  0  0
   -6.7458   -0.9650    0.3474 F   0  0  0  0  0  0  0  0  0  0  0  0
   -7.4385   -3.0305    0.4661 F   0  0  0  0  0  0  0  0  0  0  0  0
  1  4  1  0  0  0  0
  1  2  1  0  0  0  0
  2  3  2  0  0  0  0
  4 11  1  0  0  0  0
  5 12  1  0  0  0  0
  5  4  2  0  0  0  0
  6  5  1  0  0  0  0
  7  6  1  0  0  0  0
  8 14  1  0  0  0  0
  8  7  1  0  0  0  0
  9  6  2  0  0  0  0
  9 10  1  0  0  0  0
 10  1  2  0  0  0  0
 13  8  1  0  0  0  0
 15  8  1  0  0  0  0
 16  9  1  0  0  0  0
 17 10  1  0  0  0  0
 18 19  2  0  0  0  0
 19 20  1  0  0  0  0
 21 19  1  0  0  0  0
 21 22  1  0  0  0  0
 23 21  1  0  0  0  0
 24 21  1  0  0  0  0
M  RAD  2   3   2  20   2
M  END
