Coordinates from ORCA-job 4-MeOPhN2+~CF3COO-_B3LYPG-6-31G_dp-NX-Scan-d89-09-n800
 OpenBabel11261920413D

 24 23  0  0  0  0  0  0  0  0999 V2000
   -2.4947    0.3162   -1.0888 C   0  0  0  0  0  0  0  0  0  0  0  0
   -3.3077    0.5755   -2.1784 N   0  0  0  0  0  0  0  0  0  0  0  0
   -3.7154    0.8603   -3.1811 N   0  0  0  0  0  0  0  0  0  0  0  0
   -1.1136    0.5668   -1.2660 C   0  0  0  0  0  0  0  0  0  0  0  0
   -0.2604    0.3263   -0.2136 C   0  0  0  0  0  0  0  0  0  0  0  0
   -0.7681   -0.1616    1.0138 C   0  0  0  0  0  0  0  0  0  0  0  0
    0.1519   -0.3602    1.9718 O   0  0  0  0  0  0  0  0  0  0  0  0
   -0.2664   -0.8454    3.2514 C   0  0  0  0  0  0  0  0  0  0  0  0
   -2.1449   -0.4031    1.1645 C   0  0  0  0  0  0  0  0  0  0  0  0
   -3.0241   -0.1670    0.1159 C   0  0  0  0  0  0  0  0  0  0  0  0
   -0.7424    0.9413   -2.2138 H   0  0  0  0  0  0  0  0  0  0  0  0
    0.8054    0.5047   -0.3007 H   0  0  0  0  0  0  0  0  0  0  0  0
    0.6422   -0.9155    3.8485 H   0  0  0  0  0  0  0  0  0  0  0  0
   -0.7274   -1.8351    3.1662 H   0  0  0  0  0  0  0  0  0  0  0  0
   -0.9666   -0.1497    3.7264 H   0  0  0  0  0  0  0  0  0  0  0  0
   -2.5472   -0.7773    2.0974 H   0  0  0  0  0  0  0  0  0  0  0  0
   -4.1011   -0.3513    0.2237 H   0  0  0  0  0  0  0  0  0  0  0  0
   -5.4005    0.1277   -1.6972 O   0  0  0  0  0  0  0  0  0  0  0  0
   -6.2370   -0.2823   -0.8350 C   0  0  0  0  0  0  0  0  0  0  0  0
   -6.0276   -0.6503    0.3306 O   0  0  0  0  0  0  0  0  0  0  0  0
   -7.7008   -0.3111   -1.3594 C   0  0  0  0  0  0  0  0  0  0  0  0
   -8.5734   -0.7258   -0.4263 F   0  0  0  0  0  0  0  0  0  0  0  0
   -8.0913    0.9185   -1.7664 F   0  0  0  0  0  0  0  0  0  0  0  0
   -7.8125   -1.1417   -2.4216 F   0  0  0  0  0  0  0  0  0  0  0  0
  1 10  1  0  0  0  0
  2  1  1  0  0  0  0
  3  2  1  0  0  0  0
  4  1  2  0  0  0  0
  4  5  1  0  0  0  0
  5  6  2  0  0  0  0
  6  9  1  0  0  0  0
  6  7  1  0  0  0  0
  7  8  1  0  0  0  0
  8 15  1  0  0  0  0
  8 13  1  0  0  0  0
  9 16  1  0  0  0  0
 10 17  1  0  0  0  0
 10  9  2  0  0  0  0
 11  4  1  0  0  0  0
 12  5  1  0  0  0  0
 14  8  1  0  0  0  0
 18 19  2  0  0  0  0
 19 20  1  0  0  0  0
 21 19  1  0  0  0  0
 21 22  1  0  0  0  0
 23 21  1  0  0  0  0
 24 21  1  0  0  0  0
M  RAD  3   2   2   3   3  20   2
M  END
