Coordinates from ORCA-job 4-MeOPhN2+~CF3COO-_B3LYPG-6-31G_dp-NX-Scan-d89-09-n800
 OpenBabel11261920413D

 24 23  0  0  0  0  0  0  0  0999 V2000
   -2.6156    0.3298   -1.0398 C   0  0  0  0  0  0  0  0  0  0  0  0
   -3.4359    0.5235   -2.1672 N   0  0  0  0  0  0  0  0  0  0  0  0
   -3.5343    0.7656   -3.2642 N   0  0  0  0  0  0  0  0  0  0  0  0
   -1.4022    1.0433   -1.0151 C   0  0  0  0  0  0  0  0  0  0  0  0
   -0.5537    0.8569    0.0575 C   0  0  0  0  0  0  0  0  0  0  0  0
   -0.8978   -0.0449    1.0875 C   0  0  0  0  0  0  0  0  0  0  0  0
    0.0027   -0.1493    2.0832 O   0  0  0  0  0  0  0  0  0  0  0  0
   -0.2646   -1.0337    3.1718 C   0  0  0  0  0  0  0  0  0  0  0  0
   -2.1072   -0.7604    1.0257 C   0  0  0  0  0  0  0  0  0  0  0  0
   -2.9815   -0.5658   -0.0362 C   0  0  0  0  0  0  0  0  0  0  0  0
   -1.1517    1.7308   -1.8157 H   0  0  0  0  0  0  0  0  0  0  0  0
    0.3852    1.3937    0.1293 H   0  0  0  0  0  0  0  0  0  0  0  0
    0.5893   -0.9403    3.8431 H   0  0  0  0  0  0  0  0  0  0  0  0
   -0.3485   -2.0710    2.8288 H   0  0  0  0  0  0  0  0  0  0  0  0
   -1.1796   -0.7454    3.7014 H   0  0  0  0  0  0  0  0  0  0  0  0
   -2.3778   -1.4664    1.8008 H   0  0  0  0  0  0  0  0  0  0  0  0
   -3.9152   -1.1172   -0.1431 H   0  0  0  0  0  0  0  0  0  0  0  0
   -5.5857   -1.5496   -1.1915 O   0  0  0  0  0  0  0  0  0  0  0  0
   -6.0139   -0.3898   -1.2058 C   0  0  0  0  0  0  0  0  0  0  0  0
   -5.3702    0.7073   -1.2585 O   0  0  0  0  0  0  0  0  0  0  0  0
   -7.5558   -0.1723   -1.1629 C   0  0  0  0  0  0  0  0  0  0  0  0
   -7.8993    0.6931   -0.1858 F   0  0  0  0  0  0  0  0  0  0  0  0
   -7.9900    0.3402   -2.3356 F   0  0  0  0  0  0  0  0  0  0  0  0
   -8.2205   -1.3181   -0.9457 F   0  0  0  0  0  0  0  0  0  0  0  0
  1  4  2  0  0  0  0
  1 10  1  0  0  0  0
  2  1  1  0  0  0  0
  3  2  2  0  0  0  0
  4  5  1  0  0  0  0
  5 12  1  0  0  0  0
  5  6  2  0  0  0  0
  6  7  1  0  0  0  0
  7  8  1  0  0  0  0
  8 15  1  0  0  0  0
  8 13  1  0  0  0  0
  9  6  1  0  0  0  0
  9 16  1  0  0  0  0
 10  9  2  0  0  0  0
 11  4  1  0  0  0  0
 14  8  1  0  0  0  0
 17 10  1  0  0  0  0
 19 18  1  0  0  0  0
 19 21  1  0  0  0  0
 20 19  2  0  0  0  0
 21 24  1  0  0  0  0
 21 22  1  0  0  0  0
 23 21  1  0  0  0  0
M  RAD  2   3   2  18   2
M  END
