Coordinates from ORCA-job 4-MeOPhN2+~CF3COO-_B3LYPG-6-31G_dp-NX-Scan-d89-09-n800
 OpenBabel11261920413D

 24 23  0  0  0  0  0  0  0  0999 V2000
   -1.9687    2.0566   -1.4287 C   0  0  0  0  0  0  0  0  0  0  0  0
   -2.2896    3.0382   -2.2872 N   0  0  0  0  0  0  0  0  0  0  0  0
   -2.5787    3.8642   -2.9989 N   0  0  0  0  0  0  0  0  0  0  0  0
   -0.6078    1.6427   -1.3282 C   0  0  0  0  0  0  0  0  0  0  0  0
   -0.3048    0.6314   -0.4593 C   0  0  0  0  0  0  0  0  0  0  0  0
   -1.3309    0.0096    0.3178 C   0  0  0  0  0  0  0  0  0  0  0  0
   -0.9270   -0.9635    1.1018 O   0  0  0  0  0  0  0  0  0  0  0  0
   -1.8956   -1.6809    1.9260 C   0  0  0  0  0  0  0  0  0  0  0  0
   -2.6801    0.4437    0.2222 C   0  0  0  0  0  0  0  0  0  0  0  0
   -2.9982    1.4517   -0.6508 C   0  0  0  0  0  0  0  0  0  0  0  0
    0.1551    2.1227   -1.9307 H   0  0  0  0  0  0  0  0  0  0  0  0
    0.7124    0.2735   -0.3481 H   0  0  0  0  0  0  0  0  0  0  0  0
   -1.3247   -2.4965    2.3660 H   0  0  0  0  0  0  0  0  0  0  0  0
   -2.7386   -2.0449    1.3159 H   0  0  0  0  0  0  0  0  0  0  0  0
   -2.2619   -1.0091    2.7073 H   0  0  0  0  0  0  0  0  0  0  0  0
   -3.5280   -0.0107    0.7752 H   0  0  0  0  0  0  0  0  0  0  0  0
   -4.0309    1.7712   -0.7476 H   0  0  0  0  0  0  0  0  0  0  0  0
   -4.4879   -2.4995    0.4984 O   0  0  0  0  0  0  0  0  0  0  0  0
   -5.3585   -1.6250    0.6861 C   0  0  0  0  0  0  0  0  0  0  0  0
   -5.2396   -0.4303    1.0661 O   0  0  0  0  0  0  0  0  0  0  0  0
   -6.8285   -2.0359    0.3727 C   0  0  0  0  0  0  0  0  0  0  0  0
   -7.6715   -1.6793    1.3677 F   0  0  0  0  0  0  0  0  0  0  0  0
   -7.2587   -1.4111   -0.7557 F   0  0  0  0  0  0  0  0  0  0  0  0
   -6.9810   -3.3590    0.1739 F   0  0  0  0  0  0  0  0  0  0  0  0
  1  4  2  0  0  0  0
  1 10  1  0  0  0  0
  2  1  1  0  0  0  0
  3  2  1  0  0  0  0
  4  5  1  0  0  0  0
  5 12  1  0  0  0  0
  5  6  2  0  0  0  0
  6  7  1  0  0  0  0
  7  8  1  0  0  0  0
  8 13  1  0  0  0  0
  8 15  1  0  0  0  0
  9  6  1  0  0  0  0
  9 16  1  0  0  0  0
 10  9  2  0  0  0  0
 11  4  1  0  0  0  0
 14  8  1  0  0  0  0
 17 10  1  0  0  0  0
 18 19  2  0  0  0  0
 19 20  1  0  0  0  0
 21 19  1  0  0  0  0
 21 22  1  0  0  0  0
 23 21  1  0  0  0  0
 24 21  1  0  0  0  0
M  RAD  3   2   2   3   3  20   2
M  END
