Coordinates from ORCA-job 4-MeOPhN2+~CF3COO-_B3LYPG-6-31G_dp-NX-Scan-d89-09-n800
 OpenBabel11261920413D

 24 24  0  0  0  0  0  0  0  0999 V2000
   -2.0231   -0.9839    0.6489 C   0  0  0  0  0  0  0  0  0  0  0  0
   -2.1343   -2.1974    1.3590 N   0  0  0  0  0  0  0  0  0  0  0  0
   -3.1282   -2.8551    1.6730 N   0  0  0  0  0  0  0  0  0  0  0  0
   -0.6764   -0.6458    0.3868 C   0  0  0  0  0  0  0  0  0  0  0  0
   -0.3404    0.5104   -0.2901 C   0  0  0  0  0  0  0  0  0  0  0  0
   -1.3536    1.3859   -0.7181 C   0  0  0  0  0  0  0  0  0  0  0  0
   -0.9353    2.4956   -1.3712 O   0  0  0  0  0  0  0  0  0  0  0  0
   -1.9070    3.4267   -1.8354 C   0  0  0  0  0  0  0  0  0  0  0  0
   -2.6969    1.0757   -0.4520 C   0  0  0  0  0  0  0  0  0  0  0  0
   -3.0330   -0.0967    0.2192 C   0  0  0  0  0  0  0  0  0  0  0  0
    0.0912   -1.3292    0.7333 H   0  0  0  0  0  0  0  0  0  0  0  0
    0.6925    0.7672   -0.4987 H   0  0  0  0  0  0  0  0  0  0  0  0
   -1.3464    4.2201   -2.3305 H   0  0  0  0  0  0  0  0  0  0  0  0
   -2.4823    3.8528   -1.0052 H   0  0  0  0  0  0  0  0  0  0  0  0
   -2.5936    2.9638   -2.5546 H   0  0  0  0  0  0  0  0  0  0  0  0
   -3.4917    1.7411   -0.7667 H   0  0  0  0  0  0  0  0  0  0  0  0
   -4.0744   -0.3033    0.4097 H   0  0  0  0  0  0  0  0  0  0  0  0
   -4.3255   -2.3112    1.2208 O   0  0  0  0  0  0  0  0  0  0  0  0
   -5.4347   -2.9676    1.6491 C   0  0  0  0  0  0  0  0  0  0  0  0
   -5.5092   -3.8764    2.4225 O   0  0  0  0  0  0  0  0  0  0  0  0
   -6.6568   -2.3455    0.9328 C   0  0  0  0  0  0  0  0  0  0  0  0
   -7.7865   -2.7560    1.5068 F   0  0  0  0  0  0  0  0  0  0  0  0
   -6.6126   -0.9973    0.9828 F   0  0  0  0  0  0  0  0  0  0  0  0
   -6.6653   -2.7139   -0.3604 F   0  0  0  0  0  0  0  0  0  0  0  0
  1  2  1  0  0  0  0
  2  3  1  0  0  0  0
  4  1  1  0  0  0  0
  4 11  1  0  0  0  0
  5  4  2  0  0  0  0
  6  9  2  0  0  0  0
  6  5  1  0  0  0  0
  7  6  1  0  0  0  0
  8  7  1  0  0  0  0
  8 14  1  0  0  0  0
  9 10  1  0  0  0  0
 10 17  1  0  0  0  0
 10  1  2  0  0  0  0
 12  5  1  0  0  0  0
 13  8  1  0  0  0  0
 15  8  1  0  0  0  0
 16  9  1  0  0  0  0
 18 19  1  0  0  0  0
 18  3  1  0  0  0  0
 19 20  2  0  0  0  0
 21 23  1  0  0  0  0
 21 22  1  0  0  0  0
 21 19  1  0  0  0  0
 24 21  1  0  0  0  0
M  RAD  2   2   2   3   2
M  END
