Coordinates from ORCA-job 4-MeOPhN2+~CF3COO-_B3LYPG-6-31G_dp-NX-Scan-d89-09-n800
 OpenBabel11261920413D

 24 23  0  0  0  0  0  0  0  0999 V2000
   -2.6047    1.6020   -1.2743 C   0  0  0  0  0  0  0  0  0  0  0  0
   -3.2513    2.3474   -2.1871 N   0  0  0  0  0  0  0  0  0  0  0  0
   -3.8179    2.9656   -2.9388 N   0  0  0  0  0  0  0  0  0  0  0  0
   -1.2836    1.1481   -1.5557 C   0  0  0  0  0  0  0  0  0  0  0  0
   -0.6916    0.2971   -0.6623 C   0  0  0  0  0  0  0  0  0  0  0  0
   -1.4020   -0.1368    0.4977 C   0  0  0  0  0  0  0  0  0  0  0  0
   -0.7953   -1.0486    1.2311 O   0  0  0  0  0  0  0  0  0  0  0  0
   -1.5335   -1.6930    2.3084 C   0  0  0  0  0  0  0  0  0  0  0  0
   -2.6787    0.3908    0.7985 C   0  0  0  0  0  0  0  0  0  0  0  0
   -3.2950    1.2375   -0.0876 C   0  0  0  0  0  0  0  0  0  0  0  0
   -0.7809    1.4572   -2.4652 H   0  0  0  0  0  0  0  0  0  0  0  0
    0.2999   -0.1027   -0.8398 H   0  0  0  0  0  0  0  0  0  0  0  0
   -0.8865   -2.5049    2.6369 H   0  0  0  0  0  0  0  0  0  0  0  0
   -2.4931   -2.0577    1.9179 H   0  0  0  0  0  0  0  0  0  0  0  0
   -1.6848   -0.9815    3.1256 H   0  0  0  0  0  0  0  0  0  0  0  0
   -3.2772    0.0589    1.6426 H   0  0  0  0  0  0  0  0  0  0  0  0
   -4.3202    1.5397    0.0905 H   0  0  0  0  0  0  0  0  0  0  0  0
   -4.1911   -2.1006    0.6272 O   0  0  0  0  0  0  0  0  0  0  0  0
   -5.1125   -1.2596    0.7169 C   0  0  0  0  0  0  0  0  0  0  0  0
   -5.3074   -0.3455    1.5520 O   0  0  0  0  0  0  0  0  0  0  0  0
   -6.1041   -1.2281   -0.4870 C   0  0  0  0  0  0  0  0  0  0  0  0
   -7.3771   -0.9818   -0.1246 F   0  0  0  0  0  0  0  0  0  0  0  0
   -5.7319   -0.1983   -1.3256 F   0  0  0  0  0  0  0  0  0  0  0  0
   -6.1029   -2.3453   -1.2354 F   0  0  0  0  0  0  0  0  0  0  0  0
  1 10  1  0  0  0  0
  2  1  1  0  0  0  0
  3  2  1  0  0  0  0
  4  1  2  0  0  0  0
  4  5  1  0  0  0  0
  5  6  2  0  0  0  0
  6  9  1  0  0  0  0
  6  7  1  0  0  0  0
  7  8  1  0  0  0  0
  8 13  1  0  0  0  0
  8 15  1  0  0  0  0
  9 16  1  0  0  0  0
 10 17  1  0  0  0  0
 10  9  2  0  0  0  0
 11  4  1  0  0  0  0
 12  5  1  0  0  0  0
 14  8  1  0  0  0  0
 18 19  2  0  0  0  0
 19 20  1  0  0  0  0
 21 22  1  0  0  0  0
 21 19  1  0  0  0  0
 23 21  1  0  0  0  0
 24 21  1  0  0  0  0
M  RAD  3   2   2   3   3  20   2
M  END
