Coordinates from ORCA-job 4-MeOPhN2+~CF3COO-_B3LYPG-6-31G_dp-NX-Scan-d89-09-n800
 OpenBabel11261920413D

 24 23  0  0  0  0  0  0  0  0999 V2000
   -2.6366    0.1927   -1.1105 C   0  0  0  0  0  0  0  0  0  0  0  0
   -3.4253    0.3744   -2.2641 N   0  0  0  0  0  0  0  0  0  0  0  0
   -3.4873    0.8070   -3.3048 N   0  0  0  0  0  0  0  0  0  0  0  0
   -1.4526    0.9544   -1.0439 C   0  0  0  0  0  0  0  0  0  0  0  0
   -0.6263    0.8001    0.0496 C   0  0  0  0  0  0  0  0  0  0  0  0
   -0.9636   -0.1112    1.0735 C   0  0  0  0  0  0  0  0  0  0  0  0
   -0.0869   -0.1813    2.0928 O   0  0  0  0  0  0  0  0  0  0  0  0
   -0.3561   -1.0654    3.1810 C   0  0  0  0  0  0  0  0  0  0  0  0
   -2.1451   -0.8670    0.9818 C   0  0  0  0  0  0  0  0  0  0  0  0
   -2.9887   -0.7127   -0.1115 C   0  0  0  0  0  0  0  0  0  0  0  0
   -1.2078    1.6534   -1.8358 H   0  0  0  0  0  0  0  0  0  0  0  0
    0.2896    1.3719    0.1447 H   0  0  0  0  0  0  0  0  0  0  0  0
    0.4755   -0.9400    3.8747 H   0  0  0  0  0  0  0  0  0  0  0  0
   -0.3976   -2.1075    2.8445 H   0  0  0  0  0  0  0  0  0  0  0  0
   -1.2940   -0.8021    3.6828 H   0  0  0  0  0  0  0  0  0  0  0  0
   -2.4192   -1.5710    1.7572 H   0  0  0  0  0  0  0  0  0  0  0  0
   -3.9105   -1.2687   -0.2209 H   0  0  0  0  0  0  0  0  0  0  0  0
   -5.2284   -0.7286   -1.7531 O   0  0  0  0  0  0  0  0  0  0  0  0
   -5.9412    0.2208   -1.2700 C   0  0  0  0  0  0  0  0  0  0  0  0
   -5.5997    1.3627   -0.9674 O   0  0  0  0  0  0  0  0  0  0  0  0
   -7.4138   -0.2174   -1.0243 C   0  0  0  0  0  0  0  0  0  0  0  0
   -8.1951    0.8137   -0.6700 F   0  0  0  0  0  0  0  0  0  0  0  0
   -7.9528   -0.7873   -2.1205 F   0  0  0  0  0  0  0  0  0  0  0  0
   -7.4602   -1.1308   -0.0239 F   0  0  0  0  0  0  0  0  0  0  0  0
  1  4  2  0  0  0  0
  1 10  1  0  0  0  0
  2  1  1  0  0  0  0
  3  2  2  0  0  0  0
  4  5  1  0  0  0  0
  5 12  1  0  0  0  0
  5  6  2  0  0  0  0
  6  7  1  0  0  0  0
  7  8  1  0  0  0  0
  8 15  1  0  0  0  0
  8 13  1  0  0  0  0
  9  6  1  0  0  0  0
  9 16  1  0  0  0  0
 10  9  2  0  0  0  0
 11  4  1  0  0  0  0
 14  8  1  0  0  0  0
 17 10  1  0  0  0  0
 18 19  2  0  0  0  0
 19 21  1  0  0  0  0
 19 20  1  0  0  0  0
 21 22  1  0  0  0  0
 21 24  1  0  0  0  0
 23 21  1  0  0  0  0
M  RAD  2   3   2  20   2
M  END
