Coordinates from ORCA-job 4-MeOPhN2+~CF3COO-_B3LYPG-6-31G_dp-NX-Scan-d89-09-n800
 OpenBabel11261920413D

 24 23  0  0  0  0  0  0  0  0999 V2000
   -2.6195    0.3226   -1.0394 C   0  0  0  0  0  0  0  0  0  0  0  0
   -3.4417    0.5122   -2.1666 N   0  0  0  0  0  0  0  0  0  0  0  0
   -3.5392    0.7439   -3.2660 N   0  0  0  0  0  0  0  0  0  0  0  0
   -1.4077    1.0383   -1.0162 C   0  0  0  0  0  0  0  0  0  0  0  0
   -0.5586    0.8554    0.0567 C   0  0  0  0  0  0  0  0  0  0  0  0
   -0.9007   -0.0449    1.0885 C   0  0  0  0  0  0  0  0  0  0  0  0
    0.0002   -0.1459    2.0842 O   0  0  0  0  0  0  0  0  0  0  0  0
   -0.2655   -1.0287    3.1744 C   0  0  0  0  0  0  0  0  0  0  0  0
   -2.1089   -0.7626    1.0283 C   0  0  0  0  0  0  0  0  0  0  0  0
   -2.9836   -0.5714   -0.0338 C   0  0  0  0  0  0  0  0  0  0  0  0
   -1.1587    1.7248   -1.8180 H   0  0  0  0  0  0  0  0  0  0  0  0
    0.3793    1.3940    0.1272 H   0  0  0  0  0  0  0  0  0  0  0  0
    0.5883   -0.9327    3.8455 H   0  0  0  0  0  0  0  0  0  0  0  0
   -0.3477   -2.0668    2.8335 H   0  0  0  0  0  0  0  0  0  0  0  0
   -1.1809   -0.7410    3.7037 H   0  0  0  0  0  0  0  0  0  0  0  0
   -2.3782   -1.4676    1.8048 H   0  0  0  0  0  0  0  0  0  0  0  0
   -3.9155   -1.1244   -0.1401 H   0  0  0  0  0  0  0  0  0  0  0  0
   -5.5737   -1.5370   -1.2462 O   0  0  0  0  0  0  0  0  0  0  0  0
   -6.0069   -0.3793   -1.2209 C   0  0  0  0  0  0  0  0  0  0  0  0
   -5.3661    0.7206   -1.2466 O   0  0  0  0  0  0  0  0  0  0  0  0
   -7.5489   -0.1689   -1.1578 C   0  0  0  0  0  0  0  0  0  0  0  0
   -7.8861    0.6760   -0.1608 F   0  0  0  0  0  0  0  0  0  0  0  0
   -7.9967    0.3645   -2.3159 F   0  0  0  0  0  0  0  0  0  0  0  0
   -8.2067   -1.3215   -0.9563 F   0  0  0  0  0  0  0  0  0  0  0  0
  1  4  2  0  0  0  0
  1 10  1  0  0  0  0
  2  1  1  0  0  0  0
  3  2  2  0  0  0  0
  4  5  1  0  0  0  0
  5 12  1  0  0  0  0
  5  6  2  0  0  0  0
  6  7  1  0  0  0  0
  7  8  1  0  0  0  0
  8 15  1  0  0  0  0
  8 13  1  0  0  0  0
  9  6  1  0  0  0  0
  9 16  1  0  0  0  0
 10  9  2  0  0  0  0
 11  4  1  0  0  0  0
 14  8  1  0  0  0  0
 17 10  1  0  0  0  0
 18 19  1  0  0  0  0
 19 21  1  0  0  0  0
 20 19  2  0  0  0  0
 21 24  1  0  0  0  0
 21 22  1  0  0  0  0
 23 21  1  0  0  0  0
M  RAD  2   3   2  18   2
M  END
