Coordinates from ORCA-job 4-MeOPhN2+~CF3COO-_B3LYPG-6-31G_dp-NX-Scan-d89-09-n800
 OpenBabel11261920413D

 24 23  0  0  0  0  0  0  0  0999 V2000
   -1.7853    2.2104   -1.4653 C   0  0  0  0  0  0  0  0  0  0  0  0
   -1.9916    3.2721   -2.2626 N   0  0  0  0  0  0  0  0  0  0  0  0
   -2.1662    4.1688   -2.9260 N   0  0  0  0  0  0  0  0  0  0  0  0
   -0.4432    1.8033   -1.2048 C   0  0  0  0  0  0  0  0  0  0  0  0
   -0.2437    0.7352   -0.3758 C   0  0  0  0  0  0  0  0  0  0  0  0
   -1.3535    0.0561    0.2165 C   0  0  0  0  0  0  0  0  0  0  0  0
   -1.0339   -0.9324    1.0182 O   0  0  0  0  0  0  0  0  0  0  0  0
   -2.0696   -1.6616    1.7441 C   0  0  0  0  0  0  0  0  0  0  0  0
   -2.6905    0.4569   -0.0622 C   0  0  0  0  0  0  0  0  0  0  0  0
   -2.9014    1.5260   -0.8970 C   0  0  0  0  0  0  0  0  0  0  0  0
    0.3860    2.3373   -1.6546 H   0  0  0  0  0  0  0  0  0  0  0  0
    0.7553    0.3861   -0.1414 H   0  0  0  0  0  0  0  0  0  0  0  0
   -1.5192   -2.3956    2.3300 H   0  0  0  0  0  0  0  0  0  0  0  0
   -2.7944   -2.1439    1.0710 H   0  0  0  0  0  0  0  0  0  0  0  0
   -2.6031   -0.9675    2.3982 H   0  0  0  0  0  0  0  0  0  0  0  0
   -3.5827   -0.0721    0.3495 H   0  0  0  0  0  0  0  0  0  0  0  0
   -3.9131    1.8459   -1.1247 H   0  0  0  0  0  0  0  0  0  0  0  0
   -4.6338   -2.8576    0.6686 O   0  0  0  0  0  0  0  0  0  0  0  0
   -5.4172   -1.8895    0.7119 C   0  0  0  0  0  0  0  0  0  0  0  0
   -5.1870   -0.6501    0.7595 O   0  0  0  0  0  0  0  0  0  0  0  0
   -6.9394   -2.2243    0.7060 C   0  0  0  0  0  0  0  0  0  0  0  0
   -7.5568   -1.7112    1.7971 F   0  0  0  0  0  0  0  0  0  0  0  0
   -7.5454   -1.6861   -0.3826 F   0  0  0  0  0  0  0  0  0  0  0  0
   -7.1941   -3.5464    0.6885 F   0  0  0  0  0  0  0  0  0  0  0  0
  1  4  2  0  0  0  0
  1 10  1  0  0  0  0
  2  1  1  0  0  0  0
  3  2  1  0  0  0  0
  4  5  1  0  0  0  0
  5 12  1  0  0  0  0
  5  6  2  0  0  0  0
  6  7  1  0  0  0  0
  7  8  1  0  0  0  0
  8 13  1  0  0  0  0
  8 15  1  0  0  0  0
  9  6  1  0  0  0  0
  9 16  1  0  0  0  0
 10  9  2  0  0  0  0
 11  4  1  0  0  0  0
 14  8  1  0  0  0  0
 17 10  1  0  0  0  0
 18 19  2  0  0  0  0
 19 20  1  0  0  0  0
 21 19  1  0  0  0  0
 21 22  1  0  0  0  0
 23 21  1  0  0  0  0
 24 21  1  0  0  0  0
M  RAD  3   2   2   3   3  20   2
M  END
