Coordinates from ORCA-job 4-MeOPhN2+~CF3COO-_B3LYPG-6-31G_dp-NX-Scan-d89-09-n800
 OpenBabel11261920413D

 24 23  0  0  0  0  0  0  0  0999 V2000
   -2.8964    1.7601   -0.9098 C   0  0  0  0  0  0  0  0  0  0  0  0
   -3.6859    2.5974   -1.5947 N   0  0  0  0  0  0  0  0  0  0  0  0
   -4.3812    3.2923   -2.1438 N   0  0  0  0  0  0  0  0  0  0  0  0
   -1.9532    0.9576   -1.6121 C   0  0  0  0  0  0  0  0  0  0  0  0
   -1.3061   -0.0279   -0.9209 C   0  0  0  0  0  0  0  0  0  0  0  0
   -1.6128   -0.2588    0.4534 C   0  0  0  0  0  0  0  0  0  0  0  0
   -1.0277   -1.3275    0.9880 O   0  0  0  0  0  0  0  0  0  0  0  0
   -1.5264   -1.8303    2.2478 C   0  0  0  0  0  0  0  0  0  0  0  0
   -2.4751    0.5986    1.1555 C   0  0  0  0  0  0  0  0  0  0  0  0
   -3.1737    1.5783    0.4738 C   0  0  0  0  0  0  0  0  0  0  0  0
   -1.7869    1.1137   -2.6718 H   0  0  0  0  0  0  0  0  0  0  0  0
   -0.6045   -0.6936   -1.4097 H   0  0  0  0  0  0  0  0  0  0  0  0
   -1.0458   -2.7991    2.3758 H   0  0  0  0  0  0  0  0  0  0  0  0
   -2.6144   -1.9313    2.1944 H   0  0  0  0  0  0  0  0  0  0  0  0
   -1.2332   -1.1659    3.0674 H   0  0  0  0  0  0  0  0  0  0  0  0
   -2.7190    0.4161    2.1905 H   0  0  0  0  0  0  0  0  0  0  0  0
   -3.8709    2.2269    0.9806 H   0  0  0  0  0  0  0  0  0  0  0  0
   -4.6506   -1.1172    1.3719 O   0  0  0  0  0  0  0  0  0  0  0  0
   -5.1115   -0.6185    0.3294 C   0  0  0  0  0  0  0  0  0  0  0  0
   -5.3293    0.5901    0.0391 O   0  0  0  0  0  0  0  0  0  0  0  0
   -5.3290   -1.5976   -0.8614 C   0  0  0  0  0  0  0  0  0  0  0  0
   -6.3744   -1.2613   -1.6439 F   0  0  0  0  0  0  0  0  0  0  0  0
   -4.2147   -1.5669   -1.6582 F   0  0  0  0  0  0  0  0  0  0  0  0
   -5.5012   -2.8755   -0.4795 F   0  0  0  0  0  0  0  0  0  0  0  0
  1 10  2  0  0  0  0
  2  1  1  0  0  0  0
  3  2  1  0  0  0  0
  4  5  2  0  0  0  0
  4  1  1  0  0  0  0
  5  6  1  0  0  0  0
  6  7  1  0  0  0  0
  6  9  2  0  0  0  0
  7  8  1  0  0  0  0
  8 13  1  0  0  0  0
  8 15  1  0  0  0  0
  9 16  1  0  0  0  0
 10 17  1  0  0  0  0
 10  9  1  0  0  0  0
 11  4  1  0  0  0  0
 12  5  1  0  0  0  0
 14  8  1  0  0  0  0
 19 18  1  0  0  0  0
 20 19  2  0  0  0  0
 21 24  1  0  0  0  0
 21 19  1  0  0  0  0
 22 21  1  0  0  0  0
 23 21  1  0  0  0  0
M  RAD  3   2   2   3   3  18   2
M  END
