Coordinates from ORCA-job 4-MeOPhN2+~CF3COO-_B3LYPG-6-31G_dp-NX-Scan-d89-09-n800
 OpenBabel11261920413D

 24 23  0  0  0  0  0  0  0  0999 V2000
   -2.5479    1.6526   -1.3068 C   0  0  0  0  0  0  0  0  0  0  0  0
   -3.1372    2.4656   -2.2009 N   0  0  0  0  0  0  0  0  0  0  0  0
   -3.6426    3.1498   -2.9395 N   0  0  0  0  0  0  0  0  0  0  0  0
   -1.2157    1.2075   -1.5513 C   0  0  0  0  0  0  0  0  0  0  0  0
   -0.6562    0.3280   -0.6651 C   0  0  0  0  0  0  0  0  0  0  0  0
   -1.4034   -0.1343    0.4608 C   0  0  0  0  0  0  0  0  0  0  0  0
   -0.8117   -1.0476    1.2025 O   0  0  0  0  0  0  0  0  0  0  0  0
   -1.5608   -1.6858    2.2775 C   0  0  0  0  0  0  0  0  0  0  0  0
   -2.6976    0.3732    0.7223 C   0  0  0  0  0  0  0  0  0  0  0  0
   -3.2867    1.2377   -0.1654 C   0  0  0  0  0  0  0  0  0  0  0  0
   -0.6774    1.5506   -2.4277 H   0  0  0  0  0  0  0  0  0  0  0  0
    0.3434   -0.0624   -0.8170 H   0  0  0  0  0  0  0  0  0  0  0  0
   -0.9183   -2.4985    2.6123 H   0  0  0  0  0  0  0  0  0  0  0  0
   -2.5232   -2.0491    1.8899 H   0  0  0  0  0  0  0  0  0  0  0  0
   -1.7119   -0.9685    3.0896 H   0  0  0  0  0  0  0  0  0  0  0  0
   -3.3247    0.0284    1.5435 H   0  0  0  0  0  0  0  0  0  0  0  0
   -4.3186    1.5320   -0.0114 H   0  0  0  0  0  0  0  0  0  0  0  0
   -4.2693   -2.1967    0.7338 O   0  0  0  0  0  0  0  0  0  0  0  0
   -5.1536   -1.3142    0.7779 C   0  0  0  0  0  0  0  0  0  0  0  0
   -5.2958   -0.3379    1.5529 O   0  0  0  0  0  0  0  0  0  0  0  0
   -6.1714   -1.3212   -0.4033 C   0  0  0  0  0  0  0  0  0  0  0  0
   -7.4319   -1.0398   -0.0200 F   0  0  0  0  0  0  0  0  0  0  0  0
   -5.8057   -0.3376   -1.2945 F   0  0  0  0  0  0  0  0  0  0  0  0
   -6.2053   -2.4719   -1.0983 F   0  0  0  0  0  0  0  0  0  0  0  0
  1 10  1  0  0  0  0
  2  1  1  0  0  0  0
  3  2  1  0  0  0  0
  4  1  2  0  0  0  0
  4  5  1  0  0  0  0
  5  6  2  0  0  0  0
  6  9  1  0  0  0  0
  6  7  1  0  0  0  0
  7  8  1  0  0  0  0
  8 13  1  0  0  0  0
  8 15  1  0  0  0  0
  9 16  1  0  0  0  0
 10 17  1  0  0  0  0
 10  9  2  0  0  0  0
 11  4  1  0  0  0  0
 12  5  1  0  0  0  0
 14  8  1  0  0  0  0
 18 19  2  0  0  0  0
 19 20  1  0  0  0  0
 21 22  1  0  0  0  0
 21 19  1  0  0  0  0
 23 21  1  0  0  0  0
 24 21  1  0  0  0  0
M  RAD  3   2   2   3   3  20   2
M  END
