Coordinates from ORCA-job 4-MeOPhN2+~CF3COO-_B3LYPG-6-31G_dp-NX-Scan-d89-09-n800
 OpenBabel11261920413D

 24 23  0  0  0  0  0  0  0  0999 V2000
   -2.0644    1.9808   -1.4064 C   0  0  0  0  0  0  0  0  0  0  0  0
   -2.4417    2.9227   -2.2863 N   0  0  0  0  0  0  0  0  0  0  0  0
   -2.7822    3.7138   -3.0142 N   0  0  0  0  0  0  0  0  0  0  0  0
   -0.7000    1.5678   -1.3743 C   0  0  0  0  0  0  0  0  0  0  0  0
   -0.3452    0.5844   -0.4925 C   0  0  0  0  0  0  0  0  0  0  0  0
   -1.3245   -0.0130    0.3599 C   0  0  0  0  0  0  0  0  0  0  0  0
   -0.8820   -0.9757    1.1372 O   0  0  0  0  0  0  0  0  0  0  0  0
   -1.8184   -1.6909    1.9997 C   0  0  0  0  0  0  0  0  0  0  0  0
   -2.6724    0.4309    0.3392 C   0  0  0  0  0  0  0  0  0  0  0  0
   -3.0443    1.4100   -0.5448 C   0  0  0  0  0  0  0  0  0  0  0  0
    0.0248    2.0241   -2.0391 H   0  0  0  0  0  0  0  0  0  0  0  0
    0.6760    0.2253   -0.4342 H   0  0  0  0  0  0  0  0  0  0  0  0
   -1.2365   -2.5155    2.4074 H   0  0  0  0  0  0  0  0  0  0  0  0
   -2.6854   -2.0378    1.4155 H   0  0  0  0  0  0  0  0  0  0  0  0
   -2.1439   -1.0232    2.8023 H   0  0  0  0  0  0  0  0  0  0  0  0
   -3.4875    0.0009    0.9486 H   0  0  0  0  0  0  0  0  0  0  0  0
   -4.0822    1.7241   -0.5866 H   0  0  0  0  0  0  0  0  0  0  0  0
   -4.4234   -2.3627    0.4774 O   0  0  0  0  0  0  0  0  0  0  0  0
   -5.3240   -1.5220    0.6837 C   0  0  0  0  0  0  0  0  0  0  0  0
   -5.2549   -0.3662    1.1764 O   0  0  0  0  0  0  0  0  0  0  0  0
   -6.7563   -1.9227    0.2194 C   0  0  0  0  0  0  0  0  0  0  0  0
   -7.6894   -1.6362    1.1535 F   0  0  0  0  0  0  0  0  0  0  0  0
   -7.0910   -1.2281   -0.9026 F   0  0  0  0  0  0  0  0  0  0  0  0
   -6.8748   -3.2308   -0.0772 F   0  0  0  0  0  0  0  0  0  0  0  0
  1  4  2  0  0  0  0
  1 10  1  0  0  0  0
  2  1  1  0  0  0  0
  3  2  1  0  0  0  0
  4  5  1  0  0  0  0
  5 12  1  0  0  0  0
  5  6  2  0  0  0  0
  6  7  1  0  0  0  0
  7  8  1  0  0  0  0
  8 13  1  0  0  0  0
  8 15  1  0  0  0  0
  9  6  1  0  0  0  0
  9 16  1  0  0  0  0
 10  9  2  0  0  0  0
 11  4  1  0  0  0  0
 14  8  1  0  0  0  0
 17 10  1  0  0  0  0
 18 19  2  0  0  0  0
 19 20  1  0  0  0  0
 21 19  1  0  0  0  0
 21 22  1  0  0  0  0
 23 21  1  0  0  0  0
 24 21  1  0  0  0  0
M  RAD  3   2   2   3   3  20   2
M  END
