Coordinates from ORCA-job 4-MeOPhN2+~CF3COO-_B3LYPG-6-31G_dp-NX-Scan-d89-09-n800
 OpenBabel11261920413D

 24 23  0  0  0  0  0  0  0  0999 V2000
   -2.6182    0.3249   -1.0396 C   0  0  0  0  0  0  0  0  0  0  0  0
   -3.4397    0.5159   -2.1669 N   0  0  0  0  0  0  0  0  0  0  0  0
   -3.5374    0.7510   -3.2655 N   0  0  0  0  0  0  0  0  0  0  0  0
   -1.4059    1.0399   -1.0158 C   0  0  0  0  0  0  0  0  0  0  0  0
   -0.5570    0.8560    0.0570 C   0  0  0  0  0  0  0  0  0  0  0  0
   -0.8998   -0.0449    1.0882 C   0  0  0  0  0  0  0  0  0  0  0  0
    0.0010   -0.1470    2.0839 O   0  0  0  0  0  0  0  0  0  0  0  0
   -0.2653   -1.0303    3.1736 C   0  0  0  0  0  0  0  0  0  0  0  0
   -2.1083   -0.7619    1.0274 C   0  0  0  0  0  0  0  0  0  0  0  0
   -2.9829   -0.5696   -0.0347 C   0  0  0  0  0  0  0  0  0  0  0  0
   -1.1565    1.7268   -1.8172 H   0  0  0  0  0  0  0  0  0  0  0  0
    0.3812    1.3940    0.1279 H   0  0  0  0  0  0  0  0  0  0  0  0
    0.5886   -0.9350    3.8447 H   0  0  0  0  0  0  0  0  0  0  0  0
   -0.3479   -2.0681    2.8320 H   0  0  0  0  0  0  0  0  0  0  0  0
   -1.1806   -0.7424    3.7029 H   0  0  0  0  0  0  0  0  0  0  0  0
   -2.3780   -1.4673    1.8034 H   0  0  0  0  0  0  0  0  0  0  0  0
   -3.9153   -1.1222   -0.1412 H   0  0  0  0  0  0  0  0  0  0  0  0
   -5.5777   -1.5415   -1.2284 O   0  0  0  0  0  0  0  0  0  0  0  0
   -6.0092   -0.3829   -1.2160 C   0  0  0  0  0  0  0  0  0  0  0  0
   -5.3673    0.7161   -1.2505 O   0  0  0  0  0  0  0  0  0  0  0  0
   -7.5512   -0.1699   -1.1594 C   0  0  0  0  0  0  0  0  0  0  0  0
   -7.8902    0.6816   -0.1686 F   0  0  0  0  0  0  0  0  0  0  0  0
   -7.9945    0.3569   -2.3222 F   0  0  0  0  0  0  0  0  0  0  0  0
   -8.2113   -1.3202   -0.9529 F   0  0  0  0  0  0  0  0  0  0  0  0
  1  4  2  0  0  0  0
  1 10  1  0  0  0  0
  2  1  1  0  0  0  0
  3  2  2  0  0  0  0
  4  5  1  0  0  0  0
  5 12  1  0  0  0  0
  5  6  2  0  0  0  0
  6  7  1  0  0  0  0
  7  8  1  0  0  0  0
  8 15  1  0  0  0  0
  8 13  1  0  0  0  0
  9  6  1  0  0  0  0
  9 16  1  0  0  0  0
 10  9  2  0  0  0  0
 11  4  1  0  0  0  0
 14  8  1  0  0  0  0
 17 10  1  0  0  0  0
 18 19  1  0  0  0  0
 19 21  1  0  0  0  0
 20 19  2  0  0  0  0
 21 24  1  0  0  0  0
 21 22  1  0  0  0  0
 23 21  1  0  0  0  0
M  RAD  2   3   2  18   2
M  END
