Coordinates from ORCA-job 4-MeOPhN2+~CF3COO-_B3LYPG-6-31G_dp-NX-Scan-d89-09-n800
 OpenBabel11261920413D

 24 23  0  0  0  0  0  0  0  0999 V2000
   -2.9523    1.5227   -0.8763 C   0  0  0  0  0  0  0  0  0  0  0  0
   -3.9049    2.1366   -1.5965 N   0  0  0  0  0  0  0  0  0  0  0  0
   -4.7368    2.6156   -2.1775 N   0  0  0  0  0  0  0  0  0  0  0  0
   -2.0189    0.6864   -1.5468 C   0  0  0  0  0  0  0  0  0  0  0  0
   -1.2669   -0.1755   -0.7959 C   0  0  0  0  0  0  0  0  0  0  0  0
   -1.4929   -0.2718    0.6061 C   0  0  0  0  0  0  0  0  0  0  0  0
   -0.8626   -1.2716    1.2169 O   0  0  0  0  0  0  0  0  0  0  0  0
   -1.3595   -1.7011    2.5026 C   0  0  0  0  0  0  0  0  0  0  0  0
   -2.3338    0.6408    1.2671 C   0  0  0  0  0  0  0  0  0  0  0  0
   -3.1042    1.5212    0.5366 C   0  0  0  0  0  0  0  0  0  0  0  0
   -1.9516    0.7054   -2.6286 H   0  0  0  0  0  0  0  0  0  0  0  0
   -0.5706   -0.8668   -1.2557 H   0  0  0  0  0  0  0  0  0  0  0  0
   -0.8862   -2.6650    2.6841 H   0  0  0  0  0  0  0  0  0  0  0  0
   -2.4470   -1.8041    2.4504 H   0  0  0  0  0  0  0  0  0  0  0  0
   -1.0629   -0.9965    3.2867 H   0  0  0  0  0  0  0  0  0  0  0  0
   -2.4762    0.5868    2.3372 H   0  0  0  0  0  0  0  0  0  0  0  0
   -3.7998    2.1943    1.0127 H   0  0  0  0  0  0  0  0  0  0  0  0
   -4.3412   -1.4423    0.8280 O   0  0  0  0  0  0  0  0  0  0  0  0
   -5.0324   -0.6689    0.1461 C   0  0  0  0  0  0  0  0  0  0  0  0
   -5.3579    0.5343    0.3426 O   0  0  0  0  0  0  0  0  0  0  0  0
   -5.5139   -1.2005   -1.2418 C   0  0  0  0  0  0  0  0  0  0  0  0
   -6.8294   -0.9935   -1.4503 F   0  0  0  0  0  0  0  0  0  0  0  0
   -4.8529   -0.5211   -2.2435 F   0  0  0  0  0  0  0  0  0  0  0  0
   -5.2688   -2.5056   -1.4423 F   0  0  0  0  0  0  0  0  0  0  0  0
  1 10  1  0  0  0  0
  2  1  1  0  0  0  0
  3  2  1  0  0  0  0
  4  1  2  0  0  0  0
  4  5  1  0  0  0  0
  5  6  2  0  0  0  0
  6  7  1  0  0  0  0
  6  9  1  0  0  0  0
  7  8  1  0  0  0  0
  8 13  1  0  0  0  0
  8 15  1  0  0  0  0
  9 16  1  0  0  0  0
 10 17  1  0  0  0  0
 10  9  2  0  0  0  0
 11  4  1  0  0  0  0
 12  5  1  0  0  0  0
 14  8  1  0  0  0  0
 19 20  2  0  0  0  0
 19 18  1  0  0  0  0
 21 19  1  0  0  0  0
 22 21  1  0  0  0  0
 23 21  1  0  0  0  0
 24 21  1  0  0  0  0
M  RAD  3   2   2   3   3  18   2
M  END
