Coordinates from ORCA-job 4-MeOPhN2+~CF3COO-_B3LYPG-6-31G_dp-NX-Scan-d89-09-n800
 OpenBabel11261920413D

 24 23  0  0  0  0  0  0  0  0999 V2000
   -2.6273    0.3102   -1.0373 C   0  0  0  0  0  0  0  0  0  0  0  0
   -3.4534    0.4933   -2.1631 N   0  0  0  0  0  0  0  0  0  0  0  0
   -3.5530    0.7052   -3.2661 N   0  0  0  0  0  0  0  0  0  0  0  0
   -1.4174    1.0281   -1.0184 C   0  0  0  0  0  0  0  0  0  0  0  0
   -0.5661    0.8508    0.0543 C   0  0  0  0  0  0  0  0  0  0  0  0
   -0.9052   -0.0456    1.0901 C   0  0  0  0  0  0  0  0  0  0  0  0
   -0.0024   -0.1416    2.0850 O   0  0  0  0  0  0  0  0  0  0  0  0
   -0.2654   -1.0205    3.1788 C   0  0  0  0  0  0  0  0  0  0  0  0
   -2.1125   -0.7653    1.0348 C   0  0  0  0  0  0  0  0  0  0  0  0
   -2.9885   -0.5794   -0.0270 C   0  0  0  0  0  0  0  0  0  0  0  0
   -1.1706    1.7120   -1.8231 H   0  0  0  0  0  0  0  0  0  0  0  0
    0.3711    1.3910    0.1209 H   0  0  0  0  0  0  0  0  0  0  0  0
    0.5894   -0.9211    3.8482 H   0  0  0  0  0  0  0  0  0  0  0  0
   -0.3469   -2.0601    2.8420 H   0  0  0  0  0  0  0  0  0  0  0  0
   -1.1803   -0.7319    3.7086 H   0  0  0  0  0  0  0  0  0  0  0  0
   -2.3796   -1.4674    1.8146 H   0  0  0  0  0  0  0  0  0  0  0  0
   -3.9184   -1.1337   -0.1304 H   0  0  0  0  0  0  0  0  0  0  0  0
   -5.5494   -1.5048   -1.3464 O   0  0  0  0  0  0  0  0  0  0  0  0
   -5.9946   -0.3553   -1.2471 C   0  0  0  0  0  0  0  0  0  0  0  0
   -5.3613    0.7485   -1.2203 O   0  0  0  0  0  0  0  0  0  0  0  0
   -7.5370   -0.1649   -1.1515 C   0  0  0  0  0  0  0  0  0  0  0  0
   -7.8679    0.6431   -0.1223 F   0  0  0  0  0  0  0  0  0  0  0  0
   -8.0087    0.4006   -2.2845 F   0  0  0  0  0  0  0  0  0  0  0  0
   -8.1784   -1.3312   -0.9778 F   0  0  0  0  0  0  0  0  0  0  0  0
  1  4  2  0  0  0  0
  1 10  1  0  0  0  0
  2  1  1  0  0  0  0
  3  2  2  0  0  0  0
  4  5  1  0  0  0  0
  5 12  1  0  0  0  0
  5  6  2  0  0  0  0
  6  7  1  0  0  0  0
  7  8  1  0  0  0  0
  8 15  1  0  0  0  0
  8 13  1  0  0  0  0
  9  6  1  0  0  0  0
  9 16  1  0  0  0  0
 10  9  2  0  0  0  0
 11  4  1  0  0  0  0
 14  8  1  0  0  0  0
 17 10  1  0  0  0  0
 18 19  2  0  0  0  0
 19 20  1  0  0  0  0
 19 21  1  0  0  0  0
 21 24  1  0  0  0  0
 21 22  1  0  0  0  0
 23 21  1  0  0  0  0
M  RAD  2   3   2  20   2
M  END
