Coordinates from ORCA-job 4-MeOPhN2+~CF3COO-_B3LYPG-6-31G_dp-NX-Scan-d89-09-n800
 OpenBabel11261920413D

 24 23  0  0  0  0  0  0  0  0999 V2000
   -2.1100    1.9567   -1.3886 C   0  0  0  0  0  0  0  0  0  0  0  0
   -2.5050    2.8980   -2.2614 N   0  0  0  0  0  0  0  0  0  0  0  0
   -2.8570    3.6915   -2.9811 N   0  0  0  0  0  0  0  0  0  0  0  0
   -0.7520    1.5222   -1.4054 C   0  0  0  0  0  0  0  0  0  0  0  0
   -0.3790    0.5396   -0.5303 C   0  0  0  0  0  0  0  0  0  0  0  0
   -1.3340   -0.0358    0.3639 C   0  0  0  0  0  0  0  0  0  0  0  0
   -0.8758   -0.9980    1.1329 O   0  0  0  0  0  0  0  0  0  0  0  0
   -1.7839   -1.6879    2.0436 C   0  0  0  0  0  0  0  0  0  0  0  0
   -2.6741    0.4292    0.3901 C   0  0  0  0  0  0  0  0  0  0  0  0
   -3.0654    1.4066   -0.4874 C   0  0  0  0  0  0  0  0  0  0  0  0
   -0.0461    1.9623   -2.1008 H   0  0  0  0  0  0  0  0  0  0  0  0
    0.6379    0.1647   -0.5084 H   0  0  0  0  0  0  0  0  0  0  0  0
   -1.1937   -2.5111    2.4423 H   0  0  0  0  0  0  0  0  0  0  0  0
   -2.6751   -2.0368    1.4991 H   0  0  0  0  0  0  0  0  0  0  0  0
   -2.0700   -1.0035    2.8472 H   0  0  0  0  0  0  0  0  0  0  0  0
   -3.4725    0.0104    1.0241 H   0  0  0  0  0  0  0  0  0  0  0  0
   -4.1010    1.7307   -0.4949 H   0  0  0  0  0  0  0  0  0  0  0  0
   -4.3869   -2.3015    0.4799 O   0  0  0  0  0  0  0  0  0  0  0  0
   -5.3064   -1.4789    0.6806 C   0  0  0  0  0  0  0  0  0  0  0  0
   -5.2702   -0.3396    1.2120 O   0  0  0  0  0  0  0  0  0  0  0  0
   -6.7117   -1.8822    0.1418 C   0  0  0  0  0  0  0  0  0  0  0  0
   -7.6971   -1.5823    1.0152 F   0  0  0  0  0  0  0  0  0  0  0  0
   -6.9784   -1.2006   -1.0069 F   0  0  0  0  0  0  0  0  0  0  0  0
   -6.8163   -3.1937   -0.1455 F   0  0  0  0  0  0  0  0  0  0  0  0
  1 10  1  0  0  0  0
  2  1  1  0  0  0  0
  3  2  1  0  0  0  0
  4  1  2  0  0  0  0
  4  5  1  0  0  0  0
  5 12  1  0  0  0  0
  5  6  2  0  0  0  0
  6  9  1  0  0  0  0
  6  7  1  0  0  0  0
  7  8  1  0  0  0  0
  8 13  1  0  0  0  0
  8 15  1  0  0  0  0
  9 16  1  0  0  0  0
 10  9  2  0  0  0  0
 11  4  1  0  0  0  0
 14  8  1  0  0  0  0
 17 10  1  0  0  0  0
 18 19  2  0  0  0  0
 19 20  1  0  0  0  0
 21 19  1  0  0  0  0
 21 22  1  0  0  0  0
 23 21  1  0  0  0  0
 24 21  1  0  0  0  0
M  RAD  3   2   2   3   3  20   2
M  END
