Coordinates from ORCA-job 4-MeOPhN2+~CF3COO-_B3LYPG-6-31G_dp-NX-Scan-d89-09-n800
 OpenBabel11261920413D

 24 24  0  0  0  0  0  0  0  0999 V2000
   -1.8919   -1.0281    0.4979 C   0  0  0  0  0  0  0  0  0  0  0  0
   -2.0914   -2.2691    1.1053 N   0  0  0  0  0  0  0  0  0  0  0  0
   -2.9223   -3.0302    1.4196 N   0  0  0  0  0  0  0  0  0  0  0  0
   -0.5542   -0.5953    0.4161 C   0  0  0  0  0  0  0  0  0  0  0  0
   -0.2585    0.6230   -0.1617 C   0  0  0  0  0  0  0  0  0  0  0  0
   -1.2970    1.4299   -0.6675 C   0  0  0  0  0  0  0  0  0  0  0  0
   -0.9088    2.6001   -1.2132 O   0  0  0  0  0  0  0  0  0  0  0  0
   -1.8974    3.4789   -1.7489 C   0  0  0  0  0  0  0  0  0  0  0  0
   -2.6325    0.9951   -0.5832 C   0  0  0  0  0  0  0  0  0  0  0  0
   -2.9370   -0.2303   -0.0048 C   0  0  0  0  0  0  0  0  0  0  0  0
    0.2306   -1.2299    0.8126 H   0  0  0  0  0  0  0  0  0  0  0  0
    0.7617    0.9819   -0.2379 H   0  0  0  0  0  0  0  0  0  0  0  0
   -1.3511    4.3458   -2.1201 H   0  0  0  0  0  0  0  0  0  0  0  0
   -2.6066    3.7972   -0.9769 H   0  0  0  0  0  0  0  0  0  0  0  0
   -2.4403    3.0088   -2.5765 H   0  0  0  0  0  0  0  0  0  0  0  0
   -3.4401    1.6049   -0.9680 H   0  0  0  0  0  0  0  0  0  0  0  0
   -3.9588   -0.5780    0.0683 H   0  0  0  0  0  0  0  0  0  0  0  0
   -4.5428   -2.4490    0.8571 O   0  0  0  0  0  0  0  0  0  0  0  0
   -5.5016   -2.8283    1.6613 C   0  0  0  0  0  0  0  0  0  0  0  0
   -5.4453   -3.4186    2.7178 O   0  0  0  0  0  0  0  0  0  0  0  0
   -6.8711   -2.3932    1.0620 C   0  0  0  0  0  0  0  0  0  0  0  0
   -7.8672   -2.5758    1.9346 F   0  0  0  0  0  0  0  0  0  0  0  0
   -6.8494   -1.0817    0.7211 F   0  0  0  0  0  0  0  0  0  0  0  0
   -7.1509   -3.0981   -0.0530 F   0  0  0  0  0  0  0  0  0  0  0  0
  1  2  1  0  0  0  0
  2  3  1  0  0  0  0
  4  1  1  0  0  0  0
  4 11  1  0  0  0  0
  5  4  2  0  0  0  0
  6  9  2  0  0  0  0
  6  5  1  0  0  0  0
  7  6  1  0  0  0  0
  8  7  1  0  0  0  0
  8 14  1  0  0  0  0
  9 10  1  0  0  0  0
 10 17  1  0  0  0  0
 10  1  2  0  0  0  0
 12  5  1  0  0  0  0
 13  8  1  0  0  0  0
 15  8  1  0  0  0  0
 16  9  1  0  0  0  0
 18  3  1  0  0  0  0
 18 19  1  0  0  0  0
 19 20  2  0  0  0  0
 21 19  1  0  0  0  0
 21 22  1  0  0  0  0
 23 21  1  0  0  0  0
 24 21  1  0  0  0  0
M  RAD  2   2   2   3   2
M  END
