Coordinates from ORCA-job 4-MeOPhN2+~CF3COO-_B3LYPG-6-31G_dp-NX-Scan-d89-09-n800
 OpenBabel11261920413D

 24 23  0  0  0  0  0  0  0  0999 V2000
   -1.8095    2.1893   -1.4609 C   0  0  0  0  0  0  0  0  0  0  0  0
   -2.0315    3.2415   -2.2665 N   0  0  0  0  0  0  0  0  0  0  0  0
   -2.2219    4.1295   -2.9369 N   0  0  0  0  0  0  0  0  0  0  0  0
   -0.4632    1.7828   -1.2227 C   0  0  0  0  0  0  0  0  0  0  0  0
   -0.2491    0.7217   -0.3882 C   0  0  0  0  0  0  0  0  0  0  0  0
   -1.3482    0.0485    0.2300 C   0  0  0  0  0  0  0  0  0  0  0  0
   -1.0153   -0.9381    1.0290 O   0  0  0  0  0  0  0  0  0  0  0  0
   -2.0400   -1.6641    1.7735 C   0  0  0  0  0  0  0  0  0  0  0  0
   -2.6891    0.4519   -0.0231 C   0  0  0  0  0  0  0  0  0  0  0  0
   -2.9151    1.5131   -0.8635 C   0  0  0  0  0  0  0  0  0  0  0  0
    0.3579    2.3111   -1.6936 H   0  0  0  0  0  0  0  0  0  0  0  0
    0.7539    0.3726   -0.1709 H   0  0  0  0  0  0  0  0  0  0  0  0
   -1.4844   -2.4198    2.3260 H   0  0  0  0  0  0  0  0  0  0  0  0
   -2.7949   -2.1187    1.1129 H   0  0  0  0  0  0  0  0  0  0  0  0
   -2.5357   -0.9737    2.4606 H   0  0  0  0  0  0  0  0  0  0  0  0
   -3.5778   -0.0676    0.4070 H   0  0  0  0  0  0  0  0  0  0  0  0
   -3.9312    1.8314   -1.0732 H   0  0  0  0  0  0  0  0  0  0  0  0
   -4.6162   -2.8011    0.6415 O   0  0  0  0  0  0  0  0  0  0  0  0
   -5.4143   -1.8459    0.7055 C   0  0  0  0  0  0  0  0  0  0  0  0
   -5.2012   -0.6064    0.7985 O   0  0  0  0  0  0  0  0  0  0  0  0
   -6.9309   -2.2018    0.6586 C   0  0  0  0  0  0  0  0  0  0  0  0
   -7.5833   -1.7119    1.7395 F   0  0  0  0  0  0  0  0  0  0  0  0
   -7.5163   -1.6577   -0.4386 F   0  0  0  0  0  0  0  0  0  0  0  0
   -7.1662   -3.5269    0.6174 F   0  0  0  0  0  0  0  0  0  0  0  0
  1  4  2  0  0  0  0
  1 10  1  0  0  0  0
  2  1  1  0  0  0  0
  3  2  1  0  0  0  0
  4  5  1  0  0  0  0
  5 12  1  0  0  0  0
  5  6  2  0  0  0  0
  6  7  1  0  0  0  0
  7  8  1  0  0  0  0
  8 13  1  0  0  0  0
  8 15  1  0  0  0  0
  9  6  1  0  0  0  0
  9 16  1  0  0  0  0
 10  9  2  0  0  0  0
 11  4  1  0  0  0  0
 14  8  1  0  0  0  0
 17 10  1  0  0  0  0
 18 19  2  0  0  0  0
 19 20  1  0  0  0  0
 21 19  1  0  0  0  0
 21 22  1  0  0  0  0
 23 21  1  0  0  0  0
 24 21  1  0  0  0  0
M  RAD  3   2   2   3   3  20   2
M  END
