Coordinates from ORCA-job 4-MeOPhN2+~CF3COO-_B3LYPG-6-31G_dp-NX-Scan-d89-09-n800
 OpenBabel11261920413D

 24 23  0  0  0  0  0  0  0  0999 V2000
   -2.1565    1.9099   -1.3800 C   0  0  0  0  0  0  0  0  0  0  0  0
   -2.5881    2.8095   -2.2792 N   0  0  0  0  0  0  0  0  0  0  0  0
   -2.9790    3.5629   -3.0214 N   0  0  0  0  0  0  0  0  0  0  0  0
   -0.7932    1.4944   -1.4111 C   0  0  0  0  0  0  0  0  0  0  0  0
   -0.3907    0.5380   -0.5196 C   0  0  0  0  0  0  0  0  0  0  0  0
   -1.3238   -0.0335    0.3993 C   0  0  0  0  0  0  0  0  0  0  0  0
   -0.8479   -0.9884    1.1679 O   0  0  0  0  0  0  0  0  0  0  0  0
   -1.7545   -1.7024    2.0618 C   0  0  0  0  0  0  0  0  0  0  0  0
   -2.6650    0.4244    0.4481 C   0  0  0  0  0  0  0  0  0  0  0  0
   -3.0860    1.3766   -0.4430 C   0  0  0  0  0  0  0  0  0  0  0  0
   -0.1068    1.9249   -2.1316 H   0  0  0  0  0  0  0  0  0  0  0  0
    0.6307    0.1749   -0.5097 H   0  0  0  0  0  0  0  0  0  0  0  0
   -1.1593   -2.5257    2.4530 H   0  0  0  0  0  0  0  0  0  0  0  0
   -2.6332   -2.0486    1.4974 H   0  0  0  0  0  0  0  0  0  0  0  0
   -2.0575   -1.0352    2.8735 H   0  0  0  0  0  0  0  0  0  0  0  0
   -3.4454    0.0146    1.1066 H   0  0  0  0  0  0  0  0  0  0  0  0
   -4.1256    1.6877   -0.4353 H   0  0  0  0  0  0  0  0  0  0  0  0
   -4.3514   -2.2273    0.4268 O   0  0  0  0  0  0  0  0  0  0  0  0
   -5.2825   -1.4287    0.6685 C   0  0  0  0  0  0  0  0  0  0  0  0
   -5.2649   -0.3253    1.2710 O   0  0  0  0  0  0  0  0  0  0  0  0
   -6.6750   -1.8094    0.0820 C   0  0  0  0  0  0  0  0  0  0  0  0
   -7.6798   -1.5586    0.9482 F   0  0  0  0  0  0  0  0  0  0  0  0
   -6.9208   -1.0702   -1.0359 F   0  0  0  0  0  0  0  0  0  0  0  0
   -6.7674   -3.1047   -0.2752 F   0  0  0  0  0  0  0  0  0  0  0  0
  1 10  1  0  0  0  0
  2  1  1  0  0  0  0
  3  2  1  0  0  0  0
  4  1  2  0  0  0  0
  4  5  1  0  0  0  0
  5 12  1  0  0  0  0
  5  6  2  0  0  0  0
  6  9  1  0  0  0  0
  6  7  1  0  0  0  0
  7  8  1  0  0  0  0
  8 13  1  0  0  0  0
  8 15  1  0  0  0  0
  9 16  1  0  0  0  0
 10 17  1  0  0  0  0
 10  9  2  0  0  0  0
 11  4  1  0  0  0  0
 14  8  1  0  0  0  0
 18 19  2  0  0  0  0
 19 20  1  0  0  0  0
 21 19  1  0  0  0  0
 21 22  1  0  0  0  0
 23 21  1  0  0  0  0
 24 21  1  0  0  0  0
M  RAD  3   2   2   3   3  20   2
M  END
