Coordinates from ORCA-job 4-MeOPhN2+~CF3COO-_B3LYPG-6-31G_dp-NX-Scan-d89-09-n800
 OpenBabel11261920413D

 24 23  0  0  0  0  0  0  0  0999 V2000
   -2.1137    1.9526   -1.3880 C   0  0  0  0  0  0  0  0  0  0  0  0
   -2.5123    2.8896   -2.2639 N   0  0  0  0  0  0  0  0  0  0  0  0
   -2.8689    3.6788   -2.9859 N   0  0  0  0  0  0  0  0  0  0  0  0
   -0.7551    1.5202   -1.4054 C   0  0  0  0  0  0  0  0  0  0  0  0
   -0.3796    0.5402   -0.5285 C   0  0  0  0  0  0  0  0  0  0  0  0
   -1.3328   -0.0351    0.3676 C   0  0  0  0  0  0  0  0  0  0  0  0
   -0.8731   -0.9967    1.1365 O   0  0  0  0  0  0  0  0  0  0  0  0
   -1.7817   -1.6895    2.0446 C   0  0  0  0  0  0  0  0  0  0  0  0
   -2.6731    0.4291    0.3954 C   0  0  0  0  0  0  0  0  0  0  0  0
   -3.0669    1.4039   -0.4837 C   0  0  0  0  0  0  0  0  0  0  0  0
   -0.0507    1.9595   -2.1030 H   0  0  0  0  0  0  0  0  0  0  0  0
    0.6379    0.1666   -0.5071 H   0  0  0  0  0  0  0  0  0  0  0  0
   -1.1916   -2.5138    2.4415 H   0  0  0  0  0  0  0  0  0  0  0  0
   -2.6718   -2.0368    1.4976 H   0  0  0  0  0  0  0  0  0  0  0  0
   -2.0689   -1.0077    2.8500 H   0  0  0  0  0  0  0  0  0  0  0  0
   -3.4705    0.0112    1.0312 H   0  0  0  0  0  0  0  0  0  0  0  0
   -4.1030    1.7267   -0.4902 H   0  0  0  0  0  0  0  0  0  0  0  0
   -4.3838   -2.2950    0.4740 O   0  0  0  0  0  0  0  0  0  0  0  0
   -5.3042   -1.4745    0.6793 C   0  0  0  0  0  0  0  0  0  0  0  0
   -5.2693   -0.3384    1.2174 O   0  0  0  0  0  0  0  0  0  0  0  0
   -6.7088   -1.8758    0.1371 C   0  0  0  0  0  0  0  0  0  0  0  0
   -7.6953   -1.5800    1.0105 F   0  0  0  0  0  0  0  0  0  0  0  0
   -6.9741   -1.1892   -1.0090 F   0  0  0  0  0  0  0  0  0  0  0  0
   -6.8125   -3.1861   -0.1561 F   0  0  0  0  0  0  0  0  0  0  0  0
  1 10  1  0  0  0  0
  2  1  1  0  0  0  0
  3  2  1  0  0  0  0
  4  1  2  0  0  0  0
  4  5  1  0  0  0  0
  5 12  1  0  0  0  0
  5  6  2  0  0  0  0
  6  9  1  0  0  0  0
  6  7  1  0  0  0  0
  7  8  1  0  0  0  0
  8 13  1  0  0  0  0
  8 15  1  0  0  0  0
  9 16  1  0  0  0  0
 10  9  2  0  0  0  0
 11  4  1  0  0  0  0
 14  8  1  0  0  0  0
 17 10  1  0  0  0  0
 18 19  2  0  0  0  0
 19 20  1  0  0  0  0
 21 19  1  0  0  0  0
 21 22  1  0  0  0  0
 23 21  1  0  0  0  0
 24 21  1  0  0  0  0
M  RAD  3   2   2   3   3  20   2
M  END
