Coordinates from ORCA-job 4-MeOPhN2+~CF3COO-_B3LYPG-6-31G_dp-NX-Scan-d89-09-n800
 OpenBabel11261920413D

 24 23  0  0  0  0  0  0  0  0999 V2000
   -1.7280   -0.1365   -0.0613 C   0  0  0  0  0  0  0  0  0  0  0  0
   -3.0677   -0.2847    0.0449 N   0  0  0  0  0  0  0  0  0  0  0  0
   -4.1930   -0.4090    0.1335 N   0  0  0  0  0  0  0  0  0  0  0  0
   -1.1752    1.1717   -0.1343 C   0  0  0  0  0  0  0  0  0  0  0  0
    0.1886    1.3031   -0.2428 C   0  0  0  0  0  0  0  0  0  0  0  0
    1.0278    0.1639   -0.2809 C   0  0  0  0  0  0  0  0  0  0  0  0
    2.3406    0.4204   -0.3883 O   0  0  0  0  0  0  0  0  0  0  0  0
    3.2697   -0.6656   -0.4342 C   0  0  0  0  0  0  0  0  0  0  0  0
    0.4658   -1.1281   -0.2067 C   0  0  0  0  0  0  0  0  0  0  0  0
   -0.9032   -1.2876   -0.0976 C   0  0  0  0  0  0  0  0  0  0  0  0
   -1.8241    2.0392   -0.1040 H   0  0  0  0  0  0  0  0  0  0  0  0
    0.6494    2.2828   -0.3011 H   0  0  0  0  0  0  0  0  0  0  0  0
    4.2532   -0.2058   -0.5210 H   0  0  0  0  0  0  0  0  0  0  0  0
    3.0860   -1.3047   -1.3050 H   0  0  0  0  0  0  0  0  0  0  0  0
    3.2241   -1.2620    0.4838 H   0  0  0  0  0  0  0  0  0  0  0  0
    1.0938   -2.0095   -0.2335 H   0  0  0  0  0  0  0  0  0  0  0  0
   -1.3467   -2.2751   -0.0399 H   0  0  0  0  0  0  0  0  0  0  0  0
  -12.8775   -1.1207    1.0322 O   0  0  0  0  0  0  0  0  0  0  0  0
  -11.6496   -1.0134    0.8932 C   0  0  0  0  0  0  0  0  0  0  0  0
  -10.6780   -1.7830    0.8475 O   0  0  0  0  0  0  0  0  0  0  0  0
  -11.2318    0.5321    0.7484 C   0  0  0  0  0  0  0  0  0  0  0  0
   -9.9176    0.7105    0.5082 F   0  0  0  0  0  0  0  0  0  0  0  0
  -11.9050    1.1188   -0.2621 F   0  0  0  0  0  0  0  0  0  0  0  0
  -11.5254    1.2031    1.8828 F   0  0  0  0  0  0  0  0  0  0  0  0
  1  2  1  0  0  0  0
  2  3  1  0  0  0  0
  4 11  1  0  0  0  0
  4  1  2  0  0  0  0
  5  4  1  0  0  0  0
  6  5  2  0  0  0  0
  6  9  1  0  0  0  0
  7  6  1  0  0  0  0
  8  7  1  0  0  0  0
  8 15  1  0  0  0  0
  9 10  2  0  0  0  0
 10  1  1  0  0  0  0
 10 17  1  0  0  0  0
 12  5  1  0  0  0  0
 13  8  1  0  0  0  0
 14  8  1  0  0  0  0
 16  9  1  0  0  0  0
 19 18  1  0  0  0  0
 20 19  2  0  0  0  0
 21 19  1  0  0  0  0
 21 24  1  0  0  0  0
 22 21  1  0  0  0  0
 23 21  1  0  0  0  0
M  RAD  3   2   2   3   3  18   2
M  END
