Coordinates from ORCA-job 4-MeOPhN2+~CF3COO-_B3LYPG-6-31G_dp-NX-Scan-d89-09-n800
 OpenBabel11261920413D

 24 23  0  0  0  0  0  0  0  0999 V2000
   -2.5745    0.6541   -0.9411 C   0  0  0  0  0  0  0  0  0  0  0  0
   -3.3991    1.0905   -1.9794 N   0  0  0  0  0  0  0  0  0  0  0  0
   -3.6139    1.6514   -2.9299 N   0  0  0  0  0  0  0  0  0  0  0  0
   -1.2359    1.1105   -1.0037 C   0  0  0  0  0  0  0  0  0  0  0  0
   -0.3600    0.7238   -0.0157 C   0  0  0  0  0  0  0  0  0  0  0  0
   -0.8014   -0.1140    1.0360 C   0  0  0  0  0  0  0  0  0  0  0  0
    0.1354   -0.4284    1.9461 O   0  0  0  0  0  0  0  0  0  0  0  0
   -0.2192   -1.2653    3.0503 C   0  0  0  0  0  0  0  0  0  0  0  0
   -2.1351   -0.5539    1.0736 C   0  0  0  0  0  0  0  0  0  0  0  0
   -3.0353   -0.1739    0.0852 C   0  0  0  0  0  0  0  0  0  0  0  0
   -0.9145    1.7523   -1.8171 H   0  0  0  0  0  0  0  0  0  0  0  0
    0.6735    1.0506   -0.0217 H   0  0  0  0  0  0  0  0  0  0  0  0
    0.6914   -1.3750    3.6389 H   0  0  0  0  0  0  0  0  0  0  0  0
   -0.5558   -2.2493    2.7078 H   0  0  0  0  0  0  0  0  0  0  0  0
   -0.9992   -0.7999    3.6626 H   0  0  0  0  0  0  0  0  0  0  0  0
   -2.4903   -1.1956    1.8703 H   0  0  0  0  0  0  0  0  0  0  0  0
   -4.0785   -0.5174    0.1151 H   0  0  0  0  0  0  0  0  0  0  0  0
   -5.8747   -1.0606    0.1186 O   0  0  0  0  0  0  0  0  0  0  0  0
   -6.1772   -0.4315   -0.9048 C   0  0  0  0  0  0  0  0  0  0  0  0
   -5.4587    0.2973   -1.6547 O   0  0  0  0  0  0  0  0  0  0  0  0
   -7.6543   -0.5125   -1.3957 C   0  0  0  0  0  0  0  0  0  0  0  0
   -8.2127    0.7173   -1.4430 F   0  0  0  0  0  0  0  0  0  0  0  0
   -7.7170   -1.0355   -2.6406 F   0  0  0  0  0  0  0  0  0  0  0  0
   -8.4168   -1.2751   -0.5952 F   0  0  0  0  0  0  0  0  0  0  0  0
  1 10  1  0  0  0  0
  2  1  1  0  0  0  0
  3  2  2  0  0  0  0
  4  1  2  0  0  0  0
  4  5  1  0  0  0  0
  5  6  2  0  0  0  0
  6  9  1  0  0  0  0
  6  7  1  0  0  0  0
  7  8  1  0  0  0  0
  8 13  1  0  0  0  0
  8 15  1  0  0  0  0
  9 16  1  0  0  0  0
 10 17  1  0  0  0  0
 10  9  2  0  0  0  0
 11  4  1  0  0  0  0
 12  5  1  0  0  0  0
 14  8  1  0  0  0  0
 19 18  1  0  0  0  0
 20 19  2  0  0  0  0
 21 19  1  0  0  0  0
 21 24  1  0  0  0  0
 22 21  1  0  0  0  0
 23 21  1  0  0  0  0
M  RAD  2   3   2  18   2
M  END
