Coordinates from ORCA-job 4-MeOPhN2+~CF3COO-_B3LYPG-6-31G_dp-NX-Scan-d89-09-n800
 OpenBabel11261920413D

 24 23  0  0  0  0  0  0  0  0999 V2000
   -1.7362    2.2604   -1.4721 C   0  0  0  0  0  0  0  0  0  0  0  0
   -1.9062    3.3460   -2.2466 N   0  0  0  0  0  0  0  0  0  0  0  0
   -2.0380    4.2644   -2.8903 N   0  0  0  0  0  0  0  0  0  0  0  0
   -0.4048    1.8449   -1.1718 C   0  0  0  0  0  0  0  0  0  0  0  0
   -0.2364    0.7596   -0.3589 C   0  0  0  0  0  0  0  0  0  0  0  0
   -1.3667    0.0718    0.1820 C   0  0  0  0  0  0  0  0  0  0  0  0
   -1.0746   -0.9231    0.9853 O   0  0  0  0  0  0  0  0  0  0  0  0
   -2.1286   -1.6560    1.6808 C   0  0  0  0  0  0  0  0  0  0  0  0
   -2.6938    0.4737   -0.1446 C   0  0  0  0  0  0  0  0  0  0  0  0
   -2.8729    1.5617   -0.9633 C   0  0  0  0  0  0  0  0  0  0  0  0
    0.4407    2.3876   -1.5790 H   0  0  0  0  0  0  0  0  0  0  0  0
    0.7533    0.4053   -0.0943 H   0  0  0  0  0  0  0  0  0  0  0  0
   -1.5913   -2.3427    2.3326 H   0  0  0  0  0  0  0  0  0  0  0  0
   -2.7939   -2.1963    0.9936 H   0  0  0  0  0  0  0  0  0  0  0  0
   -2.7319   -0.9565    2.2632 H   0  0  0  0  0  0  0  0  0  0  0  0
   -3.5898   -0.0754    0.2276 H   0  0  0  0  0  0  0  0  0  0  0  0
   -3.8742    1.8889   -1.2240 H   0  0  0  0  0  0  0  0  0  0  0  0
   -4.6753   -2.9853    0.7950 O   0  0  0  0  0  0  0  0  0  0  0  0
   -5.4254   -1.9920    0.7417 C   0  0  0  0  0  0  0  0  0  0  0  0
   -5.1587   -0.7618    0.6558 O   0  0  0  0  0  0  0  0  0  0  0  0
   -6.9579   -2.2739    0.7988 C   0  0  0  0  0  0  0  0  0  0  0  0
   -7.5171   -1.6947    1.8899 F   0  0  0  0  0  0  0  0  0  0  0  0
   -7.5870   -1.7609   -0.2878 F   0  0  0  0  0  0  0  0  0  0  0  0
   -7.2570   -3.5858    0.8482 F   0  0  0  0  0  0  0  0  0  0  0  0
  1  4  2  0  0  0  0
  1 10  1  0  0  0  0
  2  1  1  0  0  0  0
  3  2  1  0  0  0  0
  4  5  1  0  0  0  0
  5 12  1  0  0  0  0
  5  6  2  0  0  0  0
  6  7  1  0  0  0  0
  7  8  1  0  0  0  0
  8 15  1  0  0  0  0
  8 13  1  0  0  0  0
  9  6  1  0  0  0  0
  9 16  1  0  0  0  0
 10  9  2  0  0  0  0
 11  4  1  0  0  0  0
 14  8  1  0  0  0  0
 17 10  1  0  0  0  0
 19 18  1  0  0  0  0
 19 21  1  0  0  0  0
 20 19  2  0  0  0  0
 21 24  1  0  0  0  0
 21 22  1  0  0  0  0
 23 21  1  0  0  0  0
M  RAD  3   2   2   3   3  18   2
M  END
