Coordinates from ORCA-job 4-MeOPhN2+~CF3COO-_B3LYPG-6-31G_dp-NX-Scan-d89-09-n800
 OpenBabel11261920413D

 24 23  0  0  0  0  0  0  0  0999 V2000
   -2.6329    0.1943   -1.1132 C   0  0  0  0  0  0  0  0  0  0  0  0
   -3.4178    0.3757   -2.2685 N   0  0  0  0  0  0  0  0  0  0  0  0
   -3.4823    0.8061   -3.3098 N   0  0  0  0  0  0  0  0  0  0  0  0
   -1.4523    0.9612   -1.0413 C   0  0  0  0  0  0  0  0  0  0  0  0
   -0.6285    0.8072    0.0540 C   0  0  0  0  0  0  0  0  0  0  0  0
   -0.9647   -0.1088    1.0743 C   0  0  0  0  0  0  0  0  0  0  0  0
   -0.0906   -0.1781    2.0956 O   0  0  0  0  0  0  0  0  0  0  0  0
   -0.3587   -1.0667    3.1805 C   0  0  0  0  0  0  0  0  0  0  0  0
   -2.1428   -0.8695    0.9770 C   0  0  0  0  0  0  0  0  0  0  0  0
   -2.9841   -0.7155   -0.1179 C   0  0  0  0  0  0  0  0  0  0  0  0
   -1.2084    1.6637   -1.8304 H   0  0  0  0  0  0  0  0  0  0  0  0
    0.2846    1.3827    0.1534 H   0  0  0  0  0  0  0  0  0  0  0  0
    0.4706   -0.9397    3.8767 H   0  0  0  0  0  0  0  0  0  0  0  0
   -0.3947   -2.1079    2.8407 H   0  0  0  0  0  0  0  0  0  0  0  0
   -1.2990   -0.8090    3.6806 H   0  0  0  0  0  0  0  0  0  0  0  0
   -2.4159   -1.5770    1.7497 H   0  0  0  0  0  0  0  0  0  0  0  0
   -3.9042   -1.2738   -0.2325 H   0  0  0  0  0  0  0  0  0  0  0  0
   -5.2370   -0.7547   -1.7443 O   0  0  0  0  0  0  0  0  0  0  0  0
   -5.9394    0.2058   -1.2718 C   0  0  0  0  0  0  0  0  0  0  0  0
   -5.5866    1.3489   -0.9835 O   0  0  0  0  0  0  0  0  0  0  0  0
   -7.4166   -0.2127   -1.0181 C   0  0  0  0  0  0  0  0  0  0  0  0
   -8.1861    0.8307   -0.6731 F   0  0  0  0  0  0  0  0  0  0  0  0
   -7.9642   -0.7876   -2.1076 F   0  0  0  0  0  0  0  0  0  0  0  0
   -7.4721   -1.1152   -0.0084 F   0  0  0  0  0  0  0  0  0  0  0  0
  1  4  2  0  0  0  0
  1 10  1  0  0  0  0
  2  1  1  0  0  0  0
  3  2  2  0  0  0  0
  4  5  1  0  0  0  0
  5 12  1  0  0  0  0
  5  6  2  0  0  0  0
  6  7  1  0  0  0  0
  7  8  1  0  0  0  0
  8 15  1  0  0  0  0
  8 13  1  0  0  0  0
  9  6  1  0  0  0  0
  9 16  1  0  0  0  0
 10  9  2  0  0  0  0
 11  4  1  0  0  0  0
 14  8  1  0  0  0  0
 17 10  1  0  0  0  0
 18 19  2  0  0  0  0
 19 21  1  0  0  0  0
 19 20  1  0  0  0  0
 21 22  1  0  0  0  0
 21 24  1  0  0  0  0
 23 21  1  0  0  0  0
M  RAD  2   3   2  20   2
M  END
