Coordinates from ORCA-job 4-MeOPhN2+~CF3COO-_B3LYPG-6-31G_dp-NX-Scan-d89-09-n800
 OpenBabel11261920413D

 24 23  0  0  0  0  0  0  0  0999 V2000
   -2.9466    1.5870   -0.9024 C   0  0  0  0  0  0  0  0  0  0  0  0
   -3.8023    2.3220   -1.6249 N   0  0  0  0  0  0  0  0  0  0  0  0
   -4.5407    2.9300   -2.2171 N   0  0  0  0  0  0  0  0  0  0  0  0
   -2.0269    0.7357   -1.5774 C   0  0  0  0  0  0  0  0  0  0  0  0
   -1.3201   -0.1695   -0.8365 C   0  0  0  0  0  0  0  0  0  0  0  0
   -1.5607   -0.2862    0.5642 C   0  0  0  0  0  0  0  0  0  0  0  0
   -0.9407   -1.2997    1.1612 O   0  0  0  0  0  0  0  0  0  0  0  0
   -1.4118   -1.7193    2.4601 C   0  0  0  0  0  0  0  0  0  0  0  0
   -2.3959    0.6254    1.2307 C   0  0  0  0  0  0  0  0  0  0  0  0
   -3.1402    1.5355    0.5063 C   0  0  0  0  0  0  0  0  0  0  0  0
   -1.9286    0.7891   -2.6557 H   0  0  0  0  0  0  0  0  0  0  0  0
   -0.6340   -0.8679   -1.3009 H   0  0  0  0  0  0  0  0  0  0  0  0
   -0.9386   -2.6842    2.6364 H   0  0  0  0  0  0  0  0  0  0  0  0
   -2.5006   -1.8156    2.4319 H   0  0  0  0  0  0  0  0  0  0  0  0
   -1.0927   -1.0105    3.2316 H   0  0  0  0  0  0  0  0  0  0  0  0
   -2.5651    0.5455    2.2947 H   0  0  0  0  0  0  0  0  0  0  0  0
   -3.8166    2.2231    0.9896 H   0  0  0  0  0  0  0  0  0  0  0  0
   -4.3753   -1.4568    0.9884 O   0  0  0  0  0  0  0  0  0  0  0  0
   -5.0132   -0.7106    0.2267 C   0  0  0  0  0  0  0  0  0  0  0  0
   -5.3207    0.5084    0.3419 O   0  0  0  0  0  0  0  0  0  0  0  0
   -5.4446   -1.3076   -1.1493 C   0  0  0  0  0  0  0  0  0  0  0  0
   -6.7632   -1.1514   -1.3864 F   0  0  0  0  0  0  0  0  0  0  0  0
   -4.7873   -0.6497   -2.1614 F   0  0  0  0  0  0  0  0  0  0  0  0
   -5.1570   -2.6127   -1.2896 F   0  0  0  0  0  0  0  0  0  0  0  0
  1 10  1  0  0  0  0
  2  1  1  0  0  0  0
  3  2  1  0  0  0  0
  4  1  2  0  0  0  0
  4  5  1  0  0  0  0
  5  6  2  0  0  0  0
  6  7  1  0  0  0  0
  6  9  1  0  0  0  0
  7  8  1  0  0  0  0
  8 13  1  0  0  0  0
  8 15  1  0  0  0  0
  9 16  1  0  0  0  0
 10 17  1  0  0  0  0
 10  9  2  0  0  0  0
 11  4  1  0  0  0  0
 12  5  1  0  0  0  0
 14  8  1  0  0  0  0
 19 20  2  0  0  0  0
 19 18  1  0  0  0  0
 21 19  1  0  0  0  0
 22 21  1  0  0  0  0
 23 21  1  0  0  0  0
 24 21  1  0  0  0  0
M  RAD  3   2   2   3   3  18   2
M  END
