Coordinates from ORCA-job 4-MeOPhN2+~CF3COO-_B3LYPG-6-31G_dp-NX-Scan-d89-09-n800
 OpenBabel11261920413D

 24 24  0  0  0  0  0  0  0  0999 V2000
   -2.0608   -0.9748    0.7178 C   0  0  0  0  0  0  0  0  0  0  0  0
   -2.1531   -2.1727    1.4764 N   0  0  0  0  0  0  0  0  0  0  0  0
   -3.2321   -2.7805    1.7332 N   0  0  0  0  0  0  0  0  0  0  0  0
   -0.7209   -0.6720    0.3848 C   0  0  0  0  0  0  0  0  0  0  0  0
   -0.3852    0.4588   -0.3350 C   0  0  0  0  0  0  0  0  0  0  0  0
   -1.3904    1.3554   -0.7348 C   0  0  0  0  0  0  0  0  0  0  0  0
   -0.9708    2.4412   -1.4343 O   0  0  0  0  0  0  0  0  0  0  0  0
   -1.9384    3.3885   -1.8658 C   0  0  0  0  0  0  0  0  0  0  0  0
   -2.7244    1.0902   -0.3962 C   0  0  0  0  0  0  0  0  0  0  0  0
   -3.0588   -0.0624    0.3150 C   0  0  0  0  0  0  0  0  0  0  0  0
    0.0441   -1.3670    0.7143 H   0  0  0  0  0  0  0  0  0  0  0  0
    0.6441    0.6803   -0.5964 H   0  0  0  0  0  0  0  0  0  0  0  0
   -1.3849    4.1570   -2.4070 H   0  0  0  0  0  0  0  0  0  0  0  0
   -2.4588    3.8480   -1.0168 H   0  0  0  0  0  0  0  0  0  0  0  0
   -2.6765    2.9326   -2.5377 H   0  0  0  0  0  0  0  0  0  0  0  0
   -3.5157    1.7724   -0.6834 H   0  0  0  0  0  0  0  0  0  0  0  0
   -4.0986   -0.2201    0.5574 H   0  0  0  0  0  0  0  0  0  0  0  0
   -4.2172   -2.3388    1.3078 O   0  0  0  0  0  0  0  0  0  0  0  0
   -5.4104   -3.0092    1.6208 C   0  0  0  0  0  0  0  0  0  0  0  0
   -5.5149   -3.9615    2.3242 O   0  0  0  0  0  0  0  0  0  0  0  0
   -6.5485   -2.2909    0.8739 C   0  0  0  0  0  0  0  0  0  0  0  0
   -7.7212   -2.8007    1.2404 F   0  0  0  0  0  0  0  0  0  0  0  0
   -6.5365   -0.9731    1.1544 F   0  0  0  0  0  0  0  0  0  0  0  0
   -6.3940   -2.4407   -0.4511 F   0  0  0  0  0  0  0  0  0  0  0  0
  1  2  1  0  0  0  0
  2  3  2  0  0  0  0
  4 11  1  0  0  0  0
  4  1  1  0  0  0  0
  5  4  2  0  0  0  0
  6  9  2  0  0  0  0
  6  5  1  0  0  0  0
  7  6  1  0  0  0  0
  8  7  1  0  0  0  0
  8 14  1  0  0  0  0
  9 10  1  0  0  0  0
 10 17  1  0  0  0  0
 10  1  2  0  0  0  0
 12  5  1  0  0  0  0
 13  8  1  0  0  0  0
 15  8  1  0  0  0  0
 16  9  1  0  0  0  0
 18 19  1  0  0  0  0
 18  3  1  0  0  0  0
 19 20  2  0  0  0  0
 21 23  1  0  0  0  0
 21 22  1  0  0  0  0
 21 19  1  0  0  0  0
 24 21  1  0  0  0  0
M  END
