Coordinates from ORCA-job 4-MeOPhN2+~CF3COO-_B3LYPG-6-31G_dp-NX-Scan-d89-09-n800
 OpenBabel11261920413D

 24 23  0  0  0  0  0  0  0  0999 V2000
   -2.1305    1.9355   -1.3849 C   0  0  0  0  0  0  0  0  0  0  0  0
   -2.5429    2.8566   -2.2711 N   0  0  0  0  0  0  0  0  0  0  0  0
   -2.9147    3.6304   -3.0022 N   0  0  0  0  0  0  0  0  0  0  0  0
   -0.7698    1.5106   -1.4070 C   0  0  0  0  0  0  0  0  0  0  0  0
   -0.3833    0.5404   -0.5236 C   0  0  0  0  0  0  0  0  0  0  0  0
   -1.3287   -0.0338    0.3812 C   0  0  0  0  0  0  0  0  0  0  0  0
   -0.8626   -0.9927    1.1501 O   0  0  0  0  0  0  0  0  0  0  0  0
   -1.7714   -1.6955    2.0505 C   0  0  0  0  0  0  0  0  0  0  0  0
   -2.6696    0.4275    0.4171 C   0  0  0  0  0  0  0  0  0  0  0  0
   -3.0743    1.3930   -0.4674 C   0  0  0  0  0  0  0  0  0  0  0  0
   -0.0725    1.9465   -2.1138 H   0  0  0  0  0  0  0  0  0  0  0  0
    0.6359    0.1715   -0.5063 H   0  0  0  0  0  0  0  0  0  0  0  0
   -1.1799   -2.5203    2.4441 H   0  0  0  0  0  0  0  0  0  0  0  0
   -2.6565   -2.0409    1.4948 H   0  0  0  0  0  0  0  0  0  0  0  0
   -2.0655   -1.0209    2.8594 H   0  0  0  0  0  0  0  0  0  0  0  0
   -3.4605    0.0132    1.0619 H   0  0  0  0  0  0  0  0  0  0  0  0
   -4.1119    1.7108   -0.4685 H   0  0  0  0  0  0  0  0  0  0  0  0
   -4.3704   -2.2669    0.4517 O   0  0  0  0  0  0  0  0  0  0  0  0
   -5.2951   -1.4558    0.6745 C   0  0  0  0  0  0  0  0  0  0  0  0
   -5.2666   -0.3332    1.2404 O   0  0  0  0  0  0  0  0  0  0  0  0
   -6.6955   -1.8491    0.1158 C   0  0  0  0  0  0  0  0  0  0  0  0
   -7.6889   -1.5692    0.9864 F   0  0  0  0  0  0  0  0  0  0  0  0
   -6.9529   -1.1433   -1.0206 F   0  0  0  0  0  0  0  0  0  0  0  0
   -6.7957   -3.1543   -0.2007 F   0  0  0  0  0  0  0  0  0  0  0  0
  1 10  1  0  0  0  0
  2  1  1  0  0  0  0
  3  2  1  0  0  0  0
  4  1  2  0  0  0  0
  4  5  1  0  0  0  0
  5 12  1  0  0  0  0
  5  6  2  0  0  0  0
  6  9  1  0  0  0  0
  6  7  1  0  0  0  0
  7  8  1  0  0  0  0
  8 13  1  0  0  0  0
  8 15  1  0  0  0  0
  9 16  1  0  0  0  0
 10  9  2  0  0  0  0
 11  4  1  0  0  0  0
 14  8  1  0  0  0  0
 17 10  1  0  0  0  0
 18 19  2  0  0  0  0
 19 20  1  0  0  0  0
 21 19  1  0  0  0  0
 21 22  1  0  0  0  0
 23 21  1  0  0  0  0
 24 21  1  0  0  0  0
M  RAD  3   2   2   3   3  20   2
M  END
