Coordinates from ORCA-job 4-MeOPhN2+~CF3COO-_B3LYPG-6-31G_dp-NX-Scan-d89-09-n800
 OpenBabel11261920413D

 24 23  0  0  0  0  0  0  0  0999 V2000
   -1.8660   -1.1744    0.4022 C   0  0  0  0  0  0  0  0  0  0  0  0
   -2.0586   -2.4604    0.9008 N   0  0  0  0  0  0  0  0  0  0  0  0
   -2.8012   -3.3136    1.1213 N   0  0  0  0  0  0  0  0  0  0  0  0
   -0.5805   -0.6188    0.5315 C   0  0  0  0  0  0  0  0  0  0  0  0
   -0.3446    0.6555    0.0574 C   0  0  0  0  0  0  0  0  0  0  0  0
   -1.3863    1.3840   -0.5539 C   0  0  0  0  0  0  0  0  0  0  0  0
   -1.0541    2.6161   -0.9828 O   0  0  0  0  0  0  0  0  0  0  0  0
   -2.0492    3.4294   -1.6068 C   0  0  0  0  0  0  0  0  0  0  0  0
   -2.6672    0.8147   -0.6837 C   0  0  0  0  0  0  0  0  0  0  0  0
   -2.9153   -0.4651   -0.2085 C   0  0  0  0  0  0  0  0  0  0  0  0
    0.2067   -1.1944    1.0056 H   0  0  0  0  0  0  0  0  0  0  0  0
    0.6310    1.1200    0.1438 H   0  0  0  0  0  0  0  0  0  0  0  0
   -1.5486    4.3634   -1.8601 H   0  0  0  0  0  0  0  0  0  0  0  0
   -2.8796    3.6334   -0.9223 H   0  0  0  0  0  0  0  0  0  0  0  0
   -2.4296    2.9600   -2.5205 H   0  0  0  0  0  0  0  0  0  0  0  0
   -3.4747    1.3632   -1.1517 H   0  0  0  0  0  0  0  0  0  0  0  0
   -3.8916   -0.9276   -0.2955 H   0  0  0  0  0  0  0  0  0  0  0  0
   -4.6182   -2.8248    0.4395 O   0  0  0  0  0  0  0  0  0  0  0  0
   -5.3139   -2.5530    1.4933 C   0  0  0  0  0  0  0  0  0  0  0  0
   -4.9730   -2.5248    2.6656 O   0  0  0  0  0  0  0  0  0  0  0  0
   -6.7678   -2.1594    1.0997 C   0  0  0  0  0  0  0  0  0  0  0  0
   -7.5230   -1.8892    2.1717 F   0  0  0  0  0  0  0  0  0  0  0  0
   -6.7420   -1.0438    0.3226 F   0  0  0  0  0  0  0  0  0  0  0  0
   -7.3763   -3.1304    0.3928 F   0  0  0  0  0  0  0  0  0  0  0  0
  1  4  1  0  0  0  0
  1  2  1  0  0  0  0
  2  3  2  0  0  0  0
  4 11  1  0  0  0  0
  5 12  1  0  0  0  0
  5  4  2  0  0  0  0
  6  5  1  0  0  0  0
  7  6  1  0  0  0  0
  8  7  1  0  0  0  0
  8 14  1  0  0  0  0
  9  6  2  0  0  0  0
  9 10  1  0  0  0  0
 10  1  2  0  0  0  0
 13  8  1  0  0  0  0
 15  8  1  0  0  0  0
 16  9  1  0  0  0  0
 17 10  1  0  0  0  0
 18 19  2  0  0  0  0
 19 20  1  0  0  0  0
 21 19  1  0  0  0  0
 21 22  1  0  0  0  0
 23 21  1  0  0  0  0
 24 21  1  0  0  0  0
M  RAD  2   3   2  20   2
M  END
