Coordinates from ORCA-job 4-MeOPhN2+~CF3COO-_B3LYPG-6-31G_dp-NX-Scan-d89-09-n800
 OpenBabel11261920413D

 24 23  0  0  0  0  0  0  0  0999 V2000
   -2.0505    1.9946   -1.4093 C   0  0  0  0  0  0  0  0  0  0  0  0
   -2.4160    2.9489   -2.2808 N   0  0  0  0  0  0  0  0  0  0  0  0
   -2.7442    3.7515   -3.0020 N   0  0  0  0  0  0  0  0  0  0  0  0
   -0.6884    1.5740   -1.3733 C   0  0  0  0  0  0  0  0  0  0  0  0
   -0.3432    0.5828   -0.4967 C   0  0  0  0  0  0  0  0  0  0  0  0
   -1.3293   -0.0138    0.3486 C   0  0  0  0  0  0  0  0  0  0  0  0
   -0.8929   -0.9785    1.1265 O   0  0  0  0  0  0  0  0  0  0  0  0
   -1.8298   -1.6848    1.9954 C   0  0  0  0  0  0  0  0  0  0  0  0
   -2.6761    0.4339    0.3212 C   0  0  0  0  0  0  0  0  0  0  0  0
   -3.0381    1.4207   -0.5584 C   0  0  0  0  0  0  0  0  0  0  0  0
    0.0423    2.0318   -2.0306 H   0  0  0  0  0  0  0  0  0  0  0  0
    0.6760    0.2188   -0.4348 H   0  0  0  0  0  0  0  0  0  0  0  0
   -1.2472   -2.5046    2.4121 H   0  0  0  0  0  0  0  0  0  0  0  0
   -2.6974   -2.0400    1.4166 H   0  0  0  0  0  0  0  0  0  0  0  0
   -2.1555   -1.0088    2.7908 H   0  0  0  0  0  0  0  0  0  0  0  0
   -3.4961    0.0013    0.9234 H   0  0  0  0  0  0  0  0  0  0  0  0
   -4.0742    1.7402   -0.6050 H   0  0  0  0  0  0  0  0  0  0  0  0
   -4.4309   -2.3855    0.4866 O   0  0  0  0  0  0  0  0  0  0  0  0
   -5.3282   -1.5398    0.6859 C   0  0  0  0  0  0  0  0  0  0  0  0
   -5.2538   -0.3772    1.1619 O   0  0  0  0  0  0  0  0  0  0  0  0
   -6.7649   -1.9437    0.2378 C   0  0  0  0  0  0  0  0  0  0  0  0
   -7.6885   -1.6508    1.1795 F   0  0  0  0  0  0  0  0  0  0  0  0
   -7.1108   -1.2572   -0.8854 F   0  0  0  0  0  0  0  0  0  0  0  0
   -6.8861   -3.2539   -0.0482 F   0  0  0  0  0  0  0  0  0  0  0  0
  1  4  2  0  0  0  0
  1 10  1  0  0  0  0
  2  1  1  0  0  0  0
  3  2  1  0  0  0  0
  4  5  1  0  0  0  0
  5 12  1  0  0  0  0
  5  6  2  0  0  0  0
  6  7  1  0  0  0  0
  7  8  1  0  0  0  0
  8 13  1  0  0  0  0
  8 15  1  0  0  0  0
  9  6  1  0  0  0  0
  9 16  1  0  0  0  0
 10  9  2  0  0  0  0
 11  4  1  0  0  0  0
 14  8  1  0  0  0  0
 17 10  1  0  0  0  0
 18 19  2  0  0  0  0
 19 20  1  0  0  0  0
 21 19  1  0  0  0  0
 21 22  1  0  0  0  0
 23 21  1  0  0  0  0
 24 21  1  0  0  0  0
M  RAD  3   2   2   3   3  20   2
M  END
