Coordinates from ORCA-job 4-MeOPhN2+~CF3COO-_B3LYPG-6-31G_dp-NX-Scan-d89-09-n800
 OpenBabel11261920413D

 24 23  0  0  0  0  0  0  0  0999 V2000
   -2.8871    1.8105   -0.9211 C   0  0  0  0  0  0  0  0  0  0  0  0
   -3.6030    2.7192   -1.5950 N   0  0  0  0  0  0  0  0  0  0  0  0
   -4.2164    3.4866   -2.1477 N   0  0  0  0  0  0  0  0  0  0  0  0
   -1.9437    1.0074   -1.6262 C   0  0  0  0  0  0  0  0  0  0  0  0
   -1.3248   -0.0030   -0.9474 C   0  0  0  0  0  0  0  0  0  0  0  0
   -1.6469   -0.2526    0.4216 C   0  0  0  0  0  0  0  0  0  0  0  0
   -1.0695   -1.3305    0.9444 O   0  0  0  0  0  0  0  0  0  0  0  0
   -1.5601   -1.8379    2.2058 C   0  0  0  0  0  0  0  0  0  0  0  0
   -2.5109    0.5992    1.1268 C   0  0  0  0  0  0  0  0  0  0  0  0
   -3.1988    1.5913    0.4503 C   0  0  0  0  0  0  0  0  0  0  0  0
   -1.7517    1.1894   -2.6773 H   0  0  0  0  0  0  0  0  0  0  0  0
   -0.6246   -0.6681   -1.4391 H   0  0  0  0  0  0  0  0  0  0  0  0
   -1.0749   -2.8049    2.3291 H   0  0  0  0  0  0  0  0  0  0  0  0
   -2.6484   -1.9416    2.1581 H   0  0  0  0  0  0  0  0  0  0  0  0
   -1.2650   -1.1733    3.0245 H   0  0  0  0  0  0  0  0  0  0  0  0
   -2.7773    0.3959    2.1521 H   0  0  0  0  0  0  0  0  0  0  0  0
   -3.8990    2.2353    0.9594 H   0  0  0  0  0  0  0  0  0  0  0  0
   -4.6713   -1.1216    1.4374 O   0  0  0  0  0  0  0  0  0  0  0  0
   -5.1123   -0.6600    0.3679 C   0  0  0  0  0  0  0  0  0  0  0  0
   -5.3198    0.5369    0.0281 O   0  0  0  0  0  0  0  0  0  0  0  0
   -5.3097   -1.6880   -0.7845 C   0  0  0  0  0  0  0  0  0  0  0  0
   -6.3018   -1.3550   -1.6339 F   0  0  0  0  0  0  0  0  0  0  0  0
   -4.1572   -1.7373   -1.5225 F   0  0  0  0  0  0  0  0  0  0  0  0
   -5.5495   -2.9381   -0.3490 F   0  0  0  0  0  0  0  0  0  0  0  0
  1 10  2  0  0  0  0
  2  1  1  0  0  0  0
  3  2  1  0  0  0  0
  4  5  2  0  0  0  0
  4  1  1  0  0  0  0
  5  6  1  0  0  0  0
  6  7  1  0  0  0  0
  6  9  2  0  0  0  0
  7  8  1  0  0  0  0
  8 13  1  0  0  0  0
  8 15  1  0  0  0  0
  9 16  1  0  0  0  0
 10 17  1  0  0  0  0
 10  9  1  0  0  0  0
 11  4  1  0  0  0  0
 12  5  1  0  0  0  0
 14  8  1  0  0  0  0
 19 18  1  0  0  0  0
 20 19  2  0  0  0  0
 21 24  1  0  0  0  0
 21 19  1  0  0  0  0
 22 21  1  0  0  0  0
 23 21  1  0  0  0  0
M  RAD  3   2   2   3   3  18   2
M  END
