Coordinates from ORCA-job 4-MeOPhN2+~CF3COO-_B3LYPG-6-31G_dp-NX-Scan-d89-09-n800
 OpenBabel11261920413D

 24 23  0  0  0  0  0  0  0  0999 V2000
   -2.6220    0.2092   -1.1138 C   0  0  0  0  0  0  0  0  0  0  0  0
   -3.3981    0.3920   -2.2690 N   0  0  0  0  0  0  0  0  0  0  0  0
   -3.5012    0.7915   -3.3172 N   0  0  0  0  0  0  0  0  0  0  0  0
   -1.4511    0.9905   -1.0284 C   0  0  0  0  0  0  0  0  0  0  0  0
   -0.6324    0.8333    0.0700 C   0  0  0  0  0  0  0  0  0  0  0  0
   -0.9643   -0.0981    1.0781 C   0  0  0  0  0  0  0  0  0  0  0  0
   -0.0954   -0.1684    2.1030 O   0  0  0  0  0  0  0  0  0  0  0  0
   -0.3584   -1.0719    3.1773 C   0  0  0  0  0  0  0  0  0  0  0  0
   -2.1332   -0.8719    0.9661 C   0  0  0  0  0  0  0  0  0  0  0  0
   -2.9702   -0.7159   -0.1308 C   0  0  0  0  0  0  0  0  0  0  0  0
   -1.2108    1.7044   -1.8084 H   0  0  0  0  0  0  0  0  0  0  0  0
    0.2738    1.4176    0.1810 H   0  0  0  0  0  0  0  0  0  0  0  0
    0.4659   -0.9423    3.8788 H   0  0  0  0  0  0  0  0  0  0  0  0
   -0.3802   -2.1096    2.8260 H   0  0  0  0  0  0  0  0  0  0  0  0
   -1.3042   -0.8305    3.6751 H   0  0  0  0  0  0  0  0  0  0  0  0
   -2.4019   -1.5907    1.7297 H   0  0  0  0  0  0  0  0  0  0  0  0
   -3.8867   -1.2783   -0.2647 H   0  0  0  0  0  0  0  0  0  0  0  0
   -5.2779   -0.8791   -1.7068 O   0  0  0  0  0  0  0  0  0  0  0  0
   -5.9304    0.1250   -1.2758 C   0  0  0  0  0  0  0  0  0  0  0  0
   -5.5192    1.2647   -1.0300 O   0  0  0  0  0  0  0  0  0  0  0  0
   -7.4310   -0.1923   -1.0120 C   0  0  0  0  0  0  0  0  0  0  0  0
   -8.1386    0.9041   -0.6956 F   0  0  0  0  0  0  0  0  0  0  0  0
   -8.0111   -0.7592   -2.0895 F   0  0  0  0  0  0  0  0  0  0  0  0
   -7.5453   -1.0642    0.0189 F   0  0  0  0  0  0  0  0  0  0  0  0
  1  4  2  0  0  0  0
  1 10  1  0  0  0  0
  2  1  1  0  0  0  0
  3  2  2  0  0  0  0
  4  5  1  0  0  0  0
  5 12  1  0  0  0  0
  5  6  2  0  0  0  0
  6  7  1  0  0  0  0
  7  8  1  0  0  0  0
  8 15  1  0  0  0  0
  8 13  1  0  0  0  0
  9  6  1  0  0  0  0
  9 16  1  0  0  0  0
 10  9  2  0  0  0  0
 11  4  1  0  0  0  0
 14  8  1  0  0  0  0
 17 10  1  0  0  0  0
 18 19  2  0  0  0  0
 19 20  1  0  0  0  0
 19 21  1  0  0  0  0
 21 22  1  0  0  0  0
 21 24  1  0  0  0  0
 23 21  1  0  0  0  0
M  RAD  2   3   2  20   2
M  END
