Coordinates from ORCA-job 4-MeOPhN2+~CF3COO-_B3LYPG-6-31G_dp-NX-Scan-d89-09-n800
 OpenBabel11261920413D

 24 23  0  0  0  0  0  0  0  0999 V2000
   -2.9480    1.5704   -0.8964 C   0  0  0  0  0  0  0  0  0  0  0  0
   -3.8347    2.2690   -1.6188 N   0  0  0  0  0  0  0  0  0  0  0  0
   -4.6032    2.8400   -2.2081 N   0  0  0  0  0  0  0  0  0  0  0  0
   -2.0255    0.7220   -1.5702 C   0  0  0  0  0  0  0  0  0  0  0  0
   -1.3066   -0.1719   -0.8265 C   0  0  0  0  0  0  0  0  0  0  0  0
   -1.5434   -0.2832    0.5746 C   0  0  0  0  0  0  0  0  0  0  0  0
   -0.9225   -1.2943    1.1751 O   0  0  0  0  0  0  0  0  0  0  0  0
   -1.4020   -1.7163    2.4702 C   0  0  0  0  0  0  0  0  0  0  0  0
   -2.3786    0.6299    1.2399 C   0  0  0  0  0  0  0  0  0  0  0  0
   -3.1290    1.5331    0.5140 C   0  0  0  0  0  0  0  0  0  0  0  0
   -1.9365    0.7655   -2.6497 H   0  0  0  0  0  0  0  0  0  0  0  0
   -0.6184   -0.8690   -1.2897 H   0  0  0  0  0  0  0  0  0  0  0  0
   -0.9314   -2.6823    2.6471 H   0  0  0  0  0  0  0  0  0  0  0  0
   -2.4908   -1.8113    2.4352 H   0  0  0  0  0  0  0  0  0  0  0  0
   -1.0869   -1.0101    3.2457 H   0  0  0  0  0  0  0  0  0  0  0  0
   -2.5403    0.5572    2.3058 H   0  0  0  0  0  0  0  0  0  0  0  0
   -3.8090    2.2183    0.9957 H   0  0  0  0  0  0  0  0  0  0  0  0
   -4.3683   -1.4519    0.9530 O   0  0  0  0  0  0  0  0  0  0  0  0
   -5.0156   -0.6971    0.2084 C   0  0  0  0  0  0  0  0  0  0  0  0
   -5.3268    0.5189    0.3432 O   0  0  0  0  0  0  0  0  0  0  0  0
   -5.4563   -1.2764   -1.1726 C   0  0  0  0  0  0  0  0  0  0  0  0
   -6.7756   -1.1148   -1.4014 F   0  0  0  0  0  0  0  0  0  0  0  0
   -4.8031   -0.6062   -2.1809 F   0  0  0  0  0  0  0  0  0  0  0  0
   -5.1712   -2.5796   -1.3320 F   0  0  0  0  0  0  0  0  0  0  0  0
  1 10  1  0  0  0  0
  2  1  1  0  0  0  0
  3  2  1  0  0  0  0
  4  1  2  0  0  0  0
  4  5  1  0  0  0  0
  5  6  2  0  0  0  0
  6  7  1  0  0  0  0
  6  9  1  0  0  0  0
  7  8  1  0  0  0  0
  8 13  1  0  0  0  0
  8 15  1  0  0  0  0
  9 16  1  0  0  0  0
 10 17  1  0  0  0  0
 10  9  2  0  0  0  0
 11  4  1  0  0  0  0
 12  5  1  0  0  0  0
 14  8  1  0  0  0  0
 19 20  2  0  0  0  0
 19 18  1  0  0  0  0
 21 19  1  0  0  0  0
 22 21  1  0  0  0  0
 23 21  1  0  0  0  0
 24 21  1  0  0  0  0
M  RAD  3   2   2   3   3  18   2
M  END
