Coordinates from ORCA-job 4-MeOPhN2+~CF3COO-_B3LYPG-6-31G_dp-NX-Scan-d89-09-n800
 OpenBabel11261920413D

 24 23  0  0  0  0  0  0  0  0999 V2000
   -2.5681    0.4675   -1.0233 C   0  0  0  0  0  0  0  0  0  0  0  0
   -3.3699    0.7541   -2.1341 N   0  0  0  0  0  0  0  0  0  0  0  0
   -3.5229    1.1490   -3.1767 N   0  0  0  0  0  0  0  0  0  0  0  0
   -1.3084    1.1069   -0.9964 C   0  0  0  0  0  0  0  0  0  0  0  0
   -0.4600    0.8422    0.0559 C   0  0  0  0  0  0  0  0  0  0  0  0
   -0.8474   -0.0642    1.0697 C   0  0  0  0  0  0  0  0  0  0  0  0
    0.0575   -0.2481    2.0470 O   0  0  0  0  0  0  0  0  0  0  0  0
   -0.2486   -1.1412    3.1200 C   0  0  0  0  0  0  0  0  0  0  0  0
   -2.0997   -0.6996    1.0080 C   0  0  0  0  0  0  0  0  0  0  0  0
   -2.9761   -0.4317   -0.0368 C   0  0  0  0  0  0  0  0  0  0  0  0
   -1.0262    1.7965   -1.7847 H   0  0  0  0  0  0  0  0  0  0  0  0
    0.5112    1.3180    0.1272 H   0  0  0  0  0  0  0  0  0  0  0  0
    0.6215   -1.1201    3.7764 H   0  0  0  0  0  0  0  0  0  0  0  0
   -0.4066   -2.1610    2.7531 H   0  0  0  0  0  0  0  0  0  0  0  0
   -1.1335   -0.8063    3.6723 H   0  0  0  0  0  0  0  0  0  0  0  0
   -2.4072   -1.4024    1.7724 H   0  0  0  0  0  0  0  0  0  0  0  0
   -3.9565   -0.9208   -0.1102 H   0  0  0  0  0  0  0  0  0  0  0  0
   -5.7223   -1.4764   -0.4394 O   0  0  0  0  0  0  0  0  0  0  0  0
   -6.1114   -0.4443   -1.0026 C   0  0  0  0  0  0  0  0  0  0  0  0
   -5.4494    0.5465   -1.4406 O   0  0  0  0  0  0  0  0  0  0  0  0
   -7.6419   -0.2919   -1.2560 C   0  0  0  0  0  0  0  0  0  0  0  0
   -8.0985    0.8925   -0.7960 F   0  0  0  0  0  0  0  0  0  0  0  0
   -7.9046   -0.3430   -2.5818 F   0  0  0  0  0  0  0  0  0  0  0  0
   -8.3547   -1.2621   -0.6614 F   0  0  0  0  0  0  0  0  0  0  0  0
  1  4  2  0  0  0  0
  1 10  1  0  0  0  0
  2  1  1  0  0  0  0
  3  2  2  0  0  0  0
  4  5  1  0  0  0  0
  5 12  1  0  0  0  0
  5  6  2  0  0  0  0
  6  7  1  0  0  0  0
  7  8  1  0  0  0  0
  8 15  1  0  0  0  0
  8 13  1  0  0  0  0
  9  6  1  0  0  0  0
  9 16  1  0  0  0  0
 10  9  2  0  0  0  0
 11  4  1  0  0  0  0
 14  8  1  0  0  0  0
 17 10  1  0  0  0  0
 19 18  1  0  0  0  0
 20 19  2  0  0  0  0
 21 19  1  0  0  0  0
 21 22  1  0  0  0  0
 21 24  1  0  0  0  0
 23 21  1  0  0  0  0
M  RAD  2   3   2  18   2
M  END
