Coordinates from ORCA-job 4-MeOPhN2+~CF3COO-_B3LYPG-6-31G_dp-NX-Scan-d89-09-n800
 OpenBabel11261920413D

 24 23  0  0  0  0  0  0  0  0999 V2000
   -1.7376    2.2586   -1.4720 C   0  0  0  0  0  0  0  0  0  0  0  0
   -1.9089    3.3431   -2.2476 N   0  0  0  0  0  0  0  0  0  0  0  0
   -2.0426    4.2607   -2.8922 N   0  0  0  0  0  0  0  0  0  0  0  0
   -0.4059    1.8438   -1.1726 C   0  0  0  0  0  0  0  0  0  0  0  0
   -0.2364    0.7591   -0.3589 C   0  0  0  0  0  0  0  0  0  0  0  0
   -1.3661    0.0714    0.1835 C   0  0  0  0  0  0  0  0  0  0  0  0
   -1.0732   -0.9231    0.9870 O   0  0  0  0  0  0  0  0  0  0  0  0
   -2.1270   -1.6563    1.6825 C   0  0  0  0  0  0  0  0  0  0  0  0
   -2.6936    0.4729   -0.1419 C   0  0  0  0  0  0  0  0  0  0  0  0
   -2.8737    1.5602   -0.9614 C   0  0  0  0  0  0  0  0  0  0  0  0
    0.4391    2.3863   -1.5810 H   0  0  0  0  0  0  0  0  0  0  0  0
    0.7536    0.4053   -0.0949 H   0  0  0  0  0  0  0  0  0  0  0  0
   -1.5896   -2.3447    2.3324 H   0  0  0  0  0  0  0  0  0  0  0  0
   -2.7936   -2.1945    0.9949 H   0  0  0  0  0  0  0  0  0  0  0  0
   -2.7288   -0.9572    2.2670 H   0  0  0  0  0  0  0  0  0  0  0  0
   -3.5895   -0.0754    0.2317 H   0  0  0  0  0  0  0  0  0  0  0  0
   -3.8753    1.8869   -1.2213 H   0  0  0  0  0  0  0  0  0  0  0  0
   -4.6738   -2.9812    0.7897 O   0  0  0  0  0  0  0  0  0  0  0  0
   -5.4250   -1.9885    0.7404 C   0  0  0  0  0  0  0  0  0  0  0  0
   -5.1596   -0.7577    0.6592 O   0  0  0  0  0  0  0  0  0  0  0  0
   -6.9573   -2.2721    0.7962 C   0  0  0  0  0  0  0  0  0  0  0  0
   -7.5176   -1.6962    1.8884 F   0  0  0  0  0  0  0  0  0  0  0  0
   -7.5864   -1.7572   -0.2894 F   0  0  0  0  0  0  0  0  0  0  0  0
   -7.2549   -3.5845    0.8422 F   0  0  0  0  0  0  0  0  0  0  0  0
  1  4  2  0  0  0  0
  1 10  1  0  0  0  0
  2  1  1  0  0  0  0
  3  2  1  0  0  0  0
  4  5  1  0  0  0  0
  5 12  1  0  0  0  0
  5  6  2  0  0  0  0
  6  7  1  0  0  0  0
  7  8  1  0  0  0  0
  8 15  1  0  0  0  0
  8 13  1  0  0  0  0
  9  6  1  0  0  0  0
  9 16  1  0  0  0  0
 10  9  2  0  0  0  0
 11  4  1  0  0  0  0
 14  8  1  0  0  0  0
 17 10  1  0  0  0  0
 19 18  1  0  0  0  0
 19 21  1  0  0  0  0
 20 19  2  0  0  0  0
 21 24  1  0  0  0  0
 21 22  1  0  0  0  0
 23 21  1  0  0  0  0
M  RAD  3   2   2   3   3  18   2
M  END
