Coordinates from ORCA-job 4-MeOPhN2+~CF3COO-_B3LYPG-6-31G_dp-NX-Scan-d89-09-n800
 OpenBabel11261920413D

 24 23  0  0  0  0  0  0  0  0999 V2000
   -2.6015    0.3338   -1.0482 C   0  0  0  0  0  0  0  0  0  0  0  0
   -3.4156    0.5267   -2.1780 N   0  0  0  0  0  0  0  0  0  0  0  0
   -3.5296    0.7735   -3.2719 N   0  0  0  0  0  0  0  0  0  0  0  0
   -1.3961    1.0611   -1.0090 C   0  0  0  0  0  0  0  0  0  0  0  0
   -0.5538    0.8733    0.0678 C   0  0  0  0  0  0  0  0  0  0  0  0
   -0.8958   -0.0426    1.0868 C   0  0  0  0  0  0  0  0  0  0  0  0
   -0.0014   -0.1459    2.0876 O   0  0  0  0  0  0  0  0  0  0  0  0
   -0.2661   -1.0435    3.1663 C   0  0  0  0  0  0  0  0  0  0  0  0
   -2.0966   -0.7711    1.0097 C   0  0  0  0  0  0  0  0  0  0  0  0
   -2.9655   -0.5763   -0.0563 C   0  0  0  0  0  0  0  0  0  0  0  0
   -1.1474    1.7589   -1.8013 H   0  0  0  0  0  0  0  0  0  0  0  0
    0.3786    1.4193    0.1520 H   0  0  0  0  0  0  0  0  0  0  0  0
    0.5819   -0.9462    3.8445 H   0  0  0  0  0  0  0  0  0  0  0  0
   -0.3353   -2.0784    2.8131 H   0  0  0  0  0  0  0  0  0  0  0  0
   -1.1882   -0.7708    3.6917 H   0  0  0  0  0  0  0  0  0  0  0  0
   -2.3649   -1.4871    1.7764 H   0  0  0  0  0  0  0  0  0  0  0  0
   -3.8980   -1.1321   -0.1768 H   0  0  0  0  0  0  0  0  0  0  0  0
   -5.6123   -1.5584   -1.0534 O   0  0  0  0  0  0  0  0  0  0  0  0
   -6.0272   -0.3979   -1.1616 C   0  0  0  0  0  0  0  0  0  0  0  0
   -5.3744    0.6874   -1.2823 O   0  0  0  0  0  0  0  0  0  0  0  0
   -7.5681   -0.1672   -1.1673 C   0  0  0  0  0  0  0  0  0  0  0  0
   -7.9264    0.7540   -0.2482 F   0  0  0  0  0  0  0  0  0  0  0  0
   -7.9708    0.2829   -2.3765 F   0  0  0  0  0  0  0  0  0  0  0  0
   -8.2488   -1.2937   -0.9031 F   0  0  0  0  0  0  0  0  0  0  0  0
  1  4  2  0  0  0  0
  1 10  1  0  0  0  0
  2  1  1  0  0  0  0
  3  2  2  0  0  0  0
  4  5  1  0  0  0  0
  5 12  1  0  0  0  0
  5  6  2  0  0  0  0
  6  7  1  0  0  0  0
  7  8  1  0  0  0  0
  8 15  1  0  0  0  0
  8 13  1  0  0  0  0
  9  6  1  0  0  0  0
  9 16  1  0  0  0  0
 10  9  2  0  0  0  0
 11  4  1  0  0  0  0
 14  8  1  0  0  0  0
 17 10  1  0  0  0  0
 19 18  1  0  0  0  0
 20 19  2  0  0  0  0
 21 19  1  0  0  0  0
 21 24  1  0  0  0  0
 21 22  1  0  0  0  0
 23 21  1  0  0  0  0
M  RAD  2   3   2  18   2
M  END
