Coordinates from ORCA-job 4-MeOPhN2+~CF3COO-_B3LYPG-6-31G_dp-NX-Scan-d89-09-n800
 OpenBabel11261920413D

 24 23  0  0  0  0  0  0  0  0999 V2000
   -2.6150    0.3311   -1.0398 C   0  0  0  0  0  0  0  0  0  0  0  0
   -3.4349    0.5254   -2.1673 N   0  0  0  0  0  0  0  0  0  0  0  0
   -3.5335    0.7693   -3.2639 N   0  0  0  0  0  0  0  0  0  0  0  0
   -1.4012    1.0441   -1.0149 C   0  0  0  0  0  0  0  0  0  0  0  0
   -0.5528    0.8571    0.0576 C   0  0  0  0  0  0  0  0  0  0  0  0
   -0.8973   -0.0450    1.0874 C   0  0  0  0  0  0  0  0  0  0  0  0
    0.0031   -0.1499    2.0830 O   0  0  0  0  0  0  0  0  0  0  0  0
   -0.2645   -1.0346    3.1713 C   0  0  0  0  0  0  0  0  0  0  0  0
   -2.1069   -0.7600    1.0252 C   0  0  0  0  0  0  0  0  0  0  0  0
   -2.9812   -0.5647   -0.0365 C   0  0  0  0  0  0  0  0  0  0  0  0
   -1.1505    1.7318   -1.8153 H   0  0  0  0  0  0  0  0  0  0  0  0
    0.3862    1.3935    0.1296 H   0  0  0  0  0  0  0  0  0  0  0  0
    0.5895   -0.9417    3.8426 H   0  0  0  0  0  0  0  0  0  0  0  0
   -0.3487   -2.0717    2.8280 H   0  0  0  0  0  0  0  0  0  0  0  0
   -1.1794   -0.7462    3.7010 H   0  0  0  0  0  0  0  0  0  0  0  0
   -2.3778   -1.4661    1.8001 H   0  0  0  0  0  0  0  0  0  0  0  0
   -3.9152   -1.1158   -0.1436 H   0  0  0  0  0  0  0  0  0  0  0  0
   -5.5876   -1.5514   -1.1820 O   0  0  0  0  0  0  0  0  0  0  0  0
   -6.0151   -0.3915   -1.2031 C   0  0  0  0  0  0  0  0  0  0  0  0
   -5.3709    0.7052   -1.2605 O   0  0  0  0  0  0  0  0  0  0  0  0
   -7.5570   -0.1730   -1.1638 C   0  0  0  0  0  0  0  0  0  0  0  0
   -7.9016    0.6960   -0.1903 F   0  0  0  0  0  0  0  0  0  0  0  0
   -7.9888    0.3357   -2.3390 F   0  0  0  0  0  0  0  0  0  0  0  0
   -8.2227   -1.3176   -0.9438 F   0  0  0  0  0  0  0  0  0  0  0  0
  1  4  2  0  0  0  0
  1 10  1  0  0  0  0
  2  1  1  0  0  0  0
  3  2  2  0  0  0  0
  4  5  1  0  0  0  0
  5 12  1  0  0  0  0
  5  6  2  0  0  0  0
  6  7  1  0  0  0  0
  7  8  1  0  0  0  0
  8 15  1  0  0  0  0
  8 13  1  0  0  0  0
  9  6  1  0  0  0  0
  9 16  1  0  0  0  0
 10  9  2  0  0  0  0
 11  4  1  0  0  0  0
 14  8  1  0  0  0  0
 17 10  1  0  0  0  0
 19 18  1  0  0  0  0
 19 21  1  0  0  0  0
 20 19  2  0  0  0  0
 21 24  1  0  0  0  0
 21 22  1  0  0  0  0
 23 21  1  0  0  0  0
M  RAD  2   3   2  18   2
M  END
