Coordinates from ORCA-job 4-MeOPhN2+~CF3COO-_B3LYPG-6-31G_dp-NX-Scan-d89-09-n800
 OpenBabel11261920413D

 24 23  0  0  0  0  0  0  0  0999 V2000
   -2.3351    1.7938   -1.3364 C   0  0  0  0  0  0  0  0  0  0  0  0
   -2.8467    2.6518   -2.2349 N   0  0  0  0  0  0  0  0  0  0  0  0
   -3.2994    3.3708   -2.9756 N   0  0  0  0  0  0  0  0  0  0  0  0
   -0.9864    1.3565   -1.4847 C   0  0  0  0  0  0  0  0  0  0  0  0
   -0.5066    0.4332   -0.5964 C   0  0  0  0  0  0  0  0  0  0  0  0
   -1.3495   -0.0837    0.4347 C   0  0  0  0  0  0  0  0  0  0  0  0
   -0.8161   -1.0225    1.1866 O   0  0  0  0  0  0  0  0  0  0  0  0
   -1.6435   -1.6947    2.1821 C   0  0  0  0  0  0  0  0  0  0  0  0
   -2.6681    0.4056    0.6014 C   0  0  0  0  0  0  0  0  0  0  0  0
   -3.1711    1.3206   -0.2870 C   0  0  0  0  0  0  0  0  0  0  0  0
   -0.3721    1.7426   -2.2905 H   0  0  0  0  0  0  0  0  0  0  0  0
    0.5049    0.0515   -0.6754 H   0  0  0  0  0  0  0  0  0  0  0  0
   -1.0284   -2.5207    2.5349 H   0  0  0  0  0  0  0  0  0  0  0  0
   -2.5765   -2.0376    1.7125 H   0  0  0  0  0  0  0  0  0  0  0  0
   -1.8521   -1.0029    3.0032 H   0  0  0  0  0  0  0  0  0  0  0  0
   -3.3785    0.0265    1.3419 H   0  0  0  0  0  0  0  0  0  0  0  0
   -4.2075    1.6286   -0.1974 H   0  0  0  0  0  0  0  0  0  0  0  0
   -4.2735   -2.1514    0.5376 O   0  0  0  0  0  0  0  0  0  0  0  0
   -5.2150   -1.3437    0.6989 C   0  0  0  0  0  0  0  0  0  0  0  0
   -5.2774   -0.3011    1.3964 O   0  0  0  0  0  0  0  0  0  0  0  0
   -6.4806   -1.5994   -0.1732 C   0  0  0  0  0  0  0  0  0  0  0  0
   -7.6279   -1.3483    0.4906 F   0  0  0  0  0  0  0  0  0  0  0  0
   -6.4566   -0.7616   -1.2527 F   0  0  0  0  0  0  0  0  0  0  0  0
   -6.5601   -2.8542   -0.6547 F   0  0  0  0  0  0  0  0  0  0  0  0
  1 10  1  0  0  0  0
  2  1  1  0  0  0  0
  3  2  1  0  0  0  0
  4  1  2  0  0  0  0
  4  5  1  0  0  0  0
  5  6  2  0  0  0  0
  6  9  1  0  0  0  0
  6  7  1  0  0  0  0
  7  8  1  0  0  0  0
  8 13  1  0  0  0  0
  8 15  1  0  0  0  0
  9 16  1  0  0  0  0
 10 17  1  0  0  0  0
 10  9  2  0  0  0  0
 11  4  1  0  0  0  0
 12  5  1  0  0  0  0
 14  8  1  0  0  0  0
 18 19  2  0  0  0  0
 19 20  1  0  0  0  0
 21 22  1  0  0  0  0
 21 19  1  0  0  0  0
 23 21  1  0  0  0  0
 24 21  1  0  0  0  0
M  RAD  3   2   2   3   3  20   2
M  END
