Coordinates from ORCA-job 4-MeOPhN2+~CF3COO-_B3LYPG-6-31G_dp-NX-Scan-d89-09-n800
 OpenBabel11261920413D

 24 23  0  0  0  0  0  0  0  0999 V2000
   -2.9519    1.5409   -0.8850 C   0  0  0  0  0  0  0  0  0  0  0  0
   -3.8805    2.1868   -1.6064 N   0  0  0  0  0  0  0  0  0  0  0  0
   -4.6887    2.7022   -2.1915 N   0  0  0  0  0  0  0  0  0  0  0  0
   -2.0239    0.6985   -1.5568 C   0  0  0  0  0  0  0  0  0  0  0  0
   -1.2848   -0.1760   -0.8087 C   0  0  0  0  0  0  0  0  0  0  0  0
   -1.5140   -0.2772    0.5933 C   0  0  0  0  0  0  0  0  0  0  0  0
   -0.8881   -1.2818    1.2002 O   0  0  0  0  0  0  0  0  0  0  0  0
   -1.3786   -1.7075    2.4898 C   0  0  0  0  0  0  0  0  0  0  0  0
   -2.3511    0.6370    1.2561 C   0  0  0  0  0  0  0  0  0  0  0  0
   -3.1136    1.5265    0.5274 C   0  0  0  0  0  0  0  0  0  0  0  0
   -1.9494    0.7260   -2.6380 H   0  0  0  0  0  0  0  0  0  0  0  0
   -0.5926   -0.8705   -1.2699 H   0  0  0  0  0  0  0  0  0  0  0  0
   -0.9079   -2.6730    2.6694 H   0  0  0  0  0  0  0  0  0  0  0  0
   -2.4669   -1.8055    2.4444 H   0  0  0  0  0  0  0  0  0  0  0  0
   -1.0733   -1.0027    3.2705 H   0  0  0  0  0  0  0  0  0  0  0  0
   -2.4998    0.5767    2.3248 H   0  0  0  0  0  0  0  0  0  0  0  0
   -3.8015    2.2059    1.0059 H   0  0  0  0  0  0  0  0  0  0  0  0
   -4.3523   -1.4483    0.8816 O   0  0  0  0  0  0  0  0  0  0  0  0
   -5.0233   -0.6801    0.1734 C   0  0  0  0  0  0  0  0  0  0  0  0
   -5.3429    0.5286    0.3461 O   0  0  0  0  0  0  0  0  0  0  0  0
   -5.4856   -1.2276   -1.2144 C   0  0  0  0  0  0  0  0  0  0  0  0
   -6.8040   -1.0453   -1.4297 F   0  0  0  0  0  0  0  0  0  0  0  0
   -4.8322   -0.5439   -2.2163 F   0  0  0  0  0  0  0  0  0  0  0  0
   -5.2170   -2.5299   -1.4041 F   0  0  0  0  0  0  0  0  0  0  0  0
  1 10  1  0  0  0  0
  2  1  1  0  0  0  0
  3  2  1  0  0  0  0
  4  1  2  0  0  0  0
  4  5  1  0  0  0  0
  5  6  2  0  0  0  0
  6  7  1  0  0  0  0
  6  9  1  0  0  0  0
  7  8  1  0  0  0  0
  8 13  1  0  0  0  0
  8 15  1  0  0  0  0
  9 16  1  0  0  0  0
 10 17  1  0  0  0  0
 10  9  2  0  0  0  0
 11  4  1  0  0  0  0
 12  5  1  0  0  0  0
 14  8  1  0  0  0  0
 19 20  2  0  0  0  0
 19 18  1  0  0  0  0
 21 19  1  0  0  0  0
 22 21  1  0  0  0  0
 23 21  1  0  0  0  0
 24 21  1  0  0  0  0
M  RAD  3   2   2   3   3  18   2
M  END
