Coordinates from ORCA-job 4-MeOPhN2+~CF3COO-_B3LYPG-6-31G_dp-NX-Scan-d89-09-n800
 OpenBabel11261920413D

 24 23  0  0  0  0  0  0  0  0999 V2000
   -2.6823    0.1692   -1.0387 C   0  0  0  0  0  0  0  0  0  0  0  0
   -3.5368    0.3390   -2.1463 N   0  0  0  0  0  0  0  0  0  0  0  0
   -3.6813    0.7327   -3.1928 N   0  0  0  0  0  0  0  0  0  0  0  0
   -1.4560    0.8575   -1.0776 C   0  0  0  0  0  0  0  0  0  0  0  0
   -0.5784    0.7096   -0.0223 C   0  0  0  0  0  0  0  0  0  0  0  0
   -0.9108   -0.1229    1.0670 C   0  0  0  0  0  0  0  0  0  0  0  0
    0.0163   -0.1933    2.0425 O   0  0  0  0  0  0  0  0  0  0  0  0
   -0.2439   -1.0022    3.1889 C   0  0  0  0  0  0  0  0  0  0  0  0
   -2.1376   -0.8086    1.0808 C   0  0  0  0  0  0  0  0  0  0  0  0
   -3.0300   -0.6584    0.0260 C   0  0  0  0  0  0  0  0  0  0  0  0
   -1.2166    1.4953   -1.9211 H   0  0  0  0  0  0  0  0  0  0  0  0
    0.3740    1.2268   -0.0080 H   0  0  0  0  0  0  0  0  0  0  0  0
    0.6312   -0.8946    3.8302 H   0  0  0  0  0  0  0  0  0  0  0  0
   -0.3669   -2.0555    2.9125 H   0  0  0  0  0  0  0  0  0  0  0  0
   -1.1347   -0.6556    3.7252 H   0  0  0  0  0  0  0  0  0  0  0  0
   -2.4086   -1.4522    1.9079 H   0  0  0  0  0  0  0  0  0  0  0  0
   -3.9795   -1.1739    0.0014 H   0  0  0  0  0  0  0  0  0  0  0  0
   -5.1962   -0.5577   -1.7949 O   0  0  0  0  0  0  0  0  0  0  0  0
   -5.9752    0.2153   -1.1129 C   0  0  0  0  0  0  0  0  0  0  0  0
   -5.6752    1.1764   -0.4162 O   0  0  0  0  0  0  0  0  0  0  0  0
   -7.4639   -0.2126   -1.2440 C   0  0  0  0  0  0  0  0  0  0  0  0
   -8.2845    0.6635   -0.6478 F   0  0  0  0  0  0  0  0  0  0  0  0
   -7.8328   -0.3181   -2.5359 F   0  0  0  0  0  0  0  0  0  0  0  0
   -7.6537   -1.4198   -0.6623 F   0  0  0  0  0  0  0  0  0  0  0  0
  1 10  1  0  0  0  0
  2  1  1  0  0  0  0
  3  2  2  0  0  0  0
  4  1  2  0  0  0  0
  4  5  1  0  0  0  0
  5 12  1  0  0  0  0
  5  6  2  0  0  0  0
  6  9  1  0  0  0  0
  6  7  1  0  0  0  0
  7  8  1  0  0  0  0
  8 15  1  0  0  0  0
  8 13  1  0  0  0  0
  9 16  1  0  0  0  0
 10  9  2  0  0  0  0
 11  4  1  0  0  0  0
 14  8  1  0  0  0  0
 17 10  1  0  0  0  0
 18 19  2  0  0  0  0
 19 20  1  0  0  0  0
 21 19  1  0  0  0  0
 21 24  1  0  0  0  0
 21 22  1  0  0  0  0
 23 21  1  0  0  0  0
M  RAD  2   3   2  20   2
M  END
