Coordinates from ORCA-job 4-MeOPhN2+~CF3COO-_B3LYPG-6-31G_dp-NX-Scan-d89-09-n800
 OpenBabel11261920413D

 24 23  0  0  0  0  0  0  0  0999 V2000
   -1.8756    2.1325   -1.4488 C   0  0  0  0  0  0  0  0  0  0  0  0
   -2.1386    3.1556   -2.2785 N   0  0  0  0  0  0  0  0  0  0  0  0
   -2.3704    4.0183   -2.9681 N   0  0  0  0  0  0  0  0  0  0  0  0
   -0.5219    1.7172   -1.2773 C   0  0  0  0  0  0  0  0  0  0  0  0
   -0.2703    0.6773   -0.4264 C   0  0  0  0  0  0  0  0  0  0  0  0
   -1.3393    0.0315    0.2691 C   0  0  0  0  0  0  0  0  0  0  0  0
   -0.9749   -0.9499    1.0613 O   0  0  0  0  0  0  0  0  0  0  0  0
   -1.9741   -1.6659    1.8493 C   0  0  0  0  0  0  0  0  0  0  0  0
   -2.6855    0.4536    0.0919 C   0  0  0  0  0  0  0  0  0  0  0  0
   -2.9504    1.4918   -0.7646 C   0  0  0  0  0  0  0  0  0  0  0  0
    0.2757    2.2210   -1.8114 H   0  0  0  0  0  0  0  0  0  0  0  0
    0.7397    0.3204   -0.2604 H   0  0  0  0  0  0  0  0  0  0  0  0
   -1.4129   -2.4609    2.3370 H   0  0  0  0  0  0  0  0  0  0  0  0
   -2.7849   -2.0645    1.2173 H   0  0  0  0  0  0  0  0  0  0  0  0
   -2.3918   -0.9828    2.5938 H   0  0  0  0  0  0  0  0  0  0  0  0
   -3.5603   -0.0325    0.5798 H   0  0  0  0  0  0  0  0  0  0  0  0
   -3.9751    1.8140   -0.9204 H   0  0  0  0  0  0  0  0  0  0  0  0
   -4.5612   -2.6642    0.5841 O   0  0  0  0  0  0  0  0  0  0  0  0
   -5.3956   -1.7437    0.6932 C   0  0  0  0  0  0  0  0  0  0  0  0
   -5.2280   -0.5131    0.9072 O   0  0  0  0  0  0  0  0  0  0  0  0
   -6.8931   -2.1411    0.5275 C   0  0  0  0  0  0  0  0  0  0  0  0
   -7.6320   -1.7347    1.5863 F   0  0  0  0  0  0  0  0  0  0  0  0
   -7.4226   -1.5521   -0.5757 F   0  0  0  0  0  0  0  0  0  0  0  0
   -7.0807   -3.4680    0.3958 F   0  0  0  0  0  0  0  0  0  0  0  0
  1  4  2  0  0  0  0
  1 10  1  0  0  0  0
  2  1  1  0  0  0  0
  3  2  1  0  0  0  0
  4  5  1  0  0  0  0
  5 12  1  0  0  0  0
  5  6  2  0  0  0  0
  6  7  1  0  0  0  0
  7  8  1  0  0  0  0
  8 13  1  0  0  0  0
  8 15  1  0  0  0  0
  9  6  1  0  0  0  0
  9 16  1  0  0  0  0
 10  9  2  0  0  0  0
 11  4  1  0  0  0  0
 14  8  1  0  0  0  0
 17 10  1  0  0  0  0
 18 19  2  0  0  0  0
 19 20  1  0  0  0  0
 21 19  1  0  0  0  0
 21 22  1  0  0  0  0
 23 21  1  0  0  0  0
 24 21  1  0  0  0  0
M  RAD  3   2   2   3   3  20   2
M  END
