Coordinates from ORCA-job 4-MeOPhN2+~CF3COO-_B3LYPG-6-31G_dp-NX-Scan-d89-09-n800
 OpenBabel11261920413D

 24 23  0  0  0  0  0  0  0  0999 V2000
   -2.6266    0.3112   -1.0375 C   0  0  0  0  0  0  0  0  0  0  0  0
   -3.4524    0.4947   -2.1635 N   0  0  0  0  0  0  0  0  0  0  0  0
   -3.5517    0.7081   -3.2663 N   0  0  0  0  0  0  0  0  0  0  0  0
   -1.4166    1.0290   -1.0182 C   0  0  0  0  0  0  0  0  0  0  0  0
   -0.5656    0.8513    0.0546 C   0  0  0  0  0  0  0  0  0  0  0  0
   -0.9049   -0.0455    1.0900 C   0  0  0  0  0  0  0  0  0  0  0  0
   -0.0023   -0.1419    2.0850 O   0  0  0  0  0  0  0  0  0  0  0  0
   -0.2655   -1.0212    3.1784 C   0  0  0  0  0  0  0  0  0  0  0  0
   -2.1122   -0.7651    1.0342 C   0  0  0  0  0  0  0  0  0  0  0  0
   -2.9880   -0.5789   -0.0277 C   0  0  0  0  0  0  0  0  0  0  0  0
   -1.1697    1.7132   -1.8226 H   0  0  0  0  0  0  0  0  0  0  0  0
    0.3716    1.3915    0.1216 H   0  0  0  0  0  0  0  0  0  0  0  0
    0.5892   -0.9220    3.8480 H   0  0  0  0  0  0  0  0  0  0  0  0
   -0.3469   -2.0606    2.8412 H   0  0  0  0  0  0  0  0  0  0  0  0
   -1.1804   -0.7328    3.7081 H   0  0  0  0  0  0  0  0  0  0  0  0
   -2.3795   -1.4675    1.8137 H   0  0  0  0  0  0  0  0  0  0  0  0
   -3.9181   -1.1332   -0.1314 H   0  0  0  0  0  0  0  0  0  0  0  0
   -5.5514   -1.5078   -1.3382 O   0  0  0  0  0  0  0  0  0  0  0  0
   -5.9955   -0.3574   -1.2451 C   0  0  0  0  0  0  0  0  0  0  0  0
   -5.3615    0.7461   -1.2226 O   0  0  0  0  0  0  0  0  0  0  0  0
   -7.5379   -0.1651   -1.1519 C   0  0  0  0  0  0  0  0  0  0  0  0
   -7.8691    0.6460   -0.1253 F   0  0  0  0  0  0  0  0  0  0  0  0
   -8.0077    0.3979   -2.2870 F   0  0  0  0  0  0  0  0  0  0  0  0
   -8.1808   -1.3302   -0.9758 F   0  0  0  0  0  0  0  0  0  0  0  0
  1  4  2  0  0  0  0
  1 10  1  0  0  0  0
  2  1  1  0  0  0  0
  3  2  2  0  0  0  0
  4  5  1  0  0  0  0
  5 12  1  0  0  0  0
  5  6  2  0  0  0  0
  6  7  1  0  0  0  0
  7  8  1  0  0  0  0
  8 15  1  0  0  0  0
  8 13  1  0  0  0  0
  9  6  1  0  0  0  0
  9 16  1  0  0  0  0
 10  9  2  0  0  0  0
 11  4  1  0  0  0  0
 14  8  1  0  0  0  0
 17 10  1  0  0  0  0
 18 19  2  0  0  0  0
 19 20  1  0  0  0  0
 19 21  1  0  0  0  0
 21 24  1  0  0  0  0
 21 22  1  0  0  0  0
 23 21  1  0  0  0  0
M  RAD  2   3   2  20   2
M  END
