Coordinates from ORCA-job 4-MeOPhN2+~CF3COO-_B3LYPG-6-31G_dp-NX-Scan-d89-09-n800
 OpenBabel11261920413D

 24 24  0  0  0  0  0  0  0  0999 V2000
   -2.0603   -0.9746    0.7148 C   0  0  0  0  0  0  0  0  0  0  0  0
   -2.1530   -2.1734    1.4713 N   0  0  0  0  0  0  0  0  0  0  0  0
   -3.2278   -2.7842    1.7314 N   0  0  0  0  0  0  0  0  0  0  0  0
   -0.7199   -0.6707    0.3849 C   0  0  0  0  0  0  0  0  0  0  0  0
   -0.3835    0.4609   -0.3332 C   0  0  0  0  0  0  0  0  0  0  0  0
   -1.3888    1.3570   -0.7342 C   0  0  0  0  0  0  0  0  0  0  0  0
   -0.9687    2.4436   -1.4317 O   0  0  0  0  0  0  0  0  0  0  0  0
   -1.9361    3.3907   -1.8648 C   0  0  0  0  0  0  0  0  0  0  0  0
   -2.7233    1.0906   -0.3986 C   0  0  0  0  0  0  0  0  0  0  0  0
   -3.0584   -0.0628    0.3109 C   0  0  0  0  0  0  0  0  0  0  0  0
    0.0449   -1.3656    0.7152 H   0  0  0  0  0  0  0  0  0  0  0  0
    0.6460    0.6834   -0.5924 H   0  0  0  0  0  0  0  0  0  0  0  0
   -1.3818    4.1598   -2.4043 H   0  0  0  0  0  0  0  0  0  0  0  0
   -2.4586    3.8492   -1.0165 H   0  0  0  0  0  0  0  0  0  0  0  0
   -2.6723    2.9346   -2.5386 H   0  0  0  0  0  0  0  0  0  0  0  0
   -3.5145    1.7724   -0.6869 H   0  0  0  0  0  0  0  0  0  0  0  0
   -4.0984   -0.2218    0.5513 H   0  0  0  0  0  0  0  0  0  0  0  0
   -4.2221   -2.3383    1.3045 O   0  0  0  0  0  0  0  0  0  0  0  0
   -5.4105   -3.0085    1.6218 C   0  0  0  0  0  0  0  0  0  0  0  0
   -5.5147   -3.9589    2.3283 O   0  0  0  0  0  0  0  0  0  0  0  0
   -6.5528   -2.2944    0.8766 C   0  0  0  0  0  0  0  0  0  0  0  0
   -7.7239   -2.8000    1.2540 F   0  0  0  0  0  0  0  0  0  0  0  0
   -6.5383   -0.9742    1.1466 F   0  0  0  0  0  0  0  0  0  0  0  0
   -6.4069   -2.4546   -0.4483 F   0  0  0  0  0  0  0  0  0  0  0  0
  1  2  1  0  0  0  0
  2  3  2  0  0  0  0
  4  1  1  0  0  0  0
  4 11  1  0  0  0  0
  5  4  2  0  0  0  0
  6  9  2  0  0  0  0
  6  5  1  0  0  0  0
  7  6  1  0  0  0  0
  8  7  1  0  0  0  0
  8 14  1  0  0  0  0
  9 10  1  0  0  0  0
 10 17  1  0  0  0  0
 10  1  2  0  0  0  0
 12  5  1  0  0  0  0
 13  8  1  0  0  0  0
 15  8  1  0  0  0  0
 16  9  1  0  0  0  0
 18 19  1  0  0  0  0
 18  3  1  0  0  0  0
 19 20  2  0  0  0  0
 21 23  1  0  0  0  0
 21 22  1  0  0  0  0
 21 19  1  0  0  0  0
 24 21  1  0  0  0  0
M  END
