Coordinates from ORCA-job 4-MeOPhN2+~CF3COO-_B3LYPG-6-31G_dp-NX-Scan-d89-09-n800
 OpenBabel11261920413D

 24 23  0  0  0  0  0  0  0  0999 V2000
   -2.6413    0.2409   -1.0479 C   0  0  0  0  0  0  0  0  0  0  0  0
   -3.4671    0.3976   -2.1709 N   0  0  0  0  0  0  0  0  0  0  0  0
   -3.6385    0.5590   -3.2697 N   0  0  0  0  0  0  0  0  0  0  0  0
   -1.4471    0.9837   -1.0323 C   0  0  0  0  0  0  0  0  0  0  0  0
   -0.5955    0.8331    0.0446 C   0  0  0  0  0  0  0  0  0  0  0  0
   -0.9218   -0.0553    1.0905 C   0  0  0  0  0  0  0  0  0  0  0  0
   -0.0208   -0.1239    2.0888 O   0  0  0  0  0  0  0  0  0  0  0  0
   -0.2741   -0.9893    3.1957 C   0  0  0  0  0  0  0  0  0  0  0  0
   -2.1175   -0.7960    1.0420 C   0  0  0  0  0  0  0  0  0  0  0  0
   -2.9910   -0.6407   -0.0255 C   0  0  0  0  0  0  0  0  0  0  0  0
   -1.2105    1.6634   -1.8434 H   0  0  0  0  0  0  0  0  0  0  0  0
    0.3326    1.3895    0.1063 H   0  0  0  0  0  0  0  0  0  0  0  0
    0.5774   -0.8671    3.8654 H   0  0  0  0  0  0  0  0  0  0  0  0
   -0.3398   -2.0351    2.8750 H   0  0  0  0  0  0  0  0  0  0  0  0
   -1.1943   -0.7053    3.7187 H   0  0  0  0  0  0  0  0  0  0  0  0
   -2.3772   -1.4886    1.8326 H   0  0  0  0  0  0  0  0  0  0  0  0
   -3.9160   -1.1992   -0.1231 H   0  0  0  0  0  0  0  0  0  0  0  0
   -5.4282   -1.2809   -1.6173 O   0  0  0  0  0  0  0  0  0  0  0  0
   -5.9471   -0.1976   -1.2888 C   0  0  0  0  0  0  0  0  0  0  0  0
   -5.3738    0.9099   -1.0896 O   0  0  0  0  0  0  0  0  0  0  0  0
   -7.4935   -0.1532   -1.1289 C   0  0  0  0  0  0  0  0  0  0  0  0
   -7.8560    0.5221   -0.0183 F   0  0  0  0  0  0  0  0  0  0  0  0
   -8.0497    0.4744   -2.1896 F   0  0  0  0  0  0  0  0  0  0  0  0
   -8.0326   -1.3815   -1.0524 F   0  0  0  0  0  0  0  0  0  0  0  0
  1  4  2  0  0  0  0
  1 10  1  0  0  0  0
  2  1  1  0  0  0  0
  3  2  2  0  0  0  0
  4  5  1  0  0  0  0
  5 12  1  0  0  0  0
  5  6  2  0  0  0  0
  6  7  1  0  0  0  0
  7  8  1  0  0  0  0
  8 15  1  0  0  0  0
  8 13  1  0  0  0  0
  9  6  1  0  0  0  0
  9 16  1  0  0  0  0
 10  9  2  0  0  0  0
 11  4  1  0  0  0  0
 14  8  1  0  0  0  0
 17 10  1  0  0  0  0
 18 19  2  0  0  0  0
 19 21  1  0  0  0  0
 19 20  1  0  0  0  0
 21 24  1  0  0  0  0
 21 22  1  0  0  0  0
 23 21  1  0  0  0  0
M  RAD  2   3   2  20   2
M  END
