Coordinates from ORCA-job 4-MeOPhN2+~CF3COO-_B3LYPG-6-31G_dp-NX-Scan-d89-09-n800
 OpenBabel11261920413D

 24 23  0  0  0  0  0  0  0  0999 V2000
   -2.6379    0.2251   -1.0575 C   0  0  0  0  0  0  0  0  0  0  0  0
   -3.4559    0.3815   -2.1839 N   0  0  0  0  0  0  0  0  0  0  0  0
   -3.6328    0.5714   -3.2768 N   0  0  0  0  0  0  0  0  0  0  0  0
   -1.4505    0.9800   -1.0333 C   0  0  0  0  0  0  0  0  0  0  0  0
   -0.6028    0.8345    0.0468 C   0  0  0  0  0  0  0  0  0  0  0  0
   -0.9260   -0.0596    1.0892 C   0  0  0  0  0  0  0  0  0  0  0  0
   -0.0294   -0.1218    2.0913 O   0  0  0  0  0  0  0  0  0  0  0  0
   -0.2804   -0.9904    3.1965 C   0  0  0  0  0  0  0  0  0  0  0  0
   -2.1146   -0.8110    1.0332 C   0  0  0  0  0  0  0  0  0  0  0  0
   -2.9836   -0.6627   -0.0387 C   0  0  0  0  0  0  0  0  0  0  0  0
   -1.2167    1.6645   -1.8413 H   0  0  0  0  0  0  0  0  0  0  0  0
    0.3197    1.3993    0.1143 H   0  0  0  0  0  0  0  0  0  0  0  0
    0.5669   -0.8610    3.8703 H   0  0  0  0  0  0  0  0  0  0  0  0
   -0.3352   -2.0363    2.8746 H   0  0  0  0  0  0  0  0  0  0  0  0
   -1.2055   -0.7148    3.7151 H   0  0  0  0  0  0  0  0  0  0  0  0
   -2.3725   -1.5066    1.8218 H   0  0  0  0  0  0  0  0  0  0  0  0
   -3.9065   -1.2242   -0.1420 H   0  0  0  0  0  0  0  0  0  0  0  0
   -5.4064   -1.2360   -1.6079 O   0  0  0  0  0  0  0  0  0  0  0  0
   -5.9423   -0.1583   -1.2741 C   0  0  0  0  0  0  0  0  0  0  0  0
   -5.3887    0.9544   -1.0757 O   0  0  0  0  0  0  0  0  0  0  0  0
   -7.4901   -0.1513   -1.1188 C   0  0  0  0  0  0  0  0  0  0  0  0
   -7.8789    0.5669   -0.0454 F   0  0  0  0  0  0  0  0  0  0  0  0
   -8.0584    0.4064   -2.2122 F   0  0  0  0  0  0  0  0  0  0  0  0
   -7.9951   -1.3900   -0.9836 F   0  0  0  0  0  0  0  0  0  0  0  0
  1  4  2  0  0  0  0
  1 10  1  0  0  0  0
  2  1  1  0  0  0  0
  3  2  2  0  0  0  0
  4  5  1  0  0  0  0
  5 12  1  0  0  0  0
  5  6  2  0  0  0  0
  6  7  1  0  0  0  0
  7  8  1  0  0  0  0
  8 15  1  0  0  0  0
  8 13  1  0  0  0  0
  9  6  1  0  0  0  0
  9 16  1  0  0  0  0
 10  9  2  0  0  0  0
 11  4  1  0  0  0  0
 14  8  1  0  0  0  0
 17 10  1  0  0  0  0
 18 19  2  0  0  0  0
 19 21  1  0  0  0  0
 19 20  1  0  0  0  0
 21 24  1  0  0  0  0
 21 22  1  0  0  0  0
 23 21  1  0  0  0  0
M  RAD  2   3   2  20   2
M  END
