Coordinates from ORCA-job 4-MeOPhN2+~CF3COO-_B3LYPG-6-31G_dp-NX-Scan-d89-09-n800
 OpenBabel11261920413D

 24 23  0  0  0  0  0  0  0  0999 V2000
   -2.6143    0.3324   -1.0399 C   0  0  0  0  0  0  0  0  0  0  0  0
   -3.4339    0.5274   -2.1674 N   0  0  0  0  0  0  0  0  0  0  0  0
   -3.5327    0.7730   -3.2636 N   0  0  0  0  0  0  0  0  0  0  0  0
   -1.4002    1.0450   -1.0147 C   0  0  0  0  0  0  0  0  0  0  0  0
   -0.5519    0.8573    0.0577 C   0  0  0  0  0  0  0  0  0  0  0  0
   -0.8968   -0.0450    1.0872 C   0  0  0  0  0  0  0  0  0  0  0  0
    0.0036   -0.1506    2.0828 O   0  0  0  0  0  0  0  0  0  0  0  0
   -0.2644   -1.0356    3.1708 C   0  0  0  0  0  0  0  0  0  0  0  0
   -2.1066   -0.7596    1.0248 C   0  0  0  0  0  0  0  0  0  0  0  0
   -2.9809   -0.5637   -0.0369 C   0  0  0  0  0  0  0  0  0  0  0  0
   -1.1492    1.7328   -1.8149 H   0  0  0  0  0  0  0  0  0  0  0  0
    0.3873    1.3934    0.1299 H   0  0  0  0  0  0  0  0  0  0  0  0
    0.5897   -0.9431    3.8421 H   0  0  0  0  0  0  0  0  0  0  0  0
   -0.3490   -2.0725    2.8272 H   0  0  0  0  0  0  0  0  0  0  0  0
   -1.1792   -0.7469    3.7006 H   0  0  0  0  0  0  0  0  0  0  0  0
   -2.3779   -1.4658    1.7994 H   0  0  0  0  0  0  0  0  0  0  0  0
   -3.9153   -1.1144   -0.1441 H   0  0  0  0  0  0  0  0  0  0  0  0
   -5.5895   -1.5532   -1.1725 O   0  0  0  0  0  0  0  0  0  0  0  0
   -6.0162   -0.3931   -1.2005 C   0  0  0  0  0  0  0  0  0  0  0  0
   -5.3717    0.7030   -1.2626 O   0  0  0  0  0  0  0  0  0  0  0  0
   -7.5581   -0.1737   -1.1647 C   0  0  0  0  0  0  0  0  0  0  0  0
   -7.9040    0.6988   -0.1948 F   0  0  0  0  0  0  0  0  0  0  0  0
   -7.9877    0.3312   -2.3424 F   0  0  0  0  0  0  0  0  0  0  0  0
   -8.2249   -1.3172   -0.9419 F   0  0  0  0  0  0  0  0  0  0  0  0
  1  4  2  0  0  0  0
  1 10  1  0  0  0  0
  2  1  1  0  0  0  0
  3  2  2  0  0  0  0
  4  5  1  0  0  0  0
  5 12  1  0  0  0  0
  5  6  2  0  0  0  0
  6  7  1  0  0  0  0
  7  8  1  0  0  0  0
  8 15  1  0  0  0  0
  8 13  1  0  0  0  0
  9  6  1  0  0  0  0
  9 16  1  0  0  0  0
 10  9  2  0  0  0  0
 11  4  1  0  0  0  0
 14  8  1  0  0  0  0
 17 10  1  0  0  0  0
 19 18  1  0  0  0  0
 19 21  1  0  0  0  0
 20 19  2  0  0  0  0
 21 24  1  0  0  0  0
 21 22  1  0  0  0  0
 23 21  1  0  0  0  0
M  RAD  2   3   2  18   2
M  END
