Coordinates from ORCA-job 4-MeOPhN2+~CF3COO-_B3LYPG-6-31G_dp-NX-Scan-d89-09-n800
 OpenBabel11261920413D

 24 24  0  0  0  0  0  0  0  0999 V2000
   -1.9402   -0.9974    0.5446 C   0  0  0  0  0  0  0  0  0  0  0  0
   -2.1176   -2.2264    1.1895 N   0  0  0  0  0  0  0  0  0  0  0  0
   -3.0030   -2.9420    1.5272 N   0  0  0  0  0  0  0  0  0  0  0  0
   -0.5936   -0.6071    0.3949 C   0  0  0  0  0  0  0  0  0  0  0  0
   -0.2745    0.5885   -0.2173 C   0  0  0  0  0  0  0  0  0  0  0  0
   -1.3011    1.4259   -0.6935 C   0  0  0  0  0  0  0  0  0  0  0  0
   -0.8939    2.5733   -1.2766 O   0  0  0  0  0  0  0  0  0  0  0  0
   -1.8725    3.4759   -1.7874 C   0  0  0  0  0  0  0  0  0  0  0  0
   -2.6456    1.0419   -0.5441 C   0  0  0  0  0  0  0  0  0  0  0  0
   -2.9704   -0.1622    0.0691 C   0  0  0  0  0  0  0  0  0  0  0  0
    0.1825   -1.2649    0.7705 H   0  0  0  0  0  0  0  0  0  0  0  0
    0.7549    0.9054   -0.3425 H   0  0  0  0  0  0  0  0  0  0  0  0
   -1.3136    4.3162   -2.1990 H   0  0  0  0  0  0  0  0  0  0  0  0
   -2.5373    3.8343   -0.9934 H   0  0  0  0  0  0  0  0  0  0  0  0
   -2.4672    3.0105   -2.5820 H   0  0  0  0  0  0  0  0  0  0  0  0
   -3.4463    1.6753   -0.9050 H   0  0  0  0  0  0  0  0  0  0  0  0
   -4.0033   -0.4563    0.1845 H   0  0  0  0  0  0  0  0  0  0  0  0
   -4.4840   -2.3367    1.0451 O   0  0  0  0  0  0  0  0  0  0  0  0
   -5.4967   -2.9022    1.6775 C   0  0  0  0  0  0  0  0  0  0  0  0
   -5.4935   -3.6821    2.5976 O   0  0  0  0  0  0  0  0  0  0  0  0
   -6.8241   -2.4152    1.0311 C   0  0  0  0  0  0  0  0  0  0  0  0
   -7.8676   -2.6864    1.8194 F   0  0  0  0  0  0  0  0  0  0  0  0
   -6.8003   -1.0816    0.8066 F   0  0  0  0  0  0  0  0  0  0  0  0
   -7.0147   -3.0269   -0.1550 F   0  0  0  0  0  0  0  0  0  0  0  0
  1  2  1  0  0  0  0
  2  3  1  0  0  0  0
  4  1  1  0  0  0  0
  4 11  1  0  0  0  0
  5  4  2  0  0  0  0
  6  9  2  0  0  0  0
  6  5  1  0  0  0  0
  7  6  1  0  0  0  0
  8  7  1  0  0  0  0
  8 14  1  0  0  0  0
  9 10  1  0  0  0  0
 10 17  1  0  0  0  0
 10  1  2  0  0  0  0
 12  5  1  0  0  0  0
 13  8  1  0  0  0  0
 15  8  1  0  0  0  0
 16  9  1  0  0  0  0
 18  3  1  0  0  0  0
 18 19  1  0  0  0  0
 19 20  2  0  0  0  0
 21 19  1  0  0  0  0
 21 22  1  0  0  0  0
 23 21  1  0  0  0  0
 24 21  1  0  0  0  0
M  RAD  2   2   2   3   2
M  END
