Coordinates from ORCA-job 4-MeOPhN2+~CF3COO-_B3LYPG-6-31G_dp-NX-Scan-d89-09-n800
 OpenBabel11261920413D

 24 23  0  0  0  0  0  0  0  0999 V2000
   -2.3968    0.3468   -1.1451 C   0  0  0  0  0  0  0  0  0  0  0  0
   -3.1929    0.6076   -2.2353 N   0  0  0  0  0  0  0  0  0  0  0  0
   -3.8935    0.8002   -3.0876 N   0  0  0  0  0  0  0  0  0  0  0  0
   -1.0093    0.5837   -1.2813 C   0  0  0  0  0  0  0  0  0  0  0  0
   -0.1895    0.3317   -0.2057 C   0  0  0  0  0  0  0  0  0  0  0  0
   -0.7382   -0.1547    1.0054 C   0  0  0  0  0  0  0  0  0  0  0  0
    0.1504   -0.3646    1.9879 O   0  0  0  0  0  0  0  0  0  0  0  0
   -0.3077   -0.8502    3.2549 C   0  0  0  0  0  0  0  0  0  0  0  0
   -2.1221   -0.3839    1.1176 C   0  0  0  0  0  0  0  0  0  0  0  0
   -2.9690   -0.1369    0.0475 C   0  0  0  0  0  0  0  0  0  0  0  0
   -0.6072    0.9570   -2.2168 H   0  0  0  0  0  0  0  0  0  0  0  0
    0.8800    0.4992   -0.2598 H   0  0  0  0  0  0  0  0  0  0  0  0
    0.5840   -0.9310    3.8756 H   0  0  0  0  0  0  0  0  0  0  0  0
   -0.7757   -1.8347    3.1529 H   0  0  0  0  0  0  0  0  0  0  0  0
   -1.0134   -0.1486    3.7124 H   0  0  0  0  0  0  0  0  0  0  0  0
   -2.5552   -0.7570    2.0371 H   0  0  0  0  0  0  0  0  0  0  0  0
   -4.0480   -0.3088    0.1188 H   0  0  0  0  0  0  0  0  0  0  0  0
   -5.4245    0.0978   -1.5933 O   0  0  0  0  0  0  0  0  0  0  0  0
   -6.3038   -0.3094   -0.7764 C   0  0  0  0  0  0  0  0  0  0  0  0
   -6.1213   -0.6870    0.3911 O   0  0  0  0  0  0  0  0  0  0  0  0
   -7.7505   -0.3245   -1.3385 C   0  0  0  0  0  0  0  0  0  0  0  0
   -8.6563   -0.7477   -0.4401 F   0  0  0  0  0  0  0  0  0  0  0  0
   -8.1253    0.9132   -1.7413 F   0  0  0  0  0  0  0  0  0  0  0  0
   -7.8377   -1.1384   -2.4180 F   0  0  0  0  0  0  0  0  0  0  0  0
  1 10  1  0  0  0  0
  2  1  1  0  0  0  0
  3  2  1  0  0  0  0
  4  1  2  0  0  0  0
  4  5  1  0  0  0  0
  5  6  2  0  0  0  0
  6  9  1  0  0  0  0
  6  7  1  0  0  0  0
  7  8  1  0  0  0  0
  8 15  1  0  0  0  0
  8 13  1  0  0  0  0
  9 16  1  0  0  0  0
 10 17  1  0  0  0  0
 10  9  2  0  0  0  0
 11  4  1  0  0  0  0
 12  5  1  0  0  0  0
 14  8  1  0  0  0  0
 18 19  2  0  0  0  0
 19 20  1  0  0  0  0
 21 19  1  0  0  0  0
 21 22  1  0  0  0  0
 23 21  1  0  0  0  0
 24 21  1  0  0  0  0
M  RAD  3   2   2   3   3  20   2
M  END
