Coordinates from ORCA-job 4-MeOPhN2+~CF3COO-_B3LYPG-6-31G_dp-NX-Scan-d89-09-n800
 OpenBabel11261920413D

 24 24  0  0  0  0  0  0  0  0999 V2000
   -2.0625   -0.9744    0.7207 C   0  0  0  0  0  0  0  0  0  0  0  0
   -2.1549   -2.1714    1.4820 N   0  0  0  0  0  0  0  0  0  0  0  0
   -3.2414   -2.7747    1.7331 N   0  0  0  0  0  0  0  0  0  0  0  0
   -0.7230   -0.6730    0.3848 C   0  0  0  0  0  0  0  0  0  0  0  0
   -0.3873    0.4567   -0.3367 C   0  0  0  0  0  0  0  0  0  0  0  0
   -1.3921    1.3543   -0.7357 C   0  0  0  0  0  0  0  0  0  0  0  0
   -0.9721    2.4391   -1.4371 O   0  0  0  0  0  0  0  0  0  0  0  0
   -1.9394    3.3870   -1.8675 C   0  0  0  0  0  0  0  0  0  0  0  0
   -2.7254    1.0910   -0.3944 C   0  0  0  0  0  0  0  0  0  0  0  0
   -3.0598   -0.0609    0.3186 C   0  0  0  0  0  0  0  0  0  0  0  0
    0.0419   -1.3686    0.7136 H   0  0  0  0  0  0  0  0  0  0  0  0
    0.6418    0.6767   -0.6000 H   0  0  0  0  0  0  0  0  0  0  0  0
   -1.3863    4.1546   -2.4104 H   0  0  0  0  0  0  0  0  0  0  0  0
   -2.4579    3.8477   -1.0178 H   0  0  0  0  0  0  0  0  0  0  0  0
   -2.6794    2.9314   -2.5377 H   0  0  0  0  0  0  0  0  0  0  0  0
   -3.5166    1.7737   -0.6809 H   0  0  0  0  0  0  0  0  0  0  0  0
   -4.0995   -0.2161    0.5631 H   0  0  0  0  0  0  0  0  0  0  0  0
   -4.2093   -2.3421    1.3131 O   0  0  0  0  0  0  0  0  0  0  0  0
   -5.4110   -3.0132    1.6198 C   0  0  0  0  0  0  0  0  0  0  0  0
   -5.5149   -3.9673    2.3198 O   0  0  0  0  0  0  0  0  0  0  0  0
   -6.5436   -2.2886    0.8722 C   0  0  0  0  0  0  0  0  0  0  0  0
   -7.7181   -2.8021    1.2268 F   0  0  0  0  0  0  0  0  0  0  0  0
   -6.5329   -0.9737    1.1654 F   0  0  0  0  0  0  0  0  0  0  0  0
   -6.3801   -2.4262   -0.4528 F   0  0  0  0  0  0  0  0  0  0  0  0
  1  2  1  0  0  0  0
  2  3  2  0  0  0  0
  4 11  1  0  0  0  0
  4  1  1  0  0  0  0
  5  4  2  0  0  0  0
  6  9  2  0  0  0  0
  6  5  1  0  0  0  0
  7  6  1  0  0  0  0
  8  7  1  0  0  0  0
  8 14  1  0  0  0  0
  9 10  1  0  0  0  0
 10 17  1  0  0  0  0
 10  1  2  0  0  0  0
 12  5  1  0  0  0  0
 13  8  1  0  0  0  0
 15  8  1  0  0  0  0
 16  9  1  0  0  0  0
 18 19  1  0  0  0  0
 18  3  1  0  0  0  0
 19 20  2  0  0  0  0
 21 23  1  0  0  0  0
 21 22  1  0  0  0  0
 21 19  1  0  0  0  0
 24 21  1  0  0  0  0
M  END
