Coordinates from ORCA-job 4-MeOPhN2+~CF3COO-_B3LYPG-6-31G_dp-NX-Scan-d89-09-n800
 OpenBabel11261920413D

 24 23  0  0  0  0  0  0  0  0999 V2000
   -2.5599    1.6399   -1.3008 C   0  0  0  0  0  0  0  0  0  0  0  0
   -3.1622    2.4372   -2.2003 N   0  0  0  0  0  0  0  0  0  0  0  0
   -3.6821    3.1064   -2.9424 N   0  0  0  0  0  0  0  0  0  0  0  0
   -1.2286    1.1958   -1.5515 C   0  0  0  0  0  0  0  0  0  0  0  0
   -0.6617    0.3236   -0.6627 C   0  0  0  0  0  0  0  0  0  0  0  0
   -1.4018   -0.1341    0.4696 C   0  0  0  0  0  0  0  0  0  0  0  0
   -0.8064   -1.0463    1.2102 O   0  0  0  0  0  0  0  0  0  0  0  0
   -1.5541   -1.6878    2.2839 C   0  0  0  0  0  0  0  0  0  0  0  0
   -2.6937    0.3752    0.7380 C   0  0  0  0  0  0  0  0  0  0  0  0
   -3.2892    1.2345   -0.1503 C   0  0  0  0  0  0  0  0  0  0  0  0
   -0.6973    1.5328   -2.4345 H   0  0  0  0  0  0  0  0  0  0  0  0
    0.3373   -0.0667   -0.8187 H   0  0  0  0  0  0  0  0  0  0  0  0
   -0.9103   -2.5000    2.6175 H   0  0  0  0  0  0  0  0  0  0  0  0
   -2.5149   -2.0518    1.8938 H   0  0  0  0  0  0  0  0  0  0  0  0
   -1.7073   -0.9728    3.0976 H   0  0  0  0  0  0  0  0  0  0  0  0
   -3.3150    0.0321    1.5634 H   0  0  0  0  0  0  0  0  0  0  0  0
   -4.3205    1.5285    0.0076 H   0  0  0  0  0  0  0  0  0  0  0  0
   -4.2536   -2.1763    0.7086 O   0  0  0  0  0  0  0  0  0  0  0  0
   -5.1455   -1.3021    0.7652 C   0  0  0  0  0  0  0  0  0  0  0  0
   -5.2979   -0.3398    1.5553 O   0  0  0  0  0  0  0  0  0  0  0  0
   -6.1588   -1.2986   -0.4202 C   0  0  0  0  0  0  0  0  0  0  0  0
   -7.4218   -1.0264   -0.0394 F   0  0  0  0  0  0  0  0  0  0  0  0
   -5.7930   -0.3027   -1.2984 F   0  0  0  0  0  0  0  0  0  0  0  0
   -6.1853   -2.4407   -1.1296 F   0  0  0  0  0  0  0  0  0  0  0  0
  1 10  1  0  0  0  0
  2  1  1  0  0  0  0
  3  2  1  0  0  0  0
  4  1  2  0  0  0  0
  4  5  1  0  0  0  0
  5  6  2  0  0  0  0
  6  9  1  0  0  0  0
  6  7  1  0  0  0  0
  7  8  1  0  0  0  0
  8 13  1  0  0  0  0
  8 15  1  0  0  0  0
  9 16  1  0  0  0  0
 10 17  1  0  0  0  0
 10  9  2  0  0  0  0
 11  4  1  0  0  0  0
 12  5  1  0  0  0  0
 14  8  1  0  0  0  0
 18 19  2  0  0  0  0
 19 20  1  0  0  0  0
 21 22  1  0  0  0  0
 21 19  1  0  0  0  0
 23 21  1  0  0  0  0
 24 21  1  0  0  0  0
M  RAD  3   2   2   3   3  20   2
M  END
