Coordinates from ORCA-job 4-MeOPhN2+~CF3COO-_B3LYPG-6-31G_dp-NX-Scan-d89-09-n800
 OpenBabel11261920413D

 24 23  0  0  0  0  0  0  0  0999 V2000
   -2.5665    1.6332   -1.2973 C   0  0  0  0  0  0  0  0  0  0  0  0
   -3.1760    2.4218   -2.1996 N   0  0  0  0  0  0  0  0  0  0  0  0
   -3.7041    3.0825   -2.9435 N   0  0  0  0  0  0  0  0  0  0  0  0
   -1.2361    1.1891   -1.5517 C   0  0  0  0  0  0  0  0  0  0  0  0
   -0.6651    0.3208   -0.6616 C   0  0  0  0  0  0  0  0  0  0  0  0
   -1.4012   -0.1341    0.4744 C   0  0  0  0  0  0  0  0  0  0  0  0
   -0.8038   -1.0459    1.2142 O   0  0  0  0  0  0  0  0  0  0  0  0
   -1.5505   -1.6888    2.2876 C   0  0  0  0  0  0  0  0  0  0  0  0
   -2.6914    0.3767    0.7471 C   0  0  0  0  0  0  0  0  0  0  0  0
   -3.2903    1.2335   -0.1415 C   0  0  0  0  0  0  0  0  0  0  0  0
   -0.7088    1.5223   -2.4385 H   0  0  0  0  0  0  0  0  0  0  0  0
    0.3333   -0.0700   -0.8201 H   0  0  0  0  0  0  0  0  0  0  0  0
   -0.9059   -2.5007    2.6206 H   0  0  0  0  0  0  0  0  0  0  0  0
   -2.5105   -2.0534    1.8965 H   0  0  0  0  0  0  0  0  0  0  0  0
   -1.7046   -0.9748    3.1020 H   0  0  0  0  0  0  0  0  0  0  0  0
   -3.3096    0.0349    1.5750 H   0  0  0  0  0  0  0  0  0  0  0  0
   -4.3211    1.5279    0.0188 H   0  0  0  0  0  0  0  0  0  0  0  0
   -4.2440   -2.1641    0.6938 O   0  0  0  0  0  0  0  0  0  0  0  0
   -5.1407   -1.2952    0.7576 C   0  0  0  0  0  0  0  0  0  0  0  0
   -5.2992   -0.3412    1.5562 O   0  0  0  0  0  0  0  0  0  0  0  0
   -6.1517   -1.2865   -0.4299 C   0  0  0  0  0  0  0  0  0  0  0  0
   -7.4160   -1.0190   -0.0505 F   0  0  0  0  0  0  0  0  0  0  0  0
   -5.7858   -0.2844   -1.3015 F   0  0  0  0  0  0  0  0  0  0  0  0
   -6.1743   -2.4242   -1.1464 F   0  0  0  0  0  0  0  0  0  0  0  0
  1 10  1  0  0  0  0
  2  1  1  0  0  0  0
  3  2  1  0  0  0  0
  4  1  2  0  0  0  0
  4  5  1  0  0  0  0
  5  6  2  0  0  0  0
  6  9  1  0  0  0  0
  6  7  1  0  0  0  0
  7  8  1  0  0  0  0
  8 13  1  0  0  0  0
  8 15  1  0  0  0  0
  9 16  1  0  0  0  0
 10 17  1  0  0  0  0
 10  9  2  0  0  0  0
 11  4  1  0  0  0  0
 12  5  1  0  0  0  0
 14  8  1  0  0  0  0
 18 19  2  0  0  0  0
 19 20  1  0  0  0  0
 21 22  1  0  0  0  0
 21 19  1  0  0  0  0
 23 21  1  0  0  0  0
 24 21  1  0  0  0  0
M  RAD  3   2   2   3   3  20   2
M  END
