Coordinates from ORCA-job 4-MeOPhN2+~CF3COO-_B3LYPG-6-31G_dp-NX-Scan-d89-09-n800
 OpenBabel11261920413D

 24 23  0  0  0  0  0  0  0  0999 V2000
   -1.9932    2.0345   -1.4239 C   0  0  0  0  0  0  0  0  0  0  0  0
   -2.3315    3.0005   -2.2933 N   0  0  0  0  0  0  0  0  0  0  0  0
   -2.6379    3.8122   -3.0141 N   0  0  0  0  0  0  0  0  0  0  0  0
   -0.6293    1.6275   -1.3362 C   0  0  0  0  0  0  0  0  0  0  0  0
   -0.3110    0.6265   -0.4607 C   0  0  0  0  0  0  0  0  0  0  0  0
   -1.3250    0.0071    0.3336 C   0  0  0  0  0  0  0  0  0  0  0  0
   -0.9103   -0.9632    1.1161 O   0  0  0  0  0  0  0  0  0  0  0  0
   -1.8733   -1.6865    1.9423 C   0  0  0  0  0  0  0  0  0  0  0  0
   -2.6756    0.4391    0.2546 C   0  0  0  0  0  0  0  0  0  0  0  0
   -3.0097    1.4363   -0.6246 C   0  0  0  0  0  0  0  0  0  0  0  0
    0.1237    2.1034   -1.9543 H   0  0  0  0  0  0  0  0  0  0  0  0
    0.7089    0.2728   -0.3600 H   0  0  0  0  0  0  0  0  0  0  0  0
   -1.3049   -2.5164    2.3582 H   0  0  0  0  0  0  0  0  0  0  0  0
   -2.7276   -2.0285    1.3357 H   0  0  0  0  0  0  0  0  0  0  0  0
   -2.2200   -1.0253    2.7413 H   0  0  0  0  0  0  0  0  0  0  0  0
   -3.5157   -0.0093    0.8215 H   0  0  0  0  0  0  0  0  0  0  0  0
   -4.0452    1.7498   -0.7096 H   0  0  0  0  0  0  0  0  0  0  0  0
   -4.4739   -2.4603    0.4950 O   0  0  0  0  0  0  0  0  0  0  0  0
   -5.3525   -1.5937    0.6840 C   0  0  0  0  0  0  0  0  0  0  0  0
   -5.2461   -0.4062    1.0889 O   0  0  0  0  0  0  0  0  0  0  0  0
   -6.8141   -2.0050    0.3340 C   0  0  0  0  0  0  0  0  0  0  0  0
   -7.6782   -1.6729    1.3190 F   0  0  0  0  0  0  0  0  0  0  0  0
   -7.2248   -1.3585   -0.7899 F   0  0  0  0  0  0  0  0  0  0  0  0
   -6.9563   -3.3242    0.1045 F   0  0  0  0  0  0  0  0  0  0  0  0
  1  4  2  0  0  0  0
  1 10  1  0  0  0  0
  2  1  1  0  0  0  0
  3  2  1  0  0  0  0
  4  5  1  0  0  0  0
  5 12  1  0  0  0  0
  5  6  2  0  0  0  0
  6  7  1  0  0  0  0
  7  8  1  0  0  0  0
  8 13  1  0  0  0  0
  8 15  1  0  0  0  0
  9  6  1  0  0  0  0
  9 16  1  0  0  0  0
 10  9  2  0  0  0  0
 11  4  1  0  0  0  0
 14  8  1  0  0  0  0
 17 10  1  0  0  0  0
 18 19  2  0  0  0  0
 19 20  1  0  0  0  0
 21 19  1  0  0  0  0
 21 22  1  0  0  0  0
 23 21  1  0  0  0  0
 24 21  1  0  0  0  0
M  RAD  3   2   2   3   3  20   2
M  END
