Coordinates from ORCA-job 4-MeOPhN2+~CF3COO-_B3LYPG-6-31G_dp-NX-Scan-d89-09-n800
 OpenBabel11261920413D

 24 23  0  0  0  0  0  0  0  0999 V2000
   -1.8516   -1.1980    0.3986 C   0  0  0  0  0  0  0  0  0  0  0  0
   -2.0514   -2.4877    0.8767 N   0  0  0  0  0  0  0  0  0  0  0  0
   -2.7538   -3.3660    1.0905 N   0  0  0  0  0  0  0  0  0  0  0  0
   -0.5843   -0.6155    0.5748 C   0  0  0  0  0  0  0  0  0  0  0  0
   -0.3676    0.6665    0.1132 C   0  0  0  0  0  0  0  0  0  0  0  0
   -1.4079    1.3711   -0.5294 C   0  0  0  0  0  0  0  0  0  0  0  0
   -1.0933    2.6129   -0.9407 O   0  0  0  0  0  0  0  0  0  0  0  0
   -2.0880    3.4058   -1.5925 C   0  0  0  0  0  0  0  0  0  0  0  0
   -2.6690    0.7703   -0.7054 C   0  0  0  0  0  0  0  0  0  0  0  0
   -2.8999   -0.5173   -0.2440 C   0  0  0  0  0  0  0  0  0  0  0  0
    0.2012   -1.1726    1.0731 H   0  0  0  0  0  0  0  0  0  0  0  0
    0.5918    1.1562    0.2338 H   0  0  0  0  0  0  0  0  0  0  0  0
   -1.6028    4.3537   -1.8225 H   0  0  0  0  0  0  0  0  0  0  0  0
   -2.9452    3.5833   -0.9343 H   0  0  0  0  0  0  0  0  0  0  0  0
   -2.4256    2.9334   -2.5211 H   0  0  0  0  0  0  0  0  0  0  0  0
   -3.4745    1.3007   -1.1973 H   0  0  0  0  0  0  0  0  0  0  0  0
   -3.8590   -1.0100   -0.3635 H   0  0  0  0  0  0  0  0  0  0  0  0
   -4.6781   -2.8851    0.3378 O   0  0  0  0  0  0  0  0  0  0  0  0
   -5.2787   -2.5184    1.4116 C   0  0  0  0  0  0  0  0  0  0  0  0
   -4.8413   -2.4133    2.5523 O   0  0  0  0  0  0  0  0  0  0  0  0
   -6.7472   -2.0913    1.1189 C   0  0  0  0  0  0  0  0  0  0  0  0
   -7.4250   -1.7975    2.2370 F   0  0  0  0  0  0  0  0  0  0  0  0
   -6.7427   -0.9770    0.3378 F   0  0  0  0  0  0  0  0  0  0  0  0
   -7.4298   -3.0445    0.4568 F   0  0  0  0  0  0  0  0  0  0  0  0
  1  4  1  0  0  0  0
  1  2  1  0  0  0  0
  2  3  2  0  0  0  0
  4 11  1  0  0  0  0
  5 12  1  0  0  0  0
  5  4  2  0  0  0  0
  6  5  1  0  0  0  0
  7  6  1  0  0  0  0
  8  7  1  0  0  0  0
  8 14  1  0  0  0  0
  9  6  2  0  0  0  0
  9 10  1  0  0  0  0
 10  1  2  0  0  0  0
 13  8  1  0  0  0  0
 15  8  1  0  0  0  0
 16  9  1  0  0  0  0
 17 10  1  0  0  0  0
 18 19  2  0  0  0  0
 19 20  1  0  0  0  0
 21 19  1  0  0  0  0
 21 22  1  0  0  0  0
 23 21  1  0  0  0  0
 24 21  1  0  0  0  0
M  RAD  2   3   2  20   2
M  END
