Coordinates from ORCA-job 4-MeOPhN2+~CF3COO-_B3LYPG-6-31G_dp-NX-Scan-d89-09-n800
 OpenBabel11261920413D

 24 23  0  0  0  0  0  0  0  0999 V2000
   -2.8965    1.7652   -0.9110 C   0  0  0  0  0  0  0  0  0  0  0  0
   -3.6754    2.6129   -1.5950 N   0  0  0  0  0  0  0  0  0  0  0  0
   -4.3575    3.3191   -2.1464 N   0  0  0  0  0  0  0  0  0  0  0  0
   -1.9539    0.9620   -1.6139 C   0  0  0  0  0  0  0  0  0  0  0  0
   -1.3099   -0.0262   -0.9241 C   0  0  0  0  0  0  0  0  0  0  0  0
   -1.6175   -0.2585    0.4501 C   0  0  0  0  0  0  0  0  0  0  0  0
   -1.0326   -1.3278    0.9836 O   0  0  0  0  0  0  0  0  0  0  0  0
   -1.5297   -1.8307    2.2440 C   0  0  0  0  0  0  0  0  0  0  0  0
   -2.4797    0.5985    1.1524 C   0  0  0  0  0  0  0  0  0  0  0  0
   -3.1775    1.5792    0.4713 C   0  0  0  0  0  0  0  0  0  0  0  0
   -1.7850    1.1209   -2.6727 H   0  0  0  0  0  0  0  0  0  0  0  0
   -0.6089   -0.6922   -1.4133 H   0  0  0  0  0  0  0  0  0  0  0  0
   -1.0484   -2.7991    2.3716 H   0  0  0  0  0  0  0  0  0  0  0  0
   -2.6178   -1.9322    2.1918 H   0  0  0  0  0  0  0  0  0  0  0  0
   -1.2359   -1.1659    3.0632 H   0  0  0  0  0  0  0  0  0  0  0  0
   -2.7251    0.4143    2.1868 H   0  0  0  0  0  0  0  0  0  0  0  0
   -3.8748    2.2276    0.9785 H   0  0  0  0  0  0  0  0  0  0  0  0
   -4.6520   -1.1195    1.3791 O   0  0  0  0  0  0  0  0  0  0  0  0
   -5.1112   -0.6243    0.3341 C   0  0  0  0  0  0  0  0  0  0  0  0
   -5.3288    0.5832    0.0394 O   0  0  0  0  0  0  0  0  0  0  0  0
   -5.3262   -1.6077   -0.8535 C   0  0  0  0  0  0  0  0  0  0  0  0
   -6.3682   -1.2728   -1.6412 F   0  0  0  0  0  0  0  0  0  0  0  0
   -4.2090   -1.5823   -1.6462 F   0  0  0  0  0  0  0  0  0  0  0  0
   -5.5022   -2.8838   -0.4668 F   0  0  0  0  0  0  0  0  0  0  0  0
  1 10  2  0  0  0  0
  2  1  1  0  0  0  0
  3  2  1  0  0  0  0
  4  5  2  0  0  0  0
  4  1  1  0  0  0  0
  5  6  1  0  0  0  0
  6  7  1  0  0  0  0
  6  9  2  0  0  0  0
  7  8  1  0  0  0  0
  8 13  1  0  0  0  0
  8 15  1  0  0  0  0
  9 16  1  0  0  0  0
 10 17  1  0  0  0  0
 10  9  1  0  0  0  0
 11  4  1  0  0  0  0
 12  5  1  0  0  0  0
 14  8  1  0  0  0  0
 19 18  1  0  0  0  0
 20 19  2  0  0  0  0
 21 24  1  0  0  0  0
 21 19  1  0  0  0  0
 22 21  1  0  0  0  0
 23 21  1  0  0  0  0
M  RAD  3   2   2   3   3  18   2
M  END
