Coordinates from ORCA-job 4-MeOPhN2+~CF3COO-_B3LYPG-6-31G_dp-NX-Scan-d89-09-n800
 OpenBabel11261920413D

 24 23  0  0  0  0  0  0  0  0999 V2000
   -2.7325    1.5721   -1.1854 C   0  0  0  0  0  0  0  0  0  0  0  0
   -3.4434    2.3004   -2.0623 N   0  0  0  0  0  0  0  0  0  0  0  0
   -4.0592    2.9056   -2.7846 N   0  0  0  0  0  0  0  0  0  0  0  0
   -1.4925    1.0046   -1.5976 C   0  0  0  0  0  0  0  0  0  0  0  0
   -0.8590    0.1505   -0.7371 C   0  0  0  0  0  0  0  0  0  0  0  0
   -1.4571   -0.1841    0.5151 C   0  0  0  0  0  0  0  0  0  0  0  0
   -0.8333   -1.1143    1.2125 O   0  0  0  0  0  0  0  0  0  0  0  0
   -1.4966   -1.6882    2.3715 C   0  0  0  0  0  0  0  0  0  0  0  0
   -2.6435    0.4565    0.9369 C   0  0  0  0  0  0  0  0  0  0  0  0
   -3.2975    1.3175    0.0914 C   0  0  0  0  0  0  0  0  0  0  0  0
   -1.0865    1.2305   -2.5769 H   0  0  0  0  0  0  0  0  0  0  0  0
    0.0714   -0.3340   -1.0087 H   0  0  0  0  0  0  0  0  0  0  0  0
   -0.8828   -2.5450    2.6446 H   0  0  0  0  0  0  0  0  0  0  0  0
   -2.5131   -1.9857    2.0843 H   0  0  0  0  0  0  0  0  0  0  0  0
   -1.5041   -0.9614    3.1900 H   0  0  0  0  0  0  0  0  0  0  0  0
   -3.1571    0.1819    1.8484 H   0  0  0  0  0  0  0  0  0  0  0  0
   -4.2743    1.6959    0.3652 H   0  0  0  0  0  0  0  0  0  0  0  0
   -4.1466   -2.0105    0.7172 O   0  0  0  0  0  0  0  0  0  0  0  0
   -5.0601   -1.1587    0.6448 C   0  0  0  0  0  0  0  0  0  0  0  0
   -5.3653   -0.2156    1.4095 O   0  0  0  0  0  0  0  0  0  0  0  0
   -5.8691   -1.1692   -0.6907 C   0  0  0  0  0  0  0  0  0  0  0  0
   -7.1740   -0.8827   -0.5274 F   0  0  0  0  0  0  0  0  0  0  0  0
   -5.3595   -0.1862   -1.5188 F   0  0  0  0  0  0  0  0  0  0  0  0
   -5.7880   -2.3200   -1.3801 F   0  0  0  0  0  0  0  0  0  0  0  0
  1 10  1  0  0  0  0
  2  1  1  0  0  0  0
  3  2  1  0  0  0  0
  4  1  2  0  0  0  0
  4  5  1  0  0  0  0
  5  6  2  0  0  0  0
  6  9  1  0  0  0  0
  6  7  1  0  0  0  0
  7  8  1  0  0  0  0
  8 13  1  0  0  0  0
  8 15  1  0  0  0  0
  9 16  1  0  0  0  0
 10 17  1  0  0  0  0
 10  9  2  0  0  0  0
 11  4  1  0  0  0  0
 12  5  1  0  0  0  0
 14  8  1  0  0  0  0
 19 18  2  0  0  0  0
 19 20  1  0  0  0  0
 21 22  1  0  0  0  0
 21 19  1  0  0  0  0
 23 21  1  0  0  0  0
 24 21  1  0  0  0  0
M  RAD  3   2   2   3   3  20   2
M  END
