Coordinates from ORCA-job 4-MeOPhN2+~CF3COO-_B3LYPG-6-31G_dp-NX-Scan-d89-09-n800
 OpenBabel11261920413D

 24 24  0  0  0  0  0  0  0  0999 V2000
   -1.9373   -0.9982    0.5407 C   0  0  0  0  0  0  0  0  0  0  0  0
   -2.1170   -2.2279    1.1831 N   0  0  0  0  0  0  0  0  0  0  0  0
   -2.9983   -2.9465    1.5198 N   0  0  0  0  0  0  0  0  0  0  0  0
   -0.5908   -0.6059    0.3956 C   0  0  0  0  0  0  0  0  0  0  0  0
   -0.2725    0.5912   -0.2141 C   0  0  0  0  0  0  0  0  0  0  0  0
   -1.2995    1.4272   -0.6923 C   0  0  0  0  0  0  0  0  0  0  0  0
   -0.8928    2.5760   -1.2727 O   0  0  0  0  0  0  0  0  0  0  0  0
   -1.8717    3.4775   -1.7853 C   0  0  0  0  0  0  0  0  0  0  0  0
   -2.6438    1.0405   -0.5473 C   0  0  0  0  0  0  0  0  0  0  0  0
   -2.9680   -0.1650    0.0634 C   0  0  0  0  0  0  0  0  0  0  0  0
    0.1855   -1.2625    0.7725 H   0  0  0  0  0  0  0  0  0  0  0  0
    0.7565    0.9104   -0.3360 H   0  0  0  0  0  0  0  0  0  0  0  0
   -1.3130    4.3195   -2.1938 H   0  0  0  0  0  0  0  0  0  0  0  0
   -2.5395    3.8334   -0.9927 H   0  0  0  0  0  0  0  0  0  0  0  0
   -2.4629    3.0121   -2.5823 H   0  0  0  0  0  0  0  0  0  0  0  0
   -3.4447    1.6727   -0.9099 H   0  0  0  0  0  0  0  0  0  0  0  0
   -4.0004   -0.4622    0.1760 H   0  0  0  0  0  0  0  0  0  0  0  0
   -4.4897   -2.3422    1.0338 O   0  0  0  0  0  0  0  0  0  0  0  0
   -5.4986   -2.8984    1.6782 C   0  0  0  0  0  0  0  0  0  0  0  0
   -5.4915   -3.6685    2.6071 O   0  0  0  0  0  0  0  0  0  0  0  0
   -6.8298   -2.4174    1.0346 C   0  0  0  0  0  0  0  0  0  0  0  0
   -7.8696   -2.6826    1.8299 F   0  0  0  0  0  0  0  0  0  0  0  0
   -6.8078   -1.0854    0.7997 F   0  0  0  0  0  0  0  0  0  0  0  0
   -7.0264   -3.0380   -0.1459 F   0  0  0  0  0  0  0  0  0  0  0  0
  1  2  1  0  0  0  0
  2  3  1  0  0  0  0
  4  1  1  0  0  0  0
  4 11  1  0  0  0  0
  5  4  2  0  0  0  0
  6  9  2  0  0  0  0
  6  5  1  0  0  0  0
  7  6  1  0  0  0  0
  8  7  1  0  0  0  0
  8 14  1  0  0  0  0
  9 10  1  0  0  0  0
 10 17  1  0  0  0  0
 10  1  2  0  0  0  0
 12  5  1  0  0  0  0
 13  8  1  0  0  0  0
 15  8  1  0  0  0  0
 16  9  1  0  0  0  0
 18  3  1  0  0  0  0
 18 19  1  0  0  0  0
 19 20  2  0  0  0  0
 21 19  1  0  0  0  0
 21 22  1  0  0  0  0
 23 21  1  0  0  0  0
 24 21  1  0  0  0  0
M  RAD  2   2   2   3   2
M  END
