Coordinates from ORCA-job 4-MeOPhN2+~CF3COO-_B3LYPG-6-31G_dp-NX-Scan-d89-09-n800
 OpenBabel11261920413D

 24 23  0  0  0  0  0  0  0  0999 V2000
   -2.5628    0.5377   -0.9972 C   0  0  0  0  0  0  0  0  0  0  0  0
   -3.3696    0.8782   -2.0863 N   0  0  0  0  0  0  0  0  0  0  0  0
   -3.5476    1.3351   -3.0985 N   0  0  0  0  0  0  0  0  0  0  0  0
   -1.2684    1.1081   -1.0000 C   0  0  0  0  0  0  0  0  0  0  0  0
   -0.4106    0.7988    0.0311 C   0  0  0  0  0  0  0  0  0  0  0  0
   -0.8237   -0.0817    1.0584 C   0  0  0  0  0  0  0  0  0  0  0  0
    0.0931   -0.3143    2.0132 O   0  0  0  0  0  0  0  0  0  0  0  0
   -0.2368   -1.1851    3.0980 C   0  0  0  0  0  0  0  0  0  0  0  0
   -2.1112   -0.6439    1.0298 C   0  0  0  0  0  0  0  0  0  0  0  0
   -2.9959   -0.3345    0.0034 C   0  0  0  0  0  0  0  0  0  0  0  0
   -0.9673    1.7789   -1.7976 H   0  0  0  0  0  0  0  0  0  0  0  0
    0.5874    1.2191    0.0765 H   0  0  0  0  0  0  0  0  0  0  0  0
    0.6504   -1.2144    3.7306 H   0  0  0  0  0  0  0  0  0  0  0  0
   -0.4655   -2.1942    2.7395 H   0  0  0  0  0  0  0  0  0  0  0  0
   -1.0849   -0.7961    3.6720 H   0  0  0  0  0  0  0  0  0  0  0  0
   -2.4414   -1.3237    1.8055 H   0  0  0  0  0  0  0  0  0  0  0  0
   -4.0041   -0.7706   -0.0302 H   0  0  0  0  0  0  0  0  0  0  0  0
   -5.7721   -1.3489   -0.1986 O   0  0  0  0  0  0  0  0  0  0  0  0
   -6.1461   -0.4446   -0.9580 C   0  0  0  0  0  0  0  0  0  0  0  0
   -5.4755    0.4684   -1.5294 O   0  0  0  0  0  0  0  0  0  0  0  0
   -7.6628   -0.3751   -1.3101 C   0  0  0  0  0  0  0  0  0  0  0  0
   -8.1749    0.8371   -1.0054 F   0  0  0  0  0  0  0  0  0  0  0  0
   -7.8521   -0.5762   -2.6337 F   0  0  0  0  0  0  0  0  0  0  0  0
   -8.3815   -1.2981   -0.6510 F   0  0  0  0  0  0  0  0  0  0  0  0
  1 10  1  0  0  0  0
  2  1  1  0  0  0  0
  3  2  2  0  0  0  0
  4  1  2  0  0  0  0
  4  5  1  0  0  0  0
  5 12  1  0  0  0  0
  5  6  2  0  0  0  0
  6  7  1  0  0  0  0
  7  8  1  0  0  0  0
  8 15  1  0  0  0  0
  8 13  1  0  0  0  0
  9  6  1  0  0  0  0
  9 16  1  0  0  0  0
 10  9  2  0  0  0  0
 11  4  1  0  0  0  0
 14  8  1  0  0  0  0
 17 10  1  0  0  0  0
 19 18  1  0  0  0  0
 20 19  2  0  0  0  0
 21 22  1  0  0  0  0
 21 19  1  0  0  0  0
 21 24  1  0  0  0  0
 23 21  1  0  0  0  0
M  RAD  2   3   2  18   2
M  END
