Coordinates from ORCA-job 4-MeOPhN2+~CF3COO-_B3LYPG-6-31G_dp-NX-Scan-d89-09-n800
 OpenBabel11261920413D

 24 23  0  0  0  0  0  0  0  0999 V2000
   -2.6346    0.2984   -1.0350 C   0  0  0  0  0  0  0  0  0  0  0  0
   -3.4647    0.4772   -2.1585 N   0  0  0  0  0  0  0  0  0  0  0  0
   -3.5698    0.6728   -3.2638 N   0  0  0  0  0  0  0  0  0  0  0  0
   -1.4248    1.0157   -1.0220 C   0  0  0  0  0  0  0  0  0  0  0  0
   -0.5709    0.8429    0.0497 C   0  0  0  0  0  0  0  0  0  0  0  0
   -0.9082   -0.0476    1.0907 C   0  0  0  0  0  0  0  0  0  0  0  0
   -0.0034   -0.1394    2.0843 O   0  0  0  0  0  0  0  0  0  0  0  0
   -0.2652   -1.0117    3.1835 C   0  0  0  0  0  0  0  0  0  0  0  0
   -2.1163   -0.7666    1.0419 C   0  0  0  0  0  0  0  0  0  0  0  0
   -2.9941   -0.5855   -0.0191 C   0  0  0  0  0  0  0  0  0  0  0  0
   -1.1794    1.6956   -1.8304 H   0  0  0  0  0  0  0  0  0  0  0  0
    0.3669    1.3827    0.1113 H   0  0  0  0  0  0  0  0  0  0  0  0
    0.5912   -0.9098    3.8505 H   0  0  0  0  0  0  0  0  0  0  0  0
   -0.3488   -2.0531    2.8528 H   0  0  0  0  0  0  0  0  0  0  0  0
   -1.1785   -0.7189    3.7137 H   0  0  0  0  0  0  0  0  0  0  0  0
   -2.3824   -1.4643    1.8260 H   0  0  0  0  0  0  0  0  0  0  0  0
   -3.9236   -1.1392   -0.1174 H   0  0  0  0  0  0  0  0  0  0  0  0
   -5.5244   -1.4652   -1.4399 O   0  0  0  0  0  0  0  0  0  0  0  0
   -5.9833   -0.3288   -1.2706 C   0  0  0  0  0  0  0  0  0  0  0  0
   -5.3593    0.7771   -1.1918 O   0  0  0  0  0  0  0  0  0  0  0  0
   -7.5262   -0.1640   -1.1474 C   0  0  0  0  0  0  0  0  0  0  0  0
   -7.8548    0.5981   -0.0830 F   0  0  0  0  0  0  0  0  0  0  0  0
   -8.0199    0.4388   -2.2514 F   0  0  0  0  0  0  0  0  0  0  0  0
   -8.1494   -1.3453   -1.0121 F   0  0  0  0  0  0  0  0  0  0  0  0
  1  4  2  0  0  0  0
  1 10  1  0  0  0  0
  2  1  1  0  0  0  0
  3  2  2  0  0  0  0
  4  5  1  0  0  0  0
  5 12  1  0  0  0  0
  5  6  2  0  0  0  0
  6  7  1  0  0  0  0
  7  8  1  0  0  0  0
  8 15  1  0  0  0  0
  8 13  1  0  0  0  0
  9  6  1  0  0  0  0
  9 16  1  0  0  0  0
 10  9  2  0  0  0  0
 11  4  1  0  0  0  0
 14  8  1  0  0  0  0
 17 10  1  0  0  0  0
 18 19  2  0  0  0  0
 19 20  1  0  0  0  0
 19 21  1  0  0  0  0
 21 24  1  0  0  0  0
 21 22  1  0  0  0  0
 23 21  1  0  0  0  0
M  RAD  2   3   2  20   2
M  END
