Coordinates from ORCA-job 4-MeOPhN2+~CF3COO-_B3LYPG-6-31G_dp-NX-Scan-d89-09-n800
 OpenBabel11261920413D

 24 23  0  0  0  0  0  0  0  0999 V2000
   -2.4052    0.3456   -1.1410 C   0  0  0  0  0  0  0  0  0  0  0  0
   -3.2014    0.6078   -2.2311 N   0  0  0  0  0  0  0  0  0  0  0  0
   -3.8766    0.8109   -3.1006 N   0  0  0  0  0  0  0  0  0  0  0  0
   -1.0177    0.5819   -1.2803 C   0  0  0  0  0  0  0  0  0  0  0  0
   -0.1957    0.3298   -0.2064 C   0  0  0  0  0  0  0  0  0  0  0  0
   -0.7421   -0.1559    1.0060 C   0  0  0  0  0  0  0  0  0  0  0  0
    0.1485   -0.3658    1.9868 O   0  0  0  0  0  0  0  0  0  0  0  0
   -0.3073   -0.8506    3.2549 C   0  0  0  0  0  0  0  0  0  0  0  0
   -2.1258   -0.3844    1.1210 C   0  0  0  0  0  0  0  0  0  0  0  0
   -2.9751   -0.1375    0.0525 C   0  0  0  0  0  0  0  0  0  0  0  0
   -0.6174    0.9548   -2.2167 H   0  0  0  0  0  0  0  0  0  0  0  0
    0.8738    0.4967   -0.2630 H   0  0  0  0  0  0  0  0  0  0  0  0
    0.5856   -0.9314    3.8739 H   0  0  0  0  0  0  0  0  0  0  0  0
   -0.7758   -1.8350    3.1543 H   0  0  0  0  0  0  0  0  0  0  0  0
   -1.0118   -0.1486    3.7134 H   0  0  0  0  0  0  0  0  0  0  0  0
   -2.5570   -0.7572    2.0415 H   0  0  0  0  0  0  0  0  0  0  0  0
   -4.0542   -0.3104    0.1278 H   0  0  0  0  0  0  0  0  0  0  0  0
   -5.4221    0.1030   -1.6089 O   0  0  0  0  0  0  0  0  0  0  0  0
   -6.2938   -0.3055   -0.7849 C   0  0  0  0  0  0  0  0  0  0  0  0
   -6.1027   -0.6814    0.3823 O   0  0  0  0  0  0  0  0  0  0  0  0
   -7.7446   -0.3256   -1.3365 C   0  0  0  0  0  0  0  0  0  0  0  0
   -8.6426   -0.7477   -0.4299 F   0  0  0  0  0  0  0  0  0  0  0  0
   -8.1249    0.9099   -1.7406 F   0  0  0  0  0  0  0  0  0  0  0  0
   -7.8377   -1.1435   -2.4124 F   0  0  0  0  0  0  0  0  0  0  0  0
  1 10  1  0  0  0  0
  2  1  1  0  0  0  0
  3  2  1  0  0  0  0
  4  1  2  0  0  0  0
  4  5  1  0  0  0  0
  5  6  2  0  0  0  0
  6  9  1  0  0  0  0
  6  7  1  0  0  0  0
  7  8  1  0  0  0  0
  8 15  1  0  0  0  0
  8 13  1  0  0  0  0
  9 16  1  0  0  0  0
 10 17  1  0  0  0  0
 10  9  2  0  0  0  0
 11  4  1  0  0  0  0
 12  5  1  0  0  0  0
 14  8  1  0  0  0  0
 18 19  2  0  0  0  0
 19 20  1  0  0  0  0
 21 19  1  0  0  0  0
 21 22  1  0  0  0  0
 23 21  1  0  0  0  0
 24 21  1  0  0  0  0
M  RAD  3   2   2   3   3  20   2
M  END
