Coordinates from ORCA-job 4-MeOPhN2+~CF3COO-_B3LYPG-6-31G_dp-NX-Scan-d89-09-n800
 OpenBabel11261920413D

 24 23  0  0  0  0  0  0  0  0999 V2000
   -1.7309   -0.1344   -0.0622 C   0  0  0  0  0  0  0  0  0  0  0  0
   -3.0707   -0.2815    0.0435 N   0  0  0  0  0  0  0  0  0  0  0  0
   -4.1962   -0.4050    0.1317 N   0  0  0  0  0  0  0  0  0  0  0  0
   -1.1770    1.1734   -0.1350 C   0  0  0  0  0  0  0  0  0  0  0  0
    0.1869    1.3037   -0.2429 C   0  0  0  0  0  0  0  0  0  0  0  0
    1.0252    0.1638   -0.2806 C   0  0  0  0  0  0  0  0  0  0  0  0
    2.3383    0.4193   -0.3874 O   0  0  0  0  0  0  0  0  0  0  0  0
    3.2666   -0.6675   -0.4328 C   0  0  0  0  0  0  0  0  0  0  0  0
    0.4622   -1.1277   -0.2066 C   0  0  0  0  0  0  0  0  0  0  0  0
   -0.9070   -1.2861   -0.0980 C   0  0  0  0  0  0  0  0  0  0  0  0
   -1.8253    2.0414   -0.1050 H   0  0  0  0  0  0  0  0  0  0  0  0
    0.6485    2.2831   -0.3011 H   0  0  0  0  0  0  0  0  0  0  0  0
    4.2505   -0.2085   -0.5191 H   0  0  0  0  0  0  0  0  0  0  0  0
    3.0828   -1.3064   -1.3036 H   0  0  0  0  0  0  0  0  0  0  0  0
    3.2200   -1.2638    0.4852 H   0  0  0  0  0  0  0  0  0  0  0  0
    1.0895   -2.0097   -0.2330 H   0  0  0  0  0  0  0  0  0  0  0  0
   -1.3513   -2.2732   -0.0405 H   0  0  0  0  0  0  0  0  0  0  0  0
  -12.8699   -1.1227    1.0322 O   0  0  0  0  0  0  0  0  0  0  0  0
  -11.6420   -1.0147    0.8929 C   0  0  0  0  0  0  0  0  0  0  0  0
  -10.6701   -1.7839    0.8469 O   0  0  0  0  0  0  0  0  0  0  0  0
  -11.2251    0.5310    0.7484 C   0  0  0  0  0  0  0  0  0  0  0  0
   -9.9111    0.7100    0.5076 F   0  0  0  0  0  0  0  0  0  0  0  0
  -11.8989    1.1176   -0.2618 F   0  0  0  0  0  0  0  0  0  0  0  0
  -11.5185    1.2016    1.8830 F   0  0  0  0  0  0  0  0  0  0  0  0
  1  2  1  0  0  0  0
  2  3  1  0  0  0  0
  4 11  1  0  0  0  0
  4  1  2  0  0  0  0
  5  4  1  0  0  0  0
  6  5  2  0  0  0  0
  6  9  1  0  0  0  0
  7  6  1  0  0  0  0
  8  7  1  0  0  0  0
  8 15  1  0  0  0  0
  9 10  2  0  0  0  0
 10  1  1  0  0  0  0
 10 17  1  0  0  0  0
 12  5  1  0  0  0  0
 13  8  1  0  0  0  0
 14  8  1  0  0  0  0
 16  9  1  0  0  0  0
 19 18  1  0  0  0  0
 20 19  2  0  0  0  0
 21 19  1  0  0  0  0
 21 24  1  0  0  0  0
 22 21  1  0  0  0  0
 23 21  1  0  0  0  0
M  RAD  3   2   2   3   3  18   2
M  END
