Coordinates from ORCA-job 4-MeOPhN2+~CF3COO-_B3LYPG-6-31G_dp-NX-Scan-d89-09-n800
 OpenBabel11261920413D

 24 23  0  0  0  0  0  0  0  0999 V2000
   -2.4943    0.3164   -1.0876 C   0  0  0  0  0  0  0  0  0  0  0  0
   -3.3088    0.5755   -2.1758 N   0  0  0  0  0  0  0  0  0  0  0  0
   -3.7243    0.8586   -3.1757 N   0  0  0  0  0  0  0  0  0  0  0  0
   -1.1133    0.5663   -1.2658 C   0  0  0  0  0  0  0  0  0  0  0  0
   -0.2596    0.3256   -0.2137 C   0  0  0  0  0  0  0  0  0  0  0  0
   -0.7669   -0.1617    1.0141 C   0  0  0  0  0  0  0  0  0  0  0  0
    0.1535   -0.3604    1.9717 O   0  0  0  0  0  0  0  0  0  0  0  0
   -0.2643   -0.8453    3.2515 C   0  0  0  0  0  0  0  0  0  0  0  0
   -2.1438   -0.4025    1.1657 C   0  0  0  0  0  0  0  0  0  0  0  0
   -3.0234   -0.1663    0.1175 C   0  0  0  0  0  0  0  0  0  0  0  0
   -0.7424    0.9404   -2.2138 H   0  0  0  0  0  0  0  0  0  0  0  0
    0.8062    0.5034   -0.3013 H   0  0  0  0  0  0  0  0  0  0  0  0
    0.6446   -0.9157    3.8482 H   0  0  0  0  0  0  0  0  0  0  0  0
   -0.7259   -1.8348    3.1667 H   0  0  0  0  0  0  0  0  0  0  0  0
   -0.9639   -0.1493    3.7269 H   0  0  0  0  0  0  0  0  0  0  0  0
   -2.5457   -0.7763    2.0989 H   0  0  0  0  0  0  0  0  0  0  0  0
   -4.1005   -0.3502    0.2254 H   0  0  0  0  0  0  0  0  0  0  0  0
   -5.4004    0.1281   -1.6965 O   0  0  0  0  0  0  0  0  0  0  0  0
   -6.2387   -0.2821   -0.8361 C   0  0  0  0  0  0  0  0  0  0  0  0
   -6.0306   -0.6507    0.3295 O   0  0  0  0  0  0  0  0  0  0  0  0
   -7.7018   -0.3108   -1.3624 C   0  0  0  0  0  0  0  0  0  0  0  0
   -8.5755   -0.7261   -0.4307 F   0  0  0  0  0  0  0  0  0  0  0  0
   -8.0919    0.9189   -1.7695 F   0  0  0  0  0  0  0  0  0  0  0  0
   -7.8119   -1.1411   -2.4251 F   0  0  0  0  0  0  0  0  0  0  0  0
  1 10  1  0  0  0  0
  2  1  1  0  0  0  0
  3  2  1  0  0  0  0
  4  1  2  0  0  0  0
  4  5  1  0  0  0  0
  5  6  2  0  0  0  0
  6  9  1  0  0  0  0
  6  7  1  0  0  0  0
  7  8  1  0  0  0  0
  8 15  1  0  0  0  0
  8 13  1  0  0  0  0
  9 16  1  0  0  0  0
 10 17  1  0  0  0  0
 10  9  2  0  0  0  0
 11  4  1  0  0  0  0
 12  5  1  0  0  0  0
 14  8  1  0  0  0  0
 18 19  2  0  0  0  0
 19 20  1  0  0  0  0
 21 19  1  0  0  0  0
 21 22  1  0  0  0  0
 23 21  1  0  0  0  0
 24 21  1  0  0  0  0
M  RAD  3   2   2   3   3  20   2
M  END
