Coordinates from ORCA-job 4-MeOPhN2+~CF3COO-_B3LYPG-6-31G_dp-NX-Scan-d89-09-n800
 OpenBabel11261920413D

 24 24  0  0  0  0  0  0  0  0999 V2000
   -2.0296   -0.9821    0.6612 C   0  0  0  0  0  0  0  0  0  0  0  0
   -2.1357   -2.1935    1.3788 N   0  0  0  0  0  0  0  0  0  0  0  0
   -3.1413   -2.8451    1.6867 N   0  0  0  0  0  0  0  0  0  0  0  0
   -0.6838   -0.6499    0.3865 C   0  0  0  0  0  0  0  0  0  0  0  0
   -0.3476    0.5017   -0.2980 C   0  0  0  0  0  0  0  0  0  0  0  0
   -1.3596    1.3808   -0.7208 C   0  0  0  0  0  0  0  0  0  0  0  0
   -0.9412    2.4863   -1.3821 O   0  0  0  0  0  0  0  0  0  0  0  0
   -1.9123    3.4202   -1.8407 C   0  0  0  0  0  0  0  0  0  0  0  0
   -2.7017    1.0786   -0.4415 C   0  0  0  0  0  0  0  0  0  0  0  0
   -3.0377   -0.0903    0.2366 C   0  0  0  0  0  0  0  0  0  0  0  0
    0.0833   -1.3355    0.7298 H   0  0  0  0  0  0  0  0  0  0  0  0
    0.6849    0.7523   -0.5162 H   0  0  0  0  0  0  0  0  0  0  0  0
   -1.3527    4.2088   -2.3446 H   0  0  0  0  0  0  0  0  0  0  0  0
   -2.4777    3.8528   -1.0070 H   0  0  0  0  0  0  0  0  0  0  0  0
   -2.6085    2.9581   -2.5513 H   0  0  0  0  0  0  0  0  0  0  0  0
   -3.4959    1.7470   -0.7511 H   0  0  0  0  0  0  0  0  0  0  0  0
   -4.0791   -0.2882    0.4366 H   0  0  0  0  0  0  0  0  0  0  0  0
   -4.3095   -2.3135    1.2350 O   0  0  0  0  0  0  0  0  0  0  0  0
   -5.4295   -2.9741    1.6434 C   0  0  0  0  0  0  0  0  0  0  0  0
   -5.5111   -3.8912    2.4046 O   0  0  0  0  0  0  0  0  0  0  0  0
   -6.6392   -2.3367    0.9220 C   0  0  0  0  0  0  0  0  0  0  0  0
   -7.7769   -2.7646    1.4659 F   0  0  0  0  0  0  0  0  0  0  0  0
   -6.5980   -0.9905    1.0082 F   0  0  0  0  0  0  0  0  0  0  0  0
   -6.6235   -2.6715   -0.3800 F   0  0  0  0  0  0  0  0  0  0  0  0
  1  2  1  0  0  0  0
  2  3  1  0  0  0  0
  4  1  1  0  0  0  0
  4 11  1  0  0  0  0
  5  4  2  0  0  0  0
  6  9  2  0  0  0  0
  6  5  1  0  0  0  0
  7  6  1  0  0  0  0
  8  7  1  0  0  0  0
  8 14  1  0  0  0  0
  9 10  1  0  0  0  0
 10 17  1  0  0  0  0
 10  1  2  0  0  0  0
 12  5  1  0  0  0  0
 13  8  1  0  0  0  0
 15  8  1  0  0  0  0
 16  9  1  0  0  0  0
 18 19  1  0  0  0  0
 18  3  1  0  0  0  0
 19 20  2  0  0  0  0
 21 23  1  0  0  0  0
 21 22  1  0  0  0  0
 21 19  1  0  0  0  0
 24 21  1  0  0  0  0
M  RAD  2   2   2   3   2
M  END
