Coordinates from ORCA-job 4-MeOPhN2+~CF3COO-_B3LYPG-6-31G_dp-NX-Scan-d89-09-n800
 OpenBabel11261920413D

 24 23  0  0  0  0  0  0  0  0999 V2000
   -2.9374    1.6375   -0.9067 C   0  0  0  0  0  0  0  0  0  0  0  0
   -3.7406    2.4363   -1.6204 N   0  0  0  0  0  0  0  0  0  0  0  0
   -4.4298    3.1059   -2.2073 N   0  0  0  0  0  0  0  0  0  0  0  0
   -2.0146    0.7945   -1.5891 C   0  0  0  0  0  0  0  0  0  0  0  0
   -1.3309   -0.1375   -0.8608 C   0  0  0  0  0  0  0  0  0  0  0  0
   -1.5870   -0.2828    0.5354 C   0  0  0  0  0  0  0  0  0  0  0  0
   -0.9682   -1.3063    1.1171 O   0  0  0  0  0  0  0  0  0  0  0  0
   -1.4267   -1.7375    2.4167 C   0  0  0  0  0  0  0  0  0  0  0  0
   -2.4323    0.6119    1.2102 C   0  0  0  0  0  0  0  0  0  0  0  0
   -3.1632    1.5423    0.4957 C   0  0  0  0  0  0  0  0  0  0  0  0
   -1.8924    0.8795   -2.6629 H   0  0  0  0  0  0  0  0  0  0  0  0
   -0.6418   -0.8287   -1.3316 H   0  0  0  0  0  0  0  0  0  0  0  0
   -0.9421   -2.6982    2.5846 H   0  0  0  0  0  0  0  0  0  0  0  0
   -2.5146   -1.8443    2.3970 H   0  0  0  0  0  0  0  0  0  0  0  0
   -1.1096   -1.0289    3.1892 H   0  0  0  0  0  0  0  0  0  0  0  0
   -2.6232    0.5034    2.2675 H   0  0  0  0  0  0  0  0  0  0  0  0
   -3.8379    2.2261    0.9866 H   0  0  0  0  0  0  0  0  0  0  0  0
   -4.4396   -1.4105    1.0966 O   0  0  0  0  0  0  0  0  0  0  0  0
   -5.0371   -0.7134    0.2590 C   0  0  0  0  0  0  0  0  0  0  0  0
   -5.3177    0.5182    0.2726 O   0  0  0  0  0  0  0  0  0  0  0  0
   -5.4293   -1.4038   -1.0828 C   0  0  0  0  0  0  0  0  0  0  0  0
   -6.7079   -1.1589   -1.4363 F   0  0  0  0  0  0  0  0  0  0  0  0
   -4.6431   -0.9083   -2.0921 F   0  0  0  0  0  0  0  0  0  0  0  0
   -5.2568   -2.7367   -1.0763 F   0  0  0  0  0  0  0  0  0  0  0  0
  1 10  1  0  0  0  0
  2  1  1  0  0  0  0
  3  2  1  0  0  0  0
  4  1  2  0  0  0  0
  4  5  1  0  0  0  0
  5  6  2  0  0  0  0
  6  7  1  0  0  0  0
  6  9  1  0  0  0  0
  7  8  1  0  0  0  0
  8 13  1  0  0  0  0
  8 15  1  0  0  0  0
  9 16  1  0  0  0  0
 10 17  1  0  0  0  0
 10  9  2  0  0  0  0
 11  4  1  0  0  0  0
 12  5  1  0  0  0  0
 14  8  1  0  0  0  0
 19 20  2  0  0  0  0
 19 18  1  0  0  0  0
 21 24  1  0  0  0  0
 21 19  1  0  0  0  0
 22 21  1  0  0  0  0
 23 21  1  0  0  0  0
M  RAD  3   2   2   3   3  18   2
M  END
