Coordinates from ORCA-job 4-MeOPhN2+~CF3COO-_B3LYPG-6-31G_dp-NX-Scan-d89-09-n800
 OpenBabel11261920413D

 24 23  0  0  0  0  0  0  0  0999 V2000
   -2.4735    0.3235   -1.1000 C   0  0  0  0  0  0  0  0  0  0  0  0
   -3.2832    0.5829   -2.1874 N   0  0  0  0  0  0  0  0  0  0  0  0
   -3.7688    0.8471   -3.1599 N   0  0  0  0  0  0  0  0  0  0  0  0
   -1.0907    0.5700   -1.2690 C   0  0  0  0  0  0  0  0  0  0  0  0
   -0.2445    0.3264   -0.2117 C   0  0  0  0  0  0  0  0  0  0  0  0
   -0.7612   -0.1605    1.0125 C   0  0  0  0  0  0  0  0  0  0  0  0
    0.1522   -0.3620    1.9755 O   0  0  0  0  0  0  0  0  0  0  0  0
   -0.2745   -0.8470    3.2528 C   0  0  0  0  0  0  0  0  0  0  0  0
   -2.1398   -0.3983    1.1556 C   0  0  0  0  0  0  0  0  0  0  0  0
   -3.0126   -0.1596    0.1029 C   0  0  0  0  0  0  0  0  0  0  0  0
   -0.7126    0.9438   -2.2143 H   0  0  0  0  0  0  0  0  0  0  0  0
    0.8223    0.5015   -0.2920 H   0  0  0  0  0  0  0  0  0  0  0  0
    0.6308   -0.9199    3.8546 H   0  0  0  0  0  0  0  0  0  0  0  0
   -0.7378   -1.8352    3.1642 H   0  0  0  0  0  0  0  0  0  0  0  0
   -0.9752   -0.1495    3.7243 H   0  0  0  0  0  0  0  0  0  0  0  0
   -2.5486   -0.7719    2.0859 H   0  0  0  0  0  0  0  0  0  0  0  0
   -4.0905   -0.3410    0.2038 H   0  0  0  0  0  0  0  0  0  0  0  0
   -5.4041    0.1249   -1.6784 O   0  0  0  0  0  0  0  0  0  0  0  0
   -6.2498   -0.2858   -0.8270 C   0  0  0  0  0  0  0  0  0  0  0  0
   -6.0429   -0.6564    0.3390 O   0  0  0  0  0  0  0  0  0  0  0  0
   -7.7109   -0.3145   -1.3562 C   0  0  0  0  0  0  0  0  0  0  0  0
   -8.5886   -0.7308   -0.4284 F   0  0  0  0  0  0  0  0  0  0  0  0
   -8.1007    0.9157   -1.7639 F   0  0  0  0  0  0  0  0  0  0  0  0
   -7.8185   -1.1434   -2.4209 F   0  0  0  0  0  0  0  0  0  0  0  0
  1 10  1  0  0  0  0
  2  1  1  0  0  0  0
  3  2  1  0  0  0  0
  4  1  2  0  0  0  0
  4  5  1  0  0  0  0
  5  6  2  0  0  0  0
  6  9  1  0  0  0  0
  6  7  1  0  0  0  0
  7  8  1  0  0  0  0
  8 15  1  0  0  0  0
  8 13  1  0  0  0  0
  9 16  1  0  0  0  0
 10 17  1  0  0  0  0
 10  9  2  0  0  0  0
 11  4  1  0  0  0  0
 12  5  1  0  0  0  0
 14  8  1  0  0  0  0
 18 19  2  0  0  0  0
 19 20  1  0  0  0  0
 21 19  1  0  0  0  0
 21 22  1  0  0  0  0
 23 21  1  0  0  0  0
 24 21  1  0  0  0  0
M  RAD  3   2   2   3   3  20   2
M  END
