Coordinates from ORCA-job 4-MeOPhN2+~CF3COO-_B3LYPG-6-31G_dp-NX-Scan-d89-09-n800
 OpenBabel11261920413D

 24 23  0  0  0  0  0  0  0  0999 V2000
   -2.0461    1.9992   -1.4101 C   0  0  0  0  0  0  0  0  0  0  0  0
   -2.4078    2.9576   -2.2786 N   0  0  0  0  0  0  0  0  0  0  0  0
   -2.7318    3.7640   -2.9974 N   0  0  0  0  0  0  0  0  0  0  0  0
   -0.6848    1.5760   -1.3731 C   0  0  0  0  0  0  0  0  0  0  0  0
   -0.3427    0.5821   -0.4983 C   0  0  0  0  0  0  0  0  0  0  0  0
   -1.3308   -0.0143    0.3448 C   0  0  0  0  0  0  0  0  0  0  0  0
   -0.8963   -0.9797    1.1228 O   0  0  0  0  0  0  0  0  0  0  0  0
   -1.8331   -1.6829    1.9941 C   0  0  0  0  0  0  0  0  0  0  0  0
   -2.6772    0.4348    0.3155 C   0  0  0  0  0  0  0  0  0  0  0  0
   -3.0361    1.4242   -0.5625 C   0  0  0  0  0  0  0  0  0  0  0  0
    0.0477    2.0342   -2.0280 H   0  0  0  0  0  0  0  0  0  0  0  0
    0.6759    0.2164   -0.4356 H   0  0  0  0  0  0  0  0  0  0  0  0
   -1.2503   -2.5010    2.4137 H   0  0  0  0  0  0  0  0  0  0  0  0
   -2.7011   -2.0408    1.4175 H   0  0  0  0  0  0  0  0  0  0  0  0
   -2.1587   -1.0040    2.7872 H   0  0  0  0  0  0  0  0  0  0  0  0
   -3.4988    0.0013    0.9153 H   0  0  0  0  0  0  0  0  0  0  0  0
   -4.0716    1.7456   -0.6104 H   0  0  0  0  0  0  0  0  0  0  0  0
   -4.4336   -2.3929    0.4906 O   0  0  0  0  0  0  0  0  0  0  0  0
   -5.3299   -1.5453    0.6866 C   0  0  0  0  0  0  0  0  0  0  0  0
   -5.2539   -0.3803    1.1562 O   0  0  0  0  0  0  0  0  0  0  0  0
   -6.7677   -1.9506    0.2435 C   0  0  0  0  0  0  0  0  0  0  0  0
   -7.6887   -1.6544    1.1868 F   0  0  0  0  0  0  0  0  0  0  0  0
   -7.1167   -1.2678   -0.8809 F   0  0  0  0  0  0  0  0  0  0  0  0
   -6.8898   -3.2618   -0.0376 F   0  0  0  0  0  0  0  0  0  0  0  0
  1  4  2  0  0  0  0
  1 10  1  0  0  0  0
  2  1  1  0  0  0  0
  3  2  1  0  0  0  0
  4  5  1  0  0  0  0
  5 12  1  0  0  0  0
  5  6  2  0  0  0  0
  6  7  1  0  0  0  0
  7  8  1  0  0  0  0
  8 13  1  0  0  0  0
  8 15  1  0  0  0  0
  9  6  1  0  0  0  0
  9 16  1  0  0  0  0
 10  9  2  0  0  0  0
 11  4  1  0  0  0  0
 14  8  1  0  0  0  0
 17 10  1  0  0  0  0
 18 19  2  0  0  0  0
 19 20  1  0  0  0  0
 21 19  1  0  0  0  0
 21 22  1  0  0  0  0
 23 21  1  0  0  0  0
 24 21  1  0  0  0  0
M  RAD  3   2   2   3   3  20   2
M  END
