Coordinates from ORCA-job 4-MeOPhN2+~CF3COO-_B3LYPG-6-31G_dp-NX-Scan-d89-09-n800
 OpenBabel11261920413D

 24 23  0  0  0  0  0  0  0  0999 V2000
   -2.6197    0.2163   -1.1128 C   0  0  0  0  0  0  0  0  0  0  0  0
   -3.3956    0.4021   -2.2670 N   0  0  0  0  0  0  0  0  0  0  0  0
   -3.5032    0.7940   -3.3171 N   0  0  0  0  0  0  0  0  0  0  0  0
   -1.4488    0.9974   -1.0257 C   0  0  0  0  0  0  0  0  0  0  0  0
   -0.6306    0.8374    0.0726 C   0  0  0  0  0  0  0  0  0  0  0  0
   -0.9632   -0.0961    1.0786 C   0  0  0  0  0  0  0  0  0  0  0  0
   -0.0949   -0.1688    2.1037 O   0  0  0  0  0  0  0  0  0  0  0  0
   -0.3588   -1.0740    3.1764 C   0  0  0  0  0  0  0  0  0  0  0  0
   -2.1322   -0.8696    0.9644 C   0  0  0  0  0  0  0  0  0  0  0  0
   -2.9690   -0.7110   -0.1323 C   0  0  0  0  0  0  0  0  0  0  0  0
   -1.2080    1.7130   -1.8040 H   0  0  0  0  0  0  0  0  0  0  0  0
    0.2758    1.4210    0.1853 H   0  0  0  0  0  0  0  0  0  0  0  0
    0.4649   -0.9456    3.8788 H   0  0  0  0  0  0  0  0  0  0  0  0
   -0.3805   -2.1111    2.8234 H   0  0  0  0  0  0  0  0  0  0  0  0
   -1.3050   -0.8333    3.6738 H   0  0  0  0  0  0  0  0  0  0  0  0
   -2.4011   -1.5904    1.7262 H   0  0  0  0  0  0  0  0  0  0  0  0
   -3.8854   -1.2734   -0.2696 H   0  0  0  0  0  0  0  0  0  0  0  0
   -5.2891   -0.9110   -1.6980 O   0  0  0  0  0  0  0  0  0  0  0  0
   -5.9298    0.1033   -1.2794 C   0  0  0  0  0  0  0  0  0  0  0  0
   -5.5056    1.2429   -1.0474 O   0  0  0  0  0  0  0  0  0  0  0  0
   -7.4343   -0.1904   -1.0103 C   0  0  0  0  0  0  0  0  0  0  0  0
   -8.1270    0.9175   -0.7002 F   0  0  0  0  0  0  0  0  0  0  0  0
   -8.0235   -0.7562   -2.0836 F   0  0  0  0  0  0  0  0  0  0  0  0
   -7.5592   -1.0539    0.0261 F   0  0  0  0  0  0  0  0  0  0  0  0
  1  4  2  0  0  0  0
  1 10  1  0  0  0  0
  2  1  1  0  0  0  0
  3  2  2  0  0  0  0
  4  5  1  0  0  0  0
  5 12  1  0  0  0  0
  5  6  2  0  0  0  0
  6  7  1  0  0  0  0
  7  8  1  0  0  0  0
  8 15  1  0  0  0  0
  8 13  1  0  0  0  0
  9  6  1  0  0  0  0
  9 16  1  0  0  0  0
 10  9  2  0  0  0  0
 11  4  1  0  0  0  0
 14  8  1  0  0  0  0
 17 10  1  0  0  0  0
 18 19  2  0  0  0  0
 19 20  1  0  0  0  0
 19 21  1  0  0  0  0
 21 22  1  0  0  0  0
 21 24  1  0  0  0  0
 23 21  1  0  0  0  0
M  RAD  2   3   2  20   2
M  END
