Coordinates from ORCA-job 4-MeOPhN2+~CF3COO-_B3LYPG-6-31G_dp-NX-Scan-d89-09-n800
 OpenBabel11261920413D

 24 23  0  0  0  0  0  0  0  0999 V2000
   -1.9476    2.0806   -1.4310 C   0  0  0  0  0  0  0  0  0  0  0  0
   -2.2493    3.0822   -2.2734 N   0  0  0  0  0  0  0  0  0  0  0  0
   -2.5164    3.9266   -2.9722 N   0  0  0  0  0  0  0  0  0  0  0  0
   -0.5905    1.6549   -1.3247 C   0  0  0  0  0  0  0  0  0  0  0  0
   -0.3023    0.6307   -0.4663 C   0  0  0  0  0  0  0  0  0  0  0  0
   -1.3386    0.0092    0.2974 C   0  0  0  0  0  0  0  0  0  0  0  0
   -0.9442   -0.9674    1.0817 O   0  0  0  0  0  0  0  0  0  0  0  0
   -1.9137   -1.6736    1.9138 C   0  0  0  0  0  0  0  0  0  0  0  0
   -2.6857    0.4485    0.1907 C   0  0  0  0  0  0  0  0  0  0  0  0
   -2.9885    1.4699   -0.6725 C   0  0  0  0  0  0  0  0  0  0  0  0
    0.1812    2.1377   -1.9136 H   0  0  0  0  0  0  0  0  0  0  0  0
    0.7116    0.2651   -0.3499 H   0  0  0  0  0  0  0  0  0  0  0  0
   -1.3378   -2.4726    2.3775 H   0  0  0  0  0  0  0  0  0  0  0  0
   -2.7500   -2.0631    1.3098 H   0  0  0  0  0  0  0  0  0  0  0  0
   -2.2928   -0.9873    2.6760 H   0  0  0  0  0  0  0  0  0  0  0  0
   -3.5399   -0.0123    0.7309 H   0  0  0  0  0  0  0  0  0  0  0  0
   -4.0178    1.7978   -0.7767 H   0  0  0  0  0  0  0  0  0  0  0  0
   -4.5037   -2.5449    0.5222 O   0  0  0  0  0  0  0  0  0  0  0  0
   -5.3655   -1.6589    0.6935 C   0  0  0  0  0  0  0  0  0  0  0  0
   -5.2350   -0.4551    1.0401 O   0  0  0  0  0  0  0  0  0  0  0  0
   -6.8414   -2.0669    0.4048 C   0  0  0  0  0  0  0  0  0  0  0  0
   -7.6744   -1.6680    1.3922 F   0  0  0  0  0  0  0  0  0  0  0  0
   -7.2742   -1.4783   -0.7420 F   0  0  0  0  0  0  0  0  0  0  0  0
   -7.0069   -3.3947    0.2538 F   0  0  0  0  0  0  0  0  0  0  0  0
  1  4  2  0  0  0  0
  1 10  1  0  0  0  0
  2  1  1  0  0  0  0
  3  2  1  0  0  0  0
  4  5  1  0  0  0  0
  5 12  1  0  0  0  0
  5  6  2  0  0  0  0
  6  7  1  0  0  0  0
  7  8  1  0  0  0  0
  8 13  1  0  0  0  0
  8 15  1  0  0  0  0
  9  6  1  0  0  0  0
  9 16  1  0  0  0  0
 10  9  2  0  0  0  0
 11  4  1  0  0  0  0
 14  8  1  0  0  0  0
 17 10  1  0  0  0  0
 18 19  2  0  0  0  0
 19 20  1  0  0  0  0
 21 19  1  0  0  0  0
 21 22  1  0  0  0  0
 23 21  1  0  0  0  0
 24 21  1  0  0  0  0
M  RAD  3   2   2   3   3  20   2
M  END
