Coordinates from ORCA-job 4-MeOPhN2+~CF3COO-_B3LYPG-6-31G_dp-NX-Scan-d89-09-n800
 OpenBabel11261920413D

 24 24  0  0  0  0  0  0  0  0999 V2000
   -1.9836   -0.9839    0.6024 C   0  0  0  0  0  0  0  0  0  0  0  0
   -2.1278   -2.2041    1.2813 N   0  0  0  0  0  0  0  0  0  0  0  0
   -3.0633   -2.8909    1.6161 N   0  0  0  0  0  0  0  0  0  0  0  0
   -0.6351   -0.6248    0.3891 C   0  0  0  0  0  0  0  0  0  0  0  0
   -0.3046    0.5487   -0.2594 C   0  0  0  0  0  0  0  0  0  0  0  0
   -1.3239    1.4078   -0.7087 C   0  0  0  0  0  0  0  0  0  0  0  0
   -0.9089    2.5332   -1.3319 O   0  0  0  0  0  0  0  0  0  0  0  0
   -1.8833    3.4515   -1.8192 C   0  0  0  0  0  0  0  0  0  0  0  0
   -2.6699    1.0662   -0.4932 C   0  0  0  0  0  0  0  0  0  0  0  0
   -3.0030   -0.1193    0.1532 C   0  0  0  0  0  0  0  0  0  0  0  0
    0.1360   -1.2980    0.7473 H   0  0  0  0  0  0  0  0  0  0  0  0
    0.7281    0.8311   -0.4322 H   0  0  0  0  0  0  0  0  0  0  0  0
   -1.3211    4.2642   -2.2794 H   0  0  0  0  0  0  0  0  0  0  0  0
   -2.4986    3.8508   -1.0049 H   0  0  0  0  0  0  0  0  0  0  0  0
   -2.5302    2.9851   -2.5718 H   0  0  0  0  0  0  0  0  0  0  0  0
   -3.4672    1.7178   -0.8287 H   0  0  0  0  0  0  0  0  0  0  0  0
   -4.0417   -0.3654    0.3114 H   0  0  0  0  0  0  0  0  0  0  0  0
   -4.4113   -2.3039    1.1551 O   0  0  0  0  0  0  0  0  0  0  0  0
   -5.4685   -2.9456    1.6637 C   0  0  0  0  0  0  0  0  0  0  0  0
   -5.5052   -3.8178    2.4885 O   0  0  0  0  0  0  0  0  0  0  0  0
   -6.7465   -2.3887    0.9828 C   0  0  0  0  0  0  0  0  0  0  0  0
   -7.8376   -2.7568    1.6562 F   0  0  0  0  0  0  0  0  0  0  0  0
   -6.7187   -1.0392    0.9206 F   0  0  0  0  0  0  0  0  0  0  0  0
   -6.8378   -2.8578   -0.2761 F   0  0  0  0  0  0  0  0  0  0  0  0
  1  2  1  0  0  0  0
  2  3  1  0  0  0  0
  4  1  1  0  0  0  0
  4 11  1  0  0  0  0
  5  4  2  0  0  0  0
  6  9  2  0  0  0  0
  6  5  1  0  0  0  0
  7  6  1  0  0  0  0
  8  7  1  0  0  0  0
  8 14  1  0  0  0  0
  9 10  1  0  0  0  0
 10 17  1  0  0  0  0
 10  1  2  0  0  0  0
 12  5  1  0  0  0  0
 13  8  1  0  0  0  0
 15  8  1  0  0  0  0
 16  9  1  0  0  0  0
 18  3  1  0  0  0  0
 18 19  1  0  0  0  0
 19 20  2  0  0  0  0
 21 22  1  0  0  0  0
 21 19  1  0  0  0  0
 23 21  1  0  0  0  0
 24 21  1  0  0  0  0
M  RAD  2   2   2   3   2
M  END
