Coordinates from ORCA-job 4-MeOPhN2+~CF3COO-_B3LYPG-6-31G_dp-NX-Scan-d89-09-n800
 OpenBabel11261920413D

 24 23  0  0  0  0  0  0  0  0999 V2000
   -1.8601   -1.1800    0.4013 C   0  0  0  0  0  0  0  0  0  0  0  0
   -2.0559   -2.4675    0.8922 N   0  0  0  0  0  0  0  0  0  0  0  0
   -2.7841   -3.3305    1.1078 N   0  0  0  0  0  0  0  0  0  0  0  0
   -0.5802   -0.6159    0.5456 C   0  0  0  0  0  0  0  0  0  0  0  0
   -0.3503    0.6607    0.0752 C   0  0  0  0  0  0  0  0  0  0  0  0
   -1.3917    1.3812   -0.5466 C   0  0  0  0  0  0  0  0  0  0  0  0
   -1.0650    2.6162   -0.9704 O   0  0  0  0  0  0  0  0  0  0  0  0
   -2.0600    3.4227   -1.6041 C   0  0  0  0  0  0  0  0  0  0  0  0
   -2.6666    0.8018   -0.6909 C   0  0  0  0  0  0  0  0  0  0  0  0
   -2.9095   -0.4804   -0.2196 C   0  0  0  0  0  0  0  0  0  0  0  0
    0.2066   -1.1856    1.0276 H   0  0  0  0  0  0  0  0  0  0  0  0
    0.6204    1.1333    0.1724 H   0  0  0  0  0  0  0  0  0  0  0  0
   -1.5639    4.3608   -1.8506 H   0  0  0  0  0  0  0  0  0  0  0  0
   -2.8991    3.6190   -0.9280 H   0  0  0  0  0  0  0  0  0  0  0  0
   -2.4268    2.9514   -2.5222 H   0  0  0  0  0  0  0  0  0  0  0  0
   -3.4737    1.3443   -1.1666 H   0  0  0  0  0  0  0  0  0  0  0  0
   -3.8807   -0.9525   -0.3160 H   0  0  0  0  0  0  0  0  0  0  0  0
   -4.6379   -2.8410    0.4068 O   0  0  0  0  0  0  0  0  0  0  0  0
   -5.3058   -2.5465    1.4693 C   0  0  0  0  0  0  0  0  0  0  0  0
   -4.9376   -2.5039    2.6345 O   0  0  0  0  0  0  0  0  0  0  0  0
   -6.7644   -2.1393    1.1072 C   0  0  0  0  0  0  0  0  0  0  0  0
   -7.4950   -1.8595    2.1943 F   0  0  0  0  0  0  0  0  0  0  0  0
   -6.7438   -1.0246    0.3281 F   0  0  0  0  0  0  0  0  0  0  0  0
   -7.3985   -3.1043    0.4147 F   0  0  0  0  0  0  0  0  0  0  0  0
  1  4  1  0  0  0  0
  1  2  1  0  0  0  0
  2  3  2  0  0  0  0
  4 11  1  0  0  0  0
  5 12  1  0  0  0  0
  5  4  2  0  0  0  0
  6  5  1  0  0  0  0
  7  6  1  0  0  0  0
  8  7  1  0  0  0  0
  8 14  1  0  0  0  0
  9  6  2  0  0  0  0
  9 10  1  0  0  0  0
 10  1  2  0  0  0  0
 13  8  1  0  0  0  0
 15  8  1  0  0  0  0
 16  9  1  0  0  0  0
 17 10  1  0  0  0  0
 18 19  2  0  0  0  0
 19 20  1  0  0  0  0
 21 19  1  0  0  0  0
 21 22  1  0  0  0  0
 23 21  1  0  0  0  0
 24 21  1  0  0  0  0
M  RAD  2   3   2  20   2
M  END
