Coordinates from ORCA-job 4-MeOPhN2+~CF3COO-_B3LYPG-6-31G_dp-NX-Scan-d89-09-n800
 OpenBabel11261920413D

 24 23  0  0  0  0  0  0  0  0999 V2000
   -2.6382    0.2240   -1.0568 C   0  0  0  0  0  0  0  0  0  0  0  0
   -3.4565    0.3794   -2.1828 N   0  0  0  0  0  0  0  0  0  0  0  0
   -3.6419    0.5657   -3.2746 N   0  0  0  0  0  0  0  0  0  0  0  0
   -1.4509    0.9790   -1.0335 C   0  0  0  0  0  0  0  0  0  0  0  0
   -0.6029    0.8338    0.0464 C   0  0  0  0  0  0  0  0  0  0  0  0
   -0.9258   -0.0598    1.0893 C   0  0  0  0  0  0  0  0  0  0  0  0
   -0.0289   -0.1216    2.0912 O   0  0  0  0  0  0  0  0  0  0  0  0
   -0.2797   -0.9896    3.1969 C   0  0  0  0  0  0  0  0  0  0  0  0
   -2.1145   -0.8113    1.0340 C   0  0  0  0  0  0  0  0  0  0  0  0
   -2.9837   -0.6634   -0.0377 C   0  0  0  0  0  0  0  0  0  0  0  0
   -1.2173    1.6631   -1.8418 H   0  0  0  0  0  0  0  0  0  0  0  0
    0.3197    1.3986    0.1134 H   0  0  0  0  0  0  0  0  0  0  0  0
    0.5677   -0.8599    3.8704 H   0  0  0  0  0  0  0  0  0  0  0  0
   -0.3346   -2.0357    2.8756 H   0  0  0  0  0  0  0  0  0  0  0  0
   -1.2047   -0.7137    3.7156 H   0  0  0  0  0  0  0  0  0  0  0  0
   -2.3721   -1.5064    1.8231 H   0  0  0  0  0  0  0  0  0  0  0  0
   -3.9066   -1.2249   -0.1406 H   0  0  0  0  0  0  0  0  0  0  0  0
   -5.4029   -1.2296   -1.6158 O   0  0  0  0  0  0  0  0  0  0  0  0
   -5.9415   -0.1552   -1.2749 C   0  0  0  0  0  0  0  0  0  0  0  0
   -5.3893    0.9567   -1.0692 O   0  0  0  0  0  0  0  0  0  0  0  0
   -7.4892   -0.1510   -1.1203 C   0  0  0  0  0  0  0  0  0  0  0  0
   -7.8794    0.5629   -0.0445 F   0  0  0  0  0  0  0  0  0  0  0  0
   -8.0580    0.4098   -2.2119 F   0  0  0  0  0  0  0  0  0  0  0  0
   -7.9927   -1.3908   -0.9896 F   0  0  0  0  0  0  0  0  0  0  0  0
  1  4  2  0  0  0  0
  1 10  1  0  0  0  0
  2  1  1  0  0  0  0
  3  2  2  0  0  0  0
  4  5  1  0  0  0  0
  5 12  1  0  0  0  0
  5  6  2  0  0  0  0
  6  7  1  0  0  0  0
  7  8  1  0  0  0  0
  8 15  1  0  0  0  0
  8 13  1  0  0  0  0
  9  6  1  0  0  0  0
  9 16  1  0  0  0  0
 10  9  2  0  0  0  0
 11  4  1  0  0  0  0
 14  8  1  0  0  0  0
 17 10  1  0  0  0  0
 18 19  2  0  0  0  0
 19 21  1  0  0  0  0
 19 20  1  0  0  0  0
 21 24  1  0  0  0  0
 21 22  1  0  0  0  0
 23 21  1  0  0  0  0
M  RAD  2   3   2  20   2
M  END
