Coordinates from ORCA-job 4-MeOPhN2+~CF3COO-_B3LYPG-6-31G_dp-NX-Scan-d89-09-n800
 OpenBabel11261920413D

 24 23  0  0  0  0  0  0  0  0999 V2000
   -2.9375    1.6261   -0.9046 C   0  0  0  0  0  0  0  0  0  0  0  0
   -3.7602    2.4039   -1.6194 N   0  0  0  0  0  0  0  0  0  0  0  0
   -4.4730    3.0508   -2.2032 N   0  0  0  0  0  0  0  0  0  0  0  0
   -2.0132    0.7839   -1.5853 C   0  0  0  0  0  0  0  0  0  0  0  0
   -1.3230   -0.1415   -0.8543 C   0  0  0  0  0  0  0  0  0  0  0  0
   -1.5772   -0.2826    0.5423 C   0  0  0  0  0  0  0  0  0  0  0  0
   -0.9584   -1.3045    1.1269 O   0  0  0  0  0  0  0  0  0  0  0  0
   -1.4216   -1.7355    2.4249 C   0  0  0  0  0  0  0  0  0  0  0  0
   -2.4223    0.6138    1.2156 C   0  0  0  0  0  0  0  0  0  0  0  0
   -3.1559    1.5404    0.4994 C   0  0  0  0  0  0  0  0  0  0  0  0
   -1.8965    0.8624   -2.6602 H   0  0  0  0  0  0  0  0  0  0  0  0
   -0.6331   -0.8327   -1.3239 H   0  0  0  0  0  0  0  0  0  0  0  0
   -0.9394   -2.6972    2.5938 H   0  0  0  0  0  0  0  0  0  0  0  0
   -2.5096   -1.8403    2.4017 H   0  0  0  0  0  0  0  0  0  0  0  0
   -1.1055   -1.0280    3.1988 H   0  0  0  0  0  0  0  0  0  0  0  0
   -2.6096    0.5098    2.2741 H   0  0  0  0  0  0  0  0  0  0  0  0
   -3.8322    2.2236    0.9888 H   0  0  0  0  0  0  0  0  0  0  0  0
   -4.4321   -1.4097    1.0753 O   0  0  0  0  0  0  0  0  0  0  0  0
   -5.0359   -0.7051    0.2490 C   0  0  0  0  0  0  0  0  0  0  0  0
   -5.3191    0.5257    0.2772 O   0  0  0  0  0  0  0  0  0  0  0  0
   -5.4351   -1.3816   -1.0983 C   0  0  0  0  0  0  0  0  0  0  0  0
   -6.7196   -1.1445   -1.4355 F   0  0  0  0  0  0  0  0  0  0  0  0
   -4.6644   -0.8648   -2.1094 F   0  0  0  0  0  0  0  0  0  0  0  0
   -5.2494   -2.7126   -1.1117 F   0  0  0  0  0  0  0  0  0  0  0  0
  1 10  1  0  0  0  0
  2  1  1  0  0  0  0
  3  2  1  0  0  0  0
  4  1  2  0  0  0  0
  4  5  1  0  0  0  0
  5  6  2  0  0  0  0
  6  7  1  0  0  0  0
  6  9  1  0  0  0  0
  7  8  1  0  0  0  0
  8 13  1  0  0  0  0
  8 15  1  0  0  0  0
  9 16  1  0  0  0  0
 10 17  1  0  0  0  0
 10  9  2  0  0  0  0
 11  4  1  0  0  0  0
 12  5  1  0  0  0  0
 14  8  1  0  0  0  0
 19 20  2  0  0  0  0
 19 18  1  0  0  0  0
 21 19  1  0  0  0  0
 22 21  1  0  0  0  0
 23 21  1  0  0  0  0
 24 21  1  0  0  0  0
M  RAD  3   2   2   3   3  18   2
M  END
