Coordinates from ORCA-job 4-MeOPhN2+~CF3COO-_B3LYPG-6-31G_dp-NX-Scan-d89-09-n800
 OpenBabel11261920413D

 24 23  0  0  0  0  0  0  0  0999 V2000
   -2.8946    1.7743   -0.9134 C   0  0  0  0  0  0  0  0  0  0  0  0
   -3.6589    2.6364   -1.5956 N   0  0  0  0  0  0  0  0  0  0  0  0
   -4.3269    3.3556   -2.1482 N   0  0  0  0  0  0  0  0  0  0  0  0
   -1.9522    0.9705   -1.6165 C   0  0  0  0  0  0  0  0  0  0  0  0
   -1.3141   -0.0227   -0.9288 C   0  0  0  0  0  0  0  0  0  0  0  0
   -1.6245   -0.2580    0.4445 C   0  0  0  0  0  0  0  0  0  0  0  0
   -1.0411   -1.3289    0.9761 O   0  0  0  0  0  0  0  0  0  0  0  0
   -1.5363   -1.8321    2.2372 C   0  0  0  0  0  0  0  0  0  0  0  0
   -2.4868    0.5984    1.1473 C   0  0  0  0  0  0  0  0  0  0  0  0
   -3.1822    1.5816    0.4668 C   0  0  0  0  0  0  0  0  0  0  0  0
   -1.7782    1.1341   -2.6738 H   0  0  0  0  0  0  0  0  0  0  0  0
   -0.6137   -0.6891   -1.4184 H   0  0  0  0  0  0  0  0  0  0  0  0
   -1.0541   -2.8002    2.3641 H   0  0  0  0  0  0  0  0  0  0  0  0
   -2.6245   -1.9342    2.1863 H   0  0  0  0  0  0  0  0  0  0  0  0
   -1.2419   -1.1670    3.0558 H   0  0  0  0  0  0  0  0  0  0  0  0
   -2.7360    0.4109    2.1800 H   0  0  0  0  0  0  0  0  0  0  0  0
   -3.8798    2.2295    0.9742 H   0  0  0  0  0  0  0  0  0  0  0  0
   -4.6544   -1.1209    1.3911 O   0  0  0  0  0  0  0  0  0  0  0  0
   -5.1106   -0.6322    0.3414 C   0  0  0  0  0  0  0  0  0  0  0  0
   -5.3270    0.5734    0.0383 O   0  0  0  0  0  0  0  0  0  0  0  0
   -5.3222   -1.6238   -0.8400 C   0  0  0  0  0  0  0  0  0  0  0  0
   -6.3599   -1.2927   -1.6346 F   0  0  0  0  0  0  0  0  0  0  0  0
   -4.2013   -1.6064   -1.6274 F   0  0  0  0  0  0  0  0  0  0  0  0
   -5.5024   -2.8966   -0.4446 F   0  0  0  0  0  0  0  0  0  0  0  0
  1 10  2  0  0  0  0
  2  1  1  0  0  0  0
  3  2  1  0  0  0  0
  4  5  2  0  0  0  0
  4  1  1  0  0  0  0
  5  6  1  0  0  0  0
  6  7  1  0  0  0  0
  6  9  2  0  0  0  0
  7  8  1  0  0  0  0
  8 13  1  0  0  0  0
  8 15  1  0  0  0  0
  9 16  1  0  0  0  0
 10 17  1  0  0  0  0
 10  9  1  0  0  0  0
 11  4  1  0  0  0  0
 12  5  1  0  0  0  0
 14  8  1  0  0  0  0
 19 18  1  0  0  0  0
 20 19  2  0  0  0  0
 21 24  1  0  0  0  0
 21 19  1  0  0  0  0
 22 21  1  0  0  0  0
 23 21  1  0  0  0  0
M  RAD  3   2   2   3   3  18   2
M  END
