Coordinates from ORCA-job 4-MeOPhN2+~CF3COO-_B3LYPG-6-31G_dp-NX-Scan-d89-09-n800
 OpenBabel11261920413D

 24 23  0  0  0  0  0  0  0  0999 V2000
   -2.6077    0.3406   -1.0436 C   0  0  0  0  0  0  0  0  0  0  0  0
   -3.4229    0.5401   -2.1732 N   0  0  0  0  0  0  0  0  0  0  0  0
   -3.5205    0.7982   -3.2664 N   0  0  0  0  0  0  0  0  0  0  0  0
   -1.3932    1.0531   -1.0132 C   0  0  0  0  0  0  0  0  0  0  0  0
   -0.5475    0.8617    0.0604 C   0  0  0  0  0  0  0  0  0  0  0  0
   -0.8951   -0.0444    1.0859 C   0  0  0  0  0  0  0  0  0  0  0  0
    0.0028   -0.1533    2.0832 O   0  0  0  0  0  0  0  0  0  0  0  0
   -0.2676   -1.0421    3.1676 C   0  0  0  0  0  0  0  0  0  0  0  0
   -2.1048   -0.7585    1.0181 C   0  0  0  0  0  0  0  0  0  0  0  0
   -2.9767   -0.5593   -0.0450 C   0  0  0  0  0  0  0  0  0  0  0  0
   -1.1402    1.7435   -1.8105 H   0  0  0  0  0  0  0  0  0  0  0  0
    0.3915    1.3975    0.1366 H   0  0  0  0  0  0  0  0  0  0  0  0
    0.5848   -0.9519    3.8412 H   0  0  0  0  0  0  0  0  0  0  0  0
   -0.3514   -2.0778    2.8201 H   0  0  0  0  0  0  0  0  0  0  0  0
   -1.1837   -0.7553    3.6962 H   0  0  0  0  0  0  0  0  0  0  0  0
   -2.3780   -1.4672    1.7898 H   0  0  0  0  0  0  0  0  0  0  0  0
   -3.9128   -1.1089   -0.1538 H   0  0  0  0  0  0  0  0  0  0  0  0
   -5.6044   -1.5667   -1.1019 O   0  0  0  0  0  0  0  0  0  0  0  0
   -6.0232   -0.4063   -1.1823 C   0  0  0  0  0  0  0  0  0  0  0  0
   -5.3742    0.6838   -1.2857 O   0  0  0  0  0  0  0  0  0  0  0  0
   -7.5644   -0.1774   -1.1648 C   0  0  0  0  0  0  0  0  0  0  0  0
   -7.9120    0.7242   -0.2225 F   0  0  0  0  0  0  0  0  0  0  0  0
   -7.9828    0.2965   -2.3594 F   0  0  0  0  0  0  0  0  0  0  0  0
   -8.2396   -1.3103   -0.9149 F   0  0  0  0  0  0  0  0  0  0  0  0
  1  4  2  0  0  0  0
  1 10  1  0  0  0  0
  2  1  1  0  0  0  0
  3  2  2  0  0  0  0
  4  5  1  0  0  0  0
  5 12  1  0  0  0  0
  5  6  2  0  0  0  0
  6  7  1  0  0  0  0
  7  8  1  0  0  0  0
  8 15  1  0  0  0  0
  8 13  1  0  0  0  0
  9  6  1  0  0  0  0
  9 16  1  0  0  0  0
 10  9  2  0  0  0  0
 11  4  1  0  0  0  0
 14  8  1  0  0  0  0
 17 10  1  0  0  0  0
 19 21  1  0  0  0  0
 19 18  1  0  0  0  0
 20 19  2  0  0  0  0
 21 24  1  0  0  0  0
 21 22  1  0  0  0  0
 23 21  1  0  0  0  0
M  RAD  2   3   2  18   2
M  END
