Coordinates from ORCA-job 4-MeOPhN2+~CF3COO-_B3LYPG-6-31G_dp-NX-Scan-d89-09-n800
 OpenBabel11261920413D

 24 23  0  0  0  0  0  0  0  0999 V2000
   -2.1465    1.9197   -1.3818 C   0  0  0  0  0  0  0  0  0  0  0  0
   -2.5712    2.8271   -2.2763 N   0  0  0  0  0  0  0  0  0  0  0  0
   -2.9556    3.5878   -3.0144 N   0  0  0  0  0  0  0  0  0  0  0  0
   -0.7841    1.5008   -1.4092 C   0  0  0  0  0  0  0  0  0  0  0  0
   -0.3876    0.5393   -0.5207 C   0  0  0  0  0  0  0  0  0  0  0  0
   -1.3254   -0.0334    0.3927 C   0  0  0  0  0  0  0  0  0  0  0  0
   -0.8533   -0.9899    1.1614 O   0  0  0  0  0  0  0  0  0  0  0  0
   -1.7609   -1.7003    2.0570 C   0  0  0  0  0  0  0  0  0  0  0  0
   -2.6666    0.4257    0.4366 C   0  0  0  0  0  0  0  0  0  0  0  0
   -3.0814    1.3828   -0.4521 C   0  0  0  0  0  0  0  0  0  0  0  0
   -0.0935    1.9335   -2.1245 H   0  0  0  0  0  0  0  0  0  0  0  0
    0.6330    0.1742   -0.5079 H   0  0  0  0  0  0  0  0  0  0  0  0
   -1.1673   -2.5245    2.4487 H   0  0  0  0  0  0  0  0  0  0  0  0
   -2.6419   -2.0456    1.4954 H   0  0  0  0  0  0  0  0  0  0  0  0
   -2.0607   -1.0308    2.8681 H   0  0  0  0  0  0  0  0  0  0  0  0
   -3.4512    0.0142    1.0898 H   0  0  0  0  0  0  0  0  0  0  0  0
   -4.1203    1.6964   -0.4478 H   0  0  0  0  0  0  0  0  0  0  0  0
   -4.3586   -2.2417    0.4353 O   0  0  0  0  0  0  0  0  0  0  0  0
   -5.2873   -1.4385    0.6706 C   0  0  0  0  0  0  0  0  0  0  0  0
   -5.2655   -0.3279    1.2595 O   0  0  0  0  0  0  0  0  0  0  0  0
   -6.6829   -1.8245    0.0951 C   0  0  0  0  0  0  0  0  0  0  0  0
   -7.6835   -1.5604    0.9622 F   0  0  0  0  0  0  0  0  0  0  0  0
   -6.9324   -1.0999   -1.0315 F   0  0  0  0  0  0  0  0  0  0  0  0
   -6.7789   -3.1243   -0.2443 F   0  0  0  0  0  0  0  0  0  0  0  0
  1 10  1  0  0  0  0
  2  1  1  0  0  0  0
  3  2  1  0  0  0  0
  4  1  2  0  0  0  0
  4  5  1  0  0  0  0
  5 12  1  0  0  0  0
  5  6  2  0  0  0  0
  6  9  1  0  0  0  0
  6  7  1  0  0  0  0
  7  8  1  0  0  0  0
  8 13  1  0  0  0  0
  8 15  1  0  0  0  0
  9 16  1  0  0  0  0
 10 17  1  0  0  0  0
 10  9  2  0  0  0  0
 11  4  1  0  0  0  0
 14  8  1  0  0  0  0
 18 19  2  0  0  0  0
 19 20  1  0  0  0  0
 21 19  1  0  0  0  0
 21 22  1  0  0  0  0
 23 21  1  0  0  0  0
 24 21  1  0  0  0  0
M  RAD  3   2   2   3   3  20   2
M  END
