Coordinates from ORCA-job 4-MeOPhN2+~CF3COO-_B3LYPG-6-31G_dp-NX-Scan-d89-09-n800
 OpenBabel11261920413D

 24 24  0  0  0  0  0  0  0  0999 V2000
   -1.9679   -0.9878    0.5786 C   0  0  0  0  0  0  0  0  0  0  0  0
   -2.1256   -2.2113    1.2446 N   0  0  0  0  0  0  0  0  0  0  0  0
   -3.0420   -2.9070    1.5846 N   0  0  0  0  0  0  0  0  0  0  0  0
   -0.6194   -0.6186    0.3881 C   0  0  0  0  0  0  0  0  0  0  0  0
   -0.2919    0.5634   -0.2461 C   0  0  0  0  0  0  0  0  0  0  0  0
   -1.3134    1.4158   -0.7043 C   0  0  0  0  0  0  0  0  0  0  0  0
   -0.9002    2.5496   -1.3116 O   0  0  0  0  0  0  0  0  0  0  0  0
   -1.8756    3.4638   -1.8058 C   0  0  0  0  0  0  0  0  0  0  0  0
   -2.6597    1.0593   -0.5134 C   0  0  0  0  0  0  0  0  0  0  0  0
   -2.9909   -0.1331    0.1203 C   0  0  0  0  0  0  0  0  0  0  0  0
    0.1531   -1.2873    0.7516 H   0  0  0  0  0  0  0  0  0  0  0  0
    0.7401    0.8577   -0.4017 H   0  0  0  0  0  0  0  0  0  0  0  0
   -1.3134    4.2874   -2.2462 H   0  0  0  0  0  0  0  0  0  0  0  0
   -2.5092    3.8469   -0.9978 H   0  0  0  0  0  0  0  0  0  0  0  0
   -2.5036    2.9996   -2.5752 H   0  0  0  0  0  0  0  0  0  0  0  0
   -3.4579    1.7049   -0.8580 H   0  0  0  0  0  0  0  0  0  0  0  0
   -4.0280   -0.3966    0.2624 H   0  0  0  0  0  0  0  0  0  0  0  0
   -4.4414   -2.3086    1.1217 O   0  0  0  0  0  0  0  0  0  0  0  0
   -5.4812   -2.9284    1.6744 C   0  0  0  0  0  0  0  0  0  0  0  0
   -5.5026   -3.7690    2.5347 O   0  0  0  0  0  0  0  0  0  0  0  0
   -6.7790   -2.4052    1.0013 C   0  0  0  0  0  0  0  0  0  0  0  0
   -7.8526   -2.7328    1.7235 F   0  0  0  0  0  0  0  0  0  0  0  0
   -6.7536   -1.0609    0.8640 F   0  0  0  0  0  0  0  0  0  0  0  0
   -6.9078   -2.9418   -0.2278 F   0  0  0  0  0  0  0  0  0  0  0  0
  1  2  1  0  0  0  0
  2  3  1  0  0  0  0
  4  1  1  0  0  0  0
  4 11  1  0  0  0  0
  5  4  2  0  0  0  0
  6  9  2  0  0  0  0
  6  5  1  0  0  0  0
  7  6  1  0  0  0  0
  8  7  1  0  0  0  0
  8 14  1  0  0  0  0
  9 10  1  0  0  0  0
 10 17  1  0  0  0  0
 10  1  2  0  0  0  0
 12  5  1  0  0  0  0
 13  8  1  0  0  0  0
 15  8  1  0  0  0  0
 16  9  1  0  0  0  0
 18  3  1  0  0  0  0
 18 19  1  0  0  0  0
 19 20  2  0  0  0  0
 21 19  1  0  0  0  0
 21 22  1  0  0  0  0
 23 21  1  0  0  0  0
 24 21  1  0  0  0  0
M  RAD  2   2   2   3   2
M  END
