Coordinates from ORCA-job 4-MeOPhN2+~CF3COO-_B3LYPG-6-31G_dp-NX-Scan-d89-09-n800
 OpenBabel11261920413D

 24 23  0  0  0  0  0  0  0  0999 V2000
   -2.1537    1.9126   -1.3805 C   0  0  0  0  0  0  0  0  0  0  0  0
   -2.5837    2.8139   -2.2786 N   0  0  0  0  0  0  0  0  0  0  0  0
   -2.9732    3.5690   -3.0198 N   0  0  0  0  0  0  0  0  0  0  0  0
   -0.7906    1.4963   -1.4104 C   0  0  0  0  0  0  0  0  0  0  0  0
   -0.3897    0.5386   -0.5196 C   0  0  0  0  0  0  0  0  0  0  0  0
   -1.3241   -0.0333    0.3977 C   0  0  0  0  0  0  0  0  0  0  0  0
   -0.8493   -0.9887    1.1663 O   0  0  0  0  0  0  0  0  0  0  0  0
   -1.7562   -1.7020    2.0603 C   0  0  0  0  0  0  0  0  0  0  0  0
   -2.6653    0.4248    0.4451 C   0  0  0  0  0  0  0  0  0  0  0  0
   -3.0847    1.3783   -0.4455 C   0  0  0  0  0  0  0  0  0  0  0  0
   -0.1030    1.9274   -2.1295 H   0  0  0  0  0  0  0  0  0  0  0  0
    0.6315    0.1751   -0.5088 H   0  0  0  0  0  0  0  0  0  0  0  0
   -1.1616   -2.5257    2.4514 H   0  0  0  0  0  0  0  0  0  0  0  0
   -2.6355   -2.0476    1.4964 H   0  0  0  0  0  0  0  0  0  0  0  0
   -2.0584   -1.0345    2.8720 H   0  0  0  0  0  0  0  0  0  0  0  0
   -3.4470    0.0146    1.1020 H   0  0  0  0  0  0  0  0  0  0  0  0
   -4.1241    1.6899   -0.4388 H   0  0  0  0  0  0  0  0  0  0  0  0
   -4.3534   -2.2311    0.4286 O   0  0  0  0  0  0  0  0  0  0  0  0
   -5.2838   -1.4313    0.6689 C   0  0  0  0  0  0  0  0  0  0  0  0
   -5.2649   -0.3260    1.2679 O   0  0  0  0  0  0  0  0  0  0  0  0
   -6.6773   -1.8134    0.0857 C   0  0  0  0  0  0  0  0  0  0  0  0
   -7.6808   -1.5587    0.9521 F   0  0  0  0  0  0  0  0  0  0  0  0
   -6.9240   -1.0785   -1.0348 F   0  0  0  0  0  0  0  0  0  0  0  0
   -6.7708   -3.1100   -0.2663 F   0  0  0  0  0  0  0  0  0  0  0  0
  1 10  1  0  0  0  0
  2  1  1  0  0  0  0
  3  2  1  0  0  0  0
  4  1  2  0  0  0  0
  4  5  1  0  0  0  0
  5 12  1  0  0  0  0
  5  6  2  0  0  0  0
  6  9  1  0  0  0  0
  6  7  1  0  0  0  0
  7  8  1  0  0  0  0
  8 13  1  0  0  0  0
  8 15  1  0  0  0  0
  9 16  1  0  0  0  0
 10 17  1  0  0  0  0
 10  9  2  0  0  0  0
 11  4  1  0  0  0  0
 14  8  1  0  0  0  0
 18 19  2  0  0  0  0
 19 20  1  0  0  0  0
 21 19  1  0  0  0  0
 21 22  1  0  0  0  0
 23 21  1  0  0  0  0
 24 21  1  0  0  0  0
M  RAD  3   2   2   3   3  20   2
M  END
