Coordinates from ORCA-job 4-MeOPhN2+~CF3COO-_B3LYPG-6-31G_dp-NX-Scan-d89-09-n800
 OpenBabel11261920413D

 24 23  0  0  0  0  0  0  0  0999 V2000
   -2.6432    0.2735   -1.0358 C   0  0  0  0  0  0  0  0  0  0  0  0
   -3.4763    0.4383   -2.1564 N   0  0  0  0  0  0  0  0  0  0  0  0
   -3.6156    0.5936   -3.2628 N   0  0  0  0  0  0  0  0  0  0  0  0
   -1.4334    0.9899   -1.0329 C   0  0  0  0  0  0  0  0  0  0  0  0
   -0.5772    0.8272    0.0390 C   0  0  0  0  0  0  0  0  0  0  0  0
   -0.9137   -0.0505    1.0906 C   0  0  0  0  0  0  0  0  0  0  0  0
   -0.0069   -0.1334    2.0831 O   0  0  0  0  0  0  0  0  0  0  0  0
   -0.2685   -0.9920    3.1931 C   0  0  0  0  0  0  0  0  0  0  0  0
   -2.1236   -0.7677    1.0530 C   0  0  0  0  0  0  0  0  0  0  0  0
   -3.0025   -0.5974   -0.0084 C   0  0  0  0  0  0  0  0  0  0  0  0
   -1.1887    1.6607   -1.8490 H   0  0  0  0  0  0  0  0  0  0  0  0
    0.3620    1.3655    0.0921 H   0  0  0  0  0  0  0  0  0  0  0  0
    0.5897   -0.8847    3.8568 H   0  0  0  0  0  0  0  0  0  0  0  0
   -0.3558   -2.0370    2.8748 H   0  0  0  0  0  0  0  0  0  0  0  0
   -1.1797   -0.6904    3.7220 H   0  0  0  0  0  0  0  0  0  0  0  0
   -2.3899   -1.4547    1.8463 H   0  0  0  0  0  0  0  0  0  0  0  0
   -3.9333   -1.1473   -0.0980 H   0  0  0  0  0  0  0  0  0  0  0  0
   -5.4710   -1.3732   -1.5836 O   0  0  0  0  0  0  0  0  0  0  0  0
   -5.9623   -0.2702   -1.3022 C   0  0  0  0  0  0  0  0  0  0  0  0
   -5.3620    0.8355   -1.1354 O   0  0  0  0  0  0  0  0  0  0  0  0
   -7.5058   -0.1649   -1.1408 C   0  0  0  0  0  0  0  0  0  0  0  0
   -7.8339    0.4624    0.0088 F   0  0  0  0  0  0  0  0  0  0  0  0
   -8.0344    0.5463   -2.1609 F   0  0  0  0  0  0  0  0  0  0  0  0
   -8.0975   -1.3698   -1.1312 F   0  0  0  0  0  0  0  0  0  0  0  0
  1  4  2  0  0  0  0
  1 10  1  0  0  0  0
  2  1  1  0  0  0  0
  3  2  2  0  0  0  0
  4  5  1  0  0  0  0
  5 12  1  0  0  0  0
  5  6  2  0  0  0  0
  6  7  1  0  0  0  0
  7  8  1  0  0  0  0
  8 15  1  0  0  0  0
  8 13  1  0  0  0  0
  9  6  1  0  0  0  0
  9 16  1  0  0  0  0
 10  9  2  0  0  0  0
 11  4  1  0  0  0  0
 14  8  1  0  0  0  0
 17 10  1  0  0  0  0
 18 19  2  0  0  0  0
 19 21  1  0  0  0  0
 19 20  1  0  0  0  0
 21 24  1  0  0  0  0
 21 22  1  0  0  0  0
 23 21  1  0  0  0  0
M  RAD  2   3   2  20   2
M  END
