Coordinates from ORCA-job 4-MeOPhN2+~CF3COO-_B3LYPG-6-31G_dp-NX-Scan-d89-09-n800
 OpenBabel11261920413D

 24 23  0  0  0  0  0  0  0  0999 V2000
   -2.7233    1.5846   -1.1932 C   0  0  0  0  0  0  0  0  0  0  0  0
   -3.4157    2.3367   -2.0649 N   0  0  0  0  0  0  0  0  0  0  0  0
   -4.0122    2.9646   -2.7842 N   0  0  0  0  0  0  0  0  0  0  0  0
   -1.4818    1.0162   -1.6004 C   0  0  0  0  0  0  0  0  0  0  0  0
   -0.8574    0.1532   -0.7424 C   0  0  0  0  0  0  0  0  0  0  0  0
   -1.4631   -0.1866    0.5049 C   0  0  0  0  0  0  0  0  0  0  0  0
   -0.8414   -1.1168    1.2035 O   0  0  0  0  0  0  0  0  0  0  0  0
   -1.5023   -1.6858    2.3666 C   0  0  0  0  0  0  0  0  0  0  0  0
   -2.6535    0.4510    0.9209 C   0  0  0  0  0  0  0  0  0  0  0  0
   -3.3005    1.3177    0.0760 C   0  0  0  0  0  0  0  0  0  0  0  0
   -1.0668    1.2502   -2.5741 H   0  0  0  0  0  0  0  0  0  0  0  0
    0.0741   -0.3311   -1.0107 H   0  0  0  0  0  0  0  0  0  0  0  0
   -0.8867   -2.5403    2.6427 H   0  0  0  0  0  0  0  0  0  0  0  0
   -2.5196   -1.9857    2.0838 H   0  0  0  0  0  0  0  0  0  0  0  0
   -1.5086   -0.9543    3.1810 H   0  0  0  0  0  0  0  0  0  0  0  0
   -3.1740    0.1728    1.8277 H   0  0  0  0  0  0  0  0  0  0  0  0
   -4.2781    1.6968    0.3464 H   0  0  0  0  0  0  0  0  0  0  0  0
   -4.1589   -2.0301    0.7432 O   0  0  0  0  0  0  0  0  0  0  0  0
   -5.0672   -1.1734    0.6621 C   0  0  0  0  0  0  0  0  0  0  0  0
   -5.3655   -0.2201    1.4170 O   0  0  0  0  0  0  0  0  0  0  0  0
   -5.8767   -1.1922   -0.6726 C   0  0  0  0  0  0  0  0  0  0  0  0
   -7.1800   -0.8964   -0.5112 F   0  0  0  0  0  0  0  0  0  0  0  0
   -5.3613   -0.2208   -1.5096 F   0  0  0  0  0  0  0  0  0  0  0  0
   -5.8031   -2.3504   -1.3505 F   0  0  0  0  0  0  0  0  0  0  0  0
  1 10  1  0  0  0  0
  2  1  1  0  0  0  0
  3  2  1  0  0  0  0
  4  1  2  0  0  0  0
  4  5  1  0  0  0  0
  5  6  2  0  0  0  0
  6  9  1  0  0  0  0
  6  7  1  0  0  0  0
  7  8  1  0  0  0  0
  8 13  1  0  0  0  0
  8 15  1  0  0  0  0
  9 16  1  0  0  0  0
 10 17  1  0  0  0  0
 10  9  2  0  0  0  0
 11  4  1  0  0  0  0
 12  5  1  0  0  0  0
 14  8  1  0  0  0  0
 19 18  2  0  0  0  0
 19 20  1  0  0  0  0
 21 22  1  0  0  0  0
 21 19  1  0  0  0  0
 23 21  1  0  0  0  0
 24 21  1  0  0  0  0
M  RAD  3   2   2   3   3  20   2
M  END
