Coordinates from ORCA-job 4-MeOPhN2+~CF3COO-_B3LYPG-6-31G_dp-NX-Scan-d89-09-n800
 OpenBabel11261920413D

 24 23  0  0  0  0  0  0  0  0999 V2000
   -2.5897    0.3539   -1.0518 C   0  0  0  0  0  0  0  0  0  0  0  0
   -3.3970    0.5588   -2.1827 N   0  0  0  0  0  0  0  0  0  0  0  0
   -3.5159    0.8326   -3.2692 N   0  0  0  0  0  0  0  0  0  0  0  0
   -1.3759    1.0690   -1.0106 C   0  0  0  0  0  0  0  0  0  0  0  0
   -0.5364    0.8708    0.0657 C   0  0  0  0  0  0  0  0  0  0  0  0
   -0.8884   -0.0439    1.0830 C   0  0  0  0  0  0  0  0  0  0  0  0
    0.0042   -0.1579    2.0837 O   0  0  0  0  0  0  0  0  0  0  0  0
   -0.2698   -1.0548    3.1610 C   0  0  0  0  0  0  0  0  0  0  0  0
   -2.0964   -0.7598    1.0038 C   0  0  0  0  0  0  0  0  0  0  0  0
   -2.9634   -0.5551   -0.0622 C   0  0  0  0  0  0  0  0  0  0  0  0
   -1.1198    1.7654   -1.8018 H   0  0  0  0  0  0  0  0  0  0  0  0
    0.4014    1.4074    0.1516 H   0  0  0  0  0  0  0  0  0  0  0  0
    0.5791   -0.9671    3.8394 H   0  0  0  0  0  0  0  0  0  0  0  0
   -0.3493   -2.0882    2.8057 H   0  0  0  0  0  0  0  0  0  0  0  0
   -1.1892   -0.7736    3.6864 H   0  0  0  0  0  0  0  0  0  0  0  0
   -2.3729   -1.4739    1.7694 H   0  0  0  0  0  0  0  0  0  0  0  0
   -3.9040   -1.1014   -0.1789 H   0  0  0  0  0  0  0  0  0  0  0  0
   -5.6364   -1.5680   -0.9172 O   0  0  0  0  0  0  0  0  0  0  0  0
   -6.0432   -0.4186   -1.1285 C   0  0  0  0  0  0  0  0  0  0  0  0
   -5.3868    0.6529   -1.3240 O   0  0  0  0  0  0  0  0  0  0  0  0
   -7.5832   -0.1847   -1.1755 C   0  0  0  0  0  0  0  0  0  0  0  0
   -7.9558    0.7589   -0.2843 F   0  0  0  0  0  0  0  0  0  0  0  0
   -7.9610    0.2394   -2.4017 F   0  0  0  0  0  0  0  0  0  0  0  0
   -8.2739   -1.3023   -0.8993 F   0  0  0  0  0  0  0  0  0  0  0  0
  1  4  2  0  0  0  0
  1 10  1  0  0  0  0
  2  1  1  0  0  0  0
  3  2  2  0  0  0  0
  4  5  1  0  0  0  0
  5 12  1  0  0  0  0
  5  6  2  0  0  0  0
  6  7  1  0  0  0  0
  7  8  1  0  0  0  0
  8 15  1  0  0  0  0
  8 13  1  0  0  0  0
  9  6  1  0  0  0  0
  9 16  1  0  0  0  0
 10  9  2  0  0  0  0
 11  4  1  0  0  0  0
 14  8  1  0  0  0  0
 17 10  1  0  0  0  0
 19 18  1  0  0  0  0
 20 19  2  0  0  0  0
 21 19  1  0  0  0  0
 21 24  1  0  0  0  0
 21 22  1  0  0  0  0
 23 21  1  0  0  0  0
M  RAD  2   3   2  18   2
M  END
