Coordinates from ORCA-job 4-MeOPhN2+~CF3COO-_B3LYPG-6-31G_dp-NX-Scan-d89-09-n800
 OpenBabel11261920413D

 24 23  0  0  0  0  0  0  0  0999 V2000
   -1.8597   -1.1880    0.3993 C   0  0  0  0  0  0  0  0  0  0  0  0
   -2.0569   -2.4768    0.8848 N   0  0  0  0  0  0  0  0  0  0  0  0
   -2.7779   -3.3445    1.0975 N   0  0  0  0  0  0  0  0  0  0  0  0
   -0.5849   -0.6166    0.5580 C   0  0  0  0  0  0  0  0  0  0  0  0
   -0.3595    0.6624    0.0919 C   0  0  0  0  0  0  0  0  0  0  0  0
   -1.3994    1.3770   -0.5394 C   0  0  0  0  0  0  0  0  0  0  0  0
   -1.0766    2.6148   -0.9574 O   0  0  0  0  0  0  0  0  0  0  0  0
   -2.0706    3.4162   -1.5994 C   0  0  0  0  0  0  0  0  0  0  0  0
   -2.6688    0.7893   -0.6982 C   0  0  0  0  0  0  0  0  0  0  0  0
   -2.9076   -0.4951   -0.2314 C   0  0  0  0  0  0  0  0  0  0  0  0
    0.2007   -1.1814    1.0473 H   0  0  0  0  0  0  0  0  0  0  0  0
    0.6068    1.1417    0.1998 H   0  0  0  0  0  0  0  0  0  0  0  0
   -1.5783    4.3583   -1.8384 H   0  0  0  0  0  0  0  0  0  0  0  0
   -2.9178    3.6050   -0.9315 H   0  0  0  0  0  0  0  0  0  0  0  0
   -2.4246    2.9447   -2.5224 H   0  0  0  0  0  0  0  0  0  0  0  0
   -3.4746    1.3274   -1.1813 H   0  0  0  0  0  0  0  0  0  0  0  0
   -3.8740   -0.9752   -0.3383 H   0  0  0  0  0  0  0  0  0  0  0  0
   -4.6499   -2.8628    0.3813 O   0  0  0  0  0  0  0  0  0  0  0  0
   -5.2914   -2.5344    1.4480 C   0  0  0  0  0  0  0  0  0  0  0  0
   -4.8948   -2.4615    2.6037 O   0  0  0  0  0  0  0  0  0  0  0  0
   -6.7540   -2.1201    1.1124 C   0  0  0  0  0  0  0  0  0  0  0  0
   -7.4646   -1.8365    2.2119 F   0  0  0  0  0  0  0  0  0  0  0  0
   -6.7388   -1.0044    0.3341 F   0  0  0  0  0  0  0  0  0  0  0  0
   -7.4066   -3.0795    0.4295 F   0  0  0  0  0  0  0  0  0  0  0  0
  1  4  1  0  0  0  0
  1  2  1  0  0  0  0
  2  3  2  0  0  0  0
  4 11  1  0  0  0  0
  5 12  1  0  0  0  0
  5  4  2  0  0  0  0
  6  5  1  0  0  0  0
  7  6  1  0  0  0  0
  8  7  1  0  0  0  0
  8 14  1  0  0  0  0
  9  6  2  0  0  0  0
  9 10  1  0  0  0  0
 10  1  2  0  0  0  0
 13  8  1  0  0  0  0
 15  8  1  0  0  0  0
 16  9  1  0  0  0  0
 17 10  1  0  0  0  0
 18 19  2  0  0  0  0
 19 20  1  0  0  0  0
 21 19  1  0  0  0  0
 21 22  1  0  0  0  0
 23 21  1  0  0  0  0
 24 21  1  0  0  0  0
M  RAD  2   3   2  20   2
M  END
