Coordinates from ORCA-job 4-MeOPhN2+~CF3COO-_B3LYPG-6-31G_dp-NX-Scan-d89-09-n800
 OpenBabel11261920413D

 24 23  0  0  0  0  0  0  0  0999 V2000
   -2.7313    1.5735   -1.1865 C   0  0  0  0  0  0  0  0  0  0  0  0
   -3.4401    2.3047   -2.0628 N   0  0  0  0  0  0  0  0  0  0  0  0
   -4.0536    2.9126   -2.7848 N   0  0  0  0  0  0  0  0  0  0  0  0
   -1.4910    1.0061   -1.5979 C   0  0  0  0  0  0  0  0  0  0  0  0
   -0.8587    0.1510   -0.7377 C   0  0  0  0  0  0  0  0  0  0  0  0
   -1.4578   -0.1843    0.5138 C   0  0  0  0  0  0  0  0  0  0  0  0
   -0.8342   -1.1146    1.2114 O   0  0  0  0  0  0  0  0  0  0  0  0
   -1.4973   -1.6880    2.3708 C   0  0  0  0  0  0  0  0  0  0  0  0
   -2.6448    0.4558    0.9348 C   0  0  0  0  0  0  0  0  0  0  0  0
   -3.2980    1.3173    0.0894 C   0  0  0  0  0  0  0  0  0  0  0  0
   -1.0838    1.2331   -2.5765 H   0  0  0  0  0  0  0  0  0  0  0  0
    0.0720   -0.3333   -1.0087 H   0  0  0  0  0  0  0  0  0  0  0  0
   -0.8833   -2.5445    2.6443 H   0  0  0  0  0  0  0  0  0  0  0  0
   -2.5139   -1.9857    2.0841 H   0  0  0  0  0  0  0  0  0  0  0  0
   -1.5047   -0.9606    3.1889 H   0  0  0  0  0  0  0  0  0  0  0  0
   -3.1593    0.1806    1.8457 H   0  0  0  0  0  0  0  0  0  0  0  0
   -4.2750    1.6957    0.3627 H   0  0  0  0  0  0  0  0  0  0  0  0
   -4.1483   -2.0131    0.7206 O   0  0  0  0  0  0  0  0  0  0  0  0
   -5.0611   -1.1606    0.6471 C   0  0  0  0  0  0  0  0  0  0  0  0
   -5.3653   -0.2162    1.4108 O   0  0  0  0  0  0  0  0  0  0  0  0
   -5.8701   -1.1718   -0.6883 C   0  0  0  0  0  0  0  0  0  0  0  0
   -7.1748   -0.8841   -0.5253 F   0  0  0  0  0  0  0  0  0  0  0  0
   -5.3595   -0.1902   -1.5174 F   0  0  0  0  0  0  0  0  0  0  0  0
   -5.7899   -2.3234   -1.3764 F   0  0  0  0  0  0  0  0  0  0  0  0
  1 10  1  0  0  0  0
  2  1  1  0  0  0  0
  3  2  1  0  0  0  0
  4  1  2  0  0  0  0
  4  5  1  0  0  0  0
  5  6  2  0  0  0  0
  6  9  1  0  0  0  0
  6  7  1  0  0  0  0
  7  8  1  0  0  0  0
  8 13  1  0  0  0  0
  8 15  1  0  0  0  0
  9 16  1  0  0  0  0
 10 17  1  0  0  0  0
 10  9  2  0  0  0  0
 11  4  1  0  0  0  0
 12  5  1  0  0  0  0
 14  8  1  0  0  0  0
 19 18  2  0  0  0  0
 19 20  1  0  0  0  0
 21 22  1  0  0  0  0
 21 19  1  0  0  0  0
 23 21  1  0  0  0  0
 24 21  1  0  0  0  0
M  RAD  3   2   2   3   3  20   2
M  END
