Coordinates from ORCA-job 4-MeOPhN2+~CF3COO-_B3LYPG-6-31G_dp-NX-Scan-d89-09-n800
 OpenBabel11261920413D

 24 23  0  0  0  0  0  0  0  0999 V2000
   -1.7105   -0.1462   -0.0581 C   0  0  0  0  0  0  0  0  0  0  0  0
   -3.0494   -0.2991    0.0502 N   0  0  0  0  0  0  0  0  0  0  0  0
   -4.1743   -0.4271    0.1406 N   0  0  0  0  0  0  0  0  0  0  0  0
   -1.1624    1.1640   -0.1318 C   0  0  0  0  0  0  0  0  0  0  0  0
    0.2007    1.3003   -0.2427 C   0  0  0  0  0  0  0  0  0  0  0  0
    1.0439    0.1641   -0.2827 C   0  0  0  0  0  0  0  0  0  0  0  0
    2.3556    0.4254   -0.3925 O   0  0  0  0  0  0  0  0  0  0  0  0
    3.2885   -0.6573   -0.4406 C   0  0  0  0  0  0  0  0  0  0  0  0
    0.4866   -1.1298   -0.2077 C   0  0  0  0  0  0  0  0  0  0  0  0
   -0.8816   -1.2943   -0.0962 C   0  0  0  0  0  0  0  0  0  0  0  0
   -1.8144    2.0293   -0.1000 H   0  0  0  0  0  0  0  0  0  0  0  0
    0.6579    2.2817   -0.3016 H   0  0  0  0  0  0  0  0  0  0  0  0
    4.2702   -0.1940   -0.5294 H   0  0  0  0  0  0  0  0  0  0  0  0
    3.1052   -1.2968   -1.3111 H   0  0  0  0  0  0  0  0  0  0  0  0
    3.2470   -1.2540    0.4774 H   0  0  0  0  0  0  0  0  0  0  0  0
    1.1177   -2.0091   -0.2358 H   0  0  0  0  0  0  0  0  0  0  0  0
   -1.3214   -2.2834   -0.0379 H   0  0  0  0  0  0  0  0  0  0  0  0
  -12.9220   -1.1123    1.0340 O   0  0  0  0  0  0  0  0  0  0  0  0
  -11.6938   -1.0074    0.8954 C   0  0  0  0  0  0  0  0  0  0  0  0
  -10.7236   -1.7787    0.8504 O   0  0  0  0  0  0  0  0  0  0  0  0
  -11.2733    0.5374    0.7498 C   0  0  0  0  0  0  0  0  0  0  0  0
   -9.9585    0.7133    0.5115 F   0  0  0  0  0  0  0  0  0  0  0  0
  -11.9440    1.1239   -0.2624 F   0  0  0  0  0  0  0  0  0  0  0  0
  -11.5677    1.2100    1.8830 F   0  0  0  0  0  0  0  0  0  0  0  0
  1  2  1  0  0  0  0
  2  3  1  0  0  0  0
  4 11  1  0  0  0  0
  4  1  2  0  0  0  0
  5  4  1  0  0  0  0
  6  5  2  0  0  0  0
  6  9  1  0  0  0  0
  7  6  1  0  0  0  0
  8  7  1  0  0  0  0
  8 15  1  0  0  0  0
  9 10  2  0  0  0  0
 10  1  1  0  0  0  0
 10 17  1  0  0  0  0
 12  5  1  0  0  0  0
 13  8  1  0  0  0  0
 14  8  1  0  0  0  0
 16  9  1  0  0  0  0
 19 18  1  0  0  0  0
 20 19  2  0  0  0  0
 21 19  1  0  0  0  0
 21 24  1  0  0  0  0
 22 21  1  0  0  0  0
 23 21  1  0  0  0  0
M  RAD  3   2   2   3   3  18   2
M  END
