Coordinates from ORCA-job 4-MeOPhN2+~CF3COO-_B3LYPG-6-31G_dp-NX-Scan-d89-09-n800
 OpenBabel11261920413D

 24 23  0  0  0  0  0  0  0  0999 V2000
   -2.2977    1.8250   -1.3461 C   0  0  0  0  0  0  0  0  0  0  0  0
   -2.7859    2.7048   -2.2364 N   0  0  0  0  0  0  0  0  0  0  0  0
   -3.2163    3.4443   -2.9703 N   0  0  0  0  0  0  0  0  0  0  0  0
   -0.9484    1.3836   -1.4767 C   0  0  0  0  0  0  0  0  0  0  0  0
   -0.4877    0.4469   -0.5926 C   0  0  0  0  0  0  0  0  0  0  0  0
   -1.3492   -0.0782    0.4191 C   0  0  0  0  0  0  0  0  0  0  0  0
   -0.8281   -1.0214    1.1734 O   0  0  0  0  0  0  0  0  0  0  0  0
   -1.6655   -1.6907    2.1630 C   0  0  0  0  0  0  0  0  0  0  0  0
   -2.6713    0.4097    0.5657 C   0  0  0  0  0  0  0  0  0  0  0  0
   -3.1547    1.3378   -0.3198 C   0  0  0  0  0  0  0  0  0  0  0  0
   -0.3181    1.7789   -2.2656 H   0  0  0  0  0  0  0  0  0  0  0  0
    0.5241    0.0635   -0.6581 H   0  0  0  0  0  0  0  0  0  0  0  0
   -1.0569   -2.5211    2.5170 H   0  0  0  0  0  0  0  0  0  0  0  0
   -2.5995   -2.0278    1.6902 H   0  0  0  0  0  0  0  0  0  0  0  0
   -1.8728   -0.9984    2.9841 H   0  0  0  0  0  0  0  0  0  0  0  0
   -3.3968    0.0252    1.2905 H   0  0  0  0  0  0  0  0  0  0  0  0
   -4.1904    1.6516   -0.2431 H   0  0  0  0  0  0  0  0  0  0  0  0
   -4.2956   -2.1866    0.5488 O   0  0  0  0  0  0  0  0  0  0  0  0
   -5.2313   -1.3713    0.7045 C   0  0  0  0  0  0  0  0  0  0  0  0
   -5.2755   -0.3069    1.3704 O   0  0  0  0  0  0  0  0  0  0  0  0
   -6.5196   -1.6534   -0.1253 C   0  0  0  0  0  0  0  0  0  0  0  0
   -7.6483   -1.3871    0.5647 F   0  0  0  0  0  0  0  0  0  0  0  0
   -6.5296   -0.8468   -1.2272 F   0  0  0  0  0  0  0  0  0  0  0  0
   -6.6084   -2.9218   -0.5683 F   0  0  0  0  0  0  0  0  0  0  0  0
  1 10  1  0  0  0  0
  2  1  1  0  0  0  0
  3  2  1  0  0  0  0
  4  1  2  0  0  0  0
  4  5  1  0  0  0  0
  5  6  2  0  0  0  0
  6  9  1  0  0  0  0
  6  7  1  0  0  0  0
  7  8  1  0  0  0  0
  8 13  1  0  0  0  0
  8 15  1  0  0  0  0
  9 16  1  0  0  0  0
 10 17  1  0  0  0  0
 10  9  2  0  0  0  0
 11  4  1  0  0  0  0
 12  5  1  0  0  0  0
 14  8  1  0  0  0  0
 18 19  2  0  0  0  0
 19 20  1  0  0  0  0
 21 22  1  0  0  0  0
 21 19  1  0  0  0  0
 23 21  1  0  0  0  0
 24 21  1  0  0  0  0
M  RAD  3   2   2   3   3  20   2
M  END
