Coordinates from ORCA-job 4-MeOPhN2+~CF3COO-_B3LYPG-6-31G_dp-NX-Scan-d89-09-n800
 OpenBabel11261920413D

 24 23  0  0  0  0  0  0  0  0999 V2000
   -2.6265    0.2000   -1.1160 C   0  0  0  0  0  0  0  0  0  0  0  0
   -3.4050    0.3818   -2.2732 N   0  0  0  0  0  0  0  0  0  0  0  0
   -3.4796    0.8041   -3.3163 N   0  0  0  0  0  0  0  0  0  0  0  0
   -1.4512    0.9749   -1.0357 C   0  0  0  0  0  0  0  0  0  0  0  0
   -0.6310    0.8203    0.0619 C   0  0  0  0  0  0  0  0  0  0  0  0
   -0.9653   -0.1037    1.0758 C   0  0  0  0  0  0  0  0  0  0  0  0
   -0.0949   -0.1727    2.0999 O   0  0  0  0  0  0  0  0  0  0  0  0
   -0.3608   -1.0691    3.1792 C   0  0  0  0  0  0  0  0  0  0  0  0
   -2.1380   -0.8719    0.9698 C   0  0  0  0  0  0  0  0  0  0  0  0
   -2.9762   -0.7177   -0.1271 C   0  0  0  0  0  0  0  0  0  0  0  0
   -1.2088    1.6833   -1.8201 H   0  0  0  0  0  0  0  0  0  0  0  0
    0.2780    1.4012    0.1681 H   0  0  0  0  0  0  0  0  0  0  0  0
    0.4651   -0.9400    3.8789 H   0  0  0  0  0  0  0  0  0  0  0  0
   -0.3884   -2.1086    2.8335 H   0  0  0  0  0  0  0  0  0  0  0  0
   -1.3046   -0.8204    3.6772 H   0  0  0  0  0  0  0  0  0  0  0  0
   -2.4092   -1.5852    1.7377 H   0  0  0  0  0  0  0  0  0  0  0  0
   -3.8939   -1.2791   -0.2508 H   0  0  0  0  0  0  0  0  0  0  0  0
   -5.2568   -0.8134   -1.7245 O   0  0  0  0  0  0  0  0  0  0  0  0
   -5.9361    0.1693   -1.2734 C   0  0  0  0  0  0  0  0  0  0  0  0
   -5.5570    1.3124   -1.0093 O   0  0  0  0  0  0  0  0  0  0  0  0
   -7.4243   -0.2034   -1.0111 C   0  0  0  0  0  0  0  0  0  0  0  0
   -8.1659    0.8656   -0.6816 F   0  0  0  0  0  0  0  0  0  0  0  0
   -7.9882   -0.7787   -2.0924 F   0  0  0  0  0  0  0  0  0  0  0  0
   -7.5051   -1.0891    0.0114 F   0  0  0  0  0  0  0  0  0  0  0  0
  1  4  2  0  0  0  0
  1 10  1  0  0  0  0
  2  1  1  0  0  0  0
  3  2  2  0  0  0  0
  4  5  1  0  0  0  0
  5 12  1  0  0  0  0
  5  6  2  0  0  0  0
  6  7  1  0  0  0  0
  7  8  1  0  0  0  0
  8 15  1  0  0  0  0
  8 13  1  0  0  0  0
  9  6  1  0  0  0  0
  9 16  1  0  0  0  0
 10  9  2  0  0  0  0
 11  4  1  0  0  0  0
 14  8  1  0  0  0  0
 17 10  1  0  0  0  0
 18 19  2  0  0  0  0
 19 21  1  0  0  0  0
 19 20  1  0  0  0  0
 21 22  1  0  0  0  0
 21 24  1  0  0  0  0
 23 21  1  0  0  0  0
M  RAD  2   3   2  20   2
M  END
