Coordinates from ORCA-job 4-MeOPhN2+~CF3COO-_B3LYPG-6-31G_dp-NX-Scan-d89-09-n800
 OpenBabel11261920413D

 24 23  0  0  0  0  0  0  0  0999 V2000
   -1.9245    2.0906   -1.4376 C   0  0  0  0  0  0  0  0  0  0  0  0
   -2.2208    3.0891   -2.2852 N   0  0  0  0  0  0  0  0  0  0  0  0
   -2.4868    3.9296   -2.9891 N   0  0  0  0  0  0  0  0  0  0  0  0
   -0.5656    1.6791   -1.3029 C   0  0  0  0  0  0  0  0  0  0  0  0
   -0.2854    0.6556   -0.4409 C   0  0  0  0  0  0  0  0  0  0  0  0
   -1.3315    0.0208    0.2982 C   0  0  0  0  0  0  0  0  0  0  0  0
   -0.9454   -0.9569    1.0851 O   0  0  0  0  0  0  0  0  0  0  0  0
   -1.9292   -1.6748    1.8908 C   0  0  0  0  0  0  0  0  0  0  0  0
   -2.6804    0.4477    0.1645 C   0  0  0  0  0  0  0  0  0  0  0  0
   -2.9749    1.4681   -0.7025 C   0  0  0  0  0  0  0  0  0  0  0  0
    0.2134    2.1713   -1.8741 H   0  0  0  0  0  0  0  0  0  0  0  0
    0.7294    0.2999   -0.3037 H   0  0  0  0  0  0  0  0  0  0  0  0
   -1.3688   -2.4958    2.3342 H   0  0  0  0  0  0  0  0  0  0  0  0
   -2.7685   -2.0337    1.2722 H   0  0  0  0  0  0  0  0  0  0  0  0
   -2.3020   -1.0045    2.6704 H   0  0  0  0  0  0  0  0  0  0  0  0
   -3.5424   -0.0205    0.6861 H   0  0  0  0  0  0  0  0  0  0  0  0
   -4.0050    1.7862   -0.8274 H   0  0  0  0  0  0  0  0  0  0  0  0
   -4.5232   -2.5680    0.5379 O   0  0  0  0  0  0  0  0  0  0  0  0
   -5.3799   -1.6727    0.6840 C   0  0  0  0  0  0  0  0  0  0  0  0
   -5.2412   -0.4563    0.9798 O   0  0  0  0  0  0  0  0  0  0  0  0
   -6.8626   -2.0870    0.4440 C   0  0  0  0  0  0  0  0  0  0  0  0
   -7.6571   -1.7082    1.4714 F   0  0  0  0  0  0  0  0  0  0  0  0
   -7.3461   -1.4858   -0.6745 F   0  0  0  0  0  0  0  0  0  0  0  0
   -7.0254   -3.4137    0.2811 F   0  0  0  0  0  0  0  0  0  0  0  0
  1  4  2  0  0  0  0
  1 10  1  0  0  0  0
  2  1  1  0  0  0  0
  3  2  1  0  0  0  0
  4  5  1  0  0  0  0
  5 12  1  0  0  0  0
  5  6  2  0  0  0  0
  6  7  1  0  0  0  0
  7  8  1  0  0  0  0
  8 13  1  0  0  0  0
  8 15  1  0  0  0  0
  9  6  1  0  0  0  0
  9 16  1  0  0  0  0
 10  9  2  0  0  0  0
 11  4  1  0  0  0  0
 14  8  1  0  0  0  0
 17 10  1  0  0  0  0
 18 19  2  0  0  0  0
 19 20  1  0  0  0  0
 21 19  1  0  0  0  0
 21 22  1  0  0  0  0
 23 21  1  0  0  0  0
 24 21  1  0  0  0  0
M  RAD  3   2   2   3   3  20   2
M  END
