Coordinates from ORCA-job 4-MeOPhN2+~CF3COO-_B3LYPG-6-31G_dp-NX-Scan-d89-09-n800
 OpenBabel11261920413D

 24 23  0  0  0  0  0  0  0  0999 V2000
   -2.5782    0.4009   -1.0425 C   0  0  0  0  0  0  0  0  0  0  0  0
   -3.3808    0.6380   -2.1679 N   0  0  0  0  0  0  0  0  0  0  0  0
   -3.5104    0.9672   -3.2370 N   0  0  0  0  0  0  0  0  0  0  0  0
   -1.3473    1.0895   -1.0025 C   0  0  0  0  0  0  0  0  0  0  0  0
   -0.5056    0.8650    0.0657 C   0  0  0  0  0  0  0  0  0  0  0  0
   -0.8713   -0.0505    1.0784 C   0  0  0  0  0  0  0  0  0  0  0  0
    0.0250   -0.1919    2.0715 O   0  0  0  0  0  0  0  0  0  0  0  0
   -0.2607   -1.0922    3.1434 C   0  0  0  0  0  0  0  0  0  0  0  0
   -2.0953   -0.7382    1.0012 C   0  0  0  0  0  0  0  0  0  0  0  0
   -2.9652   -0.5081   -0.0576 C   0  0  0  0  0  0  0  0  0  0  0  0
   -1.0810    1.7859   -1.7904 H   0  0  0  0  0  0  0  0  0  0  0  0
    0.4442    1.3804    0.1493 H   0  0  0  0  0  0  0  0  0  0  0  0
    0.5954   -1.0296    3.8154 H   0  0  0  0  0  0  0  0  0  0  0  0
   -0.3667   -2.1200    2.7797 H   0  0  0  0  0  0  0  0  0  0  0  0
   -1.1693   -0.7944    3.6785 H   0  0  0  0  0  0  0  0  0  0  0  0
   -2.3837   -1.4510    1.7637 H   0  0  0  0  0  0  0  0  0  0  0  0
   -3.9210   -1.0349   -0.1596 H   0  0  0  0  0  0  0  0  0  0  0  0
   -5.6779   -1.5499   -0.6928 O   0  0  0  0  0  0  0  0  0  0  0  0
   -6.0743   -0.4388   -1.0674 C   0  0  0  0  0  0  0  0  0  0  0  0
   -5.4141    0.6015   -1.3782 O   0  0  0  0  0  0  0  0  0  0  0  0
   -7.6118   -0.2244   -1.2081 C   0  0  0  0  0  0  0  0  0  0  0  0
   -8.0195    0.8509   -0.5003 F   0  0  0  0  0  0  0  0  0  0  0  0
   -7.9408   -0.0103   -2.5018 F   0  0  0  0  0  0  0  0  0  0  0  0
   -8.3137   -1.2851   -0.7786 F   0  0  0  0  0  0  0  0  0  0  0  0
  1  4  2  0  0  0  0
  1 10  1  0  0  0  0
  2  1  1  0  0  0  0
  3  2  2  0  0  0  0
  4  5  1  0  0  0  0
  5 12  1  0  0  0  0
  5  6  2  0  0  0  0
  6  7  1  0  0  0  0
  7  8  1  0  0  0  0
  8 15  1  0  0  0  0
  8 13  1  0  0  0  0
  9  6  1  0  0  0  0
  9 16  1  0  0  0  0
 10  9  2  0  0  0  0
 11  4  1  0  0  0  0
 14  8  1  0  0  0  0
 17 10  1  0  0  0  0
 19 18  1  0  0  0  0
 20 19  2  0  0  0  0
 21 19  1  0  0  0  0
 21 24  1  0  0  0  0
 21 22  1  0  0  0  0
 23 21  1  0  0  0  0
M  RAD  2   3   2  18   2
M  END
