Coordinates from ORCA-job 4-MeOPhN2+~CF3COO-_B3LYPG-6-31G_dp-NX-Scan-d89-09-n800
 OpenBabel11261920413D

 24 23  0  0  0  0  0  0  0  0999 V2000
   -1.7348    2.2623   -1.4721 C   0  0  0  0  0  0  0  0  0  0  0  0
   -1.9035    3.3489   -2.2455 N   0  0  0  0  0  0  0  0  0  0  0  0
   -2.0333    4.2683   -2.8883 N   0  0  0  0  0  0  0  0  0  0  0  0
   -0.4038    1.8460   -1.1711 C   0  0  0  0  0  0  0  0  0  0  0  0
   -0.2364    0.7599   -0.3591 C   0  0  0  0  0  0  0  0  0  0  0  0
   -1.3674    0.0720    0.1804 C   0  0  0  0  0  0  0  0  0  0  0  0
   -1.0760   -0.9232    0.9835 O   0  0  0  0  0  0  0  0  0  0  0  0
   -2.1302   -1.6557    1.6792 C   0  0  0  0  0  0  0  0  0  0  0  0
   -2.6941    0.4744   -0.1472 C   0  0  0  0  0  0  0  0  0  0  0  0
   -2.8721    1.5633   -0.9651 C   0  0  0  0  0  0  0  0  0  0  0  0
    0.4422    2.3889   -1.5771 H   0  0  0  0  0  0  0  0  0  0  0  0
    0.7529    0.4051   -0.0939 H   0  0  0  0  0  0  0  0  0  0  0  0
   -1.5929   -2.3406    2.3329 H   0  0  0  0  0  0  0  0  0  0  0  0
   -2.7943   -2.1981    0.9927 H   0  0  0  0  0  0  0  0  0  0  0  0
   -2.7349   -0.9557    2.2596 H   0  0  0  0  0  0  0  0  0  0  0  0
   -3.5901   -0.0754    0.2237 H   0  0  0  0  0  0  0  0  0  0  0  0
   -3.8730    1.8909   -1.2265 H   0  0  0  0  0  0  0  0  0  0  0  0
   -4.6766   -2.9894    0.8003 O   0  0  0  0  0  0  0  0  0  0  0  0
   -5.4257   -1.9955    0.7431 C   0  0  0  0  0  0  0  0  0  0  0  0
   -5.1579   -0.7659    0.6524 O   0  0  0  0  0  0  0  0  0  0  0  0
   -6.9586   -2.2756    0.8013 C   0  0  0  0  0  0  0  0  0  0  0  0
   -7.5168   -1.6931    1.8911 F   0  0  0  0  0  0  0  0  0  0  0  0
   -7.5874   -1.7647   -0.2863 F   0  0  0  0  0  0  0  0  0  0  0  0
   -7.2590   -3.5871    0.8541 F   0  0  0  0  0  0  0  0  0  0  0  0
  1  4  2  0  0  0  0
  1 10  1  0  0  0  0
  2  1  1  0  0  0  0
  3  2  1  0  0  0  0
  4  5  1  0  0  0  0
  5 12  1  0  0  0  0
  5  6  2  0  0  0  0
  6  7  1  0  0  0  0
  7  8  1  0  0  0  0
  8 15  1  0  0  0  0
  8 13  1  0  0  0  0
  9  6  1  0  0  0  0
  9 16  1  0  0  0  0
 10  9  2  0  0  0  0
 11  4  1  0  0  0  0
 14  8  1  0  0  0  0
 17 10  1  0  0  0  0
 19 18  1  0  0  0  0
 19 21  1  0  0  0  0
 20 19  2  0  0  0  0
 21 24  1  0  0  0  0
 21 22  1  0  0  0  0
 23 21  1  0  0  0  0
M  RAD  3   2   2   3   3  18   2
M  END
