Coordinates from ORCA-job 4-MeOPhN2+~CF3COO-_B3LYPG-6-31G_dp-NX-Scan-d89-09-n800
 OpenBabel11261920413D

 24 24  0  0  0  0  0  0  0  0999 V2000
   -1.9156   -1.0062    0.5241 C   0  0  0  0  0  0  0  0  0  0  0  0
   -2.1070   -2.2389    1.1535 N   0  0  0  0  0  0  0  0  0  0  0  0
   -2.9650   -2.9750    1.4840 N   0  0  0  0  0  0  0  0  0  0  0  0
   -0.5720   -0.5987    0.4033 C   0  0  0  0  0  0  0  0  0  0  0  0
   -0.2628    0.6064   -0.1948 C   0  0  0  0  0  0  0  0  0  0  0  0
   -1.2949    1.4305   -0.6842 C   0  0  0  0  0  0  0  0  0  0  0  0
   -0.8953    2.5873   -1.2517 O   0  0  0  0  0  0  0  0  0  0  0  0
   -1.8781    3.4795   -1.7743 C   0  0  0  0  0  0  0  0  0  0  0  0
   -2.6363    1.0249   -0.5624 C   0  0  0  0  0  0  0  0  0  0  0  0
   -2.9528   -0.1878    0.0367 C   0  0  0  0  0  0  0  0  0  0  0  0
    0.2080   -1.2463    0.7881 H   0  0  0  0  0  0  0  0  0  0  0  0
    0.7631    0.9415   -0.2994 H   0  0  0  0  0  0  0  0  0  0  0  0
   -1.3240    4.3312   -2.1686 H   0  0  0  0  0  0  0  0  0  0  0  0
   -2.5628    3.8212   -0.9901 H   0  0  0  0  0  0  0  0  0  0  0  0
   -2.4501    3.0113   -2.5835 H   0  0  0  0  0  0  0  0  0  0  0  0
   -3.4400    1.6480   -0.9341 H   0  0  0  0  0  0  0  0  0  0  0  0
   -3.9811   -0.5064    0.1350 H   0  0  0  0  0  0  0  0  0  0  0  0
   -4.5165   -2.3753    0.9696 O   0  0  0  0  0  0  0  0  0  0  0  0
   -5.5066   -2.8792    1.6711 C   0  0  0  0  0  0  0  0  0  0  0  0
   -5.4828   -3.5951    2.6449 O   0  0  0  0  0  0  0  0  0  0  0  0
   -6.8547   -2.4131    1.0492 C   0  0  0  0  0  0  0  0  0  0  0  0
   -7.8768   -2.6530    1.8757 F   0  0  0  0  0  0  0  0  0  0  0  0
   -6.8343   -1.0864    0.7808 F   0  0  0  0  0  0  0  0  0  0  0  0
   -7.0855   -3.0604   -0.1110 F   0  0  0  0  0  0  0  0  0  0  0  0
  1  2  1  0  0  0  0
  2  3  1  0  0  0  0
  4  1  1  0  0  0  0
  4 11  1  0  0  0  0
  5  4  2  0  0  0  0
  6  9  2  0  0  0  0
  6  5  1  0  0  0  0
  7  6  1  0  0  0  0
  8  7  1  0  0  0  0
  8 14  1  0  0  0  0
  9 10  1  0  0  0  0
 10 17  1  0  0  0  0
 10  1  2  0  0  0  0
 12  5  1  0  0  0  0
 13  8  1  0  0  0  0
 15  8  1  0  0  0  0
 16  9  1  0  0  0  0
 18  3  1  0  0  0  0
 18 19  1  0  0  0  0
 19 20  2  0  0  0  0
 21 19  1  0  0  0  0
 21 22  1  0  0  0  0
 23 21  1  0  0  0  0
 24 21  1  0  0  0  0
M  RAD  2   2   2   3   2
M  END
