Coordinates from ORCA-job 4-MeOPhN2+~Cl-_B3LYPG-6-31G_dp-NX-Scan-d89-09-n800
 OpenBabel11261920533D

 18 18  0  0  1  0  0  0  0  0999 V2000
   -1.5469    1.0659   -0.4993 C   0  0  0  0  0  0  0  0  0  0  0  0
   -2.6252    1.7649   -0.7988 N   0  0  0  0  0  0  0  0  0  0  0  0
   -3.5774    2.3259   -1.0641 N   0  0  0  0  0  0  0  0  0  0  0  0
   -0.4214    1.7155    0.1111 C   0  0  0  0  0  0  0  0  0  0  0  0
    0.6836    0.9825    0.3947 C   0  0  0  0  0  0  0  0  0  0  0  0
    0.7245   -0.4230    0.0576 C   0  0  0  0  0  0  0  0  0  0  0  0
    1.9294   -0.9888    0.3045 O   0  0  0  0  0  0  0  0  0  0  0  0
    2.0810   -2.3838    0.0634 C   0  0  0  0  0  0  0  0  0  0  0  0
   -0.3532   -1.0674   -0.4860 C   0  0  0  0  0  0  0  0  0  0  0  0
   -1.6269   -0.3922   -0.6416 C   0  0  1  0  0  0  0  0  0  0  0  0
   -0.4754    2.7761    0.3313 H   0  0  0  0  0  0  0  0  0  0  0  0
    1.5610    1.4229    0.8531 H   0  0  0  0  0  0  0  0  0  0  0  0
    3.0969   -2.6324    0.3714 H   0  0  0  0  0  0  0  0  0  0  0  0
    1.9543   -2.6191   -1.0004 H   0  0  0  0  0  0  0  0  0  0  0  0
    1.3638   -2.9669    0.6518 H   0  0  0  0  0  0  0  0  0  0  0  0
   -0.3171   -2.1162   -0.7472 H   0  0  0  0  0  0  0  0  0  0  0  0
   -2.2521   -0.7451   -1.4547 H   0  0  0  0  0  0  0  0  0  0  0  0
   -2.9536   -1.0697    0.8422 Cl  0  0  0  0  0  0  0  0  0  0  0  0
  1  4  2  0  0  0  0
  2  1  1  0  0  0  0
  3  2  1  0  0  0  0
  4 11  1  0  0  0  0
  4  5  1  0  0  0  0
  5 12  1  0  0  0  0
  6  7  1  0  0  0  0
  6  5  1  0  0  0  0
  8  7  1  0  0  0  0
  8 13  1  0  0  0  0
  8 15  1  0  0  0  0
  9  6  2  0  0  0  0
 10 17  1  6  0  0  0
 10  1  1  0  0  0  0
 10  9  1  0  0  0  0
 10 18  1  0  0  0  0
 14  8  1  0  0  0  0
 16  9  1  0  0  0  0
M  RAD  3   2   2   3   3   5   2
M  END
