Coordinates from ORCA-job 4-MeOPhN2+~Cl-_B3LYPG-6-31G_dp-NX-Scan-d89-09-n800
 OpenBabel11261920533D

 18 18  0  0  1  0  0  0  0  0999 V2000
   -1.5537    1.0620   -0.4929 C   0  0  0  0  0  0  0  0  0  0  0  0
   -2.6171    1.7706   -0.8220 N   0  0  0  0  0  0  0  0  0  0  0  0
   -3.5467    2.3548   -1.1178 N   0  0  0  0  0  0  0  0  0  0  0  0
   -0.4292    1.7120    0.1206 C   0  0  0  0  0  0  0  0  0  0  0  0
    0.6762    0.9798    0.4038 C   0  0  0  0  0  0  0  0  0  0  0  0
    0.7207   -0.4242    0.0605 C   0  0  0  0  0  0  0  0  0  0  0  0
    1.9279   -0.9875    0.3025 O   0  0  0  0  0  0  0  0  0  0  0  0
    2.0830   -2.3808    0.0544 C   0  0  0  0  0  0  0  0  0  0  0  0
   -0.3566   -1.0690   -0.4826 C   0  0  0  0  0  0  0  0  0  0  0  0
   -1.6336   -0.3967   -0.6280 C   0  0  1  0  0  0  0  0  0  0  0  0
   -0.4838    2.7726    0.3409 H   0  0  0  0  0  0  0  0  0  0  0  0
    1.5525    1.4204    0.8643 H   0  0  0  0  0  0  0  0  0  0  0  0
    3.1005   -2.6278    0.3583 H   0  0  0  0  0  0  0  0  0  0  0  0
    1.9539   -2.6115   -1.0101 H   0  0  0  0  0  0  0  0  0  0  0  0
    1.3693   -2.9688    0.6422 H   0  0  0  0  0  0  0  0  0  0  0  0
   -0.3199   -2.1175   -0.7449 H   0  0  0  0  0  0  0  0  0  0  0  0
   -2.2657   -0.7525   -1.4344 H   0  0  0  0  0  0  0  0  0  0  0  0
   -2.9322   -1.0869    0.8744 Cl  0  0  0  0  0  0  0  0  0  0  0  0
  1  4  2  0  0  0  0
  2  1  1  0  0  0  0
  3  2  1  0  0  0  0
  4 11  1  0  0  0  0
  4  5  1  0  0  0  0
  5 12  1  0  0  0  0
  6  7  1  0  0  0  0
  6  5  1  0  0  0  0
  8  7  1  0  0  0  0
  8 13  1  0  0  0  0
  8 15  1  0  0  0  0
  9  6  2  0  0  0  0
 10 17  1  6  0  0  0
 10  1  1  0  0  0  0
 10  9  1  0  0  0  0
 10 18  1  0  0  0  0
 14  8  1  0  0  0  0
 16  9  1  0  0  0  0
M  RAD  3   2   2   3   3   5   2
M  END
