Coordinates from ORCA-job 4-MeOPhN2+~Cl-_B3LYPG-6-31G_dp-NX-Scan-d89-09-n800
 OpenBabel11261920533D

 18 18  0  0  1  0  0  0  0  0999 V2000
   -1.5982    1.0419   -0.4521 C   0  0  0  0  0  0  0  0  0  0  0  0
   -2.5478    1.8050   -0.9735 N   0  0  0  0  0  0  0  0  0  0  0  0
   -3.3049    2.5127   -1.4469 N   0  0  0  0  0  0  0  0  0  0  0  0
   -0.4805    1.6962    0.1801 C   0  0  0  0  0  0  0  0  0  0  0  0
    0.6302    0.9688    0.4535 C   0  0  0  0  0  0  0  0  0  0  0  0
    0.6973   -0.4222    0.0704 C   0  0  0  0  0  0  0  0  0  0  0  0
    1.9141   -0.9737    0.2855 O   0  0  0  0  0  0  0  0  0  0  0  0
    2.0859   -2.3588    0.0006 C   0  0  0  0  0  0  0  0  0  0  0  0
   -0.3810   -1.0689   -0.4723 C   0  0  0  0  0  0  0  0  0  0  0  0
   -1.6650   -0.4137   -0.5625 C   0  0  1  0  0  0  0  0  0  0  0  0
   -0.5409    2.7551    0.4065 H   0  0  0  0  0  0  0  0  0  0  0  0
    1.4987    1.4100    0.9286 H   0  0  0  0  0  0  0  0  0  0  0  0
    3.1115   -2.5973    0.2833 H   0  0  0  0  0  0  0  0  0  0  0  0
    1.9440   -2.5645   -1.0674 H   0  0  0  0  0  0  0  0  0  0  0  0
    1.3901   -2.9711    0.5848 H   0  0  0  0  0  0  0  0  0  0  0  0
   -0.3428   -2.1170   -0.7355 H   0  0  0  0  0  0  0  0  0  0  0  0
   -2.3645   -0.7998   -1.2939 H   0  0  0  0  0  0  0  0  0  0  0  0
   -2.8008   -1.2538    1.1000 Cl  0  0  0  0  0  0  0  0  0  0  0  0
  1  4  2  0  0  0  0
  2  1  1  0  0  0  0
  3  2  1  0  0  0  0
  4 11  1  0  0  0  0
  4  5  1  0  0  0  0
  5 12  1  0  0  0  0
  6  7  1  0  0  0  0
  6  5  1  0  0  0  0
  8 13  1  0  0  0  0
  8  7  1  0  0  0  0
  8 15  1  0  0  0  0
  9  6  2  0  0  0  0
 10 17  1  6  0  0  0
 10  9  1  0  0  0  0
 10  1  1  0  0  0  0
 10 18  1  0  0  0  0
 14  8  1  0  0  0  0
 16  9  1  0  0  0  0
M  RAD  3   2   2   3   3   5   2
M  END
