Coordinates from ORCA-job 4-MeOPhN2+~Cl-_B3LYPG-6-31G_dp-NX-Scan-d89-09-n800
 OpenBabel11261920533D

 18 17  0  0  0  0  0  0  0  0999 V2000
   -1.4722    1.2887   -0.4538 C   0  0  0  0  0  0  0  0  0  0  0  0
   -2.5683    2.0418   -0.6656 N   0  0  0  0  0  0  0  0  0  0  0  0
   -3.5048    2.6442   -0.8460 N   0  0  0  0  0  0  0  0  0  0  0  0
   -0.2434    1.9293   -0.1165 C   0  0  0  0  0  0  0  0  0  0  0  0
    0.8538    1.1402    0.1128 C   0  0  0  0  0  0  0  0  0  0  0  0
    0.7529   -0.2775    0.0102 C   0  0  0  0  0  0  0  0  0  0  0  0
    1.8637   -0.9571    0.2711 O   0  0  0  0  0  0  0  0  0  0  0  0
    1.8265   -2.4022    0.1925 C   0  0  0  0  0  0  0  0  0  0  0  0
   -0.4676   -0.8925   -0.3336 C   0  0  0  0  0  0  0  0  0  0  0  0
   -1.5841   -0.1244   -0.5552 C   0  0  0  0  0  0  0  0  0  0  0  0
   -0.1932    3.0095   -0.0369 H   0  0  0  0  0  0  0  0  0  0  0  0
    1.8097    1.5759    0.3811 H   0  0  0  0  0  0  0  0  0  0  0  0
    2.8015   -2.7293    0.5502 H   0  0  0  0  0  0  0  0  0  0  0  0
    1.6753   -2.7178   -0.8429 H   0  0  0  0  0  0  0  0  0  0  0  0
    1.0247   -2.8101    0.8128 H   0  0  0  0  0  0  0  0  0  0  0  0
   -0.6594   -1.9827   -0.3562 H   0  0  0  0  0  0  0  0  0  0  0  0
   -2.5213   -0.6321   -0.7694 H   0  0  0  0  0  0  0  0  0  0  0  0
   -2.1484   -3.4549   -0.0656 Cl  0  0  0  0  0  0  0  0  0  0  0  0
  1  4  1  0  0  0  0
  2  1  1  0  0  0  0
  3  2  1  0  0  0  0
  4 11  1  0  0  0  0
  4  5  2  0  0  0  0
  5 12  1  0  0  0  0
  6  5  1  0  0  0  0
  6  7  1  0  0  0  0
  8  7  1  0  0  0  0
  8 13  1  0  0  0  0
  8 15  1  0  0  0  0
  9  6  2  0  0  0  0
 10  1  2  0  0  0  0
 10  9  1  0  0  0  0
 14  8  1  0  0  0  0
 16  9  1  0  0  0  0
 17 10  1  0  0  0  0
M  RAD  3   2   2   3   3  18   2
M  END
