Coordinates from ORCA-job 4-MeOPhN2+~Cl-_B3LYPG-6-31G_dp-NX-Scan-d89-09-n800
 OpenBabel11261920533D

 18 17  0  0  0  0  0  0  0  0999 V2000
   -1.4846   -0.0184   -0.0415 C   0  0  0  0  0  0  0  0  0  0  0  0
   -2.8463   -0.0455    0.0543 N   0  0  0  0  0  0  0  0  0  0  0  0
   -3.9620   -0.0639    0.1332 N   0  0  0  0  0  0  0  0  0  0  0  0
   -0.8239    1.2348   -0.0004 C   0  0  0  0  0  0  0  0  0  0  0  0
    0.5446    1.2432   -0.0976 C   0  0  0  0  0  0  0  0  0  0  0  0
    1.2659    0.0271   -0.2347 C   0  0  0  0  0  0  0  0  0  0  0  0
    2.5815    0.1589   -0.3184 O   0  0  0  0  0  0  0  0  0  0  0  0
    3.4291   -0.9978   -0.4582 C   0  0  0  0  0  0  0  0  0  0  0  0
    0.5811   -1.2132   -0.2736 C   0  0  0  0  0  0  0  0  0  0  0  0
   -0.7937   -1.2420   -0.1774 C   0  0  0  0  0  0  0  0  0  0  0  0
   -1.3909    2.1549    0.1055 H   0  0  0  0  0  0  0  0  0  0  0  0
    1.1021    2.1734   -0.0714 H   0  0  0  0  0  0  0  0  0  0  0  0
    4.4433   -0.6050   -0.4979 H   0  0  0  0  0  0  0  0  0  0  0  0
    3.2013   -1.5317   -1.3855 H   0  0  0  0  0  0  0  0  0  0  0  0
    3.3202   -1.6606    0.4052 H   0  0  0  0  0  0  0  0  0  0  0  0
    1.1224   -2.1462   -0.3785 H   0  0  0  0  0  0  0  0  0  0  0  0
   -1.3384   -2.1817   -0.2050 H   0  0  0  0  0  0  0  0  0  0  0  0
  -11.7064   -0.6374    0.7311 Cl  0  0  0  0  0  0  0  0  0  0  0  0
  1  4  1  0  0  0  0
  1  2  1  0  0  0  0
  2  3  1  0  0  0  0
  4 11  1  0  0  0  0
  5 12  1  0  0  0  0
  5  4  2  0  0  0  0
  6  5  1  0  0  0  0
  7  6  1  0  0  0  0
  8  7  1  0  0  0  0
  8 15  1  0  0  0  0
  9  6  2  0  0  0  0
  9 10  1  0  0  0  0
 10  1  2  0  0  0  0
 13  8  1  0  0  0  0
 14  8  1  0  0  0  0
 16  9  1  0  0  0  0
 17 10  1  0  0  0  0
M  RAD  3   2   2   3   3  18   2
M  END
