Coordinates from ORCA-job 4-MeOPhN2+~Cl-_B3LYPG-6-31G_dp-NX-Scan-d89-09-n800
 OpenBabel11261920443D

 18 17  0  0  0  0  0  0  0  0999 V2000
   -1.4686   -0.0301   -0.0413 C   0  0  0  0  0  0  0  0  0  0  0  0
   -2.8306   -0.0623    0.0555 N   0  0  0  0  0  0  0  0  0  0  0  0
   -3.9463   -0.0852    0.1351 N   0  0  0  0  0  0  0  0  0  0  0  0
   -0.8124    1.2254   -0.0005 C   0  0  0  0  0  0  0  0  0  0  0  0
    0.5559    1.2386   -0.0985 C   0  0  0  0  0  0  0  0  0  0  0  0
    1.2815    0.0250   -0.2361 C   0  0  0  0  0  0  0  0  0  0  0  0
    2.5965    0.1613   -0.3204 O   0  0  0  0  0  0  0  0  0  0  0  0
    3.4481   -0.9925   -0.4606 C   0  0  0  0  0  0  0  0  0  0  0  0
    0.6010   -1.2178   -0.2746 C   0  0  0  0  0  0  0  0  0  0  0  0
   -0.7735   -1.2513   -0.1776 C   0  0  0  0  0  0  0  0  0  0  0  0
   -1.3827    2.1439    0.1057 H   0  0  0  0  0  0  0  0  0  0  0  0
    1.1101    2.1710   -0.0726 H   0  0  0  0  0  0  0  0  0  0  0  0
    4.4610   -0.5962   -0.5006 H   0  0  0  0  0  0  0  0  0  0  0  0
    3.2218   -1.5273   -1.3878 H   0  0  0  0  0  0  0  0  0  0  0  0
    3.3418   -1.6557    0.4029 H   0  0  0  0  0  0  0  0  0  0  0  0
    1.1453   -2.1492   -0.3798 H   0  0  0  0  0  0  0  0  0  0  0  0
   -1.3151   -2.1934   -0.2049 H   0  0  0  0  0  0  0  0  0  0  0  0
  -11.9885   -0.5553    0.7450 Cl  0  0  0  0  0  0  0  0  0  0  0  0
  1  4  1  0  0  0  0
  1  2  1  0  0  0  0
  2  3  1  0  0  0  0
  4 11  1  0  0  0  0
  5 12  1  0  0  0  0
  5  4  2  0  0  0  0
  6  5  1  0  0  0  0
  7  6  1  0  0  0  0
  8  7  1  0  0  0  0
  8 15  1  0  0  0  0
  9  6  2  0  0  0  0
  9 10  1  0  0  0  0
 10  1  2  0  0  0  0
 13  8  1  0  0  0  0
 14  8  1  0  0  0  0
 16  9  1  0  0  0  0
 17 10  1  0  0  0  0
M  RAD  3   2   2   3   3  18   2
M  END
