Coordinates from ORCA-job 4-MeOPhN2+~Cl-_B3LYPG-6-31G_dp-NX-Scan-d89-09-n800
 OpenBabel11261920533D

 18 18  0  0  1  0  0  0  0  0999 V2000
   -1.5897    1.0445   -0.4591 C   0  0  0  0  0  0  0  0  0  0  0  0
   -2.5624    1.7972   -0.9467 N   0  0  0  0  0  0  0  0  0  0  0  0
   -3.3560    2.4831   -1.3908 N   0  0  0  0  0  0  0  0  0  0  0  0
   -0.4709    1.6978    0.1702 C   0  0  0  0  0  0  0  0  0  0  0  0
    0.6379    0.9692    0.4475 C   0  0  0  0  0  0  0  0  0  0  0  0
    0.7009   -0.4249    0.0715 C   0  0  0  0  0  0  0  0  0  0  0  0
    1.9173   -0.9773    0.2898 O   0  0  0  0  0  0  0  0  0  0  0  0
    2.0876   -2.3629    0.0084 C   0  0  0  0  0  0  0  0  0  0  0  0
   -0.3766   -1.0715   -0.4704 C   0  0  0  0  0  0  0  0  0  0  0  0
   -1.6626   -0.4135   -0.5677 C   0  0  1  0  0  0  0  0  0  0  0  0
   -0.5298    2.7573    0.3942 H   0  0  0  0  0  0  0  0  0  0  0  0
    1.5078    1.4101    0.9200 H   0  0  0  0  0  0  0  0  0  0  0  0
    3.1125   -2.6024    0.2929 H   0  0  0  0  0  0  0  0  0  0  0  0
    1.9468   -2.5711   -1.0592 H   0  0  0  0  0  0  0  0  0  0  0  0
    1.3901   -2.9732    0.5928 H   0  0  0  0  0  0  0  0  0  0  0  0
   -0.3380   -2.1192   -0.7355 H   0  0  0  0  0  0  0  0  0  0  0  0
   -2.3437   -0.7909   -1.3215 H   0  0  0  0  0  0  0  0  0  0  0  0
   -2.8258   -1.2033    1.0528 Cl  0  0  0  0  0  0  0  0  0  0  0  0
  1  4  2  0  0  0  0
  2  1  1  0  0  0  0
  3  2  1  0  0  0  0
  4 11  1  0  0  0  0
  4  5  1  0  0  0  0
  5 12  1  0  0  0  0
  6  7  1  0  0  0  0
  6  5  1  0  0  0  0
  8  7  1  0  0  0  0
  8 13  1  0  0  0  0
  8 15  1  0  0  0  0
  9  6  2  0  0  0  0
 10 17  1  6  0  0  0
 10  9  1  0  0  0  0
 10  1  1  0  0  0  0
 10 18  1  0  0  0  0
 14  8  1  0  0  0  0
 16  9  1  0  0  0  0
M  RAD  3   2   2   3   3   5   2
M  END
