Coordinates from ORCA-job 4-MeOPhN2+~Cl-_B3LYPG-6-31G_dp-NX-Scan-d89-09-n800
 OpenBabel11261920533D

 18 17  0  0  0  0  0  0  0  0999 V2000
   -1.4797   -0.0224   -0.0415 C   0  0  0  0  0  0  0  0  0  0  0  0
   -2.8415   -0.0512    0.0548 N   0  0  0  0  0  0  0  0  0  0  0  0
   -3.9571   -0.0711    0.1339 N   0  0  0  0  0  0  0  0  0  0  0  0
   -0.8205    1.2316   -0.0005 C   0  0  0  0  0  0  0  0  0  0  0  0
    0.5480    1.2417   -0.0979 C   0  0  0  0  0  0  0  0  0  0  0  0
    1.2707    0.0264   -0.2352 C   0  0  0  0  0  0  0  0  0  0  0  0
    2.5862    0.1597   -0.3190 O   0  0  0  0  0  0  0  0  0  0  0  0
    3.4351   -0.9960   -0.4589 C   0  0  0  0  0  0  0  0  0  0  0  0
    0.5874   -1.2148   -0.2740 C   0  0  0  0  0  0  0  0  0  0  0  0
   -0.7873   -1.2451   -0.1775 C   0  0  0  0  0  0  0  0  0  0  0  0
   -1.3886    2.1512    0.1055 H   0  0  0  0  0  0  0  0  0  0  0  0
    1.1044    2.1726   -0.0718 H   0  0  0  0  0  0  0  0  0  0  0  0
    4.4489   -0.6020   -0.4987 H   0  0  0  0  0  0  0  0  0  0  0  0
    3.2079   -1.5302   -1.3862 H   0  0  0  0  0  0  0  0  0  0  0  0
    3.3270   -1.6589    0.4045 H   0  0  0  0  0  0  0  0  0  0  0  0
    1.1297   -2.1472   -0.3790 H   0  0  0  0  0  0  0  0  0  0  0  0
   -1.3310   -2.1857   -0.2051 H   0  0  0  0  0  0  0  0  0  0  0  0
  -11.7943   -0.6096    0.7355 Cl  0  0  0  0  0  0  0  0  0  0  0  0
  1  4  1  0  0  0  0
  1  2  1  0  0  0  0
  2  3  1  0  0  0  0
  4 11  1  0  0  0  0
  5 12  1  0  0  0  0
  5  4  2  0  0  0  0
  6  5  1  0  0  0  0
  7  6  1  0  0  0  0
  8  7  1  0  0  0  0
  8 15  1  0  0  0  0
  9  6  2  0  0  0  0
  9 10  1  0  0  0  0
 10  1  2  0  0  0  0
 13  8  1  0  0  0  0
 14  8  1  0  0  0  0
 16  9  1  0  0  0  0
 17 10  1  0  0  0  0
M  RAD  3   2   2   3   3  18   2
M  END
