Coordinates from ORCA-job 4-MeOPhN2+~Cl-_B3LYPG-6-31G_dp-NX-Scan-d89-09-n800
 OpenBabel11261920533D

 18 18  0  0  0  0  0  0  0  0999 V2000
   -1.5560    0.9235   -0.4496 C   0  0  0  0  0  0  0  0  0  0  0  0
   -2.6710    1.7632   -0.7654 N   0  0  0  0  0  0  0  0  0  0  0  0
   -3.8756    1.4272   -0.5027 N   0  0  0  0  0  0  0  0  0  0  0  0
   -0.4067    1.6352   -0.0495 C   0  0  0  0  0  0  0  0  0  0  0  0
    0.7868    0.9868    0.2138 C   0  0  0  0  0  0  0  0  0  0  0  0
    0.8848   -0.4032    0.0344 C   0  0  0  0  0  0  0  0  0  0  0  0
    2.1002   -0.9508    0.3073 O   0  0  0  0  0  0  0  0  0  0  0  0
    2.2643   -2.3514    0.1409 C   0  0  0  0  0  0  0  0  0  0  0  0
   -0.2314   -1.1212   -0.4133 C   0  0  0  0  0  0  0  0  0  0  0  0
   -1.4420   -0.4641   -0.6406 C   0  0  0  0  0  0  0  0  0  0  0  0
   -0.4852    2.7131    0.0527 H   0  0  0  0  0  0  0  0  0  0  0  0
    1.6666    1.5314    0.5402 H   0  0  0  0  0  0  0  0  0  0  0  0
    3.2965   -2.5681    0.4187 H   0  0  0  0  0  0  0  0  0  0  0  0
    2.0988   -2.6570   -0.9001 H   0  0  0  0  0  0  0  0  0  0  0  0
    1.5881   -2.9175    0.7934 H   0  0  0  0  0  0  0  0  0  0  0  0
   -0.1738   -2.1892   -0.5872 H   0  0  0  0  0  0  0  0  0  0  0  0
   -2.2789   -1.0481   -1.0032 H   0  0  0  0  0  0  0  0  0  0  0  0
   -4.3199    0.3392    0.0995 Cl  0  0  0  0  0  0  0  0  0  0  0  0
  1  4  1  0  0  0  0
  2  3  2  0  0  0  0
  2  1  1  0  0  0  0
  3 18  1  0  0  0  0
  4 11  1  0  0  0  0
  4  5  2  0  0  0  0
  5 12  1  0  0  0  0
  6  5  1  0  0  0  0
  6  7  1  0  0  0  0
  8  7  1  0  0  0  0
  8 13  1  0  0  0  0
  8 15  1  0  0  0  0
  9  6  2  0  0  0  0
 10  1  2  0  0  0  0
 10  9  1  0  0  0  0
 14  8  1  0  0  0  0
 16  9  1  0  0  0  0
 17 10  1  0  0  0  0
M  END
