Coordinates from ORCA-job 4-MeOPhN2+~Cl-_B3LYPG-6-31G_dp-NX-Scan-d89-09-n800
 OpenBabel11261920533D

 18 18  0  0  1  0  0  0  0  0999 V2000
   -1.5236    1.0807   -0.5198 C   0  0  0  0  0  0  0  0  0  0  0  0
   -2.6468    1.7437   -0.7221 N   0  0  0  0  0  0  0  0  0  0  0  0
   -3.6691    2.2093   -0.8841 N   0  0  0  0  0  0  0  0  0  0  0  0
   -0.3947    1.7286    0.0800 C   0  0  0  0  0  0  0  0  0  0  0  0
    0.7091    0.9927    0.3640 C   0  0  0  0  0  0  0  0  0  0  0  0
    0.7370   -0.4172    0.0471 C   0  0  0  0  0  0  0  0  0  0  0  0
    1.9331   -0.9926    0.3105 O   0  0  0  0  0  0  0  0  0  0  0  0
    2.0721   -2.3930    0.0928 C   0  0  0  0  0  0  0  0  0  0  0  0
   -0.3426   -1.0594   -0.4992 C   0  0  0  0  0  0  0  0  0  0  0  0
   -1.6023   -0.3738   -0.6894 C   0  0  1  0  0  0  0  0  0  0  0  0
   -0.4466    2.7891    0.3014 H   0  0  0  0  0  0  0  0  0  0  0  0
    1.5904    1.4316    0.8161 H   0  0  0  0  0  0  0  0  0  0  0  0
    3.0820   -2.6472    0.4153 H   0  0  0  0  0  0  0  0  0  0  0  0
    1.9540   -2.6435   -0.9683 H   0  0  0  0  0  0  0  0  0  0  0  0
    1.3424   -2.9588    0.6826 H   0  0  0  0  0  0  0  0  0  0  0  0
   -0.3087   -2.1092   -0.7566 H   0  0  0  0  0  0  0  0  0  0  0  0
   -2.2097   -0.7191   -1.5187 H   0  0  0  0  0  0  0  0  0  0  0  0
   -3.0306   -1.0131    0.7375 Cl  0  0  0  0  0  0  0  0  0  0  0  0
  1  4  2  0  0  0  0
  2  1  1  0  0  0  0
  3  2  1  0  0  0  0
  4 11  1  0  0  0  0
  4  5  1  0  0  0  0
  5 12  1  0  0  0  0
  6  7  1  0  0  0  0
  6  5  1  0  0  0  0
  8  7  1  0  0  0  0
  8 13  1  0  0  0  0
  8 15  1  0  0  0  0
  9  6  2  0  0  0  0
 10 17  1  6  0  0  0
 10  1  1  0  0  0  0
 10  9  1  0  0  0  0
 10 18  1  0  0  0  0
 14  8  1  0  0  0  0
 16  9  1  0  0  0  0
M  RAD  3   2   2   3   3   5   2
M  END
