Coordinates from ORCA-job 4-MeOPhN2+~Cl-_B3LYPG-6-31G_dp-NX-Scan-d89-09-n800
 OpenBabel11261920533D

 18 17  0  0  0  0  0  0  0  0999 V2000
   -1.4821    1.2620   -0.4424 C   0  0  0  0  0  0  0  0  0  0  0  0
   -2.5717    2.0224   -0.6701 N   0  0  0  0  0  0  0  0  0  0  0  0
   -3.4807    2.6637   -0.8576 N   0  0  0  0  0  0  0  0  0  0  0  0
   -0.2543    1.9151   -0.1208 C   0  0  0  0  0  0  0  0  0  0  0  0
    0.8506    1.1376    0.1074 C   0  0  0  0  0  0  0  0  0  0  0  0
    0.7612   -0.2814    0.0199 C   0  0  0  0  0  0  0  0  0  0  0  0
    1.8886   -0.9447    0.2641 O   0  0  0  0  0  0  0  0  0  0  0  0
    1.8691   -2.3875    0.2044 C   0  0  0  0  0  0  0  0  0  0  0  0
   -0.4591   -0.9084   -0.2958 C   0  0  0  0  0  0  0  0  0  0  0  0
   -1.5866   -0.1526   -0.5235 C   0  0  0  0  0  0  0  0  0  0  0  0
   -0.2110    2.9966   -0.0545 H   0  0  0  0  0  0  0  0  0  0  0  0
    1.8058    1.5838    0.3605 H   0  0  0  0  0  0  0  0  0  0  0  0
    2.8718   -2.6974    0.4949 H   0  0  0  0  0  0  0  0  0  0  0  0
    1.6468   -2.7244   -0.8115 H   0  0  0  0  0  0  0  0  0  0  0  0
    1.1251   -2.7964    0.8922 H   0  0  0  0  0  0  0  0  0  0  0  0
   -0.6394   -1.9940   -0.3242 H   0  0  0  0  0  0  0  0  0  0  0  0
   -2.5133   -0.6857   -0.7305 H   0  0  0  0  0  0  0  0  0  0  0  0
   -2.3754   -3.3596   -0.2236 Cl  0  0  0  0  0  0  0  0  0  0  0  0
  1  4  1  0  0  0  0
  2  1  1  0  0  0  0
  3  2  1  0  0  0  0
  4 11  1  0  0  0  0
  4  5  2  0  0  0  0
  5 12  1  0  0  0  0
  6  5  1  0  0  0  0
  6  7  1  0  0  0  0
  8  7  1  0  0  0  0
  8 13  1  0  0  0  0
  8 15  1  0  0  0  0
  9  6  2  0  0  0  0
 10  1  2  0  0  0  0
 10  9  1  0  0  0  0
 14  8  1  0  0  0  0
 16  9  1  0  0  0  0
 17 10  1  0  0  0  0
M  RAD  3   2   2   3   3  18   2
M  END
