Coordinates from ORCA-job 4-MeOPhN2+~Cl-_B3LYPG-6-31G_dp-NX-Scan-d89-09-n800
 OpenBabel11261920533D

 18 17  0  0  0  0  0  0  0  0999 V2000
   -1.4856    1.2290   -0.4378 C   0  0  0  0  0  0  0  0  0  0  0  0
   -2.5801    1.9823   -0.6722 N   0  0  0  0  0  0  0  0  0  0  0  0
   -3.4843    2.6290   -0.8613 N   0  0  0  0  0  0  0  0  0  0  0  0
   -0.2646    1.8969   -0.1182 C   0  0  0  0  0  0  0  0  0  0  0  0
    0.8485    1.1318    0.1069 C   0  0  0  0  0  0  0  0  0  0  0  0
    0.7753   -0.2888    0.0227 C   0  0  0  0  0  0  0  0  0  0  0  0
    1.9185   -0.9327    0.2601 O   0  0  0  0  0  0  0  0  0  0  0  0
    1.9253   -2.3723    0.2140 C   0  0  0  0  0  0  0  0  0  0  0  0
   -0.4392   -0.9274   -0.2827 C   0  0  0  0  0  0  0  0  0  0  0  0
   -1.5785   -0.1851   -0.5169 C   0  0  0  0  0  0  0  0  0  0  0  0
   -0.2328    2.9788   -0.0514 H   0  0  0  0  0  0  0  0  0  0  0  0
    1.8000    1.5876    0.3567 H   0  0  0  0  0  0  0  0  0  0  0  0
    2.9454   -2.6619    0.4620 H   0  0  0  0  0  0  0  0  0  0  0  0
    1.6650   -2.7276   -0.7870 H   0  0  0  0  0  0  0  0  0  0  0  0
    1.2249   -2.7877    0.9433 H   0  0  0  0  0  0  0  0  0  0  0  0
   -0.5976   -2.0079   -0.3135 H   0  0  0  0  0  0  0  0  0  0  0  0
   -2.4946   -0.7465   -0.7199 H   0  0  0  0  0  0  0  0  0  0  0  0
   -2.7001   -3.1487   -0.3156 Cl  0  0  0  0  0  0  0  0  0  0  0  0
  1  4  1  0  0  0  0
  2  1  1  0  0  0  0
  3  2  1  0  0  0  0
  4 11  1  0  0  0  0
  4  5  2  0  0  0  0
  5 12  1  0  0  0  0
  6  5  1  0  0  0  0
  6  7  1  0  0  0  0
  8  7  1  0  0  0  0
  8 13  1  0  0  0  0
  8 15  1  0  0  0  0
  9  6  2  0  0  0  0
 10  1  2  0  0  0  0
 10  9  1  0  0  0  0
 14  8  1  0  0  0  0
 16  9  1  0  0  0  0
 17 10  1  0  0  0  0
M  RAD  3   2   2   3   3  18   2
M  END
