Coordinates from ORCA-job 4-MeOPhN2+~Cl-_B3LYPG-6-31G_dp-NX-Scan-d89-09-n800
 OpenBabel11261920443D

 18 17  0  0  0  0  0  0  0  0999 V2000
   -1.4308   -0.0482   -0.0414 C   0  0  0  0  0  0  0  0  0  0  0  0
   -2.7937   -0.0881    0.0572 N   0  0  0  0  0  0  0  0  0  0  0  0
   -3.9094   -0.1174    0.1381 N   0  0  0  0  0  0  0  0  0  0  0  0
   -0.7817    1.2109   -0.0014 C   0  0  0  0  0  0  0  0  0  0  0  0
    0.5863    1.2314   -0.1009 C   0  0  0  0  0  0  0  0  0  0  0  0
    1.3181    0.0215   -0.2391 C   0  0  0  0  0  0  0  0  0  0  0  0
    2.6324    0.1646   -0.3246 O   0  0  0  0  0  0  0  0  0  0  0  0
    3.4901   -0.9848   -0.4654 C   0  0  0  0  0  0  0  0  0  0  0  0
    0.6442   -1.2250   -0.2769 C   0  0  0  0  0  0  0  0  0  0  0  0
   -0.7297   -1.2656   -0.1784 C   0  0  0  0  0  0  0  0  0  0  0  0
   -1.3570    2.1270    0.1054 H   0  0  0  0  0  0  0  0  0  0  0  0
    1.1355    2.1672   -0.0756 H   0  0  0  0  0  0  0  0  0  0  0  0
    4.5010   -0.5833   -0.5062 H   0  0  0  0  0  0  0  0  0  0  0  0
    3.2658   -1.5208   -1.3924 H   0  0  0  0  0  0  0  0  0  0  0  0
    3.3877   -1.6486    0.3981 H   0  0  0  0  0  0  0  0  0  0  0  0
    1.1932   -2.1543   -0.3827 H   0  0  0  0  0  0  0  0  0  0  0  0
   -1.2666   -2.2114   -0.2053 H   0  0  0  0  0  0  0  0  0  0  0  0
  -12.6402   -0.4261    0.7806 Cl  0  0  0  0  0  0  0  0  0  0  0  0
  1  4  1  0  0  0  0
  1  2  1  0  0  0  0
  2  3  1  0  0  0  0
  4 11  1  0  0  0  0
  5 12  1  0  0  0  0
  5  4  2  0  0  0  0
  6  5  1  0  0  0  0
  7  6  1  0  0  0  0
  8  7  1  0  0  0  0
  8 15  1  0  0  0  0
  9  6  2  0  0  0  0
  9 10  1  0  0  0  0
 10  1  2  0  0  0  0
 13  8  1  0  0  0  0
 14  8  1  0  0  0  0
 16  9  1  0  0  0  0
 17 10  1  0  0  0  0
M  RAD  3   2   2   3   3  18   2
M  END
