Coordinates from ORCA-job 4-MeOPhN2+~Cl-_B3LYPG-6-31G_dp-NX-Scan-d89-09-n800
 OpenBabel11261920533D

 18 17  0  0  0  0  0  0  0  0999 V2000
   -1.4524    1.0193   -0.2485 C   0  0  0  0  0  0  0  0  0  0  0  0
   -2.6419    1.7287   -0.3778 N   0  0  0  0  0  0  0  0  0  0  0  0
   -3.7726    1.7578   -0.5589 N   0  0  0  0  0  0  0  0  0  0  0  0
   -0.2698    1.7353    0.0102 C   0  0  0  0  0  0  0  0  0  0  0  0
    0.9122    1.0367    0.1402 C   0  0  0  0  0  0  0  0  0  0  0  0
    0.9195   -0.3703    0.0139 C   0  0  0  0  0  0  0  0  0  0  0  0
    2.1243   -0.9517    0.1609 O   0  0  0  0  0  0  0  0  0  0  0  0
    2.2293   -2.3728    0.0618 C   0  0  0  0  0  0  0  0  0  0  0  0
   -0.2749   -1.0682   -0.2461 C   0  0  0  0  0  0  0  0  0  0  0  0
   -1.4718   -0.3783   -0.3792 C   0  0  0  0  0  0  0  0  0  0  0  0
   -0.2985    2.8155    0.1053 H   0  0  0  0  0  0  0  0  0  0  0  0
    1.8496    1.5424    0.3410 H   0  0  0  0  0  0  0  0  0  0  0  0
    3.2820   -2.6016    0.2255 H   0  0  0  0  0  0  0  0  0  0  0  0
    1.9286   -2.7245   -0.9313 H   0  0  0  0  0  0  0  0  0  0  0  0
    1.6237   -2.8691    0.8279 H   0  0  0  0  0  0  0  0  0  0  0  0
   -0.2797   -2.1465   -0.3465 H   0  0  0  0  0  0  0  0  0  0  0  0
   -2.4232   -0.8739   -0.5798 H   0  0  0  0  0  0  0  0  0  0  0  0
   -4.7389   -0.6297   -0.9296 Cl  0  0  0  0  0  0  0  0  0  0  0  0
  1  4  1  0  0  0  0
  2  1  1  0  0  0  0
  3  2  2  0  0  0  0
  4 11  1  0  0  0  0
  4  5  2  0  0  0  0
  5 12  1  0  0  0  0
  6  5  1  0  0  0  0
  6  7  1  0  0  0  0
  8  7  1  0  0  0  0
  8 13  1  0  0  0  0
  8 15  1  0  0  0  0
  9  6  2  0  0  0  0
 10  1  2  0  0  0  0
 10  9  1  0  0  0  0
 14  8  1  0  0  0  0
 16  9  1  0  0  0  0
 17 10  1  0  0  0  0
M  RAD  2   3   2  18   2
M  END
