Coordinates from ORCA-job 4-MeOPhN2+~Cl-_B3LYPG-6-31G_dp-NX-Scan-d89-09-n800
 OpenBabel11261920533D

 18 17  0  0  0  0  0  0  0  0999 V2000
   -1.4849    1.2217   -0.4404 C   0  0  0  0  0  0  0  0  0  0  0  0
   -2.5815    1.9714   -0.6771 N   0  0  0  0  0  0  0  0  0  0  0  0
   -3.4881    2.6141   -0.8673 N   0  0  0  0  0  0  0  0  0  0  0  0
   -0.2675    1.8926   -0.1132 C   0  0  0  0  0  0  0  0  0  0  0  0
    0.8471    1.1299    0.1120 C   0  0  0  0  0  0  0  0  0  0  0  0
    0.7788   -0.2908    0.0218 C   0  0  0  0  0  0  0  0  0  0  0  0
    1.9247   -0.9307    0.2601 O   0  0  0  0  0  0  0  0  0  0  0  0
    1.9380   -2.3694    0.2123 C   0  0  0  0  0  0  0  0  0  0  0  0
   -0.4327   -0.9315   -0.2888 C   0  0  0  0  0  0  0  0  0  0  0  0
   -1.5741   -0.1919   -0.5257 C   0  0  0  0  0  0  0  0  0  0  0  0
   -0.2395    2.9742   -0.0401 H   0  0  0  0  0  0  0  0  0  0  0  0
    1.7963    1.5872    0.3675 H   0  0  0  0  0  0  0  0  0  0  0  0
    2.9595   -2.6552    0.4590 H   0  0  0  0  0  0  0  0  0  0  0  0
    1.6787   -2.7253   -0.7888 H   0  0  0  0  0  0  0  0  0  0  0  0
    1.2407   -2.7889    0.9425 H   0  0  0  0  0  0  0  0  0  0  0  0
   -0.5844   -2.0113   -0.3199 H   0  0  0  0  0  0  0  0  0  0  0  0
   -2.4885   -0.7579   -0.7296 H   0  0  0  0  0  0  0  0  0  0  0  0
   -2.7773   -3.0894   -0.2952 Cl  0  0  0  0  0  0  0  0  0  0  0  0
  1  4  1  0  0  0  0
  2  1  1  0  0  0  0
  3  2  1  0  0  0  0
  4 11  1  0  0  0  0
  4  5  2  0  0  0  0
  5 12  1  0  0  0  0
  6  5  1  0  0  0  0
  6  7  1  0  0  0  0
  8  7  1  0  0  0  0
  8 13  1  0  0  0  0
  8 15  1  0  0  0  0
  9  6  2  0  0  0  0
 10  1  2  0  0  0  0
 10  9  1  0  0  0  0
 14  8  1  0  0  0  0
 16  9  1  0  0  0  0
 17 10  1  0  0  0  0
M  RAD  3   2   2   3   3  18   2
M  END
