Coordinates from ORCA-job 4-MeOPhN2+~Cl-_B3LYPG-6-31G_dp-NX-Scan-d89-09-n800
 OpenBabel11261920533D

 18 17  0  0  0  0  0  0  0  0999 V2000
   -1.4964    1.3781   -0.4946 C   0  0  0  0  0  0  0  0  0  0  0  0
   -2.5225    2.2012   -0.7689 N   0  0  0  0  0  0  0  0  0  0  0  0
   -3.3830    2.8943   -1.0124 N   0  0  0  0  0  0  0  0  0  0  0  0
   -0.2529    1.9519   -0.0980 C   0  0  0  0  0  0  0  0  0  0  0  0
    0.7903    1.1104    0.1716 C   0  0  0  0  0  0  0  0  0  0  0  0
    0.6348   -0.3046    0.0574 C   0  0  0  0  0  0  0  0  0  0  0  0
    1.7182   -0.9998    0.3336 O   0  0  0  0  0  0  0  0  0  0  0  0
    1.7458   -2.4408    0.1446 C   0  0  0  0  0  0  0  0  0  0  0  0
   -0.6126   -0.8705   -0.3266 C   0  0  0  0  0  0  0  0  0  0  0  0
   -1.6684   -0.0346   -0.5995 C   0  0  0  0  0  0  0  0  0  0  0  0
   -0.1501    3.0285   -0.0181 H   0  0  0  0  0  0  0  0  0  0  0  0
    1.7567    1.4957    0.4759 H   0  0  0  0  0  0  0  0  0  0  0  0
    2.7052   -2.7526    0.5542 H   0  0  0  0  0  0  0  0  0  0  0  0
    1.6968   -2.6585   -0.9252 H   0  0  0  0  0  0  0  0  0  0  0  0
    0.8980   -2.9382    0.6383 H   0  0  0  0  0  0  0  0  0  0  0  0
   -0.7828   -1.9668   -0.3237 H   0  0  0  0  0  0  0  0  0  0  0  0
   -2.6315   -0.4476   -0.8809 H   0  0  0  0  0  0  0  0  0  0  0  0
   -1.2004   -3.9970    0.3613 Cl  0  0  0  0  0  0  0  0  0  0  0  0
  1  4  1  0  0  0  0
  2  1  1  0  0  0  0
  3  2  1  0  0  0  0
  4 11  1  0  0  0  0
  4  5  2  0  0  0  0
  5 12  1  0  0  0  0
  6  5  1  0  0  0  0
  6  7  1  0  0  0  0
  8  7  1  0  0  0  0
  8 13  1  0  0  0  0
  8 15  1  0  0  0  0
  9 16  1  0  0  0  0
  9  6  2  0  0  0  0
 10  1  2  0  0  0  0
 10  9  1  0  0  0  0
 14  8  1  0  0  0  0
 17 10  1  0  0  0  0
M  RAD  3   2   2   3   3  18   2
M  END
