Coordinates from ORCA-job 4-MeOPhN2+~Cl-_B3LYPG-6-31G_dp-NX-Scan-d89-09-n800
 OpenBabel11261920533D

 18 17  0  0  0  0  0  0  0  0999 V2000
   -1.4326    1.0602   -0.2401 C   0  0  0  0  0  0  0  0  0  0  0  0
   -2.6212    1.7487   -0.3715 N   0  0  0  0  0  0  0  0  0  0  0  0
   -3.7263    1.9272   -0.5362 N   0  0  0  0  0  0  0  0  0  0  0  0
   -0.2416    1.7684    0.0179 C   0  0  0  0  0  0  0  0  0  0  0  0
    0.9250    1.0487    0.1427 C   0  0  0  0  0  0  0  0  0  0  0  0
    0.9076   -0.3618    0.0129 C   0  0  0  0  0  0  0  0  0  0  0  0
    2.1013   -0.9580    0.1559 O   0  0  0  0  0  0  0  0  0  0  0  0
    2.1901   -2.3824    0.0539 C   0  0  0  0  0  0  0  0  0  0  0  0
   -0.2973   -1.0427   -0.2455 C   0  0  0  0  0  0  0  0  0  0  0  0
   -1.4850   -0.3389   -0.3754 C   0  0  0  0  0  0  0  0  0  0  0  0
   -0.2525    2.8487    0.1152 H   0  0  0  0  0  0  0  0  0  0  0  0
    1.8720    1.5365    0.3423 H   0  0  0  0  0  0  0  0  0  0  0  0
    3.2406   -2.6219    0.2151 H   0  0  0  0  0  0  0  0  0  0  0  0
    1.8829   -2.7264   -0.9394 H   0  0  0  0  0  0  0  0  0  0  0  0
    1.5798   -2.8707    0.8207 H   0  0  0  0  0  0  0  0  0  0  0  0
   -0.3195   -2.1208   -0.3478 H   0  0  0  0  0  0  0  0  0  0  0  0
   -2.4574   -0.8197   -0.5774 H   0  0  0  0  0  0  0  0  0  0  0  0
   -4.6205   -1.0461   -0.9542 Cl  0  0  0  0  0  0  0  0  0  0  0  0
  1  4  2  0  0  0  0
  2  1  1  0  0  0  0
  3  2  1  0  0  0  0
  4 11  1  0  0  0  0
  4  5  1  0  0  0  0
  5 12  1  0  0  0  0
  6  5  2  0  0  0  0
  6  7  1  0  0  0  0
  8  7  1  0  0  0  0
  8 13  1  0  0  0  0
  8 15  1  0  0  0  0
  9  6  1  0  0  0  0
 10  9  2  0  0  0  0
 10  1  1  0  0  0  0
 14  8  1  0  0  0  0
 16  9  1  0  0  0  0
 17 10  1  0  0  0  0
M  RAD  3   2   2   3   3  18   2
M  END
