Coordinates from ORCA-job 4-MeOPhN2+~Cl-_B3LYPG-6-31G_dp-NX-Scan-d89-09-n800
 OpenBabel11261920533D

 18 17  0  0  0  0  0  0  0  0999 V2000
   -1.4395    1.0417   -0.2433 C   0  0  0  0  0  0  0  0  0  0  0  0
   -2.6306    1.7387   -0.3739 N   0  0  0  0  0  0  0  0  0  0  0  0
   -3.7510    1.8308   -0.5486 N   0  0  0  0  0  0  0  0  0  0  0  0
   -0.2530    1.7534    0.0147 C   0  0  0  0  0  0  0  0  0  0  0  0
    0.9210    1.0433    0.1416 C   0  0  0  0  0  0  0  0  0  0  0  0
    0.9150   -0.3654    0.0134 C   0  0  0  0  0  0  0  0  0  0  0  0
    2.1139   -0.9550    0.1581 O   0  0  0  0  0  0  0  0  0  0  0  0
    2.2101   -2.3779    0.0580 C   0  0  0  0  0  0  0  0  0  0  0  0
   -0.2853   -1.0543   -0.2456 C   0  0  0  0  0  0  0  0  0  0  0  0
   -1.4771   -0.3565   -0.3766 C   0  0  0  0  0  0  0  0  0  0  0  0
   -0.2723    2.8337    0.1111 H   0  0  0  0  0  0  0  0  0  0  0  0
    1.8637    1.5394    0.3416 H   0  0  0  0  0  0  0  0  0  0  0  0
    3.2616   -2.6125    0.2204 H   0  0  0  0  0  0  0  0  0  0  0  0
    1.9058   -2.7259   -0.9352 H   0  0  0  0  0  0  0  0  0  0  0  0
    1.6020   -2.8697    0.8247 H   0  0  0  0  0  0  0  0  0  0  0  0
   -0.2992   -2.1325   -0.3470 H   0  0  0  0  0  0  0  0  0  0  0  0
   -2.4399   -0.8419   -0.5772 H   0  0  0  0  0  0  0  0  0  0  0  0
   -4.6997   -0.8403   -0.9468 Cl  0  0  0  0  0  0  0  0  0  0  0  0
  1  4  2  0  0  0  0
  2  1  1  0  0  0  0
  3  2  2  0  0  0  0
  4 11  1  0  0  0  0
  4  5  1  0  0  0  0
  5 12  1  0  0  0  0
  6  5  2  0  0  0  0
  6  7  1  0  0  0  0
  8  7  1  0  0  0  0
  8 13  1  0  0  0  0
  8 15  1  0  0  0  0
  9  6  1  0  0  0  0
 10  9  2  0  0  0  0
 10  1  1  0  0  0  0
 14  8  1  0  0  0  0
 16  9  1  0  0  0  0
 17 10  1  0  0  0  0
M  RAD  2   3   2  18   2
M  END
