Coordinates from ORCA-job 4-MeOPhN2+~Cl-_B3LYPG-6-31G_dp-NX-Scan-d89-09-n800
 OpenBabel11261920533D

 18 17  0  0  0  0  0  0  0  0999 V2000
   -1.4323    1.0615   -0.2399 C   0  0  0  0  0  0  0  0  0  0  0  0
   -2.6204    1.7490   -0.3712 N   0  0  0  0  0  0  0  0  0  0  0  0
   -3.7231    1.9400   -0.5342 N   0  0  0  0  0  0  0  0  0  0  0  0
   -0.2408    1.7697    0.0181 C   0  0  0  0  0  0  0  0  0  0  0  0
    0.9251    1.0492    0.1427 C   0  0  0  0  0  0  0  0  0  0  0  0
    0.9067   -0.3616    0.0128 C   0  0  0  0  0  0  0  0  0  0  0  0
    2.1000   -0.9582    0.1556 O   0  0  0  0  0  0  0  0  0  0  0  0
    2.1883   -2.3828    0.0536 C   0  0  0  0  0  0  0  0  0  0  0  0
   -0.2985   -1.0419   -0.2457 C   0  0  0  0  0  0  0  0  0  0  0  0
   -1.4860   -0.3377   -0.3754 C   0  0  0  0  0  0  0  0  0  0  0  0
   -0.2510    2.8500    0.1155 H   0  0  0  0  0  0  0  0  0  0  0  0
    1.8725    1.5363    0.3422 H   0  0  0  0  0  0  0  0  0  0  0  0
    3.2387   -2.6225    0.2149 H   0  0  0  0  0  0  0  0  0  0  0  0
    1.8810   -2.7265   -0.9397 H   0  0  0  0  0  0  0  0  0  0  0  0
    1.5778   -2.8708    0.8204 H   0  0  0  0  0  0  0  0  0  0  0  0
   -0.3213   -2.1199   -0.3482 H   0  0  0  0  0  0  0  0  0  0  0  0
   -2.4595   -0.8185   -0.5778 H   0  0  0  0  0  0  0  0  0  0  0  0
   -4.6116   -1.0662   -0.9547 Cl  0  0  0  0  0  0  0  0  0  0  0  0
  1  4  2  0  0  0  0
  2  1  1  0  0  0  0
  3  2  1  0  0  0  0
  4 11  1  0  0  0  0
  4  5  1  0  0  0  0
  5 12  1  0  0  0  0
  6  5  2  0  0  0  0
  6  7  1  0  0  0  0
  8  7  1  0  0  0  0
  8 13  1  0  0  0  0
  8 15  1  0  0  0  0
  9  6  1  0  0  0  0
 10  9  2  0  0  0  0
 10  1  1  0  0  0  0
 14  8  1  0  0  0  0
 16  9  1  0  0  0  0
 17 10  1  0  0  0  0
M  RAD  3   2   2   3   3  18   2
M  END
