Coordinates from ORCA-job 4-MeOPhN2+~Cl-_B3LYPG-6-31G_dp-NX-Scan-d89-09-n800
 OpenBabel11261920533D

 18 18  0  0  0  0  0  0  0  0999 V2000
   -1.5222    0.9517   -0.2745 C   0  0  0  0  0  0  0  0  0  0  0  0
   -2.6642    1.7553   -0.3942 N   0  0  0  0  0  0  0  0  0  0  0  0
   -3.8411    1.6453   -0.5808 N   0  0  0  0  0  0  0  0  0  0  0  0
   -0.3386    1.6709   -0.0085 C   0  0  0  0  0  0  0  0  0  0  0  0
    0.8669    1.0134    0.1356 C   0  0  0  0  0  0  0  0  0  0  0  0
    0.9178   -0.3879    0.0134 C   0  0  0  0  0  0  0  0  0  0  0  0
    2.1400   -0.9436    0.1716 O   0  0  0  0  0  0  0  0  0  0  0  0
    2.2721   -2.3587    0.0740 C   0  0  0  0  0  0  0  0  0  0  0  0
   -0.2569   -1.1096   -0.2561 C   0  0  0  0  0  0  0  0  0  0  0  0
   -1.4723   -0.4483   -0.3991 C   0  0  0  0  0  0  0  0  0  0  0  0
   -0.3994    2.7503    0.0822 H   0  0  0  0  0  0  0  0  0  0  0  0
    1.7855    1.5510    0.3429 H   0  0  0  0  0  0  0  0  0  0  0  0
    3.3276   -2.5707    0.2452 H   0  0  0  0  0  0  0  0  0  0  0  0
    1.9855   -2.7198   -0.9208 H   0  0  0  0  0  0  0  0  0  0  0  0
    1.6706   -2.8696    0.8348 H   0  0  0  0  0  0  0  0  0  0  0  0
   -0.2348   -2.1879   -0.3574 H   0  0  0  0  0  0  0  0  0  0  0  0
   -2.3726   -1.0076   -0.6062 H   0  0  0  0  0  0  0  0  0  0  0  0
   -4.6185   -0.0852   -0.8130 Cl  0  0  0  0  0  0  0  0  0  0  0  0
  1  4  1  0  0  0  0
  2  1  1  0  0  0  0
  3  2  2  0  0  0  0
  4 11  1  0  0  0  0
  4  5  2  0  0  0  0
  5 12  1  0  0  0  0
  6  5  1  0  0  0  0
  6  7  1  0  0  0  0
  8  7  1  0  0  0  0
  8 13  1  0  0  0  0
  8 15  1  0  0  0  0
  9  6  2  0  0  0  0
 10  1  2  0  0  0  0
 10  9  1  0  0  0  0
 14  8  1  0  0  0  0
 16  9  1  0  0  0  0
 17 10  1  0  0  0  0
 18  3  1  0  0  0  0
M  END
