Coordinates from ORCA-job 4-MeOPhN2+~Cl-_B3LYPG-6-31G_dp-NX-Scan-d89-09-n800
 OpenBabel11261920533D

 18 17  0  0  0  0  0  0  0  0999 V2000
   -1.4813    1.3635   -0.4932 C   0  0  0  0  0  0  0  0  0  0  0  0
   -2.5419    2.1553   -0.7195 N   0  0  0  0  0  0  0  0  0  0  0  0
   -3.4572    2.7846   -0.9290 N   0  0  0  0  0  0  0  0  0  0  0  0
   -0.2448    1.9502   -0.0969 C   0  0  0  0  0  0  0  0  0  0  0  0
    0.8129    1.1187    0.1528 C   0  0  0  0  0  0  0  0  0  0  0  0
    0.6695   -0.2963    0.0263 C   0  0  0  0  0  0  0  0  0  0  0  0
    1.7480   -0.9955    0.3176 O   0  0  0  0  0  0  0  0  0  0  0  0
    1.7460   -2.4416    0.1610 C   0  0  0  0  0  0  0  0  0  0  0  0
   -0.5642   -0.8687   -0.3803 C   0  0  0  0  0  0  0  0  0  0  0  0
   -1.6329   -0.0467   -0.6330 C   0  0  0  0  0  0  0  0  0  0  0  0
   -0.1583    3.0265    0.0043 H   0  0  0  0  0  0  0  0  0  0  0  0
    1.7744    1.5126    0.4618 H   0  0  0  0  0  0  0  0  0  0  0  0
    2.6874   -2.7672    0.6006 H   0  0  0  0  0  0  0  0  0  0  0  0
    1.7184   -2.6835   -0.9045 H   0  0  0  0  0  0  0  0  0  0  0  0
    0.8769   -2.9030    0.6496 H   0  0  0  0  0  0  0  0  0  0  0  0
   -0.7396   -1.9657   -0.3850 H   0  0  0  0  0  0  0  0  0  0  0  0
   -2.5907   -0.4718   -0.9147 H   0  0  0  0  0  0  0  0  0  0  0  0
   -1.3773   -3.8224    0.3713 Cl  0  0  0  0  0  0  0  0  0  0  0  0
  1  4  1  0  0  0  0
  2  1  1  0  0  0  0
  3  2  1  0  0  0  0
  4 11  1  0  0  0  0
  4  5  2  0  0  0  0
  5 12  1  0  0  0  0
  6  5  1  0  0  0  0
  6  7  1  0  0  0  0
  8  7  1  0  0  0  0
  8 13  1  0  0  0  0
  8 15  1  0  0  0  0
  9  6  2  0  0  0  0
 10  1  2  0  0  0  0
 10  9  1  0  0  0  0
 14  8  1  0  0  0  0
 16  9  1  0  0  0  0
 17 10  1  0  0  0  0
M  RAD  3   2   2   3   3  18   2
M  END
