Coordinates from ORCA-job 4-MeOPhN2+~Cl-_B3LYPG-6-31G_dp-NX-Scan-d89-09-n800
 OpenBabel11261920533D

 18 17  0  0  0  0  0  0  0  0999 V2000
   -1.4347    1.0529   -0.2410 C   0  0  0  0  0  0  0  0  0  0  0  0
   -2.6248    1.7450   -0.3727 N   0  0  0  0  0  0  0  0  0  0  0  0
   -3.7379    1.8808   -0.5428 N   0  0  0  0  0  0  0  0  0  0  0  0
   -0.2457    1.7624    0.0167 C   0  0  0  0  0  0  0  0  0  0  0  0
    0.9241    1.0466    0.1425 C   0  0  0  0  0  0  0  0  0  0  0  0
    0.9111   -0.3631    0.0136 C   0  0  0  0  0  0  0  0  0  0  0  0
    2.1070   -0.9568    0.1570 O   0  0  0  0  0  0  0  0  0  0  0  0
    2.1987   -2.3806    0.0553 C   0  0  0  0  0  0  0  0  0  0  0  0
   -0.2921   -1.0473   -0.2447 C   0  0  0  0  0  0  0  0  0  0  0  0
   -1.4813   -0.3457   -0.3750 C   0  0  0  0  0  0  0  0  0  0  0  0
   -0.2599    2.8427    0.1134 H   0  0  0  0  0  0  0  0  0  0  0  0
    1.8693    1.5377    0.3420 H   0  0  0  0  0  0  0  0  0  0  0  0
    3.2497   -2.6182    0.2164 H   0  0  0  0  0  0  0  0  0  0  0  0
    1.8923   -2.7259   -0.9380 H   0  0  0  0  0  0  0  0  0  0  0  0
    1.5897   -2.8706    0.8222 H   0  0  0  0  0  0  0  0  0  0  0  0
   -0.3109   -2.1254   -0.3463 H   0  0  0  0  0  0  0  0  0  0  0  0
   -2.4496   -0.8276   -0.5763 H   0  0  0  0  0  0  0  0  0  0  0  0
   -4.6595   -0.9579   -0.9532 Cl  0  0  0  0  0  0  0  0  0  0  0  0
  1  4  2  0  0  0  0
  2  1  1  0  0  0  0
  3  2  1  0  0  0  0
  4 11  1  0  0  0  0
  4  5  1  0  0  0  0
  5 12  1  0  0  0  0
  6  5  2  0  0  0  0
  6  7  1  0  0  0  0
  8  7  1  0  0  0  0
  8 13  1  0  0  0  0
  8 15  1  0  0  0  0
  9  6  1  0  0  0  0
 10  9  2  0  0  0  0
 10  1  1  0  0  0  0
 14  8  1  0  0  0  0
 16  9  1  0  0  0  0
 17 10  1  0  0  0  0
M  RAD  3   2   2   3   3  18   2
M  END
