Coordinates from ORCA-job 4-MeOPhN2+~Cl-_B3LYPG-6-31G_dp-NX-Scan-d89-09-n800
 OpenBabel11261920533D

 18 17  0  0  0  0  0  0  0  0999 V2000
   -1.4379    1.0453   -0.2424 C   0  0  0  0  0  0  0  0  0  0  0  0
   -2.6286    1.7408   -0.3735 N   0  0  0  0  0  0  0  0  0  0  0  0
   -3.7466    1.8477   -0.5468 N   0  0  0  0  0  0  0  0  0  0  0  0
   -0.2506    1.7563    0.0153 C   0  0  0  0  0  0  0  0  0  0  0  0
    0.9221    1.0443    0.1418 C   0  0  0  0  0  0  0  0  0  0  0  0
    0.9137   -0.3647    0.0136 C   0  0  0  0  0  0  0  0  0  0  0  0
    2.1117   -0.9556    0.1577 O   0  0  0  0  0  0  0  0  0  0  0  0
    2.2066   -2.3787    0.0570 C   0  0  0  0  0  0  0  0  0  0  0  0
   -0.2875   -1.0521   -0.2451 C   0  0  0  0  0  0  0  0  0  0  0  0
   -1.4785   -0.3532   -0.3758 C   0  0  0  0  0  0  0  0  0  0  0  0
   -0.2682    2.8366    0.1117 H   0  0  0  0  0  0  0  0  0  0  0  0
    1.8656    1.5388    0.3416 H   0  0  0  0  0  0  0  0  0  0  0  0
    3.2580   -2.6141    0.2189 H   0  0  0  0  0  0  0  0  0  0  0  0
    1.9016   -2.7259   -0.9361 H   0  0  0  0  0  0  0  0  0  0  0  0
    1.5984   -2.8700    0.8239 H   0  0  0  0  0  0  0  0  0  0  0  0
   -0.3030   -2.1303   -0.3464 H   0  0  0  0  0  0  0  0  0  0  0  0
   -2.4431   -0.8374   -0.5765 H   0  0  0  0  0  0  0  0  0  0  0  0
   -4.6882   -0.8787   -0.9498 Cl  0  0  0  0  0  0  0  0  0  0  0  0
  1  4  2  0  0  0  0
  2  1  1  0  0  0  0
  3  2  1  0  0  0  0
  4 11  1  0  0  0  0
  4  5  1  0  0  0  0
  5 12  1  0  0  0  0
  6  5  2  0  0  0  0
  6  7  1  0  0  0  0
  8  7  1  0  0  0  0
  8 13  1  0  0  0  0
  8 15  1  0  0  0  0
  9  6  1  0  0  0  0
 10  9  2  0  0  0  0
 10  1  1  0  0  0  0
 14  8  1  0  0  0  0
 16  9  1  0  0  0  0
 17 10  1  0  0  0  0
M  RAD  3   2   2   3   3  18   2
M  END
