Coordinates from ORCA-job 4-MeOPhN2+~Cl-_B3LYPG-6-31G_dp-NX-Scan-d89-09-n800
 OpenBabel11261920533D

 18 17  0  0  0  0  0  0  0  0999 V2000
   -1.4826    1.2568   -0.4410 C   0  0  0  0  0  0  0  0  0  0  0  0
   -2.5735    2.0154   -0.6696 N   0  0  0  0  0  0  0  0  0  0  0  0
   -3.4818    2.6576   -0.8574 N   0  0  0  0  0  0  0  0  0  0  0  0
   -0.2555    1.9123   -0.1210 C   0  0  0  0  0  0  0  0  0  0  0  0
    0.8506    1.1367    0.1065 C   0  0  0  0  0  0  0  0  0  0  0  0
    0.7637   -0.2826    0.0205 C   0  0  0  0  0  0  0  0  0  0  0  0
    1.8940   -0.9426    0.2631 O   0  0  0  0  0  0  0  0  0  0  0  0
    1.8785   -2.3849    0.2069 C   0  0  0  0  0  0  0  0  0  0  0  0
   -0.4558   -0.9117   -0.2922 C   0  0  0  0  0  0  0  0  0  0  0  0
   -1.5852   -0.1579   -0.5206 C   0  0  0  0  0  0  0  0  0  0  0  0
   -0.2139    2.9940   -0.0556 H   0  0  0  0  0  0  0  0  0  0  0  0
    1.8055    1.5846    0.3580 H   0  0  0  0  0  0  0  0  0  0  0  0
    2.8849   -2.6913    0.4881 H   0  0  0  0  0  0  0  0  0  0  0  0
    1.6470   -2.7257   -0.8058 H   0  0  0  0  0  0  0  0  0  0  0  0
    1.1434   -2.7941    0.9042 H   0  0  0  0  0  0  0  0  0  0  0  0
   -0.6338   -1.9961   -0.3218 H   0  0  0  0  0  0  0  0  0  0  0  0
   -2.5106   -0.6950   -0.7268 H   0  0  0  0  0  0  0  0  0  0  0  0
   -2.4294   -3.3264   -0.2464 Cl  0  0  0  0  0  0  0  0  0  0  0  0
  1  4  1  0  0  0  0
  2  1  1  0  0  0  0
  3  2  1  0  0  0  0
  4 11  1  0  0  0  0
  4  5  2  0  0  0  0
  5 12  1  0  0  0  0
  6  5  1  0  0  0  0
  6  7  1  0  0  0  0
  8  7  1  0  0  0  0
  8 13  1  0  0  0  0
  8 15  1  0  0  0  0
  9  6  2  0  0  0  0
 10  1  2  0  0  0  0
 10  9  1  0  0  0  0
 14  8  1  0  0  0  0
 16  9  1  0  0  0  0
 17 10  1  0  0  0  0
M  RAD  3   2   2   3   3  18   2
M  END
