Coordinates from ORCA-job 4-MeOPhN2+~Cl-_B3LYPG-6-31G_dp-NX-Scan-d89-09-n800
 OpenBabel11261920533D

 18 18  0  0  1  0  0  0  0  0999 V2000
   -1.5428    1.0684   -0.5032 C   0  0  0  0  0  0  0  0  0  0  0  0
   -2.6298    1.7613   -0.7845 N   0  0  0  0  0  0  0  0  0  0  0  0
   -3.5955    2.3071   -1.0307 N   0  0  0  0  0  0  0  0  0  0  0  0
   -0.4166    1.7177    0.1052 C   0  0  0  0  0  0  0  0  0  0  0  0
    0.6882    0.9842    0.3891 C   0  0  0  0  0  0  0  0  0  0  0  0
    0.7267   -0.4222    0.0558 C   0  0  0  0  0  0  0  0  0  0  0  0
    1.9302   -0.9896    0.3057 O   0  0  0  0  0  0  0  0  0  0  0  0
    2.0797   -2.3856    0.0689 C   0  0  0  0  0  0  0  0  0  0  0  0
   -0.3512   -1.0663   -0.4883 C   0  0  0  0  0  0  0  0  0  0  0  0
   -1.6227   -0.3892   -0.6501 C   0  0  1  0  0  0  0  0  0  0  0  0
   -0.4702    2.7783    0.3255 H   0  0  0  0  0  0  0  0  0  0  0  0
    1.5663    1.4245    0.8461 H   0  0  0  0  0  0  0  0  0  0  0  0
    3.0945   -2.6351    0.3795 H   0  0  0  0  0  0  0  0  0  0  0  0
    1.9545   -2.6238   -0.9944 H   0  0  0  0  0  0  0  0  0  0  0  0
    1.3603   -2.9656    0.6577 H   0  0  0  0  0  0  0  0  0  0  0  0
   -0.3154   -2.1153   -0.7487 H   0  0  0  0  0  0  0  0  0  0  0  0
   -2.2438   -0.7405   -1.4670 H   0  0  0  0  0  0  0  0  0  0  0  0
   -2.9670   -1.0593    0.8225 Cl  0  0  0  0  0  0  0  0  0  0  0  0
  1  4  2  0  0  0  0
  2  1  1  0  0  0  0
  3  2  1  0  0  0  0
  4 11  1  0  0  0  0
  4  5  1  0  0  0  0
  5 12  1  0  0  0  0
  6  7  1  0  0  0  0
  6  5  1  0  0  0  0
  8  7  1  0  0  0  0
  8 13  1  0  0  0  0
  8 15  1  0  0  0  0
  9  6  2  0  0  0  0
 10 17  1  6  0  0  0
 10  1  1  0  0  0  0
 10  9  1  0  0  0  0
 10 18  1  0  0  0  0
 14  8  1  0  0  0  0
 16  9  1  0  0  0  0
M  RAD  3   2   2   3   3   5   2
M  END
