Coordinates from ORCA-job 4-MeOPhN2+~Cl-_B3LYPG-6-31G_dp-NX-Scan-d89-09-n800
 OpenBabel11261920533D

 18 17  0  0  0  0  0  0  0  0999 V2000
   -1.4622    1.3140   -0.5003 C   0  0  0  0  0  0  0  0  0  0  0  0
   -2.5794    2.0490   -0.6297 N   0  0  0  0  0  0  0  0  0  0  0  0
   -3.5556    2.6022   -0.7517 N   0  0  0  0  0  0  0  0  0  0  0  0
   -0.2469    1.9310   -0.0835 C   0  0  0  0  0  0  0  0  0  0  0  0
    0.8419    1.1263    0.1298 C   0  0  0  0  0  0  0  0  0  0  0  0
    0.7409   -0.2852   -0.0482 C   0  0  0  0  0  0  0  0  0  0  0  0
    1.8162   -0.9867    0.2726 O   0  0  0  0  0  0  0  0  0  0  0  0
    1.7634   -2.4354    0.1835 C   0  0  0  0  0  0  0  0  0  0  0  0
   -0.4565   -0.8715   -0.5155 C   0  0  0  0  0  0  0  0  0  0  0  0
   -1.5618   -0.0865   -0.7204 C   0  0  0  0  0  0  0  0  0  0  0  0
   -0.2028    3.0024    0.0759 H   0  0  0  0  0  0  0  0  0  0  0  0
    1.7857    1.5398    0.4669 H   0  0  0  0  0  0  0  0  0  0  0  0
    2.6762   -2.7779    0.6685 H   0  0  0  0  0  0  0  0  0  0  0  0
    1.7596   -2.7361   -0.8677 H   0  0  0  0  0  0  0  0  0  0  0  0
    0.8686   -2.8294    0.6798 H   0  0  0  0  0  0  0  0  0  0  0  0
   -0.6266   -1.9588   -0.5519 H   0  0  0  0  0  0  0  0  0  0  0  0
   -2.5038   -0.5509   -0.9922 H   0  0  0  0  0  0  0  0  0  0  0  0
   -1.8118   -3.3974    0.4732 Cl  0  0  0  0  0  0  0  0  0  0  0  0
  1  4  2  0  0  0  0
  2  1  1  0  0  0  0
  3  2  1  0  0  0  0
  4 11  1  0  0  0  0
  4  5  1  0  0  0  0
  5 12  1  0  0  0  0
  6  5  2  0  0  0  0
  6  7  1  0  0  0  0
  8  7  1  0  0  0  0
  8 13  1  0  0  0  0
  8 15  1  0  0  0  0
  9  6  1  0  0  0  0
 10  9  2  0  0  0  0
 10  1  1  0  0  0  0
 14  8  1  0  0  0  0
 16  9  1  0  0  0  0
 17 10  1  0  0  0  0
M  RAD  3   2   2   3   3  18   2
M  END
