Coordinates from ORCA-job 4-MeOPhN2+~Cl-_B3LYPG-6-31G_dp-NX-Scan-d89-09-n800
 OpenBabel11261920533D

 18 17  0  0  0  0  0  0  0  0999 V2000
   -1.4879    1.3695   -0.4930 C   0  0  0  0  0  0  0  0  0  0  0  0
   -2.5337    2.1750   -0.7408 N   0  0  0  0  0  0  0  0  0  0  0  0
   -3.4262    2.8318   -0.9662 N   0  0  0  0  0  0  0  0  0  0  0  0
   -0.2483    1.9508   -0.0972 C   0  0  0  0  0  0  0  0  0  0  0  0
    0.8034    1.1150    0.1608 C   0  0  0  0  0  0  0  0  0  0  0  0
    0.6546   -0.3000    0.0400 C   0  0  0  0  0  0  0  0  0  0  0  0
    1.7355   -0.9973    0.3243 O   0  0  0  0  0  0  0  0  0  0  0  0
    1.7466   -2.4415    0.1537 C   0  0  0  0  0  0  0  0  0  0  0  0
   -0.5851   -0.8699   -0.3563 C   0  0  0  0  0  0  0  0  0  0  0  0
   -1.6483   -0.0419   -0.6175 C   0  0  0  0  0  0  0  0  0  0  0  0
   -0.1548    3.0274   -0.0055 H   0  0  0  0  0  0  0  0  0  0  0  0
    1.7671    1.5054    0.4672 H   0  0  0  0  0  0  0  0  0  0  0  0
    2.6954   -2.7611    0.5813 H   0  0  0  0  0  0  0  0  0  0  0  0
    1.7110   -2.6727   -0.9138 H   0  0  0  0  0  0  0  0  0  0  0  0
    0.8860   -2.9184    0.6438 H   0  0  0  0  0  0  0  0  0  0  0  0
   -0.7581   -1.9671   -0.3577 H   0  0  0  0  0  0  0  0  0  0  0  0
   -2.6083   -0.4617   -0.8994 H   0  0  0  0  0  0  0  0  0  0  0  0
   -1.3034   -3.8944    0.3653 Cl  0  0  0  0  0  0  0  0  0  0  0  0
  1  4  1  0  0  0  0
  2  1  1  0  0  0  0
  3  2  1  0  0  0  0
  4 11  1  0  0  0  0
  4  5  2  0  0  0  0
  5 12  1  0  0  0  0
  6  5  1  0  0  0  0
  6  7  1  0  0  0  0
  8  7  1  0  0  0  0
  8 13  1  0  0  0  0
  8 15  1  0  0  0  0
  9  6  2  0  0  0  0
 10  1  2  0  0  0  0
 10  9  1  0  0  0  0
 14  8  1  0  0  0  0
 16  9  1  0  0  0  0
 17 10  1  0  0  0  0
M  RAD  3   2   2   3   3  18   2
M  END
