Coordinates from ORCA-job 4-MeOPhN2+~Cl-_B3LYPG-6-31G_dp-NX-Scan-d89-09-n800
 OpenBabel11261920533D

 18 18  0  0  0  0  0  0  0  0999 V2000
   -1.5881    0.9185   -0.2671 C   0  0  0  0  0  0  0  0  0  0  0  0
   -2.6875    1.8206   -0.3551 N   0  0  0  0  0  0  0  0  0  0  0  0
   -3.8900    1.4284   -0.6209 N   0  0  0  0  0  0  0  0  0  0  0  0
   -0.3927    1.6264    0.0162 C   0  0  0  0  0  0  0  0  0  0  0  0
    0.8256    0.9940    0.1561 C   0  0  0  0  0  0  0  0  0  0  0  0
    0.9078   -0.4028    0.0186 C   0  0  0  0  0  0  0  0  0  0  0  0
    2.1467   -0.9409    0.1743 O   0  0  0  0  0  0  0  0  0  0  0  0
    2.2937   -2.3488    0.0607 C   0  0  0  0  0  0  0  0  0  0  0  0
   -0.2524   -1.1331   -0.2606 C   0  0  0  0  0  0  0  0  0  0  0  0
   -1.4835   -0.4869   -0.4023 C   0  0  0  0  0  0  0  0  0  0  0  0
   -0.4739    2.7034    0.1220 H   0  0  0  0  0  0  0  0  0  0  0  0
    1.7316    1.5499    0.3736 H   0  0  0  0  0  0  0  0  0  0  0  0
    3.3514   -2.5552    0.2292 H   0  0  0  0  0  0  0  0  0  0  0  0
    2.0106   -2.7053   -0.9379 H   0  0  0  0  0  0  0  0  0  0  0  0
    1.6976   -2.8789    0.8139 H   0  0  0  0  0  0  0  0  0  0  0  0
   -0.2165   -2.2104   -0.3734 H   0  0  0  0  0  0  0  0  0  0  0  0
   -2.3437   -1.1016   -0.6167 H   0  0  0  0  0  0  0  0  0  0  0  0
   -4.3913    0.3716   -0.8416 Cl  0  0  0  0  0  0  0  0  0  0  0  0
  1  4  1  0  0  0  0
  2  1  1  0  0  0  0
  3  2  2  0  0  0  0
  4 11  1  0  0  0  0
  4  5  2  0  0  0  0
  5 12  1  0  0  0  0
  6  5  1  0  0  0  0
  6  7  1  0  0  0  0
  8  7  1  0  0  0  0
  8 13  1  0  0  0  0
  8 15  1  0  0  0  0
  9  6  2  0  0  0  0
 10  1  2  0  0  0  0
 10  9  1  0  0  0  0
 14  8  1  0  0  0  0
 16  9  1  0  0  0  0
 17 10  1  0  0  0  0
 18  3  1  0  0  0  0
M  END
