Coordinates from ORCA-job 4-MeOPhN2+~Cl-_B3LYPG-6-31G_dp-NX-Scan-d89-09-n800
 OpenBabel11261920533D

 18 17  0  0  0  0  0  0  0  0999 V2000
   -1.4505    1.0223   -0.2479 C   0  0  0  0  0  0  0  0  0  0  0  0
   -2.6406    1.7298   -0.3775 N   0  0  0  0  0  0  0  0  0  0  0  0
   -3.7702    1.7648   -0.5578 N   0  0  0  0  0  0  0  0  0  0  0  0
   -0.2675    1.7377    0.0108 C   0  0  0  0  0  0  0  0  0  0  0  0
    0.9135    1.0376    0.1404 C   0  0  0  0  0  0  0  0  0  0  0  0
    0.9191   -0.3696    0.0138 C   0  0  0  0  0  0  0  0  0  0  0  0
    2.1231   -0.9522    0.1606 O   0  0  0  0  0  0  0  0  0  0  0  0
    2.2270   -2.3735    0.0615 C   0  0  0  0  0  0  0  0  0  0  0  0
   -0.2760   -1.0664   -0.2463 C   0  0  0  0  0  0  0  0  0  0  0  0
   -1.4722   -0.3754   -0.3792 C   0  0  0  0  0  0  0  0  0  0  0  0
   -0.2950    2.8179    0.1062 H   0  0  0  0  0  0  0  0  0  0  0  0
    1.8515    1.5421    0.3413 H   0  0  0  0  0  0  0  0  0  0  0  0
    3.2795   -2.6031    0.2252 H   0  0  0  0  0  0  0  0  0  0  0  0
    1.9260   -2.7247   -0.9317 H   0  0  0  0  0  0  0  0  0  0  0  0
    1.6208   -2.8691    0.8276 H   0  0  0  0  0  0  0  0  0  0  0  0
   -0.2820   -2.1447   -0.3470 H   0  0  0  0  0  0  0  0  0  0  0  0
   -2.4251   -0.8693   -0.5798 H   0  0  0  0  0  0  0  0  0  0  0  0
   -4.7361   -0.6551   -0.9310 Cl  0  0  0  0  0  0  0  0  0  0  0  0
  1  4  1  0  0  0  0
  2  1  1  0  0  0  0
  3  2  2  0  0  0  0
  4 11  1  0  0  0  0
  4  5  2  0  0  0  0
  5 12  1  0  0  0  0
  6  5  1  0  0  0  0
  6  7  1  0  0  0  0
  8  7  1  0  0  0  0
  8 13  1  0  0  0  0
  8 15  1  0  0  0  0
  9  6  2  0  0  0  0
 10  1  2  0  0  0  0
 10  9  1  0  0  0  0
 14  8  1  0  0  0  0
 16  9  1  0  0  0  0
 17 10  1  0  0  0  0
M  RAD  2   3   2  18   2
M  END
