Coordinates from ORCA-job 4-MeOPhN2+~Cl-_B3LYPG-6-31G_dp-NX-Scan-d89-09-n800
 OpenBabel11261920533D

 18 17  0  0  0  0  0  0  0  0999 V2000
   -1.4830    0.9829   -0.2560 C   0  0  0  0  0  0  0  0  0  0  0  0
   -2.6579    1.7265   -0.3799 N   0  0  0  0  0  0  0  0  0  0  0  0
   -3.8051    1.6895   -0.5703 N   0  0  0  0  0  0  0  0  0  0  0  0
   -0.3024    1.7038    0.0021 C   0  0  0  0  0  0  0  0  0  0  0  0
    0.8922    1.0254    0.1357 C   0  0  0  0  0  0  0  0  0  0  0  0
    0.9211   -0.3791    0.0135 C   0  0  0  0  0  0  0  0  0  0  0  0
    2.1354   -0.9468    0.1628 O   0  0  0  0  0  0  0  0  0  0  0  0
    2.2547   -2.3650    0.0665 C   0  0  0  0  0  0  0  0  0  0  0  0
   -0.2640   -1.0908   -0.2456 C   0  0  0  0  0  0  0  0  0  0  0  0
   -1.4703   -0.4152   -0.3812 C   0  0  0  0  0  0  0  0  0  0  0  0
   -0.3468    2.7838    0.0943 H   0  0  0  0  0  0  0  0  0  0  0  0
    1.8210    1.5473    0.3360 H   0  0  0  0  0  0  0  0  0  0  0  0
    3.3096   -2.5843    0.2304 H   0  0  0  0  0  0  0  0  0  0  0  0
    1.9577   -2.7234   -0.9258 H   0  0  0  0  0  0  0  0  0  0  0  0
    1.6544   -2.8678    0.8331 H   0  0  0  0  0  0  0  0  0  0  0  0
   -0.2550   -2.1693   -0.3437 H   0  0  0  0  0  0  0  0  0  0  0  0
   -2.4004   -0.9369   -0.5805 H   0  0  0  0  0  0  0  0  0  0  0  0
   -4.7159   -0.3317   -0.9025 Cl  0  0  0  0  0  0  0  0  0  0  0  0
  1  4  1  0  0  0  0
  2  1  1  0  0  0  0
  3  2  2  0  0  0  0
  4 11  1  0  0  0  0
  4  5  2  0  0  0  0
  5 12  1  0  0  0  0
  6  5  1  0  0  0  0
  6  7  1  0  0  0  0
  8  7  1  0  0  0  0
  8 13  1  0  0  0  0
  8 15  1  0  0  0  0
  9  6  2  0  0  0  0
 10  1  2  0  0  0  0
 10  9  1  0  0  0  0
 14  8  1  0  0  0  0
 16  9  1  0  0  0  0
 17 10  1  0  0  0  0
M  RAD  2   3   2  18   2
M  END
