Coordinates from ORCA-job 4-MeOPhN2+~Cl-_B3LYPG-6-31G_dp-NX-Scan-d89-09-n800
 OpenBabel11261920533D

 18 17  0  0  0  0  0  0  0  0999 V2000
   -1.6066    1.0435   -0.4477 C   0  0  0  0  0  0  0  0  0  0  0  0
   -2.5316    1.8242   -1.0001 N   0  0  0  0  0  0  0  0  0  0  0  0
   -3.2377    2.5647   -1.4999 N   0  0  0  0  0  0  0  0  0  0  0  0
   -0.4900    1.6999    0.1857 C   0  0  0  0  0  0  0  0  0  0  0  0
    0.6257    0.9746    0.4486 C   0  0  0  0  0  0  0  0  0  0  0  0
    0.6972   -0.4114    0.0591 C   0  0  0  0  0  0  0  0  0  0  0  0
    1.9092   -0.9672    0.2774 O   0  0  0  0  0  0  0  0  0  0  0  0
    2.0766   -2.3558    0.0007 C   0  0  0  0  0  0  0  0  0  0  0  0
   -0.3851   -1.0570   -0.4869 C   0  0  0  0  0  0  0  0  0  0  0  0
   -1.6559   -0.4021   -0.5809 C   0  0  0  0  0  0  0  0  0  0  0  0
   -0.5536    2.7570    0.4189 H   0  0  0  0  0  0  0  0  0  0  0  0
    1.4926    1.4168    0.9259 H   0  0  0  0  0  0  0  0  0  0  0  0
    3.1002   -2.5955    0.2886 H   0  0  0  0  0  0  0  0  0  0  0  0
    1.9382   -2.5662   -1.0666 H   0  0  0  0  0  0  0  0  0  0  0  0
    1.3762   -2.9608    0.5865 H   0  0  0  0  0  0  0  0  0  0  0  0
   -0.3506   -2.1077   -0.7395 H   0  0  0  0  0  0  0  0  0  0  0  0
   -2.3966   -0.8093   -1.2557 H   0  0  0  0  0  0  0  0  0  0  0  0
   -2.7628   -1.3986    1.1748 Cl  0  0  0  0  0  0  0  0  0  0  0  0
  1  4  2  0  0  0  0
  2  1  1  0  0  0  0
  3  2  1  0  0  0  0
  4 11  1  0  0  0  0
  4  5  1  0  0  0  0
  5 12  1  0  0  0  0
  6  7  1  0  0  0  0
  6  5  2  0  0  0  0
  8  7  1  0  0  0  0
  8 13  1  0  0  0  0
  8 15  1  0  0  0  0
  9  6  1  0  0  0  0
 10  9  2  0  0  0  0
 10  1  1  0  0  0  0
 14  8  1  0  0  0  0
 16  9  1  0  0  0  0
 17 10  1  0  0  0  0
M  RAD  3   2   2   3   3  18   2
M  END
