Coordinates from ORCA-job 4-MeOPhN2+~Cl-_B3LYPG-6-31G_dp-NX-Scan-d89-09-n800
 OpenBabel11261920443D

 18 17  0  0  0  0  0  0  0  0999 V2000
   -1.4553   -0.0375   -0.0418 C   0  0  0  0  0  0  0  0  0  0  0  0
   -2.8176   -0.0730    0.0560 N   0  0  0  0  0  0  0  0  0  0  0  0
   -3.9333   -0.0987    0.1364 N   0  0  0  0  0  0  0  0  0  0  0  0
   -0.8021    1.2195   -0.0012 C   0  0  0  0  0  0  0  0  0  0  0  0
    0.5662    1.2357   -0.0996 C   0  0  0  0  0  0  0  0  0  0  0  0
    1.2943    0.0237   -0.2374 C   0  0  0  0  0  0  0  0  0  0  0  0
    2.6091    0.1627   -0.3218 O   0  0  0  0  0  0  0  0  0  0  0  0
    3.4633   -0.9893   -0.4619 C   0  0  0  0  0  0  0  0  0  0  0  0
    0.6166   -1.2207   -0.2759 C   0  0  0  0  0  0  0  0  0  0  0  0
   -0.7577   -1.2571   -0.1785 C   0  0  0  0  0  0  0  0  0  0  0  0
   -1.3744    2.1369    0.1054 H   0  0  0  0  0  0  0  0  0  0  0  0
    1.1183    2.1695   -0.0738 H   0  0  0  0  0  0  0  0  0  0  0  0
    4.4753   -0.5909   -0.5018 H   0  0  0  0  0  0  0  0  0  0  0  0
    3.2381   -1.5245   -1.3891 H   0  0  0  0  0  0  0  0  0  0  0  0
    3.3582   -1.6528    0.4016 H   0  0  0  0  0  0  0  0  0  0  0  0
    1.1629   -2.1512   -0.3813 H   0  0  0  0  0  0  0  0  0  0  0  0
   -1.2973   -2.2007   -0.2057 H   0  0  0  0  0  0  0  0  0  0  0  0
  -12.2193   -0.5026    0.7595 Cl  0  0  0  0  0  0  0  0  0  0  0  0
  1  4  1  0  0  0  0
  1  2  1  0  0  0  0
  2  3  1  0  0  0  0
  4 11  1  0  0  0  0
  5 12  1  0  0  0  0
  5  4  2  0  0  0  0
  6  5  1  0  0  0  0
  7  6  1  0  0  0  0
  8  7  1  0  0  0  0
  8 15  1  0  0  0  0
  9  6  2  0  0  0  0
  9 10  1  0  0  0  0
 10  1  2  0  0  0  0
 13  8  1  0  0  0  0
 14  8  1  0  0  0  0
 16  9  1  0  0  0  0
 17 10  1  0  0  0  0
M  RAD  3   2   2   3   3  18   2
M  END
