Coordinates from ORCA-job 4-MeOPhN2+~Cl-_B3LYPG-6-31G_dp-NX-Scan-d89-09-n800
 OpenBabel11261920533D

 18 18  0  0  0  0  0  0  0  0999 V2000
   -1.5620    0.9256   -0.4136 C   0  0  0  0  0  0  0  0  0  0  0  0
   -2.6669    1.7918   -0.6852 N   0  0  0  0  0  0  0  0  0  0  0  0
   -3.8845    1.4186   -0.5147 N   0  0  0  0  0  0  0  0  0  0  0  0
   -0.3995    1.6340   -0.0382 C   0  0  0  0  0  0  0  0  0  0  0  0
    0.7991    0.9887    0.2031 C   0  0  0  0  0  0  0  0  0  0  0  0
    0.8923   -0.4030    0.0327 C   0  0  0  0  0  0  0  0  0  0  0  0
    2.1119   -0.9501    0.2855 O   0  0  0  0  0  0  0  0  0  0  0  0
    2.2712   -2.3521    0.1263 C   0  0  0  0  0  0  0  0  0  0  0  0
   -0.2344   -1.1221   -0.3846 C   0  0  0  0  0  0  0  0  0  0  0  0
   -1.4499   -0.4670   -0.5935 C   0  0  0  0  0  0  0  0  0  0  0  0
   -0.4775    2.7122    0.0598 H   0  0  0  0  0  0  0  0  0  0  0  0
    1.6855    1.5354    0.5075 H   0  0  0  0  0  0  0  0  0  0  0  0
    3.3085   -2.5682    0.3851 H   0  0  0  0  0  0  0  0  0  0  0  0
    2.0845   -2.6651   -0.9089 H   0  0  0  0  0  0  0  0  0  0  0  0
    1.6073   -2.9125    0.7962 H   0  0  0  0  0  0  0  0  0  0  0  0
   -0.1826   -2.1921   -0.5479 H   0  0  0  0  0  0  0  0  0  0  0  0
   -2.2897   -1.0598   -0.9301 H   0  0  0  0  0  0  0  0  0  0  0  0
   -4.3678    0.3347   -0.0902 Cl  0  0  0  0  0  0  0  0  0  0  0  0
  1  4  1  0  0  0  0
  2  3  2  0  0  0  0
  2  1  1  0  0  0  0
  3 18  1  0  0  0  0
  4 11  1  0  0  0  0
  4  5  2  0  0  0  0
  5 12  1  0  0  0  0
  6  5  1  0  0  0  0
  6  7  1  0  0  0  0
  8  7  1  0  0  0  0
  8 13  1  0  0  0  0
  8 15  1  0  0  0  0
  9  6  2  0  0  0  0
 10  1  2  0  0  0  0
 10  9  1  0  0  0  0
 14  8  1  0  0  0  0
 16  9  1  0  0  0  0
 17 10  1  0  0  0  0
M  END
