Coordinates from ORCA-job 4-MeOPhN2+~Cl-_B3LYPG-6-31G_dp-NX-Scan-d89-09-n800
 OpenBabel11261920533D

 18 17  0  0  0  0  0  0  0  0999 V2000
   -1.4944    1.3773   -0.4944 C   0  0  0  0  0  0  0  0  0  0  0  0
   -2.5245    2.1968   -0.7637 N   0  0  0  0  0  0  0  0  0  0  0  0
   -3.3921    2.8820   -1.0042 N   0  0  0  0  0  0  0  0  0  0  0  0
   -0.2515    1.9520   -0.0981 C   0  0  0  0  0  0  0  0  0  0  0  0
    0.7929    1.1110    0.1694 C   0  0  0  0  0  0  0  0  0  0  0  0
    0.6383   -0.3040    0.0545 C   0  0  0  0  0  0  0  0  0  0  0  0
    1.7215   -0.9992    0.3319 O   0  0  0  0  0  0  0  0  0  0  0  0
    1.7456   -2.4410    0.1466 C   0  0  0  0  0  0  0  0  0  0  0  0
   -0.6081   -0.8705   -0.3313 C   0  0  0  0  0  0  0  0  0  0  0  0
   -1.6646   -0.0353   -0.6025 C   0  0  0  0  0  0  0  0  0  0  0  0
   -0.1497    3.0286   -0.0163 H   0  0  0  0  0  0  0  0  0  0  0  0
    1.7590    1.4969    0.4738 H   0  0  0  0  0  0  0  0  0  0  0  0
    2.7027   -2.7550    0.5598 H   0  0  0  0  0  0  0  0  0  0  0  0
    1.6989   -2.6610   -0.9227 H   0  0  0  0  0  0  0  0  0  0  0  0
    0.8944   -2.9332    0.6395 H   0  0  0  0  0  0  0  0  0  0  0  0
   -0.7817   -1.9668   -0.3291 H   0  0  0  0  0  0  0  0  0  0  0  0
   -2.6274   -0.4490   -0.8839 H   0  0  0  0  0  0  0  0  0  0  0  0
   -1.2138   -3.9806    0.3599 Cl  0  0  0  0  0  0  0  0  0  0  0  0
  1  4  1  0  0  0  0
  2  1  1  0  0  0  0
  3  2  1  0  0  0  0
  4 11  1  0  0  0  0
  4  5  2  0  0  0  0
  5 12  1  0  0  0  0
  6  5  1  0  0  0  0
  6  7  1  0  0  0  0
  8  7  1  0  0  0  0
  8 13  1  0  0  0  0
  8 15  1  0  0  0  0
  9 16  1  0  0  0  0
  9  6  2  0  0  0  0
 10  1  2  0  0  0  0
 10  9  1  0  0  0  0
 14  8  1  0  0  0  0
 17 10  1  0  0  0  0
M  RAD  3   2   2   3   3  18   2
M  END
