Coordinates from ORCA-job 4-MeOPhN2+~Cl-_B3LYPG-6-31G_dp-NX-Scan-d89-09-n800
 OpenBabel11261920443D

 18 17  0  0  0  0  0  0  0  0999 V2000
   -1.4702   -0.0291   -0.0413 C   0  0  0  0  0  0  0  0  0  0  0  0
   -2.8323   -0.0608    0.0554 N   0  0  0  0  0  0  0  0  0  0  0  0
   -3.9479   -0.0833    0.1350 N   0  0  0  0  0  0  0  0  0  0  0  0
   -0.8137    1.2263   -0.0005 C   0  0  0  0  0  0  0  0  0  0  0  0
    0.5547    1.2391   -0.0984 C   0  0  0  0  0  0  0  0  0  0  0  0
    1.2798    0.0252   -0.2359 C   0  0  0  0  0  0  0  0  0  0  0  0
    2.5950    0.1611   -0.3202 O   0  0  0  0  0  0  0  0  0  0  0  0
    3.4462   -0.9930   -0.4603 C   0  0  0  0  0  0  0  0  0  0  0  0
    0.5990   -1.2174   -0.2745 C   0  0  0  0  0  0  0  0  0  0  0  0
   -0.7756   -1.2504   -0.1776 C   0  0  0  0  0  0  0  0  0  0  0  0
   -1.3836    2.1449    0.1057 H   0  0  0  0  0  0  0  0  0  0  0  0
    1.1092    2.1712   -0.0725 H   0  0  0  0  0  0  0  0  0  0  0  0
    4.4592   -0.5970   -0.5003 H   0  0  0  0  0  0  0  0  0  0  0  0
    3.2197   -1.5277   -1.3875 H   0  0  0  0  0  0  0  0  0  0  0  0
    3.3396   -1.6561    0.4032 H   0  0  0  0  0  0  0  0  0  0  0  0
    1.1431   -2.1489   -0.3797 H   0  0  0  0  0  0  0  0  0  0  0  0
   -1.3174   -2.1923   -0.2049 H   0  0  0  0  0  0  0  0  0  0  0  0
  -11.9594   -0.5627    0.7435 Cl  0  0  0  0  0  0  0  0  0  0  0  0
  1  4  1  0  0  0  0
  1  2  1  0  0  0  0
  2  3  1  0  0  0  0
  4 11  1  0  0  0  0
  5 12  1  0  0  0  0
  5  4  2  0  0  0  0
  6  5  1  0  0  0  0
  7  6  1  0  0  0  0
  8  7  1  0  0  0  0
  8 15  1  0  0  0  0
  9  6  2  0  0  0  0
  9 10  1  0  0  0  0
 10  1  2  0  0  0  0
 13  8  1  0  0  0  0
 14  8  1  0  0  0  0
 16  9  1  0  0  0  0
 17 10  1  0  0  0  0
M  RAD  3   2   2   3   3  18   2
M  END
