Coordinates from ORCA-job 4-MeOPhN2+~Cl-_B3LYPG-6-31G_dp-NX-Scan-d89-09-n800
 OpenBabel11261920533D

 18 17  0  0  0  0  0  0  0  0999 V2000
   -1.4704    0.9963   -0.2524 C   0  0  0  0  0  0  0  0  0  0  0  0
   -2.6533    1.7244   -0.3788 N   0  0  0  0  0  0  0  0  0  0  0  0
   -3.7935    1.7052   -0.5669 N   0  0  0  0  0  0  0  0  0  0  0  0
   -0.2897    1.7159    0.0053 C   0  0  0  0  0  0  0  0  0  0  0  0
    0.9003    1.0297    0.1372 C   0  0  0  0  0  0  0  0  0  0  0  0
    0.9211   -0.3758    0.0141 C   0  0  0  0  0  0  0  0  0  0  0  0
    2.1321   -0.9486    0.1620 O   0  0  0  0  0  0  0  0  0  0  0  0
    2.2462   -2.3678    0.0645 C   0  0  0  0  0  0  0  0  0  0  0  0
   -0.2675   -1.0827   -0.2444 C   0  0  0  0  0  0  0  0  0  0  0  0
   -1.4701   -0.4014   -0.3789 C   0  0  0  0  0  0  0  0  0  0  0  0
   -0.3281    2.7960    0.0982 H   0  0  0  0  0  0  0  0  0  0  0  0
    1.8325    1.5455    0.3371 H   0  0  0  0  0  0  0  0  0  0  0  0
    3.3004   -2.5906    0.2274 H   0  0  0  0  0  0  0  0  0  0  0  0
    1.9471   -2.7236   -0.9280 H   0  0  0  0  0  0  0  0  0  0  0  0
    1.6445   -2.8683    0.8313 H   0  0  0  0  0  0  0  0  0  0  0  0
   -0.2637   -2.1612   -0.3430 H   0  0  0  0  0  0  0  0  0  0  0  0
   -2.4093   -0.9106   -0.5783 H   0  0  0  0  0  0  0  0  0  0  0  0
   -4.7331   -0.4332   -0.9174 Cl  0  0  0  0  0  0  0  0  0  0  0  0
  1  4  1  0  0  0  0
  2  1  1  0  0  0  0
  3  2  2  0  0  0  0
  4 11  1  0  0  0  0
  4  5  2  0  0  0  0
  5 12  1  0  0  0  0
  6  5  1  0  0  0  0
  6  7  1  0  0  0  0
  8  7  1  0  0  0  0
  8 13  1  0  0  0  0
  8 15  1  0  0  0  0
  9  6  2  0  0  0  0
 10  1  2  0  0  0  0
 10  9  1  0  0  0  0
 14  8  1  0  0  0  0
 16  9  1  0  0  0  0
 17 10  1  0  0  0  0
M  RAD  2   3   2  18   2
M  END
