Coordinates from ORCA-job 4-MeOPhN2+~Cl-_B3LYPG-6-31G_dp-NX-Scan-d89-09-n800
 OpenBabel11261920443D

 18 17  0  0  0  0  0  0  0  0999 V2000
   -1.4247   -0.0502   -0.0414 C   0  0  0  0  0  0  0  0  0  0  0  0
   -2.7877   -0.0909    0.0575 N   0  0  0  0  0  0  0  0  0  0  0  0
   -3.9034   -0.1212    0.1385 N   0  0  0  0  0  0  0  0  0  0  0  0
   -0.7763    1.2093   -0.0015 C   0  0  0  0  0  0  0  0  0  0  0  0
    0.5916    1.2306   -0.1012 C   0  0  0  0  0  0  0  0  0  0  0  0
    1.3241    0.0211   -0.2395 C   0  0  0  0  0  0  0  0  0  0  0  0
    2.6383    0.1649   -0.3252 O   0  0  0  0  0  0  0  0  0  0  0  0
    3.4967   -0.9840   -0.4663 C   0  0  0  0  0  0  0  0  0  0  0  0
    0.6509   -1.2259   -0.2771 C   0  0  0  0  0  0  0  0  0  0  0  0
   -0.7229   -1.2672   -0.1784 C   0  0  0  0  0  0  0  0  0  0  0  0
   -1.3522    2.1251    0.1054 H   0  0  0  0  0  0  0  0  0  0  0  0
    1.1402    2.1668   -0.0761 H   0  0  0  0  0  0  0  0  0  0  0  0
    4.5073   -0.5819   -0.5074 H   0  0  0  0  0  0  0  0  0  0  0  0
    3.2724   -1.5201   -1.3932 H   0  0  0  0  0  0  0  0  0  0  0  0
    3.3949   -1.6478    0.3973 H   0  0  0  0  0  0  0  0  0  0  0  0
    1.2005   -2.1549   -0.3829 H   0  0  0  0  0  0  0  0  0  0  0  0
   -1.2594   -2.2134   -0.2051 H   0  0  0  0  0  0  0  0  0  0  0  0
  -12.7450   -0.4112    0.7857 Cl  0  0  0  0  0  0  0  0  0  0  0  0
  1  4  1  0  0  0  0
  1  2  1  0  0  0  0
  2  3  1  0  0  0  0
  4 11  1  0  0  0  0
  5 12  1  0  0  0  0
  5  4  2  0  0  0  0
  6  5  1  0  0  0  0
  7  6  1  0  0  0  0
  8  7  1  0  0  0  0
  8 15  1  0  0  0  0
  9  6  2  0  0  0  0
  9 10  1  0  0  0  0
 10  1  2  0  0  0  0
 13  8  1  0  0  0  0
 14  8  1  0  0  0  0
 16  9  1  0  0  0  0
 17 10  1  0  0  0  0
M  RAD  3   2   2   3   3  18   2
M  END
