Coordinates from ORCA-job 4-MeOPhN2+~Cl-_B3LYPG-6-31G_dp-NX-Scan-d89-09-n800
 OpenBabel11261920533D

 18 17  0  0  0  0  0  0  0  0999 V2000
   -1.4984    1.3805   -0.4956 C   0  0  0  0  0  0  0  0  0  0  0  0
   -2.5196    2.2078   -0.7758 N   0  0  0  0  0  0  0  0  0  0  0  0
   -3.3717    2.9103   -1.0231 N   0  0  0  0  0  0  0  0  0  0  0  0
   -0.2543    1.9521   -0.0973 C   0  0  0  0  0  0  0  0  0  0  0  0
    0.7867    1.1090    0.1751 C   0  0  0  0  0  0  0  0  0  0  0  0
    0.6299   -0.3058    0.0612 C   0  0  0  0  0  0  0  0  0  0  0  0
    1.7139   -1.0005    0.3354 O   0  0  0  0  0  0  0  0  0  0  0  0
    1.7448   -2.4407    0.1413 C   0  0  0  0  0  0  0  0  0  0  0  0
   -0.6191   -0.8704   -0.3214 C   0  0  0  0  0  0  0  0  0  0  0  0
   -1.6730   -0.0325   -0.5971 C   0  0  0  0  0  0  0  0  0  0  0  0
   -0.1492    3.0286   -0.0192 H   0  0  0  0  0  0  0  0  0  0  0  0
    1.7535    1.4930    0.4799 H   0  0  0  0  0  0  0  0  0  0  0  0
    2.7060   -2.7516    0.5471 H   0  0  0  0  0  0  0  0  0  0  0  0
    1.6930   -2.6544   -0.9291 H   0  0  0  0  0  0  0  0  0  0  0  0
    0.8990   -2.9421    0.6352 H   0  0  0  0  0  0  0  0  0  0  0  0
   -0.7888   -1.9661   -0.3182 H   0  0  0  0  0  0  0  0  0  0  0  0
   -2.6367   -0.4435   -0.8791 H   0  0  0  0  0  0  0  0  0  0  0  0
   -1.1707   -4.0248    0.3696 Cl  0  0  0  0  0  0  0  0  0  0  0  0
  1  4  1  0  0  0  0
  2  1  1  0  0  0  0
  3  2  1  0  0  0  0
  4 11  1  0  0  0  0
  4  5  2  0  0  0  0
  5 12  1  0  0  0  0
  6  5  1  0  0  0  0
  6  7  1  0  0  0  0
  8  7  1  0  0  0  0
  8 13  1  0  0  0  0
  8 15  1  0  0  0  0
  9 16  1  0  0  0  0
  9  6  2  0  0  0  0
 10  1  2  0  0  0  0
 10  9  1  0  0  0  0
 14  8  1  0  0  0  0
 17 10  1  0  0  0  0
M  RAD  3   2   2   3   3  18   2
M  END
