Coordinates from ORCA-job 4-MeOPhN2+~Cl-_B3LYPG-6-31G_dp-NX-Scan-d89-09-n800
 OpenBabel11261920443D

 18 17  0  0  0  0  0  0  0  0999 V2000
   -1.4514   -0.0396   -0.0414 C   0  0  0  0  0  0  0  0  0  0  0  0
   -2.8138   -0.0758    0.0563 N   0  0  0  0  0  0  0  0  0  0  0  0
   -3.9295   -0.1021    0.1366 N   0  0  0  0  0  0  0  0  0  0  0  0
   -0.7989    1.2179   -0.0010 C   0  0  0  0  0  0  0  0  0  0  0  0
    0.5693    1.2349   -0.0996 C   0  0  0  0  0  0  0  0  0  0  0  0
    1.2981    0.0233   -0.2375 C   0  0  0  0  0  0  0  0  0  0  0  0
    2.6128    0.1631   -0.3223 O   0  0  0  0  0  0  0  0  0  0  0  0
    3.4676   -0.9884   -0.4628 C   0  0  0  0  0  0  0  0  0  0  0  0
    0.6211   -1.2215   -0.2757 C   0  0  0  0  0  0  0  0  0  0  0  0
   -0.7531   -1.2588   -0.1780 C   0  0  0  0  0  0  0  0  0  0  0  0
   -1.3718    2.1350    0.1056 H   0  0  0  0  0  0  0  0  0  0  0  0
    1.1209    2.1691   -0.0740 H   0  0  0  0  0  0  0  0  0  0  0  0
    4.4794   -0.5894   -0.5031 H   0  0  0  0  0  0  0  0  0  0  0  0
    3.2424   -1.5238   -1.3899 H   0  0  0  0  0  0  0  0  0  0  0  0
    3.3632   -1.6519    0.4007 H   0  0  0  0  0  0  0  0  0  0  0  0
    1.1679   -2.1518   -0.3812 H   0  0  0  0  0  0  0  0  0  0  0  0
   -1.2922   -2.2027   -0.2052 H   0  0  0  0  0  0  0  0  0  0  0  0
  -12.2866   -0.4885    0.7614 Cl  0  0  0  0  0  0  0  0  0  0  0  0
  1  4  1  0  0  0  0
  1  2  1  0  0  0  0
  2  3  1  0  0  0  0
  4 11  1  0  0  0  0
  5 12  1  0  0  0  0
  5  4  2  0  0  0  0
  6  5  1  0  0  0  0
  7  6  1  0  0  0  0
  8  7  1  0  0  0  0
  8 15  1  0  0  0  0
  9  6  2  0  0  0  0
  9 10  1  0  0  0  0
 10  1  2  0  0  0  0
 13  8  1  0  0  0  0
 14  8  1  0  0  0  0
 16  9  1  0  0  0  0
 17 10  1  0  0  0  0
M  RAD  3   2   2   3   3  18   2
M  END
