Coordinates from ORCA-job 4-MeOPhN2+~Cl-_B3LYPG-6-31G_dp-NX-Scan-d89-09-n800
 OpenBabel11261920533D

 18 17  0  0  0  0  0  0  0  0999 V2000
   -1.4871    1.3693   -0.4931 C   0  0  0  0  0  0  0  0  0  0  0  0
   -2.5344    2.1734   -0.7390 N   0  0  0  0  0  0  0  0  0  0  0  0
   -3.4292    2.8274   -0.9631 N   0  0  0  0  0  0  0  0  0  0  0  0
   -0.2478    1.9509   -0.0973 C   0  0  0  0  0  0  0  0  0  0  0  0
    0.8042    1.1153    0.1600 C   0  0  0  0  0  0  0  0  0  0  0  0
    0.6558   -0.2997    0.0389 C   0  0  0  0  0  0  0  0  0  0  0  0
    1.7365   -0.9971    0.3238 O   0  0  0  0  0  0  0  0  0  0  0  0
    1.7463   -2.4415    0.1545 C   0  0  0  0  0  0  0  0  0  0  0  0
   -0.5835   -0.8698   -0.3581 C   0  0  0  0  0  0  0  0  0  0  0  0
   -1.6469   -0.0421   -0.6188 C   0  0  0  0  0  0  0  0  0  0  0  0
   -0.1547    3.0274   -0.0048 H   0  0  0  0  0  0  0  0  0  0  0  0
    1.7679    1.5059    0.4666 H   0  0  0  0  0  0  0  0  0  0  0  0
    2.6945   -2.7619    0.5831 H   0  0  0  0  0  0  0  0  0  0  0  0
    1.7114   -2.6735   -0.9129 H   0  0  0  0  0  0  0  0  0  0  0  0
    0.8848   -2.9167    0.6443 H   0  0  0  0  0  0  0  0  0  0  0  0
   -0.7576   -1.9669   -0.3597 H   0  0  0  0  0  0  0  0  0  0  0  0
   -2.6069   -0.4622   -0.9006 H   0  0  0  0  0  0  0  0  0  0  0  0
   -1.3078   -3.8892    0.3652 Cl  0  0  0  0  0  0  0  0  0  0  0  0
  1  4  1  0  0  0  0
  2  1  1  0  0  0  0
  3  2  1  0  0  0  0
  4 11  1  0  0  0  0
  4  5  2  0  0  0  0
  5 12  1  0  0  0  0
  6  5  1  0  0  0  0
  6  7  1  0  0  0  0
  8  7  1  0  0  0  0
  8 13  1  0  0  0  0
  8 15  1  0  0  0  0
  9  6  2  0  0  0  0
 10  1  2  0  0  0  0
 10  9  1  0  0  0  0
 14  8  1  0  0  0  0
 16  9  1  0  0  0  0
 17 10  1  0  0  0  0
M  RAD  3   2   2   3   3  18   2
M  END
