Coordinates from ORCA-job 4-MeOPhN2+~Cl-_B3LYPG-6-31G_dp-NX-Scan-d89-09-n800
 OpenBabel11261920533D

 18 18  0  0  0  0  0  0  0  0999 V2000
   -1.5281    0.9467   -0.3611 C   0  0  0  0  0  0  0  0  0  0  0  0
   -2.6507    1.7729   -0.5541 N   0  0  0  0  0  0  0  0  0  0  0  0
   -3.8544    1.6047   -0.5838 N   0  0  0  0  0  0  0  0  0  0  0  0
   -0.3560    1.6611   -0.0352 C   0  0  0  0  0  0  0  0  0  0  0  0
    0.8418    1.0052    0.1719 C   0  0  0  0  0  0  0  0  0  0  0  0
    0.9082   -0.3918    0.0217 C   0  0  0  0  0  0  0  0  0  0  0  0
    2.1236   -0.9479    0.2375 O   0  0  0  0  0  0  0  0  0  0  0  0
    2.2650   -2.3588    0.1119 C   0  0  0  0  0  0  0  0  0  0  0  0
   -0.2432   -1.1084   -0.3401 C   0  0  0  0  0  0  0  0  0  0  0  0
   -1.4556   -0.4485   -0.5228 C   0  0  0  0  0  0  0  0  0  0  0  0
   -0.4233    2.7400    0.0578 H   0  0  0  0  0  0  0  0  0  0  0  0
    1.7446    1.5434    0.4388 H   0  0  0  0  0  0  0  0  0  0  0  0
    3.3087   -2.5750    0.3413 H   0  0  0  0  0  0  0  0  0  0  0  0
    2.0403   -2.6953   -0.9074 H   0  0  0  0  0  0  0  0  0  0  0  0
    1.6196   -2.8906    0.8208 H   0  0  0  0  0  0  0  0  0  0  0  0
   -0.2076   -2.1818   -0.4815 H   0  0  0  0  0  0  0  0  0  0  0  0
   -2.3286   -1.0169   -0.8050 H   0  0  0  0  0  0  0  0  0  0  0  0
   -4.5591   -0.0099   -0.3216 Cl  0  0  0  0  0  0  0  0  0  0  0  0
  1  4  1  0  0  0  0
  2  1  1  0  0  0  0
  3  2  2  0  0  0  0
  3 18  1  0  0  0  0
  4 11  1  0  0  0  0
  4  5  2  0  0  0  0
  5 12  1  0  0  0  0
  6  5  1  0  0  0  0
  6  7  1  0  0  0  0
  8  7  1  0  0  0  0
  8 13  1  0  0  0  0
  8 15  1  0  0  0  0
  9  6  2  0  0  0  0
 10  1  2  0  0  0  0
 10  9  1  0  0  0  0
 14  8  1  0  0  0  0
 16  9  1  0  0  0  0
 17 10  1  0  0  0  0
M  END
