Coordinates from ORCA-job 4-MeOPhN2+~Cl-_B3LYPG-6-31G_dp-NX-Scan-d89-09-n800
 OpenBabel11261920533D

 18 17  0  0  0  0  0  0  0  0999 V2000
   -1.4839    1.1862   -0.4766 C   0  0  0  0  0  0  0  0  0  0  0  0
   -2.5844    1.9215   -0.7319 N   0  0  0  0  0  0  0  0  0  0  0  0
   -3.4987    2.5503   -0.9340 N   0  0  0  0  0  0  0  0  0  0  0  0
   -0.2971    1.8631   -0.0575 C   0  0  0  0  0  0  0  0  0  0  0  0
    0.8213    1.1106    0.1732 C   0  0  0  0  0  0  0  0  0  0  0  0
    0.7873   -0.3061    0.0075 C   0  0  0  0  0  0  0  0  0  0  0  0
    1.9410   -0.9307    0.2672 O   0  0  0  0  0  0  0  0  0  0  0  0
    1.9858   -2.3639    0.1843 C   0  0  0  0  0  0  0  0  0  0  0  0
   -0.3935   -0.9520   -0.3834 C   0  0  0  0  0  0  0  0  0  0  0  0
   -1.5428   -0.2223   -0.6372 C   0  0  0  0  0  0  0  0  0  0  0  0
   -0.2986    2.9383    0.0828 H   0  0  0  0  0  0  0  0  0  0  0  0
    1.7483    1.5687    0.4990 H   0  0  0  0  0  0  0  0  0  0  0  0
    3.0025   -2.6379    0.4628 H   0  0  0  0  0  0  0  0  0  0  0  0
    1.7750   -2.7009   -0.8354 H   0  0  0  0  0  0  0  0  0  0  0  0
    1.2709   -2.8165    0.8773 H   0  0  0  0  0  0  0  0  0  0  0  0
   -0.5033   -2.0300   -0.4381 H   0  0  0  0  0  0  0  0  0  0  0  0
   -2.4532   -0.7761   -0.8814 H   0  0  0  0  0  0  0  0  0  0  0  0
   -3.0314   -2.7534    0.1105 Cl  0  0  0  0  0  0  0  0  0  0  0  0
  1  4  1  0  0  0  0
  2  1  1  0  0  0  0
  3  2  1  0  0  0  0
  4 11  1  0  0  0  0
  4  5  2  0  0  0  0
  5 12  1  0  0  0  0
  6  5  1  0  0  0  0
  6  7  1  0  0  0  0
  8  7  1  0  0  0  0
  8 13  1  0  0  0  0
  8 15  1  0  0  0  0
  9  6  2  0  0  0  0
 10  1  2  0  0  0  0
 10  9  1  0  0  0  0
 14  8  1  0  0  0  0
 16  9  1  0  0  0  0
 17 10  1  0  0  0  0
M  RAD  3   2   2   3   3  18   2
M  END
