Coordinates from ORCA-job 4-MeOPhN2+~Cl-_B3LYPG-6-31G_dp-NX-Scan-d89-09-n800
 OpenBabel11261920533D

 18 18  0  0  0  0  0  0  0  0999 V2000
   -1.5489    0.9258   -0.4619 C   0  0  0  0  0  0  0  0  0  0  0  0
   -2.6676    1.7502   -0.7844 N   0  0  0  0  0  0  0  0  0  0  0  0
   -3.8700    1.4661   -0.5220 N   0  0  0  0  0  0  0  0  0  0  0  0
   -0.4043    1.6398   -0.0560 C   0  0  0  0  0  0  0  0  0  0  0  0
    0.7854    0.9881    0.2167 C   0  0  0  0  0  0  0  0  0  0  0  0
    0.8823   -0.4019    0.0344 C   0  0  0  0  0  0  0  0  0  0  0  0
    2.0943   -0.9511    0.3137 O   0  0  0  0  0  0  0  0  0  0  0  0
    2.2586   -2.3522    0.1471 C   0  0  0  0  0  0  0  0  0  0  0  0
   -0.2312   -1.1182   -0.4246 C   0  0  0  0  0  0  0  0  0  0  0  0
   -1.4391   -0.4599   -0.6579 C   0  0  0  0  0  0  0  0  0  0  0  0
   -0.4817    2.7175    0.0466 H   0  0  0  0  0  0  0  0  0  0  0  0
    1.6635    1.5302    0.5513 H   0  0  0  0  0  0  0  0  0  0  0  0
    3.2885   -2.5696    0.4326 H   0  0  0  0  0  0  0  0  0  0  0  0
    2.1010   -2.6562   -0.8954 H   0  0  0  0  0  0  0  0  0  0  0  0
    1.5770   -2.9179    0.7941 H   0  0  0  0  0  0  0  0  0  0  0  0
   -0.1723   -2.1852   -0.6031 H   0  0  0  0  0  0  0  0  0  0  0  0
   -2.2776   -1.0363   -1.0282 H   0  0  0  0  0  0  0  0  0  0  0  0
   -4.3125    0.2799    0.1861 Cl  0  0  0  0  0  0  0  0  0  0  0  0
  1  4  1  0  0  0  0
  2  3  2  0  0  0  0
  2  1  1  0  0  0  0
  3 18  1  0  0  0  0
  4 11  1  0  0  0  0
  4  5  2  0  0  0  0
  5 12  1  0  0  0  0
  6  5  1  0  0  0  0
  6  7  1  0  0  0  0
  8  7  1  0  0  0  0
  8 13  1  0  0  0  0
  8 15  1  0  0  0  0
  9  6  2  0  0  0  0
 10  1  2  0  0  0  0
 10  9  1  0  0  0  0
 14  8  1  0  0  0  0
 16  9  1  0  0  0  0
 17 10  1  0  0  0  0
M  END
