Coordinates from ORCA-job 4-MeOPhN2+~Cl-_B3LYPG-6-31G_dp-NX-Scan-d89-09-n800
 OpenBabel11261920533D

 18 17  0  0  0  0  0  0  0  0999 V2000
   -1.4826    1.2062   -0.4560 C   0  0  0  0  0  0  0  0  0  0  0  0
   -2.5827    1.9475   -0.7007 N   0  0  0  0  0  0  0  0  0  0  0  0
   -3.4958    2.5795   -0.8954 N   0  0  0  0  0  0  0  0  0  0  0  0
   -0.2785    1.8811   -0.0890 C   0  0  0  0  0  0  0  0  0  0  0  0
    0.8381    1.1229    0.1379 C   0  0  0  0  0  0  0  0  0  0  0  0
    0.7848   -0.2966    0.0146 C   0  0  0  0  0  0  0  0  0  0  0  0
    1.9346   -0.9293    0.2618 O   0  0  0  0  0  0  0  0  0  0  0  0
    1.9620   -2.3657    0.2004 C   0  0  0  0  0  0  0  0  0  0  0  0
   -0.4141   -0.9402   -0.3301 C   0  0  0  0  0  0  0  0  0  0  0  0
   -1.5590   -0.2052   -0.5748 C   0  0  0  0  0  0  0  0  0  0  0  0
   -0.2632    2.9604    0.0148 H   0  0  0  0  0  0  0  0  0  0  0  0
    1.7781    1.5811    0.4242 H   0  0  0  0  0  0  0  0  0  0  0  0
    2.9817   -2.6458    0.4609 H   0  0  0  0  0  0  0  0  0  0  0  0
    1.7236   -2.7150   -0.8087 H   0  0  0  0  0  0  0  0  0  0  0  0
    1.2572   -2.7990    0.9155 H   0  0  0  0  0  0  0  0  0  0  0  0
   -0.5481   -2.0190   -0.3680 H   0  0  0  0  0  0  0  0  0  0  0  0
   -2.4719   -0.7705   -0.7912 H   0  0  0  0  0  0  0  0  0  0  0  0
   -2.9189   -2.9434   -0.1271 Cl  0  0  0  0  0  0  0  0  0  0  0  0
  1  4  1  0  0  0  0
  2  1  1  0  0  0  0
  3  2  1  0  0  0  0
  4 11  1  0  0  0  0
  4  5  2  0  0  0  0
  5 12  1  0  0  0  0
  6  5  1  0  0  0  0
  6  7  1  0  0  0  0
  8  7  1  0  0  0  0
  8 13  1  0  0  0  0
  8 15  1  0  0  0  0
  9  6  2  0  0  0  0
 10  1  2  0  0  0  0
 10  9  1  0  0  0  0
 14  8  1  0  0  0  0
 16  9  1  0  0  0  0
 17 10  1  0  0  0  0
M  RAD  3   2   2   3   3  18   2
M  END
