Coordinates from ORCA-job 4-MeOPhN2+~Cl-_B3LYPG-6-31G_dp-NX-Scan-d89-09-n800
 OpenBabel11261920533D

 18 18  0  0  0  0  0  0  0  0999 V2000
   -1.4923    0.9741   -0.2618 C   0  0  0  0  0  0  0  0  0  0  0  0
   -2.6604    1.7306   -0.3847 N   0  0  0  0  0  0  0  0  0  0  0  0
   -3.8142    1.6766   -0.5731 N   0  0  0  0  0  0  0  0  0  0  0  0
   -0.3118    1.6951   -0.0008 C   0  0  0  0  0  0  0  0  0  0  0  0
    0.8858    1.0223    0.1359 C   0  0  0  0  0  0  0  0  0  0  0  0
    0.9207   -0.3814    0.0132 C   0  0  0  0  0  0  0  0  0  0  0  0
    2.1371   -0.9459    0.1655 O   0  0  0  0  0  0  0  0  0  0  0  0
    2.2598   -2.3633    0.0693 C   0  0  0  0  0  0  0  0  0  0  0  0
   -0.2614   -1.0958   -0.2498 C   0  0  0  0  0  0  0  0  0  0  0  0
   -1.4701   -0.4241   -0.3878 C   0  0  0  0  0  0  0  0  0  0  0  0
   -0.3607    2.7749    0.0917 H   0  0  0  0  0  0  0  0  0  0  0  0
    1.8117    1.5483    0.3389 H   0  0  0  0  0  0  0  0  0  0  0  0
    3.3147   -2.5806    0.2361 H   0  0  0  0  0  0  0  0  0  0  0  0
    1.9665   -2.7226   -0.9239 H   0  0  0  0  0  0  0  0  0  0  0  0
    1.6585   -2.8680    0.8339 H   0  0  0  0  0  0  0  0  0  0  0  0
   -0.2486   -2.1742   -0.3494 H   0  0  0  0  0  0  0  0  0  0  0  0
   -2.3924   -0.9550   -0.5901 H   0  0  0  0  0  0  0  0  0  0  0  0
   -4.6975   -0.2620   -0.8741 Cl  0  0  0  0  0  0  0  0  0  0  0  0
  1  4  1  0  0  0  0
  2  1  1  0  0  0  0
  3  2  2  0  0  0  0
  4 11  1  0  0  0  0
  4  5  2  0  0  0  0
  5 12  1  0  0  0  0
  6  5  1  0  0  0  0
  6  7  1  0  0  0  0
  8  7  1  0  0  0  0
  8 13  1  0  0  0  0
  8 15  1  0  0  0  0
  9  6  2  0  0  0  0
 10  1  2  0  0  0  0
 10  9  1  0  0  0  0
 14  8  1  0  0  0  0
 16  9  1  0  0  0  0
 17 10  1  0  0  0  0
 18  3  1  0  0  0  0
M  END
