Coordinates from ORCA-job 4-MeOPhN2+~Cl-_B3LYPG-6-31G_dp-NX-Scan-d89-09-n800
 OpenBabel11261920533D

 18 17  0  0  0  0  0  0  0  0999 V2000
   -1.4848    0.9810   -0.2585 C   0  0  0  0  0  0  0  0  0  0  0  0
   -2.6582    1.7273   -0.3826 N   0  0  0  0  0  0  0  0  0  0  0  0
   -3.8070    1.6867   -0.5711 N   0  0  0  0  0  0  0  0  0  0  0  0
   -0.3044    1.7018    0.0013 C   0  0  0  0  0  0  0  0  0  0  0  0
    0.8908    1.0247    0.1363 C   0  0  0  0  0  0  0  0  0  0  0  0
    0.9211   -0.3795    0.0135 C   0  0  0  0  0  0  0  0  0  0  0  0
    2.1357   -0.9466    0.1643 O   0  0  0  0  0  0  0  0  0  0  0  0
    2.2557   -2.3647    0.0678 C   0  0  0  0  0  0  0  0  0  0  0  0
   -0.2631   -1.0917   -0.2479 C   0  0  0  0  0  0  0  0  0  0  0  0
   -1.4699   -0.4170   -0.3847 C   0  0  0  0  0  0  0  0  0  0  0  0
   -0.3500    2.7817    0.0939 H   0  0  0  0  0  0  0  0  0  0  0  0
    1.8187    1.5476    0.3381 H   0  0  0  0  0  0  0  0  0  0  0  0
    3.3105   -2.5837    0.2333 H   0  0  0  0  0  0  0  0  0  0  0  0
    1.9605   -2.7230   -0.9252 H   0  0  0  0  0  0  0  0  0  0  0  0
    1.6544   -2.8680    0.8332 H   0  0  0  0  0  0  0  0  0  0  0  0
   -0.2532   -2.1701   -0.3471 H   0  0  0  0  0  0  0  0  0  0  0  0
   -2.3977   -0.9411   -0.5859 H   0  0  0  0  0  0  0  0  0  0  0  0
   -4.7137   -0.3164   -0.8894 Cl  0  0  0  0  0  0  0  0  0  0  0  0
  1  4  1  0  0  0  0
  2  1  1  0  0  0  0
  3  2  2  0  0  0  0
  4 11  1  0  0  0  0
  4  5  2  0  0  0  0
  5 12  1  0  0  0  0
  6  5  1  0  0  0  0
  6  7  1  0  0  0  0
  8  7  1  0  0  0  0
  8 13  1  0  0  0  0
  8 15  1  0  0  0  0
  9  6  2  0  0  0  0
 10  1  2  0  0  0  0
 10  9  1  0  0  0  0
 14  8  1  0  0  0  0
 16  9  1  0  0  0  0
 17 10  1  0  0  0  0
M  RAD  2   3   2  18   2
M  END
