Coordinates from ORCA-job 4-MeOPhN2+~Cl-_B3LYPG-6-31G_dp-NX-Scan-d89-09-n800
 OpenBabel11261920533D

 18 17  0  0  0  0  0  0  0  0999 V2000
   -1.5281    1.1348   -0.5005 C   0  0  0  0  0  0  0  0  0  0  0  0
   -2.5843    1.8962   -0.8322 N   0  0  0  0  0  0  0  0  0  0  0  0
   -3.4335    2.5886   -1.1126 N   0  0  0  0  0  0  0  0  0  0  0  0
   -0.3804    1.8002    0.0441 C   0  0  0  0  0  0  0  0  0  0  0  0
    0.7409    1.0606    0.2787 C   0  0  0  0  0  0  0  0  0  0  0  0
    0.7594   -0.3387   -0.0118 C   0  0  0  0  0  0  0  0  0  0  0  0
    1.9197   -0.9515    0.2701 O   0  0  0  0  0  0  0  0  0  0  0  0
    1.9948   -2.3764    0.1365 C   0  0  0  0  0  0  0  0  0  0  0  0
   -0.3679   -0.9766   -0.5261 C   0  0  0  0  0  0  0  0  0  0  0  0
   -1.5476   -0.2689   -0.7436 C   0  0  0  0  0  0  0  0  0  0  0  0
   -0.4210    2.8613    0.2616 H   0  0  0  0  0  0  0  0  0  0  0  0
    1.6333    1.5095    0.6998 H   0  0  0  0  0  0  0  0  0  0  0  0
    2.9905   -2.6496    0.4844 H   0  0  0  0  0  0  0  0  0  0  0  0
    1.8754   -2.6782   -0.9096 H   0  0  0  0  0  0  0  0  0  0  0  0
    1.2341   -2.8651    0.7525 H   0  0  0  0  0  0  0  0  0  0  0  0
   -0.4034   -2.0461   -0.6776 H   0  0  0  0  0  0  0  0  0  0  0  0
   -2.4189   -0.7615   -1.1509 H   0  0  0  0  0  0  0  0  0  0  0  0
   -2.8174   -2.2896    0.8264 Cl  0  0  0  0  0  0  0  0  0  0  0  0
  1  4  2  0  0  0  0
  2  1  1  0  0  0  0
  3  2  1  0  0  0  0
  4 11  1  0  0  0  0
  4  5  1  0  0  0  0
  5 12  1  0  0  0  0
  6  7  1  0  0  0  0
  6  5  2  0  0  0  0
  8  7  1  0  0  0  0
  8 13  1  0  0  0  0
  8 15  1  0  0  0  0
  9  6  1  0  0  0  0
 10  9  2  0  0  0  0
 10  1  1  0  0  0  0
 14  8  1  0  0  0  0
 16  9  1  0  0  0  0
 17 10  1  0  0  0  0
M  RAD  3   2   2   3   3  18   2
M  END
