Coordinates from ORCA-job 4-MeOPhN2+~Cl-_B3LYPG-6-31G_dp-NX-Scan-d89-09-n800
 OpenBabel11261920533D

 18 18  0  0  1  0  0  0  0  0999 V2000
   -1.5956    1.0426   -0.4542 C   0  0  0  0  0  0  0  0  0  0  0  0
   -2.5524    1.8023   -0.9653 N   0  0  0  0  0  0  0  0  0  0  0  0
   -3.3212    2.5030   -1.4299 N   0  0  0  0  0  0  0  0  0  0  0  0
   -0.4775    1.6966    0.1771 C   0  0  0  0  0  0  0  0  0  0  0  0
    0.6325    0.9687    0.4520 C   0  0  0  0  0  0  0  0  0  0  0  0
    0.6983   -0.4233    0.0710 C   0  0  0  0  0  0  0  0  0  0  0  0
    1.9151   -0.9749    0.2869 O   0  0  0  0  0  0  0  0  0  0  0  0
    2.0867   -2.3600    0.0027 C   0  0  0  0  0  0  0  0  0  0  0  0
   -0.3797   -1.0700   -0.4713 C   0  0  0  0  0  0  0  0  0  0  0  0
   -1.6647   -0.4140   -0.5633 C   0  0  1  0  0  0  0  0  0  0  0  0
   -0.5374    2.7557    0.4027 H   0  0  0  0  0  0  0  0  0  0  0  0
    1.5014    1.4098    0.9263 H   0  0  0  0  0  0  0  0  0  0  0  0
    3.1121   -2.5988    0.2857 H   0  0  0  0  0  0  0  0  0  0  0  0
    1.9450   -2.5663   -1.0651 H   0  0  0  0  0  0  0  0  0  0  0  0
    1.3905   -2.9720    0.5869 H   0  0  0  0  0  0  0  0  0  0  0  0
   -0.3412   -2.1179   -0.7353 H   0  0  0  0  0  0  0  0  0  0  0  0
   -2.3577   -0.7970   -1.3027 H   0  0  0  0  0  0  0  0  0  0  0  0
   -2.8088   -1.2356    1.0846 Cl  0  0  0  0  0  0  0  0  0  0  0  0
  1  4  2  0  0  0  0
  2  1  1  0  0  0  0
  3  2  1  0  0  0  0
  4 11  1  0  0  0  0
  4  5  1  0  0  0  0
  5 12  1  0  0  0  0
  6  7  1  0  0  0  0
  6  5  1  0  0  0  0
  8 13  1  0  0  0  0
  8  7  1  0  0  0  0
  8 15  1  0  0  0  0
  9  6  2  0  0  0  0
 10 17  1  6  0  0  0
 10  9  1  0  0  0  0
 10  1  1  0  0  0  0
 10 18  1  0  0  0  0
 14  8  1  0  0  0  0
 16  9  1  0  0  0  0
M  RAD  3   2   2   3   3   5   2
M  END
