Coordinates from ORCA-job 4-MeOPhN2+~Cl-_B3LYPG-6-31G_dp-NX-Scan-d89-09-n800
 OpenBabel11261920533D

 18 17  0  0  0  0  0  0  0  0999 V2000
   -1.5965    1.0554   -0.4602 C   0  0  0  0  0  0  0  0  0  0  0  0
   -2.5444    1.8425   -0.9744 N   0  0  0  0  0  0  0  0  0  0  0  0
   -3.2631    2.5905   -1.4393 N   0  0  0  0  0  0  0  0  0  0  0  0
   -0.4785    1.7130    0.1657 C   0  0  0  0  0  0  0  0  0  0  0  0
    0.6417    0.9882    0.4188 C   0  0  0  0  0  0  0  0  0  0  0  0
    0.7095   -0.3967    0.0385 C   0  0  0  0  0  0  0  0  0  0  0  0
    1.9098   -0.9648    0.2743 O   0  0  0  0  0  0  0  0  0  0  0  0
    2.0615   -2.3623    0.0269 C   0  0  0  0  0  0  0  0  0  0  0  0
   -0.3781   -1.0396   -0.5130 C   0  0  0  0  0  0  0  0  0  0  0  0
   -1.6270   -0.3762   -0.6354 C   0  0  0  0  0  0  0  0  0  0  0  0
   -0.5426    2.7688    0.4039 H   0  0  0  0  0  0  0  0  0  0  0  0
    1.5100    1.4323    0.8918 H   0  0  0  0  0  0  0  0  0  0  0  0
    3.0780   -2.6088    0.3333 H   0  0  0  0  0  0  0  0  0  0  0  0
    1.9350   -2.5912   -1.0378 H   0  0  0  0  0  0  0  0  0  0  0  0
    1.3450   -2.9444    0.6158 H   0  0  0  0  0  0  0  0  0  0  0  0
   -0.3518   -2.0938   -0.7505 H   0  0  0  0  0  0  0  0  0  0  0  0
   -2.4044   -0.8039   -1.2513 H   0  0  0  0  0  0  0  0  0  0  0  0
   -2.7586   -1.5602    1.1821 Cl  0  0  0  0  0  0  0  0  0  0  0  0
  1  4  2  0  0  0  0
  2  1  1  0  0  0  0
  3  2  1  0  0  0  0
  4 11  1  0  0  0  0
  4  5  1  0  0  0  0
  5 12  1  0  0  0  0
  6  7  1  0  0  0  0
  6  5  2  0  0  0  0
  8  7  1  0  0  0  0
  8 13  1  0  0  0  0
  8 15  1  0  0  0  0
  9  6  1  0  0  0  0
 10  9  2  0  0  0  0
 10  1  1  0  0  0  0
 14  8  1  0  0  0  0
 16  9  1  0  0  0  0
 17 10  1  0  0  0  0
M  RAD  3   2   2   3   3  18   2
M  END
