Coordinates from ORCA-job 4-MeOPhN2+~Cl-_B3LYPG-6-31G_dp-NX-Scan-d89-09-n800
 OpenBabel11261920533D

 18 17  0  0  0  0  0  0  0  0999 V2000
   -1.4828    1.2592   -0.4417 C   0  0  0  0  0  0  0  0  0  0  0  0
   -2.5723    2.0197   -0.6701 N   0  0  0  0  0  0  0  0  0  0  0  0
   -3.4797    2.6632   -0.8578 N   0  0  0  0  0  0  0  0  0  0  0  0
   -0.2553    1.9135   -0.1208 C   0  0  0  0  0  0  0  0  0  0  0  0
    0.8503    1.1372    0.1071 C   0  0  0  0  0  0  0  0  0  0  0  0
    0.7622   -0.2819    0.0202 C   0  0  0  0  0  0  0  0  0  0  0  0
    1.8911   -0.9437    0.2635 O   0  0  0  0  0  0  0  0  0  0  0  0
    1.8736   -2.3862    0.2055 C   0  0  0  0  0  0  0  0  0  0  0  0
   -0.4577   -0.9099   -0.2940 C   0  0  0  0  0  0  0  0  0  0  0  0
   -1.5863   -0.1554   -0.5221 C   0  0  0  0  0  0  0  0  0  0  0  0
   -0.2129    2.9951   -0.0549 H   0  0  0  0  0  0  0  0  0  0  0  0
    1.8053    1.5843    0.3594 H   0  0  0  0  0  0  0  0  0  0  0  0
    2.8782   -2.6943    0.4913 H   0  0  0  0  0  0  0  0  0  0  0  0
    1.6466   -2.7250   -0.8089 H   0  0  0  0  0  0  0  0  0  0  0  0
    1.1341   -2.7953    0.8980 H   0  0  0  0  0  0  0  0  0  0  0  0
   -0.6364   -1.9950   -0.3229 H   0  0  0  0  0  0  0  0  0  0  0  0
   -2.5120   -0.6909   -0.7287 H   0  0  0  0  0  0  0  0  0  0  0  0
   -2.4006   -3.3455   -0.2341 Cl  0  0  0  0  0  0  0  0  0  0  0  0
  1  4  1  0  0  0  0
  2  1  1  0  0  0  0
  3  2  1  0  0  0  0
  4 11  1  0  0  0  0
  4  5  2  0  0  0  0
  5 12  1  0  0  0  0
  6  5  1  0  0  0  0
  6  7  1  0  0  0  0
  8  7  1  0  0  0  0
  8 13  1  0  0  0  0
  8 15  1  0  0  0  0
  9  6  2  0  0  0  0
 10  1  2  0  0  0  0
 10  9  1  0  0  0  0
 14  8  1  0  0  0  0
 16  9  1  0  0  0  0
 17 10  1  0  0  0  0
M  RAD  3   2   2   3   3  18   2
M  END
