Coordinates from ORCA-job 4-MeOPhN2+~Cl-_B3LYPG-6-31G_dp-NX-Scan-d89-09-n800
 OpenBabel11261920533D

 18 17  0  0  0  0  0  0  0  0999 V2000
   -1.4749    1.3560   -0.4944 C   0  0  0  0  0  0  0  0  0  0  0  0
   -2.5506    2.1338   -0.6967 N   0  0  0  0  0  0  0  0  0  0  0  0
   -3.4868    2.7369   -0.8873 N   0  0  0  0  0  0  0  0  0  0  0  0
   -0.2423    1.9486   -0.0960 C   0  0  0  0  0  0  0  0  0  0  0  0
    0.8221    1.1221    0.1449 C   0  0  0  0  0  0  0  0  0  0  0  0
    0.6856   -0.2926    0.0106 C   0  0  0  0  0  0  0  0  0  0  0  0
    1.7618   -0.9935    0.3097 O   0  0  0  0  0  0  0  0  0  0  0  0
    1.7462   -2.4411    0.1683 C   0  0  0  0  0  0  0  0  0  0  0  0
   -0.5410   -0.8678   -0.4087 C   0  0  0  0  0  0  0  0  0  0  0  0
   -1.6163   -0.0526   -0.6518 C   0  0  0  0  0  0  0  0  0  0  0  0
   -0.1640    3.0243    0.0168 H   0  0  0  0  0  0  0  0  0  0  0  0
    1.7807    1.5200    0.4579 H   0  0  0  0  0  0  0  0  0  0  0  0
    2.6800   -2.7724    0.6196 H   0  0  0  0  0  0  0  0  0  0  0  0
    1.7255   -2.6954   -0.8945 H   0  0  0  0  0  0  0  0  0  0  0  0
    0.8690   -2.8859    0.6568 H   0  0  0  0  0  0  0  0  0  0  0  0
   -0.7181   -1.9640   -0.4174 H   0  0  0  0  0  0  0  0  0  0  0  0
   -2.5712   -0.4843   -0.9330 H   0  0  0  0  0  0  0  0  0  0  0  0
   -1.4602   -3.7431    0.3841 Cl  0  0  0  0  0  0  0  0  0  0  0  0
  1  4  1  0  0  0  0
  2  1  1  0  0  0  0
  3  2  1  0  0  0  0
  4 11  1  0  0  0  0
  4  5  2  0  0  0  0
  5 12  1  0  0  0  0
  6  5  1  0  0  0  0
  6  7  1  0  0  0  0
  8  7  1  0  0  0  0
  8 13  1  0  0  0  0
  8 15  1  0  0  0  0
  9  6  2  0  0  0  0
 10  1  2  0  0  0  0
 10  9  1  0  0  0  0
 14  8  1  0  0  0  0
 16  9  1  0  0  0  0
 17 10  1  0  0  0  0
M  RAD  3   2   2   3   3  18   2
M  END
