Coordinates from ORCA-job 4-MeOPhN2+~Cl-_B3LYPG-6-31G_dp-NX-Scan-d89-09-n800
 OpenBabel11261920533D

 18 18  0  0  1  0  0  0  0  0999 V2000
   -1.5825    1.0474   -0.4656 C   0  0  0  0  0  0  0  0  0  0  0  0
   -2.5745    1.7919   -0.9227 N   0  0  0  0  0  0  0  0  0  0  0  0
   -3.3973    2.4596   -1.3397 N   0  0  0  0  0  0  0  0  0  0  0  0
   -0.4626    1.6999    0.1609 C   0  0  0  0  0  0  0  0  0  0  0  0
    0.6451    0.9705    0.4402 C   0  0  0  0  0  0  0  0  0  0  0  0
    0.7046   -0.4259    0.0705 C   0  0  0  0  0  0  0  0  0  0  0  0
    1.9198   -0.9798    0.2928 O   0  0  0  0  0  0  0  0  0  0  0  0
    2.0878   -2.3665    0.0167 C   0  0  0  0  0  0  0  0  0  0  0  0
   -0.3726   -1.0722   -0.4713 C   0  0  0  0  0  0  0  0  0  0  0  0
   -1.6584   -0.4116   -0.5766 C   0  0  1  0  0  0  0  0  0  0  0  0
   -0.5205    2.7598    0.3834 H   0  0  0  0  0  0  0  0  0  0  0  0
    1.5162    1.4114    0.9104 H   0  0  0  0  0  0  0  0  0  0  0  0
    3.1115   -2.6074    0.3042 H   0  0  0  0  0  0  0  0  0  0  0  0
    1.9488   -2.5784   -1.0505 H   0  0  0  0  0  0  0  0  0  0  0  0
    1.3878   -2.9736    0.6015 H   0  0  0  0  0  0  0  0  0  0  0  0
   -0.3341   -2.1198   -0.7366 H   0  0  0  0  0  0  0  0  0  0  0  0
   -2.3274   -0.7834   -1.3444 H   0  0  0  0  0  0  0  0  0  0  0  0
   -2.8463   -1.1730    1.0159 Cl  0  0  0  0  0  0  0  0  0  0  0  0
  1  4  2  0  0  0  0
  2  1  1  0  0  0  0
  3  2  1  0  0  0  0
  4 11  1  0  0  0  0
  4  5  1  0  0  0  0
  5 12  1  0  0  0  0
  6  7  1  0  0  0  0
  6  5  1  0  0  0  0
  8  7  1  0  0  0  0
  8 13  1  0  0  0  0
  8 15  1  0  0  0  0
  9  6  2  0  0  0  0
 10 17  1  6  0  0  0
 10  9  1  0  0  0  0
 10  1  1  0  0  0  0
 10 18  1  0  0  0  0
 14  8  1  0  0  0  0
 16  9  1  0  0  0  0
M  RAD  3   2   2   3   3   5   2
M  END
