Coordinates from ORCA-job 4-MeOPhN2+~Cl-_B3LYPG-6-31G_dp-NX-Scan-d89-09-n800
 OpenBabel11261920533D

 18 18  0  0  1  0  0  0  0  0999 V2000
   -1.5419    1.0689   -0.5039 C   0  0  0  0  0  0  0  0  0  0  0  0
   -2.6307    1.7605   -0.7817 N   0  0  0  0  0  0  0  0  0  0  0  0
   -3.5991    2.3032   -1.0240 N   0  0  0  0  0  0  0  0  0  0  0  0
   -0.4156    1.7181    0.1041 C   0  0  0  0  0  0  0  0  0  0  0  0
    0.6891    0.9846    0.3879 C   0  0  0  0  0  0  0  0  0  0  0  0
    0.7272   -0.4220    0.0554 C   0  0  0  0  0  0  0  0  0  0  0  0
    1.9304   -0.9898    0.3059 O   0  0  0  0  0  0  0  0  0  0  0  0
    2.0794   -2.3859    0.0700 C   0  0  0  0  0  0  0  0  0  0  0  0
   -0.3508   -1.0660   -0.4887 C   0  0  0  0  0  0  0  0  0  0  0  0
   -1.6218   -0.3886   -0.6519 C   0  0  1  0  0  0  0  0  0  0  0  0
   -0.4692    2.7787    0.3243 H   0  0  0  0  0  0  0  0  0  0  0  0
    1.5674    1.4248    0.8448 H   0  0  0  0  0  0  0  0  0  0  0  0
    3.0940   -2.6357    0.3811 H   0  0  0  0  0  0  0  0  0  0  0  0
    1.9545   -2.6247   -0.9932 H   0  0  0  0  0  0  0  0  0  0  0  0
    1.3595   -2.9653    0.6589 H   0  0  0  0  0  0  0  0  0  0  0  0
   -0.3151   -2.1151   -0.7490 H   0  0  0  0  0  0  0  0  0  0  0  0
   -2.2422   -0.7396   -1.4694 H   0  0  0  0  0  0  0  0  0  0  0  0
   -2.9697   -1.0572    0.8185 Cl  0  0  0  0  0  0  0  0  0  0  0  0
  1  4  2  0  0  0  0
  2  1  1  0  0  0  0
  3  2  1  0  0  0  0
  4 11  1  0  0  0  0
  4  5  1  0  0  0  0
  5 12  1  0  0  0  0
  6  7  1  0  0  0  0
  6  5  1  0  0  0  0
  8  7  1  0  0  0  0
  8 13  1  0  0  0  0
  8 15  1  0  0  0  0
  9  6  2  0  0  0  0
 10 17  1  6  0  0  0
 10  1  1  0  0  0  0
 10  9  1  0  0  0  0
 10 18  1  0  0  0  0
 14  8  1  0  0  0  0
 16  9  1  0  0  0  0
M  RAD  3   2   2   3   3   5   2
M  END
