Coordinates from ORCA-job 4-MeOPhN2+~Cl-_B3LYPG-6-31G_dp-NX-Scan-d89-09-n800
 OpenBabel11261920533D

 18 17  0  0  0  0  0  0  0  0999 V2000
   -1.4773    0.9882   -0.2542 C   0  0  0  0  0  0  0  0  0  0  0  0
   -2.6563    1.7237   -0.3793 N   0  0  0  0  0  0  0  0  0  0  0  0
   -3.8004    1.6963   -0.5688 N   0  0  0  0  0  0  0  0  0  0  0  0
   -0.2970    1.7089    0.0035 C   0  0  0  0  0  0  0  0  0  0  0  0
    0.8958    1.0273    0.1363 C   0  0  0  0  0  0  0  0  0  0  0  0
    0.9213   -0.3777    0.0138 C   0  0  0  0  0  0  0  0  0  0  0  0
    2.1342   -0.9475    0.1624 O   0  0  0  0  0  0  0  0  0  0  0  0
    2.2514   -2.3662    0.0656 C   0  0  0  0  0  0  0  0  0  0  0  0
   -0.2653   -1.0875   -0.2448 C   0  0  0  0  0  0  0  0  0  0  0  0
   -1.4701   -0.4096   -0.3798 C   0  0  0  0  0  0  0  0  0  0  0  0
   -0.3390    2.7890    0.0959 H   0  0  0  0  0  0  0  0  0  0  0  0
    1.8260    1.5467    0.3362 H   0  0  0  0  0  0  0  0  0  0  0  0
    3.3061   -2.5868    0.2289 H   0  0  0  0  0  0  0  0  0  0  0  0
    1.9533   -2.7235   -0.9267 H   0  0  0  0  0  0  0  0  0  0  0  0
    1.6507   -2.8680    0.8324 H   0  0  0  0  0  0  0  0  0  0  0  0
   -0.2585   -2.1660   -0.3430 H   0  0  0  0  0  0  0  0  0  0  0  0
   -2.4042   -0.9257   -0.5790 H   0  0  0  0  0  0  0  0  0  0  0  0
   -4.7251   -0.3726   -0.9102 Cl  0  0  0  0  0  0  0  0  0  0  0  0
  1  4  1  0  0  0  0
  2  1  1  0  0  0  0
  3  2  2  0  0  0  0
  4 11  1  0  0  0  0
  4  5  2  0  0  0  0
  5 12  1  0  0  0  0
  6  5  1  0  0  0  0
  6  7  1  0  0  0  0
  8  7  1  0  0  0  0
  8 13  1  0  0  0  0
  8 15  1  0  0  0  0
  9  6  2  0  0  0  0
 10  1  2  0  0  0  0
 10  9  1  0  0  0  0
 14  8  1  0  0  0  0
 16  9  1  0  0  0  0
 17 10  1  0  0  0  0
M  RAD  2   3   2  18   2
M  END
