Coordinates from ORCA-job 4-MeOPhN2+~Cl-_B3LYPG-6-31G_dp-NX-Scan-d89-09-n800
 OpenBabel11261920533D

 18 18  0  0  1  0  0  0  0  0999 V2000
   -1.5000    1.0934   -0.5405 C   0  0  0  0  0  0  0  0  0  0  0  0
   -2.6569    1.7226   -0.6666 N   0  0  0  0  0  0  0  0  0  0  0  0
   -3.7275    2.0866   -0.7313 N   0  0  0  0  0  0  0  0  0  0  0  0
   -0.3722    1.7411    0.0543 C   0  0  0  0  0  0  0  0  0  0  0  0
    0.7314    1.0020    0.3389 C   0  0  0  0  0  0  0  0  0  0  0  0
    0.7501   -0.4087    0.0353 C   0  0  0  0  0  0  0  0  0  0  0  0
    1.9352   -0.9947    0.3162 O   0  0  0  0  0  0  0  0  0  0  0  0
    2.0621   -2.3999    0.1174 C   0  0  0  0  0  0  0  0  0  0  0  0
   -0.3312   -1.0470   -0.5216 C   0  0  0  0  0  0  0  0  0  0  0  0
   -1.5704   -0.3514   -0.7408 C   0  0  1  0  0  0  0  0  0  0  0  0
   -0.4240    2.8003    0.2810 H   0  0  0  0  0  0  0  0  0  0  0  0
    1.6137    1.4391    0.7905 H   0  0  0  0  0  0  0  0  0  0  0  0
    3.0643   -2.6601    0.4584 H   0  0  0  0  0  0  0  0  0  0  0  0
    1.9579   -2.6614   -0.9423 H   0  0  0  0  0  0  0  0  0  0  0  0
    1.3175   -2.9500    0.7030 H   0  0  0  0  0  0  0  0  0  0  0  0
   -0.2988   -2.0972   -0.7778 H   0  0  0  0  0  0  0  0  0  0  0  0
   -2.1889   -0.7018   -1.5577 H   0  0  0  0  0  0  0  0  0  0  0  0
   -3.1168   -0.9638    0.6728 Cl  0  0  0  0  0  0  0  0  0  0  0  0
  1  4  2  0  0  0  0
  2  1  1  0  0  0  0
  3  2  1  0  0  0  0
  4 11  1  0  0  0  0
  4  5  1  0  0  0  0
  5 12  1  0  0  0  0
  6  7  1  0  0  0  0
  6  5  1  0  0  0  0
  8  7  1  0  0  0  0
  8 13  1  0  0  0  0
  8 15  1  0  0  0  0
  9  6  2  0  0  0  0
 10 17  1  6  0  0  0
 10  1  1  0  0  0  0
 10  9  1  0  0  0  0
 10 18  1  0  0  0  0
 14  8  1  0  0  0  0
 16  9  1  0  0  0  0
M  RAD  3   2   2   3   3   5   2
M  END
