Coordinates from ORCA-job 4-MeOPhN2+~Cl-_B3LYPG-6-31G_dp-NX-Scan-d89-09-n800
 OpenBabel11261920533D

 18 17  0  0  0  0  0  0  0  0999 V2000
   -1.4996   -0.0044   -0.0420 C   0  0  0  0  0  0  0  0  0  0  0  0
   -2.8610   -0.0253    0.0528 N   0  0  0  0  0  0  0  0  0  0  0  0
   -3.9766   -0.0382    0.1308 N   0  0  0  0  0  0  0  0  0  0  0  0
   -0.8334    1.2460   -0.0005 C   0  0  0  0  0  0  0  0  0  0  0  0
    0.5352    1.2486   -0.0967 C   0  0  0  0  0  0  0  0  0  0  0  0
    1.2515    0.0296   -0.2334 C   0  0  0  0  0  0  0  0  0  0  0  0
    2.5677    0.1559   -0.3164 O   0  0  0  0  0  0  0  0  0  0  0  0
    3.4104   -1.0042   -0.4559 C   0  0  0  0  0  0  0  0  0  0  0  0
    0.5615   -1.2078   -0.2727 C   0  0  0  0  0  0  0  0  0  0  0  0
   -0.8136   -1.2309   -0.1773 C   0  0  0  0  0  0  0  0  0  0  0  0
   -1.3964    2.1682    0.1050 H   0  0  0  0  0  0  0  0  0  0  0  0
    1.0967    2.1762   -0.0703 H   0  0  0  0  0  0  0  0  0  0  0  0
    4.4263   -0.6155   -0.4952 H   0  0  0  0  0  0  0  0  0  0  0  0
    3.1809   -1.5372   -1.3833 H   0  0  0  0  0  0  0  0  0  0  0  0
    3.2985   -1.6666    0.4076 H   0  0  0  0  0  0  0  0  0  0  0  0
    1.0989   -2.1427   -0.3772 H   0  0  0  0  0  0  0  0  0  0  0  0
   -1.3622   -2.1679   -0.2052 H   0  0  0  0  0  0  0  0  0  0  0  0
  -11.4394   -0.7346    0.7188 Cl  0  0  0  0  0  0  0  0  0  0  0  0
  1  4  1  0  0  0  0
  1  2  1  0  0  0  0
  2  3  1  0  0  0  0
  4 11  1  0  0  0  0
  5 12  1  0  0  0  0
  5  4  2  0  0  0  0
  6  5  1  0  0  0  0
  7  6  1  0  0  0  0
  8  7  1  0  0  0  0
  8 15  1  0  0  0  0
  9  6  2  0  0  0  0
  9 10  1  0  0  0  0
 10  1  2  0  0  0  0
 13  8  1  0  0  0  0
 14  8  1  0  0  0  0
 16  9  1  0  0  0  0
 17 10  1  0  0  0  0
M  RAD  3   2   2   3   3  18   2
M  END
