Coordinates from ORCA-job 4-MeOPhN2+~Cl-_B3LYPG-6-31G_dp-NX-Scan-d89-09-n800
 OpenBabel11261920533D

 18 17  0  0  0  0  0  0  0  0999 V2000
   -1.5983    1.0517   -0.4573 C   0  0  0  0  0  0  0  0  0  0  0  0
   -2.5432    1.8348   -0.9787 N   0  0  0  0  0  0  0  0  0  0  0  0
   -3.2672    2.5750   -1.4497 N   0  0  0  0  0  0  0  0  0  0  0  0
   -0.4810    1.7083    0.1714 C   0  0  0  0  0  0  0  0  0  0  0  0
    0.6374    0.9829    0.4280 C   0  0  0  0  0  0  0  0  0  0  0  0
    0.7064   -0.4024    0.0448 C   0  0  0  0  0  0  0  0  0  0  0  0
    1.9101   -0.9667    0.2770 O   0  0  0  0  0  0  0  0  0  0  0  0
    2.0672   -2.3613    0.0198 C   0  0  0  0  0  0  0  0  0  0  0  0
   -0.3786   -1.0458   -0.5068 C   0  0  0  0  0  0  0  0  0  0  0  0
   -1.6343   -0.3844   -0.6211 C   0  0  0  0  0  0  0  0  0  0  0  0
   -0.5448    2.7644    0.4085 H   0  0  0  0  0  0  0  0  0  0  0  0
    1.5052    1.4261    0.9027 H   0  0  0  0  0  0  0  0  0  0  0  0
    3.0856   -2.6058    0.3215 H   0  0  0  0  0  0  0  0  0  0  0  0
    1.9383   -2.5839   -1.0460 H   0  0  0  0  0  0  0  0  0  0  0  0
    1.3551   -2.9511    0.6066 H   0  0  0  0  0  0  0  0  0  0  0  0
   -0.3497   -2.0988   -0.7495 H   0  0  0  0  0  0  0  0  0  0  0  0
   -2.3991   -0.8044   -1.2582 H   0  0  0  0  0  0  0  0  0  0  0  0
   -2.7637   -1.4894    1.1761 Cl  0  0  0  0  0  0  0  0  0  0  0  0
  1  4  2  0  0  0  0
  2  1  1  0  0  0  0
  3  2  1  0  0  0  0
  4 11  1  0  0  0  0
  4  5  1  0  0  0  0
  5 12  1  0  0  0  0
  6  7  1  0  0  0  0
  6  5  2  0  0  0  0
  8  7  1  0  0  0  0
  8 13  1  0  0  0  0
  8 15  1  0  0  0  0
  9  6  1  0  0  0  0
 10  9  2  0  0  0  0
 10  1  1  0  0  0  0
 14  8  1  0  0  0  0
 16  9  1  0  0  0  0
 17 10  1  0  0  0  0
M  RAD  3   2   2   3   3  18   2
M  END
