Coordinates from ORCA-job 4-MeOPhN2+~Cl-_B3LYPG-6-31G_dp-NX-Scan-d89-09-n800
 OpenBabel11261920533D

 18 18  0  0  0  0  0  0  0  0999 V2000
   -1.5472    0.9272   -0.4599 C   0  0  0  0  0  0  0  0  0  0  0  0
   -2.6657    1.7512   -0.7774 N   0  0  0  0  0  0  0  0  0  0  0  0
   -3.8693    1.4763   -0.5284 N   0  0  0  0  0  0  0  0  0  0  0  0
   -0.4018    1.6413   -0.0564 C   0  0  0  0  0  0  0  0  0  0  0  0
    0.7875    0.9890    0.2156 C   0  0  0  0  0  0  0  0  0  0  0  0
    0.8830   -0.4013    0.0339 C   0  0  0  0  0  0  0  0  0  0  0  0
    2.0946   -0.9511    0.3120 O   0  0  0  0  0  0  0  0  0  0  0  0
    2.2578   -2.3528    0.1470 C   0  0  0  0  0  0  0  0  0  0  0  0
   -0.2315   -1.1171   -0.4235 C   0  0  0  0  0  0  0  0  0  0  0  0
   -1.4393   -0.4586   -0.6557 C   0  0  0  0  0  0  0  0  0  0  0  0
   -0.4786    2.7192    0.0457 H   0  0  0  0  0  0  0  0  0  0  0  0
    1.6664    1.5306    0.5489 H   0  0  0  0  0  0  0  0  0  0  0  0
    3.2878   -2.5703    0.4318 H   0  0  0  0  0  0  0  0  0  0  0  0
    2.0990   -2.6577   -0.8951 H   0  0  0  0  0  0  0  0  0  0  0  0
    1.5763   -2.9170    0.7953 H   0  0  0  0  0  0  0  0  0  0  0  0
   -0.1734   -2.1842   -0.6019 H   0  0  0  0  0  0  0  0  0  0  0  0
   -2.2790   -1.0339   -1.0245 H   0  0  0  0  0  0  0  0  0  0  0  0
   -4.3212    0.2581    0.1817 Cl  0  0  0  0  0  0  0  0  0  0  0  0
  1  4  1  0  0  0  0
  2  3  2  0  0  0  0
  2  1  1  0  0  0  0
  3 18  1  0  0  0  0
  4 11  1  0  0  0  0
  4  5  2  0  0  0  0
  5 12  1  0  0  0  0
  6  5  1  0  0  0  0
  6  7  1  0  0  0  0
  8  7  1  0  0  0  0
  8 13  1  0  0  0  0
  8 15  1  0  0  0  0
  9  6  2  0  0  0  0
 10  1  2  0  0  0  0
 10  9  1  0  0  0  0
 14  8  1  0  0  0  0
 16  9  1  0  0  0  0
 17 10  1  0  0  0  0
M  END
