Coordinates from ORCA-job 4-MeOPhN2+~Cl-_B3LYPG-6-31G_dp-NX-Scan-d89-09-n800
 OpenBabel11261920533D

 18 17  0  0  0  0  0  0  0  0999 V2000
   -1.4660    1.3366   -0.4985 C   0  0  0  0  0  0  0  0  0  0  0  0
   -2.5662    2.0906   -0.6566 N   0  0  0  0  0  0  0  0  0  0  0  0
   -3.5308    2.6576   -0.8086 N   0  0  0  0  0  0  0  0  0  0  0  0
   -0.2423    1.9414   -0.0910 C   0  0  0  0  0  0  0  0  0  0  0  0
    0.8351    1.1259    0.1343 C   0  0  0  0  0  0  0  0  0  0  0  0
    0.7152   -0.2874   -0.0214 C   0  0  0  0  0  0  0  0  0  0  0  0
    1.7889   -0.9901    0.2917 O   0  0  0  0  0  0  0  0  0  0  0  0
    1.7514   -2.4391    0.1789 C   0  0  0  0  0  0  0  0  0  0  0  0
   -0.4958   -0.8682   -0.4682 C   0  0  0  0  0  0  0  0  0  0  0  0
   -1.5857   -0.0678   -0.6917 C   0  0  0  0  0  0  0  0  0  0  0  0
   -0.1816    3.0152    0.0469 H   0  0  0  0  0  0  0  0  0  0  0  0
    1.7863    1.5317    0.4594 H   0  0  0  0  0  0  0  0  0  0  0  0
    2.6729   -2.7776    0.6496 H   0  0  0  0  0  0  0  0  0  0  0  0
    1.7411   -2.7180   -0.8781 H   0  0  0  0  0  0  0  0  0  0  0  0
    0.8631   -2.8554    0.6707 H   0  0  0  0  0  0  0  0  0  0  0  0
   -0.6708   -1.9608   -0.4881 H   0  0  0  0  0  0  0  0  0  0  0  0
   -2.5342   -0.5148   -0.9706 H   0  0  0  0  0  0  0  0  0  0  0  0
   -1.6353   -3.5706    0.4302 Cl  0  0  0  0  0  0  0  0  0  0  0  0
  1  4  1  0  0  0  0
  2  1  1  0  0  0  0
  3  2  1  0  0  0  0
  4 11  1  0  0  0  0
  4  5  2  0  0  0  0
  5 12  1  0  0  0  0
  6  5  1  0  0  0  0
  6  7  1  0  0  0  0
  8  7  1  0  0  0  0
  8 13  1  0  0  0  0
  8 15  1  0  0  0  0
  9  6  2  0  0  0  0
 10  1  2  0  0  0  0
 10  9  1  0  0  0  0
 14  8  1  0  0  0  0
 16  9  1  0  0  0  0
 17 10  1  0  0  0  0
M  RAD  3   2   2   3   3  18   2
M  END
