Coordinates from ORCA-job 4-MeOPhN2+~Cl-_B3LYPG-6-31G_dp-NX-Scan-d89-09-n800
 OpenBabel11261920533D

 18 17  0  0  0  0  0  0  0  0999 V2000
   -1.4813    1.2622   -0.4424 C   0  0  0  0  0  0  0  0  0  0  0  0
   -2.5723    2.0208   -0.6696 N   0  0  0  0  0  0  0  0  0  0  0  0
   -3.4835    2.6590   -0.8571 N   0  0  0  0  0  0  0  0  0  0  0  0
   -0.2536    1.9153   -0.1209 C   0  0  0  0  0  0  0  0  0  0  0  0
    0.8511    1.1375    0.1073 C   0  0  0  0  0  0  0  0  0  0  0  0
    0.7616   -0.2816    0.0199 C   0  0  0  0  0  0  0  0  0  0  0  0
    1.8891   -0.9447    0.2642 O   0  0  0  0  0  0  0  0  0  0  0  0
    1.8697   -2.3875    0.2047 C   0  0  0  0  0  0  0  0  0  0  0  0
   -0.4585   -0.9086   -0.2958 C   0  0  0  0  0  0  0  0  0  0  0  0
   -1.5858   -0.1525   -0.5235 C   0  0  0  0  0  0  0  0  0  0  0  0
   -0.2102    2.9968   -0.0546 H   0  0  0  0  0  0  0  0  0  0  0  0
    1.8064    1.5836    0.3603 H   0  0  0  0  0  0  0  0  0  0  0  0
    2.8724   -2.6973    0.4951 H   0  0  0  0  0  0  0  0  0  0  0  0
    1.6472   -2.7244   -0.8112 H   0  0  0  0  0  0  0  0  0  0  0  0
    1.1257   -2.7963    0.8927 H   0  0  0  0  0  0  0  0  0  0  0  0
   -0.6398   -1.9941   -0.3244 H   0  0  0  0  0  0  0  0  0  0  0  0
   -2.5131   -0.6847   -0.7306 H   0  0  0  0  0  0  0  0  0  0  0  0
   -2.3798   -3.3546   -0.2252 Cl  0  0  0  0  0  0  0  0  0  0  0  0
  1  4  1  0  0  0  0
  2  1  1  0  0  0  0
  3  2  1  0  0  0  0
  4 11  1  0  0  0  0
  4  5  2  0  0  0  0
  5 12  1  0  0  0  0
  6  5  1  0  0  0  0
  6  7  1  0  0  0  0
  8  7  1  0  0  0  0
  8 13  1  0  0  0  0
  8 15  1  0  0  0  0
  9  6  2  0  0  0  0
 10  1  2  0  0  0  0
 10  9  1  0  0  0  0
 14  8  1  0  0  0  0
 16  9  1  0  0  0  0
 17 10  1  0  0  0  0
M  RAD  3   2   2   3   3  18   2
M  END
