Coordinates from ORCA-job 4-MeOPhN2+~Cl-_B3LYPG-6-31G_dp-NX-Scan-d89-09-n800
 OpenBabel11261920533D

 18 18  0  0  1  0  0  0  0  0999 V2000
   -1.5494    1.0644   -0.4969 C   0  0  0  0  0  0  0  0  0  0  0  0
   -2.6222    1.7671   -0.8075 N   0  0  0  0  0  0  0  0  0  0  0  0
   -3.5661    2.3369   -1.0842 N   0  0  0  0  0  0  0  0  0  0  0  0
   -0.4243    1.7142    0.1147 C   0  0  0  0  0  0  0  0  0  0  0  0
    0.6808    0.9815    0.3981 C   0  0  0  0  0  0  0  0  0  0  0  0
    0.7231   -0.4235    0.0587 C   0  0  0  0  0  0  0  0  0  0  0  0
    1.9289   -0.9883    0.3038 O   0  0  0  0  0  0  0  0  0  0  0  0
    2.0818   -2.3827    0.0600 C   0  0  0  0  0  0  0  0  0  0  0  0
   -0.3545   -1.0680   -0.4847 C   0  0  0  0  0  0  0  0  0  0  0  0
   -1.6294   -0.3939   -0.6365 C   0  0  1  0  0  0  0  0  0  0  0  0
   -0.4786    2.7748    0.3348 H   0  0  0  0  0  0  0  0  0  0  0  0
    1.5578    1.4220    0.8572 H   0  0  0  0  0  0  0  0  0  0  0  0
    3.0983   -2.6307    0.3665 H   0  0  0  0  0  0  0  0  0  0  0  0
    1.9542   -2.6163   -1.0040 H   0  0  0  0  0  0  0  0  0  0  0  0
    1.3659   -2.9676    0.6482 H   0  0  0  0  0  0  0  0  0  0  0  0
   -0.3181   -2.1167   -0.7463 H   0  0  0  0  0  0  0  0  0  0  0  0
   -2.2571   -0.7479   -1.4472 H   0  0  0  0  0  0  0  0  0  0  0  0
   -2.9455   -1.0761    0.8542 Cl  0  0  0  0  0  0  0  0  0  0  0  0
  1  4  2  0  0  0  0
  2  1  1  0  0  0  0
  3  2  1  0  0  0  0
  4 11  1  0  0  0  0
  4  5  1  0  0  0  0
  5 12  1  0  0  0  0
  6  7  1  0  0  0  0
  6  5  1  0  0  0  0
  8  7  1  0  0  0  0
  8 13  1  0  0  0  0
  8 15  1  0  0  0  0
  9  6  2  0  0  0  0
 10 17  1  6  0  0  0
 10  1  1  0  0  0  0
 10  9  1  0  0  0  0
 10 18  1  0  0  0  0
 14  8  1  0  0  0  0
 16  9  1  0  0  0  0
M  RAD  3   2   2   3   3   5   2
M  END
