Coordinates from ORCA-job 4-MeOPhN2+~Cl-_B3LYPG-6-31G_dp-NX-Scan-d89-09-n800
 OpenBabel11261920533D

 18 17  0  0  0  0  0  0  0  0999 V2000
   -1.4835   -0.0193   -0.0416 C   0  0  0  0  0  0  0  0  0  0  0  0
   -2.8452   -0.0468    0.0544 N   0  0  0  0  0  0  0  0  0  0  0  0
   -3.9609   -0.0656    0.1334 N   0  0  0  0  0  0  0  0  0  0  0  0
   -0.8232    1.2341   -0.0005 C   0  0  0  0  0  0  0  0  0  0  0  0
    0.5453    1.2429   -0.0977 C   0  0  0  0  0  0  0  0  0  0  0  0
    1.2670    0.0270   -0.2348 C   0  0  0  0  0  0  0  0  0  0  0  0
    2.5826    0.1591   -0.3185 O   0  0  0  0  0  0  0  0  0  0  0  0
    3.4304   -0.9974   -0.4584 C   0  0  0  0  0  0  0  0  0  0  0  0
    0.5825   -1.2136   -0.2737 C   0  0  0  0  0  0  0  0  0  0  0  0
   -0.7922   -1.2427   -0.1775 C   0  0  0  0  0  0  0  0  0  0  0  0
   -1.3904    2.1541    0.1054 H   0  0  0  0  0  0  0  0  0  0  0  0
    1.1026    2.1732   -0.0715 H   0  0  0  0  0  0  0  0  0  0  0  0
    4.4446   -0.6043   -0.4980 H   0  0  0  0  0  0  0  0  0  0  0  0
    3.2028   -1.5314   -1.3857 H   0  0  0  0  0  0  0  0  0  0  0  0
    3.3217   -1.6602    0.4051 H   0  0  0  0  0  0  0  0  0  0  0  0
    1.1240   -2.1464   -0.3787 H   0  0  0  0  0  0  0  0  0  0  0  0
   -1.3368   -2.1826   -0.2051 H   0  0  0  0  0  0  0  0  0  0  0  0
  -11.7260   -0.6310    0.7322 Cl  0  0  0  0  0  0  0  0  0  0  0  0
  1  4  1  0  0  0  0
  1  2  1  0  0  0  0
  2  3  1  0  0  0  0
  4 11  1  0  0  0  0
  5 12  1  0  0  0  0
  5  4  2  0  0  0  0
  6  5  1  0  0  0  0
  7  6  1  0  0  0  0
  8  7  1  0  0  0  0
  8 15  1  0  0  0  0
  9  6  2  0  0  0  0
  9 10  1  0  0  0  0
 10  1  2  0  0  0  0
 13  8  1  0  0  0  0
 14  8  1  0  0  0  0
 16  9  1  0  0  0  0
 17 10  1  0  0  0  0
M  RAD  3   2   2   3   3  18   2
M  END
