Coordinates from ORCA-job 4-MeOPhN2+~Cl-_B3LYPG-6-31G_dp-NX-Scan-d89-09-n800
 OpenBabel11261920533D

 18 17  0  0  0  0  0  0  0  0999 V2000
   -1.4991    1.3806   -0.4957 C   0  0  0  0  0  0  0  0  0  0  0  0
   -2.5190    2.2092   -0.7775 N   0  0  0  0  0  0  0  0  0  0  0  0
   -3.3685    2.9146   -1.0255 N   0  0  0  0  0  0  0  0  0  0  0  0
   -0.2549    1.9520   -0.0971 C   0  0  0  0  0  0  0  0  0  0  0  0
    0.7858    1.1088    0.1759 C   0  0  0  0  0  0  0  0  0  0  0  0
    0.6288   -0.3060    0.0620 C   0  0  0  0  0  0  0  0  0  0  0  0
    1.7128   -1.0007    0.3359 O   0  0  0  0  0  0  0  0  0  0  0  0
    1.7448   -2.4406    0.1406 C   0  0  0  0  0  0  0  0  0  0  0  0
   -0.6204   -0.8704   -0.3202 C   0  0  0  0  0  0  0  0  0  0  0  0
   -1.6741   -0.0323   -0.5964 C   0  0  0  0  0  0  0  0  0  0  0  0
   -0.1495    3.0286   -0.0195 H   0  0  0  0  0  0  0  0  0  0  0  0
    1.7527    1.4927    0.4808 H   0  0  0  0  0  0  0  0  0  0  0  0
    2.7068   -2.7508    0.5451 H   0  0  0  0  0  0  0  0  0  0  0  0
    1.6922   -2.6536   -0.9300 H   0  0  0  0  0  0  0  0  0  0  0  0
    0.9002   -2.9437    0.6349 H   0  0  0  0  0  0  0  0  0  0  0  0
   -0.7887   -1.9661   -0.3169 H   0  0  0  0  0  0  0  0  0  0  0  0
   -2.6379   -0.4432   -0.8785 H   0  0  0  0  0  0  0  0  0  0  0  0
   -1.1667   -4.0301    0.3714 Cl  0  0  0  0  0  0  0  0  0  0  0  0
  1  4  1  0  0  0  0
  2  1  1  0  0  0  0
  3  2  1  0  0  0  0
  4 11  1  0  0  0  0
  4  5  2  0  0  0  0
  5 12  1  0  0  0  0
  6  5  1  0  0  0  0
  6  7  1  0  0  0  0
  8  7  1  0  0  0  0
  8 13  1  0  0  0  0
  8 15  1  0  0  0  0
  9 16  1  0  0  0  0
  9  6  2  0  0  0  0
 10  1  2  0  0  0  0
 10  9  1  0  0  0  0
 14  8  1  0  0  0  0
 17 10  1  0  0  0  0
M  RAD  3   2   2   3   3  18   2
M  END
