Coordinates from ORCA-job 4-MeOPhN2+~Cl-_B3LYPG-6-31G_dp-NX-Scan-d89-09-n800
 OpenBabel11261920533D

 18 17  0  0  0  0  0  0  0  0999 V2000
   -1.4802   -0.0220   -0.0415 C   0  0  0  0  0  0  0  0  0  0  0  0
   -2.8420   -0.0506    0.0547 N   0  0  0  0  0  0  0  0  0  0  0  0
   -3.9576   -0.0703    0.1338 N   0  0  0  0  0  0  0  0  0  0  0  0
   -0.8209    1.2320   -0.0005 C   0  0  0  0  0  0  0  0  0  0  0  0
    0.5476    1.2418   -0.0979 C   0  0  0  0  0  0  0  0  0  0  0  0
    1.2702    0.0265   -0.2351 C   0  0  0  0  0  0  0  0  0  0  0  0
    2.5856    0.1596   -0.3189 O   0  0  0  0  0  0  0  0  0  0  0  0
    3.4344   -0.9962   -0.4589 C   0  0  0  0  0  0  0  0  0  0  0  0
    0.5867   -1.2146   -0.2739 C   0  0  0  0  0  0  0  0  0  0  0  0
   -0.7880   -1.2448   -0.1775 C   0  0  0  0  0  0  0  0  0  0  0  0
   -1.3888    2.1516    0.1055 H   0  0  0  0  0  0  0  0  0  0  0  0
    1.1041    2.1727   -0.0718 H   0  0  0  0  0  0  0  0  0  0  0  0
    4.4483   -0.6023   -0.4986 H   0  0  0  0  0  0  0  0  0  0  0  0
    3.2071   -1.5304   -1.3861 H   0  0  0  0  0  0  0  0  0  0  0  0
    3.3263   -1.6591    0.4046 H   0  0  0  0  0  0  0  0  0  0  0  0
    1.1289   -2.1471   -0.3789 H   0  0  0  0  0  0  0  0  0  0  0  0
   -1.3318   -2.1853   -0.2051 H   0  0  0  0  0  0  0  0  0  0  0  0
  -11.7846   -0.6126    0.7350 Cl  0  0  0  0  0  0  0  0  0  0  0  0
  1  4  1  0  0  0  0
  1  2  1  0  0  0  0
  2  3  1  0  0  0  0
  4 11  1  0  0  0  0
  5 12  1  0  0  0  0
  5  4  2  0  0  0  0
  6  5  1  0  0  0  0
  7  6  1  0  0  0  0
  8  7  1  0  0  0  0
  8 15  1  0  0  0  0
  9  6  2  0  0  0  0
  9 10  1  0  0  0  0
 10  1  2  0  0  0  0
 13  8  1  0  0  0  0
 14  8  1  0  0  0  0
 16  9  1  0  0  0  0
 17 10  1  0  0  0  0
M  RAD  3   2   2   3   3  18   2
M  END
