Coordinates from ORCA-job 4-MeOPhN2+~Cl-_B3LYPG-6-31G_dp-NX-Scan-d89-09-n800
 OpenBabel11261920533D

 18 17  0  0  0  0  0  0  0  0999 V2000
   -1.4645    1.3363   -0.4992 C   0  0  0  0  0  0  0  0  0  0  0  0
   -2.5676    2.0869   -0.6536 N   0  0  0  0  0  0  0  0  0  0  0  0
   -3.5357    2.6486   -0.8027 N   0  0  0  0  0  0  0  0  0  0  0  0
   -0.2413    1.9416   -0.0912 C   0  0  0  0  0  0  0  0  0  0  0  0
    0.8366    1.1263    0.1332 C   0  0  0  0  0  0  0  0  0  0  0  0
    0.7176   -0.2871   -0.0230 C   0  0  0  0  0  0  0  0  0  0  0  0
    1.7906   -0.9901    0.2915 O   0  0  0  0  0  0  0  0  0  0  0  0
    1.7509   -2.4392    0.1798 C   0  0  0  0  0  0  0  0  0  0  0  0
   -0.4928   -0.8678   -0.4714 C   0  0  0  0  0  0  0  0  0  0  0  0
   -1.5830   -0.0679   -0.6944 C   0  0  0  0  0  0  0  0  0  0  0  0
   -0.1814    3.0152    0.0482 H   0  0  0  0  0  0  0  0  0  0  0  0
    1.7875    1.5325    0.4589 H   0  0  0  0  0  0  0  0  0  0  0  0
    2.6711   -2.7790    0.6521 H   0  0  0  0  0  0  0  0  0  0  0  0
    1.7415   -2.7189   -0.8769 H   0  0  0  0  0  0  0  0  0  0  0  0
    0.8610   -2.8526    0.6709 H   0  0  0  0  0  0  0  0  0  0  0  0
   -0.6701   -1.9600   -0.4914 H   0  0  0  0  0  0  0  0  0  0  0  0
   -2.5314   -0.5154   -0.9730 H   0  0  0  0  0  0  0  0  0  0  0  0
   -1.6436   -3.5604    0.4314 Cl  0  0  0  0  0  0  0  0  0  0  0  0
  1  4  1  0  0  0  0
  2  1  1  0  0  0  0
  3  2  1  0  0  0  0
  4 11  1  0  0  0  0
  4  5  2  0  0  0  0
  5 12  1  0  0  0  0
  6  5  1  0  0  0  0
  6  7  1  0  0  0  0
  8  7  1  0  0  0  0
  8 13  1  0  0  0  0
  8 15  1  0  0  0  0
  9  6  2  0  0  0  0
 10  1  2  0  0  0  0
 10  9  1  0  0  0  0
 14  8  1  0  0  0  0
 16  9  1  0  0  0  0
 17 10  1  0  0  0  0
M  RAD  3   2   2   3   3  18   2
M  END
