Coordinates from ORCA-job 4-MeOPhN2+~Cl-_B3LYPG-6-31G_dp-NX-Scan-d89-09-n800
 OpenBabel11261920533D

 18 18  0  0  0  0  0  0  0  0999 V2000
   -1.5862    0.9187   -0.2683 C   0  0  0  0  0  0  0  0  0  0  0  0
   -2.6845    1.8218   -0.3578 N   0  0  0  0  0  0  0  0  0  0  0  0
   -3.8909    1.4593   -0.6161 N   0  0  0  0  0  0  0  0  0  0  0  0
   -0.3917    1.6267    0.0158 C   0  0  0  0  0  0  0  0  0  0  0  0
    0.8267    0.9942    0.1568 C   0  0  0  0  0  0  0  0  0  0  0  0
    0.9082   -0.4024    0.0188 C   0  0  0  0  0  0  0  0  0  0  0  0
    2.1458   -0.9413    0.1751 O   0  0  0  0  0  0  0  0  0  0  0  0
    2.2930   -2.3495    0.0613 C   0  0  0  0  0  0  0  0  0  0  0  0
   -0.2525   -1.1326   -0.2619 C   0  0  0  0  0  0  0  0  0  0  0  0
   -1.4827   -0.4864   -0.4041 C   0  0  0  0  0  0  0  0  0  0  0  0
   -0.4733    2.7036    0.1214 H   0  0  0  0  0  0  0  0  0  0  0  0
    1.7327    1.5498    0.3751 H   0  0  0  0  0  0  0  0  0  0  0  0
    3.3504   -2.5556    0.2312 H   0  0  0  0  0  0  0  0  0  0  0  0
    2.0114   -2.7054   -0.9379 H   0  0  0  0  0  0  0  0  0  0  0  0
    1.6958   -2.8795    0.8136 H   0  0  0  0  0  0  0  0  0  0  0  0
   -0.2164   -2.2098   -0.3754 H   0  0  0  0  0  0  0  0  0  0  0  0
   -2.3427   -1.1007   -0.6198 H   0  0  0  0  0  0  0  0  0  0  0  0
   -4.3978    0.3381   -0.8388 Cl  0  0  0  0  0  0  0  0  0  0  0  0
  1  4  1  0  0  0  0
  2  1  1  0  0  0  0
  3  2  2  0  0  0  0
  4 11  1  0  0  0  0
  4  5  2  0  0  0  0
  5 12  1  0  0  0  0
  6  5  1  0  0  0  0
  6  7  1  0  0  0  0
  8  7  1  0  0  0  0
  8 13  1  0  0  0  0
  8 15  1  0  0  0  0
  9  6  2  0  0  0  0
 10  1  2  0  0  0  0
 10  9  1  0  0  0  0
 14  8  1  0  0  0  0
 16  9  1  0  0  0  0
 17 10  1  0  0  0  0
 18  3  1  0  0  0  0
M  END
