Coordinates from ORCA-job 4-MeOPhN2+~Cl-_B3LYPG-6-31G_dp-NX-Scan-d89-09-n800
 OpenBabel11261920533D

 18 18  0  0  1  0  0  0  0  0999 V2000
   -1.5976    1.0421   -0.4526 C   0  0  0  0  0  0  0  0  0  0  0  0
   -2.5489    1.8044   -0.9715 N   0  0  0  0  0  0  0  0  0  0  0  0
   -3.3090    2.5103   -1.4428 N   0  0  0  0  0  0  0  0  0  0  0  0
   -0.4798    1.6963    0.1794 C   0  0  0  0  0  0  0  0  0  0  0  0
    0.6308    0.9688    0.4531 C   0  0  0  0  0  0  0  0  0  0  0  0
    0.6976   -0.4225    0.0705 C   0  0  0  0  0  0  0  0  0  0  0  0
    1.9144   -0.9740    0.2859 O   0  0  0  0  0  0  0  0  0  0  0  0
    2.0861   -2.3591    0.0011 C   0  0  0  0  0  0  0  0  0  0  0  0
   -0.3807   -1.0692   -0.4720 C   0  0  0  0  0  0  0  0  0  0  0  0
   -1.6650   -0.4138   -0.5626 C   0  0  1  0  0  0  0  0  0  0  0  0
   -0.5401    2.7553    0.4056 H   0  0  0  0  0  0  0  0  0  0  0  0
    1.4993    1.4100    0.9281 H   0  0  0  0  0  0  0  0  0  0  0  0
    3.1117   -2.5976    0.2838 H   0  0  0  0  0  0  0  0  0  0  0  0
    1.9443   -2.5649   -1.0668 H   0  0  0  0  0  0  0  0  0  0  0  0
    1.3902   -2.9714    0.5853 H   0  0  0  0  0  0  0  0  0  0  0  0
   -0.3424   -2.1172   -0.7354 H   0  0  0  0  0  0  0  0  0  0  0  0
   -2.3628   -0.7991   -1.2961 H   0  0  0  0  0  0  0  0  0  0  0  0
   -2.8028   -1.2491    1.0961 Cl  0  0  0  0  0  0  0  0  0  0  0  0
  1  4  2  0  0  0  0
  2  1  1  0  0  0  0
  3  2  1  0  0  0  0
  4 11  1  0  0  0  0
  4  5  1  0  0  0  0
  5 12  1  0  0  0  0
  6  7  1  0  0  0  0
  6  5  1  0  0  0  0
  8 13  1  0  0  0  0
  8  7  1  0  0  0  0
  8 15  1  0  0  0  0
  9  6  2  0  0  0  0
 10 17  1  6  0  0  0
 10  9  1  0  0  0  0
 10  1  1  0  0  0  0
 10 18  1  0  0  0  0
 14  8  1  0  0  0  0
 16  9  1  0  0  0  0
M  RAD  3   2   2   3   3   5   2
M  END
