Coordinates from ORCA-job 4-MeOPhN2+~Cl-_B3LYPG-6-31G_dp-NX-Scan-d89-09-n800
 OpenBabel11261920533D

 18 18  0  0  1  0  0  0  0  0999 V2000
   -1.5245    1.0801   -0.5191 C   0  0  0  0  0  0  0  0  0  0  0  0
   -2.6462    1.7445   -0.7247 N   0  0  0  0  0  0  0  0  0  0  0  0
   -3.6662    2.2139   -0.8902 N   0  0  0  0  0  0  0  0  0  0  0  0
   -0.3956    1.7281    0.0810 C   0  0  0  0  0  0  0  0  0  0  0  0
    0.7082    0.9923    0.3651 C   0  0  0  0  0  0  0  0  0  0  0  0
    0.7365   -0.4175    0.0475 C   0  0  0  0  0  0  0  0  0  0  0  0
    1.9330   -0.9925    0.3103 O   0  0  0  0  0  0  0  0  0  0  0  0
    2.0724   -2.3927    0.0918 C   0  0  0  0  0  0  0  0  0  0  0  0
   -0.3430   -1.0597   -0.4987 C   0  0  0  0  0  0  0  0  0  0  0  0
   -1.6032   -0.3745   -0.6877 C   0  0  1  0  0  0  0  0  0  0  0  0
   -0.4476    2.7886    0.3024 H   0  0  0  0  0  0  0  0  0  0  0  0
    1.5894    1.4313    0.8173 H   0  0  0  0  0  0  0  0  0  0  0  0
    3.0826   -2.6467    0.4138 H   0  0  0  0  0  0  0  0  0  0  0  0
    1.9541   -2.6427   -0.9694 H   0  0  0  0  0  0  0  0  0  0  0  0
    1.3432   -2.9591    0.6816 H   0  0  0  0  0  0  0  0  0  0  0  0
   -0.3090   -2.1096   -0.7562 H   0  0  0  0  0  0  0  0  0  0  0  0
   -2.2110   -0.7200   -1.5167 H   0  0  0  0  0  0  0  0  0  0  0  0
   -3.0278   -1.0150    0.7410 Cl  0  0  0  0  0  0  0  0  0  0  0  0
  1  4  2  0  0  0  0
  2  1  1  0  0  0  0
  3  2  1  0  0  0  0
  4 11  1  0  0  0  0
  4  5  1  0  0  0  0
  5 12  1  0  0  0  0
  6  7  1  0  0  0  0
  6  5  1  0  0  0  0
  8  7  1  0  0  0  0
  8 13  1  0  0  0  0
  8 15  1  0  0  0  0
  9  6  2  0  0  0  0
 10 17  1  6  0  0  0
 10  1  1  0  0  0  0
 10  9  1  0  0  0  0
 10 18  1  0  0  0  0
 14  8  1  0  0  0  0
 16  9  1  0  0  0  0
M  RAD  3   2   2   3   3   5   2
M  END
