Coordinates from ORCA-job 4-MeOPhN2+~Cl-_B3LYPG-6-31G_dp-NX-Scan-d89-09-n800
 OpenBabel11261920533D

 18 17  0  0  0  0  0  0  0  0999 V2000
   -1.4814    1.2036   -0.4579 C   0  0  0  0  0  0  0  0  0  0  0  0
   -2.5838    1.9416   -0.7023 N   0  0  0  0  0  0  0  0  0  0  0  0
   -3.5003    2.5687   -0.8969 N   0  0  0  0  0  0  0  0  0  0  0  0
   -0.2792    1.8795   -0.0867 C   0  0  0  0  0  0  0  0  0  0  0  0
    0.8377    1.1219    0.1404 C   0  0  0  0  0  0  0  0  0  0  0  0
    0.7864   -0.2976    0.0141 C   0  0  0  0  0  0  0  0  0  0  0  0
    1.9370   -0.9289    0.2622 O   0  0  0  0  0  0  0  0  0  0  0  0
    1.9667   -2.3649    0.1996 C   0  0  0  0  0  0  0  0  0  0  0  0
   -0.4110   -0.9419   -0.3338 C   0  0  0  0  0  0  0  0  0  0  0  0
   -1.5561   -0.2073   -0.5802 C   0  0  0  0  0  0  0  0  0  0  0  0
   -0.2657    2.9585    0.0205 H   0  0  0  0  0  0  0  0  0  0  0  0
    1.7766    1.5804    0.4298 H   0  0  0  0  0  0  0  0  0  0  0  0
    2.9868   -2.6437    0.4601 H   0  0  0  0  0  0  0  0  0  0  0  0
    1.7293   -2.7139   -0.8099 H   0  0  0  0  0  0  0  0  0  0  0  0
    1.2626   -2.8000    0.9142 H   0  0  0  0  0  0  0  0  0  0  0  0
   -0.5427   -2.0205   -0.3727 H   0  0  0  0  0  0  0  0  0  0  0  0
   -2.4694   -0.7722   -0.7979 H   0  0  0  0  0  0  0  0  0  0  0  0
   -2.9482   -2.9141   -0.1137 Cl  0  0  0  0  0  0  0  0  0  0  0  0
  1  4  1  0  0  0  0
  2  1  1  0  0  0  0
  3  2  1  0  0  0  0
  4 11  1  0  0  0  0
  4  5  2  0  0  0  0
  5 12  1  0  0  0  0
  6  5  1  0  0  0  0
  6  7  1  0  0  0  0
  8  7  1  0  0  0  0
  8 13  1  0  0  0  0
  8 15  1  0  0  0  0
  9  6  2  0  0  0  0
 10  1  2  0  0  0  0
 10  9  1  0  0  0  0
 14  8  1  0  0  0  0
 16  9  1  0  0  0  0
 17 10  1  0  0  0  0
M  RAD  3   2   2   3   3  18   2
M  END
