Coordinates from ORCA-job 4-MeOPhN2+~Cl-_B3LYPG-6-31G_dp-NX-Scan-d89-09-n800
 OpenBabel11261920533D

 18 18  0  0  1  0  0  0  0  0999 V2000
   -1.6021    1.0412   -0.4490 C   0  0  0  0  0  0  0  0  0  0  0  0
   -2.5407    1.8090   -0.9858 N   0  0  0  0  0  0  0  0  0  0  0  0
   -3.2805    2.5265   -1.4717 N   0  0  0  0  0  0  0  0  0  0  0  0
   -0.4848    1.6960    0.1842 C   0  0  0  0  0  0  0  0  0  0  0  0
    0.6269    0.9691    0.4555 C   0  0  0  0  0  0  0  0  0  0  0  0
    0.6958   -0.4205    0.0692 C   0  0  0  0  0  0  0  0  0  0  0  0
    1.9125   -0.9719    0.2833 O   0  0  0  0  0  0  0  0  0  0  0  0
    2.0846   -2.3570   -0.0025 C   0  0  0  0  0  0  0  0  0  0  0  0
   -0.3832   -1.0671   -0.4738 C   0  0  0  0  0  0  0  0  0  0  0  0
   -1.6656   -0.4129   -0.5614 C   0  0  1  0  0  0  0  0  0  0  0  0
   -0.5460    2.7545    0.4122 H   0  0  0  0  0  0  0  0  0  0  0  0
    1.4947    1.4103    0.9319 H   0  0  0  0  0  0  0  0  0  0  0  0
    3.1104   -2.5951    0.2796 H   0  0  0  0  0  0  0  0  0  0  0  0
    1.9424   -2.5620   -1.0705 H   0  0  0  0  0  0  0  0  0  0  0  0
    1.3892   -2.9696    0.5818 H   0  0  0  0  0  0  0  0  0  0  0  0
   -0.3453   -2.1156   -0.7355 H   0  0  0  0  0  0  0  0  0  0  0  0
   -2.3742   -0.8035   -1.2811 H   0  0  0  0  0  0  0  0  0  0  0  0
   -2.7885   -1.2824    1.1226 Cl  0  0  0  0  0  0  0  0  0  0  0  0
  1  4  2  0  0  0  0
  2  1  1  0  0  0  0
  3  2  1  0  0  0  0
  4 11  1  0  0  0  0
  4  5  1  0  0  0  0
  5 12  1  0  0  0  0
  6  7  1  0  0  0  0
  6  5  1  0  0  0  0
  8 13  1  0  0  0  0
  8  7  1  0  0  0  0
  8 15  1  0  0  0  0
  9  6  2  0  0  0  0
 10 17  1  6  0  0  0
 10  9  1  0  0  0  0
 10  1  1  0  0  0  0
 10 18  1  0  0  0  0
 14  8  1  0  0  0  0
 16  9  1  0  0  0  0
M  RAD  3   2   2   3   3   5   2
M  END
