Coordinates from ORCA-job 4-MeOPhN2+~Cl-_B3LYPG-6-31G_dp-NX-Scan-d89-09-n800
 OpenBabel11261920533D

 18 18  0  0  0  0  0  0  0  0999 V2000
   -1.5522    0.9240   -0.4596 C   0  0  0  0  0  0  0  0  0  0  0  0
   -2.6699    1.7534   -0.7837 N   0  0  0  0  0  0  0  0  0  0  0  0
   -3.8722    1.4478   -0.5113 N   0  0  0  0  0  0  0  0  0  0  0  0
   -0.4068    1.6372   -0.0537 C   0  0  0  0  0  0  0  0  0  0  0  0
    0.7843    0.9870    0.2166 C   0  0  0  0  0  0  0  0  0  0  0  0
    0.8826   -0.4028    0.0346 C   0  0  0  0  0  0  0  0  0  0  0  0
    2.0959   -0.9510    0.3128 O   0  0  0  0  0  0  0  0  0  0  0  0
    2.2610   -2.3516    0.1454 C   0  0  0  0  0  0  0  0  0  0  0  0
   -0.2310   -1.1199   -0.4219 C   0  0  0  0  0  0  0  0  0  0  0  0
   -1.4398   -0.4621   -0.6542 C   0  0  0  0  0  0  0  0  0  0  0  0
   -0.4849    2.7150    0.0491 H   0  0  0  0  0  0  0  0  0  0  0  0
    1.6624    1.5303    0.5495 H   0  0  0  0  0  0  0  0  0  0  0  0
    3.2915   -2.5686    0.4290 H   0  0  0  0  0  0  0  0  0  0  0  0
    2.1016   -2.6556   -0.8969 H   0  0  0  0  0  0  0  0  0  0  0  0
    1.5809   -2.9183    0.7933 H   0  0  0  0  0  0  0  0  0  0  0  0
   -0.1720   -2.1872   -0.5993 H   0  0  0  0  0  0  0  0  0  0  0  0
   -2.2771   -1.0415   -1.0234 H   0  0  0  0  0  0  0  0  0  0  0  0
   -4.3090    0.3127    0.1628 Cl  0  0  0  0  0  0  0  0  0  0  0  0
  1  4  1  0  0  0  0
  2  3  2  0  0  0  0
  2  1  1  0  0  0  0
  3 18  1  0  0  0  0
  4 11  1  0  0  0  0
  4  5  2  0  0  0  0
  5 12  1  0  0  0  0
  6  5  1  0  0  0  0
  6  7  1  0  0  0  0
  8  7  1  0  0  0  0
  8 13  1  0  0  0  0
  8 15  1  0  0  0  0
  9  6  2  0  0  0  0
 10  1  2  0  0  0  0
 10  9  1  0  0  0  0
 14  8  1  0  0  0  0
 16  9  1  0  0  0  0
 17 10  1  0  0  0  0
M  END
