Coordinates from ORCA-job 4-MeOPhN2+~Cl-_B3LYPG-6-31G_dp-NX-Scan-d89-09-n800
 OpenBabel11261920533D

 18 17  0  0  0  0  0  0  0  0999 V2000
   -1.4924   -0.0116   -0.0417 C   0  0  0  0  0  0  0  0  0  0  0  0
   -2.8539   -0.0356    0.0536 N   0  0  0  0  0  0  0  0  0  0  0  0
   -3.9696   -0.0514    0.1320 N   0  0  0  0  0  0  0  0  0  0  0  0
   -0.8290    1.2403   -0.0004 C   0  0  0  0  0  0  0  0  0  0  0  0
    0.5396    1.2458   -0.0971 C   0  0  0  0  0  0  0  0  0  0  0  0
    1.2585    0.0283   -0.2341 C   0  0  0  0  0  0  0  0  0  0  0  0
    2.5743    0.1575   -0.3174 O   0  0  0  0  0  0  0  0  0  0  0  0
    3.4195   -1.0009   -0.4571 C   0  0  0  0  0  0  0  0  0  0  0  0
    0.5711   -1.2106   -0.2731 C   0  0  0  0  0  0  0  0  0  0  0  0
   -0.8039   -1.2365   -0.1773 C   0  0  0  0  0  0  0  0  0  0  0  0
   -1.3940    2.1614    0.1053 H   0  0  0  0  0  0  0  0  0  0  0  0
    1.0991    2.1748   -0.0708 H   0  0  0  0  0  0  0  0  0  0  0  0
    4.4346   -0.6101   -0.4965 H   0  0  0  0  0  0  0  0  0  0  0  0
    3.1909   -1.5344   -1.3844 H   0  0  0  0  0  0  0  0  0  0  0  0
    3.3092   -1.6635    0.4064 H   0  0  0  0  0  0  0  0  0  0  0  0
    1.1105   -2.1445   -0.3778 H   0  0  0  0  0  0  0  0  0  0  0  0
   -1.3505   -2.1750   -0.2051 H   0  0  0  0  0  0  0  0  0  0  0  0
  -11.5686   -0.6850    0.7246 Cl  0  0  0  0  0  0  0  0  0  0  0  0
  1  4  1  0  0  0  0
  1  2  1  0  0  0  0
  2  3  1  0  0  0  0
  4 11  1  0  0  0  0
  5 12  1  0  0  0  0
  5  4  2  0  0  0  0
  6  5  1  0  0  0  0
  7  6  1  0  0  0  0
  8  7  1  0  0  0  0
  8 15  1  0  0  0  0
  9  6  2  0  0  0  0
  9 10  1  0  0  0  0
 10  1  2  0  0  0  0
 13  8  1  0  0  0  0
 14  8  1  0  0  0  0
 16  9  1  0  0  0  0
 17 10  1  0  0  0  0
M  RAD  3   2   2   3   3  18   2
M  END
