Coordinates from ORCA-job 4-MeOPhN2+~Cl-_B3LYPG-6-31G_dp-NX-Scan-d89-09-n800
 OpenBabel11261920533D

 18 17  0  0  0  0  0  0  0  0999 V2000
   -1.4955    1.3755   -0.4937 C   0  0  0  0  0  0  0  0  0  0  0  0
   -2.5248    2.1961   -0.7628 N   0  0  0  0  0  0  0  0  0  0  0  0
   -3.3906    2.8834   -1.0028 N   0  0  0  0  0  0  0  0  0  0  0  0
   -0.2528    1.9512   -0.0975 C   0  0  0  0  0  0  0  0  0  0  0  0
    0.7927    1.1114    0.1692 C   0  0  0  0  0  0  0  0  0  0  0  0
    0.6387   -0.3035    0.0531 C   0  0  0  0  0  0  0  0  0  0  0  0
    1.7218   -0.9991    0.3305 O   0  0  0  0  0  0  0  0  0  0  0  0
    1.7469   -2.4410    0.1465 C   0  0  0  0  0  0  0  0  0  0  0  0
   -0.6068   -0.8706   -0.3332 C   0  0  0  0  0  0  0  0  0  0  0  0
   -1.6647   -0.0370   -0.6028 C   0  0  0  0  0  0  0  0  0  0  0  0
   -0.1523    3.0279   -0.0151 H   0  0  0  0  0  0  0  0  0  0  0  0
    1.7586    1.4980    0.4738 H   0  0  0  0  0  0  0  0  0  0  0  0
    2.7043   -2.7530    0.5604 H   0  0  0  0  0  0  0  0  0  0  0  0
    1.7015   -2.6625   -0.9227 H   0  0  0  0  0  0  0  0  0  0  0  0
    0.8973   -2.9352    0.6399 H   0  0  0  0  0  0  0  0  0  0  0  0
   -0.7745   -1.9676   -0.3316 H   0  0  0  0  0  0  0  0  0  0  0  0
   -2.6270   -0.4518   -0.8843 H   0  0  0  0  0  0  0  0  0  0  0  0
   -1.2274   -3.9731    0.3622 Cl  0  0  0  0  0  0  0  0  0  0  0  0
  1  4  1  0  0  0  0
  2  1  1  0  0  0  0
  3  2  1  0  0  0  0
  4 11  1  0  0  0  0
  4  5  2  0  0  0  0
  5 12  1  0  0  0  0
  6  5  1  0  0  0  0
  6  7  1  0  0  0  0
  8  7  1  0  0  0  0
  8 13  1  0  0  0  0
  8 15  1  0  0  0  0
  9 16  1  0  0  0  0
  9  6  2  0  0  0  0
 10  1  2  0  0  0  0
 10  9  1  0  0  0  0
 14  8  1  0  0  0  0
 17 10  1  0  0  0  0
M  RAD  3   2   2   3   3  18   2
M  END
