Coordinates from ORCA-job 4-MeOPhN2+~Cl-_B3LYPG-6-31G_dp-NX-Scan-d89-09-n800
 OpenBabel11261920533D

 18 17  0  0  0  0  0  0  0  0999 V2000
   -1.4985   -0.0055   -0.0419 C   0  0  0  0  0  0  0  0  0  0  0  0
   -2.8599   -0.0269    0.0530 N   0  0  0  0  0  0  0  0  0  0  0  0
   -3.9755   -0.0404    0.1310 N   0  0  0  0  0  0  0  0  0  0  0  0
   -0.8327    1.2451   -0.0004 C   0  0  0  0  0  0  0  0  0  0  0  0
    0.5359    1.2481   -0.0968 C   0  0  0  0  0  0  0  0  0  0  0  0
    1.2526    0.0294   -0.2335 C   0  0  0  0  0  0  0  0  0  0  0  0
    2.5687    0.1562   -0.3165 O   0  0  0  0  0  0  0  0  0  0  0  0
    3.4118   -1.0037   -0.4561 C   0  0  0  0  0  0  0  0  0  0  0  0
    0.5630   -1.2082   -0.2727 C   0  0  0  0  0  0  0  0  0  0  0  0
   -0.8121   -1.2318   -0.1773 C   0  0  0  0  0  0  0  0  0  0  0  0
   -1.3961    2.1671    0.1051 H   0  0  0  0  0  0  0  0  0  0  0  0
    1.0971    2.1759   -0.0703 H   0  0  0  0  0  0  0  0  0  0  0  0
    4.4275   -0.6147   -0.4954 H   0  0  0  0  0  0  0  0  0  0  0  0
    3.1824   -1.5368   -1.3835 H   0  0  0  0  0  0  0  0  0  0  0  0
    3.3002   -1.6661    0.4074 H   0  0  0  0  0  0  0  0  0  0  0  0
    1.1007   -2.1430   -0.3772 H   0  0  0  0  0  0  0  0  0  0  0  0
   -1.3604   -2.1691   -0.2052 H   0  0  0  0  0  0  0  0  0  0  0  0
  -11.4594   -0.7267    0.7197 Cl  0  0  0  0  0  0  0  0  0  0  0  0
  1  4  1  0  0  0  0
  1  2  1  0  0  0  0
  2  3  1  0  0  0  0
  4 11  1  0  0  0  0
  5 12  1  0  0  0  0
  5  4  2  0  0  0  0
  6  5  1  0  0  0  0
  7  6  1  0  0  0  0
  8  7  1  0  0  0  0
  8 15  1  0  0  0  0
  9  6  2  0  0  0  0
  9 10  1  0  0  0  0
 10  1  2  0  0  0  0
 13  8  1  0  0  0  0
 14  8  1  0  0  0  0
 16  9  1  0  0  0  0
 17 10  1  0  0  0  0
M  RAD  3   2   2   3   3  18   2
M  END
