Coordinates from ORCA-job 4-MeOPhN2+~Cl-_B3LYPG-6-31G_dp-NX-Scan-d89-09-n800
 OpenBabel11261920533D

 18 17  0  0  0  0  0  0  0  0999 V2000
   -1.4895    1.3718   -0.4934 C   0  0  0  0  0  0  0  0  0  0  0  0
   -2.5313    2.1808   -0.7468 N   0  0  0  0  0  0  0  0  0  0  0  0
   -3.4177    2.8447   -0.9764 N   0  0  0  0  0  0  0  0  0  0  0  0
   -0.2490    1.9512   -0.0975 C   0  0  0  0  0  0  0  0  0  0  0  0
    0.8007    1.1139    0.1630 C   0  0  0  0  0  0  0  0  0  0  0  0
    0.6503   -0.3012    0.0439 C   0  0  0  0  0  0  0  0  0  0  0  0
    1.7319   -0.9977    0.3263 O   0  0  0  0  0  0  0  0  0  0  0  0
    1.7462   -2.4414    0.1520 C   0  0  0  0  0  0  0  0  0  0  0  0
   -0.5913   -0.8701   -0.3495 C   0  0  0  0  0  0  0  0  0  0  0  0
   -1.6525   -0.0400   -0.6134 C   0  0  0  0  0  0  0  0  0  0  0  0
   -0.1531    3.0278   -0.0085 H   0  0  0  0  0  0  0  0  0  0  0  0
    1.7651    1.5030    0.4687 H   0  0  0  0  0  0  0  0  0  0  0  0
    2.6972   -2.7598    0.5759 H   0  0  0  0  0  0  0  0  0  0  0  0
    1.7077   -2.6695   -0.9160 H   0  0  0  0  0  0  0  0  0  0  0  0
    0.8878   -2.9218    0.6427 H   0  0  0  0  0  0  0  0  0  0  0  0
   -0.7654   -1.9671   -0.3499 H   0  0  0  0  0  0  0  0  0  0  0  0
   -2.6134   -0.4581   -0.8952 H   0  0  0  0  0  0  0  0  0  0  0  0
   -1.2783   -3.9175    0.3631 Cl  0  0  0  0  0  0  0  0  0  0  0  0
  1  4  1  0  0  0  0
  2  1  1  0  0  0  0
  3  2  1  0  0  0  0
  4 11  1  0  0  0  0
  4  5  2  0  0  0  0
  5 12  1  0  0  0  0
  6  5  1  0  0  0  0
  6  7  1  0  0  0  0
  8  7  1  0  0  0  0
  8 13  1  0  0  0  0
  8 15  1  0  0  0  0
  9  6  2  0  0  0  0
 10  1  2  0  0  0  0
 10  9  1  0  0  0  0
 14  8  1  0  0  0  0
 16  9  1  0  0  0  0
 17 10  1  0  0  0  0
M  RAD  3   2   2   3   3  18   2
M  END
