Coordinates from ORCA-job 4-MeOPhN2+~Cl-_B3LYPG-6-31G_dp-NX-Scan-d89-09-n800
 OpenBabel11261920533D

 18 17  0  0  0  0  0  0  0  0999 V2000
   -1.5647    1.0932   -0.4860 C   0  0  0  0  0  0  0  0  0  0  0  0
   -2.5709    1.8737   -0.9055 N   0  0  0  0  0  0  0  0  0  0  0  0
   -3.3513    2.6066   -1.2784 N   0  0  0  0  0  0  0  0  0  0  0  0
   -0.4359    1.7533    0.1100 C   0  0  0  0  0  0  0  0  0  0  0  0
    0.6868    1.0225    0.3498 C   0  0  0  0  0  0  0  0  0  0  0  0
    0.7352   -0.3665    0.0041 C   0  0  0  0  0  0  0  0  0  0  0  0
    1.9126   -0.9598    0.2709 O   0  0  0  0  0  0  0  0  0  0  0  0
    2.0242   -2.3738    0.0860 C   0  0  0  0  0  0  0  0  0  0  0  0
   -0.3681   -1.0050   -0.5427 C   0  0  0  0  0  0  0  0  0  0  0  0
   -1.5782   -0.3184   -0.7190 C   0  0  0  0  0  0  0  0  0  0  0  0
   -0.4929    2.8094    0.3476 H   0  0  0  0  0  0  0  0  0  0  0  0
    1.5639    1.4682    0.8050 H   0  0  0  0  0  0  0  0  0  0  0  0
    3.0264   -2.6359    0.4242 H   0  0  0  0  0  0  0  0  0  0  0  0
    1.9127   -2.6426   -0.9705 H   0  0  0  0  0  0  0  0  0  0  0  0
    1.2771   -2.9047    0.6841 H   0  0  0  0  0  0  0  0  0  0  0  0
   -0.3669   -2.0665   -0.7442 H   0  0  0  0  0  0  0  0  0  0  0  0
   -2.4103   -0.7789   -1.2290 H   0  0  0  0  0  0  0  0  0  0  0  0
   -2.7544   -1.9258    1.0828 Cl  0  0  0  0  0  0  0  0  0  0  0  0
  1  4  2  0  0  0  0
  2  1  1  0  0  0  0
  3  2  1  0  0  0  0
  4 11  1  0  0  0  0
  4  5  1  0  0  0  0
  5 12  1  0  0  0  0
  6  7  1  0  0  0  0
  6  5  2  0  0  0  0
  8  7  1  0  0  0  0
  8 13  1  0  0  0  0
  8 15  1  0  0  0  0
  9  6  1  0  0  0  0
 10  9  2  0  0  0  0
 10  1  1  0  0  0  0
 14  8  1  0  0  0  0
 16  9  1  0  0  0  0
 17 10  1  0  0  0  0
M  RAD  3   2   2   3   3  18   2
M  END
