Coordinates from ORCA-job 4-MeOPhN2+~Cl-_B3LYPG-6-31G_dp-NX-Scan-d89-09-n800
 OpenBabel11261920533D

 18 17  0  0  0  0  0  0  0  0999 V2000
   -1.4857    0.9799   -0.2589 C   0  0  0  0  0  0  0  0  0  0  0  0
   -2.6587    1.7269   -0.3829 N   0  0  0  0  0  0  0  0  0  0  0  0
   -3.8082    1.6855   -0.5713 N   0  0  0  0  0  0  0  0  0  0  0  0
   -0.3054    1.7009    0.0010 C   0  0  0  0  0  0  0  0  0  0  0  0
    0.8901    1.0244    0.1362 C   0  0  0  0  0  0  0  0  0  0  0  0
    0.9211   -0.3799    0.0134 C   0  0  0  0  0  0  0  0  0  0  0  0
    2.1360   -0.9465    0.1645 O   0  0  0  0  0  0  0  0  0  0  0  0
    2.2565   -2.3645    0.0680 C   0  0  0  0  0  0  0  0  0  0  0  0
   -0.2628   -1.0924   -0.2482 C   0  0  0  0  0  0  0  0  0  0  0  0
   -1.4699   -0.4181   -0.3851 C   0  0  0  0  0  0  0  0  0  0  0  0
   -0.3515    2.7808    0.0936 H   0  0  0  0  0  0  0  0  0  0  0  0
    1.8178    1.5476    0.3382 H   0  0  0  0  0  0  0  0  0  0  0  0
    3.3113   -2.5831    0.2337 H   0  0  0  0  0  0  0  0  0  0  0  0
    1.9615   -2.7229   -0.9250 H   0  0  0  0  0  0  0  0  0  0  0  0
    1.6552   -2.8680    0.8334 H   0  0  0  0  0  0  0  0  0  0  0  0
   -0.2524   -2.1708   -0.3473 H   0  0  0  0  0  0  0  0  0  0  0  0
   -2.3971   -0.9429   -0.5864 H   0  0  0  0  0  0  0  0  0  0  0  0
   -4.7124   -0.3079   -0.8876 Cl  0  0  0  0  0  0  0  0  0  0  0  0
  1  4  1  0  0  0  0
  2  1  1  0  0  0  0
  3  2  2  0  0  0  0
  4 11  1  0  0  0  0
  4  5  2  0  0  0  0
  5 12  1  0  0  0  0
  6  5  1  0  0  0  0
  6  7  1  0  0  0  0
  8  7  1  0  0  0  0
  8 13  1  0  0  0  0
  8 15  1  0  0  0  0
  9  6  2  0  0  0  0
 10  1  2  0  0  0  0
 10  9  1  0  0  0  0
 14  8  1  0  0  0  0
 16  9  1  0  0  0  0
 17 10  1  0  0  0  0
M  RAD  2   3   2  18   2
M  END
