Coordinates from ORCA-job 4-MeOPhN2+~Cl-_B3LYPG-6-31G_dp-NX-Scan-d89-09-n800
 OpenBabel11261920533D

 18 17  0  0  0  0  0  0  0  0999 V2000
   -1.4991   -0.0050   -0.0419 C   0  0  0  0  0  0  0  0  0  0  0  0
   -2.8604   -0.0261    0.0529 N   0  0  0  0  0  0  0  0  0  0  0  0
   -3.9761   -0.0393    0.1309 N   0  0  0  0  0  0  0  0  0  0  0  0
   -0.8331    1.2455   -0.0004 C   0  0  0  0  0  0  0  0  0  0  0  0
    0.5356    1.2483   -0.0967 C   0  0  0  0  0  0  0  0  0  0  0  0
    1.2521    0.0294   -0.2335 C   0  0  0  0  0  0  0  0  0  0  0  0
    2.5682    0.1560   -0.3164 O   0  0  0  0  0  0  0  0  0  0  0  0
    3.4111   -1.0039   -0.4560 C   0  0  0  0  0  0  0  0  0  0  0  0
    0.5622   -1.2081   -0.2727 C   0  0  0  0  0  0  0  0  0  0  0  0
   -0.8129   -1.2314   -0.1773 C   0  0  0  0  0  0  0  0  0  0  0  0
   -1.3963    2.1676    0.1050 H   0  0  0  0  0  0  0  0  0  0  0  0
    1.0969    2.1760   -0.0703 H   0  0  0  0  0  0  0  0  0  0  0  0
    4.4269   -0.6150   -0.4953 H   0  0  0  0  0  0  0  0  0  0  0  0
    3.1817   -1.5370   -1.3834 H   0  0  0  0  0  0  0  0  0  0  0  0
    3.2994   -1.6663    0.4074 H   0  0  0  0  0  0  0  0  0  0  0  0
    1.0999   -2.1429   -0.3772 H   0  0  0  0  0  0  0  0  0  0  0  0
   -1.3613   -2.1686   -0.2052 H   0  0  0  0  0  0  0  0  0  0  0  0
  -11.4494   -0.7304    0.7192 Cl  0  0  0  0  0  0  0  0  0  0  0  0
  1  4  1  0  0  0  0
  1  2  1  0  0  0  0
  2  3  1  0  0  0  0
  4 11  1  0  0  0  0
  5 12  1  0  0  0  0
  5  4  2  0  0  0  0
  6  5  1  0  0  0  0
  7  6  1  0  0  0  0
  8  7  1  0  0  0  0
  8 15  1  0  0  0  0
  9  6  2  0  0  0  0
  9 10  1  0  0  0  0
 10  1  2  0  0  0  0
 13  8  1  0  0  0  0
 14  8  1  0  0  0  0
 16  9  1  0  0  0  0
 17 10  1  0  0  0  0
M  RAD  3   2   2   3   3  18   2
M  END
