Coordinates from ORCA-job 4-MeOPhN2+~Cl-_B3LYPG-6-31G_dp-NX-Scan-d89-09-n800
 OpenBabel11261920533D

 18 17  0  0  0  0  0  0  0  0999 V2000
   -1.4752    0.9910   -0.2535 C   0  0  0  0  0  0  0  0  0  0  0  0
   -2.6554    1.7246   -0.3791 N   0  0  0  0  0  0  0  0  0  0  0  0
   -3.7982    1.6972   -0.5683 N   0  0  0  0  0  0  0  0  0  0  0  0
   -0.2947    1.7112    0.0041 C   0  0  0  0  0  0  0  0  0  0  0  0
    0.8972    1.0280    0.1365 C   0  0  0  0  0  0  0  0  0  0  0  0
    0.9212   -0.3771    0.0139 C   0  0  0  0  0  0  0  0  0  0  0  0
    2.1335   -0.9478    0.1622 O   0  0  0  0  0  0  0  0  0  0  0  0
    2.2497   -2.3667    0.0652 C   0  0  0  0  0  0  0  0  0  0  0  0
   -0.2661   -1.0860   -0.2446 C   0  0  0  0  0  0  0  0  0  0  0  0
   -1.4701   -0.4068   -0.3794 C   0  0  0  0  0  0  0  0  0  0  0  0
   -0.3354    2.7913    0.0966 H   0  0  0  0  0  0  0  0  0  0  0  0
    1.8281    1.5462    0.3364 H   0  0  0  0  0  0  0  0  0  0  0  0
    3.3042   -2.5880    0.2283 H   0  0  0  0  0  0  0  0  0  0  0  0
    1.9512   -2.7235   -0.9272 H   0  0  0  0  0  0  0  0  0  0  0  0
    1.6487   -2.8681    0.8321 H   0  0  0  0  0  0  0  0  0  0  0  0
   -0.2602   -2.1645   -0.3428 H   0  0  0  0  0  0  0  0  0  0  0  0
   -2.4060   -0.9203   -0.5786 H   0  0  0  0  0  0  0  0  0  0  0  0
   -4.7271   -0.3915   -0.9128 Cl  0  0  0  0  0  0  0  0  0  0  0  0
  1  4  1  0  0  0  0
  2  1  1  0  0  0  0
  3  2  2  0  0  0  0
  4 11  1  0  0  0  0
  4  5  2  0  0  0  0
  5 12  1  0  0  0  0
  6  5  1  0  0  0  0
  6  7  1  0  0  0  0
  8  7  1  0  0  0  0
  8 13  1  0  0  0  0
  8 15  1  0  0  0  0
  9  6  2  0  0  0  0
 10  1  2  0  0  0  0
 10  9  1  0  0  0  0
 14  8  1  0  0  0  0
 16  9  1  0  0  0  0
 17 10  1  0  0  0  0
M  RAD  2   3   2  18   2
M  END
