Coordinates from ORCA-job 4-MeOPhN2+~Cl-_B3LYPG-6-31G_dp-NX-Scan-d89-09-n800
 OpenBabel11261920533D

 18 18  0  0  0  0  0  0  0  0999 V2000
   -1.5340    0.9398   -0.4272 C   0  0  0  0  0  0  0  0  0  0  0  0
   -2.6536    1.7623   -0.6925 N   0  0  0  0  0  0  0  0  0  0  0  0
   -3.8609    1.5459   -0.5679 N   0  0  0  0  0  0  0  0  0  0  0  0
   -0.3781    1.6538   -0.0524 C   0  0  0  0  0  0  0  0  0  0  0  0
    0.8120    0.9973    0.2002 C   0  0  0  0  0  0  0  0  0  0  0  0
    0.8933   -0.3959    0.0289 C   0  0  0  0  0  0  0  0  0  0  0  0
    2.1039   -0.9506    0.2868 O   0  0  0  0  0  0  0  0  0  0  0  0
    2.2563   -2.3568    0.1377 C   0  0  0  0  0  0  0  0  0  0  0  0
   -0.2357   -1.1097   -0.3992 C   0  0  0  0  0  0  0  0  0  0  0  0
   -1.4438   -0.4491   -0.6142 C   0  0  0  0  0  0  0  0  0  0  0  0
   -0.4495    2.7321    0.0455 H   0  0  0  0  0  0  0  0  0  0  0  0
    1.7006    1.5353    0.5120 H   0  0  0  0  0  0  0  0  0  0  0  0
    3.2903   -2.5753    0.4063 H   0  0  0  0  0  0  0  0  0  0  0  0
    2.0764   -2.6734   -0.8971 H   0  0  0  0  0  0  0  0  0  0  0  0
    1.5838   -2.9068    0.8067 H   0  0  0  0  0  0  0  0  0  0  0  0
   -0.1870   -2.1787   -0.5675 H   0  0  0  0  0  0  0  0  0  0  0  0
   -2.2972   -1.0182   -0.9552 H   0  0  0  0  0  0  0  0  0  0  0  0
   -4.4316    0.0970    0.0379 Cl  0  0  0  0  0  0  0  0  0  0  0  0
  1  4  1  0  0  0  0
  2  3  2  0  0  0  0
  2  1  1  0  0  0  0
  3 18  1  0  0  0  0
  4 11  1  0  0  0  0
  4  5  2  0  0  0  0
  5 12  1  0  0  0  0
  6  5  1  0  0  0  0
  6  7  1  0  0  0  0
  8  7  1  0  0  0  0
  8 13  1  0  0  0  0
  8 15  1  0  0  0  0
  9  6  2  0  0  0  0
 10  1  2  0  0  0  0
 10  9  1  0  0  0  0
 14  8  1  0  0  0  0
 16  9  1  0  0  0  0
 17 10  1  0  0  0  0
M  END
