Coordinates from ORCA-job 4-MeOPhN2+~Cl-_B3LYPG-6-31G_dp-NX-Scan-d89-09-n800
 OpenBabel11261920533D

 18 18  0  0  0  0  0  0  0  0999 V2000
   -1.5380    0.9363   -0.4388 C   0  0  0  0  0  0  0  0  0  0  0  0
   -2.6566    1.7599   -0.7195 N   0  0  0  0  0  0  0  0  0  0  0  0
   -3.8641    1.5267   -0.5573 N   0  0  0  0  0  0  0  0  0  0  0  0
   -0.3853    1.6502   -0.0546 C   0  0  0  0  0  0  0  0  0  0  0  0
    0.8042    0.9948    0.2052 C   0  0  0  0  0  0  0  0  0  0  0  0
    0.8899   -0.3974    0.0302 C   0  0  0  0  0  0  0  0  0  0  0  0
    2.1004   -0.9509    0.2955 O   0  0  0  0  0  0  0  0  0  0  0  0
    2.2559   -2.3557    0.1418 C   0  0  0  0  0  0  0  0  0  0  0  0
   -0.2342   -1.1115   -0.4089 C   0  0  0  0  0  0  0  0  0  0  0  0
   -1.4421   -0.4515   -0.6297 C   0  0  0  0  0  0  0  0  0  0  0  0
   -0.4584    2.7284    0.0443 H   0  0  0  0  0  0  0  0  0  0  0  0
    1.6896    1.5338    0.5247 H   0  0  0  0  0  0  0  0  0  0  0  0
    3.2882   -2.5742    0.4169 H   0  0  0  0  0  0  0  0  0  0  0  0
    2.0838   -2.6689   -0.8954 H   0  0  0  0  0  0  0  0  0  0  0  0
    1.5794   -2.9098    0.8037 H   0  0  0  0  0  0  0  0  0  0  0  0
   -0.1823   -2.1797   -0.5815 H   0  0  0  0  0  0  0  0  0  0  0  0
   -2.2906   -1.0222   -0.9812 H   0  0  0  0  0  0  0  0  0  0  0  0
   -4.3944    0.1404    0.0938 Cl  0  0  0  0  0  0  0  0  0  0  0  0
  1  4  1  0  0  0  0
  2  3  2  0  0  0  0
  2  1  1  0  0  0  0
  3 18  1  0  0  0  0
  4 11  1  0  0  0  0
  4  5  2  0  0  0  0
  5 12  1  0  0  0  0
  6  5  1  0  0  0  0
  6  7  1  0  0  0  0
  8  7  1  0  0  0  0
  8 13  1  0  0  0  0
  8 15  1  0  0  0  0
  9  6  2  0  0  0  0
 10  1  2  0  0  0  0
 10  9  1  0  0  0  0
 14  8  1  0  0  0  0
 16  9  1  0  0  0  0
 17 10  1  0  0  0  0
M  END
