Coordinates from ORCA-job 4-MeOPhN2+~Cl-_B3LYPG-6-31G_dp-NX-Scan-d89-09-n800
 OpenBabel11261920533D

 18 17  0  0  0  0  0  0  0  0999 V2000
   -1.4850    1.2472   -0.4384 C   0  0  0  0  0  0  0  0  0  0  0  0
   -2.5754    2.0066   -0.6692 N   0  0  0  0  0  0  0  0  0  0  0  0
   -3.4788    2.6552   -0.8574 N   0  0  0  0  0  0  0  0  0  0  0  0
   -0.2591    1.9069   -0.1214 C   0  0  0  0  0  0  0  0  0  0  0  0
    0.8498    1.1353    0.1049 C   0  0  0  0  0  0  0  0  0  0  0  0
    0.7672   -0.2844    0.0216 C   0  0  0  0  0  0  0  0  0  0  0  0
    1.9022   -0.9389    0.2613 O   0  0  0  0  0  0  0  0  0  0  0  0
    1.8939   -2.3803    0.2107 C   0  0  0  0  0  0  0  0  0  0  0  0
   -0.4512   -0.9169   -0.2860 C   0  0  0  0  0  0  0  0  0  0  0  0
   -1.5846   -0.1676   -0.5157 C   0  0  0  0  0  0  0  0  0  0  0  0
   -0.2204    2.9888   -0.0577 H   0  0  0  0  0  0  0  0  0  0  0  0
    1.8039    1.5862    0.3535 H   0  0  0  0  0  0  0  0  0  0  0  0
    2.9062   -2.6808    0.4769 H   0  0  0  0  0  0  0  0  0  0  0  0
    1.6481   -2.7278   -0.7964 H   0  0  0  0  0  0  0  0  0  0  0  0
    1.1736   -2.7905    0.9229 H   0  0  0  0  0  0  0  0  0  0  0  0
   -0.6228   -1.9999   -0.3166 H   0  0  0  0  0  0  0  0  0  0  0  0
   -2.5061   -0.7138   -0.7202 H   0  0  0  0  0  0  0  0  0  0  0  0
   -2.5160   -3.2762   -0.2836 Cl  0  0  0  0  0  0  0  0  0  0  0  0
  1  4  1  0  0  0  0
  2  1  1  0  0  0  0
  3  2  1  0  0  0  0
  4 11  1  0  0  0  0
  4  5  2  0  0  0  0
  5 12  1  0  0  0  0
  6  5  1  0  0  0  0
  6  7  1  0  0  0  0
  8  7  1  0  0  0  0
  8 13  1  0  0  0  0
  8 15  1  0  0  0  0
  9  6  2  0  0  0  0
 10  1  2  0  0  0  0
 10  9  1  0  0  0  0
 14  8  1  0  0  0  0
 16  9  1  0  0  0  0
 17 10  1  0  0  0  0
M  RAD  3   2   2   3   3  18   2
M  END
