Coordinates from ORCA-job 4-MeOPhN2+~Cl-_B3LYPG-6-31G_dp-NX-Scan-d89-09-n800
 OpenBabel11261920443D

 18 17  0  0  0  0  0  0  0  0999 V2000
   -1.4268   -0.0512   -0.0409 C   0  0  0  0  0  0  0  0  0  0  0  0
   -2.7835   -0.0919    0.0576 N   0  0  0  0  0  0  0  0  0  0  0  0
   -3.8990   -0.1234    0.1386 N   0  0  0  0  0  0  0  0  0  0  0  0
   -0.7756    1.2087   -0.0013 C   0  0  0  0  0  0  0  0  0  0  0  0
    0.5923    1.2295   -0.1010 C   0  0  0  0  0  0  0  0  0  0  0  0
    1.3256    0.0201   -0.2393 C   0  0  0  0  0  0  0  0  0  0  0  0
    2.6378    0.1637   -0.3248 O   0  0  0  0  0  0  0  0  0  0  0  0
    3.4987   -0.9837   -0.4669 C   0  0  0  0  0  0  0  0  0  0  0  0
    0.6516   -1.2269   -0.2768 C   0  0  0  0  0  0  0  0  0  0  0  0
   -0.7224   -1.2688   -0.1781 C   0  0  0  0  0  0  0  0  0  0  0  0
   -1.3495    2.1225    0.1052 H   0  0  0  0  0  0  0  0  0  0  0  0
    1.1416    2.1637   -0.0761 H   0  0  0  0  0  0  0  0  0  0  0  0
    4.5076   -0.5782   -0.5089 H   0  0  0  0  0  0  0  0  0  0  0  0
    3.2744   -1.5195   -1.3938 H   0  0  0  0  0  0  0  0  0  0  0  0
    3.3992   -1.6470    0.3973 H   0  0  0  0  0  0  0  0  0  0  0  0
    1.2018   -2.1531   -0.3823 H   0  0  0  0  0  0  0  0  0  0  0  0
   -1.2573   -2.2121   -0.2046 H   0  0  0  0  0  0  0  0  0  0  0  0
  -12.7710   -0.4033    0.7851 Cl  0  0  0  0  0  0  0  0  0  0  0  0
  1  4  1  0  0  0  0
  1  2  1  0  0  0  0
  2  3  1  0  0  0  0
  4 11  1  0  0  0  0
  5 12  1  0  0  0  0
  5  4  2  0  0  0  0
  6  5  1  0  0  0  0
  7  6  1  0  0  0  0
  8  7  1  0  0  0  0
  8 15  1  0  0  0  0
  9  6  2  0  0  0  0
  9 10  1  0  0  0  0
 10  1  2  0  0  0  0
 13  8  1  0  0  0  0
 14  8  1  0  0  0  0
 16  9  1  0  0  0  0
 17 10  1  0  0  0  0
M  RAD  3   2   2   3   3  18   2
M  END
