Coordinates from ORCA-job 4-MeOPhN2+~Cl-_B3LYPG-6-31G_dp-NX-Scan-d89-09-n800
 OpenBabel11261920533D

 18 17  0  0  0  0  0  0  0  0999 V2000
   -1.4849    1.2309   -0.4376 C   0  0  0  0  0  0  0  0  0  0  0  0
   -2.5802    1.9833   -0.6711 N   0  0  0  0  0  0  0  0  0  0  0  0
   -3.4861    2.6278   -0.8601 N   0  0  0  0  0  0  0  0  0  0  0  0
   -0.2634    1.8982   -0.1191 C   0  0  0  0  0  0  0  0  0  0  0  0
    0.8492    1.1322    0.1061 C   0  0  0  0  0  0  0  0  0  0  0  0
    0.7748   -0.2884    0.0227 C   0  0  0  0  0  0  0  0  0  0  0  0
    1.9173   -0.9333    0.2602 O   0  0  0  0  0  0  0  0  0  0  0  0
    1.9225   -2.3731    0.2142 C   0  0  0  0  0  0  0  0  0  0  0  0
   -0.4401   -0.9265   -0.2822 C   0  0  0  0  0  0  0  0  0  0  0  0
   -1.5786   -0.1832   -0.5159 C   0  0  0  0  0  0  0  0  0  0  0  0
   -0.2307    2.9802   -0.0530 H   0  0  0  0  0  0  0  0  0  0  0  0
    1.8011    1.5875    0.3552 H   0  0  0  0  0  0  0  0  0  0  0  0
    2.9421   -2.6637    0.4633 H   0  0  0  0  0  0  0  0  0  0  0  0
    1.6627   -2.7280   -0.7870 H   0  0  0  0  0  0  0  0  0  0  0  0
    1.2208   -2.7877    0.9427 H   0  0  0  0  0  0  0  0  0  0  0  0
   -0.6008   -2.0070   -0.3131 H   0  0  0  0  0  0  0  0  0  0  0  0
   -2.4958   -0.7423   -0.7190 H   0  0  0  0  0  0  0  0  0  0  0  0
   -2.6846   -3.1580   -0.3174 Cl  0  0  0  0  0  0  0  0  0  0  0  0
  1  4  1  0  0  0  0
  2  1  1  0  0  0  0
  3  2  1  0  0  0  0
  4 11  1  0  0  0  0
  4  5  2  0  0  0  0
  5 12  1  0  0  0  0
  6  5  1  0  0  0  0
  6  7  1  0  0  0  0
  8  7  1  0  0  0  0
  8 13  1  0  0  0  0
  8 15  1  0  0  0  0
  9  6  2  0  0  0  0
 10  1  2  0  0  0  0
 10  9  1  0  0  0  0
 14  8  1  0  0  0  0
 16  9  1  0  0  0  0
 17 10  1  0  0  0  0
M  RAD  3   2   2   3   3  18   2
M  END
