Coordinates from ORCA-job 4-MeOPhN2+~Cl-_B3LYPG-6-31G_dp-NX-Scan-d89-09-n800
 OpenBabel11261920533D

 18 17  0  0  0  0  0  0  0  0999 V2000
   -1.4831    1.2096   -0.4549 C   0  0  0  0  0  0  0  0  0  0  0  0
   -2.5818    1.9530   -0.6992 N   0  0  0  0  0  0  0  0  0  0  0  0
   -3.4929    2.5881   -0.8938 N   0  0  0  0  0  0  0  0  0  0  0  0
   -0.2772    1.8832   -0.0914 C   0  0  0  0  0  0  0  0  0  0  0  0
    0.8387    1.1239    0.1358 C   0  0  0  0  0  0  0  0  0  0  0  0
    0.7831   -0.2956    0.0151 C   0  0  0  0  0  0  0  0  0  0  0  0
    1.9317   -0.9301    0.2619 O   0  0  0  0  0  0  0  0  0  0  0  0
    1.9562   -2.3669    0.2010 C   0  0  0  0  0  0  0  0  0  0  0  0
   -0.4173   -0.9383   -0.3272 C   0  0  0  0  0  0  0  0  0  0  0  0
   -1.5614   -0.2022   -0.5703 C   0  0  0  0  0  0  0  0  0  0  0  0
   -0.2601    2.9628    0.0095 H   0  0  0  0  0  0  0  0  0  0  0  0
    1.7797    1.5816    0.4197 H   0  0  0  0  0  0  0  0  0  0  0  0
    2.9752   -2.6487    0.4625 H   0  0  0  0  0  0  0  0  0  0  0  0
    1.7179   -2.7158   -0.8082 H   0  0  0  0  0  0  0  0  0  0  0  0
    1.2498   -2.7986    0.9153 H   0  0  0  0  0  0  0  0  0  0  0  0
   -0.5548   -2.0172   -0.3642 H   0  0  0  0  0  0  0  0  0  0  0  0
   -2.4745   -0.7663   -0.7862 H   0  0  0  0  0  0  0  0  0  0  0  0
   -2.8841   -2.9736   -0.1365 Cl  0  0  0  0  0  0  0  0  0  0  0  0
  1  4  1  0  0  0  0
  2  1  1  0  0  0  0
  3  2  1  0  0  0  0
  4 11  1  0  0  0  0
  4  5  2  0  0  0  0
  5 12  1  0  0  0  0
  6  5  1  0  0  0  0
  6  7  1  0  0  0  0
  8  7  1  0  0  0  0
  8 13  1  0  0  0  0
  8 15  1  0  0  0  0
  9  6  2  0  0  0  0
 10  1  2  0  0  0  0
 10  9  1  0  0  0  0
 14  8  1  0  0  0  0
 16  9  1  0  0  0  0
 17 10  1  0  0  0  0
M  RAD  3   2   2   3   3  18   2
M  END
