Coordinates from ORCA-job 4-MeOPhN2+~Cl-_B3LYPG-6-31G_dp-NX-Scan-d89-09-n800
 OpenBabel11261920443D

 18 17  0  0  0  0  0  0  0  0999 V2000
   -1.4530   -0.0388   -0.0413 C   0  0  0  0  0  0  0  0  0  0  0  0
   -2.8155   -0.0746    0.0563 N   0  0  0  0  0  0  0  0  0  0  0  0
   -3.9311   -0.1006    0.1365 N   0  0  0  0  0  0  0  0  0  0  0  0
   -0.8003    1.2185   -0.0009 C   0  0  0  0  0  0  0  0  0  0  0  0
    0.5679    1.2352   -0.0995 C   0  0  0  0  0  0  0  0  0  0  0  0
    1.2965    0.0234   -0.2373 C   0  0  0  0  0  0  0  0  0  0  0  0
    2.6112    0.1629   -0.3221 O   0  0  0  0  0  0  0  0  0  0  0  0
    3.4657   -0.9888   -0.4626 C   0  0  0  0  0  0  0  0  0  0  0  0
    0.6192   -1.2212   -0.2756 C   0  0  0  0  0  0  0  0  0  0  0  0
   -0.7551   -1.2581   -0.1780 C   0  0  0  0  0  0  0  0  0  0  0  0
   -1.3729    2.1358    0.1056 H   0  0  0  0  0  0  0  0  0  0  0  0
    1.1197    2.1692   -0.0739 H   0  0  0  0  0  0  0  0  0  0  0  0
    4.4777   -0.5900   -0.5029 H   0  0  0  0  0  0  0  0  0  0  0  0
    3.2405   -1.5241   -1.3897 H   0  0  0  0  0  0  0  0  0  0  0  0
    3.3612   -1.6523    0.4009 H   0  0  0  0  0  0  0  0  0  0  0  0
    1.1658   -2.1515   -0.3811 H   0  0  0  0  0  0  0  0  0  0  0  0
   -1.2944   -2.2019   -0.2052 H   0  0  0  0  0  0  0  0  0  0  0  0
  -12.2578   -0.4943    0.7598 Cl  0  0  0  0  0  0  0  0  0  0  0  0
  1  4  1  0  0  0  0
  1  2  1  0  0  0  0
  2  3  1  0  0  0  0
  4 11  1  0  0  0  0
  5 12  1  0  0  0  0
  5  4  2  0  0  0  0
  6  5  1  0  0  0  0
  7  6  1  0  0  0  0
  8  7  1  0  0  0  0
  8 15  1  0  0  0  0
  9  6  2  0  0  0  0
  9 10  1  0  0  0  0
 10  1  2  0  0  0  0
 13  8  1  0  0  0  0
 14  8  1  0  0  0  0
 16  9  1  0  0  0  0
 17 10  1  0  0  0  0
M  RAD  3   2   2   3   3  18   2
M  END
