Coordinates from ORCA-job 4-MeOPhN2+~Cl-_B3LYPG-6-31G_dp-NX-Scan-d89-09-n800
 OpenBabel11261920533D

 18 18  0  0  1  0  0  0  0  0999 V2000
   -1.5107    1.0890   -0.5310 C   0  0  0  0  0  0  0  0  0  0  0  0
   -2.6544    1.7317   -0.6852 N   0  0  0  0  0  0  0  0  0  0  0  0
   -3.7076    2.1379   -0.7921 N   0  0  0  0  0  0  0  0  0  0  0  0
   -0.3809    1.7362    0.0644 C   0  0  0  0  0  0  0  0  0  0  0  0
    0.7223    0.9984    0.3486 C   0  0  0  0  0  0  0  0  0  0  0  0
    0.7437   -0.4129    0.0410 C   0  0  0  0  0  0  0  0  0  0  0  0
    1.9343   -0.9939    0.3135 O   0  0  0  0  0  0  0  0  0  0  0  0
    2.0662   -2.3971    0.1075 C   0  0  0  0  0  0  0  0  0  0  0  0
   -0.3372   -1.0534   -0.5085 C   0  0  0  0  0  0  0  0  0  0  0  0
   -1.5873   -0.3621   -0.7161 C   0  0  1  0  0  0  0  0  0  0  0  0
   -0.4319    2.7963    0.2877 H   0  0  0  0  0  0  0  0  0  0  0  0
    1.6052    1.4362    0.7987 H   0  0  0  0  0  0  0  0  0  0  0  0
    3.0724   -2.6546    0.4387 H   0  0  0  0  0  0  0  0  0  0  0  0
    1.9539   -2.6549   -0.9525 H   0  0  0  0  0  0  0  0  0  0  0  0
    1.3291   -2.9537    0.6967 H   0  0  0  0  0  0  0  0  0  0  0  0
   -0.3045   -2.1036   -0.7644 H   0  0  0  0  0  0  0  0  0  0  0  0
   -2.1919   -0.7063   -1.5473 H   0  0  0  0  0  0  0  0  0  0  0  0
   -3.0753   -0.9843    0.6894 Cl  0  0  0  0  0  0  0  0  0  0  0  0
  1  4  2  0  0  0  0
  2  1  1  0  0  0  0
  3  2  1  0  0  0  0
  4 11  1  0  0  0  0
  4  5  1  0  0  0  0
  5 12  1  0  0  0  0
  6  7  1  0  0  0  0
  6  5  1  0  0  0  0
  8  7  1  0  0  0  0
  8 13  1  0  0  0  0
  8 15  1  0  0  0  0
  9  6  2  0  0  0  0
 10 17  1  6  0  0  0
 10  1  1  0  0  0  0
 10  9  1  0  0  0  0
 10 18  1  0  0  0  0
 14  8  1  0  0  0  0
 16  9  1  0  0  0  0
M  RAD  3   2   2   3   3   5   2
M  END
