Coordinates from ORCA-job 4-MeOPhN2+~Cl-_B3LYPG-6-31G_dp-NX-Scan-d89-09-n800
 OpenBabel11261920533D

 18 18  0  0  0  0  0  0  0  0999 V2000
   -1.5829    0.9276   -0.2700 C   0  0  0  0  0  0  0  0  0  0  0  0
   -2.6991    1.8000   -0.3705 N   0  0  0  0  0  0  0  0  0  0  0  0
   -3.8645    1.2498   -0.6322 N   0  0  0  0  0  0  0  0  0  0  0  0
   -0.3886    1.6354    0.0159 C   0  0  0  0  0  0  0  0  0  0  0  0
    0.8260    0.9964    0.1580 C   0  0  0  0  0  0  0  0  0  0  0  0
    0.9071   -0.4011    0.0190 C   0  0  0  0  0  0  0  0  0  0  0  0
    2.1490   -0.9408    0.1784 O   0  0  0  0  0  0  0  0  0  0  0  0
    2.2904   -2.3472    0.0625 C   0  0  0  0  0  0  0  0  0  0  0  0
   -0.2521   -1.1275   -0.2640 C   0  0  0  0  0  0  0  0  0  0  0  0
   -1.4832   -0.4767   -0.4071 C   0  0  0  0  0  0  0  0  0  0  0  0
   -0.4641    2.7131    0.1223 H   0  0  0  0  0  0  0  0  0  0  0  0
    1.7334    1.5495    0.3783 H   0  0  0  0  0  0  0  0  0  0  0  0
    3.3467   -2.5600    0.2334 H   0  0  0  0  0  0  0  0  0  0  0  0
    2.0082   -2.7022   -0.9374 H   0  0  0  0  0  0  0  0  0  0  0  0
    1.6897   -2.8778    0.8124 H   0  0  0  0  0  0  0  0  0  0  0  0
   -0.2195   -2.2048   -0.3791 H   0  0  0  0  0  0  0  0  0  0  0  0
   -2.3534   -1.0797   -0.6257 H   0  0  0  0  0  0  0  0  0  0  0  0
   -4.3978    0.4952   -0.8051 Cl  0  0  0  0  0  0  0  0  0  0  0  0
  1  4  1  0  0  0  0
  2  1  1  0  0  0  0
  3  2  2  0  0  0  0
  4 11  1  0  0  0  0
  4  5  2  0  0  0  0
  5 12  1  0  0  0  0
  6  5  1  0  0  0  0
  6  7  1  0  0  0  0
  8  7  1  0  0  0  0
  8 13  1  0  0  0  0
  8 15  1  0  0  0  0
  9  6  2  0  0  0  0
 10  1  2  0  0  0  0
 10  9  1  0  0  0  0
 14  8  1  0  0  0  0
 16  9  1  0  0  0  0
 17 10  1  0  0  0  0
 18  3  1  0  0  0  0
M  END
