Coordinates from ORCA-job 4-MeOPhN2+~Cl-_B3LYPG-6-31G_dp-NX-Scan-d89-09-n800
 OpenBabel11261920533D

 18 17  0  0  0  0  0  0  0  0999 V2000
   -1.4952   -0.0089   -0.0418 C   0  0  0  0  0  0  0  0  0  0  0  0
   -2.8566   -0.0318    0.0533 N   0  0  0  0  0  0  0  0  0  0  0  0
   -3.9723   -0.0465    0.1316 N   0  0  0  0  0  0  0  0  0  0  0  0
   -0.8307    1.2424   -0.0004 C   0  0  0  0  0  0  0  0  0  0  0  0
    0.5379    1.2469   -0.0970 C   0  0  0  0  0  0  0  0  0  0  0  0
    1.2558    0.0288   -0.2338 C   0  0  0  0  0  0  0  0  0  0  0  0
    2.5718    0.1569   -0.3170 O   0  0  0  0  0  0  0  0  0  0  0  0
    3.4160   -1.0021   -0.4566 C   0  0  0  0  0  0  0  0  0  0  0  0
    0.5674   -1.2095   -0.2730 C   0  0  0  0  0  0  0  0  0  0  0  0
   -0.8076   -1.2344   -0.1774 C   0  0  0  0  0  0  0  0  0  0  0  0
   -1.3950    2.1639    0.1051 H   0  0  0  0  0  0  0  0  0  0  0  0
    1.0981    2.1753   -0.0706 H   0  0  0  0  0  0  0  0  0  0  0  0
    4.4314   -0.6121   -0.4959 H   0  0  0  0  0  0  0  0  0  0  0  0
    3.1871   -1.5355   -1.3840 H   0  0  0  0  0  0  0  0  0  0  0  0
    3.3051   -1.6647    0.4069 H   0  0  0  0  0  0  0  0  0  0  0  0
    1.1061   -2.1438   -0.3776 H   0  0  0  0  0  0  0  0  0  0  0  0
   -1.3549   -2.1724   -0.2052 H   0  0  0  0  0  0  0  0  0  0  0  0
  -11.5191   -0.7035    0.7225 Cl  0  0  0  0  0  0  0  0  0  0  0  0
  1  4  1  0  0  0  0
  1  2  1  0  0  0  0
  2  3  1  0  0  0  0
  4 11  1  0  0  0  0
  5 12  1  0  0  0  0
  5  4  2  0  0  0  0
  6  5  1  0  0  0  0
  7  6  1  0  0  0  0
  8  7  1  0  0  0  0
  8 15  1  0  0  0  0
  9  6  2  0  0  0  0
  9 10  1  0  0  0  0
 10  1  2  0  0  0  0
 13  8  1  0  0  0  0
 14  8  1  0  0  0  0
 16  9  1  0  0  0  0
 17 10  1  0  0  0  0
M  RAD  3   2   2   3   3  18   2
M  END
