Coordinates from ORCA-job 4-MeOPhN2+~Cl-_B3LYPG-6-31G_dp-NX-Scan-d89-09-n800
 OpenBabel11261920533D

 18 18  0  0  0  0  0  0  0  0999 V2000
   -1.5299    0.9444   -0.3925 C   0  0  0  0  0  0  0  0  0  0  0  0
   -2.6502    1.7702   -0.6177 N   0  0  0  0  0  0  0  0  0  0  0  0
   -3.8569    1.5822   -0.5802 N   0  0  0  0  0  0  0  0  0  0  0  0
   -0.3646    1.6583   -0.0439 C   0  0  0  0  0  0  0  0  0  0  0  0
    0.8294    1.0020    0.1855 C   0  0  0  0  0  0  0  0  0  0  0  0
    0.9021   -0.3934    0.0253 C   0  0  0  0  0  0  0  0  0  0  0  0
    2.1148   -0.9494    0.2615 O   0  0  0  0  0  0  0  0  0  0  0  0
    2.2606   -2.3582    0.1246 C   0  0  0  0  0  0  0  0  0  0  0  0
   -0.2394   -1.1082   -0.3687 C   0  0  0  0  0  0  0  0  0  0  0  0
   -1.4496   -0.4479   -0.5667 C   0  0  0  0  0  0  0  0  0  0  0  0
   -0.4335    2.7370    0.0508 H   0  0  0  0  0  0  0  0  0  0  0  0
    1.7259    1.5398    0.4738 H   0  0  0  0  0  0  0  0  0  0  0  0
    3.2997   -2.5759    0.3730 H   0  0  0  0  0  0  0  0  0  0  0  0
    2.0574   -2.6851   -0.9026 H   0  0  0  0  0  0  0  0  0  0  0  0
    1.6016   -2.8985    0.8143 H   0  0  0  0  0  0  0  0  0  0  0  0
   -0.1980   -2.1796   -0.5235 H   0  0  0  0  0  0  0  0  0  0  0  0
   -2.3135   -1.0166   -0.8772 H   0  0  0  0  0  0  0  0  0  0  0  0
   -4.5107    0.0279   -0.1466 Cl  0  0  0  0  0  0  0  0  0  0  0  0
  1  4  1  0  0  0  0
  2  3  2  0  0  0  0
  2  1  1  0  0  0  0
  3 18  1  0  0  0  0
  4 11  1  0  0  0  0
  4  5  2  0  0  0  0
  5 12  1  0  0  0  0
  6  5  1  0  0  0  0
  6  7  1  0  0  0  0
  8  7  1  0  0  0  0
  8 13  1  0  0  0  0
  8 15  1  0  0  0  0
  9  6  2  0  0  0  0
 10  1  2  0  0  0  0
 10  9  1  0  0  0  0
 14  8  1  0  0  0  0
 16  9  1  0  0  0  0
 17 10  1  0  0  0  0
M  END
