Coordinates from ORCA-job 4-MeOPhN2+~Cl-_B3LYPG-6-31G_dp-NX-Scan-d89-09-n800
 OpenBabel11261920533D

 18 17  0  0  0  0  0  0  0  0999 V2000
   -1.5950    1.0561   -0.4611 C   0  0  0  0  0  0  0  0  0  0  0  0
   -2.5466    1.8412   -0.9711 N   0  0  0  0  0  0  0  0  0  0  0  0
   -3.2736    2.5842   -1.4316 N   0  0  0  0  0  0  0  0  0  0  0  0
   -0.4770    1.7133    0.1648 C   0  0  0  0  0  0  0  0  0  0  0  0
    0.6427    0.9878    0.4180 C   0  0  0  0  0  0  0  0  0  0  0  0
    0.7103   -0.3972    0.0381 C   0  0  0  0  0  0  0  0  0  0  0  0
    1.9102   -0.9656    0.2755 O   0  0  0  0  0  0  0  0  0  0  0  0
    2.0616   -2.3632    0.0284 C   0  0  0  0  0  0  0  0  0  0  0  0
   -0.3768   -1.0398   -0.5146 C   0  0  0  0  0  0  0  0  0  0  0  0
   -1.6254   -0.3755   -0.6379 C   0  0  0  0  0  0  0  0  0  0  0  0
   -0.5408    2.7690    0.4034 H   0  0  0  0  0  0  0  0  0  0  0  0
    1.5112    1.4316    0.8911 H   0  0  0  0  0  0  0  0  0  0  0  0
    3.0778   -2.6100    0.3356 H   0  0  0  0  0  0  0  0  0  0  0  0
    1.9360   -2.5922   -1.0364 H   0  0  0  0  0  0  0  0  0  0  0  0
    1.3444   -2.9450    0.6167 H   0  0  0  0  0  0  0  0  0  0  0  0
   -0.3511   -2.0940   -0.7519 H   0  0  0  0  0  0  0  0  0  0  0  0
   -2.4020   -0.8022   -1.2554 H   0  0  0  0  0  0  0  0  0  0  0  0
   -2.7605   -1.5495    1.1774 Cl  0  0  0  0  0  0  0  0  0  0  0  0
  1  4  2  0  0  0  0
  2  1  1  0  0  0  0
  3  2  1  0  0  0  0
  4 11  1  0  0  0  0
  4  5  1  0  0  0  0
  5 12  1  0  0  0  0
  6  7  1  0  0  0  0
  6  5  2  0  0  0  0
  8  7  1  0  0  0  0
  8 13  1  0  0  0  0
  8 15  1  0  0  0  0
  9  6  1  0  0  0  0
 10  9  2  0  0  0  0
 10  1  1  0  0  0  0
 14  8  1  0  0  0  0
 16  9  1  0  0  0  0
 17 10  1  0  0  0  0
M  RAD  3   2   2   3   3  18   2
M  END
