Coordinates from ORCA-job 4-MeOPhN2+~Cl-_B3LYPG-6-31G_dp-NX-Scan-d89-09-n800
 OpenBabel11261920533D

 18 18  0  0  1  0  0  0  0  0999 V2000
   -1.5279    1.0778   -0.5164 C   0  0  0  0  0  0  0  0  0  0  0  0
   -2.6438    1.7475   -0.7351 N   0  0  0  0  0  0  0  0  0  0  0  0
   -3.6544    2.2326   -0.9141 N   0  0  0  0  0  0  0  0  0  0  0  0
   -0.3994    1.7261    0.0851 C   0  0  0  0  0  0  0  0  0  0  0  0
    0.7045    0.9908    0.3692 C   0  0  0  0  0  0  0  0  0  0  0  0
    0.7348   -0.4185    0.0490 C   0  0  0  0  0  0  0  0  0  0  0  0
    1.9326   -0.9920    0.3096 O   0  0  0  0  0  0  0  0  0  0  0  0
    2.0739   -2.3915    0.0879 C   0  0  0  0  0  0  0  0  0  0  0  0
   -0.3444   -1.0612   -0.4968 C   0  0  0  0  0  0  0  0  0  0  0  0
   -1.6068   -0.3775   -0.6810 C   0  0  1  0  0  0  0  0  0  0  0  0
   -0.4517    2.7867    0.3061 H   0  0  0  0  0  0  0  0  0  0  0  0
    1.5852    1.4301    0.8222 H   0  0  0  0  0  0  0  0  0  0  0  0
    3.0849   -2.6446    0.4079 H   0  0  0  0  0  0  0  0  0  0  0  0
    1.9543   -2.6395   -0.9737 H   0  0  0  0  0  0  0  0  0  0  0  0
    1.3465   -2.9603    0.6777 H   0  0  0  0  0  0  0  0  0  0  0  0
   -0.3100   -2.1109   -0.7547 H   0  0  0  0  0  0  0  0  0  0  0  0
   -2.2164   -0.7238   -1.5084 H   0  0  0  0  0  0  0  0  0  0  0  0
   -3.0167   -1.0229    0.7548 Cl  0  0  0  0  0  0  0  0  0  0  0  0
  1  4  2  0  0  0  0
  2  1  1  0  0  0  0
  3  2  1  0  0  0  0
  4 11  1  0  0  0  0
  4  5  1  0  0  0  0
  5 12  1  0  0  0  0
  6  7  1  0  0  0  0
  6  5  1  0  0  0  0
  8  7  1  0  0  0  0
  8 13  1  0  0  0  0
  8 15  1  0  0  0  0
  9  6  2  0  0  0  0
 10 17  1  6  0  0  0
 10  1  1  0  0  0  0
 10  9  1  0  0  0  0
 10 18  1  0  0  0  0
 14  8  1  0  0  0  0
 16  9  1  0  0  0  0
M  RAD  3   2   2   3   3   5   2
M  END
