Coordinates from ORCA-job 4-MeOPhN2+~Cl-_B3LYPG-6-31G_dp-NX-Scan-d89-09-n800
 OpenBabel11261920533D

 18 17  0  0  0  0  0  0  0  0999 V2000
   -1.6029    1.0475   -0.4524 C   0  0  0  0  0  0  0  0  0  0  0  0
   -2.5365    1.8303   -0.9912 N   0  0  0  0  0  0  0  0  0  0  0  0
   -3.2489    2.5721   -1.4785 N   0  0  0  0  0  0  0  0  0  0  0  0
   -0.4862    1.7040    0.1792 C   0  0  0  0  0  0  0  0  0  0  0  0
    0.6309    0.9787    0.4387 C   0  0  0  0  0  0  0  0  0  0  0  0
    0.7015   -0.4066    0.0517 C   0  0  0  0  0  0  0  0  0  0  0  0
    1.9093   -0.9667    0.2770 O   0  0  0  0  0  0  0  0  0  0  0  0
    2.0717   -2.3584    0.0099 C   0  0  0  0  0  0  0  0  0  0  0  0
   -0.3822   -1.0511   -0.4974 C   0  0  0  0  0  0  0  0  0  0  0  0
   -1.6450   -0.3930   -0.6015 C   0  0  0  0  0  0  0  0  0  0  0  0
   -0.5501    2.7605    0.4146 H   0  0  0  0  0  0  0  0  0  0  0  0
    1.4981    1.4214    0.9151 H   0  0  0  0  0  0  0  0  0  0  0  0
    3.0927   -2.6005    0.3047 H   0  0  0  0  0  0  0  0  0  0  0  0
    1.9382   -2.5747   -1.0568 H   0  0  0  0  0  0  0  0  0  0  0  0
    1.3654   -2.9559    0.5960 H   0  0  0  0  0  0  0  0  0  0  0  0
   -0.3504   -2.1030   -0.7449 H   0  0  0  0  0  0  0  0  0  0  0  0
   -2.3993   -0.8074   -1.2555 H   0  0  0  0  0  0  0  0  0  0  0  0
   -2.7610   -1.4485    1.1804 Cl  0  0  0  0  0  0  0  0  0  0  0  0
  1  4  2  0  0  0  0
  2  1  1  0  0  0  0
  3  2  1  0  0  0  0
  4 11  1  0  0  0  0
  4  5  1  0  0  0  0
  5 12  1  0  0  0  0
  6  7  1  0  0  0  0
  6  5  2  0  0  0  0
  8  7  1  0  0  0  0
  8 13  1  0  0  0  0
  8 15  1  0  0  0  0
  9  6  1  0  0  0  0
 10  9  2  0  0  0  0
 10  1  1  0  0  0  0
 14  8  1  0  0  0  0
 16  9  1  0  0  0  0
 17 10  1  0  0  0  0
M  RAD  3   2   2   3   3  18   2
M  END
