Coordinates from ORCA-job 4-MeOPhN2+~Cl-_B3LYPG-6-31G_dp-NX-Scan-d89-09-n800
 OpenBabel11261920533D

 18 18  0  0  0  0  0  0  0  0999 V2000
   -1.5394    0.9349   -0.4438 C   0  0  0  0  0  0  0  0  0  0  0  0
   -2.6580    1.7580   -0.7319 N   0  0  0  0  0  0  0  0  0  0  0  0
   -3.8649    1.5185   -0.5532 N   0  0  0  0  0  0  0  0  0  0  0  0
   -0.3883    1.6489   -0.0555 C   0  0  0  0  0  0  0  0  0  0  0  0
    0.8009    0.9938    0.2075 C   0  0  0  0  0  0  0  0  0  0  0  0
    0.8884   -0.3980    0.0309 C   0  0  0  0  0  0  0  0  0  0  0  0
    2.0988   -0.9510    0.2992 O   0  0  0  0  0  0  0  0  0  0  0  0
    2.2557   -2.3553    0.1434 C   0  0  0  0  0  0  0  0  0  0  0  0
   -0.2336   -1.1122   -0.4128 C   0  0  0  0  0  0  0  0  0  0  0  0
   -1.4413   -0.4524   -0.6362 C   0  0  0  0  0  0  0  0  0  0  0  0
   -0.4620    2.7270    0.0441 H   0  0  0  0  0  0  0  0  0  0  0  0
    1.6849    1.5331    0.5303 H   0  0  0  0  0  0  0  0  0  0  0  0
    3.2873   -2.5737    0.4211 H   0  0  0  0  0  0  0  0  0  0  0  0
    2.0869   -2.6667   -0.8950 H   0  0  0  0  0  0  0  0  0  0  0  0
    1.5777   -2.9112    0.8021 H   0  0  0  0  0  0  0  0  0  0  0  0
   -0.1805   -2.1801   -0.5870 H   0  0  0  0  0  0  0  0  0  0  0  0
   -2.2881   -1.0236   -0.9918 H   0  0  0  0  0  0  0  0  0  0  0  0
   -4.3791    0.1590    0.1179 Cl  0  0  0  0  0  0  0  0  0  0  0  0
  1  4  1  0  0  0  0
  2  3  2  0  0  0  0
  2  1  1  0  0  0  0
  3 18  1  0  0  0  0
  4 11  1  0  0  0  0
  4  5  2  0  0  0  0
  5 12  1  0  0  0  0
  6  5  1  0  0  0  0
  6  7  1  0  0  0  0
  8  7  1  0  0  0  0
  8 13  1  0  0  0  0
  8 15  1  0  0  0  0
  9  6  2  0  0  0  0
 10  1  2  0  0  0  0
 10  9  1  0  0  0  0
 14  8  1  0  0  0  0
 16  9  1  0  0  0  0
 17 10  1  0  0  0  0
M  END
