Coordinates from ORCA-job 4-MeOPhN2+~Cl-_B3LYPG-6-31G_dp-NX-Scan-d89-09-n800
 OpenBabel11261920533D

 18 17  0  0  0  0  0  0  0  0999 V2000
   -1.4391    1.0424   -0.2431 C   0  0  0  0  0  0  0  0  0  0  0  0
   -2.6302    1.7391   -0.3738 N   0  0  0  0  0  0  0  0  0  0  0  0
   -3.7501    1.8342   -0.5483 N   0  0  0  0  0  0  0  0  0  0  0  0
   -0.2525    1.7540    0.0148 C   0  0  0  0  0  0  0  0  0  0  0  0
    0.9213    1.0435    0.1416 C   0  0  0  0  0  0  0  0  0  0  0  0
    0.9147   -0.3653    0.0134 C   0  0  0  0  0  0  0  0  0  0  0  0
    2.1134   -0.9551    0.1580 O   0  0  0  0  0  0  0  0  0  0  0  0
    2.2094   -2.3780    0.0578 C   0  0  0  0  0  0  0  0  0  0  0  0
   -0.2857   -1.0539   -0.2455 C   0  0  0  0  0  0  0  0  0  0  0  0
   -1.4774   -0.3558   -0.3765 C   0  0  0  0  0  0  0  0  0  0  0  0
   -0.2714    2.8342    0.1112 H   0  0  0  0  0  0  0  0  0  0  0  0
    1.8641    1.5392    0.3416 H   0  0  0  0  0  0  0  0  0  0  0  0
    3.2609   -2.6128    0.2201 H   0  0  0  0  0  0  0  0  0  0  0  0
    1.9050   -2.7259   -0.9353 H   0  0  0  0  0  0  0  0  0  0  0  0
    1.6013   -2.8697    0.8245 H   0  0  0  0  0  0  0  0  0  0  0  0
   -0.3000   -2.1320   -0.3469 H   0  0  0  0  0  0  0  0  0  0  0  0
   -2.4405   -0.8410   -0.5771 H   0  0  0  0  0  0  0  0  0  0  0  0
   -4.6975   -0.8480   -0.9475 Cl  0  0  0  0  0  0  0  0  0  0  0  0
  1  4  2  0  0  0  0
  2  1  1  0  0  0  0
  3  2  2  0  0  0  0
  4 11  1  0  0  0  0
  4  5  1  0  0  0  0
  5 12  1  0  0  0  0
  6  5  2  0  0  0  0
  6  7  1  0  0  0  0
  8  7  1  0  0  0  0
  8 13  1  0  0  0  0
  8 15  1  0  0  0  0
  9  6  1  0  0  0  0
 10  9  2  0  0  0  0
 10  1  1  0  0  0  0
 14  8  1  0  0  0  0
 16  9  1  0  0  0  0
 17 10  1  0  0  0  0
M  RAD  2   3   2  18   2
M  END
