Coordinates from ORCA-job 4-MeOPhN2+~Cl-_B3LYPG-6-31G_dp-NX-Scan-d89-09-n800
 OpenBabel11261920533D

 18 17  0  0  0  0  0  0  0  0999 V2000
   -1.4942    1.1690   -0.4931 C   0  0  0  0  0  0  0  0  0  0  0  0
   -2.5856    1.9090   -0.7645 N   0  0  0  0  0  0  0  0  0  0  0  0
   -3.4866    2.5535   -0.9811 N   0  0  0  0  0  0  0  0  0  0  0  0
   -0.3228    1.8429   -0.0236 C   0  0  0  0  0  0  0  0  0  0  0  0
    0.7965    1.0951    0.2097 C   0  0  0  0  0  0  0  0  0  0  0  0
    0.7813   -0.3165   -0.0022 C   0  0  0  0  0  0  0  0  0  0  0  0
    1.9360   -0.9372    0.2712 O   0  0  0  0  0  0  0  0  0  0  0  0
    1.9920   -2.3676    0.1693 C   0  0  0  0  0  0  0  0  0  0  0  0
   -0.3794   -0.9606   -0.4437 C   0  0  0  0  0  0  0  0  0  0  0  0
   -1.5361   -0.2367   -0.6937 C   0  0  0  0  0  0  0  0  0  0  0  0
   -0.3396    2.9130    0.1499 H   0  0  0  0  0  0  0  0  0  0  0  0
    1.7103    1.5504    0.5745 H   0  0  0  0  0  0  0  0  0  0  0  0
    3.0006   -2.6410    0.4767 H   0  0  0  0  0  0  0  0  0  0  0  0
    1.8178   -2.6916   -0.8618 H   0  0  0  0  0  0  0  0  0  0  0  0
    1.2574   -2.8341    0.8321 H   0  0  0  0  0  0  0  0  0  0  0  0
   -0.4644   -2.0370   -0.5280 H   0  0  0  0  0  0  0  0  0  0  0  0
   -2.4377   -0.7697   -0.9868 H   0  0  0  0  0  0  0  0  0  0  0  0
   -3.0001   -2.5918    0.3843 Cl  0  0  0  0  0  0  0  0  0  0  0  0
  1  4  1  0  0  0  0
  2  1  1  0  0  0  0
  3  2  1  0  0  0  0
  4 11  1  0  0  0  0
  4  5  2  0  0  0  0
  5 12  1  0  0  0  0
  6  5  1  0  0  0  0
  6  7  1  0  0  0  0
  8  7  1  0  0  0  0
  8 13  1  0  0  0  0
  8 15  1  0  0  0  0
  9  6  2  0  0  0  0
 10  1  2  0  0  0  0
 10  9  1  0  0  0  0
 14  8  1  0  0  0  0
 16  9  1  0  0  0  0
 17 10  1  0  0  0  0
M  RAD  3   2   2   3   3  18   2
M  END
