Coordinates from ORCA-job 4-MeOPhN2+~Cl-_B3LYPG-6-31G_dp-NX-Scan-d89-09-n800
 OpenBabel11261920443D

 18 17  0  0  0  0  0  0  0  0999 V2000
   -1.4275   -0.0494   -0.0414 C   0  0  0  0  0  0  0  0  0  0  0  0
   -2.7905   -0.0897    0.0573 N   0  0  0  0  0  0  0  0  0  0  0  0
   -3.9061   -0.1196    0.1383 N   0  0  0  0  0  0  0  0  0  0  0  0
   -0.7788    1.2100   -0.0015 C   0  0  0  0  0  0  0  0  0  0  0  0
    0.5892    1.2310   -0.1011 C   0  0  0  0  0  0  0  0  0  0  0  0
    1.3214    0.0213   -0.2393 C   0  0  0  0  0  0  0  0  0  0  0  0
    2.6356    0.1648   -0.3250 O   0  0  0  0  0  0  0  0  0  0  0  0
    3.4937   -0.9844   -0.4659 C   0  0  0  0  0  0  0  0  0  0  0  0
    0.6479   -1.2255   -0.2771 C   0  0  0  0  0  0  0  0  0  0  0  0
   -0.7260   -1.2666   -0.1785 C   0  0  0  0  0  0  0  0  0  0  0  0
   -1.3544    2.1259    0.1054 H   0  0  0  0  0  0  0  0  0  0  0  0
    1.1380    2.1670   -0.0759 H   0  0  0  0  0  0  0  0  0  0  0  0
    4.5044   -0.5825   -0.5068 H   0  0  0  0  0  0  0  0  0  0  0  0
    3.2695   -1.5204   -1.3928 H   0  0  0  0  0  0  0  0  0  0  0  0
    3.3916   -1.6481    0.3977 H   0  0  0  0  0  0  0  0  0  0  0  0
    1.1972   -2.1546   -0.3829 H   0  0  0  0  0  0  0  0  0  0  0  0
   -1.2626   -2.2126   -0.2052 H   0  0  0  0  0  0  0  0  0  0  0  0
  -12.6973   -0.4176    0.7835 Cl  0  0  0  0  0  0  0  0  0  0  0  0
  1  4  1  0  0  0  0
  1  2  1  0  0  0  0
  2  3  1  0  0  0  0
  4 11  1  0  0  0  0
  5 12  1  0  0  0  0
  5  4  2  0  0  0  0
  6  5  1  0  0  0  0
  7  6  1  0  0  0  0
  8  7  1  0  0  0  0
  8 15  1  0  0  0  0
  9  6  2  0  0  0  0
  9 10  1  0  0  0  0
 10  1  2  0  0  0  0
 13  8  1  0  0  0  0
 14  8  1  0  0  0  0
 16  9  1  0  0  0  0
 17 10  1  0  0  0  0
M  RAD  3   2   2   3   3  18   2
M  END
