Coordinates from ORCA-job 4-MeOPhN2+~Cl-_B3LYPG-6-31G_dp-NX-Scan-d89-09-n800
 OpenBabel11261920533D

 18 18  0  0  1  0  0  0  0  0999 V2000
   -1.5890    1.0448   -0.4598 C   0  0  0  0  0  0  0  0  0  0  0  0
   -2.5637    1.7966   -0.9442 N   0  0  0  0  0  0  0  0  0  0  0  0
   -3.3605    2.4805   -1.3855 N   0  0  0  0  0  0  0  0  0  0  0  0
   -0.4700    1.6980    0.1692 C   0  0  0  0  0  0  0  0  0  0  0  0
    0.6386    0.9693    0.4468 C   0  0  0  0  0  0  0  0  0  0  0  0
    0.7013   -0.4251    0.0714 C   0  0  0  0  0  0  0  0  0  0  0  0
    1.9176   -0.9776    0.2901 O   0  0  0  0  0  0  0  0  0  0  0  0
    2.0877   -2.3633    0.0092 C   0  0  0  0  0  0  0  0  0  0  0  0
   -0.3762   -1.0716   -0.4704 C   0  0  0  0  0  0  0  0  0  0  0  0
   -1.6622   -0.4134   -0.5685 C   0  0  1  0  0  0  0  0  0  0  0  0
   -0.5288    2.7576    0.3930 H   0  0  0  0  0  0  0  0  0  0  0  0
    1.5087    1.4102    0.9191 H   0  0  0  0  0  0  0  0  0  0  0  0
    3.1124   -2.6029    0.2940 H   0  0  0  0  0  0  0  0  0  0  0  0
    1.9470   -2.5718   -1.0584 H   0  0  0  0  0  0  0  0  0  0  0  0
    1.3900   -2.9733    0.5937 H   0  0  0  0  0  0  0  0  0  0  0  0
   -0.3376   -2.1193   -0.7355 H   0  0  0  0  0  0  0  0  0  0  0  0
   -2.3419   -0.7901   -1.3240 H   0  0  0  0  0  0  0  0  0  0  0  0
   -2.8280   -1.1997    1.0488 Cl  0  0  0  0  0  0  0  0  0  0  0  0
  1  4  2  0  0  0  0
  2  1  1  0  0  0  0
  3  2  1  0  0  0  0
  4 11  1  0  0  0  0
  4  5  1  0  0  0  0
  5 12  1  0  0  0  0
  6  7  1  0  0  0  0
  6  5  1  0  0  0  0
  8  7  1  0  0  0  0
  8 13  1  0  0  0  0
  8 15  1  0  0  0  0
  9  6  2  0  0  0  0
 10 17  1  6  0  0  0
 10  9  1  0  0  0  0
 10  1  1  0  0  0  0
 10 18  1  0  0  0  0
 14  8  1  0  0  0  0
 16  9  1  0  0  0  0
M  RAD  3   2   2   3   3   5   2
M  END
