Coordinates from ORCA-job 4-MeOPhN2+~Cl-_B3LYPG-6-31G_dp-NX-Scan-d89-09-n800
 OpenBabel11261920443D

 18 17  0  0  0  0  0  0  0  0999 V2000
   -1.4258   -0.0499   -0.0414 C   0  0  0  0  0  0  0  0  0  0  0  0
   -2.7888   -0.0904    0.0574 N   0  0  0  0  0  0  0  0  0  0  0  0
   -3.9045   -0.1206    0.1384 N   0  0  0  0  0  0  0  0  0  0  0  0
   -0.7773    1.2096   -0.0015 C   0  0  0  0  0  0  0  0  0  0  0  0
    0.5906    1.2307   -0.1011 C   0  0  0  0  0  0  0  0  0  0  0  0
    1.3230    0.0212   -0.2394 C   0  0  0  0  0  0  0  0  0  0  0  0
    2.6373    0.1649   -0.3251 O   0  0  0  0  0  0  0  0  0  0  0  0
    3.4955   -0.9842   -0.4661 C   0  0  0  0  0  0  0  0  0  0  0  0
    0.6497   -1.2257   -0.2771 C   0  0  0  0  0  0  0  0  0  0  0  0
   -0.7242   -1.2670   -0.1784 C   0  0  0  0  0  0  0  0  0  0  0  0
   -1.3531    2.1254    0.1054 H   0  0  0  0  0  0  0  0  0  0  0  0
    1.1393    2.1669   -0.0760 H   0  0  0  0  0  0  0  0  0  0  0  0
    4.5061   -0.5821   -0.5071 H   0  0  0  0  0  0  0  0  0  0  0  0
    3.2712   -1.5202   -1.3930 H   0  0  0  0  0  0  0  0  0  0  0  0
    3.3936   -1.6479    0.3974 H   0  0  0  0  0  0  0  0  0  0  0  0
    1.1992   -2.1548   -0.3829 H   0  0  0  0  0  0  0  0  0  0  0  0
   -1.2606   -2.2131   -0.2051 H   0  0  0  0  0  0  0  0  0  0  0  0
  -12.7259   -0.4136    0.7848 Cl  0  0  0  0  0  0  0  0  0  0  0  0
  1  4  1  0  0  0  0
  1  2  1  0  0  0  0
  2  3  1  0  0  0  0
  4 11  1  0  0  0  0
  5 12  1  0  0  0  0
  5  4  2  0  0  0  0
  6  5  1  0  0  0  0
  7  6  1  0  0  0  0
  8  7  1  0  0  0  0
  8 15  1  0  0  0  0
  9  6  2  0  0  0  0
  9 10  1  0  0  0  0
 10  1  2  0  0  0  0
 13  8  1  0  0  0  0
 14  8  1  0  0  0  0
 16  9  1  0  0  0  0
 17 10  1  0  0  0  0
M  RAD  3   2   2   3   3  18   2
M  END
