Coordinates from ORCA-job 4-MeOPhN2+~Cl-_B3LYPG-6-31G_dp-NX-Scan-d89-09-n800
 OpenBabel11261920533D

 18 17  0  0  0  0  0  0  0  0999 V2000
   -1.4626    1.0055   -0.2507 C   0  0  0  0  0  0  0  0  0  0  0  0
   -2.6485    1.7253   -0.3785 N   0  0  0  0  0  0  0  0  0  0  0  0
   -3.7846    1.7272   -0.5635 N   0  0  0  0  0  0  0  0  0  0  0  0
   -0.2813    1.7238    0.0073 C   0  0  0  0  0  0  0  0  0  0  0  0
    0.9054    1.0326    0.1385 C   0  0  0  0  0  0  0  0  0  0  0  0
    0.9207   -0.3735    0.0142 C   0  0  0  0  0  0  0  0  0  0  0  0
    2.1292   -0.9498    0.1617 O   0  0  0  0  0  0  0  0  0  0  0  0
    2.2397   -2.3698    0.0634 C   0  0  0  0  0  0  0  0  0  0  0  0
   -0.2703   -1.0768   -0.2448 C   0  0  0  0  0  0  0  0  0  0  0  0
   -1.4706   -0.3922   -0.3788 C   0  0  0  0  0  0  0  0  0  0  0  0
   -0.3158    2.8040    0.1010 H   0  0  0  0  0  0  0  0  0  0  0  0
    1.8398    1.5443    0.3387 H   0  0  0  0  0  0  0  0  0  0  0  0
    3.2934   -2.5949    0.2265 H   0  0  0  0  0  0  0  0  0  0  0  0
    1.9399   -2.7238   -0.9294 H   0  0  0  0  0  0  0  0  0  0  0  0
    1.6365   -2.8687    0.8299 H   0  0  0  0  0  0  0  0  0  0  0  0
   -0.2699   -2.1553   -0.3440 H   0  0  0  0  0  0  0  0  0  0  0  0
   -2.4147   -0.8962   -0.5787 H   0  0  0  0  0  0  0  0  0  0  0  0
   -4.7410   -0.5127   -0.9238 Cl  0  0  0  0  0  0  0  0  0  0  0  0
  1  4  1  0  0  0  0
  2  1  1  0  0  0  0
  3  2  2  0  0  0  0
  4 11  1  0  0  0  0
  4  5  2  0  0  0  0
  5 12  1  0  0  0  0
  6  5  1  0  0  0  0
  6  7  1  0  0  0  0
  8  7  1  0  0  0  0
  8 13  1  0  0  0  0
  8 15  1  0  0  0  0
  9  6  2  0  0  0  0
 10  1  2  0  0  0  0
 10  9  1  0  0  0  0
 14  8  1  0  0  0  0
 16  9  1  0  0  0  0
 17 10  1  0  0  0  0
M  RAD  2   3   2  18   2
M  END
