Coordinates from ORCA-job 4-MeOPhN2+~Cl-_B3LYPG-6-31G_dp-NX-Scan-d89-09-n800
 OpenBabel11261920533D

 18 17  0  0  0  0  0  0  0  0999 V2000
   -1.4977    1.3802   -0.4955 C   0  0  0  0  0  0  0  0  0  0  0  0
   -2.5202    2.2065   -0.7742 N   0  0  0  0  0  0  0  0  0  0  0  0
   -3.3748    2.9062   -1.0206 N   0  0  0  0  0  0  0  0  0  0  0  0
   -0.2537    1.9521   -0.0975 C   0  0  0  0  0  0  0  0  0  0  0  0
    0.7876    1.1092    0.1743 C   0  0  0  0  0  0  0  0  0  0  0  0
    0.6310   -0.3057    0.0603 C   0  0  0  0  0  0  0  0  0  0  0  0
    1.7149   -1.0003    0.3349 O   0  0  0  0  0  0  0  0  0  0  0  0
    1.7448   -2.4407    0.1421 C   0  0  0  0  0  0  0  0  0  0  0  0
   -0.6177   -0.8704   -0.3225 C   0  0  0  0  0  0  0  0  0  0  0  0
   -1.6718   -0.0326   -0.5977 C   0  0  0  0  0  0  0  0  0  0  0  0
   -0.1489    3.0287   -0.0190 H   0  0  0  0  0  0  0  0  0  0  0  0
    1.7544    1.4934    0.4789 H   0  0  0  0  0  0  0  0  0  0  0  0
    2.7053   -2.7523    0.5491 H   0  0  0  0  0  0  0  0  0  0  0  0
    1.6938   -2.6553   -0.9281 H   0  0  0  0  0  0  0  0  0  0  0  0
    0.8979   -2.9406    0.6357 H   0  0  0  0  0  0  0  0  0  0  0  0
   -0.7888   -1.9661   -0.3194 H   0  0  0  0  0  0  0  0  0  0  0  0
   -2.6355   -0.4439   -0.8796 H   0  0  0  0  0  0  0  0  0  0  0  0
   -1.1751   -4.0195    0.3678 Cl  0  0  0  0  0  0  0  0  0  0  0  0
  1  4  1  0  0  0  0
  2  1  1  0  0  0  0
  3  2  1  0  0  0  0
  4 11  1  0  0  0  0
  4  5  2  0  0  0  0
  5 12  1  0  0  0  0
  6  5  1  0  0  0  0
  6  7  1  0  0  0  0
  8  7  1  0  0  0  0
  8 13  1  0  0  0  0
  8 15  1  0  0  0  0
  9 16  1  0  0  0  0
  9  6  2  0  0  0  0
 10  1  2  0  0  0  0
 10  9  1  0  0  0  0
 14  8  1  0  0  0  0
 17 10  1  0  0  0  0
M  RAD  3   2   2   3   3  18   2
M  END
