Coordinates from ORCA-job 4-MeOPhN2+~Cl-_B3LYPG-6-31G_dp-NX-Scan-d89-09-n800
 OpenBabel11261920533D

 18 18  0  0  0  0  0  0  0  0999 V2000
   -1.5281    0.9475   -0.3299 C   0  0  0  0  0  0  0  0  0  0  0  0
   -2.6540    1.7722   -0.4931 N   0  0  0  0  0  0  0  0  0  0  0  0
   -3.8522    1.6211   -0.5845 N   0  0  0  0  0  0  0  0  0  0  0  0
   -0.3503    1.6628   -0.0261 C   0  0  0  0  0  0  0  0  0  0  0  0
    0.8514    1.0078    0.1583 C   0  0  0  0  0  0  0  0  0  0  0  0
    0.9128   -0.3907    0.0182 C   0  0  0  0  0  0  0  0  0  0  0  0
    2.1312   -0.9462    0.2133 O   0  0  0  0  0  0  0  0  0  0  0  0
    2.2691   -2.3587    0.0987 C   0  0  0  0  0  0  0  0  0  0  0  0
   -0.2476   -1.1096   -0.3104 C   0  0  0  0  0  0  0  0  0  0  0  0
   -1.4618   -0.4501   -0.4783 C   0  0  0  0  0  0  0  0  0  0  0  0
   -0.4162    2.7418    0.0660 H   0  0  0  0  0  0  0  0  0  0  0  0
    1.7599    1.5467    0.4036 H   0  0  0  0  0  0  0  0  0  0  0  0
    3.3174   -2.5731    0.3081 H   0  0  0  0  0  0  0  0  0  0  0  0
    2.0228   -2.7048   -0.9123 H   0  0  0  0  0  0  0  0  0  0  0  0
    1.6387   -2.8828    0.8265 H   0  0  0  0  0  0  0  0  0  0  0  0
   -0.2167   -2.1849   -0.4376 H   0  0  0  0  0  0  0  0  0  0  0  0
   -2.3433   -1.0181   -0.7325 H   0  0  0  0  0  0  0  0  0  0  0  0
   -4.5878   -0.0317   -0.4991 Cl  0  0  0  0  0  0  0  0  0  0  0  0
  1  4  1  0  0  0  0
  2  1  1  0  0  0  0
  3 18  1  0  0  0  0
  3  2  2  0  0  0  0
  4 11  1  0  0  0  0
  4  5  2  0  0  0  0
  5 12  1  0  0  0  0
  6  5  1  0  0  0  0
  6  7  1  0  0  0  0
  8  7  1  0  0  0  0
  8 13  1  0  0  0  0
  8 15  1  0  0  0  0
  9  6  2  0  0  0  0
 10  1  2  0  0  0  0
 10  9  1  0  0  0  0
 14  8  1  0  0  0  0
 16  9  1  0  0  0  0
 17 10  1  0  0  0  0
M  END
