Coordinates from ORCA-job 4-MeOPhN2+~Cl-_B3LYPG-6-31G_dp-NX-Scan-d89-09-n800
 OpenBabel11261920533D

 18 17  0  0  0  0  0  0  0  0999 V2000
   -1.4788    1.3621   -0.4937 C   0  0  0  0  0  0  0  0  0  0  0  0
   -2.5446    2.1494   -0.7121 N   0  0  0  0  0  0  0  0  0  0  0  0
   -3.4679    2.7685   -0.9160 N   0  0  0  0  0  0  0  0  0  0  0  0
   -0.2434    1.9502   -0.0968 C   0  0  0  0  0  0  0  0  0  0  0  0
    0.8160    1.1196    0.1500 C   0  0  0  0  0  0  0  0  0  0  0  0
    0.6744   -0.2953    0.0216 C   0  0  0  0  0  0  0  0  0  0  0  0
    1.7523   -0.9948    0.3151 O   0  0  0  0  0  0  0  0  0  0  0  0
    1.7454   -2.4416    0.1638 C   0  0  0  0  0  0  0  0  0  0  0  0
   -0.5574   -0.8683   -0.3889 C   0  0  0  0  0  0  0  0  0  0  0  0
   -1.6277   -0.0477   -0.6389 C   0  0  0  0  0  0  0  0  0  0  0  0
   -0.1589    3.0262    0.0079 H   0  0  0  0  0  0  0  0  0  0  0  0
    1.7769    1.5144    0.4600 H   0  0  0  0  0  0  0  0  0  0  0  0
    2.6843   -2.7695    0.6068 H   0  0  0  0  0  0  0  0  0  0  0  0
    1.7192   -2.6875   -0.9007 H   0  0  0  0  0  0  0  0  0  0  0  0
    0.8732   -2.8965    0.6527 H   0  0  0  0  0  0  0  0  0  0  0  0
   -0.7355   -1.9651   -0.3947 H   0  0  0  0  0  0  0  0  0  0  0  0
   -2.5848   -0.4743   -0.9207 H   0  0  0  0  0  0  0  0  0  0  0  0
   -1.3975   -3.8009    0.3736 Cl  0  0  0  0  0  0  0  0  0  0  0  0
  1  4  1  0  0  0  0
  2  1  1  0  0  0  0
  3  2  1  0  0  0  0
  4 11  1  0  0  0  0
  4  5  2  0  0  0  0
  5 12  1  0  0  0  0
  6  5  1  0  0  0  0
  6  7  1  0  0  0  0
  8  7  1  0  0  0  0
  8 13  1  0  0  0  0
  8 15  1  0  0  0  0
  9  6  2  0  0  0  0
 10  1  2  0  0  0  0
 10  9  1  0  0  0  0
 14  8  1  0  0  0  0
 16  9  1  0  0  0  0
 17 10  1  0  0  0  0
M  RAD  3   2   2   3   3  18   2
M  END
