Coordinates from ORCA-job 4-MeOPhN2+~Cl-_B3LYPG-6-31G_dp-NX-Scan-d89-09-n800
 OpenBabel11261920533D

 18 17  0  0  0  0  0  0  0  0999 V2000
   -1.5574    1.1007   -0.4900 C   0  0  0  0  0  0  0  0  0  0  0  0
   -2.5762    1.8765   -0.8887 N   0  0  0  0  0  0  0  0  0  0  0  0
   -3.3747    2.5985   -1.2427 N   0  0  0  0  0  0  0  0  0  0  0  0
   -0.4258    1.7613    0.0985 C   0  0  0  0  0  0  0  0  0  0  0  0
    0.6969    1.0290    0.3363 C   0  0  0  0  0  0  0  0  0  0  0  0
    0.7406   -0.3616   -0.0010 C   0  0  0  0  0  0  0  0  0  0  0  0
    1.9141   -0.9592    0.2707 O   0  0  0  0  0  0  0  0  0  0  0  0
    2.0181   -2.3756    0.0970 C   0  0  0  0  0  0  0  0  0  0  0  0
   -0.3659   -0.9992   -0.5453 C   0  0  0  0  0  0  0  0  0  0  0  0
   -1.5701   -0.3085   -0.7297 C   0  0  0  0  0  0  0  0  0  0  0  0
   -0.4804    2.8177    0.3347 H   0  0  0  0  0  0  0  0  0  0  0  0
    1.5764    1.4751    0.7867 H   0  0  0  0  0  0  0  0  0  0  0  0
    3.0176   -2.6406    0.4406 H   0  0  0  0  0  0  0  0  0  0  0  0
    1.9087   -2.6515   -0.9578 H   0  0  0  0  0  0  0  0  0  0  0  0
    1.2657   -2.8973    0.6964 H   0  0  0  0  0  0  0  0  0  0  0  0
   -0.3707   -2.0621   -0.7395 H   0  0  0  0  0  0  0  0  0  0  0  0
   -2.4094   -0.7739   -1.2232 H   0  0  0  0  0  0  0  0  0  0  0  0
   -2.7620   -1.9802    1.0460 Cl  0  0  0  0  0  0  0  0  0  0  0  0
  1  4  2  0  0  0  0
  2  1  1  0  0  0  0
  3  2  1  0  0  0  0
  4 11  1  0  0  0  0
  4  5  1  0  0  0  0
  5 12  1  0  0  0  0
  6  7  1  0  0  0  0
  6  5  2  0  0  0  0
  8  7  1  0  0  0  0
  8 13  1  0  0  0  0
  8 15  1  0  0  0  0
  9  6  1  0  0  0  0
 10  9  2  0  0  0  0
 10  1  1  0  0  0  0
 14  8  1  0  0  0  0
 16  9  1  0  0  0  0
 17 10  1  0  0  0  0
M  RAD  3   2   2   3   3  18   2
M  END
