Coordinates from ORCA-job 4-MeOPhN2+~Cl-_B3LYPG-6-31G_dp-NX-Scan-d89-09-n800
 OpenBabel11261920533D

 18 17  0  0  0  0  0  0  0  0999 V2000
   -1.4856    1.2388   -0.4371 C   0  0  0  0  0  0  0  0  0  0  0  0
   -2.5778    1.9958   -0.6692 N   0  0  0  0  0  0  0  0  0  0  0  0
   -3.4808    2.6448   -0.8576 N   0  0  0  0  0  0  0  0  0  0  0  0
   -0.2614    1.9024   -0.1213 C   0  0  0  0  0  0  0  0  0  0  0  0
    0.8495    1.1338    0.1042 C   0  0  0  0  0  0  0  0  0  0  0  0
    0.7708   -0.2863    0.0225 C   0  0  0  0  0  0  0  0  0  0  0  0
    1.9098   -0.9359    0.2604 O   0  0  0  0  0  0  0  0  0  0  0  0
    1.9083   -2.3765    0.2134 C   0  0  0  0  0  0  0  0  0  0  0  0
   -0.4462   -0.9218   -0.2819 C   0  0  0  0  0  0  0  0  0  0  0  0
   -1.5825   -0.1758   -0.5134 C   0  0  0  0  0  0  0  0  0  0  0  0
   -0.2255    2.9844   -0.0578 H   0  0  0  0  0  0  0  0  0  0  0  0
    1.8029    1.5872    0.3515 H   0  0  0  0  0  0  0  0  0  0  0  0
    2.9249   -2.6717    0.4687 H   0  0  0  0  0  0  0  0  0  0  0  0
    1.6528   -2.7287   -0.7898 H   0  0  0  0  0  0  0  0  0  0  0  0
    1.1992   -2.7882    0.9362 H   0  0  0  0  0  0  0  0  0  0  0  0
   -0.6122   -2.0034   -0.3128 H   0  0  0  0  0  0  0  0  0  0  0  0
   -2.5013   -0.7293   -0.7168 H   0  0  0  0  0  0  0  0  0  0  0  0
   -2.5995   -3.2205   -0.3103 Cl  0  0  0  0  0  0  0  0  0  0  0  0
  1  4  1  0  0  0  0
  2  1  1  0  0  0  0
  3  2  1  0  0  0  0
  4 11  1  0  0  0  0
  4  5  2  0  0  0  0
  5 12  1  0  0  0  0
  6  5  1  0  0  0  0
  6  7  1  0  0  0  0
  8  7  1  0  0  0  0
  8 13  1  0  0  0  0
  8 15  1  0  0  0  0
  9  6  2  0  0  0  0
 10  1  2  0  0  0  0
 10  9  1  0  0  0  0
 14  8  1  0  0  0  0
 16  9  1  0  0  0  0
 17 10  1  0  0  0  0
M  RAD  3   2   2   3   3  18   2
M  END
