Coordinates from ORCA-job 4-MeOPhN2+~Cl-_B3LYPG-6-31G_dp-NX-Scan-d89-09-n800
 OpenBabel11261920533D

 18 17  0  0  0  0  0  0  0  0999 V2000
   -1.4648    1.3327   -0.4994 C   0  0  0  0  0  0  0  0  0  0  0  0
   -2.5689    2.0827   -0.6506 N   0  0  0  0  0  0  0  0  0  0  0  0
   -3.5370    2.6451   -0.7959 N   0  0  0  0  0  0  0  0  0  0  0  0
   -0.2428    1.9397   -0.0897 C   0  0  0  0  0  0  0  0  0  0  0  0
    0.8367    1.1261    0.1332 C   0  0  0  0  0  0  0  0  0  0  0  0
    0.7202   -0.2869   -0.0269 C   0  0  0  0  0  0  0  0  0  0  0  0
    1.7937   -0.9896    0.2883 O   0  0  0  0  0  0  0  0  0  0  0  0
    1.7529   -2.4387    0.1801 C   0  0  0  0  0  0  0  0  0  0  0  0
   -0.4880   -0.8685   -0.4786 C   0  0  0  0  0  0  0  0  0  0  0  0
   -1.5806   -0.0708   -0.6987 C   0  0  0  0  0  0  0  0  0  0  0  0
   -0.1853    3.0130    0.0529 H   0  0  0  0  0  0  0  0  0  0  0  0
    1.7865    1.5332    0.4610 H   0  0  0  0  0  0  0  0  0  0  0  0
    2.6725   -2.7782    0.6539 H   0  0  0  0  0  0  0  0  0  0  0  0
    1.7443   -2.7216   -0.8758 H   0  0  0  0  0  0  0  0  0  0  0  0
    0.8629   -2.8504    0.6724 H   0  0  0  0  0  0  0  0  0  0  0  0
   -0.6625   -1.9602   -0.5010 H   0  0  0  0  0  0  0  0  0  0  0  0
   -2.5279   -0.5207   -0.9770 H   0  0  0  0  0  0  0  0  0  0  0  0
   -1.6664   -3.5379    0.4409 Cl  0  0  0  0  0  0  0  0  0  0  0  0
  1  4  1  0  0  0  0
  2  1  1  0  0  0  0
  3  2  1  0  0  0  0
  4 11  1  0  0  0  0
  4  5  2  0  0  0  0
  5 12  1  0  0  0  0
  6  5  1  0  0  0  0
  6  7  1  0  0  0  0
  8  7  1  0  0  0  0
  8 13  1  0  0  0  0
  8 15  1  0  0  0  0
  9  6  2  0  0  0  0
 10  1  2  0  0  0  0
 10  9  1  0  0  0  0
 14  8  1  0  0  0  0
 16  9  1  0  0  0  0
 17 10  1  0  0  0  0
M  RAD  3   2   2   3   3  18   2
M  END
