Coordinates from ORCA-job 4-MeOPhN2+~Cl-_B3LYPG-6-31G_dp-NX-Scan-d89-09-n800
 OpenBabel11261920533D

 18 17  0  0  0  0  0  0  0  0999 V2000
   -1.4671    1.3438   -0.4975 C   0  0  0  0  0  0  0  0  0  0  0  0
   -2.5622    2.1027   -0.6661 N   0  0  0  0  0  0  0  0  0  0  0  0
   -3.5227    2.6744   -0.8286 N   0  0  0  0  0  0  0  0  0  0  0  0
   -0.2405    1.9447   -0.0936 C   0  0  0  0  0  0  0  0  0  0  0  0
    0.8330    1.1255    0.1357 C   0  0  0  0  0  0  0  0  0  0  0  0
    0.7075   -0.2885   -0.0122 C   0  0  0  0  0  0  0  0  0  0  0  0
    1.7813   -0.9910    0.2977 O   0  0  0  0  0  0  0  0  0  0  0  0
    1.7482   -2.4399    0.1774 C   0  0  0  0  0  0  0  0  0  0  0  0
   -0.5084   -0.8674   -0.4507 C   0  0  0  0  0  0  0  0  0  0  0  0
   -1.5933   -0.0621   -0.6804 C   0  0  0  0  0  0  0  0  0  0  0  0
   -0.1742    3.0191    0.0368 H   0  0  0  0  0  0  0  0  0  0  0  0
    1.7867    1.5289    0.4565 H   0  0  0  0  0  0  0  0  0  0  0  0
    2.6724   -2.7777    0.6433 H   0  0  0  0  0  0  0  0  0  0  0  0
    1.7351   -2.7117   -0.8813 H   0  0  0  0  0  0  0  0  0  0  0  0
    0.8616   -2.8620    0.6675 H   0  0  0  0  0  0  0  0  0  0  0  0
   -0.6873   -1.9613   -0.4663 H   0  0  0  0  0  0  0  0  0  0  0  0
   -2.5441   -0.5039   -0.9601 H   0  0  0  0  0  0  0  0  0  0  0  0
   -1.5805   -3.6247    0.4111 Cl  0  0  0  0  0  0  0  0  0  0  0  0
  1  4  1  0  0  0  0
  2  1  1  0  0  0  0
  3  2  1  0  0  0  0
  4 11  1  0  0  0  0
  4  5  2  0  0  0  0
  5 12  1  0  0  0  0
  6  5  1  0  0  0  0
  6  7  1  0  0  0  0
  8  7  1  0  0  0  0
  8 13  1  0  0  0  0
  8 15  1  0  0  0  0
  9  6  2  0  0  0  0
 10  1  2  0  0  0  0
 10  9  1  0  0  0  0
 14  8  1  0  0  0  0
 16  9  1  0  0  0  0
 17 10  1  0  0  0  0
M  RAD  3   2   2   3   3  18   2
M  END
