Coordinates from ORCA-job 4-MeOPhN2+~Cl-_B3LYPG-6-31G_dp-NX-Scan-d89-09-n800
 OpenBabel11261920533D

 18 18  0  0  0  0  0  0  0  0999 V2000
   -1.5573    0.9239   -0.4431 C   0  0  0  0  0  0  0  0  0  0  0  0
   -2.6706    1.7691   -0.7514 N   0  0  0  0  0  0  0  0  0  0  0  0
   -3.8775    1.4223   -0.5026 N   0  0  0  0  0  0  0  0  0  0  0  0
   -0.4055    1.6348   -0.0473 C   0  0  0  0  0  0  0  0  0  0  0  0
    0.7891    0.9871    0.2118 C   0  0  0  0  0  0  0  0  0  0  0  0
    0.8863   -0.4033    0.0341 C   0  0  0  0  0  0  0  0  0  0  0  0
    2.1025   -0.9507    0.3034 O   0  0  0  0  0  0  0  0  0  0  0  0
    2.2658   -2.3515    0.1383 C   0  0  0  0  0  0  0  0  0  0  0  0
   -0.2319   -1.1215   -0.4081 C   0  0  0  0  0  0  0  0  0  0  0  0
   -1.4434   -0.4647   -0.6321 C   0  0  0  0  0  0  0  0  0  0  0  0
   -0.4839    2.7128    0.0542 H   0  0  0  0  0  0  0  0  0  0  0  0
    1.6701    1.5321    0.5341 H   0  0  0  0  0  0  0  0  0  0  0  0
    3.2990   -2.5681    0.4125 H   0  0  0  0  0  0  0  0  0  0  0  0
    2.0962   -2.6585   -0.9017 H   0  0  0  0  0  0  0  0  0  0  0  0
    1.5918   -2.9166    0.7940 H   0  0  0  0  0  0  0  0  0  0  0  0
   -0.1753   -2.1899   -0.5800 H   0  0  0  0  0  0  0  0  0  0  0  0
   -2.2805   -1.0506   -0.9903 H   0  0  0  0  0  0  0  0  0  0  0  0
   -4.3294    0.3422    0.0633 Cl  0  0  0  0  0  0  0  0  0  0  0  0
  1  4  1  0  0  0  0
  2  3  2  0  0  0  0
  2  1  1  0  0  0  0
  3 18  1  0  0  0  0
  4 11  1  0  0  0  0
  4  5  2  0  0  0  0
  5 12  1  0  0  0  0
  6  5  1  0  0  0  0
  6  7  1  0  0  0  0
  8  7  1  0  0  0  0
  8 13  1  0  0  0  0
  8 15  1  0  0  0  0
  9  6  2  0  0  0  0
 10  1  2  0  0  0  0
 10  9  1  0  0  0  0
 14  8  1  0  0  0  0
 16  9  1  0  0  0  0
 17 10  1  0  0  0  0
M  END
