Coordinates from ORCA-job 4-MeOPhN2+~Cl-_B3LYPG-6-31G_dp-NX-Scan-d89-09-n800
 OpenBabel11261920533D

 18 17  0  0  0  0  0  0  0  0999 V2000
   -1.4879    0.9780   -0.2600 C   0  0  0  0  0  0  0  0  0  0  0  0
   -2.6592    1.7284   -0.3836 N   0  0  0  0  0  0  0  0  0  0  0  0
   -3.8101    1.6823   -0.5719 N   0  0  0  0  0  0  0  0  0  0  0  0
   -0.3075    1.6990    0.0004 C   0  0  0  0  0  0  0  0  0  0  0  0
    0.8887    1.0237    0.1361 C   0  0  0  0  0  0  0  0  0  0  0  0
    0.9210   -0.3803    0.0134 C   0  0  0  0  0  0  0  0  0  0  0  0
    2.1363   -0.9463    0.1649 O   0  0  0  0  0  0  0  0  0  0  0  0
    2.2575   -2.3641    0.0685 C   0  0  0  0  0  0  0  0  0  0  0  0
   -0.2623   -1.0935   -0.2489 C   0  0  0  0  0  0  0  0  0  0  0  0
   -1.4699   -0.4200   -0.3862 C   0  0  0  0  0  0  0  0  0  0  0  0
   -0.3545    2.7789    0.0930 H   0  0  0  0  0  0  0  0  0  0  0  0
    1.8158    1.5479    0.3385 H   0  0  0  0  0  0  0  0  0  0  0  0
    3.3123   -2.5824    0.2346 H   0  0  0  0  0  0  0  0  0  0  0  0
    1.9631   -2.7228   -0.9246 H   0  0  0  0  0  0  0  0  0  0  0  0
    1.6561   -2.8680    0.8336 H   0  0  0  0  0  0  0  0  0  0  0  0
   -0.2512   -2.1719   -0.3482 H   0  0  0  0  0  0  0  0  0  0  0  0
   -2.3955   -0.9469   -0.5878 H   0  0  0  0  0  0  0  0  0  0  0  0
   -4.7072   -0.2930   -0.8826 Cl  0  0  0  0  0  0  0  0  0  0  0  0
  1  4  1  0  0  0  0
  2  1  1  0  0  0  0
  3  2  2  0  0  0  0
  4 11  1  0  0  0  0
  4  5  2  0  0  0  0
  5 12  1  0  0  0  0
  6  5  1  0  0  0  0
  6  7  1  0  0  0  0
  8  7  1  0  0  0  0
  8 13  1  0  0  0  0
  8 15  1  0  0  0  0
  9  6  2  0  0  0  0
 10  1  2  0  0  0  0
 10  9  1  0  0  0  0
 14  8  1  0  0  0  0
 16  9  1  0  0  0  0
 17 10  1  0  0  0  0
M  RAD  2   3   2  18   2
M  END
