Coordinates from ORCA-job 4-MeOPhN2+~Cl-_B3LYPG-6-31G_dp-NX-Scan-d89-09-n800
 OpenBabel11261920533D

 18 18  0  0  0  0  0  0  0  0999 V2000
   -1.5373    0.9370   -0.4363 C   0  0  0  0  0  0  0  0  0  0  0  0
   -2.6559    1.7607   -0.7136 N   0  0  0  0  0  0  0  0  0  0  0  0
   -3.8635    1.5308   -0.5594 N   0  0  0  0  0  0  0  0  0  0  0  0
   -0.3838    1.6509   -0.0542 C   0  0  0  0  0  0  0  0  0  0  0  0
    0.8059    0.9953    0.2041 C   0  0  0  0  0  0  0  0  0  0  0  0
    0.8906   -0.3971    0.0299 C   0  0  0  0  0  0  0  0  0  0  0  0
    2.1011   -0.9508    0.2936 O   0  0  0  0  0  0  0  0  0  0  0  0
    2.2560   -2.3559    0.1410 C   0  0  0  0  0  0  0  0  0  0  0  0
   -0.2345   -1.1111   -0.4069 C   0  0  0  0  0  0  0  0  0  0  0  0
   -1.4425   -0.4511   -0.6265 C   0  0  0  0  0  0  0  0  0  0  0  0
   -0.4566    2.7291    0.0445 H   0  0  0  0  0  0  0  0  0  0  0  0
    1.6919    1.5342    0.5220 H   0  0  0  0  0  0  0  0  0  0  0  0
    3.2886   -2.5744    0.4147 H   0  0  0  0  0  0  0  0  0  0  0  0
    2.0822   -2.6699   -0.8957 H   0  0  0  0  0  0  0  0  0  0  0  0
    1.5804   -2.9091    0.8044 H   0  0  0  0  0  0  0  0  0  0  0  0
   -0.1833   -2.1795   -0.5786 H   0  0  0  0  0  0  0  0  0  0  0  0
   -2.2919   -1.0215   -0.9758 H   0  0  0  0  0  0  0  0  0  0  0  0
   -4.4021    0.1313    0.0819 Cl  0  0  0  0  0  0  0  0  0  0  0  0
  1  4  1  0  0  0  0
  2  3  2  0  0  0  0
  2  1  1  0  0  0  0
  3 18  1  0  0  0  0
  4 11  1  0  0  0  0
  4  5  2  0  0  0  0
  5 12  1  0  0  0  0
  6  5  1  0  0  0  0
  6  7  1  0  0  0  0
  8  7  1  0  0  0  0
  8 13  1  0  0  0  0
  8 15  1  0  0  0  0
  9  6  2  0  0  0  0
 10  1  2  0  0  0  0
 10  9  1  0  0  0  0
 14  8  1  0  0  0  0
 16  9  1  0  0  0  0
 17 10  1  0  0  0  0
M  END
