Coordinates from ORCA-job 4-MeOPhN2+~Cl-_B3LYPG-6-31G_dp-NX-Scan-d89-09-n800
 OpenBabel11261920533D

 18 18  0  0  0  0  0  0  0  0999 V2000
   -1.5886    0.9188   -0.2678 C   0  0  0  0  0  0  0  0  0  0  0  0
   -2.6885    1.8199   -0.3566 N   0  0  0  0  0  0  0  0  0  0  0  0
   -3.8894    1.4119   -0.6222 N   0  0  0  0  0  0  0  0  0  0  0  0
   -0.3929    1.6265    0.0159 C   0  0  0  0  0  0  0  0  0  0  0  0
    0.8252    0.9939    0.1562 C   0  0  0  0  0  0  0  0  0  0  0  0
    0.9077   -0.4030    0.0186 C   0  0  0  0  0  0  0  0  0  0  0  0
    2.1470   -0.9409    0.1749 O   0  0  0  0  0  0  0  0  0  0  0  0
    2.2938   -2.3485    0.0611 C   0  0  0  0  0  0  0  0  0  0  0  0
   -0.2522   -1.1330   -0.2611 C   0  0  0  0  0  0  0  0  0  0  0  0
   -1.4835   -0.4867   -0.4031 C   0  0  0  0  0  0  0  0  0  0  0  0
   -0.4739    2.7035    0.1217 H   0  0  0  0  0  0  0  0  0  0  0  0
    1.7311    1.5499    0.3741 H   0  0  0  0  0  0  0  0  0  0  0  0
    3.3514   -2.5553    0.2300 H   0  0  0  0  0  0  0  0  0  0  0  0
    2.0110   -2.7050   -0.9377 H   0  0  0  0  0  0  0  0  0  0  0  0
    1.6972   -2.8788    0.8139 H   0  0  0  0  0  0  0  0  0  0  0  0
   -0.2164   -2.2103   -0.3743 H   0  0  0  0  0  0  0  0  0  0  0  0
   -2.3440   -1.1012   -0.6181 H   0  0  0  0  0  0  0  0  0  0  0  0
   -4.3898    0.3871   -0.8364 Cl  0  0  0  0  0  0  0  0  0  0  0  0
  1  4  1  0  0  0  0
  2  1  1  0  0  0  0
  3  2  2  0  0  0  0
  4 11  1  0  0  0  0
  4  5  2  0  0  0  0
  5 12  1  0  0  0  0
  6  5  1  0  0  0  0
  6  7  1  0  0  0  0
  8  7  1  0  0  0  0
  8 13  1  0  0  0  0
  8 15  1  0  0  0  0
  9  6  2  0  0  0  0
 10  1  2  0  0  0  0
 10  9  1  0  0  0  0
 14  8  1  0  0  0  0
 16  9  1  0  0  0  0
 17 10  1  0  0  0  0
 18  3  1  0  0  0  0
M  END
