Coordinates from ORCA-job 4-MeOPhN2+~Cl-_B3LYPG-6-31G_dp-NX-Scan-d89-09-n800
 OpenBabel11261920533D

 18 18  0  0  1  0  0  0  0  0999 V2000
   -1.5833    1.0471   -0.4648 C   0  0  0  0  0  0  0  0  0  0  0  0
   -2.5731    1.7925   -0.9255 N   0  0  0  0  0  0  0  0  0  0  0  0
   -3.3927    2.4622   -1.3457 N   0  0  0  0  0  0  0  0  0  0  0  0
   -0.4636    1.6997    0.1620 C   0  0  0  0  0  0  0  0  0  0  0  0
    0.6442    0.9703    0.4411 C   0  0  0  0  0  0  0  0  0  0  0  0
    0.7041   -0.4258    0.0707 C   0  0  0  0  0  0  0  0  0  0  0  0
    1.9195   -0.9795    0.2925 O   0  0  0  0  0  0  0  0  0  0  0  0
    2.0879   -2.3661    0.0157 C   0  0  0  0  0  0  0  0  0  0  0  0
   -0.3730   -1.0722   -0.4711 C   0  0  0  0  0  0  0  0  0  0  0  0
   -1.6589   -0.4119   -0.5755 C   0  0  1  0  0  0  0  0  0  0  0  0
   -0.5215    2.7595    0.3847 H   0  0  0  0  0  0  0  0  0  0  0  0
    1.5153    1.4112    0.9116 H   0  0  0  0  0  0  0  0  0  0  0  0
    3.1117   -2.6068    0.3028 H   0  0  0  0  0  0  0  0  0  0  0  0
    1.9486   -2.5775   -1.0516 H   0  0  0  0  0  0  0  0  0  0  0  0
    1.3881   -2.9736    0.6005 H   0  0  0  0  0  0  0  0  0  0  0  0
   -0.3346   -2.1198   -0.7364 H   0  0  0  0  0  0  0  0  0  0  0  0
   -2.3292   -0.7843   -1.3418 H   0  0  0  0  0  0  0  0  0  0  0  0
   -2.8440   -1.1761    1.0200 Cl  0  0  0  0  0  0  0  0  0  0  0  0
  1  4  2  0  0  0  0
  2  1  1  0  0  0  0
  3  2  1  0  0  0  0
  4 11  1  0  0  0  0
  4  5  1  0  0  0  0
  5 12  1  0  0  0  0
  6  7  1  0  0  0  0
  6  5  1  0  0  0  0
  8  7  1  0  0  0  0
  8 13  1  0  0  0  0
  8 15  1  0  0  0  0
  9  6  2  0  0  0  0
 10 17  1  6  0  0  0
 10  9  1  0  0  0  0
 10  1  1  0  0  0  0
 10 18  1  0  0  0  0
 14  8  1  0  0  0  0
 16  9  1  0  0  0  0
M  RAD  3   2   2   3   3   5   2
M  END
