Coordinates from ORCA-job 4-MeOPhN2+~Cl-_B3LYPG-6-31G_dp-NX-Scan-d89-09-n800
 OpenBabel11261920533D

 18 17  0  0  0  0  0  0  0  0999 V2000
   -1.4321    1.0630   -0.2396 C   0  0  0  0  0  0  0  0  0  0  0  0
   -2.6195    1.7502   -0.3711 N   0  0  0  0  0  0  0  0  0  0  0  0
   -3.7200    1.9522   -0.5313 N   0  0  0  0  0  0  0  0  0  0  0  0
   -0.2401    1.7709    0.0182 C   0  0  0  0  0  0  0  0  0  0  0  0
    0.9252    1.0497    0.1426 C   0  0  0  0  0  0  0  0  0  0  0  0
    0.9059   -0.3613    0.0124 C   0  0  0  0  0  0  0  0  0  0  0  0
    2.0987   -0.9584    0.1549 O   0  0  0  0  0  0  0  0  0  0  0  0
    2.1863   -2.3833    0.0534 C   0  0  0  0  0  0  0  0  0  0  0  0
   -0.2999   -1.0408   -0.2461 C   0  0  0  0  0  0  0  0  0  0  0  0
   -1.4871   -0.3363   -0.3752 C   0  0  0  0  0  0  0  0  0  0  0  0
   -0.2495    2.8512    0.1157 H   0  0  0  0  0  0  0  0  0  0  0  0
    1.8728    1.5364    0.3421 H   0  0  0  0  0  0  0  0  0  0  0  0
    3.2364   -2.6234    0.2153 H   0  0  0  0  0  0  0  0  0  0  0  0
    1.8792   -2.7271   -0.9400 H   0  0  0  0  0  0  0  0  0  0  0  0
    1.5750   -2.8705    0.8201 H   0  0  0  0  0  0  0  0  0  0  0  0
   -0.3234   -2.1187   -0.3489 H   0  0  0  0  0  0  0  0  0  0  0  0
   -2.4611   -0.8174   -0.5780 H   0  0  0  0  0  0  0  0  0  0  0  0
   -4.6013   -1.0873   -0.9553 Cl  0  0  0  0  0  0  0  0  0  0  0  0
  1  4  2  0  0  0  0
  2  1  1  0  0  0  0
  3  2  1  0  0  0  0
  4 11  1  0  0  0  0
  4  5  1  0  0  0  0
  5 12  1  0  0  0  0
  6  5  2  0  0  0  0
  6  7  1  0  0  0  0
  8  7  1  0  0  0  0
  8 13  1  0  0  0  0
  8 15  1  0  0  0  0
  9  6  1  0  0  0  0
 10  9  2  0  0  0  0
 10  1  1  0  0  0  0
 14  8  1  0  0  0  0
 16  9  1  0  0  0  0
 17 10  1  0  0  0  0
M  RAD  3   2   2   3   3  18   2
M  END
