Coordinates from ORCA-job 4-MeOPhN2+~Cl-_B3LYPG-6-31G_dp-NX-Scan-d89-09-n800
 OpenBabel11261920533D

 18 18  0  0  1  0  0  0  0  0999 V2000
   -1.5850    1.0464   -0.4633 C   0  0  0  0  0  0  0  0  0  0  0  0
   -2.5704    1.7936   -0.9310 N   0  0  0  0  0  0  0  0  0  0  0  0
   -3.3834    2.4675   -1.3574 N   0  0  0  0  0  0  0  0  0  0  0  0
   -0.4655    1.6991    0.1641 C   0  0  0  0  0  0  0  0  0  0  0  0
    0.6426    0.9700    0.4429 C   0  0  0  0  0  0  0  0  0  0  0  0
    0.7033   -0.4256    0.0710 C   0  0  0  0  0  0  0  0  0  0  0  0
    1.9190   -0.9790    0.2919 O   0  0  0  0  0  0  0  0  0  0  0  0
    2.0879   -2.3653    0.0137 C   0  0  0  0  0  0  0  0  0  0  0  0
   -0.3740   -1.0721   -0.4708 C   0  0  0  0  0  0  0  0  0  0  0  0
   -1.6600   -0.4124   -0.5733 C   0  0  1  0  0  0  0  0  0  0  0  0
   -0.5236    2.7589    0.3871 H   0  0  0  0  0  0  0  0  0  0  0  0
    1.5133    1.4109    0.9139 H   0  0  0  0  0  0  0  0  0  0  0  0
    3.1120   -2.6056    0.3001 H   0  0  0  0  0  0  0  0  0  0  0  0
    1.9481   -2.5758   -1.0536 H   0  0  0  0  0  0  0  0  0  0  0  0
    1.3888   -2.9736    0.5984 H   0  0  0  0  0  0  0  0  0  0  0  0
   -0.3355   -2.1197   -0.7361 H   0  0  0  0  0  0  0  0  0  0  0  0
   -2.3329   -0.7860   -1.3366 H   0  0  0  0  0  0  0  0  0  0  0  0
   -2.8394   -1.1825    1.0283 Cl  0  0  0  0  0  0  0  0  0  0  0  0
  1  4  2  0  0  0  0
  2  1  1  0  0  0  0
  3  2  1  0  0  0  0
  4 11  1  0  0  0  0
  4  5  1  0  0  0  0
  5 12  1  0  0  0  0
  6  7  1  0  0  0  0
  6  5  1  0  0  0  0
  8  7  1  0  0  0  0
  8 13  1  0  0  0  0
  8 15  1  0  0  0  0
  9  6  2  0  0  0  0
 10 17  1  6  0  0  0
 10  9  1  0  0  0  0
 10  1  1  0  0  0  0
 10 18  1  0  0  0  0
 14  8  1  0  0  0  0
 16  9  1  0  0  0  0
M  RAD  3   2   2   3   3   5   2
M  END
