Coordinates from ORCA-job 4-MeOPhN2+~Cl-_B3LYPG-6-31G_dp-NX-Scan-d89-09-n800
 OpenBabel11261920533D

 18 18  0  0  0  0  0  0  0  0999 V2000
   -1.5511    0.9244   -0.4611 C   0  0  0  0  0  0  0  0  0  0  0  0
   -2.6693    1.7517   -0.7858 N   0  0  0  0  0  0  0  0  0  0  0  0
   -3.8713    1.4537   -0.5146 N   0  0  0  0  0  0  0  0  0  0  0  0
   -0.4063    1.6380   -0.0547 C   0  0  0  0  0  0  0  0  0  0  0  0
    0.7843    0.9873    0.2169 C   0  0  0  0  0  0  0  0  0  0  0  0
    0.8823   -0.4025    0.0346 C   0  0  0  0  0  0  0  0  0  0  0  0
    2.0951   -0.9510    0.3135 O   0  0  0  0  0  0  0  0  0  0  0  0
    2.2601   -2.3518    0.1463 C   0  0  0  0  0  0  0  0  0  0  0  0
   -0.2310   -1.1194   -0.4234 C   0  0  0  0  0  0  0  0  0  0  0  0
   -1.4394   -0.4614   -0.6564 C   0  0  0  0  0  0  0  0  0  0  0  0
   -0.4842    2.7158    0.0483 H   0  0  0  0  0  0  0  0  0  0  0  0
    1.6622    1.5302    0.5508 H   0  0  0  0  0  0  0  0  0  0  0  0
    3.2904   -2.5688    0.4308 H   0  0  0  0  0  0  0  0  0  0  0  0
    2.1017   -2.6555   -0.8963 H   0  0  0  0  0  0  0  0  0  0  0  0
    1.5793   -2.9183    0.7935 H   0  0  0  0  0  0  0  0  0  0  0  0
   -0.1719   -2.1865   -0.6014 H   0  0  0  0  0  0  0  0  0  0  0  0
   -2.2770   -1.0397   -1.0265 H   0  0  0  0  0  0  0  0  0  0  0  0
   -4.3084    0.3030    0.1745 Cl  0  0  0  0  0  0  0  0  0  0  0  0
  1  4  1  0  0  0  0
  2  3  2  0  0  0  0
  2  1  1  0  0  0  0
  3 18  1  0  0  0  0
  4 11  1  0  0  0  0
  4  5  2  0  0  0  0
  5 12  1  0  0  0  0
  6  5  1  0  0  0  0
  6  7  1  0  0  0  0
  8  7  1  0  0  0  0
  8 13  1  0  0  0  0
  8 15  1  0  0  0  0
  9  6  2  0  0  0  0
 10  1  2  0  0  0  0
 10  9  1  0  0  0  0
 14  8  1  0  0  0  0
 16  9  1  0  0  0  0
 17 10  1  0  0  0  0
M  END
