Coordinates from ORCA-job 4-MeOPhN2+~Cl-_B3LYPG-6-31G_dp-NX-Scan-d89-09-n800
 OpenBabel11261920533D

 18 18  0  0  1  0  0  0  0  0999 V2000
   -1.6028    1.0410   -0.4484 C   0  0  0  0  0  0  0  0  0  0  0  0
   -2.5394    1.8097   -0.9880 N   0  0  0  0  0  0  0  0  0  0  0  0
   -3.2762    2.5288   -1.4761 N   0  0  0  0  0  0  0  0  0  0  0  0
   -0.4856    1.6959    0.1850 C   0  0  0  0  0  0  0  0  0  0  0  0
    0.6263    0.9691    0.4560 C   0  0  0  0  0  0  0  0  0  0  0  0
    0.6955   -0.4202    0.0691 C   0  0  0  0  0  0  0  0  0  0  0  0
    1.9122   -0.9716    0.2829 O   0  0  0  0  0  0  0  0  0  0  0  0
    2.0844   -2.3566   -0.0031 C   0  0  0  0  0  0  0  0  0  0  0  0
   -0.3836   -1.0669   -0.4738 C   0  0  0  0  0  0  0  0  0  0  0  0
   -1.6659   -0.4129   -0.5609 C   0  0  1  0  0  0  0  0  0  0  0  0
   -0.5469    2.7544    0.4132 H   0  0  0  0  0  0  0  0  0  0  0  0
    1.4940    1.4104    0.9325 H   0  0  0  0  0  0  0  0  0  0  0  0
    3.1102   -2.5947    0.2788 H   0  0  0  0  0  0  0  0  0  0  0  0
    1.9420   -2.5615   -1.0711 H   0  0  0  0  0  0  0  0  0  0  0  0
    1.3891   -2.9694    0.5812 H   0  0  0  0  0  0  0  0  0  0  0  0
   -0.3458   -2.1154   -0.7354 H   0  0  0  0  0  0  0  0  0  0  0  0
   -2.3758   -0.8041   -1.2789 H   0  0  0  0  0  0  0  0  0  0  0  0
   -2.7863   -1.2870    1.1263 Cl  0  0  0  0  0  0  0  0  0  0  0  0
  1  4  2  0  0  0  0
  2  1  1  0  0  0  0
  3  2  1  0  0  0  0
  4 11  1  0  0  0  0
  4  5  1  0  0  0  0
  5 12  1  0  0  0  0
  6  7  1  0  0  0  0
  6  5  1  0  0  0  0
  8 13  1  0  0  0  0
  8  7  1  0  0  0  0
  8 15  1  0  0  0  0
  9  6  2  0  0  0  0
 10 17  1  6  0  0  0
 10  9  1  0  0  0  0
 10  1  1  0  0  0  0
 10 18  1  0  0  0  0
 14  8  1  0  0  0  0
 16  9  1  0  0  0  0
M  RAD  3   2   2   3   3   5   2
M  END
