Coordinates from ORCA-job 4-MeOPhN2+~Cl-_B3LYPG-6-31G_dp-NX-Scan-d89-09-n800
 OpenBabel11261920533D

 18 18  0  0  1  0  0  0  0  0999 V2000
   -1.5319    1.0751   -0.5132 C   0  0  0  0  0  0  0  0  0  0  0  0
   -2.6404    1.7513   -0.7484 N   0  0  0  0  0  0  0  0  0  0  0  0
   -3.6390    2.2547   -0.9454 N   0  0  0  0  0  0  0  0  0  0  0  0
   -0.4042    1.7237    0.0904 C   0  0  0  0  0  0  0  0  0  0  0  0
    0.7000    0.9889    0.3746 C   0  0  0  0  0  0  0  0  0  0  0  0
    0.7326   -0.4196    0.0508 C   0  0  0  0  0  0  0  0  0  0  0  0
    1.9320   -0.9914    0.3086 O   0  0  0  0  0  0  0  0  0  0  0  0
    2.0756   -2.3899    0.0828 C   0  0  0  0  0  0  0  0  0  0  0  0
   -0.3462   -1.0628   -0.4944 C   0  0  0  0  0  0  0  0  0  0  0  0
   -1.6113   -0.3810   -0.6726 C   0  0  1  0  0  0  0  0  0  0  0  0
   -0.4569    2.7842    0.3112 H   0  0  0  0  0  0  0  0  0  0  0  0
    1.5799    1.4285    0.8287 H   0  0  0  0  0  0  0  0  0  0  0  0
    3.0878   -2.6420    0.4002 H   0  0  0  0  0  0  0  0  0  0  0  0
    1.9545   -2.6353   -0.9792 H   0  0  0  0  0  0  0  0  0  0  0  0
    1.3505   -2.9619    0.6724 H   0  0  0  0  0  0  0  0  0  0  0  0
   -0.3114   -2.1123   -0.7529 H   0  0  0  0  0  0  0  0  0  0  0  0
   -2.2236   -0.7285   -1.4975 H   0  0  0  0  0  0  0  0  0  0  0  0
   -3.0026   -1.0327    0.7730 Cl  0  0  0  0  0  0  0  0  0  0  0  0
  1  4  2  0  0  0  0
  2  1  1  0  0  0  0
  3  2  1  0  0  0  0
  4 11  1  0  0  0  0
  4  5  1  0  0  0  0
  5 12  1  0  0  0  0
  6  7  1  0  0  0  0
  6  5  1  0  0  0  0
  8  7  1  0  0  0  0
  8 13  1  0  0  0  0
  8 15  1  0  0  0  0
  9  6  2  0  0  0  0
 10 17  1  6  0  0  0
 10  1  1  0  0  0  0
 10  9  1  0  0  0  0
 10 18  1  0  0  0  0
 14  8  1  0  0  0  0
 16  9  1  0  0  0  0
M  RAD  3   2   2   3   3   5   2
M  END
