Coordinates from ORCA-job 4-MeOPhN2+~Cl-_B3LYPG-6-31G_dp-NX-Scan-d89-09-n800
 OpenBabel11261920443D

 18 17  0  0  0  0  0  0  0  0999 V2000
   -1.4591   -0.0356   -0.0413 C   0  0  0  0  0  0  0  0  0  0  0  0
   -2.8214   -0.0702    0.0560 N   0  0  0  0  0  0  0  0  0  0  0  0
   -3.9371   -0.0950    0.1360 N   0  0  0  0  0  0  0  0  0  0  0  0
   -0.8052    1.2210   -0.0007 C   0  0  0  0  0  0  0  0  0  0  0  0
    0.5631    1.2365   -0.0991 C   0  0  0  0  0  0  0  0  0  0  0  0
    1.2906    0.0240   -0.2368 C   0  0  0  0  0  0  0  0  0  0  0  0
    2.6054    0.1624   -0.3215 O   0  0  0  0  0  0  0  0  0  0  0  0
    3.4589   -0.9901   -0.4618 C   0  0  0  0  0  0  0  0  0  0  0  0
    0.6121   -1.2200   -0.2752 C   0  0  0  0  0  0  0  0  0  0  0  0
   -0.7622   -1.2556   -0.1778 C   0  0  0  0  0  0  0  0  0  0  0  0
   -1.3769    2.1387    0.1057 H   0  0  0  0  0  0  0  0  0  0  0  0
    1.1158    2.1699   -0.0734 H   0  0  0  0  0  0  0  0  0  0  0  0
    4.4712   -0.5922   -0.5020 H   0  0  0  0  0  0  0  0  0  0  0  0
    3.2332   -1.5252   -1.3890 H   0  0  0  0  0  0  0  0  0  0  0  0
    3.3537   -1.6535    0.4017 H   0  0  0  0  0  0  0  0  0  0  0  0
    1.1579   -2.1507   -0.3805 H   0  0  0  0  0  0  0  0  0  0  0  0
   -1.3024   -2.1988   -0.2050 H   0  0  0  0  0  0  0  0  0  0  0  0
  -12.1523   -0.5165    0.7538 Cl  0  0  0  0  0  0  0  0  0  0  0  0
  1  4  1  0  0  0  0
  1  2  1  0  0  0  0
  2  3  1  0  0  0  0
  4 11  1  0  0  0  0
  5 12  1  0  0  0  0
  5  4  2  0  0  0  0
  6  5  1  0  0  0  0
  7  6  1  0  0  0  0
  8  7  1  0  0  0  0
  8 15  1  0  0  0  0
  9  6  2  0  0  0  0
  9 10  1  0  0  0  0
 10  1  2  0  0  0  0
 13  8  1  0  0  0  0
 14  8  1  0  0  0  0
 16  9  1  0  0  0  0
 17 10  1  0  0  0  0
M  RAD  3   2   2   3   3  18   2
M  END
