Coordinates from ORCA-job 4-MeOPhN2+~Cl-_B3LYPG-6-31G_dp-NX-Scan-d89-09-n800
 OpenBabel11261920533D

 18 18  0  0  0  0  0  0  0  0999 V2000
   -1.5460    0.9284   -0.4579 C   0  0  0  0  0  0  0  0  0  0  0  0
   -2.6644    1.7522   -0.7713 N   0  0  0  0  0  0  0  0  0  0  0  0
   -3.8688    1.4832   -0.5326 N   0  0  0  0  0  0  0  0  0  0  0  0
   -0.3999    1.6425   -0.0564 C   0  0  0  0  0  0  0  0  0  0  0  0
    0.7894    0.9897    0.2146 C   0  0  0  0  0  0  0  0  0  0  0  0
    0.8837   -0.4008    0.0335 C   0  0  0  0  0  0  0  0  0  0  0  0
    2.0950   -0.9511    0.3103 O   0  0  0  0  0  0  0  0  0  0  0  0
    2.2573   -2.3531    0.1467 C   0  0  0  0  0  0  0  0  0  0  0  0
   -0.2318   -1.1163   -0.4224 C   0  0  0  0  0  0  0  0  0  0  0  0
   -1.4396   -0.4575   -0.6534 C   0  0  0  0  0  0  0  0  0  0  0  0
   -0.4762    2.7204    0.0452 H   0  0  0  0  0  0  0  0  0  0  0  0
    1.6689    1.5309    0.5466 H   0  0  0  0  0  0  0  0  0  0  0  0
    3.2875   -2.5708    0.4307 H   0  0  0  0  0  0  0  0  0  0  0  0
    2.0973   -2.6590   -0.8949 H   0  0  0  0  0  0  0  0  0  0  0  0
    1.5762   -2.9161    0.7964 H   0  0  0  0  0  0  0  0  0  0  0  0
   -0.1744   -2.1835   -0.6004 H   0  0  0  0  0  0  0  0  0  0  0  0
   -2.2802   -1.0321   -1.0206 H   0  0  0  0  0  0  0  0  0  0  0  0
   -4.3287    0.2423    0.1751 Cl  0  0  0  0  0  0  0  0  0  0  0  0
  1  4  1  0  0  0  0
  2  3  2  0  0  0  0
  2  1  1  0  0  0  0
  3 18  1  0  0  0  0
  4 11  1  0  0  0  0
  4  5  2  0  0  0  0
  5 12  1  0  0  0  0
  6  5  1  0  0  0  0
  6  7  1  0  0  0  0
  8  7  1  0  0  0  0
  8 13  1  0  0  0  0
  8 15  1  0  0  0  0
  9  6  2  0  0  0  0
 10  1  2  0  0  0  0
 10  9  1  0  0  0  0
 14  8  1  0  0  0  0
 16  9  1  0  0  0  0
 17 10  1  0  0  0  0
M  END
