Coordinates from ORCA-job 4-MeOPhN2+~Cl-_B3LYPG-6-31G_dp-NX-Scan-d89-09-n800
 OpenBabel11261920533D

 18 17  0  0  0  0  0  0  0  0999 V2000
   -1.4901    1.3721   -0.4934 C   0  0  0  0  0  0  0  0  0  0  0  0
   -2.5307    2.1823   -0.7486 N   0  0  0  0  0  0  0  0  0  0  0  0
   -3.4147    2.8489   -0.9794 N   0  0  0  0  0  0  0  0  0  0  0  0
   -0.2494    1.9512   -0.0975 C   0  0  0  0  0  0  0  0  0  0  0  0
    0.7998    1.1137    0.1637 C   0  0  0  0  0  0  0  0  0  0  0  0
    0.6491   -0.3014    0.0450 C   0  0  0  0  0  0  0  0  0  0  0  0
    1.7308   -0.9979    0.3269 O   0  0  0  0  0  0  0  0  0  0  0  0
    1.7464   -2.4414    0.1513 C   0  0  0  0  0  0  0  0  0  0  0  0
   -0.5929   -0.8702   -0.3476 C   0  0  0  0  0  0  0  0  0  0  0  0
   -1.6538   -0.0398   -0.6122 C   0  0  0  0  0  0  0  0  0  0  0  0
   -0.1532    3.0278   -0.0092 H   0  0  0  0  0  0  0  0  0  0  0  0
    1.7644    1.5026    0.4693 H   0  0  0  0  0  0  0  0  0  0  0  0
    2.6980   -2.7591    0.5741 H   0  0  0  0  0  0  0  0  0  0  0  0
    1.7072   -2.6686   -0.9169 H   0  0  0  0  0  0  0  0  0  0  0  0
    0.8889   -2.9234    0.6422 H   0  0  0  0  0  0  0  0  0  0  0  0
   -0.7660   -1.9672   -0.3478 H   0  0  0  0  0  0  0  0  0  0  0  0
   -2.6148   -0.4576   -0.8940 H   0  0  0  0  0  0  0  0  0  0  0  0
   -1.2737   -3.9229    0.3631 Cl  0  0  0  0  0  0  0  0  0  0  0  0
  1  4  1  0  0  0  0
  2  1  1  0  0  0  0
  3  2  1  0  0  0  0
  4 11  1  0  0  0  0
  4  5  2  0  0  0  0
  5 12  1  0  0  0  0
  6  5  1  0  0  0  0
  6  7  1  0  0  0  0
  8  7  1  0  0  0  0
  8 13  1  0  0  0  0
  8 15  1  0  0  0  0
  9  6  2  0  0  0  0
 10  1  2  0  0  0  0
 10  9  1  0  0  0  0
 14  8  1  0  0  0  0
 16  9  1  0  0  0  0
 17 10  1  0  0  0  0
M  RAD  3   2   2   3   3  18   2
M  END
