Coordinates from ORCA-job 4-MeOPhN2+~Cl-_B3LYPG-6-31G_dp-NX-Scan-d89-09-n800
 OpenBabel11261920533D

 18 17  0  0  0  0  0  0  0  0999 V2000
   -1.4572    1.0125   -0.2496 C   0  0  0  0  0  0  0  0  0  0  0  0
   -2.6452    1.7266   -0.3783 N   0  0  0  0  0  0  0  0  0  0  0  0
   -3.7785    1.7420   -0.5613 N   0  0  0  0  0  0  0  0  0  0  0  0
   -0.2754    1.7297    0.0088 C   0  0  0  0  0  0  0  0  0  0  0  0
    0.9090    1.0346    0.1394 C   0  0  0  0  0  0  0  0  0  0  0  0
    0.9202   -0.3719    0.0141 C   0  0  0  0  0  0  0  0  0  0  0  0
    2.1268   -0.9508    0.1614 O   0  0  0  0  0  0  0  0  0  0  0  0
    2.2347   -2.3713    0.0626 C   0  0  0  0  0  0  0  0  0  0  0  0
   -0.2725   -1.0725   -0.2454 C   0  0  0  0  0  0  0  0  0  0  0  0
   -1.4711   -0.3852   -0.3790 C   0  0  0  0  0  0  0  0  0  0  0  0
   -0.3070    2.8098    0.1032 H   0  0  0  0  0  0  0  0  0  0  0  0
    1.8448    1.5434    0.3400 H   0  0  0  0  0  0  0  0  0  0  0  0
    3.2878   -2.5982    0.2260 H   0  0  0  0  0  0  0  0  0  0  0  0
    1.9344   -2.7241   -0.9304 H   0  0  0  0  0  0  0  0  0  0  0  0
    1.6303   -2.8689    0.8289 H   0  0  0  0  0  0  0  0  0  0  0  0
   -0.2747   -2.1509   -0.3452 H   0  0  0  0  0  0  0  0  0  0  0  0
   -2.4189   -0.8848   -0.5793 H   0  0  0  0  0  0  0  0  0  0  0  0
   -4.7420   -0.5709   -0.9268 Cl  0  0  0  0  0  0  0  0  0  0  0  0
  1  4  1  0  0  0  0
  2  1  1  0  0  0  0
  3  2  2  0  0  0  0
  4 11  1  0  0  0  0
  4  5  2  0  0  0  0
  5 12  1  0  0  0  0
  6  5  1  0  0  0  0
  6  7  1  0  0  0  0
  8  7  1  0  0  0  0
  8 13  1  0  0  0  0
  8 15  1  0  0  0  0
  9  6  2  0  0  0  0
 10  1  2  0  0  0  0
 10  9  1  0  0  0  0
 14  8  1  0  0  0  0
 16  9  1  0  0  0  0
 17 10  1  0  0  0  0
M  RAD  2   3   2  18   2
M  END
