Coordinates from ORCA-job 4-MeOPhN2+~Cl-_B3LYPG-6-31G_dp-NX-Scan-d89-09-n800
 OpenBabel11261920533D

 18 17  0  0  0  0  0  0  0  0999 V2000
   -1.4784    1.2718   -0.4441 C   0  0  0  0  0  0  0  0  0  0  0  0
   -2.5706    2.0291   -0.6679 N   0  0  0  0  0  0  0  0  0  0  0  0
   -3.4894    2.6565   -0.8547 N   0  0  0  0  0  0  0  0  0  0  0  0
   -0.2492    1.9208   -0.1218 C   0  0  0  0  0  0  0  0  0  0  0  0
    0.8528    1.1390    0.1071 C   0  0  0  0  0  0  0  0  0  0  0  0
    0.7584   -0.2797    0.0191 C   0  0  0  0  0  0  0  0  0  0  0  0
    1.8809   -0.9483    0.2663 O   0  0  0  0  0  0  0  0  0  0  0  0
    1.8546   -2.3920    0.2023 C   0  0  0  0  0  0  0  0  0  0  0  0
   -0.4634   -0.9032   -0.3002 C   0  0  0  0  0  0  0  0  0  0  0  0
   -1.5866   -0.1428   -0.5266 C   0  0  0  0  0  0  0  0  0  0  0  0
   -0.2024    3.0021   -0.0553 H   0  0  0  0  0  0  0  0  0  0  0  0
    1.8093    1.5819    0.3612 H   0  0  0  0  0  0  0  0  0  0  0  0
    2.8510   -2.7074    0.5077 H   0  0  0  0  0  0  0  0  0  0  0  0
    1.6466   -2.7231   -0.8184 H   0  0  0  0  0  0  0  0  0  0  0  0
    1.0963   -2.7993    0.8752 H   0  0  0  0  0  0  0  0  0  0  0  0
   -0.6499   -1.9906   -0.3269 H   0  0  0  0  0  0  0  0  0  0  0  0
   -2.5178   -0.6666   -0.7345 H   0  0  0  0  0  0  0  0  0  0  0  0
   -2.2970   -3.3992   -0.1993 Cl  0  0  0  0  0  0  0  0  0  0  0  0
  1  4  1  0  0  0  0
  2  1  1  0  0  0  0
  3  2  1  0  0  0  0
  4 11  1  0  0  0  0
  4  5  2  0  0  0  0
  5 12  1  0  0  0  0
  6  5  1  0  0  0  0
  6  7  1  0  0  0  0
  8  7  1  0  0  0  0
  8 13  1  0  0  0  0
  8 15  1  0  0  0  0
  9  6  2  0  0  0  0
 10  1  2  0  0  0  0
 10  9  1  0  0  0  0
 14  8  1  0  0  0  0
 16  9  1  0  0  0  0
 17 10  1  0  0  0  0
M  RAD  3   2   2   3   3  18   2
M  END
