Coordinates from ORCA-job 4-MeOPhN2+~Cl-_B3LYPG-6-31G_dp-NX-Scan-d89-09-n800
 OpenBabel11261920533D

 18 18  0  0  1  0  0  0  0  0999 V2000
   -1.5587    1.0591   -0.4881 C   0  0  0  0  0  0  0  0  0  0  0  0
   -2.6105    1.7746   -0.8398 N   0  0  0  0  0  0  0  0  0  0  0  0
   -3.5223    2.3754   -1.1582 N   0  0  0  0  0  0  0  0  0  0  0  0
   -0.4351    1.7096    0.1279 C   0  0  0  0  0  0  0  0  0  0  0  0
    0.6706    0.9778    0.4106 C   0  0  0  0  0  0  0  0  0  0  0  0
    0.7178   -0.4249    0.0627 C   0  0  0  0  0  0  0  0  0  0  0  0
    1.9267   -0.9863    0.3010 O   0  0  0  0  0  0  0  0  0  0  0  0
    2.0844   -2.3784    0.0476 C   0  0  0  0  0  0  0  0  0  0  0  0
   -0.3593   -1.0700   -0.4802 C   0  0  0  0  0  0  0  0  0  0  0  0
   -1.6385   -0.3999   -0.6180 C   0  0  1  0  0  0  0  0  0  0  0  0
   -0.4903    2.7701    0.3482 H   0  0  0  0  0  0  0  0  0  0  0  0
    1.5460    1.4186    0.8727 H   0  0  0  0  0  0  0  0  0  0  0  0
    3.1031   -2.6243    0.3483 H   0  0  0  0  0  0  0  0  0  0  0  0
    1.9533   -2.6056   -1.0175 H   0  0  0  0  0  0  0  0  0  0  0  0
    1.3732   -2.9701    0.6348 H   0  0  0  0  0  0  0  0  0  0  0  0
   -0.3222   -2.1183   -0.7432 H   0  0  0  0  0  0  0  0  0  0  0  0
   -2.2762   -0.7581   -1.4188 H   0  0  0  0  0  0  0  0  0  0  0  0
   -2.9165   -1.1003    0.8989 Cl  0  0  0  0  0  0  0  0  0  0  0  0
  1  4  2  0  0  0  0
  2  1  1  0  0  0  0
  3  2  1  0  0  0  0
  4 11  1  0  0  0  0
  4  5  1  0  0  0  0
  5 12  1  0  0  0  0
  6  7  1  0  0  0  0
  6  5  1  0  0  0  0
  8  7  1  0  0  0  0
  8 13  1  0  0  0  0
  8 15  1  0  0  0  0
  9  6  2  0  0  0  0
 10 17  1  6  0  0  0
 10  1  1  0  0  0  0
 10  9  1  0  0  0  0
 10 18  1  0  0  0  0
 14  8  1  0  0  0  0
 16  9  1  0  0  0  0
M  RAD  3   2   2   3   3   5   2
M  END
