Coordinates from ORCA-job 4-MeOPhN2+~Cl-_B3LYPG-6-31G_dp-NX-Scan-d89-09-n800
 OpenBabel11261920533D

 18 17  0  0  0  0  0  0  0  0999 V2000
   -1.4358    1.0494   -0.2415 C   0  0  0  0  0  0  0  0  0  0  0  0
   -2.6268    1.7419   -0.3732 N   0  0  0  0  0  0  0  0  0  0  0  0
   -3.7424    1.8631   -0.5451 N   0  0  0  0  0  0  0  0  0  0  0  0
   -0.2477    1.7598    0.0161 C   0  0  0  0  0  0  0  0  0  0  0  0
    0.9233    1.0456    0.1422 C   0  0  0  0  0  0  0  0  0  0  0  0
    0.9124   -0.3638    0.0137 C   0  0  0  0  0  0  0  0  0  0  0  0
    2.1092   -0.9563    0.1574 O   0  0  0  0  0  0  0  0  0  0  0  0
    2.2024   -2.3797    0.0560 C   0  0  0  0  0  0  0  0  0  0  0  0
   -0.2899   -1.0495   -0.2447 C   0  0  0  0  0  0  0  0  0  0  0  0
   -1.4798   -0.3489   -0.3752 C   0  0  0  0  0  0  0  0  0  0  0  0
   -0.2635    2.8401    0.1126 H   0  0  0  0  0  0  0  0  0  0  0  0
    1.8678    1.5382    0.3418 H   0  0  0  0  0  0  0  0  0  0  0  0
    3.2535   -2.6163    0.2174 H   0  0  0  0  0  0  0  0  0  0  0  0
    1.8965   -2.7258   -0.9372 H   0  0  0  0  0  0  0  0  0  0  0  0
    1.5938   -2.8704    0.8229 H   0  0  0  0  0  0  0  0  0  0  0  0
   -0.3074   -2.1276   -0.3462 H   0  0  0  0  0  0  0  0  0  0  0  0
   -2.4469   -0.8309   -0.5761 H   0  0  0  0  0  0  0  0  0  0  0  0
   -4.6732   -0.9199   -0.9518 Cl  0  0  0  0  0  0  0  0  0  0  0  0
  1  4  2  0  0  0  0
  2  1  1  0  0  0  0
  3  2  1  0  0  0  0
  4 11  1  0  0  0  0
  4  5  1  0  0  0  0
  5 12  1  0  0  0  0
  6  5  2  0  0  0  0
  6  7  1  0  0  0  0
  8  7  1  0  0  0  0
  8 13  1  0  0  0  0
  8 15  1  0  0  0  0
  9  6  1  0  0  0  0
 10  9  2  0  0  0  0
 10  1  1  0  0  0  0
 14  8  1  0  0  0  0
 16  9  1  0  0  0  0
 17 10  1  0  0  0  0
M  RAD  3   2   2   3   3  18   2
M  END
