Coordinates from ORCA-job 4-MeOPhN2+~Cl-_B3LYPG-6-31G_dp-NX-Scan-d89-09-n800
 OpenBabel11261920533D

 18 17  0  0  0  0  0  0  0  0999 V2000
   -1.4913   -0.0126   -0.0417 C   0  0  0  0  0  0  0  0  0  0  0  0
   -2.8528   -0.0371    0.0537 N   0  0  0  0  0  0  0  0  0  0  0  0
   -3.9685   -0.0533    0.1322 N   0  0  0  0  0  0  0  0  0  0  0  0
   -0.8283    1.2395   -0.0004 C   0  0  0  0  0  0  0  0  0  0  0  0
    0.5403    1.2454   -0.0972 C   0  0  0  0  0  0  0  0  0  0  0  0
    1.2595    0.0282   -0.2342 C   0  0  0  0  0  0  0  0  0  0  0  0
    2.5754    0.1577   -0.3175 O   0  0  0  0  0  0  0  0  0  0  0  0
    3.4209   -1.0004   -0.4572 C   0  0  0  0  0  0  0  0  0  0  0  0
    0.5725   -1.2110   -0.2732 C   0  0  0  0  0  0  0  0  0  0  0  0
   -0.8024   -1.2374   -0.1774 C   0  0  0  0  0  0  0  0  0  0  0  0
   -1.3936    2.1604    0.1053 H   0  0  0  0  0  0  0  0  0  0  0  0
    1.0995    2.1745   -0.0709 H   0  0  0  0  0  0  0  0  0  0  0  0
    4.4358   -0.6093   -0.4966 H   0  0  0  0  0  0  0  0  0  0  0  0
    3.1925   -1.5340   -1.3845 H   0  0  0  0  0  0  0  0  0  0  0  0
    3.3107   -1.6631    0.4063 H   0  0  0  0  0  0  0  0  0  0  0  0
    1.1122   -2.1447   -0.3780 H   0  0  0  0  0  0  0  0  0  0  0  0
   -1.3487   -2.1760   -0.2052 H   0  0  0  0  0  0  0  0  0  0  0  0
  -11.5884   -0.6778    0.7258 Cl  0  0  0  0  0  0  0  0  0  0  0  0
  1  4  1  0  0  0  0
  1  2  1  0  0  0  0
  2  3  1  0  0  0  0
  4 11  1  0  0  0  0
  5 12  1  0  0  0  0
  5  4  2  0  0  0  0
  6  5  1  0  0  0  0
  7  6  1  0  0  0  0
  8  7  1  0  0  0  0
  8 15  1  0  0  0  0
  9  6  2  0  0  0  0
  9 10  1  0  0  0  0
 10  1  2  0  0  0  0
 13  8  1  0  0  0  0
 14  8  1  0  0  0  0
 16  9  1  0  0  0  0
 17 10  1  0  0  0  0
M  RAD  3   2   2   3   3  18   2
M  END
