Coordinates from ORCA-job 4-MeOPhN2+~Cl-_B3LYPG-6-31G_dp-NX-Scan-d89-09-n800
 OpenBabel11261920533D

 18 18  0  0  0  0  0  0  0  0999 V2000
   -1.5018    0.9662   -0.2650 C   0  0  0  0  0  0  0  0  0  0  0  0
   -2.6624    1.7366   -0.3863 N   0  0  0  0  0  0  0  0  0  0  0  0
   -3.8228    1.6660   -0.5755 N   0  0  0  0  0  0  0  0  0  0  0  0
   -0.3205    1.6871   -0.0031 C   0  0  0  0  0  0  0  0  0  0  0  0
    0.8798    1.0194    0.1353 C   0  0  0  0  0  0  0  0  0  0  0  0
    0.9200   -0.3835    0.0131 C   0  0  0  0  0  0  0  0  0  0  0  0
    2.1384   -0.9450    0.1668 O   0  0  0  0  0  0  0  0  0  0  0  0
    2.2643   -2.3617    0.0706 C   0  0  0  0  0  0  0  0  0  0  0  0
   -0.2598   -1.1007   -0.2511 C   0  0  0  0  0  0  0  0  0  0  0  0
   -1.4707   -0.4324   -0.3903 C   0  0  0  0  0  0  0  0  0  0  0  0
   -0.3734    2.7668    0.0889 H   0  0  0  0  0  0  0  0  0  0  0  0
    1.8035    1.5493    0.3391 H   0  0  0  0  0  0  0  0  0  0  0  0
    3.3195   -2.5771    0.2383 H   0  0  0  0  0  0  0  0  0  0  0  0
    1.9726   -2.7220   -0.9228 H   0  0  0  0  0  0  0  0  0  0  0  0
    1.6634   -2.8682    0.8346 H   0  0  0  0  0  0  0  0  0  0  0  0
   -0.2439   -2.1790   -0.3509 H   0  0  0  0  0  0  0  0  0  0  0  0
   -2.3864   -0.9720   -0.5934 H   0  0  0  0  0  0  0  0  0  0  0  0
   -4.6745   -0.2008   -0.8591 Cl  0  0  0  0  0  0  0  0  0  0  0  0
  1  4  1  0  0  0  0
  2  1  1  0  0  0  0
  3  2  2  0  0  0  0
  4 11  1  0  0  0  0
  4  5  2  0  0  0  0
  5 12  1  0  0  0  0
  6  5  1  0  0  0  0
  6  7  1  0  0  0  0
  8  7  1  0  0  0  0
  8 13  1  0  0  0  0
  8 15  1  0  0  0  0
  9  6  2  0  0  0  0
 10  1  2  0  0  0  0
 10  9  1  0  0  0  0
 14  8  1  0  0  0  0
 16  9  1  0  0  0  0
 17 10  1  0  0  0  0
 18  3  1  0  0  0  0
M  END
