Coordinates from ORCA-job 4-MeOPhN2+~Cl-_B3LYPG-6-31G_dp-NX-Scan-d89-09-n800
 OpenBabel11261920533D

 18 18  0  0  1  0  0  0  0  0999 V2000
   -1.5817    1.0478   -0.4664 C   0  0  0  0  0  0  0  0  0  0  0  0
   -2.5759    1.7913   -0.9199 N   0  0  0  0  0  0  0  0  0  0  0  0
   -3.4020    2.4569   -1.3336 N   0  0  0  0  0  0  0  0  0  0  0  0
   -0.4617    1.7002    0.1598 C   0  0  0  0  0  0  0  0  0  0  0  0
    0.6459    0.9707    0.4393 C   0  0  0  0  0  0  0  0  0  0  0  0
    0.7050   -0.4259    0.0703 C   0  0  0  0  0  0  0  0  0  0  0  0
    1.9201   -0.9801    0.2932 O   0  0  0  0  0  0  0  0  0  0  0  0
    2.0878   -2.3670    0.0177 C   0  0  0  0  0  0  0  0  0  0  0  0
   -0.3721   -1.0722   -0.4715 C   0  0  0  0  0  0  0  0  0  0  0  0
   -1.6578   -0.4113   -0.5778 C   0  0  1  0  0  0  0  0  0  0  0  0
   -0.5194    2.7602    0.3822 H   0  0  0  0  0  0  0  0  0  0  0  0
    1.5172    1.4116    0.9092 H   0  0  0  0  0  0  0  0  0  0  0  0
    3.1114   -2.6080    0.3056 H   0  0  0  0  0  0  0  0  0  0  0  0
    1.9490   -2.5793   -1.0495 H   0  0  0  0  0  0  0  0  0  0  0  0
    1.3874   -2.9735    0.6026 H   0  0  0  0  0  0  0  0  0  0  0  0
   -0.3337   -2.1198   -0.7368 H   0  0  0  0  0  0  0  0  0  0  0  0
   -2.3255   -0.7826   -1.3470 H   0  0  0  0  0  0  0  0  0  0  0  0
   -2.8487   -1.1699    1.0117 Cl  0  0  0  0  0  0  0  0  0  0  0  0
  1  4  2  0  0  0  0
  2  1  1  0  0  0  0
  3  2  1  0  0  0  0
  4 11  1  0  0  0  0
  4  5  1  0  0  0  0
  5 12  1  0  0  0  0
  6  7  1  0  0  0  0
  6  5  1  0  0  0  0
  8  7  1  0  0  0  0
  8 13  1  0  0  0  0
  8 15  1  0  0  0  0
  9  6  2  0  0  0  0
 10 17  1  6  0  0  0
 10  9  1  0  0  0  0
 10  1  1  0  0  0  0
 10 18  1  0  0  0  0
 14  8  1  0  0  0  0
 16  9  1  0  0  0  0
M  RAD  3   2   2   3   3   5   2
M  END
