Coordinates from ORCA-job 4-MeOPhN2+~Cl-_B3LYPG-6-31G_dp-NX-Scan-d89-09-n800
 OpenBabel11261920533D

 18 17  0  0  0  0  0  0  0  0999 V2000
   -1.4865    1.3690   -0.4932 C   0  0  0  0  0  0  0  0  0  0  0  0
   -2.5351    2.1719   -0.7371 N   0  0  0  0  0  0  0  0  0  0  0  0
   -3.4322    2.8232   -0.9600 N   0  0  0  0  0  0  0  0  0  0  0  0
   -0.2474    1.9510   -0.0973 C   0  0  0  0  0  0  0  0  0  0  0  0
    0.8051    1.1155    0.1593 C   0  0  0  0  0  0  0  0  0  0  0  0
    0.6570   -0.2995    0.0378 C   0  0  0  0  0  0  0  0  0  0  0  0
    1.7376   -0.9969    0.3233 O   0  0  0  0  0  0  0  0  0  0  0  0
    1.7462   -2.4416    0.1552 C   0  0  0  0  0  0  0  0  0  0  0  0
   -0.5818   -0.8697   -0.3600 C   0  0  0  0  0  0  0  0  0  0  0  0
   -1.6456   -0.0423   -0.6201 C   0  0  0  0  0  0  0  0  0  0  0  0
   -0.1547    3.0274   -0.0041 H   0  0  0  0  0  0  0  0  0  0  0  0
    1.7686    1.5063    0.4660 H   0  0  0  0  0  0  0  0  0  0  0  0
    2.6936   -2.7627    0.5849 H   0  0  0  0  0  0  0  0  0  0  0  0
    1.7118   -2.6744   -0.9120 H   0  0  0  0  0  0  0  0  0  0  0  0
    0.8837   -2.9151    0.6449 H   0  0  0  0  0  0  0  0  0  0  0  0
   -0.7570   -1.9668   -0.3619 H   0  0  0  0  0  0  0  0  0  0  0  0
   -2.6054   -0.4627   -0.9020 H   0  0  0  0  0  0  0  0  0  0  0  0
   -1.3125   -3.8839    0.3654 Cl  0  0  0  0  0  0  0  0  0  0  0  0
  1  4  1  0  0  0  0
  2  1  1  0  0  0  0
  3  2  1  0  0  0  0
  4 11  1  0  0  0  0
  4  5  2  0  0  0  0
  5 12  1  0  0  0  0
  6  5  1  0  0  0  0
  6  7  1  0  0  0  0
  8  7  1  0  0  0  0
  8 13  1  0  0  0  0
  8 15  1  0  0  0  0
  9  6  2  0  0  0  0
 10  1  2  0  0  0  0
 10  9  1  0  0  0  0
 14  8  1  0  0  0  0
 16  9  1  0  0  0  0
 17 10  1  0  0  0  0
M  RAD  3   2   2   3   3  18   2
M  END
