Coordinates from ORCA-job 4-MeOPhN2+~Cl-_B3LYPG-6-31G_dp-NX-Scan-d89-09-n800
 OpenBabel11261920533D

 18 17  0  0  0  0  0  0  0  0999 V2000
   -1.4847    1.1861   -0.4761 C   0  0  0  0  0  0  0  0  0  0  0  0
   -2.5837    1.9232   -0.7326 N   0  0  0  0  0  0  0  0  0  0  0  0
   -3.4958    2.5548   -0.9354 N   0  0  0  0  0  0  0  0  0  0  0  0
   -0.2976    1.8629   -0.0574 C   0  0  0  0  0  0  0  0  0  0  0  0
    0.8209    1.1107    0.1733 C   0  0  0  0  0  0  0  0  0  0  0  0
    0.7869   -0.3059    0.0077 C   0  0  0  0  0  0  0  0  0  0  0  0
    1.9406   -0.9306    0.2670 O   0  0  0  0  0  0  0  0  0  0  0  0
    1.9855   -2.3638    0.1840 C   0  0  0  0  0  0  0  0  0  0  0  0
   -0.3941   -0.9518   -0.3828 C   0  0  0  0  0  0  0  0  0  0  0  0
   -1.5437   -0.2226   -0.6363 C   0  0  0  0  0  0  0  0  0  0  0  0
   -0.2991    2.9382    0.0824 H   0  0  0  0  0  0  0  0  0  0  0  0
    1.7480    1.5689    0.4989 H   0  0  0  0  0  0  0  0  0  0  0  0
    3.0022   -2.6379    0.4622 H   0  0  0  0  0  0  0  0  0  0  0  0
    1.7743   -2.7008   -0.8357 H   0  0  0  0  0  0  0  0  0  0  0  0
    1.2707   -2.8165    0.8772 H   0  0  0  0  0  0  0  0  0  0  0  0
   -0.5033   -2.0299   -0.4374 H   0  0  0  0  0  0  0  0  0  0  0  0
   -2.4535   -0.7774   -0.8803 H   0  0  0  0  0  0  0  0  0  0  0  0
   -3.0282   -2.7587    0.1104 Cl  0  0  0  0  0  0  0  0  0  0  0  0
  1  4  1  0  0  0  0
  2  1  1  0  0  0  0
  3  2  1  0  0  0  0
  4 11  1  0  0  0  0
  4  5  2  0  0  0  0
  5 12  1  0  0  0  0
  6  5  1  0  0  0  0
  6  7  1  0  0  0  0
  8  7  1  0  0  0  0
  8 13  1  0  0  0  0
  8 15  1  0  0  0  0
  9  6  2  0  0  0  0
 10  1  2  0  0  0  0
 10  9  1  0  0  0  0
 14  8  1  0  0  0  0
 16  9  1  0  0  0  0
 17 10  1  0  0  0  0
M  RAD  3   2   2   3   3  18   2
M  END
