Coordinates from ORCA-job 4-MeOPhN2+~Cl-_B3LYPG-6-31G_dp-NX-Scan-d89-09-n800
 OpenBabel11261920533D

 18 17  0  0  0  0  0  0  0  0999 V2000
   -1.4739    1.2844   -0.4534 C   0  0  0  0  0  0  0  0  0  0  0  0
   -2.5688    2.0391   -0.6669 N   0  0  0  0  0  0  0  0  0  0  0  0
   -3.5007    2.6485   -0.8478 N   0  0  0  0  0  0  0  0  0  0  0  0
   -0.2459    1.9268   -0.1151 C   0  0  0  0  0  0  0  0  0  0  0  0
    0.8524    1.1393    0.1139 C   0  0  0  0  0  0  0  0  0  0  0  0
    0.7542   -0.2783    0.0100 C   0  0  0  0  0  0  0  0  0  0  0  0
    1.8675   -0.9554    0.2693 O   0  0  0  0  0  0  0  0  0  0  0  0
    1.8330   -2.4001    0.1929 C   0  0  0  0  0  0  0  0  0  0  0  0
   -0.4652   -0.8951   -0.3334 C   0  0  0  0  0  0  0  0  0  0  0  0
   -1.5837   -0.1289   -0.5552 C   0  0  0  0  0  0  0  0  0  0  0  0
   -0.1972    3.0070   -0.0346 H   0  0  0  0  0  0  0  0  0  0  0  0
    1.8074    1.5765    0.3827 H   0  0  0  0  0  0  0  0  0  0  0  0
    2.8113   -2.7250    0.5436 H   0  0  0  0  0  0  0  0  0  0  0  0
    1.6742   -2.7185   -0.8406 H   0  0  0  0  0  0  0  0  0  0  0  0
    1.0375   -2.8082    0.8212 H   0  0  0  0  0  0  0  0  0  0  0  0
   -0.6544   -1.9845   -0.3578 H   0  0  0  0  0  0  0  0  0  0  0  0
   -2.5194   -0.6396   -0.7692 H   0  0  0  0  0  0  0  0  0  0  0  0
   -2.1829   -3.4388   -0.0704 Cl  0  0  0  0  0  0  0  0  0  0  0  0
  1  4  1  0  0  0  0
  2  1  1  0  0  0  0
  3  2  1  0  0  0  0
  4 11  1  0  0  0  0
  4  5  2  0  0  0  0
  5 12  1  0  0  0  0
  6  5  1  0  0  0  0
  6  7  1  0  0  0  0
  8  7  1  0  0  0  0
  8 13  1  0  0  0  0
  8 15  1  0  0  0  0
  9  6  2  0  0  0  0
 10  1  2  0  0  0  0
 10  9  1  0  0  0  0
 14  8  1  0  0  0  0
 16  9  1  0  0  0  0
 17 10  1  0  0  0  0
M  RAD  3   2   2   3   3  18   2
M  END
