Coordinates from ORCA-job 4-MeOPhN2+~Cl-_B3LYPG-6-31G_dp-NX-Scan-d89-09-n800
 OpenBabel11261920533D

 18 17  0  0  0  0  0  0  0  0999 V2000
   -1.4897    1.3698   -0.4927 C   0  0  0  0  0  0  0  0  0  0  0  0
   -2.5322    2.1788   -0.7439 N   0  0  0  0  0  0  0  0  0  0  0  0
   -3.4197    2.8414   -0.9716 N   0  0  0  0  0  0  0  0  0  0  0  0
   -0.2497    1.9505   -0.0968 C   0  0  0  0  0  0  0  0  0  0  0  0
    0.8014    1.1144    0.1620 C   0  0  0  0  0  0  0  0  0  0  0  0
    0.6520   -0.3005    0.0412 C   0  0  0  0  0  0  0  0  0  0  0  0
    1.7335   -0.9974    0.3241 O   0  0  0  0  0  0  0  0  0  0  0  0
    1.7472   -2.4414    0.1526 C   0  0  0  0  0  0  0  0  0  0  0  0
   -0.5883   -0.8703   -0.3537 C   0  0  0  0  0  0  0  0  0  0  0  0
   -1.6512   -0.0418   -0.6154 C   0  0  0  0  0  0  0  0  0  0  0  0
   -0.1555    3.0271   -0.0061 H   0  0  0  0  0  0  0  0  0  0  0  0
    1.7654    1.5043    0.4683 H   0  0  0  0  0  0  0  0  0  0  0  0
    2.6977   -2.7589    0.5784 H   0  0  0  0  0  0  0  0  0  0  0  0
    1.7105   -2.6721   -0.9149 H   0  0  0  0  0  0  0  0  0  0  0  0
    0.8891   -2.9215    0.6439 H   0  0  0  0  0  0  0  0  0  0  0  0
   -0.7582   -1.9677   -0.3551 H   0  0  0  0  0  0  0  0  0  0  0  0
   -2.6114   -0.4611   -0.8974 H   0  0  0  0  0  0  0  0  0  0  0  0
   -1.2955   -3.9045    0.3662 Cl  0  0  0  0  0  0  0  0  0  0  0  0
  1  4  1  0  0  0  0
  2  1  1  0  0  0  0
  3  2  1  0  0  0  0
  4 11  1  0  0  0  0
  4  5  2  0  0  0  0
  5 12  1  0  0  0  0
  6  5  1  0  0  0  0
  6  7  1  0  0  0  0
  8  7  1  0  0  0  0
  8 13  1  0  0  0  0
  8 15  1  0  0  0  0
  9  6  2  0  0  0  0
 10  1  2  0  0  0  0
 10  9  1  0  0  0  0
 14  8  1  0  0  0  0
 16  9  1  0  0  0  0
 17 10  1  0  0  0  0
M  RAD  3   2   2   3   3  18   2
M  END
