Coordinates from ORCA-job 4-MeOPhN2+~Cl-_B3LYPG-6-31G_dp-NX-Scan-d89-09-n800
 OpenBabel11261920533D

 18 18  0  0  1  0  0  0  0  0999 V2000
   -1.5928    1.0435   -0.4565 C   0  0  0  0  0  0  0  0  0  0  0  0
   -2.5572    1.7997   -0.9564 N   0  0  0  0  0  0  0  0  0  0  0  0
   -3.3383    2.4931   -1.4112 N   0  0  0  0  0  0  0  0  0  0  0  0
   -0.4743    1.6971    0.1739 C   0  0  0  0  0  0  0  0  0  0  0  0
    0.6351    0.9689    0.4500 C   0  0  0  0  0  0  0  0  0  0  0  0
    0.6995   -0.4242    0.0714 C   0  0  0  0  0  0  0  0  0  0  0  0
    1.9162   -0.9761    0.2884 O   0  0  0  0  0  0  0  0  0  0  0  0
    2.0873   -2.3614    0.0053 C   0  0  0  0  0  0  0  0  0  0  0  0
   -0.3782   -1.0708   -0.4706 C   0  0  0  0  0  0  0  0  0  0  0  0
   -1.6639   -0.4139   -0.5650 C   0  0  1  0  0  0  0  0  0  0  0  0
   -0.5337    2.7564    0.3986 H   0  0  0  0  0  0  0  0  0  0  0  0
    1.5045    1.4099    0.9235 H   0  0  0  0  0  0  0  0  0  0  0  0
    3.1124   -2.6005    0.2890 H   0  0  0  0  0  0  0  0  0  0  0  0
    1.9459   -2.5685   -1.0624 H   0  0  0  0  0  0  0  0  0  0  0  0
    1.3906   -2.9727    0.5896 H   0  0  0  0  0  0  0  0  0  0  0  0
   -0.3397   -2.1186   -0.7353 H   0  0  0  0  0  0  0  0  0  0  0  0
   -2.3508   -0.7940   -1.3119 H   0  0  0  0  0  0  0  0  0  0  0  0
   -2.8172   -1.2187    1.0689 Cl  0  0  0  0  0  0  0  0  0  0  0  0
  1  4  2  0  0  0  0
  2  1  1  0  0  0  0
  3  2  1  0  0  0  0
  4 11  1  0  0  0  0
  4  5  1  0  0  0  0
  5 12  1  0  0  0  0
  6  7  1  0  0  0  0
  6  5  1  0  0  0  0
  8  7  1  0  0  0  0
  8 13  1  0  0  0  0
  8 15  1  0  0  0  0
  9  6  2  0  0  0  0
 10 17  1  6  0  0  0
 10  9  1  0  0  0  0
 10  1  1  0  0  0  0
 10 18  1  0  0  0  0
 14  8  1  0  0  0  0
 16  9  1  0  0  0  0
M  RAD  3   2   2   3   3   5   2
M  END
