Coordinates from ORCA-job 4-MeOPhN2+~Cl-_B3LYPG-6-31G_dp-NX-Scan-d89-09-n800
 OpenBabel11261920533D

 18 17  0  0  0  0  0  0  0  0999 V2000
   -1.4621    1.3278   -0.5010 C   0  0  0  0  0  0  0  0  0  0  0  0
   -2.5733    2.0696   -0.6402 N   0  0  0  0  0  0  0  0  0  0  0  0
   -3.5489    2.6215   -0.7750 N   0  0  0  0  0  0  0  0  0  0  0  0
   -0.2426    1.9376   -0.0882 C   0  0  0  0  0  0  0  0  0  0  0  0
    0.8401    1.1266    0.1307 C   0  0  0  0  0  0  0  0  0  0  0  0
    0.7285   -0.2860   -0.0353 C   0  0  0  0  0  0  0  0  0  0  0  0
    1.8014   -0.9889    0.2838 O   0  0  0  0  0  0  0  0  0  0  0  0
    1.7543   -2.4381    0.1827 C   0  0  0  0  0  0  0  0  0  0  0  0
   -0.4757   -0.8686   -0.4943 C   0  0  0  0  0  0  0  0  0  0  0  0
   -1.5720   -0.0746   -0.7097 C   0  0  0  0  0  0  0  0  0  0  0  0
   -0.1895    3.0102    0.0613 H   0  0  0  0  0  0  0  0  0  0  0  0
    1.7877    1.5357    0.4622 H   0  0  0  0  0  0  0  0  0  0  0  0
    2.6704   -2.7801    0.6615 H   0  0  0  0  0  0  0  0  0  0  0  0
    1.7479   -2.7272   -0.8716 H   0  0  0  0  0  0  0  0  0  0  0  0
    0.8609   -2.8411    0.6754 H   0  0  0  0  0  0  0  0  0  0  0  0
   -0.6519   -1.9587   -0.5203 H   0  0  0  0  0  0  0  0  0  0  0  0
   -2.5177   -0.5285   -0.9865 H   0  0  0  0  0  0  0  0  0  0  0  0
   -1.7120   -3.4881    0.4537 Cl  0  0  0  0  0  0  0  0  0  0  0  0
  1  4  1  0  0  0  0
  2  1  1  0  0  0  0
  3  2  1  0  0  0  0
  4 11  1  0  0  0  0
  4  5  2  0  0  0  0
  5 12  1  0  0  0  0
  6  5  1  0  0  0  0
  6  7  1  0  0  0  0
  8  7  1  0  0  0  0
  8 13  1  0  0  0  0
  8 15  1  0  0  0  0
  9  6  2  0  0  0  0
 10  1  2  0  0  0  0
 10  9  1  0  0  0  0
 14  8  1  0  0  0  0
 16  9  1  0  0  0  0
 17 10  1  0  0  0  0
M  RAD  3   2   2   3   3  18   2
M  END
