Coordinates from ORCA-job 4-MeOPhN2+~Cl-_B3LYPG-6-31G_dp-NX-Scan-d89-09-n800
 OpenBabel11261920533D

 18 18  0  0  1  0  0  0  0  0999 V2000
   -1.5009    1.0927   -0.5396 C   0  0  0  0  0  0  0  0  0  0  0  0
   -2.6563    1.7235   -0.6688 N   0  0  0  0  0  0  0  0  0  0  0  0
   -3.7255    2.0914   -0.7366 N   0  0  0  0  0  0  0  0  0  0  0  0
   -0.3730    1.7405    0.0553 C   0  0  0  0  0  0  0  0  0  0  0  0
    0.7308    1.0018    0.3397 C   0  0  0  0  0  0  0  0  0  0  0  0
    0.7499   -0.4088    0.0355 C   0  0  0  0  0  0  0  0  0  0  0  0
    1.9352   -0.9946    0.3159 O   0  0  0  0  0  0  0  0  0  0  0  0
    2.0624   -2.3997    0.1166 C   0  0  0  0  0  0  0  0  0  0  0  0
   -0.3314   -1.0472   -0.5213 C   0  0  0  0  0  0  0  0  0  0  0  0
   -1.5711   -0.3521   -0.7395 C   0  0  1  0  0  0  0  0  0  0  0  0
   -0.4251    2.7998    0.2819 H   0  0  0  0  0  0  0  0  0  0  0  0
    1.6130    1.4392    0.7913 H   0  0  0  0  0  0  0  0  0  0  0  0
    3.0647   -2.6598    0.4573 H   0  0  0  0  0  0  0  0  0  0  0  0
    1.9579   -2.6610   -0.9431 H   0  0  0  0  0  0  0  0  0  0  0  0
    1.3181   -2.9503    0.7022 H   0  0  0  0  0  0  0  0  0  0  0  0
   -0.2990   -2.0974   -0.7774 H   0  0  0  0  0  0  0  0  0  0  0  0
   -2.1902   -0.7026   -1.5560 H   0  0  0  0  0  0  0  0  0  0  0  0
   -3.1140   -0.9663    0.6757 Cl  0  0  0  0  0  0  0  0  0  0  0  0
  1  4  2  0  0  0  0
  2  1  1  0  0  0  0
  3  2  1  0  0  0  0
  4 11  1  0  0  0  0
  4  5  1  0  0  0  0
  5 12  1  0  0  0  0
  6  7  1  0  0  0  0
  6  5  1  0  0  0  0
  8  7  1  0  0  0  0
  8 13  1  0  0  0  0
  8 15  1  0  0  0  0
  9  6  2  0  0  0  0
 10 17  1  6  0  0  0
 10  1  1  0  0  0  0
 10  9  1  0  0  0  0
 10 18  1  0  0  0  0
 14  8  1  0  0  0  0
 16  9  1  0  0  0  0
M  RAD  3   2   2   3   3   5   2
M  END
