Coordinates from ORCA-job 4-MeOPhN2+~Cl-_B3LYPG-6-31G_dp-NX-Scan-d89-09-n800
 OpenBabel11261920533D

 18 17  0  0  0  0  0  0  0  0999 V2000
   -1.4669    1.3408   -0.4978 C   0  0  0  0  0  0  0  0  0  0  0  0
   -2.5637    2.0980   -0.6630 N   0  0  0  0  0  0  0  0  0  0  0  0
   -3.5251    2.6688   -0.8217 N   0  0  0  0  0  0  0  0  0  0  0  0
   -0.2414    1.9434   -0.0925 C   0  0  0  0  0  0  0  0  0  0  0  0
    0.8337    1.1257    0.1355 C   0  0  0  0  0  0  0  0  0  0  0  0
    0.7103   -0.2881   -0.0154 C   0  0  0  0  0  0  0  0  0  0  0  0
    1.7840   -0.9907    0.2956 O   0  0  0  0  0  0  0  0  0  0  0  0
    1.7496   -2.4396    0.1775 C   0  0  0  0  0  0  0  0  0  0  0  0
   -0.5037   -0.8677   -0.4569 C   0  0  0  0  0  0  0  0  0  0  0  0
   -1.5906   -0.0644   -0.6844 C   0  0  0  0  0  0  0  0  0  0  0  0
   -0.1773    3.0176    0.0406 H   0  0  0  0  0  0  0  0  0  0  0  0
    1.7864    1.5301    0.4579 H   0  0  0  0  0  0  0  0  0  0  0  0
    2.6729   -2.7775    0.6451 H   0  0  0  0  0  0  0  0  0  0  0  0
    1.7378   -2.7138   -0.8806 H   0  0  0  0  0  0  0  0  0  0  0  0
    0.8626   -2.8603    0.6681 H   0  0  0  0  0  0  0  0  0  0  0  0
   -0.6805   -1.9611   -0.4742 H   0  0  0  0  0  0  0  0  0  0  0  0
   -2.5404   -0.5083   -0.9638 H   0  0  0  0  0  0  0  0  0  0  0  0
   -1.6021   -3.6040    0.4191 Cl  0  0  0  0  0  0  0  0  0  0  0  0
  1  4  1  0  0  0  0
  2  1  1  0  0  0  0
  3  2  1  0  0  0  0
  4 11  1  0  0  0  0
  4  5  2  0  0  0  0
  5 12  1  0  0  0  0
  6  5  1  0  0  0  0
  6  7  1  0  0  0  0
  8  7  1  0  0  0  0
  8 13  1  0  0  0  0
  8 15  1  0  0  0  0
  9  6  2  0  0  0  0
 10  1  2  0  0  0  0
 10  9  1  0  0  0  0
 14  8  1  0  0  0  0
 16  9  1  0  0  0  0
 17 10  1  0  0  0  0
M  RAD  3   2   2   3   3  18   2
M  END
