Coordinates from ORCA-job 4-MeOPhN2+~Cl-_B3LYPG-6-31G_dp-NX-Scan-d89-09-n800
 OpenBabel11261920443D

 18 17  0  0  0  0  0  0  0  0999 V2000
   -1.4725   -0.0277   -0.0413 C   0  0  0  0  0  0  0  0  0  0  0  0
   -2.8344   -0.0588    0.0553 N   0  0  0  0  0  0  0  0  0  0  0  0
   -3.9500   -0.0806    0.1347 N   0  0  0  0  0  0  0  0  0  0  0  0
   -0.8153    1.2274   -0.0005 C   0  0  0  0  0  0  0  0  0  0  0  0
    0.5530    1.2396   -0.0983 C   0  0  0  0  0  0  0  0  0  0  0  0
    1.2777    0.0255   -0.2357 C   0  0  0  0  0  0  0  0  0  0  0  0
    2.5929    0.1608   -0.3199 O   0  0  0  0  0  0  0  0  0  0  0  0
    3.4436   -0.9936   -0.4600 C   0  0  0  0  0  0  0  0  0  0  0  0
    0.5963   -1.2168   -0.2744 C   0  0  0  0  0  0  0  0  0  0  0  0
   -0.7783   -1.2493   -0.1775 C   0  0  0  0  0  0  0  0  0  0  0  0
   -1.3849    2.1462    0.1056 H   0  0  0  0  0  0  0  0  0  0  0  0
    1.1080    2.1715   -0.0724 H   0  0  0  0  0  0  0  0  0  0  0  0
    4.4568   -0.5981   -0.4999 H   0  0  0  0  0  0  0  0  0  0  0  0
    3.2170   -1.5282   -1.3872 H   0  0  0  0  0  0  0  0  0  0  0  0
    3.3367   -1.6567    0.4035 H   0  0  0  0  0  0  0  0  0  0  0  0
    1.1400   -2.1486   -0.3795 H   0  0  0  0  0  0  0  0  0  0  0  0
   -1.3205   -2.1909   -0.2050 H   0  0  0  0  0  0  0  0  0  0  0  0
  -11.9207   -0.5729    0.7417 Cl  0  0  0  0  0  0  0  0  0  0  0  0
  1  4  1  0  0  0  0
  1  2  1  0  0  0  0
  2  3  1  0  0  0  0
  4 11  1  0  0  0  0
  5 12  1  0  0  0  0
  5  4  2  0  0  0  0
  6  5  1  0  0  0  0
  7  6  1  0  0  0  0
  8  7  1  0  0  0  0
  8 15  1  0  0  0  0
  9  6  2  0  0  0  0
  9 10  1  0  0  0  0
 10  1  2  0  0  0  0
 13  8  1  0  0  0  0
 14  8  1  0  0  0  0
 16  9  1  0  0  0  0
 17 10  1  0  0  0  0
M  RAD  3   2   2   3   3  18   2
M  END
