Coordinates from ORCA-job 4-MeOPhN2+~Cl-_B3LYPG-6-31G_dp-NX-Scan-d89-09-n800
 OpenBabel11261920533D

 18 18  0  0  0  0  0  0  0  0999 V2000
   -1.5197    0.9534   -0.2726 C   0  0  0  0  0  0  0  0  0  0  0  0
   -2.6643    1.7525   -0.3921 N   0  0  0  0  0  0  0  0  0  0  0  0
   -3.8387    1.6480   -0.5802 N   0  0  0  0  0  0  0  0  0  0  0  0
   -0.3363    1.6729   -0.0076 C   0  0  0  0  0  0  0  0  0  0  0  0
    0.8686    1.0142    0.1352 C   0  0  0  0  0  0  0  0  0  0  0  0
    0.9181   -0.3874    0.0133 C   0  0  0  0  0  0  0  0  0  0  0  0
    2.1399   -0.9437    0.1705 O   0  0  0  0  0  0  0  0  0  0  0  0
    2.2712   -2.3590    0.0733 C   0  0  0  0  0  0  0  0  0  0  0  0
   -0.2574   -1.1086   -0.2548 C   0  0  0  0  0  0  0  0  0  0  0  0
   -1.4722   -0.4465   -0.3970 C   0  0  0  0  0  0  0  0  0  0  0  0
   -0.3961    2.7523    0.0832 H   0  0  0  0  0  0  0  0  0  0  0  0
    1.7879    1.5508    0.3417 H   0  0  0  0  0  0  0  0  0  0  0  0
    3.3268   -2.5714    0.2436 H   0  0  0  0  0  0  0  0  0  0  0  0
    1.9836   -2.7202   -0.9212 H   0  0  0  0  0  0  0  0  0  0  0  0
    1.6703   -2.8693    0.8349 H   0  0  0  0  0  0  0  0  0  0  0  0
   -0.2360   -2.1869   -0.3555 H   0  0  0  0  0  0  0  0  0  0  0  0
   -2.3746   -1.0032   -0.6030 H   0  0  0  0  0  0  0  0  0  0  0  0
   -4.6257   -0.0989   -0.8224 Cl  0  0  0  0  0  0  0  0  0  0  0  0
  1  4  1  0  0  0  0
  2  1  1  0  0  0  0
  3  2  2  0  0  0  0
  4 11  1  0  0  0  0
  4  5  2  0  0  0  0
  5 12  1  0  0  0  0
  6  5  1  0  0  0  0
  6  7  1  0  0  0  0
  8  7  1  0  0  0  0
  8 13  1  0  0  0  0
  8 15  1  0  0  0  0
  9  6  2  0  0  0  0
 10  1  2  0  0  0  0
 10  9  1  0  0  0  0
 14  8  1  0  0  0  0
 16  9  1  0  0  0  0
 17 10  1  0  0  0  0
 18  3  1  0  0  0  0
M  END
