Coordinates from ORCA-job 4-MeOPhN2+~Cl-_B3LYPG-6-31G_dp-NX-Scan-d89-09-n800
 OpenBabel11261920533D

 18 18  0  0  1  0  0  0  0  0999 V2000
   -1.5071    1.0912   -0.5341 C   0  0  0  0  0  0  0  0  0  0  0  0
   -2.6559    1.7285   -0.6764 N   0  0  0  0  0  0  0  0  0  0  0  0
   -3.7166    2.1178   -0.7682 N   0  0  0  0  0  0  0  0  0  0  0  0
   -0.3773    1.7383    0.0604 C   0  0  0  0  0  0  0  0  0  0  0  0
    0.7258    0.9999    0.3446 C   0  0  0  0  0  0  0  0  0  0  0  0
    0.7455   -0.4116    0.0393 C   0  0  0  0  0  0  0  0  0  0  0  0
    1.9346   -0.9942    0.3143 O   0  0  0  0  0  0  0  0  0  0  0  0
    2.0645   -2.3981    0.1112 C   0  0  0  0  0  0  0  0  0  0  0  0
   -0.3356   -1.0515   -0.5115 C   0  0  0  0  0  0  0  0  0  0  0  0
   -1.5827   -0.3587   -0.7236 C   0  0  1  0  0  0  0  0  0  0  0  0
   -0.4282    2.7983    0.2843 H   0  0  0  0  0  0  0  0  0  0  0  0
    1.6089    1.4373    0.7945 H   0  0  0  0  0  0  0  0  0  0  0  0
    3.0696   -2.6566    0.4451 H   0  0  0  0  0  0  0  0  0  0  0  0
    1.9541   -2.6577   -0.9484 H   0  0  0  0  0  0  0  0  0  0  0  0
    1.3253   -2.9523    0.7000 H   0  0  0  0  0  0  0  0  0  0  0  0
   -0.3032   -2.1018   -0.7671 H   0  0  0  0  0  0  0  0  0  0  0  0
   -2.1882   -0.7032   -1.5538 H   0  0  0  0  0  0  0  0  0  0  0  0
   -3.0882   -0.9767    0.6783 Cl  0  0  0  0  0  0  0  0  0  0  0  0
  1  4  2  0  0  0  0
  2  1  1  0  0  0  0
  3  2  1  0  0  0  0
  4 11  1  0  0  0  0
  4  5  1  0  0  0  0
  5 12  1  0  0  0  0
  6  7  1  0  0  0  0
  6  5  1  0  0  0  0
  8  7  1  0  0  0  0
  8 13  1  0  0  0  0
  8 15  1  0  0  0  0
  9  6  2  0  0  0  0
 10 17  1  6  0  0  0
 10  1  1  0  0  0  0
 10  9  1  0  0  0  0
 10 18  1  0  0  0  0
 14  8  1  0  0  0  0
 16  9  1  0  0  0  0
M  RAD  3   2   2   3   3   5   2
M  END
