Coordinates from ORCA-job 4-MeOPhN2+~Cl-_B3LYPG-6-31G_dp-NX-Scan-d89-09-n800
 OpenBabel11261920533D

 18 18  0  0  1  0  0  0  0  0999 V2000
   -1.5043    1.0929   -0.5364 C   0  0  0  0  0  0  0  0  0  0  0  0
   -2.6568    1.7261   -0.6700 N   0  0  0  0  0  0  0  0  0  0  0  0
   -3.7229    2.1023   -0.7505 N   0  0  0  0  0  0  0  0  0  0  0  0
   -0.3746    1.7399    0.0574 C   0  0  0  0  0  0  0  0  0  0  0  0
    0.7285    1.0010    0.3417 C   0  0  0  0  0  0  0  0  0  0  0  0
    0.7470   -0.4105    0.0380 C   0  0  0  0  0  0  0  0  0  0  0  0
    1.9348   -0.9944    0.3150 O   0  0  0  0  0  0  0  0  0  0  0  0
    2.0632   -2.3988    0.1140 C   0  0  0  0  0  0  0  0  0  0  0  0
   -0.3344   -1.0499   -0.5140 C   0  0  0  0  0  0  0  0  0  0  0  0
   -1.5791   -0.3559   -0.7295 C   0  0  1  0  0  0  0  0  0  0  0  0
   -0.4254    2.7997    0.2820 H   0  0  0  0  0  0  0  0  0  0  0  0
    1.6117    1.4382    0.7916 H   0  0  0  0  0  0  0  0  0  0  0  0
    3.0674   -2.6580    0.4500 H   0  0  0  0  0  0  0  0  0  0  0  0
    1.9543   -2.6597   -0.9455 H   0  0  0  0  0  0  0  0  0  0  0  0
    1.3223   -2.9512    0.7023 H   0  0  0  0  0  0  0  0  0  0  0  0
   -0.3022   -2.1003   -0.7695 H   0  0  0  0  0  0  0  0  0  0  0  0
   -2.1859   -0.7011   -1.5583 H   0  0  0  0  0  0  0  0  0  0  0  0
   -3.0984   -0.9711    0.6707 Cl  0  0  0  0  0  0  0  0  0  0  0  0
  1  4  2  0  0  0  0
  2  1  1  0  0  0  0
  3  2  1  0  0  0  0
  4 11  1  0  0  0  0
  4  5  1  0  0  0  0
  5 12  1  0  0  0  0
  6  7  1  0  0  0  0
  6  5  1  0  0  0  0
  8  7  1  0  0  0  0
  8 13  1  0  0  0  0
  8 15  1  0  0  0  0
  9  6  2  0  0  0  0
 10 17  1  6  0  0  0
 10  1  1  0  0  0  0
 10  9  1  0  0  0  0
 10 18  1  0  0  0  0
 14  8  1  0  0  0  0
 16  9  1  0  0  0  0
M  RAD  3   2   2   3   3   5   2
M  END
