Coordinates from ORCA-job 4-MeOPhN2+~Cl-_B3LYPG-6-31G_dp-NX-Scan-d89-09-n800
 OpenBabel11261920533D

 18 18  0  0  1  0  0  0  0  0999 V2000
   -1.5656    1.0555   -0.4816 C   0  0  0  0  0  0  0  0  0  0  0  0
   -2.6011    1.7798   -0.8635 N   0  0  0  0  0  0  0  0  0  0  0  0
   -3.4882    2.4015   -1.2115 N   0  0  0  0  0  0  0  0  0  0  0  0
   -0.4430    1.7065    0.1375 C   0  0  0  0  0  0  0  0  0  0  0  0
    0.6631    0.9754    0.4195 C   0  0  0  0  0  0  0  0  0  0  0  0
    0.7140   -0.4256    0.0653 C   0  0  0  0  0  0  0  0  0  0  0  0
    1.9249   -0.9847    0.2988 O   0  0  0  0  0  0  0  0  0  0  0  0
    2.0858   -2.3752    0.0385 C   0  0  0  0  0  0  0  0  0  0  0  0
   -0.3630   -1.0711   -0.4772 C   0  0  0  0  0  0  0  0  0  0  0  0
   -1.6447   -0.4039   -0.6051 C   0  0  1  0  0  0  0  0  0  0  0  0
   -0.4989    2.7669    0.3582 H   0  0  0  0  0  0  0  0  0  0  0  0
    1.5373    1.4163    0.8839 H   0  0  0  0  0  0  0  0  0  0  0  0
    3.1061   -2.6195    0.3353 H   0  0  0  0  0  0  0  0  0  0  0  0
    1.9524   -2.5977   -1.0272 H   0  0  0  0  0  0  0  0  0  0  0  0
    1.3780   -2.9715    0.6251 H   0  0  0  0  0  0  0  0  0  0  0  0
   -0.3254   -2.1191   -0.7412 H   0  0  0  0  0  0  0  0  0  0  0  0
   -2.2906   -0.7655   -1.3978 H   0  0  0  0  0  0  0  0  0  0  0  0
   -2.8958   -1.1190    0.9320 Cl  0  0  0  0  0  0  0  0  0  0  0  0
  1  4  2  0  0  0  0
  2  1  1  0  0  0  0
  3  2  1  0  0  0  0
  4 11  1  0  0  0  0
  4  5  1  0  0  0  0
  5 12  1  0  0  0  0
  6  7  1  0  0  0  0
  6  5  1  0  0  0  0
  8  7  1  0  0  0  0
  8 13  1  0  0  0  0
  8 15  1  0  0  0  0
  9  6  2  0  0  0  0
 10 17  1  6  0  0  0
 10  1  1  0  0  0  0
 10  9  1  0  0  0  0
 10 18  1  0  0  0  0
 14  8  1  0  0  0  0
 16  9  1  0  0  0  0
M  RAD  3   2   2   3   3   5   2
M  END
