Coordinates from ORCA-job 4-MeOPhN2+~Cl-_B3LYPG-6-31G_dp-NX-Scan-d89-09-n800
 OpenBabel11261920533D

 18 18  0  0  1  0  0  0  0  0999 V2000
   -1.5294    1.0767   -0.5154 C   0  0  0  0  0  0  0  0  0  0  0  0
   -2.6425    1.7489   -0.7404 N   0  0  0  0  0  0  0  0  0  0  0  0
   -3.6482    2.2419   -0.9261 N   0  0  0  0  0  0  0  0  0  0  0  0
   -0.4014    1.7251    0.0871 C   0  0  0  0  0  0  0  0  0  0  0  0
    0.7026    0.9900    0.3713 C   0  0  0  0  0  0  0  0  0  0  0  0
    0.7339   -0.4190    0.0497 C   0  0  0  0  0  0  0  0  0  0  0  0
    1.9323   -0.9917    0.3092 O   0  0  0  0  0  0  0  0  0  0  0  0
    2.0746   -2.3908    0.0859 C   0  0  0  0  0  0  0  0  0  0  0  0
   -0.3451   -1.0619   -0.4959 C   0  0  0  0  0  0  0  0  0  0  0  0
   -1.6086   -0.3789   -0.6777 C   0  0  1  0  0  0  0  0  0  0  0  0
   -0.4539    2.7856    0.3080 H   0  0  0  0  0  0  0  0  0  0  0  0
    1.5829    1.4295    0.8249 H   0  0  0  0  0  0  0  0  0  0  0  0
    3.0861   -2.6435    0.4049 H   0  0  0  0  0  0  0  0  0  0  0  0
    1.9545   -2.6378   -0.9758 H   0  0  0  0  0  0  0  0  0  0  0  0
    1.3481   -2.9610    0.6756 H   0  0  0  0  0  0  0  0  0  0  0  0
   -0.3105   -2.1115   -0.7540 H   0  0  0  0  0  0  0  0  0  0  0  0
   -2.2192   -0.7258   -1.5042 H   0  0  0  0  0  0  0  0  0  0  0  0
   -3.0109   -1.0267    0.7620 Cl  0  0  0  0  0  0  0  0  0  0  0  0
  1  4  2  0  0  0  0
  2  1  1  0  0  0  0
  3  2  1  0  0  0  0
  4 11  1  0  0  0  0
  4  5  1  0  0  0  0
  5 12  1  0  0  0  0
  6  7  1  0  0  0  0
  6  5  1  0  0  0  0
  8  7  1  0  0  0  0
  8 13  1  0  0  0  0
  8 15  1  0  0  0  0
  9  6  2  0  0  0  0
 10 17  1  6  0  0  0
 10  1  1  0  0  0  0
 10  9  1  0  0  0  0
 10 18  1  0  0  0  0
 14  8  1  0  0  0  0
 16  9  1  0  0  0  0
M  RAD  3   2   2   3   3   5   2
M  END
