Coordinates from ORCA-job 4-MeOPhN2+~Cl-_B3LYPG-6-31G_dp-NX-Scan-d89-09-n800
 OpenBabel11261920533D

 18 17  0  0  0  0  0  0  0  0999 V2000
   -1.4935   -0.0105   -0.0418 C   0  0  0  0  0  0  0  0  0  0  0  0
   -2.8550   -0.0341    0.0535 N   0  0  0  0  0  0  0  0  0  0  0  0
   -3.9706   -0.0495    0.1318 N   0  0  0  0  0  0  0  0  0  0  0  0
   -0.8297    1.2411   -0.0004 C   0  0  0  0  0  0  0  0  0  0  0  0
    0.5389    1.2462   -0.0971 C   0  0  0  0  0  0  0  0  0  0  0  0
    1.2574    0.0285   -0.2340 C   0  0  0  0  0  0  0  0  0  0  0  0
    2.5733    0.1572   -0.3172 O   0  0  0  0  0  0  0  0  0  0  0  0
    3.4181   -1.0014   -0.4569 C   0  0  0  0  0  0  0  0  0  0  0  0
    0.5696   -1.2102   -0.2731 C   0  0  0  0  0  0  0  0  0  0  0  0
   -0.8053   -1.2357   -0.1773 C   0  0  0  0  0  0  0  0  0  0  0  0
   -1.3944    2.1624    0.1052 H   0  0  0  0  0  0  0  0  0  0  0  0
    1.0987    2.1750   -0.0707 H   0  0  0  0  0  0  0  0  0  0  0  0
    4.4333   -0.6109   -0.4963 H   0  0  0  0  0  0  0  0  0  0  0  0
    3.1894   -1.5348   -1.3842 H   0  0  0  0  0  0  0  0  0  0  0  0
    3.3076   -1.6640    0.4066 H   0  0  0  0  0  0  0  0  0  0  0  0
    1.1087   -2.1442   -0.3777 H   0  0  0  0  0  0  0  0  0  0  0  0
   -1.3523   -2.1739   -0.2051 H   0  0  0  0  0  0  0  0  0  0  0  0
  -11.5488   -0.6923    0.7237 Cl  0  0  0  0  0  0  0  0  0  0  0  0
  1  4  1  0  0  0  0
  1  2  1  0  0  0  0
  2  3  1  0  0  0  0
  4 11  1  0  0  0  0
  5 12  1  0  0  0  0
  5  4  2  0  0  0  0
  6  5  1  0  0  0  0
  7  6  1  0  0  0  0
  8  7  1  0  0  0  0
  8 15  1  0  0  0  0
  9  6  2  0  0  0  0
  9 10  1  0  0  0  0
 10  1  2  0  0  0  0
 13  8  1  0  0  0  0
 14  8  1  0  0  0  0
 16  9  1  0  0  0  0
 17 10  1  0  0  0  0
M  RAD  3   2   2   3   3  18   2
M  END
