Coordinates from ORCA-job 4-MeOPhN2+~Cl-_B3LYPG-6-31G_dp-NX-Scan-d89-09-n800
 OpenBabel11261920443D

 18 17  0  0  0  0  0  0  0  0999 V2000
   -1.4414   -0.0441   -0.0414 C   0  0  0  0  0  0  0  0  0  0  0  0
   -2.8041   -0.0822    0.0568 N   0  0  0  0  0  0  0  0  0  0  0  0
   -3.9197   -0.1101    0.1374 N   0  0  0  0  0  0  0  0  0  0  0  0
   -0.7907    1.2143   -0.0012 C   0  0  0  0  0  0  0  0  0  0  0  0
    0.5774    1.2331   -0.1002 C   0  0  0  0  0  0  0  0  0  0  0  0
    1.3078    0.0224   -0.2383 C   0  0  0  0  0  0  0  0  0  0  0  0
    2.6223    0.1639   -0.3234 O   0  0  0  0  0  0  0  0  0  0  0  0
    3.4787   -0.9865   -0.4641 C   0  0  0  0  0  0  0  0  0  0  0  0
    0.6324   -1.2233   -0.2763 C   0  0  0  0  0  0  0  0  0  0  0  0
   -0.7417   -1.2623   -0.1782 C   0  0  0  0  0  0  0  0  0  0  0  0
   -1.3648    2.1308    0.1055 H   0  0  0  0  0  0  0  0  0  0  0  0
    1.1278    2.1681   -0.0748 H   0  0  0  0  0  0  0  0  0  0  0  0
    4.4900   -0.5862   -0.5045 H   0  0  0  0  0  0  0  0  0  0  0  0
    3.2540   -1.5222   -1.3911 H   0  0  0  0  0  0  0  0  0  0  0  0
    3.3753   -1.6502    0.3995 H   0  0  0  0  0  0  0  0  0  0  0  0
    1.1804   -2.1531   -0.3820 H   0  0  0  0  0  0  0  0  0  0  0  0
   -1.2796   -2.2072   -0.2052 H   0  0  0  0  0  0  0  0  0  0  0  0
  -12.4588   -0.4563    0.7708 Cl  0  0  0  0  0  0  0  0  0  0  0  0
  1  4  1  0  0  0  0
  1  2  1  0  0  0  0
  2  3  1  0  0  0  0
  4 11  1  0  0  0  0
  5 12  1  0  0  0  0
  5  4  2  0  0  0  0
  6  5  1  0  0  0  0
  7  6  1  0  0  0  0
  8  7  1  0  0  0  0
  8 15  1  0  0  0  0
  9  6  2  0  0  0  0
  9 10  1  0  0  0  0
 10  1  2  0  0  0  0
 13  8  1  0  0  0  0
 14  8  1  0  0  0  0
 16  9  1  0  0  0  0
 17 10  1  0  0  0  0
M  RAD  3   2   2   3   3  18   2
M  END
