Coordinates from ORCA-job 4-MeOPhN2+~Cl-_B3LYPG-6-31G_dp-NX-Scan-d89-09-n800
 OpenBabel11261920443D

 18 17  0  0  0  0  0  0  0  0999 V2000
   -1.4319   -0.0478   -0.0414 C   0  0  0  0  0  0  0  0  0  0  0  0
   -2.7948   -0.0875    0.0571 N   0  0  0  0  0  0  0  0  0  0  0  0
   -3.9105   -0.1167    0.1380 N   0  0  0  0  0  0  0  0  0  0  0  0
   -0.7827    1.2113   -0.0014 C   0  0  0  0  0  0  0  0  0  0  0  0
    0.5854    1.2316   -0.1008 C   0  0  0  0  0  0  0  0  0  0  0  0
    1.3170    0.0216   -0.2390 C   0  0  0  0  0  0  0  0  0  0  0  0
    2.6314    0.1645   -0.3245 O   0  0  0  0  0  0  0  0  0  0  0  0
    3.4889   -0.9850   -0.4653 C   0  0  0  0  0  0  0  0  0  0  0  0
    0.6430   -1.2249   -0.2768 C   0  0  0  0  0  0  0  0  0  0  0  0
   -0.7310   -1.2653   -0.1784 C   0  0  0  0  0  0  0  0  0  0  0  0
   -1.3578    2.1274    0.1054 H   0  0  0  0  0  0  0  0  0  0  0  0
    1.1346    2.1673   -0.0755 H   0  0  0  0  0  0  0  0  0  0  0  0
    4.4998   -0.5836   -0.5060 H   0  0  0  0  0  0  0  0  0  0  0  0
    3.2646   -1.5209   -1.3922 H   0  0  0  0  0  0  0  0  0  0  0  0
    3.3865   -1.6487    0.3983 H   0  0  0  0  0  0  0  0  0  0  0  0
    1.1919   -2.1542   -0.3826 H   0  0  0  0  0  0  0  0  0  0  0  0
   -1.2680   -2.2110   -0.2052 H   0  0  0  0  0  0  0  0  0  0  0  0
  -12.6211   -0.4292    0.7795 Cl  0  0  0  0  0  0  0  0  0  0  0  0
  1  4  1  0  0  0  0
  1  2  1  0  0  0  0
  2  3  1  0  0  0  0
  4 11  1  0  0  0  0
  5 12  1  0  0  0  0
  5  4  2  0  0  0  0
  6  5  1  0  0  0  0
  7  6  1  0  0  0  0
  8  7  1  0  0  0  0
  8 15  1  0  0  0  0
  9  6  2  0  0  0  0
  9 10  1  0  0  0  0
 10  1  2  0  0  0  0
 13  8  1  0  0  0  0
 14  8  1  0  0  0  0
 16  9  1  0  0  0  0
 17 10  1  0  0  0  0
M  RAD  3   2   2   3   3  18   2
M  END
