Coordinates from ORCA-job 4-MeOPhN2+~Cl-_B3LYPG-6-31G_dp-NX-Scan-d89-09-n800
 OpenBabel11261920533D

 18 18  0  0  1  0  0  0  0  0999 V2000
   -1.5553    1.0610   -0.4913 C   0  0  0  0  0  0  0  0  0  0  0  0
   -2.6150    1.7719   -0.8279 N   0  0  0  0  0  0  0  0  0  0  0  0
   -3.5387    2.3618   -1.1312 N   0  0  0  0  0  0  0  0  0  0  0  0
   -0.4311    1.7112    0.1230 C   0  0  0  0  0  0  0  0  0  0  0  0
    0.6743    0.9791    0.4061 C   0  0  0  0  0  0  0  0  0  0  0  0
    0.7198   -0.4244    0.0612 C   0  0  0  0  0  0  0  0  0  0  0  0
    1.9275   -0.9871    0.3020 O   0  0  0  0  0  0  0  0  0  0  0  0
    2.0835   -2.3800    0.0521 C   0  0  0  0  0  0  0  0  0  0  0  0
   -0.3575   -1.0693   -0.4818 C   0  0  0  0  0  0  0  0  0  0  0  0
   -1.6352   -0.3978   -0.6247 C   0  0  1  0  0  0  0  0  0  0  0  0
   -0.4860    2.7718    0.3433 H   0  0  0  0  0  0  0  0  0  0  0  0
    1.5503    1.4198    0.8671 H   0  0  0  0  0  0  0  0  0  0  0  0
    3.1014   -2.6267    0.3550 H   0  0  0  0  0  0  0  0  0  0  0  0
    1.9537   -2.6095   -1.0125 H   0  0  0  0  0  0  0  0  0  0  0  0
    1.3706   -2.9692    0.6398 H   0  0  0  0  0  0  0  0  0  0  0  0
   -0.3207   -2.1178   -0.7443 H   0  0  0  0  0  0  0  0  0  0  0  0
   -2.2692   -0.7544   -1.4293 H   0  0  0  0  0  0  0  0  0  0  0  0
   -2.9270   -1.0913    0.8825 Cl  0  0  0  0  0  0  0  0  0  0  0  0
  1  4  2  0  0  0  0
  2  1  1  0  0  0  0
  3  2  1  0  0  0  0
  4 11  1  0  0  0  0
  4  5  1  0  0  0  0
  5 12  1  0  0  0  0
  6  7  1  0  0  0  0
  6  5  1  0  0  0  0
  8  7  1  0  0  0  0
  8 13  1  0  0  0  0
  8 15  1  0  0  0  0
  9  6  2  0  0  0  0
 10 17  1  6  0  0  0
 10  1  1  0  0  0  0
 10  9  1  0  0  0  0
 10 18  1  0  0  0  0
 14  8  1  0  0  0  0
 16  9  1  0  0  0  0
M  RAD  3   2   2   3   3   5   2
M  END
