Coordinates from ORCA-job 4-MeOPhN2+~Cl-_B3LYPG-6-31G_dp-NX-Scan-d89-09-n800
 OpenBabel11261920533D

 18 18  0  0  0  0  0  0  0  0999 V2000
   -1.5792    0.9311   -0.2724 C   0  0  0  0  0  0  0  0  0  0  0  0
   -2.7004    1.7949   -0.3805 N   0  0  0  0  0  0  0  0  0  0  0  0
   -3.8552    1.2216   -0.6317 N   0  0  0  0  0  0  0  0  0  0  0  0
   -0.3862    1.6388    0.0154 C   0  0  0  0  0  0  0  0  0  0  0  0
    0.8272    0.9974    0.1598 C   0  0  0  0  0  0  0  0  0  0  0  0
    0.9068   -0.4002    0.0205 C   0  0  0  0  0  0  0  0  0  0  0  0
    2.1483   -0.9413    0.1819 O   0  0  0  0  0  0  0  0  0  0  0  0
    2.2885   -2.3474    0.0627 C   0  0  0  0  0  0  0  0  0  0  0  0
   -0.2526   -1.1254   -0.2648 C   0  0  0  0  0  0  0  0  0  0  0  0
   -1.4824   -0.4725   -0.4095 C   0  0  0  0  0  0  0  0  0  0  0  0
   -0.4603    2.7167    0.1212 H   0  0  0  0  0  0  0  0  0  0  0  0
    1.7351    1.5490    0.3819 H   0  0  0  0  0  0  0  0  0  0  0  0
    3.3443   -2.5616    0.2350 H   0  0  0  0  0  0  0  0  0  0  0  0
    2.0079   -2.6996   -0.9386 H   0  0  0  0  0  0  0  0  0  0  0  0
    1.6860   -2.8796    0.8100 H   0  0  0  0  0  0  0  0  0  0  0  0
   -0.2210   -2.2027   -0.3803 H   0  0  0  0  0  0  0  0  0  0  0  0
   -2.3555   -1.0722   -0.6296 H   0  0  0  0  0  0  0  0  0  0  0  0
   -4.4058    0.5021   -0.7918 Cl  0  0  0  0  0  0  0  0  0  0  0  0
  1  4  1  0  0  0  0
  2  1  1  0  0  0  0
  3  2  2  0  0  0  0
  4 11  1  0  0  0  0
  4  5  2  0  0  0  0
  5 12  1  0  0  0  0
  6  5  1  0  0  0  0
  6  7  1  0  0  0  0
  8  7  1  0  0  0  0
  8 13  1  0  0  0  0
  8 15  1  0  0  0  0
  9  6  2  0  0  0  0
 10  1  2  0  0  0  0
 10  9  1  0  0  0  0
 14  8  1  0  0  0  0
 16  9  1  0  0  0  0
 17 10  1  0  0  0  0
 18  3  1  0  0  0  0
M  END
