Coordinates from ORCA-job 4-MeOPhN2+~Cl-_B3LYPG-6-31G_dp-NX-Scan-d89-09-n800
 OpenBabel11261920533D

 18 18  0  0  0  0  0  0  0  0999 V2000
   -1.5290    0.9453   -0.3863 C   0  0  0  0  0  0  0  0  0  0  0  0
   -2.6500    1.7706   -0.6054 N   0  0  0  0  0  0  0  0  0  0  0  0
   -3.8562    1.5867   -0.5822 N   0  0  0  0  0  0  0  0  0  0  0  0
   -0.3625    1.6593   -0.0422 C   0  0  0  0  0  0  0  0  0  0  0  0
    0.8322    1.0027    0.1829 C   0  0  0  0  0  0  0  0  0  0  0  0
    0.9033   -0.3930    0.0246 C   0  0  0  0  0  0  0  0  0  0  0  0
    2.1166   -0.9491    0.2567 O   0  0  0  0  0  0  0  0  0  0  0  0
    2.2614   -2.3584    0.1220 C   0  0  0  0  0  0  0  0  0  0  0  0
   -0.2402   -1.1082   -0.3630 C   0  0  0  0  0  0  0  0  0  0  0  0
   -1.4507   -0.4477   -0.5579 C   0  0  0  0  0  0  0  0  0  0  0  0
   -0.4307    2.7380    0.0523 H   0  0  0  0  0  0  0  0  0  0  0  0
    1.7301    1.5404    0.4671 H   0  0  0  0  0  0  0  0  0  0  0  0
    3.3014   -2.5758    0.3667 H   0  0  0  0  0  0  0  0  0  0  0  0
    2.0540   -2.6871   -0.9037 H   0  0  0  0  0  0  0  0  0  0  0  0
    1.6049   -2.8970    0.8155 H   0  0  0  0  0  0  0  0  0  0  0  0
   -0.2000   -2.1799   -0.5152 H   0  0  0  0  0  0  0  0  0  0  0  0
   -2.3170   -1.0157   -0.8627 H   0  0  0  0  0  0  0  0  0  0  0  0
   -4.5221    0.0178   -0.1803 Cl  0  0  0  0  0  0  0  0  0  0  0  0
  1  4  1  0  0  0  0
  2  3  2  0  0  0  0
  2  1  1  0  0  0  0
  3 18  1  0  0  0  0
  4 11  1  0  0  0  0
  4  5  2  0  0  0  0
  5 12  1  0  0  0  0
  6  5  1  0  0  0  0
  6  7  1  0  0  0  0
  8  7  1  0  0  0  0
  8 13  1  0  0  0  0
  8 15  1  0  0  0  0
  9  6  2  0  0  0  0
 10  1  2  0  0  0  0
 10  9  1  0  0  0  0
 14  8  1  0  0  0  0
 16  9  1  0  0  0  0
 17 10  1  0  0  0  0
M  END
