Coordinates from ORCA-job 4-MeOPhN2+~Cl-_B3LYPG-6-31G_dp-NX-Scan-d89-09-n800
 OpenBabel11261920533D

 18 17  0  0  0  0  0  0  0  0999 V2000
   -1.4848    1.3668   -0.4930 C   0  0  0  0  0  0  0  0  0  0  0  0
   -2.5375    2.1660   -0.7310 N   0  0  0  0  0  0  0  0  0  0  0  0
   -3.4407    2.8100   -0.9494 N   0  0  0  0  0  0  0  0  0  0  0  0
   -0.2466    1.9506   -0.0971 C   0  0  0  0  0  0  0  0  0  0  0  0
    0.8078    1.1167    0.1571 C   0  0  0  0  0  0  0  0  0  0  0  0
    0.6614   -0.2983    0.0338 C   0  0  0  0  0  0  0  0  0  0  0  0
    1.7412   -0.9965    0.3212 O   0  0  0  0  0  0  0  0  0  0  0  0
    1.7464   -2.4416    0.1570 C   0  0  0  0  0  0  0  0  0  0  0  0
   -0.5756   -0.8693   -0.3671 C   0  0  0  0  0  0  0  0  0  0  0  0
   -1.6412   -0.0441   -0.6244 C   0  0  0  0  0  0  0  0  0  0  0  0
   -0.1563    3.0270   -0.0011 H   0  0  0  0  0  0  0  0  0  0  0  0
    1.7706    1.5087    0.4645 H   0  0  0  0  0  0  0  0  0  0  0  0
    2.6917   -2.7640    0.5904 H   0  0  0  0  0  0  0  0  0  0  0  0
    1.7147   -2.6776   -0.9095 H   0  0  0  0  0  0  0  0  0  0  0  0
    0.8817   -2.9114    0.6462 H   0  0  0  0  0  0  0  0  0  0  0  0
   -0.7497   -1.9665   -0.3700 H   0  0  0  0  0  0  0  0  0  0  0  0
   -2.6003   -0.4663   -0.9062 H   0  0  0  0  0  0  0  0  0  0  0  0
   -1.3373   -3.8612    0.3675 Cl  0  0  0  0  0  0  0  0  0  0  0  0
  1  4  1  0  0  0  0
  2  1  1  0  0  0  0
  3  2  1  0  0  0  0
  4 11  1  0  0  0  0
  4  5  2  0  0  0  0
  5 12  1  0  0  0  0
  6  5  1  0  0  0  0
  6  7  1  0  0  0  0
  8  7  1  0  0  0  0
  8 13  1  0  0  0  0
  8 15  1  0  0  0  0
  9  6  2  0  0  0  0
 10  1  2  0  0  0  0
 10  9  1  0  0  0  0
 14  8  1  0  0  0  0
 16  9  1  0  0  0  0
 17 10  1  0  0  0  0
M  RAD  3   2   2   3   3  18   2
M  END
