Coordinates from ORCA-job 4-MeOPhN2+~Cl-_B3LYPG-6-31G_dp-NX-Scan-d89-09-n800
 OpenBabel11261920533D

 18 17  0  0  0  0  0  0  0  0999 V2000
   -1.4372    1.0468   -0.2421 C   0  0  0  0  0  0  0  0  0  0  0  0
   -2.6278    1.7417   -0.3733 N   0  0  0  0  0  0  0  0  0  0  0  0
   -3.7449    1.8541   -0.5461 N   0  0  0  0  0  0  0  0  0  0  0  0
   -0.2496    1.7575    0.0156 C   0  0  0  0  0  0  0  0  0  0  0  0
    0.9225    1.0448    0.1420 C   0  0  0  0  0  0  0  0  0  0  0  0
    0.9132   -0.3644    0.0136 C   0  0  0  0  0  0  0  0  0  0  0  0
    2.1108   -0.9558    0.1576 O   0  0  0  0  0  0  0  0  0  0  0  0
    2.2050   -2.3791    0.0566 C   0  0  0  0  0  0  0  0  0  0  0  0
   -0.2884   -1.0511   -0.2449 C   0  0  0  0  0  0  0  0  0  0  0  0
   -1.4791   -0.3516   -0.3756 C   0  0  0  0  0  0  0  0  0  0  0  0
   -0.2664    2.8378    0.1120 H   0  0  0  0  0  0  0  0  0  0  0  0
    1.8664    1.5385    0.3417 H   0  0  0  0  0  0  0  0  0  0  0  0
    3.2563   -2.6149    0.2183 H   0  0  0  0  0  0  0  0  0  0  0  0
    1.8996   -2.7258   -0.9365 H   0  0  0  0  0  0  0  0  0  0  0  0
    1.5967   -2.8702    0.8235 H   0  0  0  0  0  0  0  0  0  0  0  0
   -0.3046   -2.1293   -0.3463 H   0  0  0  0  0  0  0  0  0  0  0  0
   -2.4444   -0.8353   -0.5764 H   0  0  0  0  0  0  0  0  0  0  0  0
   -4.6826   -0.8948   -0.9507 Cl  0  0  0  0  0  0  0  0  0  0  0  0
  1  4  2  0  0  0  0
  2  1  1  0  0  0  0
  3  2  1  0  0  0  0
  4 11  1  0  0  0  0
  4  5  1  0  0  0  0
  5 12  1  0  0  0  0
  6  5  2  0  0  0  0
  6  7  1  0  0  0  0
  8  7  1  0  0  0  0
  8 13  1  0  0  0  0
  8 15  1  0  0  0  0
  9  6  1  0  0  0  0
 10  9  2  0  0  0  0
 10  1  1  0  0  0  0
 14  8  1  0  0  0  0
 16  9  1  0  0  0  0
 17 10  1  0  0  0  0
M  RAD  3   2   2   3   3  18   2
M  END
