Coordinates from ORCA-job 4-MeOPhN2+~Cl-_B3LYPG-6-31G_dp-NX-Scan-d89-09-n800
 OpenBabel11261920533D

 18 18  0  0  0  0  0  0  0  0999 V2000
   -1.5873    0.9185   -0.2674 C   0  0  0  0  0  0  0  0  0  0  0  0
   -2.6860    1.8213   -0.3560 N   0  0  0  0  0  0  0  0  0  0  0  0
   -3.8906    1.4442   -0.6187 N   0  0  0  0  0  0  0  0  0  0  0  0
   -0.3922    1.6265    0.0161 C   0  0  0  0  0  0  0  0  0  0  0  0
    0.8261    0.9941    0.1564 C   0  0  0  0  0  0  0  0  0  0  0  0
    0.9080   -0.4026    0.0187 C   0  0  0  0  0  0  0  0  0  0  0  0
    2.1463   -0.9411    0.1747 O   0  0  0  0  0  0  0  0  0  0  0  0
    2.2934   -2.3491    0.0608 C   0  0  0  0  0  0  0  0  0  0  0  0
   -0.2525   -1.1329   -0.2609 C   0  0  0  0  0  0  0  0  0  0  0  0
   -1.4831   -0.4867   -0.4028 C   0  0  0  0  0  0  0  0  0  0  0  0
   -0.4737    2.7034    0.1218 H   0  0  0  0  0  0  0  0  0  0  0  0
    1.7321    1.5499    0.3741 H   0  0  0  0  0  0  0  0  0  0  0  0
    3.3511   -2.5553    0.2297 H   0  0  0  0  0  0  0  0  0  0  0  0
    2.0108   -2.7053   -0.9380 H   0  0  0  0  0  0  0  0  0  0  0  0
    1.6971   -2.8793    0.8138 H   0  0  0  0  0  0  0  0  0  0  0  0
   -0.2165   -2.2102   -0.3739 H   0  0  0  0  0  0  0  0  0  0  0  0
   -2.3432   -1.1015   -0.6176 H   0  0  0  0  0  0  0  0  0  0  0  0
   -4.3942    0.3552   -0.8417 Cl  0  0  0  0  0  0  0  0  0  0  0  0
  1  4  1  0  0  0  0
  2  1  1  0  0  0  0
  3  2  2  0  0  0  0
  4 11  1  0  0  0  0
  4  5  2  0  0  0  0
  5 12  1  0  0  0  0
  6  5  1  0  0  0  0
  6  7  1  0  0  0  0
  8  7  1  0  0  0  0
  8 13  1  0  0  0  0
  8 15  1  0  0  0  0
  9  6  2  0  0  0  0
 10  1  2  0  0  0  0
 10  9  1  0  0  0  0
 14  8  1  0  0  0  0
 16  9  1  0  0  0  0
 17 10  1  0  0  0  0
 18  3  1  0  0  0  0
M  END
