Coordinates from ORCA-job 4-MeOPhN2+~Cl-_B3LYPG-6-31G_dp-NX-Scan-d89-09-n800
 OpenBabel11261920443D

 18 17  0  0  0  0  0  0  0  0999 V2000
   -1.4314   -0.0480   -0.0414 C   0  0  0  0  0  0  0  0  0  0  0  0
   -2.7943   -0.0878    0.0572 N   0  0  0  0  0  0  0  0  0  0  0  0
   -3.9099   -0.1171    0.1381 N   0  0  0  0  0  0  0  0  0  0  0  0
   -0.7822    1.2111   -0.0014 C   0  0  0  0  0  0  0  0  0  0  0  0
    0.5858    1.2315   -0.1008 C   0  0  0  0  0  0  0  0  0  0  0  0
    1.3176    0.0216   -0.2390 C   0  0  0  0  0  0  0  0  0  0  0  0
    2.6319    0.1646   -0.3245 O   0  0  0  0  0  0  0  0  0  0  0  0
    3.4895   -0.9849   -0.4653 C   0  0  0  0  0  0  0  0  0  0  0  0
    0.6436   -1.2249   -0.2769 C   0  0  0  0  0  0  0  0  0  0  0  0
   -0.7304   -1.2655   -0.1784 C   0  0  0  0  0  0  0  0  0  0  0  0
   -1.3574    2.1272    0.1054 H   0  0  0  0  0  0  0  0  0  0  0  0
    1.1351    2.1673   -0.0756 H   0  0  0  0  0  0  0  0  0  0  0  0
    4.5004   -0.5834   -0.5061 H   0  0  0  0  0  0  0  0  0  0  0  0
    3.2652   -1.5208   -1.3923 H   0  0  0  0  0  0  0  0  0  0  0  0
    3.3871   -1.6487    0.3982 H   0  0  0  0  0  0  0  0  0  0  0  0
    1.1926   -2.1542   -0.3826 H   0  0  0  0  0  0  0  0  0  0  0  0
   -1.2673   -2.2112   -0.2053 H   0  0  0  0  0  0  0  0  0  0  0  0
  -12.6306   -0.4276    0.7800 Cl  0  0  0  0  0  0  0  0  0  0  0  0
  1  4  1  0  0  0  0
  1  2  1  0  0  0  0
  2  3  1  0  0  0  0
  4 11  1  0  0  0  0
  5 12  1  0  0  0  0
  5  4  2  0  0  0  0
  6  5  1  0  0  0  0
  7  6  1  0  0  0  0
  8  7  1  0  0  0  0
  8 15  1  0  0  0  0
  9  6  2  0  0  0  0
  9 10  1  0  0  0  0
 10  1  2  0  0  0  0
 13  8  1  0  0  0  0
 14  8  1  0  0  0  0
 16  9  1  0  0  0  0
 17 10  1  0  0  0  0
M  RAD  3   2   2   3   3  18   2
M  END
