Coordinates from ORCA-job 4-MeOPhN2+~Cl-_B3LYPG-6-31G_dp-NX-Scan-d89-09-n800
 OpenBabel11261920533D

 18 17  0  0  0  0  0  0  0  0999 V2000
   -1.4793    0.9862   -0.2548 C   0  0  0  0  0  0  0  0  0  0  0  0
   -2.6571    1.7240   -0.3796 N   0  0  0  0  0  0  0  0  0  0  0  0
   -3.8024    1.6930   -0.5694 N   0  0  0  0  0  0  0  0  0  0  0  0
   -0.2989    1.7071    0.0030 C   0  0  0  0  0  0  0  0  0  0  0  0
    0.8944    1.0266    0.1360 C   0  0  0  0  0  0  0  0  0  0  0  0
    0.9212   -0.3783    0.0137 C   0  0  0  0  0  0  0  0  0  0  0  0
    2.1347   -0.9472    0.1625 O   0  0  0  0  0  0  0  0  0  0  0  0
    2.2527   -2.3657    0.0659 C   0  0  0  0  0  0  0  0  0  0  0  0
   -0.2648   -1.0888   -0.2450 C   0  0  0  0  0  0  0  0  0  0  0  0
   -1.4701   -0.4116   -0.3802 C   0  0  0  0  0  0  0  0  0  0  0  0
   -0.3418    2.7872    0.0953 H   0  0  0  0  0  0  0  0  0  0  0  0
    1.8242    1.5469    0.3361 H   0  0  0  0  0  0  0  0  0  0  0  0
    3.3075   -2.5858    0.2294 H   0  0  0  0  0  0  0  0  0  0  0  0
    1.9550   -2.7235   -0.9264 H   0  0  0  0  0  0  0  0  0  0  0  0
    1.6522   -2.8679    0.8327 H   0  0  0  0  0  0  0  0  0  0  0  0
   -0.2572   -2.1673   -0.3432 H   0  0  0  0  0  0  0  0  0  0  0  0
   -2.4031   -0.9291   -0.5794 H   0  0  0  0  0  0  0  0  0  0  0  0
   -4.7218   -0.3566   -0.9076 Cl  0  0  0  0  0  0  0  0  0  0  0  0
  1  4  1  0  0  0  0
  2  1  1  0  0  0  0
  3  2  2  0  0  0  0
  4 11  1  0  0  0  0
  4  5  2  0  0  0  0
  5 12  1  0  0  0  0
  6  5  1  0  0  0  0
  6  7  1  0  0  0  0
  8  7  1  0  0  0  0
  8 13  1  0  0  0  0
  8 15  1  0  0  0  0
  9  6  2  0  0  0  0
 10  1  2  0  0  0  0
 10  9  1  0  0  0  0
 14  8  1  0  0  0  0
 16  9  1  0  0  0  0
 17 10  1  0  0  0  0
M  RAD  2   3   2  18   2
M  END
