Coordinates from ORCA-job 4-MeOPhN2+~Cl-_B3LYPG-6-31G_dp-NX-Scan-d89-09-n800
 OpenBabel11261920533D

 18 17  0  0  0  0  0  0  0  0999 V2000
   -1.5889    1.0641   -0.4673 C   0  0  0  0  0  0  0  0  0  0  0  0
   -2.5524    1.8506   -0.9573 N   0  0  0  0  0  0  0  0  0  0  0  0
   -3.2875    2.5957   -1.3990 N   0  0  0  0  0  0  0  0  0  0  0  0
   -0.4691    1.7220    0.1529 C   0  0  0  0  0  0  0  0  0  0  0  0
    0.6522    0.9960    0.4018 C   0  0  0  0  0  0  0  0  0  0  0  0
    0.7164   -0.3893    0.0285 C   0  0  0  0  0  0  0  0  0  0  0  0
    1.9106   -0.9640    0.2736 O   0  0  0  0  0  0  0  0  0  0  0  0
    2.0527   -2.3660    0.0422 C   0  0  0  0  0  0  0  0  0  0  0  0
   -0.3743   -1.0308   -0.5243 C   0  0  0  0  0  0  0  0  0  0  0  0
   -1.6126   -0.3614   -0.6618 C   0  0  0  0  0  0  0  0  0  0  0  0
   -0.5322    2.7773    0.3928 H   0  0  0  0  0  0  0  0  0  0  0  0
    1.5221    1.4404    0.8717 H   0  0  0  0  0  0  0  0  0  0  0  0
    3.0653   -2.6165    0.3577 H   0  0  0  0  0  0  0  0  0  0  0  0
    1.9314   -2.6051   -1.0208 H   0  0  0  0  0  0  0  0  0  0  0  0
    1.3278   -2.9353    0.6329 H   0  0  0  0  0  0  0  0  0  0  0  0
   -0.3537   -2.0868   -0.7532 H   0  0  0  0  0  0  0  0  0  0  0  0
   -2.4054   -0.7978   -1.2503 H   0  0  0  0  0  0  0  0  0  0  0  0
   -2.7569   -1.6440    1.1690 Cl  0  0  0  0  0  0  0  0  0  0  0  0
  1  4  2  0  0  0  0
  2  1  1  0  0  0  0
  3  2  1  0  0  0  0
  4 11  1  0  0  0  0
  4  5  1  0  0  0  0
  5 12  1  0  0  0  0
  6  7  1  0  0  0  0
  6  5  2  0  0  0  0
  8  7  1  0  0  0  0
  8 13  1  0  0  0  0
  8 15  1  0  0  0  0
  9  6  1  0  0  0  0
 10  9  2  0  0  0  0
 10  1  1  0  0  0  0
 14  8  1  0  0  0  0
 16  9  1  0  0  0  0
 17 10  1  0  0  0  0
M  RAD  3   2   2   3   3  18   2
M  END
