Coordinates from ORCA-job 4-MeOPhN2+~Cl-_B3LYPG-6-31G_dp-NX-Scan-d89-09-n800
 OpenBabel11261920443D

 18 17  0  0  0  0  0  0  0  0999 V2000
   -1.4436   -0.0431   -0.0413 C   0  0  0  0  0  0  0  0  0  0  0  0
   -2.8062   -0.0808    0.0567 N   0  0  0  0  0  0  0  0  0  0  0  0
   -3.9219   -0.1084    0.1372 N   0  0  0  0  0  0  0  0  0  0  0  0
   -0.7925    1.2150   -0.0011 C   0  0  0  0  0  0  0  0  0  0  0  0
    0.5756    1.2335   -0.1001 C   0  0  0  0  0  0  0  0  0  0  0  0
    1.3057    0.0226   -0.2381 C   0  0  0  0  0  0  0  0  0  0  0  0
    2.6202    0.1637   -0.3232 O   0  0  0  0  0  0  0  0  0  0  0  0
    3.4762   -0.9869   -0.4638 C   0  0  0  0  0  0  0  0  0  0  0  0
    0.6300   -1.2230   -0.2761 C   0  0  0  0  0  0  0  0  0  0  0  0
   -0.7442   -1.2616   -0.1781 C   0  0  0  0  0  0  0  0  0  0  0  0
   -1.3664    2.1317    0.1056 H   0  0  0  0  0  0  0  0  0  0  0  0
    1.1262    2.1683   -0.0746 H   0  0  0  0  0  0  0  0  0  0  0  0
    4.4876   -0.5869   -0.5043 H   0  0  0  0  0  0  0  0  0  0  0  0
    3.2514   -1.5225   -1.3909 H   0  0  0  0  0  0  0  0  0  0  0  0
    3.3727   -1.6505    0.3997 H   0  0  0  0  0  0  0  0  0  0  0  0
    1.1777   -2.1528   -0.3817 H   0  0  0  0  0  0  0  0  0  0  0  0
   -1.2823   -2.2063   -0.2051 H   0  0  0  0  0  0  0  0  0  0  0  0
  -12.4206   -0.4630    0.7684 Cl  0  0  0  0  0  0  0  0  0  0  0  0
  1  4  1  0  0  0  0
  1  2  1  0  0  0  0
  2  3  1  0  0  0  0
  4 11  1  0  0  0  0
  5 12  1  0  0  0  0
  5  4  2  0  0  0  0
  6  5  1  0  0  0  0
  7  6  1  0  0  0  0
  8  7  1  0  0  0  0
  8 15  1  0  0  0  0
  9  6  2  0  0  0  0
  9 10  1  0  0  0  0
 10  1  2  0  0  0  0
 13  8  1  0  0  0  0
 14  8  1  0  0  0  0
 16  9  1  0  0  0  0
 17 10  1  0  0  0  0
M  RAD  3   2   2   3   3  18   2
M  END
