Coordinates from ORCA-job 4-MeOPhN2+~Cl-_B3LYPG-6-31G_dp-NX-Scan-d89-09-n800
 OpenBabel11261920533D

 18 17  0  0  0  0  0  0  0  0999 V2000
   -1.6022    1.0477   -0.4529 C   0  0  0  0  0  0  0  0  0  0  0  0
   -2.5378    1.8297   -0.9891 N   0  0  0  0  0  0  0  0  0  0  0  0
   -3.2540    2.5696   -1.4737 N   0  0  0  0  0  0  0  0  0  0  0  0
   -0.4855    1.7041    0.1784 C   0  0  0  0  0  0  0  0  0  0  0  0
    0.6316    0.9787    0.4381 C   0  0  0  0  0  0  0  0  0  0  0  0
    0.7020   -0.4068    0.0516 C   0  0  0  0  0  0  0  0  0  0  0  0
    1.9096   -0.9671    0.2776 O   0  0  0  0  0  0  0  0  0  0  0  0
    2.0718   -2.3588    0.0107 C   0  0  0  0  0  0  0  0  0  0  0  0
   -0.3815   -1.0512   -0.4980 C   0  0  0  0  0  0  0  0  0  0  0  0
   -1.6442   -0.3928   -0.6026 C   0  0  0  0  0  0  0  0  0  0  0  0
   -0.5492    2.7606    0.4138 H   0  0  0  0  0  0  0  0  0  0  0  0
    1.4989    1.4213    0.9143 H   0  0  0  0  0  0  0  0  0  0  0  0
    3.0926   -2.6011    0.3061 H   0  0  0  0  0  0  0  0  0  0  0  0
    1.9388   -2.5753   -1.0560 H   0  0  0  0  0  0  0  0  0  0  0  0
    1.3651   -2.9561    0.5966 H   0  0  0  0  0  0  0  0  0  0  0  0
   -0.3499   -2.1030   -0.7455 H   0  0  0  0  0  0  0  0  0  0  0  0
   -2.3980   -0.8068   -1.2575 H   0  0  0  0  0  0  0  0  0  0  0  0
   -2.7628   -1.4439    1.1771 Cl  0  0  0  0  0  0  0  0  0  0  0  0
  1  4  2  0  0  0  0
  2  1  1  0  0  0  0
  3  2  1  0  0  0  0
  4 11  1  0  0  0  0
  4  5  1  0  0  0  0
  5 12  1  0  0  0  0
  6  7  1  0  0  0  0
  6  5  2  0  0  0  0
  8  7  1  0  0  0  0
  8 13  1  0  0  0  0
  8 15  1  0  0  0  0
  9  6  1  0  0  0  0
 10  9  2  0  0  0  0
 10  1  1  0  0  0  0
 14  8  1  0  0  0  0
 16  9  1  0  0  0  0
 17 10  1  0  0  0  0
M  RAD  3   2   2   3   3  18   2
M  END
