Coordinates from ORCA-job 4-MeOPhN2+~Cl-_B3LYPG-6-31G_dp-NX-Scan-d89-09-n800
 OpenBabel11261920533D

 18 18  0  0  1  0  0  0  0  0999 V2000
   -1.5303    1.0761   -0.5147 C   0  0  0  0  0  0  0  0  0  0  0  0
   -2.6418    1.7497   -0.7430 N   0  0  0  0  0  0  0  0  0  0  0  0
   -3.6452    2.2462   -0.9325 N   0  0  0  0  0  0  0  0  0  0  0  0
   -0.4023    1.7246    0.0882 C   0  0  0  0  0  0  0  0  0  0  0  0
    0.7018    0.9896    0.3724 C   0  0  0  0  0  0  0  0  0  0  0  0
    0.7334   -0.4192    0.0500 C   0  0  0  0  0  0  0  0  0  0  0  0
    1.9322   -0.9916    0.3090 O   0  0  0  0  0  0  0  0  0  0  0  0
    2.0750   -2.3905    0.0849 C   0  0  0  0  0  0  0  0  0  0  0  0
   -0.3454   -1.0622   -0.4954 C   0  0  0  0  0  0  0  0  0  0  0  0
   -1.6095   -0.3796   -0.6760 C   0  0  1  0  0  0  0  0  0  0  0  0
   -0.4549    2.7852    0.3091 H   0  0  0  0  0  0  0  0  0  0  0  0
    1.5819    1.4292    0.8262 H   0  0  0  0  0  0  0  0  0  0  0  0
    3.0867   -2.6430    0.4033 H   0  0  0  0  0  0  0  0  0  0  0  0
    1.9545   -2.6370   -0.9769 H   0  0  0  0  0  0  0  0  0  0  0  0
    1.3489   -2.9613    0.6745 H   0  0  0  0  0  0  0  0  0  0  0  0
   -0.3108   -2.1118   -0.7536 H   0  0  0  0  0  0  0  0  0  0  0  0
   -2.2207   -0.7267   -1.5020 H   0  0  0  0  0  0  0  0  0  0  0  0
   -3.0081   -1.0287    0.7656 Cl  0  0  0  0  0  0  0  0  0  0  0  0
  1  4  2  0  0  0  0
  2  1  1  0  0  0  0
  3  2  1  0  0  0  0
  4 11  1  0  0  0  0
  4  5  1  0  0  0  0
  5 12  1  0  0  0  0
  6  7  1  0  0  0  0
  6  5  1  0  0  0  0
  8  7  1  0  0  0  0
  8 13  1  0  0  0  0
  8 15  1  0  0  0  0
  9  6  2  0  0  0  0
 10 17  1  6  0  0  0
 10  1  1  0  0  0  0
 10  9  1  0  0  0  0
 10 18  1  0  0  0  0
 14  8  1  0  0  0  0
 16  9  1  0  0  0  0
M  RAD  3   2   2   3   3   5   2
M  END
