Coordinates from ORCA-job 4-MeOPhN2+~Cl-_B3LYPG-6-31G_dp-NX-Scan-d89-09-n800
 OpenBabel11261920533D

 18 18  0  0  0  0  0  0  0  0999 V2000
   -1.5030    0.9653   -0.2654 C   0  0  0  0  0  0  0  0  0  0  0  0
   -2.6626    1.7375   -0.3865 N   0  0  0  0  0  0  0  0  0  0  0  0
   -3.8239    1.6647   -0.5758 N   0  0  0  0  0  0  0  0  0  0  0  0
   -0.3217    1.6861   -0.0033 C   0  0  0  0  0  0  0  0  0  0  0  0
    0.8791    1.0190    0.1352 C   0  0  0  0  0  0  0  0  0  0  0  0
    0.9199   -0.3838    0.0131 C   0  0  0  0  0  0  0  0  0  0  0  0
    2.1386   -0.9449    0.1669 O   0  0  0  0  0  0  0  0  0  0  0  0
    2.2648   -2.3615    0.0708 C   0  0  0  0  0  0  0  0  0  0  0  0
   -0.2596   -1.1013   -0.2513 C   0  0  0  0  0  0  0  0  0  0  0  0
   -1.4708   -0.4335   -0.3906 C   0  0  0  0  0  0  0  0  0  0  0  0
   -0.3750    2.7658    0.0885 H   0  0  0  0  0  0  0  0  0  0  0  0
    1.8024    1.5494    0.3391 H   0  0  0  0  0  0  0  0  0  0  0  0
    3.3201   -2.5766    0.2385 H   0  0  0  0  0  0  0  0  0  0  0  0
    1.9733   -2.7219   -0.9227 H   0  0  0  0  0  0  0  0  0  0  0  0
    1.6641   -2.8682    0.8347 H   0  0  0  0  0  0  0  0  0  0  0  0
   -0.2433   -2.1796   -0.3510 H   0  0  0  0  0  0  0  0  0  0  0  0
   -2.3856   -0.9742   -0.5937 H   0  0  0  0  0  0  0  0  0  0  0  0
   -4.6713   -0.1933   -0.8574 Cl  0  0  0  0  0  0  0  0  0  0  0  0
  1  4  1  0  0  0  0
  2  1  1  0  0  0  0
  3  2  2  0  0  0  0
  4 11  1  0  0  0  0
  4  5  2  0  0  0  0
  5 12  1  0  0  0  0
  6  5  1  0  0  0  0
  6  7  1  0  0  0  0
  8  7  1  0  0  0  0
  8 13  1  0  0  0  0
  8 15  1  0  0  0  0
  9  6  2  0  0  0  0
 10  1  2  0  0  0  0
 10  9  1  0  0  0  0
 14  8  1  0  0  0  0
 16  9  1  0  0  0  0
 17 10  1  0  0  0  0
 18  3  1  0  0  0  0
M  END
