Coordinates from ORCA-job 4-MeOPhN2+~Cl-_B3LYPG-6-31G_dp-NX-Scan-d89-09-n800
 OpenBabel11261920533D

 18 18  0  0  1  0  0  0  0  0999 V2000
   -1.5942    1.0430   -0.4553 C   0  0  0  0  0  0  0  0  0  0  0  0
   -2.5548    1.8010   -0.9609 N   0  0  0  0  0  0  0  0  0  0  0  0
   -3.3297    2.4981   -1.4208 N   0  0  0  0  0  0  0  0  0  0  0  0
   -0.4760    1.6968    0.1756 C   0  0  0  0  0  0  0  0  0  0  0  0
    0.6337    0.9688    0.4510 C   0  0  0  0  0  0  0  0  0  0  0  0
    0.6989   -0.4238    0.0713 C   0  0  0  0  0  0  0  0  0  0  0  0
    1.9157   -0.9755    0.2877 O   0  0  0  0  0  0  0  0  0  0  0  0
    2.0870   -2.3607    0.0040 C   0  0  0  0  0  0  0  0  0  0  0  0
   -0.3790   -1.0704   -0.4709 C   0  0  0  0  0  0  0  0  0  0  0  0
   -1.6643   -0.4140   -0.5640 C   0  0  1  0  0  0  0  0  0  0  0  0
   -0.5356    2.7560    0.4007 H   0  0  0  0  0  0  0  0  0  0  0  0
    1.5029    1.4098    0.9250 H   0  0  0  0  0  0  0  0  0  0  0  0
    3.1123   -2.5996    0.2873 H   0  0  0  0  0  0  0  0  0  0  0  0
    1.9454   -2.5673   -1.0639 H   0  0  0  0  0  0  0  0  0  0  0  0
    1.3906   -2.9724    0.5882 H   0  0  0  0  0  0  0  0  0  0  0  0
   -0.3405   -2.1183   -0.7353 H   0  0  0  0  0  0  0  0  0  0  0  0
   -2.3543   -0.7956   -1.3072 H   0  0  0  0  0  0  0  0  0  0  0  0
   -2.8129   -1.2270    1.0768 Cl  0  0  0  0  0  0  0  0  0  0  0  0
  1  4  2  0  0  0  0
  2  1  1  0  0  0  0
  3  2  1  0  0  0  0
  4 11  1  0  0  0  0
  4  5  1  0  0  0  0
  5 12  1  0  0  0  0
  6  7  1  0  0  0  0
  6  5  1  0  0  0  0
  8 13  1  0  0  0  0
  8  7  1  0  0  0  0
  8 15  1  0  0  0  0
  9  6  2  0  0  0  0
 10 17  1  6  0  0  0
 10  9  1  0  0  0  0
 10  1  1  0  0  0  0
 10 18  1  0  0  0  0
 14  8  1  0  0  0  0
 16  9  1  0  0  0  0
M  RAD  3   2   2   3   3   5   2
M  END
