Coordinates from ORCA-job 4-MeOPhN2+~Cl-_B3LYPG-6-31G_dp-NX-Scan-d89-09-n800
 OpenBabel11261920533D

 18 18  0  0  1  0  0  0  0  0999 V2000
   -1.5124    1.0879   -0.5295 C   0  0  0  0  0  0  0  0  0  0  0  0
   -2.6536    1.7333   -0.6898 N   0  0  0  0  0  0  0  0  0  0  0  0
   -3.7030    2.1478   -0.8042 N   0  0  0  0  0  0  0  0  0  0  0  0
   -0.3827    1.7352    0.0664 C   0  0  0  0  0  0  0  0  0  0  0  0
    0.7206    0.9976    0.3506 C   0  0  0  0  0  0  0  0  0  0  0  0
    0.7427   -0.4135    0.0418 C   0  0  0  0  0  0  0  0  0  0  0  0
    1.9342   -0.9938    0.3131 O   0  0  0  0  0  0  0  0  0  0  0  0
    2.0670   -2.3965    0.1055 C   0  0  0  0  0  0  0  0  0  0  0  0
   -0.3379   -1.0543   -0.5071 C   0  0  0  0  0  0  0  0  0  0  0  0
   -1.5894   -0.3637   -0.7124 C   0  0  1  0  0  0  0  0  0  0  0  0
   -0.4338    2.7954    0.2894 H   0  0  0  0  0  0  0  0  0  0  0  0
    1.6033    1.4356    0.8008 H   0  0  0  0  0  0  0  0  0  0  0  0
    3.0737   -2.6536    0.4356 H   0  0  0  0  0  0  0  0  0  0  0  0
    1.9538   -2.6534   -0.9545 H   0  0  0  0  0  0  0  0  0  0  0  0
    1.3310   -2.9544    0.6950 H   0  0  0  0  0  0  0  0  0  0  0  0
   -0.3051   -2.1045   -0.7631 H   0  0  0  0  0  0  0  0  0  0  0  0
   -2.1940   -0.7079   -1.5439 H   0  0  0  0  0  0  0  0  0  0  0  0
   -3.0690   -0.9881    0.6953 Cl  0  0  0  0  0  0  0  0  0  0  0  0
  1  4  2  0  0  0  0
  2  1  1  0  0  0  0
  3  2  1  0  0  0  0
  4 11  1  0  0  0  0
  4  5  1  0  0  0  0
  5 12  1  0  0  0  0
  6  7  1  0  0  0  0
  6  5  1  0  0  0  0
  8  7  1  0  0  0  0
  8 13  1  0  0  0  0
  8 15  1  0  0  0  0
  9  6  2  0  0  0  0
 10 17  1  6  0  0  0
 10  1  1  0  0  0  0
 10  9  1  0  0  0  0
 10 18  1  0  0  0  0
 14  8  1  0  0  0  0
 16  9  1  0  0  0  0
M  RAD  3   2   2   3   3   5   2
M  END
