Coordinates from ORCA-job 4-MeOPhN2+~Cl-_B3LYPG-6-31G_dp-NX-Scan-d89-09-n800
 OpenBabel11261920443D

 18 17  0  0  0  0  0  0  0  0999 V2000
   -1.4780   -0.0237   -0.0414 C   0  0  0  0  0  0  0  0  0  0  0  0
   -2.8398   -0.0531    0.0549 N   0  0  0  0  0  0  0  0  0  0  0  0
   -3.9555   -0.0734    0.1341 N   0  0  0  0  0  0  0  0  0  0  0  0
   -0.8193    1.2306   -0.0004 C   0  0  0  0  0  0  0  0  0  0  0  0
    0.5491    1.2412   -0.0980 C   0  0  0  0  0  0  0  0  0  0  0  0
    1.2723    0.0262   -0.2353 C   0  0  0  0  0  0  0  0  0  0  0  0
    2.5877    0.1600   -0.3192 O   0  0  0  0  0  0  0  0  0  0  0  0
    3.4371   -0.9954   -0.4592 C   0  0  0  0  0  0  0  0  0  0  0  0
    0.5895   -1.2153   -0.2740 C   0  0  0  0  0  0  0  0  0  0  0  0
   -0.7852   -1.2462   -0.1774 C   0  0  0  0  0  0  0  0  0  0  0  0
   -1.3878    2.1499    0.1056 H   0  0  0  0  0  0  0  0  0  0  0  0
    1.1051    2.1723   -0.0719 H   0  0  0  0  0  0  0  0  0  0  0  0
    4.4507   -0.6010   -0.4991 H   0  0  0  0  0  0  0  0  0  0  0  0
    3.2100   -1.5297   -1.3865 H   0  0  0  0  0  0  0  0  0  0  0  0
    3.3293   -1.6584    0.4042 H   0  0  0  0  0  0  0  0  0  0  0  0
    1.1321   -2.1475   -0.3790 H   0  0  0  0  0  0  0  0  0  0  0  0
   -1.3285   -2.1870   -0.2050 H   0  0  0  0  0  0  0  0  0  0  0  0
  -11.8236   -0.6006    0.7367 Cl  0  0  0  0  0  0  0  0  0  0  0  0
  1  4  1  0  0  0  0
  1  2  1  0  0  0  0
  2  3  1  0  0  0  0
  4 11  1  0  0  0  0
  5 12  1  0  0  0  0
  5  4  2  0  0  0  0
  6  5  1  0  0  0  0
  7  6  1  0  0  0  0
  8  7  1  0  0  0  0
  8 15  1  0  0  0  0
  9  6  2  0  0  0  0
  9 10  1  0  0  0  0
 10  1  2  0  0  0  0
 13  8  1  0  0  0  0
 14  8  1  0  0  0  0
 16  9  1  0  0  0  0
 17 10  1  0  0  0  0
M  RAD  3   2   2   3   3  18   2
M  END
