Coordinates from ORCA-job 4-MeOPhN2+~Cl-_B3LYPG-6-31G_dp-NX-Scan-d89-09-n800
 OpenBabel11261920533D

 18 17  0  0  0  0  0  0  0  0999 V2000
   -1.4801    1.1001   -0.5554 C   0  0  0  0  0  0  0  0  0  0  0  0
   -2.6574    1.7096   -0.6415 N   0  0  0  0  0  0  0  0  0  0  0  0
   -3.7511    1.9956   -0.6485 N   0  0  0  0  0  0  0  0  0  0  0  0
   -0.3578    1.7483    0.0406 C   0  0  0  0  0  0  0  0  0  0  0  0
    0.7478    1.0075    0.3243 C   0  0  0  0  0  0  0  0  0  0  0  0
    0.7646   -0.3998    0.0244 C   0  0  0  0  0  0  0  0  0  0  0  0
    1.9381   -0.9955    0.3207 O   0  0  0  0  0  0  0  0  0  0  0  0
    2.0567   -2.4042    0.1315 C   0  0  0  0  0  0  0  0  0  0  0  0
   -0.3181   -1.0338   -0.5493 C   0  0  0  0  0  0  0  0  0  0  0  0
   -1.5347   -0.3306   -0.7862 C   0  0  0  0  0  0  0  0  0  0  0  0
   -0.4118    2.8055    0.2760 H   0  0  0  0  0  0  0  0  0  0  0  0
    1.6282    1.4441    0.7804 H   0  0  0  0  0  0  0  0  0  0  0  0
    3.0510   -2.6694    0.4909 H   0  0  0  0  0  0  0  0  0  0  0  0
    1.9687   -2.6699   -0.9282 H   0  0  0  0  0  0  0  0  0  0  0  0
    1.2982   -2.9441    0.7082 H   0  0  0  0  0  0  0  0  0  0  0  0
   -0.2865   -2.0836   -0.8070 H   0  0  0  0  0  0  0  0  0  0  0  0
   -2.1958   -0.6995   -1.5571 H   0  0  0  0  0  0  0  0  0  0  0  0
   -3.2146   -0.9314    0.6654 Cl  0  0  0  0  0  0  0  0  0  0  0  0
  1  4  1  0  0  0  0
  2  1  1  0  0  0  0
  3  2  1  0  0  0  0
  4 11  1  0  0  0  0
  4  5  2  0  0  0  0
  5 12  1  0  0  0  0
  6  7  1  0  0  0  0
  6  5  1  0  0  0  0
  8  7  1  0  0  0  0
  8 13  1  0  0  0  0
  8 15  1  0  0  0  0
  9  6  2  0  0  0  0
 10  1  2  0  0  0  0
 10  9  1  0  0  0  0
 14  8  1  0  0  0  0
 16  9  1  0  0  0  0
 17 10  1  0  0  0  0
M  RAD  3   2   2   3   3  18   2
M  END
