Coordinates from ORCA-job 4-MeOPhN2+~Cl-_B3LYPG-6-31G_dp-NX-Scan-d89-09-n800
 OpenBabel11261920533D

 18 18  0  0  1  0  0  0  0  0999 V2000
   -1.5176    1.0846   -0.5250 C   0  0  0  0  0  0  0  0  0  0  0  0
   -2.6508    1.7382   -0.7042 N   0  0  0  0  0  0  0  0  0  0  0  0
   -3.6880    2.1767   -0.8410 N   0  0  0  0  0  0  0  0  0  0  0  0
   -0.3882    1.7321    0.0726 C   0  0  0  0  0  0  0  0  0  0  0  0
    0.7153    0.9953    0.3567 C   0  0  0  0  0  0  0  0  0  0  0  0
    0.7401   -0.4153    0.0443 C   0  0  0  0  0  0  0  0  0  0  0  0
    1.9338   -0.9933    0.3119 O   0  0  0  0  0  0  0  0  0  0  0  0
    2.0694   -2.3949    0.0997 C   0  0  0  0  0  0  0  0  0  0  0  0
   -0.3401   -1.0568   -0.5032 C   0  0  0  0  0  0  0  0  0  0  0  0
   -1.5956   -0.3685   -0.7016 C   0  0  1  0  0  0  0  0  0  0  0  0
   -0.4397    2.7925    0.2949 H   0  0  0  0  0  0  0  0  0  0  0  0
    1.5974    1.4338    0.8076 H   0  0  0  0  0  0  0  0  0  0  0  0
    3.0777   -2.6507    0.4262 H   0  0  0  0  0  0  0  0  0  0  0  0
    1.9538   -2.6490   -0.9608 H   0  0  0  0  0  0  0  0  0  0  0  0
    1.3364   -2.9565    0.6895 H   0  0  0  0  0  0  0  0  0  0  0  0
   -0.3068   -2.1068   -0.7598 H   0  0  0  0  0  0  0  0  0  0  0  0
   -2.2008   -0.7129   -1.5327 H   0  0  0  0  0  0  0  0  0  0  0  0
   -3.0509   -0.9995    0.7140 Cl  0  0  0  0  0  0  0  0  0  0  0  0
  1  4  2  0  0  0  0
  2  1  1  0  0  0  0
  3  2  1  0  0  0  0
  4 11  1  0  0  0  0
  4  5  1  0  0  0  0
  5 12  1  0  0  0  0
  6  7  1  0  0  0  0
  6  5  1  0  0  0  0
  8  7  1  0  0  0  0
  8 13  1  0  0  0  0
  8 15  1  0  0  0  0
  9  6  2  0  0  0  0
 10 17  1  6  0  0  0
 10  1  1  0  0  0  0
 10  9  1  0  0  0  0
 10 18  1  0  0  0  0
 14  8  1  0  0  0  0
 16  9  1  0  0  0  0
M  RAD  3   2   2   3   3   5   2
M  END
