Coordinates from ORCA-job 4-MeOPhN2+~Cl-_B3LYPG-6-31G_dp-NX-Scan-d89-09-n800
 OpenBabel11261920533D

 18 17  0  0  0  0  0  0  0  0999 V2000
   -1.4730    1.0966   -0.5568 C   0  0  0  0  0  0  0  0  0  0  0  0
   -2.6544    1.7064   -0.6432 N   0  0  0  0  0  0  0  0  0  0  0  0
   -3.7479    1.9863   -0.6419 N   0  0  0  0  0  0  0  0  0  0  0  0
   -0.3554    1.7474    0.0403 C   0  0  0  0  0  0  0  0  0  0  0  0
    0.7544    1.0079    0.3203 C   0  0  0  0  0  0  0  0  0  0  0  0
    0.7754   -0.3955    0.0180 C   0  0  0  0  0  0  0  0  0  0  0  0
    1.9428   -0.9951    0.3217 O   0  0  0  0  0  0  0  0  0  0  0  0
    2.0599   -2.4052    0.1340 C   0  0  0  0  0  0  0  0  0  0  0  0
   -0.3080   -1.0280   -0.5670 C   0  0  0  0  0  0  0  0  0  0  0  0
   -1.5105   -0.3219   -0.8107 C   0  0  0  0  0  0  0  0  0  0  0  0
   -0.4128    2.8027    0.2825 H   0  0  0  0  0  0  0  0  0  0  0  0
    1.6322    1.4463    0.7798 H   0  0  0  0  0  0  0  0  0  0  0  0
    3.0504   -2.6715    0.5025 H   0  0  0  0  0  0  0  0  0  0  0  0
    1.9812   -2.6705   -0.9264 H   0  0  0  0  0  0  0  0  0  0  0  0
    1.2952   -2.9425    0.7045 H   0  0  0  0  0  0  0  0  0  0  0  0
   -0.2763   -2.0777   -0.8252 H   0  0  0  0  0  0  0  0  0  0  0  0
   -2.2153   -0.7105   -1.5288 H   0  0  0  0  0  0  0  0  0  0  0  0
   -3.2926   -0.9261    0.6856 Cl  0  0  0  0  0  0  0  0  0  0  0  0
  1  4  2  0  0  0  0
  2  3  1  0  0  0  0
  2  1  1  0  0  0  0
  4 11  1  0  0  0  0
  4  5  1  0  0  0  0
  5 12  1  0  0  0  0
  6  5  2  0  0  0  0
  6  7  1  0  0  0  0
  8  7  1  0  0  0  0
  8 13  1  0  0  0  0
  8 15  1  0  0  0  0
  9  6  1  0  0  0  0
 10  9  2  0  0  0  0
 10  1  1  0  0  0  0
 14  8  1  0  0  0  0
 16  9  1  0  0  0  0
 17 10  1  0  0  0  0
M  RAD  3   2   2   3   3  18   2
M  END
