Coordinates from ORCA-job 4-MeOPhN2+~Cl-_B3LYPG-6-31G_dp-NX-Scan-d89-09-n800
 OpenBabel11261920533D

 18 18  0  0  1  0  0  0  0  0999 V2000
   -1.5089    1.0901   -0.5325 C   0  0  0  0  0  0  0  0  0  0  0  0
   -2.6552    1.7301   -0.6807 N   0  0  0  0  0  0  0  0  0  0  0  0
   -3.7122    2.1279   -0.7801 N   0  0  0  0  0  0  0  0  0  0  0  0
   -0.3791    1.7373    0.0624 C   0  0  0  0  0  0  0  0  0  0  0  0
    0.7241    0.9991    0.3466 C   0  0  0  0  0  0  0  0  0  0  0  0
    0.7446   -0.4123    0.0402 C   0  0  0  0  0  0  0  0  0  0  0  0
    1.9345   -0.9941    0.3139 O   0  0  0  0  0  0  0  0  0  0  0  0
    2.0653   -2.3976    0.1093 C   0  0  0  0  0  0  0  0  0  0  0  0
   -0.3364   -1.0524   -0.5099 C   0  0  0  0  0  0  0  0  0  0  0  0
   -1.5850   -0.3604   -0.7198 C   0  0  1  0  0  0  0  0  0  0  0  0
   -0.4301    2.7973    0.2860 H   0  0  0  0  0  0  0  0  0  0  0  0
    1.6071    1.4367    0.7966 H   0  0  0  0  0  0  0  0  0  0  0  0
    3.0710   -2.6556    0.4419 H   0  0  0  0  0  0  0  0  0  0  0  0
    1.9540   -2.6563   -0.9504 H   0  0  0  0  0  0  0  0  0  0  0  0
    1.3272   -2.9530    0.6984 H   0  0  0  0  0  0  0  0  0  0  0  0
   -0.3038   -2.1028   -0.7657 H   0  0  0  0  0  0  0  0  0  0  0  0
   -2.1900   -0.7047   -1.5506 H   0  0  0  0  0  0  0  0  0  0  0  0
   -3.0816   -0.9805    0.6837 Cl  0  0  0  0  0  0  0  0  0  0  0  0
  1  4  2  0  0  0  0
  2  1  1  0  0  0  0
  3  2  1  0  0  0  0
  4 11  1  0  0  0  0
  4  5  1  0  0  0  0
  5 12  1  0  0  0  0
  6  7  1  0  0  0  0
  6  5  1  0  0  0  0
  8  7  1  0  0  0  0
  8 13  1  0  0  0  0
  8 15  1  0  0  0  0
  9  6  2  0  0  0  0
 10 17  1  6  0  0  0
 10  1  1  0  0  0  0
 10  9  1  0  0  0  0
 10 18  1  0  0  0  0
 14  8  1  0  0  0  0
 16  9  1  0  0  0  0
M  RAD  3   2   2   3   3   5   2
M  END
