Coordinates from ORCA-job 4-MeOPhN2+~Cl-_B3LYPG-6-31G_dp-NX-Scan-d89-09-n800
 OpenBabel11261920443D

 18 17  0  0  0  0  0  0  0  0999 V2000
   -1.4636   -0.0332   -0.0413 C   0  0  0  0  0  0  0  0  0  0  0  0
   -2.8258   -0.0666    0.0558 N   0  0  0  0  0  0  0  0  0  0  0  0
   -3.9414   -0.0906    0.1356 N   0  0  0  0  0  0  0  0  0  0  0  0
   -0.8086    1.2230   -0.0006 C   0  0  0  0  0  0  0  0  0  0  0  0
    0.5597    1.2375   -0.0988 C   0  0  0  0  0  0  0  0  0  0  0  0
    1.2863    0.0245   -0.2365 C   0  0  0  0  0  0  0  0  0  0  0  0
    2.6012    0.1619   -0.3209 O   0  0  0  0  0  0  0  0  0  0  0  0
    3.4538   -0.9912   -0.4612 C   0  0  0  0  0  0  0  0  0  0  0  0
    0.6069   -1.2190   -0.2749 C   0  0  0  0  0  0  0  0  0  0  0  0
   -0.7675   -1.2537   -0.1777 C   0  0  0  0  0  0  0  0  0  0  0  0
   -1.3797    2.1410    0.1057 H   0  0  0  0  0  0  0  0  0  0  0  0
    1.1131    2.1704   -0.0730 H   0  0  0  0  0  0  0  0  0  0  0  0
    4.4664   -0.5940   -0.5014 H   0  0  0  0  0  0  0  0  0  0  0  0
    3.2279   -1.5261   -1.3884 H   0  0  0  0  0  0  0  0  0  0  0  0
    3.3481   -1.6545    0.4023 H   0  0  0  0  0  0  0  0  0  0  0  0
    1.1521   -2.1500   -0.3802 H   0  0  0  0  0  0  0  0  0  0  0  0
   -1.3083   -2.1963   -0.2050 H   0  0  0  0  0  0  0  0  0  0  0  0
  -12.0753   -0.5341    0.7497 Cl  0  0  0  0  0  0  0  0  0  0  0  0
  1  4  1  0  0  0  0
  1  2  1  0  0  0  0
  2  3  1  0  0  0  0
  4 11  1  0  0  0  0
  5 12  1  0  0  0  0
  5  4  2  0  0  0  0
  6  5  1  0  0  0  0
  7  6  1  0  0  0  0
  8  7  1  0  0  0  0
  8 15  1  0  0  0  0
  9  6  2  0  0  0  0
  9 10  1  0  0  0  0
 10  1  2  0  0  0  0
 13  8  1  0  0  0  0
 14  8  1  0  0  0  0
 16  9  1  0  0  0  0
 17 10  1  0  0  0  0
M  RAD  3   2   2   3   3  18   2
M  END
