Coordinates from ORCA-job 4-MeOPhN2+~Cl-_B3LYPG-6-31G_dp-NX-Scan-d89-09-n800
 OpenBabel11261920443D

 18 17  0  0  0  0  0  0  0  0999 V2000
   -1.4641   -0.0328   -0.0413 C   0  0  0  0  0  0  0  0  0  0  0  0
   -2.8263   -0.0662    0.0558 N   0  0  0  0  0  0  0  0  0  0  0  0
   -3.9419   -0.0900    0.1355 N   0  0  0  0  0  0  0  0  0  0  0  0
   -0.8090    1.2233   -0.0006 C   0  0  0  0  0  0  0  0  0  0  0  0
    0.5593    1.2376   -0.0988 C   0  0  0  0  0  0  0  0  0  0  0  0
    1.2857    0.0245   -0.2364 C   0  0  0  0  0  0  0  0  0  0  0  0
    2.6007    0.1618   -0.3209 O   0  0  0  0  0  0  0  0  0  0  0  0
    3.4532   -0.9913   -0.4612 C   0  0  0  0  0  0  0  0  0  0  0  0
    0.6063   -1.2188   -0.2749 C   0  0  0  0  0  0  0  0  0  0  0  0
   -0.7682   -1.2534   -0.1777 C   0  0  0  0  0  0  0  0  0  0  0  0
   -1.3800    2.1414    0.1057 H   0  0  0  0  0  0  0  0  0  0  0  0
    1.1127    2.1705   -0.0730 H   0  0  0  0  0  0  0  0  0  0  0  0
    4.4658   -0.5943   -0.5013 H   0  0  0  0  0  0  0  0  0  0  0  0
    3.2272   -1.5262   -1.3883 H   0  0  0  0  0  0  0  0  0  0  0  0
    3.3474   -1.6546    0.4023 H   0  0  0  0  0  0  0  0  0  0  0  0
    1.1513   -2.1499   -0.3801 H   0  0  0  0  0  0  0  0  0  0  0  0
   -1.3091   -2.1960   -0.2050 H   0  0  0  0  0  0  0  0  0  0  0  0
  -12.0656   -0.5364    0.7492 Cl  0  0  0  0  0  0  0  0  0  0  0  0
  1  4  1  0  0  0  0
  1  2  1  0  0  0  0
  2  3  1  0  0  0  0
  4 11  1  0  0  0  0
  5 12  1  0  0  0  0
  5  4  2  0  0  0  0
  6  5  1  0  0  0  0
  7  6  1  0  0  0  0
  8  7  1  0  0  0  0
  8 15  1  0  0  0  0
  9  6  2  0  0  0  0
  9 10  1  0  0  0  0
 10  1  2  0  0  0  0
 13  8  1  0  0  0  0
 14  8  1  0  0  0  0
 16  9  1  0  0  0  0
 17 10  1  0  0  0  0
M  RAD  3   2   2   3   3  18   2
M  END
