Coordinates from ORCA-job 4-MeOPhN2+~Cl-_B3LYPG-6-31G_dp-NX-Scan-d89-09-n800
 OpenBabel11261920533D

 18 17  0  0  0  0  0  0  0  0999 V2000
   -1.4737    1.3552   -0.4947 C   0  0  0  0  0  0  0  0  0  0  0  0
   -2.5519    2.1307   -0.6930 N   0  0  0  0  0  0  0  0  0  0  0  0
   -3.4918    2.7291   -0.8806 N   0  0  0  0  0  0  0  0  0  0  0  0
   -0.2416    1.9485   -0.0960 C   0  0  0  0  0  0  0  0  0  0  0  0
    0.8236    1.1225    0.1436 C   0  0  0  0  0  0  0  0  0  0  0  0
    0.6880   -0.2921    0.0082 C   0  0  0  0  0  0  0  0  0  0  0  0
    1.7639   -0.9932    0.3085 O   0  0  0  0  0  0  0  0  0  0  0  0
    1.7459   -2.4411    0.1697 C   0  0  0  0  0  0  0  0  0  0  0  0
   -0.5376   -0.8677   -0.4131 C   0  0  0  0  0  0  0  0  0  0  0  0
   -1.6137   -0.0532   -0.6549 C   0  0  0  0  0  0  0  0  0  0  0  0
   -0.1643    3.0241    0.0186 H   0  0  0  0  0  0  0  0  0  0  0  0
    1.7818    1.5209    0.4572 H   0  0  0  0  0  0  0  0  0  0  0  0
    2.6785   -2.7734    0.6227 H   0  0  0  0  0  0  0  0  0  0  0  0
    1.7259   -2.6973   -0.8926 H   0  0  0  0  0  0  0  0  0  0  0  0
    0.8673   -2.8826    0.6584 H   0  0  0  0  0  0  0  0  0  0  0  0
   -0.7161   -1.9637   -0.4223 H   0  0  0  0  0  0  0  0  0  0  0  0
   -2.5683   -0.4856   -0.9360 H   0  0  0  0  0  0  0  0  0  0  0  0
   -1.4705   -3.7322    0.3856 Cl  0  0  0  0  0  0  0  0  0  0  0  0
  1  4  1  0  0  0  0
  2  1  1  0  0  0  0
  3  2  1  0  0  0  0
  4 11  1  0  0  0  0
  4  5  2  0  0  0  0
  5 12  1  0  0  0  0
  6  5  1  0  0  0  0
  6  7  1  0  0  0  0
  8  7  1  0  0  0  0
  8 13  1  0  0  0  0
  8 15  1  0  0  0  0
  9  6  2  0  0  0  0
 10  1  2  0  0  0  0
 10  9  1  0  0  0  0
 14  8  1  0  0  0  0
 16  9  1  0  0  0  0
 17 10  1  0  0  0  0
M  RAD  3   2   2   3   3  18   2
M  END
