Coordinates from ORCA-job 4-MeOPhN2+~Cl-_B3LYPG-6-31G_dp-NX-Scan-d89-09-n800
 OpenBabel11261920533D

 18 17  0  0  0  0  0  0  0  0999 V2000
   -1.4625    1.3283   -0.5008 C   0  0  0  0  0  0  0  0  0  0  0  0
   -2.5728    2.0711   -0.6418 N   0  0  0  0  0  0  0  0  0  0  0  0
   -3.5471    2.6249   -0.7780 N   0  0  0  0  0  0  0  0  0  0  0  0
   -0.2427    1.9379   -0.0883 C   0  0  0  0  0  0  0  0  0  0  0  0
    0.8396    1.1265    0.1312 C   0  0  0  0  0  0  0  0  0  0  0  0
    0.7274   -0.2861   -0.0341 C   0  0  0  0  0  0  0  0  0  0  0  0
    1.8003   -0.9891    0.2845 O   0  0  0  0  0  0  0  0  0  0  0  0
    1.7542   -2.4382    0.1821 C   0  0  0  0  0  0  0  0  0  0  0  0
   -0.4773   -0.8686   -0.4922 C   0  0  0  0  0  0  0  0  0  0  0  0
   -1.5731   -0.0742   -0.7082 C   0  0  0  0  0  0  0  0  0  0  0  0
   -0.1892    3.0105    0.0603 H   0  0  0  0  0  0  0  0  0  0  0  0
    1.7874    1.5354    0.4623 H   0  0  0  0  0  0  0  0  0  0  0  0
    2.6708   -2.7799    0.6602 H   0  0  0  0  0  0  0  0  0  0  0  0
    1.7476   -2.7263   -0.8725 H   0  0  0  0  0  0  0  0  0  0  0  0
    0.8613   -2.8426    0.6747 H   0  0  0  0  0  0  0  0  0  0  0  0
   -0.6529   -1.9589   -0.5178 H   0  0  0  0  0  0  0  0  0  0  0  0
   -2.5190   -0.5277   -0.9853 H   0  0  0  0  0  0  0  0  0  0  0  0
   -1.7067   -3.4939    0.4528 Cl  0  0  0  0  0  0  0  0  0  0  0  0
  1  4  1  0  0  0  0
  2  1  1  0  0  0  0
  3  2  1  0  0  0  0
  4 11  1  0  0  0  0
  4  5  2  0  0  0  0
  5 12  1  0  0  0  0
  6  5  1  0  0  0  0
  6  7  1  0  0  0  0
  8  7  1  0  0  0  0
  8 13  1  0  0  0  0
  8 15  1  0  0  0  0
  9  6  2  0  0  0  0
 10  1  2  0  0  0  0
 10  9  1  0  0  0  0
 14  8  1  0  0  0  0
 16  9  1  0  0  0  0
 17 10  1  0  0  0  0
M  RAD  3   2   2   3   3  18   2
M  END
