Coordinates from ORCA-job 4-MeOPhN2+~Cl-_B3LYPG-6-31G_dp-NX-Scan-d89-09-n800
 OpenBabel11261920443D

 18 17  0  0  0  0  0  0  0  0999 V2000
   -1.4497   -0.0404   -0.0413 C   0  0  0  0  0  0  0  0  0  0  0  0
   -2.8122   -0.0769    0.0564 N   0  0  0  0  0  0  0  0  0  0  0  0
   -3.9278   -0.1035    0.1367 N   0  0  0  0  0  0  0  0  0  0  0  0
   -0.7976    1.2172   -0.0010 C   0  0  0  0  0  0  0  0  0  0  0  0
    0.5706    1.2346   -0.0997 C   0  0  0  0  0  0  0  0  0  0  0  0
    1.2997    0.0231   -0.2376 C   0  0  0  0  0  0  0  0  0  0  0  0
    2.6144    0.1632   -0.3225 O   0  0  0  0  0  0  0  0  0  0  0  0
    3.4694   -0.9881   -0.4630 C   0  0  0  0  0  0  0  0  0  0  0  0
    0.6230   -1.2218   -0.2758 C   0  0  0  0  0  0  0  0  0  0  0  0
   -0.7512   -1.2594   -0.1780 C   0  0  0  0  0  0  0  0  0  0  0  0
   -1.3706    2.1343    0.1056 H   0  0  0  0  0  0  0  0  0  0  0  0
    1.1220    2.1689   -0.0741 H   0  0  0  0  0  0  0  0  0  0  0  0
    4.4812   -0.5888   -0.5034 H   0  0  0  0  0  0  0  0  0  0  0  0
    3.2443   -1.5235   -1.3901 H   0  0  0  0  0  0  0  0  0  0  0  0
    3.3653   -1.6516    0.4005 H   0  0  0  0  0  0  0  0  0  0  0  0
    1.1700   -2.1520   -0.3813 H   0  0  0  0  0  0  0  0  0  0  0  0
   -1.2901   -2.2035   -0.2051 H   0  0  0  0  0  0  0  0  0  0  0  0
  -12.3154   -0.4828    0.7627 Cl  0  0  0  0  0  0  0  0  0  0  0  0
  1  4  1  0  0  0  0
  1  2  1  0  0  0  0
  2  3  1  0  0  0  0
  4 11  1  0  0  0  0
  5 12  1  0  0  0  0
  5  4  2  0  0  0  0
  6  5  1  0  0  0  0
  7  6  1  0  0  0  0
  8  7  1  0  0  0  0
  8 15  1  0  0  0  0
  9  6  2  0  0  0  0
  9 10  1  0  0  0  0
 10  1  2  0  0  0  0
 13  8  1  0  0  0  0
 14  8  1  0  0  0  0
 16  9  1  0  0  0  0
 17 10  1  0  0  0  0
M  RAD  3   2   2   3   3  18   2
M  END
