Coordinates from ORCA-job 4-MeOPhN2+~Cl-_B3LYPG-6-31G_dp-NX-Scan-d89-09-n800
 OpenBabel11261920533D

 18 17  0  0  0  0  0  0  0  0999 V2000
   -1.4957    1.3778   -0.4946 C   0  0  0  0  0  0  0  0  0  0  0  0
   -2.5232    2.1996   -0.7672 N   0  0  0  0  0  0  0  0  0  0  0  0
   -3.3861    2.8900   -1.0097 N   0  0  0  0  0  0  0  0  0  0  0  0
   -0.2524    1.9519   -0.0980 C   0  0  0  0  0  0  0  0  0  0  0  0
    0.7912    1.1106    0.1709 C   0  0  0  0  0  0  0  0  0  0  0  0
    0.6360   -0.3044    0.0565 C   0  0  0  0  0  0  0  0  0  0  0  0
    1.7193   -0.9996    0.3331 O   0  0  0  0  0  0  0  0  0  0  0  0
    1.7457   -2.4409    0.1452 C   0  0  0  0  0  0  0  0  0  0  0  0
   -0.6111   -0.8705   -0.3281 C   0  0  0  0  0  0  0  0  0  0  0  0
   -1.6671   -0.0348   -0.6005 C   0  0  0  0  0  0  0  0  0  0  0  0
   -0.1499    3.0285   -0.0175 H   0  0  0  0  0  0  0  0  0  0  0  0
    1.7575    1.4962    0.4752 H   0  0  0  0  0  0  0  0  0  0  0  0
    2.7043   -2.7535    0.5560 H   0  0  0  0  0  0  0  0  0  0  0  0
    1.6974   -2.6592   -0.9244 H   0  0  0  0  0  0  0  0  0  0  0  0
    0.8967   -2.9365    0.6386 H   0  0  0  0  0  0  0  0  0  0  0  0
   -0.7826   -1.9668   -0.3254 H   0  0  0  0  0  0  0  0  0  0  0  0
   -2.6301   -0.4480   -0.8819 H   0  0  0  0  0  0  0  0  0  0  0  0
   -1.2046   -3.9916    0.3609 Cl  0  0  0  0  0  0  0  0  0  0  0  0
  1  4  1  0  0  0  0
  2  1  1  0  0  0  0
  3  2  1  0  0  0  0
  4 11  1  0  0  0  0
  4  5  2  0  0  0  0
  5 12  1  0  0  0  0
  6  5  1  0  0  0  0
  6  7  1  0  0  0  0
  8  7  1  0  0  0  0
  8 13  1  0  0  0  0
  8 15  1  0  0  0  0
  9 16  1  0  0  0  0
  9  6  2  0  0  0  0
 10  1  2  0  0  0  0
 10  9  1  0  0  0  0
 14  8  1  0  0  0  0
 17 10  1  0  0  0  0
M  RAD  3   2   2   3   3  18   2
M  END
