Coordinates from ORCA-job 4-MeOPhN2+~Cl-_B3LYPG-6-31G_dp-NX-Scan-d89-09-n800
 OpenBabel11261920533D

 18 18  0  0  1  0  0  0  0  0999 V2000
   -1.5673    1.0546   -0.4800 C   0  0  0  0  0  0  0  0  0  0  0  0
   -2.5986    1.7811   -0.8695 N   0  0  0  0  0  0  0  0  0  0  0  0
   -3.4795    2.4077   -1.2247 N   0  0  0  0  0  0  0  0  0  0  0  0
   -0.4450    1.7057    0.1399 C   0  0  0  0  0  0  0  0  0  0  0  0
    0.6613    0.9749    0.4217 C   0  0  0  0  0  0  0  0  0  0  0  0
    0.7130   -0.4257    0.0659 C   0  0  0  0  0  0  0  0  0  0  0  0
    1.9245   -0.9842    0.2982 O   0  0  0  0  0  0  0  0  0  0  0  0
    2.0861   -2.3743    0.0363 C   0  0  0  0  0  0  0  0  0  0  0  0
   -0.3639   -1.0713   -0.4765 C   0  0  0  0  0  0  0  0  0  0  0  0
   -1.6463   -0.4048   -0.6020 C   0  0  1  0  0  0  0  0  0  0  0  0
   -0.5011    2.7661    0.3607 H   0  0  0  0  0  0  0  0  0  0  0  0
    1.5352    1.4158    0.8867 H   0  0  0  0  0  0  0  0  0  0  0  0
    3.1067   -2.6183    0.3321 H   0  0  0  0  0  0  0  0  0  0  0  0
    1.9522   -2.5957   -1.0296 H   0  0  0  0  0  0  0  0  0  0  0  0
    1.3791   -2.9718    0.6227 H   0  0  0  0  0  0  0  0  0  0  0  0
   -0.3262   -2.1193   -0.7407 H   0  0  0  0  0  0  0  0  0  0  0  0
   -2.2942   -0.7674   -1.3924 H   0  0  0  0  0  0  0  0  0  0  0  0
   -2.8907   -1.1239    0.9404 Cl  0  0  0  0  0  0  0  0  0  0  0  0
  1  4  2  0  0  0  0
  2  1  1  0  0  0  0
  3  2  1  0  0  0  0
  4 11  1  0  0  0  0
  4  5  1  0  0  0  0
  5 12  1  0  0  0  0
  6  7  1  0  0  0  0
  6  5  1  0  0  0  0
  8  7  1  0  0  0  0
  8 13  1  0  0  0  0
  8 15  1  0  0  0  0
  9  6  2  0  0  0  0
 10 17  1  6  0  0  0
 10  1  1  0  0  0  0
 10  9  1  0  0  0  0
 10 18  1  0  0  0  0
 14  8  1  0  0  0  0
 16  9  1  0  0  0  0
M  RAD  3   2   2   3   3   5   2
M  END
