Coordinates from ORCA-job 4-MeOPhN2+~Cl-_B3LYPG-6-31G_dp-NX-Scan-d89-09-n800
 OpenBabel11261920533D

 18 17  0  0  0  0  0  0  0  0999 V2000
   -1.4935    1.1665   -0.4940 C   0  0  0  0  0  0  0  0  0  0  0  0
   -2.5872    1.9035   -0.7640 N   0  0  0  0  0  0  0  0  0  0  0  0
   -3.4916    2.5430   -0.9811 N   0  0  0  0  0  0  0  0  0  0  0  0
   -0.3237    1.8409   -0.0214 C   0  0  0  0  0  0  0  0  0  0  0  0
    0.7960    1.0937    0.2116 C   0  0  0  0  0  0  0  0  0  0  0  0
    0.7823   -0.3178   -0.0026 C   0  0  0  0  0  0  0  0  0  0  0  0
    1.9377   -0.9373    0.2713 O   0  0  0  0  0  0  0  0  0  0  0  0
    1.9958   -2.3673    0.1684 C   0  0  0  0  0  0  0  0  0  0  0  0
   -0.3770   -0.9623   -0.4464 C   0  0  0  0  0  0  0  0  0  0  0  0
   -1.5341   -0.2387   -0.6972 C   0  0  0  0  0  0  0  0  0  0  0  0
   -0.3421    2.9106    0.1545 H   0  0  0  0  0  0  0  0  0  0  0  0
    1.7089    1.5490    0.5784 H   0  0  0  0  0  0  0  0  0  0  0  0
    3.0049   -2.6396    0.4753 H   0  0  0  0  0  0  0  0  0  0  0  0
    1.8218   -2.6912   -0.8628 H   0  0  0  0  0  0  0  0  0  0  0  0
    1.2623   -2.8354    0.8313 H   0  0  0  0  0  0  0  0  0  0  0  0
   -0.4589   -2.0386   -0.5329 H   0  0  0  0  0  0  0  0  0  0  0  0
   -2.4353   -0.7704   -0.9932 H   0  0  0  0  0  0  0  0  0  0  0  0
   -3.0210   -2.5596    0.3940 Cl  0  0  0  0  0  0  0  0  0  0  0  0
  1  4  1  0  0  0  0
  2  1  1  0  0  0  0
  3  2  1  0  0  0  0
  4 11  1  0  0  0  0
  4  5  2  0  0  0  0
  5 12  1  0  0  0  0
  6  5  1  0  0  0  0
  6  7  1  0  0  0  0
  8  7  1  0  0  0  0
  8 13  1  0  0  0  0
  8 15  1  0  0  0  0
  9  6  2  0  0  0  0
 10  1  2  0  0  0  0
 10  9  1  0  0  0  0
 14  8  1  0  0  0  0
 16  9  1  0  0  0  0
 17 10  1  0  0  0  0
M  RAD  3   2   2   3   3  18   2
M  END
