Coordinates from ORCA-job 4-MeOPhN2+~Cl-_B3LYPG-6-31G_dp-NX-Scan-d89-09-n800
 OpenBabel11261920533D

 18 17  0  0  0  0  0  0  0  0999 V2000
   -1.4620    1.3174   -0.5009 C   0  0  0  0  0  0  0  0  0  0  0  0
   -2.5781    2.0537   -0.6315 N   0  0  0  0  0  0  0  0  0  0  0  0
   -3.5547    2.6058   -0.7557 N   0  0  0  0  0  0  0  0  0  0  0  0
   -0.2459    1.9325   -0.0843 C   0  0  0  0  0  0  0  0  0  0  0  0
    0.8415    1.1263    0.1301 C   0  0  0  0  0  0  0  0  0  0  0  0
    0.7380   -0.2854   -0.0458 C   0  0  0  0  0  0  0  0  0  0  0  0
    1.8124   -0.9875    0.2750 O   0  0  0  0  0  0  0  0  0  0  0  0
    1.7605   -2.4363    0.1835 C   0  0  0  0  0  0  0  0  0  0  0  0
   -0.4607   -0.8706   -0.5124 C   0  0  0  0  0  0  0  0  0  0  0  0
   -1.5638   -0.0834   -0.7197 C   0  0  0  0  0  0  0  0  0  0  0  0
   -0.1999    3.0041    0.0737 H   0  0  0  0  0  0  0  0  0  0  0  0
    1.7860    1.5385    0.4665 H   0  0  0  0  0  0  0  0  0  0  0  0
    2.6740   -2.7788    0.6670 H   0  0  0  0  0  0  0  0  0  0  0  0
    1.7559   -2.7346   -0.8683 H   0  0  0  0  0  0  0  0  0  0  0  0
    0.8659   -2.8319    0.6793 H   0  0  0  0  0  0  0  0  0  0  0  0
   -0.6318   -1.9585   -0.5466 H   0  0  0  0  0  0  0  0  0  0  0  0
   -2.5066   -0.5450   -0.9935 H   0  0  0  0  0  0  0  0  0  0  0  0
   -1.7854   -3.4175    0.4728 Cl  0  0  0  0  0  0  0  0  0  0  0  0
  1  4  2  0  0  0  0
  2  1  1  0  0  0  0
  3  2  1  0  0  0  0
  4 11  1  0  0  0  0
  4  5  1  0  0  0  0
  5 12  1  0  0  0  0
  6  5  2  0  0  0  0
  6  7  1  0  0  0  0
  8  7  1  0  0  0  0
  8 13  1  0  0  0  0
  8 15  1  0  0  0  0
  9  6  1  0  0  0  0
 10  9  2  0  0  0  0
 10  1  1  0  0  0  0
 14  8  1  0  0  0  0
 16  9  1  0  0  0  0
 17 10  1  0  0  0  0
M  RAD  3   2   2   3   3  18   2
M  END
