Coordinates from ORCA-job 4-MeOPhN2+~Cl-_B3LYPG-6-31G_dp-NX-Scan-d89-09-n800
 OpenBabel11261920533D

 18 18  0  0  0  0  0  0  0  0999 V2000
   -1.5883    0.9186   -0.2673 C   0  0  0  0  0  0  0  0  0  0  0  0
   -2.6878    1.8204   -0.3554 N   0  0  0  0  0  0  0  0  0  0  0  0
   -3.8898    1.4230   -0.6214 N   0  0  0  0  0  0  0  0  0  0  0  0
   -0.3928    1.6264    0.0161 C   0  0  0  0  0  0  0  0  0  0  0  0
    0.8255    0.9940    0.1561 C   0  0  0  0  0  0  0  0  0  0  0  0
    0.9078   -0.4029    0.0186 C   0  0  0  0  0  0  0  0  0  0  0  0
    2.1468   -0.9409    0.1744 O   0  0  0  0  0  0  0  0  0  0  0  0
    2.2938   -2.3487    0.0608 C   0  0  0  0  0  0  0  0  0  0  0  0
   -0.2523   -1.1331   -0.2607 C   0  0  0  0  0  0  0  0  0  0  0  0
   -1.4835   -0.4868   -0.4025 C   0  0  0  0  0  0  0  0  0  0  0  0
   -0.4740    2.7034    0.1219 H   0  0  0  0  0  0  0  0  0  0  0  0
    1.7315    1.5499    0.3737 H   0  0  0  0  0  0  0  0  0  0  0  0
    3.3514   -2.5552    0.2294 H   0  0  0  0  0  0  0  0  0  0  0  0
    2.0107   -2.7053   -0.9378 H   0  0  0  0  0  0  0  0  0  0  0  0
    1.6975   -2.8788    0.8139 H   0  0  0  0  0  0  0  0  0  0  0  0
   -0.2165   -2.2104   -0.3736 H   0  0  0  0  0  0  0  0  0  0  0  0
   -2.3438   -1.1015   -0.6170 H   0  0  0  0  0  0  0  0  0  0  0  0
   -4.3907    0.3768   -0.8403 Cl  0  0  0  0  0  0  0  0  0  0  0  0
  1  4  1  0  0  0  0
  2  1  1  0  0  0  0
  3  2  2  0  0  0  0
  4 11  1  0  0  0  0
  4  5  2  0  0  0  0
  5 12  1  0  0  0  0
  6  5  1  0  0  0  0
  6  7  1  0  0  0  0
  8  7  1  0  0  0  0
  8 13  1  0  0  0  0
  8 15  1  0  0  0  0
  9  6  2  0  0  0  0
 10  1  2  0  0  0  0
 10  9  1  0  0  0  0
 14  8  1  0  0  0  0
 16  9  1  0  0  0  0
 17 10  1  0  0  0  0
 18  3  1  0  0  0  0
M  END
