Coordinates from ORCA-job 4-MeOPhN2+~Cl-_B3LYPG-6-31G_dp-NX-Scan-d89-09-n800
 OpenBabel11261920533D

 18 18  0  0  1  0  0  0  0  0999 V2000
   -1.5353    1.0730   -0.5101 C   0  0  0  0  0  0  0  0  0  0  0  0
   -2.6374    1.7544   -0.7593 N   0  0  0  0  0  0  0  0  0  0  0  0
   -3.6262    2.2713   -0.9713 N   0  0  0  0  0  0  0  0  0  0  0  0
   -0.4080    1.7218    0.0949 C   0  0  0  0  0  0  0  0  0  0  0  0
    0.6964    0.9874    0.3790 C   0  0  0  0  0  0  0  0  0  0  0  0
    0.7308   -0.4205    0.0523 C   0  0  0  0  0  0  0  0  0  0  0  0
    1.9315   -0.9909    0.3077 O   0  0  0  0  0  0  0  0  0  0  0  0
    2.0769   -2.3886    0.0786 C   0  0  0  0  0  0  0  0  0  0  0  0
   -0.3477   -1.0639   -0.4925 C   0  0  0  0  0  0  0  0  0  0  0  0
   -1.6148   -0.3836   -0.6656 C   0  0  1  0  0  0  0  0  0  0  0  0
   -0.4610    2.7824    0.3155 H   0  0  0  0  0  0  0  0  0  0  0  0
    1.5757    1.4273    0.8340 H   0  0  0  0  0  0  0  0  0  0  0  0
    3.0899   -2.6399    0.3939 H   0  0  0  0  0  0  0  0  0  0  0  0
    1.9546   -2.6319   -0.9838 H   0  0  0  0  0  0  0  0  0  0  0  0
    1.3536   -2.9630    0.6680 H   0  0  0  0  0  0  0  0  0  0  0  0
   -0.3125   -2.1133   -0.7516 H   0  0  0  0  0  0  0  0  0  0  0  0
   -2.2296   -0.7322   -1.4884 H   0  0  0  0  0  0  0  0  0  0  0  0
   -2.9915   -1.0408    0.7879 Cl  0  0  0  0  0  0  0  0  0  0  0  0
  1  4  2  0  0  0  0
  2  1  1  0  0  0  0
  3  2  1  0  0  0  0
  4 11  1  0  0  0  0
  4  5  1  0  0  0  0
  5 12  1  0  0  0  0
  6  7  1  0  0  0  0
  6  5  1  0  0  0  0
  8  7  1  0  0  0  0
  8 13  1  0  0  0  0
  8 15  1  0  0  0  0
  9  6  2  0  0  0  0
 10 17  1  6  0  0  0
 10  1  1  0  0  0  0
 10  9  1  0  0  0  0
 10 18  1  0  0  0  0
 14  8  1  0  0  0  0
 16  9  1  0  0  0  0
M  RAD  3   2   2   3   3   5   2
M  END
