Coordinates from ORCA-job 4-MeOPhN2+~Cl-_B3LYPG-6-31G_dp-NX-Scan-d89-09-n800
 OpenBabel11261920533D

 18 17  0  0  0  0  0  0  0  0999 V2000
   -1.4843    1.2517   -0.4396 C   0  0  0  0  0  0  0  0  0  0  0  0
   -2.5742    2.0116   -0.6698 N   0  0  0  0  0  0  0  0  0  0  0  0
   -3.4784    2.6594   -0.8578 N   0  0  0  0  0  0  0  0  0  0  0  0
   -0.2578    1.9094   -0.1212 C   0  0  0  0  0  0  0  0  0  0  0  0
    0.8499    1.1360    0.1058 C   0  0  0  0  0  0  0  0  0  0  0  0
    0.7652   -0.2835    0.0211 C   0  0  0  0  0  0  0  0  0  0  0  0
    1.8979   -0.9407    0.2620 O   0  0  0  0  0  0  0  0  0  0  0  0
    1.8862   -2.3826    0.2087 C   0  0  0  0  0  0  0  0  0  0  0  0
   -0.4538   -0.9143   -0.2889 C   0  0  0  0  0  0  0  0  0  0  0  0
   -1.5853   -0.1630   -0.5180 C   0  0  0  0  0  0  0  0  0  0  0  0
   -0.2178    2.9912   -0.0566 H   0  0  0  0  0  0  0  0  0  0  0  0
    1.8043    1.5856    0.3558 H   0  0  0  0  0  0  0  0  0  0  0  0
    2.8957   -2.6859    0.4819 H   0  0  0  0  0  0  0  0  0  0  0  0
    1.6470   -2.7268   -0.8011 H   0  0  0  0  0  0  0  0  0  0  0  0
    1.1589   -2.7923    0.9139 H   0  0  0  0  0  0  0  0  0  0  0  0
   -0.6279   -1.9980   -0.3190 H   0  0  0  0  0  0  0  0  0  0  0  0
   -2.5084   -0.7052   -0.7232 H   0  0  0  0  0  0  0  0  0  0  0  0
   -2.4717   -3.3037   -0.2650 Cl  0  0  0  0  0  0  0  0  0  0  0  0
  1  4  1  0  0  0  0
  2  1  1  0  0  0  0
  3  2  1  0  0  0  0
  4 11  1  0  0  0  0
  4  5  2  0  0  0  0
  5 12  1  0  0  0  0
  6  5  1  0  0  0  0
  6  7  1  0  0  0  0
  8  7  1  0  0  0  0
  8 13  1  0  0  0  0
  8 15  1  0  0  0  0
  9  6  2  0  0  0  0
 10  1  2  0  0  0  0
 10  9  1  0  0  0  0
 14  8  1  0  0  0  0
 16  9  1  0  0  0  0
 17 10  1  0  0  0  0
M  RAD  3   2   2   3   3  18   2
M  END
