Coordinates from ORCA-job 4-MeOPhN2+~Cl-_B3LYPG-6-31G_dp-NX-Scan-d89-09-n800
 OpenBabel11261920533D

 18 17  0  0  0  0  0  0  0  0999 V2000
   -1.4862    1.1776   -0.4845 C   0  0  0  0  0  0  0  0  0  0  0  0
   -2.5861    1.9114   -0.7435 N   0  0  0  0  0  0  0  0  0  0  0  0
   -3.4998    2.5402   -0.9492 N   0  0  0  0  0  0  0  0  0  0  0  0
   -0.3067    1.8543   -0.0434 C   0  0  0  0  0  0  0  0  0  0  0  0
    0.8125    1.1042    0.1881 C   0  0  0  0  0  0  0  0  0  0  0  0
    0.7870   -0.3107    0.0031 C   0  0  0  0  0  0  0  0  0  0  0  0
    1.9417   -0.9326    0.2689 O   0  0  0  0  0  0  0  0  0  0  0  0
    1.9926   -2.3645    0.1783 C   0  0  0  0  0  0  0  0  0  0  0  0
   -0.3852   -0.9566   -0.4092 C   0  0  0  0  0  0  0  0  0  0  0  0
   -1.5371   -0.2294   -0.6638 C   0  0  0  0  0  0  0  0  0  0  0  0
   -0.3154    2.9273    0.1121 H   0  0  0  0  0  0  0  0  0  0  0  0
    1.7338    1.5616    0.5307 H   0  0  0  0  0  0  0  0  0  0  0  0
    3.0069   -2.6371    0.4673 H   0  0  0  0  0  0  0  0  0  0  0  0
    1.7956   -2.6968   -0.8458 H   0  0  0  0  0  0  0  0  0  0  0  0
    1.2713   -2.8236    0.8604 H   0  0  0  0  0  0  0  0  0  0  0  0
   -0.4835   -2.0342   -0.4755 H   0  0  0  0  0  0  0  0  0  0  0  0
   -2.4450   -0.7752   -0.9256 H   0  0  0  0  0  0  0  0  0  0  0  0
   -3.0510   -2.6668    0.2204 Cl  0  0  0  0  0  0  0  0  0  0  0  0
  1  4  1  0  0  0  0
  2  1  1  0  0  0  0
  3  2  1  0  0  0  0
  4 11  1  0  0  0  0
  4  5  2  0  0  0  0
  5 12  1  0  0  0  0
  6  5  1  0  0  0  0
  6  7  1  0  0  0  0
  8  7  1  0  0  0  0
  8 13  1  0  0  0  0
  8 15  1  0  0  0  0
  9  6  2  0  0  0  0
 10  1  2  0  0  0  0
 10  9  1  0  0  0  0
 14  8  1  0  0  0  0
 16  9  1  0  0  0  0
 17 10  1  0  0  0  0
M  RAD  3   2   2   3   3  18   2
M  END
