Coordinates from ORCA-job 4-MeOPhN2+~Cl-_B3LYPG-6-31G_dp-NX-Scan-d89-09-n800
 OpenBabel11261920533D

 18 17  0  0  0  0  0  0  0  0999 V2000
   -1.4641    1.3359   -0.4995 C   0  0  0  0  0  0  0  0  0  0  0  0
   -2.5681    2.0853   -0.6519 N   0  0  0  0  0  0  0  0  0  0  0  0
   -3.5377    2.6449   -0.7996 N   0  0  0  0  0  0  0  0  0  0  0  0
   -0.2411    1.9414   -0.0912 C   0  0  0  0  0  0  0  0  0  0  0  0
    0.8372    1.1264    0.1327 C   0  0  0  0  0  0  0  0  0  0  0  0
    0.7186   -0.2869   -0.0242 C   0  0  0  0  0  0  0  0  0  0  0  0
    1.7916   -0.9899    0.2909 O   0  0  0  0  0  0  0  0  0  0  0  0
    1.7509   -2.4391    0.1804 C   0  0  0  0  0  0  0  0  0  0  0  0
   -0.4912   -0.8677   -0.4735 C   0  0  0  0  0  0  0  0  0  0  0  0
   -1.5818   -0.0682   -0.6959 C   0  0  0  0  0  0  0  0  0  0  0  0
   -0.1816    3.0149    0.0491 H   0  0  0  0  0  0  0  0  0  0  0  0
    1.7878    1.5328    0.4588 H   0  0  0  0  0  0  0  0  0  0  0  0
    2.6706   -2.7794    0.6535 H   0  0  0  0  0  0  0  0  0  0  0  0
    1.7417   -2.7197   -0.8760 H   0  0  0  0  0  0  0  0  0  0  0  0
    0.8604   -2.8511    0.6715 H   0  0  0  0  0  0  0  0  0  0  0  0
   -0.6691   -1.9598   -0.4938 H   0  0  0  0  0  0  0  0  0  0  0  0
   -2.5300   -0.5161   -0.9743 H   0  0  0  0  0  0  0  0  0  0  0  0
   -1.6487   -3.5547    0.4323 Cl  0  0  0  0  0  0  0  0  0  0  0  0
  1  4  1  0  0  0  0
  2  1  1  0  0  0  0
  3  2  1  0  0  0  0
  4 11  1  0  0  0  0
  4  5  2  0  0  0  0
  5 12  1  0  0  0  0
  6  5  1  0  0  0  0
  6  7  1  0  0  0  0
  8  7  1  0  0  0  0
  8 13  1  0  0  0  0
  8 15  1  0  0  0  0
  9  6  2  0  0  0  0
 10  1  2  0  0  0  0
 10  9  1  0  0  0  0
 14  8  1  0  0  0  0
 16  9  1  0  0  0  0
 17 10  1  0  0  0  0
M  RAD  3   2   2   3   3  18   2
M  END
