Coordinates from ORCA-job 4-MeOPhN2+~Cl-_B3LYPG-6-31G_dp-NX-Scan-d89-09-n800
 OpenBabel11261920533D

 18 17  0  0  0  0  0  0  0  0999 V2000
   -1.4743    1.3556   -0.4946 C   0  0  0  0  0  0  0  0  0  0  0  0
   -2.5512    2.1322   -0.6948 N   0  0  0  0  0  0  0  0  0  0  0  0
   -3.4894    2.7328   -0.8839 N   0  0  0  0  0  0  0  0  0  0  0  0
   -0.2419    1.9486   -0.0960 C   0  0  0  0  0  0  0  0  0  0  0  0
    0.8229    1.1223    0.1442 C   0  0  0  0  0  0  0  0  0  0  0  0
    0.6868   -0.2924    0.0094 C   0  0  0  0  0  0  0  0  0  0  0  0
    1.7628   -0.9934    0.3091 O   0  0  0  0  0  0  0  0  0  0  0  0
    1.7460   -2.4411    0.1690 C   0  0  0  0  0  0  0  0  0  0  0  0
   -0.5393   -0.8677   -0.4108 C   0  0  0  0  0  0  0  0  0  0  0  0
   -1.6149   -0.0529   -0.6533 C   0  0  0  0  0  0  0  0  0  0  0  0
   -0.1640    3.0242    0.0176 H   0  0  0  0  0  0  0  0  0  0  0  0
    1.7813    1.5204    0.4575 H   0  0  0  0  0  0  0  0  0  0  0  0
    2.6792   -2.7729    0.6212 H   0  0  0  0  0  0  0  0  0  0  0  0
    1.7257   -2.6963   -0.8936 H   0  0  0  0  0  0  0  0  0  0  0  0
    0.8680   -2.8842    0.6575 H   0  0  0  0  0  0  0  0  0  0  0  0
   -0.7173   -1.9638   -0.4198 H   0  0  0  0  0  0  0  0  0  0  0  0
   -2.5698   -0.4849   -0.9345 H   0  0  0  0  0  0  0  0  0  0  0  0
   -1.4652   -3.7377    0.3847 Cl  0  0  0  0  0  0  0  0  0  0  0  0
  1  4  1  0  0  0  0
  2  1  1  0  0  0  0
  3  2  1  0  0  0  0
  4 11  1  0  0  0  0
  4  5  2  0  0  0  0
  5 12  1  0  0  0  0
  6  5  1  0  0  0  0
  6  7  1  0  0  0  0
  8  7  1  0  0  0  0
  8 13  1  0  0  0  0
  8 15  1  0  0  0  0
  9  6  2  0  0  0  0
 10  1  2  0  0  0  0
 10  9  1  0  0  0  0
 14  8  1  0  0  0  0
 16  9  1  0  0  0  0
 17 10  1  0  0  0  0
M  RAD  3   2   2   3   3  18   2
M  END
