Coordinates from ORCA-job 4-MeOPhN2+~Cl-_B3LYPG-6-31G_dp-NX-Scan-d89-09-n800
 OpenBabel11261920533D

 18 17  0  0  0  0  0  0  0  0999 V2000
   -1.5007   -0.0032   -0.0420 C   0  0  0  0  0  0  0  0  0  0  0  0
   -2.8620   -0.0236    0.0527 N   0  0  0  0  0  0  0  0  0  0  0  0
   -3.9777   -0.0360    0.1306 N   0  0  0  0  0  0  0  0  0  0  0  0
   -0.8340    1.2469   -0.0005 C   0  0  0  0  0  0  0  0  0  0  0  0
    0.5346    1.2490   -0.0967 C   0  0  0  0  0  0  0  0  0  0  0  0
    1.2505    0.0298   -0.2333 C   0  0  0  0  0  0  0  0  0  0  0  0
    2.5666    0.1556   -0.3162 O   0  0  0  0  0  0  0  0  0  0  0  0
    3.4090   -1.0048   -0.4557 C   0  0  0  0  0  0  0  0  0  0  0  0
    0.5600   -1.2074   -0.2726 C   0  0  0  0  0  0  0  0  0  0  0  0
   -0.8152   -1.2299   -0.1773 C   0  0  0  0  0  0  0  0  0  0  0  0
   -1.3967    2.1693    0.1050 H   0  0  0  0  0  0  0  0  0  0  0  0
    1.0964    2.1764   -0.0702 H   0  0  0  0  0  0  0  0  0  0  0  0
    4.4250   -0.6164   -0.4950 H   0  0  0  0  0  0  0  0  0  0  0  0
    3.1793   -1.5377   -1.3831 H   0  0  0  0  0  0  0  0  0  0  0  0
    3.2968   -1.6671    0.4078 H   0  0  0  0  0  0  0  0  0  0  0  0
    1.0971   -2.1424   -0.3771 H   0  0  0  0  0  0  0  0  0  0  0  0
   -1.3641   -2.1668   -0.2052 H   0  0  0  0  0  0  0  0  0  0  0  0
  -11.4194   -0.7429    0.7179 Cl  0  0  0  0  0  0  0  0  0  0  0  0
  1  4  1  0  0  0  0
  1  2  1  0  0  0  0
  2  3  1  0  0  0  0
  4 11  1  0  0  0  0
  5 12  1  0  0  0  0
  5  4  2  0  0  0  0
  6  5  1  0  0  0  0
  7  6  1  0  0  0  0
  8  7  1  0  0  0  0
  8 15  1  0  0  0  0
  9  6  2  0  0  0  0
  9 10  1  0  0  0  0
 10  1  2  0  0  0  0
 13  8  1  0  0  0  0
 14  8  1  0  0  0  0
 16  9  1  0  0  0  0
 17 10  1  0  0  0  0
M  RAD  3   2   2   3   3  18   2
M  END
