Coordinates from ORCA-job 4-MeOPhN2+~Cl-_B3LYPG-6-31G_dp-NX-Scan-d89-09-n800
 OpenBabel11261920533D

 18 17  0  0  0  0  0  0  0  0999 V2000
   -1.4342    1.0543   -0.2408 C   0  0  0  0  0  0  0  0  0  0  0  0
   -2.6242    1.7457   -0.3725 N   0  0  0  0  0  0  0  0  0  0  0  0
   -3.7361    1.8879   -0.5418 N   0  0  0  0  0  0  0  0  0  0  0  0
   -0.2449    1.7635    0.0169 C   0  0  0  0  0  0  0  0  0  0  0  0
    0.9243    1.0470    0.1425 C   0  0  0  0  0  0  0  0  0  0  0  0
    0.9106   -0.3628    0.0136 C   0  0  0  0  0  0  0  0  0  0  0  0
    2.1061   -0.9570    0.1568 O   0  0  0  0  0  0  0  0  0  0  0  0
    2.1972   -2.3809    0.0550 C   0  0  0  0  0  0  0  0  0  0  0  0
   -0.2929   -1.0464   -0.2447 C   0  0  0  0  0  0  0  0  0  0  0  0
   -1.4819   -0.3444   -0.3750 C   0  0  0  0  0  0  0  0  0  0  0  0
   -0.2585    2.8439    0.1137 H   0  0  0  0  0  0  0  0  0  0  0  0
    1.8700    1.5375    0.3421 H   0  0  0  0  0  0  0  0  0  0  0  0
    3.2480   -2.6189    0.2161 H   0  0  0  0  0  0  0  0  0  0  0  0
    1.8905   -2.7260   -0.9383 H   0  0  0  0  0  0  0  0  0  0  0  0
    1.5879   -2.8706    0.8219 H   0  0  0  0  0  0  0  0  0  0  0  0
   -0.3124   -2.1245   -0.3465 H   0  0  0  0  0  0  0  0  0  0  0  0
   -2.4509   -0.8260   -0.5764 H   0  0  0  0  0  0  0  0  0  0  0  0
   -4.6532   -0.9733   -0.9535 Cl  0  0  0  0  0  0  0  0  0  0  0  0
  1  4  2  0  0  0  0
  2  1  1  0  0  0  0
  3  2  1  0  0  0  0
  4 11  1  0  0  0  0
  4  5  1  0  0  0  0
  5 12  1  0  0  0  0
  6  5  2  0  0  0  0
  6  7  1  0  0  0  0
  8  7  1  0  0  0  0
  8 13  1  0  0  0  0
  8 15  1  0  0  0  0
  9  6  1  0  0  0  0
 10  9  2  0  0  0  0
 10  1  1  0  0  0  0
 14  8  1  0  0  0  0
 16  9  1  0  0  0  0
 17 10  1  0  0  0  0
M  RAD  3   2   2   3   3  18   2
M  END
