Coordinates from ORCA-job 4-MeOPhN2+~Cl-_B3LYPG-6-31G_dp-NX-Scan-d89-09-n800
 OpenBabel11261920533D

 18 17  0  0  0  0  0  0  0  0999 V2000
   -1.4850    1.2348   -0.4371 C   0  0  0  0  0  0  0  0  0  0  0  0
   -2.5793    1.9887   -0.6698 N   0  0  0  0  0  0  0  0  0  0  0  0
   -3.4846    2.6343   -0.8584 N   0  0  0  0  0  0  0  0  0  0  0  0
   -0.2621    1.9004   -0.1204 C   0  0  0  0  0  0  0  0  0  0  0  0
    0.8496    1.1330    0.1049 C   0  0  0  0  0  0  0  0  0  0  0  0
    0.7731   -0.2874    0.0227 C   0  0  0  0  0  0  0  0  0  0  0  0
    1.9139   -0.9346    0.2603 O   0  0  0  0  0  0  0  0  0  0  0  0
    1.9158   -2.3747    0.2142 C   0  0  0  0  0  0  0  0  0  0  0  0
   -0.4430   -0.9243   -0.2815 C   0  0  0  0  0  0  0  0  0  0  0  0
   -1.5803   -0.1795   -0.5141 C   0  0  0  0  0  0  0  0  0  0  0  0
   -0.2277    2.9824   -0.0560 H   0  0  0  0  0  0  0  0  0  0  0  0
    1.8024    1.5873    0.3527 H   0  0  0  0  0  0  0  0  0  0  0  0
    2.9341   -2.6675    0.4657 H   0  0  0  0  0  0  0  0  0  0  0  0
    1.6575   -2.7286   -0.7878 H   0  0  0  0  0  0  0  0  0  0  0  0
    1.2110   -2.7877    0.9404 H   0  0  0  0  0  0  0  0  0  0  0  0
   -0.6067   -2.0053   -0.3124 H   0  0  0  0  0  0  0  0  0  0  0  0
   -2.4985   -0.7355   -0.7172 H   0  0  0  0  0  0  0  0  0  0  0  0
   -2.6447   -3.1868   -0.3170 Cl  0  0  0  0  0  0  0  0  0  0  0  0
  1  4  1  0  0  0  0
  2  1  1  0  0  0  0
  3  2  1  0  0  0  0
  4 11  1  0  0  0  0
  4  5  2  0  0  0  0
  5 12  1  0  0  0  0
  6  5  1  0  0  0  0
  6  7  1  0  0  0  0
  8  7  1  0  0  0  0
  8 13  1  0  0  0  0
  8 15  1  0  0  0  0
  9  6  2  0  0  0  0
 10  1  2  0  0  0  0
 10  9  1  0  0  0  0
 14  8  1  0  0  0  0
 16  9  1  0  0  0  0
 17 10  1  0  0  0  0
M  RAD  3   2   2   3   3  18   2
M  END
