Coordinates from ORCA-job 4-MeOPhN2+~Cl-_B3LYPG-6-31G_dp-NX-Scan-d89-09-n800
 OpenBabel11261920533D

 18 17  0  0  0  0  0  0  0  0999 V2000
   -1.4813    0.9842   -0.2554 C   0  0  0  0  0  0  0  0  0  0  0  0
   -2.6579    1.7245   -0.3798 N   0  0  0  0  0  0  0  0  0  0  0  0
   -3.8043    1.6899   -0.5701 N   0  0  0  0  0  0  0  0  0  0  0  0
   -0.3009    1.7052    0.0025 C   0  0  0  0  0  0  0  0  0  0  0  0
    0.8931    1.0259    0.1358 C   0  0  0  0  0  0  0  0  0  0  0  0
    0.9212   -0.3788    0.0136 C   0  0  0  0  0  0  0  0  0  0  0  0
    2.1352   -0.9469    0.1627 O   0  0  0  0  0  0  0  0  0  0  0  0
    2.2540   -2.3653    0.0663 C   0  0  0  0  0  0  0  0  0  0  0  0
   -0.2643   -1.0901   -0.2453 C   0  0  0  0  0  0  0  0  0  0  0  0
   -1.4701   -0.4137   -0.3807 C   0  0  0  0  0  0  0  0  0  0  0  0
   -0.3447    2.7852    0.0947 H   0  0  0  0  0  0  0  0  0  0  0  0
    1.8223    1.5471    0.3360 H   0  0  0  0  0  0  0  0  0  0  0  0
    3.3088   -2.5849    0.2300 H   0  0  0  0  0  0  0  0  0  0  0  0
    1.9566   -2.7234   -0.9261 H   0  0  0  0  0  0  0  0  0  0  0  0
    1.6536   -2.8678    0.8330 H   0  0  0  0  0  0  0  0  0  0  0  0
   -0.2559   -2.1686   -0.3434 H   0  0  0  0  0  0  0  0  0  0  0  0
   -2.4017   -0.9330   -0.5799 H   0  0  0  0  0  0  0  0  0  0  0  0
   -4.7182   -0.3405   -0.9047 Cl  0  0  0  0  0  0  0  0  0  0  0  0
  1  4  1  0  0  0  0
  2  1  1  0  0  0  0
  3  2  2  0  0  0  0
  4 11  1  0  0  0  0
  4  5  2  0  0  0  0
  5 12  1  0  0  0  0
  6  5  1  0  0  0  0
  6  7  1  0  0  0  0
  8  7  1  0  0  0  0
  8 13  1  0  0  0  0
  8 15  1  0  0  0  0
  9  6  2  0  0  0  0
 10  1  2  0  0  0  0
 10  9  1  0  0  0  0
 14  8  1  0  0  0  0
 16  9  1  0  0  0  0
 17 10  1  0  0  0  0
M  RAD  2   3   2  18   2
M  END
