Coordinates from ORCA-job 4-MeOPhN2+~Cl-_B3LYPG-6-31G_dp-NX-Scan-d89-09-n800
 OpenBabel11261920443D

 18 17  0  0  0  0  0  0  0  0999 V2000
   -1.4575   -0.0365   -0.0413 C   0  0  0  0  0  0  0  0  0  0  0  0
   -2.8198   -0.0714    0.0561 N   0  0  0  0  0  0  0  0  0  0  0  0
   -3.9354   -0.0966    0.1361 N   0  0  0  0  0  0  0  0  0  0  0  0
   -0.8038    1.2203   -0.0008 C   0  0  0  0  0  0  0  0  0  0  0  0
    0.5644    1.2361   -0.0992 C   0  0  0  0  0  0  0  0  0  0  0  0
    1.2922    0.0238   -0.2370 C   0  0  0  0  0  0  0  0  0  0  0  0
    2.6070    0.1625   -0.3217 O   0  0  0  0  0  0  0  0  0  0  0  0
    3.4608   -0.9897   -0.4620 C   0  0  0  0  0  0  0  0  0  0  0  0
    0.6141   -1.2203   -0.2753 C   0  0  0  0  0  0  0  0  0  0  0  0
   -0.7603   -1.2564   -0.1778 C   0  0  0  0  0  0  0  0  0  0  0  0
   -1.3759    2.1379    0.1057 H   0  0  0  0  0  0  0  0  0  0  0  0
    1.1168    2.1697   -0.0735 H   0  0  0  0  0  0  0  0  0  0  0  0
    4.4729   -0.5915   -0.5022 H   0  0  0  0  0  0  0  0  0  0  0  0
    3.2353   -1.5248   -1.3892 H   0  0  0  0  0  0  0  0  0  0  0  0
    3.3558   -1.6531    0.4015 H   0  0  0  0  0  0  0  0  0  0  0  0
    1.1601   -2.1510   -0.3807 H   0  0  0  0  0  0  0  0  0  0  0  0
   -1.3002   -2.1997   -0.2050 H   0  0  0  0  0  0  0  0  0  0  0  0
  -12.1811   -0.5102    0.7554 Cl  0  0  0  0  0  0  0  0  0  0  0  0
  1  4  1  0  0  0  0
  1  2  1  0  0  0  0
  2  3  1  0  0  0  0
  4 11  1  0  0  0  0
  5 12  1  0  0  0  0
  5  4  2  0  0  0  0
  6  5  1  0  0  0  0
  7  6  1  0  0  0  0
  8  7  1  0  0  0  0
  8 15  1  0  0  0  0
  9  6  2  0  0  0  0
  9 10  1  0  0  0  0
 10  1  2  0  0  0  0
 13  8  1  0  0  0  0
 14  8  1  0  0  0  0
 16  9  1  0  0  0  0
 17 10  1  0  0  0  0
M  RAD  3   2   2   3   3  18   2
M  END
