Coordinates from ORCA-job 4-MeOPhN2+~Cl-_B3LYPG-6-31G_dp-NX-Scan-d89-09-n800
 OpenBabel11261920533D

 18 17  0  0  0  0  0  0  0  0999 V2000
   -1.4692    1.3477   -0.4965 C   0  0  0  0  0  0  0  0  0  0  0  0
   -2.5589    2.1121   -0.6746 N   0  0  0  0  0  0  0  0  0  0  0  0
   -3.5131    2.6920   -0.8454 N   0  0  0  0  0  0  0  0  0  0  0  0
   -0.2407    1.9462   -0.0945 C   0  0  0  0  0  0  0  0  0  0  0  0
    0.8301    1.1246    0.1380 C   0  0  0  0  0  0  0  0  0  0  0  0
    0.7012   -0.2896   -0.0055 C   0  0  0  0  0  0  0  0  0  0  0  0
    1.7756   -0.9916    0.3013 O   0  0  0  0  0  0  0  0  0  0  0  0
    1.7472   -2.4403    0.1751 C   0  0  0  0  0  0  0  0  0  0  0  0
   -0.5179   -0.8674   -0.4383 C   0  0  0  0  0  0  0  0  0  0  0  0
   -1.5999   -0.0590   -0.6719 C   0  0  0  0  0  0  0  0  0  0  0  0
   -0.1707    3.0210    0.0306 H   0  0  0  0  0  0  0  0  0  0  0  0
    1.7854    1.5265    0.4562 H   0  0  0  0  0  0  0  0  0  0  0  0
    2.6741   -2.7765    0.6368 H   0  0  0  0  0  0  0  0  0  0  0  0
    1.7318   -2.7071   -0.8848 H   0  0  0  0  0  0  0  0  0  0  0  0
    0.8631   -2.8685    0.6648 H   0  0  0  0  0  0  0  0  0  0  0  0
   -0.6968   -1.9622   -0.4517 H   0  0  0  0  0  0  0  0  0  0  0  0
   -2.5520   -0.4976   -0.9522 H   0  0  0  0  0  0  0  0  0  0  0  0
   -1.5438   -3.6612    0.4017 Cl  0  0  0  0  0  0  0  0  0  0  0  0
  1  4  1  0  0  0  0
  2  1  1  0  0  0  0
  3  2  1  0  0  0  0
  4 11  1  0  0  0  0
  4  5  2  0  0  0  0
  5 12  1  0  0  0  0
  6  5  1  0  0  0  0
  6  7  1  0  0  0  0
  8  7  1  0  0  0  0
  8 13  1  0  0  0  0
  8 15  1  0  0  0  0
  9  6  2  0  0  0  0
 10  1  2  0  0  0  0
 10  9  1  0  0  0  0
 14  8  1  0  0  0  0
 16  9  1  0  0  0  0
 17 10  1  0  0  0  0
M  RAD  3   2   2   3   3  18   2
M  END
