Coordinates from ORCA-job 4-MeOPhN2+~Cl-_B3LYPG-6-31G_dp-NX-Scan-d89-09-n800
 OpenBabel11261920443D

 18 17  0  0  0  0  0  0  0  0999 V2000
   -1.4369   -0.0458   -0.0415 C   0  0  0  0  0  0  0  0  0  0  0  0
   -2.7997   -0.0847    0.0569 N   0  0  0  0  0  0  0  0  0  0  0  0
   -3.9154   -0.1133    0.1377 N   0  0  0  0  0  0  0  0  0  0  0  0
   -0.7869    1.2129   -0.0014 C   0  0  0  0  0  0  0  0  0  0  0  0
    0.5812    1.2324   -0.1005 C   0  0  0  0  0  0  0  0  0  0  0  0
    1.3122    0.0220   -0.2387 C   0  0  0  0  0  0  0  0  0  0  0  0
    2.6266    0.1642   -0.3239 O   0  0  0  0  0  0  0  0  0  0  0  0
    3.4835   -0.9858   -0.4645 C   0  0  0  0  0  0  0  0  0  0  0  0
    0.6374   -1.2240   -0.2767 C   0  0  0  0  0  0  0  0  0  0  0  0
   -0.7366   -1.2637   -0.1785 C   0  0  0  0  0  0  0  0  0  0  0  0
   -1.3615    2.1292    0.1054 H   0  0  0  0  0  0  0  0  0  0  0  0
    1.1310    2.1678   -0.0752 H   0  0  0  0  0  0  0  0  0  0  0  0
    4.4946   -0.5850   -0.5051 H   0  0  0  0  0  0  0  0  0  0  0  0
    3.2590   -1.5217   -1.3915 H   0  0  0  0  0  0  0  0  0  0  0  0
    3.3805   -1.6495    0.3990 H   0  0  0  0  0  0  0  0  0  0  0  0
    1.1858   -2.1536   -0.3824 H   0  0  0  0  0  0  0  0  0  0  0  0
   -1.2741   -2.2090   -0.2054 H   0  0  0  0  0  0  0  0  0  0  0  0
  -12.5352   -0.4435    0.7753 Cl  0  0  0  0  0  0  0  0  0  0  0  0
  1  4  1  0  0  0  0
  1  2  1  0  0  0  0
  2  3  1  0  0  0  0
  4 11  1  0  0  0  0
  5 12  1  0  0  0  0
  5  4  2  0  0  0  0
  6  5  1  0  0  0  0
  7  6  1  0  0  0  0
  8  7  1  0  0  0  0
  8 15  1  0  0  0  0
  9  6  2  0  0  0  0
  9 10  1  0  0  0  0
 10  1  2  0  0  0  0
 13  8  1  0  0  0  0
 14  8  1  0  0  0  0
 16  9  1  0  0  0  0
 17 10  1  0  0  0  0
M  RAD  3   2   2   3   3  18   2
M  END
