Coordinates from ORCA-job 4-MeOPhN2+~Cl-_B3LYPG-6-31G_dp-NX-Scan-d89-09-n800
 OpenBabel11261920533D

 18 17  0  0  0  0  0  0  0  0999 V2000
   -1.4634    1.3324   -0.5001 C   0  0  0  0  0  0  0  0  0  0  0  0
   -2.5702    2.0790   -0.6475 N   0  0  0  0  0  0  0  0  0  0  0  0
   -3.5418    2.6362   -0.7901 N   0  0  0  0  0  0  0  0  0  0  0  0
   -0.2419    1.9398   -0.0899 C   0  0  0  0  0  0  0  0  0  0  0  0
    0.8382    1.1265    0.1321 C   0  0  0  0  0  0  0  0  0  0  0  0
    0.7225   -0.2865   -0.0285 C   0  0  0  0  0  0  0  0  0  0  0  0
    1.7954   -0.9896    0.2881 O   0  0  0  0  0  0  0  0  0  0  0  0
    1.7524   -2.4387    0.1810 C   0  0  0  0  0  0  0  0  0  0  0  0
   -0.4850   -0.8681   -0.4818 C   0  0  0  0  0  0  0  0  0  0  0  0
   -1.5780   -0.0709   -0.7015 C   0  0  0  0  0  0  0  0  0  0  0  0
   -0.1851    3.0130    0.0542 H   0  0  0  0  0  0  0  0  0  0  0  0
    1.7876    1.5340    0.4605 H   0  0  0  0  0  0  0  0  0  0  0  0
    2.6707   -2.7796    0.6564 H   0  0  0  0  0  0  0  0  0  0  0  0
    1.7446   -2.7226   -0.8746 H   0  0  0  0  0  0  0  0  0  0  0  0
    0.8609   -2.8477    0.6726 H   0  0  0  0  0  0  0  0  0  0  0  0
   -0.6617   -1.9593   -0.5044 H   0  0  0  0  0  0  0  0  0  0  0  0
   -2.5251   -0.5213   -0.9794 H   0  0  0  0  0  0  0  0  0  0  0  0
   -1.6747   -3.5275    0.4421 Cl  0  0  0  0  0  0  0  0  0  0  0  0
  1  4  1  0  0  0  0
  2  1  1  0  0  0  0
  3  2  1  0  0  0  0
  4 11  1  0  0  0  0
  4  5  2  0  0  0  0
  5 12  1  0  0  0  0
  6  5  1  0  0  0  0
  6  7  1  0  0  0  0
  8  7  1  0  0  0  0
  8 13  1  0  0  0  0
  8 15  1  0  0  0  0
  9  6  2  0  0  0  0
 10  1  2  0  0  0  0
 10  9  1  0  0  0  0
 14  8  1  0  0  0  0
 16  9  1  0  0  0  0
 17 10  1  0  0  0  0
M  RAD  3   2   2   3   3  18   2
M  END
