Coordinates from ORCA-job 4-MeOPhN2+~Cl-_B3LYPG-6-31G_dp-NX-Scan-d89-09-n800
 OpenBabel11261920533D

 18 17  0  0  0  0  0  0  0  0999 V2000
   -1.4821    1.0988   -0.5543 C   0  0  0  0  0  0  0  0  0  0  0  0
   -2.6573    1.7102   -0.6448 N   0  0  0  0  0  0  0  0  0  0  0  0
   -3.7478    2.0078   -0.6583 N   0  0  0  0  0  0  0  0  0  0  0  0
   -0.3598    1.7472    0.0423 C   0  0  0  0  0  0  0  0  0  0  0  0
    0.7460    1.0067    0.3259 C   0  0  0  0  0  0  0  0  0  0  0  0
    0.7636   -0.4006    0.0250 C   0  0  0  0  0  0  0  0  0  0  0  0
    1.9380   -0.9954    0.3204 O   0  0  0  0  0  0  0  0  0  0  0  0
    2.0576   -2.4038    0.1301 C   0  0  0  0  0  0  0  0  0  0  0  0
   -0.3187   -1.0349   -0.5482 C   0  0  0  0  0  0  0  0  0  0  0  0
   -1.5365   -0.3324   -0.7835 C   0  0  0  0  0  0  0  0  0  0  0  0
   -0.4139    2.8043    0.2776 H   0  0  0  0  0  0  0  0  0  0  0  0
    1.6262    1.4435    0.7821 H   0  0  0  0  0  0  0  0  0  0  0  0
    3.0525   -2.6684    0.4884 H   0  0  0  0  0  0  0  0  0  0  0  0
    1.9689   -2.6689   -0.9298 H   0  0  0  0  0  0  0  0  0  0  0  0
    1.3000   -2.9448    0.7070 H   0  0  0  0  0  0  0  0  0  0  0  0
   -0.2869   -2.0848   -0.8059 H   0  0  0  0  0  0  0  0  0  0  0  0
   -2.1973   -0.7012   -1.5549 H   0  0  0  0  0  0  0  0  0  0  0  0
   -3.2070   -0.9342    0.6700 Cl  0  0  0  0  0  0  0  0  0  0  0  0
  1  4  1  0  0  0  0
  2  1  1  0  0  0  0
  3  2  1  0  0  0  0
  4 11  1  0  0  0  0
  4  5  2  0  0  0  0
  5 12  1  0  0  0  0
  6  7  1  0  0  0  0
  6  5  1  0  0  0  0
  8  7  1  0  0  0  0
  8 13  1  0  0  0  0
  8 15  1  0  0  0  0
  9  6  2  0  0  0  0
 10  1  2  0  0  0  0
 10  9  1  0  0  0  0
 14  8  1  0  0  0  0
 16  9  1  0  0  0  0
 17 10  1  0  0  0  0
M  RAD  3   2   2   3   3  18   2
M  END
