Coordinates from ORCA-job 4-MeOPhN2+~Cl-_B3LYPG-6-31G_dp-NX-Scan-d89-09-n800
 OpenBabel11261920533D

 18 18  0  0  1  0  0  0  0  0999 V2000
   -1.5168    1.0851   -0.5257 C   0  0  0  0  0  0  0  0  0  0  0  0
   -2.6513    1.7374   -0.7017 N   0  0  0  0  0  0  0  0  0  0  0  0
   -3.6906    2.1720   -0.8348 N   0  0  0  0  0  0  0  0  0  0  0  0
   -0.3873    1.7327    0.0716 C   0  0  0  0  0  0  0  0  0  0  0  0
    0.7162    0.9957    0.3557 C   0  0  0  0  0  0  0  0  0  0  0  0
    0.7405   -0.4150    0.0439 C   0  0  0  0  0  0  0  0  0  0  0  0
    1.9338   -0.9933    0.3121 O   0  0  0  0  0  0  0  0  0  0  0  0
    2.0690   -2.3952    0.1007 C   0  0  0  0  0  0  0  0  0  0  0  0
   -0.3398   -1.0564   -0.5038 C   0  0  0  0  0  0  0  0  0  0  0  0
   -1.5946   -0.3677   -0.7034 C   0  0  1  0  0  0  0  0  0  0  0  0
   -0.4387    2.7929    0.2939 H   0  0  0  0  0  0  0  0  0  0  0  0
    1.5984    1.4341    0.8065 H   0  0  0  0  0  0  0  0  0  0  0  0
    3.0770   -2.6512    0.4277 H   0  0  0  0  0  0  0  0  0  0  0  0
    1.9538   -2.6497   -0.9598 H   0  0  0  0  0  0  0  0  0  0  0  0
    1.3355   -2.9561    0.6904 H   0  0  0  0  0  0  0  0  0  0  0  0
   -0.3065   -2.1065   -0.7603 H   0  0  0  0  0  0  0  0  0  0  0  0
   -2.1996   -0.7120   -1.5347 H   0  0  0  0  0  0  0  0  0  0  0  0
   -3.0539   -0.9976    0.7108 Cl  0  0  0  0  0  0  0  0  0  0  0  0
  1  4  2  0  0  0  0
  2  1  1  0  0  0  0
  3  2  1  0  0  0  0
  4 11  1  0  0  0  0
  4  5  1  0  0  0  0
  5 12  1  0  0  0  0
  6  7  1  0  0  0  0
  6  5  1  0  0  0  0
  8  7  1  0  0  0  0
  8 13  1  0  0  0  0
  8 15  1  0  0  0  0
  9  6  2  0  0  0  0
 10 17  1  6  0  0  0
 10  1  1  0  0  0  0
 10  9  1  0  0  0  0
 10 18  1  0  0  0  0
 14  8  1  0  0  0  0
 16  9  1  0  0  0  0
M  RAD  3   2   2   3   3   5   2
M  END
