Coordinates from ORCA-job 4-MeOPhN2+~Cl-_B3LYPG-6-31G_dp-NX-Scan-d89-09-n800
 OpenBabel11261920533D

 18 18  0  0  1  0  0  0  0  0999 V2000
   -1.5707    1.0529   -0.4767 C   0  0  0  0  0  0  0  0  0  0  0  0
   -2.5935    1.7835   -0.8816 N   0  0  0  0  0  0  0  0  0  0  0  0
   -3.4617    2.4199   -1.2510 N   0  0  0  0  0  0  0  0  0  0  0  0
   -0.4490    1.7043    0.1447 C   0  0  0  0  0  0  0  0  0  0  0  0
    0.6576    0.9737    0.4261 C   0  0  0  0  0  0  0  0  0  0  0  0
    0.7111   -0.4259    0.0671 C   0  0  0  0  0  0  0  0  0  0  0  0
    1.9235   -0.9833    0.2971 O   0  0  0  0  0  0  0  0  0  0  0  0
    2.0867   -2.3726    0.0318 C   0  0  0  0  0  0  0  0  0  0  0  0
   -0.3658   -1.0717   -0.4751 C   0  0  0  0  0  0  0  0  0  0  0  0
   -1.6492   -0.4066   -0.5958 C   0  0  1  0  0  0  0  0  0  0  0  0
   -0.5054    2.7646    0.3658 H   0  0  0  0  0  0  0  0  0  0  0  0
    1.5308    1.4146    0.8922 H   0  0  0  0  0  0  0  0  0  0  0  0
    3.1080   -2.6159    0.3257 H   0  0  0  0  0  0  0  0  0  0  0  0
    1.9515   -2.5918   -1.0344 H   0  0  0  0  0  0  0  0  0  0  0  0
    1.3813   -2.9724    0.6178 H   0  0  0  0  0  0  0  0  0  0  0  0
   -0.3279   -2.1195   -0.7397 H   0  0  0  0  0  0  0  0  0  0  0  0
   -2.3015   -0.7710   -1.3817 H   0  0  0  0  0  0  0  0  0  0  0  0
   -2.8805   -1.1339    0.9571 Cl  0  0  0  0  0  0  0  0  0  0  0  0
  1  4  2  0  0  0  0
  2  1  1  0  0  0  0
  3  2  1  0  0  0  0
  4 11  1  0  0  0  0
  4  5  1  0  0  0  0
  5 12  1  0  0  0  0
  6  7  1  0  0  0  0
  6  5  1  0  0  0  0
  8  7  1  0  0  0  0
  8 13  1  0  0  0  0
  8 15  1  0  0  0  0
  9  6  2  0  0  0  0
 10 17  1  6  0  0  0
 10  1  1  0  0  0  0
 10  9  1  0  0  0  0
 10 18  1  0  0  0  0
 14  8  1  0  0  0  0
 16  9  1  0  0  0  0
M  RAD  3   2   2   3   3   5   2
M  END
