Coordinates from ORCA-job 4-MeOPhN2+~Cl-_B3LYPG-6-31G_dp-NX-Scan-d89-09-n800
 OpenBabel11261920533D

 18 18  0  0  1  0  0  0  0  0999 V2000
   -1.5630    1.0568   -0.4841 C   0  0  0  0  0  0  0  0  0  0  0  0
   -2.6047    1.7779   -0.8546 N   0  0  0  0  0  0  0  0  0  0  0  0
   -3.5012    2.3919   -1.1916 N   0  0  0  0  0  0  0  0  0  0  0  0
   -0.4401    1.7076    0.1339 C   0  0  0  0  0  0  0  0  0  0  0  0
    0.6659    0.9763    0.4162 C   0  0  0  0  0  0  0  0  0  0  0  0
    0.7155   -0.4253    0.0643 C   0  0  0  0  0  0  0  0  0  0  0  0
    1.9256   -0.9853    0.2996 O   0  0  0  0  0  0  0  0  0  0  0  0
    2.0853   -2.3764    0.0419 C   0  0  0  0  0  0  0  0  0  0  0  0
   -0.3616   -1.0707   -0.4783 C   0  0  0  0  0  0  0  0  0  0  0  0
   -1.6424   -0.4025   -0.6099 C   0  0  1  0  0  0  0  0  0  0  0  0
   -0.4957    2.7681    0.3544 H   0  0  0  0  0  0  0  0  0  0  0  0
    1.5406    1.4172    0.8797 H   0  0  0  0  0  0  0  0  0  0  0  0
    3.1050   -2.6213    0.3402 H   0  0  0  0  0  0  0  0  0  0  0  0
    1.9528   -2.6007   -1.0235 H   0  0  0  0  0  0  0  0  0  0  0  0
    1.3763   -2.9710    0.6287 H   0  0  0  0  0  0  0  0  0  0  0  0
   -0.3242   -2.1188   -0.7419 H   0  0  0  0  0  0  0  0  0  0  0  0
   -2.2852   -0.7628   -1.4057 H   0  0  0  0  0  0  0  0  0  0  0  0
   -2.9035   -1.1118    0.9196 Cl  0  0  0  0  0  0  0  0  0  0  0  0
  1  4  2  0  0  0  0
  2  1  1  0  0  0  0
  3  2  1  0  0  0  0
  4 11  1  0  0  0  0
  4  5  1  0  0  0  0
  5 12  1  0  0  0  0
  6  7  1  0  0  0  0
  6  5  1  0  0  0  0
  8  7  1  0  0  0  0
  8 13  1  0  0  0  0
  8 15  1  0  0  0  0
  9  6  2  0  0  0  0
 10 17  1  6  0  0  0
 10  1  1  0  0  0  0
 10  9  1  0  0  0  0
 10 18  1  0  0  0  0
 14  8  1  0  0  0  0
 16  9  1  0  0  0  0
M  RAD  3   2   2   3   3   5   2
M  END
