Coordinates from ORCA-job 4-MeOPhN2+~Cl-_B3LYPG-6-31G_dp-NX-Scan-d89-09-n800
 OpenBabel11261920533D

 18 18  0  0  0  0  0  0  0  0999 V2000
   -1.5883    0.9219   -0.2694 C   0  0  0  0  0  0  0  0  0  0  0  0
   -2.6943    1.8117   -0.3616 N   0  0  0  0  0  0  0  0  0  0  0  0
   -3.8812    1.3230   -0.6281 N   0  0  0  0  0  0  0  0  0  0  0  0
   -0.3922    1.6294    0.0154 C   0  0  0  0  0  0  0  0  0  0  0  0
    0.8243    0.9946    0.1564 C   0  0  0  0  0  0  0  0  0  0  0  0
    0.9074   -0.4027    0.0181 C   0  0  0  0  0  0  0  0  0  0  0  0
    2.1488   -0.9406    0.1761 O   0  0  0  0  0  0  0  0  0  0  0  0
    2.2931   -2.3475    0.0625 C   0  0  0  0  0  0  0  0  0  0  0  0
   -0.2515   -1.1311   -0.2633 C   0  0  0  0  0  0  0  0  0  0  0  0
   -1.4837   -0.4834   -0.4059 C   0  0  0  0  0  0  0  0  0  0  0  0
   -0.4706    2.7068    0.1217 H   0  0  0  0  0  0  0  0  0  0  0  0
    1.7305    1.5499    0.3754 H   0  0  0  0  0  0  0  0  0  0  0  0
    3.3501   -2.5572    0.2328 H   0  0  0  0  0  0  0  0  0  0  0  0
    2.0109   -2.7043   -0.9365 H   0  0  0  0  0  0  0  0  0  0  0  0
    1.6943   -2.8775    0.8141 H   0  0  0  0  0  0  0  0  0  0  0  0
   -0.2169   -2.2084   -0.3777 H   0  0  0  0  0  0  0  0  0  0  0  0
   -2.3477   -1.0937   -0.6229 H   0  0  0  0  0  0  0  0  0  0  0  0
   -4.3877    0.4581   -0.8180 Cl  0  0  0  0  0  0  0  0  0  0  0  0
  1  4  1  0  0  0  0
  2  1  1  0  0  0  0
  3  2  2  0  0  0  0
  4 11  1  0  0  0  0
  4  5  2  0  0  0  0
  5 12  1  0  0  0  0
  6  5  1  0  0  0  0
  6  7  1  0  0  0  0
  8  7  1  0  0  0  0
  8 13  1  0  0  0  0
  8 15  1  0  0  0  0
  9  6  2  0  0  0  0
 10  1  2  0  0  0  0
 10  9  1  0  0  0  0
 14  8  1  0  0  0  0
 16  9  1  0  0  0  0
 17 10  1  0  0  0  0
 18  3  1  0  0  0  0
M  END
