Coordinates from ORCA-job 4-MeOPhN2+~Cl-_B3LYPG-6-31G_dp-NX-Scan-d89-09-n800
 OpenBabel11261920533D

 18 17  0  0  0  0  0  0  0  0999 V2000
   -1.4757    1.3583   -0.4943 C   0  0  0  0  0  0  0  0  0  0  0  0
   -2.5489    2.1386   -0.7006 N   0  0  0  0  0  0  0  0  0  0  0  0
   -3.4826    2.7447   -0.8950 N   0  0  0  0  0  0  0  0  0  0  0  0
   -0.2421    1.9494   -0.0964 C   0  0  0  0  0  0  0  0  0  0  0  0
    0.8206    1.1214    0.1460 C   0  0  0  0  0  0  0  0  0  0  0  0
    0.6824   -0.2934    0.0136 C   0  0  0  0  0  0  0  0  0  0  0  0
    1.7592   -0.9938    0.3111 O   0  0  0  0  0  0  0  0  0  0  0  0
    1.7455   -2.4413    0.1675 C   0  0  0  0  0  0  0  0  0  0  0  0
   -0.5458   -0.8679   -0.4031 C   0  0  0  0  0  0  0  0  0  0  0  0
   -1.6194   -0.0507   -0.6483 C   0  0  0  0  0  0  0  0  0  0  0  0
   -0.1617    3.0251    0.0141 H   0  0  0  0  0  0  0  0  0  0  0  0
    1.7800    1.5182    0.4580 H   0  0  0  0  0  0  0  0  0  0  0  0
    2.6806   -2.7720    0.6164 H   0  0  0  0  0  0  0  0  0  0  0  0
    1.7226   -2.6934   -0.8957 H   0  0  0  0  0  0  0  0  0  0  0  0
    0.8693   -2.8879    0.6564 H   0  0  0  0  0  0  0  0  0  0  0  0
   -0.7244   -1.9643   -0.4110 H   0  0  0  0  0  0  0  0  0  0  0  0
   -2.5751   -0.4805   -0.9298 H   0  0  0  0  0  0  0  0  0  0  0  0
   -1.4392   -3.7613    0.3799 Cl  0  0  0  0  0  0  0  0  0  0  0  0
  1  4  1  0  0  0  0
  2  1  1  0  0  0  0
  3  2  1  0  0  0  0
  4 11  1  0  0  0  0
  4  5  2  0  0  0  0
  5 12  1  0  0  0  0
  6  5  1  0  0  0  0
  6  7  1  0  0  0  0
  8  7  1  0  0  0  0
  8 13  1  0  0  0  0
  8 15  1  0  0  0  0
  9  6  2  0  0  0  0
 10  1  2  0  0  0  0
 10  9  1  0  0  0  0
 14  8  1  0  0  0  0
 16  9  1  0  0  0  0
 17 10  1  0  0  0  0
M  RAD  3   2   2   3   3  18   2
M  END
