Coordinates from ORCA-job 4-MeOPhN2+~Cl-_B3LYPG-6-31G_dp-NX-Scan-d89-09-n800
 OpenBabel11261920533D

 18 17  0  0  0  0  0  0  0  0999 V2000
   -1.5812    1.0739   -0.4742 C   0  0  0  0  0  0  0  0  0  0  0  0
   -2.5586    1.8601   -0.9415 N   0  0  0  0  0  0  0  0  0  0  0  0
   -3.3059    2.6042   -1.3614 N   0  0  0  0  0  0  0  0  0  0  0  0
   -0.4589    1.7325    0.1390 C   0  0  0  0  0  0  0  0  0  0  0  0
    0.6632    1.0051    0.3842 C   0  0  0  0  0  0  0  0  0  0  0  0
    0.7227   -0.3810    0.0191 C   0  0  0  0  0  0  0  0  0  0  0  0
    1.9109   -0.9624    0.2721 O   0  0  0  0  0  0  0  0  0  0  0  0
    2.0425   -2.3689    0.0572 C   0  0  0  0  0  0  0  0  0  0  0  0
   -0.3722   -1.0212   -0.5327 C   0  0  0  0  0  0  0  0  0  0  0  0
   -1.5998   -0.3459   -0.6847 C   0  0  0  0  0  0  0  0  0  0  0  0
   -0.5206    2.7877    0.3793 H   0  0  0  0  0  0  0  0  0  0  0  0
    1.5352    1.4499    0.8500 H   0  0  0  0  0  0  0  0  0  0  0  0
    3.0514   -2.6235    0.3811 H   0  0  0  0  0  0  0  0  0  0  0  0
    1.9252   -2.6185   -1.0036 H   0  0  0  0  0  0  0  0  0  0  0  0
    1.3095   -2.9247    0.6506 H   0  0  0  0  0  0  0  0  0  0  0  0
   -0.3578   -2.0792   -0.7522 H   0  0  0  0  0  0  0  0  0  0  0  0
   -2.4083   -0.7915   -1.2439 H   0  0  0  0  0  0  0  0  0  0  0  0
   -2.7519   -1.7475    1.1506 Cl  0  0  0  0  0  0  0  0  0  0  0  0
  1  4  2  0  0  0  0
  2  1  1  0  0  0  0
  3  2  1  0  0  0  0
  4 11  1  0  0  0  0
  4  5  1  0  0  0  0
  5 12  1  0  0  0  0
  6  7  1  0  0  0  0
  6  5  2  0  0  0  0
  8  7  1  0  0  0  0
  8 13  1  0  0  0  0
  8 15  1  0  0  0  0
  9  6  1  0  0  0  0
 10  9  2  0  0  0  0
 10  1  1  0  0  0  0
 14  8  1  0  0  0  0
 16  9  1  0  0  0  0
 17 10  1  0  0  0  0
M  RAD  3   2   2   3   3  18   2
M  END
