Coordinates from ORCA-job 4-MeOPhN2+~Cl-_B3LYPG-6-31G_dp-NX-Scan-d89-09-n800
 OpenBabel11261920533D

 18 18  0  0  1  0  0  0  0  0999 V2000
   -1.5080    1.0907   -0.5333 C   0  0  0  0  0  0  0  0  0  0  0  0
   -2.6555    1.7293   -0.6785 N   0  0  0  0  0  0  0  0  0  0  0  0
   -3.7144    2.1229   -0.7741 N   0  0  0  0  0  0  0  0  0  0  0  0
   -0.3782    1.7378    0.0614 C   0  0  0  0  0  0  0  0  0  0  0  0
    0.7250    0.9995    0.3456 C   0  0  0  0  0  0  0  0  0  0  0  0
    0.7451   -0.4119    0.0397 C   0  0  0  0  0  0  0  0  0  0  0  0
    1.9345   -0.9942    0.3141 O   0  0  0  0  0  0  0  0  0  0  0  0
    2.0649   -2.3978    0.1103 C   0  0  0  0  0  0  0  0  0  0  0  0
   -0.3360   -1.0520   -0.5107 C   0  0  0  0  0  0  0  0  0  0  0  0
   -1.5839   -0.3595   -0.7217 C   0  0  1  0  0  0  0  0  0  0  0  0
   -0.4291    2.7978    0.2852 H   0  0  0  0  0  0  0  0  0  0  0  0
    1.6080    1.4370    0.7955 H   0  0  0  0  0  0  0  0  0  0  0  0
    3.0703   -2.6561    0.4435 H   0  0  0  0  0  0  0  0  0  0  0  0
    1.9540   -2.6570   -0.9494 H   0  0  0  0  0  0  0  0  0  0  0  0
    1.3263   -2.9526    0.6992 H   0  0  0  0  0  0  0  0  0  0  0  0
   -0.3035   -2.1023   -0.7664 H   0  0  0  0  0  0  0  0  0  0  0  0
   -2.1891   -0.7040   -1.5523 H   0  0  0  0  0  0  0  0  0  0  0  0
   -3.0849   -0.9786    0.6810 Cl  0  0  0  0  0  0  0  0  0  0  0  0
  1  4  2  0  0  0  0
  2  1  1  0  0  0  0
  3  2  1  0  0  0  0
  4 11  1  0  0  0  0
  4  5  1  0  0  0  0
  5 12  1  0  0  0  0
  6  7  1  0  0  0  0
  6  5  1  0  0  0  0
  8  7  1  0  0  0  0
  8 13  1  0  0  0  0
  8 15  1  0  0  0  0
  9  6  2  0  0  0  0
 10 17  1  6  0  0  0
 10  1  1  0  0  0  0
 10  9  1  0  0  0  0
 10 18  1  0  0  0  0
 14  8  1  0  0  0  0
 16  9  1  0  0  0  0
M  RAD  3   2   2   3   3   5   2
M  END
