Coordinates from ORCA-job 4-MeOPhN2+~Cl-_B3LYPG-6-31G_dp-NX-Scan-d89-09-n800
 OpenBabel11261920443D

 18 17  0  0  0  0  0  0  0  0999 V2000
   -1.4263   -0.0497   -0.0414 C   0  0  0  0  0  0  0  0  0  0  0  0
   -2.7894   -0.0902    0.0574 N   0  0  0  0  0  0  0  0  0  0  0  0
   -3.9050   -0.1202    0.1384 N   0  0  0  0  0  0  0  0  0  0  0  0
   -0.7778    1.2097   -0.0015 C   0  0  0  0  0  0  0  0  0  0  0  0
    0.5901    1.2308   -0.1011 C   0  0  0  0  0  0  0  0  0  0  0  0
    1.3225    0.0212   -0.2394 C   0  0  0  0  0  0  0  0  0  0  0  0
    2.6367    0.1648   -0.3251 O   0  0  0  0  0  0  0  0  0  0  0  0
    3.4949   -0.9842   -0.4660 C   0  0  0  0  0  0  0  0  0  0  0  0
    0.6491   -1.2257   -0.2771 C   0  0  0  0  0  0  0  0  0  0  0  0
   -0.7248   -1.2668   -0.1785 C   0  0  0  0  0  0  0  0  0  0  0  0
   -1.3535    2.1256    0.1054 H   0  0  0  0  0  0  0  0  0  0  0  0
    1.1389    2.1669   -0.0760 H   0  0  0  0  0  0  0  0  0  0  0  0
    4.5056   -0.5823   -0.5070 H   0  0  0  0  0  0  0  0  0  0  0  0
    3.2707   -1.5203   -1.3929 H   0  0  0  0  0  0  0  0  0  0  0  0
    3.3930   -1.6480    0.3975 H   0  0  0  0  0  0  0  0  0  0  0  0
    1.1985   -2.1548   -0.3829 H   0  0  0  0  0  0  0  0  0  0  0  0
   -1.2613   -2.2129   -0.2052 H   0  0  0  0  0  0  0  0  0  0  0  0
  -12.7164   -0.4149    0.7844 Cl  0  0  0  0  0  0  0  0  0  0  0  0
  1  4  1  0  0  0  0
  1  2  1  0  0  0  0
  2  3  1  0  0  0  0
  4 11  1  0  0  0  0
  5 12  1  0  0  0  0
  5  4  2  0  0  0  0
  6  5  1  0  0  0  0
  7  6  1  0  0  0  0
  8  7  1  0  0  0  0
  8 15  1  0  0  0  0
  9  6  2  0  0  0  0
  9 10  1  0  0  0  0
 10  1  2  0  0  0  0
 13  8  1  0  0  0  0
 14  8  1  0  0  0  0
 16  9  1  0  0  0  0
 17 10  1  0  0  0  0
M  RAD  3   2   2   3   3  18   2
M  END
