Coordinates from ORCA-job 4-MeOPhN2+~Cl-_B3LYPG-6-31G_dp-NX-Scan-d89-09-n800
 OpenBabel11261920533D

 18 17  0  0  0  0  0  0  0  0999 V2000
   -1.4773    1.3596   -0.4938 C   0  0  0  0  0  0  0  0  0  0  0  0
   -2.5470    2.1430   -0.7061 N   0  0  0  0  0  0  0  0  0  0  0  0
   -3.4754    2.7559   -0.9049 N   0  0  0  0  0  0  0  0  0  0  0  0
   -0.2429    1.9496   -0.0966 C   0  0  0  0  0  0  0  0  0  0  0  0
    0.8185    1.1207    0.1480 C   0  0  0  0  0  0  0  0  0  0  0  0
    0.6788   -0.2941    0.0174 C   0  0  0  0  0  0  0  0  0  0  0  0
    1.7560   -0.9943    0.3132 O   0  0  0  0  0  0  0  0  0  0  0  0
    1.7458   -2.4414    0.1655 C   0  0  0  0  0  0  0  0  0  0  0  0
   -0.5510   -0.8681   -0.3963 C   0  0  0  0  0  0  0  0  0  0  0  0
   -1.6232   -0.0497   -0.6436 C   0  0  0  0  0  0  0  0  0  0  0  0
   -0.1609    3.0255    0.0111 H   0  0  0  0  0  0  0  0  0  0  0  0
    1.7785    1.5168    0.4590 H   0  0  0  0  0  0  0  0  0  0  0  0
    2.6825   -2.7706    0.6121 H   0  0  0  0  0  0  0  0  0  0  0  0
    1.7222   -2.6904   -0.8985 H   0  0  0  0  0  0  0  0  0  0  0  0
    0.8715   -2.8927    0.6538 H   0  0  0  0  0  0  0  0  0  0  0  0
   -0.7283   -1.9646   -0.4031 H   0  0  0  0  0  0  0  0  0  0  0  0
   -2.5795   -0.4783   -0.9251 H   0  0  0  0  0  0  0  0  0  0  0  0
   -1.4230   -3.7780    0.3771 Cl  0  0  0  0  0  0  0  0  0  0  0  0
  1  4  1  0  0  0  0
  2  1  1  0  0  0  0
  3  2  1  0  0  0  0
  4 11  1  0  0  0  0
  4  5  2  0  0  0  0
  5 12  1  0  0  0  0
  6  5  1  0  0  0  0
  6  7  1  0  0  0  0
  8  7  1  0  0  0  0
  8 13  1  0  0  0  0
  8 15  1  0  0  0  0
  9  6  2  0  0  0  0
 10  1  2  0  0  0  0
 10  9  1  0  0  0  0
 14  8  1  0  0  0  0
 16  9  1  0  0  0  0
 17 10  1  0  0  0  0
M  RAD  3   2   2   3   3  18   2
M  END
