Coordinates from ORCA-job 4-MeOPhN2+~Cl-_B3LYPG-6-31G_dp-NX-Scan-d89-09-n800
 OpenBabel11261920533D

 18 17  0  0  0  0  0  0  0  0999 V2000
   -1.4781    1.2742   -0.4444 C   0  0  0  0  0  0  0  0  0  0  0  0
   -2.5702    2.0318   -0.6672 N   0  0  0  0  0  0  0  0  0  0  0  0
   -3.4898    2.6581   -0.8535 N   0  0  0  0  0  0  0  0  0  0  0  0
   -0.2483    1.9222   -0.1225 C   0  0  0  0  0  0  0  0  0  0  0  0
    0.8531    1.1395    0.1065 C   0  0  0  0  0  0  0  0  0  0  0  0
    0.7574   -0.2792    0.0189 C   0  0  0  0  0  0  0  0  0  0  0  0
    1.8787   -0.9491    0.2668 O   0  0  0  0  0  0  0  0  0  0  0  0
    1.8505   -2.3931    0.2020 C   0  0  0  0  0  0  0  0  0  0  0  0
   -0.4648   -0.9019   -0.3006 C   0  0  0  0  0  0  0  0  0  0  0  0
   -1.5872   -0.1403   -0.5268 C   0  0  0  0  0  0  0  0  0  0  0  0
   -0.2004    3.0035   -0.0563 H   0  0  0  0  0  0  0  0  0  0  0  0
    1.8100    1.5817    0.3603 H   0  0  0  0  0  0  0  0  0  0  0  0
    2.8453   -2.7099    0.5110 H   0  0  0  0  0  0  0  0  0  0  0  0
    1.6459   -2.7229   -0.8198 H   0  0  0  0  0  0  0  0  0  0  0  0
    1.0887   -2.7999    0.8712 H   0  0  0  0  0  0  0  0  0  0  0  0
   -0.6534   -1.9899   -0.3267 H   0  0  0  0  0  0  0  0  0  0  0  0
   -2.5190   -0.6626   -0.7345 H   0  0  0  0  0  0  0  0  0  0  0  0
   -2.2731   -3.4130   -0.1955 Cl  0  0  0  0  0  0  0  0  0  0  0  0
  1  4  1  0  0  0  0
  2  1  1  0  0  0  0
  3  2  1  0  0  0  0
  4 11  1  0  0  0  0
  4  5  2  0  0  0  0
  5 12  1  0  0  0  0
  6  5  1  0  0  0  0
  6  7  1  0  0  0  0
  8  7  1  0  0  0  0
  8 13  1  0  0  0  0
  8 15  1  0  0  0  0
  9  6  2  0  0  0  0
 10  1  2  0  0  0  0
 10  9  1  0  0  0  0
 14  8  1  0  0  0  0
 16  9  1  0  0  0  0
 17 10  1  0  0  0  0
M  RAD  3   2   2   3   3  18   2
M  END
