Coordinates from ORCA-job 4-MeOPhN2+~Cl-_B3LYPG-6-31G_dp-NX-Scan-d89-09-n800
 OpenBabel11261920443D

 18 17  0  0  0  0  0  0  0  0999 V2000
   -1.4730   -0.0273   -0.0413 C   0  0  0  0  0  0  0  0  0  0  0  0
   -2.8350   -0.0583    0.0553 N   0  0  0  0  0  0  0  0  0  0  0  0
   -3.9506   -0.0799    0.1347 N   0  0  0  0  0  0  0  0  0  0  0  0
   -0.8158    1.2277   -0.0005 C   0  0  0  0  0  0  0  0  0  0  0  0
    0.5526    1.2397   -0.0982 C   0  0  0  0  0  0  0  0  0  0  0  0
    1.2772    0.0255   -0.2357 C   0  0  0  0  0  0  0  0  0  0  0  0
    2.5924    0.1607   -0.3198 O   0  0  0  0  0  0  0  0  0  0  0  0
    3.4430   -0.9937   -0.4600 C   0  0  0  0  0  0  0  0  0  0  0  0
    0.5956   -1.2167   -0.2743 C   0  0  0  0  0  0  0  0  0  0  0  0
   -0.7789   -1.2491   -0.1775 C   0  0  0  0  0  0  0  0  0  0  0  0
   -1.3852    2.1465    0.1057 H   0  0  0  0  0  0  0  0  0  0  0  0
    1.1076    2.1716   -0.0723 H   0  0  0  0  0  0  0  0  0  0  0  0
    4.4562   -0.5983   -0.5000 H   0  0  0  0  0  0  0  0  0  0  0  0
    3.2163   -1.5283   -1.3872 H   0  0  0  0  0  0  0  0  0  0  0  0
    3.3361   -1.6569    0.4035 H   0  0  0  0  0  0  0  0  0  0  0  0
    1.1393   -2.1485   -0.3794 H   0  0  0  0  0  0  0  0  0  0  0  0
   -1.3213   -2.1906   -0.2049 H   0  0  0  0  0  0  0  0  0  0  0  0
  -11.9111   -0.5753    0.7409 Cl  0  0  0  0  0  0  0  0  0  0  0  0
  1  4  1  0  0  0  0
  1  2  1  0  0  0  0
  2  3  1  0  0  0  0
  4 11  1  0  0  0  0
  5 12  1  0  0  0  0
  5  4  2  0  0  0  0
  6  5  1  0  0  0  0
  7  6  1  0  0  0  0
  8  7  1  0  0  0  0
  8 15  1  0  0  0  0
  9  6  2  0  0  0  0
  9 10  1  0  0  0  0
 10  1  2  0  0  0  0
 13  8  1  0  0  0  0
 14  8  1  0  0  0  0
 16  9  1  0  0  0  0
 17 10  1  0  0  0  0
M  RAD  3   2   2   3   3  18   2
M  END
