Coordinates from ORCA-job 4-MeOPhN2+~Cl-_B3LYPG-6-31G_dp-NX-Scan-d89-09-n800
 OpenBabel11261920533D

 18 17  0  0  0  0  0  0  0  0999 V2000
   -1.4757    1.2790   -0.4518 C   0  0  0  0  0  0  0  0  0  0  0  0
   -2.5697    2.0345   -0.6687 N   0  0  0  0  0  0  0  0  0  0  0  0
   -3.4959    2.6523   -0.8511 N   0  0  0  0  0  0  0  0  0  0  0  0
   -0.2483    1.9238   -0.1149 C   0  0  0  0  0  0  0  0  0  0  0  0
    0.8514    1.1386    0.1142 C   0  0  0  0  0  0  0  0  0  0  0  0
    0.7561   -0.2793    0.0117 C   0  0  0  0  0  0  0  0  0  0  0  0
    1.8726   -0.9532    0.2680 O   0  0  0  0  0  0  0  0  0  0  0  0
    1.8418   -2.3974    0.1941 C   0  0  0  0  0  0  0  0  0  0  0  0
   -0.4628   -0.8984   -0.3279 C   0  0  0  0  0  0  0  0  0  0  0  0
   -1.5835   -0.1346   -0.5508 C   0  0  0  0  0  0  0  0  0  0  0  0
   -0.2015    3.0043   -0.0359 H   0  0  0  0  0  0  0  0  0  0  0  0
    1.8060    1.5780    0.3812 H   0  0  0  0  0  0  0  0  0  0  0  0
    2.8252   -2.7189    0.5335 H   0  0  0  0  0  0  0  0  0  0  0  0
    1.6714   -2.7188   -0.8367 H   0  0  0  0  0  0  0  0  0  0  0  0
    1.0559   -2.8065    0.8335 H   0  0  0  0  0  0  0  0  0  0  0  0
   -0.6506   -1.9868   -0.3541 H   0  0  0  0  0  0  0  0  0  0  0  0
   -2.5172   -0.6503   -0.7636 H   0  0  0  0  0  0  0  0  0  0  0  0
   -2.2298   -3.4174   -0.0917 Cl  0  0  0  0  0  0  0  0  0  0  0  0
  1  4  1  0  0  0  0
  2  1  1  0  0  0  0
  3  2  1  0  0  0  0
  4 11  1  0  0  0  0
  4  5  2  0  0  0  0
  5 12  1  0  0  0  0
  6  5  1  0  0  0  0
  6  7  1  0  0  0  0
  8  7  1  0  0  0  0
  8 13  1  0  0  0  0
  8 15  1  0  0  0  0
  9  6  2  0  0  0  0
 10  1  2  0  0  0  0
 10  9  1  0  0  0  0
 14  8  1  0  0  0  0
 16  9  1  0  0  0  0
 17 10  1  0  0  0  0
M  RAD  3   2   2   3   3  18   2
M  END
