Coordinates from ORCA-job 4-MeOPhN2+~Cl-_B3LYPG-6-31G_dp-NX-Scan-d89-09-n800
 OpenBabel11261920533D

 18 17  0  0  0  0  0  0  0  0999 V2000
   -1.4847    1.2410   -0.4373 C   0  0  0  0  0  0  0  0  0  0  0  0
   -2.5778    1.9967   -0.6688 N   0  0  0  0  0  0  0  0  0  0  0  0
   -3.4829    2.6428   -0.8570 N   0  0  0  0  0  0  0  0  0  0  0  0
   -0.2602    1.9038   -0.1215 C   0  0  0  0  0  0  0  0  0  0  0  0
    0.8501    1.1342    0.1041 C   0  0  0  0  0  0  0  0  0  0  0  0
    0.7704   -0.2860    0.0223 C   0  0  0  0  0  0  0  0  0  0  0  0
    1.9085   -0.9366    0.2607 O   0  0  0  0  0  0  0  0  0  0  0  0
    1.9053   -2.3774    0.2132 C   0  0  0  0  0  0  0  0  0  0  0  0
   -0.4470   -0.9207   -0.2826 C   0  0  0  0  0  0  0  0  0  0  0  0
   -1.5823   -0.1736   -0.5137 C   0  0  0  0  0  0  0  0  0  0  0  0
   -0.2235    2.9858   -0.0581 H   0  0  0  0  0  0  0  0  0  0  0  0
    1.8038    1.5869    0.3515 H   0  0  0  0  0  0  0  0  0  0  0  0
    2.9210   -2.6739    0.4707 H   0  0  0  0  0  0  0  0  0  0  0  0
    1.6516   -2.7287   -0.7908 H   0  0  0  0  0  0  0  0  0  0  0  0
    1.1938   -2.7886    0.9339 H   0  0  0  0  0  0  0  0  0  0  0  0
   -0.6152   -2.0025   -0.3136 H   0  0  0  0  0  0  0  0  0  0  0  0
   -2.5023   -0.7245   -0.7173 H   0  0  0  0  0  0  0  0  0  0  0  0
   -2.5830   -3.2295   -0.3066 Cl  0  0  0  0  0  0  0  0  0  0  0  0
  1  4  1  0  0  0  0
  2  1  1  0  0  0  0
  3  2  1  0  0  0  0
  4 11  1  0  0  0  0
  4  5  2  0  0  0  0
  5 12  1  0  0  0  0
  6  5  1  0  0  0  0
  6  7  1  0  0  0  0
  8  7  1  0  0  0  0
  8 13  1  0  0  0  0
  8 15  1  0  0  0  0
  9  6  2  0  0  0  0
 10  1  2  0  0  0  0
 10  9  1  0  0  0  0
 14  8  1  0  0  0  0
 16  9  1  0  0  0  0
 17 10  1  0  0  0  0
M  RAD  3   2   2   3   3  18   2
M  END
