Coordinates from ORCA-job 4-MeOPhN2+~Cl-_B3LYPG-6-31G_dp-NX-Scan-d89-09-n800
 OpenBabel11261920443D

 18 17  0  0  0  0  0  0  0  0999 V2000
   -1.4291   -0.0488   -0.0415 C   0  0  0  0  0  0  0  0  0  0  0  0
   -2.7921   -0.0889    0.0572 N   0  0  0  0  0  0  0  0  0  0  0  0
   -3.9078   -0.1185    0.1382 N   0  0  0  0  0  0  0  0  0  0  0  0
   -0.7803    1.2105   -0.0015 C   0  0  0  0  0  0  0  0  0  0  0  0
    0.5877    1.2312   -0.1010 C   0  0  0  0  0  0  0  0  0  0  0  0
    1.3198    0.0214   -0.2392 C   0  0  0  0  0  0  0  0  0  0  0  0
    2.6340    0.1647   -0.3248 O   0  0  0  0  0  0  0  0  0  0  0  0
    3.4919   -0.9846   -0.4656 C   0  0  0  0  0  0  0  0  0  0  0  0
    0.6461   -1.2253   -0.2770 C   0  0  0  0  0  0  0  0  0  0  0  0
   -0.7279   -1.2661   -0.1785 C   0  0  0  0  0  0  0  0  0  0  0  0
   -1.3557    2.1264    0.1053 H   0  0  0  0  0  0  0  0  0  0  0  0
    1.1368    2.1671   -0.0758 H   0  0  0  0  0  0  0  0  0  0  0  0
    4.5027   -0.5829   -0.5064 H   0  0  0  0  0  0  0  0  0  0  0  0
    3.2677   -1.5206   -1.3925 H   0  0  0  0  0  0  0  0  0  0  0  0
    3.3896   -1.6484    0.3980 H   0  0  0  0  0  0  0  0  0  0  0  0
    1.1952   -2.1545   -0.3828 H   0  0  0  0  0  0  0  0  0  0  0  0
   -1.2646   -2.2120   -0.2053 H   0  0  0  0  0  0  0  0  0  0  0  0
  -12.6688   -0.4218    0.7823 Cl  0  0  0  0  0  0  0  0  0  0  0  0
  1  4  1  0  0  0  0
  1  2  1  0  0  0  0
  2  3  1  0  0  0  0
  4 11  1  0  0  0  0
  5 12  1  0  0  0  0
  5  4  2  0  0  0  0
  6  5  1  0  0  0  0
  7  6  1  0  0  0  0
  8  7  1  0  0  0  0
  8 15  1  0  0  0  0
  9  6  2  0  0  0  0
  9 10  1  0  0  0  0
 10  1  2  0  0  0  0
 13  8  1  0  0  0  0
 14  8  1  0  0  0  0
 16  9  1  0  0  0  0
 17 10  1  0  0  0  0
M  RAD  3   2   2   3   3  18   2
M  END
