Coordinates from ORCA-job 4-MeOPhN2+~Cl-_B3LYPG-6-31G_dp-NX-Scan-d89-09-n800
 OpenBabel11261920533D

 18 17  0  0  0  0  0  0  0  0999 V2000
   -1.4880   -0.0156   -0.0416 C   0  0  0  0  0  0  0  0  0  0  0  0
   -2.8496   -0.0414    0.0540 N   0  0  0  0  0  0  0  0  0  0  0  0
   -3.9652   -0.0587    0.1327 N   0  0  0  0  0  0  0  0  0  0  0  0
   -0.8261    1.2371   -0.0004 C   0  0  0  0  0  0  0  0  0  0  0  0
    0.5424    1.2443   -0.0974 C   0  0  0  0  0  0  0  0  0  0  0  0
    1.2627    0.0276   -0.2345 C   0  0  0  0  0  0  0  0  0  0  0  0
    2.5784    0.1583   -0.3179 O   0  0  0  0  0  0  0  0  0  0  0  0
    3.4250   -0.9991   -0.4577 C   0  0  0  0  0  0  0  0  0  0  0  0
    0.5769   -1.2121   -0.2734 C   0  0  0  0  0  0  0  0  0  0  0  0
   -0.7980   -1.2397   -0.1774 C   0  0  0  0  0  0  0  0  0  0  0  0
   -1.3923    2.1576    0.1054 H   0  0  0  0  0  0  0  0  0  0  0  0
    1.1007    2.1740   -0.0712 H   0  0  0  0  0  0  0  0  0  0  0  0
    4.4396   -0.6071   -0.4973 H   0  0  0  0  0  0  0  0  0  0  0  0
    3.1969   -1.5328   -1.3850 H   0  0  0  0  0  0  0  0  0  0  0  0
    3.3155   -1.6618    0.4058 H   0  0  0  0  0  0  0  0  0  0  0  0
    1.1173   -2.1455   -0.3782 H   0  0  0  0  0  0  0  0  0  0  0  0
   -1.3435   -2.1789   -0.2051 H   0  0  0  0  0  0  0  0  0  0  0  0
  -11.6475   -0.6571    0.7284 Cl  0  0  0  0  0  0  0  0  0  0  0  0
  1  4  1  0  0  0  0
  1  2  1  0  0  0  0
  2  3  1  0  0  0  0
  4 11  1  0  0  0  0
  5 12  1  0  0  0  0
  5  4  2  0  0  0  0
  6  5  1  0  0  0  0
  7  6  1  0  0  0  0
  8  7  1  0  0  0  0
  8 15  1  0  0  0  0
  9  6  2  0  0  0  0
  9 10  1  0  0  0  0
 10  1  2  0  0  0  0
 13  8  1  0  0  0  0
 14  8  1  0  0  0  0
 16  9  1  0  0  0  0
 17 10  1  0  0  0  0
M  RAD  3   2   2   3   3  18   2
M  END
