Coordinates from ORCA-job 4-MeOPhN2+~Cl-_B3LYPG-6-31G_dp-NX-Scan-d89-09-n800
 OpenBabel11261920533D

 18 17  0  0  0  0  0  0  0  0999 V2000
   -1.4372    1.0461   -0.2422 C   0  0  0  0  0  0  0  0  0  0  0  0
   -2.6285    1.7398   -0.3736 N   0  0  0  0  0  0  0  0  0  0  0  0
   -3.7458    1.8508   -0.5465 N   0  0  0  0  0  0  0  0  0  0  0  0
   -0.2499    1.7572    0.0155 C   0  0  0  0  0  0  0  0  0  0  0  0
    0.9224    1.0446    0.1420 C   0  0  0  0  0  0  0  0  0  0  0  0
    0.9134   -0.3645    0.0136 C   0  0  0  0  0  0  0  0  0  0  0  0
    2.1111   -0.9558    0.1577 O   0  0  0  0  0  0  0  0  0  0  0  0
    2.2056   -2.3790    0.0567 C   0  0  0  0  0  0  0  0  0  0  0  0
   -0.2881   -1.0516   -0.2449 C   0  0  0  0  0  0  0  0  0  0  0  0
   -1.4787   -0.3521   -0.3756 C   0  0  0  0  0  0  0  0  0  0  0  0
   -0.2671    2.8375    0.1119 H   0  0  0  0  0  0  0  0  0  0  0  0
    1.8661    1.5387    0.3416 H   0  0  0  0  0  0  0  0  0  0  0  0
    3.2569   -2.6146    0.2185 H   0  0  0  0  0  0  0  0  0  0  0  0
    1.9003   -2.7258   -0.9364 H   0  0  0  0  0  0  0  0  0  0  0  0
    1.5973   -2.8701    0.8236 H   0  0  0  0  0  0  0  0  0  0  0  0
   -0.3041   -2.1298   -0.3463 H   0  0  0  0  0  0  0  0  0  0  0  0
   -2.4444   -0.8348   -0.5763 H   0  0  0  0  0  0  0  0  0  0  0  0
   -4.6839   -0.8875   -0.9502 Cl  0  0  0  0  0  0  0  0  0  0  0  0
  1  4  2  0  0  0  0
  2  1  1  0  0  0  0
  3  2  1  0  0  0  0
  4 11  1  0  0  0  0
  4  5  1  0  0  0  0
  5 12  1  0  0  0  0
  6  5  2  0  0  0  0
  6  7  1  0  0  0  0
  8  7  1  0  0  0  0
  8 13  1  0  0  0  0
  8 15  1  0  0  0  0
  9  6  1  0  0  0  0
 10  9  2  0  0  0  0
 10  1  1  0  0  0  0
 14  8  1  0  0  0  0
 16  9  1  0  0  0  0
 17 10  1  0  0  0  0
M  RAD  3   2   2   3   3  18   2
M  END
