Coordinates from ORCA-job 4-MeOPhN2+~Cl-_B3LYPG-6-31G_dp-NX-Scan-d89-09-n800
 OpenBabel11261920533D

 18 18  0  0  0  0  0  0  0  0999 V2000
   -1.4912    0.9751   -0.2613 C   0  0  0  0  0  0  0  0  0  0  0  0
   -2.6601    1.7300   -0.3844 N   0  0  0  0  0  0  0  0  0  0  0  0
   -3.8132    1.6780   -0.5728 N   0  0  0  0  0  0  0  0  0  0  0  0
   -0.3107    1.6961   -0.0005 C   0  0  0  0  0  0  0  0  0  0  0  0
    0.8865    1.0226    0.1359 C   0  0  0  0  0  0  0  0  0  0  0  0
    0.9208   -0.3811    0.0132 C   0  0  0  0  0  0  0  0  0  0  0  0
    2.1369   -0.9460    0.1654 O   0  0  0  0  0  0  0  0  0  0  0  0
    2.2592   -2.3635    0.0691 C   0  0  0  0  0  0  0  0  0  0  0  0
   -0.2616   -1.0952   -0.2496 C   0  0  0  0  0  0  0  0  0  0  0  0
   -1.4700   -0.4231   -0.3874 C   0  0  0  0  0  0  0  0  0  0  0  0
   -0.3592    2.7759    0.0920 H   0  0  0  0  0  0  0  0  0  0  0  0
    1.8127    1.5482    0.3388 H   0  0  0  0  0  0  0  0  0  0  0  0
    3.3141   -2.5811    0.2358 H   0  0  0  0  0  0  0  0  0  0  0  0
    1.9656   -2.7226   -0.9241 H   0  0  0  0  0  0  0  0  0  0  0  0
    1.6579   -2.8680    0.8339 H   0  0  0  0  0  0  0  0  0  0  0  0
   -0.2493   -2.1736   -0.3492 H   0  0  0  0  0  0  0  0  0  0  0  0
   -2.3932   -0.9529   -0.5895 H   0  0  0  0  0  0  0  0  0  0  0  0
   -4.7001   -0.2697   -0.8762 Cl  0  0  0  0  0  0  0  0  0  0  0  0
  1  4  1  0  0  0  0
  2  1  1  0  0  0  0
  3  2  2  0  0  0  0
  4 11  1  0  0  0  0
  4  5  2  0  0  0  0
  5 12  1  0  0  0  0
  6  5  1  0  0  0  0
  6  7  1  0  0  0  0
  8  7  1  0  0  0  0
  8 13  1  0  0  0  0
  8 15  1  0  0  0  0
  9  6  2  0  0  0  0
 10  1  2  0  0  0  0
 10  9  1  0  0  0  0
 14  8  1  0  0  0  0
 16  9  1  0  0  0  0
 17 10  1  0  0  0  0
 18  3  1  0  0  0  0
M  END
