Coordinates from ORCA-job 4-MeOPhN2+~Cl-_B3LYPG-6-31G_dp-NX-Scan-d89-09-n800
 OpenBabel11261920533D

 18 17  0  0  0  0  0  0  0  0999 V2000
   -1.4723    0.9941   -0.2528 C   0  0  0  0  0  0  0  0  0  0  0  0
   -2.6541    1.7244   -0.3789 N   0  0  0  0  0  0  0  0  0  0  0  0
   -3.7954    1.7019   -0.5675 N   0  0  0  0  0  0  0  0  0  0  0  0
   -0.2917    1.7140    0.0048 C   0  0  0  0  0  0  0  0  0  0  0  0
    0.8990    1.0290    0.1370 C   0  0  0  0  0  0  0  0  0  0  0  0
    0.9212   -0.3763    0.0140 C   0  0  0  0  0  0  0  0  0  0  0  0
    2.1327   -0.9483    0.1621 O   0  0  0  0  0  0  0  0  0  0  0  0
    2.2476   -2.3674    0.0647 C   0  0  0  0  0  0  0  0  0  0  0  0
   -0.2669   -1.0841   -0.2445 C   0  0  0  0  0  0  0  0  0  0  0  0
   -1.4701   -0.4036   -0.3790 C   0  0  0  0  0  0  0  0  0  0  0  0
   -0.3310    2.7941    0.0976 H   0  0  0  0  0  0  0  0  0  0  0  0
    1.8307    1.5458    0.3368 H   0  0  0  0  0  0  0  0  0  0  0  0
    3.3020   -2.5896    0.2278 H   0  0  0  0  0  0  0  0  0  0  0  0
    1.9487   -2.7236   -0.9277 H   0  0  0  0  0  0  0  0  0  0  0  0
    1.6462   -2.8682    0.8316 H   0  0  0  0  0  0  0  0  0  0  0  0
   -0.2623   -2.1626   -0.3429 H   0  0  0  0  0  0  0  0  0  0  0  0
   -2.4080   -0.9144   -0.5784 H   0  0  0  0  0  0  0  0  0  0  0  0
   -4.7309   -0.4165   -0.9157 Cl  0  0  0  0  0  0  0  0  0  0  0  0
  1  4  1  0  0  0  0
  2  1  1  0  0  0  0
  3  2  2  0  0  0  0
  4 11  1  0  0  0  0
  4  5  2  0  0  0  0
  5 12  1  0  0  0  0
  6  5  1  0  0  0  0
  6  7  1  0  0  0  0
  8  7  1  0  0  0  0
  8 13  1  0  0  0  0
  8 15  1  0  0  0  0
  9  6  2  0  0  0  0
 10  1  2  0  0  0  0
 10  9  1  0  0  0  0
 14  8  1  0  0  0  0
 16  9  1  0  0  0  0
 17 10  1  0  0  0  0
M  RAD  2   3   2  18   2
M  END
