Coordinates from ORCA-job 4-MeOPhN2+~Cl-_B3LYPG-6-31G_dp-NX-Scan-d89-09-n800
 OpenBabel11261920443D

 18 17  0  0  0  0  0  0  0  0999 V2000
   -1.4397   -0.0447   -0.0414 C   0  0  0  0  0  0  0  0  0  0  0  0
   -2.8024   -0.0831    0.0568 N   0  0  0  0  0  0  0  0  0  0  0  0
   -3.9181   -0.1113    0.1375 N   0  0  0  0  0  0  0  0  0  0  0  0
   -0.7892    1.2138   -0.0012 C   0  0  0  0  0  0  0  0  0  0  0  0
    0.5789    1.2329   -0.1003 C   0  0  0  0  0  0  0  0  0  0  0  0
    1.3095    0.0222   -0.2384 C   0  0  0  0  0  0  0  0  0  0  0  0
    2.6239    0.1640   -0.3237 O   0  0  0  0  0  0  0  0  0  0  0  0
    3.4804   -0.9863   -0.4643 C   0  0  0  0  0  0  0  0  0  0  0  0
    0.6343   -1.2236   -0.2764 C   0  0  0  0  0  0  0  0  0  0  0  0
   -0.7398   -1.2628   -0.1783 C   0  0  0  0  0  0  0  0  0  0  0  0
   -1.3635    2.1303    0.1055 H   0  0  0  0  0  0  0  0  0  0  0  0
    1.1290    2.1680   -0.0749 H   0  0  0  0  0  0  0  0  0  0  0  0
    4.4917   -0.5858   -0.5048 H   0  0  0  0  0  0  0  0  0  0  0  0
    3.2558   -1.5220   -1.3913 H   0  0  0  0  0  0  0  0  0  0  0  0
    3.3772   -1.6499    0.3993 H   0  0  0  0  0  0  0  0  0  0  0  0
    1.1824   -2.1532   -0.3821 H   0  0  0  0  0  0  0  0  0  0  0  0
   -1.2776   -2.2078   -0.2052 H   0  0  0  0  0  0  0  0  0  0  0  0
  -12.4875   -0.4517    0.7723 Cl  0  0  0  0  0  0  0  0  0  0  0  0
  1  4  1  0  0  0  0
  1  2  1  0  0  0  0
  2  3  1  0  0  0  0
  4 11  1  0  0  0  0
  5 12  1  0  0  0  0
  5  4  2  0  0  0  0
  6  5  1  0  0  0  0
  7  6  1  0  0  0  0
  8  7  1  0  0  0  0
  8 15  1  0  0  0  0
  9  6  2  0  0  0  0
  9 10  1  0  0  0  0
 10  1  2  0  0  0  0
 13  8  1  0  0  0  0
 14  8  1  0  0  0  0
 16  9  1  0  0  0  0
 17 10  1  0  0  0  0
M  RAD  3   2   2   3   3  18   2
M  END
