Coordinates from ORCA-job 4-MeOPhN2+~Cl-_B3LYPG-6-31G_dp-NX-Scan-d89-09-n800
 OpenBabel11261920533D

 18 17  0  0  0  0  0  0  0  0999 V2000
   -1.4760    1.2793   -0.4518 C   0  0  0  0  0  0  0  0  0  0  0  0
   -2.5692    2.0358   -0.6691 N   0  0  0  0  0  0  0  0  0  0  0  0
   -3.4941    2.6553   -0.8517 N   0  0  0  0  0  0  0  0  0  0  0  0
   -0.2486    1.9240   -0.1148 C   0  0  0  0  0  0  0  0  0  0  0  0
    0.8511    1.1387    0.1143 C   0  0  0  0  0  0  0  0  0  0  0  0
    0.7554   -0.2791    0.0116 C   0  0  0  0  0  0  0  0  0  0  0  0
    1.8716   -0.9534    0.2680 O   0  0  0  0  0  0  0  0  0  0  0  0
    1.8405   -2.3976    0.1937 C   0  0  0  0  0  0  0  0  0  0  0  0
   -0.4637   -0.8979   -0.3280 C   0  0  0  0  0  0  0  0  0  0  0  0
   -1.5842   -0.1342   -0.5508 C   0  0  0  0  0  0  0  0  0  0  0  0
   -0.2017    3.0044   -0.0358 H   0  0  0  0  0  0  0  0  0  0  0  0
    1.8057    1.5778    0.3816 H   0  0  0  0  0  0  0  0  0  0  0  0
    2.8235   -2.7196    0.5337 H   0  0  0  0  0  0  0  0  0  0  0  0
    1.6709   -2.7188   -0.8373 H   0  0  0  0  0  0  0  0  0  0  0  0
    1.0540   -2.8068    0.8323 H   0  0  0  0  0  0  0  0  0  0  0  0
   -0.6500   -1.9865   -0.3540 H   0  0  0  0  0  0  0  0  0  0  0  0
   -2.5179   -0.6495   -0.7639 H   0  0  0  0  0  0  0  0  0  0  0  0
   -2.2219   -3.4230   -0.0891 Cl  0  0  0  0  0  0  0  0  0  0  0  0
  1  4  1  0  0  0  0
  2  1  1  0  0  0  0
  3  2  1  0  0  0  0
  4 11  1  0  0  0  0
  4  5  2  0  0  0  0
  5 12  1  0  0  0  0
  6  5  1  0  0  0  0
  6  7  1  0  0  0  0
  8  7  1  0  0  0  0
  8 13  1  0  0  0  0
  8 15  1  0  0  0  0
  9  6  2  0  0  0  0
 10  1  2  0  0  0  0
 10  9  1  0  0  0  0
 14  8  1  0  0  0  0
 16  9  1  0  0  0  0
 17 10  1  0  0  0  0
M  RAD  3   2   2   3   3  18   2
M  END
