Coordinates from ORCA-job 4-MeOPhN2+~Cl-_B3LYPG-6-31G_dp-NX-Scan-d89-09-n800
 OpenBabel11261920533D

 18 18  0  0  1  0  0  0  0  0999 V2000
   -1.4975    1.0953   -0.5426 C   0  0  0  0  0  0  0  0  0  0  0  0
   -2.6579    1.7203   -0.6599 N   0  0  0  0  0  0  0  0  0  0  0  0
   -3.7333    2.0711   -0.7146 N   0  0  0  0  0  0  0  0  0  0  0  0
   -0.3695    1.7427    0.0515 C   0  0  0  0  0  0  0  0  0  0  0  0
    0.7338    1.0031    0.3361 C   0  0  0  0  0  0  0  0  0  0  0  0
    0.7513   -0.4078    0.0343 C   0  0  0  0  0  0  0  0  0  0  0  0
    1.9353   -0.9948    0.3168 O   0  0  0  0  0  0  0  0  0  0  0  0
    2.0609   -2.4005    0.1199 C   0  0  0  0  0  0  0  0  0  0  0  0
   -0.3304   -1.0458   -0.5231 C   0  0  0  0  0  0  0  0  0  0  0  0
   -1.5678   -0.3491   -0.7453 C   0  0  1  0  0  0  0  0  0  0  0  0
   -0.4210    2.8019    0.2785 H   0  0  0  0  0  0  0  0  0  0  0  0
    1.6165    1.4399    0.7874 H   0  0  0  0  0  0  0  0  0  0  0  0
    3.0624   -2.6613    0.4623 H   0  0  0  0  0  0  0  0  0  0  0  0
    1.9575   -2.6632   -0.9396 H   0  0  0  0  0  0  0  0  0  0  0  0
    1.3151   -2.9490    0.7054 H   0  0  0  0  0  0  0  0  0  0  0  0
   -0.2983   -2.0961   -0.7791 H   0  0  0  0  0  0  0  0  0  0  0  0
   -2.1858   -0.6993   -1.5626 H   0  0  0  0  0  0  0  0  0  0  0  0
   -3.1260   -0.9583    0.6638 Cl  0  0  0  0  0  0  0  0  0  0  0  0
  1  4  2  0  0  0  0
  2  1  1  0  0  0  0
  3  2  1  0  0  0  0
  4 11  1  0  0  0  0
  4  5  1  0  0  0  0
  5 12  1  0  0  0  0
  6  7  1  0  0  0  0
  6  5  1  0  0  0  0
  8  7  1  0  0  0  0
  8 13  1  0  0  0  0
  8 15  1  0  0  0  0
  9  6  2  0  0  0  0
 10 17  1  6  0  0  0
 10  1  1  0  0  0  0
 10  9  1  0  0  0  0
 10 18  1  0  0  0  0
 14  8  1  0  0  0  0
 16  9  1  0  0  0  0
M  RAD  3   2   2   3   3   5   2
M  END
