Coordinates from ORCA-job 4-MeOPhN2+~Cl-_B3LYPG-6-31G_dp-NX-Scan-d89-09-n800
 OpenBabel11261920533D

 18 17  0  0  0  0  0  0  0  0999 V2000
   -1.4649    1.3391   -0.4988 C   0  0  0  0  0  0  0  0  0  0  0  0
   -2.5661    2.0918   -0.6564 N   0  0  0  0  0  0  0  0  0  0  0  0
   -3.5332    2.6544   -0.8092 N   0  0  0  0  0  0  0  0  0  0  0  0
   -0.2406    1.9429   -0.0923 C   0  0  0  0  0  0  0  0  0  0  0  0
    0.8360    1.1262    0.1333 C   0  0  0  0  0  0  0  0  0  0  0  0
    0.7148   -0.2874   -0.0200 C   0  0  0  0  0  0  0  0  0  0  0  0
    1.7880   -0.9902    0.2933 O   0  0  0  0  0  0  0  0  0  0  0  0
    1.7495   -2.4394    0.1798 C   0  0  0  0  0  0  0  0  0  0  0  0
   -0.4973   -0.8675   -0.4654 C   0  0  0  0  0  0  0  0  0  0  0  0
   -1.5858   -0.0657   -0.6905 C   0  0  0  0  0  0  0  0  0  0  0  0
   -0.1784    3.0167    0.0444 H   0  0  0  0  0  0  0  0  0  0  0  0
    1.7878    1.5315    0.4573 H   0  0  0  0  0  0  0  0  0  0  0  0
    2.6708   -2.7790    0.6503 H   0  0  0  0  0  0  0  0  0  0  0  0
    1.7387   -2.7172   -0.8773 H   0  0  0  0  0  0  0  0  0  0  0  0
    0.8602   -2.8543    0.6708 H   0  0  0  0  0  0  0  0  0  0  0  0
   -0.6762   -1.9603   -0.4838 H   0  0  0  0  0  0  0  0  0  0  0  0
   -2.5350   -0.5112   -0.9694 H   0  0  0  0  0  0  0  0  0  0  0  0
   -1.6229   -3.5813    0.4231 Cl  0  0  0  0  0  0  0  0  0  0  0  0
  1  4  1  0  0  0  0
  2  1  1  0  0  0  0
  3  2  1  0  0  0  0
  4 11  1  0  0  0  0
  4  5  2  0  0  0  0
  5 12  1  0  0  0  0
  6  5  1  0  0  0  0
  6  7  1  0  0  0  0
  8  7  1  0  0  0  0
  8 13  1  0  0  0  0
  8 15  1  0  0  0  0
  9  6  2  0  0  0  0
 10  1  2  0  0  0  0
 10  9  1  0  0  0  0
 14  8  1  0  0  0  0
 16  9  1  0  0  0  0
 17 10  1  0  0  0  0
M  RAD  3   2   2   3   3  18   2
M  END
