Coordinates from ORCA-job 4-MeOPhN2+~Cl-_B3LYPG-6-31G_dp-NX-Scan-d89-09-n800
 OpenBabel11261920533D

 18 17  0  0  0  0  0  0  0  0999 V2000
   -1.6052    1.0416   -0.4472 C   0  0  0  0  0  0  0  0  0  0  0  0
   -2.5349    1.8158   -0.9953 N   0  0  0  0  0  0  0  0  0  0  0  0
   -3.2571    2.5445   -1.4904 N   0  0  0  0  0  0  0  0  0  0  0  0
   -0.4883    1.6971    0.1864 C   0  0  0  0  0  0  0  0  0  0  0  0
    0.6252    0.9710    0.4539 C   0  0  0  0  0  0  0  0  0  0  0  0
    0.6958   -0.4167    0.0652 C   0  0  0  0  0  0  0  0  0  0  0  0
    1.9107   -0.9696    0.2805 O   0  0  0  0  0  0  0  0  0  0  0  0
    2.0814   -2.3559   -0.0024 C   0  0  0  0  0  0  0  0  0  0  0  0
   -0.3844   -1.0630   -0.4793 C   0  0  0  0  0  0  0  0  0  0  0  0
   -1.6621   -0.4090   -0.5682 C   0  0  0  0  0  0  0  0  0  0  0  0
   -0.5507    2.7550    0.4168 H   0  0  0  0  0  0  0  0  0  0  0  0
    1.4925    1.4126    0.9310 H   0  0  0  0  0  0  0  0  0  0  0  0
    3.1064   -2.5945    0.2817 H   0  0  0  0  0  0  0  0  0  0  0  0
    1.9406   -2.5626   -1.0703 H   0  0  0  0  0  0  0  0  0  0  0  0
    1.3843   -2.9661    0.5822 H   0  0  0  0  0  0  0  0  0  0  0  0
   -0.3478   -2.1123   -0.7375 H   0  0  0  0  0  0  0  0  0  0  0  0
   -2.3858   -0.8070   -1.2676 H   0  0  0  0  0  0  0  0  0  0  0  0
   -2.7753   -1.3319    1.1497 Cl  0  0  0  0  0  0  0  0  0  0  0  0
  1  4  2  0  0  0  0
  2  1  1  0  0  0  0
  3  2  1  0  0  0  0
  4 11  1  0  0  0  0
  4  5  1  0  0  0  0
  5 12  1  0  0  0  0
  6  7  1  0  0  0  0
  6  5  2  0  0  0  0
  8  7  1  0  0  0  0
  8 13  1  0  0  0  0
  8 15  1  0  0  0  0
  9  6  1  0  0  0  0
 10  9  2  0  0  0  0
 10  1  1  0  0  0  0
 14  8  1  0  0  0  0
 16  9  1  0  0  0  0
 17 10  1  0  0  0  0
M  RAD  3   2   2   3   3  18   2
M  END
