Coordinates from ORCA-job 4-MeOPhN2+~Cl-_B3LYPG-6-31G_dp-NX-Scan-d89-09-n800
 OpenBabel11261920533D

 18 18  0  0  1  0  0  0  0  0999 V2000
   -1.6014    1.0413   -0.4495 C   0  0  0  0  0  0  0  0  0  0  0  0
   -2.5420    1.8084   -0.9836 N   0  0  0  0  0  0  0  0  0  0  0  0
   -3.2848    2.5242   -1.4674 N   0  0  0  0  0  0  0  0  0  0  0  0
   -0.4841    1.6960    0.1835 C   0  0  0  0  0  0  0  0  0  0  0  0
    0.6275    0.9691    0.4551 C   0  0  0  0  0  0  0  0  0  0  0  0
    0.6961   -0.4208    0.0694 C   0  0  0  0  0  0  0  0  0  0  0  0
    1.9127   -0.9722    0.2837 O   0  0  0  0  0  0  0  0  0  0  0  0
    2.0848   -2.3573   -0.0019 C   0  0  0  0  0  0  0  0  0  0  0  0
   -0.3828   -1.0674   -0.4736 C   0  0  0  0  0  0  0  0  0  0  0  0
   -1.6654   -0.4130   -0.5618 C   0  0  1  0  0  0  0  0  0  0  0  0
   -0.5452    2.7546    0.4112 H   0  0  0  0  0  0  0  0  0  0  0  0
    1.4954    1.4103    0.9312 H   0  0  0  0  0  0  0  0  0  0  0  0
    3.1105   -2.5955    0.2804 H   0  0  0  0  0  0  0  0  0  0  0  0
    1.9427   -2.5625   -1.0699 H   0  0  0  0  0  0  0  0  0  0  0  0
    1.3893   -2.9698    0.5823 H   0  0  0  0  0  0  0  0  0  0  0  0
   -0.3449   -2.1158   -0.7356 H   0  0  0  0  0  0  0  0  0  0  0  0
   -2.3726   -0.8029   -1.2832 H   0  0  0  0  0  0  0  0  0  0  0  0
   -2.7906   -1.2777    1.1188 Cl  0  0  0  0  0  0  0  0  0  0  0  0
  1  4  2  0  0  0  0
  2  1  1  0  0  0  0
  3  2  1  0  0  0  0
  4 11  1  0  0  0  0
  4  5  1  0  0  0  0
  5 12  1  0  0  0  0
  6  7  1  0  0  0  0
  6  5  1  0  0  0  0
  8 13  1  0  0  0  0
  8  7  1  0  0  0  0
  8 15  1  0  0  0  0
  9  6  2  0  0  0  0
 10 17  1  6  0  0  0
 10  9  1  0  0  0  0
 10  1  1  0  0  0  0
 10 18  1  0  0  0  0
 14  8  1  0  0  0  0
 16  9  1  0  0  0  0
M  RAD  3   2   2   3   3   5   2
M  END
