Coordinates from ORCA-job 4-MeOPhN2+~Cl-_B3LYPG-6-31G_dp-NX-Scan-d89-09-n800
 OpenBabel11261920533D

 18 17  0  0  0  0  0  0  0  0999 V2000
   -1.4405    1.0394   -0.2439 C   0  0  0  0  0  0  0  0  0  0  0  0
   -2.6318    1.7376   -0.3743 N   0  0  0  0  0  0  0  0  0  0  0  0
   -3.7536    1.8210   -0.5497 N   0  0  0  0  0  0  0  0  0  0  0  0
   -0.2546    1.7516    0.0142 C   0  0  0  0  0  0  0  0  0  0  0  0
    0.9203    1.0426    0.1414 C   0  0  0  0  0  0  0  0  0  0  0  0
    0.9156   -0.3658    0.0134 C   0  0  0  0  0  0  0  0  0  0  0  0
    2.1151   -0.9547    0.1584 O   0  0  0  0  0  0  0  0  0  0  0  0
    2.2121   -2.3774    0.0586 C   0  0  0  0  0  0  0  0  0  0  0  0
   -0.2840   -1.0557   -0.2460 C   0  0  0  0  0  0  0  0  0  0  0  0
   -1.4763   -0.3586   -0.3772 C   0  0  0  0  0  0  0  0  0  0  0  0
   -0.2748    2.8318    0.1106 H   0  0  0  0  0  0  0  0  0  0  0  0
    1.8624    1.5397    0.3416 H   0  0  0  0  0  0  0  0  0  0  0  0
    3.2637   -2.6114    0.2213 H   0  0  0  0  0  0  0  0  0  0  0  0
    1.9084   -2.7259   -0.9346 H   0  0  0  0  0  0  0  0  0  0  0  0
    1.6041   -2.8695    0.8252 H   0  0  0  0  0  0  0  0  0  0  0  0
   -0.2970   -2.1338   -0.3474 H   0  0  0  0  0  0  0  0  0  0  0  0
   -2.4379   -0.8448   -0.5778 H   0  0  0  0  0  0  0  0  0  0  0  0
   -4.7059   -0.8171   -0.9447 Cl  0  0  0  0  0  0  0  0  0  0  0  0
  1  4  2  0  0  0  0
  2  1  1  0  0  0  0
  3  2  2  0  0  0  0
  4 11  1  0  0  0  0
  4  5  1  0  0  0  0
  5 12  1  0  0  0  0
  6  5  2  0  0  0  0
  6  7  1  0  0  0  0
  8  7  1  0  0  0  0
  8 13  1  0  0  0  0
  8 15  1  0  0  0  0
  9  6  1  0  0  0  0
 10  9  2  0  0  0  0
 10  1  1  0  0  0  0
 14  8  1  0  0  0  0
 16  9  1  0  0  0  0
 17 10  1  0  0  0  0
M  RAD  2   3   2  18   2
M  END
