Coordinates from ORCA-job 4-MeOPhN2+~Cl-_B3LYPG-6-31G_dp-NX-Scan-d89-09-n800
 OpenBabel11261920533D

 18 18  0  0  1  0  0  0  0  0999 V2000
   -1.5194    1.0834   -0.5235 C   0  0  0  0  0  0  0  0  0  0  0  0
   -2.6497    1.7398   -0.7092 N   0  0  0  0  0  0  0  0  0  0  0  0
   -3.6828    2.1861   -0.8533 N   0  0  0  0  0  0  0  0  0  0  0  0
   -0.3900    1.7311    0.0747 C   0  0  0  0  0  0  0  0  0  0  0  0
    0.7135    0.9946    0.3588 C   0  0  0  0  0  0  0  0  0  0  0  0
    0.7392   -0.4159    0.0451 C   0  0  0  0  0  0  0  0  0  0  0  0
    1.9336   -0.9931    0.3115 O   0  0  0  0  0  0  0  0  0  0  0  0
    2.0702   -2.3944    0.0977 C   0  0  0  0  0  0  0  0  0  0  0  0
   -0.3408   -1.0575   -0.5020 C   0  0  0  0  0  0  0  0  0  0  0  0
   -1.5975   -0.3700   -0.6981 C   0  0  1  0  0  0  0  0  0  0  0  0
   -0.4416    2.7915    0.2967 H   0  0  0  0  0  0  0  0  0  0  0  0
    1.5954    1.4331    0.8100 H   0  0  0  0  0  0  0  0  0  0  0  0
    3.0789   -2.6497    0.4230 H   0  0  0  0  0  0  0  0  0  0  0  0
    1.9539   -2.6474   -0.9630 H   0  0  0  0  0  0  0  0  0  0  0  0
    1.3382   -2.9571    0.6876 H   0  0  0  0  0  0  0  0  0  0  0  0
   -0.3074   -2.1076   -0.7588 H   0  0  0  0  0  0  0  0  0  0  0  0
   -2.2032   -0.7146   -1.5288 H   0  0  0  0  0  0  0  0  0  0  0  0
   -3.0450   -1.0033    0.7206 Cl  0  0  0  0  0  0  0  0  0  0  0  0
  1  4  2  0  0  0  0
  2  1  1  0  0  0  0
  3  2  1  0  0  0  0
  4 11  1  0  0  0  0
  4  5  1  0  0  0  0
  5 12  1  0  0  0  0
  6  7  1  0  0  0  0
  6  5  1  0  0  0  0
  8  7  1  0  0  0  0
  8 13  1  0  0  0  0
  8 15  1  0  0  0  0
  9  6  2  0  0  0  0
 10 17  1  6  0  0  0
 10  1  1  0  0  0  0
 10  9  1  0  0  0  0
 10 18  1  0  0  0  0
 14  8  1  0  0  0  0
 16  9  1  0  0  0  0
M  RAD  3   2   2   3   3   5   2
M  END
