Coordinates from ORCA-job 4-MeOPhN2+~Cl-_B3LYPG-6-31G_dp-NX-Scan-d89-09-n800
 OpenBabel11261920443D

 18 17  0  0  0  0  0  0  0  0999 V2000
   -1.4325   -0.0476   -0.0414 C   0  0  0  0  0  0  0  0  0  0  0  0
   -2.7954   -0.0872    0.0571 N   0  0  0  0  0  0  0  0  0  0  0  0
   -3.9110   -0.1163    0.1380 N   0  0  0  0  0  0  0  0  0  0  0  0
   -0.7831    1.2114   -0.0014 C   0  0  0  0  0  0  0  0  0  0  0  0
    0.5849    1.2317   -0.1008 C   0  0  0  0  0  0  0  0  0  0  0  0
    1.3165    0.0217   -0.2389 C   0  0  0  0  0  0  0  0  0  0  0  0
    2.6308    0.1645   -0.3244 O   0  0  0  0  0  0  0  0  0  0  0  0
    3.4883   -0.9851   -0.4652 C   0  0  0  0  0  0  0  0  0  0  0  0
    0.6424   -1.2248   -0.2768 C   0  0  0  0  0  0  0  0  0  0  0  0
   -0.7316   -1.2651   -0.1784 C   0  0  0  0  0  0  0  0  0  0  0  0
   -1.3582    2.1276    0.1054 H   0  0  0  0  0  0  0  0  0  0  0  0
    1.1342    2.1674   -0.0755 H   0  0  0  0  0  0  0  0  0  0  0  0
    4.4992   -0.5837   -0.5059 H   0  0  0  0  0  0  0  0  0  0  0  0
    3.2639   -1.5210   -1.3922 H   0  0  0  0  0  0  0  0  0  0  0  0
    3.3858   -1.6488    0.3983 H   0  0  0  0  0  0  0  0  0  0  0  0
    1.1912   -2.1541   -0.3825 H   0  0  0  0  0  0  0  0  0  0  0  0
   -1.2686   -2.2108   -0.2052 H   0  0  0  0  0  0  0  0  0  0  0  0
  -12.6116   -0.4307    0.7789 Cl  0  0  0  0  0  0  0  0  0  0  0  0
  1  4  1  0  0  0  0
  1  2  1  0  0  0  0
  2  3  1  0  0  0  0
  4 11  1  0  0  0  0
  5 12  1  0  0  0  0
  5  4  2  0  0  0  0
  6  5  1  0  0  0  0
  7  6  1  0  0  0  0
  8  7  1  0  0  0  0
  8 15  1  0  0  0  0
  9  6  2  0  0  0  0
  9 10  1  0  0  0  0
 10  1  2  0  0  0  0
 13  8  1  0  0  0  0
 14  8  1  0  0  0  0
 16  9  1  0  0  0  0
 17 10  1  0  0  0  0
M  RAD  3   2   2   3   3  18   2
M  END
