Coordinates from ORCA-job 4-MeOPhN2+~Cl-_B3LYPG-6-31G_dp-NX-Scan-d89-09-n800
 OpenBabel11261920533D

 18 17  0  0  0  0  0  0  0  0999 V2000
   -1.4323    1.0607   -0.2400 C   0  0  0  0  0  0  0  0  0  0  0  0
   -2.6210    1.7485   -0.3714 N   0  0  0  0  0  0  0  0  0  0  0  0
   -3.7253    1.9312   -0.5355 N   0  0  0  0  0  0  0  0  0  0  0  0
   -0.2412    1.7689    0.0179 C   0  0  0  0  0  0  0  0  0  0  0  0
    0.9252    1.0490    0.1427 C   0  0  0  0  0  0  0  0  0  0  0  0
    0.9074   -0.3617    0.0129 C   0  0  0  0  0  0  0  0  0  0  0  0
    2.1009   -0.9580    0.1558 O   0  0  0  0  0  0  0  0  0  0  0  0
    2.1895   -2.3826    0.0538 C   0  0  0  0  0  0  0  0  0  0  0  0
   -0.2977   -1.0424   -0.2456 C   0  0  0  0  0  0  0  0  0  0  0  0
   -1.4853   -0.3385   -0.3753 C   0  0  0  0  0  0  0  0  0  0  0  0
   -0.2519    2.8492    0.1153 H   0  0  0  0  0  0  0  0  0  0  0  0
    1.8723    1.5365    0.3422 H   0  0  0  0  0  0  0  0  0  0  0  0
    3.2399   -2.6222    0.2151 H   0  0  0  0  0  0  0  0  0  0  0  0
    1.8822   -2.7264   -0.9395 H   0  0  0  0  0  0  0  0  0  0  0  0
    1.5791   -2.8707    0.8206 H   0  0  0  0  0  0  0  0  0  0  0  0
   -0.3201   -2.1204   -0.3480 H   0  0  0  0  0  0  0  0  0  0  0  0
   -2.4582   -0.8191   -0.5775 H   0  0  0  0  0  0  0  0  0  0  0  0
   -4.6181   -1.0529   -0.9545 Cl  0  0  0  0  0  0  0  0  0  0  0  0
  1  4  2  0  0  0  0
  2  1  1  0  0  0  0
  3  2  1  0  0  0  0
  4 11  1  0  0  0  0
  4  5  1  0  0  0  0
  5 12  1  0  0  0  0
  6  5  2  0  0  0  0
  6  7  1  0  0  0  0
  8  7  1  0  0  0  0
  8 13  1  0  0  0  0
  8 15  1  0  0  0  0
  9  6  1  0  0  0  0
 10  9  2  0  0  0  0
 10  1  1  0  0  0  0
 14  8  1  0  0  0  0
 16  9  1  0  0  0  0
 17 10  1  0  0  0  0
M  RAD  3   2   2   3   3  18   2
M  END
