Coordinates from ORCA-job 4-MeOPhN2+~Cl-_B3LYPG-6-31G_dp-NX-Scan-d89-09-n800
 OpenBabel11261920533D

 18 17  0  0  0  0  0  0  0  0999 V2000
   -1.4629    1.3141   -0.4999 C   0  0  0  0  0  0  0  0  0  0  0  0
   -2.5788    2.0508   -0.6313 N   0  0  0  0  0  0  0  0  0  0  0  0
   -3.5532    2.6066   -0.7547 N   0  0  0  0  0  0  0  0  0  0  0  0
   -0.2474    1.9309   -0.0832 C   0  0  0  0  0  0  0  0  0  0  0  0
    0.8412    1.1261    0.1305 C   0  0  0  0  0  0  0  0  0  0  0  0
    0.7397   -0.2853   -0.0474 C   0  0  0  0  0  0  0  0  0  0  0  0
    1.8153   -0.9868    0.2727 O   0  0  0  0  0  0  0  0  0  0  0  0
    1.7635   -2.4354    0.1829 C   0  0  0  0  0  0  0  0  0  0  0  0
   -0.4579   -0.8716   -0.5142 C   0  0  0  0  0  0  0  0  0  0  0  0
   -1.5630   -0.0865   -0.7193 C   0  0  0  0  0  0  0  0  0  0  0  0
   -0.2030    3.0024    0.0755 H   0  0  0  0  0  0  0  0  0  0  0  0
    1.7851    1.5394    0.4674 H   0  0  0  0  0  0  0  0  0  0  0  0
    2.6769   -2.7773    0.6671 H   0  0  0  0  0  0  0  0  0  0  0  0
    1.7594   -2.7356   -0.8684 H   0  0  0  0  0  0  0  0  0  0  0  0
    0.8695   -2.8308    0.6795 H   0  0  0  0  0  0  0  0  0  0  0  0
   -0.6269   -1.9591   -0.5505 H   0  0  0  0  0  0  0  0  0  0  0  0
   -2.5050   -0.5505   -0.9914 H   0  0  0  0  0  0  0  0  0  0  0  0
   -1.8074   -3.4024    0.4738 Cl  0  0  0  0  0  0  0  0  0  0  0  0
  1  4  2  0  0  0  0
  2  1  1  0  0  0  0
  3  2  1  0  0  0  0
  4 11  1  0  0  0  0
  4  5  1  0  0  0  0
  5 12  1  0  0  0  0
  6  5  2  0  0  0  0
  6  7  1  0  0  0  0
  8  7  1  0  0  0  0
  8 13  1  0  0  0  0
  8 15  1  0  0  0  0
  9  6  1  0  0  0  0
 10  9  2  0  0  0  0
 10  1  1  0  0  0  0
 14  8  1  0  0  0  0
 16  9  1  0  0  0  0
 17 10  1  0  0  0  0
M  RAD  3   2   2   3   3  18   2
M  END
