Coordinates from ORCA-job 4-MeOPhN2+~Cl-_B3LYPG-6-31G_dp-NX-Scan-d89-09-n800
 OpenBabel11261920533D

 18 17  0  0  0  0  0  0  0  0999 V2000
   -1.4842    1.1877   -0.4763 C   0  0  0  0  0  0  0  0  0  0  0  0
   -2.5840    1.9241   -0.7316 N   0  0  0  0  0  0  0  0  0  0  0  0
   -3.4967    2.5553   -0.9334 N   0  0  0  0  0  0  0  0  0  0  0  0
   -0.2966    1.8641   -0.0585 C   0  0  0  0  0  0  0  0  0  0  0  0
    0.8214    1.1111    0.1723 C   0  0  0  0  0  0  0  0  0  0  0  0
    0.7865   -0.3056    0.0076 C   0  0  0  0  0  0  0  0  0  0  0  0
    1.9397   -0.9310    0.2671 O   0  0  0  0  0  0  0  0  0  0  0  0
    1.9834   -2.3643    0.1847 C   0  0  0  0  0  0  0  0  0  0  0  0
   -0.3949   -0.9511   -0.3825 C   0  0  0  0  0  0  0  0  0  0  0  0
   -1.5438   -0.2211   -0.6355 C   0  0  0  0  0  0  0  0  0  0  0  0
   -0.2973    2.9395    0.0806 H   0  0  0  0  0  0  0  0  0  0  0  0
    1.7489    1.5689    0.4972 H   0  0  0  0  0  0  0  0  0  0  0  0
    2.9997   -2.6391    0.4639 H   0  0  0  0  0  0  0  0  0  0  0  0
    1.7728   -2.7013   -0.8351 H   0  0  0  0  0  0  0  0  0  0  0  0
    1.2675   -2.8160    0.8773 H   0  0  0  0  0  0  0  0  0  0  0  0
   -0.5064   -2.0292   -0.4365 H   0  0  0  0  0  0  0  0  0  0  0  0
   -2.4543   -0.7747   -0.8794 H   0  0  0  0  0  0  0  0  0  0  0  0
   -3.0163   -2.7684    0.1071 Cl  0  0  0  0  0  0  0  0  0  0  0  0
  1  4  1  0  0  0  0
  2  1  1  0  0  0  0
  3  2  1  0  0  0  0
  4 11  1  0  0  0  0
  4  5  2  0  0  0  0
  5 12  1  0  0  0  0
  6  5  1  0  0  0  0
  6  7  1  0  0  0  0
  8  7  1  0  0  0  0
  8 13  1  0  0  0  0
  8 15  1  0  0  0  0
  9  6  2  0  0  0  0
 10  1  2  0  0  0  0
 10  9  1  0  0  0  0
 14  8  1  0  0  0  0
 16  9  1  0  0  0  0
 17 10  1  0  0  0  0
M  RAD  3   2   2   3   3  18   2
M  END
