Coordinates from ORCA-job 4-MeOPhN2+~Cl-_B3LYPG-6-31G_dp-NX-Scan-d89-09-n800
 OpenBabel11261920533D

 18 17  0  0  0  0  0  0  0  0999 V2000
   -1.4847    1.2493   -0.4389 C   0  0  0  0  0  0  0  0  0  0  0  0
   -2.5749    2.0090   -0.6695 N   0  0  0  0  0  0  0  0  0  0  0  0
   -3.4782    2.6578   -0.8576 N   0  0  0  0  0  0  0  0  0  0  0  0
   -0.2586    1.9081   -0.1214 C   0  0  0  0  0  0  0  0  0  0  0  0
    0.8498    1.1357    0.1053 C   0  0  0  0  0  0  0  0  0  0  0  0
    0.7662   -0.2840    0.0214 C   0  0  0  0  0  0  0  0  0  0  0  0
    1.9001   -0.9398    0.2616 O   0  0  0  0  0  0  0  0  0  0  0  0
    1.8902   -2.3814    0.2098 C   0  0  0  0  0  0  0  0  0  0  0  0
   -0.4525   -0.9156   -0.2872 C   0  0  0  0  0  0  0  0  0  0  0  0
   -1.5850   -0.1654   -0.5166 C   0  0  0  0  0  0  0  0  0  0  0  0
   -0.2193    2.9899   -0.0573 H   0  0  0  0  0  0  0  0  0  0  0  0
    1.8041    1.5860    0.3545 H   0  0  0  0  0  0  0  0  0  0  0  0
    2.9012   -2.6832    0.4791 H   0  0  0  0  0  0  0  0  0  0  0  0
    1.6473   -2.7274   -0.7986 H   0  0  0  0  0  0  0  0  0  0  0  0
    1.1667   -2.7913    0.9188 H   0  0  0  0  0  0  0  0  0  0  0  0
   -0.6251   -1.9990   -0.3177 H   0  0  0  0  0  0  0  0  0  0  0  0
   -2.5072   -0.7098   -0.7215 H   0  0  0  0  0  0  0  0  0  0  0  0
   -2.4947   -3.2898   -0.2751 Cl  0  0  0  0  0  0  0  0  0  0  0  0
  1  4  1  0  0  0  0
  2  1  1  0  0  0  0
  3  2  1  0  0  0  0
  4 11  1  0  0  0  0
  4  5  2  0  0  0  0
  5 12  1  0  0  0  0
  6  5  1  0  0  0  0
  6  7  1  0  0  0  0
  8  7  1  0  0  0  0
  8 13  1  0  0  0  0
  8 15  1  0  0  0  0
  9  6  2  0  0  0  0
 10  1  2  0  0  0  0
 10  9  1  0  0  0  0
 14  8  1  0  0  0  0
 16  9  1  0  0  0  0
 17 10  1  0  0  0  0
M  RAD  3   2   2   3   3  18   2
M  END
