Coordinates from ORCA-job 4-MeOPhN2+~Cl-_B3LYPG-6-31G_dp-NX-Scan-d89-09-n800
 OpenBabel11261920533D

 18 17  0  0  0  0  0  0  0  0999 V2000
   -1.4765    1.3562   -0.4938 C   0  0  0  0  0  0  0  0  0  0  0  0
   -2.5491    2.1372   -0.7002 N   0  0  0  0  0  0  0  0  0  0  0  0
   -3.4810    2.7462   -0.8937 N   0  0  0  0  0  0  0  0  0  0  0  0
   -0.2434    1.9484   -0.0956 C   0  0  0  0  0  0  0  0  0  0  0  0
    0.8204    1.1215    0.1463 C   0  0  0  0  0  0  0  0  0  0  0  0
    0.6830   -0.2930    0.0124 C   0  0  0  0  0  0  0  0  0  0  0  0
    1.7598   -0.9938    0.3100 O   0  0  0  0  0  0  0  0  0  0  0  0
    1.7467   -2.4411    0.1670 C   0  0  0  0  0  0  0  0  0  0  0  0
   -0.5443   -0.8681   -0.4052 C   0  0  0  0  0  0  0  0  0  0  0  0
   -1.6191   -0.0525   -0.6490 C   0  0  0  0  0  0  0  0  0  0  0  0
   -0.1644    3.0242    0.0157 H   0  0  0  0  0  0  0  0  0  0  0  0
    1.7793    1.5190    0.4590 H   0  0  0  0  0  0  0  0  0  0  0  0
    2.6820   -2.7708    0.6164 H   0  0  0  0  0  0  0  0  0  0  0  0
    1.7249   -2.6943   -0.8961 H   0  0  0  0  0  0  0  0  0  0  0  0
    0.8715   -2.8891    0.6564 H   0  0  0  0  0  0  0  0  0  0  0  0
   -0.7186   -1.9646   -0.4139 H   0  0  0  0  0  0  0  0  0  0  0  0
   -2.5742   -0.4836   -0.9305 H   0  0  0  0  0  0  0  0  0  0  0  0
   -1.4514   -3.7530    0.3841 Cl  0  0  0  0  0  0  0  0  0  0  0  0
  1  4  1  0  0  0  0
  2  1  1  0  0  0  0
  3  2  1  0  0  0  0
  4 11  1  0  0  0  0
  4  5  2  0  0  0  0
  5 12  1  0  0  0  0
  6  5  1  0  0  0  0
  6  7  1  0  0  0  0
  8  7  1  0  0  0  0
  8 13  1  0  0  0  0
  8 15  1  0  0  0  0
  9  6  2  0  0  0  0
 10  1  2  0  0  0  0
 10  9  1  0  0  0  0
 14  8  1  0  0  0  0
 16  9  1  0  0  0  0
 17 10  1  0  0  0  0
M  RAD  3   2   2   3   3  18   2
M  END
