Coordinates from ORCA-job 4-MeOPhN2+~Cl-_B3LYPG-6-31G_dp-NX-Scan-d89-09-n800
 OpenBabel11261920533D

 18 18  0  0  0  0  0  0  0  0999 V2000
   -1.5209    0.9525   -0.2735 C   0  0  0  0  0  0  0  0  0  0  0  0
   -2.6642    1.7539   -0.3931 N   0  0  0  0  0  0  0  0  0  0  0  0
   -3.8399    1.6467   -0.5806 N   0  0  0  0  0  0  0  0  0  0  0  0
   -0.3375    1.6719   -0.0081 C   0  0  0  0  0  0  0  0  0  0  0  0
    0.8678    1.0138    0.1354 C   0  0  0  0  0  0  0  0  0  0  0  0
    0.9179   -0.3876    0.0134 C   0  0  0  0  0  0  0  0  0  0  0  0
    2.1400   -0.9437    0.1710 O   0  0  0  0  0  0  0  0  0  0  0  0
    2.2716   -2.3588    0.0737 C   0  0  0  0  0  0  0  0  0  0  0  0
   -0.2572   -1.1091   -0.2554 C   0  0  0  0  0  0  0  0  0  0  0  0
   -1.4723   -0.4474   -0.3980 C   0  0  0  0  0  0  0  0  0  0  0  0
   -0.3977    2.7513    0.0827 H   0  0  0  0  0  0  0  0  0  0  0  0
    1.7867    1.5509    0.3423 H   0  0  0  0  0  0  0  0  0  0  0  0
    3.3272   -2.5710    0.2444 H   0  0  0  0  0  0  0  0  0  0  0  0
    1.9845   -2.7200   -0.9210 H   0  0  0  0  0  0  0  0  0  0  0  0
    1.6705   -2.8695    0.8348 H   0  0  0  0  0  0  0  0  0  0  0  0
   -0.2354   -2.1874   -0.3564 H   0  0  0  0  0  0  0  0  0  0  0  0
   -2.3736   -1.0054   -0.6045 H   0  0  0  0  0  0  0  0  0  0  0  0
   -4.6221   -0.0921   -0.8178 Cl  0  0  0  0  0  0  0  0  0  0  0  0
  1  4  1  0  0  0  0
  2  1  1  0  0  0  0
  3  2  2  0  0  0  0
  4 11  1  0  0  0  0
  4  5  2  0  0  0  0
  5 12  1  0  0  0  0
  6  5  1  0  0  0  0
  6  7  1  0  0  0  0
  8  7  1  0  0  0  0
  8 13  1  0  0  0  0
  8 15  1  0  0  0  0
  9  6  2  0  0  0  0
 10  1  2  0  0  0  0
 10  9  1  0  0  0  0
 14  8  1  0  0  0  0
 16  9  1  0  0  0  0
 17 10  1  0  0  0  0
 18  3  1  0  0  0  0
M  END
