Coordinates from ORCA-job 4-MeOPhN2+~Cl-_B3LYPG-6-31G_dp-NX-Scan-d89-09-n800
 OpenBabel11261920533D

 18 17  0  0  0  0  0  0  0  0999 V2000
   -1.6016    1.0477   -0.4533 C   0  0  0  0  0  0  0  0  0  0  0  0
   -2.5389    1.8291   -0.9872 N   0  0  0  0  0  0  0  0  0  0  0  0
   -3.2582    2.5675   -1.4696 N   0  0  0  0  0  0  0  0  0  0  0  0
   -0.4848    1.7041    0.1778 C   0  0  0  0  0  0  0  0  0  0  0  0
    0.6322    0.9786    0.4376 C   0  0  0  0  0  0  0  0  0  0  0  0
    0.7023   -0.4071    0.0516 C   0  0  0  0  0  0  0  0  0  0  0  0
    1.9098   -0.9675    0.2780 O   0  0  0  0  0  0  0  0  0  0  0  0
    2.0721   -2.3592    0.0113 C   0  0  0  0  0  0  0  0  0  0  0  0
   -0.3810   -1.0514   -0.4982 C   0  0  0  0  0  0  0  0  0  0  0  0
   -1.6437   -0.3929   -0.6033 C   0  0  0  0  0  0  0  0  0  0  0  0
   -0.5484    2.7606    0.4131 H   0  0  0  0  0  0  0  0  0  0  0  0
    1.4996    1.4213    0.9137 H   0  0  0  0  0  0  0  0  0  0  0  0
    3.0928   -2.6015    0.3069 H   0  0  0  0  0  0  0  0  0  0  0  0
    1.9393   -2.5757   -1.0554 H   0  0  0  0  0  0  0  0  0  0  0  0
    1.3652   -2.9564    0.5971 H   0  0  0  0  0  0  0  0  0  0  0  0
   -0.3494   -2.1033   -0.7458 H   0  0  0  0  0  0  0  0  0  0  0  0
   -2.3968   -0.8064   -1.2593 H   0  0  0  0  0  0  0  0  0  0  0  0
   -2.7650   -1.4386    1.1739 Cl  0  0  0  0  0  0  0  0  0  0  0  0
  1  4  2  0  0  0  0
  2  1  1  0  0  0  0
  3  2  1  0  0  0  0
  4 11  1  0  0  0  0
  4  5  1  0  0  0  0
  5 12  1  0  0  0  0
  6  7  1  0  0  0  0
  6  5  2  0  0  0  0
  8  7  1  0  0  0  0
  8 13  1  0  0  0  0
  8 15  1  0  0  0  0
  9  6  1  0  0  0  0
 10  9  2  0  0  0  0
 10  1  1  0  0  0  0
 14  8  1  0  0  0  0
 16  9  1  0  0  0  0
 17 10  1  0  0  0  0
M  RAD  3   2   2   3   3  18   2
M  END
