Coordinates from ORCA-job 4-MeOPhN2+~Cl-_B3LYPG-6-31G_dp-NX-Scan-d89-09-n800
 OpenBabel11261920533D

 18 17  0  0  0  0  0  0  0  0999 V2000
   -1.4795    1.2683   -0.4437 C   0  0  0  0  0  0  0  0  0  0  0  0
   -2.5711    2.0263   -0.6688 N   0  0  0  0  0  0  0  0  0  0  0  0
   -3.4869    2.6580   -0.8557 N   0  0  0  0  0  0  0  0  0  0  0  0
   -0.2509    1.9188   -0.1212 C   0  0  0  0  0  0  0  0  0  0  0  0
    0.8521    1.1385    0.1074 C   0  0  0  0  0  0  0  0  0  0  0  0
    0.7595   -0.2804    0.0193 C   0  0  0  0  0  0  0  0  0  0  0  0
    1.8838   -0.9470    0.2656 O   0  0  0  0  0  0  0  0  0  0  0  0
    1.8599   -2.3904    0.2029 C   0  0  0  0  0  0  0  0  0  0  0  0
   -0.4615   -0.9051   -0.2991 C   0  0  0  0  0  0  0  0  0  0  0  0
   -1.5862   -0.1463   -0.5260 C   0  0  0  0  0  0  0  0  0  0  0  0
   -0.2054    3.0002   -0.0545 H   0  0  0  0  0  0  0  0  0  0  0  0
    1.8080    1.5826    0.3615 H   0  0  0  0  0  0  0  0  0  0  0  0
    2.8584   -2.7039    0.5034 H   0  0  0  0  0  0  0  0  0  0  0  0
    1.6472   -2.7234   -0.8163 H   0  0  0  0  0  0  0  0  0  0  0  0
    1.1063   -2.7984    0.8807 H   0  0  0  0  0  0  0  0  0  0  0  0
   -0.6465   -1.9918   -0.3265 H   0  0  0  0  0  0  0  0  0  0  0  0
   -2.5159   -0.6732   -0.7337 H   0  0  0  0  0  0  0  0  0  0  0  0
   -2.3257   -3.3838   -0.2061 Cl  0  0  0  0  0  0  0  0  0  0  0  0
  1  4  1  0  0  0  0
  2  1  1  0  0  0  0
  3  2  1  0  0  0  0
  4 11  1  0  0  0  0
  4  5  2  0  0  0  0
  5 12  1  0  0  0  0
  6  5  1  0  0  0  0
  6  7  1  0  0  0  0
  8  7  1  0  0  0  0
  8 13  1  0  0  0  0
  8 15  1  0  0  0  0
  9  6  2  0  0  0  0
 10  1  2  0  0  0  0
 10  9  1  0  0  0  0
 14  8  1  0  0  0  0
 16  9  1  0  0  0  0
 17 10  1  0  0  0  0
M  RAD  3   2   2   3   3  18   2
M  END
