Coordinates from ORCA-job 4-MeOPhN2+~Cl-_B3LYPG-6-31G_dp-NX-Scan-d89-09-n800
 OpenBabel11261920533D

 18 18  0  0  0  0  0  0  0  0999 V2000
   -1.5890    0.9198   -0.2693 C   0  0  0  0  0  0  0  0  0  0  0  0
   -2.6905    1.8177   -0.3601 N   0  0  0  0  0  0  0  0  0  0  0  0
   -3.8875    1.3766   -0.6243 N   0  0  0  0  0  0  0  0  0  0  0  0
   -0.3930    1.6273    0.0153 C   0  0  0  0  0  0  0  0  0  0  0  0
    0.8245    0.9940    0.1565 C   0  0  0  0  0  0  0  0  0  0  0  0
    0.9075   -0.4030    0.0185 C   0  0  0  0  0  0  0  0  0  0  0  0
    2.1477   -0.9408    0.1760 O   0  0  0  0  0  0  0  0  0  0  0  0
    2.2937   -2.3481    0.0620 C   0  0  0  0  0  0  0  0  0  0  0  0
   -0.2517   -1.1324   -0.2625 C   0  0  0  0  0  0  0  0  0  0  0  0
   -1.4835   -0.4857   -0.4051 C   0  0  0  0  0  0  0  0  0  0  0  0
   -0.4730    2.7044    0.1211 H   0  0  0  0  0  0  0  0  0  0  0  0
    1.7303    1.5499    0.3752 H   0  0  0  0  0  0  0  0  0  0  0  0
    3.3510   -2.5560    0.2319 H   0  0  0  0  0  0  0  0  0  0  0  0
    2.0116   -2.7045   -0.9371 H   0  0  0  0  0  0  0  0  0  0  0  0
    1.6959   -2.8786    0.8139 H   0  0  0  0  0  0  0  0  0  0  0  0
   -0.2162   -2.2097   -0.3764 H   0  0  0  0  0  0  0  0  0  0  0  0
   -2.3447   -1.0992   -0.6214 H   0  0  0  0  0  0  0  0  0  0  0  0
   -4.3879    0.4175   -0.8250 Cl  0  0  0  0  0  0  0  0  0  0  0  0
  1  4  1  0  0  0  0
  2  1  1  0  0  0  0
  3  2  2  0  0  0  0
  4 11  1  0  0  0  0
  4  5  2  0  0  0  0
  5 12  1  0  0  0  0
  6  5  1  0  0  0  0
  6  7  1  0  0  0  0
  8  7  1  0  0  0  0
  8 13  1  0  0  0  0
  8 15  1  0  0  0  0
  9  6  2  0  0  0  0
 10  1  2  0  0  0  0
 10  9  1  0  0  0  0
 14  8  1  0  0  0  0
 16  9  1  0  0  0  0
 17 10  1  0  0  0  0
 18  3  1  0  0  0  0
M  END
