Coordinates from ORCA-job 4-MeOPhN2+~Cl-_B3LYPG-6-31G_dp-NX-Scan-d89-09-n800
 OpenBabel11261920533D

 18 17  0  0  0  0  0  0  0  0999 V2000
   -1.4941   -0.0100   -0.0418 C   0  0  0  0  0  0  0  0  0  0  0  0
   -2.8555   -0.0333    0.0534 N   0  0  0  0  0  0  0  0  0  0  0  0
   -3.9712   -0.0485    0.1317 N   0  0  0  0  0  0  0  0  0  0  0  0
   -0.8300    1.2415   -0.0004 C   0  0  0  0  0  0  0  0  0  0  0  0
    0.5386    1.2465   -0.0970 C   0  0  0  0  0  0  0  0  0  0  0  0
    1.2569    0.0286   -0.2339 C   0  0  0  0  0  0  0  0  0  0  0  0
    2.5728    0.1571   -0.3171 O   0  0  0  0  0  0  0  0  0  0  0  0
    3.4174   -1.0016   -0.4568 C   0  0  0  0  0  0  0  0  0  0  0  0
    0.5689   -1.2100   -0.2731 C   0  0  0  0  0  0  0  0  0  0  0  0
   -0.8061   -1.2353   -0.1774 C   0  0  0  0  0  0  0  0  0  0  0  0
   -1.3946    2.1629    0.1051 H   0  0  0  0  0  0  0  0  0  0  0  0
    1.0985    2.1751   -0.0707 H   0  0  0  0  0  0  0  0  0  0  0  0
    4.4327   -0.6113   -0.4962 H   0  0  0  0  0  0  0  0  0  0  0  0
    3.1887   -1.5350   -1.3841 H   0  0  0  0  0  0  0  0  0  0  0  0
    3.3067   -1.6642    0.4067 H   0  0  0  0  0  0  0  0  0  0  0  0
    1.1079   -2.1441   -0.3777 H   0  0  0  0  0  0  0  0  0  0  0  0
   -1.3531   -2.1734   -0.2051 H   0  0  0  0  0  0  0  0  0  0  0  0
  -11.5389   -0.6960    0.7234 Cl  0  0  0  0  0  0  0  0  0  0  0  0
  1  4  1  0  0  0  0
  1  2  1  0  0  0  0
  2  3  1  0  0  0  0
  4 11  1  0  0  0  0
  5 12  1  0  0  0  0
  5  4  2  0  0  0  0
  6  5  1  0  0  0  0
  7  6  1  0  0  0  0
  8  7  1  0  0  0  0
  8 15  1  0  0  0  0
  9  6  2  0  0  0  0
  9 10  1  0  0  0  0
 10  1  2  0  0  0  0
 13  8  1  0  0  0  0
 14  8  1  0  0  0  0
 16  9  1  0  0  0  0
 17 10  1  0  0  0  0
M  RAD  3   2   2   3   3  18   2
M  END
