Coordinates from ORCA-job 4-MeOPhN2+~Cl-_B3LYPG-6-31G_dp-NX-Scan-d89-09-n800
 OpenBabel11261920533D

 18 17  0  0  0  0  0  0  0  0999 V2000
   -1.4613    1.3205   -0.5015 C   0  0  0  0  0  0  0  0  0  0  0  0
   -2.5773    2.0569   -0.6320 N   0  0  0  0  0  0  0  0  0  0  0  0
   -3.5556    2.6059   -0.7575 N   0  0  0  0  0  0  0  0  0  0  0  0
   -0.2444    1.9340   -0.0855 C   0  0  0  0  0  0  0  0  0  0  0  0
    0.8417    1.1264    0.1296 C   0  0  0  0  0  0  0  0  0  0  0  0
    0.7362   -0.2855   -0.0440 C   0  0  0  0  0  0  0  0  0  0  0  0
    1.8098   -0.9879    0.2772 O   0  0  0  0  0  0  0  0  0  0  0  0
    1.7582   -2.4370    0.1841 C   0  0  0  0  0  0  0  0  0  0  0  0
   -0.4636   -0.8698   -0.5098 C   0  0  0  0  0  0  0  0  0  0  0  0
   -1.5649   -0.0806   -0.7190 C   0  0  0  0  0  0  0  0  0  0  0  0
   -0.1967    3.0057    0.0711 H   0  0  0  0  0  0  0  0  0  0  0  0
    1.7870    1.5378    0.4651 H   0  0  0  0  0  0  0  0  0  0  0  0
    2.6718   -2.7798    0.6671 H   0  0  0  0  0  0  0  0  0  0  0  0
    1.7534   -2.7333   -0.8683 H   0  0  0  0  0  0  0  0  0  0  0  0
    0.8631   -2.8330    0.6787 H   0  0  0  0  0  0  0  0  0  0  0  0
   -0.6373   -1.9582   -0.5415 H   0  0  0  0  0  0  0  0  0  0  0  0
   -2.5084   -0.5400   -0.9939 H   0  0  0  0  0  0  0  0  0  0  0  0
   -1.7662   -3.4331    0.4692 Cl  0  0  0  0  0  0  0  0  0  0  0  0
  1  4  2  0  0  0  0
  2  1  1  0  0  0  0
  3  2  1  0  0  0  0
  4 11  1  0  0  0  0
  4  5  1  0  0  0  0
  5 12  1  0  0  0  0
  6  5  2  0  0  0  0
  6  7  1  0  0  0  0
  8  7  1  0  0  0  0
  8 13  1  0  0  0  0
  8 15  1  0  0  0  0
  9  6  1  0  0  0  0
 10  9  2  0  0  0  0
 10  1  1  0  0  0  0
 14  8  1  0  0  0  0
 16  9  1  0  0  0  0
 17 10  1  0  0  0  0
M  RAD  3   2   2   3   3  18   2
M  END
