Coordinates from ORCA-job 4-MeOPhN2+~Cl-_B3LYPG-6-31G_dp-NX-Scan-d89-09-n800
 OpenBabel11261920533D

 18 18  0  0  0  0  0  0  0  0999 V2000
   -1.5876    0.9185   -0.2672 C   0  0  0  0  0  0  0  0  0  0  0  0
   -2.6866    1.8211   -0.3554 N   0  0  0  0  0  0  0  0  0  0  0  0
   -3.8904    1.4390   -0.6196 N   0  0  0  0  0  0  0  0  0  0  0  0
   -0.3924    1.6264    0.0162 C   0  0  0  0  0  0  0  0  0  0  0  0
    0.8260    0.9941    0.1562 C   0  0  0  0  0  0  0  0  0  0  0  0
    0.9079   -0.4027    0.0187 C   0  0  0  0  0  0  0  0  0  0  0  0
    2.1464   -0.9410    0.1745 O   0  0  0  0  0  0  0  0  0  0  0  0
    2.2935   -2.3490    0.0607 C   0  0  0  0  0  0  0  0  0  0  0  0
   -0.2525   -1.1330   -0.2607 C   0  0  0  0  0  0  0  0  0  0  0  0
   -1.4833   -0.4868   -0.4025 C   0  0  0  0  0  0  0  0  0  0  0  0
   -0.4738    2.7034    0.1219 H   0  0  0  0  0  0  0  0  0  0  0  0
    1.7320    1.5499    0.3738 H   0  0  0  0  0  0  0  0  0  0  0  0
    3.3512   -2.5552    0.2294 H   0  0  0  0  0  0  0  0  0  0  0  0
    2.0106   -2.7054   -0.9380 H   0  0  0  0  0  0  0  0  0  0  0  0
    1.6973   -2.8791    0.8139 H   0  0  0  0  0  0  0  0  0  0  0  0
   -0.2165   -2.2103   -0.3736 H   0  0  0  0  0  0  0  0  0  0  0  0
   -2.3434   -1.1016   -0.6170 H   0  0  0  0  0  0  0  0  0  0  0  0
   -4.3931    0.3607   -0.8423 Cl  0  0  0  0  0  0  0  0  0  0  0  0
  1  4  1  0  0  0  0
  2  1  1  0  0  0  0
  3  2  2  0  0  0  0
  4 11  1  0  0  0  0
  4  5  2  0  0  0  0
  5 12  1  0  0  0  0
  6  5  1  0  0  0  0
  6  7  1  0  0  0  0
  8  7  1  0  0  0  0
  8 13  1  0  0  0  0
  8 15  1  0  0  0  0
  9  6  2  0  0  0  0
 10  1  2  0  0  0  0
 10  9  1  0  0  0  0
 14  8  1  0  0  0  0
 16  9  1  0  0  0  0
 17 10  1  0  0  0  0
 18  3  1  0  0  0  0
M  END
