Coordinates from ORCA-job 4-MeOPhN2+~Cl-_B3LYPG-6-31G_dp-NX-Scan-d89-09-n800
 OpenBabel11261920533D

 18 18  0  0  1  0  0  0  0  0999 V2000
   -1.5403    1.0699   -0.5055 C   0  0  0  0  0  0  0  0  0  0  0  0
   -2.6324    1.7590   -0.7760 N   0  0  0  0  0  0  0  0  0  0  0  0
   -3.6061    2.2954   -1.0108 N   0  0  0  0  0  0  0  0  0  0  0  0
   -0.4137    1.7190    0.1018 C   0  0  0  0  0  0  0  0  0  0  0  0
    0.6909    0.9853    0.3857 C   0  0  0  0  0  0  0  0  0  0  0  0
    0.7281   -0.4216    0.0546 C   0  0  0  0  0  0  0  0  0  0  0  0
    1.9307   -0.9901    0.3064 O   0  0  0  0  0  0  0  0  0  0  0  0
    2.0788   -2.3866    0.0722 C   0  0  0  0  0  0  0  0  0  0  0  0
   -0.3500   -1.0655   -0.4896 C   0  0  0  0  0  0  0  0  0  0  0  0
   -1.6201   -0.3874   -0.6553 C   0  0  1  0  0  0  0  0  0  0  0  0
   -0.4671    2.7796    0.3221 H   0  0  0  0  0  0  0  0  0  0  0  0
    1.5695    1.4254    0.8420 H   0  0  0  0  0  0  0  0  0  0  0  0
    3.0930   -2.6367    0.3843 H   0  0  0  0  0  0  0  0  0  0  0  0
    1.9545   -2.6265   -0.9908 H   0  0  0  0  0  0  0  0  0  0  0  0
    1.3581   -2.9648    0.6612 H   0  0  0  0  0  0  0  0  0  0  0  0
   -0.3144   -2.1146   -0.7496 H   0  0  0  0  0  0  0  0  0  0  0  0
   -2.2390   -0.7377   -1.4743 H   0  0  0  0  0  0  0  0  0  0  0  0
   -2.9751   -1.0531    0.8108 Cl  0  0  0  0  0  0  0  0  0  0  0  0
  1  4  2  0  0  0  0
  2  1  1  0  0  0  0
  3  2  1  0  0  0  0
  4 11  1  0  0  0  0
  4  5  1  0  0  0  0
  5 12  1  0  0  0  0
  6  7  1  0  0  0  0
  6  5  1  0  0  0  0
  8  7  1  0  0  0  0
  8 13  1  0  0  0  0
  8 15  1  0  0  0  0
  9  6  2  0  0  0  0
 10 17  1  6  0  0  0
 10  1  1  0  0  0  0
 10  9  1  0  0  0  0
 10 18  1  0  0  0  0
 14  8  1  0  0  0  0
 16  9  1  0  0  0  0
M  RAD  3   2   2   3   3   5   2
M  END
