Coordinates from ORCA-job 4-MeOPhN2+~Cl-_B3LYPG-6-31G_dp-NX-Scan-d89-09-n800
 OpenBabel11261920533D

 18 17  0  0  0  0  0  0  0  0999 V2000
   -1.4626    1.3097   -0.4991 C   0  0  0  0  0  0  0  0  0  0  0  0
   -2.5808    2.0435   -0.6287 N   0  0  0  0  0  0  0  0  0  0  0  0
   -3.5562    2.5982   -0.7496 N   0  0  0  0  0  0  0  0  0  0  0  0
   -0.2481    1.9289   -0.0825 C   0  0  0  0  0  0  0  0  0  0  0  0
    0.8422    1.1261    0.1300 C   0  0  0  0  0  0  0  0  0  0  0  0
    0.7443   -0.2852   -0.0500 C   0  0  0  0  0  0  0  0  0  0  0  0
    1.8214   -0.9855    0.2699 O   0  0  0  0  0  0  0  0  0  0  0  0
    1.7690   -2.4337    0.1826 C   0  0  0  0  0  0  0  0  0  0  0  0
   -0.4515   -0.8732   -0.5170 C   0  0  0  0  0  0  0  0  0  0  0  0
   -1.5597   -0.0910   -0.7192 C   0  0  0  0  0  0  0  0  0  0  0  0
   -0.2061    3.0003    0.0777 H   0  0  0  0  0  0  0  0  0  0  0  0
    1.7851    1.5413    0.4674 H   0  0  0  0  0  0  0  0  0  0  0  0
    2.6813   -2.7756    0.6689 H   0  0  0  0  0  0  0  0  0  0  0  0
    1.7664   -2.7366   -0.8680 H   0  0  0  0  0  0  0  0  0  0  0  0
    0.8749   -2.8279    0.6795 H   0  0  0  0  0  0  0  0  0  0  0  0
   -0.6216   -1.9598   -0.5552 H   0  0  0  0  0  0  0  0  0  0  0  0
   -2.5008   -0.5592   -0.9877 H   0  0  0  0  0  0  0  0  0  0  0  0
   -1.8518   -3.3713    0.4702 Cl  0  0  0  0  0  0  0  0  0  0  0  0
  1  4  2  0  0  0  0
  2  1  1  0  0  0  0
  3  2  1  0  0  0  0
  4 11  1  0  0  0  0
  4  5  1  0  0  0  0
  5 12  1  0  0  0  0
  6  5  2  0  0  0  0
  6  7  1  0  0  0  0
  8  7  1  0  0  0  0
  8 13  1  0  0  0  0
  8 15  1  0  0  0  0
  9  6  1  0  0  0  0
 10  9  2  0  0  0  0
 10  1  1  0  0  0  0
 14  8  1  0  0  0  0
 16  9  1  0  0  0  0
 17 10  1  0  0  0  0
M  RAD  3   2   2   3   3  18   2
M  END
