Coordinates from ORCA-job 4-MeOPhN2+~Cl-_B3LYPG-6-31G_dp-NX-Scan-d89-09-n800
 OpenBabel11261920533D

 18 17  0  0  0  0  0  0  0  0999 V2000
   -1.4639    1.3286   -0.5001 C   0  0  0  0  0  0  0  0  0  0  0  0
   -2.5715    2.0748   -0.6448 N   0  0  0  0  0  0  0  0  0  0  0  0
   -3.5425    2.6336   -0.7838 N   0  0  0  0  0  0  0  0  0  0  0  0
   -0.2436    1.9378   -0.0881 C   0  0  0  0  0  0  0  0  0  0  0  0
    0.8381    1.1262    0.1323 C   0  0  0  0  0  0  0  0  0  0  0  0
    0.7251   -0.2864   -0.0324 C   0  0  0  0  0  0  0  0  0  0  0  0
    1.7986   -0.9891    0.2848 O   0  0  0  0  0  0  0  0  0  0  0  0
    1.7546   -2.4382    0.1811 C   0  0  0  0  0  0  0  0  0  0  0  0
   -0.4803   -0.8690   -0.4889 C   0  0  0  0  0  0  0  0  0  0  0  0
   -1.5757   -0.0741   -0.7055 C   0  0  0  0  0  0  0  0  0  0  0  0
   -0.1893    3.0106    0.0590 H   0  0  0  0  0  0  0  0  0  0  0  0
    1.7864    1.5347    0.4627 H   0  0  0  0  0  0  0  0  0  0  0  0
    2.6725   -2.7786    0.6577 H   0  0  0  0  0  0  0  0  0  0  0  0
    1.7473   -2.7253   -0.8737 H   0  0  0  0  0  0  0  0  0  0  0  0
    0.8633   -2.8454    0.6744 H   0  0  0  0  0  0  0  0  0  0  0  0
   -0.6538   -1.9597   -0.5143 H   0  0  0  0  0  0  0  0  0  0  0  0
   -2.5217   -0.5270   -0.9829 H   0  0  0  0  0  0  0  0  0  0  0  0
   -1.6984   -3.5044    0.4517 Cl  0  0  0  0  0  0  0  0  0  0  0  0
  1  4  1  0  0  0  0
  2  1  1  0  0  0  0
  3  2  1  0  0  0  0
  4 11  1  0  0  0  0
  4  5  2  0  0  0  0
  5 12  1  0  0  0  0
  6  5  1  0  0  0  0
  6  7  1  0  0  0  0
  8  7  1  0  0  0  0
  8 13  1  0  0  0  0
  8 15  1  0  0  0  0
  9  6  2  0  0  0  0
 10  1  2  0  0  0  0
 10  9  1  0  0  0  0
 14  8  1  0  0  0  0
 16  9  1  0  0  0  0
 17 10  1  0  0  0  0
M  RAD  3   2   2   3   3  18   2
M  END
