Coordinates from ORCA-job 4-MeOPhN2+~Cl-_B3LYPG-6-31G_dp-NX-Scan-d89-09-n800
 OpenBabel11261920533D

 18 17  0  0  0  0  0  0  0  0999 V2000
   -1.4702    1.3486   -0.4960 C   0  0  0  0  0  0  0  0  0  0  0  0
   -2.5577    2.1151   -0.6782 N   0  0  0  0  0  0  0  0  0  0  0  0
   -3.5086    2.6995   -0.8519 N   0  0  0  0  0  0  0  0  0  0  0  0
   -0.2412    1.9464   -0.0946 C   0  0  0  0  0  0  0  0  0  0  0  0
    0.8288    1.1243    0.1392 C   0  0  0  0  0  0  0  0  0  0  0  0
    0.6989   -0.2900   -0.0031 C   0  0  0  0  0  0  0  0  0  0  0  0
    1.7735   -0.9919    0.3025 O   0  0  0  0  0  0  0  0  0  0  0  0
    1.7473   -2.4404    0.1738 C   0  0  0  0  0  0  0  0  0  0  0  0
   -0.5212   -0.8675   -0.4339 C   0  0  0  0  0  0  0  0  0  0  0  0
   -1.6024   -0.0584   -0.6689 C   0  0  0  0  0  0  0  0  0  0  0  0
   -0.1702    3.0213    0.0288 H   0  0  0  0  0  0  0  0  0  0  0  0
    1.7845    1.5257    0.4567 H   0  0  0  0  0  0  0  0  0  0  0  0
    2.6754   -2.7756    0.6339 H   0  0  0  0  0  0  0  0  0  0  0  0
    1.7313   -2.7053   -0.8865 H   0  0  0  0  0  0  0  0  0  0  0  0
    0.8644   -2.8716    0.6634 H   0  0  0  0  0  0  0  0  0  0  0  0
   -0.6990   -1.9625   -0.4468 H   0  0  0  0  0  0  0  0  0  0  0  0
   -2.5548   -0.4962   -0.9493 H   0  0  0  0  0  0  0  0  0  0  0  0
   -1.5333   -3.6723    0.4000 Cl  0  0  0  0  0  0  0  0  0  0  0  0
  1  4  1  0  0  0  0
  2  1  1  0  0  0  0
  3  2  1  0  0  0  0
  4 11  1  0  0  0  0
  4  5  2  0  0  0  0
  5 12  1  0  0  0  0
  6  5  1  0  0  0  0
  6  7  1  0  0  0  0
  8  7  1  0  0  0  0
  8 13  1  0  0  0  0
  8 15  1  0  0  0  0
  9  6  2  0  0  0  0
 10  1  2  0  0  0  0
 10  9  1  0  0  0  0
 14  8  1  0  0  0  0
 16  9  1  0  0  0  0
 17 10  1  0  0  0  0
M  RAD  3   2   2   3   3  18   2
M  END
