Coordinates from ORCA-job 4-MeOPhN2+~Cl-_B3LYPG-6-31G_dp-NX-Scan-d89-09-n800
 OpenBabel11261920533D

 18 17  0  0  0  0  0  0  0  0999 V2000
   -1.4846    1.2429   -0.4376 C   0  0  0  0  0  0  0  0  0  0  0  0
   -2.5773    1.9993   -0.6687 N   0  0  0  0  0  0  0  0  0  0  0  0
   -3.4821    2.6459   -0.8568 N   0  0  0  0  0  0  0  0  0  0  0  0
   -0.2597    1.9049   -0.1216 C   0  0  0  0  0  0  0  0  0  0  0  0
    0.8501    1.1345    0.1042 C   0  0  0  0  0  0  0  0  0  0  0  0
    0.7695   -0.2855    0.0221 C   0  0  0  0  0  0  0  0  0  0  0  0
    1.9066   -0.9374    0.2609 O   0  0  0  0  0  0  0  0  0  0  0  0
    1.9018   -2.3783    0.2126 C   0  0  0  0  0  0  0  0  0  0  0  0
   -0.4483   -0.9196   -0.2835 C   0  0  0  0  0  0  0  0  0  0  0  0
   -1.5828   -0.1716   -0.5141 C   0  0  0  0  0  0  0  0  0  0  0  0
   -0.2224    2.9868   -0.0583 H   0  0  0  0  0  0  0  0  0  0  0  0
    1.8040    1.5867    0.3518 H   0  0  0  0  0  0  0  0  0  0  0  0
    2.9165   -2.6760    0.4726 H   0  0  0  0  0  0  0  0  0  0  0  0
    1.6503   -2.7286   -0.7922 H   0  0  0  0  0  0  0  0  0  0  0  0
    1.1878   -2.7891    0.9309 H   0  0  0  0  0  0  0  0  0  0  0  0
   -0.6177   -2.0017   -0.3145 H   0  0  0  0  0  0  0  0  0  0  0  0
   -2.5035   -0.7209   -0.7179 H   0  0  0  0  0  0  0  0  0  0  0  0
   -2.5629   -3.2433   -0.3007 Cl  0  0  0  0  0  0  0  0  0  0  0  0
  1  4  1  0  0  0  0
  2  1  1  0  0  0  0
  3  2  1  0  0  0  0
  4 11  1  0  0  0  0
  4  5  2  0  0  0  0
  5 12  1  0  0  0  0
  6  5  1  0  0  0  0
  6  7  1  0  0  0  0
  8  7  1  0  0  0  0
  8 13  1  0  0  0  0
  8 15  1  0  0  0  0
  9  6  2  0  0  0  0
 10  1  2  0  0  0  0
 10  9  1  0  0  0  0
 14  8  1  0  0  0  0
 16  9  1  0  0  0  0
 17 10  1  0  0  0  0
M  RAD  3   2   2   3   3  18   2
M  END
