Coordinates from ORCA-job 4-MeOPhN2+~Cl-_B3LYPG-6-31G_dp-NX-Scan-d89-09-n800
 OpenBabel11261920533D

 18 17  0  0  0  0  0  0  0  0999 V2000
   -1.4629    1.3214   -0.5008 C   0  0  0  0  0  0  0  0  0  0  0  0
   -2.5755    2.0621   -0.6365 N   0  0  0  0  0  0  0  0  0  0  0  0
   -3.5497    2.6174   -0.7660 N   0  0  0  0  0  0  0  0  0  0  0  0
   -0.2454    1.9343   -0.0854 C   0  0  0  0  0  0  0  0  0  0  0  0
    0.8399    1.1261    0.1312 C   0  0  0  0  0  0  0  0  0  0  0  0
    0.7329   -0.2859   -0.0411 C   0  0  0  0  0  0  0  0  0  0  0  0
    1.8069   -0.9882    0.2784 O   0  0  0  0  0  0  0  0  0  0  0  0
    1.7583   -2.4371    0.1825 C   0  0  0  0  0  0  0  0  0  0  0  0
   -0.4680   -0.8701   -0.5047 C   0  0  0  0  0  0  0  0  0  0  0  0
   -1.5683   -0.0800   -0.7153 C   0  0  0  0  0  0  0  0  0  0  0  0
   -0.1964    3.0063    0.0690 H   0  0  0  0  0  0  0  0  0  0  0  0
    1.7857    1.5368    0.4658 H   0  0  0  0  0  0  0  0  0  0  0  0
    2.6735   -2.7786    0.6635 H   0  0  0  0  0  0  0  0  0  0  0  0
    1.7529   -2.7314   -0.8704 H   0  0  0  0  0  0  0  0  0  0  0  0
    0.8650   -2.8374    0.6774 H   0  0  0  0  0  0  0  0  0  0  0  0
   -0.6394   -1.9591   -0.5356 H   0  0  0  0  0  0  0  0  0  0  0  0
   -2.5123   -0.5382   -0.9909 H   0  0  0  0  0  0  0  0  0  0  0  0
   -1.7518   -3.4495    0.4681 Cl  0  0  0  0  0  0  0  0  0  0  0  0
  1  4  2  0  0  0  0
  2  1  1  0  0  0  0
  3  2  1  0  0  0  0
  4 11  1  0  0  0  0
  4  5  1  0  0  0  0
  5 12  1  0  0  0  0
  6  5  2  0  0  0  0
  6  7  1  0  0  0  0
  8  7  1  0  0  0  0
  8 13  1  0  0  0  0
  8 15  1  0  0  0  0
  9  6  1  0  0  0  0
 10  9  2  0  0  0  0
 10  1  1  0  0  0  0
 14  8  1  0  0  0  0
 16  9  1  0  0  0  0
 17 10  1  0  0  0  0
M  RAD  3   2   2   3   3  18   2
M  END
