Coordinates from ORCA-job 4-MeOPhN2+~Cl-_B3LYPG-6-31G_dp-NX-Scan-d89-09-n800
 OpenBabel11261920533D

 18 17  0  0  0  0  0  0  0  0999 V2000
   -1.4874   -0.0161   -0.0416 C   0  0  0  0  0  0  0  0  0  0  0  0
   -2.8490   -0.0421    0.0541 N   0  0  0  0  0  0  0  0  0  0  0  0
   -3.9647   -0.0596    0.1328 N   0  0  0  0  0  0  0  0  0  0  0  0
   -0.8258    1.2367   -0.0004 C   0  0  0  0  0  0  0  0  0  0  0  0
    0.5428    1.2441   -0.0974 C   0  0  0  0  0  0  0  0  0  0  0  0
    1.2633    0.0276   -0.2345 C   0  0  0  0  0  0  0  0  0  0  0  0
    2.5789    0.1584   -0.3180 O   0  0  0  0  0  0  0  0  0  0  0  0
    3.4257   -0.9988   -0.4578 C   0  0  0  0  0  0  0  0  0  0  0  0
    0.5776   -1.2123   -0.2735 C   0  0  0  0  0  0  0  0  0  0  0  0
   -0.7973   -1.2401   -0.1774 C   0  0  0  0  0  0  0  0  0  0  0  0
   -1.3921    2.1572    0.1054 H   0  0  0  0  0  0  0  0  0  0  0  0
    1.1010    2.1739   -0.0712 H   0  0  0  0  0  0  0  0  0  0  0  0
    4.4402   -0.6067   -0.4974 H   0  0  0  0  0  0  0  0  0  0  0  0
    3.1977   -1.5327   -1.3851 H   0  0  0  0  0  0  0  0  0  0  0  0
    3.3163   -1.6616    0.4057 H   0  0  0  0  0  0  0  0  0  0  0  0
    1.1182   -2.1456   -0.3783 H   0  0  0  0  0  0  0  0  0  0  0  0
   -1.3427   -2.1794   -0.2051 H   0  0  0  0  0  0  0  0  0  0  0  0
  -11.6573   -0.6537    0.7288 Cl  0  0  0  0  0  0  0  0  0  0  0  0
  1  4  1  0  0  0  0
  1  2  1  0  0  0  0
  2  3  1  0  0  0  0
  4 11  1  0  0  0  0
  5 12  1  0  0  0  0
  5  4  2  0  0  0  0
  6  5  1  0  0  0  0
  7  6  1  0  0  0  0
  8  7  1  0  0  0  0
  8 15  1  0  0  0  0
  9  6  2  0  0  0  0
  9 10  1  0  0  0  0
 10  1  2  0  0  0  0
 13  8  1  0  0  0  0
 14  8  1  0  0  0  0
 16  9  1  0  0  0  0
 17 10  1  0  0  0  0
M  RAD  3   2   2   3   3  18   2
M  END
