Coordinates from ORCA-job 4-MeOPhN2+~Cl-_B3LYPG-6-31G_dp-NX-Scan-d89-09-n800
 OpenBabel11261920533D

 18 18  0  0  0  0  0  0  0  0999 V2000
   -1.5434    0.9309   -0.4537 C   0  0  0  0  0  0  0  0  0  0  0  0
   -2.6620    1.7539   -0.7588 N   0  0  0  0  0  0  0  0  0  0  0  0
   -3.8674    1.4965   -0.5409 N   0  0  0  0  0  0  0  0  0  0  0  0
   -0.3958    1.6450   -0.0564 C   0  0  0  0  0  0  0  0  0  0  0  0
    0.7932    0.9912    0.2124 C   0  0  0  0  0  0  0  0  0  0  0  0
    0.8852   -0.3997    0.0326 C   0  0  0  0  0  0  0  0  0  0  0  0
    2.0960   -0.9511    0.3069 O   0  0  0  0  0  0  0  0  0  0  0  0
    2.2563   -2.3539    0.1460 C   0  0  0  0  0  0  0  0  0  0  0  0
   -0.2324   -1.1147   -0.4199 C   0  0  0  0  0  0  0  0  0  0  0  0
   -1.4400   -0.4554   -0.6486 C   0  0  0  0  0  0  0  0  0  0  0  0
   -0.4711    2.7230    0.0445 H   0  0  0  0  0  0  0  0  0  0  0  0
    1.6742    1.5316    0.5417 H   0  0  0  0  0  0  0  0  0  0  0  0
    3.2869   -2.5720    0.4283 H   0  0  0  0  0  0  0  0  0  0  0  0
    2.0938   -2.6617   -0.8946 H   0  0  0  0  0  0  0  0  0  0  0  0
    1.5759   -2.9145    0.7984 H   0  0  0  0  0  0  0  0  0  0  0  0
   -0.1764   -2.1820   -0.5970 H   0  0  0  0  0  0  0  0  0  0  0  0
   -2.2828   -1.0284   -1.0125 H   0  0  0  0  0  0  0  0  0  0  0  0
   -4.3448    0.2105    0.1609 Cl  0  0  0  0  0  0  0  0  0  0  0  0
  1  4  1  0  0  0  0
  2  3  2  0  0  0  0
  2  1  1  0  0  0  0
  3 18  1  0  0  0  0
  4 11  1  0  0  0  0
  4  5  2  0  0  0  0
  5 12  1  0  0  0  0
  6  5  1  0  0  0  0
  6  7  1  0  0  0  0
  8  7  1  0  0  0  0
  8 13  1  0  0  0  0
  8 15  1  0  0  0  0
  9  6  2  0  0  0  0
 10  1  2  0  0  0  0
 10  9  1  0  0  0  0
 14  8  1  0  0  0  0
 16  9  1  0  0  0  0
 17 10  1  0  0  0  0
M  END
