Coordinates from ORCA-job 4-MeOPhN2+~Cl-_B3LYPG-6-31G_dp-NX-Scan-d89-09-n800
 OpenBabel11261920533D

 18 18  0  0  1  0  0  0  0  0999 V2000
   -1.5159    1.0857   -0.5265 C   0  0  0  0  0  0  0  0  0  0  0  0
   -2.6518    1.7366   -0.6993 N   0  0  0  0  0  0  0  0  0  0  0  0
   -3.6932    2.1672   -0.8287 N   0  0  0  0  0  0  0  0  0  0  0  0
   -0.3864    1.7332    0.0706 C   0  0  0  0  0  0  0  0  0  0  0  0
    0.7171    0.9961    0.3546 C   0  0  0  0  0  0  0  0  0  0  0  0
    0.7409   -0.4147    0.0435 C   0  0  0  0  0  0  0  0  0  0  0  0
    1.9339   -0.9934    0.3123 O   0  0  0  0  0  0  0  0  0  0  0  0
    2.0686   -2.3955    0.1017 C   0  0  0  0  0  0  0  0  0  0  0  0
   -0.3394   -1.0560   -0.5044 C   0  0  0  0  0  0  0  0  0  0  0  0
   -1.5936   -0.3669   -0.7052 C   0  0  1  0  0  0  0  0  0  0  0  0
   -0.4377    2.7934    0.2930 H   0  0  0  0  0  0  0  0  0  0  0  0
    1.5994    1.4344    0.8053 H   0  0  0  0  0  0  0  0  0  0  0  0
    3.0764   -2.6517    0.4293 H   0  0  0  0  0  0  0  0  0  0  0  0
    1.9538   -2.6505   -0.9587 H   0  0  0  0  0  0  0  0  0  0  0  0
    1.3346   -2.9558    0.6914 H   0  0  0  0  0  0  0  0  0  0  0  0
   -0.3062   -2.1061   -0.7608 H   0  0  0  0  0  0  0  0  0  0  0  0
   -2.1984   -0.7112   -1.5366 H   0  0  0  0  0  0  0  0  0  0  0  0
   -3.0568   -0.9957    0.7076 Cl  0  0  0  0  0  0  0  0  0  0  0  0
  1  4  2  0  0  0  0
  2  1  1  0  0  0  0
  3  2  1  0  0  0  0
  4 11  1  0  0  0  0
  4  5  1  0  0  0  0
  5 12  1  0  0  0  0
  6  7  1  0  0  0  0
  6  5  1  0  0  0  0
  8  7  1  0  0  0  0
  8 13  1  0  0  0  0
  8 15  1  0  0  0  0
  9  6  2  0  0  0  0
 10 17  1  6  0  0  0
 10  1  1  0  0  0  0
 10  9  1  0  0  0  0
 10 18  1  0  0  0  0
 14  8  1  0  0  0  0
 16  9  1  0  0  0  0
M  RAD  3   2   2   3   3   5   2
M  END
