Coordinates from ORCA-job 4-MeOPhN2+~Cl-_B3LYPG-6-31G_dp-NX-Scan-d89-09-n800
 OpenBabel11261920533D

 18 18  0  0  0  0  0  0  0  0999 V2000
   -1.5273    0.9485   -0.2788 C   0  0  0  0  0  0  0  0  0  0  0  0
   -2.6639    1.7614   -0.3994 N   0  0  0  0  0  0  0  0  0  0  0  0
   -3.8460    1.6397   -0.5817 N   0  0  0  0  0  0  0  0  0  0  0  0
   -0.3431    1.6669   -0.0104 C   0  0  0  0  0  0  0  0  0  0  0  0
    0.8635    1.0118    0.1365 C   0  0  0  0  0  0  0  0  0  0  0  0
    0.9171   -0.3890    0.0135 C   0  0  0  0  0  0  0  0  0  0  0  0
    2.1400   -0.9435    0.1743 O   0  0  0  0  0  0  0  0  0  0  0  0
    2.2736   -2.3580    0.0759 C   0  0  0  0  0  0  0  0  0  0  0  0
   -0.2559   -1.1115   -0.2597 C   0  0  0  0  0  0  0  0  0  0  0  0
   -1.4723   -0.4519   -0.4045 C   0  0  0  0  0  0  0  0  0  0  0  0
   -0.4058    2.7461    0.0801 H   0  0  0  0  0  0  0  0  0  0  0  0
    1.7805    1.5512    0.3461 H   0  0  0  0  0  0  0  0  0  0  0  0
    3.3289   -2.5694    0.2496 H   0  0  0  0  0  0  0  0  0  0  0  0
    1.9899   -2.7188   -0.9199 H   0  0  0  0  0  0  0  0  0  0  0  0
    1.6707   -2.8704    0.8347 H   0  0  0  0  0  0  0  0  0  0  0  0
   -0.2321   -2.1896   -0.3625 H   0  0  0  0  0  0  0  0  0  0  0  0
   -2.3681   -1.0162   -0.6146 H   0  0  0  0  0  0  0  0  0  0  0  0
   -4.6042   -0.0583   -0.7901 Cl  0  0  0  0  0  0  0  0  0  0  0  0
  1  4  1  0  0  0  0
  2  1  1  0  0  0  0
  3  2  2  0  0  0  0
  4 11  1  0  0  0  0
  4  5  2  0  0  0  0
  5 12  1  0  0  0  0
  6  5  1  0  0  0  0
  6  7  1  0  0  0  0
  8  7  1  0  0  0  0
  8 13  1  0  0  0  0
  8 15  1  0  0  0  0
  9  6  2  0  0  0  0
 10  1  2  0  0  0  0
 10  9  1  0  0  0  0
 14  8  1  0  0  0  0
 16  9  1  0  0  0  0
 17 10  1  0  0  0  0
 18  3  1  0  0  0  0
M  END
