Coordinates from ORCA-job 4-MeOPhN2+~Cl-_B3LYPG-6-31G_dp-NX-Scan-d89-09-n800
 OpenBabel11261920533D

 18 17  0  0  0  0  0  0  0  0999 V2000
   -1.4346    1.0524   -0.2410 C   0  0  0  0  0  0  0  0  0  0  0  0
   -2.6254    1.7434   -0.3729 N   0  0  0  0  0  0  0  0  0  0  0  0
   -3.7389    1.8768   -0.5433 N   0  0  0  0  0  0  0  0  0  0  0  0
   -0.2459    1.7622    0.0166 C   0  0  0  0  0  0  0  0  0  0  0  0
    0.9240    1.0465    0.1425 C   0  0  0  0  0  0  0  0  0  0  0  0
    0.9113   -0.3633    0.0136 C   0  0  0  0  0  0  0  0  0  0  0  0
    2.1073   -0.9568    0.1571 O   0  0  0  0  0  0  0  0  0  0  0  0
    2.1992   -2.3805    0.0554 C   0  0  0  0  0  0  0  0  0  0  0  0
   -0.2917   -1.0477   -0.2447 C   0  0  0  0  0  0  0  0  0  0  0  0
   -1.4809   -0.3460   -0.3750 C   0  0  0  0  0  0  0  0  0  0  0  0
   -0.2604    2.8425    0.1133 H   0  0  0  0  0  0  0  0  0  0  0  0
    1.8692    1.5378    0.3420 H   0  0  0  0  0  0  0  0  0  0  0  0
    3.2502   -2.6179    0.2166 H   0  0  0  0  0  0  0  0  0  0  0  0
    1.8929   -2.7259   -0.9379 H   0  0  0  0  0  0  0  0  0  0  0  0
    1.5903   -2.8705    0.8223 H   0  0  0  0  0  0  0  0  0  0  0  0
   -0.3105   -2.1258   -0.3463 H   0  0  0  0  0  0  0  0  0  0  0  0
   -2.4495   -0.8272   -0.5762 H   0  0  0  0  0  0  0  0  0  0  0  0
   -4.6612   -0.9511   -0.9528 Cl  0  0  0  0  0  0  0  0  0  0  0  0
  1  4  2  0  0  0  0
  2  1  1  0  0  0  0
  3  2  1  0  0  0  0
  4 11  1  0  0  0  0
  4  5  1  0  0  0  0
  5 12  1  0  0  0  0
  6  5  2  0  0  0  0
  6  7  1  0  0  0  0
  8  7  1  0  0  0  0
  8 13  1  0  0  0  0
  8 15  1  0  0  0  0
  9  6  1  0  0  0  0
 10  9  2  0  0  0  0
 10  1  1  0  0  0  0
 14  8  1  0  0  0  0
 16  9  1  0  0  0  0
 17 10  1  0  0  0  0
M  RAD  3   2   2   3   3  18   2
M  END
