Coordinates from ORCA-job 4-MeOPhN2+~Cl-_B3LYPG-6-31G_dp-NX-Scan-d89-09-n800
 OpenBabel11261920533D

 18 17  0  0  0  0  0  0  0  0999 V2000
   -1.4333    1.0564   -0.2405 C   0  0  0  0  0  0  0  0  0  0  0  0
   -2.6234    1.7455   -0.3723 N   0  0  0  0  0  0  0  0  0  0  0  0
   -3.7333    1.8987   -0.5402 N   0  0  0  0  0  0  0  0  0  0  0  0
   -0.2435    1.7655    0.0173 C   0  0  0  0  0  0  0  0  0  0  0  0
    0.9248    1.0477    0.1426 C   0  0  0  0  0  0  0  0  0  0  0  0
    0.9097   -0.3625    0.0134 C   0  0  0  0  0  0  0  0  0  0  0  0
    2.1045   -0.9574    0.1565 O   0  0  0  0  0  0  0  0  0  0  0  0
    2.1947   -2.3815    0.0546 C   0  0  0  0  0  0  0  0  0  0  0  0
   -0.2944   -1.0451   -0.2450 C   0  0  0  0  0  0  0  0  0  0  0  0
   -1.4827   -0.3422   -0.3750 C   0  0  0  0  0  0  0  0  0  0  0  0
   -0.2561    2.8458    0.1143 H   0  0  0  0  0  0  0  0  0  0  0  0
    1.8709    1.5372    0.3422 H   0  0  0  0  0  0  0  0  0  0  0  0
    3.2454   -2.6200    0.2157 H   0  0  0  0  0  0  0  0  0  0  0  0
    1.8878   -2.7261   -0.9387 H   0  0  0  0  0  0  0  0  0  0  0  0
    1.5851   -2.8707    0.8215 H   0  0  0  0  0  0  0  0  0  0  0  0
   -0.3149   -2.1232   -0.3469 H   0  0  0  0  0  0  0  0  0  0  0  0
   -2.4535   -0.8226   -0.5767 H   0  0  0  0  0  0  0  0  0  0  0  0
   -4.6424   -0.9966   -0.9537 Cl  0  0  0  0  0  0  0  0  0  0  0  0
  1  4  2  0  0  0  0
  2  1  1  0  0  0  0
  3  2  1  0  0  0  0
  4 11  1  0  0  0  0
  4  5  1  0  0  0  0
  5 12  1  0  0  0  0
  6  5  2  0  0  0  0
  6  7  1  0  0  0  0
  8  7  1  0  0  0  0
  8 13  1  0  0  0  0
  8 15  1  0  0  0  0
  9  6  1  0  0  0  0
 10  9  2  0  0  0  0
 10  1  1  0  0  0  0
 14  8  1  0  0  0  0
 16  9  1  0  0  0  0
 17 10  1  0  0  0  0
M  RAD  3   2   2   3   3  18   2
M  END
