Coordinates from ORCA-job 4-MeOPhN2+~Cl-_B3LYPG-6-31G_dp-NX-Scan-d89-09-n800
 OpenBabel11261920533D

 18 18  0  0  0  0  0  0  0  0999 V2000
   -1.5554    0.9235   -0.4520 C   0  0  0  0  0  0  0  0  0  0  0  0
   -2.6711    1.7611   -0.7701 N   0  0  0  0  0  0  0  0  0  0  0  0
   -3.8750    1.4300   -0.5034 N   0  0  0  0  0  0  0  0  0  0  0  0
   -0.4071    1.6354   -0.0503 C   0  0  0  0  0  0  0  0  0  0  0  0
    0.7860    0.9867    0.2145 C   0  0  0  0  0  0  0  0  0  0  0  0
    0.8843   -0.4032    0.0345 C   0  0  0  0  0  0  0  0  0  0  0  0
    2.0993   -0.9508    0.3086 O   0  0  0  0  0  0  0  0  0  0  0  0
    2.2637   -2.3514    0.1419 C   0  0  0  0  0  0  0  0  0  0  0  0
   -0.2313   -1.1211   -0.4152 C   0  0  0  0  0  0  0  0  0  0  0  0
   -1.4415   -0.4639   -0.6437 C   0  0  0  0  0  0  0  0  0  0  0  0
   -0.4855    2.7133    0.0520 H   0  0  0  0  0  0  0  0  0  0  0  0
    1.6654    1.5311    0.5424 H   0  0  0  0  0  0  0  0  0  0  0  0
    3.2956   -2.5681    0.4210 H   0  0  0  0  0  0  0  0  0  0  0  0
    2.0996   -2.6565   -0.8995 H   0  0  0  0  0  0  0  0  0  0  0  0
    1.5866   -2.9178    0.7932 H   0  0  0  0  0  0  0  0  0  0  0  0
   -0.1733   -2.1889   -0.5899 H   0  0  0  0  0  0  0  0  0  0  0  0
   -2.2783   -1.0471   -1.0078 H   0  0  0  0  0  0  0  0  0  0  0  0
   -4.3167    0.3366    0.1129 Cl  0  0  0  0  0  0  0  0  0  0  0  0
  1  4  1  0  0  0  0
  2  3  2  0  0  0  0
  2  1  1  0  0  0  0
  3 18  1  0  0  0  0
  4 11  1  0  0  0  0
  4  5  2  0  0  0  0
  5 12  1  0  0  0  0
  6  5  1  0  0  0  0
  6  7  1  0  0  0  0
  8  7  1  0  0  0  0
  8 13  1  0  0  0  0
  8 15  1  0  0  0  0
  9  6  2  0  0  0  0
 10  1  2  0  0  0  0
 10  9  1  0  0  0  0
 14  8  1  0  0  0  0
 16  9  1  0  0  0  0
 17 10  1  0  0  0  0
M  END
