Coordinates from ORCA-job 4-MeOPhN2+~Cl-_B3LYPG-6-31G_dp-NX-Scan-d89-09-n800
 OpenBabel11261920533D

 18 17  0  0  0  0  0  0  0  0999 V2000
   -1.4813   -0.0211   -0.0415 C   0  0  0  0  0  0  0  0  0  0  0  0
   -2.8431   -0.0494    0.0546 N   0  0  0  0  0  0  0  0  0  0  0  0
   -3.9587   -0.0688    0.1337 N   0  0  0  0  0  0  0  0  0  0  0  0
   -0.8216    1.2327   -0.0004 C   0  0  0  0  0  0  0  0  0  0  0  0
    0.5468    1.2422   -0.0978 C   0  0  0  0  0  0  0  0  0  0  0  0
    1.2691    0.0267   -0.2350 C   0  0  0  0  0  0  0  0  0  0  0  0
    2.5846    0.1595   -0.3188 O   0  0  0  0  0  0  0  0  0  0  0  0
    3.4331   -0.9966   -0.4587 C   0  0  0  0  0  0  0  0  0  0  0  0
    0.5853   -1.2142   -0.2739 C   0  0  0  0  0  0  0  0  0  0  0  0
   -0.7894   -1.2441   -0.1774 C   0  0  0  0  0  0  0  0  0  0  0  0
   -1.3893    2.1524    0.1055 H   0  0  0  0  0  0  0  0  0  0  0  0
    1.1036    2.1728   -0.0717 H   0  0  0  0  0  0  0  0  0  0  0  0
    4.4470   -0.6029   -0.4984 H   0  0  0  0  0  0  0  0  0  0  0  0
    3.2057   -1.5307   -1.3860 H   0  0  0  0  0  0  0  0  0  0  0  0
    3.3248   -1.6595    0.4048 H   0  0  0  0  0  0  0  0  0  0  0  0
    1.1273   -2.1469   -0.3788 H   0  0  0  0  0  0  0  0  0  0  0  0
   -1.3334   -2.1844   -0.2050 H   0  0  0  0  0  0  0  0  0  0  0  0
  -11.7651   -0.6187    0.7340 Cl  0  0  0  0  0  0  0  0  0  0  0  0
  1  4  1  0  0  0  0
  1  2  1  0  0  0  0
  2  3  1  0  0  0  0
  4 11  1  0  0  0  0
  5 12  1  0  0  0  0
  5  4  2  0  0  0  0
  6  5  1  0  0  0  0
  7  6  1  0  0  0  0
  8  7  1  0  0  0  0
  8 15  1  0  0  0  0
  9  6  2  0  0  0  0
  9 10  1  0  0  0  0
 10  1  2  0  0  0  0
 13  8  1  0  0  0  0
 14  8  1  0  0  0  0
 16  9  1  0  0  0  0
 17 10  1  0  0  0  0
M  RAD  3   2   2   3   3  18   2
M  END
