Coordinates from ORCA-job 4-MeOPhN2+~Cl-_B3LYPG-6-31G_dp-NX-Scan-d89-09-n800
 OpenBabel11261920443D

 18 17  0  0  0  0  0  0  0  0999 V2000
   -1.4380   -0.0454   -0.0414 C   0  0  0  0  0  0  0  0  0  0  0  0
   -2.8008   -0.0841    0.0569 N   0  0  0  0  0  0  0  0  0  0  0  0
   -3.9164   -0.1125    0.1376 N   0  0  0  0  0  0  0  0  0  0  0  0
   -0.7879    1.2132   -0.0013 C   0  0  0  0  0  0  0  0  0  0  0  0
    0.5802    1.2326   -0.1004 C   0  0  0  0  0  0  0  0  0  0  0  0
    1.3111    0.0221   -0.2385 C   0  0  0  0  0  0  0  0  0  0  0  0
    2.6255    0.1641   -0.3238 O   0  0  0  0  0  0  0  0  0  0  0  0
    3.4823   -0.9860   -0.4645 C   0  0  0  0  0  0  0  0  0  0  0  0
    0.6362   -1.2239   -0.2765 C   0  0  0  0  0  0  0  0  0  0  0  0
   -0.7379   -1.2634   -0.1783 C   0  0  0  0  0  0  0  0  0  0  0  0
   -1.3623    2.1296    0.1055 H   0  0  0  0  0  0  0  0  0  0  0  0
    1.1302    2.1678   -0.0751 H   0  0  0  0  0  0  0  0  0  0  0  0
    4.4934   -0.5853   -0.5050 H   0  0  0  0  0  0  0  0  0  0  0  0
    3.2577   -1.5217   -1.3915 H   0  0  0  0  0  0  0  0  0  0  0  0
    3.3792   -1.6496    0.3991 H   0  0  0  0  0  0  0  0  0  0  0  0
    1.1845   -2.1535   -0.3822 H   0  0  0  0  0  0  0  0  0  0  0  0
   -1.2755   -2.2086   -0.2053 H   0  0  0  0  0  0  0  0  0  0  0  0
  -12.5161   -0.4466    0.7739 Cl  0  0  0  0  0  0  0  0  0  0  0  0
  1  4  1  0  0  0  0
  1  2  1  0  0  0  0
  2  3  1  0  0  0  0
  4 11  1  0  0  0  0
  5 12  1  0  0  0  0
  5  4  2  0  0  0  0
  6  5  1  0  0  0  0
  7  6  1  0  0  0  0
  8  7  1  0  0  0  0
  8 15  1  0  0  0  0
  9  6  2  0  0  0  0
  9 10  1  0  0  0  0
 10  1  2  0  0  0  0
 13  8  1  0  0  0  0
 14  8  1  0  0  0  0
 16  9  1  0  0  0  0
 17 10  1  0  0  0  0
M  RAD  3   2   2   3   3  18   2
M  END
