Coordinates from ORCA-job 4-MeOPhN2+~Cl-_B3LYPG-6-31G_dp-NX-Scan-d89-09-n800
 OpenBabel11261920533D

 18 17  0  0  0  0  0  0  0  0999 V2000
   -1.4629    1.3103   -0.4990 C   0  0  0  0  0  0  0  0  0  0  0  0
   -2.5804    2.0450   -0.6297 N   0  0  0  0  0  0  0  0  0  0  0  0
   -3.5548    2.6010   -0.7515 N   0  0  0  0  0  0  0  0  0  0  0  0
   -0.2482    1.9292   -0.0826 C   0  0  0  0  0  0  0  0  0  0  0  0
    0.8418    1.1261    0.1303 C   0  0  0  0  0  0  0  0  0  0  0  0
    0.7433   -0.2852   -0.0492 C   0  0  0  0  0  0  0  0  0  0  0  0
    1.8203   -0.9857    0.2705 O   0  0  0  0  0  0  0  0  0  0  0  0
    1.7685   -2.4340    0.1823 C   0  0  0  0  0  0  0  0  0  0  0  0
   -0.4530   -0.8730   -0.5157 C   0  0  0  0  0  0  0  0  0  0  0  0
   -1.5607   -0.0904   -0.7185 C   0  0  0  0  0  0  0  0  0  0  0  0
   -0.2058    3.0007    0.0770 H   0  0  0  0  0  0  0  0  0  0  0  0
    1.7850    1.5410    0.4674 H   0  0  0  0  0  0  0  0  0  0  0  0
    2.6807   -2.7758    0.6688 H   0  0  0  0  0  0  0  0  0  0  0  0
    1.7665   -2.7362   -0.8686 H   0  0  0  0  0  0  0  0  0  0  0  0
    0.8741   -2.8290    0.6782 H   0  0  0  0  0  0  0  0  0  0  0  0
   -0.6224   -1.9597   -0.5537 H   0  0  0  0  0  0  0  0  0  0  0  0
   -2.5019   -0.5581   -0.9874 H   0  0  0  0  0  0  0  0  0  0  0  0
   -1.8447   -3.3771    0.4707 Cl  0  0  0  0  0  0  0  0  0  0  0  0
  1  4  2  0  0  0  0
  2  1  1  0  0  0  0
  3  2  1  0  0  0  0
  4 11  1  0  0  0  0
  4  5  1  0  0  0  0
  5 12  1  0  0  0  0
  6  5  2  0  0  0  0
  6  7  1  0  0  0  0
  8  7  1  0  0  0  0
  8 13  1  0  0  0  0
  8 15  1  0  0  0  0
  9  6  1  0  0  0  0
 10  9  2  0  0  0  0
 10  1  1  0  0  0  0
 14  8  1  0  0  0  0
 16  9  1  0  0  0  0
 17 10  1  0  0  0  0
M  RAD  3   2   2   3   3  18   2
M  END
