Coordinates from ORCA-job 4-MeOPhN2+~Cl-_B3LYPG-6-31G_dp-NX-Scan-d89-09-n800
 OpenBabel11261920533D

 18 18  0  0  1  0  0  0  0  0999 V2000
   -1.5741    1.0512   -0.4735 C   0  0  0  0  0  0  0  0  0  0  0  0
   -2.5882    1.7859   -0.8936 N   0  0  0  0  0  0  0  0  0  0  0  0
   -3.4436    2.4317   -1.2770 N   0  0  0  0  0  0  0  0  0  0  0  0
   -0.4529    1.7030    0.1494 C   0  0  0  0  0  0  0  0  0  0  0  0
    0.6539    0.9727    0.4304 C   0  0  0  0  0  0  0  0  0  0  0  0
    0.7092   -0.4260    0.0682 C   0  0  0  0  0  0  0  0  0  0  0  0
    1.9225   -0.9824    0.2959 O   0  0  0  0  0  0  0  0  0  0  0  0
    2.0872   -2.3709    0.0273 C   0  0  0  0  0  0  0  0  0  0  0  0
   -0.3678   -1.0720   -0.4738 C   0  0  0  0  0  0  0  0  0  0  0  0
   -1.6521   -0.4082   -0.5899 C   0  0  1  0  0  0  0  0  0  0  0  0
   -0.5097    2.7632    0.3709 H   0  0  0  0  0  0  0  0  0  0  0  0
    1.5266    1.4136    0.8977 H   0  0  0  0  0  0  0  0  0  0  0  0
    3.1092   -2.6134    0.3193 H   0  0  0  0  0  0  0  0  0  0  0  0
    1.9508   -2.5878   -1.0392 H   0  0  0  0  0  0  0  0  0  0  0  0
    1.3834   -2.9729    0.6130 H   0  0  0  0  0  0  0  0  0  0  0  0
   -0.3297   -2.1197   -0.7388 H   0  0  0  0  0  0  0  0  0  0  0  0
   -2.3089   -0.7746   -1.3710 H   0  0  0  0  0  0  0  0  0  0  0  0
   -2.8705   -1.1444    0.9740 Cl  0  0  0  0  0  0  0  0  0  0  0  0
  1  4  2  0  0  0  0
  2  1  1  0  0  0  0
  3  2  1  0  0  0  0
  4 11  1  0  0  0  0
  4  5  1  0  0  0  0
  5 12  1  0  0  0  0
  6  7  1  0  0  0  0
  6  5  1  0  0  0  0
  8  7  1  0  0  0  0
  8 13  1  0  0  0  0
  8 15  1  0  0  0  0
  9  6  2  0  0  0  0
 10 17  1  6  0  0  0
 10  9  1  0  0  0  0
 10  1  1  0  0  0  0
 10 18  1  0  0  0  0
 14  8  1  0  0  0  0
 16  9  1  0  0  0  0
M  RAD  3   2   2   3   3   5   2
M  END
