Coordinates from ORCA-job 4-MeOPhN2+~Cl-_B3LYPG-6-31G_dp-NX-Scan-d89-09-n800
 OpenBabel11261920533D

 18 17  0  0  0  0  0  0  0  0999 V2000
   -1.4844    1.2168   -0.4433 C   0  0  0  0  0  0  0  0  0  0  0  0
   -2.5821    1.9642   -0.6822 N   0  0  0  0  0  0  0  0  0  0  0  0
   -3.4897    2.6051   -0.8734 N   0  0  0  0  0  0  0  0  0  0  0  0
   -0.2701    1.8895   -0.1083 C   0  0  0  0  0  0  0  0  0  0  0  0
    0.8454    1.1285    0.1173 C   0  0  0  0  0  0  0  0  0  0  0  0
    0.7808   -0.2922    0.0205 C   0  0  0  0  0  0  0  0  0  0  0  0
    1.9283   -0.9297    0.2602 O   0  0  0  0  0  0  0  0  0  0  0  0
    1.9459   -2.3678    0.2100 C   0  0  0  0  0  0  0  0  0  0  0  0
   -0.4280   -0.9340   -0.2962 C   0  0  0  0  0  0  0  0  0  0  0  0
   -1.5706   -0.1960   -0.5351 C   0  0  0  0  0  0  0  0  0  0  0  0
   -0.2454    2.9708   -0.0288 H   0  0  0  0  0  0  0  0  0  0  0  0
    1.7926    1.5866    0.3790 H   0  0  0  0  0  0  0  0  0  0  0  0
    2.9677   -2.6513    0.4581 H   0  0  0  0  0  0  0  0  0  0  0  0
    1.6898   -2.7231   -0.7923 H   0  0  0  0  0  0  0  0  0  0  0  0
    1.2487   -2.7907    0.9385 H   0  0  0  0  0  0  0  0  0  0  0  0
   -0.5740   -2.0136   -0.3284 H   0  0  0  0  0  0  0  0  0  0  0  0
   -2.4839   -0.7643   -0.7406 H   0  0  0  0  0  0  0  0  0  0  0  0
   -2.8257   -3.0498   -0.2660 Cl  0  0  0  0  0  0  0  0  0  0  0  0
  1  4  1  0  0  0  0
  2  1  1  0  0  0  0
  3  2  1  0  0  0  0
  4 11  1  0  0  0  0
  4  5  2  0  0  0  0
  5 12  1  0  0  0  0
  6  5  1  0  0  0  0
  6  7  1  0  0  0  0
  8  7  1  0  0  0  0
  8 13  1  0  0  0  0
  8 15  1  0  0  0  0
  9  6  2  0  0  0  0
 10  1  2  0  0  0  0
 10  9  1  0  0  0  0
 14  8  1  0  0  0  0
 16  9  1  0  0  0  0
 17 10  1  0  0  0  0
M  RAD  3   2   2   3   3  18   2
M  END
