Coordinates from ORCA-job 4-MeOPhN2+~Cl-_B3LYPG-6-31G_dp-NX-Scan-d89-09-n800
 OpenBabel11261920533D

 18 18  0  0  1  0  0  0  0  0999 V2000
   -1.5478    1.0654   -0.4985 C   0  0  0  0  0  0  0  0  0  0  0  0
   -2.6242    1.7656   -0.8017 N   0  0  0  0  0  0  0  0  0  0  0  0
   -3.5737    2.3296   -1.0708 N   0  0  0  0  0  0  0  0  0  0  0  0
   -0.4223    1.7150    0.1123 C   0  0  0  0  0  0  0  0  0  0  0  0
    0.6827    0.9821    0.3959 C   0  0  0  0  0  0  0  0  0  0  0  0
    0.7240   -0.4232    0.0580 C   0  0  0  0  0  0  0  0  0  0  0  0
    1.9292   -0.9887    0.3043 O   0  0  0  0  0  0  0  0  0  0  0  0
    2.0813   -2.3835    0.0623 C   0  0  0  0  0  0  0  0  0  0  0  0
   -0.3536   -1.0676   -0.4856 C   0  0  0  0  0  0  0  0  0  0  0  0
   -1.6278   -0.3928   -0.6399 C   0  0  1  0  0  0  0  0  0  0  0  0
   -0.4765    2.7756    0.3325 H   0  0  0  0  0  0  0  0  0  0  0  0
    1.5600    1.4226    0.8545 H   0  0  0  0  0  0  0  0  0  0  0  0
    3.0974   -2.6318    0.3697 H   0  0  0  0  0  0  0  0  0  0  0  0
    1.9543   -2.6182   -1.0016 H   0  0  0  0  0  0  0  0  0  0  0  0
    1.3645   -2.9671    0.6506 H   0  0  0  0  0  0  0  0  0  0  0  0
   -0.3174   -2.1164   -0.7469 H   0  0  0  0  0  0  0  0  0  0  0  0
   -2.2538   -0.7460   -1.4522 H   0  0  0  0  0  0  0  0  0  0  0  0
   -2.9509   -1.0719    0.8462 Cl  0  0  0  0  0  0  0  0  0  0  0  0
  1  4  2  0  0  0  0
  2  1  1  0  0  0  0
  3  2  1  0  0  0  0
  4 11  1  0  0  0  0
  4  5  1  0  0  0  0
  5 12  1  0  0  0  0
  6  7  1  0  0  0  0
  6  5  1  0  0  0  0
  8  7  1  0  0  0  0
  8 13  1  0  0  0  0
  8 15  1  0  0  0  0
  9  6  2  0  0  0  0
 10 17  1  6  0  0  0
 10  1  1  0  0  0  0
 10  9  1  0  0  0  0
 10 18  1  0  0  0  0
 14  8  1  0  0  0  0
 16  9  1  0  0  0  0
M  RAD  3   2   2   3   3   5   2
M  END
