Coordinates from ORCA-job 4-MeOPhN2+~Cl-_B3LYPG-6-31G_dp-NX-Scan-d89-09-n800
 OpenBabel11261920443D

 18 17  0  0  0  0  0  0  0  0999 V2000
   -1.4525   -0.0390   -0.0413 C   0  0  0  0  0  0  0  0  0  0  0  0
   -2.8149   -0.0750    0.0563 N   0  0  0  0  0  0  0  0  0  0  0  0
   -3.9306   -0.1011    0.1365 N   0  0  0  0  0  0  0  0  0  0  0  0
   -0.7998    1.2183   -0.0009 C   0  0  0  0  0  0  0  0  0  0  0  0
    0.5684    1.2351   -0.0995 C   0  0  0  0  0  0  0  0  0  0  0  0
    1.2970    0.0234   -0.2374 C   0  0  0  0  0  0  0  0  0  0  0  0
    2.6118    0.1630   -0.3222 O   0  0  0  0  0  0  0  0  0  0  0  0
    3.4664   -0.9886   -0.4627 C   0  0  0  0  0  0  0  0  0  0  0  0
    0.6198   -1.2213   -0.2756 C   0  0  0  0  0  0  0  0  0  0  0  0
   -0.7544   -1.2583   -0.1780 C   0  0  0  0  0  0  0  0  0  0  0  0
   -1.3725    2.1355    0.1056 H   0  0  0  0  0  0  0  0  0  0  0  0
    1.1201    2.1692   -0.0739 H   0  0  0  0  0  0  0  0  0  0  0  0
    4.4782   -0.5898   -0.5030 H   0  0  0  0  0  0  0  0  0  0  0  0
    3.2411   -1.5240   -1.3898 H   0  0  0  0  0  0  0  0  0  0  0  0
    3.3619   -1.6521    0.4008 H   0  0  0  0  0  0  0  0  0  0  0  0
    1.1665   -2.1516   -0.3811 H   0  0  0  0  0  0  0  0  0  0  0  0
   -1.2937   -2.2022   -0.2051 H   0  0  0  0  0  0  0  0  0  0  0  0
  -12.2674   -0.4924    0.7603 Cl  0  0  0  0  0  0  0  0  0  0  0  0
  1  4  1  0  0  0  0
  1  2  1  0  0  0  0
  2  3  1  0  0  0  0
  4 11  1  0  0  0  0
  5 12  1  0  0  0  0
  5  4  2  0  0  0  0
  6  5  1  0  0  0  0
  7  6  1  0  0  0  0
  8  7  1  0  0  0  0
  8 15  1  0  0  0  0
  9  6  2  0  0  0  0
  9 10  1  0  0  0  0
 10  1  2  0  0  0  0
 13  8  1  0  0  0  0
 14  8  1  0  0  0  0
 16  9  1  0  0  0  0
 17 10  1  0  0  0  0
M  RAD  3   2   2   3   3  18   2
M  END
