Coordinates from ORCA-job 4-MeOPhN2+~Cl-_B3LYPG-6-31G_dp-NX-Scan-d89-09-n800
 OpenBabel11261920443D

 18 17  0  0  0  0  0  0  0  0999 V2000
   -1.4630   -0.0335   -0.0413 C   0  0  0  0  0  0  0  0  0  0  0  0
   -2.8252   -0.0671    0.0558 N   0  0  0  0  0  0  0  0  0  0  0  0
   -3.9408   -0.0911    0.1356 N   0  0  0  0  0  0  0  0  0  0  0  0
   -0.8082    1.2228   -0.0007 C   0  0  0  0  0  0  0  0  0  0  0  0
    0.5601    1.2373   -0.0989 C   0  0  0  0  0  0  0  0  0  0  0  0
    1.2868    0.0244   -0.2365 C   0  0  0  0  0  0  0  0  0  0  0  0
    2.6018    0.1620   -0.3210 O   0  0  0  0  0  0  0  0  0  0  0  0
    3.4545   -0.9910   -0.4613 C   0  0  0  0  0  0  0  0  0  0  0  0
    0.6076   -1.2191   -0.2750 C   0  0  0  0  0  0  0  0  0  0  0  0
   -0.7668   -1.2539   -0.1777 C   0  0  0  0  0  0  0  0  0  0  0  0
   -1.3794    2.1407    0.1057 H   0  0  0  0  0  0  0  0  0  0  0  0
    1.1134    2.1703   -0.0731 H   0  0  0  0  0  0  0  0  0  0  0  0
    4.4670   -0.5938   -0.5014 H   0  0  0  0  0  0  0  0  0  0  0  0
    3.2286   -1.5260   -1.3884 H   0  0  0  0  0  0  0  0  0  0  0  0
    3.3488   -1.6544    0.4022 H   0  0  0  0  0  0  0  0  0  0  0  0
    1.1528   -2.1501   -0.3803 H   0  0  0  0  0  0  0  0  0  0  0  0
   -1.3075   -2.1967   -0.2050 H   0  0  0  0  0  0  0  0  0  0  0  0
  -12.0849   -0.5319    0.7503 Cl  0  0  0  0  0  0  0  0  0  0  0  0
  1  4  1  0  0  0  0
  1  2  1  0  0  0  0
  2  3  1  0  0  0  0
  4 11  1  0  0  0  0
  5 12  1  0  0  0  0
  5  4  2  0  0  0  0
  6  5  1  0  0  0  0
  7  6  1  0  0  0  0
  8  7  1  0  0  0  0
  8 15  1  0  0  0  0
  9  6  2  0  0  0  0
  9 10  1  0  0  0  0
 10  1  2  0  0  0  0
 13  8  1  0  0  0  0
 14  8  1  0  0  0  0
 16  9  1  0  0  0  0
 17 10  1  0  0  0  0
M  RAD  3   2   2   3   3  18   2
M  END
