Coordinates from ORCA-job 4-MeOPhN2+~Cl-_B3LYPG-6-31G_dp-NX-Scan-d89-09-n800
 OpenBabel11261920533D

 18 17  0  0  0  0  0  0  0  0999 V2000
   -1.4425    1.0356   -0.2449 C   0  0  0  0  0  0  0  0  0  0  0  0
   -2.6340    1.7356   -0.3750 N   0  0  0  0  0  0  0  0  0  0  0  0
   -3.7579    1.8052   -0.5516 N   0  0  0  0  0  0  0  0  0  0  0  0
   -0.2574    1.7485    0.0135 C   0  0  0  0  0  0  0  0  0  0  0  0
    0.9190    1.0415    0.1412 C   0  0  0  0  0  0  0  0  0  0  0  0
    0.9167   -0.3666    0.0133 C   0  0  0  0  0  0  0  0  0  0  0  0
    2.1172   -0.9541    0.1589 O   0  0  0  0  0  0  0  0  0  0  0  0
    2.2156   -2.3765    0.0594 C   0  0  0  0  0  0  0  0  0  0  0  0
   -0.2819   -1.0580   -0.2465 C   0  0  0  0  0  0  0  0  0  0  0  0
   -1.4750   -0.3623   -0.3780 C   0  0  0  0  0  0  0  0  0  0  0  0
   -0.2793    2.8287    0.1098 H   0  0  0  0  0  0  0  0  0  0  0  0
    1.8601    1.5403    0.3417 H   0  0  0  0  0  0  0  0  0  0  0  0
    3.2673   -2.6097    0.2227 H   0  0  0  0  0  0  0  0  0  0  0  0
    1.9126   -2.7258   -0.9337 H   0  0  0  0  0  0  0  0  0  0  0  0
    1.6078   -2.8692    0.8259 H   0  0  0  0  0  0  0  0  0  0  0  0
   -0.2933   -2.1362   -0.3479 H   0  0  0  0  0  0  0  0  0  0  0  0
   -2.4347   -0.8498   -0.5787 H   0  0  0  0  0  0  0  0  0  0  0  0
   -4.7150   -0.7782   -0.9409 Cl  0  0  0  0  0  0  0  0  0  0  0  0
  1  4  2  0  0  0  0
  2  1  1  0  0  0  0
  3  2  2  0  0  0  0
  4 11  1  0  0  0  0
  4  5  1  0  0  0  0
  5 12  1  0  0  0  0
  6  5  2  0  0  0  0
  6  7  1  0  0  0  0
  8  7  1  0  0  0  0
  8 13  1  0  0  0  0
  8 15  1  0  0  0  0
  9  6  1  0  0  0  0
 10  9  2  0  0  0  0
 10  1  1  0  0  0  0
 14  8  1  0  0  0  0
 16  9  1  0  0  0  0
 17 10  1  0  0  0  0
M  RAD  2   3   2  18   2
M  END
