Coordinates from ORCA-job 4-MeOPhN2+~Cl-_B3LYPG-6-31G_dp-NX-Scan-d89-09-n800
 OpenBabel11261920533D

 18 17  0  0  0  0  0  0  0  0999 V2000
   -1.4971    1.3800   -0.4953 C   0  0  0  0  0  0  0  0  0  0  0  0
   -2.5208    2.2051   -0.7726 N   0  0  0  0  0  0  0  0  0  0  0  0
   -3.3778    2.9022   -1.0181 N   0  0  0  0  0  0  0  0  0  0  0  0
   -0.2532    1.9522   -0.0977 C   0  0  0  0  0  0  0  0  0  0  0  0
    0.7885    1.1095    0.1734 C   0  0  0  0  0  0  0  0  0  0  0  0
    0.6321   -0.3055    0.0595 C   0  0  0  0  0  0  0  0  0  0  0  0
    1.7160   -1.0001    0.3344 O   0  0  0  0  0  0  0  0  0  0  0  0
    1.7448   -2.4408    0.1429 C   0  0  0  0  0  0  0  0  0  0  0  0
   -0.6164   -0.8704   -0.3237 C   0  0  0  0  0  0  0  0  0  0  0  0
   -1.6707   -0.0328   -0.5984 C   0  0  0  0  0  0  0  0  0  0  0  0
   -0.1487    3.0288   -0.0187 H   0  0  0  0  0  0  0  0  0  0  0  0
    1.7552    1.4938    0.4780 H   0  0  0  0  0  0  0  0  0  0  0  0
    2.7047   -2.7529    0.5511 H   0  0  0  0  0  0  0  0  0  0  0  0
    1.6946   -2.6562   -0.9272 H   0  0  0  0  0  0  0  0  0  0  0  0
    0.8970   -2.9391    0.6362 H   0  0  0  0  0  0  0  0  0  0  0  0
   -0.7886   -1.9661   -0.3207 H   0  0  0  0  0  0  0  0  0  0  0  0
   -2.6343   -0.4444   -0.8801 H   0  0  0  0  0  0  0  0  0  0  0  0
   -1.1796   -4.0142    0.3660 Cl  0  0  0  0  0  0  0  0  0  0  0  0
  1  4  1  0  0  0  0
  2  1  1  0  0  0  0
  3  2  1  0  0  0  0
  4 11  1  0  0  0  0
  4  5  2  0  0  0  0
  5 12  1  0  0  0  0
  6  5  1  0  0  0  0
  6  7  1  0  0  0  0
  8  7  1  0  0  0  0
  8 13  1  0  0  0  0
  8 15  1  0  0  0  0
  9 16  1  0  0  0  0
  9  6  2  0  0  0  0
 10  1  2  0  0  0  0
 10  9  1  0  0  0  0
 14  8  1  0  0  0  0
 17 10  1  0  0  0  0
M  RAD  3   2   2   3   3  18   2
M  END
