Coordinates from ORCA-job 4-MeOPhN2+~Cl-_B3LYPG-6-31G_dp-NX-Scan-d89-09-n800
 OpenBabel11261920533D

 18 18  0  0  0  0  0  0  0  0999 V2000
   -1.5478    0.9267   -0.4608 C   0  0  0  0  0  0  0  0  0  0  0  0
   -2.6663    1.7507   -0.7802 N   0  0  0  0  0  0  0  0  0  0  0  0
   -3.8695    1.4729   -0.5262 N   0  0  0  0  0  0  0  0  0  0  0  0
   -0.4028    1.6408   -0.0563 C   0  0  0  0  0  0  0  0  0  0  0  0
    0.7867    0.9886    0.2161 C   0  0  0  0  0  0  0  0  0  0  0  0
    0.8827   -0.4015    0.0341 C   0  0  0  0  0  0  0  0  0  0  0  0
    2.0944   -0.9511    0.3127 O   0  0  0  0  0  0  0  0  0  0  0  0
    2.2581   -2.3526    0.1471 C   0  0  0  0  0  0  0  0  0  0  0  0
   -0.2314   -1.1175   -0.4240 C   0  0  0  0  0  0  0  0  0  0  0  0
   -1.4392   -0.4590   -0.6567 C   0  0  0  0  0  0  0  0  0  0  0  0
   -0.4798    2.7186    0.0460 H   0  0  0  0  0  0  0  0  0  0  0  0
    1.6653    1.5304    0.5499 H   0  0  0  0  0  0  0  0  0  0  0  0
    3.2880   -2.5700    0.4323 H   0  0  0  0  0  0  0  0  0  0  0  0
    2.0998   -2.6571   -0.8952 H   0  0  0  0  0  0  0  0  0  0  0  0
    1.5765   -2.9173    0.7948 H   0  0  0  0  0  0  0  0  0  0  0  0
   -0.1730   -2.1845   -0.6025 H   0  0  0  0  0  0  0  0  0  0  0  0
   -2.2785   -1.0347   -1.0261 H   0  0  0  0  0  0  0  0  0  0  0  0
   -4.3179    0.2657    0.1842 Cl  0  0  0  0  0  0  0  0  0  0  0  0
  1  4  1  0  0  0  0
  2  3  2  0  0  0  0
  2  1  1  0  0  0  0
  3 18  1  0  0  0  0
  4 11  1  0  0  0  0
  4  5  2  0  0  0  0
  5 12  1  0  0  0  0
  6  5  1  0  0  0  0
  6  7  1  0  0  0  0
  8  7  1  0  0  0  0
  8 13  1  0  0  0  0
  8 15  1  0  0  0  0
  9  6  2  0  0  0  0
 10  1  2  0  0  0  0
 10  9  1  0  0  0  0
 14  8  1  0  0  0  0
 16  9  1  0  0  0  0
 17 10  1  0  0  0  0
M  END
