Coordinates from ORCA-job 4-MeOPhN2+~Cl-_B3LYPG-6-31G_dp-NX-Scan-d89-09-n800
 OpenBabel11261920443D

 18 17  0  0  0  0  0  0  0  0999 V2000
   -1.4569   -0.0368   -0.0413 C   0  0  0  0  0  0  0  0  0  0  0  0
   -2.8192   -0.0718    0.0561 N   0  0  0  0  0  0  0  0  0  0  0  0
   -3.9349   -0.0972    0.1362 N   0  0  0  0  0  0  0  0  0  0  0  0
   -0.8034    1.2201   -0.0008 C   0  0  0  0  0  0  0  0  0  0  0  0
    0.5649    1.2360   -0.0992 C   0  0  0  0  0  0  0  0  0  0  0  0
    1.2927    0.0238   -0.2370 C   0  0  0  0  0  0  0  0  0  0  0  0
    2.6075    0.1626   -0.3217 O   0  0  0  0  0  0  0  0  0  0  0  0
    3.4614   -0.9896   -0.4621 C   0  0  0  0  0  0  0  0  0  0  0  0
    0.6147   -1.2204   -0.2754 C   0  0  0  0  0  0  0  0  0  0  0  0
   -0.7596   -1.2565   -0.1779 C   0  0  0  0  0  0  0  0  0  0  0  0
   -1.3755    2.1376    0.1057 H   0  0  0  0  0  0  0  0  0  0  0  0
    1.1172    2.1696   -0.0736 H   0  0  0  0  0  0  0  0  0  0  0  0
    4.4735   -0.5914   -0.5023 H   0  0  0  0  0  0  0  0  0  0  0  0
    3.2359   -1.5248   -1.3892 H   0  0  0  0  0  0  0  0  0  0  0  0
    3.3564   -1.6530    0.4014 H   0  0  0  0  0  0  0  0  0  0  0  0
    1.1608   -2.1510   -0.3808 H   0  0  0  0  0  0  0  0  0  0  0  0
   -1.2995   -2.1999   -0.2051 H   0  0  0  0  0  0  0  0  0  0  0  0
  -12.1907   -0.5083    0.7560 Cl  0  0  0  0  0  0  0  0  0  0  0  0
  1  4  1  0  0  0  0
  1  2  1  0  0  0  0
  2  3  1  0  0  0  0
  4 11  1  0  0  0  0
  5 12  1  0  0  0  0
  5  4  2  0  0  0  0
  6  5  1  0  0  0  0
  7  6  1  0  0  0  0
  8  7  1  0  0  0  0
  8 15  1  0  0  0  0
  9  6  2  0  0  0  0
  9 10  1  0  0  0  0
 10  1  2  0  0  0  0
 13  8  1  0  0  0  0
 14  8  1  0  0  0  0
 16  9  1  0  0  0  0
 17 10  1  0  0  0  0
M  RAD  3   2   2   3   3  18   2
M  END
