Coordinates from ORCA-job 4-MeOPhN2+~Cl-_B3LYPG-6-31G_dp-NX-Scan-d89-09-n800
 OpenBabel11261920533D

 18 17  0  0  0  0  0  0  0  0999 V2000
   -1.5357    1.1244   -0.4982 C   0  0  0  0  0  0  0  0  0  0  0  0
   -2.5838    1.8889   -0.8453 N   0  0  0  0  0  0  0  0  0  0  0  0
   -3.4199    2.5891   -1.1471 N   0  0  0  0  0  0  0  0  0  0  0  0
   -0.3930    1.7888    0.0597 C   0  0  0  0  0  0  0  0  0  0  0  0
    0.7291    1.0517    0.2945 C   0  0  0  0  0  0  0  0  0  0  0  0
    0.7550   -0.3453   -0.0093 C   0  0  0  0  0  0  0  0  0  0  0  0
    1.9191   -0.9537    0.2703 O   0  0  0  0  0  0  0  0  0  0  0  0
    2.0027   -2.3763    0.1256 C   0  0  0  0  0  0  0  0  0  0  0  0
   -0.3661   -0.9835   -0.5324 C   0  0  0  0  0  0  0  0  0  0  0  0
   -1.5522   -0.2802   -0.7426 C   0  0  0  0  0  0  0  0  0  0  0  0
   -0.4381    2.8484    0.2835 H   0  0  0  0  0  0  0  0  0  0  0  0
    1.6178    1.5001    0.7240 H   0  0  0  0  0  0  0  0  0  0  0  0
    2.9997   -2.6469    0.4719 H   0  0  0  0  0  0  0  0  0  0  0  0
    1.8858   -2.6712   -0.9229 H   0  0  0  0  0  0  0  0  0  0  0  0
    1.2447   -2.8745    0.7376 H   0  0  0  0  0  0  0  0  0  0  0  0
   -0.3924   -2.0512   -0.6966 H   0  0  0  0  0  0  0  0  0  0  0  0
   -2.4148   -0.7647   -1.1753 H   0  0  0  0  0  0  0  0  0  0  0  0
   -2.8126   -2.1947    0.8917 Cl  0  0  0  0  0  0  0  0  0  0  0  0
  1  4  2  0  0  0  0
  2  1  1  0  0  0  0
  3  2  1  0  0  0  0
  4 11  1  0  0  0  0
  4  5  1  0  0  0  0
  5 12  1  0  0  0  0
  6  7  1  0  0  0  0
  6  5  2  0  0  0  0
  8  7  1  0  0  0  0
  8 13  1  0  0  0  0
  8 15  1  0  0  0  0
  9  6  1  0  0  0  0
 10  9  2  0  0  0  0
 10  1  1  0  0  0  0
 14  8  1  0  0  0  0
 16  9  1  0  0  0  0
 17 10  1  0  0  0  0
M  RAD  3   2   2   3   3  18   2
M  END
