Coordinates from ORCA-job 4-MeOPhN2+~Cl-_B3LYPG-6-31G_dp-NX-Scan-d89-09-n800
 OpenBabel11261920533D

 18 17  0  0  0  0  0  0  0  0999 V2000
   -1.4417    1.0372   -0.2445 C   0  0  0  0  0  0  0  0  0  0  0  0
   -2.6331    1.7364   -0.3747 N   0  0  0  0  0  0  0  0  0  0  0  0
   -3.7562    1.8114   -0.5509 N   0  0  0  0  0  0  0  0  0  0  0  0
   -0.2562    1.7498    0.0138 C   0  0  0  0  0  0  0  0  0  0  0  0
    0.9195    1.0420    0.1413 C   0  0  0  0  0  0  0  0  0  0  0  0
    0.9163   -0.3663    0.0133 C   0  0  0  0  0  0  0  0  0  0  0  0
    2.1164   -0.9544    0.1587 O   0  0  0  0  0  0  0  0  0  0  0  0
    2.2142   -2.3769    0.0591 C   0  0  0  0  0  0  0  0  0  0  0  0
   -0.2827   -1.0571   -0.2463 C   0  0  0  0  0  0  0  0  0  0  0  0
   -1.4755   -0.3608   -0.3777 C   0  0  0  0  0  0  0  0  0  0  0  0
   -0.2774    2.8300    0.1102 H   0  0  0  0  0  0  0  0  0  0  0  0
    1.8611    1.5400    0.3417 H   0  0  0  0  0  0  0  0  0  0  0  0
    3.2659   -2.6104    0.2221 H   0  0  0  0  0  0  0  0  0  0  0  0
    1.9109   -2.7259   -0.9341 H   0  0  0  0  0  0  0  0  0  0  0  0
    1.6063   -2.8693    0.8256 H   0  0  0  0  0  0  0  0  0  0  0  0
   -0.2947   -2.1352   -0.3477 H   0  0  0  0  0  0  0  0  0  0  0  0
   -2.4359   -0.8478   -0.5783 H   0  0  0  0  0  0  0  0  0  0  0  0
   -4.7115   -0.7939   -0.9424 Cl  0  0  0  0  0  0  0  0  0  0  0  0
  1  4  2  0  0  0  0
  2  1  1  0  0  0  0
  3  2  2  0  0  0  0
  4 11  1  0  0  0  0
  4  5  1  0  0  0  0
  5 12  1  0  0  0  0
  6  5  2  0  0  0  0
  6  7  1  0  0  0  0
  8  7  1  0  0  0  0
  8 13  1  0  0  0  0
  8 15  1  0  0  0  0
  9  6  1  0  0  0  0
 10  9  2  0  0  0  0
 10  1  1  0  0  0  0
 14  8  1  0  0  0  0
 16  9  1  0  0  0  0
 17 10  1  0  0  0  0
M  RAD  2   3   2  18   2
M  END
