Coordinates from ORCA-job 4-MeOPhN2+~Cl-_B3LYPG-6-31G_dp-NX-Scan-d89-09-n800
 OpenBabel11261920533D

 18 18  0  0  0  0  0  0  0  0999 V2000
   -1.5500    0.9250   -0.4620 C   0  0  0  0  0  0  0  0  0  0  0  0
   -2.6686    1.7505   -0.7863 N   0  0  0  0  0  0  0  0  0  0  0  0
   -3.8706    1.4597   -0.5181 N   0  0  0  0  0  0  0  0  0  0  0  0
   -0.4055    1.6388   -0.0555 C   0  0  0  0  0  0  0  0  0  0  0  0
    0.7846    0.9876    0.2170 C   0  0  0  0  0  0  0  0  0  0  0  0
    0.8822   -0.4022    0.0345 C   0  0  0  0  0  0  0  0  0  0  0  0
    2.0946   -0.9510    0.3139 O   0  0  0  0  0  0  0  0  0  0  0  0
    2.2593   -2.3520    0.1469 C   0  0  0  0  0  0  0  0  0  0  0  0
   -0.2310   -1.1188   -0.4244 C   0  0  0  0  0  0  0  0  0  0  0  0
   -1.4392   -0.4607   -0.6578 C   0  0  0  0  0  0  0  0  0  0  0  0
   -0.4832    2.7166    0.0474 H   0  0  0  0  0  0  0  0  0  0  0  0
    1.6625    1.5301    0.5516 H   0  0  0  0  0  0  0  0  0  0  0  0
    3.2893   -2.5692    0.4322 H   0  0  0  0  0  0  0  0  0  0  0  0
    2.1016   -2.6557   -0.8958 H   0  0  0  0  0  0  0  0  0  0  0  0
    1.5779   -2.9182    0.7937 H   0  0  0  0  0  0  0  0  0  0  0  0
   -0.1720   -2.1859   -0.6028 H   0  0  0  0  0  0  0  0  0  0  0  0
   -2.2771   -1.0379   -1.0284 H   0  0  0  0  0  0  0  0  0  0  0  0
   -4.3093    0.2923    0.1828 Cl  0  0  0  0  0  0  0  0  0  0  0  0
  1  4  1  0  0  0  0
  2  3  2  0  0  0  0
  2  1  1  0  0  0  0
  3 18  1  0  0  0  0
  4 11  1  0  0  0  0
  4  5  2  0  0  0  0
  5 12  1  0  0  0  0
  6  5  1  0  0  0  0
  6  7  1  0  0  0  0
  8  7  1  0  0  0  0
  8 13  1  0  0  0  0
  8 15  1  0  0  0  0
  9  6  2  0  0  0  0
 10  1  2  0  0  0  0
 10  9  1  0  0  0  0
 14  8  1  0  0  0  0
 16  9  1  0  0  0  0
 17 10  1  0  0  0  0
M  END
