Coordinates from ORCA-job 4-MeOPhN2+~Cl-_B3LYPG-6-31G_dp-NX-Scan-d89-09-n800
 OpenBabel11261920443D

 18 17  0  0  0  0  0  0  0  0999 V2000
   -1.4736   -0.0269   -0.0413 C   0  0  0  0  0  0  0  0  0  0  0  0
   -2.8355   -0.0577    0.0552 N   0  0  0  0  0  0  0  0  0  0  0  0
   -3.9511   -0.0792    0.1346 N   0  0  0  0  0  0  0  0  0  0  0  0
   -0.8162    1.2280   -0.0005 C   0  0  0  0  0  0  0  0  0  0  0  0
    0.5522    1.2399   -0.0982 C   0  0  0  0  0  0  0  0  0  0  0  0
    1.2766    0.0256   -0.2356 C   0  0  0  0  0  0  0  0  0  0  0  0
    2.5918    0.1607   -0.3198 O   0  0  0  0  0  0  0  0  0  0  0  0
    3.4423   -0.9939   -0.4599 C   0  0  0  0  0  0  0  0  0  0  0  0
    0.5950   -1.2165   -0.2743 C   0  0  0  0  0  0  0  0  0  0  0  0
   -0.7796   -1.2487   -0.1775 C   0  0  0  0  0  0  0  0  0  0  0  0
   -1.3855    2.1469    0.1057 H   0  0  0  0  0  0  0  0  0  0  0  0
    1.1074    2.1717   -0.0723 H   0  0  0  0  0  0  0  0  0  0  0  0
    4.4556   -0.5986   -0.4998 H   0  0  0  0  0  0  0  0  0  0  0  0
    3.2156   -1.5285   -1.3871 H   0  0  0  0  0  0  0  0  0  0  0  0
    3.3353   -1.6570    0.4036 H   0  0  0  0  0  0  0  0  0  0  0  0
    1.1385   -2.1484   -0.3794 H   0  0  0  0  0  0  0  0  0  0  0  0
   -1.3221   -2.1902   -0.2049 H   0  0  0  0  0  0  0  0  0  0  0  0
  -11.9014   -0.5781    0.7405 Cl  0  0  0  0  0  0  0  0  0  0  0  0
  1  4  1  0  0  0  0
  1  2  1  0  0  0  0
  2  3  1  0  0  0  0
  4 11  1  0  0  0  0
  5 12  1  0  0  0  0
  5  4  2  0  0  0  0
  6  5  1  0  0  0  0
  7  6  1  0  0  0  0
  8  7  1  0  0  0  0
  8 15  1  0  0  0  0
  9  6  2  0  0  0  0
  9 10  1  0  0  0  0
 10  1  2  0  0  0  0
 13  8  1  0  0  0  0
 14  8  1  0  0  0  0
 16  9  1  0  0  0  0
 17 10  1  0  0  0  0
M  RAD  3   2   2   3   3  18   2
M  END
