Coordinates from ORCA-job 4-MeOPhN2+~Cl-_B3LYPG-6-31G_dp-NX-Scan-d89-09-n800
 OpenBabel11261920443D

 18 17  0  0  0  0  0  0  0  0999 V2000
   -1.4652   -0.0322   -0.0413 C   0  0  0  0  0  0  0  0  0  0  0  0
   -2.8274   -0.0652    0.0557 N   0  0  0  0  0  0  0  0  0  0  0  0
   -3.9430   -0.0888    0.1355 N   0  0  0  0  0  0  0  0  0  0  0  0
   -0.8099    1.2238   -0.0006 C   0  0  0  0  0  0  0  0  0  0  0  0
    0.5584    1.2378   -0.0987 C   0  0  0  0  0  0  0  0  0  0  0  0
    1.2847    0.0247   -0.2363 C   0  0  0  0  0  0  0  0  0  0  0  0
    2.5997    0.1617   -0.3207 O   0  0  0  0  0  0  0  0  0  0  0  0
    3.4519   -0.9916   -0.4610 C   0  0  0  0  0  0  0  0  0  0  0  0
    0.6049   -1.2186   -0.2749 C   0  0  0  0  0  0  0  0  0  0  0  0
   -0.7695   -1.2529   -0.1777 C   0  0  0  0  0  0  0  0  0  0  0  0
   -1.3807    2.1420    0.1057 H   0  0  0  0  0  0  0  0  0  0  0  0
    1.1121    2.1706   -0.0730 H   0  0  0  0  0  0  0  0  0  0  0  0
    4.4646   -0.5948   -0.5010 H   0  0  0  0  0  0  0  0  0  0  0  0
    3.2259   -1.5265   -1.3881 H   0  0  0  0  0  0  0  0  0  0  0  0
    3.3460   -1.6549    0.4025 H   0  0  0  0  0  0  0  0  0  0  0  0
    1.1498   -2.1497   -0.3801 H   0  0  0  0  0  0  0  0  0  0  0  0
   -1.3106   -2.1954   -0.2051 H   0  0  0  0  0  0  0  0  0  0  0  0
  -12.0463   -0.5411    0.7484 Cl  0  0  0  0  0  0  0  0  0  0  0  0
  1  4  1  0  0  0  0
  1  2  1  0  0  0  0
  2  3  1  0  0  0  0
  4 11  1  0  0  0  0
  5 12  1  0  0  0  0
  5  4  2  0  0  0  0
  6  5  1  0  0  0  0
  7  6  1  0  0  0  0
  8  7  1  0  0  0  0
  8 15  1  0  0  0  0
  9  6  2  0  0  0  0
  9 10  1  0  0  0  0
 10  1  2  0  0  0  0
 13  8  1  0  0  0  0
 14  8  1  0  0  0  0
 16  9  1  0  0  0  0
 17 10  1  0  0  0  0
M  RAD  3   2   2   3   3  18   2
M  END
