Coordinates from ORCA-job 4-MeOPhN2+~Cl-_B3LYPG-6-31G_dp-NX-Scan-d89-09-n800
 OpenBabel11261920533D

 18 18  0  0  0  0  0  0  0  0999 V2000
   -1.5494    0.9254   -0.4621 C   0  0  0  0  0  0  0  0  0  0  0  0
   -2.6681    1.7502   -0.7856 N   0  0  0  0  0  0  0  0  0  0  0  0
   -3.8702    1.4629   -0.5200 N   0  0  0  0  0  0  0  0  0  0  0  0
   -0.4050    1.6393   -0.0558 C   0  0  0  0  0  0  0  0  0  0  0  0
    0.7849    0.9878    0.2169 C   0  0  0  0  0  0  0  0  0  0  0  0
    0.8822   -0.4021    0.0344 C   0  0  0  0  0  0  0  0  0  0  0  0
    2.0944   -0.9511    0.3139 O   0  0  0  0  0  0  0  0  0  0  0  0
    2.2589   -2.3521    0.1470 C   0  0  0  0  0  0  0  0  0  0  0  0
   -0.2311   -1.1185   -0.4246 C   0  0  0  0  0  0  0  0  0  0  0  0
   -1.4391   -0.4603   -0.6580 C   0  0  0  0  0  0  0  0  0  0  0  0
   -0.4825    2.7171    0.0470 H   0  0  0  0  0  0  0  0  0  0  0  0
    1.6629    1.5301    0.5515 H   0  0  0  0  0  0  0  0  0  0  0  0
    3.2889   -2.5694    0.4325 H   0  0  0  0  0  0  0  0  0  0  0  0
    2.1013   -2.6559   -0.8956 H   0  0  0  0  0  0  0  0  0  0  0  0
    1.5774   -2.9181    0.7939 H   0  0  0  0  0  0  0  0  0  0  0  0
   -0.1721   -2.1856   -0.6031 H   0  0  0  0  0  0  0  0  0  0  0  0
   -2.2773   -1.0371   -1.0286 H   0  0  0  0  0  0  0  0  0  0  0  0
   -4.3106    0.2862    0.1851 Cl  0  0  0  0  0  0  0  0  0  0  0  0
  1  4  1  0  0  0  0
  2  3  2  0  0  0  0
  2  1  1  0  0  0  0
  3 18  1  0  0  0  0
  4 11  1  0  0  0  0
  4  5  2  0  0  0  0
  5 12  1  0  0  0  0
  6  5  1  0  0  0  0
  6  7  1  0  0  0  0
  8  7  1  0  0  0  0
  8 13  1  0  0  0  0
  8 15  1  0  0  0  0
  9  6  2  0  0  0  0
 10  1  2  0  0  0  0
 10  9  1  0  0  0  0
 14  8  1  0  0  0  0
 16  9  1  0  0  0  0
 17 10  1  0  0  0  0
M  END
