Coordinates from ORCA-job 4-MeOPhN2+~Cl-_B3LYPG-6-31G_dp-NX-Scan-d89-09-n800
 OpenBabel11261920533D

 18 17  0  0  0  0  0  0  0  0999 V2000
   -1.5018   -0.0020   -0.0420 C   0  0  0  0  0  0  0  0  0  0  0  0
   -2.8631   -0.0218    0.0526 N   0  0  0  0  0  0  0  0  0  0  0  0
   -3.9788   -0.0338    0.1304 N   0  0  0  0  0  0  0  0  0  0  0  0
   -0.8347    1.2479   -0.0005 C   0  0  0  0  0  0  0  0  0  0  0  0
    0.5340    1.2495   -0.0966 C   0  0  0  0  0  0  0  0  0  0  0  0
    1.2494    0.0300   -0.2332 C   0  0  0  0  0  0  0  0  0  0  0  0
    2.5656    0.1554   -0.3160 O   0  0  0  0  0  0  0  0  0  0  0  0
    3.4075   -1.0053   -0.4555 C   0  0  0  0  0  0  0  0  0  0  0  0
    0.5584   -1.2069   -0.2725 C   0  0  0  0  0  0  0  0  0  0  0  0
   -0.8167   -1.2289   -0.1773 C   0  0  0  0  0  0  0  0  0  0  0  0
   -1.3970    2.1705    0.1049 H   0  0  0  0  0  0  0  0  0  0  0  0
    1.0962    2.1766   -0.0701 H   0  0  0  0  0  0  0  0  0  0  0  0
    4.4237   -0.6174   -0.4947 H   0  0  0  0  0  0  0  0  0  0  0  0
    3.1777   -1.5382   -1.3829 H   0  0  0  0  0  0  0  0  0  0  0  0
    3.2951   -1.6676    0.4079 H   0  0  0  0  0  0  0  0  0  0  0  0
    1.0952   -2.1421   -0.3770 H   0  0  0  0  0  0  0  0  0  0  0  0
   -1.3660   -2.1656   -0.2053 H   0  0  0  0  0  0  0  0  0  0  0  0
  -11.3993   -0.7513    0.7170 Cl  0  0  0  0  0  0  0  0  0  0  0  0
  1  4  1  0  0  0  0
  1  2  1  0  0  0  0
  2  3  1  0  0  0  0
  4 11  1  0  0  0  0
  5 12  1  0  0  0  0
  5  4  2  0  0  0  0
  6  5  1  0  0  0  0
  7  6  1  0  0  0  0
  8  7  1  0  0  0  0
  8 15  1  0  0  0  0
  9  6  2  0  0  0  0
  9 10  1  0  0  0  0
 10  1  2  0  0  0  0
 13  8  1  0  0  0  0
 14  8  1  0  0  0  0
 16  9  1  0  0  0  0
 17 10  1  0  0  0  0
M  RAD  3   2   2   3   3  18   2
M  END
