Coordinates from ORCA-job 4-MeOPhN2+~Cl-_B3LYPG-6-31G_dp-NX-Scan-d89-09-n800
 OpenBabel11261920533D

 18 18  0  0  1  0  0  0  0  0999 V2000
   -1.5386    1.0709   -0.5070 C   0  0  0  0  0  0  0  0  0  0  0  0
   -2.6341    1.7575   -0.7704 N   0  0  0  0  0  0  0  0  0  0  0  0
   -3.6129    2.2875   -0.9976 N   0  0  0  0  0  0  0  0  0  0  0  0
   -0.4118    1.7199    0.0995 C   0  0  0  0  0  0  0  0  0  0  0  0
    0.6927    0.9860    0.3834 C   0  0  0  0  0  0  0  0  0  0  0  0
    0.7290   -0.4213    0.0539 C   0  0  0  0  0  0  0  0  0  0  0  0
    1.9309   -0.9903    0.3068 O   0  0  0  0  0  0  0  0  0  0  0  0
    2.0782   -2.3873    0.0743 C   0  0  0  0  0  0  0  0  0  0  0  0
   -0.3492   -1.0650   -0.4906 C   0  0  0  0  0  0  0  0  0  0  0  0
   -1.6183   -0.3861   -0.6587 C   0  0  1  0  0  0  0  0  0  0  0  0
   -0.4651    2.7806    0.3198 H   0  0  0  0  0  0  0  0  0  0  0  0
    1.5716    1.4260    0.8393 H   0  0  0  0  0  0  0  0  0  0  0  0
    3.0920   -2.6378    0.3875 H   0  0  0  0  0  0  0  0  0  0  0  0
    1.9545   -2.6283   -0.9884 H   0  0  0  0  0  0  0  0  0  0  0  0
    1.3566   -2.9642    0.6635 H   0  0  0  0  0  0  0  0  0  0  0  0
   -0.3138   -2.1142   -0.7502 H   0  0  0  0  0  0  0  0  0  0  0  0
   -2.2358   -0.7359   -1.4790 H   0  0  0  0  0  0  0  0  0  0  0  0
   -2.9806   -1.0490    0.8031 Cl  0  0  0  0  0  0  0  0  0  0  0  0
  1  4  2  0  0  0  0
  2  1  1  0  0  0  0
  3  2  1  0  0  0  0
  4 11  1  0  0  0  0
  4  5  1  0  0  0  0
  5 12  1  0  0  0  0
  6  7  1  0  0  0  0
  6  5  1  0  0  0  0
  8  7  1  0  0  0  0
  8 13  1  0  0  0  0
  8 15  1  0  0  0  0
  9  6  2  0  0  0  0
 10 17  1  6  0  0  0
 10  1  1  0  0  0  0
 10  9  1  0  0  0  0
 10 18  1  0  0  0  0
 14  8  1  0  0  0  0
 16  9  1  0  0  0  0
M  RAD  3   2   2   3   3   5   2
M  END
