Coordinates from ORCA-job 4-MeOPhN2+~Cl-_B3LYPG-6-31G_dp-NX-Scan-d89-09-n800
 OpenBabel11261920533D

 18 18  0  0  0  0  0  0  0  0999 V2000
   -1.5879    0.9185   -0.2671 C   0  0  0  0  0  0  0  0  0  0  0  0
   -2.6870    1.8209   -0.3551 N   0  0  0  0  0  0  0  0  0  0  0  0
   -3.8902    1.4338   -0.6203 N   0  0  0  0  0  0  0  0  0  0  0  0
   -0.3926    1.6264    0.0162 C   0  0  0  0  0  0  0  0  0  0  0  0
    0.8258    0.9940    0.1561 C   0  0  0  0  0  0  0  0  0  0  0  0
    0.9079   -0.4028    0.0186 C   0  0  0  0  0  0  0  0  0  0  0  0
    2.1466   -0.9410    0.1743 O   0  0  0  0  0  0  0  0  0  0  0  0
    2.2936   -2.3489    0.0607 C   0  0  0  0  0  0  0  0  0  0  0  0
   -0.2524   -1.1330   -0.2606 C   0  0  0  0  0  0  0  0  0  0  0  0
   -1.4834   -0.4869   -0.4023 C   0  0  0  0  0  0  0  0  0  0  0  0
   -0.4739    2.7033    0.1220 H   0  0  0  0  0  0  0  0  0  0  0  0
    1.7318    1.5499    0.3736 H   0  0  0  0  0  0  0  0  0  0  0  0
    3.3513   -2.5552    0.2292 H   0  0  0  0  0  0  0  0  0  0  0  0
    2.0106   -2.7054   -0.9379 H   0  0  0  0  0  0  0  0  0  0  0  0
    1.6975   -2.8790    0.8139 H   0  0  0  0  0  0  0  0  0  0  0  0
   -0.2165   -2.2104   -0.3734 H   0  0  0  0  0  0  0  0  0  0  0  0
   -2.3436   -1.1017   -0.6167 H   0  0  0  0  0  0  0  0  0  0  0  0
   -4.3921    0.3662   -0.8424 Cl  0  0  0  0  0  0  0  0  0  0  0  0
  1  4  1  0  0  0  0
  2  1  1  0  0  0  0
  3  2  2  0  0  0  0
  4 11  1  0  0  0  0
  4  5  2  0  0  0  0
  5 12  1  0  0  0  0
  6  5  1  0  0  0  0
  6  7  1  0  0  0  0
  8  7  1  0  0  0  0
  8 13  1  0  0  0  0
  8 15  1  0  0  0  0
  9  6  2  0  0  0  0
 10  1  2  0  0  0  0
 10  9  1  0  0  0  0
 14  8  1  0  0  0  0
 16  9  1  0  0  0  0
 17 10  1  0  0  0  0
 18  3  1  0  0  0  0
M  END
