Coordinates from ORCA-job 4-MeOPhN2+~Cl-_B3LYPG-6-31G_dp-NX-Scan-d89-09-n800
 OpenBabel11261920443D

 18 17  0  0  0  0  0  0  0  0999 V2000
   -1.4425   -0.0436   -0.0414 C   0  0  0  0  0  0  0  0  0  0  0  0
   -2.8052   -0.0815    0.0567 N   0  0  0  0  0  0  0  0  0  0  0  0
   -3.9208   -0.1092    0.1373 N   0  0  0  0  0  0  0  0  0  0  0  0
   -0.7916    1.2146   -0.0012 C   0  0  0  0  0  0  0  0  0  0  0  0
    0.5765    1.2333   -0.1002 C   0  0  0  0  0  0  0  0  0  0  0  0
    1.3068    0.0225   -0.2382 C   0  0  0  0  0  0  0  0  0  0  0  0
    2.6213    0.1638   -0.3233 O   0  0  0  0  0  0  0  0  0  0  0  0
    3.4774   -0.9867   -0.4639 C   0  0  0  0  0  0  0  0  0  0  0  0
    0.6312   -1.2232   -0.2763 C   0  0  0  0  0  0  0  0  0  0  0  0
   -0.7429   -1.2620   -0.1783 C   0  0  0  0  0  0  0  0  0  0  0  0
   -1.3656    2.1313    0.1055 H   0  0  0  0  0  0  0  0  0  0  0  0
    1.1270    2.1682   -0.0748 H   0  0  0  0  0  0  0  0  0  0  0  0
    4.4888   -0.5865   -0.5043 H   0  0  0  0  0  0  0  0  0  0  0  0
    3.2527   -1.5223   -1.3909 H   0  0  0  0  0  0  0  0  0  0  0  0
    3.3739   -1.6503    0.3996 H   0  0  0  0  0  0  0  0  0  0  0  0
    1.1791   -2.1529   -0.3819 H   0  0  0  0  0  0  0  0  0  0  0  0
   -1.2810   -2.2068   -0.2053 H   0  0  0  0  0  0  0  0  0  0  0  0
  -12.4397   -0.4595    0.7699 Cl  0  0  0  0  0  0  0  0  0  0  0  0
  1  4  1  0  0  0  0
  1  2  1  0  0  0  0
  2  3  1  0  0  0  0
  4 11  1  0  0  0  0
  5 12  1  0  0  0  0
  5  4  2  0  0  0  0
  6  5  1  0  0  0  0
  7  6  1  0  0  0  0
  8  7  1  0  0  0  0
  8 15  1  0  0  0  0
  9  6  2  0  0  0  0
  9 10  1  0  0  0  0
 10  1  2  0  0  0  0
 13  8  1  0  0  0  0
 14  8  1  0  0  0  0
 16  9  1  0  0  0  0
 17 10  1  0  0  0  0
M  RAD  3   2   2   3   3  18   2
M  END
