Coordinates from ORCA-job 4-MeOPhN2+~Cl-_B3LYPG-6-31G_dp-NX-Scan-d89-09-n800
 OpenBabel11261920533D

 18 18  0  0  1  0  0  0  0  0999 V2000
   -1.5219    1.0818   -0.5213 C   0  0  0  0  0  0  0  0  0  0  0  0
   -2.6480    1.7422   -0.7169 N   0  0  0  0  0  0  0  0  0  0  0  0
   -3.6747    2.2001   -0.8718 N   0  0  0  0  0  0  0  0  0  0  0  0
   -0.3928    1.7296    0.0779 C   0  0  0  0  0  0  0  0  0  0  0  0
    0.7109    0.9934    0.3619 C   0  0  0  0  0  0  0  0  0  0  0  0
    0.7378   -0.4167    0.0463 C   0  0  0  0  0  0  0  0  0  0  0  0
    1.9333   -0.9928    0.3109 O   0  0  0  0  0  0  0  0  0  0  0  0
    2.0713   -2.3935    0.0948 C   0  0  0  0  0  0  0  0  0  0  0  0
   -0.3419   -1.0587   -0.5003 C   0  0  0  0  0  0  0  0  0  0  0  0
   -1.6004   -0.3723   -0.6928 C   0  0  1  0  0  0  0  0  0  0  0  0
   -0.4446    2.7901    0.2995 H   0  0  0  0  0  0  0  0  0  0  0  0
    1.5924    1.4322    0.8136 H   0  0  0  0  0  0  0  0  0  0  0  0
    3.0808   -2.6482    0.4184 H   0  0  0  0  0  0  0  0  0  0  0  0
    1.9540   -2.6451   -0.9662 H   0  0  0  0  0  0  0  0  0  0  0  0
    1.3407   -2.9581    0.6846 H   0  0  0  0  0  0  0  0  0  0  0  0
   -0.3082   -2.1086   -0.7575 H   0  0  0  0  0  0  0  0  0  0  0  0
   -2.2070   -0.7173   -1.5228 H   0  0  0  0  0  0  0  0  0  0  0  0
   -3.0363   -1.0091    0.7307 Cl  0  0  0  0  0  0  0  0  0  0  0  0
  1  4  2  0  0  0  0
  2  1  1  0  0  0  0
  3  2  1  0  0  0  0
  4 11  1  0  0  0  0
  4  5  1  0  0  0  0
  5 12  1  0  0  0  0
  6  7  1  0  0  0  0
  6  5  1  0  0  0  0
  8  7  1  0  0  0  0
  8 13  1  0  0  0  0
  8 15  1  0  0  0  0
  9  6  2  0  0  0  0
 10 17  1  6  0  0  0
 10  1  1  0  0  0  0
 10  9  1  0  0  0  0
 10 18  1  0  0  0  0
 14  8  1  0  0  0  0
 16  9  1  0  0  0  0
M  RAD  3   2   2   3   3   5   2
M  END
