Coordinates from ORCA-job 4-MeOPhN2+~Cl-_B3LYPG-6-31G_dp-NX-Scan-d89-09-n800
 OpenBabel11261920533D

 18 17  0  0  0  0  0  0  0  0999 V2000
   -1.6036    1.0444   -0.4500 C   0  0  0  0  0  0  0  0  0  0  0  0
   -2.5370    1.8220   -0.9912 N   0  0  0  0  0  0  0  0  0  0  0  0
   -3.2583    2.5551   -1.4801 N   0  0  0  0  0  0  0  0  0  0  0  0
   -0.4867    1.7002    0.1825 C   0  0  0  0  0  0  0  0  0  0  0  0
    0.6285    0.9745    0.4461 C   0  0  0  0  0  0  0  0  0  0  0  0
    0.6990   -0.4122    0.0586 C   0  0  0  0  0  0  0  0  0  0  0  0
    1.9103   -0.9687    0.2796 O   0  0  0  0  0  0  0  0  0  0  0  0
    2.0771   -2.3576    0.0042 C   0  0  0  0  0  0  0  0  0  0  0  0
   -0.3826   -1.0575   -0.4888 C   0  0  0  0  0  0  0  0  0  0  0  0
   -1.6531   -0.4014   -0.5853 C   0  0  0  0  0  0  0  0  0  0  0  0
   -0.5497    2.7574    0.4153 H   0  0  0  0  0  0  0  0  0  0  0  0
    1.4958    1.4166    0.9227 H   0  0  0  0  0  0  0  0  0  0  0  0
    3.1001   -2.5979    0.2939 H   0  0  0  0  0  0  0  0  0  0  0  0
    1.9404   -2.5687   -1.0632 H   0  0  0  0  0  0  0  0  0  0  0  0
    1.3753   -2.9617    0.5892 H   0  0  0  0  0  0  0  0  0  0  0  0
   -0.3485   -2.1081   -0.7416 H   0  0  0  0  0  0  0  0  0  0  0  0
   -2.3911   -0.8069   -1.2641 H   0  0  0  0  0  0  0  0  0  0  0  0
   -2.7706   -1.3805    1.1613 Cl  0  0  0  0  0  0  0  0  0  0  0  0
  1  4  2  0  0  0  0
  2  1  1  0  0  0  0
  3  2  1  0  0  0  0
  4 11  1  0  0  0  0
  4  5  1  0  0  0  0
  5 12  1  0  0  0  0
  6  7  1  0  0  0  0
  6  5  2  0  0  0  0
  8  7  1  0  0  0  0
  8 13  1  0  0  0  0
  8 15  1  0  0  0  0
  9  6  1  0  0  0  0
 10  9  2  0  0  0  0
 10  1  1  0  0  0  0
 14  8  1  0  0  0  0
 16  9  1  0  0  0  0
 17 10  1  0  0  0  0
M  RAD  3   2   2   3   3  18   2
M  END
