Coordinates from ORCA-job 4-MeOPhN2+~Cl-_B3LYPG-6-31G_dp-NX-Scan-d89-09-n800
 OpenBabel11261920533D

 18 17  0  0  0  0  0  0  0  0999 V2000
   -1.4830    1.1970   -0.4665 C   0  0  0  0  0  0  0  0  0  0  0  0
   -2.5828    1.9361   -0.7171 N   0  0  0  0  0  0  0  0  0  0  0  0
   -3.4959    2.5673   -0.9154 N   0  0  0  0  0  0  0  0  0  0  0  0
   -0.2873    1.8729   -0.0734 C   0  0  0  0  0  0  0  0  0  0  0  0
    0.8301    1.1174    0.1557 C   0  0  0  0  0  0  0  0  0  0  0  0
    0.7860   -0.3008    0.0110 C   0  0  0  0  0  0  0  0  0  0  0  0
    1.9376   -0.9299    0.2644 O   0  0  0  0  0  0  0  0  0  0  0  0
    1.9732   -2.3648    0.1919 C   0  0  0  0  0  0  0  0  0  0  0  0
   -0.4043   -0.9455   -0.3567 C   0  0  0  0  0  0  0  0  0  0  0  0
   -1.5511   -0.2131   -0.6062 C   0  0  0  0  0  0  0  0  0  0  0  0
   -0.2802    2.9503    0.0490 H   0  0  0  0  0  0  0  0  0  0  0  0
    1.7637    1.5755    0.4620 H   0  0  0  0  0  0  0  0  0  0  0  0
    2.9913   -2.6421    0.4619 H   0  0  0  0  0  0  0  0  0  0  0  0
    1.7489   -2.7077   -0.8227 H   0  0  0  0  0  0  0  0  0  0  0  0
    1.2629   -2.8076    0.8957 H   0  0  0  0  0  0  0  0  0  0  0  0
   -0.5269   -2.0239   -0.4015 H   0  0  0  0  0  0  0  0  0  0  0  0
   -2.4628   -0.7738   -0.8353 H   0  0  0  0  0  0  0  0  0  0  0  0
   -2.9741   -2.8584   -0.0076 Cl  0  0  0  0  0  0  0  0  0  0  0  0
  1  4  1  0  0  0  0
  2  1  1  0  0  0  0
  3  2  1  0  0  0  0
  4 11  1  0  0  0  0
  4  5  2  0  0  0  0
  5 12  1  0  0  0  0
  6  5  1  0  0  0  0
  6  7  1  0  0  0  0
  8  7  1  0  0  0  0
  8 13  1  0  0  0  0
  8 15  1  0  0  0  0
  9  6  2  0  0  0  0
 10  1  2  0  0  0  0
 10  9  1  0  0  0  0
 14  8  1  0  0  0  0
 16  9  1  0  0  0  0
 17 10  1  0  0  0  0
M  RAD  3   2   2   3   3  18   2
M  END
