Coordinates from ORCA-job 4-MeOPhN2+~Cl-_B3LYPG-6-31G_dp-NX-Scan-d89-09-n800
 OpenBabel11261920533D

 18 17  0  0  0  0  0  0  0  0999 V2000
   -1.5806    1.0741   -0.4746 C   0  0  0  0  0  0  0  0  0  0  0  0
   -2.5597    1.8594   -0.9395 N   0  0  0  0  0  0  0  0  0  0  0  0
   -3.3109    2.6011   -1.3569 N   0  0  0  0  0  0  0  0  0  0  0  0
   -0.4582    1.7325    0.1385 C   0  0  0  0  0  0  0  0  0  0  0  0
    0.6639    1.0050    0.3835 C   0  0  0  0  0  0  0  0  0  0  0  0
    0.7232   -0.3811    0.0187 C   0  0  0  0  0  0  0  0  0  0  0  0
    1.9111   -0.9627    0.2726 O   0  0  0  0  0  0  0  0  0  0  0  0
    2.0424   -2.3694    0.0581 C   0  0  0  0  0  0  0  0  0  0  0  0
   -0.3714   -1.0212   -0.5338 C   0  0  0  0  0  0  0  0  0  0  0  0
   -1.5989   -0.3455   -0.6862 C   0  0  0  0  0  0  0  0  0  0  0  0
   -0.5198    2.7878    0.3789 H   0  0  0  0  0  0  0  0  0  0  0  0
    1.5359    1.4498    0.8493 H   0  0  0  0  0  0  0  0  0  0  0  0
    3.0510   -2.6242    0.3828 H   0  0  0  0  0  0  0  0  0  0  0  0
    1.9259   -2.6192   -1.0027 H   0  0  0  0  0  0  0  0  0  0  0  0
    1.3088   -2.9248    0.6510 H   0  0  0  0  0  0  0  0  0  0  0  0
   -0.3572   -2.0792   -0.7533 H   0  0  0  0  0  0  0  0  0  0  0  0
   -2.4072   -0.7909   -1.2457 H   0  0  0  0  0  0  0  0  0  0  0  0
   -2.7531   -1.7425    1.1483 Cl  0  0  0  0  0  0  0  0  0  0  0  0
  1  4  2  0  0  0  0
  2  1  1  0  0  0  0
  3  2  1  0  0  0  0
  4 11  1  0  0  0  0
  4  5  1  0  0  0  0
  5 12  1  0  0  0  0
  6  7  1  0  0  0  0
  6  5  2  0  0  0  0
  8  7  1  0  0  0  0
  8 13  1  0  0  0  0
  8 15  1  0  0  0  0
  9  6  1  0  0  0  0
 10  9  2  0  0  0  0
 10  1  1  0  0  0  0
 14  8  1  0  0  0  0
 16  9  1  0  0  0  0
 17 10  1  0  0  0  0
M  RAD  3   2   2   3   3  18   2
M  END
