Coordinates from ORCA-job 4-MeOPhN2+~Cl-_B3LYPG-6-31G_dp-NX-Scan-d89-09-n800
 OpenBabel11261920533D

 18 17  0  0  0  0  0  0  0  0999 V2000
   -1.4633    1.3104   -0.4986 C   0  0  0  0  0  0  0  0  0  0  0  0
   -2.5799    2.0463   -0.6302 N   0  0  0  0  0  0  0  0  0  0  0  0
   -3.5533    2.6039   -0.7525 N   0  0  0  0  0  0  0  0  0  0  0  0
   -0.2484    1.9293   -0.0826 C   0  0  0  0  0  0  0  0  0  0  0  0
    0.8416    1.1263    0.1303 C   0  0  0  0  0  0  0  0  0  0  0  0
    0.7428   -0.2850   -0.0492 C   0  0  0  0  0  0  0  0  0  0  0  0
    1.8199   -0.9856    0.2699 O   0  0  0  0  0  0  0  0  0  0  0  0
    1.7674   -2.4340    0.1827 C   0  0  0  0  0  0  0  0  0  0  0  0
   -0.4538   -0.8728   -0.5153 C   0  0  0  0  0  0  0  0  0  0  0  0
   -1.5614   -0.0902   -0.7179 C   0  0  0  0  0  0  0  0  0  0  0  0
   -0.2059    3.0008    0.0768 H   0  0  0  0  0  0  0  0  0  0  0  0
    1.7849    1.5410    0.4672 H   0  0  0  0  0  0  0  0  0  0  0  0
    2.6806   -2.7758    0.6675 H   0  0  0  0  0  0  0  0  0  0  0  0
    1.7629   -2.7369   -0.8679 H   0  0  0  0  0  0  0  0  0  0  0  0
    0.8739   -2.8281    0.6810 H   0  0  0  0  0  0  0  0  0  0  0  0
   -0.6218   -1.9597   -0.5539 H   0  0  0  0  0  0  0  0  0  0  0  0
   -2.5026   -0.5576   -0.9874 H   0  0  0  0  0  0  0  0  0  0  0  0
   -1.8383   -3.3835    0.4692 Cl  0  0  0  0  0  0  0  0  0  0  0  0
  1  4  2  0  0  0  0
  2  1  1  0  0  0  0
  3  2  1  0  0  0  0
  4 11  1  0  0  0  0
  4  5  1  0  0  0  0
  5 12  1  0  0  0  0
  6  5  2  0  0  0  0
  6  7  1  0  0  0  0
  8  7  1  0  0  0  0
  8 13  1  0  0  0  0
  8 15  1  0  0  0  0
  9  6  1  0  0  0  0
 10  9  2  0  0  0  0
 10  1  1  0  0  0  0
 14  8  1  0  0  0  0
 16  9  1  0  0  0  0
 17 10  1  0  0  0  0
M  RAD  3   2   2   3   3  18   2
M  END
