Coordinates from ORCA-job 4-MeOPhN2+~Cl-_B3LYPG-6-31G_dp-NX-Scan-d89-09-n800
 OpenBabel11261920533D

 18 17  0  0  0  0  0  0  0  0999 V2000
   -1.5850    1.0688   -0.4709 C   0  0  0  0  0  0  0  0  0  0  0  0
   -2.5559    1.8550   -0.9491 N   0  0  0  0  0  0  0  0  0  0  0  0
   -3.2984    2.5987   -1.3794 N   0  0  0  0  0  0  0  0  0  0  0  0
   -0.4640    1.7269    0.1462 C   0  0  0  0  0  0  0  0  0  0  0  0
    0.6576    1.0003    0.3932 C   0  0  0  0  0  0  0  0  0  0  0  0
    0.7196   -0.3854    0.0237 C   0  0  0  0  0  0  0  0  0  0  0  0
    1.9108   -0.9634    0.2731 O   0  0  0  0  0  0  0  0  0  0  0  0
    2.0478   -2.3677    0.0498 C   0  0  0  0  0  0  0  0  0  0  0  0
   -0.3729   -1.0261   -0.5291 C   0  0  0  0  0  0  0  0  0  0  0  0
   -1.6059   -0.3537   -0.6739 C   0  0  0  0  0  0  0  0  0  0  0  0
   -0.5265    2.7822    0.3865 H   0  0  0  0  0  0  0  0  0  0  0  0
    1.5285    1.4448    0.8612 H   0  0  0  0  0  0  0  0  0  0  0  0
    3.0585   -2.6202    0.3697 H   0  0  0  0  0  0  0  0  0  0  0  0
    1.9289   -2.6118   -1.0122 H   0  0  0  0  0  0  0  0  0  0  0  0
    1.3187   -2.9303    0.6416 H   0  0  0  0  0  0  0  0  0  0  0  0
   -0.3554   -2.0832   -0.7534 H   0  0  0  0  0  0  0  0  0  0  0  0
   -2.4064   -0.7945   -1.2483 H   0  0  0  0  0  0  0  0  0  0  0  0
   -2.7547   -1.6914    1.1605 Cl  0  0  0  0  0  0  0  0  0  0  0  0
  1  4  2  0  0  0  0
  2  1  1  0  0  0  0
  3  2  1  0  0  0  0
  4 11  1  0  0  0  0
  4  5  1  0  0  0  0
  5 12  1  0  0  0  0
  6  7  1  0  0  0  0
  6  5  2  0  0  0  0
  8  7  1  0  0  0  0
  8 13  1  0  0  0  0
  8 15  1  0  0  0  0
  9  6  1  0  0  0  0
 10  9  2  0  0  0  0
 10  1  1  0  0  0  0
 14  8  1  0  0  0  0
 16  9  1  0  0  0  0
 17 10  1  0  0  0  0
M  RAD  3   2   2   3   3  18   2
M  END
