Coordinates from ORCA-job 4-MeOPhN2+~Cl-_B3LYPG-6-31G_dp-NX-Scan-d89-09-n800
 OpenBabel11261920533D

 18 18  0  0  0  0  0  0  0  0999 V2000
   -1.5158    0.9560   -0.2703 C   0  0  0  0  0  0  0  0  0  0  0  0
   -2.6642    1.7484   -0.3897 N   0  0  0  0  0  0  0  0  0  0  0  0
   -3.8352    1.6519   -0.5792 N   0  0  0  0  0  0  0  0  0  0  0  0
   -0.3330    1.6759   -0.0065 C   0  0  0  0  0  0  0  0  0  0  0  0
    0.8711    1.0153    0.1349 C   0  0  0  0  0  0  0  0  0  0  0  0
    0.9186   -0.3865    0.0132 C   0  0  0  0  0  0  0  0  0  0  0  0
    2.1398   -0.9439    0.1691 O   0  0  0  0  0  0  0  0  0  0  0  0
    2.2699   -2.3595    0.0724 C   0  0  0  0  0  0  0  0  0  0  0  0
   -0.2579   -1.1070   -0.2533 C   0  0  0  0  0  0  0  0  0  0  0  0
   -1.4720   -0.4436   -0.3945 C   0  0  0  0  0  0  0  0  0  0  0  0
   -0.3912    2.7554    0.0845 H   0  0  0  0  0  0  0  0  0  0  0  0
    1.7914    1.5506    0.3403 H   0  0  0  0  0  0  0  0  0  0  0  0
    3.3255   -2.5724    0.2416 H   0  0  0  0  0  0  0  0  0  0  0  0
    1.9809   -2.7208   -0.9216 H   0  0  0  0  0  0  0  0  0  0  0  0
    1.6694   -2.8689    0.8350 H   0  0  0  0  0  0  0  0  0  0  0  0
   -0.2378   -2.1854   -0.3534 H   0  0  0  0  0  0  0  0  0  0  0  0
   -2.3775   -0.9965   -0.5992 H   0  0  0  0  0  0  0  0  0  0  0  0
   -4.6365   -0.1199   -0.8344 Cl  0  0  0  0  0  0  0  0  0  0  0  0
  1  4  1  0  0  0  0
  2  1  1  0  0  0  0
  3  2  2  0  0  0  0
  4 11  1  0  0  0  0
  4  5  2  0  0  0  0
  5 12  1  0  0  0  0
  6  5  1  0  0  0  0
  6  7  1  0  0  0  0
  8  7  1  0  0  0  0
  8 13  1  0  0  0  0
  8 15  1  0  0  0  0
  9  6  2  0  0  0  0
 10  1  2  0  0  0  0
 10  9  1  0  0  0  0
 14  8  1  0  0  0  0
 16  9  1  0  0  0  0
 17 10  1  0  0  0  0
 18  3  1  0  0  0  0
M  END
