Coordinates from ORCA-job 4-MeOPhN2+~Cl-_B3LYPG-6-31G_dp-NX-Scan-d89-09-n800
 OpenBabel11261920443D

 18 17  0  0  0  0  0  0  0  0999 V2000
   -1.4625   -0.0338   -0.0413 C   0  0  0  0  0  0  0  0  0  0  0  0
   -2.8247   -0.0675    0.0558 N   0  0  0  0  0  0  0  0  0  0  0  0
   -3.9403   -0.0917    0.1357 N   0  0  0  0  0  0  0  0  0  0  0  0
   -0.8078    1.2225   -0.0007 C   0  0  0  0  0  0  0  0  0  0  0  0
    0.5605    1.2372   -0.0989 C   0  0  0  0  0  0  0  0  0  0  0  0
    1.2874    0.0244   -0.2365 C   0  0  0  0  0  0  0  0  0  0  0  0
    2.6023    0.1620   -0.3211 O   0  0  0  0  0  0  0  0  0  0  0  0
    3.4551   -0.9909   -0.4614 C   0  0  0  0  0  0  0  0  0  0  0  0
    0.6082   -1.2192   -0.2750 C   0  0  0  0  0  0  0  0  0  0  0  0
   -0.7662   -1.2542   -0.1777 C   0  0  0  0  0  0  0  0  0  0  0  0
   -1.3790    2.1404    0.1057 H   0  0  0  0  0  0  0  0  0  0  0  0
    1.1137    2.1703   -0.0731 H   0  0  0  0  0  0  0  0  0  0  0  0
    4.4676   -0.5936   -0.5015 H   0  0  0  0  0  0  0  0  0  0  0  0
    3.2292   -1.5259   -1.3885 H   0  0  0  0  0  0  0  0  0  0  0  0
    3.3495   -1.6542    0.4021 H   0  0  0  0  0  0  0  0  0  0  0  0
    1.1535   -2.1502   -0.3803 H   0  0  0  0  0  0  0  0  0  0  0  0
   -1.3068   -2.1970   -0.2050 H   0  0  0  0  0  0  0  0  0  0  0  0
  -12.0945   -0.5296    0.7507 Cl  0  0  0  0  0  0  0  0  0  0  0  0
  1  4  1  0  0  0  0
  1  2  1  0  0  0  0
  2  3  1  0  0  0  0
  4 11  1  0  0  0  0
  5 12  1  0  0  0  0
  5  4  2  0  0  0  0
  6  5  1  0  0  0  0
  7  6  1  0  0  0  0
  8  7  1  0  0  0  0
  8 15  1  0  0  0  0
  9  6  2  0  0  0  0
  9 10  1  0  0  0  0
 10  1  2  0  0  0  0
 13  8  1  0  0  0  0
 14  8  1  0  0  0  0
 16  9  1  0  0  0  0
 17 10  1  0  0  0  0
M  RAD  3   2   2   3   3  18   2
M  END
