Coordinates from ORCA-job 4-MeOPhN2+~Cl-_B3LYPG-6-31G_dp-NX-Scan-d89-09-n800
 OpenBabel11261920533D

 18 18  0  0  1  0  0  0  0  0999 V2000
   -1.5361    1.0725   -0.5093 C   0  0  0  0  0  0  0  0  0  0  0  0
   -2.6366    1.7552   -0.7621 N   0  0  0  0  0  0  0  0  0  0  0  0
   -3.6229    2.2754   -0.9779 N   0  0  0  0  0  0  0  0  0  0  0  0
   -0.4089    1.7213    0.0960 C   0  0  0  0  0  0  0  0  0  0  0  0
    0.6955    0.9871    0.3801 C   0  0  0  0  0  0  0  0  0  0  0  0
    0.7304   -0.4207    0.0527 C   0  0  0  0  0  0  0  0  0  0  0  0
    1.9314   -0.9907    0.3075 O   0  0  0  0  0  0  0  0  0  0  0  0
    2.0773   -2.3883    0.0776 C   0  0  0  0  0  0  0  0  0  0  0  0
   -0.3480   -1.0642   -0.4920 C   0  0  0  0  0  0  0  0  0  0  0  0
   -1.6157   -0.3842   -0.6639 C   0  0  1  0  0  0  0  0  0  0  0  0
   -0.4620    2.7819    0.3165 H   0  0  0  0  0  0  0  0  0  0  0  0
    1.5747    1.4270    0.8353 H   0  0  0  0  0  0  0  0  0  0  0  0
    3.0904   -2.6394    0.3923 H   0  0  0  0  0  0  0  0  0  0  0  0
    1.9546   -2.6310   -0.9849 H   0  0  0  0  0  0  0  0  0  0  0  0
    1.3543   -2.9633    0.6669 H   0  0  0  0  0  0  0  0  0  0  0  0
   -0.3129   -2.1135   -0.7512 H   0  0  0  0  0  0  0  0  0  0  0  0
   -2.2312   -0.7331   -1.4861 H   0  0  0  0  0  0  0  0  0  0  0  0
   -2.9888   -1.0428    0.7916 Cl  0  0  0  0  0  0  0  0  0  0  0  0
  1  4  2  0  0  0  0
  2  1  1  0  0  0  0
  3  2  1  0  0  0  0
  4 11  1  0  0  0  0
  4  5  1  0  0  0  0
  5 12  1  0  0  0  0
  6  7  1  0  0  0  0
  6  5  1  0  0  0  0
  8  7  1  0  0  0  0
  8 13  1  0  0  0  0
  8 15  1  0  0  0  0
  9  6  2  0  0  0  0
 10 17  1  6  0  0  0
 10  1  1  0  0  0  0
 10  9  1  0  0  0  0
 10 18  1  0  0  0  0
 14  8  1  0  0  0  0
 16  9  1  0  0  0  0
M  RAD  3   2   2   3   3   5   2
M  END
