Coordinates from ORCA-job 4-MeOPhN2+~Cl-_B3LYPG-6-31G_dp-NX-Scan-d89-09-n800
 OpenBabel11261920533D

 18 17  0  0  0  0  0  0  0  0999 V2000
   -1.4827    1.2109   -0.4551 C   0  0  0  0  0  0  0  0  0  0  0  0
   -2.5820    1.9538   -0.6986 N   0  0  0  0  0  0  0  0  0  0  0  0
   -3.4933    2.5891   -0.8923 N   0  0  0  0  0  0  0  0  0  0  0  0
   -0.2765    1.8841   -0.0922 C   0  0  0  0  0  0  0  0  0  0  0  0
    0.8389    1.1242    0.1352 C   0  0  0  0  0  0  0  0  0  0  0  0
    0.7827   -0.2954    0.0151 C   0  0  0  0  0  0  0  0  0  0  0  0
    1.9308   -0.9305    0.2622 O   0  0  0  0  0  0  0  0  0  0  0  0
    1.9543   -2.3674    0.2013 C   0  0  0  0  0  0  0  0  0  0  0  0
   -0.4180   -0.9378   -0.3270 C   0  0  0  0  0  0  0  0  0  0  0  0
   -1.5615   -0.2009   -0.5698 C   0  0  0  0  0  0  0  0  0  0  0  0
   -0.2587    2.9638    0.0080 H   0  0  0  0  0  0  0  0  0  0  0  0
    1.7802    1.5815    0.4186 H   0  0  0  0  0  0  0  0  0  0  0  0
    2.9728   -2.6499    0.4639 H   0  0  0  0  0  0  0  0  0  0  0  0
    1.7167   -2.7160   -0.8081 H   0  0  0  0  0  0  0  0  0  0  0  0
    1.2467   -2.7985    0.9148 H   0  0  0  0  0  0  0  0  0  0  0  0
   -0.5577   -2.0167   -0.3637 H   0  0  0  0  0  0  0  0  0  0  0  0
   -2.4754   -0.7634   -0.7857 H   0  0  0  0  0  0  0  0  0  0  0  0
   -2.8719   -2.9818   -0.1376 Cl  0  0  0  0  0  0  0  0  0  0  0  0
  1  4  1  0  0  0  0
  2  1  1  0  0  0  0
  3  2  1  0  0  0  0
  4 11  1  0  0  0  0
  4  5  2  0  0  0  0
  5 12  1  0  0  0  0
  6  5  1  0  0  0  0
  6  7  1  0  0  0  0
  8  7  1  0  0  0  0
  8 13  1  0  0  0  0
  8 15  1  0  0  0  0
  9  6  2  0  0  0  0
 10  1  2  0  0  0  0
 10  9  1  0  0  0  0
 14  8  1  0  0  0  0
 16  9  1  0  0  0  0
 17 10  1  0  0  0  0
M  RAD  3   2   2   3   3  18   2
M  END
