Coordinates from ORCA-job 4-MeOPhN2+~Cl-_B3LYPG-6-31G_dp-NX-Scan-d89-09-n800
 OpenBabel11261920533D

 18 18  0  0  1  0  0  0  0  0999 V2000
   -1.5503    1.0639   -0.4961 C   0  0  0  0  0  0  0  0  0  0  0  0
   -2.6212    1.7678   -0.8104 N   0  0  0  0  0  0  0  0  0  0  0  0
   -3.5623    2.3406   -1.0909 N   0  0  0  0  0  0  0  0  0  0  0  0
   -0.4253    1.7137    0.1159 C   0  0  0  0  0  0  0  0  0  0  0  0
    0.6799    0.9811    0.3993 C   0  0  0  0  0  0  0  0  0  0  0  0
    0.7226   -0.4236    0.0591 C   0  0  0  0  0  0  0  0  0  0  0  0
    1.9287   -0.9882    0.3035 O   0  0  0  0  0  0  0  0  0  0  0  0
    2.0821   -2.3823    0.0589 C   0  0  0  0  0  0  0  0  0  0  0  0
   -0.3549   -1.0682   -0.4843 C   0  0  0  0  0  0  0  0  0  0  0  0
   -1.6303   -0.3945   -0.6348 C   0  0  1  0  0  0  0  0  0  0  0  0
   -0.4796    2.7743    0.3360 H   0  0  0  0  0  0  0  0  0  0  0  0
    1.5568    1.4217    0.8586 H   0  0  0  0  0  0  0  0  0  0  0  0
    3.0988   -2.6301    0.3648 H   0  0  0  0  0  0  0  0  0  0  0  0
    1.9541   -2.6153   -1.0052 H   0  0  0  0  0  0  0  0  0  0  0  0
    1.3666   -2.9679    0.6470 H   0  0  0  0  0  0  0  0  0  0  0  0
   -0.3185   -2.1169   -0.7460 H   0  0  0  0  0  0  0  0  0  0  0  0
   -2.2588   -0.7488   -1.4446 H   0  0  0  0  0  0  0  0  0  0  0  0
   -2.9429   -1.0783    0.8582 Cl  0  0  0  0  0  0  0  0  0  0  0  0
  1  4  2  0  0  0  0
  2  1  1  0  0  0  0
  3  2  1  0  0  0  0
  4 11  1  0  0  0  0
  4  5  1  0  0  0  0
  5 12  1  0  0  0  0
  6  7  1  0  0  0  0
  6  5  1  0  0  0  0
  8  7  1  0  0  0  0
  8 13  1  0  0  0  0
  8 15  1  0  0  0  0
  9  6  2  0  0  0  0
 10 17  1  6  0  0  0
 10  1  1  0  0  0  0
 10  9  1  0  0  0  0
 10 18  1  0  0  0  0
 14  8  1  0  0  0  0
 16  9  1  0  0  0  0
M  RAD  3   2   2   3   3   5   2
M  END
