Coordinates from ORCA-job 4-MeOPhN2+~Cl-_B3LYPG-6-31G_dp-NX-Scan-d89-09-n800
 OpenBabel11261920533D

 18 17  0  0  0  0  0  0  0  0999 V2000
   -1.5367    1.1238   -0.4975 C   0  0  0  0  0  0  0  0  0  0  0  0
   -2.5826    1.8901   -0.8469 N   0  0  0  0  0  0  0  0  0  0  0  0
   -3.4152    2.5936   -1.1501 N   0  0  0  0  0  0  0  0  0  0  0  0
   -0.3937    1.7885    0.0599 C   0  0  0  0  0  0  0  0  0  0  0  0
    0.7287    1.0519    0.2950 C   0  0  0  0  0  0  0  0  0  0  0  0
    0.7547   -0.3451   -0.0087 C   0  0  0  0  0  0  0  0  0  0  0  0
    1.9191   -0.9533    0.2699 O   0  0  0  0  0  0  0  0  0  0  0  0
    2.0030   -2.3758    0.1249 C   0  0  0  0  0  0  0  0  0  0  0  0
   -0.3667   -0.9836   -0.5311 C   0  0  0  0  0  0  0  0  0  0  0  0
   -1.5532   -0.2809   -0.7408 C   0  0  0  0  0  0  0  0  0  0  0  0
   -0.4389    2.8482    0.2830 H   0  0  0  0  0  0  0  0  0  0  0  0
    1.6174    1.5006    0.7241 H   0  0  0  0  0  0  0  0  0  0  0  0
    3.0003   -2.6463    0.4703 H   0  0  0  0  0  0  0  0  0  0  0  0
    1.8853   -2.6706   -0.9236 H   0  0  0  0  0  0  0  0  0  0  0  0
    1.2456   -2.8743    0.7374 H   0  0  0  0  0  0  0  0  0  0  0  0
   -0.3927   -2.0513   -0.6955 H   0  0  0  0  0  0  0  0  0  0  0  0
   -2.4158   -0.7661   -1.1729 H   0  0  0  0  0  0  0  0  0  0  0  0
   -2.8134   -2.2005    0.8917 Cl  0  0  0  0  0  0  0  0  0  0  0  0
  1  4  2  0  0  0  0
  2  1  1  0  0  0  0
  3  2  1  0  0  0  0
  4 11  1  0  0  0  0
  4  5  1  0  0  0  0
  5 12  1  0  0  0  0
  6  7  1  0  0  0  0
  6  5  2  0  0  0  0
  8  7  1  0  0  0  0
  8 13  1  0  0  0  0
  8 15  1  0  0  0  0
  9  6  1  0  0  0  0
 10  9  2  0  0  0  0
 10  1  1  0  0  0  0
 14  8  1  0  0  0  0
 16  9  1  0  0  0  0
 17 10  1  0  0  0  0
M  RAD  3   2   2   3   3  18   2
M  END
