Coordinates from ORCA-job 4-MeOPhN2+~Cl-_B3LYPG-6-31G_dp-NX-Scan-d89-09-n800
 OpenBabel11261920533D

 18 17  0  0  0  0  0  0  0  0999 V2000
   -1.4926    1.1694   -0.4940 C   0  0  0  0  0  0  0  0  0  0  0  0
   -2.5869    1.9063   -0.7627 N   0  0  0  0  0  0  0  0  0  0  0  0
   -3.4926    2.5444   -0.9783 N   0  0  0  0  0  0  0  0  0  0  0  0
   -0.3216    1.8433   -0.0237 C   0  0  0  0  0  0  0  0  0  0  0  0
    0.7974    1.0949    0.2095 C   0  0  0  0  0  0  0  0  0  0  0  0
    0.7819   -0.3168   -0.0025 C   0  0  0  0  0  0  0  0  0  0  0  0
    1.9365   -0.9375    0.2715 O   0  0  0  0  0  0  0  0  0  0  0  0
    1.9925   -2.3678    0.1698 C   0  0  0  0  0  0  0  0  0  0  0  0
   -0.3786   -0.9607   -0.4446 C   0  0  0  0  0  0  0  0  0  0  0  0
   -1.5347   -0.2361   -0.6953 C   0  0  0  0  0  0  0  0  0  0  0  0
   -0.3386    2.9132    0.1505 H   0  0  0  0  0  0  0  0  0  0  0  0
    1.7112    1.5498    0.5746 H   0  0  0  0  0  0  0  0  0  0  0  0
    3.0011   -2.6412    0.4773 H   0  0  0  0  0  0  0  0  0  0  0  0
    1.8184   -2.6921   -0.8613 H   0  0  0  0  0  0  0  0  0  0  0  0
    1.2579   -2.8343    0.8326 H   0  0  0  0  0  0  0  0  0  0  0  0
   -0.4637   -2.0371   -0.5288 H   0  0  0  0  0  0  0  0  0  0  0  0
   -2.4368   -0.7678   -0.9890 H   0  0  0  0  0  0  0  0  0  0  0  0
   -3.0055   -2.5810    0.3834 Cl  0  0  0  0  0  0  0  0  0  0  0  0
  1  4  1  0  0  0  0
  2  1  1  0  0  0  0
  3  2  1  0  0  0  0
  4 11  1  0  0  0  0
  4  5  2  0  0  0  0
  5 12  1  0  0  0  0
  6  5  1  0  0  0  0
  6  7  1  0  0  0  0
  8  7  1  0  0  0  0
  8 13  1  0  0  0  0
  8 15  1  0  0  0  0
  9  6  2  0  0  0  0
 10  1  2  0  0  0  0
 10  9  1  0  0  0  0
 14  8  1  0  0  0  0
 16  9  1  0  0  0  0
 17 10  1  0  0  0  0
M  RAD  3   2   2   3   3  18   2
M  END
