Coordinates from ORCA-job 4-MeOPhN2+~Cl-_B3LYPG-6-31G_dp-NX-Scan-d89-09-n800
 OpenBabel11261920533D

 18 18  0  0  0  0  0  0  0  0999 V2000
   -1.5292    0.9460   -0.3634 C   0  0  0  0  0  0  0  0  0  0  0  0
   -2.6507    1.7738   -0.5583 N   0  0  0  0  0  0  0  0  0  0  0  0
   -3.8555    1.6022   -0.5834 N   0  0  0  0  0  0  0  0  0  0  0  0
   -0.3574    1.6602   -0.0359 C   0  0  0  0  0  0  0  0  0  0  0  0
    0.8404    1.0046    0.1729 C   0  0  0  0  0  0  0  0  0  0  0  0
    0.9077   -0.3922    0.0221 C   0  0  0  0  0  0  0  0  0  0  0  0
    2.1231   -0.9480    0.2393 O   0  0  0  0  0  0  0  0  0  0  0  0
    2.2652   -2.3586    0.1128 C   0  0  0  0  0  0  0  0  0  0  0  0
   -0.2429   -1.1090   -0.3420 C   0  0  0  0  0  0  0  0  0  0  0  0
   -1.4552   -0.4493   -0.5257 C   0  0  0  0  0  0  0  0  0  0  0  0
   -0.4249    2.7390    0.0571 H   0  0  0  0  0  0  0  0  0  0  0  0
    1.7427    1.5431    0.4412 H   0  0  0  0  0  0  0  0  0  0  0  0
    3.3086   -2.5747    0.3435 H   0  0  0  0  0  0  0  0  0  0  0  0
    2.0421   -2.6944   -0.9071 H   0  0  0  0  0  0  0  0  0  0  0  0
    1.6189   -2.8913    0.8203 H   0  0  0  0  0  0  0  0  0  0  0  0
   -0.2064   -2.1822   -0.4844 H   0  0  0  0  0  0  0  0  0  0  0  0
   -2.3272   -1.0182   -0.8104 H   0  0  0  0  0  0  0  0  0  0  0  0
   -4.5538   -0.0022   -0.3094 Cl  0  0  0  0  0  0  0  0  0  0  0  0
  1  4  1  0  0  0  0
  2  1  1  0  0  0  0
  3  2  2  0  0  0  0
  3 18  1  0  0  0  0
  4 11  1  0  0  0  0
  4  5  2  0  0  0  0
  5 12  1  0  0  0  0
  6  5  1  0  0  0  0
  6  7  1  0  0  0  0
  8  7  1  0  0  0  0
  8 13  1  0  0  0  0
  8 15  1  0  0  0  0
  9  6  2  0  0  0  0
 10  1  2  0  0  0  0
 10  9  1  0  0  0  0
 14  8  1  0  0  0  0
 16  9  1  0  0  0  0
 17 10  1  0  0  0  0
M  END
