19
Coordinates from ORCA-job PhN2+~HSO4-_B3LYPG-6-31G_dp-NX-Scan-d89-09-n800
  C   -1.65427010821430     -0.27744443668280      0.24607860288858
  N   -1.89136868041523     -0.38377341254301      1.54048101698773
  N   -2.22010843697270     -0.19801861654470      2.61068922629217
  C   -2.68122707731068     -0.73675659061820     -0.67068116021724
  C   -3.01035712648005      0.07672832716050     -1.69675302767286
  C   -2.48073590664479      1.46055278827401     -1.70485140145400
  C   -1.10674139146690      1.57532079556387     -1.17788704080086
  C   -0.74057925740526      0.77837918052170     -0.15244876936996
  H   -3.16478741796212     -1.69408321518598     -0.50440465685846
  H   -3.74394769899199     -0.21572738573658     -2.44000949524565
  H   -2.64740461196962      2.00074538216204     -2.63308803802314
  H   -0.46455559151315      2.37456567007437     -1.52789758091303
  H   0.18093633549974      0.92787860208350      0.40042611930275
  S   -3.29251638739928      3.02284827363443      0.59138382613612
  O   -2.03832555227935      3.75443460202097      0.56664465712015
  O   -3.07596559493005      1.77839964368000      1.69127790574565
  O   -4.54508291975857      3.66377268470431      0.96512427353589
  O   -3.56152579887981      2.26831627363137     -0.77926507026187
  H   -3.88253677690587      1.78616143380025      2.23268061280803
