19
Coordinates from ORCA-job PhN2+~HSO4-_B3LYPG-6-31G_dp-NX-Scan-d89-09-n800
  C   -1.46062114390629     -1.03622215953817      0.17534889291666
  N   -1.10952932094477     -2.26068366323339      0.50160699268494
  N   -0.80794563002651     -3.32532056438483      0.78649598074889
  C   -2.48145940841239     -0.81625497334864     -0.82783021815253
  C   -2.83544598314690      0.43824507217759     -1.16618509741796
  C   -2.26373113185482      1.64094789869555     -0.49539054243024
  C   -1.15215545470983      1.34830283570465      0.45252596112669
  C   -0.79710536161256      0.09294392392378      0.78930803217372
  H   -2.93223583664641     -1.67731722896360     -1.31045891915263
  H   -3.58498367831681      0.61527620745599     -1.92970861859230
  H   -1.99738541917304      2.42295330517229     -1.21207234134883
  H   -0.64151356657161      2.19675024613038      0.89518107861716
  H   0.00300747850920     -0.09427992023032      1.49891823308359
  S   -4.25377093779186      3.43841185947266     -0.29400712850115
  O   -4.45370605712038      3.18313120144665     -1.70807663267788
  O   -3.22875651897026      4.71509456701868     -0.23999397437367
  O   -5.34295320529030      3.69523692993898      0.62926482726314
  O   -3.37062492925957      2.27340976783000      0.36891568268645
  H   -3.31018389475481      5.11167469473177      0.64365779134599
