19
Coordinates from ORCA-job PhN2+~HSO4-_B3LYPG-6-31G_dp-NX-Scan-d89-09-n800
  C   -2.40926449583852      0.33278632576430     -0.31666186319224
  N   -2.92028987367444      0.23089907520512      0.97204727211236
  N   -3.30297763574766     -0.00604312729995      1.99513186070845
  C   -2.67648975495600     -0.74129412180076     -1.18363071644031
  C   -2.15605751377983     -0.67260968453800     -2.46851385665438
  C   -1.38417947053543      0.43200490751554     -2.85214785527143
  C   -1.12771701446974      1.47763467920409     -1.95967503259481
  C   -1.64546446139983      1.45449111083820     -0.66835526570488
  H   -3.27705826566670     -1.58147687010373     -0.85369663336143
  H   -2.35092486473543     -1.47715512946623     -3.16942258721883
  H   -0.98078584385510      0.47561648572626     -3.85899361770850
  H   -0.53011138043415      2.32708196647094     -2.27261378447973
  H   -1.48883950074521      2.24278554408188      0.06674085612111
  S   -3.26461535970898      3.18749822627072      1.96133886397336
  O   -1.78835778695473      2.99861812794288      1.93265984362294
  O   -3.76576209669782      1.99324960399027      3.08109161080268
  O   -3.73984038785198      4.45915913582213      2.50080690306860
  O   -3.93624443094043      2.66408950037720      0.74937289868488
  H   -3.27611986200797      2.16496424399916      3.90202110353214
