Coordinates from ORCA-job 4-NO2PhN2+~BF4-_B3LYPG-6-31G_dp-NX-Scan-d89-09-n800
 OpenBabel11261920313D

 20 19  0  0  0  0  0  0  0  0999 V2000
   -1.5993   -1.3781    0.1766 C   0  0  0  0  0  0  0  0  0  0  0  0
   -1.9788   -2.6845    0.2867 N   0  0  0  0  0  0  0  0  0  0  0  0
   -2.2610   -3.7649    0.3874 N   0  0  0  0  0  0  0  0  0  0  0  0
   -2.3716   -0.3748    0.8194 C   0  0  0  0  0  0  0  0  0  0  0  0
   -1.9206    0.9308    0.7614 C   0  0  0  0  0  0  0  0  0  0  0  0
   -0.7372    1.1890    0.0587 C   0  0  0  0  0  0  0  0  0  0  0  0
   -0.1405    2.5455    0.1180 N   0  0  0  0  0  0  0  0  0  0  0  0
   -0.3672    3.1837    1.1326 O   0  0  0  0  0  0  0  0  0  0  0  0
    0.5941    2.8600   -0.8096 O   0  0  0  0  0  0  0  0  0  0  0  0
   -0.0044    0.2099   -0.6208 C   0  0  0  0  0  0  0  0  0  0  0  0
   -0.4240   -1.1052   -0.5631 C   0  0  0  0  0  0  0  0  0  0  0  0
   -3.2927   -0.6295    1.3312 H   0  0  0  0  0  0  0  0  0  0  0  0
   -2.4944    1.7696    1.1712 H   0  0  0  0  0  0  0  0  0  0  0  0
    0.8811    0.4994   -1.1734 H   0  0  0  0  0  0  0  0  0  0  0  0
    0.1245   -1.9035   -1.0493 H   0  0  0  0  0  0  0  0  0  0  0  0
   -3.6144    3.3484   -0.5575 B   0  0  0  0  0  0  0  0  0  0  0  0
   -3.8198    4.6632   -0.9169 F   0  0  0  0  0  0  0  0  0  0  0  0
   -4.6104    2.4904   -1.0102 F   0  0  0  0  0  0  0  0  0  0  0  0
   -2.3513    2.8853   -1.0860 F   0  0  0  0  0  0  0  0  0  0  0  0
   -3.5185    3.2316    0.8696 F   0  0  0  0  0  0  0  0  0  0  0  0
  1  2  1  0  0  0  0
  1  4  2  0  0  0  0
  2  3  1  0  0  0  0
  4 12  1  0  0  0  0
  5  4  1  0  0  0  0
  5 13  1  0  0  0  0
  6  7  1  0  0  0  0
  6  5  2  0  0  0  0
  7  8  2  0  0  0  0
  9  7  2  0  0  0  0
 10 11  2  0  0  0  0
 10  6  1  0  0  0  0
 11  1  1  0  0  0  0
 14 10  1  0  0  0  0
 15 11  1  0  0  0  0
 16 20  1  0  0  0  0
 17 16  1  0  0  0  0
 18 16  1  0  0  0  0
 19 16  1  0  0  0  0
M  RAD  2   2   2   3   3
M  END
