Coordinates from ORCA-job 4-NO2PhN2+~BF4-_B3LYPG-6-31G_dp-NX-Scan-d89-09-n800
 OpenBabel11261920323D

 20 19  0  0  0  0  0  0  0  0999 V2000
   -2.0034   -0.3929    0.0727 C   0  0  0  0  0  0  0  0  0  0  0  0
   -2.9363   -1.3840   -0.1564 N   0  0  0  0  0  0  0  0  0  0  0  0
   -3.6019   -2.2715   -0.2503 N   0  0  0  0  0  0  0  0  0  0  0  0
   -2.1516    0.3885    1.2279 C   0  0  0  0  0  0  0  0  0  0  0  0
   -1.1798    1.3492    1.4685 C   0  0  0  0  0  0  0  0  0  0  0  0
   -0.1444    1.5006    0.5514 C   0  0  0  0  0  0  0  0  0  0  0  0
    0.8895    2.5293    0.8229 N   0  0  0  0  0  0  0  0  0  0  0  0
    0.7770    3.1739    1.8600 O   0  0  0  0  0  0  0  0  0  0  0  0
    1.7868    2.6498   -0.0047 O   0  0  0  0  0  0  0  0  0  0  0  0
   -0.0311    0.7477   -0.6175 C   0  0  0  0  0  0  0  0  0  0  0  0
   -0.9861   -0.2188   -0.8789 C   0  0  0  0  0  0  0  0  0  0  0  0
   -3.0106    0.2660    1.8718 H   0  0  0  0  0  0  0  0  0  0  0  0
   -1.2267    1.9912    2.3385 H   0  0  0  0  0  0  0  0  0  0  0  0
    0.7825    0.9418   -1.3040 H   0  0  0  0  0  0  0  0  0  0  0  0
   -0.9747   -0.8045   -1.7891 H   0  0  0  0  0  0  0  0  0  0  0  0
   -4.0022    1.5363   -1.1930 B   0  0  0  0  0  0  0  0  0  0  0  0
   -4.8774    2.3384   -1.8864 F   0  0  0  0  0  0  0  0  0  0  0  0
   -3.7929    0.2711   -1.8553 F   0  0  0  0  0  0  0  0  0  0  0  0
   -2.7395    2.1484   -1.0568 F   0  0  0  0  0  0  0  0  0  0  0  0
   -4.4839    1.2056    0.1048 F   0  0  0  0  0  0  0  0  0  0  0  0
  1  4  2  0  0  0  0
  2  1  1  0  0  0  0
  3  2  1  0  0  0  0
  4  5  1  0  0  0  0
  4 12  1  0  0  0  0
  5 13  1  0  0  0  0
  6  7  1  0  0  0  0
  6  5  2  0  0  0  0
  7  8  2  0  0  0  0
  9  7  2  0  0  0  0
 10  6  1  0  0  0  0
 11 10  2  0  0  0  0
 11  1  1  0  0  0  0
 14 10  1  0  0  0  0
 15 11  1  0  0  0  0
 16 19  1  0  0  0  0
 16 20  1  0  0  0  0
 17 16  1  0  0  0  0
 18 16  1  0  0  0  0
M  RAD  2   2   2   3   3
M  END
