Coordinates from ORCA-job 4-NO2PhN2+~BF4-_B3LYPG-6-31G_dp-NX-Scan-d89-09-n800
 OpenBabel11261920323D

 20 19  0  0  0  0  0  0  0  0999 V2000
   -2.1295    0.1957    0.3557 C   0  0  0  0  0  0  0  0  0  0  0  0
   -3.2993   -0.5241    0.1047 N   0  0  0  0  0  0  0  0  0  0  0  0
   -4.1770   -1.2030    0.0703 N   0  0  0  0  0  0  0  0  0  0  0  0
   -1.7736    0.3308    1.7074 C   0  0  0  0  0  0  0  0  0  0  0  0
   -0.5959    1.0055    1.9954 C   0  0  0  0  0  0  0  0  0  0  0  0
    0.1649    1.5000    0.9357 C   0  0  0  0  0  0  0  0  0  0  0  0
    1.4279    2.2122    1.2556 N   0  0  0  0  0  0  0  0  0  0  0  0
    1.7183    2.3238    2.4427 O   0  0  0  0  0  0  0  0  0  0  0  0
    2.0865    2.6308    0.3110 O   0  0  0  0  0  0  0  0  0  0  0  0
   -0.1996    1.3579   -0.4015 C   0  0  0  0  0  0  0  0  0  0  0  0
   -1.3808    0.6957   -0.7167 C   0  0  0  0  0  0  0  0  0  0  0  0
   -2.4014   -0.0707    2.4940 H   0  0  0  0  0  0  0  0  0  0  0  0
   -0.2597    1.1526    3.0137 H   0  0  0  0  0  0  0  0  0  0  0  0
    0.4328    1.7719   -1.1764 H   0  0  0  0  0  0  0  0  0  0  0  0
   -1.7519    0.5466   -1.7264 H   0  0  0  0  0  0  0  0  0  0  0  0
   -4.3902    0.8288   -2.3048 B   0  0  0  0  0  0  0  0  0  0  0  0
   -5.6190    0.2050   -2.1691 F   0  0  0  0  0  0  0  0  0  0  0  0
   -3.3745   -0.1928   -2.4625 F   0  0  0  0  0  0  0  0  0  0  0  0
   -4.3238    1.7224   -3.3415 F   0  0  0  0  0  0  0  0  0  0  0  0
   -4.0607    1.4772   -1.0614 F   0  0  0  0  0  0  0  0  0  0  0  0
  1  4  2  0  0  0  0
  2  1  1  0  0  0  0
  3  2  1  0  0  0  0
  4  5  1  0  0  0  0
  4 12  1  0  0  0  0
  5 13  1  0  0  0  0
  6  7  1  0  0  0  0
  6  5  2  0  0  0  0
  7  8  2  0  0  0  0
  9  7  2  0  0  0  0
 10  6  1  0  0  0  0
 11 10  2  0  0  0  0
 11  1  1  0  0  0  0
 14 10  1  0  0  0  0
 15 11  1  0  0  0  0
 16 17  1  0  0  0  0
 16 20  1  0  0  0  0
 18 16  1  0  0  0  0
 19 16  1  0  0  0  0
M  RAD  2   2   2   3   3
M  END
