Coordinates from ORCA-job 4-NO2PhN2+~BF4-_B3LYPG-6-31G_dp-NX-Scan-d89-09-n800
 OpenBabel11261920323D

 20 19  0  0  0  0  0  0  0  0999 V2000
   -2.1340    0.0222    0.3612 C   0  0  0  0  0  0  0  0  0  0  0  0
   -3.2396   -0.8021    0.1768 N   0  0  0  0  0  0  0  0  0  0  0  0
   -4.0724   -1.5337    0.1373 N   0  0  0  0  0  0  0  0  0  0  0  0
   -1.7941    0.3137    1.6943 C   0  0  0  0  0  0  0  0  0  0  0  0
   -0.6664    1.0881    1.9126 C   0  0  0  0  0  0  0  0  0  0  0  0
    0.0669    1.5251    0.8068 C   0  0  0  0  0  0  0  0  0  0  0  0
    1.2807    2.3440    1.0542 N   0  0  0  0  0  0  0  0  0  0  0  0
    1.5505    2.5991    2.2240 O   0  0  0  0  0  0  0  0  0  0  0  0
    1.9242    2.6986    0.0739 O   0  0  0  0  0  0  0  0  0  0  0  0
   -0.2818    1.2340   -0.5079 C   0  0  0  0  0  0  0  0  0  0  0  0
   -1.4143    0.4644   -0.7563 C   0  0  0  0  0  0  0  0  0  0  0  0
   -2.3999   -0.0490    2.5161 H   0  0  0  0  0  0  0  0  0  0  0  0
   -0.3456    1.3572    2.9104 H   0  0  0  0  0  0  0  0  0  0  0  0
    0.3184    1.6183   -1.3225 H   0  0  0  0  0  0  0  0  0  0  0  0
   -1.7755    0.2338   -1.7503 H   0  0  0  0  0  0  0  0  0  0  0  0
   -4.2147    1.0018   -2.0704 B   0  0  0  0  0  0  0  0  0  0  0  0
   -5.3241    1.1808   -2.8473 F   0  0  0  0  0  0  0  0  0  0  0  0
   -3.6677   -0.3262   -2.2597 F   0  0  0  0  0  0  0  0  0  0  0  0
   -3.1861    1.9102   -2.3480 F   0  0  0  0  0  0  0  0  0  0  0  0
   -4.5312    1.0857   -0.6792 F   0  0  0  0  0  0  0  0  0  0  0  0
  1  4  2  0  0  0  0
  2  1  1  0  0  0  0
  3  2  1  0  0  0  0
  4  5  1  0  0  0  0
  4 12  1  0  0  0  0
  5 13  1  0  0  0  0
  6  7  1  0  0  0  0
  6  5  2  0  0  0  0
  7  8  2  0  0  0  0
  9  7  2  0  0  0  0
 10  6  1  0  0  0  0
 11 10  2  0  0  0  0
 11  1  1  0  0  0  0
 14 10  1  0  0  0  0
 15 11  1  0  0  0  0
 16 20  1  0  0  0  0
 17 16  1  0  0  0  0
 18 16  1  0  0  0  0
 19 16  1  0  0  0  0
M  RAD  2   2   2   3   3
M  END
