Coordinates from ORCA-job 4-NO2PhN2+~BF4-_B3LYPG-6-31G_dp-NX-Scan-d89-09-n800
 OpenBabel11261920323D

 20 19  0  0  0  0  0  0  0  0999 V2000
   -1.9441   -0.4769   -0.0099 C   0  0  0  0  0  0  0  0  0  0  0  0
   -2.8322   -1.4921   -0.2850 N   0  0  0  0  0  0  0  0  0  0  0  0
   -3.4689   -2.3877   -0.4671 N   0  0  0  0  0  0  0  0  0  0  0  0
   -2.2008    0.3418    1.1001 C   0  0  0  0  0  0  0  0  0  0  0  0
   -1.2763    1.3430    1.3723 C   0  0  0  0  0  0  0  0  0  0  0  0
   -0.1819    1.4923    0.5302 C   0  0  0  0  0  0  0  0  0  0  0  0
    0.7970    2.5658    0.8329 N   0  0  0  0  0  0  0  0  0  0  0  0
    0.5902    3.2452    1.8321 O   0  0  0  0  0  0  0  0  0  0  0  0
    1.7476    2.6853    0.0664 O   0  0  0  0  0  0  0  0  0  0  0  0
    0.0488    0.6923   -0.5921 C   0  0  0  0  0  0  0  0  0  0  0  0
   -0.8503   -0.3160   -0.8810 C   0  0  0  0  0  0  0  0  0  0  0  0
   -3.0964    0.2166    1.6903 H   0  0  0  0  0  0  0  0  0  0  0  0
   -1.4138    2.0191    2.2056 H   0  0  0  0  0  0  0  0  0  0  0  0
    0.9120    0.8801   -1.2168 H   0  0  0  0  0  0  0  0  0  0  0  0
   -0.7343   -0.9528   -1.7494 H   0  0  0  0  0  0  0  0  0  0  0  0
   -4.0178    1.6552   -1.0400 B   0  0  0  0  0  0  0  0  0  0  0  0
   -4.9010    2.4423   -1.7368 F   0  0  0  0  0  0  0  0  0  0  0  0
   -4.2425    0.2560   -1.3028 F   0  0  0  0  0  0  0  0  0  0  0  0
   -2.6790    1.9307   -1.3866 F   0  0  0  0  0  0  0  0  0  0  0  0
   -4.1626    1.8257    0.3636 F   0  0  0  0  0  0  0  0  0  0  0  0
  1  4  2  0  0  0  0
  2  1  1  0  0  0  0
  3  2  1  0  0  0  0
  4  5  1  0  0  0  0
  4 12  1  0  0  0  0
  5 13  1  0  0  0  0
  6  7  1  0  0  0  0
  6  5  2  0  0  0  0
  7  8  2  0  0  0  0
  9  7  2  0  0  0  0
 10  6  1  0  0  0  0
 11 10  2  0  0  0  0
 11  1  1  0  0  0  0
 14 10  1  0  0  0  0
 15 11  1  0  0  0  0
 16 20  1  0  0  0  0
 17 16  1  0  0  0  0
 18 16  1  0  0  0  0
 19 16  1  0  0  0  0
M  RAD  2   2   2   3   3
M  END
