Coordinates from ORCA-job 4-NO2PhN2+~BF4-_B3LYPG-6-31G_dp-NX-Scan-d89-09-n800
 OpenBabel11261920323D

 20 19  0  0  0  0  0  0  0  0999 V2000
   -1.9191   -0.8936    0.1351 C   0  0  0  0  0  0  0  0  0  0  0  0
   -2.6344   -2.0406    0.0003 N   0  0  0  0  0  0  0  0  0  0  0  0
   -3.2037   -3.0001   -0.1012 N   0  0  0  0  0  0  0  0  0  0  0  0
   -2.2323   -0.0365    1.2114 C   0  0  0  0  0  0  0  0  0  0  0  0
   -1.5041    1.1309    1.3303 C   0  0  0  0  0  0  0  0  0  0  0  0
   -0.5499    1.4224    0.3583 C   0  0  0  0  0  0  0  0  0  0  0  0
    0.2196    2.6846    0.4888 N   0  0  0  0  0  0  0  0  0  0  0  0
    0.0042    3.3646    1.4833 O   0  0  0  0  0  0  0  0  0  0  0  0
    1.0351    2.9286   -0.3920 O   0  0  0  0  0  0  0  0  0  0  0  0
   -0.2326    0.5690   -0.7036 C   0  0  0  0  0  0  0  0  0  0  0  0
   -0.9295   -0.6108   -0.8367 C   0  0  0  0  0  0  0  0  0  0  0  0
   -3.0357   -0.2745    1.8968 H   0  0  0  0  0  0  0  0  0  0  0  0
   -1.7178    1.8540    2.1045 H   0  0  0  0  0  0  0  0  0  0  0  0
    0.5191    0.8722   -1.4205 H   0  0  0  0  0  0  0  0  0  0  0  0
   -0.7503   -1.2939   -1.6581 H   0  0  0  0  0  0  0  0  0  0  0  0
   -3.4224    2.2732   -0.9289 B   0  0  0  0  0  0  0  0  0  0  0  0
   -4.2825    3.0426   -1.6750 F   0  0  0  0  0  0  0  0  0  0  0  0
   -3.2679    0.9710   -1.4817 F   0  0  0  0  0  0  0  0  0  0  0  0
   -2.1275    2.8816   -0.8893 F   0  0  0  0  0  0  0  0  0  0  0  0
   -3.8749    2.1214    0.4040 F   0  0  0  0  0  0  0  0  0  0  0  0
  1  4  2  0  0  0  0
  2  1  1  0  0  0  0
  3  2  1  0  0  0  0
  4  5  1  0  0  0  0
  4 12  1  0  0  0  0
  5 13  1  0  0  0  0
  6  7  1  0  0  0  0
  6  5  2  0  0  0  0
  7  8  2  0  0  0  0
  9  7  2  0  0  0  0
 10  6  1  0  0  0  0
 11 10  2  0  0  0  0
 11  1  1  0  0  0  0
 14 10  1  0  0  0  0
 15 11  1  0  0  0  0
 16 19  1  0  0  0  0
 16 20  1  0  0  0  0
 17 16  1  0  0  0  0
 18 16  1  0  0  0  0
M  RAD  2   2   2   3   3
M  END
