Coordinates from ORCA-job 4-NO2PhN2+~BF4-_B3LYPG-6-31G_dp-NX-Scan-d89-09-n800
 OpenBabel11261920323D

 20 19  0  0  0  0  0  0  0  0999 V2000
   -2.1936    0.2305    0.4639 C   0  0  0  0  0  0  0  0  0  0  0  0
   -3.3831   -0.4727    0.2963 N   0  0  0  0  0  0  0  0  0  0  0  0
   -4.3070   -1.0803    0.2173 N   0  0  0  0  0  0  0  0  0  0  0  0
   -1.6734    0.2374    1.7706 C   0  0  0  0  0  0  0  0  0  0  0  0
   -0.4788    0.9053    1.9896 C   0  0  0  0  0  0  0  0  0  0  0  0
    0.1393    1.5291    0.9053 C   0  0  0  0  0  0  0  0  0  0  0  0
    1.4205    2.2409    1.1469 N   0  0  0  0  0  0  0  0  0  0  0  0
    1.8524    2.2319    2.2956 O   0  0  0  0  0  0  0  0  0  0  0  0
    1.9496    2.7806    0.1831 O   0  0  0  0  0  0  0  0  0  0  0  0
   -0.3848    1.5176   -0.3842 C   0  0  0  0  0  0  0  0  0  0  0  0
   -1.5835    0.8551   -0.6348 C   0  0  0  0  0  0  0  0  0  0  0  0
   -2.1959   -0.2614    2.5787 H   0  0  0  0  0  0  0  0  0  0  0  0
   -0.0231    0.9517    2.9702 H   0  0  0  0  0  0  0  0  0  0  0  0
    0.1399    2.0278   -1.1821 H   0  0  0  0  0  0  0  0  0  0  0  0
   -2.0319    0.8394   -1.6241 H   0  0  0  0  0  0  0  0  0  0  0  0
   -4.2647    0.7016   -2.3706 B   0  0  0  0  0  0  0  0  0  0  0  0
   -5.4768    0.5630   -2.9837 F   0  0  0  0  0  0  0  0  0  0  0  0
   -3.6534   -0.5857   -2.1709 F   0  0  0  0  0  0  0  0  0  0  0  0
   -3.3377    1.4812   -3.0755 F   0  0  0  0  0  0  0  0  0  0  0  0
   -4.4206    1.2730   -1.0658 F   0  0  0  0  0  0  0  0  0  0  0  0
  1  4  2  0  0  0  0
  2  1  1  0  0  0  0
  3  2  1  0  0  0  0
  4  5  1  0  0  0  0
  4 12  1  0  0  0  0
  5 13  1  0  0  0  0
  6  7  1  0  0  0  0
  6  5  2  0  0  0  0
  7  8  2  0  0  0  0
  9  7  2  0  0  0  0
 10  6  1  0  0  0  0
 11 10  2  0  0  0  0
 11  1  1  0  0  0  0
 14 10  1  0  0  0  0
 15 11  1  0  0  0  0
 16 18  1  0  0  0  0
 16 20  1  0  0  0  0
 17 16  1  0  0  0  0
 19 16  1  0  0  0  0
M  RAD  2   2   2   3   3
M  END
