Coordinates from ORCA-job 4-NO2PhN2+~BF4-_B3LYPG-6-31G_dp-NX-Scan-d89-09-n800
 OpenBabel11261920323D

 20 19  0  0  0  0  0  0  0  0999 V2000
   -1.9442   -0.4813   -0.0105 C   0  0  0  0  0  0  0  0  0  0  0  0
   -2.8286   -1.4998   -0.2836 N   0  0  0  0  0  0  0  0  0  0  0  0
   -3.4619   -2.3983   -0.4643 N   0  0  0  0  0  0  0  0  0  0  0  0
   -2.2030    0.3383    1.0984 C   0  0  0  0  0  0  0  0  0  0  0  0
   -1.2806    1.3417    1.3699 C   0  0  0  0  0  0  0  0  0  0  0  0
   -0.1860    1.4918    0.5283 C   0  0  0  0  0  0  0  0  0  0  0  0
    0.7906    2.5676    0.8303 N   0  0  0  0  0  0  0  0  0  0  0  0
    0.5823    3.2475    1.8287 O   0  0  0  0  0  0  0  0  0  0  0  0
    1.7413    2.6881    0.0639 O   0  0  0  0  0  0  0  0  0  0  0  0
    0.0470    0.6909   -0.5929 C   0  0  0  0  0  0  0  0  0  0  0  0
   -0.8499   -0.3194   -0.8812 C   0  0  0  0  0  0  0  0  0  0  0  0
   -3.0984    0.2118    1.6887 H   0  0  0  0  0  0  0  0  0  0  0  0
   -1.4202    2.0188    2.2020 H   0  0  0  0  0  0  0  0  0  0  0  0
    0.9101    0.8797   -1.2173 H   0  0  0  0  0  0  0  0  0  0  0  0
   -0.7320   -0.9572   -1.7486 H   0  0  0  0  0  0  0  0  0  0  0  0
   -4.0120    1.6619   -1.0370 B   0  0  0  0  0  0  0  0  0  0  0  0
   -4.8925    2.4542   -1.7320 F   0  0  0  0  0  0  0  0  0  0  0  0
   -4.2435    0.2638   -1.2975 F   0  0  0  0  0  0  0  0  0  0  0  0
   -2.6724    1.9312   -1.3864 F   0  0  0  0  0  0  0  0  0  0  0  0
   -4.1528    1.8348    0.3671 F   0  0  0  0  0  0  0  0  0  0  0  0
  1  4  2  0  0  0  0
  2  1  1  0  0  0  0
  3  2  1  0  0  0  0
  4  5  1  0  0  0  0
  4 12  1  0  0  0  0
  5 13  1  0  0  0  0
  6  7  1  0  0  0  0
  6  5  2  0  0  0  0
  7  8  2  0  0  0  0
  9  7  2  0  0  0  0
 10  6  1  0  0  0  0
 11 10  2  0  0  0  0
 11  1  1  0  0  0  0
 14 10  1  0  0  0  0
 15 11  1  0  0  0  0
 16 20  1  0  0  0  0
 17 16  1  0  0  0  0
 18 16  1  0  0  0  0
 19 16  1  0  0  0  0
M  RAD  2   2   2   3   3
M  END
