Coordinates from ORCA-job 4-NO2PhN2+~BF4-_B3LYPG-6-31G_dp-NX-Scan-d89-09-n800
 OpenBabel11261920323D

 20 19  0  0  0  0  0  0  0  0999 V2000
   -2.2632    0.2008    0.6074 C   0  0  0  0  0  0  0  0  0  0  0  0
   -3.5381   -0.4072    0.5723 N   0  0  0  0  0  0  0  0  0  0  0  0
   -4.2800   -0.7724   -0.2848 N   0  0  0  0  0  0  0  0  0  0  0  0
   -1.7826    0.4082    1.9113 C   0  0  0  0  0  0  0  0  0  0  0  0
   -0.5418    0.9982    2.1132 C   0  0  0  0  0  0  0  0  0  0  0  0
    0.1962    1.3740    0.9937 C   0  0  0  0  0  0  0  0  0  0  0  0
    1.5184    2.0051    1.1950 N   0  0  0  0  0  0  0  0  0  0  0  0
    1.8957    2.1637    2.3534 O   0  0  0  0  0  0  0  0  0  0  0  0
    2.1489    2.3272    0.1919 O   0  0  0  0  0  0  0  0  0  0  0  0
   -0.2629    1.1808   -0.3076 C   0  0  0  0  0  0  0  0  0  0  0  0
   -1.5039    0.5873   -0.5140 C   0  0  0  0  0  0  0  0  0  0  0  0
   -2.3977    0.1001    2.7489 H   0  0  0  0  0  0  0  0  0  0  0  0
   -0.1425    1.1714    3.1042 H   0  0  0  0  0  0  0  0  0  0  0  0
    0.3517    1.4962   -1.1411 H   0  0  0  0  0  0  0  0  0  0  0  0
   -1.8768    0.4346   -1.5139 H   0  0  0  0  0  0  0  0  0  0  0  0
   -4.4116    1.2570   -2.7266 B   0  0  0  0  0  0  0  0  0  0  0  0
   -3.7381   -0.5546   -1.6889 F   0  0  0  0  0  0  0  0  0  0  0  0
   -3.2532    1.3479   -3.3732 F   0  0  0  0  0  0  0  0  0  0  0  0
   -5.4583    0.7188   -3.3238 F   0  0  0  0  0  0  0  0  0  0  0  0
   -4.5665    1.9290   -1.5915 F   0  0  0  0  0  0  0  0  0  0  0  0
  1  4  2  0  0  0  0
  2  1  1  0  0  0  0
  3  2  1  0  0  0  0
  4  5  1  0  0  0  0
  4 12  1  0  0  0  0
  5 13  1  0  0  0  0
  6  7  1  0  0  0  0
  6  5  2  0  0  0  0
  7  8  2  0  0  0  0
  9  7  2  0  0  0  0
 10  6  1  0  0  0  0
 11 10  2  0  0  0  0
 11  1  1  0  0  0  0
 14 10  1  0  0  0  0
 15 11  1  0  0  0  0
 16 20  1  0  0  0  0
 17  3  1  0  0  0  0
 18 16  1  0  0  0  0
 19 16  1  0  0  0  0
M  RAD  2   2   2   3   2
M  END
