Coordinates from ORCA-job 4-NO2PhN2+~BF4-_B3LYPG-6-31G_dp-NX-Scan-d89-09-n800
 OpenBabel11261920323D

 20 19  0  0  0  0  0  0  0  0999 V2000
   -2.0215   -0.3469    0.0996 C   0  0  0  0  0  0  0  0  0  0  0  0
   -2.9869   -1.3101   -0.1277 N   0  0  0  0  0  0  0  0  0  0  0  0
   -3.6732   -2.1816   -0.2149 N   0  0  0  0  0  0  0  0  0  0  0  0
   -2.1291    0.4190    1.2687 C   0  0  0  0  0  0  0  0  0  0  0  0
   -1.1356    1.3571    1.5042 C   0  0  0  0  0  0  0  0  0  0  0  0
   -0.1174    1.5039    0.5658 C   0  0  0  0  0  0  0  0  0  0  0  0
    0.9404    2.5103    0.8296 N   0  0  0  0  0  0  0  0  0  0  0  0
    0.8594    3.1439    1.8764 O   0  0  0  0  0  0  0  0  0  0  0  0
    1.8238    2.6248   -0.0136 O   0  0  0  0  0  0  0  0  0  0  0  0
   -0.0446    0.7677   -0.6159 C   0  0  0  0  0  0  0  0  0  0  0  0
   -1.0248   -0.1765   -0.8722 C   0  0  0  0  0  0  0  0  0  0  0  0
   -2.9797    0.3036    1.9259 H   0  0  0  0  0  0  0  0  0  0  0  0
   -1.1518    1.9870    2.3840 H   0  0  0  0  0  0  0  0  0  0  0  0
    0.7562    0.9584   -1.3182 H   0  0  0  0  0  0  0  0  0  0  0  0
   -1.0510   -0.7414   -1.7947 H   0  0  0  0  0  0  0  0  0  0  0  0
   -4.0178    1.4658   -1.2521 B   0  0  0  0  0  0  0  0  0  0  0  0
   -4.9225    2.2551   -1.9214 F   0  0  0  0  0  0  0  0  0  0  0  0
   -3.6489    0.3021   -2.0145 F   0  0  0  0  0  0  0  0  0  0  0  0
   -2.8354    2.1729   -0.9563 F   0  0  0  0  0  0  0  0  0  0  0  0
   -4.5462    0.9509   -0.0268 F   0  0  0  0  0  0  0  0  0  0  0  0
  1  4  2  0  0  0  0
  2  1  1  0  0  0  0
  3  2  1  0  0  0  0
  4  5  1  0  0  0  0
  4 12  1  0  0  0  0
  5 13  1  0  0  0  0
  6  7  1  0  0  0  0
  6  5  2  0  0  0  0
  7  8  2  0  0  0  0
  9  7  2  0  0  0  0
 10  6  1  0  0  0  0
 11 10  2  0  0  0  0
 11  1  1  0  0  0  0
 14 10  1  0  0  0  0
 15 11  1  0  0  0  0
 16 19  1  0  0  0  0
 16 20  1  0  0  0  0
 17 16  1  0  0  0  0
 18 16  1  0  0  0  0
M  RAD  2   2   2   3   3
M  END
