Coordinates from ORCA-job 4-NO2PhN2+~BF4-_B3LYPG-6-31G_dp-NX-Scan-d89-09-n800
 OpenBabel11261920323D

 20 19  0  0  0  0  0  0  0  0999 V2000
   -2.0219   -0.3355    0.1006 C   0  0  0  0  0  0  0  0  0  0  0  0
   -2.9985   -1.2872   -0.1330 N   0  0  0  0  0  0  0  0  0  0  0  0
   -3.6945   -2.1498   -0.2260 N   0  0  0  0  0  0  0  0  0  0  0  0
   -2.1239    0.4261    1.2727 C   0  0  0  0  0  0  0  0  0  0  0  0
   -1.1257    1.3585    1.5107 C   0  0  0  0  0  0  0  0  0  0  0  0
   -0.1083    1.5045    0.5710 C   0  0  0  0  0  0  0  0  0  0  0  0
    0.9536    2.5063    0.8361 N   0  0  0  0  0  0  0  0  0  0  0  0
    0.8761    3.1375    1.8847 O   0  0  0  0  0  0  0  0  0  0  0  0
    1.8362    2.6201   -0.0079 O   0  0  0  0  0  0  0  0  0  0  0  0
   -0.0402    0.7714   -0.6128 C   0  0  0  0  0  0  0  0  0  0  0  0
   -1.0255   -0.1672   -0.8712 C   0  0  0  0  0  0  0  0  0  0  0  0
   -2.9745    0.3125    1.9304 H   0  0  0  0  0  0  0  0  0  0  0  0
   -1.1376    1.9852    2.3929 H   0  0  0  0  0  0  0  0  0  0  0  0
    0.7606    0.9608   -1.3156 H   0  0  0  0  0  0  0  0  0  0  0  0
   -1.0564   -0.7278   -1.7962 H   0  0  0  0  0  0  0  0  0  0  0  0
   -4.0284    1.4472   -1.2603 B   0  0  0  0  0  0  0  0  0  0  0  0
   -4.9468    2.2217   -1.9266 F   0  0  0  0  0  0  0  0  0  0  0  0
   -3.6459    0.2893   -2.0249 F   0  0  0  0  0  0  0  0  0  0  0  0
   -2.8561    2.1693   -0.9648 F   0  0  0  0  0  0  0  0  0  0  0  0
   -4.5487    0.9229   -0.0341 F   0  0  0  0  0  0  0  0  0  0  0  0
  1  4  2  0  0  0  0
  2  1  1  0  0  0  0
  3  2  1  0  0  0  0
  4  5  1  0  0  0  0
  4 12  1  0  0  0  0
  5 13  1  0  0  0  0
  6  7  1  0  0  0  0
  6  5  2  0  0  0  0
  7  8  2  0  0  0  0
  9  7  2  0  0  0  0
 10  6  1  0  0  0  0
 11 10  2  0  0  0  0
 11  1  1  0  0  0  0
 14 10  1  0  0  0  0
 15 11  1  0  0  0  0
 16 19  1  0  0  0  0
 16 20  1  0  0  0  0
 17 16  1  0  0  0  0
 18 16  1  0  0  0  0
M  RAD  2   2   2   3   3
M  END
