Coordinates from ORCA-job 4-NO2PhN2+~BF4-_B3LYPG-6-31G_dp-NX-Scan-d89-09-n800
 OpenBabel11261920323D

 20 19  0  0  0  0  0  0  0  0999 V2000
   -2.1310    0.1856    0.3598 C   0  0  0  0  0  0  0  0  0  0  0  0
   -3.2946   -0.5480    0.1170 N   0  0  0  0  0  0  0  0  0  0  0  0
   -4.1613   -1.2410    0.0964 N   0  0  0  0  0  0  0  0  0  0  0  0
   -1.7715    0.3290    1.7097 C   0  0  0  0  0  0  0  0  0  0  0  0
   -0.5965    1.0115    1.9909 C   0  0  0  0  0  0  0  0  0  0  0  0
    0.1590    1.5040    0.9267 C   0  0  0  0  0  0  0  0  0  0  0  0
    1.4207    2.2219    1.2389 N   0  0  0  0  0  0  0  0  0  0  0  0
    1.7122    2.3446    2.4246 O   0  0  0  0  0  0  0  0  0  0  0  0
    2.0772    2.6337    0.2899 O   0  0  0  0  0  0  0  0  0  0  0  0
   -0.2098    1.3549   -0.4085 C   0  0  0  0  0  0  0  0  0  0  0  0
   -1.3891    0.6861   -0.7167 C   0  0  0  0  0  0  0  0  0  0  0  0
   -2.3945   -0.0721    2.5004 H   0  0  0  0  0  0  0  0  0  0  0  0
   -0.2581    1.1654    3.0075 H   0  0  0  0  0  0  0  0  0  0  0  0
    0.4175    1.7686   -1.1877 H   0  0  0  0  0  0  0  0  0  0  0  0
   -1.7633    0.5337   -1.7246 H   0  0  0  0  0  0  0  0  0  0  0  0
   -4.3817    0.8391   -2.2971 B   0  0  0  0  0  0  0  0  0  0  0  0
   -5.6396    0.2712   -2.2823 F   0  0  0  0  0  0  0  0  0  0  0  0
   -3.3962   -0.2187   -2.4253 F   0  0  0  0  0  0  0  0  0  0  0  0
   -4.1926    1.7712   -3.2863 F   0  0  0  0  0  0  0  0  0  0  0  0
   -4.1134    1.4255   -1.0071 F   0  0  0  0  0  0  0  0  0  0  0  0
  1  4  2  0  0  0  0
  2  1  1  0  0  0  0
  3  2  1  0  0  0  0
  4  5  1  0  0  0  0
  4 12  1  0  0  0  0
  5 13  1  0  0  0  0
  6  7  1  0  0  0  0
  6  5  2  0  0  0  0
  7  8  2  0  0  0  0
  9  7  2  0  0  0  0
 10  6  1  0  0  0  0
 11 10  2  0  0  0  0
 11  1  1  0  0  0  0
 14 10  1  0  0  0  0
 15 11  1  0  0  0  0
 16 17  1  0  0  0  0
 16 20  1  0  0  0  0
 18 16  1  0  0  0  0
 19 16  1  0  0  0  0
M  RAD  2   2   2   3   3
M  END
