Coordinates from ORCA-job 4-NO2PhN2+~BF4-_B3LYPG-6-31G_dp-NX-Scan-d89-09-n800
 OpenBabel11261920323D

 20 19  0  0  0  0  0  0  0  0999 V2000
   -2.0023   -0.3868    0.0742 C   0  0  0  0  0  0  0  0  0  0  0  0
   -2.9475   -1.3650   -0.1617 N   0  0  0  0  0  0  0  0  0  0  0  0
   -3.6284   -2.2393   -0.2656 N   0  0  0  0  0  0  0  0  0  0  0  0
   -2.1469    0.3925    1.2311 C   0  0  0  0  0  0  0  0  0  0  0  0
   -1.1730    1.3509    1.4725 C   0  0  0  0  0  0  0  0  0  0  0  0
   -0.1384    1.5015    0.5543 C   0  0  0  0  0  0  0  0  0  0  0  0
    0.8971    2.5289    0.8252 N   0  0  0  0  0  0  0  0  0  0  0  0
    0.7860    3.1736    1.8624 O   0  0  0  0  0  0  0  0  0  0  0  0
    1.7942    2.6483   -0.0028 O   0  0  0  0  0  0  0  0  0  0  0  0
   -0.0270    0.7489   -0.6149 C   0  0  0  0  0  0  0  0  0  0  0  0
   -0.9847   -0.2150   -0.8771 C   0  0  0  0  0  0  0  0  0  0  0  0
   -3.0063    0.2715    1.8748 H   0  0  0  0  0  0  0  0  0  0  0  0
   -1.2179    1.9918    2.3433 H   0  0  0  0  0  0  0  0  0  0  0  0
    0.7868    0.9417   -1.3015 H   0  0  0  0  0  0  0  0  0  0  0  0
   -0.9754   -0.7994   -1.7882 H   0  0  0  0  0  0  0  0  0  0  0  0
   -4.0074    1.5215   -1.1951 B   0  0  0  0  0  0  0  0  0  0  0  0
   -4.8926    2.3132   -1.8867 F   0  0  0  0  0  0  0  0  0  0  0  0
   -3.7839    0.2615   -1.8634 F   0  0  0  0  0  0  0  0  0  0  0  0
   -2.7521    2.1469   -1.0556 F   0  0  0  0  0  0  0  0  0  0  0  0
   -4.4869    1.1793    0.1008 F   0  0  0  0  0  0  0  0  0  0  0  0
  1  4  2  0  0  0  0
  2  1  1  0  0  0  0
  3  2  1  0  0  0  0
  4  5  1  0  0  0  0
  4 12  1  0  0  0  0
  5 13  1  0  0  0  0
  6  7  1  0  0  0  0
  6  5  2  0  0  0  0
  7  8  2  0  0  0  0
  9  7  2  0  0  0  0
 10  6  1  0  0  0  0
 11 10  2  0  0  0  0
 11  1  1  0  0  0  0
 14 10  1  0  0  0  0
 15 11  1  0  0  0  0
 16 19  1  0  0  0  0
 16 20  1  0  0  0  0
 17 16  1  0  0  0  0
 18 16  1  0  0  0  0
M  RAD  2   2   2   3   3
M  END
