Coordinates from ORCA-job 4-NO2PhN2+~BF4-_B3LYPG-6-31G_dp-NX-Scan-d89-09-n800
 OpenBabel11261920323D

 20 19  0  0  0  0  0  0  0  0999 V2000
   -1.9056   -0.9524    0.1339 C   0  0  0  0  0  0  0  0  0  0  0  0
   -2.5512   -2.1433    0.0355 N   0  0  0  0  0  0  0  0  0  0  0  0
   -3.0586   -3.1407   -0.0344 N   0  0  0  0  0  0  0  0  0  0  0  0
   -2.2507   -0.0904    1.1980 C   0  0  0  0  0  0  0  0  0  0  0  0
   -1.5699    1.1060    1.3005 C   0  0  0  0  0  0  0  0  0  0  0  0
   -0.6170    1.4164    0.3300 C   0  0  0  0  0  0  0  0  0  0  0  0
    0.1511    2.6782    0.4804 N   0  0  0  0  0  0  0  0  0  0  0  0
   -0.0825    3.3523    1.4746 O   0  0  0  0  0  0  0  0  0  0  0  0
    0.9881    2.9217   -0.3796 O   0  0  0  0  0  0  0  0  0  0  0  0
   -0.2768    0.5638   -0.7262 C   0  0  0  0  0  0  0  0  0  0  0  0
   -0.9328   -0.6402   -0.8468 C   0  0  0  0  0  0  0  0  0  0  0  0
   -3.0372   -0.3552    1.8940 H   0  0  0  0  0  0  0  0  0  0  0  0
   -1.8058    1.8291    2.0675 H   0  0  0  0  0  0  0  0  0  0  0  0
    0.4679    0.8834   -1.4433 H   0  0  0  0  0  0  0  0  0  0  0  0
   -0.7246   -1.3284   -1.6573 H   0  0  0  0  0  0  0  0  0  0  0  0
   -3.3729    2.3864   -0.9135 B   0  0  0  0  0  0  0  0  0  0  0  0
   -4.2081    3.1650   -1.6784 F   0  0  0  0  0  0  0  0  0  0  0  0
   -3.3474    1.0371   -1.3571 F   0  0  0  0  0  0  0  0  0  0  0  0
   -2.0278    2.8868   -1.0008 F   0  0  0  0  0  0  0  0  0  0  0  0
   -3.7446    2.3904    0.4488 F   0  0  0  0  0  0  0  0  0  0  0  0
  1  4  2  0  0  0  0
  2  1  1  0  0  0  0
  3  2  1  0  0  0  0
  4  5  1  0  0  0  0
  4 12  1  0  0  0  0
  5 13  1  0  0  0  0
  6  7  1  0  0  0  0
  6  5  2  0  0  0  0
  7  8  2  0  0  0  0
  9  7  2  0  0  0  0
 10  6  1  0  0  0  0
 11 10  2  0  0  0  0
 11  1  1  0  0  0  0
 14 10  1  0  0  0  0
 15 11  1  0  0  0  0
 16 20  1  0  0  0  0
 17 16  1  0  0  0  0
 18 16  1  0  0  0  0
 19 16  1  0  0  0  0
M  RAD  2   2   2   3   3
M  END
