Coordinates from ORCA-job 4-NO2PhN2+~BF4-_B3LYPG-6-31G_dp-NX-Scan-d89-09-n800
 OpenBabel11261920323D

 20 19  0  0  0  0  0  0  0  0999 V2000
   -2.3245    0.5796    0.8061 C   0  0  0  0  0  0  0  0  0  0  0  0
   -3.7044    0.2359    0.8460 N   0  0  0  0  0  0  0  0  0  0  0  0
   -4.4063   -0.1579   -0.0647 N   0  0  0  0  0  0  0  0  0  0  0  0
   -1.6502    0.3695    2.0189 C   0  0  0  0  0  0  0  0  0  0  0  0
   -0.3069    0.7030    2.1393 C   0  0  0  0  0  0  0  0  0  0  0  0
    0.3286    1.2898    1.0474 C   0  0  0  0  0  0  0  0  0  0  0  0
    1.7500    1.6665    1.1702 N   0  0  0  0  0  0  0  0  0  0  0  0
    2.3058    1.4344    2.2416 O   0  0  0  0  0  0  0  0  0  0  0  0
    2.2847    2.1877    0.1941 O   0  0  0  0  0  0  0  0  0  0  0  0
   -0.3333    1.5454   -0.1519 C   0  0  0  0  0  0  0  0  0  0  0  0
   -1.6688    1.1805   -0.2834 C   0  0  0  0  0  0  0  0  0  0  0  0
   -2.1946   -0.0608    2.8520 H   0  0  0  0  0  0  0  0  0  0  0  0
    0.2451    0.5366    3.0556 H   0  0  0  0  0  0  0  0  0  0  0  0
    0.2035    2.0158   -0.9660 H   0  0  0  0  0  0  0  0  0  0  0  0
   -2.1909    1.3755   -1.2092 H   0  0  0  0  0  0  0  0  0  0  0  0
   -4.6229    0.8270   -3.2578 B   0  0  0  0  0  0  0  0  0  0  0  0
   -3.7398   -0.3098   -1.2642 F   0  0  0  0  0  0  0  0  0  0  0  0
   -3.5926    1.6599   -3.1725 F   0  0  0  0  0  0  0  0  0  0  0  0
   -4.5329   -0.2452   -4.0173 F   0  0  0  0  0  0  0  0  0  0  0  0
   -5.7561    1.1327   -2.6585 F   0  0  0  0  0  0  0  0  0  0  0  0
  1  2  1  0  0  0  0
  1  4  2  0  0  0  0
  3  2  1  0  0  0  0
  4  5  1  0  0  0  0
  4 12  1  0  0  0  0
  5 13  1  0  0  0  0
  6  7  1  0  0  0  0
  6  5  2  0  0  0  0
  7  8  2  0  0  0  0
  9  7  2  0  0  0  0
 10  6  1  0  0  0  0
 11 10  2  0  0  0  0
 11  1  1  0  0  0  0
 14 10  1  0  0  0  0
 15 11  1  0  0  0  0
 16 18  1  0  0  0  0
 16 20  1  0  0  0  0
 17  3  1  0  0  0  0
 19 16  1  0  0  0  0
M  RAD  2   2   2   3   2
M  END
