Coordinates from ORCA-job 4-NO2PhN2+~BF4-_B3LYPG-6-31G_dp-NX-Scan-d89-09-n800
 OpenBabel11261920313D

 20 19  0  0  0  0  0  0  0  0999 V2000
   -1.5572   -1.4248    0.2006 C   0  0  0  0  0  0  0  0  0  0  0  0
   -1.9051   -2.7380    0.3416 N   0  0  0  0  0  0  0  0  0  0  0  0
   -2.1575   -3.8235    0.4655 N   0  0  0  0  0  0  0  0  0  0  0  0
   -2.3702   -0.4209    0.7903 C   0  0  0  0  0  0  0  0  0  0  0  0
   -1.9529    0.8955    0.7012 C   0  0  0  0  0  0  0  0  0  0  0  0
   -0.7553    1.1597    0.0246 C   0  0  0  0  0  0  0  0  0  0  0  0
   -0.1888    2.5290    0.0540 N   0  0  0  0  0  0  0  0  0  0  0  0
   -0.4043    3.1704    1.0689 O   0  0  0  0  0  0  0  0  0  0  0  0
    0.5183    2.8473   -0.8931 O   0  0  0  0  0  0  0  0  0  0  0  0
    0.0178    0.1780   -0.6058 C   0  0  0  0  0  0  0  0  0  0  0  0
   -0.3700   -1.1453   -0.5172 C   0  0  0  0  0  0  0  0  0  0  0  0
   -3.2954   -0.6836    1.2910 H   0  0  0  0  0  0  0  0  0  0  0  0
   -2.5575    1.7305    1.0794 H   0  0  0  0  0  0  0  0  0  0  0  0
    0.9100    0.4717   -1.1452 H   0  0  0  0  0  0  0  0  0  0  0  0
    0.2108   -1.9437   -0.9643 H   0  0  0  0  0  0  0  0  0  0  0  0
   -3.6378    3.4615   -0.5304 B   0  0  0  0  0  0  0  0  0  0  0  0
   -3.6529    4.8271   -0.7301 F   0  0  0  0  0  0  0  0  0  0  0  0
   -4.7267    2.8154   -1.0971 F   0  0  0  0  0  0  0  0  0  0  0  0
   -2.4313    2.8930   -1.0853 F   0  0  0  0  0  0  0  0  0  0  0  0
   -3.6004    3.1668    0.8773 F   0  0  0  0  0  0  0  0  0  0  0  0
  1  2  1  0  0  0  0
  1  4  2  0  0  0  0
  2  3  1  0  0  0  0
  4 12  1  0  0  0  0
  5  4  1  0  0  0  0
  5 13  1  0  0  0  0
  6  7  1  0  0  0  0
  6  5  2  0  0  0  0
  7  8  2  0  0  0  0
  9  7  2  0  0  0  0
 10 11  2  0  0  0  0
 10  6  1  0  0  0  0
 11  1  1  0  0  0  0
 14 10  1  0  0  0  0
 15 11  1  0  0  0  0
 16 20  1  0  0  0  0
 17 16  1  0  0  0  0
 18 16  1  0  0  0  0
 19 16  1  0  0  0  0
M  RAD  2   2   2   3   3
M  END
