Coordinates from ORCA-job 4-NO2PhN2+~BF4-_B3LYPG-6-31G_dp-NX-Scan-d89-09-n800
 OpenBabel11261920323D

 20 19  0  0  0  0  0  0  0  0999 V2000
   -1.9238   -0.8564    0.1322 C   0  0  0  0  0  0  0  0  0  0  0  0
   -2.6826   -1.9718   -0.0292 N   0  0  0  0  0  0  0  0  0  0  0  0
   -3.2949   -2.9006   -0.1585 N   0  0  0  0  0  0  0  0  0  0  0  0
   -2.2235   -0.0011    1.2129 C   0  0  0  0  0  0  0  0  0  0  0  0
   -1.4689    1.1494    1.3427 C   0  0  0  0  0  0  0  0  0  0  0  0
   -0.5076    1.4269    0.3759 C   0  0  0  0  0  0  0  0  0  0  0  0
    0.2656    2.6868    0.4998 N   0  0  0  0  0  0  0  0  0  0  0  0
    0.0526    3.3737    1.4904 O   0  0  0  0  0  0  0  0  0  0  0  0
    1.0791    2.9260   -0.3846 O   0  0  0  0  0  0  0  0  0  0  0  0
   -0.1987    0.5714   -0.6871 C   0  0  0  0  0  0  0  0  0  0  0  0
   -0.9200   -0.5924   -0.8300 C   0  0  0  0  0  0  0  0  0  0  0  0
   -3.0386   -0.2230    1.8891 H   0  0  0  0  0  0  0  0  0  0  0  0
   -1.6745    1.8739    2.1180 H   0  0  0  0  0  0  0  0  0  0  0  0
    0.5624    0.8626   -1.3989 H   0  0  0  0  0  0  0  0  0  0  0  0
   -0.7536   -1.2731   -1.6559 H   0  0  0  0  0  0  0  0  0  0  0  0
   -3.4597    2.1998   -0.9342 B   0  0  0  0  0  0  0  0  0  0  0  0
   -4.3495    2.9555   -1.6590 F   0  0  0  0  0  0  0  0  0  0  0  0
   -3.2589    0.9200   -1.5259 F   0  0  0  0  0  0  0  0  0  0  0  0
   -2.1932    2.8533   -0.8640 F   0  0  0  0  0  0  0  0  0  0  0  0
   -3.9182    1.9853    0.3921 F   0  0  0  0  0  0  0  0  0  0  0  0
  1  4  2  0  0  0  0
  2  1  1  0  0  0  0
  3  2  1  0  0  0  0
  4  5  1  0  0  0  0
  4 12  1  0  0  0  0
  5 13  1  0  0  0  0
  6  7  1  0  0  0  0
  6  5  2  0  0  0  0
  7  8  2  0  0  0  0
  9  7  2  0  0  0  0
 10  6  1  0  0  0  0
 11 10  2  0  0  0  0
 11  1  1  0  0  0  0
 14 10  1  0  0  0  0
 15 11  1  0  0  0  0
 16 19  1  0  0  0  0
 16 20  1  0  0  0  0
 17 16  1  0  0  0  0
 18 16  1  0  0  0  0
M  RAD  2   2   2   3   3
M  END
