Coordinates from ORCA-job 4-NO2PhN2+~BF4-_B3LYPG-6-31G_dp-NX-Scan-d89-09-n800
 OpenBabel11261920323D

 20 19  0  0  0  0  0  0  0  0999 V2000
   -2.2773    0.2500    0.5698 C   0  0  0  0  0  0  0  0  0  0  0  0
   -3.5350   -0.3536    0.4426 N   0  0  0  0  0  0  0  0  0  0  0  0
   -4.3775   -0.7307   -0.2398 N   0  0  0  0  0  0  0  0  0  0  0  0
   -1.8147    0.4231    1.8825 C   0  0  0  0  0  0  0  0  0  0  0  0
   -0.5714    1.0065    2.0843 C   0  0  0  0  0  0  0  0  0  0  0  0
    0.1637    1.3921    0.9647 C   0  0  0  0  0  0  0  0  0  0  0  0
    1.4931    2.0139    1.1764 N   0  0  0  0  0  0  0  0  0  0  0  0
    1.8655    2.1548    2.3378 O   0  0  0  0  0  0  0  0  0  0  0  0
    2.1252    2.3398    0.1775 O   0  0  0  0  0  0  0  0  0  0  0  0
   -0.2926    1.2218   -0.3409 C   0  0  0  0  0  0  0  0  0  0  0  0
   -1.5375    0.6403   -0.5585 C   0  0  0  0  0  0  0  0  0  0  0  0
   -2.4290    0.1046    2.7167 H   0  0  0  0  0  0  0  0  0  0  0  0
   -0.1663    1.1661    3.0751 H   0  0  0  0  0  0  0  0  0  0  0  0
    0.3222    1.5488   -1.1698 H   0  0  0  0  0  0  0  0  0  0  0  0
   -1.9227    0.5140   -1.5620 H   0  0  0  0  0  0  0  0  0  0  0  0
   -4.2293    0.9705   -2.5043 B   0  0  0  0  0  0  0  0  0  0  0  0
   -3.9784   -0.4977   -1.9080 F   0  0  0  0  0  0  0  0  0  0  0  0
   -3.0653    1.1851   -3.2044 F   0  0  0  0  0  0  0  0  0  0  0  0
   -5.3522    0.8768   -3.2465 F   0  0  0  0  0  0  0  0  0  0  0  0
   -4.3270    1.7399   -1.3672 F   0  0  0  0  0  0  0  0  0  0  0  0
  1  4  2  0  0  0  0
  2  1  1  0  0  0  0
  3  2  2  0  0  0  0
  4  5  1  0  0  0  0
  4 12  1  0  0  0  0
  5 13  1  0  0  0  0
  6  7  1  0  0  0  0
  6  5  2  0  0  0  0
  7  8  2  0  0  0  0
  9  7  2  0  0  0  0
 10  6  1  0  0  0  0
 11 10  2  0  0  0  0
 11  1  1  0  0  0  0
 14 10  1  0  0  0  0
 15 11  1  0  0  0  0
 16 17  1  0  0  0  0
 16 20  1  0  0  0  0
 18 16  1  0  0  0  0
 19 16  1  0  0  0  0
M  RAD  1   3   2
M  END
