Coordinates from ORCA-job 4-NO2PhN2+~BF4-_B3LYPG-6-31G_dp-NX-Scan-d89-09-n800
 OpenBabel11261920323D

 20 19  0  0  0  0  0  0  0  0999 V2000
   -2.1354    0.2249    0.3581 C   0  0  0  0  0  0  0  0  0  0  0  0
   -3.3189   -0.4667    0.0976 N   0  0  0  0  0  0  0  0  0  0  0  0
   -4.2245   -1.1071    0.0391 N   0  0  0  0  0  0  0  0  0  0  0  0
   -1.7730    0.3335    1.7108 C   0  0  0  0  0  0  0  0  0  0  0  0
   -0.5867    0.9892    2.0062 C   0  0  0  0  0  0  0  0  0  0  0  0
    0.1764    1.4923    0.9520 C   0  0  0  0  0  0  0  0  0  0  0  0
    1.4473    2.1870    1.2794 N   0  0  0  0  0  0  0  0  0  0  0  0
    1.7454    2.2711    2.4668 O   0  0  0  0  0  0  0  0  0  0  0  0
    2.1036    2.6210    0.3402 O   0  0  0  0  0  0  0  0  0  0  0  0
   -0.1924    1.3740   -0.3860 C   0  0  0  0  0  0  0  0  0  0  0  0
   -1.3820    0.7298   -0.7089 C   0  0  0  0  0  0  0  0  0  0  0  0
   -2.4033   -0.0735    2.4928 H   0  0  0  0  0  0  0  0  0  0  0  0
   -0.2454    1.1156    3.0256 H   0  0  0  0  0  0  0  0  0  0  0  0
    0.4436    1.7916   -1.1561 H   0  0  0  0  0  0  0  0  0  0  0  0
   -1.7535    0.5974   -1.7208 H   0  0  0  0  0  0  0  0  0  0  0  0
   -4.3942    0.7972   -2.3314 B   0  0  0  0  0  0  0  0  0  0  0  0
   -5.5438    0.0711   -2.0171 F   0  0  0  0  0  0  0  0  0  0  0  0
   -3.3223   -0.1459   -2.5406 F   0  0  0  0  0  0  0  0  0  0  0  0
   -4.5389    1.6185   -3.4149 F   0  0  0  0  0  0  0  0  0  0  0  0
   -4.0084    1.5451   -1.1670 F   0  0  0  0  0  0  0  0  0  0  0  0
  1  4  2  0  0  0  0
  2  1  1  0  0  0  0
  3  2  1  0  0  0  0
  4  5  1  0  0  0  0
  4 12  1  0  0  0  0
  5 13  1  0  0  0  0
  6  7  1  0  0  0  0
  6  5  2  0  0  0  0
  7  8  2  0  0  0  0
  9  7  2  0  0  0  0
 10  6  1  0  0  0  0
 11 10  2  0  0  0  0
 11  1  1  0  0  0  0
 14 10  1  0  0  0  0
 15 11  1  0  0  0  0
 16 17  1  0  0  0  0
 16 20  1  0  0  0  0
 18 16  1  0  0  0  0
 19 16  1  0  0  0  0
M  RAD  2   2   2   3   3
M  END
