Coordinates from ORCA-job 4-NO2PhN2+~BF4-_B3LYPG-6-31G_dp-NX-Scan-d89-09-n800
 OpenBabel11261920323D

 20 19  0  0  0  0  0  0  0  0999 V2000
   -2.1298   -0.0088    0.3422 C   0  0  0  0  0  0  0  0  0  0  0  0
   -3.2180   -0.8551    0.1602 N   0  0  0  0  0  0  0  0  0  0  0  0
   -4.0300   -1.6110    0.1354 N   0  0  0  0  0  0  0  0  0  0  0  0
   -1.8191    0.3261    1.6726 C   0  0  0  0  0  0  0  0  0  0  0  0
   -0.7031    1.1166    1.8889 C   0  0  0  0  0  0  0  0  0  0  0  0
    0.0487    1.5263    0.7844 C   0  0  0  0  0  0  0  0  0  0  0  0
    1.2522    2.3604    1.0310 N   0  0  0  0  0  0  0  0  0  0  0  0
    1.4986    2.6501    2.1978 O   0  0  0  0  0  0  0  0  0  0  0  0
    1.9121    2.6913    0.0532 O   0  0  0  0  0  0  0  0  0  0  0  0
   -0.2717    1.1944   -0.5272 C   0  0  0  0  0  0  0  0  0  0  0  0
   -1.3944    0.4095   -0.7740 C   0  0  0  0  0  0  0  0  0  0  0  0
   -2.4383   -0.0176    2.4927 H   0  0  0  0  0  0  0  0  0  0  0  0
   -0.4041    1.4186    2.8841 H   0  0  0  0  0  0  0  0  0  0  0  0
    0.3409    1.5605   -1.3409 H   0  0  0  0  0  0  0  0  0  0  0  0
   -1.7360    0.1475   -1.7664 H   0  0  0  0  0  0  0  0  0  0  0  0
   -4.1922    1.0427   -2.0094 B   0  0  0  0  0  0  0  0  0  0  0  0
   -5.2608    1.3131   -2.8178 F   0  0  0  0  0  0  0  0  0  0  0  0
   -3.6752   -0.2850   -2.2632 F   0  0  0  0  0  0  0  0  0  0  0  0
   -3.1283    1.9395   -2.1889 F   0  0  0  0  0  0  0  0  0  0  0  0
   -4.5578    1.0470   -0.6287 F   0  0  0  0  0  0  0  0  0  0  0  0
  1  4  2  0  0  0  0
  2  1  1  0  0  0  0
  3  2  1  0  0  0  0
  4  5  1  0  0  0  0
  4 12  1  0  0  0  0
  5 13  1  0  0  0  0
  6  7  1  0  0  0  0
  6  5  2  0  0  0  0
  7  8  2  0  0  0  0
  9  7  2  0  0  0  0
 10  6  1  0  0  0  0
 11 10  2  0  0  0  0
 11  1  1  0  0  0  0
 14 10  1  0  0  0  0
 15 11  1  0  0  0  0
 16 20  1  0  0  0  0
 17 16  1  0  0  0  0
 18 16  1  0  0  0  0
 19 16  1  0  0  0  0
M  RAD  2   2   2   3   3
M  END
