Coordinates from ORCA-job 4-NO2PhN2+~BF4-_B3LYPG-6-31G_dp-NX-Scan-d89-09-n800
 OpenBabel11261920323D

 20 19  0  0  0  0  0  0  0  0999 V2000
   -1.9241   -0.8571    0.1320 C   0  0  0  0  0  0  0  0  0  0  0  0
   -2.6809   -1.9741   -0.0280 N   0  0  0  0  0  0  0  0  0  0  0  0
   -3.2897   -2.9055   -0.1545 N   0  0  0  0  0  0  0  0  0  0  0  0
   -2.2243   -0.0016    1.2123 C   0  0  0  0  0  0  0  0  0  0  0  0
   -1.4698    1.1490    1.3422 C   0  0  0  0  0  0  0  0  0  0  0  0
   -0.5085    1.4266    0.3755 C   0  0  0  0  0  0  0  0  0  0  0  0
    0.2650    2.6863    0.4998 N   0  0  0  0  0  0  0  0  0  0  0  0
    0.0521    3.3729    1.4906 O   0  0  0  0  0  0  0  0  0  0  0  0
    1.0786    2.9255   -0.3845 O   0  0  0  0  0  0  0  0  0  0  0  0
   -0.1996    0.5713   -0.6876 C   0  0  0  0  0  0  0  0  0  0  0  0
   -0.9207   -0.5926   -0.8306 C   0  0  0  0  0  0  0  0  0  0  0  0
   -3.0394   -0.2236    1.8886 H   0  0  0  0  0  0  0  0  0  0  0  0
   -1.6754    1.8734    2.1176 H   0  0  0  0  0  0  0  0  0  0  0  0
    0.5615    0.8625   -1.3994 H   0  0  0  0  0  0  0  0  0  0  0  0
   -0.7541   -1.2734   -1.6564 H   0  0  0  0  0  0  0  0  0  0  0  0
   -3.4593    2.2023   -0.9344 B   0  0  0  0  0  0  0  0  0  0  0  0
   -4.3480    2.9594   -1.6590 F   0  0  0  0  0  0  0  0  0  0  0  0
   -3.2597    0.9225   -1.5263 F   0  0  0  0  0  0  0  0  0  0  0  0
   -2.1921    2.8545   -0.8640 F   0  0  0  0  0  0  0  0  0  0  0  0
   -3.9182    1.9880    0.3918 F   0  0  0  0  0  0  0  0  0  0  0  0
  1  4  2  0  0  0  0
  2  1  1  0  0  0  0
  3  2  1  0  0  0  0
  4  5  1  0  0  0  0
  4 12  1  0  0  0  0
  5 13  1  0  0  0  0
  6  7  1  0  0  0  0
  6  5  2  0  0  0  0
  7  8  2  0  0  0  0
  9  7  2  0  0  0  0
 10  6  1  0  0  0  0
 11 10  2  0  0  0  0
 11  1  1  0  0  0  0
 14 10  1  0  0  0  0
 15 11  1  0  0  0  0
 16 19  1  0  0  0  0
 16 20  1  0  0  0  0
 17 16  1  0  0  0  0
 18 16  1  0  0  0  0
M  RAD  2   2   2   3   3
M  END
