Coordinates from ORCA-job 4-NO2PhN2+~BF4-_B3LYPG-6-31G_dp-NX-Scan-d89-09-n800
 OpenBabel11261920323D

 20 19  0  0  0  0  0  0  0  0999 V2000
   -2.1306    0.2032    0.3553 C   0  0  0  0  0  0  0  0  0  0  0  0
   -3.3049   -0.5076    0.1016 N   0  0  0  0  0  0  0  0  0  0  0  0
   -4.1909   -1.1755    0.0619 N   0  0  0  0  0  0  0  0  0  0  0  0
   -1.7732    0.3300    1.7075 C   0  0  0  0  0  0  0  0  0  0  0  0
   -0.5933    0.9994    1.9983 C   0  0  0  0  0  0  0  0  0  0  0  0
    0.1678    1.4978    0.9406 C   0  0  0  0  0  0  0  0  0  0  0  0
    1.4324    2.2059    1.2635 N   0  0  0  0  0  0  0  0  0  0  0  0
    1.7255    2.3074    2.4508 O   0  0  0  0  0  0  0  0  0  0  0  0
    2.0891    2.6322    0.3210 O   0  0  0  0  0  0  0  0  0  0  0  0
   -0.1975    1.3630   -0.3970 C   0  0  0  0  0  0  0  0  0  0  0  0
   -1.3805    0.7052   -0.7152 C   0  0  0  0  0  0  0  0  0  0  0  0
   -2.4018   -0.0738    2.4924 H   0  0  0  0  0  0  0  0  0  0  0  0
   -0.2557    1.1398    3.0171 H   0  0  0  0  0  0  0  0  0  0  0  0
    0.4359    1.7790   -1.1702 H   0  0  0  0  0  0  0  0  0  0  0  0
   -1.7511    0.5602   -1.7256 H   0  0  0  0  0  0  0  0  0  0  0  0
   -4.3914    0.8203   -2.3119 B   0  0  0  0  0  0  0  0  0  0  0  0
   -5.6013    0.1702   -2.1155 F   0  0  0  0  0  0  0  0  0  0  0  0
   -3.3612   -0.1828   -2.4811 F   0  0  0  0  0  0  0  0  0  0  0  0
   -4.3880    1.6882   -3.3713 F   0  0  0  0  0  0  0  0  0  0  0  0
   -4.0360    1.5040   -1.0962 F   0  0  0  0  0  0  0  0  0  0  0  0
  1  4  2  0  0  0  0
  2  1  1  0  0  0  0
  3  2  1  0  0  0  0
  4  5  1  0  0  0  0
  4 12  1  0  0  0  0
  5 13  1  0  0  0  0
  6  7  1  0  0  0  0
  6  5  2  0  0  0  0
  7  8  2  0  0  0  0
  9  7  2  0  0  0  0
 10  6  1  0  0  0  0
 11 10  2  0  0  0  0
 11  1  1  0  0  0  0
 14 10  1  0  0  0  0
 15 11  1  0  0  0  0
 16 17  1  0  0  0  0
 16 20  1  0  0  0  0
 18 16  1  0  0  0  0
 19 16  1  0  0  0  0
M  RAD  2   2   2   3   3
M  END
