Coordinates from ORCA-job 4-NO2PhN2+~BF4-_B3LYPG-6-31G_dp-NX-Scan-d89-09-n800
 OpenBabel11261920313D

 20 19  0  0  0  0  0  0  0  0999 V2000
   -1.7422   -1.2102    0.1148 C   0  0  0  0  0  0  0  0  0  0  0  0
   -2.2176   -2.4869    0.1333 N   0  0  0  0  0  0  0  0  0  0  0  0
   -2.5764   -3.5490    0.1653 N   0  0  0  0  0  0  0  0  0  0  0  0
   -2.3783   -0.2315    0.9175 C   0  0  0  0  0  0  0  0  0  0  0  0
   -1.8164    1.0292    0.9623 C   0  0  0  0  0  0  0  0  0  0  0  0
   -0.6998    1.2901    0.1658 C   0  0  0  0  0  0  0  0  0  0  0  0
   -0.0218    2.6053    0.2916 N   0  0  0  0  0  0  0  0  0  0  0  0
   -0.2878    3.2604    1.2869 O   0  0  0  0  0  0  0  0  0  0  0  0
    0.7950    2.8868   -0.5771 O   0  0  0  0  0  0  0  0  0  0  0  0
   -0.0994    0.3370   -0.6669 C   0  0  0  0  0  0  0  0  0  0  0  0
   -0.6119   -0.9426   -0.6983 C   0  0  0  0  0  0  0  0  0  0  0  0
   -3.2820   -0.4647    1.4673 H   0  0  0  0  0  0  0  0  0  0  0  0
   -2.2929    1.8496    1.4905 H   0  0  0  0  0  0  0  0  0  0  0  0
    0.7543    0.6240   -1.2679 H   0  0  0  0  0  0  0  0  0  0  0  0
   -0.1704   -1.7230   -1.3069 H   0  0  0  0  0  0  0  0  0  0  0  0
   -3.4843    2.9577   -0.6420 B   0  0  0  0  0  0  0  0  0  0  0  0
   -4.1990    3.8816   -1.3674 F   0  0  0  0  0  0  0  0  0  0  0  0
   -4.0485    1.6632   -0.7002 F   0  0  0  0  0  0  0  0  0  0  0  0
   -2.1438    2.8527   -1.1621 F   0  0  0  0  0  0  0  0  0  0  0  0
   -3.3831    3.3363    0.7192 F   0  0  0  0  0  0  0  0  0  0  0  0
  1  2  1  0  0  0  0
  1  4  2  0  0  0  0
  2  3  1  0  0  0  0
  4  5  1  0  0  0  0
  4 12  1  0  0  0  0
  5 13  1  0  0  0  0
  6  7  1  0  0  0  0
  6  5  2  0  0  0  0
  7  8  2  0  0  0  0
  9  7  2  0  0  0  0
 10  6  1  0  0  0  0
 11 10  2  0  0  0  0
 11  1  1  0  0  0  0
 14 10  1  0  0  0  0
 15 11  1  0  0  0  0
 16 20  1  0  0  0  0
 17 16  1  0  0  0  0
 18 16  1  0  0  0  0
 19 16  1  0  0  0  0
M  RAD  2   2   2   3   3
M  END
