Coordinates from ORCA-job 4-NO2PhN2+~BF4-_B3LYPG-6-31G_dp-NX-Scan-d89-09-n800
 OpenBabel11261920323D

 20 19  0  0  0  0  0  0  0  0999 V2000
   -2.1296   -0.0104    0.3417 C   0  0  0  0  0  0  0  0  0  0  0  0
   -3.2166   -0.8583    0.1602 N   0  0  0  0  0  0  0  0  0  0  0  0
   -4.0270   -1.6163    0.1372 N   0  0  0  0  0  0  0  0  0  0  0  0
   -1.8202    0.3265    1.6719 C   0  0  0  0  0  0  0  0  0  0  0  0
   -0.7051    1.1185    1.8879 C   0  0  0  0  0  0  0  0  0  0  0  0
    0.0469    1.5276    0.7832 C   0  0  0  0  0  0  0  0  0  0  0  0
    1.2493    2.3634    1.0295 N   0  0  0  0  0  0  0  0  0  0  0  0
    1.4980    2.6497    2.1967 O   0  0  0  0  0  0  0  0  0  0  0  0
    1.9130    2.6886    0.0524 O   0  0  0  0  0  0  0  0  0  0  0  0
   -0.2722    1.1937   -0.5281 C   0  0  0  0  0  0  0  0  0  0  0  0
   -1.3941    0.4074   -0.7746 C   0  0  0  0  0  0  0  0  0  0  0  0
   -2.4395   -0.0168    2.4920 H   0  0  0  0  0  0  0  0  0  0  0  0
   -0.4070    1.4220    2.8828 H   0  0  0  0  0  0  0  0  0  0  0  0
    0.3404    1.5594   -1.3419 H   0  0  0  0  0  0  0  0  0  0  0  0
   -1.7348    0.1438   -1.7669 H   0  0  0  0  0  0  0  0  0  0  0  0
   -4.1911    1.0446   -2.0075 B   0  0  0  0  0  0  0  0  0  0  0  0
   -5.2576    1.3209   -2.8177 F   0  0  0  0  0  0  0  0  0  0  0  0
   -3.6758   -0.2834   -2.2639 F   0  0  0  0  0  0  0  0  0  0  0  0
   -3.1250    1.9402   -2.1823 F   0  0  0  0  0  0  0  0  0  0  0  0
   -4.5585    1.0449   -0.6270 F   0  0  0  0  0  0  0  0  0  0  0  0
  1  4  2  0  0  0  0
  2  1  1  0  0  0  0
  3  2  1  0  0  0  0
  4  5  1  0  0  0  0
  4 12  1  0  0  0  0
  5 13  1  0  0  0  0
  6  7  1  0  0  0  0
  6  5  2  0  0  0  0
  7  8  2  0  0  0  0
  9  7  2  0  0  0  0
 10  6  1  0  0  0  0
 11 10  2  0  0  0  0
 11  1  1  0  0  0  0
 14 10  1  0  0  0  0
 15 11  1  0  0  0  0
 16 20  1  0  0  0  0
 17 16  1  0  0  0  0
 18 16  1  0  0  0  0
 19 16  1  0  0  0  0
M  RAD  2   2   2   3   3
M  END
