Coordinates from ORCA-job 4-NO2PhN2+~BF4-_B3LYPG-6-31G_dp-NX-Scan-d89-09-n800
 OpenBabel11261920313D

 20 19  0  0  0  0  0  0  0  0999 V2000
   -1.8856   -1.0395    0.1382 C   0  0  0  0  0  0  0  0  0  0  0  0
   -2.4010   -2.2979    0.1204 N   0  0  0  0  0  0  0  0  0  0  0  0
   -2.7778   -3.3551    0.1305 N   0  0  0  0  0  0  0  0  0  0  0  0
   -2.2833   -0.1619    1.1738 C   0  0  0  0  0  0  0  0  0  0  0  0
   -1.6643    1.0694    1.2481 C   0  0  0  0  0  0  0  0  0  0  0  0
   -0.7089    1.3983    0.2824 C   0  0  0  0  0  0  0  0  0  0  0  0
    0.0731    2.6492    0.4666 N   0  0  0  0  0  0  0  0  0  0  0  0
   -0.1754    3.3122    1.4638 O   0  0  0  0  0  0  0  0  0  0  0  0
    0.9406    2.8847   -0.3644 O   0  0  0  0  0  0  0  0  0  0  0  0
   -0.3411    0.5427   -0.7636 C   0  0  0  0  0  0  0  0  0  0  0  0
   -0.9365   -0.6945   -0.8569 C   0  0  0  0  0  0  0  0  0  0  0  0
   -3.0441   -0.4564    1.8870 H   0  0  0  0  0  0  0  0  0  0  0  0
   -1.9320    1.7976    1.9994 H   0  0  0  0  0  0  0  0  0  0  0  0
    0.3943    0.8787   -1.4829 H   0  0  0  0  0  0  0  0  0  0  0  0
   -0.6850   -1.3934   -1.6460 H   0  0  0  0  0  0  0  0  0  0  0  0
   -3.3362    2.5777   -0.9066 B   0  0  0  0  0  0  0  0  0  0  0  0
   -4.0989    3.4365   -1.6641 F   0  0  0  0  0  0  0  0  0  0  0  0
   -3.4735    1.2258   -1.2971 F   0  0  0  0  0  0  0  0  0  0  0  0
   -1.9384    2.9153   -1.0701 F   0  0  0  0  0  0  0  0  0  0  0  0
   -3.6325    2.6768    0.4675 F   0  0  0  0  0  0  0  0  0  0  0  0
  1  4  2  0  0  0  0
  2  3  1  0  0  0  0
  2  1  1  0  0  0  0
  4  5  1  0  0  0  0
  4 12  1  0  0  0  0
  5 13  1  0  0  0  0
  6  7  1  0  0  0  0
  6  5  2  0  0  0  0
  7  8  2  0  0  0  0
  9  7  2  0  0  0  0
 10  6  1  0  0  0  0
 11 10  2  0  0  0  0
 11  1  1  0  0  0  0
 14 10  1  0  0  0  0
 15 11  1  0  0  0  0
 16 20  1  0  0  0  0
 17 16  1  0  0  0  0
 18 16  1  0  0  0  0
 19 16  1  0  0  0  0
M  RAD  2   2   2   3   3
M  END
