Coordinates from ORCA-job 4-NO2PhN2+~BF4-_B3LYPG-6-31G_dp-NX-Scan-d89-09-n800
 OpenBabel11261920323D

 20 19  0  0  0  0  0  0  0  0999 V2000
   -1.9341   -0.5936   -0.0154 C   0  0  0  0  0  0  0  0  0  0  0  0
   -2.7178   -1.6998   -0.2233 N   0  0  0  0  0  0  0  0  0  0  0  0
   -3.2649   -2.6646   -0.3554 N   0  0  0  0  0  0  0  0  0  0  0  0
   -2.2486    0.2552    1.0590 C   0  0  0  0  0  0  0  0  0  0  0  0
   -1.3753    1.3080    1.3082 C   0  0  0  0  0  0  0  0  0  0  0  0
   -0.2736    1.4737    0.4824 C   0  0  0  0  0  0  0  0  0  0  0  0
    0.6507    2.5994    0.7620 N   0  0  0  0  0  0  0  0  0  0  0  0
    0.4059    3.2934    1.7419 O   0  0  0  0  0  0  0  0  0  0  0  0
    1.6020    2.7406   -0.0003 O   0  0  0  0  0  0  0  0  0  0  0  0
    0.0120    0.6482   -0.6112 C   0  0  0  0  0  0  0  0  0  0  0  0
   -0.8303   -0.4099   -0.8780 C   0  0  0  0  0  0  0  0  0  0  0  0
   -3.1454    0.1107    1.6433 H   0  0  0  0  0  0  0  0  0  0  0  0
   -1.5694    2.0143    2.1038 H   0  0  0  0  0  0  0  0  0  0  0  0
    0.8753    0.8570   -1.2291 H   0  0  0  0  0  0  0  0  0  0  0  0
   -0.6648   -1.0768   -1.7154 H   0  0  0  0  0  0  0  0  0  0  0  0
   -3.9054    1.8464   -0.9751 B   0  0  0  0  0  0  0  0  0  0  0  0
   -4.7207    2.7623   -1.6051 F   0  0  0  0  0  0  0  0  0  0  0  0
   -4.2569    0.4931   -1.2632 F   0  0  0  0  0  0  0  0  0  0  0  0
   -2.5529    2.0165   -1.3488 F   0  0  0  0  0  0  0  0  0  0  0  0
   -3.9922    1.9920    0.4457 F   0  0  0  0  0  0  0  0  0  0  0  0
  1  4  2  0  0  0  0
  2  1  1  0  0  0  0
  3  2  1  0  0  0  0
  4  5  1  0  0  0  0
  4 12  1  0  0  0  0
  5 13  1  0  0  0  0
  6  7  1  0  0  0  0
  6  5  2  0  0  0  0
  7  8  2  0  0  0  0
  9  7  2  0  0  0  0
 10  6  1  0  0  0  0
 11 10  2  0  0  0  0
 11  1  1  0  0  0  0
 14 10  1  0  0  0  0
 15 11  1  0  0  0  0
 16 20  1  0  0  0  0
 17 16  1  0  0  0  0
 18 16  1  0  0  0  0
 19 16  1  0  0  0  0
M  RAD  2   2   2   3   3
M  END
