Coordinates from ORCA-job 4-NO2PhN2+~BF4-_B3LYPG-6-31G_dp-NX-Scan-d89-09-n800
 OpenBabel11261920313D

 20 19  0  0  0  0  0  0  0  0999 V2000
   -1.8952   -1.0143    0.1368 C   0  0  0  0  0  0  0  0  0  0  0  0
   -2.4418   -2.2585    0.1009 N   0  0  0  0  0  0  0  0  0  0  0  0
   -2.8509   -3.3034    0.0913 N   0  0  0  0  0  0  0  0  0  0  0  0
   -2.2749   -0.1417    1.1827 C   0  0  0  0  0  0  0  0  0  0  0  0
   -1.6393    1.0806    1.2637 C   0  0  0  0  0  0  0  0  0  0  0  0
   -0.6863    1.4050    0.2948 C   0  0  0  0  0  0  0  0  0  0  0  0
    0.0956    2.6565    0.4711 N   0  0  0  0  0  0  0  0  0  0  0  0
   -0.1441    3.3201    1.4704 O   0  0  0  0  0  0  0  0  0  0  0  0
    0.9530    2.8946   -0.3696 O   0  0  0  0  0  0  0  0  0  0  0  0
   -0.3301    0.5516   -0.7565 C   0  0  0  0  0  0  0  0  0  0  0  0
   -0.9431   -0.6764   -0.8573 C   0  0  0  0  0  0  0  0  0  0  0  0
   -3.0395   -0.4300    1.8942 H   0  0  0  0  0  0  0  0  0  0  0  0
   -1.8949    1.8062    2.0217 H   0  0  0  0  0  0  0  0  0  0  0  0
    0.4057    0.8840   -1.4771 H   0  0  0  0  0  0  0  0  0  0  0  0
   -0.7057   -1.3719   -1.6535 H   0  0  0  0  0  0  0  0  0  0  0  0
   -3.3416    2.5241   -0.9107 B   0  0  0  0  0  0  0  0  0  0  0  0
   -4.1238    3.3571   -1.6763 F   0  0  0  0  0  0  0  0  0  0  0  0
   -3.4174    1.1709   -1.3208 F   0  0  0  0  0  0  0  0  0  0  0  0
   -1.9579    2.9204   -1.0375 F   0  0  0  0  0  0  0  0  0  0  0  0
   -3.6743    2.5913    0.4575 F   0  0  0  0  0  0  0  0  0  0  0  0
  1  4  2  0  0  0  0
  2  1  1  0  0  0  0
  3  2  1  0  0  0  0
  4  5  1  0  0  0  0
  4 12  1  0  0  0  0
  5 13  1  0  0  0  0
  6  7  1  0  0  0  0
  6  5  2  0  0  0  0
  7  8  2  0  0  0  0
  9  7  2  0  0  0  0
 10  6  1  0  0  0  0
 11 10  2  0  0  0  0
 11  1  1  0  0  0  0
 14 10  1  0  0  0  0
 15 11  1  0  0  0  0
 16 20  1  0  0  0  0
 17 16  1  0  0  0  0
 18 16  1  0  0  0  0
 19 16  1  0  0  0  0
M  RAD  2   2   2   3   3
M  END
