Coordinates from ORCA-job 4-NO2PhN2+~BF4-_B3LYPG-6-31G_dp-NX-Scan-d89-09-n800
 OpenBabel11261920323D

 20 19  0  0  0  0  0  0  0  0999 V2000
   -2.1303    0.1876    0.3586 C   0  0  0  0  0  0  0  0  0  0  0  0
   -3.2950   -0.5432    0.1133 N   0  0  0  0  0  0  0  0  0  0  0  0
   -4.1634   -1.2341    0.0891 N   0  0  0  0  0  0  0  0  0  0  0  0
   -1.7726    0.3303    1.7090 C   0  0  0  0  0  0  0  0  0  0  0  0
   -0.5971    1.0112    1.9919 C   0  0  0  0  0  0  0  0  0  0  0  0
    0.1605    1.5030    0.9288 C   0  0  0  0  0  0  0  0  0  0  0  0
    1.4225    2.2195    1.2429 N   0  0  0  0  0  0  0  0  0  0  0  0
    1.7125    2.3415    2.4290 O   0  0  0  0  0  0  0  0  0  0  0  0
    2.0806    2.6312    0.2949 O   0  0  0  0  0  0  0  0  0  0  0  0
   -0.2065    1.3543   -0.4070 C   0  0  0  0  0  0  0  0  0  0  0  0
   -1.3861    0.6870   -0.7170 C   0  0  0  0  0  0  0  0  0  0  0  0
   -2.3973   -0.0701    2.4986 H   0  0  0  0  0  0  0  0  0  0  0  0
   -0.2599    1.1645    3.0089 H   0  0  0  0  0  0  0  0  0  0  0  0
    0.4226    1.7673   -1.1852 H   0  0  0  0  0  0  0  0  0  0  0  0
   -1.7593    0.5350   -1.7254 H   0  0  0  0  0  0  0  0  0  0  0  0
   -4.3846    0.8374   -2.2984 B   0  0  0  0  0  0  0  0  0  0  0  0
   -5.6357    0.2540   -2.2551 F   0  0  0  0  0  0  0  0  0  0  0  0
   -3.3901   -0.2100   -2.4359 F   0  0  0  0  0  0  0  0  0  0  0  0
   -4.2263    1.7636   -3.2977 F   0  0  0  0  0  0  0  0  0  0  0  0
   -4.1010    1.4363   -1.0175 F   0  0  0  0  0  0  0  0  0  0  0  0
  1  4  2  0  0  0  0
  2  1  1  0  0  0  0
  3  2  1  0  0  0  0
  4  5  1  0  0  0  0
  4 12  1  0  0  0  0
  5 13  1  0  0  0  0
  6  7  1  0  0  0  0
  6  5  2  0  0  0  0
  7  8  2  0  0  0  0
  9  7  2  0  0  0  0
 10  6  1  0  0  0  0
 11 10  2  0  0  0  0
 11  1  1  0  0  0  0
 14 10  1  0  0  0  0
 15 11  1  0  0  0  0
 16 17  1  0  0  0  0
 16 20  1  0  0  0  0
 18 16  1  0  0  0  0
 19 16  1  0  0  0  0
M  RAD  2   2   2   3   3
M  END
