Coordinates from ORCA-job 4-NO2PhN2+~BF4-_B3LYPG-6-31G_dp-NX-Scan-d89-09-n800
 OpenBabel11261920323D

 20 19  0  0  0  0  0  0  0  0999 V2000
   -2.1573    0.2673    0.3986 C   0  0  0  0  0  0  0  0  0  0  0  0
   -3.3597   -0.3850    0.1357 N   0  0  0  0  0  0  0  0  0  0  0  0
   -4.3105   -0.9482   -0.0092 N   0  0  0  0  0  0  0  0  0  0  0  0
   -1.7694    0.3460    1.7465 C   0  0  0  0  0  0  0  0  0  0  0  0
   -0.5667    0.9738    2.0347 C   0  0  0  0  0  0  0  0  0  0  0  0
    0.1917    1.4760    0.9762 C   0  0  0  0  0  0  0  0  0  0  0  0
    1.4812    2.1398    1.2944 N   0  0  0  0  0  0  0  0  0  0  0  0
    1.7969    2.2040    2.4786 O   0  0  0  0  0  0  0  0  0  0  0  0
    2.1345    2.5712    0.3517 O   0  0  0  0  0  0  0  0  0  0  0  0
   -0.1983    1.3838   -0.3574 C   0  0  0  0  0  0  0  0  0  0  0  0
   -1.4070    0.7704   -0.6724 C   0  0  0  0  0  0  0  0  0  0  0  0
   -2.3958   -0.0622    2.5310 H   0  0  0  0  0  0  0  0  0  0  0  0
   -0.2076    1.0782    3.0504 H   0  0  0  0  0  0  0  0  0  0  0  0
    0.4365    1.7969   -1.1309 H   0  0  0  0  0  0  0  0  0  0  0  0
   -1.7897    0.6661   -1.6849 H   0  0  0  0  0  0  0  0  0  0  0  0
   -4.3763    0.7619   -2.4012 B   0  0  0  0  0  0  0  0  0  0  0  0
   -5.3132   -0.1776   -1.8843 F   0  0  0  0  0  0  0  0  0  0  0  0
   -3.2117    0.0272   -2.7731 F   0  0  0  0  0  0  0  0  0  0  0  0
   -4.8879    1.4755   -3.4444 F   0  0  0  0  0  0  0  0  0  0  0  0
   -3.9962    1.6009   -1.3140 F   0  0  0  0  0  0  0  0  0  0  0  0
  1  4  2  0  0  0  0
  2  1  1  0  0  0  0
  3  2  1  0  0  0  0
  4  5  1  0  0  0  0
  4 12  1  0  0  0  0
  5 13  1  0  0  0  0
  6  7  1  0  0  0  0
  6  5  2  0  0  0  0
  7  8  2  0  0  0  0
  9  7  2  0  0  0  0
 10  6  1  0  0  0  0
 11 10  2  0  0  0  0
 11  1  1  0  0  0  0
 14 10  1  0  0  0  0
 15 11  1  0  0  0  0
 16 17  1  0  0  0  0
 16 20  1  0  0  0  0
 18 16  1  0  0  0  0
 19 16  1  0  0  0  0
M  RAD  2   2   2   3   3
M  END
