Coordinates from ORCA-job 4-NO2PhN2+~BF4-_B3LYPG-6-31G_dp-NX-Scan-d89-09-n800
 OpenBabel11261920323D

 20 19  0  0  0  0  0  0  0  0999 V2000
   -1.9524   -0.7545    0.1134 C   0  0  0  0  0  0  0  0  0  0  0  0
   -2.7372   -1.8542   -0.0519 N   0  0  0  0  0  0  0  0  0  0  0  0
   -3.3510   -2.7818   -0.1748 N   0  0  0  0  0  0  0  0  0  0  0  0
   -2.2246    0.0966    1.2030 C   0  0  0  0  0  0  0  0  0  0  0  0
   -1.4056    1.2028    1.3634 C   0  0  0  0  0  0  0  0  0  0  0  0
   -0.4178    1.4415    0.4180 C   0  0  0  0  0  0  0  0  0  0  0  0
    0.4165    2.6578    0.5715 N   0  0  0  0  0  0  0  0  0  0  0  0
    0.2180    3.3479    1.5638 O   0  0  0  0  0  0  0  0  0  0  0  0
    1.2565    2.8673   -0.2967 O   0  0  0  0  0  0  0  0  0  0  0  0
   -0.1539    0.6009   -0.6696 C   0  0  0  0  0  0  0  0  0  0  0  0
   -0.9348   -0.5196   -0.8413 C   0  0  0  0  0  0  0  0  0  0  0  0
   -3.0504   -0.1014    1.8721 H   0  0  0  0  0  0  0  0  0  0  0  0
   -1.5769    1.9179    2.1562 H   0  0  0  0  0  0  0  0  0  0  0  0
    0.6262    0.8657   -1.3708 H   0  0  0  0  0  0  0  0  0  0  0  0
   -0.8019   -1.1887   -1.6824 H   0  0  0  0  0  0  0  0  0  0  0  0
   -3.5811    2.0553   -0.9901 B   0  0  0  0  0  0  0  0  0  0  0  0
   -4.5155    2.8320   -1.6346 F   0  0  0  0  0  0  0  0  0  0  0  0
   -3.3404    0.8334   -1.6811 F   0  0  0  0  0  0  0  0  0  0  0  0
   -2.3511    2.7465   -0.8634 F   0  0  0  0  0  0  0  0  0  0  0  0
   -4.0292    1.7008    0.3212 F   0  0  0  0  0  0  0  0  0  0  0  0
  1  4  2  0  0  0  0
  2  1  1  0  0  0  0
  3  2  1  0  0  0  0
  4  5  1  0  0  0  0
  4 12  1  0  0  0  0
  5 13  1  0  0  0  0
  6  7  1  0  0  0  0
  6  5  2  0  0  0  0
  7  8  2  0  0  0  0
  9  7  2  0  0  0  0
 10  6  1  0  0  0  0
 11 10  2  0  0  0  0
 11  1  1  0  0  0  0
 14 10  1  0  0  0  0
 15 11  1  0  0  0  0
 16 19  1  0  0  0  0
 16 20  1  0  0  0  0
 17 16  1  0  0  0  0
 18 16  1  0  0  0  0
M  RAD  2   2   2   3   3
M  END
