Coordinates from ORCA-job 4-NO2PhN2+~BF4-_B3LYPG-6-31G_dp-NX-Scan-d89-09-n800
 OpenBabel11261920313D

 20 19  0  0  0  0  0  0  0  0999 V2000
   -1.8904   -1.0238    0.1358 C   0  0  0  0  0  0  0  0  0  0  0  0
   -2.4285   -2.2718    0.1034 N   0  0  0  0  0  0  0  0  0  0  0  0
   -2.8302   -3.3198    0.0973 N   0  0  0  0  0  0  0  0  0  0  0  0
   -2.2782   -0.1496    1.1775 C   0  0  0  0  0  0  0  0  0  0  0  0
   -1.6485    1.0760    1.2577 C   0  0  0  0  0  0  0  0  0  0  0  0
   -0.6939    1.4024    0.2909 C   0  0  0  0  0  0  0  0  0  0  0  0
    0.0850    2.6557    0.4694 N   0  0  0  0  0  0  0  0  0  0  0  0
   -0.1615    3.3206    1.4660 O   0  0  0  0  0  0  0  0  0  0  0  0
    0.9473    2.8933   -0.3665 O   0  0  0  0  0  0  0  0  0  0  0  0
   -0.3307    0.5479   -0.7573 C   0  0  0  0  0  0  0  0  0  0  0  0
   -0.9367   -0.6837   -0.8563 C   0  0  0  0  0  0  0  0  0  0  0  0
   -3.0430   -0.4401    1.8879 H   0  0  0  0  0  0  0  0  0  0  0  0
   -1.9103    1.8027    2.0123 H   0  0  0  0  0  0  0  0  0  0  0  0
    0.4061    0.8818   -1.4761 H   0  0  0  0  0  0  0  0  0  0  0  0
   -0.6926   -1.3805   -1.6494 H   0  0  0  0  0  0  0  0  0  0  0  0
   -3.3392    2.5426   -0.9059 B   0  0  0  0  0  0  0  0  0  0  0  0
   -4.1170    3.3799   -1.6715 F   0  0  0  0  0  0  0  0  0  0  0  0
   -3.4491    1.1852   -1.2919 F   0  0  0  0  0  0  0  0  0  0  0  0
   -1.9493    2.9073   -1.0635 F   0  0  0  0  0  0  0  0  0  0  0  0
   -3.6459    2.6400    0.4661 F   0  0  0  0  0  0  0  0  0  0  0  0
  1  4  2  0  0  0  0
  2  1  1  0  0  0  0
  3  2  1  0  0  0  0
  4  5  1  0  0  0  0
  4 12  1  0  0  0  0
  5 13  1  0  0  0  0
  6  7  1  0  0  0  0
  6  5  2  0  0  0  0
  7  8  2  0  0  0  0
  9  7  2  0  0  0  0
 10  6  1  0  0  0  0
 11 10  2  0  0  0  0
 11  1  1  0  0  0  0
 14 10  1  0  0  0  0
 15 11  1  0  0  0  0
 16 20  1  0  0  0  0
 17 16  1  0  0  0  0
 18 16  1  0  0  0  0
 19 16  1  0  0  0  0
M  RAD  2   2   2   3   3
M  END
