Coordinates from ORCA-job 4-NO2PhN2+~BF4-_B3LYPG-6-31G_dp-NX-Scan-d89-09-n800
 OpenBabel11261920323D

 20 19  0  0  0  0  0  0  0  0999 V2000
   -1.9437   -0.5031   -0.0115 C   0  0  0  0  0  0  0  0  0  0  0  0
   -2.8109   -1.5376   -0.2745 N   0  0  0  0  0  0  0  0  0  0  0  0
   -3.4282   -2.4493   -0.4474 N   0  0  0  0  0  0  0  0  0  0  0  0
   -2.2123    0.3211    1.0921 C   0  0  0  0  0  0  0  0  0  0  0  0
   -1.2997    1.3348    1.3590 C   0  0  0  0  0  0  0  0  0  0  0  0
   -0.2048    1.4893    0.5194 C   0  0  0  0  0  0  0  0  0  0  0  0
    0.7608    2.5760    0.8163 N   0  0  0  0  0  0  0  0  0  0  0  0
    0.5454    3.2588    1.8112 O   0  0  0  0  0  0  0  0  0  0  0  0
    1.7111    2.7015    0.0502 O   0  0  0  0  0  0  0  0  0  0  0  0
    0.0382    0.6837   -0.5969 C   0  0  0  0  0  0  0  0  0  0  0  0
   -0.8482   -0.3361   -0.8813 C   0  0  0  0  0  0  0  0  0  0  0  0
   -3.1065    0.1892    1.6830 H   0  0  0  0  0  0  0  0  0  0  0  0
   -1.4495    2.0172    2.1849 H   0  0  0  0  0  0  0  0  0  0  0  0
    0.9009    0.8770   -1.2205 H   0  0  0  0  0  0  0  0  0  0  0  0
   -0.7218   -0.9790   -1.7438 H   0  0  0  0  0  0  0  0  0  0  0  0
   -3.9854    1.6953   -1.0241 B   0  0  0  0  0  0  0  0  0  0  0  0
   -4.8521    2.5141   -1.7089 F   0  0  0  0  0  0  0  0  0  0  0  0
   -4.2438    0.3034   -1.2837 F   0  0  0  0  0  0  0  0  0  0  0  0
   -2.6424    1.9404   -1.3805 F   0  0  0  0  0  0  0  0  0  0  0  0
   -4.1134    1.8695    0.3827 F   0  0  0  0  0  0  0  0  0  0  0  0
  1  4  2  0  0  0  0
  2  1  1  0  0  0  0
  3  2  1  0  0  0  0
  4  5  1  0  0  0  0
  4 12  1  0  0  0  0
  5 13  1  0  0  0  0
  6  7  1  0  0  0  0
  6  5  2  0  0  0  0
  7  8  2  0  0  0  0
  9  7  2  0  0  0  0
 10  6  1  0  0  0  0
 11 10  2  0  0  0  0
 11  1  1  0  0  0  0
 14 10  1  0  0  0  0
 15 11  1  0  0  0  0
 16 20  1  0  0  0  0
 17 16  1  0  0  0  0
 18 16  1  0  0  0  0
 19 16  1  0  0  0  0
M  RAD  2   2   2   3   3
M  END
