Coordinates from ORCA-job 4-NO2PhN2+~BF4-_B3LYPG-6-31G_dp-NX-Scan-d89-09-n800
 OpenBabel11261920323D

 20 19  0  0  0  0  0  0  0  0999 V2000
   -1.9371   -0.8135    0.1249 C   0  0  0  0  0  0  0  0  0  0  0  0
   -2.7081   -1.9216   -0.0383 N   0  0  0  0  0  0  0  0  0  0  0  0
   -3.3201   -2.8505   -0.1637 N   0  0  0  0  0  0  0  0  0  0  0  0
   -2.2250    0.0412    1.2085 C   0  0  0  0  0  0  0  0  0  0  0  0
   -1.4403    1.1716    1.3520 C   0  0  0  0  0  0  0  0  0  0  0  0
   -0.4679    1.4319    0.3940 C   0  0  0  0  0  0  0  0  0  0  0  0
    0.3280    2.6762    0.5266 N   0  0  0  0  0  0  0  0  0  0  0  0
    0.1211    3.3658    1.5171 O   0  0  0  0  0  0  0  0  0  0  0  0
    1.1501    2.9042   -0.3534 O   0  0  0  0  0  0  0  0  0  0  0  0
   -0.1779    0.5812   -0.6784 C   0  0  0  0  0  0  0  0  0  0  0  0
   -0.9259   -0.5639   -0.8334 C   0  0  0  0  0  0  0  0  0  0  0  0
   -3.0470   -0.1677    1.8798 H   0  0  0  0  0  0  0  0  0  0  0  0
   -1.6315    1.8934    2.1338 H   0  0  0  0  0  0  0  0  0  0  0  0
    0.5918    0.8603   -1.3857 H   0  0  0  0  0  0  0  0  0  0  0  0
   -0.7741   -1.2407   -1.6652 H   0  0  0  0  0  0  0  0  0  0  0  0
   -3.5093    2.1386   -0.9566 B   0  0  0  0  0  0  0  0  0  0  0  0
   -4.4183    2.9085   -1.6425 F   0  0  0  0  0  0  0  0  0  0  0  0
   -3.2838    0.8901   -1.6034 F   0  0  0  0  0  0  0  0  0  0  0  0
   -2.2617    2.8135   -0.8500 F   0  0  0  0  0  0  0  0  0  0  0  0
   -3.9695    1.8476    0.3598 F   0  0  0  0  0  0  0  0  0  0  0  0
  1  4  2  0  0  0  0
  2  1  1  0  0  0  0
  3  2  1  0  0  0  0
  4  5  1  0  0  0  0
  4 12  1  0  0  0  0
  5 13  1  0  0  0  0
  6  7  1  0  0  0  0
  6  5  2  0  0  0  0
  7  8  2  0  0  0  0
  9  7  2  0  0  0  0
 10  6  1  0  0  0  0
 11 10  2  0  0  0  0
 11  1  1  0  0  0  0
 14 10  1  0  0  0  0
 15 11  1  0  0  0  0
 16 19  1  0  0  0  0
 16 20  1  0  0  0  0
 17 16  1  0  0  0  0
 18 16  1  0  0  0  0
M  RAD  2   2   2   3   3
M  END
