Coordinates from ORCA-job 4-NO2PhN2+~BF4-_B3LYPG-6-31G_dp-NX-Scan-d89-09-n800
 OpenBabel11261920313D

 20 19  0  0  0  0  0  0  0  0999 V2000
   -1.6602   -1.3402    0.1365 C   0  0  0  0  0  0  0  0  0  0  0  0
   -2.0431   -2.6461    0.2522 N   0  0  0  0  0  0  0  0  0  0  0  0
   -2.3110   -3.7298    0.3599 N   0  0  0  0  0  0  0  0  0  0  0  0
   -2.4259   -0.3277    0.7708 C   0  0  0  0  0  0  0  0  0  0  0  0
   -1.9425    0.9683    0.7398 C   0  0  0  0  0  0  0  0  0  0  0  0
   -0.7445    1.2108    0.0589 C   0  0  0  0  0  0  0  0  0  0  0  0
   -0.1088    2.5469    0.1586 N   0  0  0  0  0  0  0  0  0  0  0  0
   -0.3343    3.1690    1.1833 O   0  0  0  0  0  0  0  0  0  0  0  0
    0.6521    2.8597   -0.7485 O   0  0  0  0  0  0  0  0  0  0  0  0
   -0.0269    0.2248   -0.6292 C   0  0  0  0  0  0  0  0  0  0  0  0
   -0.4706   -1.0819   -0.5881 C   0  0  0  0  0  0  0  0  0  0  0  0
   -3.3613   -0.5654    1.2639 H   0  0  0  0  0  0  0  0  0  0  0  0
   -2.4903    1.8103    1.1735 H   0  0  0  0  0  0  0  0  0  0  0  0
    0.8713    0.5027   -1.1669 H   0  0  0  0  0  0  0  0  0  0  0  0
    0.0707   -1.8867   -1.0716 H   0  0  0  0  0  0  0  0  0  0  0  0
   -3.5479    3.2730   -0.5305 B   0  0  0  0  0  0  0  0  0  0  0  0
   -4.1446    4.3948   -1.0621 F   0  0  0  0  0  0  0  0  0  0  0  0
   -4.2826    2.0940   -0.7425 F   0  0  0  0  0  0  0  0  0  0  0  0
   -2.2484    3.0731   -1.1099 F   0  0  0  0  0  0  0  0  0  0  0  0
   -3.3575    3.4164    0.8778 F   0  0  0  0  0  0  0  0  0  0  0  0
  1  2  1  0  0  0  0
  1  4  2  0  0  0  0
  2  3  1  0  0  0  0
  4 12  1  0  0  0  0
  5  4  1  0  0  0  0
  5 13  1  0  0  0  0
  6  7  1  0  0  0  0
  6  5  2  0  0  0  0
  7  8  2  0  0  0  0
  9  7  2  0  0  0  0
 10 11  2  0  0  0  0
 10  6  1  0  0  0  0
 11  1  1  0  0  0  0
 14 10  1  0  0  0  0
 15 11  1  0  0  0  0
 16 20  1  0  0  0  0
 17 16  1  0  0  0  0
 18 16  1  0  0  0  0
 19 16  1  0  0  0  0
M  RAD  2   2   2   3   3
M  END
