Coordinates from ORCA-job 4-NO2PhN2+~BF4-_B3LYPG-6-31G_dp-NX-Scan-d89-09-n800
 OpenBabel11261920323D

 20 19  0  0  0  0  0  0  0  0999 V2000
   -2.0253   -0.2994    0.1057 C   0  0  0  0  0  0  0  0  0  0  0  0
   -3.0279   -1.2241   -0.1405 N   0  0  0  0  0  0  0  0  0  0  0  0
   -3.7477   -2.0642   -0.2455 N   0  0  0  0  0  0  0  0  0  0  0  0
   -2.1086    0.4486    1.2871 C   0  0  0  0  0  0  0  0  0  0  0  0
   -1.0955    1.3631    1.5311 C   0  0  0  0  0  0  0  0  0  0  0  0
   -0.0815    1.5062    0.5865 C   0  0  0  0  0  0  0  0  0  0  0  0
    0.9953    2.4908    0.8564 N   0  0  0  0  0  0  0  0  0  0  0  0
    0.9314    3.1124    1.9117 O   0  0  0  0  0  0  0  0  0  0  0  0
    1.8747    2.6021    0.0087 O   0  0  0  0  0  0  0  0  0  0  0  0
   -0.0310    0.7855   -0.6053 C   0  0  0  0  0  0  0  0  0  0  0  0
   -1.0326   -0.1355   -0.8690 C   0  0  0  0  0  0  0  0  0  0  0  0
   -2.9575    0.3393    1.9478 H   0  0  0  0  0  0  0  0  0  0  0  0
   -1.0926    1.9789    2.4210 H   0  0  0  0  0  0  0  0  0  0  0  0
    0.7680    0.9713   -1.3110 H   0  0  0  0  0  0  0  0  0  0  0  0
   -1.0807   -0.6811   -1.8020 H   0  0  0  0  0  0  0  0  0  0  0  0
   -4.0611    1.3930   -1.2910 B   0  0  0  0  0  0  0  0  0  0  0  0
   -5.0166    2.1220   -1.9503 F   0  0  0  0  0  0  0  0  0  0  0  0
   -3.6292    0.2605   -2.0656 F   0  0  0  0  0  0  0  0  0  0  0  0
   -2.9247    2.1612   -0.9824 F   0  0  0  0  0  0  0  0  0  0  0  0
   -4.5635    0.8356   -0.0677 F   0  0  0  0  0  0  0  0  0  0  0  0
  1  4  2  0  0  0  0
  2  1  1  0  0  0  0
  3  2  1  0  0  0  0
  4  5  1  0  0  0  0
  4 12  1  0  0  0  0
  5 13  1  0  0  0  0
  6  7  1  0  0  0  0
  6  5  2  0  0  0  0
  7  8  2  0  0  0  0
  9  7  2  0  0  0  0
 10  6  1  0  0  0  0
 11 10  2  0  0  0  0
 11  1  1  0  0  0  0
 14 10  1  0  0  0  0
 15 11  1  0  0  0  0
 16 19  1  0  0  0  0
 16 20  1  0  0  0  0
 17 16  1  0  0  0  0
 18 16  1  0  0  0  0
M  RAD  2   2   2   3   3
M  END
