Coordinates from ORCA-job 4-NO2PhN2+~BF4-_B3LYPG-6-31G_dp-NX-Scan-d89-09-n800
 OpenBabel11261920313D

 20 19  0  0  0  0  0  0  0  0999 V2000
   -1.7005   -1.2770    0.1205 C   0  0  0  0  0  0  0  0  0  0  0  0
   -2.1298   -2.5702    0.1851 N   0  0  0  0  0  0  0  0  0  0  0  0
   -2.4444   -3.6442    0.2536 N   0  0  0  0  0  0  0  0  0  0  0  0
   -2.4093   -0.2776    0.8335 C   0  0  0  0  0  0  0  0  0  0  0  0
   -1.8870    1.0018    0.8437 C   0  0  0  0  0  0  0  0  0  0  0  0
   -0.7222    1.2500    0.1122 C   0  0  0  0  0  0  0  0  0  0  0  0
   -0.0674    2.5767    0.2258 N   0  0  0  0  0  0  0  0  0  0  0  0
   -0.3172    3.2154    1.2351 O   0  0  0  0  0  0  0  0  0  0  0  0
    0.7232    2.8750   -0.6611 O   0  0  0  0  0  0  0  0  0  0  0  0
   -0.0565    0.2771   -0.6437 C   0  0  0  0  0  0  0  0  0  0  0  0
   -0.5336   -1.0176   -0.6407 C   0  0  0  0  0  0  0  0  0  0  0  0
   -3.3352   -0.5100    1.3459 H   0  0  0  0  0  0  0  0  0  0  0  0
   -2.4040    1.8349    1.3197 H   0  0  0  0  0  0  0  0  0  0  0  0
    0.8241    0.5578   -1.2081 H   0  0  0  0  0  0  0  0  0  0  0  0
   -0.0364   -1.8137   -1.1825 H   0  0  0  0  0  0  0  0  0  0  0  0
   -3.5136    3.1188   -0.5769 B   0  0  0  0  0  0  0  0  0  0  0  0
   -4.1961    4.1241   -1.2225 F   0  0  0  0  0  0  0  0  0  0  0  0
   -4.1603    1.8677   -0.6645 F   0  0  0  0  0  0  0  0  0  0  0  0
   -2.2046    2.9555   -1.1501 F   0  0  0  0  0  0  0  0  0  0  0  0
   -3.3357    3.4217    0.8007 F   0  0  0  0  0  0  0  0  0  0  0  0
  1  2  1  0  0  0  0
  1  4  2  0  0  0  0
  2  3  1  0  0  0  0
  4  5  1  0  0  0  0
  4 12  1  0  0  0  0
  5 13  1  0  0  0  0
  6  7  1  0  0  0  0
  6  5  2  0  0  0  0
  7  8  2  0  0  0  0
  9  7  2  0  0  0  0
 10 11  2  0  0  0  0
 10  6  1  0  0  0  0
 11  1  1  0  0  0  0
 14 10  1  0  0  0  0
 15 11  1  0  0  0  0
 16 20  1  0  0  0  0
 17 16  1  0  0  0  0
 18 16  1  0  0  0  0
 19 16  1  0  0  0  0
M  RAD  2   2   2   3   3
M  END
