Coordinates from ORCA-job 4-NO2PhN2+~BF4-_B3LYPG-6-31G_dp-NX-Scan-d89-09-n800
 OpenBabel11261920323D

 20 19  0  0  0  0  0  0  0  0999 V2000
   -2.1325    0.1813    0.3622 C   0  0  0  0  0  0  0  0  0  0  0  0
   -3.2959   -0.5547    0.1242 N   0  0  0  0  0  0  0  0  0  0  0  0
   -4.1619   -1.2486    0.1100 N   0  0  0  0  0  0  0  0  0  0  0  0
   -1.7681    0.3237    1.7109 C   0  0  0  0  0  0  0  0  0  0  0  0
   -0.5940    1.0092    1.9887 C   0  0  0  0  0  0  0  0  0  0  0  0
    0.1556    1.5063    0.9226 C   0  0  0  0  0  0  0  0  0  0  0  0
    1.4160    2.2280    1.2313 N   0  0  0  0  0  0  0  0  0  0  0  0
    1.7129    2.3473    2.4160 O   0  0  0  0  0  0  0  0  0  0  0  0
    2.0667    2.6452    0.2806 O   0  0  0  0  0  0  0  0  0  0  0  0
   -0.2178    1.3582   -0.4115 C   0  0  0  0  0  0  0  0  0  0  0  0
   -1.3958    0.6856   -0.7162 C   0  0  0  0  0  0  0  0  0  0  0  0
   -2.3868   -0.0806    2.5033 H   0  0  0  0  0  0  0  0  0  0  0  0
   -0.2522    1.1621    3.0043 H   0  0  0  0  0  0  0  0  0  0  0  0
    0.4050    1.7754   -1.1924 H   0  0  0  0  0  0  0  0  0  0  0  0
   -1.7722    0.5326   -1.7230 H   0  0  0  0  0  0  0  0  0  0  0  0
   -4.3739    0.8414   -2.2948 B   0  0  0  0  0  0  0  0  0  0  0  0
   -5.6451    0.3091   -2.3304 F   0  0  0  0  0  0  0  0  0  0  0  0
   -3.4118   -0.2419   -2.3989 F   0  0  0  0  0  0  0  0  0  0  0  0
   -4.1210    1.7751   -3.2689 F   0  0  0  0  0  0  0  0  0  0  0  0
   -4.1337    1.4114   -0.9920 F   0  0  0  0  0  0  0  0  0  0  0  0
  1  4  2  0  0  0  0
  2  1  1  0  0  0  0
  3  2  1  0  0  0  0
  4  5  1  0  0  0  0
  4 12  1  0  0  0  0
  5 13  1  0  0  0  0
  6  7  1  0  0  0  0
  6  5  2  0  0  0  0
  7  8  2  0  0  0  0
  9  7  2  0  0  0  0
 10  6  1  0  0  0  0
 11 10  2  0  0  0  0
 11  1  1  0  0  0  0
 14 10  1  0  0  0  0
 15 11  1  0  0  0  0
 16 20  1  0  0  0  0
 17 16  1  0  0  0  0
 18 16  1  0  0  0  0
 19 16  1  0  0  0  0
M  RAD  2   2   2   3   3
M  END
