Coordinates from ORCA-job 4-NO2PhN2+~BF4-_B3LYPG-6-31G_dp-NX-Scan-d89-09-n800
 OpenBabel11261920313D

 20 19  0  0  0  0  0  0  0  0999 V2000
   -1.8885   -1.0334    0.1369 C   0  0  0  0  0  0  0  0  0  0  0  0
   -2.4095   -2.2895    0.1153 N   0  0  0  0  0  0  0  0  0  0  0  0
   -2.7912   -3.3449    0.1207 N   0  0  0  0  0  0  0  0  0  0  0  0
   -2.2827   -0.1568    1.1744 C   0  0  0  0  0  0  0  0  0  0  0  0
   -1.6585    1.0717    1.2517 C   0  0  0  0  0  0  0  0  0  0  0  0
   -0.7031    1.3994    0.2859 C   0  0  0  0  0  0  0  0  0  0  0  0
    0.0784    2.6506    0.4682 N   0  0  0  0  0  0  0  0  0  0  0  0
   -0.1686    3.3140    1.4657 O   0  0  0  0  0  0  0  0  0  0  0  0
    0.9439    2.8867   -0.3648 O   0  0  0  0  0  0  0  0  0  0  0  0
   -0.3379    0.5446   -0.7615 C   0  0  0  0  0  0  0  0  0  0  0  0
   -0.9380   -0.6903   -0.8573 C   0  0  0  0  0  0  0  0  0  0  0  0
   -3.0452   -0.4497    1.8865 H   0  0  0  0  0  0  0  0  0  0  0  0
   -1.9231    1.7989    2.0051 H   0  0  0  0  0  0  0  0  0  0  0  0
    0.3983    0.8794   -1.4805 H   0  0  0  0  0  0  0  0  0  0  0  0
   -0.6892   -1.3884   -1.6479 H   0  0  0  0  0  0  0  0  0  0  0  0
   -3.3379    2.5663   -0.9069 B   0  0  0  0  0  0  0  0  0  0  0  0
   -4.1057    3.4178   -1.6680 F   0  0  0  0  0  0  0  0  0  0  0  0
   -3.4653    1.2120   -1.2958 F   0  0  0  0  0  0  0  0  0  0  0  0
   -1.9433    2.9136   -1.0678 F   0  0  0  0  0  0  0  0  0  0  0  0
   -3.6394    2.6643    0.4660 F   0  0  0  0  0  0  0  0  0  0  0  0
  1  4  2  0  0  0  0
  2  3  1  0  0  0  0
  2  1  1  0  0  0  0
  4  5  1  0  0  0  0
  4 12  1  0  0  0  0
  5 13  1  0  0  0  0
  6  7  1  0  0  0  0
  6  5  2  0  0  0  0
  7  8  2  0  0  0  0
  9  7  2  0  0  0  0
 10  6  1  0  0  0  0
 11 10  2  0  0  0  0
 11  1  1  0  0  0  0
 14 10  1  0  0  0  0
 15 11  1  0  0  0  0
 16 20  1  0  0  0  0
 17 16  1  0  0  0  0
 18 16  1  0  0  0  0
 19 16  1  0  0  0  0
M  RAD  2   2   2   3   3
M  END
