Coordinates from ORCA-job 4-NO2PhN2+~BF4-_B3LYPG-6-31G_dp-NX-Scan-d89-09-n800
 OpenBabel11261920323D

 20 19  0  0  0  0  0  0  0  0999 V2000
   -1.9304   -0.8383    0.1282 C   0  0  0  0  0  0  0  0  0  0  0  0
   -2.6906   -1.9538   -0.0309 N   0  0  0  0  0  0  0  0  0  0  0  0
   -3.2961   -2.8875   -0.1536 N   0  0  0  0  0  0  0  0  0  0  0  0
   -2.2265    0.0179    1.2087 C   0  0  0  0  0  0  0  0  0  0  0  0
   -1.4581    1.1594    1.3448 C   0  0  0  0  0  0  0  0  0  0  0  0
   -0.4908    1.4284    0.3829 C   0  0  0  0  0  0  0  0  0  0  0  0
    0.2930    2.6810    0.5110 N   0  0  0  0  0  0  0  0  0  0  0  0
    0.0834    3.3686    1.5020 O   0  0  0  0  0  0  0  0  0  0  0  0
    1.1100    2.9155   -0.3718 O   0  0  0  0  0  0  0  0  0  0  0  0
   -0.1899    0.5746   -0.6839 C   0  0  0  0  0  0  0  0  0  0  0  0
   -0.9228   -0.5812   -0.8319 C   0  0  0  0  0  0  0  0  0  0  0  0
   -3.0459   -0.1972    1.8817 H   0  0  0  0  0  0  0  0  0  0  0  0
   -1.6582    1.8833    2.1222 H   0  0  0  0  0  0  0  0  0  0  0  0
    0.5757    0.8599   -1.3932 H   0  0  0  0  0  0  0  0  0  0  0  0
   -0.7616   -1.2612   -1.6595 H   0  0  0  0  0  0  0  0  0  0  0  0
   -3.4819    2.1770   -0.9431 B   0  0  0  0  0  0  0  0  0  0  0  0
   -4.3780    2.9439   -1.6486 F   0  0  0  0  0  0  0  0  0  0  0  0
   -3.2714    0.9127   -1.5633 F   0  0  0  0  0  0  0  0  0  0  0  0
   -2.2230    2.8384   -0.8535 F   0  0  0  0  0  0  0  0  0  0  0  0
   -3.9434    1.9246    0.3778 F   0  0  0  0  0  0  0  0  0  0  0  0
  1  4  2  0  0  0  0
  2  1  1  0  0  0  0
  3  2  1  0  0  0  0
  4  5  1  0  0  0  0
  4 12  1  0  0  0  0
  5 13  1  0  0  0  0
  6  7  1  0  0  0  0
  6  5  2  0  0  0  0
  7  8  2  0  0  0  0
  9  7  2  0  0  0  0
 10  6  1  0  0  0  0
 11 10  2  0  0  0  0
 11  1  1  0  0  0  0
 14 10  1  0  0  0  0
 15 11  1  0  0  0  0
 16 19  1  0  0  0  0
 16 20  1  0  0  0  0
 17 16  1  0  0  0  0
 18 16  1  0  0  0  0
M  RAD  2   2   2   3   3
M  END
