Coordinates from ORCA-job 4-NO2PhN2+~BF4-_B3LYPG-6-31G_dp-NX-Scan-d89-09-n800
 OpenBabel11261920313D

 20 19  0  0  0  0  0  0  0  0999 V2000
   -1.7889   -1.1697    0.1305 C   0  0  0  0  0  0  0  0  0  0  0  0
   -2.2418   -2.4522    0.1474 N   0  0  0  0  0  0  0  0  0  0  0  0
   -2.5775   -3.5229    0.1800 N   0  0  0  0  0  0  0  0  0  0  0  0
   -2.3349   -0.2406    1.0506 C   0  0  0  0  0  0  0  0  0  0  0  0
   -1.7789    1.0206    1.1021 C   0  0  0  0  0  0  0  0  0  0  0  0
   -0.7538    1.3391    0.2052 C   0  0  0  0  0  0  0  0  0  0  0  0
   -0.0330    2.6290    0.3799 N   0  0  0  0  0  0  0  0  0  0  0  0
   -0.3176    3.2837    1.3709 O   0  0  0  0  0  0  0  0  0  0  0  0
    0.8302    2.8931   -0.4478 O   0  0  0  0  0  0  0  0  0  0  0  0
   -0.2409    0.4331   -0.7339 C   0  0  0  0  0  0  0  0  0  0  0  0
   -0.7547   -0.8432   -0.7845 C   0  0  0  0  0  0  0  0  0  0  0  0
   -3.1590   -0.5212    1.6960 H   0  0  0  0  0  0  0  0  0  0  0  0
   -2.1805    1.7994    1.7358 H   0  0  0  0  0  0  0  0  0  0  0  0
    0.5490    0.7576   -1.3993 H   0  0  0  0  0  0  0  0  0  0  0  0
   -0.3802   -1.5840   -1.4813 H   0  0  0  0  0  0  0  0  0  0  0  0
   -3.3905    2.8453   -0.7732 B   0  0  0  0  0  0  0  0  0  0  0  0
   -4.0541    3.7850   -1.5266 F   0  0  0  0  0  0  0  0  0  0  0  0
   -3.9203    1.5490   -0.9105 F   0  0  0  0  0  0  0  0  0  0  0  0
   -2.0050    2.7748   -1.2097 F   0  0  0  0  0  0  0  0  0  0  0  0
   -3.3739    3.1902    0.5944 F   0  0  0  0  0  0  0  0  0  0  0  0
  1  2  1  0  0  0  0
  1  4  2  0  0  0  0
  2  3  1  0  0  0  0
  4  5  1  0  0  0  0
  4 12  1  0  0  0  0
  5 13  1  0  0  0  0
  6  7  1  0  0  0  0
  6  5  2  0  0  0  0
  7  8  2  0  0  0  0
  9  7  2  0  0  0  0
 10  6  1  0  0  0  0
 11 10  2  0  0  0  0
 11  1  1  0  0  0  0
 14 10  1  0  0  0  0
 15 11  1  0  0  0  0
 16 20  1  0  0  0  0
 17 16  1  0  0  0  0
 18 16  1  0  0  0  0
 19 16  1  0  0  0  0
M  RAD  2   2   2   3   3
M  END
