Coordinates from ORCA-job 4-NO2PhN2+~BF4-_B3LYPG-6-31G_dp-NX-Scan-d89-09-n800
 OpenBabel11261920323D

 20 19  0  0  0  0  0  0  0  0999 V2000
   -1.9441   -0.4791   -0.0101 C   0  0  0  0  0  0  0  0  0  0  0  0
   -2.8304   -1.4959   -0.2843 N   0  0  0  0  0  0  0  0  0  0  0  0
   -3.4653   -2.3930   -0.4658 N   0  0  0  0  0  0  0  0  0  0  0  0
   -2.2018    0.3401    1.0993 C   0  0  0  0  0  0  0  0  0  0  0  0
   -1.2783    1.3423    1.3711 C   0  0  0  0  0  0  0  0  0  0  0  0
   -0.1838    1.4920    0.5293 C   0  0  0  0  0  0  0  0  0  0  0  0
    0.7939    2.5667    0.8316 N   0  0  0  0  0  0  0  0  0  0  0  0
    0.5864    3.2463    1.8305 O   0  0  0  0  0  0  0  0  0  0  0  0
    1.7446    2.6866    0.0652 O   0  0  0  0  0  0  0  0  0  0  0  0
    0.0480    0.6916   -0.5924 C   0  0  0  0  0  0  0  0  0  0  0  0
   -0.8501   -0.3177   -0.8810 C   0  0  0  0  0  0  0  0  0  0  0  0
   -3.0973    0.2142    1.6896 H   0  0  0  0  0  0  0  0  0  0  0  0
   -1.4169    2.0189    2.2039 H   0  0  0  0  0  0  0  0  0  0  0  0
    0.9112    0.8799   -1.2170 H   0  0  0  0  0  0  0  0  0  0  0  0
   -0.7331   -0.9550   -1.7490 H   0  0  0  0  0  0  0  0  0  0  0  0
   -4.0152    1.6587   -1.0386 B   0  0  0  0  0  0  0  0  0  0  0  0
   -4.8969    2.4482   -1.7345 F   0  0  0  0  0  0  0  0  0  0  0  0
   -4.2432    0.2600   -1.3002 F   0  0  0  0  0  0  0  0  0  0  0  0
   -2.6761    1.9310   -1.3867 F   0  0  0  0  0  0  0  0  0  0  0  0
   -4.1581    1.8303    0.3652 F   0  0  0  0  0  0  0  0  0  0  0  0
  1  4  2  0  0  0  0
  2  1  1  0  0  0  0
  3  2  1  0  0  0  0
  4  5  1  0  0  0  0
  4 12  1  0  0  0  0
  5 13  1  0  0  0  0
  6  7  1  0  0  0  0
  6  5  2  0  0  0  0
  7  8  2  0  0  0  0
  9  7  2  0  0  0  0
 10  6  1  0  0  0  0
 11 10  2  0  0  0  0
 11  1  1  0  0  0  0
 14 10  1  0  0  0  0
 15 11  1  0  0  0  0
 16 20  1  0  0  0  0
 17 16  1  0  0  0  0
 18 16  1  0  0  0  0
 19 16  1  0  0  0  0
M  RAD  2   2   2   3   3
M  END
