Coordinates from ORCA-job 4-NO2PhN2+~BF4-_B3LYPG-6-31G_dp-NX-Scan-d89-09-n800
 OpenBabel11261920323D

 20 19  0  0  0  0  0  0  0  0999 V2000
   -2.0258   -0.2691    0.1087 C   0  0  0  0  0  0  0  0  0  0  0  0
   -3.0471   -1.1732   -0.1480 N   0  0  0  0  0  0  0  0  0  0  0  0
   -3.7905   -1.9888   -0.2705 N   0  0  0  0  0  0  0  0  0  0  0  0
   -2.0949    0.4670    1.2978 C   0  0  0  0  0  0  0  0  0  0  0  0
   -1.0696    1.3664    1.5474 C   0  0  0  0  0  0  0  0  0  0  0  0
   -0.0568    1.5066    0.6006 C   0  0  0  0  0  0  0  0  0  0  0  0
    1.0334    2.4745    0.8764 N   0  0  0  0  0  0  0  0  0  0  0  0
    0.9803    3.0873    1.9376 O   0  0  0  0  0  0  0  0  0  0  0  0
    1.9120    2.5822    0.0275 O   0  0  0  0  0  0  0  0  0  0  0  0
   -0.0204    0.7972   -0.5984 C   0  0  0  0  0  0  0  0  0  0  0  0
   -1.0352   -0.1083   -0.8675 C   0  0  0  0  0  0  0  0  0  0  0  0
   -2.9424    0.3607    1.9612 H   0  0  0  0  0  0  0  0  0  0  0  0
   -1.0553    1.9727    2.4438 H   0  0  0  0  0  0  0  0  0  0  0  0
    0.7780    0.9801   -1.3057 H   0  0  0  0  0  0  0  0  0  0  0  0
   -1.0969   -0.6411   -1.8069 H   0  0  0  0  0  0  0  0  0  0  0  0
   -4.0961    1.3502   -1.3159 B   0  0  0  0  0  0  0  0  0  0  0  0
   -5.0903    2.0169   -1.9787 F   0  0  0  0  0  0  0  0  0  0  0  0
   -3.6160    0.2333   -2.0855 F   0  0  0  0  0  0  0  0  0  0  0  0
   -2.9963    2.1671   -1.0127 F   0  0  0  0  0  0  0  0  0  0  0  0
   -4.5766    0.7843   -0.0852 F   0  0  0  0  0  0  0  0  0  0  0  0
  1  4  2  0  0  0  0
  2  1  1  0  0  0  0
  3  2  1  0  0  0  0
  4  5  1  0  0  0  0
  4 12  1  0  0  0  0
  5 13  1  0  0  0  0
  6  7  1  0  0  0  0
  6  5  2  0  0  0  0
  7  8  2  0  0  0  0
  9  7  2  0  0  0  0
 10  6  1  0  0  0  0
 11 10  2  0  0  0  0
 11  1  1  0  0  0  0
 14 10  1  0  0  0  0
 15 11  1  0  0  0  0
 16 19  1  0  0  0  0
 16 20  1  0  0  0  0
 17 16  1  0  0  0  0
 18 16  1  0  0  0  0
M  RAD  2   2   2   3   3
M  END
