Coordinates from ORCA-job 4-NO2PhN2+~BF4-_B3LYPG-6-31G_dp-NX-Scan-d89-09-n800
 OpenBabel11261920323D

 20 19  0  0  0  0  0  0  0  0999 V2000
   -2.1343    0.0284    0.3652 C   0  0  0  0  0  0  0  0  0  0  0  0
   -3.2440   -0.7902    0.1799 N   0  0  0  0  0  0  0  0  0  0  0  0
   -4.0825   -1.5148    0.1355 N   0  0  0  0  0  0  0  0  0  0  0  0
   -1.7885    0.3106    1.6986 C   0  0  0  0  0  0  0  0  0  0  0  0
   -0.6585    1.0815    1.9177 C   0  0  0  0  0  0  0  0  0  0  0  0
    0.0710    1.5248    0.8121 C   0  0  0  0  0  0  0  0  0  0  0  0
    1.2866    2.3407    1.0601 N   0  0  0  0  0  0  0  0  0  0  0  0
    1.5615    2.5875    2.2305 O   0  0  0  0  0  0  0  0  0  0  0  0
    1.9266    2.7010    0.0796 O   0  0  0  0  0  0  0  0  0  0  0  0
   -0.2835    1.2428   -0.5033 C   0  0  0  0  0  0  0  0  0  0  0  0
   -1.4179    0.4764   -0.7523 C   0  0  0  0  0  0  0  0  0  0  0  0
   -2.3917   -0.0565    2.5204 H   0  0  0  0  0  0  0  0  0  0  0  0
   -0.3333    1.3434    2.9161 H   0  0  0  0  0  0  0  0  0  0  0  0
    0.3141    1.6316   -1.3176 H   0  0  0  0  0  0  0  0  0  0  0  0
   -1.7835    0.2536   -1.7467 H   0  0  0  0  0  0  0  0  0  0  0  0
   -4.2199    0.9922   -2.0837 B   0  0  0  0  0  0  0  0  0  0  0  0
   -5.3412    1.1503   -2.8484 F   0  0  0  0  0  0  0  0  0  0  0  0
   -3.6680   -0.3361   -2.2578 F   0  0  0  0  0  0  0  0  0  0  0  0
   -3.1996    1.9000   -2.3898 F   0  0  0  0  0  0  0  0  0  0  0  0
   -4.5202    1.0989   -0.6900 F   0  0  0  0  0  0  0  0  0  0  0  0
  1  4  2  0  0  0  0
  2  1  1  0  0  0  0
  3  2  1  0  0  0  0
  4  5  1  0  0  0  0
  4 12  1  0  0  0  0
  5 13  1  0  0  0  0
  6  7  1  0  0  0  0
  6  5  2  0  0  0  0
  7  8  2  0  0  0  0
  9  7  2  0  0  0  0
 10  6  1  0  0  0  0
 11 10  2  0  0  0  0
 11  1  1  0  0  0  0
 14 10  1  0  0  0  0
 15 11  1  0  0  0  0
 16 20  1  0  0  0  0
 17 16  1  0  0  0  0
 18 16  1  0  0  0  0
 19 16  1  0  0  0  0
M  RAD  2   2   2   3   3
M  END
