Coordinates from ORCA-job 4-NO2PhN2+~BF4-_B3LYPG-6-31G_dp-NX-Scan-d89-09-n800
 OpenBabel11261920323D

 20 19  0  0  0  0  0  0  0  0999 V2000
   -1.9397   -0.5582   -0.0140 C   0  0  0  0  0  0  0  0  0  0  0  0
   -2.7559   -1.6375   -0.2435 N   0  0  0  0  0  0  0  0  0  0  0  0
   -3.3311   -2.5823   -0.3921 N   0  0  0  0  0  0  0  0  0  0  0  0
   -2.2353    0.2805    1.0729 C   0  0  0  0  0  0  0  0  0  0  0  0
   -1.3467    1.3187    1.3287 C   0  0  0  0  0  0  0  0  0  0  0  0
   -0.2486    1.4807    0.4967 C   0  0  0  0  0  0  0  0  0  0  0  0
    0.6914    2.5921    0.7825 N   0  0  0  0  0  0  0  0  0  0  0  0
    0.4579    3.2822    1.7681 O   0  0  0  0  0  0  0  0  0  0  0  0
    1.6417    2.7279    0.0181 O   0  0  0  0  0  0  0  0  0  0  0  0
    0.0202    0.6630   -0.6063 C   0  0  0  0  0  0  0  0  0  0  0  0
   -0.8394   -0.3803   -0.8801 C   0  0  0  0  0  0  0  0  0  0  0  0
   -3.1299    0.1395    1.6612 H   0  0  0  0  0  0  0  0  0  0  0  0
   -1.5232    2.0156    2.1368 H   0  0  0  0  0  0  0  0  0  0  0  0
    0.8827    0.8664   -1.2269 H   0  0  0  0  0  0  0  0  0  0  0  0
   -0.6898   -1.0375   -1.7280 H   0  0  0  0  0  0  0  0  0  0  0  0
   -3.9315    1.7854   -0.9941 B   0  0  0  0  0  0  0  0  0  0  0  0
   -4.7641    2.6693   -1.6445 F   0  0  0  0  0  0  0  0  0  0  0  0
   -4.2510    0.4173   -1.2709 F   0  0  0  0  0  0  0  0  0  0  0  0
   -2.5812    1.9804   -1.3607 F   0  0  0  0  0  0  0  0  0  0  0  0
   -4.0330    1.9429    0.4219 F   0  0  0  0  0  0  0  0  0  0  0  0
  1  4  2  0  0  0  0
  2  1  1  0  0  0  0
  3  2  1  0  0  0  0
  4  5  1  0  0  0  0
  4 12  1  0  0  0  0
  5 13  1  0  0  0  0
  6  7  1  0  0  0  0
  6  5  2  0  0  0  0
  7  8  2  0  0  0  0
  9  7  2  0  0  0  0
 10  6  1  0  0  0  0
 11 10  2  0  0  0  0
 11  1  1  0  0  0  0
 14 10  1  0  0  0  0
 15 11  1  0  0  0  0
 16 20  1  0  0  0  0
 17 16  1  0  0  0  0
 18 16  1  0  0  0  0
 19 16  1  0  0  0  0
M  RAD  2   2   2   3   3
M  END
