Coordinates from ORCA-job 4-NO2PhN2+~BF4-_B3LYPG-6-31G_dp-NX-Scan-d89-09-n800
 OpenBabel11261920323D

 20 19  0  0  0  0  0  0  0  0999 V2000
   -1.9439   -0.4950   -0.0112 C   0  0  0  0  0  0  0  0  0  0  0  0
   -2.8180   -1.5229   -0.2786 N   0  0  0  0  0  0  0  0  0  0  0  0
   -3.4418   -2.4293   -0.4550 N   0  0  0  0  0  0  0  0  0  0  0  0
   -2.2088    0.3274    1.0945 C   0  0  0  0  0  0  0  0  0  0  0  0
   -1.2926    1.3373    1.3631 C   0  0  0  0  0  0  0  0  0  0  0  0
   -0.1978    1.4903    0.5228 C   0  0  0  0  0  0  0  0  0  0  0  0
    0.7718    2.5731    0.8215 N   0  0  0  0  0  0  0  0  0  0  0  0
    0.5588    3.2549    1.8177 O   0  0  0  0  0  0  0  0  0  0  0  0
    1.7223    2.6967    0.0555 O   0  0  0  0  0  0  0  0  0  0  0  0
    0.0416    0.6864   -0.5953 C   0  0  0  0  0  0  0  0  0  0  0  0
   -0.8487   -0.3298   -0.8813 C   0  0  0  0  0  0  0  0  0  0  0  0
   -3.1034    0.1975    1.6850 H   0  0  0  0  0  0  0  0  0  0  0  0
   -1.4388    2.0178    2.1913 H   0  0  0  0  0  0  0  0  0  0  0  0
    0.9046    0.8780   -1.2191 H   0  0  0  0  0  0  0  0  0  0  0  0
   -0.7255   -0.9708   -1.7457 H   0  0  0  0  0  0  0  0  0  0  0  0
   -3.9950    1.6824   -1.0286 B   0  0  0  0  0  0  0  0  0  0  0  0
   -4.8671    2.4906   -1.7175 F   0  0  0  0  0  0  0  0  0  0  0  0
   -4.2439    0.2879   -1.2868 F   0  0  0  0  0  0  0  0  0  0  0  0
   -2.6534    1.9358   -1.3835 F   0  0  0  0  0  0  0  0  0  0  0  0
   -4.1268    1.8579    0.3771 F   0  0  0  0  0  0  0  0  0  0  0  0
  1  4  2  0  0  0  0
  2  1  1  0  0  0  0
  3  2  1  0  0  0  0
  4  5  1  0  0  0  0
  4 12  1  0  0  0  0
  5 13  1  0  0  0  0
  6  7  1  0  0  0  0
  6  5  2  0  0  0  0
  7  8  2  0  0  0  0
  9  7  2  0  0  0  0
 10  6  1  0  0  0  0
 11 10  2  0  0  0  0
 11  1  1  0  0  0  0
 14 10  1  0  0  0  0
 15 11  1  0  0  0  0
 16 20  1  0  0  0  0
 17 16  1  0  0  0  0
 18 16  1  0  0  0  0
 19 16  1  0  0  0  0
M  RAD  2   2   2   3   3
M  END
