Coordinates from ORCA-job 4-NO2PhN2+~BF4-_B3LYPG-6-31G_dp-NX-Scan-d89-09-n800
 OpenBabel11261920323D

 20 19  0  0  0  0  0  0  0  0999 V2000
   -2.1876    0.2994    0.4499 C   0  0  0  0  0  0  0  0  0  0  0  0
   -3.4030   -0.3324    0.2068 N   0  0  0  0  0  0  0  0  0  0  0  0
   -4.3711   -0.8494   -0.0092 N   0  0  0  0  0  0  0  0  0  0  0  0
   -1.7685    0.3626    1.7894 C   0  0  0  0  0  0  0  0  0  0  0  0
   -0.5495    0.9664    2.0591 C   0  0  0  0  0  0  0  0  0  0  0  0
    0.1967    1.4619    0.9890 C   0  0  0  0  0  0  0  0  0  0  0  0
    1.5050    2.0984    1.2854 N   0  0  0  0  0  0  0  0  0  0  0  0
    1.8446    2.1506    2.4636 O   0  0  0  0  0  0  0  0  0  0  0  0
    2.1487    2.5221    0.3326 O   0  0  0  0  0  0  0  0  0  0  0  0
   -0.2220    1.3868   -0.3369 C   0  0  0  0  0  0  0  0  0  0  0  0
   -1.4481    0.7978   -0.6326 C   0  0  0  0  0  0  0  0  0  0  0  0
   -2.3857   -0.0425    2.5828 H   0  0  0  0  0  0  0  0  0  0  0  0
   -0.1679    1.0565    3.0680 H   0  0  0  0  0  0  0  0  0  0  0  0
    0.4051    1.7933   -1.1202 H   0  0  0  0  0  0  0  0  0  0  0  0
   -1.8442    0.7167   -1.6429 H   0  0  0  0  0  0  0  0  0  0  0  0
   -4.3438    0.7459   -2.4707 B   0  0  0  0  0  0  0  0  0  0  0  0
   -5.0741   -0.3617   -1.8957 F   0  0  0  0  0  0  0  0  0  0  0  0
   -3.1259    0.2235   -2.9680 F   0  0  0  0  0  0  0  0  0  0  0  0
   -5.0841    1.3617   -3.4341 F   0  0  0  0  0  0  0  0  0  0  0  0
   -4.0312    1.6084   -1.3905 F   0  0  0  0  0  0  0  0  0  0  0  0
  1  4  2  0  0  0  0
  2  1  1  0  0  0  0
  3  2  1  0  0  0  0
  4  5  1  0  0  0  0
  4 12  1  0  0  0  0
  5 13  1  0  0  0  0
  6  7  1  0  0  0  0
  6  5  2  0  0  0  0
  7  8  2  0  0  0  0
  9  7  2  0  0  0  0
 10  6  1  0  0  0  0
 11 10  2  0  0  0  0
 11  1  1  0  0  0  0
 14 10  1  0  0  0  0
 15 11  1  0  0  0  0
 16 17  1  0  0  0  0
 16 20  1  0  0  0  0
 18 16  1  0  0  0  0
 19 16  1  0  0  0  0
M  RAD  2   2   2   3   3
M  END
