Coordinates from ORCA-job 4-NO2PhN2+~BF4-_B3LYPG-6-31G_dp-NX-Scan-d89-09-n800
 OpenBabel11261920323D

 20 19  0  0  0  0  0  0  0  0999 V2000
   -2.0239   -0.3148    0.1034 C   0  0  0  0  0  0  0  0  0  0  0  0
   -3.0160   -1.2506   -0.1377 N   0  0  0  0  0  0  0  0  0  0  0  0
   -3.7251   -2.1011   -0.2366 N   0  0  0  0  0  0  0  0  0  0  0  0
   -2.1153    0.4392    1.2807 C   0  0  0  0  0  0  0  0  0  0  0  0
   -1.1085    1.3613    1.5224 C   0  0  0  0  0  0  0  0  0  0  0  0
   -0.0930    1.5056    0.5799 C   0  0  0  0  0  0  0  0  0  0  0  0
    0.9772    2.4979    0.8476 N   0  0  0  0  0  0  0  0  0  0  0  0
    0.9073    3.1237    1.8999 O   0  0  0  0  0  0  0  0  0  0  0  0
    1.8581    2.6102    0.0015 O   0  0  0  0  0  0  0  0  0  0  0  0
   -0.0347    0.7792   -0.6084 C   0  0  0  0  0  0  0  0  0  0  0  0
   -1.0294   -0.1493   -0.8700 C   0  0  0  0  0  0  0  0  0  0  0  0
   -2.9652    0.3284    1.9398 H   0  0  0  0  0  0  0  0  0  0  0  0
   -1.1121    1.9819    2.4089 H   0  0  0  0  0  0  0  0  0  0  0  0
    0.7651    0.9665   -1.3127 H   0  0  0  0  0  0  0  0  0  0  0  0
   -1.0700   -0.7014   -1.7995 H   0  0  0  0  0  0  0  0  0  0  0  0
   -4.0468    1.4158   -1.2776 B   0  0  0  0  0  0  0  0  0  0  0  0
   -4.9862    2.1671   -1.9383 F   0  0  0  0  0  0  0  0  0  0  0  0
   -3.6374    0.2727   -2.0494 F   0  0  0  0  0  0  0  0  0  0  0  0
   -2.8939    2.1632   -0.9744 F   0  0  0  0  0  0  0  0  0  0  0  0
   -4.5566    0.8708   -0.0535 F   0  0  0  0  0  0  0  0  0  0  0  0
  1  4  2  0  0  0  0
  2  1  1  0  0  0  0
  3  2  1  0  0  0  0
  4  5  1  0  0  0  0
  4 12  1  0  0  0  0
  5 13  1  0  0  0  0
  6  7  1  0  0  0  0
  6  5  2  0  0  0  0
  7  8  2  0  0  0  0
  9  7  2  0  0  0  0
 10  6  1  0  0  0  0
 11 10  2  0  0  0  0
 11  1  1  0  0  0  0
 14 10  1  0  0  0  0
 15 11  1  0  0  0  0
 16 19  1  0  0  0  0
 16 20  1  0  0  0  0
 17 16  1  0  0  0  0
 18 16  1  0  0  0  0
M  RAD  2   2   2   3   3
M  END
