Coordinates from ORCA-job 4-NO2PhN2+~BF4-_B3LYPG-6-31G_dp-NX-Scan-d89-09-n800
 OpenBabel11261920323D

 20 19  0  0  0  0  0  0  0  0999 V2000
   -1.9281   -0.6266   -0.0154 C   0  0  0  0  0  0  0  0  0  0  0  0
   -2.6818   -1.7559   -0.2011 N   0  0  0  0  0  0  0  0  0  0  0  0
   -3.2100   -2.7337   -0.3178 N   0  0  0  0  0  0  0  0  0  0  0  0
   -2.2596    0.2324    1.0466 C   0  0  0  0  0  0  0  0  0  0  0  0
   -1.4001    1.2982    1.2891 C   0  0  0  0  0  0  0  0  0  0  0  0
   -0.2957    1.4671    0.4683 C   0  0  0  0  0  0  0  0  0  0  0  0
    0.6145    2.6054    0.7412 N   0  0  0  0  0  0  0  0  0  0  0  0
    0.3594    3.3038    1.7153 O   0  0  0  0  0  0  0  0  0  0  0  0
    1.5664    2.7512   -0.0196 O   0  0  0  0  0  0  0  0  0  0  0  0
    0.0051    0.6340   -0.6162 C   0  0  0  0  0  0  0  0  0  0  0  0
   -0.8204   -0.4386   -0.8744 C   0  0  0  0  0  0  0  0  0  0  0  0
   -3.1590    0.0858    1.6267 H   0  0  0  0  0  0  0  0  0  0  0  0
   -1.6103    2.0135    2.0722 H   0  0  0  0  0  0  0  0  0  0  0  0
    0.8688    0.8467   -1.2321 H   0  0  0  0  0  0  0  0  0  0  0  0
   -0.6394   -1.1156   -1.7006 H   0  0  0  0  0  0  0  0  0  0  0  0
   -3.8834    1.9025   -0.9583 B   0  0  0  0  0  0  0  0  0  0  0  0
   -4.6839    2.8481   -1.5645 F   0  0  0  0  0  0  0  0  0  0  0  0
   -4.2542    0.5654   -1.2750 F   0  0  0  0  0  0  0  0  0  0  0  0
   -2.5274    2.0632   -1.3268 F   0  0  0  0  0  0  0  0  0  0  0  0
   -3.9675    2.0192    0.4682 F   0  0  0  0  0  0  0  0  0  0  0  0
  1  4  2  0  0  0  0
  2  1  1  0  0  0  0
  3  2  1  0  0  0  0
  4  5  1  0  0  0  0
  4 12  1  0  0  0  0
  5 13  1  0  0  0  0
  6  7  1  0  0  0  0
  6  5  2  0  0  0  0
  7  8  2  0  0  0  0
  9  7  2  0  0  0  0
 10  6  1  0  0  0  0
 11 10  2  0  0  0  0
 11  1  1  0  0  0  0
 14 10  1  0  0  0  0
 15 11  1  0  0  0  0
 16 20  1  0  0  0  0
 17 16  1  0  0  0  0
 18 16  1  0  0  0  0
 19 16  1  0  0  0  0
M  RAD  2   2   2   3   3
M  END
