Coordinates from ORCA-job 4-NO2PhN2+~BF4-_B3LYPG-6-31G_dp-NX-Scan-d89-09-n800
 OpenBabel11261920323D

 20 19  0  0  0  0  0  0  0  0999 V2000
   -2.1987    0.3010    0.4609 C   0  0  0  0  0  0  0  0  0  0  0  0
   -3.4214   -0.3222    0.2324 N   0  0  0  0  0  0  0  0  0  0  0  0
   -4.3982   -0.8008   -0.0540 N   0  0  0  0  0  0  0  0  0  0  0  0
   -1.7678    0.3605    1.7969 C   0  0  0  0  0  0  0  0  0  0  0  0
   -0.5455    0.9585    2.0647 C   0  0  0  0  0  0  0  0  0  0  0  0
    0.1972    1.4558    0.9934 C   0  0  0  0  0  0  0  0  0  0  0  0
    1.5078    2.0887    1.2845 N   0  0  0  0  0  0  0  0  0  0  0  0
    1.8563    2.1335    2.4605 O   0  0  0  0  0  0  0  0  0  0  0  0
    2.1455    2.5187    0.3300 O   0  0  0  0  0  0  0  0  0  0  0  0
   -0.2287    1.3844   -0.3304 C   0  0  0  0  0  0  0  0  0  0  0  0
   -1.4577    0.7993   -0.6214 C   0  0  0  0  0  0  0  0  0  0  0  0
   -2.3826   -0.0461    2.5914 H   0  0  0  0  0  0  0  0  0  0  0  0
   -0.1588    1.0425    3.0721 H   0  0  0  0  0  0  0  0  0  0  0  0
    0.3958    1.7904   -1.1160 H   0  0  0  0  0  0  0  0  0  0  0  0
   -1.8462    0.7235   -1.6338 H   0  0  0  0  0  0  0  0  0  0  0  0
   -4.3232    0.7604   -2.4848 B   0  0  0  0  0  0  0  0  0  0  0  0
   -4.9652   -0.3967   -1.8339 F   0  0  0  0  0  0  0  0  0  0  0  0
   -3.1111    0.2863   -3.0180 F   0  0  0  0  0  0  0  0  0  0  0  0
   -5.1627    1.2682   -3.4257 F   0  0  0  0  0  0  0  0  0  0  0  0
   -4.0412    1.6603   -1.4426 F   0  0  0  0  0  0  0  0  0  0  0  0
  1  4  2  0  0  0  0
  2  1  1  0  0  0  0
  3  2  1  0  0  0  0
  4  5  1  0  0  0  0
  4 12  1  0  0  0  0
  5 13  1  0  0  0  0
  6  7  1  0  0  0  0
  6  5  2  0  0  0  0
  7  8  2  0  0  0  0
  9  7  2  0  0  0  0
 10  6  1  0  0  0  0
 11 10  2  0  0  0  0
 11  1  1  0  0  0  0
 14 10  1  0  0  0  0
 15 11  1  0  0  0  0
 16 17  1  0  0  0  0
 16 20  1  0  0  0  0
 18 16  1  0  0  0  0
 19 16  1  0  0  0  0
M  RAD  2   2   2   3   3
M  END
