Coordinates from ORCA-job 4-NO2PhN2+~BF4-_B3LYPG-6-31G_dp-NX-Scan-d89-09-n800
 OpenBabel11261920313D

 20 19  0  0  0  0  0  0  0  0999 V2000
   -1.8963   -1.0087    0.1358 C   0  0  0  0  0  0  0  0  0  0  0  0
   -2.4526   -2.2482    0.0933 N   0  0  0  0  0  0  0  0  0  0  0  0
   -2.8714   -3.2892    0.0777 N   0  0  0  0  0  0  0  0  0  0  0  0
   -2.2726   -0.1377    1.1841 C   0  0  0  0  0  0  0  0  0  0  0  0
   -1.6332    1.0824    1.2675 C   0  0  0  0  0  0  0  0  0  0  0  0
   -0.6807    1.4063    0.2982 C   0  0  0  0  0  0  0  0  0  0  0  0
    0.0993    2.6592    0.4722 N   0  0  0  0  0  0  0  0  0  0  0  0
   -0.1407    3.3239    1.4706 O   0  0  0  0  0  0  0  0  0  0  0  0
    0.9553    2.8980   -0.3698 O   0  0  0  0  0  0  0  0  0  0  0  0
   -0.3257    0.5534   -0.7538 C   0  0  0  0  0  0  0  0  0  0  0  0
   -0.9425   -0.6725   -0.8570 C   0  0  0  0  0  0  0  0  0  0  0  0
   -3.0387   -0.4247    1.8944 H   0  0  0  0  0  0  0  0  0  0  0  0
   -1.8872    1.8076    2.0265 H   0  0  0  0  0  0  0  0  0  0  0  0
    0.4108    0.8851   -1.4740 H   0  0  0  0  0  0  0  0  0  0  0  0
   -0.7079   -1.3670   -1.6550 H   0  0  0  0  0  0  0  0  0  0  0  0
   -3.3426    2.5112   -0.9099 B   0  0  0  0  0  0  0  0  0  0  0  0
   -4.1306    3.3345   -1.6800 F   0  0  0  0  0  0  0  0  0  0  0  0
   -3.4104    1.1551   -1.3144 F   0  0  0  0  0  0  0  0  0  0  0  0
   -1.9621    2.9156   -1.0380 F   0  0  0  0  0  0  0  0  0  0  0  0
   -3.6769    2.5819    0.4576 F   0  0  0  0  0  0  0  0  0  0  0  0
  1  4  2  0  0  0  0
  2  1  1  0  0  0  0
  3  2  1  0  0  0  0
  4  5  1  0  0  0  0
  4 12  1  0  0  0  0
  5 13  1  0  0  0  0
  6  7  1  0  0  0  0
  6  5  2  0  0  0  0
  7  8  2  0  0  0  0
  9  7  2  0  0  0  0
 10  6  1  0  0  0  0
 11 10  2  0  0  0  0
 11  1  1  0  0  0  0
 14 10  1  0  0  0  0
 15 11  1  0  0  0  0
 16 20  1  0  0  0  0
 17 16  1  0  0  0  0
 18 16  1  0  0  0  0
 19 16  1  0  0  0  0
M  RAD  2   2   2   3   3
M  END
