Coordinates from ORCA-job 4-NO2PhN2+~BF4-_B3LYPG-6-31G_dp-NX-Scan-d89-09-n800
 OpenBabel11261920323D

 20 19  0  0  0  0  0  0  0  0999 V2000
   -2.1384    0.2369    0.3619 C   0  0  0  0  0  0  0  0  0  0  0  0
   -3.3247   -0.4483    0.0981 N   0  0  0  0  0  0  0  0  0  0  0  0
   -4.2370   -1.0785    0.0266 N   0  0  0  0  0  0  0  0  0  0  0  0
   -1.7746    0.3400    1.7147 C   0  0  0  0  0  0  0  0  0  0  0  0
   -0.5848    0.9888    2.0111 C   0  0  0  0  0  0  0  0  0  0  0  0
    0.1812    1.4892    0.9577 C   0  0  0  0  0  0  0  0  0  0  0  0
    1.4569    2.1746    1.2860 N   0  0  0  0  0  0  0  0  0  0  0  0
    1.7548    2.2566    2.4735 O   0  0  0  0  0  0  0  0  0  0  0  0
    2.1172    2.6036    0.3471 O   0  0  0  0  0  0  0  0  0  0  0  0
   -0.1891    1.3765   -0.3804 C   0  0  0  0  0  0  0  0  0  0  0  0
   -1.3830    0.7406   -0.7043 C   0  0  0  0  0  0  0  0  0  0  0  0
   -2.4067   -0.0657    2.4958 H   0  0  0  0  0  0  0  0  0  0  0  0
   -0.2424    1.1112    3.0306 H   0  0  0  0  0  0  0  0  0  0  0  0
    0.4494    1.7916   -1.1497 H   0  0  0  0  0  0  0  0  0  0  0  0
   -1.7557    0.6148   -1.7171 H   0  0  0  0  0  0  0  0  0  0  0  0
   -4.3964    0.7867   -2.3421 B   0  0  0  0  0  0  0  0  0  0  0  0
   -5.5041    0.0098   -1.9817 F   0  0  0  0  0  0  0  0  0  0  0  0
   -3.2974   -0.1106   -2.5868 F   0  0  0  0  0  0  0  0  0  0  0  0
   -4.6239    1.5936   -3.4213 F   0  0  0  0  0  0  0  0  0  0  0  0
   -4.0077    1.5548   -1.1939 F   0  0  0  0  0  0  0  0  0  0  0  0
  1  4  2  0  0  0  0
  2  1  1  0  0  0  0
  3  2  1  0  0  0  0
  4  5  1  0  0  0  0
  4 12  1  0  0  0  0
  5 13  1  0  0  0  0
  6  7  1  0  0  0  0
  6  5  2  0  0  0  0
  7  8  2  0  0  0  0
  9  7  2  0  0  0  0
 10  6  1  0  0  0  0
 11 10  2  0  0  0  0
 11  1  1  0  0  0  0
 14 10  1  0  0  0  0
 15 11  1  0  0  0  0
 16 17  1  0  0  0  0
 16 20  1  0  0  0  0
 18 16  1  0  0  0  0
 19 16  1  0  0  0  0
M  RAD  2   2   2   3   3
M  END
