Coordinates from ORCA-job 4-NO2PhN2+~BF4-_B3LYPG-6-31G_dp-NX-Scan-d89-09-n800
 OpenBabel11261920313D

 20 19  0  0  0  0  0  0  0  0999 V2000
   -1.6852   -1.3032    0.1251 C   0  0  0  0  0  0  0  0  0  0  0  0
   -2.0939   -2.6026    0.2101 N   0  0  0  0  0  0  0  0  0  0  0  0
   -2.3877   -3.6815    0.2944 N   0  0  0  0  0  0  0  0  0  0  0  0
   -2.4188   -0.2986    0.8062 C   0  0  0  0  0  0  0  0  0  0  0  0
   -1.9131    0.9882    0.8009 C   0  0  0  0  0  0  0  0  0  0  0  0
   -0.7340    1.2346    0.0910 C   0  0  0  0  0  0  0  0  0  0  0  0
   -0.0871    2.5651    0.2012 N   0  0  0  0  0  0  0  0  0  0  0  0
   -0.3295    3.1964    1.2167 O   0  0  0  0  0  0  0  0  0  0  0  0
    0.6935    2.8700   -0.6921 O   0  0  0  0  0  0  0  0  0  0  0  0
   -0.0460    0.2568   -0.6379 C   0  0  0  0  0  0  0  0  0  0  0  0
   -0.5086   -1.0435   -0.6206 C   0  0  0  0  0  0  0  0  0  0  0  0
   -3.3492   -0.5336    1.3095 H   0  0  0  0  0  0  0  0  0  0  0  0
   -2.4432    1.8244    1.2601 H   0  0  0  0  0  0  0  0  0  0  0  0
    0.8421    0.5370   -1.1906 H   0  0  0  0  0  0  0  0  0  0  0  0
    0.0078   -1.8430   -1.1387 H   0  0  0  0  0  0  0  0  0  0  0  0
   -3.5223    3.1818   -0.5572 B   0  0  0  0  0  0  0  0  0  0  0  0
   -4.1802    4.2267   -1.1657 F   0  0  0  0  0  0  0  0  0  0  0  0
   -4.2035    1.9533   -0.6728 F   0  0  0  0  0  0  0  0  0  0  0  0
   -2.2224    2.9990   -1.1429 F   0  0  0  0  0  0  0  0  0  0  0  0
   -3.3252    3.4388    0.8293 F   0  0  0  0  0  0  0  0  0  0  0  0
  1  2  1  0  0  0  0
  1  4  2  0  0  0  0
  2  3  1  0  0  0  0
  4 12  1  0  0  0  0
  5  4  1  0  0  0  0
  5 13  1  0  0  0  0
  6  7  1  0  0  0  0
  6  5  2  0  0  0  0
  7  8  2  0  0  0  0
  9  7  2  0  0  0  0
 10 11  2  0  0  0  0
 10  6  1  0  0  0  0
 11  1  1  0  0  0  0
 14 10  1  0  0  0  0
 15 11  1  0  0  0  0
 16 20  1  0  0  0  0
 17 16  1  0  0  0  0
 18 16  1  0  0  0  0
 19 16  1  0  0  0  0
M  RAD  2   2   2   3   3
M  END
