Coordinates from ORCA-job 4-NO2PhN2+~BF4-_B3LYPG-6-31G_dp-NX-Scan-d89-09-n800
 OpenBabel11261920323D

 20 19  0  0  0  0  0  0  0  0999 V2000
   -2.1515    0.2606    0.3877 C   0  0  0  0  0  0  0  0  0  0  0  0
   -3.3487   -0.4012    0.1223 N   0  0  0  0  0  0  0  0  0  0  0  0
   -4.2879   -0.9861   -0.0012 N   0  0  0  0  0  0  0  0  0  0  0  0
   -1.7728    0.3480    1.7376 C   0  0  0  0  0  0  0  0  0  0  0  0
   -0.5733    0.9808    2.0288 C   0  0  0  0  0  0  0  0  0  0  0  0
    0.1898    1.4791    0.9720 C   0  0  0  0  0  0  0  0  0  0  0  0
    1.4764    2.1467    1.2940 N   0  0  0  0  0  0  0  0  0  0  0  0
    1.7844    2.2194    2.4796 O   0  0  0  0  0  0  0  0  0  0  0  0
    2.1353    2.5720    0.3524 O   0  0  0  0  0  0  0  0  0  0  0  0
   -0.1929    1.3798   -0.3633 C   0  0  0  0  0  0  0  0  0  0  0  0
   -1.3981    0.7619   -0.6818 C   0  0  0  0  0  0  0  0  0  0  0  0
   -2.4026   -0.0573    2.5209 H   0  0  0  0  0  0  0  0  0  0  0  0
   -0.2205    1.0920    3.0460 H   0  0  0  0  0  0  0  0  0  0  0  0
    0.4450    1.7912   -1.1352 H   0  0  0  0  0  0  0  0  0  0  0  0
   -1.7778    0.6518   -1.6948 H   0  0  0  0  0  0  0  0  0  0  0  0
   -4.3850    0.7676   -2.3852 B   0  0  0  0  0  0  0  0  0  0  0  0
   -5.3597   -0.1414   -1.9044 F   0  0  0  0  0  0  0  0  0  0  0  0
   -3.2299    0.0016   -2.7353 F   0  0  0  0  0  0  0  0  0  0  0  0
   -4.8376    1.5134   -3.4343 F   0  0  0  0  0  0  0  0  0  0  0  0
   -3.9992    1.5862   -1.2801 F   0  0  0  0  0  0  0  0  0  0  0  0
  1  4  2  0  0  0  0
  2  1  1  0  0  0  0
  3  2  1  0  0  0  0
  4  5  1  0  0  0  0
  4 12  1  0  0  0  0
  5 13  1  0  0  0  0
  6  7  1  0  0  0  0
  6  5  2  0  0  0  0
  7  8  2  0  0  0  0
  9  7  2  0  0  0  0
 10  6  1  0  0  0  0
 11 10  2  0  0  0  0
 11  1  1  0  0  0  0
 14 10  1  0  0  0  0
 15 11  1  0  0  0  0
 16 17  1  0  0  0  0
 16 20  1  0  0  0  0
 18 16  1  0  0  0  0
 19 16  1  0  0  0  0
M  RAD  2   2   2   3   3
M  END
