Coordinates from ORCA-job 4-NO2PhN2+~BF4-_B3LYPG-6-31G_dp-NX-Scan-d89-09-n800
 OpenBabel11261920313D

 20 19  0  0  0  0  0  0  0  0999 V2000
   -1.8055   -1.1535    0.1354 C   0  0  0  0  0  0  0  0  0  0  0  0
   -2.2543   -2.4374    0.1558 N   0  0  0  0  0  0  0  0  0  0  0  0
   -2.5832   -3.5103    0.1916 N   0  0  0  0  0  0  0  0  0  0  0  0
   -2.3234   -0.2341    1.0810 C   0  0  0  0  0  0  0  0  0  0  0  0
   -1.7627    1.0251    1.1330 C   0  0  0  0  0  0  0  0  0  0  0  0
   -0.7576    1.3506    0.2158 C   0  0  0  0  0  0  0  0  0  0  0  0
   -0.0201    2.6303    0.3988 N   0  0  0  0  0  0  0  0  0  0  0  0
   -0.3044    3.2890    1.3875 O   0  0  0  0  0  0  0  0  0  0  0  0
    0.8542    2.8833   -0.4205 O   0  0  0  0  0  0  0  0  0  0  0  0
   -0.2740    0.4548   -0.7484 C   0  0  0  0  0  0  0  0  0  0  0  0
   -0.7956   -0.8179   -0.8033 C   0  0  0  0  0  0  0  0  0  0  0  0
   -3.1268   -0.5227    1.7487 H   0  0  0  0  0  0  0  0  0  0  0  0
   -2.1375    1.7922    1.7955 H   0  0  0  0  0  0  0  0  0  0  0  0
    0.5006    0.7845   -1.4288 H   0  0  0  0  0  0  0  0  0  0  0  0
   -0.4433   -1.5504   -1.5202 H   0  0  0  0  0  0  0  0  0  0  0  0
   -3.3781    2.8114   -0.8081 B   0  0  0  0  0  0  0  0  0  0  0  0
   -4.0383    3.7617   -1.5521 F   0  0  0  0  0  0  0  0  0  0  0  0
   -3.8576    1.5066   -1.0172 F   0  0  0  0  0  0  0  0  0  0  0  0
   -1.9732    2.8021   -1.1894 F   0  0  0  0  0  0  0  0  0  0  0  0
   -3.4255    3.1007    0.5709 F   0  0  0  0  0  0  0  0  0  0  0  0
  1  2  1  0  0  0  0
  1  4  2  0  0  0  0
  2  3  1  0  0  0  0
  4  5  1  0  0  0  0
  4 12  1  0  0  0  0
  5 13  1  0  0  0  0
  6  7  1  0  0  0  0
  6  5  2  0  0  0  0
  7  8  2  0  0  0  0
  9  7  2  0  0  0  0
 10  6  1  0  0  0  0
 11 10  2  0  0  0  0
 11  1  1  0  0  0  0
 14 10  1  0  0  0  0
 15 11  1  0  0  0  0
 16 20  1  0  0  0  0
 17 16  1  0  0  0  0
 18 16  1  0  0  0  0
 19 16  1  0  0  0  0
M  RAD  2   2   2   3   3
M  END
