Coordinates from ORCA-job 4-NO2PhN2+~BF4-_B3LYPG-6-31G_dp-NX-Scan-d89-09-n800
 OpenBabel11261920323D

 20 19  0  0  0  0  0  0  0  0999 V2000
   -2.1621    0.1317    0.4232 C   0  0  0  0  0  0  0  0  0  0  0  0
   -3.3173   -0.6252    0.2456 N   0  0  0  0  0  0  0  0  0  0  0  0
   -4.2036   -1.2896    0.1987 N   0  0  0  0  0  0  0  0  0  0  0  0
   -1.7187    0.2667    1.7507 C   0  0  0  0  0  0  0  0  0  0  0  0
   -0.5537    0.9848    1.9709 C   0  0  0  0  0  0  0  0  0  0  0  0
    0.1114    1.5264    0.8698 C   0  0  0  0  0  0  0  0  0  0  0  0
    1.3622    2.2886    1.1155 N   0  0  0  0  0  0  0  0  0  0  0  0
    1.7269    2.3967    2.2823 O   0  0  0  0  0  0  0  0  0  0  0  0
    1.9373    2.7478    0.1362 O   0  0  0  0  0  0  0  0  0  0  0  0
   -0.3393    1.3893   -0.4400 C   0  0  0  0  0  0  0  0  0  0  0  0
   -1.5075    0.6758   -0.6903 C   0  0  0  0  0  0  0  0  0  0  0  0
   -2.2750   -0.1715    2.5711 H   0  0  0  0  0  0  0  0  0  0  0  0
   -0.1552    1.1319    2.9664 H   0  0  0  0  0  0  0  0  0  0  0  0
    0.2143    1.8455   -1.2508 H   0  0  0  0  0  0  0  0  0  0  0  0
   -1.9240    0.5643   -1.6856 H   0  0  0  0  0  0  0  0  0  0  0  0
   -4.2535    0.8439   -2.2620 B   0  0  0  0  0  0  0  0  0  0  0  0
   -5.4453    0.8227   -2.9299 F   0  0  0  0  0  0  0  0  0  0  0  0
   -3.6697   -0.4766   -2.2224 F   0  0  0  0  0  0  0  0  0  0  0  0
   -3.2959    1.6919   -2.8305 F   0  0  0  0  0  0  0  0  0  0  0  0
   -4.4378    1.2209   -0.8930 F   0  0  0  0  0  0  0  0  0  0  0  0
  1  4  2  0  0  0  0
  2  1  1  0  0  0  0
  3  2  1  0  0  0  0
  4  5  1  0  0  0  0
  4 12  1  0  0  0  0
  5 13  1  0  0  0  0
  6  7  1  0  0  0  0
  6  5  2  0  0  0  0
  7  8  2  0  0  0  0
  9  7  2  0  0  0  0
 10  6  1  0  0  0  0
 11 10  2  0  0  0  0
 11  1  1  0  0  0  0
 14 10  1  0  0  0  0
 15 11  1  0  0  0  0
 16 18  1  0  0  0  0
 16 20  1  0  0  0  0
 17 16  1  0  0  0  0
 19 16  1  0  0  0  0
M  RAD  2   2   2   3   3
M  END
