Coordinates from ORCA-job 4-NO2PhN2+~BF4-_B3LYPG-6-31G_dp-NX-Scan-d89-09-n800
 OpenBabel11261920323D

 20 19  0  0  0  0  0  0  0  0999 V2000
   -1.9052   -0.9517    0.1341 C   0  0  0  0  0  0  0  0  0  0  0  0
   -2.5535   -2.1410    0.0338 N   0  0  0  0  0  0  0  0  0  0  0  0
   -3.0644   -3.1364   -0.0385 N   0  0  0  0  0  0  0  0  0  0  0  0
   -2.2497   -0.0901    1.1986 C   0  0  0  0  0  0  0  0  0  0  0  0
   -1.5687    1.1063    1.3012 C   0  0  0  0  0  0  0  0  0  0  0  0
   -0.6160    1.4167    0.3305 C   0  0  0  0  0  0  0  0  0  0  0  0
    0.1514    2.6790    0.4803 N   0  0  0  0  0  0  0  0  0  0  0  0
   -0.0825    3.3534    1.4742 O   0  0  0  0  0  0  0  0  0  0  0  0
    0.9880    2.9226   -0.3800 O   0  0  0  0  0  0  0  0  0  0  0  0
   -0.2757    0.5640   -0.7255 C   0  0  0  0  0  0  0  0  0  0  0  0
   -0.9320   -0.6398   -0.8463 C   0  0  0  0  0  0  0  0  0  0  0  0
   -3.0363   -0.3548    1.8947 H   0  0  0  0  0  0  0  0  0  0  0  0
   -1.8046    1.8295    2.0682 H   0  0  0  0  0  0  0  0  0  0  0  0
    0.4690    0.8835   -1.4426 H   0  0  0  0  0  0  0  0  0  0  0  0
   -0.7242   -1.3279   -1.6570 H   0  0  0  0  0  0  0  0  0  0  0  0
   -3.3731    2.3838   -0.9132 B   0  0  0  0  0  0  0  0  0  0  0  0
   -4.2094    3.1606   -1.6787 F   0  0  0  0  0  0  0  0  0  0  0  0
   -3.3461    1.0342   -1.3559 F   0  0  0  0  0  0  0  0  0  0  0  0
   -2.0286    2.8857   -1.0009 F   0  0  0  0  0  0  0  0  0  0  0  0
   -3.7448    2.3884    0.4490 F   0  0  0  0  0  0  0  0  0  0  0  0
  1  4  2  0  0  0  0
  2  1  1  0  0  0  0
  3  2  1  0  0  0  0
  4  5  1  0  0  0  0
  4 12  1  0  0  0  0
  5 13  1  0  0  0  0
  6  7  1  0  0  0  0
  6  5  2  0  0  0  0
  7  8  2  0  0  0  0
  9  7  2  0  0  0  0
 10  6  1  0  0  0  0
 11 10  2  0  0  0  0
 11  1  1  0  0  0  0
 14 10  1  0  0  0  0
 15 11  1  0  0  0  0
 16 20  1  0  0  0  0
 17 16  1  0  0  0  0
 18 16  1  0  0  0  0
 19 16  1  0  0  0  0
M  RAD  2   2   2   3   3
M  END
