Coordinates from ORCA-job 4-NO2PhN2+~BF4-_B3LYPG-6-31G_dp-NX-Scan-d89-09-n800
 OpenBabel11261920313D

 20 19  0  0  0  0  0  0  0  0999 V2000
   -1.8974   -1.0040    0.1351 C   0  0  0  0  0  0  0  0  0  0  0  0
   -2.4610   -2.2399    0.0878 N   0  0  0  0  0  0  0  0  0  0  0  0
   -2.8864   -3.2780    0.0684 N   0  0  0  0  0  0  0  0  0  0  0  0
   -2.2712   -0.1340    1.1848 C   0  0  0  0  0  0  0  0  0  0  0  0
   -1.6280    1.0841    1.2705 C   0  0  0  0  0  0  0  0  0  0  0  0
   -0.6757    1.4071    0.3011 C   0  0  0  0  0  0  0  0  0  0  0  0
    0.1031    2.6608    0.4733 N   0  0  0  0  0  0  0  0  0  0  0  0
   -0.1366    3.3264    1.4713 O   0  0  0  0  0  0  0  0  0  0  0  0
    0.9577    2.9002   -0.3701 O   0  0  0  0  0  0  0  0  0  0  0  0
   -0.3222    0.5548   -0.7518 C   0  0  0  0  0  0  0  0  0  0  0  0
   -0.9423   -0.6693   -0.8568 C   0  0  0  0  0  0  0  0  0  0  0  0
   -3.0390   -0.4195    1.8939 H   0  0  0  0  0  0  0  0  0  0  0  0
   -1.8802    1.8086    2.0307 H   0  0  0  0  0  0  0  0  0  0  0  0
    0.4149    0.8858   -1.4716 H   0  0  0  0  0  0  0  0  0  0  0  0
   -0.7097   -1.3631   -1.6560 H   0  0  0  0  0  0  0  0  0  0  0  0
   -3.3440    2.5010   -0.9099 B   0  0  0  0  0  0  0  0  0  0  0  0
   -4.1369    3.3176   -1.6819 F   0  0  0  0  0  0  0  0  0  0  0  0
   -3.4047    1.1435   -1.3127 F   0  0  0  0  0  0  0  0  0  0  0  0
   -1.9664    2.9129   -1.0375 F   0  0  0  0  0  0  0  0  0  0  0  0
   -3.6804    2.5711    0.4572 F   0  0  0  0  0  0  0  0  0  0  0  0
  1  4  2  0  0  0  0
  2  1  1  0  0  0  0
  3  2  1  0  0  0  0
  4  5  1  0  0  0  0
  4 12  1  0  0  0  0
  5 13  1  0  0  0  0
  6  7  1  0  0  0  0
  6  5  2  0  0  0  0
  7  8  2  0  0  0  0
  9  7  2  0  0  0  0
 10  6  1  0  0  0  0
 11 10  2  0  0  0  0
 11  1  1  0  0  0  0
 14 10  1  0  0  0  0
 15 11  1  0  0  0  0
 16 20  1  0  0  0  0
 17 16  1  0  0  0  0
 18 16  1  0  0  0  0
 19 16  1  0  0  0  0
M  RAD  2   2   2   3   3
M  END
