Coordinates from ORCA-job 4-NO2PhN2+~BF4-_B3LYPG-6-31G_dp-NX-Scan-d89-09-n800
 OpenBabel11261920323D

 20 19  0  0  0  0  0  0  0  0999 V2000
   -2.1542    0.2665    0.3906 C   0  0  0  0  0  0  0  0  0  0  0  0
   -3.3550   -0.3880    0.1253 N   0  0  0  0  0  0  0  0  0  0  0  0
   -4.3025   -0.9580   -0.0121 N   0  0  0  0  0  0  0  0  0  0  0  0
   -1.7714    0.3472    1.7398 C   0  0  0  0  0  0  0  0  0  0  0  0
   -0.5699    0.9759    2.0316 C   0  0  0  0  0  0  0  0  0  0  0  0
    0.1922    1.4771    0.9755 C   0  0  0  0  0  0  0  0  0  0  0  0
    1.4807    2.1409    1.2975 N   0  0  0  0  0  0  0  0  0  0  0  0
    1.7918    2.2075    2.4827 O   0  0  0  0  0  0  0  0  0  0  0  0
    2.1380    2.5699    0.3564 O   0  0  0  0  0  0  0  0  0  0  0  0
   -0.1933    1.3836   -0.3594 C   0  0  0  0  0  0  0  0  0  0  0  0
   -1.4007    0.7699   -0.6781 C   0  0  0  0  0  0  0  0  0  0  0  0
   -2.4004   -0.0603    2.5225 H   0  0  0  0  0  0  0  0  0  0  0  0
   -0.2146    1.0816    3.0486 H   0  0  0  0  0  0  0  0  0  0  0  0
    0.4442    1.7962   -1.1309 H   0  0  0  0  0  0  0  0  0  0  0  0
   -1.7793    0.6645   -1.6919 H   0  0  0  0  0  0  0  0  0  0  0  0
   -4.3824    0.7626   -2.3923 B   0  0  0  0  0  0  0  0  0  0  0  0
   -5.3290   -0.1667   -1.8778 F   0  0  0  0  0  0  0  0  0  0  0  0
   -3.2211    0.0161   -2.7545 F   0  0  0  0  0  0  0  0  0  0  0  0
   -4.8800    1.4774   -3.4415 F   0  0  0  0  0  0  0  0  0  0  0  0
   -3.9995    1.6021   -1.3062 F   0  0  0  0  0  0  0  0  0  0  0  0
  1  4  2  0  0  0  0
  2  1  1  0  0  0  0
  3  2  1  0  0  0  0
  4  5  1  0  0  0  0
  4 12  1  0  0  0  0
  5 13  1  0  0  0  0
  6  7  1  0  0  0  0
  6  5  2  0  0  0  0
  7  8  2  0  0  0  0
  9  7  2  0  0  0  0
 10  6  1  0  0  0  0
 11 10  2  0  0  0  0
 11  1  1  0  0  0  0
 14 10  1  0  0  0  0
 15 11  1  0  0  0  0
 16 17  1  0  0  0  0
 16 20  1  0  0  0  0
 18 16  1  0  0  0  0
 19 16  1  0  0  0  0
M  RAD  2   2   2   3   3
M  END
