Coordinates from ORCA-job 4-NO2PhN2+~BF4-_B3LYPG-6-31G_dp-NX-Scan-d89-09-n800
 OpenBabel11261920323D

 20 19  0  0  0  0  0  0  0  0999 V2000
   -1.9242   -0.8605    0.1319 C   0  0  0  0  0  0  0  0  0  0  0  0
   -2.6735   -1.9834   -0.0225 N   0  0  0  0  0  0  0  0  0  0  0  0
   -3.2757   -2.9198   -0.1450 N   0  0  0  0  0  0  0  0  0  0  0  0
   -2.2266   -0.0037    1.2109 C   0  0  0  0  0  0  0  0  0  0  0  0
   -1.4745    1.1484    1.3396 C   0  0  0  0  0  0  0  0  0  0  0  0
   -0.5128    1.4264    0.3732 C   0  0  0  0  0  0  0  0  0  0  0  0
    0.2623    2.6850    0.4994 N   0  0  0  0  0  0  0  0  0  0  0  0
    0.0499    3.3706    1.4910 O   0  0  0  0  0  0  0  0  0  0  0  0
    1.0771    2.9239   -0.3838 O   0  0  0  0  0  0  0  0  0  0  0  0
   -0.2036    0.5714   -0.6901 C   0  0  0  0  0  0  0  0  0  0  0  0
   -0.9223   -0.5942   -0.8317 C   0  0  0  0  0  0  0  0  0  0  0  0
   -3.0409   -0.2269    1.8878 H   0  0  0  0  0  0  0  0  0  0  0  0
   -1.6811    1.8729    2.1146 H   0  0  0  0  0  0  0  0  0  0  0  0
    0.5567    0.8635   -1.4023 H   0  0  0  0  0  0  0  0  0  0  0  0
   -0.7538   -1.2758   -1.6565 H   0  0  0  0  0  0  0  0  0  0  0  0
   -3.4569    2.2103   -0.9342 B   0  0  0  0  0  0  0  0  0  0  0  0
   -4.3416    2.9729   -1.6582 F   0  0  0  0  0  0  0  0  0  0  0  0
   -3.2627    0.9302   -1.5265 F   0  0  0  0  0  0  0  0  0  0  0  0
   -2.1862    2.8569   -0.8639 F   0  0  0  0  0  0  0  0  0  0  0  0
   -3.9160    1.9981    0.3921 F   0  0  0  0  0  0  0  0  0  0  0  0
  1  4  2  0  0  0  0
  2  1  1  0  0  0  0
  3  2  1  0  0  0  0
  4  5  1  0  0  0  0
  4 12  1  0  0  0  0
  5 13  1  0  0  0  0
  6  7  1  0  0  0  0
  6  5  2  0  0  0  0
  7  8  2  0  0  0  0
  9  7  2  0  0  0  0
 10  6  1  0  0  0  0
 11 10  2  0  0  0  0
 11  1  1  0  0  0  0
 14 10  1  0  0  0  0
 15 11  1  0  0  0  0
 16 19  1  0  0  0  0
 16 20  1  0  0  0  0
 17 16  1  0  0  0  0
 18 16  1  0  0  0  0
M  RAD  2   2   2   3   3
M  END
