Coordinates from ORCA-job 4-NO2PhN2+~BF4-_B3LYPG-6-31G_dp-NX-Scan-d89-09-n800
 OpenBabel11261920323D

 20 19  0  0  0  0  0  0  0  0999 V2000
   -2.1443    0.1612    0.3816 C   0  0  0  0  0  0  0  0  0  0  0  0
   -3.3086   -0.5796    0.1683 N   0  0  0  0  0  0  0  0  0  0  0  0
   -4.1812   -1.2645    0.1624 N   0  0  0  0  0  0  0  0  0  0  0  0
   -1.7488    0.2950    1.7227 C   0  0  0  0  0  0  0  0  0  0  0  0
   -0.5783    0.9935    1.9811 C   0  0  0  0  0  0  0  0  0  0  0  0
    0.1378    1.5144    0.9035 C   0  0  0  0  0  0  0  0  0  0  0  0
    1.3928    2.2542    1.1910 N   0  0  0  0  0  0  0  0  0  0  0  0
    1.7171    2.3620    2.3696 O   0  0  0  0  0  0  0  0  0  0  0  0
    2.0111    2.6978    0.2308 O   0  0  0  0  0  0  0  0  0  0  0  0
   -0.2649    1.3746   -0.4229 C   0  0  0  0  0  0  0  0  0  0  0  0
   -1.4384    0.6860   -0.7084 C   0  0  0  0  0  0  0  0  0  0  0  0
   -2.3431   -0.1263    2.5249 H   0  0  0  0  0  0  0  0  0  0  0  0
   -0.2147    1.1396    2.9901 H   0  0  0  0  0  0  0  0  0  0  0  0
    0.3319    1.8103   -1.2140 H   0  0  0  0  0  0  0  0  0  0  0  0
   -1.8281    0.5399   -1.7103 H   0  0  0  0  0  0  0  0  0  0  0  0
   -4.3251    0.8467   -2.2875 B   0  0  0  0  0  0  0  0  0  0  0  0
   -5.6243    0.4850   -2.5470 F   0  0  0  0  0  0  0  0  0  0  0  0
   -3.4857   -0.3404   -2.3027 F   0  0  0  0  0  0  0  0  0  0  0  0
   -3.7949    1.7675   -3.1657 F   0  0  0  0  0  0  0  0  0  0  0  0
   -4.2167    1.3493   -0.9416 F   0  0  0  0  0  0  0  0  0  0  0  0
  1  4  2  0  0  0  0
  2  1  1  0  0  0  0
  3  2  1  0  0  0  0
  4  5  1  0  0  0  0
  4 12  1  0  0  0  0
  5 13  1  0  0  0  0
  6  7  1  0  0  0  0
  6  5  2  0  0  0  0
  7  8  2  0  0  0  0
  9  7  2  0  0  0  0
 10  6  1  0  0  0  0
 11 10  2  0  0  0  0
 11  1  1  0  0  0  0
 14 10  1  0  0  0  0
 15 11  1  0  0  0  0
 16 20  1  0  0  0  0
 17 16  1  0  0  0  0
 18 16  1  0  0  0  0
 19 16  1  0  0  0  0
M  RAD  2   2   2   3   3
M  END
