Coordinates from ORCA-job 4-NO2PhN2+~BF4-_B3LYPG-6-31G_dp-NX-Scan-d89-09-n800
 OpenBabel11261920323D

 20 19  0  0  0  0  0  0  0  0999 V2000
   -1.9063   -0.9392    0.1335 C   0  0  0  0  0  0  0  0  0  0  0  0
   -2.5759   -2.1155    0.0191 N   0  0  0  0  0  0  0  0  0  0  0  0
   -3.1046   -3.1003   -0.0639 N   0  0  0  0  0  0  0  0  0  0  0  0
   -2.2445   -0.0799    1.2013 C   0  0  0  0  0  0  0  0  0  0  0  0
   -1.5542    1.1109    1.3085 C   0  0  0  0  0  0  0  0  0  0  0  0
   -0.6009    1.4181    0.3380 C   0  0  0  0  0  0  0  0  0  0  0  0
    0.1636    2.6825    0.4826 N   0  0  0  0  0  0  0  0  0  0  0  0
   -0.0699    3.3595    1.4749 O   0  0  0  0  0  0  0  0  0  0  0  0
    0.9967    2.9266   -0.3810 O   0  0  0  0  0  0  0  0  0  0  0  0
   -0.2632    0.5652   -0.7185 C   0  0  0  0  0  0  0  0  0  0  0  0
   -0.9282   -0.6334   -0.8435 C   0  0  0  0  0  0  0  0  0  0  0  0
   -3.0360   -0.3392    1.8935 H   0  0  0  0  0  0  0  0  0  0  0  0
   -1.7864    1.8337    2.0771 H   0  0  0  0  0  0  0  0  0  0  0  0
    0.4841    0.8816   -1.4343 H   0  0  0  0  0  0  0  0  0  0  0  0
   -0.7261   -1.3199   -1.6569 H   0  0  0  0  0  0  0  0  0  0  0  0
   -3.3821    2.3571   -0.9141 B   0  0  0  0  0  0  0  0  0  0  0  0
   -4.2301    3.1230   -1.6782 F   0  0  0  0  0  0  0  0  0  0  0  0
   -3.3374    1.0087   -1.3629 F   0  0  0  0  0  0  0  0  0  0  0  0
   -2.0465    2.8773   -0.9967 F   0  0  0  0  0  0  0  0  0  0  0  0
   -3.7586    2.3493    0.4474 F   0  0  0  0  0  0  0  0  0  0  0  0
  1  4  2  0  0  0  0
  2  1  1  0  0  0  0
  3  2  1  0  0  0  0
  4  5  1  0  0  0  0
  4 12  1  0  0  0  0
  5 13  1  0  0  0  0
  6  7  1  0  0  0  0
  6  5  2  0  0  0  0
  7  8  2  0  0  0  0
  9  7  2  0  0  0  0
 10  6  1  0  0  0  0
 11 10  2  0  0  0  0
 11  1  1  0  0  0  0
 14 10  1  0  0  0  0
 15 11  1  0  0  0  0
 16 20  1  0  0  0  0
 17 16  1  0  0  0  0
 18 16  1  0  0  0  0
 19 16  1  0  0  0  0
M  RAD  2   2   2   3   3
M  END
