Coordinates from ORCA-job 4-NO2PhN2+~BF4-_B3LYPG-6-31G_dp-NX-Scan-d89-09-n800
 OpenBabel11261920323D

 20 19  0  0  0  0  0  0  0  0999 V2000
   -2.1348    0.2226    0.3576 C   0  0  0  0  0  0  0  0  0  0  0  0
   -3.3176   -0.4706    0.0976 N   0  0  0  0  0  0  0  0  0  0  0  0
   -4.2216   -1.1135    0.0414 N   0  0  0  0  0  0  0  0  0  0  0  0
   -1.7729    0.3327    1.7103 C   0  0  0  0  0  0  0  0  0  0  0  0
   -0.5873    0.9898    2.0053 C   0  0  0  0  0  0  0  0  0  0  0  0
    0.1755    1.4929    0.9509 C   0  0  0  0  0  0  0  0  0  0  0  0
    1.4455    2.1892    1.2780 N   0  0  0  0  0  0  0  0  0  0  0  0
    1.7434    2.2745    2.4654 O   0  0  0  0  0  0  0  0  0  0  0  0
    2.1015    2.6233    0.3386 O   0  0  0  0  0  0  0  0  0  0  0  0
   -0.1929    1.3731   -0.3871 C   0  0  0  0  0  0  0  0  0  0  0  0
   -1.3817    0.7274   -0.7097 C   0  0  0  0  0  0  0  0  0  0  0  0
   -2.4030   -0.0742    2.4924 H   0  0  0  0  0  0  0  0  0  0  0  0
   -0.2463    1.1173    3.0247 H   0  0  0  0  0  0  0  0  0  0  0  0
    0.4427    1.7908   -1.1574 H   0  0  0  0  0  0  0  0  0  0  0  0
   -1.7530    0.5936   -1.7215 H   0  0  0  0  0  0  0  0  0  0  0  0
   -4.3939    0.7995   -2.3293 B   0  0  0  0  0  0  0  0  0  0  0  0
   -5.5505    0.0820   -2.0250 F   0  0  0  0  0  0  0  0  0  0  0  0
   -3.3267   -0.1510   -2.5333 F   0  0  0  0  0  0  0  0  0  0  0  0
   -4.5234    1.6245   -3.4121 F   0  0  0  0  0  0  0  0  0  0  0  0
   -4.0095    1.5422   -1.1608 F   0  0  0  0  0  0  0  0  0  0  0  0
  1  4  2  0  0  0  0
  2  1  1  0  0  0  0
  3  2  1  0  0  0  0
  4  5  1  0  0  0  0
  4 12  1  0  0  0  0
  5 13  1  0  0  0  0
  6  7  1  0  0  0  0
  6  5  2  0  0  0  0
  7  8  2  0  0  0  0
  9  7  2  0  0  0  0
 10  6  1  0  0  0  0
 11 10  2  0  0  0  0
 11  1  1  0  0  0  0
 14 10  1  0  0  0  0
 15 11  1  0  0  0  0
 16 17  1  0  0  0  0
 16 20  1  0  0  0  0
 18 16  1  0  0  0  0
 19 16  1  0  0  0  0
M  RAD  2   2   2   3   3
M  END
