Coordinates from ORCA-job 4-NO2PhN2+~BF4-_B3LYPG-6-31G_dp-NX-Scan-d89-09-n800
 OpenBabel11261920323D

 20 19  0  0  0  0  0  0  0  0999 V2000
   -2.0260   -0.2731    0.1085 C   0  0  0  0  0  0  0  0  0  0  0  0
   -3.0451   -1.1796   -0.1470 N   0  0  0  0  0  0  0  0  0  0  0  0
   -3.7855   -1.9984   -0.2670 N   0  0  0  0  0  0  0  0  0  0  0  0
   -2.0967    0.4645    1.2966 C   0  0  0  0  0  0  0  0  0  0  0  0
   -1.0730    1.3660    1.5454 C   0  0  0  0  0  0  0  0  0  0  0  0
   -0.0602    1.5066    0.5986 C   0  0  0  0  0  0  0  0  0  0  0  0
    1.0281    2.4770    0.8735 N   0  0  0  0  0  0  0  0  0  0  0  0
    0.9736    3.0910    1.9338 O   0  0  0  0  0  0  0  0  0  0  0  0
    1.9066    2.5852    0.0246 O   0  0  0  0  0  0  0  0  0  0  0  0
   -0.0221    0.7958   -0.5994 C   0  0  0  0  0  0  0  0  0  0  0  0
   -1.0352   -0.1118   -0.8677 C   0  0  0  0  0  0  0  0  0  0  0  0
   -2.9442    0.3577    1.9598 H   0  0  0  0  0  0  0  0  0  0  0  0
   -1.0600    1.9734    2.4410 H   0  0  0  0  0  0  0  0  0  0  0  0
    0.7762    0.9791   -1.3066 H   0  0  0  0  0  0  0  0  0  0  0  0
   -1.0952   -0.6463   -1.8062 H   0  0  0  0  0  0  0  0  0  0  0  0
   -4.0907    1.3554   -1.3126 B   0  0  0  0  0  0  0  0  0  0  0  0
   -5.0794    2.0321   -1.9748 F   0  0  0  0  0  0  0  0  0  0  0  0
   -3.6172    0.2368   -2.0837 F   0  0  0  0  0  0  0  0  0  0  0  0
   -2.9857    2.1652   -1.0073 F   0  0  0  0  0  0  0  0  0  0  0  0
   -4.5749    0.7895   -0.0836 F   0  0  0  0  0  0  0  0  0  0  0  0
  1  4  2  0  0  0  0
  2  1  1  0  0  0  0
  3  2  1  0  0  0  0
  4  5  1  0  0  0  0
  4 12  1  0  0  0  0
  5 13  1  0  0  0  0
  6  7  1  0  0  0  0
  6  5  2  0  0  0  0
  7  8  2  0  0  0  0
  9  7  2  0  0  0  0
 10  6  1  0  0  0  0
 11 10  2  0  0  0  0
 11  1  1  0  0  0  0
 14 10  1  0  0  0  0
 15 11  1  0  0  0  0
 16 19  1  0  0  0  0
 16 20  1  0  0  0  0
 17 16  1  0  0  0  0
 18 16  1  0  0  0  0
M  RAD  2   2   2   3   3
M  END
