Coordinates from ORCA-job 4-NO2PhN2+~BF4-_B3LYPG-6-31G_dp-NX-Scan-d89-09-n800
 OpenBabel11261920323D

 20 19  0  0  0  0  0  0  0  0999 V2000
   -2.1298   -0.0246    0.3437 C   0  0  0  0  0  0  0  0  0  0  0  0
   -3.2125   -0.8777    0.1622 N   0  0  0  0  0  0  0  0  0  0  0  0
   -4.0056   -1.6527    0.1179 N   0  0  0  0  0  0  0  0  0  0  0  0
   -1.8286    0.3284    1.6711 C   0  0  0  0  0  0  0  0  0  0  0  0
   -0.7170    1.1265    1.8832 C   0  0  0  0  0  0  0  0  0  0  0  0
    0.0386    1.5261    0.7775 C   0  0  0  0  0  0  0  0  0  0  0  0
    1.2366    2.3691    1.0199 N   0  0  0  0  0  0  0  0  0  0  0  0
    1.4752    2.6750    2.1843 O   0  0  0  0  0  0  0  0  0  0  0  0
    1.9004    2.6907    0.0416 O   0  0  0  0  0  0  0  0  0  0  0  0
   -0.2738    1.1776   -0.5317 C   0  0  0  0  0  0  0  0  0  0  0  0
   -1.3921    0.3852   -0.7742 C   0  0  0  0  0  0  0  0  0  0  0  0
   -2.4507   -0.0077    2.4920 H   0  0  0  0  0  0  0  0  0  0  0  0
   -0.4245    1.4422    2.8760 H   0  0  0  0  0  0  0  0  0  0  0  0
    0.3400    1.5379   -1.3470 H   0  0  0  0  0  0  0  0  0  0  0  0
   -1.7300    0.1137   -1.7654 H   0  0  0  0  0  0  0  0  0  0  0  0
   -4.1750    1.0622   -1.9931 B   0  0  0  0  0  0  0  0  0  0  0  0
   -5.2448    1.3749   -2.7861 F   0  0  0  0  0  0  0  0  0  0  0  0
   -3.6879   -0.2690   -2.2761 F   0  0  0  0  0  0  0  0  0  0  0  0
   -3.0955    1.9426   -2.1617 F   0  0  0  0  0  0  0  0  0  0  0  0
   -4.5294    1.0456   -0.6081 F   0  0  0  0  0  0  0  0  0  0  0  0
  1  4  2  0  0  0  0
  2  1  1  0  0  0  0
  3  2  1  0  0  0  0
  4  5  1  0  0  0  0
  4 12  1  0  0  0  0
  5 13  1  0  0  0  0
  6  7  1  0  0  0  0
  6  5  2  0  0  0  0
  7  8  2  0  0  0  0
  9  7  2  0  0  0  0
 10  6  1  0  0  0  0
 11 10  2  0  0  0  0
 11  1  1  0  0  0  0
 14 10  1  0  0  0  0
 15 11  1  0  0  0  0
 16 20  1  0  0  0  0
 17 16  1  0  0  0  0
 18 16  1  0  0  0  0
 19 16  1  0  0  0  0
M  RAD  2   2   2   3   3
M  END
