Coordinates from ORCA-job 4-NO2PhN2+~BF4-_B3LYPG-6-31G_dp-NX-Scan-d89-09-n800
 OpenBabel11261920313D

 20 19  0  0  0  0  0  0  0  0999 V2000
   -1.8953   -1.0171    0.1370 C   0  0  0  0  0  0  0  0  0  0  0  0
   -2.4348   -2.2649    0.1058 N   0  0  0  0  0  0  0  0  0  0  0  0
   -2.8332   -3.3140    0.1033 N   0  0  0  0  0  0  0  0  0  0  0  0
   -2.2773   -0.1437    1.1814 C   0  0  0  0  0  0  0  0  0  0  0  0
   -1.6427    1.0793    1.2617 C   0  0  0  0  0  0  0  0  0  0  0  0
   -0.6891    1.4036    0.2932 C   0  0  0  0  0  0  0  0  0  0  0  0
    0.0944    2.6538    0.4712 N   0  0  0  0  0  0  0  0  0  0  0  0
   -0.1444    3.3164    1.4713 O   0  0  0  0  0  0  0  0  0  0  0  0
    0.9525    2.8916   -0.3689 O   0  0  0  0  0  0  0  0  0  0  0  0
   -0.3331    0.5505   -0.7582 C   0  0  0  0  0  0  0  0  0  0  0  0
   -0.9447   -0.6784   -0.8582 C   0  0  0  0  0  0  0  0  0  0  0  0
   -3.0414   -0.4324    1.8932 H   0  0  0  0  0  0  0  0  0  0  0  0
   -1.8985    1.8047    2.0197 H   0  0  0  0  0  0  0  0  0  0  0  0
    0.4029    0.8828   -1.4787 H   0  0  0  0  0  0  0  0  0  0  0  0
   -0.7062   -1.3743   -1.6537 H   0  0  0  0  0  0  0  0  0  0  0  0
   -3.3417    2.5329   -0.9118 B   0  0  0  0  0  0  0  0  0  0  0  0
   -4.1202    3.3727   -1.6747 F   0  0  0  0  0  0  0  0  0  0  0  0
   -3.4223    1.1815   -1.3265 F   0  0  0  0  0  0  0  0  0  0  0  0
   -1.9568    2.9246   -1.0374 F   0  0  0  0  0  0  0  0  0  0  0  0
   -3.6750    2.5965    0.4562 F   0  0  0  0  0  0  0  0  0  0  0  0
  1  4  2  0  0  0  0
  2  1  1  0  0  0  0
  3  2  1  0  0  0  0
  4  5  1  0  0  0  0
  4 12  1  0  0  0  0
  5 13  1  0  0  0  0
  6  7  1  0  0  0  0
  6  5  2  0  0  0  0
  7  8  2  0  0  0  0
  9  7  2  0  0  0  0
 10  6  1  0  0  0  0
 11 10  2  0  0  0  0
 11  1  1  0  0  0  0
 14 10  1  0  0  0  0
 15 11  1  0  0  0  0
 16 20  1  0  0  0  0
 17 16  1  0  0  0  0
 18 16  1  0  0  0  0
 19 16  1  0  0  0  0
M  RAD  2   2   2   3   3
M  END
