Coordinates from ORCA-job 4-NO2PhN2+~BF4-_B3LYPG-6-31G_dp-NX-Scan-d89-09-n800
 OpenBabel11261920323D

 20 19  0  0  0  0  0  0  0  0999 V2000
   -2.0216   -0.3483    0.0994 C   0  0  0  0  0  0  0  0  0  0  0  0
   -2.9850   -1.3136   -0.1266 N   0  0  0  0  0  0  0  0  0  0  0  0
   -3.6694   -2.1868   -0.2124 N   0  0  0  0  0  0  0  0  0  0  0  0
   -2.1300    0.4183    1.2680 C   0  0  0  0  0  0  0  0  0  0  0  0
   -1.1370    1.3570    1.5033 C   0  0  0  0  0  0  0  0  0  0  0  0
   -0.1186    1.5038    0.5651 C   0  0  0  0  0  0  0  0  0  0  0  0
    0.9388    2.5106    0.8288 N   0  0  0  0  0  0  0  0  0  0  0  0
    0.8574    3.1445    1.8754 O   0  0  0  0  0  0  0  0  0  0  0  0
    1.8223    2.6252   -0.0143 O   0  0  0  0  0  0  0  0  0  0  0  0
   -0.0453    0.7672   -0.6164 C   0  0  0  0  0  0  0  0  0  0  0  0
   -1.0248   -0.1776   -0.8724 C   0  0  0  0  0  0  0  0  0  0  0  0
   -2.9806    0.3028    1.9252 H   0  0  0  0  0  0  0  0  0  0  0  0
   -1.1537    1.9874    2.3828 H   0  0  0  0  0  0  0  0  0  0  0  0
    0.7555    0.9581   -1.3187 H   0  0  0  0  0  0  0  0  0  0  0  0
   -1.0504   -0.7431   -1.7946 H   0  0  0  0  0  0  0  0  0  0  0  0
   -4.0165    1.4685   -1.2512 B   0  0  0  0  0  0  0  0  0  0  0  0
   -4.9192    2.2602   -1.9207 F   0  0  0  0  0  0  0  0  0  0  0  0
   -3.6493    0.3044   -2.0137 F   0  0  0  0  0  0  0  0  0  0  0  0
   -2.8328    2.1734   -0.9547 F   0  0  0  0  0  0  0  0  0  0  0  0
   -4.5463    0.9544   -0.0263 F   0  0  0  0  0  0  0  0  0  0  0  0
  1  4  2  0  0  0  0
  2  1  1  0  0  0  0
  3  2  1  0  0  0  0
  4  5  1  0  0  0  0
  4 12  1  0  0  0  0
  5 13  1  0  0  0  0
  6  7  1  0  0  0  0
  6  5  2  0  0  0  0
  7  8  2  0  0  0  0
  9  7  2  0  0  0  0
 10  6  1  0  0  0  0
 11 10  2  0  0  0  0
 11  1  1  0  0  0  0
 14 10  1  0  0  0  0
 15 11  1  0  0  0  0
 16 19  1  0  0  0  0
 16 20  1  0  0  0  0
 17 16  1  0  0  0  0
 18 16  1  0  0  0  0
M  RAD  2   2   2   3   3
M  END
