Coordinates from ORCA-job 4-NO2PhN2+~BF4-_B3LYPG-6-31G_dp-NX-Scan-d89-09-n800
 OpenBabel11261920313D

 20 19  0  0  0  0  0  0  0  0999 V2000
   -1.7353   -1.2232    0.1174 C   0  0  0  0  0  0  0  0  0  0  0  0
   -2.1969   -2.5049    0.1498 N   0  0  0  0  0  0  0  0  0  0  0  0
   -2.5424   -3.5708    0.1933 N   0  0  0  0  0  0  0  0  0  0  0  0
   -2.3825   -0.2414    0.9082 C   0  0  0  0  0  0  0  0  0  0  0  0
   -1.8294    1.0233    0.9453 C   0  0  0  0  0  0  0  0  0  0  0  0
   -0.7077    1.2838    0.1549 C   0  0  0  0  0  0  0  0  0  0  0  0
   -0.0301    2.5991    0.2828 N   0  0  0  0  0  0  0  0  0  0  0  0
   -0.2919    3.2486    1.2828 O   0  0  0  0  0  0  0  0  0  0  0  0
    0.7839    2.8839   -0.5872 O   0  0  0  0  0  0  0  0  0  0  0  0
   -0.0993    0.3287   -0.6693 C   0  0  0  0  0  0  0  0  0  0  0  0
   -0.6038   -0.9545   -0.6931 C   0  0  0  0  0  0  0  0  0  0  0  0
   -3.2861   -0.4771    1.4572 H   0  0  0  0  0  0  0  0  0  0  0  0
   -2.3102    1.8458    1.4675 H   0  0  0  0  0  0  0  0  0  0  0  0
    0.7560    0.6160   -1.2679 H   0  0  0  0  0  0  0  0  0  0  0  0
   -0.1538   -1.7370   -1.2929 H   0  0  0  0  0  0  0  0  0  0  0  0
   -3.4886    2.9884   -0.6365 B   0  0  0  0  0  0  0  0  0  0  0  0
   -4.1867    3.9373   -1.3460 F   0  0  0  0  0  0  0  0  0  0  0  0
   -4.0677    1.7037   -0.7203 F   0  0  0  0  0  0  0  0  0  0  0  0
   -2.1466    2.8764   -1.1530 F   0  0  0  0  0  0  0  0  0  0  0  0
   -3.3876    3.3400    0.7330 F   0  0  0  0  0  0  0  0  0  0  0  0
  1  2  1  0  0  0  0
  1  4  2  0  0  0  0
  2  3  1  0  0  0  0
  4  5  1  0  0  0  0
  4 12  1  0  0  0  0
  5 13  1  0  0  0  0
  6  7  1  0  0  0  0
  6  5  2  0  0  0  0
  7  8  2  0  0  0  0
  9  7  2  0  0  0  0
 10  6  1  0  0  0  0
 11 10  2  0  0  0  0
 11  1  1  0  0  0  0
 14 10  1  0  0  0  0
 15 11  1  0  0  0  0
 16 20  1  0  0  0  0
 17 16  1  0  0  0  0
 18 16  1  0  0  0  0
 19 16  1  0  0  0  0
M  RAD  2   2   2   3   3
M  END
