Coordinates from ORCA-job 4-NO2PhN2+~BF4-_B3LYPG-6-31G_dp-NX-Scan-d89-09-n800
 OpenBabel11261920313D

 20 19  0  0  0  0  0  0  0  0999 V2000
   -1.8681   -1.0739    0.1407 C   0  0  0  0  0  0  0  0  0  0  0  0
   -2.3494   -2.3461    0.1423 N   0  0  0  0  0  0  0  0  0  0  0  0
   -2.6977   -3.4132    0.1681 N   0  0  0  0  0  0  0  0  0  0  0  0
   -2.2920   -0.1882    1.1602 C   0  0  0  0  0  0  0  0  0  0  0  0
   -1.6956    1.0546    1.2248 C   0  0  0  0  0  0  0  0  0  0  0  0
   -0.7349    1.3884    0.2649 C   0  0  0  0  0  0  0  0  0  0  0  0
    0.0422    2.6422    0.4561 N   0  0  0  0  0  0  0  0  0  0  0  0
   -0.2187    3.3047    1.4501 O   0  0  0  0  0  0  0  0  0  0  0  0
    0.9198    2.8771   -0.3644 O   0  0  0  0  0  0  0  0  0  0  0  0
   -0.3450    0.5264   -0.7686 C   0  0  0  0  0  0  0  0  0  0  0  0
   -0.9164   -0.7229   -0.8508 C   0  0  0  0  0  0  0  0  0  0  0  0
   -3.0520   -0.4884    1.8720 H   0  0  0  0  0  0  0  0  0  0  0  0
   -1.9845    1.7891    1.9619 H   0  0  0  0  0  0  0  0  0  0  0  0
    0.3926    0.8658   -1.4842 H   0  0  0  0  0  0  0  0  0  0  0  0
   -0.6426   -1.4278   -1.6270 H   0  0  0  0  0  0  0  0  0  0  0  0
   -3.3355    2.6472   -0.8960 B   0  0  0  0  0  0  0  0  0  0  0  0
   -4.0661    3.5446   -1.6403 F   0  0  0  0  0  0  0  0  0  0  0  0
   -3.5675    1.3034   -1.2568 F   0  0  0  0  0  0  0  0  0  0  0  0
   -1.9221    2.8935   -1.1130 F   0  0  0  0  0  0  0  0  0  0  0  0
   -3.5731    2.7894    0.4857 F   0  0  0  0  0  0  0  0  0  0  0  0
  1  2  1  0  0  0  0
  1  4  2  0  0  0  0
  2  3  1  0  0  0  0
  4  5  1  0  0  0  0
  4 12  1  0  0  0  0
  5 13  1  0  0  0  0
  6  7  1  0  0  0  0
  6  5  2  0  0  0  0
  7  8  2  0  0  0  0
  9  7  2  0  0  0  0
 10  6  1  0  0  0  0
 11 10  2  0  0  0  0
 11  1  1  0  0  0  0
 14 10  1  0  0  0  0
 15 11  1  0  0  0  0
 16 20  1  0  0  0  0
 17 16  1  0  0  0  0
 18 16  1  0  0  0  0
 19 16  1  0  0  0  0
M  RAD  2   2   2   3   3
M  END
