Coordinates from ORCA-job 4-NO2PhN2+~BF4-_B3LYPG-6-31G_dp-NX-Scan-d89-09-n800
 OpenBabel11261920323D

 20 19  0  0  0  0  0  0  0  0999 V2000
   -1.9431   -0.5255   -0.0125 C   0  0  0  0  0  0  0  0  0  0  0  0
   -2.7895   -1.5785   -0.2619 N   0  0  0  0  0  0  0  0  0  0  0  0
   -3.3901   -2.5041   -0.4250 N   0  0  0  0  0  0  0  0  0  0  0  0
   -2.2221    0.3042    1.0849 C   0  0  0  0  0  0  0  0  0  0  0  0
   -1.3194    1.3281    1.3471 C   0  0  0  0  0  0  0  0  0  0  0  0
   -0.2237    1.4862    0.5099 C   0  0  0  0  0  0  0  0  0  0  0  0
    0.7313    2.5834    0.8021 N   0  0  0  0  0  0  0  0  0  0  0  0
    0.5088    3.2690    1.7935 O   0  0  0  0  0  0  0  0  0  0  0  0
    1.6811    2.7136    0.0361 O   0  0  0  0  0  0  0  0  0  0  0  0
    0.0295    0.6759   -0.6012 C   0  0  0  0  0  0  0  0  0  0  0  0
   -0.8458   -0.3538   -0.8811 C   0  0  0  0  0  0  0  0  0  0  0  0
   -3.1158    0.1678    1.6755 H   0  0  0  0  0  0  0  0  0  0  0  0
   -1.4795    2.0161    2.1664 H   0  0  0  0  0  0  0  0  0  0  0  0
    0.8918    0.8737   -1.2240 H   0  0  0  0  0  0  0  0  0  0  0  0
   -0.7104   -1.0023   -1.7380 H   0  0  0  0  0  0  0  0  0  0  0  0
   -3.9606    1.7312   -1.0119 B   0  0  0  0  0  0  0  0  0  0  0  0
   -4.8124    2.5785   -1.6829 F   0  0  0  0  0  0  0  0  0  0  0  0
   -4.2449    0.3486   -1.2780 F   0  0  0  0  0  0  0  0  0  0  0  0
   -2.6140    1.9547   -1.3718 F   0  0  0  0  0  0  0  0  0  0  0  0
   -4.0779    1.8993    0.3988 F   0  0  0  0  0  0  0  0  0  0  0  0
  1  4  2  0  0  0  0
  2  1  1  0  0  0  0
  3  2  1  0  0  0  0
  4  5  1  0  0  0  0
  4 12  1  0  0  0  0
  5 13  1  0  0  0  0
  6  7  1  0  0  0  0
  6  5  2  0  0  0  0
  7  8  2  0  0  0  0
  9  7  2  0  0  0  0
 10  6  1  0  0  0  0
 11 10  2  0  0  0  0
 11  1  1  0  0  0  0
 14 10  1  0  0  0  0
 15 11  1  0  0  0  0
 16 20  1  0  0  0  0
 17 16  1  0  0  0  0
 18 16  1  0  0  0  0
 19 16  1  0  0  0  0
M  RAD  2   2   2   3   3
M  END
