Coordinates from ORCA-job 4-NO2PhN2+~BF4-_B3LYPG-6-31G_dp-NX-Scan-d89-09-n800
 OpenBabel11261920323D

 20 19  0  0  0  0  0  0  0  0999 V2000
   -1.9306   -0.6116   -0.0150 C   0  0  0  0  0  0  0  0  0  0  0  0
   -2.7003   -1.7286   -0.2131 N   0  0  0  0  0  0  0  0  0  0  0  0
   -3.2416   -2.6976   -0.3398 N   0  0  0  0  0  0  0  0  0  0  0  0
   -2.2539    0.2417    1.0535 C   0  0  0  0  0  0  0  0  0  0  0  0
   -1.3888    1.3022    1.2985 C   0  0  0  0  0  0  0  0  0  0  0  0
   -0.2858    1.4702    0.4753 C   0  0  0  0  0  0  0  0  0  0  0  0
    0.6300    2.6036    0.7508 N   0  0  0  0  0  0  0  0  0  0  0  0
    0.3796    3.2997    1.7277 O   0  0  0  0  0  0  0  0  0  0  0  0
    1.5806    2.7486   -0.0118 O   0  0  0  0  0  0  0  0  0  0  0  0
    0.0081    0.6408   -0.6135 C   0  0  0  0  0  0  0  0  0  0  0  0
   -0.8251   -0.4252   -0.8759 C   0  0  0  0  0  0  0  0  0  0  0  0
   -3.1518    0.0956    1.6358 H   0  0  0  0  0  0  0  0  0  0  0  0
   -1.5919    2.0133    2.0875 H   0  0  0  0  0  0  0  0  0  0  0  0
    0.8711    0.8528   -1.2307 H   0  0  0  0  0  0  0  0  0  0  0  0
   -0.6516   -1.0970   -1.7079 H   0  0  0  0  0  0  0  0  0  0  0  0
   -3.8908    1.8751   -0.9656 B   0  0  0  0  0  0  0  0  0  0  0  0
   -4.7001    2.8038   -1.5853 F   0  0  0  0  0  0  0  0  0  0  0  0
   -4.2529    0.5288   -1.2630 F   0  0  0  0  0  0  0  0  0  0  0  0
   -2.5371    2.0390   -1.3396 F   0  0  0  0  0  0  0  0  0  0  0  0
   -3.9736    2.0110    0.4579 F   0  0  0  0  0  0  0  0  0  0  0  0
  1  4  2  0  0  0  0
  2  1  1  0  0  0  0
  3  2  1  0  0  0  0
  4  5  1  0  0  0  0
  4 12  1  0  0  0  0
  5 13  1  0  0  0  0
  6  7  1  0  0  0  0
  6  5  2  0  0  0  0
  7  8  2  0  0  0  0
  9  7  2  0  0  0  0
 10  6  1  0  0  0  0
 11 10  2  0  0  0  0
 11  1  1  0  0  0  0
 14 10  1  0  0  0  0
 15 11  1  0  0  0  0
 16 20  1  0  0  0  0
 17 16  1  0  0  0  0
 18 16  1  0  0  0  0
 19 16  1  0  0  0  0
M  RAD  2   2   2   3   3
M  END
