Coordinates from ORCA-job 4-NO2PhN2+~BF4-_B3LYPG-6-31G_dp-NX-Scan-d89-09-n800
 OpenBabel11261920323D

 20 19  0  0  0  0  0  0  0  0999 V2000
   -2.1974    0.3011    0.4594 C   0  0  0  0  0  0  0  0  0  0  0  0
   -3.4195   -0.3225    0.2291 N   0  0  0  0  0  0  0  0  0  0  0  0
   -4.3958   -0.8043   -0.0514 N   0  0  0  0  0  0  0  0  0  0  0  0
   -1.7678    0.3606    1.7958 C   0  0  0  0  0  0  0  0  0  0  0  0
   -0.5458    0.9591    2.0641 C   0  0  0  0  0  0  0  0  0  0  0  0
    0.1975    1.4565    0.9933 C   0  0  0  0  0  0  0  0  0  0  0  0
    1.5077    2.0897    1.2853 N   0  0  0  0  0  0  0  0  0  0  0  0
    1.8555    2.1341    2.4615 O   0  0  0  0  0  0  0  0  0  0  0  0
    2.1462    2.5192    0.3312 O   0  0  0  0  0  0  0  0  0  0  0  0
   -0.2275    1.3851   -0.3309 C   0  0  0  0  0  0  0  0  0  0  0  0
   -1.4563    0.7997   -0.6226 C   0  0  0  0  0  0  0  0  0  0  0  0
   -2.3830   -0.0461    2.5899 H   0  0  0  0  0  0  0  0  0  0  0  0
   -0.1597    1.0432    3.0718 H   0  0  0  0  0  0  0  0  0  0  0  0
    0.3974    1.7912   -1.1160 H   0  0  0  0  0  0  0  0  0  0  0  0
   -1.8449    0.7232   -1.6351 H   0  0  0  0  0  0  0  0  0  0  0  0
   -4.3257    0.7588   -2.4832 B   0  0  0  0  0  0  0  0  0  0  0  0
   -4.9754   -0.3934   -1.8365 F   0  0  0  0  0  0  0  0  0  0  0  0
   -3.1134    0.2795   -3.0132 F   0  0  0  0  0  0  0  0  0  0  0  0
   -5.1578    1.2742   -3.4269 F   0  0  0  0  0  0  0  0  0  0  0  0
   -4.0406    1.6571   -1.4395 F   0  0  0  0  0  0  0  0  0  0  0  0
  1  4  2  0  0  0  0
  2  1  1  0  0  0  0
  3  2  1  0  0  0  0
  4  5  1  0  0  0  0
  4 12  1  0  0  0  0
  5 13  1  0  0  0  0
  6  7  1  0  0  0  0
  6  5  2  0  0  0  0
  7  8  2  0  0  0  0
  9  7  2  0  0  0  0
 10  6  1  0  0  0  0
 11 10  2  0  0  0  0
 11  1  1  0  0  0  0
 14 10  1  0  0  0  0
 15 11  1  0  0  0  0
 16 17  1  0  0  0  0
 16 20  1  0  0  0  0
 18 16  1  0  0  0  0
 19 16  1  0  0  0  0
M  RAD  2   2   2   3   3
M  END
