Coordinates from ORCA-job 4-NO2PhN2+~BF4-_B3LYPG-6-31G_dp-NX-Scan-d89-09-n800
 OpenBabel11261920323D

 20 19  0  0  0  0  0  0  0  0999 V2000
   -1.9371   -0.8140    0.1249 C   0  0  0  0  0  0  0  0  0  0  0  0
   -2.7059   -1.9241   -0.0367 N   0  0  0  0  0  0  0  0  0  0  0  0
   -3.3148   -2.8553   -0.1605 N   0  0  0  0  0  0  0  0  0  0  0  0
   -2.2257    0.0412    1.2079 C   0  0  0  0  0  0  0  0  0  0  0  0
   -1.4411    1.1717    1.3514 C   0  0  0  0  0  0  0  0  0  0  0  0
   -0.4684    1.4318    0.3936 C   0  0  0  0  0  0  0  0  0  0  0  0
    0.3285    2.6753    0.5271 N   0  0  0  0  0  0  0  0  0  0  0  0
    0.1221    3.3644    1.5180 O   0  0  0  0  0  0  0  0  0  0  0  0
    1.1509    2.9032   -0.3527 O   0  0  0  0  0  0  0  0  0  0  0  0
   -0.1785    0.5811   -0.6789 C   0  0  0  0  0  0  0  0  0  0  0  0
   -0.9265   -0.5640   -0.8338 C   0  0  0  0  0  0  0  0  0  0  0  0
   -3.0476   -0.1679    1.8792 H   0  0  0  0  0  0  0  0  0  0  0  0
   -1.6323    1.8933    2.1333 H   0  0  0  0  0  0  0  0  0  0  0  0
    0.5914    0.8601   -1.3859 H   0  0  0  0  0  0  0  0  0  0  0  0
   -0.7744   -1.2410   -1.6655 H   0  0  0  0  0  0  0  0  0  0  0  0
   -3.5100    2.1410   -0.9570 B   0  0  0  0  0  0  0  0  0  0  0  0
   -4.4183    2.9124   -1.6428 F   0  0  0  0  0  0  0  0  0  0  0  0
   -3.2856    0.8924   -1.6041 F   0  0  0  0  0  0  0  0  0  0  0  0
   -2.2622    2.8148   -0.8506 F   0  0  0  0  0  0  0  0  0  0  0  0
   -3.9707    1.8498    0.3590 F   0  0  0  0  0  0  0  0  0  0  0  0
  1  4  2  0  0  0  0
  2  1  1  0  0  0  0
  3  2  1  0  0  0  0
  4  5  1  0  0  0  0
  4 12  1  0  0  0  0
  5 13  1  0  0  0  0
  6  7  1  0  0  0  0
  6  5  2  0  0  0  0
  7  8  2  0  0  0  0
  9  7  2  0  0  0  0
 10  6  1  0  0  0  0
 11 10  2  0  0  0  0
 11  1  1  0  0  0  0
 14 10  1  0  0  0  0
 15 11  1  0  0  0  0
 16 19  1  0  0  0  0
 16 20  1  0  0  0  0
 17 16  1  0  0  0  0
 18 16  1  0  0  0  0
M  RAD  2   2   2   3   3
M  END
