Coordinates from ORCA-job 4-NO2PhN2+~BF4-_B3LYPG-6-31G_dp-NX-Scan-d89-09-n800
 OpenBabel11261920323D

 20 19  0  0  0  0  0  0  0  0999 V2000
   -2.1311    0.2058    0.3551 C   0  0  0  0  0  0  0  0  0  0  0  0
   -3.3068   -0.5021    0.1006 N   0  0  0  0  0  0  0  0  0  0  0  0
   -4.1957   -1.1660    0.0587 N   0  0  0  0  0  0  0  0  0  0  0  0
   -1.7731    0.3300    1.7074 C   0  0  0  0  0  0  0  0  0  0  0  0
   -0.5925    0.9977    1.9992 C   0  0  0  0  0  0  0  0  0  0  0  0
    0.1689    1.4970    0.9422 C   0  0  0  0  0  0  0  0  0  0  0  0
    1.4340    2.2038    1.2660 N   0  0  0  0  0  0  0  0  0  0  0  0
    1.7279    2.3024    2.4533 O   0  0  0  0  0  0  0  0  0  0  0  0
    2.0904    2.6318    0.3241 O   0  0  0  0  0  0  0  0  0  0  0  0
   -0.1967    1.3646   -0.3956 C   0  0  0  0  0  0  0  0  0  0  0  0
   -1.3804    0.7083   -0.7148 C   0  0  0  0  0  0  0  0  0  0  0  0
   -2.4020   -0.0745    2.4918 H   0  0  0  0  0  0  0  0  0  0  0  0
   -0.2545    1.1359    3.0181 H   0  0  0  0  0  0  0  0  0  0  0  0
    0.4370    1.7811   -1.1682 H   0  0  0  0  0  0  0  0  0  0  0  0
   -1.7505    0.5650   -1.7256 H   0  0  0  0  0  0  0  0  0  0  0  0
   -4.3918    0.8173   -2.3139 B   0  0  0  0  0  0  0  0  0  0  0  0
   -5.5946    0.1579   -2.0992 F   0  0  0  0  0  0  0  0  0  0  0  0
   -3.3564   -0.1790   -2.4873 F   0  0  0  0  0  0  0  0  0  0  0  0
   -4.4086    1.6775   -3.3792 F   0  0  0  0  0  0  0  0  0  0  0  0
   -4.0299    1.5117   -1.1067 F   0  0  0  0  0  0  0  0  0  0  0  0
  1  4  2  0  0  0  0
  2  1  1  0  0  0  0
  3  2  1  0  0  0  0
  4  5  1  0  0  0  0
  4 12  1  0  0  0  0
  5 13  1  0  0  0  0
  6  7  1  0  0  0  0
  6  5  2  0  0  0  0
  7  8  2  0  0  0  0
  9  7  2  0  0  0  0
 10  6  1  0  0  0  0
 11 10  2  0  0  0  0
 11  1  1  0  0  0  0
 14 10  1  0  0  0  0
 15 11  1  0  0  0  0
 16 17  1  0  0  0  0
 16 20  1  0  0  0  0
 18 16  1  0  0  0  0
 19 16  1  0  0  0  0
M  RAD  2   2   2   3   3
M  END
