Coordinates from ORCA-job 4-NO2PhN2+~BF4-_B3LYPG-6-31G_dp-NX-Scan-d89-09-n800
 OpenBabel11261920323D

 20 19  0  0  0  0  0  0  0  0999 V2000
   -1.9185   -0.8935    0.1355 C   0  0  0  0  0  0  0  0  0  0  0  0
   -2.6359   -2.0389   -0.0007 N   0  0  0  0  0  0  0  0  0  0  0  0
   -3.2095   -2.9955   -0.1056 N   0  0  0  0  0  0  0  0  0  0  0  0
   -2.2314   -0.0362    1.2119 C   0  0  0  0  0  0  0  0  0  0  0  0
   -1.5036    1.1314    1.3305 C   0  0  0  0  0  0  0  0  0  0  0  0
   -0.5495    1.4229    0.3584 C   0  0  0  0  0  0  0  0  0  0  0  0
    0.2197    2.6854    0.4885 N   0  0  0  0  0  0  0  0  0  0  0  0
    0.0042    3.3655    1.4829 O   0  0  0  0  0  0  0  0  0  0  0  0
    1.0351    2.9294   -0.3924 O   0  0  0  0  0  0  0  0  0  0  0  0
   -0.2317    0.5691   -0.7032 C   0  0  0  0  0  0  0  0  0  0  0  0
   -0.9287   -0.6105   -0.8361 C   0  0  0  0  0  0  0  0  0  0  0  0
   -3.0349   -0.2742    1.8973 H   0  0  0  0  0  0  0  0  0  0  0  0
   -1.7175    1.8547    2.1044 H   0  0  0  0  0  0  0  0  0  0  0  0
    0.5200    0.8722   -1.4200 H   0  0  0  0  0  0  0  0  0  0  0  0
   -0.7496   -1.2936   -1.6576 H   0  0  0  0  0  0  0  0  0  0  0  0
   -3.4224    2.2707   -0.9284 B   0  0  0  0  0  0  0  0  0  0  0  0
   -4.2835    3.0387   -1.6747 F   0  0  0  0  0  0  0  0  0  0  0  0
   -3.2668    0.9685   -1.4807 F   0  0  0  0  0  0  0  0  0  0  0  0
   -2.1278    2.8806   -0.8892 F   0  0  0  0  0  0  0  0  0  0  0  0
   -3.8740    2.1195    0.4049 F   0  0  0  0  0  0  0  0  0  0  0  0
  1  4  2  0  0  0  0
  2  1  1  0  0  0  0
  3  2  1  0  0  0  0
  4  5  1  0  0  0  0
  4 12  1  0  0  0  0
  5 13  1  0  0  0  0
  6  7  1  0  0  0  0
  6  5  2  0  0  0  0
  7  8  2  0  0  0  0
  9  7  2  0  0  0  0
 10  6  1  0  0  0  0
 11 10  2  0  0  0  0
 11  1  1  0  0  0  0
 14 10  1  0  0  0  0
 15 11  1  0  0  0  0
 16 19  1  0  0  0  0
 16 20  1  0  0  0  0
 17 16  1  0  0  0  0
 18 16  1  0  0  0  0
M  RAD  2   2   2   3   3
M  END
