Coordinates from ORCA-job 4-NO2PhN2+~BF4-_B3LYPG-6-31G_dp-NX-Scan-d89-09-n800
 OpenBabel11261920313D

 20 19  0  0  0  0  0  0  0  0999 V2000
   -1.6973   -1.2827    0.1215 C   0  0  0  0  0  0  0  0  0  0  0  0
   -2.1220   -2.5772    0.1904 N   0  0  0  0  0  0  0  0  0  0  0  0
   -2.4320   -3.6524    0.2623 N   0  0  0  0  0  0  0  0  0  0  0  0
   -2.4113   -0.2822    0.8281 C   0  0  0  0  0  0  0  0  0  0  0  0
   -1.8927    0.9989    0.8350 C   0  0  0  0  0  0  0  0  0  0  0  0
   -0.7251    1.2468    0.1078 C   0  0  0  0  0  0  0  0  0  0  0  0
   -0.0719    2.5743    0.2210 N   0  0  0  0  0  0  0  0  0  0  0  0
   -0.3203    3.2114    1.2316 O   0  0  0  0  0  0  0  0  0  0  0  0
    0.7168    2.8741   -0.6670 O   0  0  0  0  0  0  0  0  0  0  0  0
   -0.0547    0.2731   -0.6428 C   0  0  0  0  0  0  0  0  0  0  0  0
   -0.5286   -1.0230   -0.6368 C   0  0  0  0  0  0  0  0  0  0  0  0
   -3.3380   -0.5153    1.3388 H   0  0  0  0  0  0  0  0  0  0  0  0
   -2.4125    1.8325    1.3077 H   0  0  0  0  0  0  0  0  0  0  0  0
    0.8273    0.5538   -1.2049 H   0  0  0  0  0  0  0  0  0  0  0  0
   -0.0274   -1.8197   -1.1738 H   0  0  0  0  0  0  0  0  0  0  0  0
   -3.5149    3.1321   -0.5730 B   0  0  0  0  0  0  0  0  0  0  0  0
   -4.1923    4.1457   -1.2112 F   0  0  0  0  0  0  0  0  0  0  0  0
   -4.1692    1.8858   -0.6658 F   0  0  0  0  0  0  0  0  0  0  0  0
   -2.2080    2.9641   -1.1492 F   0  0  0  0  0  0  0  0  0  0  0  0
   -3.3323    3.4261    0.8063 F   0  0  0  0  0  0  0  0  0  0  0  0
  1  2  1  0  0  0  0
  1  4  2  0  0  0  0
  2  3  1  0  0  0  0
  4  5  1  0  0  0  0
  4 12  1  0  0  0  0
  5 13  1  0  0  0  0
  6  7  1  0  0  0  0
  6  5  2  0  0  0  0
  7  8  2  0  0  0  0
  9  7  2  0  0  0  0
 10 11  2  0  0  0  0
 10  6  1  0  0  0  0
 11  1  1  0  0  0  0
 14 10  1  0  0  0  0
 15 11  1  0  0  0  0
 16 20  1  0  0  0  0
 17 16  1  0  0  0  0
 18 16  1  0  0  0  0
 19 16  1  0  0  0  0
M  RAD  2   2   2   3   3
M  END
