Coordinates from ORCA-job 4-NO2PhN2+~BF4-_B3LYPG-6-31G_dp-NX-Scan-d89-09-n800
 OpenBabel11261920323D

 20 19  0  0  0  0  0  0  0  0999 V2000
   -2.2773    0.2499    0.5696 C   0  0  0  0  0  0  0  0  0  0  0  0
   -3.5359   -0.3531    0.4448 N   0  0  0  0  0  0  0  0  0  0  0  0
   -4.3751   -0.7281   -0.2448 N   0  0  0  0  0  0  0  0  0  0  0  0
   -1.8144    0.4231    1.8823 C   0  0  0  0  0  0  0  0  0  0  0  0
   -0.5708    1.0059    2.0846 C   0  0  0  0  0  0  0  0  0  0  0  0
    0.1648    1.3913    0.9653 C   0  0  0  0  0  0  0  0  0  0  0  0
    1.4943    2.0126    1.1773 N   0  0  0  0  0  0  0  0  0  0  0  0
    1.8665    2.1535    2.3387 O   0  0  0  0  0  0  0  0  0  0  0  0
    2.1267    2.3386    0.1786 O   0  0  0  0  0  0  0  0  0  0  0  0
   -0.2913    1.2211   -0.3403 C   0  0  0  0  0  0  0  0  0  0  0  0
   -1.5364    0.6401   -0.5581 C   0  0  0  0  0  0  0  0  0  0  0  0
   -2.4291    0.1048    2.7162 H   0  0  0  0  0  0  0  0  0  0  0  0
   -0.1660    1.1652    3.0755 H   0  0  0  0  0  0  0  0  0  0  0  0
    0.3238    1.5479   -1.1691 H   0  0  0  0  0  0  0  0  0  0  0  0
   -1.9209    0.5139   -1.5617 H   0  0  0  0  0  0  0  0  0  0  0  0
   -4.2333    0.9745   -2.5065 B   0  0  0  0  0  0  0  0  0  0  0  0
   -3.9692   -0.4951   -1.9010 F   0  0  0  0  0  0  0  0  0  0  0  0
   -3.0720    1.1900   -3.2085 F   0  0  0  0  0  0  0  0  0  0  0  0
   -5.3563    0.8647   -3.2450 F   0  0  0  0  0  0  0  0  0  0  0  0
   -4.3348    1.7453   -1.3720 F   0  0  0  0  0  0  0  0  0  0  0  0
  1  4  2  0  0  0  0
  2  1  1  0  0  0  0
  3  2  2  0  0  0  0
  4  5  1  0  0  0  0
  4 12  1  0  0  0  0
  5 13  1  0  0  0  0
  6  7  1  0  0  0  0
  6  5  2  0  0  0  0
  7  8  2  0  0  0  0
  9  7  2  0  0  0  0
 10  6  1  0  0  0  0
 11 10  2  0  0  0  0
 11  1  1  0  0  0  0
 14 10  1  0  0  0  0
 15 11  1  0  0  0  0
 16 17  1  0  0  0  0
 16 20  1  0  0  0  0
 18 16  1  0  0  0  0
 19 16  1  0  0  0  0
M  RAD  1   3   2
M  END
