Coordinates from ORCA-job 4-NO2PhN2+~BF4-_B3LYPG-6-31G_dp-NX-Scan-d89-09-n800
 OpenBabel11261920323D

 20 19  0  0  0  0  0  0  0  0999 V2000
   -1.9420   -0.5377   -0.0130 C   0  0  0  0  0  0  0  0  0  0  0  0
   -2.7777   -1.6004   -0.2556 N   0  0  0  0  0  0  0  0  0  0  0  0
   -3.3680   -2.5337   -0.4132 N   0  0  0  0  0  0  0  0  0  0  0  0
   -2.2271    0.2952    1.0807 C   0  0  0  0  0  0  0  0  0  0  0  0
   -1.3296    1.3244    1.3405 C   0  0  0  0  0  0  0  0  0  0  0  0
   -0.2332    1.4841    0.5051 C   0  0  0  0  0  0  0  0  0  0  0  0
    0.7159    2.5870    0.7945 N   0  0  0  0  0  0  0  0  0  0  0  0
    0.4891    3.2746    1.7835 O   0  0  0  0  0  0  0  0  0  0  0  0
    1.6658    2.7194    0.0290 O   0  0  0  0  0  0  0  0  0  0  0  0
    0.0259    0.6709   -0.6030 C   0  0  0  0  0  0  0  0  0  0  0  0
   -0.8437   -0.3637   -0.8807 C   0  0  0  0  0  0  0  0  0  0  0  0
   -3.1210    0.1569    1.6706 H   0  0  0  0  0  0  0  0  0  0  0  0
   -1.4959    2.0158    2.1556 H   0  0  0  0  0  0  0  0  0  0  0  0
    0.8883    0.8708   -1.2250 H   0  0  0  0  0  0  0  0  0  0  0  0
   -0.7032   -1.0153   -1.7345 H   0  0  0  0  0  0  0  0  0  0  0  0
   -3.9489    1.7514   -1.0051 B   0  0  0  0  0  0  0  0  0  0  0  0
   -4.7935    2.6127   -1.6685 F   0  0  0  0  0  0  0  0  0  0  0  0
   -4.2467    0.3739   -1.2747 F   0  0  0  0  0  0  0  0  0  0  0  0
   -2.6009    1.9638   -1.3679 F   0  0  0  0  0  0  0  0  0  0  0  0
   -4.0600    1.9160    0.4075 F   0  0  0  0  0  0  0  0  0  0  0  0
  1  4  2  0  0  0  0
  2  1  1  0  0  0  0
  3  2  1  0  0  0  0
  4  5  1  0  0  0  0
  4 12  1  0  0  0  0
  5 13  1  0  0  0  0
  6  7  1  0  0  0  0
  6  5  2  0  0  0  0
  7  8  2  0  0  0  0
  9  7  2  0  0  0  0
 10  6  1  0  0  0  0
 11 10  2  0  0  0  0
 11  1  1  0  0  0  0
 14 10  1  0  0  0  0
 15 11  1  0  0  0  0
 16 20  1  0  0  0  0
 17 16  1  0  0  0  0
 18 16  1  0  0  0  0
 19 16  1  0  0  0  0
M  RAD  2   2   2   3   3
M  END
