Coordinates from ORCA-job 4-NO2PhN2+~BF4-_B3LYPG-6-31G_dp-NX-Scan-d89-09-n800
 OpenBabel11261920323D

 20 19  0  0  0  0  0  0  0  0999 V2000
   -2.1360    0.2281    0.3583 C   0  0  0  0  0  0  0  0  0  0  0  0
   -3.3206   -0.4613    0.0967 N   0  0  0  0  0  0  0  0  0  0  0  0
   -4.2285   -1.0984    0.0346 N   0  0  0  0  0  0  0  0  0  0  0  0
   -1.7734    0.3348    1.7111 C   0  0  0  0  0  0  0  0  0  0  0  0
   -0.5863    0.9887    2.0072 C   0  0  0  0  0  0  0  0  0  0  0  0
    0.1777    1.4915    0.9535 C   0  0  0  0  0  0  0  0  0  0  0  0
    1.4497    2.1839    1.2816 N   0  0  0  0  0  0  0  0  0  0  0  0
    1.7478    2.2667    2.4691 O   0  0  0  0  0  0  0  0  0  0  0  0
    2.1069    2.6174    0.3427 O   0  0  0  0  0  0  0  0  0  0  0  0
   -0.1913    1.3751   -0.3846 C   0  0  0  0  0  0  0  0  0  0  0  0
   -1.3818    0.7331   -0.7082 C   0  0  0  0  0  0  0  0  0  0  0  0
   -2.4043   -0.0720    2.4926 H   0  0  0  0  0  0  0  0  0  0  0  0
   -0.2448    1.1135    3.0267 H   0  0  0  0  0  0  0  0  0  0  0  0
    0.4454    1.7924   -1.1543 H   0  0  0  0  0  0  0  0  0  0  0  0
   -1.7534    0.6024   -1.7204 H   0  0  0  0  0  0  0  0  0  0  0  0
   -4.3949    0.7941   -2.3333 B   0  0  0  0  0  0  0  0  0  0  0  0
   -5.5340    0.0556   -2.0046 F   0  0  0  0  0  0  0  0  0  0  0  0
   -3.3164   -0.1386   -2.5499 F   0  0  0  0  0  0  0  0  0  0  0  0
   -4.5608    1.6096   -3.4178 F   0  0  0  0  0  0  0  0  0  0  0  0
   -4.0076    1.5495   -1.1749 F   0  0  0  0  0  0  0  0  0  0  0  0
  1  4  2  0  0  0  0
  2  1  1  0  0  0  0
  3  2  1  0  0  0  0
  4  5  1  0  0  0  0
  4 12  1  0  0  0  0
  5 13  1  0  0  0  0
  6  7  1  0  0  0  0
  6  5  2  0  0  0  0
  7  8  2  0  0  0  0
  9  7  2  0  0  0  0
 10  6  1  0  0  0  0
 11 10  2  0  0  0  0
 11  1  1  0  0  0  0
 14 10  1  0  0  0  0
 15 11  1  0  0  0  0
 16 17  1  0  0  0  0
 16 20  1  0  0  0  0
 18 16  1  0  0  0  0
 19 16  1  0  0  0  0
M  RAD  2   2   2   3   3
M  END
