Coordinates from ORCA-job 4-NO2PhN2+~BF4-_B3LYPG-6-31G_dp-NX-Scan-d89-09-n800
 OpenBabel11261920323D

 20 19  0  0  0  0  0  0  0  0999 V2000
   -2.1360    0.1765    0.3697 C   0  0  0  0  0  0  0  0  0  0  0  0
   -3.3016   -0.5571    0.1381 N   0  0  0  0  0  0  0  0  0  0  0  0
   -4.1728   -1.2442    0.1254 N   0  0  0  0  0  0  0  0  0  0  0  0
   -1.7603    0.3121    1.7161 C   0  0  0  0  0  0  0  0  0  0  0  0
   -0.5867    1.0002    1.9886 C   0  0  0  0  0  0  0  0  0  0  0  0
    0.1513    1.5081    0.9194 C   0  0  0  0  0  0  0  0  0  0  0  0
    1.4098    2.2356    1.2223 N   0  0  0  0  0  0  0  0  0  0  0  0
    1.7181    2.3450    2.4051 O   0  0  0  0  0  0  0  0  0  0  0  0
    2.0467    2.6685    0.2694 O   0  0  0  0  0  0  0  0  0  0  0  0
   -0.2321    1.3657   -0.4124 C   0  0  0  0  0  0  0  0  0  0  0  0
   -1.4090    0.6888   -0.7118 C   0  0  0  0  0  0  0  0  0  0  0  0
   -2.3708   -0.0996    2.5112 H   0  0  0  0  0  0  0  0  0  0  0  0
   -0.2367    1.1477    3.0022 H   0  0  0  0  0  0  0  0  0  0  0  0
    0.3821    1.7905   -1.1961 H   0  0  0  0  0  0  0  0  0  0  0  0
   -1.7896    0.5374   -1.7169 H   0  0  0  0  0  0  0  0  0  0  0  0
   -4.3604    0.8416   -2.2992 B   0  0  0  0  0  0  0  0  0  0  0  0
   -5.6464    0.3528   -2.3754 F   0  0  0  0  0  0  0  0  0  0  0  0
   -3.4300   -0.2732   -2.3705 F   0  0  0  0  0  0  0  0  0  0  0  0
   -4.0420    1.7618   -3.2676 F   0  0  0  0  0  0  0  0  0  0  0  0
   -4.1399    1.4078   -0.9915 F   0  0  0  0  0  0  0  0  0  0  0  0
  1  4  2  0  0  0  0
  2  1  1  0  0  0  0
  3  2  1  0  0  0  0
  4  5  1  0  0  0  0
  4 12  1  0  0  0  0
  5 13  1  0  0  0  0
  6  7  1  0  0  0  0
  6  5  2  0  0  0  0
  7  8  2  0  0  0  0
  9  7  2  0  0  0  0
 10  6  1  0  0  0  0
 11 10  2  0  0  0  0
 11  1  1  0  0  0  0
 14 10  1  0  0  0  0
 15 11  1  0  0  0  0
 16 20  1  0  0  0  0
 17 16  1  0  0  0  0
 18 16  1  0  0  0  0
 19 16  1  0  0  0  0
M  RAD  2   2   2   3   3
M  END
