Coordinates from ORCA-job 4-NO2PhN2+~BF4-_B3LYPG-6-31G_dp-NX-Scan-d89-09-n800
 OpenBabel11261920323D

 20 19  0  0  0  0  0  0  0  0999 V2000
   -2.1490    0.1590    0.3863 C   0  0  0  0  0  0  0  0  0  0  0  0
   -3.3118   -0.5858    0.1796 N   0  0  0  0  0  0  0  0  0  0  0  0
   -4.1864   -1.2678    0.1730 N   0  0  0  0  0  0  0  0  0  0  0  0
   -1.7451    0.2917    1.7252 C   0  0  0  0  0  0  0  0  0  0  0  0
   -0.5749    0.9926    1.9780 C   0  0  0  0  0  0  0  0  0  0  0  0
    0.1333    1.5173    0.8969 C   0  0  0  0  0  0  0  0  0  0  0  0
    1.3894    2.2577    1.1777 N   0  0  0  0  0  0  0  0  0  0  0  0
    1.7200    2.3656    2.3546 O   0  0  0  0  0  0  0  0  0  0  0  0
    2.0025    2.7014    0.2142 O   0  0  0  0  0  0  0  0  0  0  0  0
   -0.2781    1.3801   -0.4269 C   0  0  0  0  0  0  0  0  0  0  0  0
   -1.4514    0.6887   -0.7069 C   0  0  0  0  0  0  0  0  0  0  0  0
   -2.3332   -0.1327    2.5304 H   0  0  0  0  0  0  0  0  0  0  0  0
   -0.2055    1.1377    2.9849 H   0  0  0  0  0  0  0  0  0  0  0  0
    0.3121    1.8191   -1.2212 H   0  0  0  0  0  0  0  0  0  0  0  0
   -1.8450    0.5468   -1.7078 H   0  0  0  0  0  0  0  0  0  0  0  0
   -4.3118    0.8449   -2.2809 B   0  0  0  0  0  0  0  0  0  0  0  0
   -5.6008    0.5271   -2.6259 F   0  0  0  0  0  0  0  0  0  0  0  0
   -3.5028   -0.3629   -2.2802 F   0  0  0  0  0  0  0  0  0  0  0  0
   -3.6998    1.7692   -3.1037 F   0  0  0  0  0  0  0  0  0  0  0  0
   -4.2680    1.3163   -0.9214 F   0  0  0  0  0  0  0  0  0  0  0  0
  1  4  2  0  0  0  0
  2  1  1  0  0  0  0
  3  2  1  0  0  0  0
  4  5  1  0  0  0  0
  4 12  1  0  0  0  0
  5 13  1  0  0  0  0
  6  7  1  0  0  0  0
  6  5  2  0  0  0  0
  7  8  2  0  0  0  0
  9  7  2  0  0  0  0
 10  6  1  0  0  0  0
 11 10  2  0  0  0  0
 11  1  1  0  0  0  0
 14 10  1  0  0  0  0
 15 11  1  0  0  0  0
 16 18  1  0  0  0  0
 16 20  1  0  0  0  0
 17 16  1  0  0  0  0
 19 16  1  0  0  0  0
M  RAD  2   2   2   3   3
M  END
