Coordinates from ORCA-job 4-NO2PhN2+~BF4-_B3LYPG-6-31G_dp-NX-Scan-d89-09-n800
 OpenBabel11261920323D

 20 19  0  0  0  0  0  0  0  0999 V2000
   -2.0254   -0.2973    0.1060 C   0  0  0  0  0  0  0  0  0  0  0  0
   -3.0295   -1.2204   -0.1409 N   0  0  0  0  0  0  0  0  0  0  0  0
   -3.7509   -2.0590   -0.2469 N   0  0  0  0  0  0  0  0  0  0  0  0
   -2.1076    0.4498    1.2880 C   0  0  0  0  0  0  0  0  0  0  0  0
   -1.0937    1.3633    1.5323 C   0  0  0  0  0  0  0  0  0  0  0  0
   -0.0799    1.5063    0.5874 C   0  0  0  0  0  0  0  0  0  0  0  0
    0.9978    2.4898    0.8576 N   0  0  0  0  0  0  0  0  0  0  0  0
    0.9347    3.1108    1.9133 O   0  0  0  0  0  0  0  0  0  0  0  0
    1.8771    2.6009    0.0098 O   0  0  0  0  0  0  0  0  0  0  0  0
   -0.0304    0.7863   -0.6049 C   0  0  0  0  0  0  0  0  0  0  0  0
   -1.0329   -0.1336   -0.8689 C   0  0  0  0  0  0  0  0  0  0  0  0
   -2.9564    0.3407    1.9489 H   0  0  0  0  0  0  0  0  0  0  0  0
   -1.0900    1.9785    2.4227 H   0  0  0  0  0  0  0  0  0  0  0  0
    0.7685    0.9720   -1.3107 H   0  0  0  0  0  0  0  0  0  0  0  0
   -1.0821   -0.6782   -1.8023 H   0  0  0  0  0  0  0  0  0  0  0  0
   -4.0632    1.3898   -1.2928 B   0  0  0  0  0  0  0  0  0  0  0  0
   -5.0210    2.1154   -1.9521 F   0  0  0  0  0  0  0  0  0  0  0  0
   -3.6280    0.2588   -2.0675 F   0  0  0  0  0  0  0  0  0  0  0  0
   -2.9291    2.1610   -0.9838 F   0  0  0  0  0  0  0  0  0  0  0  0
   -4.5645    0.8312   -0.0694 F   0  0  0  0  0  0  0  0  0  0  0  0
  1  4  2  0  0  0  0
  2  1  1  0  0  0  0
  3  2  1  0  0  0  0
  4  5  1  0  0  0  0
  4 12  1  0  0  0  0
  5 13  1  0  0  0  0
  6  7  1  0  0  0  0
  6  5  2  0  0  0  0
  7  8  2  0  0  0  0
  9  7  2  0  0  0  0
 10  6  1  0  0  0  0
 11 10  2  0  0  0  0
 11  1  1  0  0  0  0
 14 10  1  0  0  0  0
 15 11  1  0  0  0  0
 16 19  1  0  0  0  0
 16 20  1  0  0  0  0
 17 16  1  0  0  0  0
 18 16  1  0  0  0  0
M  RAD  2   2   2   3   3
M  END
