Coordinates from ORCA-job 4-NO2PhN2+~BF4-_B3LYPG-6-31G_dp-NX-Scan-d89-09-n800
 OpenBabel11261920323D

 20 19  0  0  0  0  0  0  0  0999 V2000
   -2.0221   -0.3333    0.1009 C   0  0  0  0  0  0  0  0  0  0  0  0
   -3.0005   -1.2831   -0.1337 N   0  0  0  0  0  0  0  0  0  0  0  0
   -3.6979   -2.1444   -0.2273 N   0  0  0  0  0  0  0  0  0  0  0  0
   -2.1230    0.4276    1.2735 C   0  0  0  0  0  0  0  0  0  0  0  0
   -1.1239    1.3589    1.5119 C   0  0  0  0  0  0  0  0  0  0  0  0
   -0.1066    1.5046    0.5720 C   0  0  0  0  0  0  0  0  0  0  0  0
    0.9561    2.5055    0.8374 N   0  0  0  0  0  0  0  0  0  0  0  0
    0.8794    3.1361    1.8864 O   0  0  0  0  0  0  0  0  0  0  0  0
    1.8386    2.6191   -0.0068 O   0  0  0  0  0  0  0  0  0  0  0  0
   -0.0395    0.7722   -0.6123 C   0  0  0  0  0  0  0  0  0  0  0  0
   -1.0258   -0.1653   -0.8711 C   0  0  0  0  0  0  0  0  0  0  0  0
   -2.9735    0.3143    1.9312 H   0  0  0  0  0  0  0  0  0  0  0  0
   -1.1349    1.9849    2.3946 H   0  0  0  0  0  0  0  0  0  0  0  0
    0.7612    0.9613   -1.3152 H   0  0  0  0  0  0  0  0  0  0  0  0
   -1.0576   -0.7250   -1.7965 H   0  0  0  0  0  0  0  0  0  0  0  0
   -4.0304    1.4437   -1.2620 B   0  0  0  0  0  0  0  0  0  0  0  0
   -4.9512    2.2158   -1.9277 F   0  0  0  0  0  0  0  0  0  0  0  0
   -3.6452    0.2873   -2.0274 F   0  0  0  0  0  0  0  0  0  0  0  0
   -2.8601    2.1686   -0.9660 F   0  0  0  0  0  0  0  0  0  0  0  0
   -4.5494    0.9173   -0.0359 F   0  0  0  0  0  0  0  0  0  0  0  0
  1  4  2  0  0  0  0
  2  1  1  0  0  0  0
  3  2  1  0  0  0  0
  4  5  1  0  0  0  0
  4 12  1  0  0  0  0
  5 13  1  0  0  0  0
  6  7  1  0  0  0  0
  6  5  2  0  0  0  0
  7  8  2  0  0  0  0
  9  7  2  0  0  0  0
 10  6  1  0  0  0  0
 11 10  2  0  0  0  0
 11  1  1  0  0  0  0
 14 10  1  0  0  0  0
 15 11  1  0  0  0  0
 16 19  1  0  0  0  0
 16 20  1  0  0  0  0
 17 16  1  0  0  0  0
 18 16  1  0  0  0  0
M  RAD  2   2   2   3   3
M  END
