Coordinates from ORCA-job 4-NO2PhN2+~BF4-_B3LYPG-6-31G_dp-NX-Scan-d89-09-n800
 OpenBabel11261920323D

 20 19  0  0  0  0  0  0  0  0999 V2000
   -2.1425    0.0644    0.3871 C   0  0  0  0  0  0  0  0  0  0  0  0
   -3.2690   -0.7326    0.2033 N   0  0  0  0  0  0  0  0  0  0  0  0
   -4.1229   -1.4384    0.1577 N   0  0  0  0  0  0  0  0  0  0  0  0
   -1.7616    0.2932    1.7209 C   0  0  0  0  0  0  0  0  0  0  0  0
   -0.6193    1.0463    1.9417 C   0  0  0  0  0  0  0  0  0  0  0  0
    0.0863    1.5256    0.8363 C   0  0  0  0  0  0  0  0  0  0  0  0
    1.3136    2.3237    1.0849 N   0  0  0  0  0  0  0  0  0  0  0  0
    1.6204    2.5214    2.2566 O   0  0  0  0  0  0  0  0  0  0  0  0
    1.9342    2.7134    0.1031 O   0  0  0  0  0  0  0  0  0  0  0  0
   -0.3032    1.2956   -0.4799 C   0  0  0  0  0  0  0  0  0  0  0  0
   -1.4492    0.5474   -0.7304 C   0  0  0  0  0  0  0  0  0  0  0  0
   -2.3474   -0.1001    2.5432 H   0  0  0  0  0  0  0  0  0  0  0  0
   -0.2678    1.2672    2.9410 H   0  0  0  0  0  0  0  0  0  0  0  0
    0.2779    1.7096   -1.2939 H   0  0  0  0  0  0  0  0  0  0  0  0
   -1.8353    0.3656   -1.7263 H   0  0  0  0  0  0  0  0  0  0  0  0
   -4.2353    0.9415   -2.1551 B   0  0  0  0  0  0  0  0  0  0  0  0
   -5.3994    1.0240   -2.8673 F   0  0  0  0  0  0  0  0  0  0  0  0
   -3.6743   -0.3898   -2.2503 F   0  0  0  0  0  0  0  0  0  0  0  0
   -3.2453    1.8301   -2.5872 F   0  0  0  0  0  0  0  0  0  0  0  0
   -4.4665    1.1582   -0.7596 F   0  0  0  0  0  0  0  0  0  0  0  0
  1  4  2  0  0  0  0
  2  1  1  0  0  0  0
  3  2  1  0  0  0  0
  4  5  1  0  0  0  0
  4 12  1  0  0  0  0
  5 13  1  0  0  0  0
  6  7  1  0  0  0  0
  6  5  2  0  0  0  0
  7  8  2  0  0  0  0
  9  7  2  0  0  0  0
 10  6  1  0  0  0  0
 11 10  2  0  0  0  0
 11  1  1  0  0  0  0
 14 10  1  0  0  0  0
 15 11  1  0  0  0  0
 16 20  1  0  0  0  0
 17 16  1  0  0  0  0
 18 16  1  0  0  0  0
 19 16  1  0  0  0  0
M  RAD  2   2   2   3   3
M  END
