Coordinates from ORCA-job 4-NO2PhN2+~BF4-_B3LYPG-6-31G_dp-NX-Scan-d89-09-n800
 OpenBabel11261920323D

 20 19  0  0  0  0  0  0  0  0999 V2000
   -2.0223   -0.3310    0.1011 C   0  0  0  0  0  0  0  0  0  0  0  0
   -3.0024   -1.2790   -0.1344 N   0  0  0  0  0  0  0  0  0  0  0  0
   -3.7013   -2.1390   -0.2286 N   0  0  0  0  0  0  0  0  0  0  0  0
   -2.1221    0.4290    1.2743 C   0  0  0  0  0  0  0  0  0  0  0  0
   -1.1220    1.3592    1.5132 C   0  0  0  0  0  0  0  0  0  0  0  0
   -0.1049    1.5047    0.5730 C   0  0  0  0  0  0  0  0  0  0  0  0
    0.9587    2.5046    0.8387 N   0  0  0  0  0  0  0  0  0  0  0  0
    0.8828    3.1346    1.8880 O   0  0  0  0  0  0  0  0  0  0  0  0
    1.8410    2.6180   -0.0057 O   0  0  0  0  0  0  0  0  0  0  0  0
   -0.0388    0.7730   -0.6118 C   0  0  0  0  0  0  0  0  0  0  0  0
   -1.0262   -0.1634   -0.8710 C   0  0  0  0  0  0  0  0  0  0  0  0
   -2.9726    0.3161    1.9321 H   0  0  0  0  0  0  0  0  0  0  0  0
   -1.1322    1.9846    2.3963 H   0  0  0  0  0  0  0  0  0  0  0  0
    0.7618    0.9619   -1.3148 H   0  0  0  0  0  0  0  0  0  0  0  0
   -1.0590   -0.7222   -1.7968 H   0  0  0  0  0  0  0  0  0  0  0  0
   -4.0325    1.4403   -1.2638 B   0  0  0  0  0  0  0  0  0  0  0  0
   -4.9556    2.2099   -1.9288 F   0  0  0  0  0  0  0  0  0  0  0  0
   -3.6445    0.2854   -2.0300 F   0  0  0  0  0  0  0  0  0  0  0  0
   -2.8642    2.1679   -0.9672 F   0  0  0  0  0  0  0  0  0  0  0  0
   -4.5502    0.9116   -0.0379 F   0  0  0  0  0  0  0  0  0  0  0  0
  1  4  2  0  0  0  0
  2  1  1  0  0  0  0
  3  2  1  0  0  0  0
  4  5  1  0  0  0  0
  4 12  1  0  0  0  0
  5 13  1  0  0  0  0
  6  7  1  0  0  0  0
  6  5  2  0  0  0  0
  7  8  2  0  0  0  0
  9  7  2  0  0  0  0
 10  6  1  0  0  0  0
 11 10  2  0  0  0  0
 11  1  1  0  0  0  0
 14 10  1  0  0  0  0
 15 11  1  0  0  0  0
 16 19  1  0  0  0  0
 16 20  1  0  0  0  0
 17 16  1  0  0  0  0
 18 16  1  0  0  0  0
M  RAD  2   2   2   3   3
M  END
