Coordinates from ORCA-job 4-NO2PhN2+~BF4-_B3LYPG-6-31G_dp-NX-Scan-d89-09-n800
 OpenBabel11261920323D

 20 19  0  0  0  0  0  0  0  0999 V2000
   -1.9531   -0.7570    0.1130 C   0  0  0  0  0  0  0  0  0  0  0  0
   -2.7306   -1.8628   -0.0466 N   0  0  0  0  0  0  0  0  0  0  0  0
   -3.3362   -2.7966   -0.1638 N   0  0  0  0  0  0  0  0  0  0  0  0
   -2.2274    0.0956    1.2010 C   0  0  0  0  0  0  0  0  0  0  0  0
   -1.4093    1.2025    1.3610 C   0  0  0  0  0  0  0  0  0  0  0  0
   -0.4207    1.4410    0.4163 C   0  0  0  0  0  0  0  0  0  0  0  0
    0.4149    2.6561    0.5713 N   0  0  0  0  0  0  0  0  0  0  0  0
    0.2174    3.3451    1.5646 O   0  0  0  0  0  0  0  0  0  0  0  0
    1.2552    2.8657   -0.2966 O   0  0  0  0  0  0  0  0  0  0  0  0
   -0.1569    0.6007   -0.6715 C   0  0  0  0  0  0  0  0  0  0  0  0
   -0.9366   -0.5208   -0.8426 C   0  0  0  0  0  0  0  0  0  0  0  0
   -3.0528   -0.1029    1.8704 H   0  0  0  0  0  0  0  0  0  0  0  0
   -1.5808    1.9175    2.1539 H   0  0  0  0  0  0  0  0  0  0  0  0
    0.6230    0.8658   -1.3728 H   0  0  0  0  0  0  0  0  0  0  0  0
   -0.8025   -1.1906   -1.6829 H   0  0  0  0  0  0  0  0  0  0  0  0
   -3.5798    2.0629   -0.9902 B   0  0  0  0  0  0  0  0  0  0  0  0
   -4.5111    2.8439   -1.6342 F   0  0  0  0  0  0  0  0  0  0  0  0
   -3.3412    0.8417   -1.6828 F   0  0  0  0  0  0  0  0  0  0  0  0
   -2.3481    2.7510   -0.8614 F   0  0  0  0  0  0  0  0  0  0  0  0
   -4.0299    1.7072    0.3200 F   0  0  0  0  0  0  0  0  0  0  0  0
  1  4  2  0  0  0  0
  2  1  1  0  0  0  0
  3  2  1  0  0  0  0
  4  5  1  0  0  0  0
  4 12  1  0  0  0  0
  5 13  1  0  0  0  0
  6  7  1  0  0  0  0
  6  5  2  0  0  0  0
  7  8  2  0  0  0  0
  9  7  2  0  0  0  0
 10  6  1  0  0  0  0
 11 10  2  0  0  0  0
 11  1  1  0  0  0  0
 14 10  1  0  0  0  0
 15 11  1  0  0  0  0
 16 19  1  0  0  0  0
 16 20  1  0  0  0  0
 17 16  1  0  0  0  0
 18 16  1  0  0  0  0
M  RAD  2   2   2   3   3
M  END
