Coordinates from ORCA-job 4-NO2PhN2+~BF4-_B3LYPG-6-31G_dp-NX-Scan-d89-09-n800
 OpenBabel11261920323D

 20 19  0  0  0  0  0  0  0  0999 V2000
   -2.1305    0.2015    0.3557 C   0  0  0  0  0  0  0  0  0  0  0  0
   -3.3037   -0.5113    0.1028 N   0  0  0  0  0  0  0  0  0  0  0  0
   -4.1878   -1.1817    0.0647 N   0  0  0  0  0  0  0  0  0  0  0  0
   -1.7731    0.3300    1.7078 C   0  0  0  0  0  0  0  0  0  0  0  0
   -0.5937    1.0005    1.9979 C   0  0  0  0  0  0  0  0  0  0  0  0
    0.1671    1.4982    0.9397 C   0  0  0  0  0  0  0  0  0  0  0  0
    1.4313    2.2073    1.2618 N   0  0  0  0  0  0  0  0  0  0  0  0
    1.7241    2.3109    2.4490 O   0  0  0  0  0  0  0  0  0  0  0  0
    2.0881    2.6324    0.3188 O   0  0  0  0  0  0  0  0  0  0  0  0
   -0.1982    1.3618   -0.3978 C   0  0  0  0  0  0  0  0  0  0  0  0
   -1.3809    0.7030   -0.7153 C   0  0  0  0  0  0  0  0  0  0  0  0
   -2.4014   -0.0735    2.4932 H   0  0  0  0  0  0  0  0  0  0  0  0
   -0.2562    1.1422    3.0165 H   0  0  0  0  0  0  0  0  0  0  0  0
    0.4348    1.7775   -1.1714 H   0  0  0  0  0  0  0  0  0  0  0  0
   -1.7515    0.5572   -1.7255 H   0  0  0  0  0  0  0  0  0  0  0  0
   -4.3910    0.8224   -2.3111 B   0  0  0  0  0  0  0  0  0  0  0  0
   -5.6052    0.1780   -2.1264 F   0  0  0  0  0  0  0  0  0  0  0  0
   -3.3638   -0.1846   -2.4782 F   0  0  0  0  0  0  0  0  0  0  0  0
   -4.3757    1.6954   -3.3664 F   0  0  0  0  0  0  0  0  0  0  0  0
   -4.0394    1.4989   -1.0899 F   0  0  0  0  0  0  0  0  0  0  0  0
  1  4  2  0  0  0  0
  2  1  1  0  0  0  0
  3  2  1  0  0  0  0
  4  5  1  0  0  0  0
  4 12  1  0  0  0  0
  5 13  1  0  0  0  0
  6  7  1  0  0  0  0
  6  5  2  0  0  0  0
  7  8  2  0  0  0  0
  9  7  2  0  0  0  0
 10  6  1  0  0  0  0
 11 10  2  0  0  0  0
 11  1  1  0  0  0  0
 14 10  1  0  0  0  0
 15 11  1  0  0  0  0
 16 17  1  0  0  0  0
 16 20  1  0  0  0  0
 18 16  1  0  0  0  0
 19 16  1  0  0  0  0
M  RAD  2   2   2   3   3
M  END
