Coordinates from ORCA-job 4-NO2PhN2+~BF4-_B3LYPG-6-31G_dp-NX-Scan-d89-09-n800
 OpenBabel11261920313D

 20 19  0  0  0  0  0  0  0  0999 V2000
   -1.9010   -0.9790    0.1338 C   0  0  0  0  0  0  0  0  0  0  0  0
   -2.5077   -2.1921    0.0585 N   0  0  0  0  0  0  0  0  0  0  0  0
   -2.9775   -3.2096    0.0114 N   0  0  0  0  0  0  0  0  0  0  0  0
   -2.2600   -0.1145    1.1921 C   0  0  0  0  0  0  0  0  0  0  0  0
   -1.5995    1.0938    1.2866 C   0  0  0  0  0  0  0  0  0  0  0  0
   -0.6478    1.4122    0.3161 C   0  0  0  0  0  0  0  0  0  0  0  0
    0.1236    2.6713    0.4773 N   0  0  0  0  0  0  0  0  0  0  0  0
   -0.1153    3.3415    1.4726 O   0  0  0  0  0  0  0  0  0  0  0  0
    0.9700    2.9133   -0.3736 O   0  0  0  0  0  0  0  0  0  0  0  0
   -0.3004    0.5607   -0.7389 C   0  0  0  0  0  0  0  0  0  0  0  0
   -0.9378   -0.6538   -0.8527 C   0  0  0  0  0  0  0  0  0  0  0  0
   -3.0359   -0.3918    1.8954 H   0  0  0  0  0  0  0  0  0  0  0  0
   -1.8438    1.8169    2.0508 H   0  0  0  0  0  0  0  0  0  0  0  0
    0.4399    0.8873   -1.4574 H   0  0  0  0  0  0  0  0  0  0  0  0
   -0.7176   -1.3439   -1.6584 H   0  0  0  0  0  0  0  0  0  0  0  0
   -3.3543    2.4435   -0.9103 B   0  0  0  0  0  0  0  0  0  0  0  0
   -4.1707    3.2318   -1.6862 F   0  0  0  0  0  0  0  0  0  0  0  0
   -3.3761    1.0834   -1.3163 F   0  0  0  0  0  0  0  0  0  0  0  0
   -1.9919    2.8961   -1.0298 F   0  0  0  0  0  0  0  0  0  0  0  0
   -3.7028    2.4991    0.4551 F   0  0  0  0  0  0  0  0  0  0  0  0
  1  4  2  0  0  0  0
  2  1  1  0  0  0  0
  3  2  1  0  0  0  0
  4  5  1  0  0  0  0
  4 12  1  0  0  0  0
  5 13  1  0  0  0  0
  6  7  1  0  0  0  0
  6  5  2  0  0  0  0
  7  8  2  0  0  0  0
  9  7  2  0  0  0  0
 10  6  1  0  0  0  0
 11 10  2  0  0  0  0
 11  1  1  0  0  0  0
 14 10  1  0  0  0  0
 15 11  1  0  0  0  0
 16 20  1  0  0  0  0
 17 16  1  0  0  0  0
 18 16  1  0  0  0  0
 19 16  1  0  0  0  0
M  RAD  2   2   2   3   3
M  END
