Coordinates from ORCA-job 4-NO2PhN2+~BF4-_B3LYPG-6-31G_dp-NX-Scan-d89-09-n800
 OpenBabel11261920323D

 20 19  0  0  0  0  0  0  0  0999 V2000
   -2.1922    0.2296    0.4640 C   0  0  0  0  0  0  0  0  0  0  0  0
   -3.3825   -0.4710    0.2924 N   0  0  0  0  0  0  0  0  0  0  0  0
   -4.3094   -1.0710    0.1938 N   0  0  0  0  0  0  0  0  0  0  0  0
   -1.6747    0.2384    1.7714 C   0  0  0  0  0  0  0  0  0  0  0  0
   -0.4801    0.9063    1.9917 C   0  0  0  0  0  0  0  0  0  0  0  0
    0.1403    1.5281    0.9077 C   0  0  0  0  0  0  0  0  0  0  0  0
    1.4214    2.2397    1.1505 N   0  0  0  0  0  0  0  0  0  0  0  0
    1.8512    2.2325    2.3000 O   0  0  0  0  0  0  0  0  0  0  0  0
    1.9525    2.7775    0.1867 O   0  0  0  0  0  0  0  0  0  0  0  0
   -0.3811    1.5146   -0.3831 C   0  0  0  0  0  0  0  0  0  0  0  0
   -1.5793    0.8523   -0.6346 C   0  0  0  0  0  0  0  0  0  0  0  0
   -2.1991   -0.2586    2.5793 H   0  0  0  0  0  0  0  0  0  0  0  0
   -0.0262    0.9541    2.9731 H   0  0  0  0  0  0  0  0  0  0  0  0
    0.1457    2.0230   -1.1807 H   0  0  0  0  0  0  0  0  0  0  0  0
   -2.0259    0.8313   -1.6241 H   0  0  0  0  0  0  0  0  0  0  0  0
   -4.2670    0.7040   -2.3703 B   0  0  0  0  0  0  0  0  0  0  0  0
   -5.4924    0.5358   -2.9499 F   0  0  0  0  0  0  0  0  0  0  0  0
   -3.6321   -0.5742   -2.1745 F   0  0  0  0  0  0  0  0  0  0  0  0
   -3.3704    1.4906   -3.1012 F   0  0  0  0  0  0  0  0  0  0  0  0
   -4.4050    1.2832   -1.0665 F   0  0  0  0  0  0  0  0  0  0  0  0
  1  4  2  0  0  0  0
  2  1  1  0  0  0  0
  3  2  1  0  0  0  0
  4  5  1  0  0  0  0
  4 12  1  0  0  0  0
  5 13  1  0  0  0  0
  6  7  1  0  0  0  0
  6  5  2  0  0  0  0
  7  8  2  0  0  0  0
  9  7  2  0  0  0  0
 10  6  1  0  0  0  0
 11 10  2  0  0  0  0
 11  1  1  0  0  0  0
 14 10  1  0  0  0  0
 15 11  1  0  0  0  0
 16 18  1  0  0  0  0
 16 20  1  0  0  0  0
 17 16  1  0  0  0  0
 19 16  1  0  0  0  0
M  RAD  2   2   2   3   3
M  END
