Coordinates from ORCA-job 4-NO2PhN2+~BF4-_B3LYPG-6-31G_dp-NX-Scan-d89-09-n800
 OpenBabel11261920323D

 20 19  0  0  0  0  0  0  0  0999 V2000
   -2.1931    0.2305    0.4644 C   0  0  0  0  0  0  0  0  0  0  0  0
   -3.3831   -0.4712    0.2950 N   0  0  0  0  0  0  0  0  0  0  0  0
   -4.3088   -1.0746    0.2054 N   0  0  0  0  0  0  0  0  0  0  0  0
   -1.6738    0.2377    1.7713 C   0  0  0  0  0  0  0  0  0  0  0  0
   -0.4790    0.9054    1.9907 C   0  0  0  0  0  0  0  0  0  0  0  0
    0.1399    1.5286    0.9066 C   0  0  0  0  0  0  0  0  0  0  0  0
    1.4212    2.2401    1.1486 N   0  0  0  0  0  0  0  0  0  0  0  0
    1.8525    2.2315    2.2975 O   0  0  0  0  0  0  0  0  0  0  0  0
    1.9509    2.7793    0.1848 O   0  0  0  0  0  0  0  0  0  0  0  0
   -0.3834    1.5167   -0.3833 C   0  0  0  0  0  0  0  0  0  0  0  0
   -1.5821    0.8546   -0.6342 C   0  0  0  0  0  0  0  0  0  0  0  0
   -2.1969   -0.2605    2.5793 H   0  0  0  0  0  0  0  0  0  0  0  0
   -0.0238    0.9520    2.9716 H   0  0  0  0  0  0  0  0  0  0  0  0
    0.1421    2.0263   -1.1811 H   0  0  0  0  0  0  0  0  0  0  0  0
   -2.0297    0.8367   -1.6235 H   0  0  0  0  0  0  0  0  0  0  0  0
   -4.2657    0.7022   -2.3710 B   0  0  0  0  0  0  0  0  0  0  0  0
   -5.4843    0.5488   -2.9682 F   0  0  0  0  0  0  0  0  0  0  0  0
   -3.6430   -0.5806   -2.1723 F   0  0  0  0  0  0  0  0  0  0  0  0
   -3.3533    1.4849   -3.0888 F   0  0  0  0  0  0  0  0  0  0  0  0
   -4.4133    1.2780   -1.0670 F   0  0  0  0  0  0  0  0  0  0  0  0
  1  4  2  0  0  0  0
  2  1  1  0  0  0  0
  3  2  1  0  0  0  0
  4  5  1  0  0  0  0
  4 12  1  0  0  0  0
  5 13  1  0  0  0  0
  6  7  1  0  0  0  0
  6  5  2  0  0  0  0
  7  8  2  0  0  0  0
  9  7  2  0  0  0  0
 10  6  1  0  0  0  0
 11 10  2  0  0  0  0
 11  1  1  0  0  0  0
 14 10  1  0  0  0  0
 15 11  1  0  0  0  0
 16 18  1  0  0  0  0
 16 20  1  0  0  0  0
 17 16  1  0  0  0  0
 19 16  1  0  0  0  0
M  RAD  2   2   2   3   3
M  END
