Coordinates from ORCA-job 4-NO2PhN2+~BF4-_B3LYPG-6-31G_dp-NX-Scan-d89-09-n800
 OpenBabel11261920323D

 20 19  0  0  0  0  0  0  0  0999 V2000
   -2.0260   -0.2826    0.1077 C   0  0  0  0  0  0  0  0  0  0  0  0
   -3.0392   -1.1958   -0.1442 N   0  0  0  0  0  0  0  0  0  0  0  0
   -3.7715   -2.0232   -0.2578 N   0  0  0  0  0  0  0  0  0  0  0  0
   -2.1011    0.4588    1.2934 C   0  0  0  0  0  0  0  0  0  0  0  0
   -1.0812    1.3650    1.5404 C   0  0  0  0  0  0  0  0  0  0  0  0
   -0.0682    1.5066    0.5941 C   0  0  0  0  0  0  0  0  0  0  0  0
    1.0161    2.4821    0.8671 N   0  0  0  0  0  0  0  0  0  0  0  0
    0.9583    3.0989    1.9256 O   0  0  0  0  0  0  0  0  0  0  0  0
    1.8946    2.5917    0.0183 O   0  0  0  0  0  0  0  0  0  0  0  0
   -0.0259    0.7922   -0.6017 C   0  0  0  0  0  0  0  0  0  0  0  0
   -1.0348   -0.1202   -0.8682 C   0  0  0  0  0  0  0  0  0  0  0  0
   -2.9490    0.3511    1.9559 H   0  0  0  0  0  0  0  0  0  0  0  0
   -1.0716    1.9754    2.4339 H   0  0  0  0  0  0  0  0  0  0  0  0
    0.7725    0.9766   -1.3086 H   0  0  0  0  0  0  0  0  0  0  0  0
   -1.0908   -0.6586   -1.8047 H   0  0  0  0  0  0  0  0  0  0  0  0
   -4.0792    1.3688   -1.3051 B   0  0  0  0  0  0  0  0  0  0  0  0
   -5.0548    2.0671   -1.9659 F   0  0  0  0  0  0  0  0  0  0  0  0
   -3.6213    0.2457   -2.0786 F   0  0  0  0  0  0  0  0  0  0  0  0
   -2.9622    2.1624   -0.9964 F   0  0  0  0  0  0  0  0  0  0  0  0
   -4.5712    0.8041   -0.0794 F   0  0  0  0  0  0  0  0  0  0  0  0
  1  4  2  0  0  0  0
  2  1  1  0  0  0  0
  3  2  1  0  0  0  0
  4  5  1  0  0  0  0
  4 12  1  0  0  0  0
  5 13  1  0  0  0  0
  6  7  1  0  0  0  0
  6  5  2  0  0  0  0
  7  8  2  0  0  0  0
  9  7  2  0  0  0  0
 10  6  1  0  0  0  0
 11 10  2  0  0  0  0
 11  1  1  0  0  0  0
 14 10  1  0  0  0  0
 15 11  1  0  0  0  0
 16 19  1  0  0  0  0
 16 20  1  0  0  0  0
 17 16  1  0  0  0  0
 18 16  1  0  0  0  0
M  RAD  2   2   2   3   3
M  END
