Coordinates from ORCA-job 4-NO2PhN2+~BF4-_B3LYPG-6-31G_dp-NX-Scan-d89-09-n800
 OpenBabel11261920313D

 20 19  0  0  0  0  0  0  0  0999 V2000
   -1.7392   -1.2154    0.1156 C   0  0  0  0  0  0  0  0  0  0  0  0
   -2.2097   -2.4940    0.1389 N   0  0  0  0  0  0  0  0  0  0  0  0
   -2.5640   -3.5574    0.1750 N   0  0  0  0  0  0  0  0  0  0  0  0
   -2.3803   -0.2353    0.9128 C   0  0  0  0  0  0  0  0  0  0  0  0
   -1.8218    1.0269    0.9547 C   0  0  0  0  0  0  0  0  0  0  0  0
   -0.7025    1.2874    0.1615 C   0  0  0  0  0  0  0  0  0  0  0  0
   -0.0252    2.6029    0.2876 N   0  0  0  0  0  0  0  0  0  0  0  0
   -0.2898    3.2562    1.2844 O   0  0  0  0  0  0  0  0  0  0  0  0
    0.7902    2.8858   -0.5819 O   0  0  0  0  0  0  0  0  0  0  0  0
   -0.0982    0.3332   -0.6670 C   0  0  0  0  0  0  0  0  0  0  0  0
   -0.6076   -0.9478   -0.6955 C   0  0  0  0  0  0  0  0  0  0  0  0
   -3.2847   -0.4691    1.4613 H   0  0  0  0  0  0  0  0  0  0  0  0
   -2.3007    1.8483    1.4798 H   0  0  0  0  0  0  0  0  0  0  0  0
    0.7567    0.6201   -1.2664 H   0  0  0  0  0  0  0  0  0  0  0  0
   -0.1622   -1.7293   -1.3000 H   0  0  0  0  0  0  0  0  0  0  0  0
   -3.4862    2.9701   -0.6386 B   0  0  0  0  0  0  0  0  0  0  0  0
   -4.1957    3.9024   -1.3583 F   0  0  0  0  0  0  0  0  0  0  0  0
   -4.0567    1.6792   -0.7035 F   0  0  0  0  0  0  0  0  0  0  0  0
   -2.1461    2.8611   -1.1592 F   0  0  0  0  0  0  0  0  0  0  0  0
   -3.3828    3.3407    0.7250 F   0  0  0  0  0  0  0  0  0  0  0  0
  1  2  1  0  0  0  0
  1  4  2  0  0  0  0
  2  3  1  0  0  0  0
  4  5  1  0  0  0  0
  4 12  1  0  0  0  0
  5 13  1  0  0  0  0
  6  7  1  0  0  0  0
  6  5  2  0  0  0  0
  7  8  2  0  0  0  0
  9  7  2  0  0  0  0
 10  6  1  0  0  0  0
 11 10  2  0  0  0  0
 11  1  1  0  0  0  0
 14 10  1  0  0  0  0
 15 11  1  0  0  0  0
 16 20  1  0  0  0  0
 17 16  1  0  0  0  0
 18 16  1  0  0  0  0
 19 16  1  0  0  0  0
M  RAD  2   2   2   3   3
M  END
