Coordinates from ORCA-job 4-NO2PhN2+~BF4-_B3LYPG-6-31G_dp-NX-Scan-d89-09-n800
 OpenBabel11261920323D

 20 19  0  0  0  0  0  0  0  0999 V2000
   -2.2626    0.1790    0.5853 C   0  0  0  0  0  0  0  0  0  0  0  0
   -3.5266   -0.4469    0.5351 N   0  0  0  0  0  0  0  0  0  0  0  0
   -4.2780   -0.8067   -0.3078 N   0  0  0  0  0  0  0  0  0  0  0  0
   -1.8058    0.4207    1.8912 C   0  0  0  0  0  0  0  0  0  0  0  0
   -0.5737    1.0281    2.0957 C   0  0  0  0  0  0  0  0  0  0  0  0
    0.1790    1.3784    0.9776 C   0  0  0  0  0  0  0  0  0  0  0  0
    1.4938    2.0247    1.1829 N   0  0  0  0  0  0  0  0  0  0  0  0
    1.8496    2.2194    2.3424 O   0  0  0  0  0  0  0  0  0  0  0  0
    2.1391    2.3213    0.1815 O   0  0  0  0  0  0  0  0  0  0  0  0
   -0.2563    1.1453   -0.3254 C   0  0  0  0  0  0  0  0  0  0  0  0
   -1.4903    0.5390   -0.5353 C   0  0  0  0  0  0  0  0  0  0  0  0
   -2.4302    0.1273    2.7271 H   0  0  0  0  0  0  0  0  0  0  0  0
   -0.1911    1.2313    3.0875 H   0  0  0  0  0  0  0  0  0  0  0  0
    0.3700    1.4417   -1.1572 H   0  0  0  0  0  0  0  0  0  0  0  0
   -1.8499    0.3555   -1.5351 H   0  0  0  0  0  0  0  0  0  0  0  0
   -4.3651    1.2639   -2.6376 B   0  0  0  0  0  0  0  0  0  0  0  0
   -3.7568   -0.5435   -1.7445 F   0  0  0  0  0  0  0  0  0  0  0  0
   -3.2243    1.3781   -3.3166 F   0  0  0  0  0  0  0  0  0  0  0  0
   -5.4454    0.8022   -3.2437 F   0  0  0  0  0  0  0  0  0  0  0  0
   -4.4819    1.9075   -1.4772 F   0  0  0  0  0  0  0  0  0  0  0  0
  1  4  2  0  0  0  0
  2  1  1  0  0  0  0
  3  2  1  0  0  0  0
  4  5  1  0  0  0  0
  4 12  1  0  0  0  0
  5 13  1  0  0  0  0
  6  7  1  0  0  0  0
  6  5  2  0  0  0  0
  7  8  2  0  0  0  0
  9  7  2  0  0  0  0
 10  6  1  0  0  0  0
 11 10  2  0  0  0  0
 11  1  1  0  0  0  0
 14 10  1  0  0  0  0
 15 11  1  0  0  0  0
 16 20  1  0  0  0  0
 17  3  1  0  0  0  0
 18 16  1  0  0  0  0
 19 16  1  0  0  0  0
M  RAD  2   2   2   3   2
M  END
