Coordinates from ORCA-job 4-NO2PhN2+~BF4-_B3LYPG-6-31G_dp-NX-Scan-d89-09-n800
 OpenBabel11261920323D

 20 19  0  0  0  0  0  0  0  0999 V2000
   -2.0230   -0.3241    0.1020 C   0  0  0  0  0  0  0  0  0  0  0  0
   -3.0083   -1.2668   -0.1360 N   0  0  0  0  0  0  0  0  0  0  0  0
   -3.7116   -2.1228   -0.2322 N   0  0  0  0  0  0  0  0  0  0  0  0
   -2.1192    0.4335    1.2769 C   0  0  0  0  0  0  0  0  0  0  0  0
   -1.1163    1.3601    1.5171 C   0  0  0  0  0  0  0  0  0  0  0  0
   -0.0998    1.5051    0.5759 C   0  0  0  0  0  0  0  0  0  0  0  0
    0.9666    2.5018    0.8425 N   0  0  0  0  0  0  0  0  0  0  0  0
    0.8932    3.1300    1.8931 O   0  0  0  0  0  0  0  0  0  0  0  0
    1.8484    2.6147   -0.0026 O   0  0  0  0  0  0  0  0  0  0  0  0
   -0.0370    0.7756   -0.6103 C   0  0  0  0  0  0  0  0  0  0  0  0
   -1.0275   -0.1574   -0.8706 C   0  0  0  0  0  0  0  0  0  0  0  0
   -2.9696    0.3215    1.9352 H   0  0  0  0  0  0  0  0  0  0  0  0
   -1.1237    1.9836    2.4016 H   0  0  0  0  0  0  0  0  0  0  0  0
    0.7634    0.9637   -1.3138 H   0  0  0  0  0  0  0  0  0  0  0  0
   -1.0635   -0.7135   -1.7980 H   0  0  0  0  0  0  0  0  0  0  0  0
   -4.0387    1.4297   -1.2696 B   0  0  0  0  0  0  0  0  0  0  0  0
   -4.9688    2.1918   -1.9325 F   0  0  0  0  0  0  0  0  0  0  0  0
   -3.6418    0.2798   -2.0383 F   0  0  0  0  0  0  0  0  0  0  0  0
   -2.8768    2.1657   -0.9703 F   0  0  0  0  0  0  0  0  0  0  0  0
   -4.5528    0.8939   -0.0444 F   0  0  0  0  0  0  0  0  0  0  0  0
  1  4  2  0  0  0  0
  2  1  1  0  0  0  0
  3  2  1  0  0  0  0
  4  5  1  0  0  0  0
  4 12  1  0  0  0  0
  5 13  1  0  0  0  0
  6  7  1  0  0  0  0
  6  5  2  0  0  0  0
  7  8  2  0  0  0  0
  9  7  2  0  0  0  0
 10  6  1  0  0  0  0
 11 10  2  0  0  0  0
 11  1  1  0  0  0  0
 14 10  1  0  0  0  0
 15 11  1  0  0  0  0
 16 19  1  0  0  0  0
 16 20  1  0  0  0  0
 17 16  1  0  0  0  0
 18 16  1  0  0  0  0
M  RAD  2   2   2   3   3
M  END
