Coordinates from ORCA-job 4-NO2PhN2+~BF4-_B3LYPG-6-31G_dp-NX-Scan-d89-09-n800
 OpenBabel11261920323D

 20 19  0  0  0  0  0  0  0  0999 V2000
   -1.9294   -0.8366    0.1290 C   0  0  0  0  0  0  0  0  0  0  0  0
   -2.6971   -1.9460   -0.0357 N   0  0  0  0  0  0  0  0  0  0  0  0
   -3.3119   -2.8728   -0.1647 N   0  0  0  0  0  0  0  0  0  0  0  0
   -2.2236    0.0185    1.2109 C   0  0  0  0  0  0  0  0  0  0  0  0
   -1.4546    1.1595    1.3472 C   0  0  0  0  0  0  0  0  0  0  0  0
   -0.4883    1.4289    0.3844 C   0  0  0  0  0  0  0  0  0  0  0  0
    0.2933    2.6831    0.5103 N   0  0  0  0  0  0  0  0  0  0  0  0
    0.0828    3.3720    1.5003 O   0  0  0  0  0  0  0  0  0  0  0  0
    1.1095    2.9178   -0.3732 O   0  0  0  0  0  0  0  0  0  0  0  0
   -0.1870    0.5746   -0.6820 C   0  0  0  0  0  0  0  0  0  0  0  0
   -0.9209   -0.5805   -0.8304 C   0  0  0  0  0  0  0  0  0  0  0  0
   -3.0430   -0.1964    1.8839 H   0  0  0  0  0  0  0  0  0  0  0  0
   -1.6544    1.8836    2.1245 H   0  0  0  0  0  0  0  0  0  0  0  0
    0.5784    0.8598   -1.3915 H   0  0  0  0  0  0  0  0  0  0  0  0
   -0.7610   -1.2599   -1.6586 H   0  0  0  0  0  0  0  0  0  0  0  0
   -3.4821    2.1699   -0.9428 B   0  0  0  0  0  0  0  0  0  0  0  0
   -4.3813    2.9322   -1.6492 F   0  0  0  0  0  0  0  0  0  0  0  0
   -3.2676    0.9056   -1.5620 F   0  0  0  0  0  0  0  0  0  0  0  0
   -2.2254    2.8354   -0.8534 F   0  0  0  0  0  0  0  0  0  0  0  0
   -3.9428    1.9173    0.3787 F   0  0  0  0  0  0  0  0  0  0  0  0
  1  4  2  0  0  0  0
  2  1  1  0  0  0  0
  3  2  1  0  0  0  0
  4  5  1  0  0  0  0
  4 12  1  0  0  0  0
  5 13  1  0  0  0  0
  6  7  1  0  0  0  0
  6  5  2  0  0  0  0
  7  8  2  0  0  0  0
  9  7  2  0  0  0  0
 10  6  1  0  0  0  0
 11 10  2  0  0  0  0
 11  1  1  0  0  0  0
 14 10  1  0  0  0  0
 15 11  1  0  0  0  0
 16 19  1  0  0  0  0
 16 20  1  0  0  0  0
 17 16  1  0  0  0  0
 18 16  1  0  0  0  0
M  RAD  2   2   2   3   3
M  END
