Coordinates from ORCA-job 4-NO2PhN2+~BF4-_B3LYPG-6-31G_dp-NX-Scan-d89-09-n800
 OpenBabel11261920323D

 20 19  0  0  0  0  0  0  0  0999 V2000
   -2.1953    0.3014    0.4569 C   0  0  0  0  0  0  0  0  0  0  0  0
   -3.4162   -0.3232    0.2238 N   0  0  0  0  0  0  0  0  0  0  0  0
   -4.3915   -0.8109   -0.0462 N   0  0  0  0  0  0  0  0  0  0  0  0
   -1.7679    0.3610    1.7940 C   0  0  0  0  0  0  0  0  0  0  0  0
   -0.5464    0.9601    2.0632 C   0  0  0  0  0  0  0  0  0  0  0  0
    0.1978    1.4575    0.9929 C   0  0  0  0  0  0  0  0  0  0  0  0
    1.5077    2.0910    1.2864 N   0  0  0  0  0  0  0  0  0  0  0  0
    1.8539    2.1359    2.4630 O   0  0  0  0  0  0  0  0  0  0  0  0
    2.1473    2.5200    0.3329 O   0  0  0  0  0  0  0  0  0  0  0  0
   -0.2257    1.3859   -0.3317 C   0  0  0  0  0  0  0  0  0  0  0  0
   -1.4539    0.8001   -0.6248 C   0  0  0  0  0  0  0  0  0  0  0  0
   -2.3837   -0.0456    2.5876 H   0  0  0  0  0  0  0  0  0  0  0  0
   -0.1614    1.0448    3.0713 H   0  0  0  0  0  0  0  0  0  0  0  0
    0.4000    1.7922   -1.1162 H   0  0  0  0  0  0  0  0  0  0  0  0
   -1.8429    0.7226   -1.6372 H   0  0  0  0  0  0  0  0  0  0  0  0
   -4.3300    0.7560   -2.4806 B   0  0  0  0  0  0  0  0  0  0  0  0
   -4.9932   -0.3880   -1.8428 F   0  0  0  0  0  0  0  0  0  0  0  0
   -3.1171    0.2685   -3.0049 F   0  0  0  0  0  0  0  0  0  0  0  0
   -5.1484    1.2861   -3.4287 F   0  0  0  0  0  0  0  0  0  0  0  0
   -4.0397    1.6506   -1.4330 F   0  0  0  0  0  0  0  0  0  0  0  0
  1  4  2  0  0  0  0
  2  1  1  0  0  0  0
  3  2  1  0  0  0  0
  4  5  1  0  0  0  0
  4 12  1  0  0  0  0
  5 13  1  0  0  0  0
  6  7  1  0  0  0  0
  6  5  2  0  0  0  0
  7  8  2  0  0  0  0
  9  7  2  0  0  0  0
 10  6  1  0  0  0  0
 11 10  2  0  0  0  0
 11  1  1  0  0  0  0
 14 10  1  0  0  0  0
 15 11  1  0  0  0  0
 16 17  1  0  0  0  0
 16 20  1  0  0  0  0
 18 16  1  0  0  0  0
 19 16  1  0  0  0  0
M  RAD  2   2   2   3   3
M  END
