Coordinates from ORCA-job 4-NO2PhN2+~BF4-_B3LYPG-6-31G_dp-NX-Scan-d89-09-n800
 OpenBabel11261920323D

 20 19  0  0  0  0  0  0  0  0999 V2000
   -2.1582    0.2718    0.3968 C   0  0  0  0  0  0  0  0  0  0  0  0
   -3.3629   -0.3756    0.1328 N   0  0  0  0  0  0  0  0  0  0  0  0
   -4.3180   -0.9307   -0.0196 N   0  0  0  0  0  0  0  0  0  0  0  0
   -1.7693    0.3457    1.7447 C   0  0  0  0  0  0  0  0  0  0  0  0
   -0.5655    0.9705    2.0351 C   0  0  0  0  0  0  0  0  0  0  0  0
    0.1938    1.4749    0.9785 C   0  0  0  0  0  0  0  0  0  0  0  0
    1.4842    2.1357    1.2985 N   0  0  0  0  0  0  0  0  0  0  0  0
    1.8004    2.1957    2.4828 O   0  0  0  0  0  0  0  0  0  0  0  0
    2.1379    2.5695    0.3571 O   0  0  0  0  0  0  0  0  0  0  0  0
   -0.1964    1.3872   -0.3554 C   0  0  0  0  0  0  0  0  0  0  0  0
   -1.4062    0.7771   -0.6723 C   0  0  0  0  0  0  0  0  0  0  0  0
   -2.3963   -0.0640    2.5279 H   0  0  0  0  0  0  0  0  0  0  0  0
   -0.2062    1.0709    3.0512 H   0  0  0  0  0  0  0  0  0  0  0  0
    0.4394    1.8012   -1.1276 H   0  0  0  0  0  0  0  0  0  0  0  0
   -1.7866    0.6760   -1.6857 H   0  0  0  0  0  0  0  0  0  0  0  0
   -4.3766    0.7582   -2.4021 B   0  0  0  0  0  0  0  0  0  0  0  0
   -5.2965   -0.1904   -1.8597 F   0  0  0  0  0  0  0  0  0  0  0  0
   -3.2098    0.0319   -2.7778 F   0  0  0  0  0  0  0  0  0  0  0  0
   -4.9153    1.4461   -3.4483 F   0  0  0  0  0  0  0  0  0  0  0  0
   -3.9984    1.6143   -1.3311 F   0  0  0  0  0  0  0  0  0  0  0  0
  1  4  2  0  0  0  0
  2  1  1  0  0  0  0
  3  2  1  0  0  0  0
  4  5  1  0  0  0  0
  4 12  1  0  0  0  0
  5 13  1  0  0  0  0
  6  7  1  0  0  0  0
  6  5  2  0  0  0  0
  7  8  2  0  0  0  0
  9  7  2  0  0  0  0
 10  6  1  0  0  0  0
 11 10  2  0  0  0  0
 11  1  1  0  0  0  0
 14 10  1  0  0  0  0
 15 11  1  0  0  0  0
 16 17  1  0  0  0  0
 16 20  1  0  0  0  0
 18 16  1  0  0  0  0
 19 16  1  0  0  0  0
M  RAD  2   2   2   3   3
M  END
