Coordinates from ORCA-job 4-NO2PhN2+~BF4-_B3LYPG-6-31G_dp-NX-Scan-d89-09-n800
 OpenBabel11261920313D

 20 19  0  0  0  0  0  0  0  0999 V2000
   -1.7125   -1.2562    0.1174 C   0  0  0  0  0  0  0  0  0  0  0  0
   -2.1585   -2.5439    0.1663 N   0  0  0  0  0  0  0  0  0  0  0  0
   -2.4891   -3.6138    0.2222 N   0  0  0  0  0  0  0  0  0  0  0  0
   -2.4014   -0.2607    0.8540 C   0  0  0  0  0  0  0  0  0  0  0  0
   -1.8653    1.0125    0.8759 C   0  0  0  0  0  0  0  0  0  0  0  0
   -0.7116    1.2614    0.1285 C   0  0  0  0  0  0  0  0  0  0  0  0
   -0.0508    2.5852    0.2436 N   0  0  0  0  0  0  0  0  0  0  0  0
   -0.3050    3.2299    1.2481 O   0  0  0  0  0  0  0  0  0  0  0  0
    0.7463    2.8782   -0.6394 O   0  0  0  0  0  0  0  0  0  0  0  0
   -0.0634    0.2923   -0.6474 C   0  0  0  0  0  0  0  0  0  0  0  0
   -0.5526   -0.9977   -0.6552 C   0  0  0  0  0  0  0  0  0  0  0  0
   -3.3242   -0.4905    1.3731 H   0  0  0  0  0  0  0  0  0  0  0  0
   -2.3718    1.8433    1.3645 H   0  0  0  0  0  0  0  0  0  0  0  0
    0.8115    0.5728   -1.2204 H   0  0  0  0  0  0  0  0  0  0  0  0
   -0.0707   -1.7910   -1.2146 H   0  0  0  0  0  0  0  0  0  0  0  0
   -3.5089    3.0696   -0.5916 B   0  0  0  0  0  0  0  0  0  0  0  0
   -4.2078    4.0452   -1.2637 F   0  0  0  0  0  0  0  0  0  0  0  0
   -4.1281    1.8024   -0.6625 F   0  0  0  0  0  0  0  0  0  0  0  0
   -2.1920    2.9241   -1.1526 F   0  0  0  0  0  0  0  0  0  0  0  0
   -3.3505    3.4028    0.7797 F   0  0  0  0  0  0  0  0  0  0  0  0
  1  2  1  0  0  0  0
  1  4  2  0  0  0  0
  2  3  1  0  0  0  0
  4  5  1  0  0  0  0
  4 12  1  0  0  0  0
  5 13  1  0  0  0  0
  6  7  1  0  0  0  0
  6  5  2  0  0  0  0
  7  8  2  0  0  0  0
  9  7  2  0  0  0  0
 10  6  1  0  0  0  0
 11 10  2  0  0  0  0
 11  1  1  0  0  0  0
 14 10  1  0  0  0  0
 15 11  1  0  0  0  0
 16 20  1  0  0  0  0
 17 16  1  0  0  0  0
 18 16  1  0  0  0  0
 19 16  1  0  0  0  0
M  RAD  2   2   2   3   3
M  END
