Coordinates from ORCA-job 4-NO2PhN2+~BF4-_B3LYPG-6-31G_dp-NX-Scan-d89-09-n800
 OpenBabel11261920313D

 20 19  0  0  0  0  0  0  0  0999 V2000
   -1.5681   -1.4100    0.1944 C   0  0  0  0  0  0  0  0  0  0  0  0
   -1.9287   -2.7205    0.3237 N   0  0  0  0  0  0  0  0  0  0  0  0
   -2.1952   -3.8034    0.4392 N   0  0  0  0  0  0  0  0  0  0  0  0
   -2.3671   -0.4062    0.8029 C   0  0  0  0  0  0  0  0  0  0  0  0
   -1.9393    0.9070    0.7232 C   0  0  0  0  0  0  0  0  0  0  0  0
   -0.7472    1.1691    0.0367 C   0  0  0  0  0  0  0  0  0  0  0  0
   -0.1727    2.5353    0.0728 N   0  0  0  0  0  0  0  0  0  0  0  0
   -0.3927    3.1776    1.0862 O   0  0  0  0  0  0  0  0  0  0  0  0
    0.5424    2.8516   -0.8691 O   0  0  0  0  0  0  0  0  0  0  0  0
    0.0128    0.1879   -0.6099 C   0  0  0  0  0  0  0  0  0  0  0  0
   -0.3852   -1.1329   -0.5313 C   0  0  0  0  0  0  0  0  0  0  0  0
   -3.2905   -0.6664    1.3079 H   0  0  0  0  0  0  0  0  0  0  0  0
   -2.5360    1.7423    1.1107 H   0  0  0  0  0  0  0  0  0  0  0  0
    0.9023    0.4803   -1.1545 H   0  0  0  0  0  0  0  0  0  0  0  0
    0.1846   -1.9315   -0.9919 H   0  0  0  0  0  0  0  0  0  0  0  0
   -3.6343    3.4246   -0.5404 B   0  0  0  0  0  0  0  0  0  0  0  0
   -3.6929    4.7817   -0.7816 F   0  0  0  0  0  0  0  0  0  0  0  0
   -4.7026    2.7257   -1.0840 F   0  0  0  0  0  0  0  0  0  0  0  0
   -2.4113    2.8792   -1.0838 F   0  0  0  0  0  0  0  0  0  0  0  0
   -3.5848    3.1748    0.8747 F   0  0  0  0  0  0  0  0  0  0  0  0
  1  2  1  0  0  0  0
  1  4  2  0  0  0  0
  2  3  1  0  0  0  0
  4 12  1  0  0  0  0
  5  4  1  0  0  0  0
  5 13  1  0  0  0  0
  6  7  1  0  0  0  0
  6  5  2  0  0  0  0
  7  8  2  0  0  0  0
  9  7  2  0  0  0  0
 10 11  2  0  0  0  0
 10  6  1  0  0  0  0
 11  1  1  0  0  0  0
 14 10  1  0  0  0  0
 15 11  1  0  0  0  0
 16 20  1  0  0  0  0
 17 16  1  0  0  0  0
 18 16  1  0  0  0  0
 19 16  1  0  0  0  0
M  RAD  2   2   2   3   3
M  END
