Coordinates from ORCA-job 4-NO2PhN2+~BF4-_B3LYPG-6-31G_dp-NX-Scan-d89-09-n800
 OpenBabel11261920323D

 20 19  0  0  0  0  0  0  0  0999 V2000
   -2.1305   -0.0048    0.3446 C   0  0  0  0  0  0  0  0  0  0  0  0
   -3.2208   -0.8488    0.1626 N   0  0  0  0  0  0  0  0  0  0  0  0
   -4.0344   -1.6028    0.1370 N   0  0  0  0  0  0  0  0  0  0  0  0
   -1.8161    0.3247    1.6754 C   0  0  0  0  0  0  0  0  0  0  0  0
   -0.6984    1.1132    1.8920 C   0  0  0  0  0  0  0  0  0  0  0  0
    0.0510    1.5262    0.7872 C   0  0  0  0  0  0  0  0  0  0  0  0
    1.2559    2.3582    1.0338 N   0  0  0  0  0  0  0  0  0  0  0  0
    1.5056    2.6433    2.2011 O   0  0  0  0  0  0  0  0  0  0  0  0
    1.9137    2.6920    0.0556 O   0  0  0  0  0  0  0  0  0  0  0  0
   -0.2732    1.1995   -0.5249 C   0  0  0  0  0  0  0  0  0  0  0  0
   -1.3972    0.4165   -0.7718 C   0  0  0  0  0  0  0  0  0  0  0  0
   -2.4335   -0.0213    2.4958 H   0  0  0  0  0  0  0  0  0  0  0  0
   -0.3966    1.4110    2.8875 H   0  0  0  0  0  0  0  0  0  0  0  0
    0.3379    1.5677   -1.3388 H   0  0  0  0  0  0  0  0  0  0  0  0
   -1.7413    0.1584   -1.7645 H   0  0  0  0  0  0  0  0  0  0  0  0
   -4.1951    1.0380   -2.0174 B   0  0  0  0  0  0  0  0  0  0  0  0
   -5.2683    1.2972   -2.8239 F   0  0  0  0  0  0  0  0  0  0  0  0
   -3.6737   -0.2901   -2.2624 F   0  0  0  0  0  0  0  0  0  0  0  0
   -3.1358    1.9372   -2.2079 F   0  0  0  0  0  0  0  0  0  0  0  0
   -4.5558    1.0508   -0.6352 F   0  0  0  0  0  0  0  0  0  0  0  0
  1  4  2  0  0  0  0
  2  1  1  0  0  0  0
  3  2  1  0  0  0  0
  4  5  1  0  0  0  0
  4 12  1  0  0  0  0
  5 13  1  0  0  0  0
  6  7  1  0  0  0  0
  6  5  2  0  0  0  0
  7  8  2  0  0  0  0
  9  7  2  0  0  0  0
 10  6  1  0  0  0  0
 11 10  2  0  0  0  0
 11  1  1  0  0  0  0
 14 10  1  0  0  0  0
 15 11  1  0  0  0  0
 16 20  1  0  0  0  0
 17 16  1  0  0  0  0
 18 16  1  0  0  0  0
 19 16  1  0  0  0  0
M  RAD  2   2   2   3   3
M  END
