Coordinates from ORCA-job 4-NO2PhN2+~BF4-_B3LYPG-6-31G_dp-NX-Scan-d89-09-n800
 OpenBabel11261920323D

 20 19  0  0  0  0  0  0  0  0999 V2000
   -1.9437   -0.4926   -0.0110 C   0  0  0  0  0  0  0  0  0  0  0  0
   -2.8197   -1.5189   -0.2796 N   0  0  0  0  0  0  0  0  0  0  0  0
   -3.4450   -2.4241   -0.4568 N   0  0  0  0  0  0  0  0  0  0  0  0
   -2.2076    0.3292    1.0952 C   0  0  0  0  0  0  0  0  0  0  0  0
   -1.2903    1.3380    1.3643 C   0  0  0  0  0  0  0  0  0  0  0  0
   -0.1955    1.4905    0.5238 C   0  0  0  0  0  0  0  0  0  0  0  0
    0.7752    2.5721    0.8232 N   0  0  0  0  0  0  0  0  0  0  0  0
    0.5630    3.2536    1.8197 O   0  0  0  0  0  0  0  0  0  0  0  0
    1.7259    2.6951    0.0571 O   0  0  0  0  0  0  0  0  0  0  0  0
    0.0427    0.6871   -0.5948 C   0  0  0  0  0  0  0  0  0  0  0  0
   -0.8488   -0.3280   -0.8812 C   0  0  0  0  0  0  0  0  0  0  0  0
   -3.1024    0.1999    1.6857 H   0  0  0  0  0  0  0  0  0  0  0  0
   -1.4355    2.0179    2.1932 H   0  0  0  0  0  0  0  0  0  0  0  0
    0.9057    0.8782   -1.2187 H   0  0  0  0  0  0  0  0  0  0  0  0
   -0.7265   -0.9684   -1.7461 H   0  0  0  0  0  0  0  0  0  0  0  0
   -3.9984    1.6791   -1.0301 B   0  0  0  0  0  0  0  0  0  0  0  0
   -4.8720    2.4843   -1.7202 F   0  0  0  0  0  0  0  0  0  0  0  0
   -4.2444    0.2838   -1.2883 F   0  0  0  0  0  0  0  0  0  0  0  0
   -2.6574    1.9349   -1.3846 F   0  0  0  0  0  0  0  0  0  0  0  0
   -4.1317    1.8544    0.3750 F   0  0  0  0  0  0  0  0  0  0  0  0
  1  4  2  0  0  0  0
  2  1  1  0  0  0  0
  3  2  1  0  0  0  0
  4  5  1  0  0  0  0
  4 12  1  0  0  0  0
  5 13  1  0  0  0  0
  6  7  1  0  0  0  0
  6  5  2  0  0  0  0
  7  8  2  0  0  0  0
  9  7  2  0  0  0  0
 10  6  1  0  0  0  0
 11 10  2  0  0  0  0
 11  1  1  0  0  0  0
 14 10  1  0  0  0  0
 15 11  1  0  0  0  0
 16 20  1  0  0  0  0
 17 16  1  0  0  0  0
 18 16  1  0  0  0  0
 19 16  1  0  0  0  0
M  RAD  2   2   2   3   3
M  END
