Coordinates from ORCA-job 4-NO2PhN2+~BF4-_B3LYPG-6-31G_dp-NX-Scan-d89-09-n800
 OpenBabel11261920323D

 20 19  0  0  0  0  0  0  0  0999 V2000
   -2.2753    0.2568    0.5709 C   0  0  0  0  0  0  0  0  0  0  0  0
   -3.5305   -0.3454    0.4318 N   0  0  0  0  0  0  0  0  0  0  0  0
   -4.3889   -0.7315   -0.2159 N   0  0  0  0  0  0  0  0  0  0  0  0
   -1.8130    0.4227    1.8846 C   0  0  0  0  0  0  0  0  0  0  0  0
   -0.5691    1.0048    2.0853 C   0  0  0  0  0  0  0  0  0  0  0  0
    0.1636    1.3950    0.9654 C   0  0  0  0  0  0  0  0  0  0  0  0
    1.4941    2.0152    1.1778 N   0  0  0  0  0  0  0  0  0  0  0  0
    1.8680    2.1506    2.3392 O   0  0  0  0  0  0  0  0  0  0  0  0
    2.1245    2.3450    0.1793 O   0  0  0  0  0  0  0  0  0  0  0  0
   -0.2948    1.2312   -0.3402 C   0  0  0  0  0  0  0  0  0  0  0  0
   -1.5404    0.6511   -0.5587 C   0  0  0  0  0  0  0  0  0  0  0  0
   -2.4256    0.1008    2.7186 H   0  0  0  0  0  0  0  0  0  0  0  0
   -0.1615    1.1602    3.0757 H   0  0  0  0  0  0  0  0  0  0  0  0
    0.3184    1.5621   -1.1688 H   0  0  0  0  0  0  0  0  0  0  0  0
   -1.9296    0.5302   -1.5623 H   0  0  0  0  0  0  0  0  0  0  0  0
   -4.2239    0.9446   -2.5038 B   0  0  0  0  0  0  0  0  0  0  0  0
   -4.0215   -0.5094   -1.9341 F   0  0  0  0  0  0  0  0  0  0  0  0
   -3.0468    1.1572   -3.1932 F   0  0  0  0  0  0  0  0  0  0  0  0
   -5.3411    0.9072   -3.2641 F   0  0  0  0  0  0  0  0  0  0  0  0
   -4.3130    1.7177   -1.3616 F   0  0  0  0  0  0  0  0  0  0  0  0
  1  4  2  0  0  0  0
  2  1  1  0  0  0  0
  3  2  2  0  0  0  0
  4  5  1  0  0  0  0
  4 12  1  0  0  0  0
  5 13  1  0  0  0  0
  6  7  1  0  0  0  0
  6  5  2  0  0  0  0
  7  8  2  0  0  0  0
  9  7  2  0  0  0  0
 10  6  1  0  0  0  0
 11 10  2  0  0  0  0
 11  1  1  0  0  0  0
 14 10  1  0  0  0  0
 15 11  1  0  0  0  0
 16 17  1  0  0  0  0
 16 20  1  0  0  0  0
 18 16  1  0  0  0  0
 19 16  1  0  0  0  0
M  RAD  1   3   2
M  END
