Coordinates from ORCA-job 4-NO2PhN2+~BF4-_B3LYPG-6-31G_dp-NX-Scan-d89-09-n800
 OpenBabel11261920323D

 20 19  0  0  0  0  0  0  0  0999 V2000
   -2.3351    0.6077    0.8224 C   0  0  0  0  0  0  0  0  0  0  0  0
   -3.7229    0.2876    0.8735 N   0  0  0  0  0  0  0  0  0  0  0  0
   -4.4028   -0.1283   -0.0567 N   0  0  0  0  0  0  0  0  0  0  0  0
   -1.6458    0.3624    2.0200 C   0  0  0  0  0  0  0  0  0  0  0  0
   -0.2976    0.6793    2.1304 C   0  0  0  0  0  0  0  0  0  0  0  0
    0.3307    1.2865    1.0453 C   0  0  0  0  0  0  0  0  0  0  0  0
    1.7564    1.6460    1.1585 N   0  0  0  0  0  0  0  0  0  0  0  0
    2.3249    1.3806    2.2157 O   0  0  0  0  0  0  0  0  0  0  0  0
    2.2838    2.1878    0.1893 O   0  0  0  0  0  0  0  0  0  0  0  0
   -0.3445    1.5775   -0.1383 C   0  0  0  0  0  0  0  0  0  0  0  0
   -1.6850    1.2281   -0.2596 C   0  0  0  0  0  0  0  0  0  0  0  0
   -2.1836   -0.0812    2.8505 H   0  0  0  0  0  0  0  0  0  0  0  0
    0.2641    0.4851    3.0352 H   0  0  0  0  0  0  0  0  0  0  0  0
    0.1862    2.0621   -0.9481 H   0  0  0  0  0  0  0  0  0  0  0  0
   -2.2153    1.4505   -1.1753 H   0  0  0  0  0  0  0  0  0  0  0  0
   -4.6195    0.8006   -3.3015 B   0  0  0  0  0  0  0  0  0  0  0  0
   -3.7411   -0.3142   -1.1842 F   0  0  0  0  0  0  0  0  0  0  0  0
   -3.6046    1.6464   -3.1835 F   0  0  0  0  0  0  0  0  0  0  0  0
   -4.4819   -0.2848   -4.0339 F   0  0  0  0  0  0  0  0  0  0  0  0
   -5.7729    1.0862   -2.7338 F   0  0  0  0  0  0  0  0  0  0  0  0
  1  2  1  0  0  0  0
  1  4  2  0  0  0  0
  3  2  1  0  0  0  0
  4  5  1  0  0  0  0
  4 12  1  0  0  0  0
  5 13  1  0  0  0  0
  6  7  1  0  0  0  0
  6  5  2  0  0  0  0
  7  8  2  0  0  0  0
  9  7  2  0  0  0  0
 10  6  1  0  0  0  0
 11 10  2  0  0  0  0
 11  1  1  0  0  0  0
 14 10  1  0  0  0  0
 15 11  1  0  0  0  0
 16 18  1  0  0  0  0
 16 20  1  0  0  0  0
 17  3  1  0  0  0  0
 19 16  1  0  0  0  0
M  RAD  2   2   2   3   2
M  END
