Coordinates from ORCA-job 4-NO2PhN2+~BF4-_B3LYPG-6-31G_dp-NX-Scan-d89-09-n800
 OpenBabel11261920313D

 20 19  0  0  0  0  0  0  0  0999 V2000
   -1.8995   -0.9931    0.1340 C   0  0  0  0  0  0  0  0  0  0  0  0
   -2.4809   -2.2199    0.0751 N   0  0  0  0  0  0  0  0  0  0  0  0
   -2.9227   -3.2507    0.0456 N   0  0  0  0  0  0  0  0  0  0  0  0
   -2.2669   -0.1258    1.1877 C   0  0  0  0  0  0  0  0  0  0  0  0
   -1.6158    1.0879    1.2776 C   0  0  0  0  0  0  0  0  0  0  0  0
   -0.6638    1.4091    0.3077 C   0  0  0  0  0  0  0  0  0  0  0  0
    0.1118    2.6651    0.4754 N   0  0  0  0  0  0  0  0  0  0  0  0
   -0.1276    3.3326    1.4723 O   0  0  0  0  0  0  0  0  0  0  0  0
    0.9629    2.9057   -0.3712 O   0  0  0  0  0  0  0  0  0  0  0  0
   -0.3131    0.5574   -0.7463 C   0  0  0  0  0  0  0  0  0  0  0  0
   -0.9413   -0.6622   -0.8558 C   0  0  0  0  0  0  0  0  0  0  0  0
   -3.0382   -0.4079    1.8943 H   0  0  0  0  0  0  0  0  0  0  0  0
   -1.8643    1.8117    2.0398 H   0  0  0  0  0  0  0  0  0  0  0  0
    0.4255    0.8865   -1.4654 H   0  0  0  0  0  0  0  0  0  0  0  0
   -0.7144   -1.3542   -1.6581 H   0  0  0  0  0  0  0  0  0  0  0  0
   -3.3480    2.4771   -0.9101 B   0  0  0  0  0  0  0  0  0  0  0  0
   -4.1509    3.2806   -1.6851 F   0  0  0  0  0  0  0  0  0  0  0  0
   -3.3923    1.1175   -1.3123 F   0  0  0  0  0  0  0  0  0  0  0  0
   -1.9770    2.9060   -1.0350 F   0  0  0  0  0  0  0  0  0  0  0  0
   -3.6899    2.5429    0.4560 F   0  0  0  0  0  0  0  0  0  0  0  0
  1  4  2  0  0  0  0
  2  1  1  0  0  0  0
  3  2  1  0  0  0  0
  4  5  1  0  0  0  0
  4 12  1  0  0  0  0
  5 13  1  0  0  0  0
  6  7  1  0  0  0  0
  6  5  2  0  0  0  0
  7  8  2  0  0  0  0
  9  7  2  0  0  0  0
 10  6  1  0  0  0  0
 11 10  2  0  0  0  0
 11  1  1  0  0  0  0
 14 10  1  0  0  0  0
 15 11  1  0  0  0  0
 16 20  1  0  0  0  0
 17 16  1  0  0  0  0
 18 16  1  0  0  0  0
 19 16  1  0  0  0  0
M  RAD  2   2   2   3   3
M  END
