Coordinates from ORCA-job 4-NO2PhN2+~BF4-_B3LYPG-6-31G_dp-NX-Scan-d89-09-n800
 OpenBabel11261920323D

 20 19  0  0  0  0  0  0  0  0999 V2000
   -2.1426    0.1626    0.3799 C   0  0  0  0  0  0  0  0  0  0  0  0
   -3.3081   -0.5755    0.1636 N   0  0  0  0  0  0  0  0  0  0  0  0
   -4.1813   -1.2596    0.1569 N   0  0  0  0  0  0  0  0  0  0  0  0
   -1.7500    0.2960    1.7218 C   0  0  0  0  0  0  0  0  0  0  0  0
   -0.5791    0.9931    1.9826 C   0  0  0  0  0  0  0  0  0  0  0  0
    0.1398    1.5132    0.9064 C   0  0  0  0  0  0  0  0  0  0  0  0
    1.3944    2.2525    1.1966 N   0  0  0  0  0  0  0  0  0  0  0  0
    1.7169    2.3591    2.3759 O   0  0  0  0  0  0  0  0  0  0  0  0
    2.0142    2.6971    0.2379 O   0  0  0  0  0  0  0  0  0  0  0  0
   -0.2597    1.3730   -0.4209 C   0  0  0  0  0  0  0  0  0  0  0  0
   -1.4335    0.6857   -0.7087 C   0  0  0  0  0  0  0  0  0  0  0  0
   -2.3466   -0.1244    2.5228 H   0  0  0  0  0  0  0  0  0  0  0  0
   -0.2175    1.1390    2.9923 H   0  0  0  0  0  0  0  0  0  0  0  0
    0.3395    1.8078   -1.2108 H   0  0  0  0  0  0  0  0  0  0  0  0
   -1.8216    0.5381   -1.7111 H   0  0  0  0  0  0  0  0  0  0  0  0
   -4.3304    0.8464   -2.2906 B   0  0  0  0  0  0  0  0  0  0  0  0
   -5.6314    0.4650   -2.5125 F   0  0  0  0  0  0  0  0  0  0  0  0
   -3.4777   -0.3311   -2.3125 F   0  0  0  0  0  0  0  0  0  0  0  0
   -3.8361    1.7640   -3.1914 F   0  0  0  0  0  0  0  0  0  0  0  0
   -4.1957    1.3641   -0.9524 F   0  0  0  0  0  0  0  0  0  0  0  0
  1  4  2  0  0  0  0
  2  1  1  0  0  0  0
  3  2  1  0  0  0  0
  4  5  1  0  0  0  0
  4 12  1  0  0  0  0
  5 13  1  0  0  0  0
  6  7  1  0  0  0  0
  6  5  2  0  0  0  0
  7  8  2  0  0  0  0
  9  7  2  0  0  0  0
 10  6  1  0  0  0  0
 11 10  2  0  0  0  0
 11  1  1  0  0  0  0
 14 10  1  0  0  0  0
 15 11  1  0  0  0  0
 16 20  1  0  0  0  0
 17 16  1  0  0  0  0
 18 16  1  0  0  0  0
 19 16  1  0  0  0  0
M  RAD  2   2   2   3   3
M  END
