Coordinates from ORCA-job 4-NO2PhN2+~BF4-_B3LYPG-6-31G_dp-NX-Scan-d89-09-n800
 OpenBabel11261920323D

 20 19  0  0  0  0  0  0  0  0999 V2000
   -2.1385    0.1708    0.3742 C   0  0  0  0  0  0  0  0  0  0  0  0
   -3.3056   -0.5619    0.1485 N   0  0  0  0  0  0  0  0  0  0  0  0
   -4.1797   -1.2451    0.1378 N   0  0  0  0  0  0  0  0  0  0  0  0
   -1.7551    0.3035    1.7188 C   0  0  0  0  0  0  0  0  0  0  0  0
   -0.5824    0.9949    1.9869 C   0  0  0  0  0  0  0  0  0  0  0  0
    0.1469    1.5099    0.9151 C   0  0  0  0  0  0  0  0  0  0  0  0
    1.4032    2.2432    1.2133 N   0  0  0  0  0  0  0  0  0  0  0  0
    1.7191    2.3476    2.3945 O   0  0  0  0  0  0  0  0  0  0  0  0
    2.0307    2.6855    0.2585 O   0  0  0  0  0  0  0  0  0  0  0  0
   -0.2434    1.3696   -0.4149 C   0  0  0  0  0  0  0  0  0  0  0  0
   -1.4188    0.6883   -0.7099 C   0  0  0  0  0  0  0  0  0  0  0  0
   -2.3595   -0.1128    2.5161 H   0  0  0  0  0  0  0  0  0  0  0  0
   -0.2270    1.1400    2.9989 H   0  0  0  0  0  0  0  0  0  0  0  0
    0.3643    1.7997   -1.2008 H   0  0  0  0  0  0  0  0  0  0  0  0
   -1.8023    0.5378   -1.7138 H   0  0  0  0  0  0  0  0  0  0  0  0
   -4.3483    0.8432   -2.2982 B   0  0  0  0  0  0  0  0  0  0  0  0
   -5.6438    0.3948   -2.4205 F   0  0  0  0  0  0  0  0  0  0  0  0
   -3.4484   -0.2981   -2.3456 F   0  0  0  0  0  0  0  0  0  0  0  0
   -3.9651    1.7567   -3.2509 F   0  0  0  0  0  0  0  0  0  0  0  0
   -4.1528    1.3985   -0.9821 F   0  0  0  0  0  0  0  0  0  0  0  0
  1  4  2  0  0  0  0
  2  1  1  0  0  0  0
  3  2  1  0  0  0  0
  4  5  1  0  0  0  0
  4 12  1  0  0  0  0
  5 13  1  0  0  0  0
  6  7  1  0  0  0  0
  6  5  2  0  0  0  0
  7  8  2  0  0  0  0
  9  7  2  0  0  0  0
 10  6  1  0  0  0  0
 11 10  2  0  0  0  0
 11  1  1  0  0  0  0
 14 10  1  0  0  0  0
 15 11  1  0  0  0  0
 16 20  1  0  0  0  0
 17 16  1  0  0  0  0
 18 16  1  0  0  0  0
 19 16  1  0  0  0  0
M  RAD  2   2   2   3   3
M  END
