Coordinates from ORCA-job 4-NO2PhN2+~BF4-_B3LYPG-6-31G_dp-NX-Scan-d89-09-n800
 OpenBabel11261920323D

 20 20  0  0  0  0  0  0  0  0999 V2000
   -2.0733    1.0646    0.0387 C   0  0  0  0  0  0  0  0  0  0  0  0
   -3.4119    1.0628   -0.4619 N   0  0  0  0  0  0  0  0  0  0  0  0
   -3.6581    0.3788   -1.5016 N   0  0  0  0  0  0  0  0  0  0  0  0
   -1.9563    0.9731    1.4343 C   0  0  0  0  0  0  0  0  0  0  0  0
   -0.7055    1.0231    2.0367 C   0  0  0  0  0  0  0  0  0  0  0  0
    0.4177    1.1994    1.2304 C   0  0  0  0  0  0  0  0  0  0  0  0
    1.7477    1.2651    1.8629 N   0  0  0  0  0  0  0  0  0  0  0  0
    1.7982    1.1555    3.0859 O   0  0  0  0  0  0  0  0  0  0  0  0
    2.7180    1.4229    1.1246 O   0  0  0  0  0  0  0  0  0  0  0  0
    0.3254    1.3287   -0.1531 C   0  0  0  0  0  0  0  0  0  0  0  0
   -0.9271    1.2541   -0.7541 C   0  0  0  0  0  0  0  0  0  0  0  0
   -2.8573    0.8620    2.0276 H   0  0  0  0  0  0  0  0  0  0  0  0
   -0.5853    0.9420    3.1099 H   0  0  0  0  0  0  0  0  0  0  0  0
    1.2253    1.4830   -0.7348 H   0  0  0  0  0  0  0  0  0  0  0  0
   -1.0028    1.3790   -1.8296 H   0  0  0  0  0  0  0  0  0  0  0  0
   -5.3322    0.3512   -2.2109 B   0  0  0  0  0  0  0  0  0  0  0  0
   -2.9823   -0.1560   -1.9684 F   0  0  0  0  0  0  0  0  0  0  0  0
   -5.0635    0.9542   -3.4027 F   0  0  0  0  0  0  0  0  0  0  0  0
   -5.4892   -1.0015   -2.2734 F   0  0  0  0  0  0  0  0  0  0  0  0
   -6.0941    1.0242   -1.3346 F   0  0  0  0  0  0  0  0  0  0  0  0
  1  4  2  0  0  0  0
  2  1  1  0  0  0  0
  3  2  1  0  0  0  0
  4 12  1  0  0  0  0
  4  5  1  0  0  0  0
  5 13  1  0  0  0  0
  6  7  1  0  0  0  0
  6  5  2  0  0  0  0
  7  8  2  0  0  0  0
  9  7  2  0  0  0  0
 10  6  1  0  0  0  0
 11 10  2  0  0  0  0
 11  1  1  0  0  0  0
 14 10  1  0  0  0  0
 15 11  1  0  0  0  0
 16  3  1  0  0  0  0
 16 20  1  0  0  0  0
 17  3  1  0  0  0  0
 18 16  1  0  0  0  0
 19 16  1  0  0  0  0
M  RAD  1   2   2
M  END
