Coordinates from ORCA-job 4-NO2PhN2+~BF4-_B3LYPG-6-31G_dp-NX-Scan-d89-09-n800
 OpenBabel11261920313D

 20 19  0  0  0  0  0  0  0  0999 V2000
   -1.7280   -1.2294    0.1144 C   0  0  0  0  0  0  0  0  0  0  0  0
   -2.1947   -2.5098    0.1438 N   0  0  0  0  0  0  0  0  0  0  0  0
   -2.5452   -3.5742    0.1841 N   0  0  0  0  0  0  0  0  0  0  0  0
   -2.3899   -0.2409    0.8835 C   0  0  0  0  0  0  0  0  0  0  0  0
   -1.8372    1.0246    0.9195 C   0  0  0  0  0  0  0  0  0  0  0  0
   -0.7001    1.2766    0.1493 C   0  0  0  0  0  0  0  0  0  0  0  0
   -0.0314    2.5965    0.2672 N   0  0  0  0  0  0  0  0  0  0  0  0
   -0.2902    3.2475    1.2668 O   0  0  0  0  0  0  0  0  0  0  0  0
    0.7760    2.8821   -0.6090 O   0  0  0  0  0  0  0  0  0  0  0  0
   -0.0757    0.3138   -0.6539 C   0  0  0  0  0  0  0  0  0  0  0  0
   -0.5797   -0.9698   -0.6753 C   0  0  0  0  0  0  0  0  0  0  0  0
   -3.3062   -0.4692    1.4143 H   0  0  0  0  0  0  0  0  0  0  0  0
   -2.3292    1.8512    1.4264 H   0  0  0  0  0  0  0  0  0  0  0  0
    0.7905    0.5956   -1.2394 H   0  0  0  0  0  0  0  0  0  0  0  0
   -0.1186   -1.7580   -1.2589 H   0  0  0  0  0  0  0  0  0  0  0  0
   -3.5009    3.0061   -0.6139 B   0  0  0  0  0  0  0  0  0  0  0  0
   -4.2161    3.9461   -1.3177 F   0  0  0  0  0  0  0  0  0  0  0  0
   -4.0866    1.7208   -0.6677 F   0  0  0  0  0  0  0  0  0  0  0  0
   -2.1733    2.8836   -1.1572 F   0  0  0  0  0  0  0  0  0  0  0  0
   -3.3698    3.3728    0.7497 F   0  0  0  0  0  0  0  0  0  0  0  0
  1  2  1  0  0  0  0
  1  4  2  0  0  0  0
  2  3  1  0  0  0  0
  4  5  1  0  0  0  0
  4 12  1  0  0  0  0
  5 13  1  0  0  0  0
  6  7  1  0  0  0  0
  6  5  2  0  0  0  0
  7  8  2  0  0  0  0
  9  7  2  0  0  0  0
 10  6  1  0  0  0  0
 11 10  2  0  0  0  0
 11  1  1  0  0  0  0
 14 10  1  0  0  0  0
 15 11  1  0  0  0  0
 16 20  1  0  0  0  0
 17 16  1  0  0  0  0
 18 16  1  0  0  0  0
 19 16  1  0  0  0  0
M  RAD  2   2   2   3   3
M  END
