Coordinates from ORCA-job 4-NO2PhN2+~BF4-_B3LYPG-6-31G_dp-NX-Scan-d89-09-n800
 OpenBabel11261920323D

 20 19  0  0  0  0  0  0  0  0999 V2000
   -2.1573    0.2683    0.3977 C   0  0  0  0  0  0  0  0  0  0  0  0
   -3.3601   -0.3829    0.1342 N   0  0  0  0  0  0  0  0  0  0  0  0
   -4.3114   -0.9452   -0.0115 N   0  0  0  0  0  0  0  0  0  0  0  0
   -1.7696    0.3461    1.7457 C   0  0  0  0  0  0  0  0  0  0  0  0
   -0.5667    0.9732    2.0345 C   0  0  0  0  0  0  0  0  0  0  0  0
    0.1922    1.4758    0.9766 C   0  0  0  0  0  0  0  0  0  0  0  0
    1.4819    2.1389    1.2955 N   0  0  0  0  0  0  0  0  0  0  0  0
    1.7974    2.2023    2.4798 O   0  0  0  0  0  0  0  0  0  0  0  0
    2.1355    2.5707    0.3532 O   0  0  0  0  0  0  0  0  0  0  0  0
   -0.1976    1.3846   -0.3571 C   0  0  0  0  0  0  0  0  0  0  0  0
   -1.4064    0.7720   -0.6728 C   0  0  0  0  0  0  0  0  0  0  0  0
   -2.3963   -0.0624    2.5298 H   0  0  0  0  0  0  0  0  0  0  0  0
   -0.2077    1.0768    3.0504 H   0  0  0  0  0  0  0  0  0  0  0  0
    0.4377    1.7979   -1.1302 H   0  0  0  0  0  0  0  0  0  0  0  0
   -1.7887    0.6681   -1.6854 H   0  0  0  0  0  0  0  0  0  0  0  0
   -4.3769    0.7610   -2.4009 B   0  0  0  0  0  0  0  0  0  0  0  0
   -5.3106   -0.1798   -1.8785 F   0  0  0  0  0  0  0  0  0  0  0  0
   -3.2118    0.0275   -2.7728 F   0  0  0  0  0  0  0  0  0  0  0  0
   -4.8933    1.4692   -3.4452 F   0  0  0  0  0  0  0  0  0  0  0  0
   -3.9970    1.6039   -1.3172 F   0  0  0  0  0  0  0  0  0  0  0  0
  1  4  2  0  0  0  0
  2  1  1  0  0  0  0
  3  2  1  0  0  0  0
  4  5  1  0  0  0  0
  4 12  1  0  0  0  0
  5 13  1  0  0  0  0
  6  7  1  0  0  0  0
  6  5  2  0  0  0  0
  7  8  2  0  0  0  0
  9  7  2  0  0  0  0
 10  6  1  0  0  0  0
 11 10  2  0  0  0  0
 11  1  1  0  0  0  0
 14 10  1  0  0  0  0
 15 11  1  0  0  0  0
 16 17  1  0  0  0  0
 16 20  1  0  0  0  0
 18 16  1  0  0  0  0
 19 16  1  0  0  0  0
M  RAD  2   2   2   3   3
M  END
