Coordinates from ORCA-job 4-NO2PhN2+~BF4-_B3LYPG-6-31G_dp-NX-Scan-d89-09-n800
 OpenBabel11261920313D

 20 19  0  0  0  0  0  0  0  0999 V2000
   -1.8416   -1.1067    0.1369 C   0  0  0  0  0  0  0  0  0  0  0  0
   -2.3115   -2.3831    0.1440 N   0  0  0  0  0  0  0  0  0  0  0  0
   -2.6549   -3.4518    0.1711 N   0  0  0  0  0  0  0  0  0  0  0  0
   -2.3052   -0.2068    1.1271 C   0  0  0  0  0  0  0  0  0  0  0  0
   -1.7226    1.0424    1.1887 C   0  0  0  0  0  0  0  0  0  0  0  0
   -0.7445    1.3737    0.2454 C   0  0  0  0  0  0  0  0  0  0  0  0
    0.0136    2.6402    0.4328 N   0  0  0  0  0  0  0  0  0  0  0  0
   -0.2622    3.3038    1.4214 O   0  0  0  0  0  0  0  0  0  0  0  0
    0.8927    2.8818   -0.3844 O   0  0  0  0  0  0  0  0  0  0  0  0
   -0.3128    0.4964   -0.7590 C   0  0  0  0  0  0  0  0  0  0  0  0
   -0.8628   -0.7631   -0.8311 C   0  0  0  0  0  0  0  0  0  0  0  0
   -3.0840   -0.5020    1.8204 H   0  0  0  0  0  0  0  0  0  0  0  0
   -2.0481    1.7907    1.8961 H   0  0  0  0  0  0  0  0  0  0  0  0
    0.4411    0.8317   -1.4595 H   0  0  0  0  0  0  0  0  0  0  0  0
   -0.5548   -1.4803   -1.5829 H   0  0  0  0  0  0  0  0  0  0  0  0
   -3.3534    2.7130   -0.8586 B   0  0  0  0  0  0  0  0  0  0  0  0
   -4.0540    3.6356   -1.6004 F   0  0  0  0  0  0  0  0  0  0  0  0
   -3.7044    1.3801   -1.1485 F   0  0  0  0  0  0  0  0  0  0  0  0
   -1.9371    2.8395   -1.1597 F   0  0  0  0  0  0  0  0  0  0  0  0
   -3.5002    2.9311    0.5259 F   0  0  0  0  0  0  0  0  0  0  0  0
  1  2  1  0  0  0  0
  1  4  2  0  0  0  0
  2  3  1  0  0  0  0
  4  5  1  0  0  0  0
  4 12  1  0  0  0  0
  5 13  1  0  0  0  0
  6  7  1  0  0  0  0
  6  5  2  0  0  0  0
  7  8  2  0  0  0  0
  9  7  2  0  0  0  0
 10  6  1  0  0  0  0
 11 10  2  0  0  0  0
 11  1  1  0  0  0  0
 14 10  1  0  0  0  0
 15 11  1  0  0  0  0
 16 20  1  0  0  0  0
 17 16  1  0  0  0  0
 18 16  1  0  0  0  0
 19 16  1  0  0  0  0
M  RAD  2   2   2   3   3
M  END
