Coordinates from ORCA-job 4-NO2PhN2+~BF4-_B3LYPG-6-31G_dp-NX-Scan-d89-09-n800
 OpenBabel11261920323D

 20 19  0  0  0  0  0  0  0  0999 V2000
   -1.9059   -0.9530    0.1337 C   0  0  0  0  0  0  0  0  0  0  0  0
   -2.5491   -2.1455    0.0370 N   0  0  0  0  0  0  0  0  0  0  0  0
   -3.0526   -3.1450   -0.0302 N   0  0  0  0  0  0  0  0  0  0  0  0
   -2.2517   -0.0907    1.1973 C   0  0  0  0  0  0  0  0  0  0  0  0
   -1.5710    1.1058    1.2999 C   0  0  0  0  0  0  0  0  0  0  0  0
   -0.6178    1.4161    0.3296 C   0  0  0  0  0  0  0  0  0  0  0  0
    0.1510    2.6774    0.4806 N   0  0  0  0  0  0  0  0  0  0  0  0
   -0.0824    3.3512    1.4751 O   0  0  0  0  0  0  0  0  0  0  0  0
    0.9883    2.9207   -0.3791 O   0  0  0  0  0  0  0  0  0  0  0  0
   -0.2778    0.5637   -0.7268 C   0  0  0  0  0  0  0  0  0  0  0  0
   -0.9335   -0.6405   -0.8474 C   0  0  0  0  0  0  0  0  0  0  0  0
   -3.0382   -0.3556    1.8933 H   0  0  0  0  0  0  0  0  0  0  0  0
   -1.8067    1.8288    2.0670 H   0  0  0  0  0  0  0  0  0  0  0  0
    0.4669    0.8832   -1.4438 H   0  0  0  0  0  0  0  0  0  0  0  0
   -0.7251   -1.3288   -1.6577 H   0  0  0  0  0  0  0  0  0  0  0  0
   -3.3728    2.3889   -0.9138 B   0  0  0  0  0  0  0  0  0  0  0  0
   -4.2071    3.1694   -1.6781 F   0  0  0  0  0  0  0  0  0  0  0  0
   -3.3487    1.0399   -1.3583 F   0  0  0  0  0  0  0  0  0  0  0  0
   -2.0273    2.8879   -1.0008 F   0  0  0  0  0  0  0  0  0  0  0  0
   -3.7447    2.3922    0.4484 F   0  0  0  0  0  0  0  0  0  0  0  0
  1  4  2  0  0  0  0
  2  1  1  0  0  0  0
  3  2  1  0  0  0  0
  4  5  1  0  0  0  0
  4 12  1  0  0  0  0
  5 13  1  0  0  0  0
  6  7  1  0  0  0  0
  6  5  2  0  0  0  0
  7  8  2  0  0  0  0
  9  7  2  0  0  0  0
 10  6  1  0  0  0  0
 11 10  2  0  0  0  0
 11  1  1  0  0  0  0
 14 10  1  0  0  0  0
 15 11  1  0  0  0  0
 16 20  1  0  0  0  0
 17 16  1  0  0  0  0
 18 16  1  0  0  0  0
 19 16  1  0  0  0  0
M  RAD  2   2   2   3   3
M  END
