Coordinates from ORCA-job 4-NO2PhN2+~BF4-_B3LYPG-6-31G_dp-NX-Scan-d89-09-n800
 OpenBabel11261920313D

 20 19  0  0  0  0  0  0  0  0999 V2000
   -1.7027   -1.2733    0.1199 C   0  0  0  0  0  0  0  0  0  0  0  0
   -2.1350   -2.5654    0.1817 N   0  0  0  0  0  0  0  0  0  0  0  0
   -2.4525   -3.6388    0.2479 N   0  0  0  0  0  0  0  0  0  0  0  0
   -2.4079   -0.2745    0.8373 C   0  0  0  0  0  0  0  0  0  0  0  0
   -1.8831    1.0038    0.8496 C   0  0  0  0  0  0  0  0  0  0  0  0
   -0.7203    1.2521    0.1152 C   0  0  0  0  0  0  0  0  0  0  0  0
   -0.0645    2.5782    0.2291 N   0  0  0  0  0  0  0  0  0  0  0  0
   -0.3150    3.2180    1.2376 O   0  0  0  0  0  0  0  0  0  0  0  0
    0.7273    2.8757   -0.6571 O   0  0  0  0  0  0  0  0  0  0  0  0
   -0.0578    0.2799   -0.6444 C   0  0  0  0  0  0  0  0  0  0  0  0
   -0.5371   -1.0140   -0.6434 C   0  0  0  0  0  0  0  0  0  0  0  0
   -3.3332   -0.5064    1.3509 H   0  0  0  0  0  0  0  0  0  0  0  0
   -2.3983    1.8364    1.3279 H   0  0  0  0  0  0  0  0  0  0  0  0
    0.8217    0.5606   -1.2104 H   0  0  0  0  0  0  0  0  0  0  0  0
   -0.0427   -1.8096   -1.1884 H   0  0  0  0  0  0  0  0  0  0  0  0
   -3.5126    3.1098   -0.5796 B   0  0  0  0  0  0  0  0  0  0  0  0
   -4.1982    4.1096   -1.2302 F   0  0  0  0  0  0  0  0  0  0  0  0
   -4.1543    1.8557   -0.6639 F   0  0  0  0  0  0  0  0  0  0  0  0
   -2.2022    2.9497   -1.1506 F   0  0  0  0  0  0  0  0  0  0  0  0
   -3.3382    3.4185    0.7969 F   0  0  0  0  0  0  0  0  0  0  0  0
  1  2  1  0  0  0  0
  1  4  2  0  0  0  0
  2  3  1  0  0  0  0
  4  5  1  0  0  0  0
  4 12  1  0  0  0  0
  5 13  1  0  0  0  0
  6  7  1  0  0  0  0
  6  5  2  0  0  0  0
  7  8  2  0  0  0  0
  9  7  2  0  0  0  0
 10 11  2  0  0  0  0
 10  6  1  0  0  0  0
 11  1  1  0  0  0  0
 14 10  1  0  0  0  0
 15 11  1  0  0  0  0
 16 20  1  0  0  0  0
 17 16  1  0  0  0  0
 18 16  1  0  0  0  0
 19 16  1  0  0  0  0
M  RAD  2   2   2   3   3
M  END
