Coordinates from ORCA-job 4-NO2PhN2+~BF4-_B3LYPG-6-31G_dp-NX-Scan-d89-09-n800
 OpenBabel11261920323D

 20 20  0  0  0  0  0  0  0  0999 V2000
   -2.0673    1.0408    0.0375 C   0  0  0  0  0  0  0  0  0  0  0  0
   -3.4091    1.0213   -0.4493 N   0  0  0  0  0  0  0  0  0  0  0  0
   -3.6614    0.4037   -1.5219 N   0  0  0  0  0  0  0  0  0  0  0  0
   -1.9530    0.9648    1.4349 C   0  0  0  0  0  0  0  0  0  0  0  0
   -0.7046    1.0252    2.0410 C   0  0  0  0  0  0  0  0  0  0  0  0
    0.4193    1.2004    1.2360 C   0  0  0  0  0  0  0  0  0  0  0  0
    1.7479    1.2793    1.8714 N   0  0  0  0  0  0  0  0  0  0  0  0
    1.7954    1.1801    3.0953 O   0  0  0  0  0  0  0  0  0  0  0  0
    2.7188    1.4370    1.1341 O   0  0  0  0  0  0  0  0  0  0  0  0
    0.3302    1.3171   -0.1489 C   0  0  0  0  0  0  0  0  0  0  0  0
   -0.9191    1.2287   -0.7542 C   0  0  0  0  0  0  0  0  0  0  0  0
   -2.8559    0.8562    2.0255 H   0  0  0  0  0  0  0  0  0  0  0  0
   -0.5872    0.9546    3.1153 H   0  0  0  0  0  0  0  0  0  0  0  0
    1.2311    1.4712   -0.7292 H   0  0  0  0  0  0  0  0  0  0  0  0
   -0.9884    1.3402   -1.8309 H   0  0  0  0  0  0  0  0  0  0  0  0
   -5.3474    0.3528   -2.2046 B   0  0  0  0  0  0  0  0  0  0  0  0
   -2.9569   -0.0912   -2.0503 F   0  0  0  0  0  0  0  0  0  0  0  0
   -5.1003    0.9521   -3.4025 F   0  0  0  0  0  0  0  0  0  0  0  0
   -5.5056   -0.9985   -2.2566 F   0  0  0  0  0  0  0  0  0  0  0  0
   -6.0930    1.0303   -1.3166 F   0  0  0  0  0  0  0  0  0  0  0  0
  1  4  2  0  0  0  0
  2  1  1  0  0  0  0
  3  2  1  0  0  0  0
  4 12  1  0  0  0  0
  4  5  1  0  0  0  0
  5 13  1  0  0  0  0
  6  7  1  0  0  0  0
  6  5  2  0  0  0  0
  7  8  2  0  0  0  0
  9  7  2  0  0  0  0
 10  6  1  0  0  0  0
 11 10  2  0  0  0  0
 11  1  1  0  0  0  0
 14 10  1  0  0  0  0
 15 11  1  0  0  0  0
 16  3  1  0  0  0  0
 16 20  1  0  0  0  0
 17  3  1  0  0  0  0
 18 16  1  0  0  0  0
 19 16  1  0  0  0  0
M  RAD  1   2   2
M  END
