Coordinates from ORCA-job 4-NO2PhN2+~BF4-_B3LYPG-6-31G_dp-NX-Scan-d89-09-n800
 OpenBabel11261920313D

 20 19  0  0  0  0  0  0  0  0999 V2000
   -1.8990   -0.9996    0.1342 C   0  0  0  0  0  0  0  0  0  0  0  0
   -2.4682   -2.2330    0.0831 N   0  0  0  0  0  0  0  0  0  0  0  0
   -2.8950   -3.2703    0.0632 N   0  0  0  0  0  0  0  0  0  0  0  0
   -2.2704   -0.1308    1.1855 C   0  0  0  0  0  0  0  0  0  0  0  0
   -1.6234    1.0852    1.2733 C   0  0  0  0  0  0  0  0  0  0  0  0
   -0.6710    1.4074    0.3038 C   0  0  0  0  0  0  0  0  0  0  0  0
    0.1070    2.6617    0.4745 N   0  0  0  0  0  0  0  0  0  0  0  0
   -0.1322    3.3277    1.4724 O   0  0  0  0  0  0  0  0  0  0  0  0
    0.9601    2.9015   -0.3702 O   0  0  0  0  0  0  0  0  0  0  0  0
   -0.3191    0.5556   -0.7498 C   0  0  0  0  0  0  0  0  0  0  0  0
   -0.9430   -0.6664   -0.8571 C   0  0  0  0  0  0  0  0  0  0  0  0
   -3.0397   -0.4149    1.8934 H   0  0  0  0  0  0  0  0  0  0  0  0
   -1.8735    1.8091    2.0349 H   0  0  0  0  0  0  0  0  0  0  0  0
    0.4190    0.8856   -1.4691 H   0  0  0  0  0  0  0  0  0  0  0  0
   -0.7129   -1.3594   -1.6576 H   0  0  0  0  0  0  0  0  0  0  0  0
   -3.3459    2.4934   -0.9105 B   0  0  0  0  0  0  0  0  0  0  0  0
   -4.1423    3.3057   -1.6840 F   0  0  0  0  0  0  0  0  0  0  0  0
   -3.4004    1.1347   -1.3132 F   0  0  0  0  0  0  0  0  0  0  0  0
   -1.9711    2.9116   -1.0367 F   0  0  0  0  0  0  0  0  0  0  0  0
   -3.6855    2.5612    0.4558 F   0  0  0  0  0  0  0  0  0  0  0  0
  1  4  2  0  0  0  0
  2  1  1  0  0  0  0
  3  2  1  0  0  0  0
  4  5  1  0  0  0  0
  4 12  1  0  0  0  0
  5 13  1  0  0  0  0
  6  7  1  0  0  0  0
  6  5  2  0  0  0  0
  7  8  2  0  0  0  0
  9  7  2  0  0  0  0
 10  6  1  0  0  0  0
 11 10  2  0  0  0  0
 11  1  1  0  0  0  0
 14 10  1  0  0  0  0
 15 11  1  0  0  0  0
 16 20  1  0  0  0  0
 17 16  1  0  0  0  0
 18 16  1  0  0  0  0
 19 16  1  0  0  0  0
M  RAD  2   2   2   3   3
M  END
