Coordinates from ORCA-job 4-NO2PhN2+~BF4-_B3LYPG-6-31G_dp-NX-Scan-d89-09-n800
 OpenBabel11261920323D

 20 20  0  0  0  0  0  0  0  0999 V2000
   -2.0548    1.0075    0.0325 C   0  0  0  0  0  0  0  0  0  0  0  0
   -3.3987    0.9604   -0.4372 N   0  0  0  0  0  0  0  0  0  0  0  0
   -3.6714    0.4440   -1.5466 N   0  0  0  0  0  0  0  0  0  0  0  0
   -1.9479    0.9597    1.4326 C   0  0  0  0  0  0  0  0  0  0  0  0
   -0.7043    1.0355    2.0467 C   0  0  0  0  0  0  0  0  0  0  0  0
    0.4226    1.2021    1.2448 C   0  0  0  0  0  0  0  0  0  0  0  0
    1.7479    1.2995    1.8869 N   0  0  0  0  0  0  0  0  0  0  0  0
    1.7880    1.2215    3.1124 O   0  0  0  0  0  0  0  0  0  0  0  0
    2.7216    1.4506    1.1524 O   0  0  0  0  0  0  0  0  0  0  0  0
    0.3419    1.2930   -0.1427 C   0  0  0  0  0  0  0  0  0  0  0  0
   -0.9015    1.1855   -0.7565 C   0  0  0  0  0  0  0  0  0  0  0  0
   -2.8552    0.8588    2.0178 H   0  0  0  0  0  0  0  0  0  0  0  0
   -0.5937    0.9850    3.1227 H   0  0  0  0  0  0  0  0  0  0  0  0
    1.2460    1.4407   -0.7196 H   0  0  0  0  0  0  0  0  0  0  0  0
   -0.9604    1.2714   -1.8347 H   0  0  0  0  0  0  0  0  0  0  0  0
   -5.3765    0.3528   -2.1952 B   0  0  0  0  0  0  0  0  0  0  0  0
   -2.9183    0.0134   -2.1733 F   0  0  0  0  0  0  0  0  0  0  0  0
   -5.1762    0.9783   -3.3861 F   0  0  0  0  0  0  0  0  0  0  0  0
   -5.5132   -0.9975   -2.2609 F   0  0  0  0  0  0  0  0  0  0  0  0
   -6.1024    1.0039   -1.2701 F   0  0  0  0  0  0  0  0  0  0  0  0
  1  4  2  0  0  0  0
  2  1  1  0  0  0  0
  3  2  1  0  0  0  0
  4 12  1  0  0  0  0
  4  5  1  0  0  0  0
  5 13  1  0  0  0  0
  6  7  1  0  0  0  0
  6  5  2  0  0  0  0
  7  8  2  0  0  0  0
  9  7  2  0  0  0  0
 10  6  1  0  0  0  0
 11 10  2  0  0  0  0
 11  1  1  0  0  0  0
 14 10  1  0  0  0  0
 15 11  1  0  0  0  0
 16  3  1  0  0  0  0
 16 20  1  0  0  0  0
 17  3  1  0  0  0  0
 18 16  1  0  0  0  0
 19 16  1  0  0  0  0
M  RAD  1   2   2
M  END
