Coordinates from ORCA-job 4-NO2PhN2+~BF4-_B3LYPG-6-31G_dp-NX-Scan-d89-09-n800
 OpenBabel11261920313D

 20 19  0  0  0  0  0  0  0  0999 V2000
   -1.5976   -1.3802    0.1775 C   0  0  0  0  0  0  0  0  0  0  0  0
   -1.9756   -2.6870    0.2891 N   0  0  0  0  0  0  0  0  0  0  0  0
   -2.2563   -3.7677    0.3908 N   0  0  0  0  0  0  0  0  0  0  0  0
   -2.3717   -0.3767    0.8177 C   0  0  0  0  0  0  0  0  0  0  0  0
   -1.9219    0.9294    0.7584 C   0  0  0  0  0  0  0  0  0  0  0  0
   -0.7377    1.1875    0.0572 C   0  0  0  0  0  0  0  0  0  0  0  0
   -0.1422    2.5446    0.1151 N   0  0  0  0  0  0  0  0  0  0  0  0
   -0.3683    3.1829    1.1299 O   0  0  0  0  0  0  0  0  0  0  0  0
    0.5911    2.8593   -0.8133 O   0  0  0  0  0  0  0  0  0  0  0  0
   -0.0030    0.2081   -0.6201 C   0  0  0  0  0  0  0  0  0  0  0  0
   -0.4214   -1.1073   -0.5609 C   0  0  0  0  0  0  0  0  0  0  0  0
   -3.2931   -0.6315    1.3288 H   0  0  0  0  0  0  0  0  0  0  0  0
   -2.4968    1.7683    1.1668 H   0  0  0  0  0  0  0  0  0  0  0  0
    0.8829    0.4976   -1.1718 H   0  0  0  0  0  0  0  0  0  0  0  0
    0.1285   -1.9057   -1.0452 H   0  0  0  0  0  0  0  0  0  0  0  0
   -3.6161    3.3537   -0.5562 B   0  0  0  0  0  0  0  0  0  0  0  0
   -3.8140    4.6716   -0.9089 F   0  0  0  0  0  0  0  0  0  0  0  0
   -4.6164    2.5038   -1.0140 F   0  0  0  0  0  0  0  0  0  0  0  0
   -2.3549    2.8864   -1.0855 F   0  0  0  0  0  0  0  0  0  0  0  0
   -3.5220    3.2291    0.8706 F   0  0  0  0  0  0  0  0  0  0  0  0
  1  2  1  0  0  0  0
  1  4  2  0  0  0  0
  2  3  1  0  0  0  0
  4 12  1  0  0  0  0
  5  4  1  0  0  0  0
  5 13  1  0  0  0  0
  6  7  1  0  0  0  0
  6  5  2  0  0  0  0
  7  8  2  0  0  0  0
  9  7  2  0  0  0  0
 10 11  2  0  0  0  0
 10  6  1  0  0  0  0
 11  1  1  0  0  0  0
 14 10  1  0  0  0  0
 15 11  1  0  0  0  0
 16 20  1  0  0  0  0
 17 16  1  0  0  0  0
 18 16  1  0  0  0  0
 19 16  1  0  0  0  0
M  RAD  2   2   2   3   3
M  END
