Coordinates from ORCA-job 4-NO2PhN2+~BF4-_B3LYPG-6-31G_dp-NX-Scan-d89-09-n800
 OpenBabel11261920313D

 20 19  0  0  0  0  0  0  0  0999 V2000
   -1.8386   -1.1124    0.1385 C   0  0  0  0  0  0  0  0  0  0  0  0
   -2.3029   -2.3907    0.1493 N   0  0  0  0  0  0  0  0  0  0  0  0
   -2.6413   -3.4609    0.1797 N   0  0  0  0  0  0  0  0  0  0  0  0
   -2.3058   -0.2113    1.1260 C   0  0  0  0  0  0  0  0  0  0  0  0
   -1.7274    1.0399    1.1850 C   0  0  0  0  0  0  0  0  0  0  0  0
   -0.7487    1.3718    0.2423 C   0  0  0  0  0  0  0  0  0  0  0  0
    0.0095    2.6382    0.4307 N   0  0  0  0  0  0  0  0  0  0  0  0
   -0.2669    3.3014    1.4194 O   0  0  0  0  0  0  0  0  0  0  0  0
    0.8896    2.8796   -0.3855 O   0  0  0  0  0  0  0  0  0  0  0  0
   -0.3145    0.4937   -0.7604 C   0  0  0  0  0  0  0  0  0  0  0  0
   -0.8605   -0.7677   -0.8299 C   0  0  0  0  0  0  0  0  0  0  0  0
   -3.0838   -0.5075    1.8199 H   0  0  0  0  0  0  0  0  0  0  0  0
   -2.0556    1.7890    1.8904 H   0  0  0  0  0  0  0  0  0  0  0  0
    0.4391    0.8297   -1.4610 H   0  0  0  0  0  0  0  0  0  0  0  0
   -0.5496   -1.4856   -1.5798 H   0  0  0  0  0  0  0  0  0  0  0  0
   -3.3537    2.7249   -0.8581 B   0  0  0  0  0  0  0  0  0  0  0  0
   -4.0479    3.6553   -1.5963 F   0  0  0  0  0  0  0  0  0  0  0  0
   -3.7143    1.3961   -1.1514 F   0  0  0  0  0  0  0  0  0  0  0  0
   -1.9363    2.8423   -1.1604 F   0  0  0  0  0  0  0  0  0  0  0  0
   -3.4969    2.9405    0.5273 F   0  0  0  0  0  0  0  0  0  0  0  0
  1  2  1  0  0  0  0
  1  4  2  0  0  0  0
  2  3  1  0  0  0  0
  4  5  1  0  0  0  0
  4 12  1  0  0  0  0
  5 13  1  0  0  0  0
  6  7  1  0  0  0  0
  6  5  2  0  0  0  0
  7  8  2  0  0  0  0
  9  7  2  0  0  0  0
 10  6  1  0  0  0  0
 11 10  2  0  0  0  0
 11  1  1  0  0  0  0
 14 10  1  0  0  0  0
 15 11  1  0  0  0  0
 16 20  1  0  0  0  0
 17 16  1  0  0  0  0
 18 16  1  0  0  0  0
 19 16  1  0  0  0  0
M  RAD  2   2   2   3   3
M  END
