Coordinates from ORCA-job 4-NO2PhN2+~BF4-_B3LYPG-6-31G_dp-NX-Scan-d89-09-n800
 OpenBabel11261920313D

 20 19  0  0  0  0  0  0  0  0999 V2000
   -1.7205   -1.2427    0.1158 C   0  0  0  0  0  0  0  0  0  0  0  0
   -2.1765   -2.5268    0.1551 N   0  0  0  0  0  0  0  0  0  0  0  0
   -2.5165   -3.5942    0.2031 N   0  0  0  0  0  0  0  0  0  0  0  0
   -2.3959   -0.2506    0.8688 C   0  0  0  0  0  0  0  0  0  0  0  0
   -1.8511    1.0186    0.8980 C   0  0  0  0  0  0  0  0  0  0  0  0
   -0.7057    1.2689    0.1391 C   0  0  0  0  0  0  0  0  0  0  0  0
   -0.0407    2.5907    0.2558 N   0  0  0  0  0  0  0  0  0  0  0  0
   -0.2979    3.2390    1.2575 O   0  0  0  0  0  0  0  0  0  0  0  0
    0.7610    2.8804   -0.6241 O   0  0  0  0  0  0  0  0  0  0  0  0
   -0.0697    0.3030   -0.6508 C   0  0  0  0  0  0  0  0  0  0  0  0
   -0.5664   -0.9837   -0.6655 C   0  0  0  0  0  0  0  0  0  0  0  0
   -3.3155   -0.4794    1.3937 H   0  0  0  0  0  0  0  0  0  0  0  0
   -2.3501    1.8476    1.3958 H   0  0  0  0  0  0  0  0  0  0  0  0
    0.8008    0.5841   -1.2302 H   0  0  0  0  0  0  0  0  0  0  0  0
   -0.0951   -1.7746   -1.2371 H   0  0  0  0  0  0  0  0  0  0  0  0
   -3.5047    3.0376   -0.6028 B   0  0  0  0  0  0  0  0  0  0  0  0
   -4.2120    3.9952   -1.2913 F   0  0  0  0  0  0  0  0  0  0  0  0
   -4.1072    1.7611   -0.6648 F   0  0  0  0  0  0  0  0  0  0  0  0
   -2.1824    2.9034   -1.1547 F   0  0  0  0  0  0  0  0  0  0  0  0
   -3.3604    3.3884    0.7647 F   0  0  0  0  0  0  0  0  0  0  0  0
  1  2  1  0  0  0  0
  1  4  2  0  0  0  0
  2  3  1  0  0  0  0
  4  5  1  0  0  0  0
  4 12  1  0  0  0  0
  5 13  1  0  0  0  0
  6  7  1  0  0  0  0
  6  5  2  0  0  0  0
  7  8  2  0  0  0  0
  9  7  2  0  0  0  0
 10  6  1  0  0  0  0
 11 10  2  0  0  0  0
 11  1  1  0  0  0  0
 14 10  1  0  0  0  0
 15 11  1  0  0  0  0
 16 20  1  0  0  0  0
 17 16  1  0  0  0  0
 18 16  1  0  0  0  0
 19 16  1  0  0  0  0
M  RAD  2   2   2   3   3
M  END
