Coordinates from ORCA-job 4-NO2PhN2+~BF4-_B3LYPG-6-31G_dp-NX-Scan-d89-09-n800
 OpenBabel11261920323D

 20 19  0  0  0  0  0  0  0  0999 V2000
   -1.9396   -0.5569   -0.0138 C   0  0  0  0  0  0  0  0  0  0  0  0
   -2.7580   -1.6342   -0.2449 N   0  0  0  0  0  0  0  0  0  0  0  0
   -3.3359   -2.5771   -0.3950 N   0  0  0  0  0  0  0  0  0  0  0  0
   -2.2343    0.2813    1.0738 C   0  0  0  0  0  0  0  0  0  0  0  0
   -1.3454    1.3191    1.3297 C   0  0  0  0  0  0  0  0  0  0  0  0
   -0.2474    1.4810    0.4973 C   0  0  0  0  0  0  0  0  0  0  0  0
    0.6930    2.5921    0.7831 N   0  0  0  0  0  0  0  0  0  0  0  0
    0.4598    3.2822    1.7688 O   0  0  0  0  0  0  0  0  0  0  0  0
    1.6430    2.7279    0.0184 O   0  0  0  0  0  0  0  0  0  0  0  0
    0.0208    0.6635   -0.6059 C   0  0  0  0  0  0  0  0  0  0  0  0
   -0.8394   -0.3794   -0.8798 C   0  0  0  0  0  0  0  0  0  0  0  0
   -3.1287    0.1402    1.6625 H   0  0  0  0  0  0  0  0  0  0  0  0
   -1.5212    2.0157    2.1382 H   0  0  0  0  0  0  0  0  0  0  0  0
    0.8833    0.8666   -1.2266 H   0  0  0  0  0  0  0  0  0  0  0  0
   -0.6903   -1.0364   -1.7281 H   0  0  0  0  0  0  0  0  0  0  0  0
   -3.9324    1.7826   -0.9948 B   0  0  0  0  0  0  0  0  0  0  0  0
   -4.7662    2.6649   -1.6461 F   0  0  0  0  0  0  0  0  0  0  0  0
   -4.2503    0.4135   -1.2710 F   0  0  0  0  0  0  0  0  0  0  0  0
   -2.5824    1.9790   -1.3610 F   0  0  0  0  0  0  0  0  0  0  0  0
   -4.0348    1.9406    0.4209 F   0  0  0  0  0  0  0  0  0  0  0  0
  1  4  2  0  0  0  0
  2  1  1  0  0  0  0
  3  2  1  0  0  0  0
  4  5  1  0  0  0  0
  4 12  1  0  0  0  0
  5 13  1  0  0  0  0
  6  7  1  0  0  0  0
  6  5  2  0  0  0  0
  7  8  2  0  0  0  0
  9  7  2  0  0  0  0
 10  6  1  0  0  0  0
 11 10  2  0  0  0  0
 11  1  1  0  0  0  0
 14 10  1  0  0  0  0
 15 11  1  0  0  0  0
 16 20  1  0  0  0  0
 17 16  1  0  0  0  0
 18 16  1  0  0  0  0
 19 16  1  0  0  0  0
M  RAD  2   2   2   3   3
M  END
