Coordinates from ORCA-job 4-NO2PhN2+~BF4-_B3LYPG-6-31G_dp-NX-Scan-d89-09-n800
 OpenBabel11261920323D

 20 20  0  0  0  0  0  0  0  0999 V2000
   -2.0660    1.0371    0.0372 C   0  0  0  0  0  0  0  0  0  0  0  0
   -3.4079    1.0154   -0.4485 N   0  0  0  0  0  0  0  0  0  0  0  0
   -3.6629    0.4068   -1.5235 N   0  0  0  0  0  0  0  0  0  0  0  0
   -1.9527    0.9638    1.4348 C   0  0  0  0  0  0  0  0  0  0  0  0
   -0.7046    1.0258    2.0416 C   0  0  0  0  0  0  0  0  0  0  0  0
    0.4194    1.2008    1.2367 C   0  0  0  0  0  0  0  0  0  0  0  0
    1.7477    1.2818    1.8727 N   0  0  0  0  0  0  0  0  0  0  0  0
    1.7945    1.1844    3.0967 O   0  0  0  0  0  0  0  0  0  0  0  0
    2.7187    1.4393    1.1356 O   0  0  0  0  0  0  0  0  0  0  0  0
    0.3310    1.3153   -0.1485 C   0  0  0  0  0  0  0  0  0  0  0  0
   -0.9178    1.2246   -0.7545 C   0  0  0  0  0  0  0  0  0  0  0  0
   -2.8559    0.8559    2.0250 H   0  0  0  0  0  0  0  0  0  0  0  0
   -0.5878    0.9569    3.1159 H   0  0  0  0  0  0  0  0  0  0  0  0
    1.2321    1.4693   -0.7285 H   0  0  0  0  0  0  0  0  0  0  0  0
   -0.9865    1.3333   -1.8314 H   0  0  0  0  0  0  0  0  0  0  0  0
   -5.3497    0.3536   -2.2036 B   0  0  0  0  0  0  0  0  0  0  0  0
   -2.9506   -0.0862   -2.0623 F   0  0  0  0  0  0  0  0  0  0  0  0
   -5.1069    0.9556   -3.4009 F   0  0  0  0  0  0  0  0  0  0  0  0
   -5.5084   -0.9972   -2.2571 F   0  0  0  0  0  0  0  0  0  0  0  0
   -6.0921    1.0297   -1.3116 F   0  0  0  0  0  0  0  0  0  0  0  0
  1  4  2  0  0  0  0
  2  1  1  0  0  0  0
  3  2  1  0  0  0  0
  4 12  1  0  0  0  0
  4  5  1  0  0  0  0
  5 13  1  0  0  0  0
  6  7  1  0  0  0  0
  6  5  2  0  0  0  0
  7  8  2  0  0  0  0
  9  7  2  0  0  0  0
 10  6  1  0  0  0  0
 11 10  2  0  0  0  0
 11  1  1  0  0  0  0
 14 10  1  0  0  0  0
 15 11  1  0  0  0  0
 16  3  1  0  0  0  0
 16 20  1  0  0  0  0
 17  3  1  0  0  0  0
 18 16  1  0  0  0  0
 19 16  1  0  0  0  0
M  RAD  1   2   2
M  END
