Coordinates from ORCA-job 4-NO2PhN2+~BF4-_B3LYPG-6-31G_dp-NX-Scan-d89-09-n800
 OpenBabel11261920323D

 20 19  0  0  0  0  0  0  0  0999 V2000
   -2.2737    0.2174    0.5668 C   0  0  0  0  0  0  0  0  0  0  0  0
   -3.5361   -0.3971    0.4790 N   0  0  0  0  0  0  0  0  0  0  0  0
   -4.3256   -0.7526   -0.3048 N   0  0  0  0  0  0  0  0  0  0  0  0
   -1.8180    0.4271    1.8775 C   0  0  0  0  0  0  0  0  0  0  0  0
   -0.5799    1.0206    2.0850 C   0  0  0  0  0  0  0  0  0  0  0  0
    0.1697    1.3836    0.9684 C   0  0  0  0  0  0  0  0  0  0  0  0
    1.4925    2.0151    1.1807 N   0  0  0  0  0  0  0  0  0  0  0  0
    1.8516    2.1867    2.3425 O   0  0  0  0  0  0  0  0  0  0  0  0
    2.1365    2.3208    0.1822 O   0  0  0  0  0  0  0  0  0  0  0  0
   -0.2712    1.1794   -0.3377 C   0  0  0  0  0  0  0  0  0  0  0  0
   -1.5111    0.5882   -0.5549 C   0  0  0  0  0  0  0  0  0  0  0  0
   -2.4415    0.1242    2.7107 H   0  0  0  0  0  0  0  0  0  0  0  0
   -0.1901    1.2039    3.0778 H   0  0  0  0  0  0  0  0  0  0  0  0
    0.3536    1.4874   -1.1664 H   0  0  0  0  0  0  0  0  0  0  0  0
   -1.8793    0.4320   -1.5577 H   0  0  0  0  0  0  0  0  0  0  0  0
   -4.2842    1.0992   -2.5380 B   0  0  0  0  0  0  0  0  0  0  0  0
   -3.8432   -0.4829   -1.8286 F   0  0  0  0  0  0  0  0  0  0  0  0
   -3.1535    1.2928   -3.2539 F   0  0  0  0  0  0  0  0  0  0  0  0
   -5.4033    0.8004   -3.2038 F   0  0  0  0  0  0  0  0  0  0  0  0
   -4.3999    1.8198   -1.3988 F   0  0  0  0  0  0  0  0  0  0  0  0
  1  4  2  0  0  0  0
  2  1  1  0  0  0  0
  3  2  1  0  0  0  0
  4  5  1  0  0  0  0
  4 12  1  0  0  0  0
  5 13  1  0  0  0  0
  6  7  1  0  0  0  0
  6  5  2  0  0  0  0
  7  8  2  0  0  0  0
  9  7  2  0  0  0  0
 10  6  1  0  0  0  0
 11 10  2  0  0  0  0
 11  1  1  0  0  0  0
 14 10  1  0  0  0  0
 15 11  1  0  0  0  0
 16 20  1  0  0  0  0
 17  3  1  0  0  0  0
 18 16  1  0  0  0  0
 19 16  1  0  0  0  0
M  RAD  2   2   2   3   2
M  END
