Coordinates from ORCA-job 4-NO2PhN2+~BF4-_B3LYPG-6-31G_dp-NX-Scan-d89-09-n800
 OpenBabel11261920323D

 20 19  0  0  0  0  0  0  0  0999 V2000
   -1.9369   -0.5754   -0.0149 C   0  0  0  0  0  0  0  0  0  0  0  0
   -2.7376   -1.6676   -0.2341 N   0  0  0  0  0  0  0  0  0  0  0  0
   -3.3011   -2.6210   -0.3756 N   0  0  0  0  0  0  0  0  0  0  0  0
   -2.2417    0.2682    1.0661 C   0  0  0  0  0  0  0  0  0  0  0  0
   -1.3608    1.3138    1.3186 C   0  0  0  0  0  0  0  0  0  0  0  0
   -0.2608    1.4775    0.4898 C   0  0  0  0  0  0  0  0  0  0  0  0
    0.6714    2.5960    0.7726 N   0  0  0  0  0  0  0  0  0  0  0  0
    0.4320    3.2884    1.7551 O   0  0  0  0  0  0  0  0  0  0  0  0
    1.6223    2.7345    0.0093 O   0  0  0  0  0  0  0  0  0  0  0  0
    0.0164    0.6559   -0.6086 C   0  0  0  0  0  0  0  0  0  0  0  0
   -0.8347   -0.3947   -0.8791 C   0  0  0  0  0  0  0  0  0  0  0  0
   -3.1374    0.1254    1.6524 H   0  0  0  0  0  0  0  0  0  0  0  0
   -1.5461    2.0154    2.1205 H   0  0  0  0  0  0  0  0  0  0  0  0
    0.8793    0.8620   -1.2279 H   0  0  0  0  0  0  0  0  0  0  0  0
   -0.6773   -1.0567   -1.7219 H   0  0  0  0  0  0  0  0  0  0  0  0
   -3.9183    1.8142   -0.9845 B   0  0  0  0  0  0  0  0  0  0  0  0
   -4.7421    2.7144   -1.6247 F   0  0  0  0  0  0  0  0  0  0  0  0
   -4.2547    0.4534   -1.2660 F   0  0  0  0  0  0  0  0  0  0  0  0
   -2.5668    1.9957   -1.3551 F   0  0  0  0  0  0  0  0  0  0  0  0
   -4.0116    1.9666    0.4340 F   0  0  0  0  0  0  0  0  0  0  0  0
  1  4  2  0  0  0  0
  2  1  1  0  0  0  0
  3  2  1  0  0  0  0
  4  5  1  0  0  0  0
  4 12  1  0  0  0  0
  5 13  1  0  0  0  0
  6  7  1  0  0  0  0
  6  5  2  0  0  0  0
  7  8  2  0  0  0  0
  9  7  2  0  0  0  0
 10  6  1  0  0  0  0
 11 10  2  0  0  0  0
 11  1  1  0  0  0  0
 14 10  1  0  0  0  0
 15 11  1  0  0  0  0
 16 20  1  0  0  0  0
 17 16  1  0  0  0  0
 18 16  1  0  0  0  0
 19 16  1  0  0  0  0
M  RAD  2   2   2   3   3
M  END
