Coordinates from ORCA-job 4-NO2PhN2+~BF4-_B3LYPG-6-31G_dp-NX-Scan-d89-09-n800
 OpenBabel11261920323D

 20 19  0  0  0  0  0  0  0  0999 V2000
   -2.1298   -0.0126    0.3419 C   0  0  0  0  0  0  0  0  0  0  0  0
   -3.2162   -0.8613    0.1611 N   0  0  0  0  0  0  0  0  0  0  0  0
   -4.0252   -1.6205    0.1400 N   0  0  0  0  0  0  0  0  0  0  0  0
   -1.8206    0.3257    1.6719 C   0  0  0  0  0  0  0  0  0  0  0  0
   -0.7059    1.1182    1.8872 C   0  0  0  0  0  0  0  0  0  0  0  0
    0.0463    1.5264    0.7822 C   0  0  0  0  0  0  0  0  0  0  0  0
    1.2484    2.3628    1.0279 N   0  0  0  0  0  0  0  0  0  0  0  0
    1.4933    2.6555    2.1943 O   0  0  0  0  0  0  0  0  0  0  0  0
    1.9088    2.6922    0.0500 O   0  0  0  0  0  0  0  0  0  0  0  0
   -0.2726    1.1912   -0.5288 C   0  0  0  0  0  0  0  0  0  0  0  0
   -1.3942    0.4044   -0.7747 C   0  0  0  0  0  0  0  0  0  0  0  0
   -2.4400   -0.0169    2.4922 H   0  0  0  0  0  0  0  0  0  0  0  0
   -0.4081    1.4229    2.8819 H   0  0  0  0  0  0  0  0  0  0  0  0
    0.3400    1.5563   -1.3429 H   0  0  0  0  0  0  0  0  0  0  0  0
   -1.7346    0.1395   -1.7668 H   0  0  0  0  0  0  0  0  0  0  0  0
   -4.1885    1.0477   -2.0061 B   0  0  0  0  0  0  0  0  0  0  0  0
   -5.2520    1.3304   -2.8176 F   0  0  0  0  0  0  0  0  0  0  0  0
   -3.6773   -0.2811   -2.2652 F   0  0  0  0  0  0  0  0  0  0  0  0
   -3.1195    1.9406   -2.1762 F   0  0  0  0  0  0  0  0  0  0  0  0
   -4.5587    1.0447   -0.6265 F   0  0  0  0  0  0  0  0  0  0  0  0
  1  4  2  0  0  0  0
  2  1  1  0  0  0  0
  3  2  1  0  0  0  0
  4  5  1  0  0  0  0
  4 12  1  0  0  0  0
  5 13  1  0  0  0  0
  6  7  1  0  0  0  0
  6  5  2  0  0  0  0
  7  8  2  0  0  0  0
  9  7  2  0  0  0  0
 10  6  1  0  0  0  0
 11 10  2  0  0  0  0
 11  1  1  0  0  0  0
 14 10  1  0  0  0  0
 15 11  1  0  0  0  0
 16 20  1  0  0  0  0
 17 16  1  0  0  0  0
 18 16  1  0  0  0  0
 19 16  1  0  0  0  0
M  RAD  2   2   2   3   3
M  END
