Coordinates from ORCA-job 4-NO2PhN2+~BF4-_B3LYPG-6-31G_dp-NX-Scan-d89-09-n800
 OpenBabel11261920313D

 20 19  0  0  0  0  0  0  0  0999 V2000
   -1.7016   -1.2751    0.1203 C   0  0  0  0  0  0  0  0  0  0  0  0
   -2.1324   -2.5678    0.1834 N   0  0  0  0  0  0  0  0  0  0  0  0
   -2.4485   -3.6415    0.2507 N   0  0  0  0  0  0  0  0  0  0  0  0
   -2.4086   -0.2761    0.8354 C   0  0  0  0  0  0  0  0  0  0  0  0
   -1.8850    1.0028    0.8467 C   0  0  0  0  0  0  0  0  0  0  0  0
   -0.7213    1.2510    0.1137 C   0  0  0  0  0  0  0  0  0  0  0  0
   -0.0660    2.5775    0.2275 N   0  0  0  0  0  0  0  0  0  0  0  0
   -0.3160    3.2167    1.2364 O   0  0  0  0  0  0  0  0  0  0  0  0
    0.7252    2.8754   -0.6591 O   0  0  0  0  0  0  0  0  0  0  0  0
   -0.0572    0.2785   -0.6441 C   0  0  0  0  0  0  0  0  0  0  0  0
   -0.5354   -1.0158   -0.6421 C   0  0  0  0  0  0  0  0  0  0  0  0
   -3.3342   -0.5082    1.3485 H   0  0  0  0  0  0  0  0  0  0  0  0
   -2.4011    1.8357    1.3238 H   0  0  0  0  0  0  0  0  0  0  0  0
    0.8228    0.5592   -1.2093 H   0  0  0  0  0  0  0  0  0  0  0  0
   -0.0396   -1.8116   -1.1855 H   0  0  0  0  0  0  0  0  0  0  0  0
   -3.5130    3.1143   -0.5782 B   0  0  0  0  0  0  0  0  0  0  0  0
   -4.1970    4.1169   -1.2264 F   0  0  0  0  0  0  0  0  0  0  0  0
   -4.1573    1.8617   -0.6642 F   0  0  0  0  0  0  0  0  0  0  0  0
   -2.2034    2.9524   -1.1503 F   0  0  0  0  0  0  0  0  0  0  0  0
   -3.3370    3.4201    0.7988 F   0  0  0  0  0  0  0  0  0  0  0  0
  1  2  1  0  0  0  0
  1  4  2  0  0  0  0
  2  3  1  0  0  0  0
  4  5  1  0  0  0  0
  4 12  1  0  0  0  0
  5 13  1  0  0  0  0
  6  7  1  0  0  0  0
  6  5  2  0  0  0  0
  7  8  2  0  0  0  0
  9  7  2  0  0  0  0
 10 11  2  0  0  0  0
 10  6  1  0  0  0  0
 11  1  1  0  0  0  0
 14 10  1  0  0  0  0
 15 11  1  0  0  0  0
 16 20  1  0  0  0  0
 17 16  1  0  0  0  0
 18 16  1  0  0  0  0
 19 16  1  0  0  0  0
M  RAD  2   2   2   3   3
M  END
