Coordinates from ORCA-job 4-NO2PhN2+~BF4-_B3LYPG-6-31G_dp-NX-Scan-d89-09-n800
 OpenBabel11261920323D

 20 19  0  0  0  0  0  0  0  0999 V2000
   -2.1930    0.2273    0.4620 C   0  0  0  0  0  0  0  0  0  0  0  0
   -3.3814   -0.4789    0.2966 N   0  0  0  0  0  0  0  0  0  0  0  0
   -4.3024   -1.0925    0.2328 N   0  0  0  0  0  0  0  0  0  0  0  0
   -1.6739    0.2372    1.7694 C   0  0  0  0  0  0  0  0  0  0  0  0
   -0.4804    0.9070    1.9881 C   0  0  0  0  0  0  0  0  0  0  0  0
    0.1379    1.5296    0.9031 C   0  0  0  0  0  0  0  0  0  0  0  0
    1.4179    2.2435    1.1446 N   0  0  0  0  0  0  0  0  0  0  0  0
    1.8487    2.2374    2.2938 O   0  0  0  0  0  0  0  0  0  0  0  0
    1.9471    2.7823    0.1803 O   0  0  0  0  0  0  0  0  0  0  0  0
   -0.3852    1.5149   -0.3867 C   0  0  0  0  0  0  0  0  0  0  0  0
   -1.5829    0.8504   -0.6371 C   0  0  0  0  0  0  0  0  0  0  0  0
   -2.1964   -0.2607    2.5780 H   0  0  0  0  0  0  0  0  0  0  0  0
   -0.0257    0.9558    2.9690 H   0  0  0  0  0  0  0  0  0  0  0  0
    0.1393    2.0244   -1.1852 H   0  0  0  0  0  0  0  0  0  0  0  0
   -2.0309    0.8338   -1.6268 H   0  0  0  0  0  0  0  0  0  0  0  0
   -4.2633    0.7056   -2.3681 B   0  0  0  0  0  0  0  0  0  0  0  0
   -5.4683    0.5861   -2.9988 F   0  0  0  0  0  0  0  0  0  0  0  0
   -3.6653   -0.5876   -2.1706 F   0  0  0  0  0  0  0  0  0  0  0  0
   -3.3209    1.4825   -3.0577 F   0  0  0  0  0  0  0  0  0  0  0  0
   -4.4272    1.2681   -1.0606 F   0  0  0  0  0  0  0  0  0  0  0  0
  1  4  2  0  0  0  0
  2  1  1  0  0  0  0
  3  2  1  0  0  0  0
  4  5  1  0  0  0  0
  4 12  1  0  0  0  0
  5 13  1  0  0  0  0
  6  7  1  0  0  0  0
  6  5  2  0  0  0  0
  7  8  2  0  0  0  0
  9  7  2  0  0  0  0
 10  6  1  0  0  0  0
 11 10  2  0  0  0  0
 11  1  1  0  0  0  0
 14 10  1  0  0  0  0
 15 11  1  0  0  0  0
 16 18  1  0  0  0  0
 16 20  1  0  0  0  0
 17 16  1  0  0  0  0
 19 16  1  0  0  0  0
M  RAD  2   2   2   3   3
M  END
