Coordinates from ORCA-job 4-NO2PhN2+~BF4-_B3LYPG-6-31G_dp-NX-Scan-d89-09-n800
 OpenBabel11261920313D

 20 19  0  0  0  0  0  0  0  0999 V2000
   -1.5941   -1.3845    0.1794 C   0  0  0  0  0  0  0  0  0  0  0  0
   -1.9691   -2.6920    0.2941 N   0  0  0  0  0  0  0  0  0  0  0  0
   -2.2466   -3.7734    0.3980 N   0  0  0  0  0  0  0  0  0  0  0  0
   -2.3718   -0.3805    0.8146 C   0  0  0  0  0  0  0  0  0  0  0  0
   -1.9245    0.9265    0.7526 C   0  0  0  0  0  0  0  0  0  0  0  0
   -0.7387    1.1846    0.0541 C   0  0  0  0  0  0  0  0  0  0  0  0
   -0.1456    2.5427    0.1096 N   0  0  0  0  0  0  0  0  0  0  0  0
   -0.3706    3.1812    1.1245 O   0  0  0  0  0  0  0  0  0  0  0  0
    0.5853    2.8578   -0.8206 O   0  0  0  0  0  0  0  0  0  0  0  0
   -0.0007    0.2047   -0.6187 C   0  0  0  0  0  0  0  0  0  0  0  0
   -0.4166   -1.1114   -0.5568 C   0  0  0  0  0  0  0  0  0  0  0  0
   -3.2938   -0.6357    1.3246 H   0  0  0  0  0  0  0  0  0  0  0  0
   -2.5015    1.7656    1.1583 H   0  0  0  0  0  0  0  0  0  0  0  0
    0.8861    0.4942   -1.1691 H   0  0  0  0  0  0  0  0  0  0  0  0
    0.1362   -1.9101   -1.0374 H   0  0  0  0  0  0  0  0  0  0  0  0
   -3.6192    3.3645   -0.5537 B   0  0  0  0  0  0  0  0  0  0  0  0
   -3.8024    4.6883   -0.8925 F   0  0  0  0  0  0  0  0  0  0  0  0
   -4.6276    2.5307   -1.0225 F   0  0  0  0  0  0  0  0  0  0  0  0
   -2.3618    2.8893   -1.0846 F   0  0  0  0  0  0  0  0  0  0  0  0
   -3.5295    3.2235    0.8722 F   0  0  0  0  0  0  0  0  0  0  0  0
  1  2  1  0  0  0  0
  1  4  2  0  0  0  0
  2  3  1  0  0  0  0
  4 12  1  0  0  0  0
  5  4  1  0  0  0  0
  5 13  1  0  0  0  0
  6  7  1  0  0  0  0
  6  5  2  0  0  0  0
  7  8  2  0  0  0  0
  9  7  2  0  0  0  0
 10 11  2  0  0  0  0
 10  6  1  0  0  0  0
 11  1  1  0  0  0  0
 14 10  1  0  0  0  0
 15 11  1  0  0  0  0
 16 20  1  0  0  0  0
 17 16  1  0  0  0  0
 18 16  1  0  0  0  0
 19 16  1  0  0  0  0
M  RAD  2   2   2   3   3
M  END
