Coordinates from ORCA-job 4-NO2PhN2+~BF4-_B3LYPG-6-31G_dp-NX-Scan-d89-09-n800
 OpenBabel11261920323D

 20 19  0  0  0  0  0  0  0  0999 V2000
   -1.9109   -0.9154    0.1330 C   0  0  0  0  0  0  0  0  0  0  0  0
   -2.6074   -2.0744    0.0039 N   0  0  0  0  0  0  0  0  0  0  0  0
   -3.1602   -3.0442   -0.0929 N   0  0  0  0  0  0  0  0  0  0  0  0
   -2.2384   -0.0573    1.2043 C   0  0  0  0  0  0  0  0  0  0  0  0
   -1.5294    1.1222    1.3186 C   0  0  0  0  0  0  0  0  0  0  0  0
   -0.5733    1.4209    0.3496 C   0  0  0  0  0  0  0  0  0  0  0  0
    0.1921    2.6848    0.4876 N   0  0  0  0  0  0  0  0  0  0  0  0
   -0.0373    3.3656    1.4785 O   0  0  0  0  0  0  0  0  0  0  0  0
    1.0203    2.9275   -0.3814 O   0  0  0  0  0  0  0  0  0  0  0  0
   -0.2432    0.5671   -0.7085 C   0  0  0  0  0  0  0  0  0  0  0  0
   -0.9246   -0.6218   -0.8392 C   0  0  0  0  0  0  0  0  0  0  0  0
   -3.0390   -0.3046    1.8900 H   0  0  0  0  0  0  0  0  0  0  0  0
   -1.7546    1.8456    2.0889 H   0  0  0  0  0  0  0  0  0  0  0  0
    0.5086    0.8763   -1.4227 H   0  0  0  0  0  0  0  0  0  0  0  0
   -0.7324   -1.3068   -1.6561 H   0  0  0  0  0  0  0  0  0  0  0  0
   -3.4044    2.3108   -0.9192 B   0  0  0  0  0  0  0  0  0  0  0  0
   -4.2646    3.0776   -1.6678 F   0  0  0  0  0  0  0  0  0  0  0  0
   -3.3225    0.9786   -1.4106 F   0  0  0  0  0  0  0  0  0  0  0  0
   -2.0841    2.8663   -0.9670 F   0  0  0  0  0  0  0  0  0  0  0  0
   -3.8011    2.2472    0.4370 F   0  0  0  0  0  0  0  0  0  0  0  0
  1  4  2  0  0  0  0
  2  1  1  0  0  0  0
  3  2  1  0  0  0  0
  4  5  1  0  0  0  0
  4 12  1  0  0  0  0
  5 13  1  0  0  0  0
  6  7  1  0  0  0  0
  6  5  2  0  0  0  0
  7  8  2  0  0  0  0
  9  7  2  0  0  0  0
 10  6  1  0  0  0  0
 11 10  2  0  0  0  0
 11  1  1  0  0  0  0
 14 10  1  0  0  0  0
 15 11  1  0  0  0  0
 16 20  1  0  0  0  0
 17 16  1  0  0  0  0
 18 16  1  0  0  0  0
 19 16  1  0  0  0  0
M  RAD  2   2   2   3   3
M  END
