Coordinates from ORCA-job 4-NO2PhN2+~BF4-_B3LYPG-6-31G_dp-NX-Scan-d89-09-n800
 OpenBabel11261920323D

 20 19  0  0  0  0  0  0  0  0999 V2000
   -2.1925    0.3016    0.4536 C   0  0  0  0  0  0  0  0  0  0  0  0
   -3.4118   -0.3247    0.2169 N   0  0  0  0  0  0  0  0  0  0  0  0
   -4.3850   -0.8212   -0.0385 N   0  0  0  0  0  0  0  0  0  0  0  0
   -1.7681    0.3619    1.7916 C   0  0  0  0  0  0  0  0  0  0  0  0
   -0.5474    0.9620    2.0620 C   0  0  0  0  0  0  0  0  0  0  0  0
    0.1981    1.4588    0.9923 C   0  0  0  0  0  0  0  0  0  0  0  0
    1.5076    2.0925    1.2875 N   0  0  0  0  0  0  0  0  0  0  0  0
    1.8513    2.1390    2.4648 O   0  0  0  0  0  0  0  0  0  0  0  0
    2.1489    2.5206    0.3348 O   0  0  0  0  0  0  0  0  0  0  0  0
   -0.2232    1.3867   -0.3329 C   0  0  0  0  0  0  0  0  0  0  0  0
   -1.4508    0.8003   -0.6277 C   0  0  0  0  0  0  0  0  0  0  0  0
   -2.3850   -0.0444    2.5846 H   0  0  0  0  0  0  0  0  0  0  0  0
   -0.1640    1.0477    3.0705 H   0  0  0  0  0  0  0  0  0  0  0  0
    0.4035    1.7928   -1.1166 H   0  0  0  0  0  0  0  0  0  0  0  0
   -1.8404    0.7215   -1.6400 H   0  0  0  0  0  0  0  0  0  0  0  0
   -4.3357    0.7527   -2.4770 B   0  0  0  0  0  0  0  0  0  0  0  0
   -5.0170   -0.3810   -1.8532 F   0  0  0  0  0  0  0  0  0  0  0  0
   -3.1218    0.2547   -2.9939 F   0  0  0  0  0  0  0  0  0  0  0  0
   -5.1347    1.3039   -3.4303 F   0  0  0  0  0  0  0  0  0  0  0  0
   -4.0385    1.6407   -1.4227 F   0  0  0  0  0  0  0  0  0  0  0  0
  1  4  2  0  0  0  0
  2  1  1  0  0  0  0
  3  2  1  0  0  0  0
  4  5  1  0  0  0  0
  4 12  1  0  0  0  0
  5 13  1  0  0  0  0
  6  7  1  0  0  0  0
  6  5  2  0  0  0  0
  7  8  2  0  0  0  0
  9  7  2  0  0  0  0
 10  6  1  0  0  0  0
 11 10  2  0  0  0  0
 11  1  1  0  0  0  0
 14 10  1  0  0  0  0
 15 11  1  0  0  0  0
 16 17  1  0  0  0  0
 16 20  1  0  0  0  0
 18 16  1  0  0  0  0
 19 16  1  0  0  0  0
M  RAD  2   2   2   3   3
M  END
