Coordinates from ORCA-job 4-NO2PhN2+~BF4-_B3LYPG-6-31G_dp-NX-Scan-d89-09-n800
 OpenBabel11261920323D

 20 19  0  0  0  0  0  0  0  0999 V2000
   -2.2638    0.2788    0.5630 C   0  0  0  0  0  0  0  0  0  0  0  0
   -3.5100   -0.3227    0.3927 N   0  0  0  0  0  0  0  0  0  0  0  0
   -4.4171   -0.7403   -0.1377 N   0  0  0  0  0  0  0  0  0  0  0  0
   -1.8034    0.4136    1.8815 C   0  0  0  0  0  0  0  0  0  0  0  0
   -0.5603    0.9934    2.0891 C   0  0  0  0  0  0  0  0  0  0  0  0
    0.1683    1.4090    0.9747 C   0  0  0  0  0  0  0  0  0  0  0  0
    1.4996    2.0255    1.1984 N   0  0  0  0  0  0  0  0  0  0  0  0
    1.8745    2.1355    2.3621 O   0  0  0  0  0  0  0  0  0  0  0  0
    2.1273    2.3772    0.2062 O   0  0  0  0  0  0  0  0  0  0  0  0
   -0.2922    1.2744   -0.3330 C   0  0  0  0  0  0  0  0  0  0  0  0
   -1.5381    0.6981   -0.5632 C   0  0  0  0  0  0  0  0  0  0  0  0
   -2.4126    0.0724    2.7104 H   0  0  0  0  0  0  0  0  0  0  0  0
   -0.1492    1.1280    3.0811 H   0  0  0  0  0  0  0  0  0  0  0  0
    0.3186    1.6244   -1.1556 H   0  0  0  0  0  0  0  0  0  0  0  0
   -1.9347    0.6004   -1.5699 H   0  0  0  0  0  0  0  0  0  0  0  0
   -4.2282    0.8686   -2.5165 B   0  0  0  0  0  0  0  0  0  0  0  0
   -4.2042   -0.5526   -1.9974 F   0  0  0  0  0  0  0  0  0  0  0  0
   -3.0067    1.0142   -3.1739 F   0  0  0  0  0  0  0  0  0  0  0  0
   -5.3125    1.0092   -3.3199 F   0  0  0  0  0  0  0  0  0  0  0  0
   -4.2619    1.6589   -1.3661 F   0  0  0  0  0  0  0  0  0  0  0  0
  1  4  2  0  0  0  0
  2  1  1  0  0  0  0
  3  2  1  0  0  0  0
  4  5  1  0  0  0  0
  4 12  1  0  0  0  0
  5 13  1  0  0  0  0
  6  7  1  0  0  0  0
  6  5  2  0  0  0  0
  7  8  2  0  0  0  0
  9  7  2  0  0  0  0
 10  6  1  0  0  0  0
 11 10  2  0  0  0  0
 11  1  1  0  0  0  0
 14 10  1  0  0  0  0
 15 11  1  0  0  0  0
 16 17  1  0  0  0  0
 16 20  1  0  0  0  0
 18 16  1  0  0  0  0
 19 16  1  0  0  0  0
M  RAD  2   2   2   3   3
M  END
