Coordinates from ORCA-job 4-NO2PhN2+~BF4-_B3LYPG-6-31G_dp-NX-Scan-d89-09-n800
 OpenBabel11261920323D

 20 19  0  0  0  0  0  0  0  0999 V2000
   -2.1314    0.0052    0.3485 C   0  0  0  0  0  0  0  0  0  0  0  0
   -3.2267   -0.8323    0.1649 N   0  0  0  0  0  0  0  0  0  0  0  0
   -4.0470   -1.5786    0.1334 N   0  0  0  0  0  0  0  0  0  0  0  0
   -1.8099    0.3231    1.6803 C   0  0  0  0  0  0  0  0  0  0  0  0
   -0.6886    1.1064    1.8981 C   0  0  0  0  0  0  0  0  0  0  0  0
    0.0571    1.5258    0.7935 C   0  0  0  0  0  0  0  0  0  0  0  0
    1.2655    2.3525    1.0411 N   0  0  0  0  0  0  0  0  0  0  0  0
    1.5209    2.6282    2.2094 O   0  0  0  0  0  0  0  0  0  0  0  0
    1.9198    2.6920    0.0625 O   0  0  0  0  0  0  0  0  0  0  0  0
   -0.2739    1.2100   -0.5198 C   0  0  0  0  0  0  0  0  0  0  0  0
   -1.4010    0.4320   -0.7679 C   0  0  0  0  0  0  0  0  0  0  0  0
   -2.4246   -0.0273    2.5008 H   0  0  0  0  0  0  0  0  0  0  0  0
   -0.3815    1.3953    2.8947 H   0  0  0  0  0  0  0  0  0  0  0  0
    0.3348    1.5824   -1.3335 H   0  0  0  0  0  0  0  0  0  0  0  0
   -1.7500    0.1823   -1.7611 H   0  0  0  0  0  0  0  0  0  0  0  0
   -4.2035    1.0252   -2.0323 B   0  0  0  0  0  0  0  0  0  0  0  0
   -5.2883    1.2545   -2.8309 F   0  0  0  0  0  0  0  0  0  0  0  0
   -3.6689   -0.3010   -2.2610 F   0  0  0  0  0  0  0  0  0  0  0  0
   -3.1565    1.9322   -2.2475 F   0  0  0  0  0  0  0  0  0  0  0  0
   -4.5527    1.0582   -0.6473 F   0  0  0  0  0  0  0  0  0  0  0  0
  1  4  2  0  0  0  0
  2  1  1  0  0  0  0
  3  2  1  0  0  0  0
  4  5  1  0  0  0  0
  4 12  1  0  0  0  0
  5 13  1  0  0  0  0
  6  7  1  0  0  0  0
  6  5  2  0  0  0  0
  7  8  2  0  0  0  0
  9  7  2  0  0  0  0
 10  6  1  0  0  0  0
 11 10  2  0  0  0  0
 11  1  1  0  0  0  0
 14 10  1  0  0  0  0
 15 11  1  0  0  0  0
 16 20  1  0  0  0  0
 17 16  1  0  0  0  0
 18 16  1  0  0  0  0
 19 16  1  0  0  0  0
M  RAD  2   2   2   3   3
M  END
