Coordinates from ORCA-job 4-NO2PhN2+~BF4-_B3LYPG-6-31G_dp-NX-Scan-d89-09-n800
 OpenBabel11261920323D

 20 19  0  0  0  0  0  0  0  0999 V2000
   -2.1329    0.2140    0.3561 C   0  0  0  0  0  0  0  0  0  0  0  0
   -3.3123   -0.4863    0.0987 N   0  0  0  0  0  0  0  0  0  0  0  0
   -4.2090   -1.1395    0.0506 N   0  0  0  0  0  0  0  0  0  0  0  0
   -1.7728    0.3306    1.7087 C   0  0  0  0  0  0  0  0  0  0  0  0
   -0.5897    0.9931    2.0022 C   0  0  0  0  0  0  0  0  0  0  0  0
    0.1721    1.4950    0.9465 C   0  0  0  0  0  0  0  0  0  0  0  0
    1.4394    2.1970    1.2722 N   0  0  0  0  0  0  0  0  0  0  0  0
    1.7356    2.2880    2.4596 O   0  0  0  0  0  0  0  0  0  0  0  0
    2.0948    2.6297    0.3317 O   0  0  0  0  0  0  0  0  0  0  0  0
   -0.1949    1.3691   -0.3914 C   0  0  0  0  0  0  0  0  0  0  0  0
   -1.3810    0.7179   -0.7123 C   0  0  0  0  0  0  0  0  0  0  0  0
   -2.4021   -0.0754    2.4918 H   0  0  0  0  0  0  0  0  0  0  0  0
   -0.2501    1.1256    3.0213 H   0  0  0  0  0  0  0  0  0  0  0  0
    0.4396    1.7866   -1.1627 H   0  0  0  0  0  0  0  0  0  0  0  0
   -1.7517    0.5789   -1.7236 H   0  0  0  0  0  0  0  0  0  0  0  0
   -4.3927    0.8083   -2.3216 B   0  0  0  0  0  0  0  0  0  0  0  0
   -5.5743    0.1221   -2.0598 F   0  0  0  0  0  0  0  0  0  0  0  0
   -3.3426   -0.1672   -2.5086 F   0  0  0  0  0  0  0  0  0  0  0  0
   -4.4650    1.6499   -3.3983 F   0  0  0  0  0  0  0  0  0  0  0  0
   -4.0167    1.5286   -1.1351 F   0  0  0  0  0  0  0  0  0  0  0  0
  1  4  2  0  0  0  0
  2  1  1  0  0  0  0
  3  2  1  0  0  0  0
  4  5  1  0  0  0  0
  4 12  1  0  0  0  0
  5 13  1  0  0  0  0
  6  7  1  0  0  0  0
  6  5  2  0  0  0  0
  7  8  2  0  0  0  0
  9  7  2  0  0  0  0
 10  6  1  0  0  0  0
 11 10  2  0  0  0  0
 11  1  1  0  0  0  0
 14 10  1  0  0  0  0
 15 11  1  0  0  0  0
 16 17  1  0  0  0  0
 16 20  1  0  0  0  0
 18 16  1  0  0  0  0
 19 16  1  0  0  0  0
M  RAD  2   2   2   3   3
M  END
