Coordinates from ORCA-job 4-NO2PhN2+~BF4-_B3LYPG-6-31G_dp-NX-Scan-d89-09-n800
 OpenBabel11261920313D

 20 19  0  0  0  0  0  0  0  0999 V2000
   -1.7261   -1.2331    0.1149 C   0  0  0  0  0  0  0  0  0  0  0  0
   -2.1893   -2.5147    0.1473 N   0  0  0  0  0  0  0  0  0  0  0  0
   -2.5364   -3.5801    0.1899 N   0  0  0  0  0  0  0  0  0  0  0  0
   -2.3915   -0.2439    0.8802 C   0  0  0  0  0  0  0  0  0  0  0  0
   -1.8412    1.0228    0.9142 C   0  0  0  0  0  0  0  0  0  0  0  0
   -0.7023    1.2747    0.1465 C   0  0  0  0  0  0  0  0  0  0  0  0
   -0.0344    2.5950    0.2646 N   0  0  0  0  0  0  0  0  0  0  0  0
   -0.2930    3.2451    1.2648 O   0  0  0  0  0  0  0  0  0  0  0  0
    0.7718    2.8818   -0.6123 O   0  0  0  0  0  0  0  0  0  0  0  0
   -0.0750    0.3114   -0.6537 C   0  0  0  0  0  0  0  0  0  0  0  0
   -0.5768   -0.9732   -0.6732 C   0  0  0  0  0  0  0  0  0  0  0  0
   -3.3082   -0.4727    1.4100 H   0  0  0  0  0  0  0  0  0  0  0  0
   -2.3350    1.8499    1.4190 H   0  0  0  0  0  0  0  0  0  0  0  0
    0.7919    0.5933   -1.2379 H   0  0  0  0  0  0  0  0  0  0  0  0
   -0.1131   -1.7619   -1.2540 H   0  0  0  0  0  0  0  0  0  0  0  0
   -3.5011    3.0146   -0.6115 B   0  0  0  0  0  0  0  0  0  0  0  0
   -4.2137    3.9597   -1.3115 F   0  0  0  0  0  0  0  0  0  0  0  0
   -4.0918    1.7319   -0.6675 F   0  0  0  0  0  0  0  0  0  0  0  0
   -2.1748    2.8884   -1.1570 F   0  0  0  0  0  0  0  0  0  0  0  0
   -3.3664    3.3772    0.7531 F   0  0  0  0  0  0  0  0  0  0  0  0
  1  2  1  0  0  0  0
  1  4  2  0  0  0  0
  2  3  1  0  0  0  0
  4  5  1  0  0  0  0
  4 12  1  0  0  0  0
  5 13  1  0  0  0  0
  6  7  1  0  0  0  0
  6  5  2  0  0  0  0
  7  8  2  0  0  0  0
  9  7  2  0  0  0  0
 10  6  1  0  0  0  0
 11 10  2  0  0  0  0
 11  1  1  0  0  0  0
 14 10  1  0  0  0  0
 15 11  1  0  0  0  0
 16 20  1  0  0  0  0
 17 16  1  0  0  0  0
 18 16  1  0  0  0  0
 19 16  1  0  0  0  0
M  RAD  2   2   2   3   3
M  END
