Coordinates from ORCA-job 4-NO2PhN2+~BF4-_B3LYPG-6-31G_dp-NX-Scan-d89-09-n800
 OpenBabel11261920323D

 20 20  0  0  0  0  0  0  0  0999 V2000
   -2.0651    1.1139    0.0125 C   0  0  0  0  0  0  0  0  0  0  0  0
   -3.3901    1.1440   -0.5258 N   0  0  0  0  0  0  0  0  0  0  0  0
   -3.6514    0.3116   -1.4627 N   0  0  0  0  0  0  0  0  0  0  0  0
   -1.9658    1.0981    1.4123 C   0  0  0  0  0  0  0  0  0  0  0  0
   -0.7194    1.1279    2.0254 C   0  0  0  0  0  0  0  0  0  0  0  0
    0.4196    1.1992    1.2248 C   0  0  0  0  0  0  0  0  0  0  0  0
    1.7442    1.2377    1.8687 N   0  0  0  0  0  0  0  0  0  0  0  0
    1.7779    1.2022    3.0970 O   0  0  0  0  0  0  0  0  0  0  0  0
    2.7290    1.3006    1.1350 O   0  0  0  0  0  0  0  0  0  0  0  0
    0.3469    1.2474   -0.1650 C   0  0  0  0  0  0  0  0  0  0  0  0
   -0.9030    1.2002   -0.7743 C   0  0  0  0  0  0  0  0  0  0  0  0
   -2.8759    1.0629    2.0011 H   0  0  0  0  0  0  0  0  0  0  0  0
   -0.6134    1.1068    3.1031 H   0  0  0  0  0  0  0  0  0  0  0  0
    1.2589    1.3215   -0.7438 H   0  0  0  0  0  0  0  0  0  0  0  0
   -0.9668    1.2684   -1.8566 H   0  0  0  0  0  0  0  0  0  0  0  0
   -5.3373    0.3490   -2.2144 B   0  0  0  0  0  0  0  0  0  0  0  0
   -3.0423   -0.3078   -1.7948 F   0  0  0  0  0  0  0  0  0  0  0  0
   -5.2592    1.4241   -3.0319 F   0  0  0  0  0  0  0  0  0  0  0  0
   -5.2243   -0.8692   -2.8244 F   0  0  0  0  0  0  0  0  0  0  0  0
   -6.1688    0.4276   -1.1605 F   0  0  0  0  0  0  0  0  0  0  0  0
  1  4  2  0  0  0  0
  2  1  1  0  0  0  0
  3  2  1  0  0  0  0
  4 12  1  0  0  0  0
  4  5  1  0  0  0  0
  5 13  1  0  0  0  0
  6  7  1  0  0  0  0
  6  5  2  0  0  0  0
  7  8  2  0  0  0  0
  9  7  2  0  0  0  0
 10  6  1  0  0  0  0
 11 10  2  0  0  0  0
 11  1  1  0  0  0  0
 14 10  1  0  0  0  0
 15 11  1  0  0  0  0
 16  3  1  0  0  0  0
 16 20  1  0  0  0  0
 17  3  1  0  0  0  0
 18 16  1  0  0  0  0
 19 16  1  0  0  0  0
M  RAD  1   2   2
M  END
