Coordinates from ORCA-job 4-NO2PhN2+~BF4-_B3LYPG-6-31G_dp-NX-Scan-d89-09-n800
 OpenBabel11261920323D

 20 19  0  0  0  0  0  0  0  0999 V2000
   -2.1367    0.2299    0.3596 C   0  0  0  0  0  0  0  0  0  0  0  0
   -3.3213   -0.4591    0.0978 N   0  0  0  0  0  0  0  0  0  0  0  0
   -4.2298   -1.0953    0.0348 N   0  0  0  0  0  0  0  0  0  0  0  0
   -1.7735    0.3359    1.7124 C   0  0  0  0  0  0  0  0  0  0  0  0
   -0.5858    0.9887    2.0082 C   0  0  0  0  0  0  0  0  0  0  0  0
    0.1783    1.4911    0.9544 C   0  0  0  0  0  0  0  0  0  0  0  0
    1.4512    2.1820    1.2822 N   0  0  0  0  0  0  0  0  0  0  0  0
    1.7495    2.2647    2.4696 O   0  0  0  0  0  0  0  0  0  0  0  0
    2.1088    2.6146    0.3432 O   0  0  0  0  0  0  0  0  0  0  0  0
   -0.1912    1.3753   -0.3836 C   0  0  0  0  0  0  0  0  0  0  0  0
   -1.3826    0.7345   -0.7070 C   0  0  0  0  0  0  0  0  0  0  0  0
   -2.4044   -0.0708    2.4940 H   0  0  0  0  0  0  0  0  0  0  0  0
   -0.2438    1.1131    3.0277 H   0  0  0  0  0  0  0  0  0  0  0  0
    0.4456    1.7922   -1.1534 H   0  0  0  0  0  0  0  0  0  0  0  0
   -1.7544    0.6050   -1.7193 H   0  0  0  0  0  0  0  0  0  0  0  0
   -4.3950    0.7929   -2.3361 B   0  0  0  0  0  0  0  0  0  0  0  0
   -5.5286    0.0468   -2.0022 F   0  0  0  0  0  0  0  0  0  0  0  0
   -3.3123   -0.1327   -2.5586 F   0  0  0  0  0  0  0  0  0  0  0  0
   -4.5734    1.6077   -3.4189 F   0  0  0  0  0  0  0  0  0  0  0  0
   -4.0071    1.5495   -1.1789 F   0  0  0  0  0  0  0  0  0  0  0  0
  1  4  2  0  0  0  0
  2  1  1  0  0  0  0
  3  2  1  0  0  0  0
  4  5  1  0  0  0  0
  4 12  1  0  0  0  0
  5 13  1  0  0  0  0
  6  7  1  0  0  0  0
  6  5  2  0  0  0  0
  7  8  2  0  0  0  0
  9  7  2  0  0  0  0
 10  6  1  0  0  0  0
 11 10  2  0  0  0  0
 11  1  1  0  0  0  0
 14 10  1  0  0  0  0
 15 11  1  0  0  0  0
 16 17  1  0  0  0  0
 16 20  1  0  0  0  0
 18 16  1  0  0  0  0
 19 16  1  0  0  0  0
M  RAD  2   2   2   3   3
M  END
