Coordinates from ORCA-job 4-NO2PhN2+~BF4-_B3LYPG-6-31G_dp-NX-Scan-d89-09-n800
 OpenBabel11261920323D

 20 19  0  0  0  0  0  0  0  0999 V2000
   -2.0029   -0.3919    0.0729 C   0  0  0  0  0  0  0  0  0  0  0  0
   -2.9396   -1.3789   -0.1583 N   0  0  0  0  0  0  0  0  0  0  0  0
   -3.6111   -2.2613   -0.2567 N   0  0  0  0  0  0  0  0  0  0  0  0
   -2.1503    0.3889    1.2286 C   0  0  0  0  0  0  0  0  0  0  0  0
   -1.1785    1.3496    1.4693 C   0  0  0  0  0  0  0  0  0  0  0  0
   -0.1433    1.5009    0.5519 C   0  0  0  0  0  0  0  0  0  0  0  0
    0.8905    2.5298    0.8231 N   0  0  0  0  0  0  0  0  0  0  0  0
    0.7781    3.1746    1.8601 O   0  0  0  0  0  0  0  0  0  0  0  0
    1.7878    2.6502   -0.0046 O   0  0  0  0  0  0  0  0  0  0  0  0
   -0.0301    0.7480   -0.6170 C   0  0  0  0  0  0  0  0  0  0  0  0
   -0.9854   -0.2183   -0.8785 C   0  0  0  0  0  0  0  0  0  0  0  0
   -3.0095    0.2666    1.8724 H   0  0  0  0  0  0  0  0  0  0  0  0
   -1.2252    1.9913    2.3394 H   0  0  0  0  0  0  0  0  0  0  0  0
    0.7835    0.9420   -1.3034 H   0  0  0  0  0  0  0  0  0  0  0  0
   -0.9743   -0.8039   -1.7888 H   0  0  0  0  0  0  0  0  0  0  0  0
   -4.0022    1.5322   -1.1923 B   0  0  0  0  0  0  0  0  0  0  0  0
   -4.8797    2.3309   -1.8862 F   0  0  0  0  0  0  0  0  0  0  0  0
   -3.7904    0.2674   -1.8550 F   0  0  0  0  0  0  0  0  0  0  0  0
   -2.7407    2.1471   -1.0565 F   0  0  0  0  0  0  0  0  0  0  0  0
   -4.4832    1.2007    0.1055 F   0  0  0  0  0  0  0  0  0  0  0  0
  1  4  2  0  0  0  0
  2  1  1  0  0  0  0
  3  2  1  0  0  0  0
  4  5  1  0  0  0  0
  4 12  1  0  0  0  0
  5 13  1  0  0  0  0
  6  7  1  0  0  0  0
  6  5  2  0  0  0  0
  7  8  2  0  0  0  0
  9  7  2  0  0  0  0
 10  6  1  0  0  0  0
 11 10  2  0  0  0  0
 11  1  1  0  0  0  0
 14 10  1  0  0  0  0
 15 11  1  0  0  0  0
 16 19  1  0  0  0  0
 16 20  1  0  0  0  0
 17 16  1  0  0  0  0
 18 16  1  0  0  0  0
M  RAD  2   2   2   3   3
M  END
