Coordinates from ORCA-job 4-NO2PhN2+~BF4-_B3LYPG-6-31G_dp-NX-Scan-d89-09-n800
 OpenBabel11261920323D

 20 19  0  0  0  0  0  0  0  0999 V2000
   -2.1300    0.1981    0.3560 C   0  0  0  0  0  0  0  0  0  0  0  0
   -3.3013   -0.5186    0.1043 N   0  0  0  0  0  0  0  0  0  0  0  0
   -4.1817   -1.1940    0.0687 N   0  0  0  0  0  0  0  0  0  0  0  0
   -1.7733    0.3302    1.7078 C   0  0  0  0  0  0  0  0  0  0  0  0
   -0.5948    1.0031    1.9966 C   0  0  0  0  0  0  0  0  0  0  0  0
    0.1657    1.4991    0.9375 C   0  0  0  0  0  0  0  0  0  0  0  0
    1.4292    2.2101    1.2583 N   0  0  0  0  0  0  0  0  0  0  0  0
    1.7208    2.3181    2.4453 O   0  0  0  0  0  0  0  0  0  0  0  0
    2.0867    2.6320    0.3143 O   0  0  0  0  0  0  0  0  0  0  0  0
   -0.1993    1.3595   -0.3998 C   0  0  0  0  0  0  0  0  0  0  0  0
   -1.3811    0.6987   -0.7159 C   0  0  0  0  0  0  0  0  0  0  0  0
   -2.4012   -0.0723    2.4940 H   0  0  0  0  0  0  0  0  0  0  0  0
   -0.2579    1.1478    3.0150 H   0  0  0  0  0  0  0  0  0  0  0  0
    0.4332    1.7743   -1.1742 H   0  0  0  0  0  0  0  0  0  0  0  0
   -1.7520    0.5510   -1.7258 H   0  0  0  0  0  0  0  0  0  0  0  0
   -4.3902    0.8263   -2.3082 B   0  0  0  0  0  0  0  0  0  0  0  0
   -5.6130    0.1936   -2.1498 F   0  0  0  0  0  0  0  0  0  0  0  0
   -3.3694   -0.1888   -2.4702 F   0  0  0  0  0  0  0  0  0  0  0  0
   -4.3475    1.7106   -3.3536 F   0  0  0  0  0  0  0  0  0  0  0  0
   -4.0495    1.4873   -1.0748 F   0  0  0  0  0  0  0  0  0  0  0  0
  1  4  2  0  0  0  0
  2  1  1  0  0  0  0
  3  2  1  0  0  0  0
  4  5  1  0  0  0  0
  4 12  1  0  0  0  0
  5 13  1  0  0  0  0
  6  7  1  0  0  0  0
  6  5  2  0  0  0  0
  7  8  2  0  0  0  0
  9  7  2  0  0  0  0
 10  6  1  0  0  0  0
 11 10  2  0  0  0  0
 11  1  1  0  0  0  0
 14 10  1  0  0  0  0
 15 11  1  0  0  0  0
 16 17  1  0  0  0  0
 16 20  1  0  0  0  0
 18 16  1  0  0  0  0
 19 16  1  0  0  0  0
M  RAD  2   2   2   3   3
M  END
