Coordinates from ORCA-job 4-NO2PhN2+~BF4-_B3LYPG-6-31G_dp-NX-Scan-d89-09-n800
 OpenBabel11261920323D

 20 19  0  0  0  0  0  0  0  0999 V2000
   -2.1398    0.1675    0.3764 C   0  0  0  0  0  0  0  0  0  0  0  0
   -3.3068   -0.5664    0.1540 N   0  0  0  0  0  0  0  0  0  0  0  0
   -4.1813   -1.2491    0.1445 N   0  0  0  0  0  0  0  0  0  0  0  0
   -1.7529    0.3000    1.7200 C   0  0  0  0  0  0  0  0  0  0  0  0
   -0.5809    0.9935    1.9855 C   0  0  0  0  0  0  0  0  0  0  0  0
    0.1443    1.5110    0.9122 C   0  0  0  0  0  0  0  0  0  0  0  0
    1.3996    2.2471    1.2076 N   0  0  0  0  0  0  0  0  0  0  0  0
    1.7184    2.3514    2.3881 O   0  0  0  0  0  0  0  0  0  0  0  0
    2.0235    2.6917    0.2515 O   0  0  0  0  0  0  0  0  0  0  0  0
   -0.2493    1.3709   -0.4169 C   0  0  0  0  0  0  0  0  0  0  0  0
   -1.4240    0.6871   -0.7093 C   0  0  0  0  0  0  0  0  0  0  0  0
   -2.3544   -0.1181    2.5186 H   0  0  0  0  0  0  0  0  0  0  0  0
   -0.2231    1.1386    2.9967 H   0  0  0  0  0  0  0  0  0  0  0  0
    0.3551    1.8031   -1.2042 H   0  0  0  0  0  0  0  0  0  0  0  0
   -1.8090    0.5373   -1.7126 H   0  0  0  0  0  0  0  0  0  0  0  0
   -4.3417    0.8445   -2.2961 B   0  0  0  0  0  0  0  0  0  0  0  0
   -5.6409    0.4201   -2.4502 F   0  0  0  0  0  0  0  0  0  0  0  0
   -3.4591   -0.3106   -2.3332 F   0  0  0  0  0  0  0  0  0  0  0  0
   -3.9198    1.7579   -3.2340 F   0  0  0  0  0  0  0  0  0  0  0  0
   -4.1644    1.3888   -0.9730 F   0  0  0  0  0  0  0  0  0  0  0  0
  1  4  2  0  0  0  0
  2  1  1  0  0  0  0
  3  2  1  0  0  0  0
  4  5  1  0  0  0  0
  4 12  1  0  0  0  0
  5 13  1  0  0  0  0
  6  7  1  0  0  0  0
  6  5  2  0  0  0  0
  7  8  2  0  0  0  0
  9  7  2  0  0  0  0
 10  6  1  0  0  0  0
 11 10  2  0  0  0  0
 11  1  1  0  0  0  0
 14 10  1  0  0  0  0
 15 11  1  0  0  0  0
 16 20  1  0  0  0  0
 17 16  1  0  0  0  0
 18 16  1  0  0  0  0
 19 16  1  0  0  0  0
M  RAD  2   2   2   3   3
M  END
