Coordinates from ORCA-job 4-NO2PhN2+~BF4-_B3LYPG-6-31G_dp-NX-Scan-d89-09-n800
 OpenBabel11261920323D

 20 19  0  0  0  0  0  0  0  0999 V2000
   -2.1319    0.0083    0.3510 C   0  0  0  0  0  0  0  0  0  0  0  0
   -3.2292   -0.8267    0.1673 N   0  0  0  0  0  0  0  0  0  0  0  0
   -4.0517   -1.5704    0.1346 N   0  0  0  0  0  0  0  0  0  0  0  0
   -1.8068    0.3214    1.6830 C   0  0  0  0  0  0  0  0  0  0  0  0
   -0.6843    1.1029    1.9010 C   0  0  0  0  0  0  0  0  0  0  0  0
    0.0591    1.5257    0.7960 C   0  0  0  0  0  0  0  0  0  0  0  0
    1.2685    2.3509    1.0435 N   0  0  0  0  0  0  0  0  0  0  0  0
    1.5267    2.6227    2.2121 O   0  0  0  0  0  0  0  0  0  0  0  0
    1.9207    2.6931    0.0645 O   0  0  0  0  0  0  0  0  0  0  0  0
   -0.2754    1.2145   -0.5175 C   0  0  0  0  0  0  0  0  0  0  0  0
   -1.4035    0.4381   -0.7656 C   0  0  0  0  0  0  0  0  0  0  0  0
   -2.4198   -0.0314    2.5039 H   0  0  0  0  0  0  0  0  0  0  0  0
   -0.3745    1.3882    2.8978 H   0  0  0  0  0  0  0  0  0  0  0  0
    0.3317    1.5890   -1.3315 H   0  0  0  0  0  0  0  0  0  0  0  0
   -1.7549    0.1919   -1.7590 H   0  0  0  0  0  0  0  0  0  0  0  0
   -4.2058    1.0211   -2.0397 B   0  0  0  0  0  0  0  0  0  0  0  0
   -5.2949    1.2407   -2.8355 F   0  0  0  0  0  0  0  0  0  0  0  0
   -3.6682   -0.3055   -2.2605 F   0  0  0  0  0  0  0  0  0  0  0  0
   -3.1626    1.9290   -2.2658 F   0  0  0  0  0  0  0  0  0  0  0  0
   -4.5497    1.0627   -0.6534 F   0  0  0  0  0  0  0  0  0  0  0  0
  1  4  2  0  0  0  0
  2  1  1  0  0  0  0
  3  2  1  0  0  0  0
  4  5  1  0  0  0  0
  4 12  1  0  0  0  0
  5 13  1  0  0  0  0
  6  7  1  0  0  0  0
  6  5  2  0  0  0  0
  7  8  2  0  0  0  0
  9  7  2  0  0  0  0
 10  6  1  0  0  0  0
 11 10  2  0  0  0  0
 11  1  1  0  0  0  0
 14 10  1  0  0  0  0
 15 11  1  0  0  0  0
 16 20  1  0  0  0  0
 17 16  1  0  0  0  0
 18 16  1  0  0  0  0
 19 16  1  0  0  0  0
M  RAD  2   2   2   3   3
M  END
