Coordinates from ORCA-job 4-NO2PhN2+~BF4-_B3LYPG-6-31G_dp-NX-Scan-d89-09-n800
 OpenBabel11261920323D

 20 19  0  0  0  0  0  0  0  0999 V2000
   -2.1297    0.1893    0.3573 C   0  0  0  0  0  0  0  0  0  0  0  0
   -3.2955   -0.5393    0.1103 N   0  0  0  0  0  0  0  0  0  0  0  0
   -4.1657   -1.2277    0.0829 N   0  0  0  0  0  0  0  0  0  0  0  0
   -1.7731    0.3310    1.7081 C   0  0  0  0  0  0  0  0  0  0  0  0
   -0.5972    1.0105    1.9924 C   0  0  0  0  0  0  0  0  0  0  0  0
    0.1617    1.5024    0.9302 C   0  0  0  0  0  0  0  0  0  0  0  0
    1.4238    2.2179    1.2460 N   0  0  0  0  0  0  0  0  0  0  0  0
    1.7132    2.3383    2.4324 O   0  0  0  0  0  0  0  0  0  0  0  0
    2.0829    2.6300    0.2989 O   0  0  0  0  0  0  0  0  0  0  0  0
   -0.2041    1.3547   -0.4060 C   0  0  0  0  0  0  0  0  0  0  0  0
   -1.3840    0.6885   -0.7174 C   0  0  0  0  0  0  0  0  0  0  0  0
   -2.3990   -0.0692    2.4969 H   0  0  0  0  0  0  0  0  0  0  0  0
   -0.2609    1.1630    3.0098 H   0  0  0  0  0  0  0  0  0  0  0  0
    0.4262    1.7675   -1.1833 H   0  0  0  0  0  0  0  0  0  0  0  0
   -1.7566    0.5369   -1.7261 H   0  0  0  0  0  0  0  0  0  0  0  0
   -4.3867    0.8355   -2.2987 B   0  0  0  0  0  0  0  0  0  0  0  0
   -5.6329    0.2422   -2.2357 F   0  0  0  0  0  0  0  0  0  0  0  0
   -3.3872   -0.2059   -2.4410 F   0  0  0  0  0  0  0  0  0  0  0  0
   -4.2477    1.7558   -3.3060 F   0  0  0  0  0  0  0  0  0  0  0  0
   -4.0940    1.4446   -1.0252 F   0  0  0  0  0  0  0  0  0  0  0  0
  1  4  2  0  0  0  0
  2  1  1  0  0  0  0
  3  2  1  0  0  0  0
  4  5  1  0  0  0  0
  4 12  1  0  0  0  0
  5 13  1  0  0  0  0
  6  7  1  0  0  0  0
  6  5  2  0  0  0  0
  7  8  2  0  0  0  0
  9  7  2  0  0  0  0
 10  6  1  0  0  0  0
 11 10  2  0  0  0  0
 11  1  1  0  0  0  0
 14 10  1  0  0  0  0
 15 11  1  0  0  0  0
 16 17  1  0  0  0  0
 16 20  1  0  0  0  0
 18 16  1  0  0  0  0
 19 16  1  0  0  0  0
M  RAD  2   2   2   3   3
M  END
