Coordinates from ORCA-job 4-NO2PhN2+~BF4-_B3LYPG-6-31G_dp-NX-Scan-d89-09-n800
 OpenBabel11261920323D

 20 19  0  0  0  0  0  0  0  0999 V2000
   -1.9447   -0.7838    0.1203 C   0  0  0  0  0  0  0  0  0  0  0  0
   -2.7270   -1.8841   -0.0468 N   0  0  0  0  0  0  0  0  0  0  0  0
   -3.3448   -2.8086   -0.1741 N   0  0  0  0  0  0  0  0  0  0  0  0
   -2.2232    0.0684    1.2078 C   0  0  0  0  0  0  0  0  0  0  0  0
   -1.4205    1.1864    1.3598 C   0  0  0  0  0  0  0  0  0  0  0  0
   -0.4419    1.4365    0.4069 C   0  0  0  0  0  0  0  0  0  0  0  0
    0.3709    2.6689    0.5474 N   0  0  0  0  0  0  0  0  0  0  0  0
    0.1677    3.3598    1.5380 O   0  0  0  0  0  0  0  0  0  0  0  0
    1.2005    2.8884   -0.3280 O   0  0  0  0  0  0  0  0  0  0  0  0
   -0.1649    0.5903   -0.6729 C   0  0  0  0  0  0  0  0  0  0  0  0
   -0.9299   -0.5423   -0.8360 C   0  0  0  0  0  0  0  0  0  0  0  0
   -3.0471   -0.1346    1.8781 H   0  0  0  0  0  0  0  0  0  0  0  0
   -1.6015    1.9051    2.1470 H   0  0  0  0  0  0  0  0  0  0  0  0
    0.6094    0.8625   -1.3777 H   0  0  0  0  0  0  0  0  0  0  0  0
   -0.7884   -1.2151   -1.6729 H   0  0  0  0  0  0  0  0  0  0  0  0
   -3.5432    2.0940   -0.9734 B   0  0  0  0  0  0  0  0  0  0  0  0
   -4.4674    2.8654   -1.6377 F   0  0  0  0  0  0  0  0  0  0  0  0
   -3.3044    0.8616   -1.6460 F   0  0  0  0  0  0  0  0  0  0  0  0
   -2.3075    2.7819   -0.8529 F   0  0  0  0  0  0  0  0  0  0  0  0
   -3.9985    1.7653    0.3391 F   0  0  0  0  0  0  0  0  0  0  0  0
  1  4  2  0  0  0  0
  2  1  1  0  0  0  0
  3  2  1  0  0  0  0
  4  5  1  0  0  0  0
  4 12  1  0  0  0  0
  5 13  1  0  0  0  0
  6  7  1  0  0  0  0
  6  5  2  0  0  0  0
  7  8  2  0  0  0  0
  9  7  2  0  0  0  0
 10  6  1  0  0  0  0
 11 10  2  0  0  0  0
 11  1  1  0  0  0  0
 14 10  1  0  0  0  0
 15 11  1  0  0  0  0
 16 19  1  0  0  0  0
 16 20  1  0  0  0  0
 17 16  1  0  0  0  0
 18 16  1  0  0  0  0
M  RAD  2   2   2   3   3
M  END
