Coordinates from ORCA-job 4-NO2PhN2+~BF4-_B3LYPG-6-31G_dp-NX-Scan-d89-09-n800
 OpenBabel11261920323D

 20 19  0  0  0  0  0  0  0  0999 V2000
   -1.9444   -0.4542   -0.0052 C   0  0  0  0  0  0  0  0  0  0  0  0
   -2.8523   -1.4511   -0.2884 N   0  0  0  0  0  0  0  0  0  0  0  0
   -3.5120   -2.3275   -0.4773 N   0  0  0  0  0  0  0  0  0  0  0  0
   -2.1886    0.3596    1.1108 C   0  0  0  0  0  0  0  0  0  0  0  0
   -1.2538    1.3503    1.3853 C   0  0  0  0  0  0  0  0  0  0  0  0
   -0.1612    1.4947    0.5391 C   0  0  0  0  0  0  0  0  0  0  0  0
    0.8291    2.5571    0.8444 N   0  0  0  0  0  0  0  0  0  0  0  0
    0.6314    3.2338    1.8473 O   0  0  0  0  0  0  0  0  0  0  0  0
    1.7790    2.6708    0.0761 O   0  0  0  0  0  0  0  0  0  0  0  0
    0.0572    0.6990   -0.5881 C   0  0  0  0  0  0  0  0  0  0  0  0
   -0.8535   -0.2991   -0.8792 C   0  0  0  0  0  0  0  0  0  0  0  0
   -3.0846    0.2407    1.7016 H   0  0  0  0  0  0  0  0  0  0  0  0
   -1.3797    2.0213    2.2246 H   0  0  0  0  0  0  0  0  0  0  0  0
    0.9196    0.8819   -1.2153 H   0  0  0  0  0  0  0  0  0  0  0  0
   -0.7483   -0.9305   -1.7529 H   0  0  0  0  0  0  0  0  0  0  0  0
   -4.0455    1.6195   -1.0569 B   0  0  0  0  0  0  0  0  0  0  0  0
   -4.9430    2.3805   -1.7601 F   0  0  0  0  0  0  0  0  0  0  0  0
   -4.2250    0.2189   -1.3489 F   0  0  0  0  0  0  0  0  0  0  0  0
   -2.7106    1.9392   -1.3762 F   0  0  0  0  0  0  0  0  0  0  0  0
   -4.2203    1.7611    0.3451 F   0  0  0  0  0  0  0  0  0  0  0  0
  1  4  2  0  0  0  0
  2  1  1  0  0  0  0
  3  2  1  0  0  0  0
  4  5  1  0  0  0  0
  4 12  1  0  0  0  0
  5 13  1  0  0  0  0
  6  7  1  0  0  0  0
  6  5  2  0  0  0  0
  7  8  2  0  0  0  0
  9  7  2  0  0  0  0
 10  6  1  0  0  0  0
 11 10  2  0  0  0  0
 11  1  1  0  0  0  0
 14 10  1  0  0  0  0
 15 11  1  0  0  0  0
 16 20  1  0  0  0  0
 17 16  1  0  0  0  0
 18 16  1  0  0  0  0
 19 16  1  0  0  0  0
M  RAD  2   2   2   3   3
M  END
