Coordinates from ORCA-job 4-NO2PhN2+~BF4-_B3LYPG-6-31G_dp-NX-Scan-d89-09-n800
 OpenBabel11261920313D

 20 19  0  0  0  0  0  0  0  0999 V2000
   -1.7824   -1.1824    0.1336 C   0  0  0  0  0  0  0  0  0  0  0  0
   -2.2213   -2.4697    0.1601 N   0  0  0  0  0  0  0  0  0  0  0  0
   -2.5429   -3.5445    0.2004 N   0  0  0  0  0  0  0  0  0  0  0  0
   -2.3375   -0.2516    1.0469 C   0  0  0  0  0  0  0  0  0  0  0  0
   -1.7911    1.0139    1.0922 C   0  0  0  0  0  0  0  0  0  0  0  0
   -0.7640    1.3342    0.1976 C   0  0  0  0  0  0  0  0  0  0  0  0
   -0.0436    2.6243    0.3752 N   0  0  0  0  0  0  0  0  0  0  0  0
   -0.3293    3.2766    1.3672 O   0  0  0  0  0  0  0  0  0  0  0  0
    0.8211    2.8893   -0.4506 O   0  0  0  0  0  0  0  0  0  0  0  0
   -0.2451    0.4275   -0.7374 C   0  0  0  0  0  0  0  0  0  0  0  0
   -0.7499   -0.8528   -0.7822 C   0  0  0  0  0  0  0  0  0  0  0  0
   -3.1597   -0.5351    1.6936 H   0  0  0  0  0  0  0  0  0  0  0  0
   -2.1976    1.7934    1.7223 H   0  0  0  0  0  0  0  0  0  0  0  0
    0.5445    0.7534   -1.4024 H   0  0  0  0  0  0  0  0  0  0  0  0
   -0.3685   -1.5946   -1.4742 H   0  0  0  0  0  0  0  0  0  0  0  0
   -3.3900    2.8736   -0.7712 B   0  0  0  0  0  0  0  0  0  0  0  0
   -4.0371    3.8305   -1.5177 F   0  0  0  0  0  0  0  0  0  0  0  0
   -3.9434    1.5888   -0.9131 F   0  0  0  0  0  0  0  0  0  0  0  0
   -2.0065    2.7796   -1.2126 F   0  0  0  0  0  0  0  0  0  0  0  0
   -3.3623    3.2115    0.5981 F   0  0  0  0  0  0  0  0  0  0  0  0
  1  2  1  0  0  0  0
  1  4  2  0  0  0  0
  2  3  1  0  0  0  0
  4  5  1  0  0  0  0
  4 12  1  0  0  0  0
  5 13  1  0  0  0  0
  6  7  1  0  0  0  0
  6  5  2  0  0  0  0
  7  8  2  0  0  0  0
  9  7  2  0  0  0  0
 10  6  1  0  0  0  0
 11 10  2  0  0  0  0
 11  1  1  0  0  0  0
 14 10  1  0  0  0  0
 15 11  1  0  0  0  0
 16 20  1  0  0  0  0
 17 16  1  0  0  0  0
 18 16  1  0  0  0  0
 19 16  1  0  0  0  0
M  RAD  2   2   2   3   3
M  END
