Coordinates from ORCA-job 4-NO2PhN2+~BF4-_B3LYPG-6-31G_dp-NX-Scan-d89-09-n800
 OpenBabel11261920323D

 20 19  0  0  0  0  0  0  0  0999 V2000
   -1.9526   -0.7556    0.1133 C   0  0  0  0  0  0  0  0  0  0  0  0
   -2.7351   -1.8572   -0.0502 N   0  0  0  0  0  0  0  0  0  0  0  0
   -3.3463   -2.7868   -0.1712 N   0  0  0  0  0  0  0  0  0  0  0  0
   -2.2255    0.0960    1.2024 C   0  0  0  0  0  0  0  0  0  0  0  0
   -1.4069    1.2026    1.3626 C   0  0  0  0  0  0  0  0  0  0  0  0
   -0.4189    1.4413    0.4174 C   0  0  0  0  0  0  0  0  0  0  0  0
    0.4156    2.6574    0.5712 N   0  0  0  0  0  0  0  0  0  0  0  0
    0.2174    3.3472    1.5638 O   0  0  0  0  0  0  0  0  0  0  0  0
    1.2555    2.8670   -0.2970 O   0  0  0  0  0  0  0  0  0  0  0  0
   -0.1550    0.6008   -0.6702 C   0  0  0  0  0  0  0  0  0  0  0  0
   -0.9353   -0.5202   -0.8416 C   0  0  0  0  0  0  0  0  0  0  0  0
   -3.0512   -0.1021    1.8716 H   0  0  0  0  0  0  0  0  0  0  0  0
   -1.5783    1.9177    2.1554 H   0  0  0  0  0  0  0  0  0  0  0  0
    0.6250    0.8657   -1.3715 H   0  0  0  0  0  0  0  0  0  0  0  0
   -0.8020   -1.1896   -1.6824 H   0  0  0  0  0  0  0  0  0  0  0  0
   -3.5803    2.0580   -0.9900 B   0  0  0  0  0  0  0  0  0  0  0  0
   -4.5135    2.8362   -1.6343 F   0  0  0  0  0  0  0  0  0  0  0  0
   -3.3403    0.8364   -1.6816 F   0  0  0  0  0  0  0  0  0  0  0  0
   -2.3497    2.7481   -0.8624 F   0  0  0  0  0  0  0  0  0  0  0  0
   -4.0291    1.7031    0.3209 F   0  0  0  0  0  0  0  0  0  0  0  0
  1  4  2  0  0  0  0
  2  1  1  0  0  0  0
  3  2  1  0  0  0  0
  4  5  1  0  0  0  0
  4 12  1  0  0  0  0
  5 13  1  0  0  0  0
  6  7  1  0  0  0  0
  6  5  2  0  0  0  0
  7  8  2  0  0  0  0
  9  7  2  0  0  0  0
 10  6  1  0  0  0  0
 11 10  2  0  0  0  0
 11  1  1  0  0  0  0
 14 10  1  0  0  0  0
 15 11  1  0  0  0  0
 16 19  1  0  0  0  0
 16 20  1  0  0  0  0
 17 16  1  0  0  0  0
 18 16  1  0  0  0  0
M  RAD  2   2   2   3   3
M  END
