Coordinates from ORCA-job 4-NO2PhN2+~BF4-_B3LYPG-6-31G_dp-NX-Scan-d89-09-n800
 OpenBabel11261920323D

 20 19  0  0  0  0  0  0  0  0999 V2000
   -2.3261    0.7115    0.8628 C   0  0  0  0  0  0  0  0  0  0  0  0
   -3.7398    0.4821    0.8918 N   0  0  0  0  0  0  0  0  0  0  0  0
   -4.3048   -0.1166   -0.0567 N   0  0  0  0  0  0  0  0  0  0  0  0
   -1.6338    0.4195    2.0478 C   0  0  0  0  0  0  0  0  0  0  0  0
   -0.2744    0.6874    2.1513 C   0  0  0  0  0  0  0  0  0  0  0  0
    0.3741    1.2817    1.0696 C   0  0  0  0  0  0  0  0  0  0  0  0
    1.8102    1.5809    1.1757 N   0  0  0  0  0  0  0  0  0  0  0  0
    2.3772    1.2852    2.2267 O   0  0  0  0  0  0  0  0  0  0  0  0
    2.3547    2.1132    0.2091 O   0  0  0  0  0  0  0  0  0  0  0  0
   -0.2986    1.6108   -0.1057 C   0  0  0  0  0  0  0  0  0  0  0  0
   -1.6541    1.3185   -0.2129 C   0  0  0  0  0  0  0  0  0  0  0  0
   -2.1784   -0.0167    2.8782 H   0  0  0  0  0  0  0  0  0  0  0  0
    0.2855    0.4601    3.0497 H   0  0  0  0  0  0  0  0  0  0  0  0
    0.2447    2.0817   -0.9153 H   0  0  0  0  0  0  0  0  0  0  0  0
   -2.1881    1.5758   -1.1202 H   0  0  0  0  0  0  0  0  0  0  0  0
   -4.7764    0.7424   -3.4875 B   0  0  0  0  0  0  0  0  0  0  0  0
   -3.6708   -0.4845   -0.8906 F   0  0  0  0  0  0  0  0  0  0  0  0
   -3.8253    1.4709   -2.9217 F   0  0  0  0  0  0  0  0  0  0  0  0
   -4.5090    0.0603   -4.5805 F   0  0  0  0  0  0  0  0  0  0  0  0
   -5.9734    0.7018   -2.9457 F   0  0  0  0  0  0  0  0  0  0  0  0
  1  2  1  0  0  0  0
  1  4  2  0  0  0  0
  3  2  2  0  0  0  0
  4  5  1  0  0  0  0
  4 12  1  0  0  0  0
  5 13  1  0  0  0  0
  6  7  1  0  0  0  0
  6  5  2  0  0  0  0
  7  8  2  0  0  0  0
  9  7  2  0  0  0  0
 10  6  1  0  0  0  0
 11 10  2  0  0  0  0
 11  1  1  0  0  0  0
 14 10  1  0  0  0  0
 15 11  1  0  0  0  0
 16 20  1  0  0  0  0
 16 18  1  0  0  0  0
 17  3  1  0  0  0  0
 19 16  1  0  0  0  0
M  END
