Coordinates from ORCA-job 4-NO2PhN2+~BF4-_B3LYPG-6-31G_dp-NX-Scan-d89-09-n800
 OpenBabel11261920323D

 20 19  0  0  0  0  0  0  0  0999 V2000
   -2.1378    0.2340    0.3613 C   0  0  0  0  0  0  0  0  0  0  0  0
   -3.3231   -0.4534    0.0983 N   0  0  0  0  0  0  0  0  0  0  0  0
   -4.2334   -1.0868    0.0312 N   0  0  0  0  0  0  0  0  0  0  0  0
   -1.7740    0.3383    1.7141 C   0  0  0  0  0  0  0  0  0  0  0  0
   -0.5851    0.9889    2.0100 C   0  0  0  0  0  0  0  0  0  0  0  0
    0.1799    1.4901    0.9562 C   0  0  0  0  0  0  0  0  0  0  0  0
    1.4544    2.1780    1.2841 N   0  0  0  0  0  0  0  0  0  0  0  0
    1.7527    2.2603    2.4716 O   0  0  0  0  0  0  0  0  0  0  0  0
    2.1135    2.6084    0.3451 O   0  0  0  0  0  0  0  0  0  0  0  0
   -0.1902    1.3760   -0.3818 C   0  0  0  0  0  0  0  0  0  0  0  0
   -1.3831    0.7379   -0.7052 C   0  0  0  0  0  0  0  0  0  0  0  0
   -2.4054   -0.0678    2.4955 H   0  0  0  0  0  0  0  0  0  0  0  0
   -0.2427    1.1122    3.0294 H   0  0  0  0  0  0  0  0  0  0  0  0
    0.4474    1.7918   -1.1514 H   0  0  0  0  0  0  0  0  0  0  0  0
   -1.7557    0.6103   -1.7176 H   0  0  0  0  0  0  0  0  0  0  0  0
   -4.3957    0.7894   -2.3401 B   0  0  0  0  0  0  0  0  0  0  0  0
   -5.5158    0.0266   -1.9928 F   0  0  0  0  0  0  0  0  0  0  0  0
   -3.3041   -0.1205   -2.5749 F   0  0  0  0  0  0  0  0  0  0  0  0
   -4.6007    1.6014   -3.4202 F   0  0  0  0  0  0  0  0  0  0  0  0
   -4.0076    1.5511   -1.1868 F   0  0  0  0  0  0  0  0  0  0  0  0
  1  4  2  0  0  0  0
  2  1  1  0  0  0  0
  3  2  1  0  0  0  0
  4  5  1  0  0  0  0
  4 12  1  0  0  0  0
  5 13  1  0  0  0  0
  6  7  1  0  0  0  0
  6  5  2  0  0  0  0
  7  8  2  0  0  0  0
  9  7  2  0  0  0  0
 10  6  1  0  0  0  0
 11 10  2  0  0  0  0
 11  1  1  0  0  0  0
 14 10  1  0  0  0  0
 15 11  1  0  0  0  0
 16 17  1  0  0  0  0
 16 20  1  0  0  0  0
 18 16  1  0  0  0  0
 19 16  1  0  0  0  0
M  RAD  2   2   2   3   3
M  END
