Coordinates from ORCA-job 4-NO2PhN2+~BF4-_B3LYPG-6-31G_dp-NX-Scan-d89-09-n800
 OpenBabel11261920313D

 20 19  0  0  0  0  0  0  0  0999 V2000
   -1.8349   -1.1206    0.1413 C   0  0  0  0  0  0  0  0  0  0  0  0
   -2.2887   -2.4029    0.1596 N   0  0  0  0  0  0  0  0  0  0  0  0
   -2.6161   -3.4763    0.1951 N   0  0  0  0  0  0  0  0  0  0  0  0
   -2.3071   -0.2180    1.1253 C   0  0  0  0  0  0  0  0  0  0  0  0
   -1.7348    1.0363    1.1802 C   0  0  0  0  0  0  0  0  0  0  0  0
   -0.7552    1.3686    0.2383 C   0  0  0  0  0  0  0  0  0  0  0  0
    0.0041    2.6342    0.4285 N   0  0  0  0  0  0  0  0  0  0  0  0
   -0.2720    3.2962    1.4179 O   0  0  0  0  0  0  0  0  0  0  0  0
    0.8855    2.8748   -0.3865 O   0  0  0  0  0  0  0  0  0  0  0  0
   -0.3190    0.4901   -0.7632 C   0  0  0  0  0  0  0  0  0  0  0  0
   -0.8594   -0.7740   -0.8290 C   0  0  0  0  0  0  0  0  0  0  0  0
   -3.0831   -0.5159    1.8208 H   0  0  0  0  0  0  0  0  0  0  0  0
   -2.0660    1.7857    1.8839 H   0  0  0  0  0  0  0  0  0  0  0  0
    0.4336    0.8269   -1.4644 H   0  0  0  0  0  0  0  0  0  0  0  0
   -0.5451   -1.4928   -1.5766 H   0  0  0  0  0  0  0  0  0  0  0  0
   -3.3537    2.7438   -0.8595 B   0  0  0  0  0  0  0  0  0  0  0  0
   -4.0388    3.6870   -1.5905 F   0  0  0  0  0  0  0  0  0  0  0  0
   -3.7262    1.4214   -1.1624 F   0  0  0  0  0  0  0  0  0  0  0  0
   -1.9349    2.8511   -1.1607 F   0  0  0  0  0  0  0  0  0  0  0  0
   -3.4947    2.9506    0.5278 F   0  0  0  0  0  0  0  0  0  0  0  0
  1  2  1  0  0  0  0
  1  4  2  0  0  0  0
  2  3  1  0  0  0  0
  4  5  1  0  0  0  0
  4 12  1  0  0  0  0
  5 13  1  0  0  0  0
  6  7  1  0  0  0  0
  6  5  2  0  0  0  0
  7  8  2  0  0  0  0
  9  7  2  0  0  0  0
 10  6  1  0  0  0  0
 11 10  2  0  0  0  0
 11  1  1  0  0  0  0
 14 10  1  0  0  0  0
 15 11  1  0  0  0  0
 16 20  1  0  0  0  0
 17 16  1  0  0  0  0
 18 16  1  0  0  0  0
 19 16  1  0  0  0  0
M  RAD  2   2   2   3   3
M  END
