Coordinates from ORCA-job 4-NO2PhN2+~BF4-_B3LYPG-6-31G_dp-NX-Scan-d89-09-n800
 OpenBabel11261920323D

 20 19  0  0  0  0  0  0  0  0999 V2000
   -2.1483    0.0876    0.3985 C   0  0  0  0  0  0  0  0  0  0  0  0
   -3.2855   -0.6946    0.2146 N   0  0  0  0  0  0  0  0  0  0  0  0
   -4.1526   -1.3837    0.1646 N   0  0  0  0  0  0  0  0  0  0  0  0
   -1.7474    0.2850    1.7314 C   0  0  0  0  0  0  0  0  0  0  0  0
   -0.5970    1.0258    1.9531 C   0  0  0  0  0  0  0  0  0  0  0  0
    0.0966    1.5247    0.8491 C   0  0  0  0  0  0  0  0  0  0  0  0
    1.3325    2.3095    1.0978 N   0  0  0  0  0  0  0  0  0  0  0  0
    1.6548    2.4826    2.2693 O   0  0  0  0  0  0  0  0  0  0  0  0
    1.9392    2.7208    0.1162 O   0  0  0  0  0  0  0  0  0  0  0  0
   -0.3127    1.3257   -0.4664 C   0  0  0  0  0  0  0  0  0  0  0  0
   -1.4667    0.5904   -0.7178 C   0  0  0  0  0  0  0  0  0  0  0  0
   -2.3243   -0.1223    2.5533 H   0  0  0  0  0  0  0  0  0  0  0  0
   -0.2306    1.2224    2.9523 H   0  0  0  0  0  0  0  0  0  0  0  0
    0.2604    1.7529   -1.2793 H   0  0  0  0  0  0  0  0  0  0  0  0
   -1.8634    0.4315   -1.7139 H   0  0  0  0  0  0  0  0  0  0  0  0
   -4.2438    0.9089   -2.1918 B   0  0  0  0  0  0  0  0  0  0  0  0
   -5.4253    0.9400   -2.8773 F   0  0  0  0  0  0  0  0  0  0  0  0
   -3.6652   -0.4161   -2.2443 F   0  0  0  0  0  0  0  0  0  0  0  0
   -3.2775    1.7927   -2.6817 F   0  0  0  0  0  0  0  0  0  0  0  0
   -4.4499    1.1821   -0.8019 F   0  0  0  0  0  0  0  0  0  0  0  0
  1  4  2  0  0  0  0
  2  1  1  0  0  0  0
  3  2  1  0  0  0  0
  4  5  1  0  0  0  0
  4 12  1  0  0  0  0
  5 13  1  0  0  0  0
  6  7  1  0  0  0  0
  6  5  2  0  0  0  0
  7  8  2  0  0  0  0
  9  7  2  0  0  0  0
 10  6  1  0  0  0  0
 11 10  2  0  0  0  0
 11  1  1  0  0  0  0
 14 10  1  0  0  0  0
 15 11  1  0  0  0  0
 16 20  1  0  0  0  0
 17 16  1  0  0  0  0
 18 16  1  0  0  0  0
 19 16  1  0  0  0  0
M  RAD  2   2   2   3   3
M  END
