Coordinates from ORCA-job 4-NO2PhN2+~BF4-_B3LYPG-6-31G_dp-NX-Scan-d89-09-n800
 OpenBabel11261920313D

 20 19  0  0  0  0  0  0  0  0999 V2000
   -1.6886   -1.2976    0.1241 C   0  0  0  0  0  0  0  0  0  0  0  0
   -2.1014   -2.5958    0.2047 N   0  0  0  0  0  0  0  0  0  0  0  0
   -2.3993   -3.6738    0.2857 N   0  0  0  0  0  0  0  0  0  0  0  0
   -2.4168   -0.2943    0.8126 C   0  0  0  0  0  0  0  0  0  0  0  0
   -1.9077    0.9910    0.8107 C   0  0  0  0  0  0  0  0  0  0  0  0
   -0.7320    1.2381    0.0957 C   0  0  0  0  0  0  0  0  0  0  0  0
   -0.0832    2.5677    0.2072 N   0  0  0  0  0  0  0  0  0  0  0  0
   -0.3275    3.2005    1.2213 O   0  0  0  0  0  0  0  0  0  0  0  0
    0.6999    2.8713   -0.6844 O   0  0  0  0  0  0  0  0  0  0  0  0
   -0.0490    0.2616   -0.6396 C   0  0  0  0  0  0  0  0  0  0  0  0
   -0.5145   -1.0376   -0.6255 C   0  0  0  0  0  0  0  0  0  0  0  0
   -3.3460   -0.5289    1.3182 H   0  0  0  0  0  0  0  0  0  0  0  0
   -2.4349    1.8265    1.2739 H   0  0  0  0  0  0  0  0  0  0  0  0
    0.8373    0.5422   -1.1952 H   0  0  0  0  0  0  0  0  0  0  0  0
   -0.0024   -1.8362   -1.1492 H   0  0  0  0  0  0  0  0  0  0  0  0
   -3.5197    3.1680   -0.5620 B   0  0  0  0  0  0  0  0  0  0  0  0
   -4.1828    4.2043   -1.1791 F   0  0  0  0  0  0  0  0  0  0  0  0
   -4.1939    1.9347   -0.6705 F   0  0  0  0  0  0  0  0  0  0  0  0
   -2.2179    2.9884   -1.1452 F   0  0  0  0  0  0  0  0  0  0  0  0
   -3.3261    3.4359    0.8225 F   0  0  0  0  0  0  0  0  0  0  0  0
  1  2  1  0  0  0  0
  1  4  2  0  0  0  0
  2  3  1  0  0  0  0
  4 12  1  0  0  0  0
  5  4  1  0  0  0  0
  5 13  1  0  0  0  0
  6  7  1  0  0  0  0
  6  5  2  0  0  0  0
  7  8  2  0  0  0  0
  9  7  2  0  0  0  0
 10 11  2  0  0  0  0
 10  6  1  0  0  0  0
 11  1  1  0  0  0  0
 14 10  1  0  0  0  0
 15 11  1  0  0  0  0
 16 20  1  0  0  0  0
 17 16  1  0  0  0  0
 18 16  1  0  0  0  0
 19 16  1  0  0  0  0
M  RAD  2   2   2   3   3
M  END
