Coordinates from ORCA-job 4-NO2PhN2+~BF4-_B3LYPG-6-31G_dp-NX-Scan-d89-09-n800
 OpenBabel11261920323D

 20 19  0  0  0  0  0  0  0  0999 V2000
   -2.1608    0.1278    0.4208 C   0  0  0  0  0  0  0  0  0  0  0  0
   -3.3140   -0.6320    0.2425 N   0  0  0  0  0  0  0  0  0  0  0  0
   -4.1977   -1.2998    0.1965 N   0  0  0  0  0  0  0  0  0  0  0  0
   -1.7214    0.2689    1.7490 C   0  0  0  0  0  0  0  0  0  0  0  0
   -0.5577    0.9891    1.9694 C   0  0  0  0  0  0  0  0  0  0  0  0
    0.1102    1.5262    0.8678 C   0  0  0  0  0  0  0  0  0  0  0  0
    1.3598    2.2903    1.1137 N   0  0  0  0  0  0  0  0  0  0  0  0
    1.7205    2.4047    2.2812 O   0  0  0  0  0  0  0  0  0  0  0  0
    1.9378    2.7449    0.1340 O   0  0  0  0  0  0  0  0  0  0  0  0
   -0.3366    1.3832   -0.4428 C   0  0  0  0  0  0  0  0  0  0  0  0
   -1.5037    0.6678   -0.6931 C   0  0  0  0  0  0  0  0  0  0  0  0
   -2.2798   -0.1661    2.5697 H   0  0  0  0  0  0  0  0  0  0  0  0
   -0.1623    1.1410    2.9653 H   0  0  0  0  0  0  0  0  0  0  0  0
    0.2189    1.8365   -1.2539 H   0  0  0  0  0  0  0  0  0  0  0  0
   -1.9183    0.5523   -1.6886 H   0  0  0  0  0  0  0  0  0  0  0  0
   -4.2533    0.8498   -2.2553 B   0  0  0  0  0  0  0  0  0  0  0  0
   -5.4422    0.8352   -2.9282 F   0  0  0  0  0  0  0  0  0  0  0  0
   -3.6705   -0.4714   -2.2252 F   0  0  0  0  0  0  0  0  0  0  0  0
   -3.2928    1.7023   -2.8128 F   0  0  0  0  0  0  0  0  0  0  0  0
   -4.4426    1.2152   -0.8840 F   0  0  0  0  0  0  0  0  0  0  0  0
  1  4  2  0  0  0  0
  2  1  1  0  0  0  0
  3  2  1  0  0  0  0
  4  5  1  0  0  0  0
  4 12  1  0  0  0  0
  5 13  1  0  0  0  0
  6  7  1  0  0  0  0
  6  5  2  0  0  0  0
  7  8  2  0  0  0  0
  9  7  2  0  0  0  0
 10  6  1  0  0  0  0
 11 10  2  0  0  0  0
 11  1  1  0  0  0  0
 14 10  1  0  0  0  0
 15 11  1  0  0  0  0
 16 18  1  0  0  0  0
 16 20  1  0  0  0  0
 17 16  1  0  0  0  0
 19 16  1  0  0  0  0
M  RAD  2   2   2   3   3
M  END
