Coordinates from ORCA-job 4-NO2PhN2+~BF4-_B3LYPG-6-31G_dp-NX-Scan-d89-09-n800
 OpenBabel11261920323D

 20 19  0  0  0  0  0  0  0  0999 V2000
   -2.1590    0.2724    0.3985 C   0  0  0  0  0  0  0  0  0  0  0  0
   -3.3642   -0.3740    0.1352 N   0  0  0  0  0  0  0  0  0  0  0  0
   -4.3211   -0.9257   -0.0206 N   0  0  0  0  0  0  0  0  0  0  0  0
   -1.7687    0.3452    1.7460 C   0  0  0  0  0  0  0  0  0  0  0  0
   -0.5645    0.9696    2.0360 C   0  0  0  0  0  0  0  0  0  0  0  0
    0.1940    1.4746    0.9791 C   0  0  0  0  0  0  0  0  0  0  0  0
    1.4847    2.1351    1.2985 N   0  0  0  0  0  0  0  0  0  0  0  0
    1.8022    2.1936    2.4825 O   0  0  0  0  0  0  0  0  0  0  0  0
    2.1377    2.5694    0.3568 O   0  0  0  0  0  0  0  0  0  0  0  0
   -0.1973    1.3878   -0.3545 C   0  0  0  0  0  0  0  0  0  0  0  0
   -1.4075    0.7781   -0.6709 C   0  0  0  0  0  0  0  0  0  0  0  0
   -2.3950   -0.0651    2.5294 H   0  0  0  0  0  0  0  0  0  0  0  0
   -0.2044    1.0690    3.0518 H   0  0  0  0  0  0  0  0  0  0  0  0
    0.4379    1.8021   -1.1269 H   0  0  0  0  0  0  0  0  0  0  0  0
   -1.7880    0.6781   -1.6844 H   0  0  0  0  0  0  0  0  0  0  0  0
   -4.3753    0.7577   -2.4046 B   0  0  0  0  0  0  0  0  0  0  0  0
   -5.2905   -0.1944   -1.8571 F   0  0  0  0  0  0  0  0  0  0  0  0
   -3.2077    0.0351   -2.7828 F   0  0  0  0  0  0  0  0  0  0  0  0
   -4.9216    1.4406   -3.4500 F   0  0  0  0  0  0  0  0  0  0  0  0
   -3.9982    1.6168   -1.3363 F   0  0  0  0  0  0  0  0  0  0  0  0
  1  4  2  0  0  0  0
  2  1  1  0  0  0  0
  3  2  1  0  0  0  0
  4  5  1  0  0  0  0
  4 12  1  0  0  0  0
  5 13  1  0  0  0  0
  6  7  1  0  0  0  0
  6  5  2  0  0  0  0
  7  8  2  0  0  0  0
  9  7  2  0  0  0  0
 10  6  1  0  0  0  0
 11 10  2  0  0  0  0
 11  1  1  0  0  0  0
 14 10  1  0  0  0  0
 15 11  1  0  0  0  0
 16 17  1  0  0  0  0
 16 20  1  0  0  0  0
 18 16  1  0  0  0  0
 19 16  1  0  0  0  0
M  RAD  2   2   2   3   3
M  END
