Coordinates from ORCA-job 4-NO2PhN2+~BF4-_B3LYPG-6-31G_dp-NX-Scan-d89-09-n800
 OpenBabel11261920323D

 20 19  0  0  0  0  0  0  0  0999 V2000
   -2.1873    0.2999    0.4488 C   0  0  0  0  0  0  0  0  0  0  0  0
   -3.4027   -0.3317    0.2054 N   0  0  0  0  0  0  0  0  0  0  0  0
   -4.3705   -0.8484   -0.0137 N   0  0  0  0  0  0  0  0  0  0  0  0
   -1.7687    0.3631    1.7884 C   0  0  0  0  0  0  0  0  0  0  0  0
   -0.5498    0.9666    2.0591 C   0  0  0  0  0  0  0  0  0  0  0  0
    0.1974    1.4619    0.9895 C   0  0  0  0  0  0  0  0  0  0  0  0
    1.5055    2.0982    1.2868 N   0  0  0  0  0  0  0  0  0  0  0  0
    1.8446    2.1499    2.4651 O   0  0  0  0  0  0  0  0  0  0  0  0
    2.1500    2.5217    0.3343 O   0  0  0  0  0  0  0  0  0  0  0  0
   -0.2206    1.3868   -0.3367 C   0  0  0  0  0  0  0  0  0  0  0  0
   -1.4466    0.7981   -0.6330 C   0  0  0  0  0  0  0  0  0  0  0  0
   -2.3866   -0.0420    2.5812 H   0  0  0  0  0  0  0  0  0  0  0  0
   -0.1688    1.0563    3.0682 H   0  0  0  0  0  0  0  0  0  0  0  0
    0.4071    1.7930   -1.1196 H   0  0  0  0  0  0  0  0  0  0  0  0
   -1.8411    0.7172   -1.6440 H   0  0  0  0  0  0  0  0  0  0  0  0
   -4.3449    0.7463   -2.4699 B   0  0  0  0  0  0  0  0  0  0  0  0
   -5.0730   -0.3625   -1.8899 F   0  0  0  0  0  0  0  0  0  0  0  0
   -3.1285    0.2235   -2.9688 F   0  0  0  0  0  0  0  0  0  0  0  0
   -5.0895    1.3571   -3.4328 F   0  0  0  0  0  0  0  0  0  0  0  0
   -4.0325    1.6112   -1.3925 F   0  0  0  0  0  0  0  0  0  0  0  0
  1  4  2  0  0  0  0
  2  1  1  0  0  0  0
  3  2  1  0  0  0  0
  4  5  1  0  0  0  0
  4 12  1  0  0  0  0
  5 13  1  0  0  0  0
  6  7  1  0  0  0  0
  6  5  2  0  0  0  0
  7  8  2  0  0  0  0
  9  7  2  0  0  0  0
 10  6  1  0  0  0  0
 11 10  2  0  0  0  0
 11  1  1  0  0  0  0
 14 10  1  0  0  0  0
 15 11  1  0  0  0  0
 16 17  1  0  0  0  0
 16 20  1  0  0  0  0
 18 16  1  0  0  0  0
 19 16  1  0  0  0  0
M  RAD  2   2   2   3   3
M  END
