Coordinates from ORCA-job 4-NO2PhN2+~BF4-_B3LYPG-6-31G_dp-NX-Scan-d89-09-n800
 OpenBabel11261920313D

 20 19  0  0  0  0  0  0  0  0999 V2000
   -1.8733   -1.0618    0.1380 C   0  0  0  0  0  0  0  0  0  0  0  0
   -2.3695   -2.3281    0.1299 N   0  0  0  0  0  0  0  0  0  0  0  0
   -2.7313   -3.3908    0.1468 N   0  0  0  0  0  0  0  0  0  0  0  0
   -2.2898   -0.1788    1.1624 C   0  0  0  0  0  0  0  0  0  0  0  0
   -1.6845    1.0596    1.2324 C   0  0  0  0  0  0  0  0  0  0  0  0
   -0.7246    1.3917    0.2717 C   0  0  0  0  0  0  0  0  0  0  0  0
    0.0509    2.6467    0.4594 N   0  0  0  0  0  0  0  0  0  0  0  0
   -0.2089    3.3105    1.4529 O   0  0  0  0  0  0  0  0  0  0  0  0
    0.9256    2.8825   -0.3639 O   0  0  0  0  0  0  0  0  0  0  0  0
   -0.3394    0.5313   -0.7647 C   0  0  0  0  0  0  0  0  0  0  0  0
   -0.9193   -0.7137   -0.8520 C   0  0  0  0  0  0  0  0  0  0  0  0
   -3.0523   -0.4765    1.8725 H   0  0  0  0  0  0  0  0  0  0  0  0
   -1.9682    1.7925    1.9730 H   0  0  0  0  0  0  0  0  0  0  0  0
    0.3991    0.8694   -1.4800 H   0  0  0  0  0  0  0  0  0  0  0  0
   -0.6516   -1.4168   -1.6319 H   0  0  0  0  0  0  0  0  0  0  0  0
   -3.3356    2.6214   -0.8960 B   0  0  0  0  0  0  0  0  0  0  0  0
   -4.0804    3.5007   -1.6477 F   0  0  0  0  0  0  0  0  0  0  0  0
   -3.5456    1.2707   -1.2502 F   0  0  0  0  0  0  0  0  0  0  0  0
   -1.9273    2.8893   -1.1110 F   0  0  0  0  0  0  0  0  0  0  0  0
   -3.5805    2.7663    0.4840 F   0  0  0  0  0  0  0  0  0  0  0  0
  1  4  2  0  0  0  0
  2  1  1  0  0  0  0
  2  3  1  0  0  0  0
  4  5  1  0  0  0  0
  4 12  1  0  0  0  0
  5 13  1  0  0  0  0
  6  7  1  0  0  0  0
  6  5  2  0  0  0  0
  7  8  2  0  0  0  0
  9  7  2  0  0  0  0
 10  6  1  0  0  0  0
 11 10  2  0  0  0  0
 11  1  1  0  0  0  0
 14 10  1  0  0  0  0
 15 11  1  0  0  0  0
 16 20  1  0  0  0  0
 17 16  1  0  0  0  0
 18 16  1  0  0  0  0
 19 16  1  0  0  0  0
M  RAD  2   2   2   3   3
M  END
