Coordinates from ORCA-job 4-NO2PhN2+~BF4-_B3LYPG-6-31G_dp-NX-Scan-d89-09-n800
 OpenBabel11261920323D

 20 19  0  0  0  0  0  0  0  0999 V2000
   -1.9412   -0.5429   -0.0130 C   0  0  0  0  0  0  0  0  0  0  0  0
   -2.7732   -1.6085   -0.2534 N   0  0  0  0  0  0  0  0  0  0  0  0
   -3.3618   -2.5433   -0.4100 N   0  0  0  0  0  0  0  0  0  0  0  0
   -2.2287    0.2913    1.0792 C   0  0  0  0  0  0  0  0  0  0  0  0
   -1.3337    1.3230    1.3378 C   0  0  0  0  0  0  0  0  0  0  0  0
   -0.2370    1.4834    0.5030 C   0  0  0  0  0  0  0  0  0  0  0  0
    0.7095    2.5888    0.7912 N   0  0  0  0  0  0  0  0  0  0  0  0
    0.4809    3.2772    1.7792 O   0  0  0  0  0  0  0  0  0  0  0  0
    1.6595    2.7221    0.0259 O   0  0  0  0  0  0  0  0  0  0  0  0
    0.0247    0.6689   -0.6035 C   0  0  0  0  0  0  0  0  0  0  0  0
   -0.8424   -0.3680   -0.8803 C   0  0  0  0  0  0  0  0  0  0  0  0
   -3.1226    0.1520    1.6690 H   0  0  0  0  0  0  0  0  0  0  0  0
   -1.5025    2.0159    2.1511 H   0  0  0  0  0  0  0  0  0  0  0  0
    0.8871    0.8696   -1.2252 H   0  0  0  0  0  0  0  0  0  0  0  0
   -0.6997   -1.0210   -1.7326 H   0  0  0  0  0  0  0  0  0  0  0  0
   -3.9441    1.7591   -1.0021 B   0  0  0  0  0  0  0  0  0  0  0  0
   -4.7860    2.6255   -1.6625 F   0  0  0  0  0  0  0  0  0  0  0  0
   -4.2469    0.3836   -1.2732 F   0  0  0  0  0  0  0  0  0  0  0  0
   -2.5956    1.9674   -1.3658 F   0  0  0  0  0  0  0  0  0  0  0  0
   -4.0529    1.9222    0.4113 F   0  0  0  0  0  0  0  0  0  0  0  0
  1  4  2  0  0  0  0
  2  1  1  0  0  0  0
  3  2  1  0  0  0  0
  4  5  1  0  0  0  0
  4 12  1  0  0  0  0
  5 13  1  0  0  0  0
  6  7  1  0  0  0  0
  6  5  2  0  0  0  0
  7  8  2  0  0  0  0
  9  7  2  0  0  0  0
 10  6  1  0  0  0  0
 11 10  2  0  0  0  0
 11  1  1  0  0  0  0
 14 10  1  0  0  0  0
 15 11  1  0  0  0  0
 16 20  1  0  0  0  0
 17 16  1  0  0  0  0
 18 16  1  0  0  0  0
 19 16  1  0  0  0  0
M  RAD  2   2   2   3   3
M  END
