Coordinates from ORCA-job 4-NO2PhN2+~BF4-_B3LYPG-6-31G_dp-NX-Scan-d89-09-n800
 OpenBabel11261920313D

 20 19  0  0  0  0  0  0  0  0999 V2000
   -1.9013   -0.9798    0.1336 C   0  0  0  0  0  0  0  0  0  0  0  0
   -2.5054   -2.1945    0.0600 N   0  0  0  0  0  0  0  0  0  0  0  0
   -2.9714   -3.2137    0.0155 N   0  0  0  0  0  0  0  0  0  0  0  0
   -2.2610   -0.1151    1.1915 C   0  0  0  0  0  0  0  0  0  0  0  0
   -1.6007    1.0933    1.2859 C   0  0  0  0  0  0  0  0  0  0  0  0
   -0.6488    1.4118    0.3157 C   0  0  0  0  0  0  0  0  0  0  0  0
    0.1231    2.6704    0.4774 N   0  0  0  0  0  0  0  0  0  0  0  0
   -0.1156    3.3405    1.4729 O   0  0  0  0  0  0  0  0  0  0  0  0
    0.9699    2.9123   -0.3732 O   0  0  0  0  0  0  0  0  0  0  0  0
   -0.3014    0.5604   -0.7395 C   0  0  0  0  0  0  0  0  0  0  0  0
   -0.9385   -0.6542   -0.8533 C   0  0  0  0  0  0  0  0  0  0  0  0
   -3.0367   -0.3926    1.8949 H   0  0  0  0  0  0  0  0  0  0  0  0
   -1.8450    1.8163    2.0503 H   0  0  0  0  0  0  0  0  0  0  0  0
    0.4388    0.8871   -1.4580 H   0  0  0  0  0  0  0  0  0  0  0  0
   -0.7180   -1.3444   -1.6589 H   0  0  0  0  0  0  0  0  0  0  0  0
   -3.3540    2.4464   -0.9106 B   0  0  0  0  0  0  0  0  0  0  0  0
   -4.1693    3.2362   -1.6862 F   0  0  0  0  0  0  0  0  0  0  0  0
   -3.3774    1.0864   -1.3168 F   0  0  0  0  0  0  0  0  0  0  0  0
   -1.9911    2.8973   -1.0300 F   0  0  0  0  0  0  0  0  0  0  0  0
   -3.7025    2.5020    0.4548 F   0  0  0  0  0  0  0  0  0  0  0  0
  1  4  2  0  0  0  0
  2  1  1  0  0  0  0
  3  2  1  0  0  0  0
  4  5  1  0  0  0  0
  4 12  1  0  0  0  0
  5 13  1  0  0  0  0
  6  7  1  0  0  0  0
  6  5  2  0  0  0  0
  7  8  2  0  0  0  0
  9  7  2  0  0  0  0
 10  6  1  0  0  0  0
 11 10  2  0  0  0  0
 11  1  1  0  0  0  0
 14 10  1  0  0  0  0
 15 11  1  0  0  0  0
 16 20  1  0  0  0  0
 17 16  1  0  0  0  0
 18 16  1  0  0  0  0
 19 16  1  0  0  0  0
M  RAD  2   2   2   3   3
M  END
