Coordinates from ORCA-job 4-NO2PhN2+~BF4-_B3LYPG-6-31G_dp-NX-Scan-d89-09-n800
 OpenBabel11261920323D

 20 19  0  0  0  0  0  0  0  0999 V2000
   -1.9104   -0.9117    0.1333 C   0  0  0  0  0  0  0  0  0  0  0  0
   -2.6173   -2.0635   -0.0033 N   0  0  0  0  0  0  0  0  0  0  0  0
   -3.1808   -3.0263   -0.1071 N   0  0  0  0  0  0  0  0  0  0  0  0
   -2.2348   -0.0553    1.2068 C   0  0  0  0  0  0  0  0  0  0  0  0
   -1.5235    1.1226    1.3223 C   0  0  0  0  0  0  0  0  0  0  0  0
   -0.5685    1.4213    0.3524 C   0  0  0  0  0  0  0  0  0  0  0  0
    0.1941    2.6873    0.4874 N   0  0  0  0  0  0  0  0  0  0  0  0
   -0.0357    3.3693    1.4774 O   0  0  0  0  0  0  0  0  0  0  0  0
    1.0202    2.9309   -0.3835 O   0  0  0  0  0  0  0  0  0  0  0  0
   -0.2385    0.5673   -0.7054 C   0  0  0  0  0  0  0  0  0  0  0  0
   -0.9226   -0.6199   -0.8376 C   0  0  0  0  0  0  0  0  0  0  0  0
   -3.0361   -0.3017    1.8921 H   0  0  0  0  0  0  0  0  0  0  0  0
   -1.7476    1.8458    2.0932 H   0  0  0  0  0  0  0  0  0  0  0  0
    0.5139    0.8758   -1.4193 H   0  0  0  0  0  0  0  0  0  0  0  0
   -0.7328   -1.3039   -1.6559 H   0  0  0  0  0  0  0  0  0  0  0  0
   -3.4058    2.3006   -0.9189 B   0  0  0  0  0  0  0  0  0  0  0  0
   -4.2709    3.0591   -1.6707 F   0  0  0  0  0  0  0  0  0  0  0  0
   -3.3161    0.9672   -1.4074 F   0  0  0  0  0  0  0  0  0  0  0  0
   -2.0894    2.8637   -0.9667 F   0  0  0  0  0  0  0  0  0  0  0  0
   -3.8037    2.2375    0.4369 F   0  0  0  0  0  0  0  0  0  0  0  0
  1  4  2  0  0  0  0
  2  1  1  0  0  0  0
  3  2  1  0  0  0  0
  4  5  1  0  0  0  0
  4 12  1  0  0  0  0
  5 13  1  0  0  0  0
  6  7  1  0  0  0  0
  6  5  2  0  0  0  0
  7  8  2  0  0  0  0
  9  7  2  0  0  0  0
 10  6  1  0  0  0  0
 11 10  2  0  0  0  0
 11  1  1  0  0  0  0
 14 10  1  0  0  0  0
 15 11  1  0  0  0  0
 16 20  1  0  0  0  0
 17 16  1  0  0  0  0
 18 16  1  0  0  0  0
 19 16  1  0  0  0  0
M  RAD  2   2   2   3   3
M  END
