Coordinates from ORCA-job 4-NO2PhN2+~BF4-_B3LYPG-6-31G_dp-NX-Scan-d89-09-n800
 OpenBabel11261920323D

 20 19  0  0  0  0  0  0  0  0999 V2000
   -2.1442    0.2487    0.3740 C   0  0  0  0  0  0  0  0  0  0  0  0
   -3.3337   -0.4293    0.1091 N   0  0  0  0  0  0  0  0  0  0  0  0
   -4.2524   -1.0489    0.0192 N   0  0  0  0  0  0  0  0  0  0  0  0
   -1.7757    0.3482    1.7258 C   0  0  0  0  0  0  0  0  0  0  0  0
   -0.5813    0.9896    2.0194 C   0  0  0  0  0  0  0  0  0  0  0  0
    0.1854    1.4848    0.9638 C   0  0  0  0  0  0  0  0  0  0  0  0
    1.4671    2.1606    1.2888 N   0  0  0  0  0  0  0  0  0  0  0  0
    1.7670    2.2437    2.4758 O   0  0  0  0  0  0  0  0  0  0  0  0
    2.1300    2.5814    0.3481 O   0  0  0  0  0  0  0  0  0  0  0  0
   -0.1893    1.3754   -0.3731 C   0  0  0  0  0  0  0  0  0  0  0  0
   -1.3890    0.7486   -0.6943 C   0  0  0  0  0  0  0  0  0  0  0  0
   -2.4081   -0.0544    2.5083 H   0  0  0  0  0  0  0  0  0  0  0  0
   -0.2353    1.1099    3.0380 H   0  0  0  0  0  0  0  0  0  0  0  0
    0.4502    1.7861   -1.1440 H   0  0  0  0  0  0  0  0  0  0  0  0
   -1.7655    0.6293   -1.7072 H   0  0  0  0  0  0  0  0  0  0  0  0
   -4.3942    0.7776   -2.3616 B   0  0  0  0  0  0  0  0  0  0  0  0
   -5.4444   -0.0659   -1.9614 F   0  0  0  0  0  0  0  0  0  0  0  0
   -3.2627   -0.0522   -2.6629 F   0  0  0  0  0  0  0  0  0  0  0  0
   -4.7220    1.5777   -3.4195 F   0  0  0  0  0  0  0  0  0  0  0  0
   -4.0083    1.5552   -1.2205 F   0  0  0  0  0  0  0  0  0  0  0  0
  1  4  2  0  0  0  0
  2  1  1  0  0  0  0
  3  2  1  0  0  0  0
  4  5  1  0  0  0  0
  4 12  1  0  0  0  0
  5 13  1  0  0  0  0
  6  7  1  0  0  0  0
  6  5  2  0  0  0  0
  7  8  2  0  0  0  0
  9  7  2  0  0  0  0
 10  6  1  0  0  0  0
 11 10  2  0  0  0  0
 11  1  1  0  0  0  0
 14 10  1  0  0  0  0
 15 11  1  0  0  0  0
 16 17  1  0  0  0  0
 16 20  1  0  0  0  0
 18 16  1  0  0  0  0
 19 16  1  0  0  0  0
M  RAD  2   2   2   3   3
M  END
