Coordinates from ORCA-job 4-NO2PhN2+~BF4-_B3LYPG-6-31G_dp-NX-Scan-d89-09-n800
 OpenBabel11261920323D

 20 19  0  0  0  0  0  0  0  0999 V2000
   -1.9431   -0.5266   -0.0126 C   0  0  0  0  0  0  0  0  0  0  0  0
   -2.7880   -1.5812   -0.2610 N   0  0  0  0  0  0  0  0  0  0  0  0
   -3.3856   -2.5089   -0.4225 N   0  0  0  0  0  0  0  0  0  0  0  0
   -2.2227    0.3035    1.0845 C   0  0  0  0  0  0  0  0  0  0  0  0
   -1.3203    1.3277    1.3465 C   0  0  0  0  0  0  0  0  0  0  0  0
   -0.2246    1.4859    0.5095 C   0  0  0  0  0  0  0  0  0  0  0  0
    0.7301    2.5834    0.8016 N   0  0  0  0  0  0  0  0  0  0  0  0
    0.5073    3.2691    1.7928 O   0  0  0  0  0  0  0  0  0  0  0  0
    1.6799    2.7138    0.0356 O   0  0  0  0  0  0  0  0  0  0  0  0
    0.0290    0.6754   -0.6015 C   0  0  0  0  0  0  0  0  0  0  0  0
   -0.8459   -0.3546   -0.8812 C   0  0  0  0  0  0  0  0  0  0  0  0
   -3.1165    0.1669    1.6749 H   0  0  0  0  0  0  0  0  0  0  0  0
   -1.4809    2.0159    2.1655 H   0  0  0  0  0  0  0  0  0  0  0  0
    0.8914    0.8734   -1.2242 H   0  0  0  0  0  0  0  0  0  0  0  0
   -0.7100   -1.0034   -1.7379 H   0  0  0  0  0  0  0  0  0  0  0  0
   -3.9600    1.7338   -1.0116 B   0  0  0  0  0  0  0  0  0  0  0  0
   -4.8108    2.5832   -1.6819 F   0  0  0  0  0  0  0  0  0  0  0  0
   -4.2457    0.3516   -1.2782 F   0  0  0  0  0  0  0  0  0  0  0  0
   -2.6133    1.9560   -1.3717 F   0  0  0  0  0  0  0  0  0  0  0  0
   -4.0770    1.9012    0.3991 F   0  0  0  0  0  0  0  0  0  0  0  0
  1  4  2  0  0  0  0
  2  1  1  0  0  0  0
  3  2  1  0  0  0  0
  4  5  1  0  0  0  0
  4 12  1  0  0  0  0
  5 13  1  0  0  0  0
  6  7  1  0  0  0  0
  6  5  2  0  0  0  0
  7  8  2  0  0  0  0
  9  7  2  0  0  0  0
 10  6  1  0  0  0  0
 11 10  2  0  0  0  0
 11  1  1  0  0  0  0
 14 10  1  0  0  0  0
 15 11  1  0  0  0  0
 16 20  1  0  0  0  0
 17 16  1  0  0  0  0
 18 16  1  0  0  0  0
 19 16  1  0  0  0  0
M  RAD  2   2   2   3   3
M  END
