Coordinates from ORCA-job 4-NO2PhN2+~BF4-_B3LYPG-6-31G_dp-NX-Scan-d89-09-n800
 OpenBabel11261920313D

 20 19  0  0  0  0  0  0  0  0999 V2000
   -1.6011   -1.3760    0.1757 C   0  0  0  0  0  0  0  0  0  0  0  0
   -1.9820   -2.6820    0.2843 N   0  0  0  0  0  0  0  0  0  0  0  0
   -2.2656   -3.7622    0.3840 N   0  0  0  0  0  0  0  0  0  0  0  0
   -2.3715   -0.3730    0.8211 C   0  0  0  0  0  0  0  0  0  0  0  0
   -1.9193    0.9323    0.7644 C   0  0  0  0  0  0  0  0  0  0  0  0
   -0.7368    1.1905    0.0603 C   0  0  0  0  0  0  0  0  0  0  0  0
   -0.1388    2.5464    0.1209 N   0  0  0  0  0  0  0  0  0  0  0  0
   -0.3660    3.1844    1.1355 O   0  0  0  0  0  0  0  0  0  0  0  0
    0.5971    2.8607   -0.8058 O   0  0  0  0  0  0  0  0  0  0  0  0
   -0.0058    0.2117   -0.6217 C   0  0  0  0  0  0  0  0  0  0  0  0
   -0.4266   -1.1031   -0.5653 C   0  0  0  0  0  0  0  0  0  0  0  0
   -3.2923   -0.6274    1.3336 H   0  0  0  0  0  0  0  0  0  0  0  0
   -2.4920    1.7708    1.1757 H   0  0  0  0  0  0  0  0  0  0  0  0
    0.8791    0.5012   -1.1751 H   0  0  0  0  0  0  0  0  0  0  0  0
    0.1204   -1.9012   -1.0535 H   0  0  0  0  0  0  0  0  0  0  0  0
   -3.6127    3.3430   -0.5588 B   0  0  0  0  0  0  0  0  0  0  0  0
   -3.8258    4.6547   -0.9249 F   0  0  0  0  0  0  0  0  0  0  0  0
   -4.6041    2.4768   -1.0066 F   0  0  0  0  0  0  0  0  0  0  0  0
   -2.3475    2.8844   -1.0863 F   0  0  0  0  0  0  0  0  0  0  0  0
   -3.5152    3.2340    0.8685 F   0  0  0  0  0  0  0  0  0  0  0  0
  1  2  1  0  0  0  0
  1  4  2  0  0  0  0
  2  3  1  0  0  0  0
  4 12  1  0  0  0  0
  5  4  1  0  0  0  0
  5 13  1  0  0  0  0
  6  7  1  0  0  0  0
  6  5  2  0  0  0  0
  7  8  2  0  0  0  0
  9  7  2  0  0  0  0
 10 11  2  0  0  0  0
 10  6  1  0  0  0  0
 11  1  1  0  0  0  0
 14 10  1  0  0  0  0
 15 11  1  0  0  0  0
 16 20  1  0  0  0  0
 17 16  1  0  0  0  0
 18 16  1  0  0  0  0
 19 16  1  0  0  0  0
M  RAD  2   2   2   3   3
M  END
