Coordinates from ORCA-job 4-NO2PhN2+~BF4-_B3LYPG-6-31G_dp-NX-Scan-d89-09-n800
 OpenBabel11261920323D

 20 19  0  0  0  0  0  0  0  0999 V2000
   -2.1373    0.1736    0.3722 C   0  0  0  0  0  0  0  0  0  0  0  0
   -3.3039   -0.5591    0.1437 N   0  0  0  0  0  0  0  0  0  0  0  0
   -4.1771   -1.2437    0.1321 N   0  0  0  0  0  0  0  0  0  0  0  0
   -1.7574    0.3073    1.7176 C   0  0  0  0  0  0  0  0  0  0  0  0
   -0.5841    0.9969    1.9878 C   0  0  0  0  0  0  0  0  0  0  0  0
    0.1490    1.5091    0.9173 C   0  0  0  0  0  0  0  0  0  0  0  0
    1.4063    2.2397    1.2178 N   0  0  0  0  0  0  0  0  0  0  0  0
    1.7191    2.3455    2.3997 O   0  0  0  0  0  0  0  0  0  0  0  0
    2.0379    2.6782    0.2639 O   0  0  0  0  0  0  0  0  0  0  0  0
   -0.2382    1.3682   -0.4136 C   0  0  0  0  0  0  0  0  0  0  0  0
   -1.4143    0.6889   -0.7106 C   0  0  0  0  0  0  0  0  0  0  0  0
   -2.3645   -0.1071    2.5138 H   0  0  0  0  0  0  0  0  0  0  0  0
   -0.2311    1.1428    3.0005 H   0  0  0  0  0  0  0  0  0  0  0  0
    0.3724    1.7961   -1.1984 H   0  0  0  0  0  0  0  0  0  0  0  0
   -1.7964    0.5380   -1.7151 H   0  0  0  0  0  0  0  0  0  0  0  0
   -4.3540    0.8422   -2.2991 B   0  0  0  0  0  0  0  0  0  0  0  0
   -5.6454    0.3744   -2.3981 F   0  0  0  0  0  0  0  0  0  0  0  0
   -3.4396   -0.2868   -2.3569 F   0  0  0  0  0  0  0  0  0  0  0  0
   -4.0021    1.7579   -3.2609 F   0  0  0  0  0  0  0  0  0  0  0  0
   -4.1457    1.4041   -0.9877 F   0  0  0  0  0  0  0  0  0  0  0  0
  1  4  2  0  0  0  0
  2  1  1  0  0  0  0
  3  2  1  0  0  0  0
  4  5  1  0  0  0  0
  4 12  1  0  0  0  0
  5 13  1  0  0  0  0
  6  7  1  0  0  0  0
  6  5  2  0  0  0  0
  7  8  2  0  0  0  0
  9  7  2  0  0  0  0
 10  6  1  0  0  0  0
 11 10  2  0  0  0  0
 11  1  1  0  0  0  0
 14 10  1  0  0  0  0
 15 11  1  0  0  0  0
 16 20  1  0  0  0  0
 17 16  1  0  0  0  0
 18 16  1  0  0  0  0
 19 16  1  0  0  0  0
M  RAD  2   2   2   3   3
M  END
