Coordinates from ORCA-job 4-NO2PhN2+~BF4-_B3LYPG-6-31G_dp-NX-Scan-d89-09-n800
 OpenBabel11261920323D

 20 19  0  0  0  0  0  0  0  0999 V2000
   -2.1473    0.2570    0.3779 C   0  0  0  0  0  0  0  0  0  0  0  0
   -3.3408   -0.4120    0.1105 N   0  0  0  0  0  0  0  0  0  0  0  0
   -4.2703   -1.0138    0.0015 N   0  0  0  0  0  0  0  0  0  0  0  0
   -1.7755    0.3498    1.7293 C   0  0  0  0  0  0  0  0  0  0  0  0
   -0.5785    0.9858    2.0237 C   0  0  0  0  0  0  0  0  0  0  0  0
    0.1888    1.4818    0.9689 C   0  0  0  0  0  0  0  0  0  0  0  0
    1.4732    2.1518    1.2944 N   0  0  0  0  0  0  0  0  0  0  0  0
    1.7755    2.2292    2.4812 O   0  0  0  0  0  0  0  0  0  0  0  0
    2.1370    2.5725    0.3542 O   0  0  0  0  0  0  0  0  0  0  0  0
   -0.1880    1.3781   -0.3679 C   0  0  0  0  0  0  0  0  0  0  0  0
   -1.3908    0.7573   -0.6897 C   0  0  0  0  0  0  0  0  0  0  0  0
   -2.4083   -0.0537    2.5111 H   0  0  0  0  0  0  0  0  0  0  0  0
   -0.2307    1.1011    3.0422 H   0  0  0  0  0  0  0  0  0  0  0  0
    0.4524    1.7884   -1.1382 H   0  0  0  0  0  0  0  0  0  0  0  0
   -1.7673    0.6437   -1.7034 H   0  0  0  0  0  0  0  0  0  0  0  0
   -4.3923    0.7704   -2.3709 B   0  0  0  0  0  0  0  0  0  0  0  0
   -5.3971   -0.1118   -1.9183 F   0  0  0  0  0  0  0  0  0  0  0  0
   -3.2463   -0.0223   -2.7010 F   0  0  0  0  0  0  0  0  0  0  0  0
   -4.7961    1.5371   -3.4259 F   0  0  0  0  0  0  0  0  0  0  0  0
   -4.0041    1.5756   -1.2538 F   0  0  0  0  0  0  0  0  0  0  0  0
  1  4  2  0  0  0  0
  2  1  1  0  0  0  0
  3  2  1  0  0  0  0
  4  5  1  0  0  0  0
  4 12  1  0  0  0  0
  5 13  1  0  0  0  0
  6  7  1  0  0  0  0
  6  5  2  0  0  0  0
  7  8  2  0  0  0  0
  9  7  2  0  0  0  0
 10  6  1  0  0  0  0
 11 10  2  0  0  0  0
 11  1  1  0  0  0  0
 14 10  1  0  0  0  0
 15 11  1  0  0  0  0
 16 17  1  0  0  0  0
 16 20  1  0  0  0  0
 18 16  1  0  0  0  0
 19 16  1  0  0  0  0
M  RAD  2   2   2   3   3
M  END
