Coordinates from ORCA-job 4-NO2PhN2+~BF4-_B3LYPG-6-31G_dp-NX-Scan-d89-09-n800
 OpenBabel11261920323D

 20 19  0  0  0  0  0  0  0  0999 V2000
   -2.1557    0.1624    0.3919 C   0  0  0  0  0  0  0  0  0  0  0  0
   -3.3206   -0.5807    0.1923 N   0  0  0  0  0  0  0  0  0  0  0  0
   -4.2002   -1.2561    0.1867 N   0  0  0  0  0  0  0  0  0  0  0  0
   -1.7390    0.2848    1.7282 C   0  0  0  0  0  0  0  0  0  0  0  0
   -0.5674    0.9849    1.9763 C   0  0  0  0  0  0  0  0  0  0  0  0
    0.1301    1.5196    0.8931 C   0  0  0  0  0  0  0  0  0  0  0  0
    1.3881    2.2590    1.1684 N   0  0  0  0  0  0  0  0  0  0  0  0
    1.7295    2.3573    2.3431 O   0  0  0  0  0  0  0  0  0  0  0  0
    1.9918    2.7114    0.2031 O   0  0  0  0  0  0  0  0  0  0  0  0
   -0.2939    1.3934   -0.4276 C   0  0  0  0  0  0  0  0  0  0  0  0
   -1.4687    0.7024   -0.7033 C   0  0  0  0  0  0  0  0  0  0  0  0
   -2.3191   -0.1471    2.5352 H   0  0  0  0  0  0  0  0  0  0  0  0
   -0.1888    1.1217    2.9810 H   0  0  0  0  0  0  0  0  0  0  0  0
    0.2879    1.8400   -1.2239 H   0  0  0  0  0  0  0  0  0  0  0  0
   -1.8674    0.5722   -1.7034 H   0  0  0  0  0  0  0  0  0  0  0  0
   -4.2975    0.8339   -2.2817 B   0  0  0  0  0  0  0  0  0  0  0  0
   -5.5769    0.5557   -2.6843 F   0  0  0  0  0  0  0  0  0  0  0  0
   -3.5211   -0.3934   -2.2580 F   0  0  0  0  0  0  0  0  0  0  0  0
   -3.6190    1.7449   -3.0707 F   0  0  0  0  0  0  0  0  0  0  0  0
   -4.2986    1.2997   -0.9206 F   0  0  0  0  0  0  0  0  0  0  0  0
  1  4  2  0  0  0  0
  2  1  1  0  0  0  0
  3  2  1  0  0  0  0
  4  5  1  0  0  0  0
  4 12  1  0  0  0  0
  5 13  1  0  0  0  0
  6  7  1  0  0  0  0
  6  5  2  0  0  0  0
  7  8  2  0  0  0  0
  9  7  2  0  0  0  0
 10  6  1  0  0  0  0
 11 10  2  0  0  0  0
 11  1  1  0  0  0  0
 14 10  1  0  0  0  0
 15 11  1  0  0  0  0
 16 18  1  0  0  0  0
 16 20  1  0  0  0  0
 17 16  1  0  0  0  0
 19 16  1  0  0  0  0
M  RAD  2   2   2   3   3
M  END
