Coordinates from ORCA-job 4-NO2PhN2+~BF4-_B3LYPG-6-31G_dp-NX-Scan-d89-09-n800
 OpenBabel11261920313D

 20 19  0  0  0  0  0  0  0  0999 V2000
   -1.7375   -1.2187    0.1163 C   0  0  0  0  0  0  0  0  0  0  0  0
   -2.2045   -2.4985    0.1429 N   0  0  0  0  0  0  0  0  0  0  0  0
   -2.5554   -3.5630    0.1818 N   0  0  0  0  0  0  0  0  0  0  0  0
   -2.3813   -0.2378    0.9105 C   0  0  0  0  0  0  0  0  0  0  0  0
   -1.8251    1.0254    0.9505 C   0  0  0  0  0  0  0  0  0  0  0  0
   -0.7045    1.2858    0.1588 C   0  0  0  0  0  0  0  0  0  0  0  0
   -0.0274    2.6014    0.2854 N   0  0  0  0  0  0  0  0  0  0  0  0
   -0.2910    3.2534    1.2832 O   0  0  0  0  0  0  0  0  0  0  0  0
    0.7873    2.8850   -0.5845 O   0  0  0  0  0  0  0  0  0  0  0  0
   -0.0982    0.3312   -0.6676 C   0  0  0  0  0  0  0  0  0  0  0  0
   -0.6056   -0.9508   -0.6942 C   0  0  0  0  0  0  0  0  0  0  0  0
   -3.2858   -0.4721    1.4588 H   0  0  0  0  0  0  0  0  0  0  0  0
   -2.3050    1.8473    1.4741 H   0  0  0  0  0  0  0  0  0  0  0  0
    0.7571    0.6182   -1.2664 H   0  0  0  0  0  0  0  0  0  0  0  0
   -0.1581   -1.7327   -1.2965 H   0  0  0  0  0  0  0  0  0  0  0  0
   -3.4871    2.9778   -0.6372 B   0  0  0  0  0  0  0  0  0  0  0  0
   -4.1925    3.9163   -1.3531 F   0  0  0  0  0  0  0  0  0  0  0  0
   -4.0614    1.6893   -0.7084 F   0  0  0  0  0  0  0  0  0  0  0  0
   -2.1467    2.8668   -1.1569 F   0  0  0  0  0  0  0  0  0  0  0  0
   -3.3838    3.3418    0.7283 F   0  0  0  0  0  0  0  0  0  0  0  0
  1  2  1  0  0  0  0
  1  4  2  0  0  0  0
  2  3  1  0  0  0  0
  4  5  1  0  0  0  0
  4 12  1  0  0  0  0
  5 13  1  0  0  0  0
  6  7  1  0  0  0  0
  6  5  2  0  0  0  0
  7  8  2  0  0  0  0
  9  7  2  0  0  0  0
 10  6  1  0  0  0  0
 11 10  2  0  0  0  0
 11  1  1  0  0  0  0
 14 10  1  0  0  0  0
 15 11  1  0  0  0  0
 16 20  1  0  0  0  0
 17 16  1  0  0  0  0
 18 16  1  0  0  0  0
 19 16  1  0  0  0  0
M  RAD  2   2   2   3   3
M  END
