Coordinates from ORCA-job 4-NO2PhN2+~BF4-_B3LYPG-6-31G_dp-NX-Scan-d89-09-n800
 OpenBabel11261920323D

 20 19  0  0  0  0  0  0  0  0999 V2000
   -2.2786    0.2436    0.5684 C   0  0  0  0  0  0  0  0  0  0  0  0
   -3.5392   -0.3611    0.4545 N   0  0  0  0  0  0  0  0  0  0  0  0
   -4.3649   -0.7294   -0.2626 N   0  0  0  0  0  0  0  0  0  0  0  0
   -1.8157    0.4233    1.8805 C   0  0  0  0  0  0  0  0  0  0  0  0
   -0.5729    1.0075    2.0841 C   0  0  0  0  0  0  0  0  0  0  0  0
    0.1651    1.3891    0.9654 C   0  0  0  0  0  0  0  0  0  0  0  0
    1.4934    2.0120    1.1772 N   0  0  0  0  0  0  0  0  0  0  0  0
    1.8639    2.1580    2.3386 O   0  0  0  0  0  0  0  0  0  0  0  0
    2.1274    2.3352    0.1783 O   0  0  0  0  0  0  0  0  0  0  0  0
   -0.2889    1.2132   -0.3403 C   0  0  0  0  0  0  0  0  0  0  0  0
   -1.5331    0.6306   -0.5578 C   0  0  0  0  0  0  0  0  0  0  0  0
   -2.4320    0.1077    2.7143 H   0  0  0  0  0  0  0  0  0  0  0  0
   -0.1707    1.1706    3.0755 H   0  0  0  0  0  0  0  0  0  0  0  0
    0.3279    1.5366   -1.1692 H   0  0  0  0  0  0  0  0  0  0  0  0
   -1.9138    0.4993   -1.5613 H   0  0  0  0  0  0  0  0  0  0  0  0
   -4.2398    0.9994   -2.5103 B   0  0  0  0  0  0  0  0  0  0  0  0
   -3.9347   -0.4873   -1.8799 F   0  0  0  0  0  0  0  0  0  0  0  0
   -3.0883    1.2116   -3.2195 F   0  0  0  0  0  0  0  0  0  0  0  0
   -5.3653    0.8417   -3.2313 F   0  0  0  0  0  0  0  0  0  0  0  0
   -4.3463    1.7643   -1.3787 F   0  0  0  0  0  0  0  0  0  0  0  0
  1  4  2  0  0  0  0
  2  1  1  0  0  0  0
  3  2  2  0  0  0  0
  4  5  1  0  0  0  0
  4 12  1  0  0  0  0
  5 13  1  0  0  0  0
  6  7  1  0  0  0  0
  6  5  2  0  0  0  0
  7  8  2  0  0  0  0
  9  7  2  0  0  0  0
 10  6  1  0  0  0  0
 11 10  2  0  0  0  0
 11  1  1  0  0  0  0
 14 10  1  0  0  0  0
 15 11  1  0  0  0  0
 16 17  1  0  0  0  0
 16 20  1  0  0  0  0
 18 16  1  0  0  0  0
 19 16  1  0  0  0  0
M  RAD  1   3   2
M  END
