Coordinates from ORCA-job 4-NO2PhN2+~BF4-_B3LYPG-6-31G_dp-NX-Scan-d89-09-n800
 OpenBabel11261920323D

 20 19  0  0  0  0  0  0  0  0999 V2000
   -2.1453    0.2516    0.3756 C   0  0  0  0  0  0  0  0  0  0  0  0
   -3.3366   -0.4226    0.1097 N   0  0  0  0  0  0  0  0  0  0  0  0
   -4.2591   -1.0361    0.0127 N   0  0  0  0  0  0  0  0  0  0  0  0
   -1.7757    0.3489    1.7272 C   0  0  0  0  0  0  0  0  0  0  0  0
   -0.5803    0.9883    2.0209 C   0  0  0  0  0  0  0  0  0  0  0  0
    0.1866    1.4836    0.9656 C   0  0  0  0  0  0  0  0  0  0  0  0
    1.4693    2.1573    1.2906 N   0  0  0  0  0  0  0  0  0  0  0  0
    1.7699    2.2388    2.4776 O   0  0  0  0  0  0  0  0  0  0  0  0
    2.1324    2.5781    0.3501 O   0  0  0  0  0  0  0  0  0  0  0  0
   -0.1889    1.3762   -0.3713 C   0  0  0  0  0  0  0  0  0  0  0  0
   -1.3897    0.7515   -0.6927 C   0  0  0  0  0  0  0  0  0  0  0  0
   -2.4083   -0.0537    2.5095 H   0  0  0  0  0  0  0  0  0  0  0  0
   -0.2337    1.1070    3.0395 H   0  0  0  0  0  0  0  0  0  0  0  0
    0.4509    1.7867   -1.1420 H   0  0  0  0  0  0  0  0  0  0  0  0
   -1.7664    0.6341   -1.7057 H   0  0  0  0  0  0  0  0  0  0  0  0
   -4.3934    0.7748   -2.3648 B   0  0  0  0  0  0  0  0  0  0  0  0
   -5.4271   -0.0835   -1.9467 F   0  0  0  0  0  0  0  0  0  0  0  0
   -3.2560   -0.0408   -2.6773 F   0  0  0  0  0  0  0  0  0  0  0  0
   -4.7486    1.5646   -3.4213 F   0  0  0  0  0  0  0  0  0  0  0  0
   -4.0066    1.5613   -1.2313 F   0  0  0  0  0  0  0  0  0  0  0  0
  1  4  2  0  0  0  0
  2  1  1  0  0  0  0
  3  2  1  0  0  0  0
  4  5  1  0  0  0  0
  4 12  1  0  0  0  0
  5 13  1  0  0  0  0
  6  7  1  0  0  0  0
  6  5  2  0  0  0  0
  7  8  2  0  0  0  0
  9  7  2  0  0  0  0
 10  6  1  0  0  0  0
 11 10  2  0  0  0  0
 11  1  1  0  0  0  0
 14 10  1  0  0  0  0
 15 11  1  0  0  0  0
 16 17  1  0  0  0  0
 16 20  1  0  0  0  0
 18 16  1  0  0  0  0
 19 16  1  0  0  0  0
M  RAD  2   2   2   3   3
M  END
