Coordinates from ORCA-job 4-NO2PhN2+~BF4-_B3LYPG-6-31G_dp-NX-Scan-d89-09-n800
 OpenBabel11261920323D

 20 19  0  0  0  0  0  0  0  0999 V2000
   -2.2737    0.2630    0.5716 C   0  0  0  0  0  0  0  0  0  0  0  0
   -3.5272   -0.3376    0.4241 N   0  0  0  0  0  0  0  0  0  0  0  0
   -4.3974   -0.7312   -0.1966 N   0  0  0  0  0  0  0  0  0  0  0  0
   -1.8109    0.4215    1.8860 C   0  0  0  0  0  0  0  0  0  0  0  0
   -0.5665    1.0021    2.0867 C   0  0  0  0  0  0  0  0  0  0  0  0
    0.1643    1.3976    0.9671 C   0  0  0  0  0  0  0  0  0  0  0  0
    1.4956    2.0160    1.1808 N   0  0  0  0  0  0  0  0  0  0  0  0
    1.8710    2.1454    2.3424 O   0  0  0  0  0  0  0  0  0  0  0  0
    2.1244    2.3509    0.1830 O   0  0  0  0  0  0  0  0  0  0  0  0
   -0.2960    1.2408   -0.3386 C   0  0  0  0  0  0  0  0  0  0  0  0
   -1.5422    0.6622   -0.5585 C   0  0  0  0  0  0  0  0  0  0  0  0
   -2.4222    0.0959    2.7196 H   0  0  0  0  0  0  0  0  0  0  0  0
   -0.1568    1.1526    3.0771 H   0  0  0  0  0  0  0  0  0  0  0  0
    0.3158    1.5757   -1.1665 H   0  0  0  0  0  0  0  0  0  0  0  0
   -1.9345    0.5468   -1.5624 H   0  0  0  0  0  0  0  0  0  0  0  0
   -4.2221    0.9246   -2.5070 B   0  0  0  0  0  0  0  0  0  0  0  0
   -4.0559   -0.5197   -1.9523 F   0  0  0  0  0  0  0  0  0  0  0  0
   -3.0348    1.1310   -3.1884 F   0  0  0  0  0  0  0  0  0  0  0  0
   -5.3336    0.9265   -3.2797 F   0  0  0  0  0  0  0  0  0  0  0  0
   -4.3037    1.7021   -1.3626 F   0  0  0  0  0  0  0  0  0  0  0  0
  1  4  2  0  0  0  0
  2  1  1  0  0  0  0
  3  2  2  0  0  0  0
  4  5  1  0  0  0  0
  4 12  1  0  0  0  0
  5 13  1  0  0  0  0
  6  7  1  0  0  0  0
  6  5  2  0  0  0  0
  7  8  2  0  0  0  0
  9  7  2  0  0  0  0
 10  6  1  0  0  0  0
 11 10  2  0  0  0  0
 11  1  1  0  0  0  0
 14 10  1  0  0  0  0
 15 11  1  0  0  0  0
 16 17  1  0  0  0  0
 16 20  1  0  0  0  0
 18 16  1  0  0  0  0
 19 16  1  0  0  0  0
M  RAD  1   3   2
M  END
