Coordinates from ORCA-job 4-NO2PhN2+~BF4-_B3LYPG-6-31G_dp-NX-Scan-d89-09-n800
 OpenBabel11261920313D

 20 19  0  0  0  0  0  0  0  0999 V2000
   -1.9016   -0.9805    0.1333 C   0  0  0  0  0  0  0  0  0  0  0  0
   -2.5037   -2.1966    0.0611 N   0  0  0  0  0  0  0  0  0  0  0  0
   -2.9652   -3.2180    0.0195 N   0  0  0  0  0  0  0  0  0  0  0  0
   -2.2619   -0.1155    1.1909 C   0  0  0  0  0  0  0  0  0  0  0  0
   -1.6017    1.0929    1.2854 C   0  0  0  0  0  0  0  0  0  0  0  0
   -0.6496    1.4114    0.3153 C   0  0  0  0  0  0  0  0  0  0  0  0
    0.1228    2.6697    0.4776 N   0  0  0  0  0  0  0  0  0  0  0  0
   -0.1158    3.3395    1.4733 O   0  0  0  0  0  0  0  0  0  0  0  0
    0.9699    2.9115   -0.3728 O   0  0  0  0  0  0  0  0  0  0  0  0
   -0.3023    0.5601   -0.7400 C   0  0  0  0  0  0  0  0  0  0  0  0
   -0.9393   -0.6546   -0.8538 C   0  0  0  0  0  0  0  0  0  0  0  0
   -3.0375   -0.3932    1.8943 H   0  0  0  0  0  0  0  0  0  0  0  0
   -1.8459    1.8158    2.0499 H   0  0  0  0  0  0  0  0  0  0  0  0
    0.4380    0.8868   -1.4585 H   0  0  0  0  0  0  0  0  0  0  0  0
   -0.7186   -1.3448   -1.6593 H   0  0  0  0  0  0  0  0  0  0  0  0
   -3.3539    2.4490   -0.9109 B   0  0  0  0  0  0  0  0  0  0  0  0
   -4.1685    3.2404   -1.6864 F   0  0  0  0  0  0  0  0  0  0  0  0
   -3.3786    1.0890   -1.3172 F   0  0  0  0  0  0  0  0  0  0  0  0
   -1.9906    2.8985   -1.0303 F   0  0  0  0  0  0  0  0  0  0  0  0
   -3.7023    2.5048    0.4545 F   0  0  0  0  0  0  0  0  0  0  0  0
  1  4  2  0  0  0  0
  2  1  1  0  0  0  0
  3  2  1  0  0  0  0
  4  5  1  0  0  0  0
  4 12  1  0  0  0  0
  5 13  1  0  0  0  0
  6  7  1  0  0  0  0
  6  5  2  0  0  0  0
  7  8  2  0  0  0  0
  9  7  2  0  0  0  0
 10  6  1  0  0  0  0
 11 10  2  0  0  0  0
 11  1  1  0  0  0  0
 14 10  1  0  0  0  0
 15 11  1  0  0  0  0
 16 20  1  0  0  0  0
 17 16  1  0  0  0  0
 18 16  1  0  0  0  0
 19 16  1  0  0  0  0
M  RAD  2   2   2   3   3
M  END
