Coordinates from ORCA-job 4-NO2PhN2+~BF4-_B3LYPG-6-31G_dp-NX-Scan-d89-09-n800
 OpenBabel11261920323D

 20 19  0  0  0  0  0  0  0  0999 V2000
   -2.1415    0.1641    0.3786 C   0  0  0  0  0  0  0  0  0  0  0  0
   -3.3077   -0.5722    0.1601 N   0  0  0  0  0  0  0  0  0  0  0  0
   -4.1815   -1.2556    0.1523 N   0  0  0  0  0  0  0  0  0  0  0  0
   -1.7510    0.2971    1.7211 C   0  0  0  0  0  0  0  0  0  0  0  0
   -0.5798    0.9930    1.9837 C   0  0  0  0  0  0  0  0  0  0  0  0
    0.1413    1.5124    0.9086 C   0  0  0  0  0  0  0  0  0  0  0  0
    1.3959    2.2509    1.2007 N   0  0  0  0  0  0  0  0  0  0  0  0
    1.7172    2.3564    2.3804 O   0  0  0  0  0  0  0  0  0  0  0  0
    2.0170    2.6958    0.2430 O   0  0  0  0  0  0  0  0  0  0  0  0
   -0.2559    1.3721   -0.4194 C   0  0  0  0  0  0  0  0  0  0  0  0
   -1.4299    0.6859   -0.7089 C   0  0  0  0  0  0  0  0  0  0  0  0
   -2.3493   -0.1225    2.5213 H   0  0  0  0  0  0  0  0  0  0  0  0
   -0.2196    1.1387    2.9939 H   0  0  0  0  0  0  0  0  0  0  0  0
    0.3451    1.8061   -1.2083 H   0  0  0  0  0  0  0  0  0  0  0  0
   -1.8168    0.5373   -1.7116 H   0  0  0  0  0  0  0  0  0  0  0  0
   -4.3344    0.8459   -2.2926 B   0  0  0  0  0  0  0  0  0  0  0  0
   -5.6356    0.4491   -2.4884 F   0  0  0  0  0  0  0  0  0  0  0  0
   -3.4712   -0.3239   -2.3198 F   0  0  0  0  0  0  0  0  0  0  0  0
   -3.8666    1.7615   -3.2084 F   0  0  0  0  0  0  0  0  0  0  0  0
   -4.1824    1.3741   -0.9602 F   0  0  0  0  0  0  0  0  0  0  0  0
  1  4  2  0  0  0  0
  2  1  1  0  0  0  0
  3  2  1  0  0  0  0
  4  5  1  0  0  0  0
  4 12  1  0  0  0  0
  5 13  1  0  0  0  0
  6  7  1  0  0  0  0
  6  5  2  0  0  0  0
  7  8  2  0  0  0  0
  9  7  2  0  0  0  0
 10  6  1  0  0  0  0
 11 10  2  0  0  0  0
 11  1  1  0  0  0  0
 14 10  1  0  0  0  0
 15 11  1  0  0  0  0
 16 20  1  0  0  0  0
 17 16  1  0  0  0  0
 18 16  1  0  0  0  0
 19 16  1  0  0  0  0
M  RAD  2   2   2   3   3
M  END
