Coordinates from ORCA-job 4-NO2PhN2+~BF4-_B3LYPG-6-31G_dp-NX-Scan-d89-09-n800
 OpenBabel11261920323D

 20 19  0  0  0  0  0  0  0  0999 V2000
   -1.9059   -0.9387    0.1338 C   0  0  0  0  0  0  0  0  0  0  0  0
   -2.5773   -2.1135    0.0182 N   0  0  0  0  0  0  0  0  0  0  0  0
   -3.1103   -3.0958   -0.0678 N   0  0  0  0  0  0  0  0  0  0  0  0
   -2.2437   -0.0795    1.2018 C   0  0  0  0  0  0  0  0  0  0  0  0
   -1.5532    1.1112    1.3090 C   0  0  0  0  0  0  0  0  0  0  0  0
   -0.6001    1.4184    0.3384 C   0  0  0  0  0  0  0  0  0  0  0  0
    0.1638    2.6831    0.4825 N   0  0  0  0  0  0  0  0  0  0  0  0
   -0.0699    3.3605    1.4745 O   0  0  0  0  0  0  0  0  0  0  0  0
    0.9967    2.9274   -0.3814 O   0  0  0  0  0  0  0  0  0  0  0  0
   -0.2623    0.5654   -0.7180 C   0  0  0  0  0  0  0  0  0  0  0  0
   -0.9275   -0.6331   -0.8431 C   0  0  0  0  0  0  0  0  0  0  0  0
   -3.0352   -0.3387    1.8940 H   0  0  0  0  0  0  0  0  0  0  0  0
   -1.7855    1.8341    2.0774 H   0  0  0  0  0  0  0  0  0  0  0  0
    0.4849    0.8818   -1.4339 H   0  0  0  0  0  0  0  0  0  0  0  0
   -0.7257   -1.3195   -1.6566 H   0  0  0  0  0  0  0  0  0  0  0  0
   -3.3823    2.3547   -0.9138 B   0  0  0  0  0  0  0  0  0  0  0  0
   -4.2308    3.1189   -1.6780 F   0  0  0  0  0  0  0  0  0  0  0  0
   -3.3365    1.0064   -1.3624 F   0  0  0  0  0  0  0  0  0  0  0  0
   -2.0470    2.8762   -0.9966 F   0  0  0  0  0  0  0  0  0  0  0  0
   -3.7587    2.3470    0.4477 F   0  0  0  0  0  0  0  0  0  0  0  0
  1  4  2  0  0  0  0
  2  1  1  0  0  0  0
  3  2  1  0  0  0  0
  4  5  1  0  0  0  0
  4 12  1  0  0  0  0
  5 13  1  0  0  0  0
  6  7  1  0  0  0  0
  6  5  2  0  0  0  0
  7  8  2  0  0  0  0
  9  7  2  0  0  0  0
 10  6  1  0  0  0  0
 11 10  2  0  0  0  0
 11  1  1  0  0  0  0
 14 10  1  0  0  0  0
 15 11  1  0  0  0  0
 16 20  1  0  0  0  0
 17 16  1  0  0  0  0
 18 16  1  0  0  0  0
 19 16  1  0  0  0  0
M  RAD  2   2   2   3   3
M  END
