Coordinates from ORCA-job 4-NO2PhN2+~BF4-_B3LYPG-6-31G_dp-NX-Scan-d89-09-n800
 OpenBabel11261920313D

 20 19  0  0  0  0  0  0  0  0999 V2000
   -1.7903   -1.1676    0.1302 C   0  0  0  0  0  0  0  0  0  0  0  0
   -2.2449   -2.4495    0.1460 N   0  0  0  0  0  0  0  0  0  0  0  0
   -2.5821   -3.5198    0.1774 N   0  0  0  0  0  0  0  0  0  0  0  0
   -2.3345   -0.2388    1.0517 C   0  0  0  0  0  0  0  0  0  0  0  0
   -1.7769    1.0217    1.1041 C   0  0  0  0  0  0  0  0  0  0  0  0
   -0.7524    1.3399    0.2066 C   0  0  0  0  0  0  0  0  0  0  0  0
   -0.0312    2.6296    0.3810 N   0  0  0  0  0  0  0  0  0  0  0  0
   -0.3156    3.2848    1.3717 O   0  0  0  0  0  0  0  0  0  0  0  0
    0.8320    2.8933   -0.4469 O   0  0  0  0  0  0  0  0  0  0  0  0
   -0.2411    0.4343   -0.7337 C   0  0  0  0  0  0  0  0  0  0  0  0
   -0.7563   -0.8414   -0.7852 C   0  0  0  0  0  0  0  0  0  0  0  0
   -3.1583   -0.5192    1.6975 H   0  0  0  0  0  0  0  0  0  0  0  0
   -2.1771    1.8002    1.7390 H   0  0  0  0  0  0  0  0  0  0  0  0
    0.5486    0.7586   -1.3995 H   0  0  0  0  0  0  0  0  0  0  0  0
   -0.3832   -1.5819   -1.4831 H   0  0  0  0  0  0  0  0  0  0  0  0
   -3.3903    2.8407   -0.7743 B   0  0  0  0  0  0  0  0  0  0  0  0
   -4.0563    3.7784   -1.5282 F   0  0  0  0  0  0  0  0  0  0  0  0
   -3.9157    1.5426   -0.9128 F   0  0  0  0  0  0  0  0  0  0  0  0
   -2.0042    2.7751   -1.2089 F   0  0  0  0  0  0  0  0  0  0  0  0
   -3.3769    3.1851    0.5935 F   0  0  0  0  0  0  0  0  0  0  0  0
  1  2  1  0  0  0  0
  1  4  2  0  0  0  0
  2  3  1  0  0  0  0
  4  5  1  0  0  0  0
  4 12  1  0  0  0  0
  5 13  1  0  0  0  0
  6  7  1  0  0  0  0
  6  5  2  0  0  0  0
  7  8  2  0  0  0  0
  9  7  2  0  0  0  0
 10  6  1  0  0  0  0
 11 10  2  0  0  0  0
 11  1  1  0  0  0  0
 14 10  1  0  0  0  0
 15 11  1  0  0  0  0
 16 20  1  0  0  0  0
 17 16  1  0  0  0  0
 18 16  1  0  0  0  0
 19 16  1  0  0  0  0
M  RAD  2   2   2   3   3
M  END
