Coordinates from ORCA-job 4-NO2PhN2+~BF4-_B3LYPG-6-31G_dp-NX-Scan-d89-09-n800
 OpenBabel11261920323D

 20 19  0  0  0  0  0  0  0  0999 V2000
   -2.1325    0.2127    0.3557 C   0  0  0  0  0  0  0  0  0  0  0  0
   -3.3115   -0.4885    0.0988 N   0  0  0  0  0  0  0  0  0  0  0  0
   -4.2072   -1.1432    0.0514 N   0  0  0  0  0  0  0  0  0  0  0  0
   -1.7729    0.3305    1.7083 C   0  0  0  0  0  0  0  0  0  0  0  0
   -0.5902    0.9938    2.0017 C   0  0  0  0  0  0  0  0  0  0  0  0
    0.1716    1.4953    0.9460 C   0  0  0  0  0  0  0  0  0  0  0  0
    1.4385    2.1980    1.2715 N   0  0  0  0  0  0  0  0  0  0  0  0
    1.7344    2.2900    2.4589 O   0  0  0  0  0  0  0  0  0  0  0  0
    2.0942    2.6300    0.3309 O   0  0  0  0  0  0  0  0  0  0  0  0
   -0.1950    1.3684   -0.3920 C   0  0  0  0  0  0  0  0  0  0  0  0
   -1.3807    0.7164   -0.7129 C   0  0  0  0  0  0  0  0  0  0  0  0
   -2.4023   -0.0753    2.4916 H   0  0  0  0  0  0  0  0  0  0  0  0
   -0.2510    1.1271    3.0209 H   0  0  0  0  0  0  0  0  0  0  0  0
    0.4395    1.7858   -1.1634 H   0  0  0  0  0  0  0  0  0  0  0  0
   -1.7510    0.5770   -1.7242 H   0  0  0  0  0  0  0  0  0  0  0  0
   -4.3928    0.8097   -2.3203 B   0  0  0  0  0  0  0  0  0  0  0  0
   -5.5772    0.1271   -2.0641 F   0  0  0  0  0  0  0  0  0  0  0  0
   -3.3445   -0.1688   -2.5055 F   0  0  0  0  0  0  0  0  0  0  0  0
   -4.4581    1.6533   -3.3960 F   0  0  0  0  0  0  0  0  0  0  0  0
   -4.0180    1.5269   -1.1315 F   0  0  0  0  0  0  0  0  0  0  0  0
  1  4  2  0  0  0  0
  2  1  1  0  0  0  0
  3  2  1  0  0  0  0
  4  5  1  0  0  0  0
  4 12  1  0  0  0  0
  5 13  1  0  0  0  0
  6  7  1  0  0  0  0
  6  5  2  0  0  0  0
  7  8  2  0  0  0  0
  9  7  2  0  0  0  0
 10  6  1  0  0  0  0
 11 10  2  0  0  0  0
 11  1  1  0  0  0  0
 14 10  1  0  0  0  0
 15 11  1  0  0  0  0
 16 17  1  0  0  0  0
 16 20  1  0  0  0  0
 18 16  1  0  0  0  0
 19 16  1  0  0  0  0
M  RAD  2   2   2   3   3
M  END
