Coordinates from ORCA-job 4-NO2PhN2+~BF4-_B3LYPG-6-31G_dp-NX-Scan-d89-09-n800
 OpenBabel11261920323D

 20 19  0  0  0  0  0  0  0  0999 V2000
   -2.1963    0.3012    0.4581 C   0  0  0  0  0  0  0  0  0  0  0  0
   -3.4179   -0.3228    0.2264 N   0  0  0  0  0  0  0  0  0  0  0  0
   -4.3937   -0.8075   -0.0488 N   0  0  0  0  0  0  0  0  0  0  0  0
   -1.7678    0.3608    1.7948 C   0  0  0  0  0  0  0  0  0  0  0  0
   -0.5461    0.9596    2.0637 C   0  0  0  0  0  0  0  0  0  0  0  0
    0.1977    1.4569    0.9931 C   0  0  0  0  0  0  0  0  0  0  0  0
    1.5078    2.0902    1.2858 N   0  0  0  0  0  0  0  0  0  0  0  0
    1.8546    2.1352    2.4623 O   0  0  0  0  0  0  0  0  0  0  0  0
    2.1467    2.5199    0.3321 O   0  0  0  0  0  0  0  0  0  0  0  0
   -0.2266    1.3855   -0.3313 C   0  0  0  0  0  0  0  0  0  0  0  0
   -1.4550    0.7999   -0.6237 C   0  0  0  0  0  0  0  0  0  0  0  0
   -2.3833   -0.0459    2.5887 H   0  0  0  0  0  0  0  0  0  0  0  0
   -0.1605    1.0439    3.0715 H   0  0  0  0  0  0  0  0  0  0  0  0
    0.3987    1.7916   -1.1161 H   0  0  0  0  0  0  0  0  0  0  0  0
   -1.8439    0.7229   -1.6362 H   0  0  0  0  0  0  0  0  0  0  0  0
   -4.3279    0.7574   -2.4819 B   0  0  0  0  0  0  0  0  0  0  0  0
   -4.9846   -0.3905   -1.8396 F   0  0  0  0  0  0  0  0  0  0  0  0
   -3.1153    0.2738   -3.0089 F   0  0  0  0  0  0  0  0  0  0  0  0
   -5.1530    1.2803   -3.4279 F   0  0  0  0  0  0  0  0  0  0  0  0
   -4.0401    1.6539   -1.4363 F   0  0  0  0  0  0  0  0  0  0  0  0
  1  4  2  0  0  0  0
  2  1  1  0  0  0  0
  3  2  1  0  0  0  0
  4  5  1  0  0  0  0
  4 12  1  0  0  0  0
  5 13  1  0  0  0  0
  6  7  1  0  0  0  0
  6  5  2  0  0  0  0
  7  8  2  0  0  0  0
  9  7  2  0  0  0  0
 10  6  1  0  0  0  0
 11 10  2  0  0  0  0
 11  1  1  0  0  0  0
 14 10  1  0  0  0  0
 15 11  1  0  0  0  0
 16 17  1  0  0  0  0
 16 20  1  0  0  0  0
 18 16  1  0  0  0  0
 19 16  1  0  0  0  0
M  RAD  2   2   2   3   3
M  END
