Coordinates from ORCA-job 4-NO2PhN2+~BF4-_B3LYPG-6-31G_dp-NX-Scan-d89-09-n800
 OpenBabel11261920323D

 20 19  0  0  0  0  0  0  0  0999 V2000
   -1.9188   -0.8871    0.1342 C   0  0  0  0  0  0  0  0  0  0  0  0
   -2.6444   -2.0267   -0.0075 N   0  0  0  0  0  0  0  0  0  0  0  0
   -3.2265   -2.9775   -0.1175 N   0  0  0  0  0  0  0  0  0  0  0  0
   -2.2308   -0.0295    1.2103 C   0  0  0  0  0  0  0  0  0  0  0  0
   -1.4984    1.1351    1.3312 C   0  0  0  0  0  0  0  0  0  0  0  0
   -0.5415    1.4235    0.3613 C   0  0  0  0  0  0  0  0  0  0  0  0
    0.2282    2.6855    0.4907 N   0  0  0  0  0  0  0  0  0  0  0  0
    0.0130    3.3665    1.4847 O   0  0  0  0  0  0  0  0  0  0  0  0
    1.0433    2.9290   -0.3906 O   0  0  0  0  0  0  0  0  0  0  0  0
   -0.2241    0.5690   -0.6998 C   0  0  0  0  0  0  0  0  0  0  0  0
   -0.9257   -0.6078   -0.8349 C   0  0  0  0  0  0  0  0  0  0  0  0
   -3.0377   -0.2639    1.8928 H   0  0  0  0  0  0  0  0  0  0  0  0
   -1.7117    1.8589    2.1049 H   0  0  0  0  0  0  0  0  0  0  0  0
    0.5305    0.8693   -1.4147 H   0  0  0  0  0  0  0  0  0  0  0  0
   -0.7480   -1.2908   -1.6567 H   0  0  0  0  0  0  0  0  0  0  0  0
   -3.4294    2.2580   -0.9274 B   0  0  0  0  0  0  0  0  0  0  0  0
   -4.2994    3.0192   -1.6704 F   0  0  0  0  0  0  0  0  0  0  0  0
   -3.2665    0.9571   -1.4817 F   0  0  0  0  0  0  0  0  0  0  0  0
   -2.1405    2.8771   -0.8900 F   0  0  0  0  0  0  0  0  0  0  0  0
   -3.8780    2.1011    0.4070 F   0  0  0  0  0  0  0  0  0  0  0  0
  1  4  2  0  0  0  0
  2  1  1  0  0  0  0
  3  2  1  0  0  0  0
  4  5  1  0  0  0  0
  4 12  1  0  0  0  0
  5 13  1  0  0  0  0
  6  7  1  0  0  0  0
  6  5  2  0  0  0  0
  7  8  2  0  0  0  0
  9  7  2  0  0  0  0
 10  6  1  0  0  0  0
 11 10  2  0  0  0  0
 11  1  1  0  0  0  0
 14 10  1  0  0  0  0
 15 11  1  0  0  0  0
 16 19  1  0  0  0  0
 16 20  1  0  0  0  0
 17 16  1  0  0  0  0
 18 16  1  0  0  0  0
M  RAD  2   2   2   3   3
M  END
