Coordinates from ORCA-job 4-NO2PhN2+~BF4-_B3LYPG-6-31G_dp-NX-Scan-d89-09-n800
 OpenBabel11261920323D

 20 19  0  0  0  0  0  0  0  0999 V2000
   -1.9441   -0.4706   -0.0091 C   0  0  0  0  0  0  0  0  0  0  0  0
   -2.8375   -1.4809   -0.2868 N   0  0  0  0  0  0  0  0  0  0  0  0
   -3.4799   -2.3718   -0.4710 N   0  0  0  0  0  0  0  0  0  0  0  0
   -2.1977    0.3467    1.1025 C   0  0  0  0  0  0  0  0  0  0  0  0
   -1.2704    1.3450    1.3756 C   0  0  0  0  0  0  0  0  0  0  0  0
   -0.1762    1.4929    0.5327 C   0  0  0  0  0  0  0  0  0  0  0  0
    0.8057    2.5634    0.8365 N   0  0  0  0  0  0  0  0  0  0  0  0
    0.6012    3.2420    1.8367 O   0  0  0  0  0  0  0  0  0  0  0  0
    1.7564    2.6813    0.0698 O   0  0  0  0  0  0  0  0  0  0  0  0
    0.0513    0.6942   -0.5909 C   0  0  0  0  0  0  0  0  0  0  0  0
   -0.8509   -0.3113   -0.8807 C   0  0  0  0  0  0  0  0  0  0  0  0
   -3.0936    0.2232    1.6927 H   0  0  0  0  0  0  0  0  0  0  0  0
   -1.4050    2.0197    2.2106 H   0  0  0  0  0  0  0  0  0  0  0  0
    0.9145    0.8807   -1.2161 H   0  0  0  0  0  0  0  0  0  0  0  0
   -0.7376   -0.9466   -1.7506 H   0  0  0  0  0  0  0  0  0  0  0  0
   -4.0256    1.6455   -1.0442 B   0  0  0  0  0  0  0  0  0  0  0  0
   -4.9128    2.4250   -1.7433 F   0  0  0  0  0  0  0  0  0  0  0  0
   -4.2401    0.2453   -1.3115 F   0  0  0  0  0  0  0  0  0  0  0  0
   -2.6878    1.9308   -1.3859 F   0  0  0  0  0  0  0  0  0  0  0  0
   -4.1764    1.8116    0.3589 F   0  0  0  0  0  0  0  0  0  0  0  0
  1  4  2  0  0  0  0
  2  1  1  0  0  0  0
  3  2  1  0  0  0  0
  4  5  1  0  0  0  0
  4 12  1  0  0  0  0
  5 13  1  0  0  0  0
  6  7  1  0  0  0  0
  6  5  2  0  0  0  0
  7  8  2  0  0  0  0
  9  7  2  0  0  0  0
 10  6  1  0  0  0  0
 11 10  2  0  0  0  0
 11  1  1  0  0  0  0
 14 10  1  0  0  0  0
 15 11  1  0  0  0  0
 16 20  1  0  0  0  0
 17 16  1  0  0  0  0
 18 16  1  0  0  0  0
 19 16  1  0  0  0  0
M  RAD  2   2   2   3   3
M  END
