Coordinates from ORCA-job 4-NO2PhN2+~BF4-_B3LYPG-6-31G_dp-NX-Scan-d89-09-n800
 OpenBabel11261920323D

 20 19  0  0  0  0  0  0  0  0999 V2000
   -2.1298    0.1989    0.3553 C   0  0  0  0  0  0  0  0  0  0  0  0
   -3.3015   -0.5171    0.1030 N   0  0  0  0  0  0  0  0  0  0  0  0
   -4.1827   -1.1913    0.0661 N   0  0  0  0  0  0  0  0  0  0  0  0
   -1.7734    0.3304    1.7073 C   0  0  0  0  0  0  0  0  0  0  0  0
   -0.5949    1.0029    1.9966 C   0  0  0  0  0  0  0  0  0  0  0  0
    0.1662    1.4990    0.9379 C   0  0  0  0  0  0  0  0  0  0  0  0
    1.4298    2.2095    1.2594 N   0  0  0  0  0  0  0  0  0  0  0  0
    1.7213    2.3167    2.4465 O   0  0  0  0  0  0  0  0  0  0  0  0
    2.0878    2.6314    0.3158 O   0  0  0  0  0  0  0  0  0  0  0  0
   -0.1984    1.3600   -0.3995 C   0  0  0  0  0  0  0  0  0  0  0  0
   -1.3803    0.6997   -0.7162 C   0  0  0  0  0  0  0  0  0  0  0  0
   -2.4018   -0.0720    2.4931 H   0  0  0  0  0  0  0  0  0  0  0  0
   -0.2582    1.1471    3.0152 H   0  0  0  0  0  0  0  0  0  0  0  0
    0.4345    1.7749   -1.1736 H   0  0  0  0  0  0  0  0  0  0  0  0
   -1.7511    0.5522   -1.7262 H   0  0  0  0  0  0  0  0  0  0  0  0
   -4.3911    0.8253   -2.3078 B   0  0  0  0  0  0  0  0  0  0  0  0
   -5.6119    0.1899   -2.1442 F   0  0  0  0  0  0  0  0  0  0  0  0
   -3.3692   -0.1885   -2.4704 F   0  0  0  0  0  0  0  0  0  0  0  0
   -4.3528    1.7072   -3.3554 F   0  0  0  0  0  0  0  0  0  0  0  0
   -4.0491    1.4898   -1.0769 F   0  0  0  0  0  0  0  0  0  0  0  0
  1  4  2  0  0  0  0
  2  1  1  0  0  0  0
  3  2  1  0  0  0  0
  4  5  1  0  0  0  0
  4 12  1  0  0  0  0
  5 13  1  0  0  0  0
  6  7  1  0  0  0  0
  6  5  2  0  0  0  0
  7  8  2  0  0  0  0
  9  7  2  0  0  0  0
 10  6  1  0  0  0  0
 11 10  2  0  0  0  0
 11  1  1  0  0  0  0
 14 10  1  0  0  0  0
 15 11  1  0  0  0  0
 16 17  1  0  0  0  0
 16 20  1  0  0  0  0
 18 16  1  0  0  0  0
 19 16  1  0  0  0  0
M  RAD  2   2   2   3   3
M  END
