Coordinates from ORCA-job 4-NO2PhN2+~BF4-_B3LYPG-6-31G_dp-NX-Scan-d89-09-n800
 OpenBabel11261920313D

 20 19  0  0  0  0  0  0  0  0999 V2000
   -1.6430   -1.3591    0.1461 C   0  0  0  0  0  0  0  0  0  0  0  0
   -2.0173   -2.6669    0.2724 N   0  0  0  0  0  0  0  0  0  0  0  0
   -2.2778   -3.7514    0.3898 N   0  0  0  0  0  0  0  0  0  0  0  0
   -2.4221   -0.3447    0.7618 C   0  0  0  0  0  0  0  0  0  0  0  0
   -1.9508    0.9557    0.7173 C   0  0  0  0  0  0  0  0  0  0  0  0
   -0.7470    1.1984    0.0458 C   0  0  0  0  0  0  0  0  0  0  0  0
   -0.1201    2.5391    0.1356 N   0  0  0  0  0  0  0  0  0  0  0  0
   -0.3369    3.1593    1.1633 O   0  0  0  0  0  0  0  0  0  0  0  0
    0.6282    2.8552   -0.7804 O   0  0  0  0  0  0  0  0  0  0  0  0
   -0.0155    0.2099   -0.6237 C   0  0  0  0  0  0  0  0  0  0  0  0
   -0.4494   -1.0999   -0.5710 C   0  0  0  0  0  0  0  0  0  0  0  0
   -3.3581   -0.5852    1.2526 H   0  0  0  0  0  0  0  0  0  0  0  0
   -2.5092    1.7995    1.1374 H   0  0  0  0  0  0  0  0  0  0  0  0
    0.8856    0.4878   -1.1564 H   0  0  0  0  0  0  0  0  0  0  0  0
    0.1026   -1.9059   -1.0402 H   0  0  0  0  0  0  0  0  0  0  0  0
   -3.5666    3.3177   -0.5228 B   0  0  0  0  0  0  0  0  0  0  0  0
   -4.0997    4.4959   -0.9996 F   0  0  0  0  0  0  0  0  0  0  0  0
   -4.3534    2.1924   -0.8051 F   0  0  0  0  0  0  0  0  0  0  0  0
   -2.2678    3.0879   -1.0931 F   0  0  0  0  0  0  0  0  0  0  0  0
   -3.3882    3.3804    0.8960 F   0  0  0  0  0  0  0  0  0  0  0  0
  1  2  1  0  0  0  0
  1  4  2  0  0  0  0
  2  3  1  0  0  0  0
  4 12  1  0  0  0  0
  5  4  1  0  0  0  0
  5 13  1  0  0  0  0
  6  7  1  0  0  0  0
  6  5  2  0  0  0  0
  7  8  2  0  0  0  0
  9  7  2  0  0  0  0
 10 11  2  0  0  0  0
 10  6  1  0  0  0  0
 11  1  1  0  0  0  0
 14 10  1  0  0  0  0
 15 11  1  0  0  0  0
 16 20  1  0  0  0  0
 17 16  1  0  0  0  0
 18 16  1  0  0  0  0
 19 16  1  0  0  0  0
M  RAD  2   2   2   3   3
M  END
