Coordinates from ORCA-job 4-NO2PhN2+~BF4-_B3LYPG-6-31G_dp-NX-Scan-d89-09-n800
 OpenBabel11261920323D

 20 19  0  0  0  0  0  0  0  0999 V2000
   -2.1297    0.1935    0.3566 C   0  0  0  0  0  0  0  0  0  0  0  0
   -3.2982   -0.5289    0.1070 N   0  0  0  0  0  0  0  0  0  0  0  0
   -4.1734   -1.2110    0.0751 N   0  0  0  0  0  0  0  0  0  0  0  0
   -1.7734    0.3307    1.7080 C   0  0  0  0  0  0  0  0  0  0  0  0
   -0.5963    1.0069    1.9948 C   0  0  0  0  0  0  0  0  0  0  0  0
    0.1638    1.5005    0.9342 C   0  0  0  0  0  0  0  0  0  0  0  0
    1.4265    2.2139    1.2526 N   0  0  0  0  0  0  0  0  0  0  0  0
    1.7166    2.3285    2.4395 O   0  0  0  0  0  0  0  0  0  0  0  0
    2.0849    2.6309    0.3072 O   0  0  0  0  0  0  0  0  0  0  0  0
   -0.2012    1.3565   -0.4026 C   0  0  0  0  0  0  0  0  0  0  0  0
   -1.3821    0.6930   -0.7166 C   0  0  0  0  0  0  0  0  0  0  0  0
   -2.4006   -0.0704    2.4955 H   0  0  0  0  0  0  0  0  0  0  0  0
   -0.2599    1.1557    3.0128 H   0  0  0  0  0  0  0  0  0  0  0  0
    0.4305    1.7701   -1.1784 H   0  0  0  0  0  0  0  0  0  0  0  0
   -1.7535    0.5431   -1.7260 H   0  0  0  0  0  0  0  0  0  0  0  0
   -4.3888    0.8314   -2.3039 B   0  0  0  0  0  0  0  0  0  0  0  0
   -5.6230    0.2159   -2.1877 F   0  0  0  0  0  0  0  0  0  0  0  0
   -3.3772   -0.1953   -2.4582 F   0  0  0  0  0  0  0  0  0  0  0  0
   -4.3038    1.7332   -3.3324 F   0  0  0  0  0  0  0  0  0  0  0  0
   -4.0676    1.4681   -1.0517 F   0  0  0  0  0  0  0  0  0  0  0  0
  1  4  2  0  0  0  0
  2  1  1  0  0  0  0
  3  2  1  0  0  0  0
  4  5  1  0  0  0  0
  4 12  1  0  0  0  0
  5 13  1  0  0  0  0
  6  7  1  0  0  0  0
  6  5  2  0  0  0  0
  7  8  2  0  0  0  0
  9  7  2  0  0  0  0
 10  6  1  0  0  0  0
 11 10  2  0  0  0  0
 11  1  1  0  0  0  0
 14 10  1  0  0  0  0
 15 11  1  0  0  0  0
 16 17  1  0  0  0  0
 16 20  1  0  0  0  0
 18 16  1  0  0  0  0
 19 16  1  0  0  0  0
M  RAD  2   2   2   3   3
M  END
