Coordinates from ORCA-job 4-NO2PhN2+~BF4-_B3LYPG-6-31G_dp-NX-Scan-d89-09-n800
 OpenBabel11261920323D

 20 19  0  0  0  0  0  0  0  0999 V2000
   -2.1603    0.1257    0.4198 C   0  0  0  0  0  0  0  0  0  0  0  0
   -3.3124   -0.6358    0.2417 N   0  0  0  0  0  0  0  0  0  0  0  0
   -4.1943   -1.3062    0.1974 N   0  0  0  0  0  0  0  0  0  0  0  0
   -1.7226    0.2698    1.7484 C   0  0  0  0  0  0  0  0  0  0  0  0
   -0.5596    0.9910    1.9685 C   0  0  0  0  0  0  0  0  0  0  0  0
    0.1094    1.5263    0.8666 C   0  0  0  0  0  0  0  0  0  0  0  0
    1.3583    2.2914    1.1124 N   0  0  0  0  0  0  0  0  0  0  0  0
    1.7175    2.4086    2.2801 O   0  0  0  0  0  0  0  0  0  0  0  0
    1.9374    2.7440    0.1324 O   0  0  0  0  0  0  0  0  0  0  0  0
   -0.3359    1.3804   -0.4441 C   0  0  0  0  0  0  0  0  0  0  0  0
   -1.5023    0.6639   -0.6943 C   0  0  0  0  0  0  0  0  0  0  0  0
   -2.2817   -0.1639    2.5693 H   0  0  0  0  0  0  0  0  0  0  0  0
   -0.1654    1.1452    2.9646 H   0  0  0  0  0  0  0  0  0  0  0  0
    0.2202    1.8324   -1.2555 H   0  0  0  0  0  0  0  0  0  0  0  0
   -1.9161    0.5465   -1.6899 H   0  0  0  0  0  0  0  0  0  0  0  0
   -4.2527    0.8530   -2.2524 B   0  0  0  0  0  0  0  0  0  0  0  0
   -5.4392    0.8441   -2.9295 F   0  0  0  0  0  0  0  0  0  0  0  0
   -3.6723   -0.4692   -2.2263 F   0  0  0  0  0  0  0  0  0  0  0  0
   -3.2891    1.7066   -2.8034 F   0  0  0  0  0  0  0  0  0  0  0  0
   -4.4454    1.2124   -0.8801 F   0  0  0  0  0  0  0  0  0  0  0  0
  1  4  2  0  0  0  0
  2  1  1  0  0  0  0
  3  2  1  0  0  0  0
  4  5  1  0  0  0  0
  4 12  1  0  0  0  0
  5 13  1  0  0  0  0
  6  7  1  0  0  0  0
  6  5  2  0  0  0  0
  7  8  2  0  0  0  0
  9  7  2  0  0  0  0
 10  6  1  0  0  0  0
 11 10  2  0  0  0  0
 11  1  1  0  0  0  0
 14 10  1  0  0  0  0
 15 11  1  0  0  0  0
 16 18  1  0  0  0  0
 16 20  1  0  0  0  0
 17 16  1  0  0  0  0
 19 16  1  0  0  0  0
M  RAD  2   2   2   3   3
M  END
