Coordinates from ORCA-job 4-NO2PhN2+~BF4-_B3LYPG-6-31G_dp-NX-Scan-d89-09-n800
 OpenBabel11261920323D

 20 19  0  0  0  0  0  0  0  0999 V2000
   -2.1875    0.2100    0.4554 C   0  0  0  0  0  0  0  0  0  0  0  0
   -3.3693   -0.5082    0.2922 N   0  0  0  0  0  0  0  0  0  0  0  0
   -4.2806   -1.1388    0.2601 N   0  0  0  0  0  0  0  0  0  0  0  0
   -1.6779    0.2385    1.7666 C   0  0  0  0  0  0  0  0  0  0  0  0
   -0.4900    0.9180    1.9849 C   0  0  0  0  0  0  0  0  0  0  0  0
    0.1325    1.5307    0.8964 C   0  0  0  0  0  0  0  0  0  0  0  0
    1.4065    2.2551    1.1382 N   0  0  0  0  0  0  0  0  0  0  0  0
    1.8289    2.2658    2.2905 O   0  0  0  0  0  0  0  0  0  0  0  0
    1.9398    2.7848    0.1711 O   0  0  0  0  0  0  0  0  0  0  0  0
   -0.3815    1.4971   -0.3966 C   0  0  0  0  0  0  0  0  0  0  0  0
   -1.5737    0.8225   -0.6465 C   0  0  0  0  0  0  0  0  0  0  0  0
   -2.2031   -0.2524    2.5777 H   0  0  0  0  0  0  0  0  0  0  0  0
   -0.0425    0.9818    2.9683 H   0  0  0  0  0  0  0  0  0  0  0  0
    0.1448    2.0008   -1.1977 H   0  0  0  0  0  0  0  0  0  0  0  0
   -2.0182    0.7957   -1.6381 H   0  0  0  0  0  0  0  0  0  0  0  0
   -4.2619    0.7276   -2.3551 B   0  0  0  0  0  0  0  0  0  0  0  0
   -5.4522    0.6657   -3.0213 F   0  0  0  0  0  0  0  0  0  0  0  0
   -3.7018   -0.5841   -2.1772 F   0  0  0  0  0  0  0  0  0  0  0  0
   -3.2831    1.4970   -3.0068 F   0  0  0  0  0  0  0  0  0  0  0  0
   -4.4359    1.2585   -1.0363 F   0  0  0  0  0  0  0  0  0  0  0  0
  1  4  2  0  0  0  0
  2  1  1  0  0  0  0
  3  2  1  0  0  0  0
  4  5  1  0  0  0  0
  4 12  1  0  0  0  0
  5 13  1  0  0  0  0
  6  7  1  0  0  0  0
  6  5  2  0  0  0  0
  7  8  2  0  0  0  0
  9  7  2  0  0  0  0
 10  6  1  0  0  0  0
 11 10  2  0  0  0  0
 11  1  1  0  0  0  0
 14 10  1  0  0  0  0
 15 11  1  0  0  0  0
 16 18  1  0  0  0  0
 16 20  1  0  0  0  0
 17 16  1  0  0  0  0
 19 16  1  0  0  0  0
M  RAD  2   2   2   3   3
M  END
