Coordinates from ORCA-job 4-NO2PhN2+~BF4-_B3LYPG-6-31G_dp-NX-Scan-d89-09-n800
 OpenBabel11261920323D

 20 19  0  0  0  0  0  0  0  0999 V2000
   -2.2787    0.2424    0.5681 C   0  0  0  0  0  0  0  0  0  0  0  0
   -3.5400   -0.3625    0.4573 N   0  0  0  0  0  0  0  0  0  0  0  0
   -4.3615   -0.7289   -0.2681 N   0  0  0  0  0  0  0  0  0  0  0  0
   -1.8158    0.4235    1.8801 C   0  0  0  0  0  0  0  0  0  0  0  0
   -0.5731    1.0076    2.0843 C   0  0  0  0  0  0  0  0  0  0  0  0
    0.1658    1.3884    0.9660 C   0  0  0  0  0  0  0  0  0  0  0  0
    1.4940    2.0113    1.1780 N   0  0  0  0  0  0  0  0  0  0  0  0
    1.8639    2.1582    2.3395 O   0  0  0  0  0  0  0  0  0  0  0  0
    2.1286    2.3338    0.1793 O   0  0  0  0  0  0  0  0  0  0  0  0
   -0.2876    1.2116   -0.3398 C   0  0  0  0  0  0  0  0  0  0  0  0
   -1.5317    0.6290   -0.5575 C   0  0  0  0  0  0  0  0  0  0  0  0
   -2.4327    0.1085    2.7137 H   0  0  0  0  0  0  0  0  0  0  0  0
   -0.1716    1.1713    3.0759 H   0  0  0  0  0  0  0  0  0  0  0  0
    0.3298    1.5342   -1.1685 H   0  0  0  0  0  0  0  0  0  0  0  0
   -1.9113    0.4967   -1.5611 H   0  0  0  0  0  0  0  0  0  0  0  0
   -4.2437    1.0065   -2.5130 B   0  0  0  0  0  0  0  0  0  0  0  0
   -3.9241   -0.4853   -1.8728 F   0  0  0  0  0  0  0  0  0  0  0  0
   -3.0957    1.2170   -3.2253 F   0  0  0  0  0  0  0  0  0  0  0  0
   -5.3700    0.8321   -3.2273 F   0  0  0  0  0  0  0  0  0  0  0  0
   -4.3512    1.7707   -1.3830 F   0  0  0  0  0  0  0  0  0  0  0  0
  1  4  2  0  0  0  0
  2  1  1  0  0  0  0
  3  2  2  0  0  0  0
  4  5  1  0  0  0  0
  4 12  1  0  0  0  0
  5 13  1  0  0  0  0
  6  7  1  0  0  0  0
  6  5  2  0  0  0  0
  7  8  2  0  0  0  0
  9  7  2  0  0  0  0
 10  6  1  0  0  0  0
 11 10  2  0  0  0  0
 11  1  1  0  0  0  0
 14 10  1  0  0  0  0
 15 11  1  0  0  0  0
 16 17  1  0  0  0  0
 16 20  1  0  0  0  0
 18 16  1  0  0  0  0
 19 16  1  0  0  0  0
M  RAD  1   3   2
M  END
