Coordinates from ORCA-job 4-NO2PhN2+~BF4-_B3LYPG-6-31G_dp-NX-Scan-d89-09-n800
 OpenBabel11261920313D

 20 19  0  0  0  0  0  0  0  0999 V2000
   -1.7844   -1.1775    0.1321 C   0  0  0  0  0  0  0  0  0  0  0  0
   -2.2299   -2.4625    0.1542 N   0  0  0  0  0  0  0  0  0  0  0  0
   -2.5586   -3.5352    0.1914 N   0  0  0  0  0  0  0  0  0  0  0  0
   -2.3364   -0.2473    1.0477 C   0  0  0  0  0  0  0  0  0  0  0  0
   -1.7863    1.0165    1.0956 C   0  0  0  0  0  0  0  0  0  0  0  0
   -0.7597    1.3361    0.2004 C   0  0  0  0  0  0  0  0  0  0  0  0
   -0.0397    2.6265    0.3766 N   0  0  0  0  0  0  0  0  0  0  0  0
   -0.3251    3.2797    1.3682 O   0  0  0  0  0  0  0  0  0  0  0  0
    0.8241    2.8915   -0.4502 O   0  0  0  0  0  0  0  0  0  0  0  0
   -0.2423    0.4294   -0.7355 C   0  0  0  0  0  0  0  0  0  0  0  0
   -0.7505   -0.8494   -0.7826 C   0  0  0  0  0  0  0  0  0  0  0  0
   -3.1600   -0.5295    1.6931 H   0  0  0  0  0  0  0  0  0  0  0  0
   -2.1920    1.7961    1.7261 H   0  0  0  0  0  0  0  0  0  0  0  0
    0.5478    0.7548   -1.4002 H   0  0  0  0  0  0  0  0  0  0  0  0
   -0.3714   -1.5909   -1.4762 H   0  0  0  0  0  0  0  0  0  0  0  0
   -3.3905    2.8623   -0.7709 B   0  0  0  0  0  0  0  0  0  0  0  0
   -4.0444    3.8114   -1.5210 F   0  0  0  0  0  0  0  0  0  0  0  0
   -3.9357    1.5731   -0.9081 F   0  0  0  0  0  0  0  0  0  0  0  0
   -2.0066    2.7757   -1.2119 F   0  0  0  0  0  0  0  0  0  0  0  0
   -3.3650    3.2055    0.5970 F   0  0  0  0  0  0  0  0  0  0  0  0
  1  2  1  0  0  0  0
  1  4  2  0  0  0  0
  2  3  1  0  0  0  0
  4  5  1  0  0  0  0
  4 12  1  0  0  0  0
  5 13  1  0  0  0  0
  6  7  1  0  0  0  0
  6  5  2  0  0  0  0
  7  8  2  0  0  0  0
  9  7  2  0  0  0  0
 10  6  1  0  0  0  0
 11 10  2  0  0  0  0
 11  1  1  0  0  0  0
 14 10  1  0  0  0  0
 15 11  1  0  0  0  0
 16 20  1  0  0  0  0
 17 16  1  0  0  0  0
 18 16  1  0  0  0  0
 19 16  1  0  0  0  0
M  RAD  2   2   2   3   3
M  END
