Coordinates from ORCA-job 4-NO2PhN2+~BF4-_B3LYPG-6-31G_dp-NX-Scan-d89-09-n800
 OpenBabel11261920323D

 20 19  0  0  0  0  0  0  0  0999 V2000
   -2.2780    0.2472    0.5691 C   0  0  0  0  0  0  0  0  0  0  0  0
   -3.5372   -0.3567    0.4483 N   0  0  0  0  0  0  0  0  0  0  0  0
   -4.3717   -0.7294   -0.2510 N   0  0  0  0  0  0  0  0  0  0  0  0
   -1.8151    0.4230    1.8816 C   0  0  0  0  0  0  0  0  0  0  0  0
   -0.5720    1.0066    2.0842 C   0  0  0  0  0  0  0  0  0  0  0  0
    0.1644    1.3906    0.9651 C   0  0  0  0  0  0  0  0  0  0  0  0
    1.4933    2.0128    1.1768 N   0  0  0  0  0  0  0  0  0  0  0  0
    1.8648    2.1561    2.3382 O   0  0  0  0  0  0  0  0  0  0  0  0
    2.1261    2.3381    0.1780 O   0  0  0  0  0  0  0  0  0  0  0  0
   -0.2909    1.2180   -0.3406 C   0  0  0  0  0  0  0  0  0  0  0  0
   -1.5356    0.6361   -0.5582 C   0  0  0  0  0  0  0  0  0  0  0  0
   -2.4303    0.1057    2.7156 H   0  0  0  0  0  0  0  0  0  0  0  0
   -0.1681    1.1676    3.0753 H   0  0  0  0  0  0  0  0  0  0  0  0
    0.3247    1.5435   -1.1695 H   0  0  0  0  0  0  0  0  0  0  0  0
   -1.9186    0.5077   -1.5617 H   0  0  0  0  0  0  0  0  0  0  0  0
   -4.2340    0.9835   -2.5070 B   0  0  0  0  0  0  0  0  0  0  0  0
   -3.9576   -0.4923   -1.8941 F   0  0  0  0  0  0  0  0  0  0  0  0
   -3.0765    1.1968   -3.2125 F   0  0  0  0  0  0  0  0  0  0  0  0
   -5.3590    0.8594   -3.2386 F   0  0  0  0  0  0  0  0  0  0  0  0
   -4.3352    1.7520   -1.3731 F   0  0  0  0  0  0  0  0  0  0  0  0
  1  4  2  0  0  0  0
  2  1  1  0  0  0  0
  3  2  2  0  0  0  0
  4  5  1  0  0  0  0
  4 12  1  0  0  0  0
  5 13  1  0  0  0  0
  6  7  1  0  0  0  0
  6  5  2  0  0  0  0
  7  8  2  0  0  0  0
  9  7  2  0  0  0  0
 10  6  1  0  0  0  0
 11 10  2  0  0  0  0
 11  1  1  0  0  0  0
 14 10  1  0  0  0  0
 15 11  1  0  0  0  0
 16 17  1  0  0  0  0
 16 20  1  0  0  0  0
 18 16  1  0  0  0  0
 19 16  1  0  0  0  0
M  RAD  1   3   2
M  END
