Coordinates from ORCA-job 4-NO2PhN2+~BF4-_B3LYPG-6-31G_dp-NX-Scan-d89-09-n800
 OpenBabel11261920323D

 20 19  0  0  0  0  0  0  0  0999 V2000
   -2.1332    0.1795    0.3634 C   0  0  0  0  0  0  0  0  0  0  0  0
   -3.2968   -0.5572    0.1268 N   0  0  0  0  0  0  0  0  0  0  0  0
   -4.1614   -1.2529    0.1172 N   0  0  0  0  0  0  0  0  0  0  0  0
   -1.7669    0.3215    1.7115 C   0  0  0  0  0  0  0  0  0  0  0  0
   -0.5932    1.0082    1.9877 C   0  0  0  0  0  0  0  0  0  0  0  0
    0.1540    1.5072    0.9207 C   0  0  0  0  0  0  0  0  0  0  0  0
    1.4136    2.2308    1.2280 N   0  0  0  0  0  0  0  0  0  0  0  0
    1.7126    2.3490    2.4123 O   0  0  0  0  0  0  0  0  0  0  0  0
    2.0623    2.6494    0.2766 O   0  0  0  0  0  0  0  0  0  0  0  0
   -0.2212    1.3592   -0.4129 C   0  0  0  0  0  0  0  0  0  0  0  0
   -1.3986    0.6850   -0.7159 C   0  0  0  0  0  0  0  0  0  0  0  0
   -2.3839   -0.0839    2.5048 H   0  0  0  0  0  0  0  0  0  0  0  0
   -0.2498    1.1610    3.0028 H   0  0  0  0  0  0  0  0  0  0  0  0
    0.3997    1.7778   -1.1947 H   0  0  0  0  0  0  0  0  0  0  0  0
   -1.7772    0.5308   -1.7217 H   0  0  0  0  0  0  0  0  0  0  0  0
   -4.3701    0.8427   -2.2943 B   0  0  0  0  0  0  0  0  0  0  0  0
   -5.6459    0.3249   -2.3495 F   0  0  0  0  0  0  0  0  0  0  0  0
   -3.4178   -0.2500   -2.3902 F   0  0  0  0  0  0  0  0  0  0  0  0
   -4.0924    1.7776   -3.2607 F   0  0  0  0  0  0  0  0  0  0  0  0
   -4.1405    1.4053   -0.9860 F   0  0  0  0  0  0  0  0  0  0  0  0
  1  4  2  0  0  0  0
  2  1  1  0  0  0  0
  3  2  1  0  0  0  0
  4  5  1  0  0  0  0
  4 12  1  0  0  0  0
  5 13  1  0  0  0  0
  6  7  1  0  0  0  0
  6  5  2  0  0  0  0
  7  8  2  0  0  0  0
  9  7  2  0  0  0  0
 10  6  1  0  0  0  0
 11 10  2  0  0  0  0
 11  1  1  0  0  0  0
 14 10  1  0  0  0  0
 15 11  1  0  0  0  0
 16 20  1  0  0  0  0
 17 16  1  0  0  0  0
 18 16  1  0  0  0  0
 19 16  1  0  0  0  0
M  RAD  2   2   2   3   3
M  END
