Coordinates from ORCA-job 4-NO2PhN2+~BF4-_B3LYPG-6-31G_dp-NX-Scan-d89-09-n800
 OpenBabel11261920323D

 20 19  0  0  0  0  0  0  0  0999 V2000
   -1.9323   -0.6008   -0.0151 C   0  0  0  0  0  0  0  0  0  0  0  0
   -2.7119   -1.7099   -0.2202 N   0  0  0  0  0  0  0  0  0  0  0  0
   -3.2610   -2.6735   -0.3522 N   0  0  0  0  0  0  0  0  0  0  0  0
   -2.2501    0.2495    1.0573 C   0  0  0  0  0  0  0  0  0  0  0  0
   -1.3804    1.3058    1.3045 C   0  0  0  0  0  0  0  0  0  0  0  0
   -0.2783    1.4725    0.4797 C   0  0  0  0  0  0  0  0  0  0  0  0
    0.6423    2.6017    0.7574 N   0  0  0  0  0  0  0  0  0  0  0  0
    0.3949    3.2969    1.7357 O   0  0  0  0  0  0  0  0  0  0  0  0
    1.5930    2.7448   -0.0054 O   0  0  0  0  0  0  0  0  0  0  0  0
    0.0108    0.6453   -0.6119 C   0  0  0  0  0  0  0  0  0  0  0  0
   -0.8276   -0.4161   -0.8768 C   0  0  0  0  0  0  0  0  0  0  0  0
   -3.1472    0.1042    1.6409 H   0  0  0  0  0  0  0  0  0  0  0  0
   -1.5786    2.0142    2.0972 H   0  0  0  0  0  0  0  0  0  0  0  0
    0.8739    0.8556   -1.2295 H   0  0  0  0  0  0  0  0  0  0  0  0
   -0.6587   -1.0851   -1.7119 H   0  0  0  0  0  0  0  0  0  0  0  0
   -3.8988    1.8562   -0.9709 B   0  0  0  0  0  0  0  0  0  0  0  0
   -4.7123    2.7769   -1.5970 F   0  0  0  0  0  0  0  0  0  0  0  0
   -4.2545    0.5053   -1.2618 F   0  0  0  0  0  0  0  0  0  0  0  0
   -2.5459    2.0238   -1.3450 F   0  0  0  0  0  0  0  0  0  0  0  0
   -3.9837    1.9987    0.4510 F   0  0  0  0  0  0  0  0  0  0  0  0
  1  4  2  0  0  0  0
  2  1  1  0  0  0  0
  3  2  1  0  0  0  0
  4  5  1  0  0  0  0
  4 12  1  0  0  0  0
  5 13  1  0  0  0  0
  6  7  1  0  0  0  0
  6  5  2  0  0  0  0
  7  8  2  0  0  0  0
  9  7  2  0  0  0  0
 10  6  1  0  0  0  0
 11 10  2  0  0  0  0
 11  1  1  0  0  0  0
 14 10  1  0  0  0  0
 15 11  1  0  0  0  0
 16 20  1  0  0  0  0
 17 16  1  0  0  0  0
 18 16  1  0  0  0  0
 19 16  1  0  0  0  0
M  RAD  2   2   2   3   3
M  END
