Coordinates from ORCA-job 4-NO2PhN2+~BF4-_B3LYPG-6-31G_dp-NX-Scan-d89-09-n800
 OpenBabel11261920313D

 20 19  0  0  0  0  0  0  0  0999 V2000
   -1.6512   -1.3505    0.1416 C   0  0  0  0  0  0  0  0  0  0  0  0
   -2.0290   -2.6575    0.2638 N   0  0  0  0  0  0  0  0  0  0  0  0
   -2.2926   -3.7416    0.3771 N   0  0  0  0  0  0  0  0  0  0  0  0
   -2.4243   -0.3368    0.7656 C   0  0  0  0  0  0  0  0  0  0  0  0
   -1.9476    0.9617    0.7269 C   0  0  0  0  0  0  0  0  0  0  0  0
   -0.7463    1.2041    0.0513 C   0  0  0  0  0  0  0  0  0  0  0  0
   -0.1148    2.5425    0.1462 N   0  0  0  0  0  0  0  0  0  0  0  0
   -0.3353    3.1630    1.1729 O   0  0  0  0  0  0  0  0  0  0  0  0
    0.6395    2.8572   -0.7656 O   0  0  0  0  0  0  0  0  0  0  0  0
   -0.0212    0.2167   -0.6268 C   0  0  0  0  0  0  0  0  0  0  0  0
   -0.4596   -1.0918   -0.5791 C   0  0  0  0  0  0  0  0  0  0  0  0
   -3.3599   -0.5760    1.2577 H   0  0  0  0  0  0  0  0  0  0  0  0
   -2.5011    1.8046    1.1535 H   0  0  0  0  0  0  0  0  0  0  0  0
    0.8785    0.4945   -1.1618 H   0  0  0  0  0  0  0  0  0  0  0  0
    0.0876   -1.8973   -1.0547 H   0  0  0  0  0  0  0  0  0  0  0  0
   -3.5574    3.2974   -0.5260 B   0  0  0  0  0  0  0  0  0  0  0  0
   -4.1228    4.4490   -1.0287 F   0  0  0  0  0  0  0  0  0  0  0  0
   -4.3174    2.1446   -0.7771 F   0  0  0  0  0  0  0  0  0  0  0  0
   -2.2573    3.0849   -1.0997 F   0  0  0  0  0  0  0  0  0  0  0  0
   -3.3742    3.3974    0.8886 F   0  0  0  0  0  0  0  0  0  0  0  0
  1  2  1  0  0  0  0
  1  4  2  0  0  0  0
  2  3  1  0  0  0  0
  4 12  1  0  0  0  0
  5  4  1  0  0  0  0
  5 13  1  0  0  0  0
  6  7  1  0  0  0  0
  6  5  2  0  0  0  0
  7  8  2  0  0  0  0
  9  7  2  0  0  0  0
 10 11  2  0  0  0  0
 10  6  1  0  0  0  0
 11  1  1  0  0  0  0
 14 10  1  0  0  0  0
 15 11  1  0  0  0  0
 16 20  1  0  0  0  0
 17 16  1  0  0  0  0
 18 16  1  0  0  0  0
 19 16  1  0  0  0  0
M  RAD  2   2   2   3   3
M  END
