Coordinates from ORCA-job 4-NO2PhN2+~BF4-_B3LYPG-6-31G_dp-NX-Scan-d89-09-n800
 OpenBabel11261920323D

 20 19  0  0  0  0  0  0  0  0999 V2000
   -2.1382    0.2358    0.3622 C   0  0  0  0  0  0  0  0  0  0  0  0
   -3.3244   -0.4497    0.0990 N   0  0  0  0  0  0  0  0  0  0  0  0
   -4.2362   -1.0806    0.0292 N   0  0  0  0  0  0  0  0  0  0  0  0
   -1.7742    0.3392    1.7149 C   0  0  0  0  0  0  0  0  0  0  0  0
   -0.5845    0.9884    2.0110 C   0  0  0  0  0  0  0  0  0  0  0  0
    0.1810    1.4890    0.9573 C   0  0  0  0  0  0  0  0  0  0  0  0
    1.4565    2.1749    1.2852 N   0  0  0  0  0  0  0  0  0  0  0  0
    1.7538    2.2588    2.4728 O   0  0  0  0  0  0  0  0  0  0  0  0
    2.1154    2.6059    0.3463 O   0  0  0  0  0  0  0  0  0  0  0  0
   -0.1895    1.3759   -0.3806 C   0  0  0  0  0  0  0  0  0  0  0  0
   -1.3832    0.7395   -0.7043 C   0  0  0  0  0  0  0  0  0  0  0  0
   -2.4060   -0.0664    2.4963 H   0  0  0  0  0  0  0  0  0  0  0  0
   -0.2419    1.1111    3.0304 H   0  0  0  0  0  0  0  0  0  0  0  0
    0.4486    1.7913   -1.1502 H   0  0  0  0  0  0  0  0  0  0  0  0
   -1.7561    0.6134   -1.7169 H   0  0  0  0  0  0  0  0  0  0  0  0
   -4.3962    0.7877   -2.3423 B   0  0  0  0  0  0  0  0  0  0  0  0
   -5.5074    0.0145   -1.9859 F   0  0  0  0  0  0  0  0  0  0  0  0
   -3.2990   -0.1127   -2.5847 F   0  0  0  0  0  0  0  0  0  0  0  0
   -4.6177    1.5964   -3.4215 F   0  0  0  0  0  0  0  0  0  0  0  0
   -4.0074    1.5538   -1.1923 F   0  0  0  0  0  0  0  0  0  0  0  0
  1  4  2  0  0  0  0
  2  1  1  0  0  0  0
  3  2  1  0  0  0  0
  4  5  1  0  0  0  0
  4 12  1  0  0  0  0
  5 13  1  0  0  0  0
  6  7  1  0  0  0  0
  6  5  2  0  0  0  0
  7  8  2  0  0  0  0
  9  7  2  0  0  0  0
 10  6  1  0  0  0  0
 11 10  2  0  0  0  0
 11  1  1  0  0  0  0
 14 10  1  0  0  0  0
 15 11  1  0  0  0  0
 16 17  1  0  0  0  0
 16 20  1  0  0  0  0
 18 16  1  0  0  0  0
 19 16  1  0  0  0  0
M  RAD  2   2   2   3   3
M  END
