Coordinates from ORCA-job 4-NO2PhN2+~BF4-_B3LYPG-6-31G_dp-NX-Scan-d89-09-n800
 OpenBabel11261920323D

 20 19  0  0  0  0  0  0  0  0999 V2000
   -2.3393    0.6242    0.8314 C   0  0  0  0  0  0  0  0  0  0  0  0
   -3.7317    0.3178    0.8863 N   0  0  0  0  0  0  0  0  0  0  0  0
   -4.3959   -0.1140   -0.0557 N   0  0  0  0  0  0  0  0  0  0  0  0
   -1.6433    0.3606    2.0212 C   0  0  0  0  0  0  0  0  0  0  0  0
   -0.2926    0.6685    2.1268 C   0  0  0  0  0  0  0  0  0  0  0  0
    0.3334    1.2848    1.0455 C   0  0  0  0  0  0  0  0  0  0  0  0
    1.7613    1.6342    1.1539 N   0  0  0  0  0  0  0  0  0  0  0  0
    2.3354    1.3524    2.2039 O   0  0  0  0  0  0  0  0  0  0  0  0
    2.2863    2.1848    0.1881 O   0  0  0  0  0  0  0  0  0  0  0  0
   -0.3476    1.5936   -0.1304 C   0  0  0  0  0  0  0  0  0  0  0  0
   -1.6910    1.2533   -0.2464 C   0  0  0  0  0  0  0  0  0  0  0  0
   -2.1783   -0.0893    2.8502 H   0  0  0  0  0  0  0  0  0  0  0  0
    0.2732    0.4603    3.0259 H   0  0  0  0  0  0  0  0  0  0  0  0
    0.1809    2.0843   -0.9380 H   0  0  0  0  0  0  0  0  0  0  0  0
   -2.2250    1.4894   -1.1571 H   0  0  0  0  0  0  0  0  0  0  0  0
   -4.6240    0.7855   -3.3277 B   0  0  0  0  0  0  0  0  0  0  0  0
   -3.7408   -0.3174   -1.1369 F   0  0  0  0  0  0  0  0  0  0  0  0
   -3.6195    1.6382   -3.1805 F   0  0  0  0  0  0  0  0  0  0  0  0
   -4.4587   -0.2970   -4.0585 F   0  0  0  0  0  0  0  0  0  0  0  0
   -5.7891    1.0518   -2.7761 F   0  0  0  0  0  0  0  0  0  0  0  0
  1  2  1  0  0  0  0
  1  4  2  0  0  0  0
  3  2  2  0  0  0  0
  4  5  1  0  0  0  0
  4 12  1  0  0  0  0
  5 13  1  0  0  0  0
  6  7  1  0  0  0  0
  6  5  2  0  0  0  0
  7  8  2  0  0  0  0
  9  7  2  0  0  0  0
 10  6  1  0  0  0  0
 11 10  2  0  0  0  0
 11  1  1  0  0  0  0
 14 10  1  0  0  0  0
 15 11  1  0  0  0  0
 16 18  1  0  0  0  0
 16 20  1  0  0  0  0
 17  3  1  0  0  0  0
 19 16  1  0  0  0  0
M  END
