Coordinates from ORCA-job 4-NO2PhN2+~BF4-_B3LYPG-6-31G_dp-NX-Scan-d89-09-n800
 OpenBabel11261920313D

 20 19  0  0  0  0  0  0  0  0999 V2000
   -1.8988   -0.9989    0.1343 C   0  0  0  0  0  0  0  0  0  0  0  0
   -2.4699   -2.2310    0.0822 N   0  0  0  0  0  0  0  0  0  0  0  0
   -2.9012   -3.2665    0.0593 N   0  0  0  0  0  0  0  0  0  0  0  0
   -2.2697   -0.1301    1.1858 C   0  0  0  0  0  0  0  0  0  0  0  0
   -1.6225    1.0858    1.2738 C   0  0  0  0  0  0  0  0  0  0  0  0
   -0.6702    1.4079    0.3042 C   0  0  0  0  0  0  0  0  0  0  0  0
    0.1073    2.6625    0.4744 N   0  0  0  0  0  0  0  0  0  0  0  0
   -0.1320    3.3288    1.4721 O   0  0  0  0  0  0  0  0  0  0  0  0
    0.9602    2.9024   -0.3705 O   0  0  0  0  0  0  0  0  0  0  0  0
   -0.3183    0.5560   -0.7494 C   0  0  0  0  0  0  0  0  0  0  0  0
   -0.9423   -0.6659   -0.8567 C   0  0  0  0  0  0  0  0  0  0  0  0
   -3.0392   -0.4140    1.8937 H   0  0  0  0  0  0  0  0  0  0  0  0
   -1.8726    1.8097    2.0352 H   0  0  0  0  0  0  0  0  0  0  0  0
    0.4196    0.8861   -1.4688 H   0  0  0  0  0  0  0  0  0  0  0  0
   -0.7124   -1.3589   -1.6573 H   0  0  0  0  0  0  0  0  0  0  0  0
   -3.3459    2.4904   -0.9101 B   0  0  0  0  0  0  0  0  0  0  0  0
   -4.1433    3.3011   -1.6836 F   0  0  0  0  0  0  0  0  0  0  0  0
   -3.3988    1.1319   -1.3127 F   0  0  0  0  0  0  0  0  0  0  0  0
   -1.9714    2.9103   -1.0364 F   0  0  0  0  0  0  0  0  0  0  0  0
   -3.6852    2.5583    0.4564 F   0  0  0  0  0  0  0  0  0  0  0  0
  1  4  2  0  0  0  0
  2  1  1  0  0  0  0
  3  2  1  0  0  0  0
  4  5  1  0  0  0  0
  4 12  1  0  0  0  0
  5 13  1  0  0  0  0
  6  7  1  0  0  0  0
  6  5  2  0  0  0  0
  7  8  2  0  0  0  0
  9  7  2  0  0  0  0
 10  6  1  0  0  0  0
 11 10  2  0  0  0  0
 11  1  1  0  0  0  0
 14 10  1  0  0  0  0
 15 11  1  0  0  0  0
 16 20  1  0  0  0  0
 17 16  1  0  0  0  0
 18 16  1  0  0  0  0
 19 16  1  0  0  0  0
M  RAD  2   2   2   3   3
M  END
