Coordinates from ORCA-job 4-NO2PhN2+~BF4-_B3LYPG-6-31G_dp-NX-Scan-d89-09-n800
 OpenBabel11261920323D

 20 19  0  0  0  0  0  0  0  0999 V2000
   -2.1486    0.2580    0.3809 C   0  0  0  0  0  0  0  0  0  0  0  0
   -3.3431   -0.4088    0.1144 N   0  0  0  0  0  0  0  0  0  0  0  0
   -4.2758   -1.0051    0.0007 N   0  0  0  0  0  0  0  0  0  0  0  0
   -1.7747    0.3493    1.7319 C   0  0  0  0  0  0  0  0  0  0  0  0
   -0.5768    0.9842    2.0254 C   0  0  0  0  0  0  0  0  0  0  0  0
    0.1893    1.4807    0.9700 C   0  0  0  0  0  0  0  0  0  0  0  0
    1.4745    2.1498    1.2944 N   0  0  0  0  0  0  0  0  0  0  0  0
    1.7780    2.2267    2.4810 O   0  0  0  0  0  0  0  0  0  0  0  0
    2.1366    2.5722    0.3538 O   0  0  0  0  0  0  0  0  0  0  0  0
   -0.1893    1.3783   -0.3663 C   0  0  0  0  0  0  0  0  0  0  0  0
   -1.3930    0.7586   -0.6872 C   0  0  0  0  0  0  0  0  0  0  0  0
   -2.4065   -0.0547    2.5141 H   0  0  0  0  0  0  0  0  0  0  0  0
   -0.2276    1.0983    3.0436 H   0  0  0  0  0  0  0  0  0  0  0  0
    0.4504    1.7889   -1.1371 H   0  0  0  0  0  0  0  0  0  0  0  0
   -1.7698    0.6467   -1.7010 H   0  0  0  0  0  0  0  0  0  0  0  0
   -4.3903    0.7698   -2.3756 B   0  0  0  0  0  0  0  0  0  0  0  0
   -5.3850   -0.1217   -1.9130 F   0  0  0  0  0  0  0  0  0  0  0  0
   -3.2411   -0.0139   -2.7124 F   0  0  0  0  0  0  0  0  0  0  0  0
   -4.8110    1.5292   -3.4289 F   0  0  0  0  0  0  0  0  0  0  0  0
   -4.0027    1.5795   -1.2628 F   0  0  0  0  0  0  0  0  0  0  0  0
  1  4  2  0  0  0  0
  2  1  1  0  0  0  0
  3  2  1  0  0  0  0
  4  5  1  0  0  0  0
  4 12  1  0  0  0  0
  5 13  1  0  0  0  0
  6  7  1  0  0  0  0
  6  5  2  0  0  0  0
  7  8  2  0  0  0  0
  9  7  2  0  0  0  0
 10  6  1  0  0  0  0
 11 10  2  0  0  0  0
 11  1  1  0  0  0  0
 14 10  1  0  0  0  0
 15 11  1  0  0  0  0
 16 17  1  0  0  0  0
 16 20  1  0  0  0  0
 18 16  1  0  0  0  0
 19 16  1  0  0  0  0
M  RAD  2   2   2   3   3
M  END
