Coordinates from ORCA-job 4-NO2PhN2+~BF4-_B3LYPG-6-31G_dp-NX-Scan-d89-09-n800
 OpenBabel11261920323D

 20 19  0  0  0  0  0  0  0  0999 V2000
   -2.3439    0.6761    0.8510 C   0  0  0  0  0  0  0  0  0  0  0  0
   -3.7487    0.4094    0.8998 N   0  0  0  0  0  0  0  0  0  0  0  0
   -4.3571   -0.1087   -0.0553 N   0  0  0  0  0  0  0  0  0  0  0  0
   -1.6411    0.3770    2.0281 C   0  0  0  0  0  0  0  0  0  0  0  0
   -0.2847    0.6614    2.1276 C   0  0  0  0  0  0  0  0  0  0  0  0
    0.3455    1.2856    1.0526 C   0  0  0  0  0  0  0  0  0  0  0  0
    1.7788    1.6058    1.1547 N   0  0  0  0  0  0  0  0  0  0  0  0
    2.3575    1.2955    2.1947 O   0  0  0  0  0  0  0  0  0  0  0  0
    2.3075    2.1628    0.1939 O   0  0  0  0  0  0  0  0  0  0  0  0
   -0.3401    1.6267   -0.1117 C   0  0  0  0  0  0  0  0  0  0  0  0
   -1.6909    1.3134   -0.2187 C   0  0  0  0  0  0  0  0  0  0  0  0
   -2.1752   -0.0800    2.8540 H   0  0  0  0  0  0  0  0  0  0  0  0
    0.2845    0.4268    3.0181 H   0  0  0  0  0  0  0  0  0  0  0  0
    0.1903    2.1216   -0.9155 H   0  0  0  0  0  0  0  0  0  0  0  0
   -2.2303    1.5774   -1.1202 H   0  0  0  0  0  0  0  0  0  0  0  0
   -4.6658    0.7495   -3.4072 B   0  0  0  0  0  0  0  0  0  0  0  0
   -3.7119   -0.3999   -0.9998 F   0  0  0  0  0  0  0  0  0  0  0  0
   -3.6444    1.5383   -3.1073 F   0  0  0  0  0  0  0  0  0  0  0  0
   -4.5118   -0.2043   -4.3007 F   0  0  0  0  0  0  0  0  0  0  0  0
   -5.8247    0.9314   -2.8122 F   0  0  0  0  0  0  0  0  0  0  0  0
  1  2  1  0  0  0  0
  1  4  2  0  0  0  0
  3  2  2  0  0  0  0
  4  5  1  0  0  0  0
  4 12  1  0  0  0  0
  5 13  1  0  0  0  0
  6  7  1  0  0  0  0
  6  5  2  0  0  0  0
  7  8  2  0  0  0  0
  9  7  2  0  0  0  0
 10  6  1  0  0  0  0
 11 10  2  0  0  0  0
 11  1  1  0  0  0  0
 14 10  1  0  0  0  0
 15 11  1  0  0  0  0
 16 18  1  0  0  0  0
 16 20  1  0  0  0  0
 17  3  1  0  0  0  0
 19 16  1  0  0  0  0
M  END
