Coordinates from ORCA-job 4-NO2PhN2+~BF4-_B3LYPG-6-31G_dp-NX-Scan-d89-09-n800
 OpenBabel11261920323D

 20 19  0  0  0  0  0  0  0  0999 V2000
   -2.1870    0.2083    0.4547 C   0  0  0  0  0  0  0  0  0  0  0  0
   -3.3680   -0.5113    0.2916 N   0  0  0  0  0  0  0  0  0  0  0  0
   -4.2775   -1.1446    0.2624 N   0  0  0  0  0  0  0  0  0  0  0  0
   -1.6786    0.2389    1.7663 C   0  0  0  0  0  0  0  0  0  0  0  0
   -0.4913    0.9194    1.9845 C   0  0  0  0  0  0  0  0  0  0  0  0
    0.1319    1.5308    0.8957 C   0  0  0  0  0  0  0  0  0  0  0  0
    1.4054    2.2562    1.1375 N   0  0  0  0  0  0  0  0  0  0  0  0
    1.8267    2.2688    2.2902 O   0  0  0  0  0  0  0  0  0  0  0  0
    1.9392    2.7846    0.1701 O   0  0  0  0  0  0  0  0  0  0  0  0
   -0.3809    1.4950   -0.3977 C   0  0  0  0  0  0  0  0  0  0  0  0
   -1.5727    0.8194   -0.6476 C   0  0  0  0  0  0  0  0  0  0  0  0
   -2.2043   -0.2510    2.5777 H   0  0  0  0  0  0  0  0  0  0  0  0
   -0.0447    0.9849    2.9683 H   0  0  0  0  0  0  0  0  0  0  0  0
    0.1456    1.9978   -1.1991 H   0  0  0  0  0  0  0  0  0  0  0  0
   -2.0167    0.7914   -1.6394 H   0  0  0  0  0  0  0  0  0  0  0  0
   -4.2617    0.7301   -2.3535 B   0  0  0  0  0  0  0  0  0  0  0  0
   -5.4506    0.6737   -3.0227 F   0  0  0  0  0  0  0  0  0  0  0  0
   -3.7049   -0.5831   -2.1783 F   0  0  0  0  0  0  0  0  0  0  0  0
   -3.2799    1.4993   -3.0015 F   0  0  0  0  0  0  0  0  0  0  0  0
   -4.4365    1.2574   -1.0334 F   0  0  0  0  0  0  0  0  0  0  0  0
  1  4  2  0  0  0  0
  2  1  1  0  0  0  0
  3  2  1  0  0  0  0
  4  5  1  0  0  0  0
  4 12  1  0  0  0  0
  5 13  1  0  0  0  0
  6  7  1  0  0  0  0
  6  5  2  0  0  0  0
  7  8  2  0  0  0  0
  9  7  2  0  0  0  0
 10  6  1  0  0  0  0
 11 10  2  0  0  0  0
 11  1  1  0  0  0  0
 14 10  1  0  0  0  0
 15 11  1  0  0  0  0
 16 18  1  0  0  0  0
 16 20  1  0  0  0  0
 17 16  1  0  0  0  0
 19 16  1  0  0  0  0
M  RAD  2   2   2   3   3
M  END
