Coordinates from ORCA-job 4-NO2PhN2+~BF4-_B3LYPG-6-31G_dp-NX-Scan-d89-09-n800
 OpenBabel11261920313D

 20 19  0  0  0  0  0  0  0  0999 V2000
   -1.6941   -1.2882    0.1224 C   0  0  0  0  0  0  0  0  0  0  0  0
   -2.1142   -2.5843    0.1958 N   0  0  0  0  0  0  0  0  0  0  0  0
   -2.4196   -3.6605    0.2711 N   0  0  0  0  0  0  0  0  0  0  0  0
   -2.4134   -0.2868    0.8225 C   0  0  0  0  0  0  0  0  0  0  0  0
   -1.8984    0.9959    0.8262 C   0  0  0  0  0  0  0  0  0  0  0  0
   -0.7278    1.2437    0.1034 C   0  0  0  0  0  0  0  0  0  0  0  0
   -0.0763    2.5719    0.2161 N   0  0  0  0  0  0  0  0  0  0  0  0
   -0.3233    3.2073    1.2280 O   0  0  0  0  0  0  0  0  0  0  0  0
    0.7105    2.8732   -0.6732 O   0  0  0  0  0  0  0  0  0  0  0  0
   -0.0529    0.2689   -0.6418 C   0  0  0  0  0  0  0  0  0  0  0  0
   -0.5235   -1.0283   -0.6328 C   0  0  0  0  0  0  0  0  0  0  0  0
   -3.3409   -0.5206    1.3315 H   0  0  0  0  0  0  0  0  0  0  0  0
   -2.4209    1.8301    1.2954 H   0  0  0  0  0  0  0  0  0  0  0  0
    0.8306    0.5497   -1.2015 H   0  0  0  0  0  0  0  0  0  0  0  0
   -0.0183   -1.8257   -1.1650 H   0  0  0  0  0  0  0  0  0  0  0  0
   -3.5164    3.1455   -0.5691 B   0  0  0  0  0  0  0  0  0  0  0  0
   -4.1885    4.1675   -1.1997 F   0  0  0  0  0  0  0  0  0  0  0  0
   -4.1783    1.9040   -0.6674 F   0  0  0  0  0  0  0  0  0  0  0  0
   -2.2115    2.9728   -1.1480 F   0  0  0  0  0  0  0  0  0  0  0  0
   -3.3295    3.4301    0.8121 F   0  0  0  0  0  0  0  0  0  0  0  0
  1  2  1  0  0  0  0
  1  4  2  0  0  0  0
  2  3  1  0  0  0  0
  4  5  1  0  0  0  0
  4 12  1  0  0  0  0
  5 13  1  0  0  0  0
  6  7  1  0  0  0  0
  6  5  2  0  0  0  0
  7  8  2  0  0  0  0
  9  7  2  0  0  0  0
 10 11  2  0  0  0  0
 10  6  1  0  0  0  0
 11  1  1  0  0  0  0
 14 10  1  0  0  0  0
 15 11  1  0  0  0  0
 16 20  1  0  0  0  0
 17 16  1  0  0  0  0
 18 16  1  0  0  0  0
 19 16  1  0  0  0  0
M  RAD  2   2   2   3   3
M  END
