Coordinates from ORCA-job 4-NO2PhN2+~BF4-_B3LYPG-6-31G_dp-NX-Scan-d89-09-n800
 OpenBabel11261920313D

 20 19  0  0  0  0  0  0  0  0999 V2000
   -1.5958   -1.3823    0.1785 C   0  0  0  0  0  0  0  0  0  0  0  0
   -1.9724   -2.6895    0.2916 N   0  0  0  0  0  0  0  0  0  0  0  0
   -2.2515   -3.7706    0.3944 N   0  0  0  0  0  0  0  0  0  0  0  0
   -2.3717   -0.3786    0.8161 C   0  0  0  0  0  0  0  0  0  0  0  0
   -1.9232    0.9280    0.7554 C   0  0  0  0  0  0  0  0  0  0  0  0
   -0.7382    1.1861    0.0556 C   0  0  0  0  0  0  0  0  0  0  0  0
   -0.1439    2.5436    0.1123 N   0  0  0  0  0  0  0  0  0  0  0  0
   -0.3695    3.1820    1.1271 O   0  0  0  0  0  0  0  0  0  0  0  0
    0.5882    2.8586   -0.8170 O   0  0  0  0  0  0  0  0  0  0  0  0
   -0.0018    0.2064   -0.6193 C   0  0  0  0  0  0  0  0  0  0  0  0
   -0.4190   -1.1094   -0.5588 C   0  0  0  0  0  0  0  0  0  0  0  0
   -3.2935   -0.6336    1.3266 H   0  0  0  0  0  0  0  0  0  0  0  0
   -2.4992    1.7669    1.1625 H   0  0  0  0  0  0  0  0  0  0  0  0
    0.8846    0.4959   -1.1704 H   0  0  0  0  0  0  0  0  0  0  0  0
    0.1324   -1.9080   -1.0412 H   0  0  0  0  0  0  0  0  0  0  0  0
   -3.6177    3.3591   -0.5549 B   0  0  0  0  0  0  0  0  0  0  0  0
   -3.8082    4.6799   -0.9008 F   0  0  0  0  0  0  0  0  0  0  0  0
   -4.6221    2.5172   -1.0181 F   0  0  0  0  0  0  0  0  0  0  0  0
   -2.3584    2.8878   -1.0850 F   0  0  0  0  0  0  0  0  0  0  0  0
   -3.5257    3.2264    0.8714 F   0  0  0  0  0  0  0  0  0  0  0  0
  1  2  1  0  0  0  0
  1  4  2  0  0  0  0
  2  3  1  0  0  0  0
  4 12  1  0  0  0  0
  5  4  1  0  0  0  0
  5 13  1  0  0  0  0
  6  7  1  0  0  0  0
  6  5  2  0  0  0  0
  7  8  2  0  0  0  0
  9  7  2  0  0  0  0
 10 11  2  0  0  0  0
 10  6  1  0  0  0  0
 11  1  1  0  0  0  0
 14 10  1  0  0  0  0
 15 11  1  0  0  0  0
 16 20  1  0  0  0  0
 17 16  1  0  0  0  0
 18 16  1  0  0  0  0
 19 16  1  0  0  0  0
M  RAD  2   2   2   3   3
M  END
