Coordinates from ORCA-job 4-NO2PhN2+~BF4-_B3LYPG-6-31G_dp-NX-Scan-d89-09-n800
 OpenBabel11261920313D

 20 19  0  0  0  0  0  0  0  0999 V2000
   -1.6728   -1.3229    0.1298 C   0  0  0  0  0  0  0  0  0  0  0  0
   -2.0669   -2.6262    0.2314 N   0  0  0  0  0  0  0  0  0  0  0  0
   -2.3454   -3.7082    0.3284 N   0  0  0  0  0  0  0  0  0  0  0  0
   -2.4247   -0.3137    0.7847 C   0  0  0  0  0  0  0  0  0  0  0  0
   -1.9306    0.9781    0.7666 C   0  0  0  0  0  0  0  0  0  0  0  0
   -0.7403    1.2220    0.0737 C   0  0  0  0  0  0  0  0  0  0  0  0
   -0.0993    2.5554    0.1794 N   0  0  0  0  0  0  0  0  0  0  0  0
   -0.3336    3.1814    1.1998 O   0  0  0  0  0  0  0  0  0  0  0  0
    0.6718    2.8647   -0.7205 O   0  0  0  0  0  0  0  0  0  0  0  0
   -0.0358    0.2397   -0.6329 C   0  0  0  0  0  0  0  0  0  0  0  0
   -0.4883   -1.0641   -0.6033 C   0  0  0  0  0  0  0  0  0  0  0  0
   -3.3586   -0.5499    1.2812 H   0  0  0  0  0  0  0  0  0  0  0  0
   -2.4699    1.8175    1.2121 H   0  0  0  0  0  0  0  0  0  0  0  0
    0.8584    0.5185   -1.1765 H   0  0  0  0  0  0  0  0  0  0  0  0
    0.0421   -1.8667   -1.1022 H   0  0  0  0  0  0  0  0  0  0  0  0
   -3.5341    3.2306   -0.5415 B   0  0  0  0  0  0  0  0  0  0  0  0
   -4.1663    4.3114   -1.1143 F   0  0  0  0  0  0  0  0  0  0  0  0
   -4.2412    2.0231   -0.6965 F   0  0  0  0  0  0  0  0  0  0  0  0
   -2.2369    3.0384   -1.1287 F   0  0  0  0  0  0  0  0  0  0  0  0
   -3.3340    3.4370    0.8552 F   0  0  0  0  0  0  0  0  0  0  0  0
  1  2  1  0  0  0  0
  1  4  2  0  0  0  0
  2  3  1  0  0  0  0
  4 12  1  0  0  0  0
  5  4  1  0  0  0  0
  5 13  1  0  0  0  0
  6  7  1  0  0  0  0
  6  5  2  0  0  0  0
  7  8  2  0  0  0  0
  9  7  2  0  0  0  0
 10 11  2  0  0  0  0
 10  6  1  0  0  0  0
 11  1  1  0  0  0  0
 14 10  1  0  0  0  0
 15 11  1  0  0  0  0
 16 20  1  0  0  0  0
 17 16  1  0  0  0  0
 18 16  1  0  0  0  0
 19 16  1  0  0  0  0
M  RAD  2   2   2   3   3
M  END
