Coordinates from ORCA-job 4-NO2PhN2+~BF4-_B3LYPG-6-31G_dp-NX-Scan-d89-09-n800
 OpenBabel11261920323D

 20 19  0  0  0  0  0  0  0  0999 V2000
   -1.9369   -0.5728   -0.0145 C   0  0  0  0  0  0  0  0  0  0  0  0
   -2.7418   -1.6613   -0.2367 N   0  0  0  0  0  0  0  0  0  0  0  0
   -3.3107   -2.6109   -0.3814 N   0  0  0  0  0  0  0  0  0  0  0  0
   -2.2401    0.2698    1.0677 C   0  0  0  0  0  0  0  0  0  0  0  0
   -1.3583    1.3146    1.3203 C   0  0  0  0  0  0  0  0  0  0  0  0
   -0.2587    1.4782    0.4909 C   0  0  0  0  0  0  0  0  0  0  0  0
    0.6742    2.5962    0.7736 N   0  0  0  0  0  0  0  0  0  0  0  0
    0.4356    3.2884    1.7565 O   0  0  0  0  0  0  0  0  0  0  0  0
    1.6250    2.7343    0.0101 O   0  0  0  0  0  0  0  0  0  0  0  0
    0.0174    0.6569   -0.6079 C   0  0  0  0  0  0  0  0  0  0  0  0
   -0.8348   -0.3927   -0.8788 C   0  0  0  0  0  0  0  0  0  0  0  0
   -3.1353    0.1270    1.6546 H   0  0  0  0  0  0  0  0  0  0  0  0
   -1.5426    2.0157    2.1230 H   0  0  0  0  0  0  0  0  0  0  0  0
    0.8803    0.8626   -1.2273 H   0  0  0  0  0  0  0  0  0  0  0  0
   -0.6783   -1.0542   -1.7222 H   0  0  0  0  0  0  0  0  0  0  0  0
   -3.9198    1.8083   -0.9856 B   0  0  0  0  0  0  0  0  0  0  0  0
   -4.7457    2.7055   -1.6276 F   0  0  0  0  0  0  0  0  0  0  0  0
   -4.2531    0.4460   -1.2659 F   0  0  0  0  0  0  0  0  0  0  0  0
   -2.5686    1.9924   -1.3556 F   0  0  0  0  0  0  0  0  0  0  0  0
   -4.0144    1.9621    0.4325 F   0  0  0  0  0  0  0  0  0  0  0  0
  1  4  2  0  0  0  0
  2  1  1  0  0  0  0
  3  2  1  0  0  0  0
  4  5  1  0  0  0  0
  4 12  1  0  0  0  0
  5 13  1  0  0  0  0
  6  7  1  0  0  0  0
  6  5  2  0  0  0  0
  7  8  2  0  0  0  0
  9  7  2  0  0  0  0
 10  6  1  0  0  0  0
 11 10  2  0  0  0  0
 11  1  1  0  0  0  0
 14 10  1  0  0  0  0
 15 11  1  0  0  0  0
 16 20  1  0  0  0  0
 17 16  1  0  0  0  0
 18 16  1  0  0  0  0
 19 16  1  0  0  0  0
M  RAD  2   2   2   3   3
M  END
