Coordinates from ORCA-job 4-NO2PhN2+~BF4-_B3LYPG-6-31G_dp-NX-Scan-d89-09-n800
 OpenBabel11261920323D

 20 19  0  0  0  0  0  0  0  0999 V2000
   -1.9039   -0.9620    0.1339 C   0  0  0  0  0  0  0  0  0  0  0  0
   -2.5370   -2.1603    0.0425 N   0  0  0  0  0  0  0  0  0  0  0  0
   -3.0308   -3.1652   -0.0188 N   0  0  0  0  0  0  0  0  0  0  0  0
   -2.2535   -0.0999    1.1966 C   0  0  0  0  0  0  0  0  0  0  0  0
   -1.5801    1.1010    1.2964 C   0  0  0  0  0  0  0  0  0  0  0  0
   -0.6283    1.4148    0.3253 C   0  0  0  0  0  0  0  0  0  0  0  0
    0.1404    2.6760    0.4793 N   0  0  0  0  0  0  0  0  0  0  0  0
   -0.0951    3.3486    1.4740 O   0  0  0  0  0  0  0  0  0  0  0  0
    0.9803    2.9193   -0.3777 O   0  0  0  0  0  0  0  0  0  0  0  0
   -0.2857    0.5630   -0.7307 C   0  0  0  0  0  0  0  0  0  0  0  0
   -0.9354   -0.6445   -0.8494 C   0  0  0  0  0  0  0  0  0  0  0  0
   -3.0354   -0.3700    1.8959 H   0  0  0  0  0  0  0  0  0  0  0  0
   -1.8185    1.8237    2.0630 H   0  0  0  0  0  0  0  0  0  0  0  0
    0.4572    0.8854   -1.4484 H   0  0  0  0  0  0  0  0  0  0  0  0
   -0.7237   -1.3329   -1.6589 H   0  0  0  0  0  0  0  0  0  0  0  0
   -3.3649    2.4070   -0.9124 B   0  0  0  0  0  0  0  0  0  0  0  0
   -4.1941    3.1849   -1.6847 F   0  0  0  0  0  0  0  0  0  0  0  0
   -3.3544    1.0518   -1.3384 F   0  0  0  0  0  0  0  0  0  0  0  0
   -2.0142    2.8919   -1.0122 F   0  0  0  0  0  0  0  0  0  0  0  0
   -3.7294    2.4333    0.4506 F   0  0  0  0  0  0  0  0  0  0  0  0
  1  4  2  0  0  0  0
  2  1  1  0  0  0  0
  3  2  1  0  0  0  0
  4  5  1  0  0  0  0
  4 12  1  0  0  0  0
  5 13  1  0  0  0  0
  6  7  1  0  0  0  0
  6  5  2  0  0  0  0
  7  8  2  0  0  0  0
  9  7  2  0  0  0  0
 10  6  1  0  0  0  0
 11 10  2  0  0  0  0
 11  1  1  0  0  0  0
 14 10  1  0  0  0  0
 15 11  1  0  0  0  0
 16 20  1  0  0  0  0
 17 16  1  0  0  0  0
 18 16  1  0  0  0  0
 19 16  1  0  0  0  0
M  RAD  2   2   2   3   3
M  END
