Coordinates from ORCA-job 4-NO2PhN2+~BF4-_B3LYPG-6-31G_dp-NX-Scan-d89-09-n800
 OpenBabel11261920323D

 20 19  0  0  0  0  0  0  0  0999 V2000
   -2.1317    0.0021    0.3483 C   0  0  0  0  0  0  0  0  0  0  0  0
   -3.2253   -0.8379    0.1659 N   0  0  0  0  0  0  0  0  0  0  0  0
   -4.0422   -1.5880    0.1387 N   0  0  0  0  0  0  0  0  0  0  0  0
   -1.8112    0.3228    1.6797 C   0  0  0  0  0  0  0  0  0  0  0  0
   -0.6910    1.1077    1.8967 C   0  0  0  0  0  0  0  0  0  0  0  0
    0.0549    1.5260    0.7916 C   0  0  0  0  0  0  0  0  0  0  0  0
    1.2622    2.3544    1.0384 N   0  0  0  0  0  0  0  0  0  0  0  0
    1.5167    2.6325    2.2064 O   0  0  0  0  0  0  0  0  0  0  0  0
    1.9167    2.6928    0.0596 O   0  0  0  0  0  0  0  0  0  0  0  0
   -0.2751    1.2075   -0.5212 C   0  0  0  0  0  0  0  0  0  0  0  0
   -1.4013    0.4279   -0.7685 C   0  0  0  0  0  0  0  0  0  0  0  0
   -2.4259   -0.0269    2.5005 H   0  0  0  0  0  0  0  0  0  0  0  0
   -0.3847    1.3987    2.8929 H   0  0  0  0  0  0  0  0  0  0  0  0
    0.3336    1.5791   -1.3353 H   0  0  0  0  0  0  0  0  0  0  0  0
   -1.7493    0.1758   -1.7614 H   0  0  0  0  0  0  0  0  0  0  0  0
   -4.2000    1.0298   -2.0297 B   0  0  0  0  0  0  0  0  0  0  0  0
   -5.2802    1.2701   -2.8320 F   0  0  0  0  0  0  0  0  0  0  0  0
   -3.6710   -0.2979   -2.2621 F   0  0  0  0  0  0  0  0  0  0  0  0
   -3.1484    1.9332   -2.2369 F   0  0  0  0  0  0  0  0  0  0  0  0
   -4.5535    1.0564   -0.6457 F   0  0  0  0  0  0  0  0  0  0  0  0
  1  4  2  0  0  0  0
  2  1  1  0  0  0  0
  3  2  1  0  0  0  0
  4  5  1  0  0  0  0
  4 12  1  0  0  0  0
  5 13  1  0  0  0  0
  6  7  1  0  0  0  0
  6  5  2  0  0  0  0
  7  8  2  0  0  0  0
  9  7  2  0  0  0  0
 10  6  1  0  0  0  0
 11 10  2  0  0  0  0
 11  1  1  0  0  0  0
 14 10  1  0  0  0  0
 15 11  1  0  0  0  0
 16 20  1  0  0  0  0
 17 16  1  0  0  0  0
 18 16  1  0  0  0  0
 19 16  1  0  0  0  0
M  RAD  2   2   2   3   3
M  END
