Coordinates from ORCA-job 4-NO2PhN2+~BF4-_B3LYPG-6-31G_dp-NX-Scan-d89-09-n800
 OpenBabel11261920313D

 20 19  0  0  0  0  0  0  0  0999 V2000
   -1.6121   -1.3650    0.1705 C   0  0  0  0  0  0  0  0  0  0  0  0
   -1.9983   -2.6696    0.2742 N   0  0  0  0  0  0  0  0  0  0  0  0
   -2.2870   -3.7488    0.3704 N   0  0  0  0  0  0  0  0  0  0  0  0
   -2.3728   -0.3628    0.8284 C   0  0  0  0  0  0  0  0  0  0  0  0
   -1.9136    0.9399    0.7783 C   0  0  0  0  0  0  0  0  0  0  0  0
   -0.7356    1.1979    0.0668 C   0  0  0  0  0  0  0  0  0  0  0  0
   -0.1289    2.5498    0.1361 N   0  0  0  0  0  0  0  0  0  0  0  0
   -0.3574    3.1859    1.1518 O   0  0  0  0  0  0  0  0  0  0  0  0
    0.6138    2.8634   -0.7854 O   0  0  0  0  0  0  0  0  0  0  0  0
   -0.0147    0.2204   -0.6277 C   0  0  0  0  0  0  0  0  0  0  0  0
   -0.4419   -1.0925   -0.5775 C   0  0  0  0  0  0  0  0  0  0  0  0
   -3.2916   -0.6160    1.3450 H   0  0  0  0  0  0  0  0  0  0  0  0
   -2.4795    1.7781    1.1978 H   0  0  0  0  0  0  0  0  0  0  0  0
    0.8678    0.5095   -1.1851 H   0  0  0  0  0  0  0  0  0  0  0  0
    0.0976   -1.8899   -1.0751 H   0  0  0  0  0  0  0  0  0  0  0  0
   -3.6029    3.3165   -0.5654 B   0  0  0  0  0  0  0  0  0  0  0  0
   -3.8678    4.6085   -0.9651 F   0  0  0  0  0  0  0  0  0  0  0  0
   -4.5601    2.3994   -0.9883 F   0  0  0  0  0  0  0  0  0  0  0  0
   -2.3226    2.8938   -1.0867 F   0  0  0  0  0  0  0  0  0  0  0  0
   -3.4990    3.2476    0.8628 F   0  0  0  0  0  0  0  0  0  0  0  0
  1  2  1  0  0  0  0
  1  4  2  0  0  0  0
  2  3  1  0  0  0  0
  4 12  1  0  0  0  0
  5  4  1  0  0  0  0
  5 13  1  0  0  0  0
  6  7  1  0  0  0  0
  6  5  2  0  0  0  0
  7  8  2  0  0  0  0
  9  7  2  0  0  0  0
 10 11  2  0  0  0  0
 10  6  1  0  0  0  0
 11  1  1  0  0  0  0
 14 10  1  0  0  0  0
 15 11  1  0  0  0  0
 16 20  1  0  0  0  0
 17 16  1  0  0  0  0
 18 16  1  0  0  0  0
 19 16  1  0  0  0  0
M  RAD  2   2   2   3   3
M  END
