Coordinates from ORCA-job 4-NO2PhN2+~BF4-_B3LYPG-6-31G_dp-NX-Scan-d89-09-n800
 OpenBabel11261920323D

 20 19  0  0  0  0  0  0  0  0999 V2000
   -2.1299    0.1897    0.3576 C   0  0  0  0  0  0  0  0  0  0  0  0
   -3.2959   -0.5379    0.1104 N   0  0  0  0  0  0  0  0  0  0  0  0
   -4.1667   -1.2258    0.0828 N   0  0  0  0  0  0  0  0  0  0  0  0
   -1.7732    0.3308    1.7084 C   0  0  0  0  0  0  0  0  0  0  0  0
   -0.5971    1.0099    1.9929 C   0  0  0  0  0  0  0  0  0  0  0  0
    0.1618    1.5019    0.9309 C   0  0  0  0  0  0  0  0  0  0  0  0
    1.4240    2.2173    1.2468 N   0  0  0  0  0  0  0  0  0  0  0  0
    1.7136    2.3372    2.4333 O   0  0  0  0  0  0  0  0  0  0  0  0
    2.0827    2.6304    0.2998 O   0  0  0  0  0  0  0  0  0  0  0  0
   -0.2039    1.3546   -0.4054 C   0  0  0  0  0  0  0  0  0  0  0  0
   -1.3840    0.6887   -0.7170 C   0  0  0  0  0  0  0  0  0  0  0  0
   -2.3992   -0.0695    2.4972 H   0  0  0  0  0  0  0  0  0  0  0  0
   -0.2606    1.1620    3.0104 H   0  0  0  0  0  0  0  0  0  0  0  0
    0.4265    1.7674   -1.1826 H   0  0  0  0  0  0  0  0  0  0  0  0
   -1.7564    0.5373   -1.7258 H   0  0  0  0  0  0  0  0  0  0  0  0
   -4.3866    0.8353   -2.3001 B   0  0  0  0  0  0  0  0  0  0  0  0
   -5.6311    0.2382   -2.2279 F   0  0  0  0  0  0  0  0  0  0  0  0
   -3.3847   -0.2032   -2.4453 F   0  0  0  0  0  0  0  0  0  0  0  0
   -4.2580    1.7532   -3.3108 F   0  0  0  0  0  0  0  0  0  0  0  0
   -4.0877    1.4484   -1.0299 F   0  0  0  0  0  0  0  0  0  0  0  0
  1  4  2  0  0  0  0
  2  1  1  0  0  0  0
  3  2  1  0  0  0  0
  4  5  1  0  0  0  0
  4 12  1  0  0  0  0
  5 13  1  0  0  0  0
  6  7  1  0  0  0  0
  6  5  2  0  0  0  0
  7  8  2  0  0  0  0
  9  7  2  0  0  0  0
 10  6  1  0  0  0  0
 11 10  2  0  0  0  0
 11  1  1  0  0  0  0
 14 10  1  0  0  0  0
 15 11  1  0  0  0  0
 16 17  1  0  0  0  0
 16 20  1  0  0  0  0
 18 16  1  0  0  0  0
 19 16  1  0  0  0  0
M  RAD  2   2   2   3   3
M  END
