Coordinates from ORCA-job 4-NO2PhN2+~BF4-_B3LYPG-6-31G_dp-NX-Scan-d89-09-n800
 OpenBabel11261920323D

 20 19  0  0  0  0  0  0  0  0999 V2000
   -2.1635    0.2751    0.4075 C   0  0  0  0  0  0  0  0  0  0  0  0
   -3.3716   -0.3669    0.1474 N   0  0  0  0  0  0  0  0  0  0  0  0
   -4.3350   -0.9042   -0.0236 N   0  0  0  0  0  0  0  0  0  0  0  0
   -1.7665    0.3439    1.7534 C   0  0  0  0  0  0  0  0  0  0  0  0
   -0.5604    0.9658    2.0400 C   0  0  0  0  0  0  0  0  0  0  0  0
    0.1943    1.4726    0.9810 C   0  0  0  0  0  0  0  0  0  0  0  0
    1.4868    2.1314    1.2966 N   0  0  0  0  0  0  0  0  0  0  0  0
    1.8096    2.1864    2.4793 O   0  0  0  0  0  0  0  0  0  0  0  0
    2.1354    2.5690    0.3534 O   0  0  0  0  0  0  0  0  0  0  0  0
   -0.2026    1.3891   -0.3510 C   0  0  0  0  0  0  0  0  0  0  0  0
   -1.4149    0.7814   -0.6637 C   0  0  0  0  0  0  0  0  0  0  0  0
   -2.3900   -0.0679    2.5383 H   0  0  0  0  0  0  0  0  0  0  0  0
   -0.1957    1.0621    3.0545 H   0  0  0  0  0  0  0  0  0  0  0  0
    0.4298    1.8042   -1.1254 H   0  0  0  0  0  0  0  0  0  0  0  0
   -1.7987    0.6848   -1.6763 H   0  0  0  0  0  0  0  0  0  0  0  0
   -4.3672    0.7555   -2.4157 B   0  0  0  0  0  0  0  0  0  0  0  0
   -5.2595   -0.2147   -1.8518 F   0  0  0  0  0  0  0  0  0  0  0  0
   -3.1952    0.0533   -2.8104 F   0  0  0  0  0  0  0  0  0  0  0  0
   -4.9462    1.4230   -3.4534 F   0  0  0  0  0  0  0  0  0  0  0  0
   -3.9952    1.6223   -1.3542 F   0  0  0  0  0  0  0  0  0  0  0  0
  1  4  2  0  0  0  0
  2  1  1  0  0  0  0
  3  2  1  0  0  0  0
  4  5  1  0  0  0  0
  4 12  1  0  0  0  0
  5 13  1  0  0  0  0
  6  7  1  0  0  0  0
  6  5  2  0  0  0  0
  7  8  2  0  0  0  0
  9  7  2  0  0  0  0
 10  6  1  0  0  0  0
 11 10  2  0  0  0  0
 11  1  1  0  0  0  0
 14 10  1  0  0  0  0
 15 11  1  0  0  0  0
 16 17  1  0  0  0  0
 16 20  1  0  0  0  0
 18 16  1  0  0  0  0
 19 16  1  0  0  0  0
M  RAD  2   2   2   3   3
M  END
