Coordinates from ORCA-job 4-NO2PhN2+~BF4-_B3LYPG-6-31G_dp-NX-Scan-d89-09-n800
 OpenBabel11261920323D

 20 19  0  0  0  0  0  0  0  0999 V2000
   -2.2785    0.2387    0.5677 C   0  0  0  0  0  0  0  0  0  0  0  0
   -3.5410   -0.3677    0.4644 N   0  0  0  0  0  0  0  0  0  0  0  0
   -4.3523   -0.7305   -0.2799 N   0  0  0  0  0  0  0  0  0  0  0  0
   -1.8161    0.4245    1.8793 C   0  0  0  0  0  0  0  0  0  0  0  0
   -0.5737    1.0092    2.0849 C   0  0  0  0  0  0  0  0  0  0  0  0
    0.1675    1.3868    0.9672 C   0  0  0  0  0  0  0  0  0  0  0  0
    1.4952    2.0098    1.1795 N   0  0  0  0  0  0  0  0  0  0  0  0
    1.8635    2.1604    2.3412 O   0  0  0  0  0  0  0  0  0  0  0  0
    2.1319    2.3292    0.1810 O   0  0  0  0  0  0  0  0  0  0  0  0
   -0.2840    1.2061   -0.3387 C   0  0  0  0  0  0  0  0  0  0  0  0
   -1.5277    0.6230   -0.5566 C   0  0  0  0  0  0  0  0  0  0  0  0
   -2.4344    0.1117    2.7127 H   0  0  0  0  0  0  0  0  0  0  0  0
   -0.1744    1.1755    3.0769 H   0  0  0  0  0  0  0  0  0  0  0  0
    0.3350    1.5261   -1.1673 H   0  0  0  0  0  0  0  0  0  0  0  0
   -1.9046    0.4872   -1.5602 H   0  0  0  0  0  0  0  0  0  0  0  0
   -4.2545    1.0265   -2.5202 B   0  0  0  0  0  0  0  0  0  0  0  0
   -3.8981   -0.4816   -1.8580 F   0  0  0  0  0  0  0  0  0  0  0  0
   -3.1129    1.2351   -3.2358 F   0  0  0  0  0  0  0  0  0  0  0  0
   -5.3797    0.8118   -3.2208 F   0  0  0  0  0  0  0  0  0  0  0  0
   -4.3675    1.7844   -1.3917 F   0  0  0  0  0  0  0  0  0  0  0  0
  1  4  2  0  0  0  0
  2  1  1  0  0  0  0
  3  2  1  0  0  0  0
  4  5  1  0  0  0  0
  4 12  1  0  0  0  0
  5 13  1  0  0  0  0
  6  7  1  0  0  0  0
  6  5  2  0  0  0  0
  7  8  2  0  0  0  0
  9  7  2  0  0  0  0
 10  6  1  0  0  0  0
 11 10  2  0  0  0  0
 11  1  1  0  0  0  0
 14 10  1  0  0  0  0
 15 11  1  0  0  0  0
 16 20  1  0  0  0  0
 17  3  1  0  0  0  0
 18 16  1  0  0  0  0
 19 16  1  0  0  0  0
M  RAD  2   2   2   3   2
M  END
