Coordinates from ORCA-job 4-NO2PhN2+~BF4-_B3LYPG-6-31G_dp-NX-Scan-d89-09-n800
 OpenBabel11261920323D

 20 19  0  0  0  0  0  0  0  0999 V2000
   -2.1943    0.3015    0.4558 C   0  0  0  0  0  0  0  0  0  0  0  0
   -3.4147   -0.3236    0.2214 N   0  0  0  0  0  0  0  0  0  0  0  0
   -4.3893   -0.8143   -0.0436 N   0  0  0  0  0  0  0  0  0  0  0  0
   -1.7679    0.3613    1.7931 C   0  0  0  0  0  0  0  0  0  0  0  0
   -0.5467    0.9607    2.0628 C   0  0  0  0  0  0  0  0  0  0  0  0
    0.1980    1.4579    0.9927 C   0  0  0  0  0  0  0  0  0  0  0  0
    1.5077    2.0914    1.2868 N   0  0  0  0  0  0  0  0  0  0  0  0
    1.8530    2.1370    2.4637 O   0  0  0  0  0  0  0  0  0  0  0  0
    2.1478    2.5204    0.3336 O   0  0  0  0  0  0  0  0  0  0  0  0
   -0.2248    1.3862   -0.3321 C   0  0  0  0  0  0  0  0  0  0  0  0
   -1.4528    0.8002   -0.6258 C   0  0  0  0  0  0  0  0  0  0  0  0
   -2.3842   -0.0452    2.5866 H   0  0  0  0  0  0  0  0  0  0  0  0
   -0.1622    1.0457    3.0710 H   0  0  0  0  0  0  0  0  0  0  0  0
    0.4012    1.7924   -1.1163 H   0  0  0  0  0  0  0  0  0  0  0  0
   -1.8420    0.7222   -1.6382 H   0  0  0  0  0  0  0  0  0  0  0  0
   -4.3320    0.7548   -2.4794 B   0  0  0  0  0  0  0  0  0  0  0  0
   -5.0014   -0.3856   -1.8462 F   0  0  0  0  0  0  0  0  0  0  0  0
   -3.1187    0.2637   -3.0011 F   0  0  0  0  0  0  0  0  0  0  0  0
   -5.1438    1.2920   -3.4293 F   0  0  0  0  0  0  0  0  0  0  0  0
   -4.0393    1.6473   -1.4296 F   0  0  0  0  0  0  0  0  0  0  0  0
  1  4  2  0  0  0  0
  2  1  1  0  0  0  0
  3  2  1  0  0  0  0
  4  5  1  0  0  0  0
  4 12  1  0  0  0  0
  5 13  1  0  0  0  0
  6  7  1  0  0  0  0
  6  5  2  0  0  0  0
  7  8  2  0  0  0  0
  9  7  2  0  0  0  0
 10  6  1  0  0  0  0
 11 10  2  0  0  0  0
 11  1  1  0  0  0  0
 14 10  1  0  0  0  0
 15 11  1  0  0  0  0
 16 17  1  0  0  0  0
 16 20  1  0  0  0  0
 18 16  1  0  0  0  0
 19 16  1  0  0  0  0
M  RAD  2   2   2   3   3
M  END
