Coordinates from ORCA-job 4-NO2PhN2+~BF4-_B3LYPG-6-31G_dp-NX-Scan-d89-09-n800
 OpenBabel11261920313D

 20 19  0  0  0  0  0  0  0  0999 V2000
   -1.8903   -1.0269    0.1357 C   0  0  0  0  0  0  0  0  0  0  0  0
   -2.4216   -2.2784    0.1077 N   0  0  0  0  0  0  0  0  0  0  0  0
   -2.8117   -3.3306    0.1089 N   0  0  0  0  0  0  0  0  0  0  0  0
   -2.2805   -0.1520    1.1760 C   0  0  0  0  0  0  0  0  0  0  0  0
   -1.6519    1.0742    1.2557 C   0  0  0  0  0  0  0  0  0  0  0  0
   -0.6970    1.4010    0.2894 C   0  0  0  0  0  0  0  0  0  0  0  0
    0.0833    2.6531    0.4695 N   0  0  0  0  0  0  0  0  0  0  0  0
   -0.1630    3.3172    1.4667 O   0  0  0  0  0  0  0  0  0  0  0  0
    0.9466    2.8902   -0.3655 O   0  0  0  0  0  0  0  0  0  0  0  0
   -0.3335    0.5466   -0.7589 C   0  0  0  0  0  0  0  0  0  0  0  0
   -0.9382   -0.6857   -0.8574 C   0  0  0  0  0  0  0  0  0  0  0  0
   -3.0447   -0.4433    1.8868 H   0  0  0  0  0  0  0  0  0  0  0  0
   -1.9142    1.8008    2.0104 H   0  0  0  0  0  0  0  0  0  0  0  0
    0.4035    0.8806   -1.4775 H   0  0  0  0  0  0  0  0  0  0  0  0
   -0.6928   -1.3829   -1.6498 H   0  0  0  0  0  0  0  0  0  0  0  0
   -3.3392    2.5521   -0.9067 B   0  0  0  0  0  0  0  0  0  0  0  0
   -4.1131    3.3949   -1.6711 F   0  0  0  0  0  0  0  0  0  0  0  0
   -3.4550    1.1955   -1.2940 F   0  0  0  0  0  0  0  0  0  0  0  0
   -1.9478    2.9107   -1.0648 F   0  0  0  0  0  0  0  0  0  0  0  0
   -3.6453    2.6490    0.4652 F   0  0  0  0  0  0  0  0  0  0  0  0
  1  4  2  0  0  0  0
  2  3  1  0  0  0  0
  2  1  1  0  0  0  0
  4  5  1  0  0  0  0
  4 12  1  0  0  0  0
  5 13  1  0  0  0  0
  6  7  1  0  0  0  0
  6  5  2  0  0  0  0
  7  8  2  0  0  0  0
  9  7  2  0  0  0  0
 10  6  1  0  0  0  0
 11 10  2  0  0  0  0
 11  1  1  0  0  0  0
 14 10  1  0  0  0  0
 15 11  1  0  0  0  0
 16 20  1  0  0  0  0
 17 16  1  0  0  0  0
 18 16  1  0  0  0  0
 19 16  1  0  0  0  0
M  RAD  2   2   2   3   3
M  END
