Coordinates from ORCA-job 4-NO2PhN2+~BF4-_B3LYPG-6-31G_dp-NX-Scan-d89-09-n800
 OpenBabel11261920323D

 20 19  0  0  0  0  0  0  0  0999 V2000
   -2.1901    0.2200    0.4584 C   0  0  0  0  0  0  0  0  0  0  0  0
   -3.3758   -0.4909    0.2932 N   0  0  0  0  0  0  0  0  0  0  0  0
   -4.2959   -1.1074    0.2457 N   0  0  0  0  0  0  0  0  0  0  0  0
   -1.6751    0.2368    1.7674 C   0  0  0  0  0  0  0  0  0  0  0  0
   -0.4842    0.9110    1.9864 C   0  0  0  0  0  0  0  0  0  0  0  0
    0.1358    1.5302    0.9004 C   0  0  0  0  0  0  0  0  0  0  0  0
    1.4131    2.2488    1.1426 N   0  0  0  0  0  0  0  0  0  0  0  0
    1.8402    2.2492    2.2932 O   0  0  0  0  0  0  0  0  0  0  0  0
    1.9441    2.7844    0.1775 O   0  0  0  0  0  0  0  0  0  0  0  0
   -0.3832    1.5082   -0.3909 C   0  0  0  0  0  0  0  0  0  0  0  0
   -1.5784    0.8392   -0.6416 C   0  0  0  0  0  0  0  0  0  0  0  0
   -2.1986   -0.2588    2.5767 H   0  0  0  0  0  0  0  0  0  0  0  0
   -0.0326    0.9657    2.9685 H   0  0  0  0  0  0  0  0  0  0  0  0
    0.1419    2.0160   -1.1901 H   0  0  0  0  0  0  0  0  0  0  0  0
   -2.0251    0.8193   -1.6322 H   0  0  0  0  0  0  0  0  0  0  0  0
   -4.2632    0.7134   -2.3622 B   0  0  0  0  0  0  0  0  0  0  0  0
   -5.4621    0.6189   -3.0082 F   0  0  0  0  0  0  0  0  0  0  0  0
   -3.6830   -0.5882   -2.1723 F   0  0  0  0  0  0  0  0  0  0  0  0
   -3.3036    1.4858   -3.0359 F   0  0  0  0  0  0  0  0  0  0  0  0
   -4.4310    1.2645   -1.0507 F   0  0  0  0  0  0  0  0  0  0  0  0
  1  4  2  0  0  0  0
  2  1  1  0  0  0  0
  3  2  1  0  0  0  0
  4  5  1  0  0  0  0
  4 12  1  0  0  0  0
  5 13  1  0  0  0  0
  6  7  1  0  0  0  0
  6  5  2  0  0  0  0
  7  8  2  0  0  0  0
  9  7  2  0  0  0  0
 10  6  1  0  0  0  0
 11 10  2  0  0  0  0
 11  1  1  0  0  0  0
 14 10  1  0  0  0  0
 15 11  1  0  0  0  0
 16 18  1  0  0  0  0
 16 20  1  0  0  0  0
 17 16  1  0  0  0  0
 19 16  1  0  0  0  0
M  RAD  2   2   2   3   3
M  END
