Coordinates from ORCA-job 4-NO2PhN2+~BF4-_B3LYPG-6-31G_dp-NX-Scan-d89-09-n800
 OpenBabel11261920323D

 20 19  0  0  0  0  0  0  0  0999 V2000
   -2.1916    0.2283    0.4638 C   0  0  0  0  0  0  0  0  0  0  0  0
   -3.3818   -0.4720    0.2914 N   0  0  0  0  0  0  0  0  0  0  0  0
   -4.3092   -1.0709    0.1899 N   0  0  0  0  0  0  0  0  0  0  0  0
   -1.6752    0.2386    1.7716 C   0  0  0  0  0  0  0  0  0  0  0  0
   -0.4809    0.9069    1.9921 C   0  0  0  0  0  0  0  0  0  0  0  0
    0.1403    1.5278    0.9080 C   0  0  0  0  0  0  0  0  0  0  0  0
    1.4210    2.2400    1.1511 N   0  0  0  0  0  0  0  0  0  0  0  0
    1.8497    2.2343    2.3010 O   0  0  0  0  0  0  0  0  0  0  0  0
    1.9527    2.7770    0.1872 O   0  0  0  0  0  0  0  0  0  0  0  0
   -0.3800    1.5128   -0.3833 C   0  0  0  0  0  0  0  0  0  0  0  0
   -1.5778    0.8500   -0.6350 C   0  0  0  0  0  0  0  0  0  0  0  0
   -2.2002   -0.2576    2.5796 H   0  0  0  0  0  0  0  0  0  0  0  0
   -0.0278    0.9559    2.9738 H   0  0  0  0  0  0  0  0  0  0  0  0
    0.1475    2.0204   -1.1810 H   0  0  0  0  0  0  0  0  0  0  0  0
   -2.0235    0.8267   -1.6246 H   0  0  0  0  0  0  0  0  0  0  0  0
   -4.2675    0.7061   -2.3699 B   0  0  0  0  0  0  0  0  0  0  0  0
   -5.4957    0.5326   -2.9424 F   0  0  0  0  0  0  0  0  0  0  0  0
   -3.6278   -0.5705   -2.1759 F   0  0  0  0  0  0  0  0  0  0  0  0
   -3.3777    1.4944   -3.1059 F   0  0  0  0  0  0  0  0  0  0  0  0
   -4.4010    1.2855   -1.0656 F   0  0  0  0  0  0  0  0  0  0  0  0
  1  4  2  0  0  0  0
  2  1  1  0  0  0  0
  3  2  1  0  0  0  0
  4  5  1  0  0  0  0
  4 12  1  0  0  0  0
  5 13  1  0  0  0  0
  6  7  1  0  0  0  0
  6  5  2  0  0  0  0
  7  8  2  0  0  0  0
  9  7  2  0  0  0  0
 10  6  1  0  0  0  0
 11 10  2  0  0  0  0
 11  1  1  0  0  0  0
 14 10  1  0  0  0  0
 15 11  1  0  0  0  0
 16 18  1  0  0  0  0
 16 20  1  0  0  0  0
 17 16  1  0  0  0  0
 19 16  1  0  0  0  0
M  RAD  2   2   2   3   3
M  END
