Coordinates from ORCA-job 4-NO2PhN2+~BF4-_B3LYPG-6-31G_dp-NX-Scan-d89-09-n800
 OpenBabel11261920313D

 20 19  0  0  0  0  0  0  0  0999 V2000
   -1.7103   -1.2600    0.1179 C   0  0  0  0  0  0  0  0  0  0  0  0
   -2.1533   -2.5487    0.1697 N   0  0  0  0  0  0  0  0  0  0  0  0
   -2.4811   -3.6193    0.2278 N   0  0  0  0  0  0  0  0  0  0  0  0
   -2.4029   -0.2638    0.8502 C   0  0  0  0  0  0  0  0  0  0  0  0
   -1.8693    1.0106    0.8699 C   0  0  0  0  0  0  0  0  0  0  0  0
   -0.7135    1.2593    0.1255 C   0  0  0  0  0  0  0  0  0  0  0  0
   -0.0538    2.5836    0.2403 N   0  0  0  0  0  0  0  0  0  0  0  0
   -0.3072    3.2273    1.2457 O   0  0  0  0  0  0  0  0  0  0  0  0
    0.7421    2.8777   -0.6434 O   0  0  0  0  0  0  0  0  0  0  0  0
   -0.0620    0.2894   -0.6467 C   0  0  0  0  0  0  0  0  0  0  0  0
   -0.5490   -1.0014   -0.6525 C   0  0  0  0  0  0  0  0  0  0  0  0
   -3.3263   -0.4939    1.3680 H   0  0  0  0  0  0  0  0  0  0  0  0
   -2.3777    1.8418    1.3562 H   0  0  0  0  0  0  0  0  0  0  0  0
    0.8140    0.5700   -1.2181 H   0  0  0  0  0  0  0  0  0  0  0  0
   -0.0643   -1.7952   -1.2086 H   0  0  0  0  0  0  0  0  0  0  0  0
   -3.5097    3.0786   -0.5888 B   0  0  0  0  0  0  0  0  0  0  0  0
   -4.2060    4.0595   -1.2562 F   0  0  0  0  0  0  0  0  0  0  0  0
   -4.1340    1.8142   -0.6625 F   0  0  0  0  0  0  0  0  0  0  0  0
   -2.1944    2.9298   -1.1522 F   0  0  0  0  0  0  0  0  0  0  0  0
   -3.3476    3.4066    0.7836 F   0  0  0  0  0  0  0  0  0  0  0  0
  1  2  1  0  0  0  0
  1  4  2  0  0  0  0
  2  3  1  0  0  0  0
  4  5  1  0  0  0  0
  4 12  1  0  0  0  0
  5 13  1  0  0  0  0
  6  7  1  0  0  0  0
  6  5  2  0  0  0  0
  7  8  2  0  0  0  0
  9  7  2  0  0  0  0
 10  6  1  0  0  0  0
 11 10  2  0  0  0  0
 11  1  1  0  0  0  0
 14 10  1  0  0  0  0
 15 11  1  0  0  0  0
 16 20  1  0  0  0  0
 17 16  1  0  0  0  0
 18 16  1  0  0  0  0
 19 16  1  0  0  0  0
M  RAD  2   2   2   3   3
M  END
