Coordinates from ORCA-job 4-NO2PhN2+~BF4-_B3LYPG-6-31G_dp-NX-Scan-d89-09-n800
 OpenBabel11261920323D

 20 19  0  0  0  0  0  0  0  0999 V2000
   -2.1306    0.1862    0.3590 C   0  0  0  0  0  0  0  0  0  0  0  0
   -3.2946   -0.5466    0.1154 N   0  0  0  0  0  0  0  0  0  0  0  0
   -4.1620   -1.2387    0.0933 N   0  0  0  0  0  0  0  0  0  0  0  0
   -1.7717    0.3294    1.7091 C   0  0  0  0  0  0  0  0  0  0  0  0
   -0.5966    1.0115    1.9908 C   0  0  0  0  0  0  0  0  0  0  0  0
    0.1595    1.5040    0.9271 C   0  0  0  0  0  0  0  0  0  0  0  0
    1.4213    2.2214    1.2400 N   0  0  0  0  0  0  0  0  0  0  0  0
    1.7124    2.3435    2.4258 O   0  0  0  0  0  0  0  0  0  0  0  0
    2.0786    2.6328    0.2914 O   0  0  0  0  0  0  0  0  0  0  0  0
   -0.2087    1.3552   -0.4083 C   0  0  0  0  0  0  0  0  0  0  0  0
   -1.3880    0.6867   -0.7171 C   0  0  0  0  0  0  0  0  0  0  0  0
   -2.3953   -0.0716    2.4994 H   0  0  0  0  0  0  0  0  0  0  0  0
   -0.2587    1.1652    3.0076 H   0  0  0  0  0  0  0  0  0  0  0  0
    0.4192    1.7688   -1.1872 H   0  0  0  0  0  0  0  0  0  0  0  0
   -1.7620    0.5344   -1.7252 H   0  0  0  0  0  0  0  0  0  0  0  0
   -4.3828    0.8382   -2.2966 B   0  0  0  0  0  0  0  0  0  0  0  0
   -5.6392    0.2672   -2.2766 F   0  0  0  0  0  0  0  0  0  0  0  0
   -3.3959   -0.2181   -2.4256 F   0  0  0  0  0  0  0  0  0  0  0  0
   -4.1982    1.7686   -3.2881 F   0  0  0  0  0  0  0  0  0  0  0  0
   -4.1130    1.4278   -1.0085 F   0  0  0  0  0  0  0  0  0  0  0  0
  1  4  2  0  0  0  0
  2  1  1  0  0  0  0
  3  2  1  0  0  0  0
  4  5  1  0  0  0  0
  4 12  1  0  0  0  0
  5 13  1  0  0  0  0
  6  7  1  0  0  0  0
  6  5  2  0  0  0  0
  7  8  2  0  0  0  0
  9  7  2  0  0  0  0
 10  6  1  0  0  0  0
 11 10  2  0  0  0  0
 11  1  1  0  0  0  0
 14 10  1  0  0  0  0
 15 11  1  0  0  0  0
 16 17  1  0  0  0  0
 16 20  1  0  0  0  0
 18 16  1  0  0  0  0
 19 16  1  0  0  0  0
M  RAD  2   2   2   3   3
M  END
