Coordinates from ORCA-job 4-NO2PhN2+~BF4-_B3LYPG-6-31G_dp-NX-Scan-d89-09-n800
 OpenBabel11261920323D

 20 19  0  0  0  0  0  0  0  0999 V2000
   -2.2730    0.2651    0.5715 C   0  0  0  0  0  0  0  0  0  0  0  0
   -3.5259   -0.3353    0.4213 N   0  0  0  0  0  0  0  0  0  0  0  0
   -4.3999   -0.7315   -0.1901 N   0  0  0  0  0  0  0  0  0  0  0  0
   -1.8102    0.4210    1.8862 C   0  0  0  0  0  0  0  0  0  0  0  0
   -0.5657    1.0012    2.0873 C   0  0  0  0  0  0  0  0  0  0  0  0
    0.1645    1.3986    0.9679 C   0  0  0  0  0  0  0  0  0  0  0  0
    1.4960    2.0167    1.1822 N   0  0  0  0  0  0  0  0  0  0  0  0
    1.8717    2.1437    2.3440 O   0  0  0  0  0  0  0  0  0  0  0  0
    2.1243    2.3533    0.1849 O   0  0  0  0  0  0  0  0  0  0  0  0
   -0.2963    1.2443   -0.3379 C   0  0  0  0  0  0  0  0  0  0  0  0
   -1.5426    0.6662   -0.5585 C   0  0  0  0  0  0  0  0  0  0  0  0
   -2.4212    0.0938    2.7195 H   0  0  0  0  0  0  0  0  0  0  0  0
   -0.1556    1.1499    3.0776 H   0  0  0  0  0  0  0  0  0  0  0  0
    0.3153    1.5808   -1.1655 H   0  0  0  0  0  0  0  0  0  0  0  0
   -1.9356    0.5527   -1.5626 H   0  0  0  0  0  0  0  0  0  0  0  0
   -4.2218    0.9178   -2.5084 B   0  0  0  0  0  0  0  0  0  0  0  0
   -4.0682   -0.5234   -1.9584 F   0  0  0  0  0  0  0  0  0  0  0  0
   -3.0309    1.1213   -3.1869 F   0  0  0  0  0  0  0  0  0  0  0  0
   -5.3310    0.9331   -3.2851 F   0  0  0  0  0  0  0  0  0  0  0  0
   -4.3004    1.6967   -1.3632 F   0  0  0  0  0  0  0  0  0  0  0  0
  1  4  2  0  0  0  0
  2  1  1  0  0  0  0
  3  2  2  0  0  0  0
  4  5  1  0  0  0  0
  4 12  1  0  0  0  0
  5 13  1  0  0  0  0
  6  7  1  0  0  0  0
  6  5  2  0  0  0  0
  7  8  2  0  0  0  0
  9  7  2  0  0  0  0
 10  6  1  0  0  0  0
 11 10  2  0  0  0  0
 11  1  1  0  0  0  0
 14 10  1  0  0  0  0
 15 11  1  0  0  0  0
 16 17  1  0  0  0  0
 16 20  1  0  0  0  0
 18 16  1  0  0  0  0
 19 16  1  0  0  0  0
M  RAD  1   3   2
M  END
