Coordinates from ORCA-job 4-NO2PhN2+~BF4-_B3LYPG-6-31G_dp-NX-Scan-d89-09-n800
 OpenBabel11261920323D

 20 19  0  0  0  0  0  0  0  0999 V2000
   -2.0215   -0.3454    0.0998 C   0  0  0  0  0  0  0  0  0  0  0  0
   -2.9888   -1.3066   -0.1287 N   0  0  0  0  0  0  0  0  0  0  0  0
   -3.6769   -2.1763   -0.2171 N   0  0  0  0  0  0  0  0  0  0  0  0
   -2.1283    0.4199    1.2693 C   0  0  0  0  0  0  0  0  0  0  0  0
   -1.1342    1.3573    1.5052 C   0  0  0  0  0  0  0  0  0  0  0  0
   -0.1161    1.5039    0.5666 C   0  0  0  0  0  0  0  0  0  0  0  0
    0.9422    2.5099    0.8304 N   0  0  0  0  0  0  0  0  0  0  0  0
    0.8616    3.1432    1.8775 O   0  0  0  0  0  0  0  0  0  0  0  0
    1.8255    2.6243   -0.0128 O   0  0  0  0  0  0  0  0  0  0  0  0
   -0.0439    0.7681   -0.6154 C   0  0  0  0  0  0  0  0  0  0  0  0
   -1.0248   -0.1753   -0.8720 C   0  0  0  0  0  0  0  0  0  0  0  0
   -2.9788    0.3047    1.9267 H   0  0  0  0  0  0  0  0  0  0  0  0
   -1.1498    1.9868    2.3853 H   0  0  0  0  0  0  0  0  0  0  0  0
    0.7569    0.9587   -1.3178 H   0  0  0  0  0  0  0  0  0  0  0  0
   -1.0516   -0.7396   -1.7949 H   0  0  0  0  0  0  0  0  0  0  0  0
   -4.0192    1.4631   -1.2531 B   0  0  0  0  0  0  0  0  0  0  0  0
   -4.9260    2.2499   -1.9221 F   0  0  0  0  0  0  0  0  0  0  0  0
   -3.6484    0.2999   -2.0156 F   0  0  0  0  0  0  0  0  0  0  0  0
   -2.8382    2.1724   -0.9577 F   0  0  0  0  0  0  0  0  0  0  0  0
   -4.5463    0.9472   -0.0275 F   0  0  0  0  0  0  0  0  0  0  0  0
  1  4  2  0  0  0  0
  2  1  1  0  0  0  0
  3  2  1  0  0  0  0
  4  5  1  0  0  0  0
  4 12  1  0  0  0  0
  5 13  1  0  0  0  0
  6  7  1  0  0  0  0
  6  5  2  0  0  0  0
  7  8  2  0  0  0  0
  9  7  2  0  0  0  0
 10  6  1  0  0  0  0
 11 10  2  0  0  0  0
 11  1  1  0  0  0  0
 14 10  1  0  0  0  0
 15 11  1  0  0  0  0
 16 19  1  0  0  0  0
 16 20  1  0  0  0  0
 17 16  1  0  0  0  0
 18 16  1  0  0  0  0
M  RAD  2   2   2   3   3
M  END
