Coordinates from ORCA-job 4-NO2PhN2+~BF4-_B3LYPG-6-31G_dp-NX-Scan-d89-09-n800
 OpenBabel11261920313D

 20 19  0  0  0  0  0  0  0  0999 V2000
   -1.8993   -0.9923    0.1342 C   0  0  0  0  0  0  0  0  0  0  0  0
   -2.4830   -2.2178    0.0737 N   0  0  0  0  0  0  0  0  0  0  0  0
   -2.9290   -3.2467    0.0415 N   0  0  0  0  0  0  0  0  0  0  0  0
   -2.2660   -0.1251    1.1883 C   0  0  0  0  0  0  0  0  0  0  0  0
   -1.6148    1.0884    1.2781 C   0  0  0  0  0  0  0  0  0  0  0  0
   -0.6629    1.4095    0.3082 C   0  0  0  0  0  0  0  0  0  0  0  0
    0.1123    2.6659    0.4753 N   0  0  0  0  0  0  0  0  0  0  0  0
   -0.1273    3.3337    1.4719 O   0  0  0  0  0  0  0  0  0  0  0  0
    0.9631    2.9066   -0.3716 O   0  0  0  0  0  0  0  0  0  0  0  0
   -0.3122    0.5578   -0.7458 C   0  0  0  0  0  0  0  0  0  0  0  0
   -0.9406   -0.6617   -0.8553 C   0  0  0  0  0  0  0  0  0  0  0  0
   -3.0374   -0.4071    1.8948 H   0  0  0  0  0  0  0  0  0  0  0  0
   -1.8633    1.8123    2.0403 H   0  0  0  0  0  0  0  0  0  0  0  0
    0.4264    0.8868   -1.4650 H   0  0  0  0  0  0  0  0  0  0  0  0
   -0.7139   -1.3537   -1.6577 H   0  0  0  0  0  0  0  0  0  0  0  0
   -3.3482    2.4742   -0.9098 B   0  0  0  0  0  0  0  0  0  0  0  0
   -4.1521    3.2761   -1.6851 F   0  0  0  0  0  0  0  0  0  0  0  0
   -3.3909    1.1144   -1.3115 F   0  0  0  0  0  0  0  0  0  0  0  0
   -1.9775    2.9047   -1.0348 F   0  0  0  0  0  0  0  0  0  0  0  0
   -3.6900    2.5401    0.4564 F   0  0  0  0  0  0  0  0  0  0  0  0
  1  4  2  0  0  0  0
  2  1  1  0  0  0  0
  3  2  1  0  0  0  0
  4  5  1  0  0  0  0
  4 12  1  0  0  0  0
  5 13  1  0  0  0  0
  6  7  1  0  0  0  0
  6  5  2  0  0  0  0
  7  8  2  0  0  0  0
  9  7  2  0  0  0  0
 10  6  1  0  0  0  0
 11 10  2  0  0  0  0
 11  1  1  0  0  0  0
 14 10  1  0  0  0  0
 15 11  1  0  0  0  0
 16 20  1  0  0  0  0
 17 16  1  0  0  0  0
 18 16  1  0  0  0  0
 19 16  1  0  0  0  0
M  RAD  2   2   2   3   3
M  END
