Coordinates from ORCA-job 4-NO2PhN2+~BF4-_B3LYPG-6-31G_dp-NX-Scan-d89-09-n800
 OpenBabel11261920323D

 20 19  0  0  0  0  0  0  0  0999 V2000
   -1.9452   -0.7855    0.1199 C   0  0  0  0  0  0  0  0  0  0  0  0
   -2.7226   -1.8898   -0.0434 N   0  0  0  0  0  0  0  0  0  0  0  0
   -3.3351   -2.8185   -0.1669 N   0  0  0  0  0  0  0  0  0  0  0  0
   -2.2250    0.0676    1.2065 C   0  0  0  0  0  0  0  0  0  0  0  0
   -1.4230    1.1861    1.3583 C   0  0  0  0  0  0  0  0  0  0  0  0
   -0.4440    1.4362    0.4057 C   0  0  0  0  0  0  0  0  0  0  0  0
    0.3697    2.6679    0.5473 N   0  0  0  0  0  0  0  0  0  0  0  0
    0.1671    3.3580    1.5385 O   0  0  0  0  0  0  0  0  0  0  0  0
    1.1995    2.8875   -0.3279 O   0  0  0  0  0  0  0  0  0  0  0  0
   -0.1670    0.5902   -0.6742 C   0  0  0  0  0  0  0  0  0  0  0  0
   -0.9311   -0.5431   -0.8369 C   0  0  0  0  0  0  0  0  0  0  0  0
   -3.0487   -0.1358    1.8770 H   0  0  0  0  0  0  0  0  0  0  0  0
   -1.6043    1.9048    2.1454 H   0  0  0  0  0  0  0  0  0  0  0  0
    0.6072    0.8626   -1.3791 H   0  0  0  0  0  0  0  0  0  0  0  0
   -0.7888   -1.2163   -1.6733 H   0  0  0  0  0  0  0  0  0  0  0  0
   -3.5422    2.0990   -0.9735 B   0  0  0  0  0  0  0  0  0  0  0  0
   -4.4641    2.8736   -1.6374 F   0  0  0  0  0  0  0  0  0  0  0  0
   -3.3056    0.8668   -1.6467 F   0  0  0  0  0  0  0  0  0  0  0  0
   -2.3049    2.7842   -0.8520 F   0  0  0  0  0  0  0  0  0  0  0  0
   -3.9985    1.7704    0.3386 F   0  0  0  0  0  0  0  0  0  0  0  0
  1  4  2  0  0  0  0
  2  1  1  0  0  0  0
  3  2  1  0  0  0  0
  4  5  1  0  0  0  0
  4 12  1  0  0  0  0
  5 13  1  0  0  0  0
  6  7  1  0  0  0  0
  6  5  2  0  0  0  0
  7  8  2  0  0  0  0
  9  7  2  0  0  0  0
 10  6  1  0  0  0  0
 11 10  2  0  0  0  0
 11  1  1  0  0  0  0
 14 10  1  0  0  0  0
 15 11  1  0  0  0  0
 16 19  1  0  0  0  0
 16 20  1  0  0  0  0
 17 16  1  0  0  0  0
 18 16  1  0  0  0  0
M  RAD  2   2   2   3   3
M  END
