Coordinates from ORCA-job 4-NO2PhN2+~BF4-_B3LYPG-6-31G_dp-NX-Scan-d89-09-n800
 OpenBabel11261920323D

 20 19  0  0  0  0  0  0  0  0999 V2000
   -2.0232   -0.3217    0.1023 C   0  0  0  0  0  0  0  0  0  0  0  0
   -3.0103   -1.2627   -0.1364 N   0  0  0  0  0  0  0  0  0  0  0  0
   -3.7149   -2.1173   -0.2333 N   0  0  0  0  0  0  0  0  0  0  0  0
   -2.1182    0.4349    1.2778 C   0  0  0  0  0  0  0  0  0  0  0  0
   -1.1143    1.3604    1.5184 C   0  0  0  0  0  0  0  0  0  0  0  0
   -0.0981    1.5052    0.5769 C   0  0  0  0  0  0  0  0  0  0  0  0
    0.9693    2.5008    0.8438 N   0  0  0  0  0  0  0  0  0  0  0  0
    0.8968    3.1285    1.8948 O   0  0  0  0  0  0  0  0  0  0  0  0
    1.8508    2.6136   -0.0015 O   0  0  0  0  0  0  0  0  0  0  0  0
   -0.0364    0.7765   -0.6098 C   0  0  0  0  0  0  0  0  0  0  0  0
   -1.0279   -0.1554   -0.8704 C   0  0  0  0  0  0  0  0  0  0  0  0
   -2.9685    0.3233    1.9363 H   0  0  0  0  0  0  0  0  0  0  0  0
   -1.1208    1.9832    2.4034 H   0  0  0  0  0  0  0  0  0  0  0  0
    0.7639    0.9644   -1.3135 H   0  0  0  0  0  0  0  0  0  0  0  0
   -1.0651   -0.7105   -1.7983 H   0  0  0  0  0  0  0  0  0  0  0  0
   -4.0407    1.4262   -1.2715 B   0  0  0  0  0  0  0  0  0  0  0  0
   -4.9732    2.1856   -1.9339 F   0  0  0  0  0  0  0  0  0  0  0  0
   -3.6407    0.2780   -2.0411 F   0  0  0  0  0  0  0  0  0  0  0  0
   -2.8810    2.1651   -0.9713 F   0  0  0  0  0  0  0  0  0  0  0  0
   -4.5537    0.8880   -0.0467 F   0  0  0  0  0  0  0  0  0  0  0  0
  1  4  2  0  0  0  0
  2  1  1  0  0  0  0
  3  2  1  0  0  0  0
  4  5  1  0  0  0  0
  4 12  1  0  0  0  0
  5 13  1  0  0  0  0
  6  7  1  0  0  0  0
  6  5  2  0  0  0  0
  7  8  2  0  0  0  0
  9  7  2  0  0  0  0
 10  6  1  0  0  0  0
 11 10  2  0  0  0  0
 11  1  1  0  0  0  0
 14 10  1  0  0  0  0
 15 11  1  0  0  0  0
 16 19  1  0  0  0  0
 16 20  1  0  0  0  0
 17 16  1  0  0  0  0
 18 16  1  0  0  0  0
M  RAD  2   2   2   3   3
M  END
