Coordinates from ORCA-job 4-NO2PhN2+~BF4-_B3LYPG-6-31G_dp-NX-Scan-d89-09-n800
 OpenBabel11261920323D

 20 20  0  0  0  0  0  0  0  0999 V2000
   -2.0707    1.0520    0.0382 C   0  0  0  0  0  0  0  0  0  0  0  0
   -3.4115    1.0401   -0.4540 N   0  0  0  0  0  0  0  0  0  0  0  0
   -3.6585    0.3925   -1.5145 N   0  0  0  0  0  0  0  0  0  0  0  0
   -1.9544    0.9675    1.4348 C   0  0  0  0  0  0  0  0  0  0  0  0
   -0.7049    1.0233    2.0391 C   0  0  0  0  0  0  0  0  0  0  0  0
    0.4186    1.1997    1.2334 C   0  0  0  0  0  0  0  0  0  0  0  0
    1.7479    1.2723    1.8672 N   0  0  0  0  0  0  0  0  0  0  0  0
    1.7971    1.1677    3.0907 O   0  0  0  0  0  0  0  0  0  0  0  0
    2.7184    1.4306    1.1294 O   0  0  0  0  0  0  0  0  0  0  0  0
    0.3276    1.3232   -0.1507 C   0  0  0  0  0  0  0  0  0  0  0  0
   -0.9234    1.2415   -0.7538 C   0  0  0  0  0  0  0  0  0  0  0  0
   -2.8563    0.8570    2.0266 H   0  0  0  0  0  0  0  0  0  0  0  0
   -0.5861    0.9471    3.1128 H   0  0  0  0  0  0  0  0  0  0  0  0
    1.2279    1.4781   -0.7317 H   0  0  0  0  0  0  0  0  0  0  0  0
   -0.9951    1.3607   -1.8299 H   0  0  0  0  0  0  0  0  0  0  0  0
   -5.3397    0.3515   -2.2068 B   0  0  0  0  0  0  0  0  0  0  0  0
   -2.9709   -0.1163   -2.0132 F   0  0  0  0  0  0  0  0  0  0  0  0
   -5.0804    0.9456   -3.4054 F   0  0  0  0  0  0  0  0  0  0  0  0
   -5.4994   -1.0006   -2.2573 F   0  0  0  0  0  0  0  0  0  0  0  0
   -6.0927    1.0326   -1.3287 F   0  0  0  0  0  0  0  0  0  0  0  0
  1  4  2  0  0  0  0
  2  1  1  0  0  0  0
  3  2  1  0  0  0  0
  4 12  1  0  0  0  0
  4  5  1  0  0  0  0
  5 13  1  0  0  0  0
  6  7  1  0  0  0  0
  6  5  2  0  0  0  0
  7  8  2  0  0  0  0
  9  7  2  0  0  0  0
 10  6  1  0  0  0  0
 11 10  2  0  0  0  0
 11  1  1  0  0  0  0
 14 10  1  0  0  0  0
 15 11  1  0  0  0  0
 16  3  1  0  0  0  0
 16 20  1  0  0  0  0
 17  3  1  0  0  0  0
 18 16  1  0  0  0  0
 19 16  1  0  0  0  0
M  RAD  1   2   2
M  END
