Coordinates from ORCA-job 4-NO2PhN2+~BF4-_B3LYPG-6-31G_dp-NX-Scan-d89-09-n800
 OpenBabel11261920323D

 20 19  0  0  0  0  0  0  0  0999 V2000
   -2.1886    0.3011    0.4489 C   0  0  0  0  0  0  0  0  0  0  0  0
   -3.4053   -0.3286    0.2075 N   0  0  0  0  0  0  0  0  0  0  0  0
   -4.3746   -0.8389   -0.0261 N   0  0  0  0  0  0  0  0  0  0  0  0
   -1.7688    0.3632    1.7882 C   0  0  0  0  0  0  0  0  0  0  0  0
   -0.5493    0.9652    2.0599 C   0  0  0  0  0  0  0  0  0  0  0  0
    0.1982    1.4610    0.9909 C   0  0  0  0  0  0  0  0  0  0  0  0
    1.5068    2.0957    1.2884 N   0  0  0  0  0  0  0  0  0  0  0  0
    1.8468    2.1452    2.4666 O   0  0  0  0  0  0  0  0  0  0  0  0
    2.1511    2.5205    0.3364 O   0  0  0  0  0  0  0  0  0  0  0  0
   -0.2201    1.3871   -0.3352 C   0  0  0  0  0  0  0  0  0  0  0  0
   -1.4467    0.7996   -0.6320 C   0  0  0  0  0  0  0  0  0  0  0  0
   -2.3870   -0.0423    2.5806 H   0  0  0  0  0  0  0  0  0  0  0  0
   -0.1683    1.0532    3.0691 H   0  0  0  0  0  0  0  0  0  0  0  0
    0.4080    1.7931   -1.1179 H   0  0  0  0  0  0  0  0  0  0  0  0
   -1.8377    0.7194   -1.6440 H   0  0  0  0  0  0  0  0  0  0  0  0
   -4.3432    0.7485   -2.4713 B   0  0  0  0  0  0  0  0  0  0  0  0
   -5.0533   -0.3692   -1.8713 F   0  0  0  0  0  0  0  0  0  0  0  0
   -3.1283    0.2340   -2.9767 F   0  0  0  0  0  0  0  0  0  0  0  0
   -5.1102    1.3341   -3.4314 F   0  0  0  0  0  0  0  0  0  0  0  0
   -4.0359    1.6242   -1.4048 F   0  0  0  0  0  0  0  0  0  0  0  0
  1  4  2  0  0  0  0
  2  1  1  0  0  0  0
  3  2  1  0  0  0  0
  4  5  1  0  0  0  0
  4 12  1  0  0  0  0
  5 13  1  0  0  0  0
  6  7  1  0  0  0  0
  6  5  2  0  0  0  0
  7  8  2  0  0  0  0
  9  7  2  0  0  0  0
 10  6  1  0  0  0  0
 11 10  2  0  0  0  0
 11  1  1  0  0  0  0
 14 10  1  0  0  0  0
 15 11  1  0  0  0  0
 16 17  1  0  0  0  0
 16 20  1  0  0  0  0
 18 16  1  0  0  0  0
 19 16  1  0  0  0  0
M  RAD  2   2   2   3   3
M  END
