Coordinates from ORCA-job 4-NO2PhN2+~BF4-_B3LYPG-6-31G_dp-NX-Scan-d89-09-n800
 OpenBabel11261920313D

 20 19  0  0  0  0  0  0  0  0999 V2000
   -1.8843   -1.0431    0.1390 C   0  0  0  0  0  0  0  0  0  0  0  0
   -2.3957   -2.3032    0.1239 N   0  0  0  0  0  0  0  0  0  0  0  0
   -2.7686   -3.3619    0.1371 N   0  0  0  0  0  0  0  0  0  0  0  0
   -2.2839   -0.1647    1.1735 C   0  0  0  0  0  0  0  0  0  0  0  0
   -1.6676    1.0680    1.2461 C   0  0  0  0  0  0  0  0  0  0  0  0
   -0.7122    1.3974    0.2805 C   0  0  0  0  0  0  0  0  0  0  0  0
    0.0700    2.6482    0.4655 N   0  0  0  0  0  0  0  0  0  0  0  0
   -0.1790    3.3110    1.4627 O   0  0  0  0  0  0  0  0  0  0  0  0
    0.9385    2.8833   -0.3645 O   0  0  0  0  0  0  0  0  0  0  0  0
   -0.3432    0.5415   -0.7648 C   0  0  0  0  0  0  0  0  0  0  0  0
   -0.9361   -0.6971   -0.8567 C   0  0  0  0  0  0  0  0  0  0  0  0
   -3.0438   -0.4602    1.8872 H   0  0  0  0  0  0  0  0  0  0  0  0
   -1.9367    1.7967    1.9963 H   0  0  0  0  0  0  0  0  0  0  0  0
    0.3916    0.8782   -1.4844 H   0  0  0  0  0  0  0  0  0  0  0  0
   -0.6830   -1.3965   -1.6448 H   0  0  0  0  0  0  0  0  0  0  0  0
   -3.3352    2.5850   -0.9068 B   0  0  0  0  0  0  0  0  0  0  0  0
   -4.0949    3.4487   -1.6613 F   0  0  0  0  0  0  0  0  0  0  0  0
   -3.4773    1.2347   -1.2997 F   0  0  0  0  0  0  0  0  0  0  0  0
   -1.9358    2.9177   -1.0709 F   0  0  0  0  0  0  0  0  0  0  0  0
   -3.6293    2.6825    0.4680 F   0  0  0  0  0  0  0  0  0  0  0  0
  1  4  2  0  0  0  0
  2  3  1  0  0  0  0
  2  1  1  0  0  0  0
  4  5  1  0  0  0  0
  4 12  1  0  0  0  0
  5 13  1  0  0  0  0
  6  7  1  0  0  0  0
  6  5  2  0  0  0  0
  7  8  2  0  0  0  0
  9  7  2  0  0  0  0
 10  6  1  0  0  0  0
 11 10  2  0  0  0  0
 11  1  1  0  0  0  0
 14 10  1  0  0  0  0
 15 11  1  0  0  0  0
 16 20  1  0  0  0  0
 17 16  1  0  0  0  0
 18 16  1  0  0  0  0
 19 16  1  0  0  0  0
M  RAD  2   2   2   3   3
M  END
