Coordinates from ORCA-job 4-NO2PhN2+~BF4-_B3LYPG-6-31G_dp-NX-Scan-d89-09-n800
 OpenBabel11261920323D

 20 19  0  0  0  0  0  0  0  0999 V2000
   -2.1518    0.1595    0.3867 C   0  0  0  0  0  0  0  0  0  0  0  0
   -3.3146   -0.5865    0.1831 N   0  0  0  0  0  0  0  0  0  0  0  0
   -4.1888   -1.2690    0.1801 N   0  0  0  0  0  0  0  0  0  0  0  0
   -1.7443    0.2901    1.7248 C   0  0  0  0  0  0  0  0  0  0  0  0
   -0.5739    0.9913    1.9759 C   0  0  0  0  0  0  0  0  0  0  0  0
    0.1312    1.5184    0.8940 C   0  0  0  0  0  0  0  0  0  0  0  0
    1.3878    2.2587    1.1728 N   0  0  0  0  0  0  0  0  0  0  0  0
    1.7214    2.3647    2.3490 O   0  0  0  0  0  0  0  0  0  0  0  0
    1.9984    2.7040    0.2085 O   0  0  0  0  0  0  0  0  0  0  0  0
   -0.2840    1.3838   -0.4288 C   0  0  0  0  0  0  0  0  0  0  0  0
   -1.4575    0.6920   -0.7072 C   0  0  0  0  0  0  0  0  0  0  0  0
   -2.3300   -0.1362    2.5308 H   0  0  0  0  0  0  0  0  0  0  0  0
   -0.2020    1.1347    2.9822 H   0  0  0  0  0  0  0  0  0  0  0  0
    0.3036    1.8249   -1.2239 H   0  0  0  0  0  0  0  0  0  0  0  0
   -1.8527    0.5542   -1.7078 H   0  0  0  0  0  0  0  0  0  0  0  0
   -4.3049    0.8424   -2.2775 B   0  0  0  0  0  0  0  0  0  0  0  0
   -5.5892    0.5445   -2.6527 F   0  0  0  0  0  0  0  0  0  0  0  0
   -3.5111   -0.3749   -2.2694 F   0  0  0  0  0  0  0  0  0  0  0  0
   -3.6599    1.7638   -3.0799 F   0  0  0  0  0  0  0  0  0  0  0  0
   -4.2844    1.3058   -0.9150 F   0  0  0  0  0  0  0  0  0  0  0  0
  1  4  2  0  0  0  0
  2  1  1  0  0  0  0
  3  2  1  0  0  0  0
  4  5  1  0  0  0  0
  4 12  1  0  0  0  0
  5 13  1  0  0  0  0
  6  7  1  0  0  0  0
  6  5  2  0  0  0  0
  7  8  2  0  0  0  0
  9  7  2  0  0  0  0
 10  6  1  0  0  0  0
 11 10  2  0  0  0  0
 11  1  1  0  0  0  0
 14 10  1  0  0  0  0
 15 11  1  0  0  0  0
 16 18  1  0  0  0  0
 16 20  1  0  0  0  0
 17 16  1  0  0  0  0
 19 16  1  0  0  0  0
M  RAD  2   2   2   3   3
M  END
