Coordinates from ORCA-job 4-NO2PhN2+~BF4-_B3LYPG-6-31G_dp-NX-Scan-d89-09-n800
 OpenBabel11261920323D

 20 19  0  0  0  0  0  0  0  0999 V2000
   -2.1319    0.0100    0.3515 C   0  0  0  0  0  0  0  0  0  0  0  0
   -3.2303   -0.8235    0.1672 N   0  0  0  0  0  0  0  0  0  0  0  0
   -4.0547   -1.5650    0.1324 N   0  0  0  0  0  0  0  0  0  0  0  0
   -1.8057    0.3210    1.6837 C   0  0  0  0  0  0  0  0  0  0  0  0
   -0.6825    1.1015    1.9020 C   0  0  0  0  0  0  0  0  0  0  0  0
    0.0605    1.5250    0.7971 C   0  0  0  0  0  0  0  0  0  0  0  0
    1.2707    2.3490    1.0449 N   0  0  0  0  0  0  0  0  0  0  0  0
    1.5282    2.6216    2.2135 O   0  0  0  0  0  0  0  0  0  0  0  0
    1.9211    2.6943    0.0658 O   0  0  0  0  0  0  0  0  0  0  0  0
   -0.2749    1.2157   -0.5166 C   0  0  0  0  0  0  0  0  0  0  0  0
   -1.4037    0.4404   -0.7650 C   0  0  0  0  0  0  0  0  0  0  0  0
   -2.4186   -0.0322    2.5045 H   0  0  0  0  0  0  0  0  0  0  0  0
   -0.3719    1.3853    2.8990 H   0  0  0  0  0  0  0  0  0  0  0  0
    0.3320    1.5908   -1.3305 H   0  0  0  0  0  0  0  0  0  0  0  0
   -1.7559    0.1957   -1.7586 H   0  0  0  0  0  0  0  0  0  0  0  0
   -4.2074    1.0187   -2.0418 B   0  0  0  0  0  0  0  0  0  0  0  0
   -5.2991    1.2326   -2.8354 F   0  0  0  0  0  0  0  0  0  0  0  0
   -3.6672   -0.3073   -2.2601 F   0  0  0  0  0  0  0  0  0  0  0  0
   -3.1665    1.9280   -2.2728 F   0  0  0  0  0  0  0  0  0  0  0  0
   -4.5486    1.0645   -0.6549 F   0  0  0  0  0  0  0  0  0  0  0  0
  1  4  2  0  0  0  0
  2  1  1  0  0  0  0
  3  2  1  0  0  0  0
  4  5  1  0  0  0  0
  4 12  1  0  0  0  0
  5 13  1  0  0  0  0
  6  7  1  0  0  0  0
  6  5  2  0  0  0  0
  7  8  2  0  0  0  0
  9  7  2  0  0  0  0
 10  6  1  0  0  0  0
 11 10  2  0  0  0  0
 11  1  1  0  0  0  0
 14 10  1  0  0  0  0
 15 11  1  0  0  0  0
 16 20  1  0  0  0  0
 17 16  1  0  0  0  0
 18 16  1  0  0  0  0
 19 16  1  0  0  0  0
M  RAD  2   2   2   3   3
M  END
