Coordinates from ORCA-job 4-NO2PhN2+~BF4-_B3LYPG-6-31G_dp-NX-Scan-d89-09-n800
 OpenBabel11261920323D

 20 19  0  0  0  0  0  0  0  0999 V2000
   -1.9106   -0.9151    0.1333 C   0  0  0  0  0  0  0  0  0  0  0  0
   -2.6090   -2.0727    0.0029 N   0  0  0  0  0  0  0  0  0  0  0  0
   -3.1662   -3.0397   -0.0973 N   0  0  0  0  0  0  0  0  0  0  0  0
   -2.2375   -0.0571    1.2049 C   0  0  0  0  0  0  0  0  0  0  0  0
   -1.5285    1.1224    1.3191 C   0  0  0  0  0  0  0  0  0  0  0  0
   -0.5728    1.4212    0.3499 C   0  0  0  0  0  0  0  0  0  0  0  0
    0.1919    2.6857    0.4873 N   0  0  0  0  0  0  0  0  0  0  0  0
   -0.0378    3.3668    1.4778 O   0  0  0  0  0  0  0  0  0  0  0  0
    1.0198    2.9286   -0.3821 O   0  0  0  0  0  0  0  0  0  0  0  0
   -0.2424    0.5672   -0.7080 C   0  0  0  0  0  0  0  0  0  0  0  0
   -0.9239   -0.6216   -0.8386 C   0  0  0  0  0  0  0  0  0  0  0  0
   -3.0381   -0.3044    1.8908 H   0  0  0  0  0  0  0  0  0  0  0  0
   -1.7538    1.8458    2.0894 H   0  0  0  0  0  0  0  0  0  0  0  0
    0.5093    0.8764   -1.4223 H   0  0  0  0  0  0  0  0  0  0  0  0
   -0.7320   -1.3065   -1.6557 H   0  0  0  0  0  0  0  0  0  0  0  0
   -3.4042    2.3085   -0.9189 B   0  0  0  0  0  0  0  0  0  0  0  0
   -4.2651    3.0737   -1.6681 F   0  0  0  0  0  0  0  0  0  0  0  0
   -3.3210    0.9761   -1.4094 F   0  0  0  0  0  0  0  0  0  0  0  0
   -2.0842    2.8653   -0.9668 F   0  0  0  0  0  0  0  0  0  0  0  0
   -3.8006    2.2455    0.4375 F   0  0  0  0  0  0  0  0  0  0  0  0
  1  4  2  0  0  0  0
  2  1  1  0  0  0  0
  3  2  1  0  0  0  0
  4  5  1  0  0  0  0
  4 12  1  0  0  0  0
  5 13  1  0  0  0  0
  6  7  1  0  0  0  0
  6  5  2  0  0  0  0
  7  8  2  0  0  0  0
  9  7  2  0  0  0  0
 10  6  1  0  0  0  0
 11 10  2  0  0  0  0
 11  1  1  0  0  0  0
 14 10  1  0  0  0  0
 15 11  1  0  0  0  0
 16 20  1  0  0  0  0
 17 16  1  0  0  0  0
 18 16  1  0  0  0  0
 19 16  1  0  0  0  0
M  RAD  2   2   2   3   3
M  END
