Coordinates from ORCA-job 4-NO2PhN2+~BF4-_B3LYPG-6-31G_dp-NX-Scan-d89-09-n800
 OpenBabel11261920323D

 20 19  0  0  0  0  0  0  0  0999 V2000
   -1.9433   -0.5290   -0.0128 C   0  0  0  0  0  0  0  0  0  0  0  0
   -2.7850   -1.5867   -0.2592 N   0  0  0  0  0  0  0  0  0  0  0  0
   -3.3760   -2.5194   -0.4176 N   0  0  0  0  0  0  0  0  0  0  0  0
   -2.2242    0.3019    1.0833 C   0  0  0  0  0  0  0  0  0  0  0  0
   -1.3225    1.3267    1.3452 C   0  0  0  0  0  0  0  0  0  0  0  0
   -0.2266    1.4851    0.5085 C   0  0  0  0  0  0  0  0  0  0  0  0
    0.7269    2.5838    0.8001 N   0  0  0  0  0  0  0  0  0  0  0  0
    0.5035    3.2697    1.7910 O   0  0  0  0  0  0  0  0  0  0  0  0
    1.6770    2.7143    0.0345 O   0  0  0  0  0  0  0  0  0  0  0  0
    0.0281    0.6743   -0.6019 C   0  0  0  0  0  0  0  0  0  0  0  0
   -0.8461   -0.3564   -0.8815 C   0  0  0  0  0  0  0  0  0  0  0  0
   -3.1184    0.1654    1.6732 H   0  0  0  0  0  0  0  0  0  0  0  0
   -1.4841    2.0157    2.1634 H   0  0  0  0  0  0  0  0  0  0  0  0
    0.8904    0.8725   -1.2244 H   0  0  0  0  0  0  0  0  0  0  0  0
   -0.7095   -1.0055   -1.7378 H   0  0  0  0  0  0  0  0  0  0  0  0
   -3.9581    1.7393   -1.0104 B   0  0  0  0  0  0  0  0  0  0  0  0
   -4.8066    2.5921   -1.6791 F   0  0  0  0  0  0  0  0  0  0  0  0
   -4.2471    0.3582   -1.2781 F   0  0  0  0  0  0  0  0  0  0  0  0
   -2.6109    1.9585   -1.3710 F   0  0  0  0  0  0  0  0  0  0  0  0
   -4.0739    1.9056    0.4007 F   0  0  0  0  0  0  0  0  0  0  0  0
  1  4  2  0  0  0  0
  2  1  1  0  0  0  0
  3  2  1  0  0  0  0
  4  5  1  0  0  0  0
  4 12  1  0  0  0  0
  5 13  1  0  0  0  0
  6  7  1  0  0  0  0
  6  5  2  0  0  0  0
  7  8  2  0  0  0  0
  9  7  2  0  0  0  0
 10  6  1  0  0  0  0
 11 10  2  0  0  0  0
 11  1  1  0  0  0  0
 14 10  1  0  0  0  0
 15 11  1  0  0  0  0
 16 20  1  0  0  0  0
 17 16  1  0  0  0  0
 18 16  1  0  0  0  0
 19 16  1  0  0  0  0
M  RAD  2   2   2   3   3
M  END
