Coordinates from ORCA-job 4-NO2PhN2+~BF4-_B3LYPG-6-31G_dp-NX-Scan-d89-09-n800
 OpenBabel11261920323D

 20 19  0  0  0  0  0  0  0  0999 V2000
   -2.1898    0.2186    0.4584 C   0  0  0  0  0  0  0  0  0  0  0  0
   -3.3752   -0.4930    0.2938 N   0  0  0  0  0  0  0  0  0  0  0  0
   -4.2944   -1.1112    0.2486 N   0  0  0  0  0  0  0  0  0  0  0  0
   -1.6751    0.2367    1.7676 C   0  0  0  0  0  0  0  0  0  0  0  0
   -0.4845    0.9114    1.9862 C   0  0  0  0  0  0  0  0  0  0  0  0
    0.1356    1.5299    0.8998 C   0  0  0  0  0  0  0  0  0  0  0  0
    1.4127    2.2490    1.1417 N   0  0  0  0  0  0  0  0  0  0  0  0
    1.8384    2.2524    2.2928 O   0  0  0  0  0  0  0  0  0  0  0  0
    1.9425    2.7858    0.1766 O   0  0  0  0  0  0  0  0  0  0  0  0
   -0.3832    1.5066   -0.3916 C   0  0  0  0  0  0  0  0  0  0  0  0
   -1.5781    0.8370   -0.6419 C   0  0  0  0  0  0  0  0  0  0  0  0
   -2.1986   -0.2584    2.5772 H   0  0  0  0  0  0  0  0  0  0  0  0
   -0.0331    0.9670    2.9684 H   0  0  0  0  0  0  0  0  0  0  0  0
    0.1419    2.0138   -1.1911 H   0  0  0  0  0  0  0  0  0  0  0  0
   -2.0246    0.8163   -1.6326 H   0  0  0  0  0  0  0  0  0  0  0  0
   -4.2629    0.7154   -2.3619 B   0  0  0  0  0  0  0  0  0  0  0  0
   -5.4605    0.6260   -3.0115 F   0  0  0  0  0  0  0  0  0  0  0  0
   -3.6857   -0.5878   -2.1726 F   0  0  0  0  0  0  0  0  0  0  0  0
   -3.3002    1.4868   -3.0326 F   0  0  0  0  0  0  0  0  0  0  0  0
   -4.4317    1.2639   -1.0493 F   0  0  0  0  0  0  0  0  0  0  0  0
  1  4  2  0  0  0  0
  2  1  1  0  0  0  0
  3  2  1  0  0  0  0
  4  5  1  0  0  0  0
  4 12  1  0  0  0  0
  5 13  1  0  0  0  0
  6  7  1  0  0  0  0
  6  5  2  0  0  0  0
  7  8  2  0  0  0  0
  9  7  2  0  0  0  0
 10  6  1  0  0  0  0
 11 10  2  0  0  0  0
 11  1  1  0  0  0  0
 14 10  1  0  0  0  0
 15 11  1  0  0  0  0
 16 18  1  0  0  0  0
 16 20  1  0  0  0  0
 17 16  1  0  0  0  0
 19 16  1  0  0  0  0
M  RAD  2   2   2   3   3
M  END
