Coordinates from ORCA-job 4-NO2PhN2+~BF4-_B3LYPG-6-31G_dp-NX-Scan-d89-09-n800
 OpenBabel11261920323D

 20 19  0  0  0  0  0  0  0  0999 V2000
   -2.3385    0.6377    0.8356 C   0  0  0  0  0  0  0  0  0  0  0  0
   -3.7350    0.3419    0.8870 N   0  0  0  0  0  0  0  0  0  0  0  0
   -4.3743   -0.1256   -0.0630 N   0  0  0  0  0  0  0  0  0  0  0  0
   -1.6434    0.3707    2.0251 C   0  0  0  0  0  0  0  0  0  0  0  0
   -0.2915    0.6734    2.1316 C   0  0  0  0  0  0  0  0  0  0  0  0
    0.3388    1.2866    1.0507 C   0  0  0  0  0  0  0  0  0  0  0  0
    1.7677    1.6286    1.1597 N   0  0  0  0  0  0  0  0  0  0  0  0
    2.3402    1.3450    2.2103 O   0  0  0  0  0  0  0  0  0  0  0  0
    2.2967    2.1753    0.1935 O   0  0  0  0  0  0  0  0  0  0  0  0
   -0.3405    1.5984   -0.1254 C   0  0  0  0  0  0  0  0  0  0  0  0
   -1.6856    1.2645   -0.2407 C   0  0  0  0  0  0  0  0  0  0  0  0
   -2.1802   -0.0771    2.8541 H   0  0  0  0  0  0  0  0  0  0  0  0
    0.2727    0.4627    3.0311 H   0  0  0  0  0  0  0  0  0  0  0  0
    0.1906    2.0866   -0.9328 H   0  0  0  0  0  0  0  0  0  0  0  0
   -2.2186    1.5046   -1.1515 H   0  0  0  0  0  0  0  0  0  0  0  0
   -4.6491    0.7820   -3.3586 B   0  0  0  0  0  0  0  0  0  0  0  0
   -3.7194   -0.3632   -1.0893 F   0  0  0  0  0  0  0  0  0  0  0  0
   -3.6251    1.5990   -3.1583 F   0  0  0  0  0  0  0  0  0  0  0  0
   -4.5138   -0.2460   -4.1695 F   0  0  0  0  0  0  0  0  0  0  0  0
   -5.7983    1.0210   -2.7639 F   0  0  0  0  0  0  0  0  0  0  0  0
  1  2  1  0  0  0  0
  1  4  2  0  0  0  0
  3  2  2  0  0  0  0
  4  5  1  0  0  0  0
  4 12  1  0  0  0  0
  5 13  1  0  0  0  0
  6  7  1  0  0  0  0
  6  5  2  0  0  0  0
  7  8  2  0  0  0  0
  9  7  2  0  0  0  0
 10  6  1  0  0  0  0
 11 10  2  0  0  0  0
 11  1  1  0  0  0  0
 14 10  1  0  0  0  0
 15 11  1  0  0  0  0
 16 18  1  0  0  0  0
 16 20  1  0  0  0  0
 17  3  1  0  0  0  0
 19 16  1  0  0  0  0
M  END
