Coordinates from ORCA-job 4-NO2PhN2+~BF4-_B3LYPG-6-31G_dp-NX-Scan-d89-09-n800
 OpenBabel11261920323D

 20 19  0  0  0  0  0  0  0  0999 V2000
   -2.2623    0.2781    0.5616 C   0  0  0  0  0  0  0  0  0  0  0  0
   -3.5075   -0.3245    0.3893 N   0  0  0  0  0  0  0  0  0  0  0  0
   -4.4183   -0.7438   -0.1316 N   0  0  0  0  0  0  0  0  0  0  0  0
   -1.8030    0.4123    1.8805 C   0  0  0  0  0  0  0  0  0  0  0  0
   -0.5606    0.9934    2.0890 C   0  0  0  0  0  0  0  0  0  0  0  0
    0.1680    1.4104    0.9751 C   0  0  0  0  0  0  0  0  0  0  0  0
    1.4987    2.0282    1.1999 N   0  0  0  0  0  0  0  0  0  0  0  0
    1.8724    2.1386    2.3638 O   0  0  0  0  0  0  0  0  0  0  0  0
    2.1267    2.3804    0.2081 O   0  0  0  0  0  0  0  0  0  0  0  0
   -0.2916    1.2759   -0.3329 C   0  0  0  0  0  0  0  0  0  0  0  0
   -1.5368    0.6986   -0.5642 C   0  0  0  0  0  0  0  0  0  0  0  0
   -2.4121    0.0699    2.7090 H   0  0  0  0  0  0  0  0  0  0  0  0
   -0.1502    1.1280    3.0813 H   0  0  0  0  0  0  0  0  0  0  0  0
    0.3194    1.6270   -1.1549 H   0  0  0  0  0  0  0  0  0  0  0  0
   -1.9327    0.6010   -1.5714 H   0  0  0  0  0  0  0  0  0  0  0  0
   -4.2282    0.8654   -2.5164 B   0  0  0  0  0  0  0  0  0  0  0  0
   -4.2221   -0.5541   -2.0031 F   0  0  0  0  0  0  0  0  0  0  0  0
   -3.0035    1.0018   -3.1720 F   0  0  0  0  0  0  0  0  0  0  0  0
   -5.3090    1.0247   -3.3214 F   0  0  0  0  0  0  0  0  0  0  0  0
   -4.2540    1.6548   -1.3638 F   0  0  0  0  0  0  0  0  0  0  0  0
  1  4  2  0  0  0  0
  2  1  1  0  0  0  0
  3  2  1  0  0  0  0
  4  5  1  0  0  0  0
  4 12  1  0  0  0  0
  5 13  1  0  0  0  0
  6  7  1  0  0  0  0
  6  5  2  0  0  0  0
  7  8  2  0  0  0  0
  9  7  2  0  0  0  0
 10  6  1  0  0  0  0
 11 10  2  0  0  0  0
 11  1  1  0  0  0  0
 14 10  1  0  0  0  0
 15 11  1  0  0  0  0
 16 17  1  0  0  0  0
 16 20  1  0  0  0  0
 18 16  1  0  0  0  0
 19 16  1  0  0  0  0
M  RAD  2   2   2   3   3
M  END
