Coordinates from ORCA-job 4-NO2PhN2+~BF4-_B3LYPG-6-31G_dp-NX-Scan-d89-09-n800
 OpenBabel11261920323D

 20 19  0  0  0  0  0  0  0  0999 V2000
   -2.1405    0.2412    0.3679 C   0  0  0  0  0  0  0  0  0  0  0  0
   -3.3275   -0.4419    0.1038 N   0  0  0  0  0  0  0  0  0  0  0  0
   -4.2412   -1.0696    0.0266 N   0  0  0  0  0  0  0  0  0  0  0  0
   -1.7748    0.3437    1.7202 C   0  0  0  0  0  0  0  0  0  0  0  0
   -0.5831    0.9896    2.0148 C   0  0  0  0  0  0  0  0  0  0  0  0
    0.1833    1.4868    0.9601 C   0  0  0  0  0  0  0  0  0  0  0  0
    1.4618    2.1679    1.2864 N   0  0  0  0  0  0  0  0  0  0  0  0
    1.7586    2.2548    2.4740 O   0  0  0  0  0  0  0  0  0  0  0  0
    2.1220    2.5948    0.3466 O   0  0  0  0  0  0  0  0  0  0  0  0
   -0.1890    1.3748   -0.3774 C   0  0  0  0  0  0  0  0  0  0  0  0
   -1.3854    0.7427   -0.6997 C   0  0  0  0  0  0  0  0  0  0  0  0
   -2.4071   -0.0600    2.5023 H   0  0  0  0  0  0  0  0  0  0  0  0
   -0.2391    1.1119    3.0338 H   0  0  0  0  0  0  0  0  0  0  0  0
    0.4499    1.7876   -1.1477 H   0  0  0  0  0  0  0  0  0  0  0  0
   -1.7610    0.6191   -1.7121 H   0  0  0  0  0  0  0  0  0  0  0  0
   -4.3963    0.7836   -2.3514 B   0  0  0  0  0  0  0  0  0  0  0  0
   -5.4827   -0.0204   -1.9797 F   0  0  0  0  0  0  0  0  0  0  0  0
   -3.2832   -0.0857   -2.6205 F   0  0  0  0  0  0  0  0  0  0  0  0
   -4.6619    1.5935   -3.4196 F   0  0  0  0  0  0  0  0  0  0  0  0
   -4.0092    1.5516   -1.2024 F   0  0  0  0  0  0  0  0  0  0  0  0
  1  4  2  0  0  0  0
  2  1  1  0  0  0  0
  3  2  1  0  0  0  0
  4  5  1  0  0  0  0
  4 12  1  0  0  0  0
  5 13  1  0  0  0  0
  6  7  1  0  0  0  0
  6  5  2  0  0  0  0
  7  8  2  0  0  0  0
  9  7  2  0  0  0  0
 10  6  1  0  0  0  0
 11 10  2  0  0  0  0
 11  1  1  0  0  0  0
 14 10  1  0  0  0  0
 15 11  1  0  0  0  0
 16 17  1  0  0  0  0
 16 20  1  0  0  0  0
 18 16  1  0  0  0  0
 19 16  1  0  0  0  0
M  RAD  2   2   2   3   3
M  END
