Coordinates from ORCA-job 4-NO2PhN2+~BF4-_B3LYPG-6-31G_dp-NX-Scan-d89-09-n800
 OpenBabel11261920313D

 20 19  0  0  0  0  0  0  0  0999 V2000
   -1.7446   -1.2063    0.1145 C   0  0  0  0  0  0  0  0  0  0  0  0
   -2.2230   -2.4820    0.1300 N   0  0  0  0  0  0  0  0  0  0  0  0
   -2.5844   -3.5433    0.1593 N   0  0  0  0  0  0  0  0  0  0  0  0
   -2.3767   -0.2289    0.9218 C   0  0  0  0  0  0  0  0  0  0  0  0
   -1.8124    1.0306    0.9686 C   0  0  0  0  0  0  0  0  0  0  0  0
   -0.6983    1.2922    0.1689 C   0  0  0  0  0  0  0  0  0  0  0  0
   -0.0193    2.6069    0.2950 N   0  0  0  0  0  0  0  0  0  0  0  0
   -0.2863    3.2632    1.2892 O   0  0  0  0  0  0  0  0  0  0  0  0
    0.7986    2.8874   -0.5730 O   0  0  0  0  0  0  0  0  0  0  0  0
   -0.1013    0.3401   -0.6675 C   0  0  0  0  0  0  0  0  0  0  0  0
   -0.6160   -0.9384   -0.7009 C   0  0  0  0  0  0  0  0  0  0  0  0
   -3.2793   -0.4621    1.4733 H   0  0  0  0  0  0  0  0  0  0  0  0
   -2.2868    1.8504    1.4995 H   0  0  0  0  0  0  0  0  0  0  0  0
    0.7511    0.6274   -1.2701 H   0  0  0  0  0  0  0  0  0  0  0  0
   -0.1775   -1.7179   -1.3130 H   0  0  0  0  0  0  0  0  0  0  0  0
   -3.4826    2.9487   -0.6453 B   0  0  0  0  0  0  0  0  0  0  0  0
   -4.1998    3.8677   -1.3744 F   0  0  0  0  0  0  0  0  0  0  0  0
   -4.0423    1.6519   -0.7009 F   0  0  0  0  0  0  0  0  0  0  0  0
   -2.1411    2.8471   -1.1636 F   0  0  0  0  0  0  0  0  0  0  0  0
   -3.3845    3.3315    0.7146 F   0  0  0  0  0  0  0  0  0  0  0  0
  1  2  1  0  0  0  0
  1  4  2  0  0  0  0
  2  3  1  0  0  0  0
  4  5  1  0  0  0  0
  4 12  1  0  0  0  0
  5 13  1  0  0  0  0
  6  7  1  0  0  0  0
  6  5  2  0  0  0  0
  7  8  2  0  0  0  0
  9  7  2  0  0  0  0
 10  6  1  0  0  0  0
 11 10  2  0  0  0  0
 11  1  1  0  0  0  0
 14 10  1  0  0  0  0
 15 11  1  0  0  0  0
 16 20  1  0  0  0  0
 17 16  1  0  0  0  0
 18 16  1  0  0  0  0
 19 16  1  0  0  0  0
M  RAD  2   2   2   3   3
M  END
