Coordinates from ORCA-job 4-NO2PhN2+~BF4-_B3LYPG-6-31G_dp-NX-Scan-d89-09-n800
 OpenBabel11261920323D

 20 19  0  0  0  0  0  0  0  0999 V2000
   -2.0277   -0.2407    0.1093 C   0  0  0  0  0  0  0  0  0  0  0  0
   -3.0575   -1.1369   -0.1505 N   0  0  0  0  0  0  0  0  0  0  0  0
   -3.8094   -1.9429   -0.2792 N   0  0  0  0  0  0  0  0  0  0  0  0
   -2.0841    0.4828    1.3062 C   0  0  0  0  0  0  0  0  0  0  0  0
   -1.0476    1.3679    1.5622 C   0  0  0  0  0  0  0  0  0  0  0  0
   -0.0356    1.5060    0.6138 C   0  0  0  0  0  0  0  0  0  0  0  0
    1.0684    2.4558    0.8977 N   0  0  0  0  0  0  0  0  0  0  0  0
    1.0260    3.0574    1.9657 O   0  0  0  0  0  0  0  0  0  0  0  0
    1.9464    2.5608    0.0479 O   0  0  0  0  0  0  0  0  0  0  0  0
   -0.0127    0.8102   -0.5933 C   0  0  0  0  0  0  0  0  0  0  0  0
   -1.0395   -0.0804   -0.8688 C   0  0  0  0  0  0  0  0  0  0  0  0
   -2.9296    0.3774    1.9724 H   0  0  0  0  0  0  0  0  0  0  0  0
   -1.0227    1.9635    2.4654 H   0  0  0  0  0  0  0  0  0  0  0  0
    0.7852    0.9913   -1.3017 H   0  0  0  0  0  0  0  0  0  0  0  0
   -1.1131   -0.6006   -1.8141 H   0  0  0  0  0  0  0  0  0  0  0  0
   -4.1314    1.3198   -1.3420 B   0  0  0  0  0  0  0  0  0  0  0  0
   -5.1603    1.9206   -2.0115 F   0  0  0  0  0  0  0  0  0  0  0  0
   -3.6114    0.2073   -2.0948 F   0  0  0  0  0  0  0  0  0  0  0  0
   -3.0647    2.1827   -1.0633 F   0  0  0  0  0  0  0  0  0  0  0  0
   -4.5855    0.7641   -0.0952 F   0  0  0  0  0  0  0  0  0  0  0  0
  1  4  2  0  0  0  0
  2  1  1  0  0  0  0
  3  2  1  0  0  0  0
  4  5  1  0  0  0  0
  4 12  1  0  0  0  0
  5 13  1  0  0  0  0
  6  7  1  0  0  0  0
  6  5  2  0  0  0  0
  7  8  2  0  0  0  0
  9  7  2  0  0  0  0
 10  6  1  0  0  0  0
 11 10  2  0  0  0  0
 11  1  1  0  0  0  0
 14 10  1  0  0  0  0
 15 11  1  0  0  0  0
 16 19  1  0  0  0  0
 16 20  1  0  0  0  0
 17 16  1  0  0  0  0
 18 16  1  0  0  0  0
M  RAD  2   2   2   3   3
M  END
