Coordinates from ORCA-job 4-NO2PhN2+~BF4-_B3LYPG-6-31G_dp-NX-Scan-d89-09-n800
 OpenBabel11261920323D

 20 19  0  0  0  0  0  0  0  0999 V2000
   -1.9306   -0.6102   -0.0149 C   0  0  0  0  0  0  0  0  0  0  0  0
   -2.7026   -1.7253   -0.2147 N   0  0  0  0  0  0  0  0  0  0  0  0
   -3.2465   -2.6925   -0.3430 N   0  0  0  0  0  0  0  0  0  0  0  0
   -2.2530    0.2425    1.0544 C   0  0  0  0  0  0  0  0  0  0  0  0
   -1.3874    1.3027    1.2995 C   0  0  0  0  0  0  0  0  0  0  0  0
   -0.2847    1.4706    0.4760 C   0  0  0  0  0  0  0  0  0  0  0  0
    0.6316    2.6036    0.7515 N   0  0  0  0  0  0  0  0  0  0  0  0
    0.3814    3.2998    1.7284 O   0  0  0  0  0  0  0  0  0  0  0  0
    1.5820    2.7486   -0.0113 O   0  0  0  0  0  0  0  0  0  0  0  0
    0.0087    0.6413   -0.6131 C   0  0  0  0  0  0  0  0  0  0  0  0
   -0.8250   -0.4241   -0.8758 C   0  0  0  0  0  0  0  0  0  0  0  0
   -3.1507    0.0964    1.6370 H   0  0  0  0  0  0  0  0  0  0  0  0
   -1.5901    2.0135    2.0889 H   0  0  0  0  0  0  0  0  0  0  0  0
    0.8717    0.8531   -1.2303 H   0  0  0  0  0  0  0  0  0  0  0  0
   -0.6521   -1.0957   -1.7080 H   0  0  0  0  0  0  0  0  0  0  0  0
   -3.8916    1.8719   -0.9662 B   0  0  0  0  0  0  0  0  0  0  0  0
   -4.7018    2.7995   -1.5869 F   0  0  0  0  0  0  0  0  0  0  0  0
   -4.2526    0.5248   -1.2624 F   0  0  0  0  0  0  0  0  0  0  0  0
   -2.5382    2.0365   -1.3402 F   0  0  0  0  0  0  0  0  0  0  0  0
   -3.9749    2.0090    0.4570 F   0  0  0  0  0  0  0  0  0  0  0  0
  1  4  2  0  0  0  0
  2  1  1  0  0  0  0
  3  2  1  0  0  0  0
  4  5  1  0  0  0  0
  4 12  1  0  0  0  0
  5 13  1  0  0  0  0
  6  7  1  0  0  0  0
  6  5  2  0  0  0  0
  7  8  2  0  0  0  0
  9  7  2  0  0  0  0
 10  6  1  0  0  0  0
 11 10  2  0  0  0  0
 11  1  1  0  0  0  0
 14 10  1  0  0  0  0
 15 11  1  0  0  0  0
 16 20  1  0  0  0  0
 17 16  1  0  0  0  0
 18 16  1  0  0  0  0
 19 16  1  0  0  0  0
M  RAD  2   2   2   3   3
M  END
