Coordinates from ORCA-job 4-NO2PhN2+~BF4-_B3LYPG-6-31G_dp-NX-Scan-d89-09-n800
 OpenBabel11261920323D

 20 19  0  0  0  0  0  0  0  0999 V2000
   -2.1469    0.2544    0.3784 C   0  0  0  0  0  0  0  0  0  0  0  0
   -3.3393   -0.4171    0.1123 N   0  0  0  0  0  0  0  0  0  0  0  0
   -4.2662   -1.0231    0.0075 N   0  0  0  0  0  0  0  0  0  0  0  0
   -1.7753    0.3494    1.7297 C   0  0  0  0  0  0  0  0  0  0  0  0
   -0.5788    0.9868    2.0232 C   0  0  0  0  0  0  0  0  0  0  0  0
    0.1878    1.4823    0.9676 C   0  0  0  0  0  0  0  0  0  0  0  0
    1.4716    2.1539    1.2921 N   0  0  0  0  0  0  0  0  0  0  0  0
    1.7735    2.2339    2.4789 O   0  0  0  0  0  0  0  0  0  0  0  0
    2.1344    2.5749    0.3514 O   0  0  0  0  0  0  0  0  0  0  0  0
   -0.1892    1.3767   -0.3690 C   0  0  0  0  0  0  0  0  0  0  0  0
   -1.3913    0.7543   -0.6899 C   0  0  0  0  0  0  0  0  0  0  0  0
   -2.4076   -0.0537    2.5121 H   0  0  0  0  0  0  0  0  0  0  0  0
   -0.2310    1.1037    3.0415 H   0  0  0  0  0  0  0  0  0  0  0  0
    0.4506    1.7870   -1.1399 H   0  0  0  0  0  0  0  0  0  0  0  0
   -1.7682    0.6395   -1.7033 H   0  0  0  0  0  0  0  0  0  0  0  0
   -4.3919    0.7728   -2.3700 B   0  0  0  0  0  0  0  0  0  0  0  0
   -5.4077   -0.1013   -1.9320 F   0  0  0  0  0  0  0  0  0  0  0  0
   -3.2487   -0.0273   -2.6948 F   0  0  0  0  0  0  0  0  0  0  0  0
   -4.7779    1.5501   -3.4245 F   0  0  0  0  0  0  0  0  0  0  0  0
   -4.0044    1.5692   -1.2454 F   0  0  0  0  0  0  0  0  0  0  0  0
  1  4  2  0  0  0  0
  2  1  1  0  0  0  0
  3  2  1  0  0  0  0
  4  5  1  0  0  0  0
  4 12  1  0  0  0  0
  5 13  1  0  0  0  0
  6  7  1  0  0  0  0
  6  5  2  0  0  0  0
  7  8  2  0  0  0  0
  9  7  2  0  0  0  0
 10  6  1  0  0  0  0
 11 10  2  0  0  0  0
 11  1  1  0  0  0  0
 14 10  1  0  0  0  0
 15 11  1  0  0  0  0
 16 17  1  0  0  0  0
 16 20  1  0  0  0  0
 18 16  1  0  0  0  0
 19 16  1  0  0  0  0
M  RAD  2   2   2   3   3
M  END
