Coordinates from ORCA-job 4-NO2PhN2+~BF4-_B3LYPG-6-31G_dp-NX-Scan-d89-09-n800
 OpenBabel11261920313D

 20 19  0  0  0  0  0  0  0  0999 V2000
   -1.7383   -1.2171    0.1159 C   0  0  0  0  0  0  0  0  0  0  0  0
   -2.2071   -2.4963    0.1409 N   0  0  0  0  0  0  0  0  0  0  0  0
   -2.5597   -3.5602    0.1784 N   0  0  0  0  0  0  0  0  0  0  0  0
   -2.3808   -0.2366    0.9116 C   0  0  0  0  0  0  0  0  0  0  0  0
   -1.8235    1.0261    0.9525 C   0  0  0  0  0  0  0  0  0  0  0  0
   -0.7035    1.2866    0.1601 C   0  0  0  0  0  0  0  0  0  0  0  0
   -0.0263    2.6022    0.2865 N   0  0  0  0  0  0  0  0  0  0  0  0
   -0.2904    3.2548    1.2837 O   0  0  0  0  0  0  0  0  0  0  0  0
    0.7887    2.8854   -0.5833 O   0  0  0  0  0  0  0  0  0  0  0  0
   -0.0981    0.3321   -0.6672 C   0  0  0  0  0  0  0  0  0  0  0  0
   -0.6065   -0.9494   -0.6948 C   0  0  0  0  0  0  0  0  0  0  0  0
   -3.2853   -0.4706    1.4599 H   0  0  0  0  0  0  0  0  0  0  0  0
   -2.3029    1.8478    1.4768 H   0  0  0  0  0  0  0  0  0  0  0  0
    0.7570    0.6191   -1.2663 H   0  0  0  0  0  0  0  0  0  0  0  0
   -0.1600   -1.7310   -1.2982 H   0  0  0  0  0  0  0  0  0  0  0  0
   -3.4867    2.9740   -0.6378 B   0  0  0  0  0  0  0  0  0  0  0  0
   -4.1942    3.9093   -1.3557 F   0  0  0  0  0  0  0  0  0  0  0  0
   -4.0591    1.6843   -0.7057 F   0  0  0  0  0  0  0  0  0  0  0  0
   -2.1465    2.8640   -1.1581 F   0  0  0  0  0  0  0  0  0  0  0  0
   -3.3831    3.3414    0.7267 F   0  0  0  0  0  0  0  0  0  0  0  0
  1  2  1  0  0  0  0
  1  4  2  0  0  0  0
  2  3  1  0  0  0  0
  4  5  1  0  0  0  0
  4 12  1  0  0  0  0
  5 13  1  0  0  0  0
  6  7  1  0  0  0  0
  6  5  2  0  0  0  0
  7  8  2  0  0  0  0
  9  7  2  0  0  0  0
 10  6  1  0  0  0  0
 11 10  2  0  0  0  0
 11  1  1  0  0  0  0
 14 10  1  0  0  0  0
 15 11  1  0  0  0  0
 16 20  1  0  0  0  0
 17 16  1  0  0  0  0
 18 16  1  0  0  0  0
 19 16  1  0  0  0  0
M  RAD  2   2   2   3   3
M  END
