Coordinates from ORCA-job 4-NO2PhN2+~BF4-_B3LYPG-6-31G_dp-NX-Scan-d89-09-n800
 OpenBabel11261920323D

 20 19  0  0  0  0  0  0  0  0999 V2000
   -2.1932    0.2284    0.4624 C   0  0  0  0  0  0  0  0  0  0  0  0
   -3.3819   -0.4770    0.2965 N   0  0  0  0  0  0  0  0  0  0  0  0
   -4.3035   -1.0895    0.2288 N   0  0  0  0  0  0  0  0  0  0  0  0
   -1.6738    0.2373    1.7696 C   0  0  0  0  0  0  0  0  0  0  0  0
   -0.4800    0.9066    1.9884 C   0  0  0  0  0  0  0  0  0  0  0  0
    0.1383    1.5295    0.9037 C   0  0  0  0  0  0  0  0  0  0  0  0
    1.4187    2.2428    1.1452 N   0  0  0  0  0  0  0  0  0  0  0  0
    1.8498    2.2356    2.2942 O   0  0  0  0  0  0  0  0  0  0  0  0
    1.9479    2.7817    0.1810 O   0  0  0  0  0  0  0  0  0  0  0  0
   -0.3851    1.5158   -0.3861 C   0  0  0  0  0  0  0  0  0  0  0  0
   -1.5831    0.8519   -0.6365 C   0  0  0  0  0  0  0  0  0  0  0  0
   -2.1963   -0.2609    2.5781 H   0  0  0  0  0  0  0  0  0  0  0  0
   -0.0250    0.9546    2.9693 H   0  0  0  0  0  0  0  0  0  0  0  0
    0.1394    2.0255   -1.1844 H   0  0  0  0  0  0  0  0  0  0  0  0
   -2.0313    0.8359   -1.6261 H   0  0  0  0  0  0  0  0  0  0  0  0
   -4.2637    0.7043   -2.3687 B   0  0  0  0  0  0  0  0  0  0  0  0
   -5.4704    0.5800   -2.9953 F   0  0  0  0  0  0  0  0  0  0  0  0
   -3.6625   -0.5875   -2.1706 F   0  0  0  0  0  0  0  0  0  0  0  0
   -3.3248    1.4819   -3.0617 F   0  0  0  0  0  0  0  0  0  0  0  0
   -4.4260    1.2691   -1.0619 F   0  0  0  0  0  0  0  0  0  0  0  0
  1  4  2  0  0  0  0
  2  1  1  0  0  0  0
  3  2  1  0  0  0  0
  4  5  1  0  0  0  0
  4 12  1  0  0  0  0
  5 13  1  0  0  0  0
  6  7  1  0  0  0  0
  6  5  2  0  0  0  0
  7  8  2  0  0  0  0
  9  7  2  0  0  0  0
 10  6  1  0  0  0  0
 11 10  2  0  0  0  0
 11  1  1  0  0  0  0
 14 10  1  0  0  0  0
 15 11  1  0  0  0  0
 16 18  1  0  0  0  0
 16 20  1  0  0  0  0
 17 16  1  0  0  0  0
 19 16  1  0  0  0  0
M  RAD  2   2   2   3   3
M  END
