Coordinates from ORCA-job 4-NO2PhN2+~BF4-_B3LYPG-6-31G_dp-NX-Scan-d89-09-n800
 OpenBabel11261920323D

 20 19  0  0  0  0  0  0  0  0999 V2000
   -2.1878    0.2116    0.4558 C   0  0  0  0  0  0  0  0  0  0  0  0
   -3.3702   -0.5054    0.2921 N   0  0  0  0  0  0  0  0  0  0  0  0
   -4.2830   -1.1337    0.2575 N   0  0  0  0  0  0  0  0  0  0  0  0
   -1.6774    0.2382    1.7667 C   0  0  0  0  0  0  0  0  0  0  0  0
   -0.4891    0.9170    1.9851 C   0  0  0  0  0  0  0  0  0  0  0  0
    0.1331    1.5307    0.8971 C   0  0  0  0  0  0  0  0  0  0  0  0
    1.4076    2.2542    1.1390 N   0  0  0  0  0  0  0  0  0  0  0  0
    1.8307    2.2631    2.2910 O   0  0  0  0  0  0  0  0  0  0  0  0
    1.9406    2.7847    0.1722 O   0  0  0  0  0  0  0  0  0  0  0  0
   -0.3816    1.4989   -0.3957 C   0  0  0  0  0  0  0  0  0  0  0  0
   -1.5744    0.8251   -0.6458 C   0  0  0  0  0  0  0  0  0  0  0  0
   -2.2025   -0.2534    2.5775 H   0  0  0  0  0  0  0  0  0  0  0  0
   -0.0410    0.9793    2.9683 H   0  0  0  0  0  0  0  0  0  0  0  0
    0.1445    2.0032   -1.1965 H   0  0  0  0  0  0  0  0  0  0  0  0
   -2.0192    0.7996   -1.6373 H   0  0  0  0  0  0  0  0  0  0  0  0
   -4.2622    0.7252   -2.3561 B   0  0  0  0  0  0  0  0  0  0  0  0
   -5.4539    0.6583   -3.0190 F   0  0  0  0  0  0  0  0  0  0  0  0
   -3.6991   -0.5850   -2.1764 F   0  0  0  0  0  0  0  0  0  0  0  0
   -3.2863    1.4951   -3.0112 F   0  0  0  0  0  0  0  0  0  0  0  0
   -4.4350    1.2594   -1.0384 F   0  0  0  0  0  0  0  0  0  0  0  0
  1  4  2  0  0  0  0
  2  1  1  0  0  0  0
  3  2  1  0  0  0  0
  4  5  1  0  0  0  0
  4 12  1  0  0  0  0
  5 13  1  0  0  0  0
  6  7  1  0  0  0  0
  6  5  2  0  0  0  0
  7  8  2  0  0  0  0
  9  7  2  0  0  0  0
 10  6  1  0  0  0  0
 11 10  2  0  0  0  0
 11  1  1  0  0  0  0
 14 10  1  0  0  0  0
 15 11  1  0  0  0  0
 16 18  1  0  0  0  0
 16 20  1  0  0  0  0
 17 16  1  0  0  0  0
 19 16  1  0  0  0  0
M  RAD  2   2   2   3   3
M  END
