Coordinates from ORCA-job 4-NO2PhN2+~BF4-_B3LYPG-6-31G_dp-NX-Scan-d89-09-n800
 OpenBabel11261920313D

 20 19  0  0  0  0  0  0  0  0999 V2000
   -1.6480   -1.3539    0.1434 C   0  0  0  0  0  0  0  0  0  0  0  0
   -2.0243   -2.6612    0.2674 N   0  0  0  0  0  0  0  0  0  0  0  0
   -2.2868   -3.7455    0.3823 N   0  0  0  0  0  0  0  0  0  0  0  0
   -2.4234   -0.3399    0.7640 C   0  0  0  0  0  0  0  0  0  0  0  0
   -1.9489    0.9593    0.7230 C   0  0  0  0  0  0  0  0  0  0  0  0
   -0.7467    1.2019    0.0490 C   0  0  0  0  0  0  0  0  0  0  0  0
   -0.1168    2.5411    0.1420 N   0  0  0  0  0  0  0  0  0  0  0  0
   -0.3358    3.1614    1.1692 O   0  0  0  0  0  0  0  0  0  0  0  0
    0.6350    2.8564   -0.7715 O   0  0  0  0  0  0  0  0  0  0  0  0
   -0.0190    0.2140   -0.6256 C   0  0  0  0  0  0  0  0  0  0  0  0
   -0.4556   -1.0950   -0.5759 C   0  0  0  0  0  0  0  0  0  0  0  0
   -3.3592   -0.5796    1.2557 H   0  0  0  0  0  0  0  0  0  0  0  0
   -2.5044    1.8026    1.1470 H   0  0  0  0  0  0  0  0  0  0  0  0
    0.8813    0.4918   -1.1598 H   0  0  0  0  0  0  0  0  0  0  0  0
    0.0935   -1.9007   -1.0489 H   0  0  0  0  0  0  0  0  0  0  0  0
   -3.5610    3.3055   -0.5247 B   0  0  0  0  0  0  0  0  0  0  0  0
   -4.1141    4.4676   -1.0171 F   0  0  0  0  0  0  0  0  0  0  0  0
   -4.3312    2.1632   -0.7885 F   0  0  0  0  0  0  0  0  0  0  0  0
   -2.2612    3.0867   -1.0968 F   0  0  0  0  0  0  0  0  0  0  0  0
   -3.3798    3.3905    0.8918 F   0  0  0  0  0  0  0  0  0  0  0  0
  1  2  1  0  0  0  0
  1  4  2  0  0  0  0
  2  3  1  0  0  0  0
  4 12  1  0  0  0  0
  5  4  1  0  0  0  0
  5 13  1  0  0  0  0
  6  7  1  0  0  0  0
  6  5  2  0  0  0  0
  7  8  2  0  0  0  0
  9  7  2  0  0  0  0
 10 11  2  0  0  0  0
 10  6  1  0  0  0  0
 11  1  1  0  0  0  0
 14 10  1  0  0  0  0
 15 11  1  0  0  0  0
 16 20  1  0  0  0  0
 17 16  1  0  0  0  0
 18 16  1  0  0  0  0
 19 16  1  0  0  0  0
M  RAD  2   2   2   3   3
M  END
