Coordinates from ORCA-job 4-NO2PhN2+~BF4-_B3LYPG-6-31G_dp-NX-Scan-d89-09-n800
 OpenBabel11261920323D

 20 19  0  0  0  0  0  0  0  0999 V2000
   -2.2743    0.2611    0.5715 C   0  0  0  0  0  0  0  0  0  0  0  0
   -3.5284   -0.3400    0.4268 N   0  0  0  0  0  0  0  0  0  0  0  0
   -4.3947   -0.7310   -0.2030 N   0  0  0  0  0  0  0  0  0  0  0  0
   -1.8115    0.4220    1.8856 C   0  0  0  0  0  0  0  0  0  0  0  0
   -0.5672    1.0030    2.0863 C   0  0  0  0  0  0  0  0  0  0  0  0
    0.1641    1.3966    0.9665 C   0  0  0  0  0  0  0  0  0  0  0  0
    1.4952    2.0155    1.1796 N   0  0  0  0  0  0  0  0  0  0  0  0
    1.8702    2.1470    2.3411 O   0  0  0  0  0  0  0  0  0  0  0  0
    2.1244    2.3488    0.1815 O   0  0  0  0  0  0  0  0  0  0  0  0
   -0.2957    1.2375   -0.3392 C   0  0  0  0  0  0  0  0  0  0  0  0
   -1.5418    0.6585   -0.5584 C   0  0  0  0  0  0  0  0  0  0  0  0
   -2.4232    0.0976    2.7194 H   0  0  0  0  0  0  0  0  0  0  0  0
   -0.1581    1.1550    3.0766 H   0  0  0  0  0  0  0  0  0  0  0  0
    0.3165    1.5711   -1.1674 H   0  0  0  0  0  0  0  0  0  0  0  0
   -1.9332    0.5414   -1.5622 H   0  0  0  0  0  0  0  0  0  0  0  0
   -4.2226    0.9312   -2.5059 B   0  0  0  0  0  0  0  0  0  0  0  0
   -4.0442   -0.5161   -1.9462 F   0  0  0  0  0  0  0  0  0  0  0  0
   -3.0389    1.1400   -3.1902 F   0  0  0  0  0  0  0  0  0  0  0  0
   -5.3363    0.9199   -3.2744 F   0  0  0  0  0  0  0  0  0  0  0  0
   -4.3067    1.7074   -1.3623 F   0  0  0  0  0  0  0  0  0  0  0  0
  1  4  2  0  0  0  0
  2  1  1  0  0  0  0
  3  2  2  0  0  0  0
  4  5  1  0  0  0  0
  4 12  1  0  0  0  0
  5 13  1  0  0  0  0
  6  7  1  0  0  0  0
  6  5  2  0  0  0  0
  7  8  2  0  0  0  0
  9  7  2  0  0  0  0
 10  6  1  0  0  0  0
 11 10  2  0  0  0  0
 11  1  1  0  0  0  0
 14 10  1  0  0  0  0
 15 11  1  0  0  0  0
 16 17  1  0  0  0  0
 16 20  1  0  0  0  0
 18 16  1  0  0  0  0
 19 16  1  0  0  0  0
M  RAD  1   3   2
M  END
