Coordinates from ORCA-job 4-NO2PhN2+~BF4-_B3LYPG-6-31G_dp-NX-Scan-d89-09-n800
 OpenBabel11261920323D

 20 19  0  0  0  0  0  0  0  0999 V2000
   -2.1435    0.1619    0.3807 C   0  0  0  0  0  0  0  0  0  0  0  0
   -3.3083   -0.5776    0.1660 N   0  0  0  0  0  0  0  0  0  0  0  0
   -4.1812   -1.2621    0.1598 N   0  0  0  0  0  0  0  0  0  0  0  0
   -1.7494    0.2954    1.7222 C   0  0  0  0  0  0  0  0  0  0  0  0
   -0.5787    0.9932    1.9819 C   0  0  0  0  0  0  0  0  0  0  0  0
    0.1388    1.5138    0.9050 C   0  0  0  0  0  0  0  0  0  0  0  0
    1.3936    2.2534    1.1939 N   0  0  0  0  0  0  0  0  0  0  0  0
    1.7169    2.3606    2.3728 O   0  0  0  0  0  0  0  0  0  0  0  0
    2.0126    2.6975    0.2344 O   0  0  0  0  0  0  0  0  0  0  0  0
   -0.2623    1.3738   -0.4219 C   0  0  0  0  0  0  0  0  0  0  0  0
   -1.4359    0.6858   -0.7085 C   0  0  0  0  0  0  0  0  0  0  0  0
   -2.3448   -0.1254    2.5239 H   0  0  0  0  0  0  0  0  0  0  0  0
   -0.2161    1.1393    2.9912 H   0  0  0  0  0  0  0  0  0  0  0  0
    0.3357    1.8091   -1.2124 H   0  0  0  0  0  0  0  0  0  0  0  0
   -1.8248    0.5390   -1.7107 H   0  0  0  0  0  0  0  0  0  0  0  0
   -4.3278    0.8466   -2.2891 B   0  0  0  0  0  0  0  0  0  0  0  0
   -5.6281    0.4751   -2.5294 F   0  0  0  0  0  0  0  0  0  0  0  0
   -3.4817   -0.3358   -2.3076 F   0  0  0  0  0  0  0  0  0  0  0  0
   -3.8157    1.7657   -3.1791 F   0  0  0  0  0  0  0  0  0  0  0  0
   -4.2057    1.3570   -0.9471 F   0  0  0  0  0  0  0  0  0  0  0  0
  1  4  2  0  0  0  0
  2  1  1  0  0  0  0
  3  2  1  0  0  0  0
  4  5  1  0  0  0  0
  4 12  1  0  0  0  0
  5 13  1  0  0  0  0
  6  7  1  0  0  0  0
  6  5  2  0  0  0  0
  7  8  2  0  0  0  0
  9  7  2  0  0  0  0
 10  6  1  0  0  0  0
 11 10  2  0  0  0  0
 11  1  1  0  0  0  0
 14 10  1  0  0  0  0
 15 11  1  0  0  0  0
 16 20  1  0  0  0  0
 17 16  1  0  0  0  0
 18 16  1  0  0  0  0
 19 16  1  0  0  0  0
M  RAD  2   2   2   3   3
M  END
