Coordinates from ORCA-job 4-NO2PhN2+~BF4-_B3LYPG-6-31G_dp-NX-Scan-d89-09-n800
 OpenBabel11261920323D

 20 19  0  0  0  0  0  0  0  0999 V2000
   -2.0288   -0.2441    0.1081 C   0  0  0  0  0  0  0  0  0  0  0  0
   -3.0540   -1.1462   -0.1484 N   0  0  0  0  0  0  0  0  0  0  0  0
   -3.7967   -1.9622   -0.2690 N   0  0  0  0  0  0  0  0  0  0  0  0
   -2.0876    0.4820    1.3033 C   0  0  0  0  0  0  0  0  0  0  0  0
   -1.0523    1.3685    1.5588 C   0  0  0  0  0  0  0  0  0  0  0  0
   -0.0395    1.5060    0.6111 C   0  0  0  0  0  0  0  0  0  0  0  0
    1.0629    2.4578    0.8944 N   0  0  0  0  0  0  0  0  0  0  0  0
    1.0190    3.0610    1.9614 O   0  0  0  0  0  0  0  0  0  0  0  0
    1.9414    2.5627    0.0450 O   0  0  0  0  0  0  0  0  0  0  0  0
   -0.0147    0.8084   -0.5949 C   0  0  0  0  0  0  0  0  0  0  0  0
   -1.0402   -0.0838   -0.8697 C   0  0  0  0  0  0  0  0  0  0  0  0
   -2.9345    0.3777    1.9680 H   0  0  0  0  0  0  0  0  0  0  0  0
   -1.0292    1.9661    2.4608 H   0  0  0  0  0  0  0  0  0  0  0  0
    0.7833    0.9896   -1.3030 H   0  0  0  0  0  0  0  0  0  0  0  0
   -1.1129   -0.6052   -1.8145 H   0  0  0  0  0  0  0  0  0  0  0  0
   -4.1256    1.3262   -1.3378 B   0  0  0  0  0  0  0  0  0  0  0  0
   -5.1445    1.9462   -2.0065 F   0  0  0  0  0  0  0  0  0  0  0  0
   -3.6140    0.2130   -2.0946 F   0  0  0  0  0  0  0  0  0  0  0  0
   -3.0511    2.1775   -1.0497 F   0  0  0  0  0  0  0  0  0  0  0  0
   -4.5876    0.7648   -0.0967 F   0  0  0  0  0  0  0  0  0  0  0  0
  1  4  2  0  0  0  0
  2  1  1  0  0  0  0
  3  2  1  0  0  0  0
  4  5  1  0  0  0  0
  4 12  1  0  0  0  0
  5 13  1  0  0  0  0
  6  7  1  0  0  0  0
  6  5  2  0  0  0  0
  7  8  2  0  0  0  0
  9  7  2  0  0  0  0
 10  6  1  0  0  0  0
 11 10  2  0  0  0  0
 11  1  1  0  0  0  0
 14 10  1  0  0  0  0
 15 11  1  0  0  0  0
 16 19  1  0  0  0  0
 16 20  1  0  0  0  0
 17 16  1  0  0  0  0
 18 16  1  0  0  0  0
M  RAD  2   2   2   3   3
M  END
