Coordinates from ORCA-job 4-NO2PhN2+~BF4-_B3LYPG-6-31G_dp-NX-Scan-d89-09-n800
 OpenBabel11261920323D

 20 19  0  0  0  0  0  0  0  0999 V2000
   -1.9235   -0.8556    0.1324 C   0  0  0  0  0  0  0  0  0  0  0  0
   -2.6846   -1.9692   -0.0307 N   0  0  0  0  0  0  0  0  0  0  0  0
   -3.3000   -2.8956   -0.1622 N   0  0  0  0  0  0  0  0  0  0  0  0
   -2.2226   -0.0005    1.2134 C   0  0  0  0  0  0  0  0  0  0  0  0
   -1.4677    1.1497    1.3433 C   0  0  0  0  0  0  0  0  0  0  0  0
   -0.5066    1.4271    0.3764 C   0  0  0  0  0  0  0  0  0  0  0  0
    0.2664    2.6873    0.4999 N   0  0  0  0  0  0  0  0  0  0  0  0
    0.0533    3.3744    1.4903 O   0  0  0  0  0  0  0  0  0  0  0  0
    1.0797    2.9264   -0.3847 O   0  0  0  0  0  0  0  0  0  0  0  0
   -0.1976    0.5715   -0.6865 C   0  0  0  0  0  0  0  0  0  0  0  0
   -0.9193   -0.5920   -0.8295 C   0  0  0  0  0  0  0  0  0  0  0  0
   -3.0379   -0.2222    1.8896 H   0  0  0  0  0  0  0  0  0  0  0  0
   -1.6733    1.8743    2.1186 H   0  0  0  0  0  0  0  0  0  0  0  0
    0.5635    0.8626   -1.3983 H   0  0  0  0  0  0  0  0  0  0  0  0
   -0.7531   -1.2727   -1.6555 H   0  0  0  0  0  0  0  0  0  0  0  0
   -3.4604    2.1972   -0.9341 B   0  0  0  0  0  0  0  0  0  0  0  0
   -4.3514    2.9515   -1.6589 F   0  0  0  0  0  0  0  0  0  0  0  0
   -3.2582    0.9175   -1.5257 F   0  0  0  0  0  0  0  0  0  0  0  0
   -2.1947    2.8521   -0.8641 F   0  0  0  0  0  0  0  0  0  0  0  0
   -3.9185    1.9824    0.3923 F   0  0  0  0  0  0  0  0  0  0  0  0
  1  4  2  0  0  0  0
  2  1  1  0  0  0  0
  3  2  1  0  0  0  0
  4  5  1  0  0  0  0
  4 12  1  0  0  0  0
  5 13  1  0  0  0  0
  6  7  1  0  0  0  0
  6  5  2  0  0  0  0
  7  8  2  0  0  0  0
  9  7  2  0  0  0  0
 10  6  1  0  0  0  0
 11 10  2  0  0  0  0
 11  1  1  0  0  0  0
 14 10  1  0  0  0  0
 15 11  1  0  0  0  0
 16 19  1  0  0  0  0
 16 20  1  0  0  0  0
 17 16  1  0  0  0  0
 18 16  1  0  0  0  0
M  RAD  2   2   2   3   3
M  END
