Coordinates from ORCA-job 4-NO2PhN2+~BF4-_B3LYPG-6-31G_dp-NX-Scan-d89-09-n800
 OpenBabel11261920313D

 20 19  0  0  0  0  0  0  0  0999 V2000
   -1.8884   -1.0303    0.1368 C   0  0  0  0  0  0  0  0  0  0  0  0
   -2.4171   -2.2826    0.1104 N   0  0  0  0  0  0  0  0  0  0  0  0
   -2.8097   -3.3341    0.1099 N   0  0  0  0  0  0  0  0  0  0  0  0
   -2.2802   -0.1546    1.1760 C   0  0  0  0  0  0  0  0  0  0  0  0
   -1.6551    1.0734    1.2537 C   0  0  0  0  0  0  0  0  0  0  0  0
   -0.7001    1.4008    0.2874 C   0  0  0  0  0  0  0  0  0  0  0  0
    0.0799    2.6532    0.4681 N   0  0  0  0  0  0  0  0  0  0  0  0
   -0.1675    3.3174    1.4650 O   0  0  0  0  0  0  0  0  0  0  0  0
    0.9444    2.8900   -0.3657 O   0  0  0  0  0  0  0  0  0  0  0  0
   -0.3349    0.5458   -0.7598 C   0  0  0  0  0  0  0  0  0  0  0  0
   -0.9363   -0.6882   -0.8564 C   0  0  0  0  0  0  0  0  0  0  0  0
   -3.0434   -0.4468    1.8876 H   0  0  0  0  0  0  0  0  0  0  0  0
   -1.9194    1.8008    2.0069 H   0  0  0  0  0  0  0  0  0  0  0  0
    0.4013    0.8807   -1.4789 H   0  0  0  0  0  0  0  0  0  0  0  0
   -0.6890   -1.3860   -1.6476 H   0  0  0  0  0  0  0  0  0  0  0  0
   -3.3379    2.5568   -0.9060 B   0  0  0  0  0  0  0  0  0  0  0  0
   -4.1096    3.4027   -1.6683 F   0  0  0  0  0  0  0  0  0  0  0  0
   -3.4594    1.2015   -1.2933 F   0  0  0  0  0  0  0  0  0  0  0  0
   -1.9445    2.9100   -1.0666 F   0  0  0  0  0  0  0  0  0  0  0  0
   -3.6397    2.6555    0.4670 F   0  0  0  0  0  0  0  0  0  0  0  0
  1  4  2  0  0  0  0
  2  1  1  0  0  0  0
  3  2  1  0  0  0  0
  4  5  1  0  0  0  0
  4 12  1  0  0  0  0
  5 13  1  0  0  0  0
  6  7  1  0  0  0  0
  6  5  2  0  0  0  0
  7  8  2  0  0  0  0
  9  7  2  0  0  0  0
 10  6  1  0  0  0  0
 11 10  2  0  0  0  0
 11  1  1  0  0  0  0
 14 10  1  0  0  0  0
 15 11  1  0  0  0  0
 16 20  1  0  0  0  0
 17 16  1  0  0  0  0
 18 16  1  0  0  0  0
 19 16  1  0  0  0  0
M  RAD  2   2   2   3   3
M  END
