Coordinates from ORCA-job 4-NO2PhN2+~BF4-_B3LYPG-6-31G_dp-NX-Scan-d89-09-n800
 OpenBabel11261920323D

 20 19  0  0  0  0  0  0  0  0999 V2000
   -1.9370   -0.5760   -0.0149 C   0  0  0  0  0  0  0  0  0  0  0  0
   -2.7363   -1.6696   -0.2334 N   0  0  0  0  0  0  0  0  0  0  0  0
   -3.2953   -2.6261   -0.3729 N   0  0  0  0  0  0  0  0  0  0  0  0
   -2.2423    0.2679    1.0656 C   0  0  0  0  0  0  0  0  0  0  0  0
   -1.3613    1.3134    1.3182 C   0  0  0  0  0  0  0  0  0  0  0  0
   -0.2613    1.4771    0.4895 C   0  0  0  0  0  0  0  0  0  0  0  0
    0.6709    2.5958    0.7723 N   0  0  0  0  0  0  0  0  0  0  0  0
    0.4315    3.2880    1.7549 O   0  0  0  0  0  0  0  0  0  0  0  0
    1.6220    2.7339    0.0093 O   0  0  0  0  0  0  0  0  0  0  0  0
    0.0161    0.6555   -0.6087 C   0  0  0  0  0  0  0  0  0  0  0  0
   -0.8350   -0.3951   -0.8793 C   0  0  0  0  0  0  0  0  0  0  0  0
   -3.1380    0.1251    1.6519 H   0  0  0  0  0  0  0  0  0  0  0  0
   -1.5467    2.0151    2.1201 H   0  0  0  0  0  0  0  0  0  0  0  0
    0.8791    0.8615   -1.2278 H   0  0  0  0  0  0  0  0  0  0  0  0
   -0.6774   -1.0573   -1.7220 H   0  0  0  0  0  0  0  0  0  0  0  0
   -3.9187    1.8167   -0.9845 B   0  0  0  0  0  0  0  0  0  0  0  0
   -4.7418    2.7179   -1.6244 F   0  0  0  0  0  0  0  0  0  0  0  0
   -4.2559    0.4562   -1.2663 F   0  0  0  0  0  0  0  0  0  0  0  0
   -2.5672    1.9973   -1.3554 F   0  0  0  0  0  0  0  0  0  0  0  0
   -4.0119    1.9687    0.4340 F   0  0  0  0  0  0  0  0  0  0  0  0
  1  4  2  0  0  0  0
  2  1  1  0  0  0  0
  3  2  1  0  0  0  0
  4  5  1  0  0  0  0
  4 12  1  0  0  0  0
  5 13  1  0  0  0  0
  6  7  1  0  0  0  0
  6  5  2  0  0  0  0
  7  8  2  0  0  0  0
  9  7  2  0  0  0  0
 10  6  1  0  0  0  0
 11 10  2  0  0  0  0
 11  1  1  0  0  0  0
 14 10  1  0  0  0  0
 15 11  1  0  0  0  0
 16 20  1  0  0  0  0
 17 16  1  0  0  0  0
 18 16  1  0  0  0  0
 19 16  1  0  0  0  0
M  RAD  2   2   2   3   3
M  END
