Coordinates from ORCA-job 4-NO2PhN2+~BF4-_B3LYPG-6-31G_dp-NX-Scan-d89-09-n800
 OpenBabel11261920313D

 20 19  0  0  0  0  0  0  0  0999 V2000
   -1.8741   -1.0600    0.1377 C   0  0  0  0  0  0  0  0  0  0  0  0
   -2.3724   -2.3255    0.1282 N   0  0  0  0  0  0  0  0  0  0  0  0
   -2.7361   -3.3875    0.1439 N   0  0  0  0  0  0  0  0  0  0  0  0
   -2.2894   -0.1775    1.1629 C   0  0  0  0  0  0  0  0  0  0  0  0
   -1.6829    1.0603    1.2335 C   0  0  0  0  0  0  0  0  0  0  0  0
   -0.7231    1.3921    0.2727 C   0  0  0  0  0  0  0  0  0  0  0  0
    0.0522    2.6473    0.4599 N   0  0  0  0  0  0  0  0  0  0  0  0
   -0.2074    3.3113    1.4534 O   0  0  0  0  0  0  0  0  0  0  0  0
    0.9265    2.8833   -0.3638 O   0  0  0  0  0  0  0  0  0  0  0  0
   -0.3387    0.5320   -0.7641 C   0  0  0  0  0  0  0  0  0  0  0  0
   -0.9198   -0.7123   -0.8522 C   0  0  0  0  0  0  0  0  0  0  0  0
   -3.0522   -0.4749    1.8728 H   0  0  0  0  0  0  0  0  0  0  0  0
   -1.9657    1.7929    1.9747 H   0  0  0  0  0  0  0  0  0  0  0  0
    0.3998    0.8699   -1.4794 H   0  0  0  0  0  0  0  0  0  0  0  0
   -0.6531   -1.4152   -1.6326 H   0  0  0  0  0  0  0  0  0  0  0  0
   -3.3356    2.6177   -0.8961 B   0  0  0  0  0  0  0  0  0  0  0  0
   -4.0823    3.4945   -1.6487 F   0  0  0  0  0  0  0  0  0  0  0  0
   -3.5422    1.2661   -1.2499 F   0  0  0  0  0  0  0  0  0  0  0  0
   -1.9280    2.8889   -1.1105 F   0  0  0  0  0  0  0  0  0  0  0  0
   -3.5819    2.7625    0.4836 F   0  0  0  0  0  0  0  0  0  0  0  0
  1  4  2  0  0  0  0
  2  1  1  0  0  0  0
  2  3  1  0  0  0  0
  4  5  1  0  0  0  0
  4 12  1  0  0  0  0
  5 13  1  0  0  0  0
  6  7  1  0  0  0  0
  6  5  2  0  0  0  0
  7  8  2  0  0  0  0
  9  7  2  0  0  0  0
 10  6  1  0  0  0  0
 11 10  2  0  0  0  0
 11  1  1  0  0  0  0
 14 10  1  0  0  0  0
 15 11  1  0  0  0  0
 16 20  1  0  0  0  0
 17 16  1  0  0  0  0
 18 16  1  0  0  0  0
 19 16  1  0  0  0  0
M  RAD  2   2   2   3   3
M  END
