Coordinates from ORCA-job 4-NO2PhN2+~BF4-_B3LYPG-6-31G_dp-NX-Scan-d89-09-n800
 OpenBabel11261920323D

 20 19  0  0  0  0  0  0  0  0999 V2000
   -2.1408    0.2422    0.3672 C   0  0  0  0  0  0  0  0  0  0  0  0
   -3.3278   -0.4408    0.1025 N   0  0  0  0  0  0  0  0  0  0  0  0
   -4.2420   -1.0679    0.0236 N   0  0  0  0  0  0  0  0  0  0  0  0
   -1.7754    0.3444    1.7197 C   0  0  0  0  0  0  0  0  0  0  0  0
   -0.5836    0.9901    2.0148 C   0  0  0  0  0  0  0  0  0  0  0  0
    0.1831    1.4874    0.9603 C   0  0  0  0  0  0  0  0  0  0  0  0
    1.4616    2.1682    1.2871 N   0  0  0  0  0  0  0  0  0  0  0  0
    1.7598    2.2519    2.4746 O   0  0  0  0  0  0  0  0  0  0  0  0
    2.1240    2.5920    0.3474 O   0  0  0  0  0  0  0  0  0  0  0  0
   -0.1888    1.3756   -0.3773 C   0  0  0  0  0  0  0  0  0  0  0  0
   -1.3852    0.7438   -0.7000 C   0  0  0  0  0  0  0  0  0  0  0  0
   -2.4079   -0.0594    2.5015 H   0  0  0  0  0  0  0  0  0  0  0  0
   -0.2399    1.1122    3.0339 H   0  0  0  0  0  0  0  0  0  0  0  0
    0.4504    1.7883   -1.1474 H   0  0  0  0  0  0  0  0  0  0  0  0
   -1.7603    0.6204   -1.7126 H   0  0  0  0  0  0  0  0  0  0  0  0
   -4.3962    0.7827   -2.3505 B   0  0  0  0  0  0  0  0  0  0  0  0
   -5.4795   -0.0243   -1.9752 F   0  0  0  0  0  0  0  0  0  0  0  0
   -3.2818   -0.0842   -2.6212 F   0  0  0  0  0  0  0  0  0  0  0  0
   -4.6668    1.5904   -3.4191 F   0  0  0  0  0  0  0  0  0  0  0  0
   -4.0094    1.5527   -1.2033 F   0  0  0  0  0  0  0  0  0  0  0  0
  1  4  2  0  0  0  0
  2  1  1  0  0  0  0
  3  2  1  0  0  0  0
  4  5  1  0  0  0  0
  4 12  1  0  0  0  0
  5 13  1  0  0  0  0
  6  7  1  0  0  0  0
  6  5  2  0  0  0  0
  7  8  2  0  0  0  0
  9  7  2  0  0  0  0
 10  6  1  0  0  0  0
 11 10  2  0  0  0  0
 11  1  1  0  0  0  0
 14 10  1  0  0  0  0
 15 11  1  0  0  0  0
 16 17  1  0  0  0  0
 16 20  1  0  0  0  0
 18 16  1  0  0  0  0
 19 16  1  0  0  0  0
M  RAD  2   2   2   3   3
M  END
