Coordinates from ORCA-job 4-NO2PhN2+~BF4-_B3LYPG-6-31G_dp-NX-Scan-d89-09-n800
 OpenBabel11261920323D

 20 19  0  0  0  0  0  0  0  0999 V2000
   -2.1315    0.1840    0.3606 C   0  0  0  0  0  0  0  0  0  0  0  0
   -3.2949   -0.5509    0.1197 N   0  0  0  0  0  0  0  0  0  0  0  0
   -4.1614   -1.2442    0.1013 N   0  0  0  0  0  0  0  0  0  0  0  0
   -1.7701    0.3271    1.7100 C   0  0  0  0  0  0  0  0  0  0  0  0
   -0.5955    1.0108    1.9899 C   0  0  0  0  0  0  0  0  0  0  0  0
    0.1578    1.5051    0.9249 C   0  0  0  0  0  0  0  0  0  0  0  0
    1.4190    2.2243    1.2358 N   0  0  0  0  0  0  0  0  0  0  0  0
    1.7126    2.3456    2.4211 O   0  0  0  0  0  0  0  0  0  0  0  0
    2.0735    2.6378    0.2861 O   0  0  0  0  0  0  0  0  0  0  0  0
   -0.2129    1.3565   -0.4098 C   0  0  0  0  0  0  0  0  0  0  0  0
   -1.3917    0.6862   -0.7166 C   0  0  0  0  0  0  0  0  0  0  0  0
   -2.3914   -0.0753    2.5013 H   0  0  0  0  0  0  0  0  0  0  0  0
   -0.2558    1.1644    3.0061 H   0  0  0  0  0  0  0  0  0  0  0  0
    0.4126    1.7717   -1.1897 H   0  0  0  0  0  0  0  0  0  0  0  0
   -1.7668    0.5337   -1.7242 H   0  0  0  0  0  0  0  0  0  0  0  0
   -4.3789    0.8397   -2.2957 B   0  0  0  0  0  0  0  0  0  0  0  0
   -5.6426    0.2868   -2.3038 F   0  0  0  0  0  0  0  0  0  0  0  0
   -3.4033   -0.2292   -2.4130 F   0  0  0  0  0  0  0  0  0  0  0  0
   -4.1611    1.7731   -3.2781 F   0  0  0  0  0  0  0  0  0  0  0  0
   -4.1242    1.4188   -0.9997 F   0  0  0  0  0  0  0  0  0  0  0  0
  1  4  2  0  0  0  0
  2  1  1  0  0  0  0
  3  2  1  0  0  0  0
  4  5  1  0  0  0  0
  4 12  1  0  0  0  0
  5 13  1  0  0  0  0
  6  7  1  0  0  0  0
  6  5  2  0  0  0  0
  7  8  2  0  0  0  0
  9  7  2  0  0  0  0
 10  6  1  0  0  0  0
 11 10  2  0  0  0  0
 11  1  1  0  0  0  0
 14 10  1  0  0  0  0
 15 11  1  0  0  0  0
 16 20  1  0  0  0  0
 17 16  1  0  0  0  0
 18 16  1  0  0  0  0
 19 16  1  0  0  0  0
M  RAD  2   2   2   3   3
M  END
