Coordinates from ORCA-job 4-NO2PhN2+~BF4-_B3LYPG-6-31G_dp-NX-Scan-d89-09-n800
 OpenBabel11261920323D

 20 19  0  0  0  0  0  0  0  0999 V2000
   -2.0023   -0.3849    0.0746 C   0  0  0  0  0  0  0  0  0  0  0  0
   -2.9497   -1.3610   -0.1623 N   0  0  0  0  0  0  0  0  0  0  0  0
   -3.6325   -2.2337   -0.2667 N   0  0  0  0  0  0  0  0  0  0  0  0
   -2.1459    0.3940    1.2319 C   0  0  0  0  0  0  0  0  0  0  0  0
   -1.1713    1.3514    1.4735 C   0  0  0  0  0  0  0  0  0  0  0  0
   -0.1367    1.5016    0.5551 C   0  0  0  0  0  0  0  0  0  0  0  0
    0.8995    2.5283    0.8261 N   0  0  0  0  0  0  0  0  0  0  0  0
    0.7891    3.1728    1.8634 O   0  0  0  0  0  0  0  0  0  0  0  0
    1.7966    2.6471   -0.0021 O   0  0  0  0  0  0  0  0  0  0  0  0
   -0.0262    0.7493   -0.6144 C   0  0  0  0  0  0  0  0  0  0  0  0
   -0.9849   -0.2136   -0.8768 C   0  0  0  0  0  0  0  0  0  0  0  0
   -3.0054    0.2735    1.8755 H   0  0  0  0  0  0  0  0  0  0  0  0
   -1.2154    1.9920    2.3446 H   0  0  0  0  0  0  0  0  0  0  0  0
    0.7876    0.9417   -1.3010 H   0  0  0  0  0  0  0  0  0  0  0  0
   -0.9764   -0.7975   -1.7883 H   0  0  0  0  0  0  0  0  0  0  0  0
   -4.0093    1.5182   -1.1965 B   0  0  0  0  0  0  0  0  0  0  0  0
   -4.8968    2.3082   -1.8868 F   0  0  0  0  0  0  0  0  0  0  0  0
   -3.7814    0.2604   -1.8675 F   0  0  0  0  0  0  0  0  0  0  0  0
   -2.7562    2.1472   -1.0547 F   0  0  0  0  0  0  0  0  0  0  0  0
   -4.4887    1.1711    0.0983 F   0  0  0  0  0  0  0  0  0  0  0  0
  1  4  2  0  0  0  0
  2  1  1  0  0  0  0
  3  2  1  0  0  0  0
  4  5  1  0  0  0  0
  4 12  1  0  0  0  0
  5 13  1  0  0  0  0
  6  7  1  0  0  0  0
  6  5  2  0  0  0  0
  7  8  2  0  0  0  0
  9  7  2  0  0  0  0
 10  6  1  0  0  0  0
 11 10  2  0  0  0  0
 11  1  1  0  0  0  0
 14 10  1  0  0  0  0
 15 11  1  0  0  0  0
 16 19  1  0  0  0  0
 16 20  1  0  0  0  0
 17 16  1  0  0  0  0
 18 16  1  0  0  0  0
M  RAD  2   2   2   3   3
M  END
