Coordinates from ORCA-job 4-NO2PhN2+~BF4-_B3LYPG-6-31G_dp-NX-Scan-d89-09-n800
 OpenBabel11261920323D

 20 19  0  0  0  0  0  0  0  0999 V2000
   -1.9102   -0.9146    0.1336 C   0  0  0  0  0  0  0  0  0  0  0  0
   -2.6109   -2.0705    0.0015 N   0  0  0  0  0  0  0  0  0  0  0  0
   -3.1720   -3.0351   -0.1014 N   0  0  0  0  0  0  0  0  0  0  0  0
   -2.2365   -0.0570    1.2057 C   0  0  0  0  0  0  0  0  0  0  0  0
   -1.5275    1.1225    1.3198 C   0  0  0  0  0  0  0  0  0  0  0  0
   -0.5720    1.4214    0.3503 C   0  0  0  0  0  0  0  0  0  0  0  0
    0.1919    2.6865    0.4870 N   0  0  0  0  0  0  0  0  0  0  0  0
   -0.0380    3.3679    1.4773 O   0  0  0  0  0  0  0  0  0  0  0  0
    1.0194    2.9295   -0.3827 O   0  0  0  0  0  0  0  0  0  0  0  0
   -0.2415    0.5673   -0.7074 C   0  0  0  0  0  0  0  0  0  0  0  0
   -0.9231   -0.6214   -0.8380 C   0  0  0  0  0  0  0  0  0  0  0  0
   -3.0370   -0.3042    1.8915 H   0  0  0  0  0  0  0  0  0  0  0  0
   -1.7528    1.8460    2.0899 H   0  0  0  0  0  0  0  0  0  0  0  0
    0.5101    0.8765   -1.4218 H   0  0  0  0  0  0  0  0  0  0  0  0
   -0.7315   -1.3063   -1.6552 H   0  0  0  0  0  0  0  0  0  0  0  0
   -3.4042    2.3062   -0.9186 B   0  0  0  0  0  0  0  0  0  0  0  0
   -4.2660    3.0696   -1.6684 F   0  0  0  0  0  0  0  0  0  0  0  0
   -3.3195    0.9735   -1.4084 F   0  0  0  0  0  0  0  0  0  0  0  0
   -2.0848    2.8643   -0.9666 F   0  0  0  0  0  0  0  0  0  0  0  0
   -3.8005    2.2437    0.4379 F   0  0  0  0  0  0  0  0  0  0  0  0
  1  4  2  0  0  0  0
  2  1  1  0  0  0  0
  3  2  1  0  0  0  0
  4  5  1  0  0  0  0
  4 12  1  0  0  0  0
  5 13  1  0  0  0  0
  6  7  1  0  0  0  0
  6  5  2  0  0  0  0
  7  8  2  0  0  0  0
  9  7  2  0  0  0  0
 10  6  1  0  0  0  0
 11 10  2  0  0  0  0
 11  1  1  0  0  0  0
 14 10  1  0  0  0  0
 15 11  1  0  0  0  0
 16 20  1  0  0  0  0
 17 16  1  0  0  0  0
 18 16  1  0  0  0  0
 19 16  1  0  0  0  0
M  RAD  2   2   2   3   3
M  END
