Coordinates from ORCA-job 4-NO2PhN2+~BF4-_B3LYPG-6-31G_dp-NX-Scan-d89-09-n800
 OpenBabel11261920323D

 20 19  0  0  0  0  0  0  0  0999 V2000
   -2.1345    0.2215    0.3572 C   0  0  0  0  0  0  0  0  0  0  0  0
   -3.3169   -0.4726    0.0976 N   0  0  0  0  0  0  0  0  0  0  0  0
   -4.2200   -1.1168    0.0426 N   0  0  0  0  0  0  0  0  0  0  0  0
   -1.7729    0.3323    1.7099 C   0  0  0  0  0  0  0  0  0  0  0  0
   -0.5876    0.9902    2.0049 C   0  0  0  0  0  0  0  0  0  0  0  0
    0.1750    1.4932    0.9503 C   0  0  0  0  0  0  0  0  0  0  0  0
    1.4447    2.1903    1.2773 N   0  0  0  0  0  0  0  0  0  0  0  0
    1.7423    2.2761    2.4647 O   0  0  0  0  0  0  0  0  0  0  0  0
    2.1006    2.6243    0.3378 O   0  0  0  0  0  0  0  0  0  0  0  0
   -0.1932    1.3726   -0.3877 C   0  0  0  0  0  0  0  0  0  0  0  0
   -1.3816    0.7261   -0.7101 C   0  0  0  0  0  0  0  0  0  0  0  0
   -2.4029   -0.0744    2.4922 H   0  0  0  0  0  0  0  0  0  0  0  0
   -0.2468    1.1183    3.0242 H   0  0  0  0  0  0  0  0  0  0  0  0
    0.4423    1.7903   -1.1581 H   0  0  0  0  0  0  0  0  0  0  0  0
   -1.7527    0.5917   -1.7219 H   0  0  0  0  0  0  0  0  0  0  0  0
   -4.3938    0.8006   -2.3282 B   0  0  0  0  0  0  0  0  0  0  0  0
   -5.5538    0.0874   -2.0290 F   0  0  0  0  0  0  0  0  0  0  0  0
   -3.3289   -0.1534   -2.5298 F   0  0  0  0  0  0  0  0  0  0  0  0
   -4.5158    1.6276   -3.4106 F   0  0  0  0  0  0  0  0  0  0  0  0
   -4.0101    1.5407   -1.1576 F   0  0  0  0  0  0  0  0  0  0  0  0
  1  4  2  0  0  0  0
  2  1  1  0  0  0  0
  3  2  1  0  0  0  0
  4  5  1  0  0  0  0
  4 12  1  0  0  0  0
  5 13  1  0  0  0  0
  6  7  1  0  0  0  0
  6  5  2  0  0  0  0
  7  8  2  0  0  0  0
  9  7  2  0  0  0  0
 10  6  1  0  0  0  0
 11 10  2  0  0  0  0
 11  1  1  0  0  0  0
 14 10  1  0  0  0  0
 15 11  1  0  0  0  0
 16 17  1  0  0  0  0
 16 20  1  0  0  0  0
 18 16  1  0  0  0  0
 19 16  1  0  0  0  0
M  RAD  2   2   2   3   3
M  END
