Coordinates from ORCA-job 4-NO2PhN2+~BF4-_B3LYPG-6-31G_dp-NX-Scan-d89-09-n800
 OpenBabel11261920323D

 20 19  0  0  0  0  0  0  0  0999 V2000
   -1.9441   -0.4606   -0.0071 C   0  0  0  0  0  0  0  0  0  0  0  0
   -2.8464   -1.4626   -0.2887 N   0  0  0  0  0  0  0  0  0  0  0  0
   -3.4994   -2.3446   -0.4764 N   0  0  0  0  0  0  0  0  0  0  0  0
   -2.1923    0.3545    1.1071 C   0  0  0  0  0  0  0  0  0  0  0  0
   -1.2605    1.3482    1.3813 C   0  0  0  0  0  0  0  0  0  0  0  0
   -0.1670    1.4940    0.5367 C   0  0  0  0  0  0  0  0  0  0  0  0
    0.8199    2.5596    0.8417 N   0  0  0  0  0  0  0  0  0  0  0  0
    0.6193    3.2370    1.8435 O   0  0  0  0  0  0  0  0  0  0  0  0
    1.7703    2.6749    0.0743 O   0  0  0  0  0  0  0  0  0  0  0  0
    0.0553    0.6972   -0.5890 C   0  0  0  0  0  0  0  0  0  0  0  0
   -0.8521   -0.3039   -0.8799 C   0  0  0  0  0  0  0  0  0  0  0  0
   -3.0884    0.2338    1.6974 H   0  0  0  0  0  0  0  0  0  0  0  0
   -1.3900    2.0207    2.2189 H   0  0  0  0  0  0  0  0  0  0  0  0
    0.9182    0.8814   -1.2152 H   0  0  0  0  0  0  0  0  0  0  0  0
   -0.7434   -0.9368   -1.7521 H   0  0  0  0  0  0  0  0  0  0  0  0
   -4.0380    1.6296   -1.0515 B   0  0  0  0  0  0  0  0  0  0  0  0
   -4.9318    2.3970   -1.7536 F   0  0  0  0  0  0  0  0  0  0  0  0
   -4.2330    0.2284   -1.3304 F   0  0  0  0  0  0  0  0  0  0  0  0
   -2.7019    1.9338   -1.3821 F   0  0  0  0  0  0  0  0  0  0  0  0
   -4.2013    1.7842    0.3510 F   0  0  0  0  0  0  0  0  0  0  0  0
  1  4  2  0  0  0  0
  2  1  1  0  0  0  0
  3  2  1  0  0  0  0
  4  5  1  0  0  0  0
  4 12  1  0  0  0  0
  5 13  1  0  0  0  0
  6  7  1  0  0  0  0
  6  5  2  0  0  0  0
  7  8  2  0  0  0  0
  9  7  2  0  0  0  0
 10  6  1  0  0  0  0
 11 10  2  0  0  0  0
 11  1  1  0  0  0  0
 14 10  1  0  0  0  0
 15 11  1  0  0  0  0
 16 20  1  0  0  0  0
 17 16  1  0  0  0  0
 18 16  1  0  0  0  0
 19 16  1  0  0  0  0
M  RAD  2   2   2   3   3
M  END
