Coordinates from ORCA-job 4-NO2PhN2+~BF4-_B3LYPG-6-31G_dp-NX-Scan-d89-09-n800
 OpenBabel11261920323D

 20 19  0  0  0  0  0  0  0  0999 V2000
   -2.1933    0.2306    0.4644 C   0  0  0  0  0  0  0  0  0  0  0  0
   -3.3832   -0.4715    0.2957 N   0  0  0  0  0  0  0  0  0  0  0  0
   -4.3084   -1.0762    0.2093 N   0  0  0  0  0  0  0  0  0  0  0  0
   -1.6735    0.2375    1.7712 C   0  0  0  0  0  0  0  0  0  0  0  0
   -0.4788    0.9052    1.9904 C   0  0  0  0  0  0  0  0  0  0  0  0
    0.1397    1.5288    0.9063 C   0  0  0  0  0  0  0  0  0  0  0  0
    1.4211    2.2403    1.1480 N   0  0  0  0  0  0  0  0  0  0  0  0
    1.8527    2.2314    2.2968 O   0  0  0  0  0  0  0  0  0  0  0  0
    1.9505    2.7798    0.1842 O   0  0  0  0  0  0  0  0  0  0  0  0
   -0.3841    1.5172   -0.3835 C   0  0  0  0  0  0  0  0  0  0  0  0
   -1.5827    0.8551   -0.6342 C   0  0  0  0  0  0  0  0  0  0  0  0
   -2.1963   -0.2610    2.5792 H   0  0  0  0  0  0  0  0  0  0  0  0
   -0.0232    0.9516    2.9711 H   0  0  0  0  0  0  0  0  0  0  0  0
    0.1411    2.0271   -1.1813 H   0  0  0  0  0  0  0  0  0  0  0  0
   -2.0307    0.8380   -1.6234 H   0  0  0  0  0  0  0  0  0  0  0  0
   -4.2653    0.7018   -2.3711 B   0  0  0  0  0  0  0  0  0  0  0  0
   -5.4817    0.5533   -2.9739 F   0  0  0  0  0  0  0  0  0  0  0  0
   -3.6465   -0.5825   -2.1717 F   0  0  0  0  0  0  0  0  0  0  0  0
   -3.3479    1.4833   -3.0846 F   0  0  0  0  0  0  0  0  0  0  0  0
   -4.4158    1.2763   -1.0669 F   0  0  0  0  0  0  0  0  0  0  0  0
  1  4  2  0  0  0  0
  2  1  1  0  0  0  0
  3  2  1  0  0  0  0
  4  5  1  0  0  0  0
  4 12  1  0  0  0  0
  5 13  1  0  0  0  0
  6  7  1  0  0  0  0
  6  5  2  0  0  0  0
  7  8  2  0  0  0  0
  9  7  2  0  0  0  0
 10  6  1  0  0  0  0
 11 10  2  0  0  0  0
 11  1  1  0  0  0  0
 14 10  1  0  0  0  0
 15 11  1  0  0  0  0
 16 18  1  0  0  0  0
 16 20  1  0  0  0  0
 17 16  1  0  0  0  0
 19 16  1  0  0  0  0
M  RAD  2   2   2   3   3
M  END
