Coordinates from ORCA-job 4-NO2PhN2+~BF4-_B3LYPG-6-31G_dp-NX-Scan-d89-09-n800
 OpenBabel11261920313D

 20 19  0  0  0  0  0  0  0  0999 V2000
   -1.8863   -1.0378    0.1378 C   0  0  0  0  0  0  0  0  0  0  0  0
   -2.4040   -2.2954    0.1184 N   0  0  0  0  0  0  0  0  0  0  0  0
   -2.7830   -3.3518    0.1267 N   0  0  0  0  0  0  0  0  0  0  0  0
   -2.2829   -0.1604    1.1742 C   0  0  0  0  0  0  0  0  0  0  0  0
   -1.6625    1.0702    1.2492 C   0  0  0  0  0  0  0  0  0  0  0  0
   -0.7071    1.3987    0.2834 C   0  0  0  0  0  0  0  0  0  0  0  0
    0.0745    2.6499    0.4669 N   0  0  0  0  0  0  0  0  0  0  0  0
   -0.1737    3.3132    1.4641 O   0  0  0  0  0  0  0  0  0  0  0  0
    0.9415    2.8856   -0.3647 O   0  0  0  0  0  0  0  0  0  0  0  0
   -0.3399    0.5433   -0.7628 C   0  0  0  0  0  0  0  0  0  0  0  0
   -0.9367   -0.6933   -0.8569 C   0  0  0  0  0  0  0  0  0  0  0  0
   -3.0442   -0.4545    1.8870 H   0  0  0  0  0  0  0  0  0  0  0  0
   -1.9294    1.7982    2.0009 H   0  0  0  0  0  0  0  0  0  0  0  0
    0.3958    0.8790   -1.4820 H   0  0  0  0  0  0  0  0  0  0  0  0
   -0.6860   -1.3919   -1.6464 H   0  0  0  0  0  0  0  0  0  0  0  0
   -3.3366    2.5739   -0.9065 B   0  0  0  0  0  0  0  0  0  0  0  0
   -4.1010    3.4305   -1.6653 F   0  0  0  0  0  0  0  0  0  0  0  0
   -3.4710    1.2211   -1.2959 F   0  0  0  0  0  0  0  0  0  0  0  0
   -1.9397    2.9143   -1.0696 F   0  0  0  0  0  0  0  0  0  0  0  0
   -3.6340    2.6733    0.4673 F   0  0  0  0  0  0  0  0  0  0  0  0
  1  4  2  0  0  0  0
  2  3  1  0  0  0  0
  2  1  1  0  0  0  0
  4  5  1  0  0  0  0
  4 12  1  0  0  0  0
  5 13  1  0  0  0  0
  6  7  1  0  0  0  0
  6  5  2  0  0  0  0
  7  8  2  0  0  0  0
  9  7  2  0  0  0  0
 10  6  1  0  0  0  0
 11 10  2  0  0  0  0
 11  1  1  0  0  0  0
 14 10  1  0  0  0  0
 15 11  1  0  0  0  0
 16 20  1  0  0  0  0
 17 16  1  0  0  0  0
 18 16  1  0  0  0  0
 19 16  1  0  0  0  0
M  RAD  2   2   2   3   3
M  END
