Coordinates from ORCA-job 4-NO2PhN2+~BF4-_B3LYPG-6-31G_dp-NX-Scan-d89-09-n800
 OpenBabel11261920313D

 20 19  0  0  0  0  0  0  0  0999 V2000
   -1.5620   -1.4176    0.1978 C   0  0  0  0  0  0  0  0  0  0  0  0
   -1.9165   -2.7294    0.3327 N   0  0  0  0  0  0  0  0  0  0  0  0
   -2.1765   -3.8135    0.4524 N   0  0  0  0  0  0  0  0  0  0  0  0
   -2.3683   -0.4139    0.7968 C   0  0  0  0  0  0  0  0  0  0  0  0
   -1.9461    0.9010    0.7122 C   0  0  0  0  0  0  0  0  0  0  0  0
   -0.7513    1.1643    0.0306 C   0  0  0  0  0  0  0  0  0  0  0  0
   -0.1813    2.5324    0.0628 N   0  0  0  0  0  0  0  0  0  0  0  0
   -0.3993    3.1746    1.0767 O   0  0  0  0  0  0  0  0  0  0  0  0
    0.5295    2.8496   -0.8819 O   0  0  0  0  0  0  0  0  0  0  0  0
    0.0156    0.1830   -0.6076 C   0  0  0  0  0  0  0  0  0  0  0  0
   -0.3769   -1.1392   -0.5239 C   0  0  0  0  0  0  0  0  0  0  0  0
   -3.2926   -0.6755    1.2996 H   0  0  0  0  0  0  0  0  0  0  0  0
   -2.5475    1.7359    1.0946 H   0  0  0  0  0  0  0  0  0  0  0  0
    0.9065    0.4761   -1.1495 H   0  0  0  0  0  0  0  0  0  0  0  0
    0.1986   -1.9376   -0.9776 H   0  0  0  0  0  0  0  0  0  0  0  0
   -3.6362    3.4433   -0.5353 B   0  0  0  0  0  0  0  0  0  0  0  0
   -3.6691    4.8053   -0.7543 F   0  0  0  0  0  0  0  0  0  0  0  0
   -4.7169    2.7744   -1.0915 F   0  0  0  0  0  0  0  0  0  0  0  0
   -2.4228    2.8834   -1.0848 F   0  0  0  0  0  0  0  0  0  0  0  0
   -3.5934    3.1695    0.8761 F   0  0  0  0  0  0  0  0  0  0  0  0
  1  2  1  0  0  0  0
  1  4  2  0  0  0  0
  2  3  1  0  0  0  0
  4 12  1  0  0  0  0
  5  4  1  0  0  0  0
  5 13  1  0  0  0  0
  6  7  1  0  0  0  0
  6  5  2  0  0  0  0
  7  8  2  0  0  0  0
  9  7  2  0  0  0  0
 10 11  2  0  0  0  0
 10  6  1  0  0  0  0
 11  1  1  0  0  0  0
 14 10  1  0  0  0  0
 15 11  1  0  0  0  0
 16 20  1  0  0  0  0
 17 16  1  0  0  0  0
 18 16  1  0  0  0  0
 19 16  1  0  0  0  0
M  RAD  2   2   2   3   3
M  END
