Coordinates from ORCA-job 4-NO2PhN2+~BF4-_B3LYPG-6-31G_dp-NX-Scan-d89-09-n800
 OpenBabel11261920323D

 20 19  0  0  0  0  0  0  0  0999 V2000
   -1.9285   -0.6219   -0.0144 C   0  0  0  0  0  0  0  0  0  0  0  0
   -2.6895   -1.7458   -0.2064 N   0  0  0  0  0  0  0  0  0  0  0  0
   -3.2222   -2.7204   -0.3277 N   0  0  0  0  0  0  0  0  0  0  0  0
   -2.2570    0.2344    1.0503 C   0  0  0  0  0  0  0  0  0  0  0  0
   -1.3961    1.2990    1.2929 C   0  0  0  0  0  0  0  0  0  0  0  0
   -0.2924    1.4679    0.4710 C   0  0  0  0  0  0  0  0  0  0  0  0
    0.6190    2.6053    0.7441 N   0  0  0  0  0  0  0  0  0  0  0  0
    0.3657    3.3026    1.7194 O   0  0  0  0  0  0  0  0  0  0  0  0
    1.5692    2.7520   -0.0185 O   0  0  0  0  0  0  0  0  0  0  0  0
    0.0061    0.6359   -0.6147 C   0  0  0  0  0  0  0  0  0  0  0  0
   -0.8221   -0.4343   -0.8745 C   0  0  0  0  0  0  0  0  0  0  0  0
   -3.1555    0.0876    1.6316 H   0  0  0  0  0  0  0  0  0  0  0  0
   -1.6040    2.0126    2.0782 H   0  0  0  0  0  0  0  0  0  0  0  0
    0.8693    0.8491   -1.2312 H   0  0  0  0  0  0  0  0  0  0  0  0
   -0.6441   -1.1092   -1.7030 H   0  0  0  0  0  0  0  0  0  0  0  0
   -3.8847    1.8933   -0.9610 B   0  0  0  0  0  0  0  0  0  0  0  0
   -4.6889    2.8319   -1.5731 F   0  0  0  0  0  0  0  0  0  0  0  0
   -4.2526    0.5522   -1.2684 F   0  0  0  0  0  0  0  0  0  0  0  0
   -2.5301    2.0546   -1.3326 F   0  0  0  0  0  0  0  0  0  0  0  0
   -3.9681    2.0194    0.4639 F   0  0  0  0  0  0  0  0  0  0  0  0
  1  4  2  0  0  0  0
  2  1  1  0  0  0  0
  3  2  1  0  0  0  0
  4  5  1  0  0  0  0
  4 12  1  0  0  0  0
  5 13  1  0  0  0  0
  6  7  1  0  0  0  0
  6  5  2  0  0  0  0
  7  8  2  0  0  0  0
  9  7  2  0  0  0  0
 10  6  1  0  0  0  0
 11 10  2  0  0  0  0
 11  1  1  0  0  0  0
 14 10  1  0  0  0  0
 15 11  1  0  0  0  0
 16 20  1  0  0  0  0
 17 16  1  0  0  0  0
 18 16  1  0  0  0  0
 19 16  1  0  0  0  0
M  RAD  2   2   2   3   3
M  END
