Coordinates from ORCA-job 4-NO2PhN2+~BF4-_B3LYPG-6-31G_dp-NX-Scan-d89-09-n800
 OpenBabel11261920313D

 20 19  0  0  0  0  0  0  0  0999 V2000
   -1.6152   -1.3627    0.1691 C   0  0  0  0  0  0  0  0  0  0  0  0
   -2.0017   -2.6672    0.2728 N   0  0  0  0  0  0  0  0  0  0  0  0
   -2.2906   -3.7463    0.3690 N   0  0  0  0  0  0  0  0  0  0  0  0
   -2.3740   -0.3604    0.8290 C   0  0  0  0  0  0  0  0  0  0  0  0
   -1.9130    0.9418    0.7803 C   0  0  0  0  0  0  0  0  0  0  0  0
   -0.7357    1.1994    0.0676 C   0  0  0  0  0  0  0  0  0  0  0  0
   -0.1262    2.5500    0.1395 N   0  0  0  0  0  0  0  0  0  0  0  0
   -0.3545    3.1851    1.1559 O   0  0  0  0  0  0  0  0  0  0  0  0
    0.6181    2.8635   -0.7807 O   0  0  0  0  0  0  0  0  0  0  0  0
   -0.0171    0.2220   -0.6295 C   0  0  0  0  0  0  0  0  0  0  0  0
   -0.4457   -1.0904   -0.5804 C   0  0  0  0  0  0  0  0  0  0  0  0
   -3.2925   -0.6130    1.3464 H   0  0  0  0  0  0  0  0  0  0  0  0
   -2.4771    1.7801    1.2018 H   0  0  0  0  0  0  0  0  0  0  0  0
    0.8650    0.5108   -1.1876 H   0  0  0  0  0  0  0  0  0  0  0  0
    0.0922   -1.8879   -1.0796 H   0  0  0  0  0  0  0  0  0  0  0  0
   -3.6003    3.3114   -0.5664 B   0  0  0  0  0  0  0  0  0  0  0  0
   -3.8826    4.5973   -0.9734 F   0  0  0  0  0  0  0  0  0  0  0  0
   -4.5452    2.3787   -0.9838 F   0  0  0  0  0  0  0  0  0  0  0  0
   -2.3150    2.9026   -1.0860 F   0  0  0  0  0  0  0  0  0  0  0  0
   -3.4955    3.2515    0.8618 F   0  0  0  0  0  0  0  0  0  0  0  0
  1  2  1  0  0  0  0
  1  4  2  0  0  0  0
  2  3  1  0  0  0  0
  4 12  1  0  0  0  0
  5  4  1  0  0  0  0
  5 13  1  0  0  0  0
  6  7  1  0  0  0  0
  6  5  2  0  0  0  0
  7  8  2  0  0  0  0
  9  7  2  0  0  0  0
 10 11  2  0  0  0  0
 10  6  1  0  0  0  0
 11  1  1  0  0  0  0
 14 10  1  0  0  0  0
 15 11  1  0  0  0  0
 16 20  1  0  0  0  0
 17 16  1  0  0  0  0
 18 16  1  0  0  0  0
 19 16  1  0  0  0  0
M  RAD  2   2   2   3   3
M  END
