Coordinates from ORCA-job 4-NO2PhN2+~BF4-_B3LYPG-6-31G_dp-NX-Scan-d89-09-n800
 OpenBabel11261920323D

 20 19  0  0  0  0  0  0  0  0999 V2000
   -2.1864    0.2066    0.4537 C   0  0  0  0  0  0  0  0  0  0  0  0
   -3.3666   -0.5145    0.2907 N   0  0  0  0  0  0  0  0  0  0  0  0
   -4.2742   -1.1508    0.2646 N   0  0  0  0  0  0  0  0  0  0  0  0
   -1.6794    0.2396    1.7659 C   0  0  0  0  0  0  0  0  0  0  0  0
   -0.4927    0.9210    1.9841 C   0  0  0  0  0  0  0  0  0  0  0  0
    0.1314    1.5308    0.8950 C   0  0  0  0  0  0  0  0  0  0  0  0
    1.4043    2.2572    1.1370 N   0  0  0  0  0  0  0  0  0  0  0  0
    1.8244    2.2719    2.2900 O   0  0  0  0  0  0  0  0  0  0  0  0
    1.9390    2.7842    0.1692 O   0  0  0  0  0  0  0  0  0  0  0  0
   -0.3802    1.4929   -0.3989 C   0  0  0  0  0  0  0  0  0  0  0  0
   -1.5714    0.8163   -0.6488 C   0  0  0  0  0  0  0  0  0  0  0  0
   -2.2057   -0.2493    2.5775 H   0  0  0  0  0  0  0  0  0  0  0  0
   -0.0471    0.9883    2.9682 H   0  0  0  0  0  0  0  0  0  0  0  0
    0.1469    1.9948   -1.2005 H   0  0  0  0  0  0  0  0  0  0  0  0
   -2.0150    0.7873   -1.6408 H   0  0  0  0  0  0  0  0  0  0  0  0
   -4.2618    0.7325   -2.3517 B   0  0  0  0  0  0  0  0  0  0  0  0
   -5.4493    0.6819   -3.0238 F   0  0  0  0  0  0  0  0  0  0  0  0
   -3.7084   -0.5824   -2.1795 F   0  0  0  0  0  0  0  0  0  0  0  0
   -3.2768    1.5016   -2.9958 F   0  0  0  0  0  0  0  0  0  0  0  0
   -4.4374    1.2561   -1.0302 F   0  0  0  0  0  0  0  0  0  0  0  0
  1  4  2  0  0  0  0
  2  1  1  0  0  0  0
  3  2  1  0  0  0  0
  4  5  1  0  0  0  0
  4 12  1  0  0  0  0
  5 13  1  0  0  0  0
  6  7  1  0  0  0  0
  6  5  2  0  0  0  0
  7  8  2  0  0  0  0
  9  7  2  0  0  0  0
 10  6  1  0  0  0  0
 11 10  2  0  0  0  0
 11  1  1  0  0  0  0
 14 10  1  0  0  0  0
 15 11  1  0  0  0  0
 16 18  1  0  0  0  0
 16 20  1  0  0  0  0
 17 16  1  0  0  0  0
 19 16  1  0  0  0  0
M  RAD  2   2   2   3   3
M  END
