Coordinates from ORCA-job 4-NO2PhN2+~BF4-_B3LYPG-6-31G_dp-NX-Scan-d89-09-n800
 OpenBabel11261920323D

 20 19  0  0  0  0  0  0  0  0999 V2000
   -2.1422    0.1631    0.3794 C   0  0  0  0  0  0  0  0  0  0  0  0
   -3.3079   -0.5744    0.1624 N   0  0  0  0  0  0  0  0  0  0  0  0
   -4.1814   -1.2583    0.1554 N   0  0  0  0  0  0  0  0  0  0  0  0
   -1.7503    0.2963    1.7216 C   0  0  0  0  0  0  0  0  0  0  0  0
   -0.5794    0.9931    1.9830 C   0  0  0  0  0  0  0  0  0  0  0  0
    0.1402    1.5130    0.9071 C   0  0  0  0  0  0  0  0  0  0  0  0
    1.3949    2.2521    1.1980 N   0  0  0  0  0  0  0  0  0  0  0  0
    1.7170    2.3582    2.3774 O   0  0  0  0  0  0  0  0  0  0  0  0
    2.0151    2.6967    0.2396 O   0  0  0  0  0  0  0  0  0  0  0  0
   -0.2585    1.3727   -0.4204 C   0  0  0  0  0  0  0  0  0  0  0  0
   -1.4323    0.6857   -0.7088 C   0  0  0  0  0  0  0  0  0  0  0  0
   -2.3475   -0.1238    2.5223 H   0  0  0  0  0  0  0  0  0  0  0  0
   -0.2182    1.1389    2.9928 H   0  0  0  0  0  0  0  0  0  0  0  0
    0.3413    1.8072   -1.2099 H   0  0  0  0  0  0  0  0  0  0  0  0
   -1.8200    0.5378   -1.7112 H   0  0  0  0  0  0  0  0  0  0  0  0
   -4.3317    0.8462   -2.2913 B   0  0  0  0  0  0  0  0  0  0  0  0
   -5.6329    0.4598   -2.5043 F   0  0  0  0  0  0  0  0  0  0  0  0
   -3.4755   -0.3288   -2.3149 F   0  0  0  0  0  0  0  0  0  0  0  0
   -3.8463    1.7632   -3.1973 F   0  0  0  0  0  0  0  0  0  0  0  0
   -4.1910    1.3676   -0.9550 F   0  0  0  0  0  0  0  0  0  0  0  0
  1  4  2  0  0  0  0
  2  1  1  0  0  0  0
  3  2  1  0  0  0  0
  4  5  1  0  0  0  0
  4 12  1  0  0  0  0
  5 13  1  0  0  0  0
  6  7  1  0  0  0  0
  6  5  2  0  0  0  0
  7  8  2  0  0  0  0
  9  7  2  0  0  0  0
 10  6  1  0  0  0  0
 11 10  2  0  0  0  0
 11  1  1  0  0  0  0
 14 10  1  0  0  0  0
 15 11  1  0  0  0  0
 16 20  1  0  0  0  0
 17 16  1  0  0  0  0
 18 16  1  0  0  0  0
 19 16  1  0  0  0  0
M  RAD  2   2   2   3   3
M  END
