Coordinates from ORCA-job 4-NO2PhN2+~BF4-_B3LYPG-6-31G_dp-NX-Scan-d89-09-n800
 OpenBabel11261920323D

 20 19  0  0  0  0  0  0  0  0999 V2000
   -2.2722    0.2674    0.5712 C   0  0  0  0  0  0  0  0  0  0  0  0
   -3.5244   -0.3327    0.4183 N   0  0  0  0  0  0  0  0  0  0  0  0
   -4.4025   -0.7319   -0.1834 N   0  0  0  0  0  0  0  0  0  0  0  0
   -1.8094    0.4203    1.8863 C   0  0  0  0  0  0  0  0  0  0  0  0
   -0.5648    1.0001    2.0878 C   0  0  0  0  0  0  0  0  0  0  0  0
    0.1649    1.3998    0.9689 C   0  0  0  0  0  0  0  0  0  0  0  0
    1.4966    2.0172    1.1841 N   0  0  0  0  0  0  0  0  0  0  0  0
    1.8727    2.1417    2.3460 O   0  0  0  0  0  0  0  0  0  0  0  0
    2.1246    2.3559    0.1872 O   0  0  0  0  0  0  0  0  0  0  0  0
   -0.2963    1.2483   -0.3370 C   0  0  0  0  0  0  0  0  0  0  0  0
   -1.5428    0.6707   -0.5585 C   0  0  0  0  0  0  0  0  0  0  0  0
   -2.4199    0.0915    2.7192 H   0  0  0  0  0  0  0  0  0  0  0  0
   -0.1541    1.1467    3.0783 H   0  0  0  0  0  0  0  0  0  0  0  0
    0.3149    1.5866   -1.1642 H   0  0  0  0  0  0  0  0  0  0  0  0
   -1.9366    0.5595   -1.5629 H   0  0  0  0  0  0  0  0  0  0  0  0
   -4.2221    0.9108   -2.5102 B   0  0  0  0  0  0  0  0  0  0  0  0
   -4.0818   -0.5274   -1.9644 F   0  0  0  0  0  0  0  0  0  0  0  0
   -3.0280    1.1101   -3.1869 F   0  0  0  0  0  0  0  0  0  0  0  0
   -5.3294    0.9400   -3.2897 F   0  0  0  0  0  0  0  0  0  0  0  0
   -4.2960    1.6916   -1.3644 F   0  0  0  0  0  0  0  0  0  0  0  0
  1  4  2  0  0  0  0
  2  1  1  0  0  0  0
  3  2  2  0  0  0  0
  4  5  1  0  0  0  0
  4 12  1  0  0  0  0
  5 13  1  0  0  0  0
  6  7  1  0  0  0  0
  6  5  2  0  0  0  0
  7  8  2  0  0  0  0
  9  7  2  0  0  0  0
 10  6  1  0  0  0  0
 11 10  2  0  0  0  0
 11  1  1  0  0  0  0
 14 10  1  0  0  0  0
 15 11  1  0  0  0  0
 16 17  1  0  0  0  0
 16 20  1  0  0  0  0
 18 16  1  0  0  0  0
 19 16  1  0  0  0  0
M  RAD  1   3   2
M  END
