Coordinates from ORCA-job 4-NO2PhN2+~BF4-_B3LYPG-6-31G_dp-NX-Scan-d89-09-n800
 OpenBabel11261920313D

 20 19  0  0  0  0  0  0  0  0999 V2000
   -1.8161   -1.1361    0.1317 C   0  0  0  0  0  0  0  0  0  0  0  0
   -2.2804   -2.4145    0.1411 N   0  0  0  0  0  0  0  0  0  0  0  0
   -2.6227   -3.4836    0.1674 N   0  0  0  0  0  0  0  0  0  0  0  0
   -2.3207   -0.2208    1.0876 C   0  0  0  0  0  0  0  0  0  0  0  0
   -1.7481    1.0330    1.1473 C   0  0  0  0  0  0  0  0  0  0  0  0
   -0.7465    1.3573    0.2267 C   0  0  0  0  0  0  0  0  0  0  0  0
   -0.0077    2.6362    0.4073 N   0  0  0  0  0  0  0  0  0  0  0  0
   -0.2907    3.2975    1.3949 O   0  0  0  0  0  0  0  0  0  0  0  0
    0.8653    2.8879   -0.4137 O   0  0  0  0  0  0  0  0  0  0  0  0
   -0.2734    0.4647   -0.7455 C   0  0  0  0  0  0  0  0  0  0  0  0
   -0.8068   -0.8027   -0.8084 C   0  0  0  0  0  0  0  0  0  0  0  0
   -3.1243   -0.5071    1.7560 H   0  0  0  0  0  0  0  0  0  0  0  0
   -2.1129    1.7973    1.8182 H   0  0  0  0  0  0  0  0  0  0  0  0
    0.5000    0.7934   -1.4278 H   0  0  0  0  0  0  0  0  0  0  0  0
   -0.4651   -1.5324   -1.5332 H   0  0  0  0  0  0  0  0  0  0  0  0
   -3.3740    2.7739   -0.8138 B   0  0  0  0  0  0  0  0  0  0  0  0
   -4.0578    3.7005   -1.5661 F   0  0  0  0  0  0  0  0  0  0  0  0
   -3.8192    1.4541   -1.0170 F   0  0  0  0  0  0  0  0  0  0  0  0
   -1.9697    2.7983   -1.1899 F   0  0  0  0  0  0  0  0  0  0  0  0
   -3.4356    3.0693    0.5632 F   0  0  0  0  0  0  0  0  0  0  0  0
  1  2  1  0  0  0  0
  1  4  2  0  0  0  0
  2  3  1  0  0  0  0
  4  5  1  0  0  0  0
  4 12  1  0  0  0  0
  5 13  1  0  0  0  0
  6  7  1  0  0  0  0
  6  5  2  0  0  0  0
  7  8  2  0  0  0  0
  9  7  2  0  0  0  0
 10  6  1  0  0  0  0
 11 10  2  0  0  0  0
 11  1  1  0  0  0  0
 14 10  1  0  0  0  0
 15 11  1  0  0  0  0
 16 20  1  0  0  0  0
 17 16  1  0  0  0  0
 18 16  1  0  0  0  0
 19 16  1  0  0  0  0
M  RAD  2   2   2   3   3
M  END
