Coordinates from ORCA-job 4-NO2PhN2+~BF4-_B3LYPG-6-31G_dp-NX-Scan-d89-09-n800
 OpenBabel11261920323D

 20 19  0  0  0  0  0  0  0  0999 V2000
   -1.9455   -0.7861    0.1197 C   0  0  0  0  0  0  0  0  0  0  0  0
   -2.7203   -1.8925   -0.0417 N   0  0  0  0  0  0  0  0  0  0  0  0
   -3.3299   -2.8234   -0.1632 N   0  0  0  0  0  0  0  0  0  0  0  0
   -2.2259    0.0675    1.2058 C   0  0  0  0  0  0  0  0  0  0  0  0
   -1.4242    1.1861    1.3575 C   0  0  0  0  0  0  0  0  0  0  0  0
   -0.4448    1.4361    0.4052 C   0  0  0  0  0  0  0  0  0  0  0  0
    0.3697    2.6671    0.5476 N   0  0  0  0  0  0  0  0  0  0  0  0
    0.1674    3.3568    1.5391 O   0  0  0  0  0  0  0  0  0  0  0  0
    1.1998    2.8867   -0.3274 O   0  0  0  0  0  0  0  0  0  0  0  0
   -0.1679    0.5903   -0.6748 C   0  0  0  0  0  0  0  0  0  0  0  0
   -0.9318   -0.5432   -0.8375 C   0  0  0  0  0  0  0  0  0  0  0  0
   -3.0496   -0.1360    1.8763 H   0  0  0  0  0  0  0  0  0  0  0  0
   -1.6054    1.9048    2.1447 H   0  0  0  0  0  0  0  0  0  0  0  0
    0.6064    0.8626   -1.3796 H   0  0  0  0  0  0  0  0  0  0  0  0
   -0.7892   -1.2165   -1.6737 H   0  0  0  0  0  0  0  0  0  0  0  0
   -3.5422    2.1013   -0.9737 B   0  0  0  0  0  0  0  0  0  0  0  0
   -4.4631    2.8774   -1.6374 F   0  0  0  0  0  0  0  0  0  0  0  0
   -3.3067    0.8690   -1.6472 F   0  0  0  0  0  0  0  0  0  0  0  0
   -2.3043    2.7854   -0.8520 F   0  0  0  0  0  0  0  0  0  0  0  0
   -3.9990    1.7726    0.3382 F   0  0  0  0  0  0  0  0  0  0  0  0
  1  4  2  0  0  0  0
  2  1  1  0  0  0  0
  3  2  1  0  0  0  0
  4  5  1  0  0  0  0
  4 12  1  0  0  0  0
  5 13  1  0  0  0  0
  6  7  1  0  0  0  0
  6  5  2  0  0  0  0
  7  8  2  0  0  0  0
  9  7  2  0  0  0  0
 10  6  1  0  0  0  0
 11 10  2  0  0  0  0
 11  1  1  0  0  0  0
 14 10  1  0  0  0  0
 15 11  1  0  0  0  0
 16 19  1  0  0  0  0
 16 20  1  0  0  0  0
 17 16  1  0  0  0  0
 18 16  1  0  0  0  0
M  RAD  2   2   2   3   3
M  END
