Coordinates from ORCA-job 4-NO2PhN2+~BF4-_B3LYPG-6-31G_dp-NX-Scan-d89-09-n800
 OpenBabel11261920323D

 20 19  0  0  0  0  0  0  0  0999 V2000
   -2.2675    0.1906    0.5661 C   0  0  0  0  0  0  0  0  0  0  0  0
   -3.5275   -0.4352    0.4919 N   0  0  0  0  0  0  0  0  0  0  0  0
   -4.2997   -0.7875   -0.3210 N   0  0  0  0  0  0  0  0  0  0  0  0
   -1.8208    0.4287    1.8754 C   0  0  0  0  0  0  0  0  0  0  0  0
   -0.5888    1.0350    2.0835 C   0  0  0  0  0  0  0  0  0  0  0  0
    0.1691    1.3820    0.9676 C   0  0  0  0  0  0  0  0  0  0  0  0
    1.4850    2.0262    1.1791 N   0  0  0  0  0  0  0  0  0  0  0  0
    1.8333    2.2233    2.3402 O   0  0  0  0  0  0  0  0  0  0  0  0
    2.1363    2.3175    0.1805 O   0  0  0  0  0  0  0  0  0  0  0  0
   -0.2591    1.1487   -0.3378 C   0  0  0  0  0  0  0  0  0  0  0  0
   -1.4936    0.5458   -0.5536 C   0  0  0  0  0  0  0  0  0  0  0  0
   -2.4491    0.1364    2.7088 H   0  0  0  0  0  0  0  0  0  0  0  0
   -0.2097    1.2394    3.0763 H   0  0  0  0  0  0  0  0  0  0  0  0
    0.3716    1.4436   -1.1668 H   0  0  0  0  0  0  0  0  0  0  0  0
   -1.8518    0.3651   -1.5551 H   0  0  0  0  0  0  0  0  0  0  0  0
   -4.3101    1.1803   -2.5540 B   0  0  0  0  0  0  0  0  0  0  0  0
   -3.8040   -0.4982   -1.8047 F   0  0  0  0  0  0  0  0  0  0  0  0
   -3.1842    1.3462   -3.2666 F   0  0  0  0  0  0  0  0  0  0  0  0
   -5.4234    0.8237   -3.1873 F   0  0  0  0  0  0  0  0  0  0  0  0
   -4.4126    1.8547   -1.3967 F   0  0  0  0  0  0  0  0  0  0  0  0
  1  4  2  0  0  0  0
  2  1  1  0  0  0  0
  3  2  1  0  0  0  0
  4  5  1  0  0  0  0
  4 12  1  0  0  0  0
  5 13  1  0  0  0  0
  6  7  1  0  0  0  0
  6  5  2  0  0  0  0
  7  8  2  0  0  0  0
  9  7  2  0  0  0  0
 10  6  1  0  0  0  0
 11 10  2  0  0  0  0
 11  1  1  0  0  0  0
 14 10  1  0  0  0  0
 15 11  1  0  0  0  0
 16 20  1  0  0  0  0
 17  3  1  0  0  0  0
 18 16  1  0  0  0  0
 19 16  1  0  0  0  0
M  RAD  2   2   2   3   2
M  END
