Coordinates from ORCA-job 4-NO2PhN2+~BF4-_B3LYPG-6-31G_dp-NX-Scan-d89-09-n800
 OpenBabel11261920313D

 20 19  0  0  0  0  0  0  0  0999 V2000
   -1.8749   -1.0582    0.1374 C   0  0  0  0  0  0  0  0  0  0  0  0
   -2.3753   -2.3228    0.1265 N   0  0  0  0  0  0  0  0  0  0  0  0
   -2.7410   -3.3842    0.1410 N   0  0  0  0  0  0  0  0  0  0  0  0
   -2.2890   -0.1762    1.1633 C   0  0  0  0  0  0  0  0  0  0  0  0
   -1.6813    1.0610    1.2347 C   0  0  0  0  0  0  0  0  0  0  0  0
   -0.7217    1.3926    0.2737 C   0  0  0  0  0  0  0  0  0  0  0  0
    0.0535    2.6479    0.4605 N   0  0  0  0  0  0  0  0  0  0  0  0
   -0.2059    3.3121    1.4538 O   0  0  0  0  0  0  0  0  0  0  0  0
    0.9274    2.8840   -0.3637 O   0  0  0  0  0  0  0  0  0  0  0  0
   -0.3380    0.5328   -0.7636 C   0  0  0  0  0  0  0  0  0  0  0  0
   -0.9204   -0.7109   -0.8524 C   0  0  0  0  0  0  0  0  0  0  0  0
   -3.0521   -0.4732    1.8731 H   0  0  0  0  0  0  0  0  0  0  0  0
   -1.9633    1.7934    1.9765 H   0  0  0  0  0  0  0  0  0  0  0  0
    0.4006    0.8705   -1.4789 H   0  0  0  0  0  0  0  0  0  0  0  0
   -0.6546   -1.4135   -1.6334 H   0  0  0  0  0  0  0  0  0  0  0  0
   -3.3356    2.6139   -0.8963 B   0  0  0  0  0  0  0  0  0  0  0  0
   -4.0843    3.4883   -1.6498 F   0  0  0  0  0  0  0  0  0  0  0  0
   -3.5388    1.2615   -1.2497 F   0  0  0  0  0  0  0  0  0  0  0  0
   -1.9288    2.8886   -1.1099 F   0  0  0  0  0  0  0  0  0  0  0  0
   -3.5833    2.7585    0.4832 F   0  0  0  0  0  0  0  0  0  0  0  0
  1  4  2  0  0  0  0
  2  1  1  0  0  0  0
  2  3  1  0  0  0  0
  4  5  1  0  0  0  0
  4 12  1  0  0  0  0
  5 13  1  0  0  0  0
  6  7  1  0  0  0  0
  6  5  2  0  0  0  0
  7  8  2  0  0  0  0
  9  7  2  0  0  0  0
 10  6  1  0  0  0  0
 11 10  2  0  0  0  0
 11  1  1  0  0  0  0
 14 10  1  0  0  0  0
 15 11  1  0  0  0  0
 16 20  1  0  0  0  0
 17 16  1  0  0  0  0
 18 16  1  0  0  0  0
 19 16  1  0  0  0  0
M  RAD  2   2   2   3   3
M  END
