Coordinates from ORCA-job 4-NO2PhN2+~BF4-_B3LYPG-6-31G_dp-NX-Scan-d89-09-n800
 OpenBabel11261920313D

 20 19  0  0  0  0  0  0  0  0999 V2000
   -1.7460   -1.2043    0.1144 C   0  0  0  0  0  0  0  0  0  0  0  0
   -2.2257   -2.4795    0.1285 N   0  0  0  0  0  0  0  0  0  0  0  0
   -2.5882   -3.5405    0.1565 N   0  0  0  0  0  0  0  0  0  0  0  0
   -2.3757   -0.2276    0.9243 C   0  0  0  0  0  0  0  0  0  0  0  0
   -1.8103    1.0314    0.9721 C   0  0  0  0  0  0  0  0  0  0  0  0
   -0.6976    1.2934    0.1706 C   0  0  0  0  0  0  0  0  0  0  0  0
   -0.0181    2.6078    0.2969 N   0  0  0  0  0  0  0  0  0  0  0  0
   -0.2855    3.2646    1.2907 O   0  0  0  0  0  0  0  0  0  0  0  0
    0.8006    2.8877   -0.5706 O   0  0  0  0  0  0  0  0  0  0  0  0
   -0.1027    0.3420   -0.6681 C   0  0  0  0  0  0  0  0  0  0  0  0
   -0.6185   -0.9361   -0.7025 C   0  0  0  0  0  0  0  0  0  0  0  0
   -3.2776   -0.4609    1.4771 H   0  0  0  0  0  0  0  0  0  0  0  0
   -2.2833    1.8506    1.5047 H   0  0  0  0  0  0  0  0  0  0  0  0
    0.7489    0.6295   -1.2718 H   0  0  0  0  0  0  0  0  0  0  0  0
   -0.1817   -1.7150   -1.3165 H   0  0  0  0  0  0  0  0  0  0  0  0
   -3.4815    2.9439   -0.6474 B   0  0  0  0  0  0  0  0  0  0  0  0
   -4.1998    3.8606   -1.3784 F   0  0  0  0  0  0  0  0  0  0  0  0
   -4.0388    1.6459   -0.7024 F   0  0  0  0  0  0  0  0  0  0  0  0
   -2.1393    2.8443   -1.1643 F   0  0  0  0  0  0  0  0  0  0  0  0
   -3.3855    3.3283    0.7121 F   0  0  0  0  0  0  0  0  0  0  0  0
  1  2  1  0  0  0  0
  1  4  2  0  0  0  0
  2  3  1  0  0  0  0
  4  5  1  0  0  0  0
  4 12  1  0  0  0  0
  5 13  1  0  0  0  0
  6  7  1  0  0  0  0
  6  5  2  0  0  0  0
  7  8  2  0  0  0  0
  9  7  2  0  0  0  0
 10  6  1  0  0  0  0
 11 10  2  0  0  0  0
 11  1  1  0  0  0  0
 14 10  1  0  0  0  0
 15 11  1  0  0  0  0
 16 20  1  0  0  0  0
 17 16  1  0  0  0  0
 18 16  1  0  0  0  0
 19 16  1  0  0  0  0
M  RAD  2   2   2   3   3
M  END
