Coordinates from ORCA-job 4-NO2PhN2+~BF4-_B3LYPG-6-31G_dp-NX-Scan-d89-09-n800
 OpenBabel11261920323D

 20 19  0  0  0  0  0  0  0  0999 V2000
   -2.3301    0.5928    0.8139 C   0  0  0  0  0  0  0  0  0  0  0  0
   -3.7138    0.2605    0.8600 N   0  0  0  0  0  0  0  0  0  0  0  0
   -4.4050   -0.1438   -0.0608 N   0  0  0  0  0  0  0  0  0  0  0  0
   -1.6481    0.3658    2.0194 C   0  0  0  0  0  0  0  0  0  0  0  0
   -0.3024    0.6913    2.1348 C   0  0  0  0  0  0  0  0  0  0  0  0
    0.3293    1.2880    1.0460 C   0  0  0  0  0  0  0  0  0  0  0  0
    1.7528    1.6567    1.1641 N   0  0  0  0  0  0  0  0  0  0  0  0
    2.3150    1.4085    2.2286 O   0  0  0  0  0  0  0  0  0  0  0  0
    2.2837    2.1879    0.1911 O   0  0  0  0  0  0  0  0  0  0  0  0
   -0.3394    1.5608   -0.1457 C   0  0  0  0  0  0  0  0  0  0  0  0
   -1.6773    1.2032   -0.2721 C   0  0  0  0  0  0  0  0  0  0  0  0
   -2.1892   -0.0708    2.8514 H   0  0  0  0  0  0  0  0  0  0  0  0
    0.2544    0.5115    3.0456 H   0  0  0  0  0  0  0  0  0  0  0  0
    0.1943    2.0382   -0.9578 H   0  0  0  0  0  0  0  0  0  0  0  0
   -2.2034    1.4115   -1.1930 H   0  0  0  0  0  0  0  0  0  0  0  0
   -4.6201    0.8152   -3.2787 B   0  0  0  0  0  0  0  0  0  0  0  0
   -3.7403   -0.3121   -1.2244 F   0  0  0  0  0  0  0  0  0  0  0  0
   -3.5978    1.6553   -3.1790 F   0  0  0  0  0  0  0  0  0  0  0  0
   -4.5054   -0.2657   -4.0220 F   0  0  0  0  0  0  0  0  0  0  0  0
   -5.7635    1.1113   -2.6954 F   0  0  0  0  0  0  0  0  0  0  0  0
  1  2  1  0  0  0  0
  1  4  2  0  0  0  0
  3  2  1  0  0  0  0
  4  5  1  0  0  0  0
  4 12  1  0  0  0  0
  5 13  1  0  0  0  0
  6  7  1  0  0  0  0
  6  5  2  0  0  0  0
  7  8  2  0  0  0  0
  9  7  2  0  0  0  0
 10  6  1  0  0  0  0
 11 10  2  0  0  0  0
 11  1  1  0  0  0  0
 14 10  1  0  0  0  0
 15 11  1  0  0  0  0
 16 18  1  0  0  0  0
 16 20  1  0  0  0  0
 17  3  1  0  0  0  0
 19 16  1  0  0  0  0
M  RAD  2   2   2   3   2
M  END
