Coordinates from ORCA-job 4-NO2PhN2+~BF4-_B3LYPG-6-31G_dp-NX-Scan-d89-09-n800
 OpenBabel11261920323D

 20 19  0  0  0  0  0  0  0  0999 V2000
   -2.3375    0.6147    0.8263 C   0  0  0  0  0  0  0  0  0  0  0  0
   -3.7273    0.3002    0.8797 N   0  0  0  0  0  0  0  0  0  0  0  0
   -4.3995   -0.1225   -0.0569 N   0  0  0  0  0  0  0  0  0  0  0  0
   -1.6448    0.3609    2.0202 C   0  0  0  0  0  0  0  0  0  0  0  0
   -0.2955    0.6740    2.1284 C   0  0  0  0  0  0  0  0  0  0  0  0
    0.3315    1.2858    1.0451 C   0  0  0  0  0  0  0  0  0  0  0  0
    1.7581    1.6410    1.1560 N   0  0  0  0  0  0  0  0  0  0  0  0
    2.3294    1.3681    2.2099 O   0  0  0  0  0  0  0  0  0  0  0  0
    2.2841    2.1872    0.1884 O   0  0  0  0  0  0  0  0  0  0  0  0
   -0.3466    1.5850   -0.1349 C   0  0  0  0  0  0  0  0  0  0  0  0
   -1.6883    1.2394   -0.2537 C   0  0  0  0  0  0  0  0  0  0  0  0
   -2.1812   -0.0858    2.8500 H   0  0  0  0  0  0  0  0  0  0  0  0
    0.2682    0.4734    3.0306 H   0  0  0  0  0  0  0  0  0  0  0  0
    0.1829    2.0726   -0.9437 H   0  0  0  0  0  0  0  0  0  0  0  0
   -2.2203    1.4681   -1.1672 H   0  0  0  0  0  0  0  0  0  0  0  0
   -4.6202    0.7943   -3.3128 B   0  0  0  0  0  0  0  0  0  0  0  0
   -3.7412   -0.3144   -1.1619 F   0  0  0  0  0  0  0  0  0  0  0  0
   -3.6092    1.6431   -3.1857 F   0  0  0  0  0  0  0  0  0  0  0  0
   -4.4712   -0.2931   -4.0399 F   0  0  0  0  0  0  0  0  0  0  0  0
   -5.7782    1.0741   -2.7522 F   0  0  0  0  0  0  0  0  0  0  0  0
  1  2  1  0  0  0  0
  1  4  2  0  0  0  0
  3  2  1  0  0  0  0
  4  5  1  0  0  0  0
  4 12  1  0  0  0  0
  5 13  1  0  0  0  0
  6  7  1  0  0  0  0
  6  5  2  0  0  0  0
  7  8  2  0  0  0  0
  9  7  2  0  0  0  0
 10  6  1  0  0  0  0
 11 10  2  0  0  0  0
 11  1  1  0  0  0  0
 14 10  1  0  0  0  0
 15 11  1  0  0  0  0
 16 18  1  0  0  0  0
 16 20  1  0  0  0  0
 17  3  1  0  0  0  0
 19 16  1  0  0  0  0
M  RAD  2   2   2   3   2
M  END
