Coordinates from ORCA-job 4-NO2PhN2+~BF4-_B3LYPG-6-31G_dp-NX-Scan-d89-09-n800
 OpenBabel11261920323D

 20 19  0  0  0  0  0  0  0  0999 V2000
   -2.2631    0.1968    0.6018 C   0  0  0  0  0  0  0  0  0  0  0  0
   -3.5355   -0.4149    0.5619 N   0  0  0  0  0  0  0  0  0  0  0  0
   -4.2804   -0.7785   -0.2907 N   0  0  0  0  0  0  0  0  0  0  0  0
   -1.7884    0.4117    1.9063 C   0  0  0  0  0  0  0  0  0  0  0  0
   -0.5493    1.0053    2.1092 C   0  0  0  0  0  0  0  0  0  0  0  0
    0.1923    1.3750    0.9900 C   0  0  0  0  0  0  0  0  0  0  0  0
    1.5131    2.0090    1.1926 N   0  0  0  0  0  0  0  0  0  0  0  0
    1.8853    2.1756    2.3515 O   0  0  0  0  0  0  0  0  0  0  0  0
    2.1473    2.3250    0.1900 O   0  0  0  0  0  0  0  0  0  0  0  0
   -0.2611    1.1729   -0.3120 C   0  0  0  0  0  0  0  0  0  0  0  0
   -1.5007    0.5770   -0.5195 C   0  0  0  0  0  0  0  0  0  0  0  0
   -2.4058    0.1071    2.7435 H   0  0  0  0  0  0  0  0  0  0  0  0
   -0.1540    1.1852    3.1005 H   0  0  0  0  0  0  0  0  0  0  0  0
    0.3565    1.4838   -1.1450 H   0  0  0  0  0  0  0  0  0  0  0  0
   -1.8707    0.4172   -1.5194 H   0  0  0  0  0  0  0  0  0  0  0  0
   -4.4004    1.2557   -2.7036 B   0  0  0  0  0  0  0  0  0  0  0  0
   -3.7425   -0.5503   -1.7056 F   0  0  0  0  0  0  0  0  0  0  0  0
   -3.2470    1.3553   -3.3595 F   0  0  0  0  0  0  0  0  0  0  0  0
   -5.4551    0.7350   -3.3034 F   0  0  0  0  0  0  0  0  0  0  0  0
   -4.5470    1.9221   -1.5628 F   0  0  0  0  0  0  0  0  0  0  0  0
  1  4  2  0  0  0  0
  2  1  1  0  0  0  0
  3  2  1  0  0  0  0
  4  5  1  0  0  0  0
  4 12  1  0  0  0  0
  5 13  1  0  0  0  0
  6  7  1  0  0  0  0
  6  5  2  0  0  0  0
  7  8  2  0  0  0  0
  9  7  2  0  0  0  0
 10  6  1  0  0  0  0
 11 10  2  0  0  0  0
 11  1  1  0  0  0  0
 14 10  1  0  0  0  0
 15 11  1  0  0  0  0
 16 20  1  0  0  0  0
 17  3  1  0  0  0  0
 18 16  1  0  0  0  0
 19 16  1  0  0  0  0
M  RAD  2   2   2   3   2
M  END
