Coordinates from ORCA-job 4-NO2PhN2+~BF4-_B3LYPG-6-31G_dp-NX-Scan-d89-09-n800
 OpenBabel11261920323D

 20 19  0  0  0  0  0  0  0  0999 V2000
   -1.9287   -0.6195   -0.0144 C   0  0  0  0  0  0  0  0  0  0  0  0
   -2.6933   -1.7403   -0.2089 N   0  0  0  0  0  0  0  0  0  0  0  0
   -3.2323   -2.7109   -0.3335 N   0  0  0  0  0  0  0  0  0  0  0  0
   -2.2557    0.2359    1.0515 C   0  0  0  0  0  0  0  0  0  0  0  0
   -1.3941    1.2999    1.2945 C   0  0  0  0  0  0  0  0  0  0  0  0
   -0.2907    1.4687    0.4722 C   0  0  0  0  0  0  0  0  0  0  0  0
    0.6213    2.6056    0.7454 N   0  0  0  0  0  0  0  0  0  0  0  0
    0.3685    3.3028    1.7209 O   0  0  0  0  0  0  0  0  0  0  0  0
    1.5714    2.7521   -0.0174 O   0  0  0  0  0  0  0  0  0  0  0  0
    0.0069    0.6372   -0.6142 C   0  0  0  0  0  0  0  0  0  0  0  0
   -0.8223   -0.4322   -0.8745 C   0  0  0  0  0  0  0  0  0  0  0  0
   -3.1539    0.0890    1.6333 H   0  0  0  0  0  0  0  0  0  0  0  0
   -1.6012    2.0130    2.0804 H   0  0  0  0  0  0  0  0  0  0  0  0
    0.8699    0.8503   -1.2310 H   0  0  0  0  0  0  0  0  0  0  0  0
   -0.6453   -1.1064   -1.7038 H   0  0  0  0  0  0  0  0  0  0  0  0
   -3.8852    1.8873   -0.9616 B   0  0  0  0  0  0  0  0  0  0  0  0
   -4.6914    2.8228   -1.5760 F   0  0  0  0  0  0  0  0  0  0  0  0
   -4.2512    0.5445   -1.2659 F   0  0  0  0  0  0  0  0  0  0  0  0
   -2.5309    2.0497   -1.3341 F   0  0  0  0  0  0  0  0  0  0  0  0
   -3.9681    2.0165    0.4630 F   0  0  0  0  0  0  0  0  0  0  0  0
  1  4  2  0  0  0  0
  2  1  1  0  0  0  0
  3  2  1  0  0  0  0
  4  5  1  0  0  0  0
  4 12  1  0  0  0  0
  5 13  1  0  0  0  0
  6  7  1  0  0  0  0
  6  5  2  0  0  0  0
  7  8  2  0  0  0  0
  9  7  2  0  0  0  0
 10  6  1  0  0  0  0
 11 10  2  0  0  0  0
 11  1  1  0  0  0  0
 14 10  1  0  0  0  0
 15 11  1  0  0  0  0
 16 20  1  0  0  0  0
 17 16  1  0  0  0  0
 18 16  1  0  0  0  0
 19 16  1  0  0  0  0
M  RAD  2   2   2   3   3
M  END
