Coordinates from ORCA-job 4-NO2PhN2+~BF4-_B3LYPG-6-31G_dp-NX-Scan-d89-09-n800
 OpenBabel11261920323D

 20 19  0  0  0  0  0  0  0  0999 V2000
   -2.1303   -0.0139    0.3426 C   0  0  0  0  0  0  0  0  0  0  0  0
   -3.2159   -0.8638    0.1624 N   0  0  0  0  0  0  0  0  0  0  0  0
   -4.0236   -1.6245    0.1428 N   0  0  0  0  0  0  0  0  0  0  0  0
   -1.8209    0.3251    1.6725 C   0  0  0  0  0  0  0  0  0  0  0  0
   -0.7066    1.1184    1.8868 C   0  0  0  0  0  0  0  0  0  0  0  0
    0.0449    1.5266    0.7813 C   0  0  0  0  0  0  0  0  0  0  0  0
    1.2466    2.3638    1.0263 N   0  0  0  0  0  0  0  0  0  0  0  0
    1.4914    2.6578    2.1924 O   0  0  0  0  0  0  0  0  0  0  0  0
    1.9067    2.6929    0.0480 O   0  0  0  0  0  0  0  0  0  0  0  0
   -0.2741    1.1904   -0.5294 C   0  0  0  0  0  0  0  0  0  0  0  0
   -1.3954    0.4027   -0.7744 C   0  0  0  0  0  0  0  0  0  0  0  0
   -2.4397   -0.0174    2.4932 H   0  0  0  0  0  0  0  0  0  0  0  0
   -0.4085    1.4238    2.8812 H   0  0  0  0  0  0  0  0  0  0  0  0
    0.3380    1.5554   -1.3440 H   0  0  0  0  0  0  0  0  0  0  0  0
   -1.7357    0.1367   -1.7662 H   0  0  0  0  0  0  0  0  0  0  0  0
   -4.1860    1.0495   -2.0057 B   0  0  0  0  0  0  0  0  0  0  0  0
   -5.2470    1.3387   -2.8187 F   0  0  0  0  0  0  0  0  0  0  0  0
   -3.6778   -0.2797   -2.2673 F   0  0  0  0  0  0  0  0  0  0  0  0
   -3.1143    1.9406   -2.1712 F   0  0  0  0  0  0  0  0  0  0  0  0
   -4.5582    1.0431   -0.6267 F   0  0  0  0  0  0  0  0  0  0  0  0
  1  4  2  0  0  0  0
  2  1  1  0  0  0  0
  3  2  1  0  0  0  0
  4  5  1  0  0  0  0
  4 12  1  0  0  0  0
  5 13  1  0  0  0  0
  6  7  1  0  0  0  0
  6  5  2  0  0  0  0
  7  8  2  0  0  0  0
  9  7  2  0  0  0  0
 10  6  1  0  0  0  0
 11 10  2  0  0  0  0
 11  1  1  0  0  0  0
 14 10  1  0  0  0  0
 15 11  1  0  0  0  0
 16 20  1  0  0  0  0
 17 16  1  0  0  0  0
 18 16  1  0  0  0  0
 19 16  1  0  0  0  0
M  RAD  2   2   2   3   3
M  END
