Coordinates from ORCA-job 4-NO2PhN2+~BF4-_B3LYPG-6-31G_dp-NX-Scan-d89-09-n800
 OpenBabel11261920323D

 20 19  0  0  0  0  0  0  0  0999 V2000
   -2.1421    0.2449    0.3698 C   0  0  0  0  0  0  0  0  0  0  0  0
   -3.3299   -0.4366    0.1052 N   0  0  0  0  0  0  0  0  0  0  0  0
   -4.2454   -1.0617    0.0231 N   0  0  0  0  0  0  0  0  0  0  0  0
   -1.7757    0.3464    1.7221 C   0  0  0  0  0  0  0  0  0  0  0  0
   -0.5828    0.9904    2.0166 C   0  0  0  0  0  0  0  0  0  0  0  0
    0.1841    1.4864    0.9616 C   0  0  0  0  0  0  0  0  0  0  0  0
    1.4640    2.1651    1.2877 N   0  0  0  0  0  0  0  0  0  0  0  0
    1.7625    2.2491    2.4750 O   0  0  0  0  0  0  0  0  0  0  0  0
    2.1268    2.5872    0.3475 O   0  0  0  0  0  0  0  0  0  0  0  0
   -0.1888    1.3753   -0.3757 C   0  0  0  0  0  0  0  0  0  0  0  0
   -1.3866    0.7456   -0.6979 C   0  0  0  0  0  0  0  0  0  0  0  0
   -2.4083   -0.0567    2.5041 H   0  0  0  0  0  0  0  0  0  0  0  0
   -0.2385    1.1120    3.0355 H   0  0  0  0  0  0  0  0  0  0  0  0
    0.4507    1.7869   -1.1461 H   0  0  0  0  0  0  0  0  0  0  0  0
   -1.7618    0.6239   -1.7107 H   0  0  0  0  0  0  0  0  0  0  0  0
   -4.3958    0.7806   -2.3549 B   0  0  0  0  0  0  0  0  0  0  0  0
   -5.4667   -0.0410   -1.9719 F   0  0  0  0  0  0  0  0  0  0  0  0
   -3.2742   -0.0711   -2.6383 F   0  0  0  0  0  0  0  0  0  0  0  0
   -4.6884    1.5875   -3.4183 F   0  0  0  0  0  0  0  0  0  0  0  0
   -4.0097    1.5519   -1.2087 F   0  0  0  0  0  0  0  0  0  0  0  0
  1  4  2  0  0  0  0
  2  1  1  0  0  0  0
  3  2  1  0  0  0  0
  4  5  1  0  0  0  0
  4 12  1  0  0  0  0
  5 13  1  0  0  0  0
  6  7  1  0  0  0  0
  6  5  2  0  0  0  0
  7  8  2  0  0  0  0
  9  7  2  0  0  0  0
 10  6  1  0  0  0  0
 11 10  2  0  0  0  0
 11  1  1  0  0  0  0
 14 10  1  0  0  0  0
 15 11  1  0  0  0  0
 16 17  1  0  0  0  0
 16 20  1  0  0  0  0
 18 16  1  0  0  0  0
 19 16  1  0  0  0  0
M  RAD  2   2   2   3   3
M  END
