Coordinates from ORCA-job 4-NO2PhN2+~BF4-_B3LYPG-6-31G_dp-NX-Scan-d89-09-n800
 OpenBabel11261920323D

 20 19  0  0  0  0  0  0  0  0999 V2000
   -2.2766    0.2526    0.5700 C   0  0  0  0  0  0  0  0  0  0  0  0
   -3.5338   -0.3500    0.4390 N   0  0  0  0  0  0  0  0  0  0  0  0
   -4.3810   -0.7295   -0.2335 N   0  0  0  0  0  0  0  0  0  0  0  0
   -1.8141    0.4231    1.8831 C   0  0  0  0  0  0  0  0  0  0  0  0
   -0.5704    1.0056    2.0846 C   0  0  0  0  0  0  0  0  0  0  0  0
    0.1641    1.3927    0.9651 C   0  0  0  0  0  0  0  0  0  0  0  0
    1.4940    2.0136    1.1772 N   0  0  0  0  0  0  0  0  0  0  0  0
    1.8667    2.1529    2.3386 O   0  0  0  0  0  0  0  0  0  0  0  0
    2.1255    2.3412    0.1785 O   0  0  0  0  0  0  0  0  0  0  0  0
   -0.2929    1.2250   -0.3406 C   0  0  0  0  0  0  0  0  0  0  0  0
   -1.5381    0.6443   -0.5586 C   0  0  0  0  0  0  0  0  0  0  0  0
   -2.4280    0.1035    2.7171 H   0  0  0  0  0  0  0  0  0  0  0  0
   -0.1644    1.1635    3.0754 H   0  0  0  0  0  0  0  0  0  0  0  0
    0.3215    1.5532   -1.1693 H   0  0  0  0  0  0  0  0  0  0  0  0
   -1.9247    0.5200   -1.5621 H   0  0  0  0  0  0  0  0  0  0  0  0
   -4.2285    0.9619   -2.5041 B   0  0  0  0  0  0  0  0  0  0  0  0
   -3.9905   -0.5010   -1.9148 F   0  0  0  0  0  0  0  0  0  0  0  0
   -3.0611    1.1767   -3.2018 F   0  0  0  0  0  0  0  0  0  0  0  0
   -5.3501    0.8833   -3.2515 F   0  0  0  0  0  0  0  0  0  0  0  0
   -4.3242    1.7336   -1.3662 F   0  0  0  0  0  0  0  0  0  0  0  0
  1  4  2  0  0  0  0
  2  1  1  0  0  0  0
  3  2  2  0  0  0  0
  4  5  1  0  0  0  0
  4 12  1  0  0  0  0
  5 13  1  0  0  0  0
  6  7  1  0  0  0  0
  6  5  2  0  0  0  0
  7  8  2  0  0  0  0
  9  7  2  0  0  0  0
 10  6  1  0  0  0  0
 11 10  2  0  0  0  0
 11  1  1  0  0  0  0
 14 10  1  0  0  0  0
 15 11  1  0  0  0  0
 16 17  1  0  0  0  0
 16 20  1  0  0  0  0
 18 16  1  0  0  0  0
 19 16  1  0  0  0  0
M  RAD  1   3   2
M  END
