Coordinates from ORCA-job 4-NO2PhN2+~BF4-_B3LYPG-6-31G_dp-NX-Scan-d89-09-n800
 OpenBabel11261920323D

 20 19  0  0  0  0  0  0  0  0999 V2000
   -2.3119    0.5309    0.7836 C   0  0  0  0  0  0  0  0  0  0  0  0
   -3.6803    0.1505    0.8105 N   0  0  0  0  0  0  0  0  0  0  0  0
   -4.3949   -0.2297   -0.0875 N   0  0  0  0  0  0  0  0  0  0  0  0
   -1.6553    0.3664    2.0134 C   0  0  0  0  0  0  0  0  0  0  0  0
   -0.3219    0.7321    2.1485 C   0  0  0  0  0  0  0  0  0  0  0  0
    0.3199    1.3022    1.0517 C   0  0  0  0  0  0  0  0  0  0  0  0
    1.7313    1.7134    1.1892 N   0  0  0  0  0  0  0  0  0  0  0  0
    2.2715    1.5225    2.2763 O   0  0  0  0  0  0  0  0  0  0  0  0
    2.2718    2.2196    0.2088 O   0  0  0  0  0  0  0  0  0  0  0  0
   -0.3247    1.5102   -0.1660 C   0  0  0  0  0  0  0  0  0  0  0  0
   -1.6499    1.1145   -0.3121 C   0  0  0  0  0  0  0  0  0  0  0  0
   -2.2055   -0.0544    2.8474 H   0  0  0  0  0  0  0  0  0  0  0  0
    0.2170    0.6022    3.0783 H   0  0  0  0  0  0  0  0  0  0  0  0
    0.2173    1.9689   -0.9833 H   0  0  0  0  0  0  0  0  0  0  0  0
   -2.1586    1.2718   -1.2517 H   0  0  0  0  0  0  0  0  0  0  0  0
   -4.6193    0.8730   -3.2111 B   0  0  0  0  0  0  0  0  0  0  0  0
   -3.7331   -0.3327   -1.3403 F   0  0  0  0  0  0  0  0  0  0  0  0
   -3.4970    1.5832   -3.2392 F   0  0  0  0  0  0  0  0  0  0  0  0
   -4.7317   -0.1991   -3.9684 F   0  0  0  0  0  0  0  0  0  0  0  0
   -5.6513    1.3206   -2.5221 F   0  0  0  0  0  0  0  0  0  0  0  0
  1  2  1  0  0  0  0
  1  4  2  0  0  0  0
  3  2  1  0  0  0  0
  4  5  1  0  0  0  0
  4 12  1  0  0  0  0
  5 13  1  0  0  0  0
  6  7  1  0  0  0  0
  6  5  2  0  0  0  0
  7  8  2  0  0  0  0
  9  7  2  0  0  0  0
 10  6  1  0  0  0  0
 11 10  2  0  0  0  0
 11  1  1  0  0  0  0
 14 10  1  0  0  0  0
 15 11  1  0  0  0  0
 16 20  1  0  0  0  0
 17  3  1  0  0  0  0
 18 16  1  0  0  0  0
 19 16  1  0  0  0  0
M  RAD  2   2   2   3   2
M  END
