Coordinates from ORCA-job 4-NO2PhN2+~BF4-_B3LYPG-6-31G_dp-NX-Scan-d89-09-n800
 OpenBabel11261920323D

 20 19  0  0  0  0  0  0  0  0999 V2000
   -2.0217   -0.3495    0.0992 C   0  0  0  0  0  0  0  0  0  0  0  0
   -2.9831   -1.3170   -0.1255 N   0  0  0  0  0  0  0  0  0  0  0  0
   -3.6655   -2.1920   -0.2098 N   0  0  0  0  0  0  0  0  0  0  0  0
   -2.1308    0.4177    1.2674 C   0  0  0  0  0  0  0  0  0  0  0  0
   -1.1383    1.3570    1.5024 C   0  0  0  0  0  0  0  0  0  0  0  0
   -0.1197    1.5037    0.5644 C   0  0  0  0  0  0  0  0  0  0  0  0
    0.9375    2.5108    0.8281 N   0  0  0  0  0  0  0  0  0  0  0  0
    0.8557    3.1448    1.8746 O   0  0  0  0  0  0  0  0  0  0  0  0
    1.8211    2.6255   -0.0148 O   0  0  0  0  0  0  0  0  0  0  0  0
   -0.0460    0.7669   -0.6169 C   0  0  0  0  0  0  0  0  0  0  0  0
   -1.0249   -0.1786   -0.8726 C   0  0  0  0  0  0  0  0  0  0  0  0
   -2.9816    0.3021    1.9244 H   0  0  0  0  0  0  0  0  0  0  0  0
   -1.1554    1.9877    2.3817 H   0  0  0  0  0  0  0  0  0  0  0  0
    0.7549    0.9579   -1.3191 H   0  0  0  0  0  0  0  0  0  0  0  0
   -1.0500   -0.7446   -1.7945 H   0  0  0  0  0  0  0  0  0  0  0  0
   -4.0155    1.4709   -1.2505 B   0  0  0  0  0  0  0  0  0  0  0  0
   -4.9162    2.2651   -1.9200 F   0  0  0  0  0  0  0  0  0  0  0  0
   -3.6498    0.3066   -2.0132 F   0  0  0  0  0  0  0  0  0  0  0  0
   -2.8306    2.1738   -0.9533 F   0  0  0  0  0  0  0  0  0  0  0  0
   -4.5466    0.9574   -0.0261 F   0  0  0  0  0  0  0  0  0  0  0  0
  1  4  2  0  0  0  0
  2  1  1  0  0  0  0
  3  2  1  0  0  0  0
  4  5  1  0  0  0  0
  4 12  1  0  0  0  0
  5 13  1  0  0  0  0
  6  7  1  0  0  0  0
  6  5  2  0  0  0  0
  7  8  2  0  0  0  0
  9  7  2  0  0  0  0
 10  6  1  0  0  0  0
 11 10  2  0  0  0  0
 11  1  1  0  0  0  0
 14 10  1  0  0  0  0
 15 11  1  0  0  0  0
 16 19  1  0  0  0  0
 16 20  1  0  0  0  0
 17 16  1  0  0  0  0
 18 16  1  0  0  0  0
M  RAD  2   2   2   3   3
M  END
