Coordinates from ORCA-job 4-NO2PhN2+~BF4-_B3LYPG-6-31G_dp-NX-Scan-d89-09-n800
 OpenBabel11261920323D

 20 19  0  0  0  0  0  0  0  0999 V2000
   -2.1308    0.2041    0.3554 C   0  0  0  0  0  0  0  0  0  0  0  0
   -3.3056   -0.5057    0.1016 N   0  0  0  0  0  0  0  0  0  0  0  0
   -4.1927   -1.1721    0.0616 N   0  0  0  0  0  0  0  0  0  0  0  0
   -1.7730    0.3299    1.7077 C   0  0  0  0  0  0  0  0  0  0  0  0
   -0.5929    0.9987    1.9987 C   0  0  0  0  0  0  0  0  0  0  0  0
    0.1682    1.4974    0.9413 C   0  0  0  0  0  0  0  0  0  0  0  0
    1.4330    2.2051    1.2644 N   0  0  0  0  0  0  0  0  0  0  0  0
    1.7265    2.3056    2.4517 O   0  0  0  0  0  0  0  0  0  0  0  0
    2.0894    2.6322    0.3221 O   0  0  0  0  0  0  0  0  0  0  0  0
   -0.1973    1.3635   -0.3964 C   0  0  0  0  0  0  0  0  0  0  0  0
   -1.3806    0.7063   -0.7149 C   0  0  0  0  0  0  0  0  0  0  0  0
   -2.4017   -0.0742    2.4924 H   0  0  0  0  0  0  0  0  0  0  0  0
   -0.2550    1.1383    3.0175 H   0  0  0  0  0  0  0  0  0  0  0  0
    0.4361    1.7798   -1.1694 H   0  0  0  0  0  0  0  0  0  0  0  0
   -1.7510    0.5620   -1.7255 H   0  0  0  0  0  0  0  0  0  0  0  0
   -4.3916    0.8193   -2.3131 B   0  0  0  0  0  0  0  0  0  0  0  0
   -5.5989    0.1657   -2.1099 F   0  0  0  0  0  0  0  0  0  0  0  0
   -3.3593   -0.1812   -2.4841 F   0  0  0  0  0  0  0  0  0  0  0  0
   -4.3959    1.6844   -3.3746 F   0  0  0  0  0  0  0  0  0  0  0  0
   -4.0334    1.5069   -1.1004 F   0  0  0  0  0  0  0  0  0  0  0  0
  1  4  2  0  0  0  0
  2  1  1  0  0  0  0
  3  2  1  0  0  0  0
  4  5  1  0  0  0  0
  4 12  1  0  0  0  0
  5 13  1  0  0  0  0
  6  7  1  0  0  0  0
  6  5  2  0  0  0  0
  7  8  2  0  0  0  0
  9  7  2  0  0  0  0
 10  6  1  0  0  0  0
 11 10  2  0  0  0  0
 11  1  1  0  0  0  0
 14 10  1  0  0  0  0
 15 11  1  0  0  0  0
 16 17  1  0  0  0  0
 16 20  1  0  0  0  0
 18 16  1  0  0  0  0
 19 16  1  0  0  0  0
M  RAD  2   2   2   3   3
M  END
