Coordinates from ORCA-job 4-NO2PhN2+~BF4-_B3LYPG-6-31G_dp-NX-Scan-d89-09-n800
 OpenBabel11261920313D

 20 19  0  0  0  0  0  0  0  0999 V2000
   -1.6705   -1.3264    0.1310 C   0  0  0  0  0  0  0  0  0  0  0  0
   -2.0621   -2.6304    0.2356 N   0  0  0  0  0  0  0  0  0  0  0  0
   -2.3381   -3.7128    0.3348 N   0  0  0  0  0  0  0  0  0  0  0  0
   -2.4253   -0.3165    0.7817 C   0  0  0  0  0  0  0  0  0  0  0  0
   -1.9333    0.9762    0.7610 C   0  0  0  0  0  0  0  0  0  0  0  0
   -0.7413    1.2197    0.0707 C   0  0  0  0  0  0  0  0  0  0  0  0
   -0.1013    2.5536    0.1752 N   0  0  0  0  0  0  0  0  0  0  0  0
   -0.3340    3.1788    1.1966 O   0  0  0  0  0  0  0  0  0  0  0  0
    0.6678    2.8637   -0.7259 O   0  0  0  0  0  0  0  0  0  0  0  0
   -0.0341    0.2366   -0.6322 C   0  0  0  0  0  0  0  0  0  0  0  0
   -0.4849   -1.0678   -0.6003 C   0  0  0  0  0  0  0  0  0  0  0  0
   -3.3595   -0.5529    1.2773 H   0  0  0  0  0  0  0  0  0  0  0  0
   -2.4742    1.8162    1.2041 H   0  0  0  0  0  0  0  0  0  0  0  0
    0.8609    0.5152   -1.1745 H   0  0  0  0  0  0  0  0  0  0  0  0
    0.0478   -1.8709   -1.0960 H   0  0  0  0  0  0  0  0  0  0  0  0
   -3.5365    3.2393   -0.5391 B   0  0  0  0  0  0  0  0  0  0  0  0
   -4.1632    4.3273   -1.1044 F   0  0  0  0  0  0  0  0  0  0  0  0
   -4.2478    2.0362   -0.7043 F   0  0  0  0  0  0  0  0  0  0  0  0
   -2.2389    3.0467   -1.1252 F   0  0  0  0  0  0  0  0  0  0  0  0
   -3.3379    3.4343    0.8599 F   0  0  0  0  0  0  0  0  0  0  0  0
  1  2  1  0  0  0  0
  1  4  2  0  0  0  0
  2  3  1  0  0  0  0
  4 12  1  0  0  0  0
  5  4  1  0  0  0  0
  5 13  1  0  0  0  0
  6  7  1  0  0  0  0
  6  5  2  0  0  0  0
  7  8  2  0  0  0  0
  9  7  2  0  0  0  0
 10 11  2  0  0  0  0
 10  6  1  0  0  0  0
 11  1  1  0  0  0  0
 14 10  1  0  0  0  0
 15 11  1  0  0  0  0
 16 20  1  0  0  0  0
 17 16  1  0  0  0  0
 18 16  1  0  0  0  0
 19 16  1  0  0  0  0
M  RAD  2   2   2   3   3
M  END
