Coordinates from ORCA-job 4-NO2PhN2+~BF4-_B3LYPG-6-31G_dp-NX-Scan-d89-09-n800
 OpenBabel11261920323D

 20 19  0  0  0  0  0  0  0  0999 V2000
   -2.2783    0.2453    0.5687 C   0  0  0  0  0  0  0  0  0  0  0  0
   -3.5382   -0.3589    0.4513 N   0  0  0  0  0  0  0  0  0  0  0  0
   -4.3685   -0.7294   -0.2568 N   0  0  0  0  0  0  0  0  0  0  0  0
   -1.8155    0.4231    1.8810 C   0  0  0  0  0  0  0  0  0  0  0  0
   -0.5725    1.0071    2.0841 C   0  0  0  0  0  0  0  0  0  0  0  0
    0.1646    1.3899    0.9652 C   0  0  0  0  0  0  0  0  0  0  0  0
    1.4932    2.0126    1.1769 N   0  0  0  0  0  0  0  0  0  0  0  0
    1.8643    2.1570    2.3383 O   0  0  0  0  0  0  0  0  0  0  0  0
    2.1266    2.3367    0.1780 O   0  0  0  0  0  0  0  0  0  0  0  0
   -0.2900    1.2156   -0.3405 C   0  0  0  0  0  0  0  0  0  0  0  0
   -1.5344    0.6334   -0.5581 C   0  0  0  0  0  0  0  0  0  0  0  0
   -2.4312    0.1066    2.7149 H   0  0  0  0  0  0  0  0  0  0  0  0
   -0.1695    1.1691    3.0753 H   0  0  0  0  0  0  0  0  0  0  0  0
    0.3261    1.5401   -1.1694 H   0  0  0  0  0  0  0  0  0  0  0  0
   -1.9163    0.5034   -1.5616 H   0  0  0  0  0  0  0  0  0  0  0  0
   -4.2365    0.9912   -2.5083 B   0  0  0  0  0  0  0  0  0  0  0  0
   -3.9464   -0.4898   -1.8871 F   0  0  0  0  0  0  0  0  0  0  0  0
   -3.0819    1.2039   -3.2158 F   0  0  0  0  0  0  0  0  0  0  0  0
   -5.3619    0.8510   -3.2348 F   0  0  0  0  0  0  0  0  0  0  0  0
   -4.3401    1.7580   -1.3756 F   0  0  0  0  0  0  0  0  0  0  0  0
  1  4  2  0  0  0  0
  2  1  1  0  0  0  0
  3  2  2  0  0  0  0
  4  5  1  0  0  0  0
  4 12  1  0  0  0  0
  5 13  1  0  0  0  0
  6  7  1  0  0  0  0
  6  5  2  0  0  0  0
  7  8  2  0  0  0  0
  9  7  2  0  0  0  0
 10  6  1  0  0  0  0
 11 10  2  0  0  0  0
 11  1  1  0  0  0  0
 14 10  1  0  0  0  0
 15 11  1  0  0  0  0
 16 17  1  0  0  0  0
 16 20  1  0  0  0  0
 18 16  1  0  0  0  0
 19 16  1  0  0  0  0
M  RAD  1   3   2
M  END
