Coordinates from ORCA-job 4-NO2PhN2+~BF4-_B3LYPG-6-31G_dp-NX-Scan-d89-09-n800
 OpenBabel11261920323D

 20 19  0  0  0  0  0  0  0  0999 V2000
   -2.1298    0.1965    0.3562 C   0  0  0  0  0  0  0  0  0  0  0  0
   -3.3002   -0.5222    0.1052 N   0  0  0  0  0  0  0  0  0  0  0  0
   -4.1788   -1.1999    0.0708 N   0  0  0  0  0  0  0  0  0  0  0  0
   -1.7733    0.3303    1.7079 C   0  0  0  0  0  0  0  0  0  0  0  0
   -0.5954    1.0044    1.9960 C   0  0  0  0  0  0  0  0  0  0  0  0
    0.1650    1.4996    0.9364 C   0  0  0  0  0  0  0  0  0  0  0  0
    1.4282    2.2115    1.2564 N   0  0  0  0  0  0  0  0  0  0  0  0
    1.7193    2.3217    2.4434 O   0  0  0  0  0  0  0  0  0  0  0  0
    2.0860    2.6317    0.3120 O   0  0  0  0  0  0  0  0  0  0  0  0
   -0.1999    1.3584   -0.4007 C   0  0  0  0  0  0  0  0  0  0  0  0
   -1.3814    0.6966   -0.7161 C   0  0  0  0  0  0  0  0  0  0  0  0
   -2.4010   -0.0717    2.4945 H   0  0  0  0  0  0  0  0  0  0  0  0
   -0.2586    1.1505    3.0143 H   0  0  0  0  0  0  0  0  0  0  0  0
    0.4324    1.7728   -1.1756 H   0  0  0  0  0  0  0  0  0  0  0  0
   -1.7524    0.5481   -1.7259 H   0  0  0  0  0  0  0  0  0  0  0  0
   -4.3898    0.8281   -2.3067 B   0  0  0  0  0  0  0  0  0  0  0  0
   -5.6165    0.2011   -2.1621 F   0  0  0  0  0  0  0  0  0  0  0  0
   -3.3721   -0.1909   -2.4662 F   0  0  0  0  0  0  0  0  0  0  0  0
   -4.3331    1.7182   -3.3467 F   0  0  0  0  0  0  0  0  0  0  0  0
   -4.0551    1.4811   -1.0671 F   0  0  0  0  0  0  0  0  0  0  0  0
  1  4  2  0  0  0  0
  2  1  1  0  0  0  0
  3  2  1  0  0  0  0
  4  5  1  0  0  0  0
  4 12  1  0  0  0  0
  5 13  1  0  0  0  0
  6  7  1  0  0  0  0
  6  5  2  0  0  0  0
  7  8  2  0  0  0  0
  9  7  2  0  0  0  0
 10  6  1  0  0  0  0
 11 10  2  0  0  0  0
 11  1  1  0  0  0  0
 14 10  1  0  0  0  0
 15 11  1  0  0  0  0
 16 17  1  0  0  0  0
 16 20  1  0  0  0  0
 18 16  1  0  0  0  0
 19 16  1  0  0  0  0
M  RAD  2   2   2   3   3
M  END
