Coordinates from ORCA-job 4-NO2PhN2+~BF4-_B3LYPG-6-31G_dp-NX-Scan-d89-09-n800
 OpenBabel11261920323D

 20 19  0  0  0  0  0  0  0  0999 V2000
   -2.0261   -0.2786    0.1081 C   0  0  0  0  0  0  0  0  0  0  0  0
   -3.0417   -1.1891   -0.1452 N   0  0  0  0  0  0  0  0  0  0  0  0
   -3.7770   -2.0132   -0.2612 N   0  0  0  0  0  0  0  0  0  0  0  0
   -2.0993    0.4612    1.2948 C   0  0  0  0  0  0  0  0  0  0  0  0
   -1.0778    1.3654    1.5425 C   0  0  0  0  0  0  0  0  0  0  0  0
   -0.0649    1.5066    0.5960 C   0  0  0  0  0  0  0  0  0  0  0  0
    1.0211    2.4800    0.8697 N   0  0  0  0  0  0  0  0  0  0  0  0
    0.9647    3.0956    1.9290 O   0  0  0  0  0  0  0  0  0  0  0  0
    1.8996    2.5890    0.0208 O   0  0  0  0  0  0  0  0  0  0  0  0
   -0.0244    0.7938   -0.6008 C   0  0  0  0  0  0  0  0  0  0  0  0
   -1.0351   -0.1166   -0.8680 C   0  0  0  0  0  0  0  0  0  0  0  0
   -2.9471    0.3539    1.9576 H   0  0  0  0  0  0  0  0  0  0  0  0
   -1.0667    1.9745    2.4369 H   0  0  0  0  0  0  0  0  0  0  0  0
    0.7739    0.9777   -1.3078 H   0  0  0  0  0  0  0  0  0  0  0  0
   -1.0929   -0.6533   -1.8054 H   0  0  0  0  0  0  0  0  0  0  0  0
   -4.0839    1.3632   -1.3084 B   0  0  0  0  0  0  0  0  0  0  0  0
   -5.0645    2.0530   -1.9696 F   0  0  0  0  0  0  0  0  0  0  0  0
   -3.6196    0.2421   -2.0810 F   0  0  0  0  0  0  0  0  0  0  0  0
   -2.9717    2.1633   -1.0006 F   0  0  0  0  0  0  0  0  0  0  0  0
   -4.5729    0.7977   -0.0815 F   0  0  0  0  0  0  0  0  0  0  0  0
  1  4  2  0  0  0  0
  2  1  1  0  0  0  0
  3  2  1  0  0  0  0
  4  5  1  0  0  0  0
  4 12  1  0  0  0  0
  5 13  1  0  0  0  0
  6  7  1  0  0  0  0
  6  5  2  0  0  0  0
  7  8  2  0  0  0  0
  9  7  2  0  0  0  0
 10  6  1  0  0  0  0
 11 10  2  0  0  0  0
 11  1  1  0  0  0  0
 14 10  1  0  0  0  0
 15 11  1  0  0  0  0
 16 19  1  0  0  0  0
 16 20  1  0  0  0  0
 17 16  1  0  0  0  0
 18 16  1  0  0  0  0
M  RAD  2   2   2   3   3
M  END
