Coordinates from ORCA-job 4-NO2PhN2+~BF4-_B3LYPG-6-31G_dp-NX-Scan-d89-09-n800
 OpenBabel11261920323D

 20 19  0  0  0  0  0  0  0  0999 V2000
   -1.9436   -0.5156   -0.0120 C   0  0  0  0  0  0  0  0  0  0  0  0
   -2.7996   -1.5601   -0.2678 N   0  0  0  0  0  0  0  0  0  0  0  0
   -3.4080   -2.4793   -0.4354 N   0  0  0  0  0  0  0  0  0  0  0  0
   -2.2178    0.3115    1.0883 C   0  0  0  0  0  0  0  0  0  0  0  0
   -1.3108    1.3310    1.3525 C   0  0  0  0  0  0  0  0  0  0  0  0
   -0.2157    1.4876    0.5140 C   0  0  0  0  0  0  0  0  0  0  0  0
    0.7439    2.5805    0.8081 N   0  0  0  0  0  0  0  0  0  0  0  0
    0.5245    3.2649    1.8010 O   0  0  0  0  0  0  0  0  0  0  0  0
    1.6937    2.7088    0.0419 O   0  0  0  0  0  0  0  0  0  0  0  0
    0.0331    0.6794   -0.5993 C   0  0  0  0  0  0  0  0  0  0  0  0
   -0.8471   -0.3460   -0.8812 C   0  0  0  0  0  0  0  0  0  0  0  0
   -3.1116    0.1769    1.6792 H   0  0  0  0  0  0  0  0  0  0  0  0
   -1.4663    2.0165    2.1748 H   0  0  0  0  0  0  0  0  0  0  0  0
    0.8955    0.8753   -1.2225 H   0  0  0  0  0  0  0  0  0  0  0  0
   -0.7156   -0.9920   -1.7406 H   0  0  0  0  0  0  0  0  0  0  0  0
   -3.9706    1.7150   -1.0171 B   0  0  0  0  0  0  0  0  0  0  0  0
   -4.8288    2.5500   -1.6942 F   0  0  0  0  0  0  0  0  0  0  0  0
   -4.2438    0.3282   -1.2804 F   0  0  0  0  0  0  0  0  0  0  0  0
   -2.6254    1.9479   -1.3752 F   0  0  0  0  0  0  0  0  0  0  0  0
   -4.0926    1.8859    0.3919 F   0  0  0  0  0  0  0  0  0  0  0  0
  1  4  2  0  0  0  0
  2  1  1  0  0  0  0
  3  2  1  0  0  0  0
  4  5  1  0  0  0  0
  4 12  1  0  0  0  0
  5 13  1  0  0  0  0
  6  7  1  0  0  0  0
  6  5  2  0  0  0  0
  7  8  2  0  0  0  0
  9  7  2  0  0  0  0
 10  6  1  0  0  0  0
 11 10  2  0  0  0  0
 11  1  1  0  0  0  0
 14 10  1  0  0  0  0
 15 11  1  0  0  0  0
 16 20  1  0  0  0  0
 17 16  1  0  0  0  0
 18 16  1  0  0  0  0
 19 16  1  0  0  0  0
M  RAD  2   2   2   3   3
M  END
