Coordinates from ORCA-job 4-NO2PhN2+~BF4-_B3LYPG-6-31G_dp-NX-Scan-d89-09-n800
 OpenBabel11261920323D

 20 19  0  0  0  0  0  0  0  0999 V2000
   -2.1637    0.2782    0.4055 C   0  0  0  0  0  0  0  0  0  0  0  0
   -3.3730   -0.3610    0.1443 N   0  0  0  0  0  0  0  0  0  0  0  0
   -4.3382   -0.8950   -0.0303 N   0  0  0  0  0  0  0  0  0  0  0  0
   -1.7668    0.3440    1.7515 C   0  0  0  0  0  0  0  0  0  0  0  0
   -0.5600    0.9639    2.0399 C   0  0  0  0  0  0  0  0  0  0  0  0
    0.1958    1.4717    0.9824 C   0  0  0  0  0  0  0  0  0  0  0  0
    1.4890    2.1282    1.2996 N   0  0  0  0  0  0  0  0  0  0  0  0
    1.8109    2.1820    2.4827 O   0  0  0  0  0  0  0  0  0  0  0  0
    2.1380    2.5681    0.3576 O   0  0  0  0  0  0  0  0  0  0  0  0
   -0.2005    1.3910   -0.3500 C   0  0  0  0  0  0  0  0  0  0  0  0
   -1.4136    0.7857   -0.6642 C   0  0  0  0  0  0  0  0  0  0  0  0
   -2.3910   -0.0685    2.5355 H   0  0  0  0  0  0  0  0  0  0  0  0
   -0.1955    1.0578    3.0547 H   0  0  0  0  0  0  0  0  0  0  0  0
    0.4330    1.8064   -1.1233 H   0  0  0  0  0  0  0  0  0  0  0  0
   -1.7961    0.6905   -1.6774 H   0  0  0  0  0  0  0  0  0  0  0  0
   -4.3685    0.7533   -2.4157 B   0  0  0  0  0  0  0  0  0  0  0  0
   -5.2497   -0.2215   -1.8355 F   0  0  0  0  0  0  0  0  0  0  0  0
   -3.1955    0.0558   -2.8123 F   0  0  0  0  0  0  0  0  0  0  0  0
   -4.9629    1.4044   -3.4546 F   0  0  0  0  0  0  0  0  0  0  0  0
   -3.9982    1.6311   -1.3645 F   0  0  0  0  0  0  0  0  0  0  0  0
  1  4  2  0  0  0  0
  2  1  1  0  0  0  0
  3  2  1  0  0  0  0
  4  5  1  0  0  0  0
  4 12  1  0  0  0  0
  5 13  1  0  0  0  0
  6  7  1  0  0  0  0
  6  5  2  0  0  0  0
  7  8  2  0  0  0  0
  9  7  2  0  0  0  0
 10  6  1  0  0  0  0
 11 10  2  0  0  0  0
 11  1  1  0  0  0  0
 14 10  1  0  0  0  0
 15 11  1  0  0  0  0
 16 17  1  0  0  0  0
 16 20  1  0  0  0  0
 18 16  1  0  0  0  0
 19 16  1  0  0  0  0
M  RAD  2   2   2   3   3
M  END
