Coordinates from ORCA-job 4-NO2PhN2+~BF4-_B3LYPG-6-31G_dp-NX-Scan-d89-09-n800
 OpenBabel11261920323D

 20 19  0  0  0  0  0  0  0  0999 V2000
   -1.9435   -0.5136   -0.0118 C   0  0  0  0  0  0  0  0  0  0  0  0
   -2.8016   -1.5562   -0.2690 N   0  0  0  0  0  0  0  0  0  0  0  0
   -3.4115   -2.4742   -0.4376 N   0  0  0  0  0  0  0  0  0  0  0  0
   -2.2168    0.3130    1.0891 C   0  0  0  0  0  0  0  0  0  0  0  0
   -1.3088    1.3315    1.3537 C   0  0  0  0  0  0  0  0  0  0  0  0
   -0.2138    1.4879    0.5150 C   0  0  0  0  0  0  0  0  0  0  0  0
    0.7467    2.5798    0.8094 N   0  0  0  0  0  0  0  0  0  0  0  0
    0.5279    3.2640    1.8026 O   0  0  0  0  0  0  0  0  0  0  0  0
    1.6965    2.7077    0.0431 O   0  0  0  0  0  0  0  0  0  0  0  0
    0.0340    0.6800   -0.5988 C   0  0  0  0  0  0  0  0  0  0  0  0
   -0.8472   -0.3445   -0.8811 C   0  0  0  0  0  0  0  0  0  0  0  0
   -3.1106    0.1787    1.6800 H   0  0  0  0  0  0  0  0  0  0  0  0
   -1.4634    2.0165    2.1766 H   0  0  0  0  0  0  0  0  0  0  0  0
    0.8965    0.8755   -1.2221 H   0  0  0  0  0  0  0  0  0  0  0  0
   -0.7166   -0.9900   -1.7410 H   0  0  0  0  0  0  0  0  0  0  0  0
   -3.9731    1.7118   -1.0183 B   0  0  0  0  0  0  0  0  0  0  0  0
   -4.8328    2.5441   -1.6969 F   0  0  0  0  0  0  0  0  0  0  0  0
   -4.2436    0.3240   -1.2808 F   0  0  0  0  0  0  0  0  0  0  0  0
   -2.6284    1.9468   -1.3762 F   0  0  0  0  0  0  0  0  0  0  0  0
   -4.0963    1.8833    0.3902 F   0  0  0  0  0  0  0  0  0  0  0  0
  1  4  2  0  0  0  0
  2  1  1  0  0  0  0
  3  2  1  0  0  0  0
  4  5  1  0  0  0  0
  4 12  1  0  0  0  0
  5 13  1  0  0  0  0
  6  7  1  0  0  0  0
  6  5  2  0  0  0  0
  7  8  2  0  0  0  0
  9  7  2  0  0  0  0
 10  6  1  0  0  0  0
 11 10  2  0  0  0  0
 11  1  1  0  0  0  0
 14 10  1  0  0  0  0
 15 11  1  0  0  0  0
 16 20  1  0  0  0  0
 17 16  1  0  0  0  0
 18 16  1  0  0  0  0
 19 16  1  0  0  0  0
M  RAD  2   2   2   3   3
M  END
