Coordinates from ORCA-job 4-NO2PhN2+~BF4-_B3LYPG-6-31G_dp-NX-Scan-d89-09-n800
 OpenBabel11261920313D

 20 19  0  0  0  0  0  0  0  0999 V2000
   -1.8643   -1.0835    0.1437 C   0  0  0  0  0  0  0  0  0  0  0  0
   -2.3325   -2.3607    0.1541 N   0  0  0  0  0  0  0  0  0  0  0  0
   -2.6680   -3.4317    0.1877 N   0  0  0  0  0  0  0  0  0  0  0  0
   -2.2936   -0.1959    1.1596 C   0  0  0  0  0  0  0  0  0  0  0  0
   -1.7042    1.0506    1.2196 C   0  0  0  0  0  0  0  0  0  0  0  0
   -0.7434    1.3856    0.2599 C   0  0  0  0  0  0  0  0  0  0  0  0
    0.0358    2.6379    0.4541 N   0  0  0  0  0  0  0  0  0  0  0  0
   -0.2249    3.2988    1.4490 O   0  0  0  0  0  0  0  0  0  0  0  0
    0.9154    2.8717   -0.3645 O   0  0  0  0  0  0  0  0  0  0  0  0
   -0.3512    0.5229   -0.7723 C   0  0  0  0  0  0  0  0  0  0  0  0
   -0.9158   -0.7298   -0.8501 C   0  0  0  0  0  0  0  0  0  0  0  0
   -3.0506   -0.4982    1.8737 H   0  0  0  0  0  0  0  0  0  0  0  0
   -1.9960    1.7855    1.9550 H   0  0  0  0  0  0  0  0  0  0  0  0
    0.3848    0.8635   -1.4889 H   0  0  0  0  0  0  0  0  0  0  0  0
   -0.6380   -1.4358   -1.6239 H   0  0  0  0  0  0  0  0  0  0  0  0
   -3.3352    2.6684   -0.8982 B   0  0  0  0  0  0  0  0  0  0  0  0
   -4.0540    3.5822   -1.6343 F   0  0  0  0  0  0  0  0  0  0  0  0
   -3.5822    1.3316   -1.2701 F   0  0  0  0  0  0  0  0  0  0  0  0
   -1.9181    2.9004   -1.1130 F   0  0  0  0  0  0  0  0  0  0  0  0
   -3.5702    2.8024    0.4849 F   0  0  0  0  0  0  0  0  0  0  0  0
  1  2  1  0  0  0  0
  1  4  2  0  0  0  0
  2  3  1  0  0  0  0
  4  5  1  0  0  0  0
  4 12  1  0  0  0  0
  5 13  1  0  0  0  0
  6  7  1  0  0  0  0
  6  5  2  0  0  0  0
  7  8  2  0  0  0  0
  9  7  2  0  0  0  0
 10  6  1  0  0  0  0
 11 10  2  0  0  0  0
 11  1  1  0  0  0  0
 14 10  1  0  0  0  0
 15 11  1  0  0  0  0
 16 20  1  0  0  0  0
 17 16  1  0  0  0  0
 18 16  1  0  0  0  0
 19 16  1  0  0  0  0
M  RAD  2   2   2   3   3
M  END
