Coordinates from ORCA-job 4-NO2PhN2+~BF4-_B3LYPG-6-31G_dp-NX-Scan-d89-09-n800
 OpenBabel11261920313D

 20 19  0  0  0  0  0  0  0  0999 V2000
   -1.8882   -1.0315    0.1368 C   0  0  0  0  0  0  0  0  0  0  0  0
   -2.4145   -2.2849    0.1121 N   0  0  0  0  0  0  0  0  0  0  0  0
   -2.8037   -3.3376    0.1138 N   0  0  0  0  0  0  0  0  0  0  0  0
   -2.2810   -0.1554    1.1755 C   0  0  0  0  0  0  0  0  0  0  0  0
   -1.6564    1.0728    1.2529 C   0  0  0  0  0  0  0  0  0  0  0  0
   -0.7013    1.4004    0.2868 C   0  0  0  0  0  0  0  0  0  0  0  0
    0.0793    2.6524    0.4681 N   0  0  0  0  0  0  0  0  0  0  0  0
   -0.1681    3.3163    1.4651 O   0  0  0  0  0  0  0  0  0  0  0  0
    0.9441    2.8889   -0.3654 O   0  0  0  0  0  0  0  0  0  0  0  0
   -0.3360    0.5454   -0.7605 C   0  0  0  0  0  0  0  0  0  0  0  0
   -0.9368   -0.6889   -0.8567 C   0  0  0  0  0  0  0  0  0  0  0  0
   -3.0439   -0.4479    1.8872 H   0  0  0  0  0  0  0  0  0  0  0  0
   -1.9209    1.8002    2.0061 H   0  0  0  0  0  0  0  0  0  0  0  0
    0.4001    0.8804   -1.4796 H   0  0  0  0  0  0  0  0  0  0  0  0
   -0.6889   -1.3868   -1.6477 H   0  0  0  0  0  0  0  0  0  0  0  0
   -3.3378    2.5600   -0.9063 B   0  0  0  0  0  0  0  0  0  0  0  0
   -4.1082    3.4079   -1.6679 F   0  0  0  0  0  0  0  0  0  0  0  0
   -3.4613    1.2052   -1.2944 F   0  0  0  0  0  0  0  0  0  0  0  0
   -1.9439    2.9112   -1.0669 F   0  0  0  0  0  0  0  0  0  0  0  0
   -3.6392    2.6583    0.4668 F   0  0  0  0  0  0  0  0  0  0  0  0
  1  4  2  0  0  0  0
  2  3  1  0  0  0  0
  2  1  1  0  0  0  0
  4  5  1  0  0  0  0
  4 12  1  0  0  0  0
  5 13  1  0  0  0  0
  6  7  1  0  0  0  0
  6  5  2  0  0  0  0
  7  8  2  0  0  0  0
  9  7  2  0  0  0  0
 10  6  1  0  0  0  0
 11 10  2  0  0  0  0
 11  1  1  0  0  0  0
 14 10  1  0  0  0  0
 15 11  1  0  0  0  0
 16 20  1  0  0  0  0
 17 16  1  0  0  0  0
 18 16  1  0  0  0  0
 19 16  1  0  0  0  0
M  RAD  2   2   2   3   3
M  END
