Coordinates from ORCA-job 4-NO2PhN2+~BF4-_B3LYPG-6-31G_dp-NX-Scan-d89-09-n800
 OpenBabel11261920323D

 20 19  0  0  0  0  0  0  0  0999 V2000
   -2.1603    0.1244    0.4195 C   0  0  0  0  0  0  0  0  0  0  0  0
   -3.3115   -0.6385    0.2420 N   0  0  0  0  0  0  0  0  0  0  0  0
   -4.1919   -1.3111    0.1997 N   0  0  0  0  0  0  0  0  0  0  0  0
   -1.7232    0.2700    1.7482 C   0  0  0  0  0  0  0  0  0  0  0  0
   -0.5606    0.9920    1.9680 C   0  0  0  0  0  0  0  0  0  0  0  0
    0.1086    1.5264    0.8658 C   0  0  0  0  0  0  0  0  0  0  0  0
    1.3572    2.2922    1.1113 N   0  0  0  0  0  0  0  0  0  0  0  0
    1.7160    2.4105    2.2790 O   0  0  0  0  0  0  0  0  0  0  0  0
    1.9363    2.7444    0.1312 O   0  0  0  0  0  0  0  0  0  0  0  0
   -0.3361    1.3790   -0.4449 C   0  0  0  0  0  0  0  0  0  0  0  0
   -1.5020    0.6616   -0.6949 C   0  0  0  0  0  0  0  0  0  0  0  0
   -2.2824   -0.1630    2.5692 H   0  0  0  0  0  0  0  0  0  0  0  0
   -0.1669    1.1474    2.9641 H   0  0  0  0  0  0  0  0  0  0  0  0
    0.2201    1.8304   -1.2566 H   0  0  0  0  0  0  0  0  0  0  0  0
   -1.9155    0.5433   -1.6905 H   0  0  0  0  0  0  0  0  0  0  0  0
   -4.2518    0.8550   -2.2510 B   0  0  0  0  0  0  0  0  0  0  0  0
   -5.4363    0.8514   -2.9318 F   0  0  0  0  0  0  0  0  0  0  0  0
   -3.6745   -0.4684   -2.2266 F   0  0  0  0  0  0  0  0  0  0  0  0
   -3.2848    1.7080   -2.7975 F   0  0  0  0  0  0  0  0  0  0  0  0
   -4.4469    1.2111   -0.8783 F   0  0  0  0  0  0  0  0  0  0  0  0
  1  4  2  0  0  0  0
  2  1  1  0  0  0  0
  3  2  1  0  0  0  0
  4  5  1  0  0  0  0
  4 12  1  0  0  0  0
  5 13  1  0  0  0  0
  6  7  1  0  0  0  0
  6  5  2  0  0  0  0
  7  8  2  0  0  0  0
  9  7  2  0  0  0  0
 10  6  1  0  0  0  0
 11 10  2  0  0  0  0
 11  1  1  0  0  0  0
 14 10  1  0  0  0  0
 15 11  1  0  0  0  0
 16 18  1  0  0  0  0
 16 20  1  0  0  0  0
 17 16  1  0  0  0  0
 19 16  1  0  0  0  0
M  RAD  2   2   2   3   3
M  END
