Coordinates from ORCA-job 4-NO2PhN2+~BF4-_B3LYPG-6-31G_dp-NX-Scan-d89-09-n800
 OpenBabel11261920323D

 20 19  0  0  0  0  0  0  0  0999 V2000
   -2.0258   -0.2672    0.1088 C   0  0  0  0  0  0  0  0  0  0  0  0
   -3.0481   -1.1701   -0.1486 N   0  0  0  0  0  0  0  0  0  0  0  0
   -3.7930   -1.9839   -0.2724 N   0  0  0  0  0  0  0  0  0  0  0  0
   -2.0940    0.4682    1.2983 C   0  0  0  0  0  0  0  0  0  0  0  0
   -1.0680    1.3667    1.5484 C   0  0  0  0  0  0  0  0  0  0  0  0
   -0.0552    1.5065    0.6015 C   0  0  0  0  0  0  0  0  0  0  0  0
    1.0359    2.4734    0.8778 N   0  0  0  0  0  0  0  0  0  0  0  0
    0.9834    3.0855    1.9393 O   0  0  0  0  0  0  0  0  0  0  0  0
    1.9145    2.5807    0.0289 O   0  0  0  0  0  0  0  0  0  0  0  0
   -0.0196    0.7979   -0.5979 C   0  0  0  0  0  0  0  0  0  0  0  0
   -1.0352   -0.1066   -0.8675 C   0  0  0  0  0  0  0  0  0  0  0  0
   -2.9415    0.3621    1.9618 H   0  0  0  0  0  0  0  0  0  0  0  0
   -1.0530    1.9723    2.4452 H   0  0  0  0  0  0  0  0  0  0  0  0
    0.7788    0.9806   -1.3053 H   0  0  0  0  0  0  0  0  0  0  0  0
   -1.0976   -0.6387   -1.8072 H   0  0  0  0  0  0  0  0  0  0  0  0
   -4.0986    1.3476   -1.3174 B   0  0  0  0  0  0  0  0  0  0  0  0
   -5.0957    2.0095   -1.9805 F   0  0  0  0  0  0  0  0  0  0  0  0
   -3.6152    0.2315   -2.0863 F   0  0  0  0  0  0  0  0  0  0  0  0
   -3.0014    2.1681   -1.0154 F   0  0  0  0  0  0  0  0  0  0  0  0
   -4.5773    0.7819   -0.0857 F   0  0  0  0  0  0  0  0  0  0  0  0
  1  4  2  0  0  0  0
  2  1  1  0  0  0  0
  3  2  1  0  0  0  0
  4  5  1  0  0  0  0
  4 12  1  0  0  0  0
  5 13  1  0  0  0  0
  6  7  1  0  0  0  0
  6  5  2  0  0  0  0
  7  8  2  0  0  0  0
  9  7  2  0  0  0  0
 10  6  1  0  0  0  0
 11 10  2  0  0  0  0
 11  1  1  0  0  0  0
 14 10  1  0  0  0  0
 15 11  1  0  0  0  0
 16 19  1  0  0  0  0
 16 20  1  0  0  0  0
 17 16  1  0  0  0  0
 18 16  1  0  0  0  0
M  RAD  2   2   2   3   3
M  END
