Coordinates from ORCA-job 4-NO2PhN2+~BF4-_B3LYPG-6-31G_dp-NX-Scan-d89-09-n800
 OpenBabel11261920323D

 20 19  0  0  0  0  0  0  0  0999 V2000
   -2.1395    0.1683    0.3759 C   0  0  0  0  0  0  0  0  0  0  0  0
   -3.3066   -0.5652    0.1527 N   0  0  0  0  0  0  0  0  0  0  0  0
   -4.1810   -1.2480    0.1429 N   0  0  0  0  0  0  0  0  0  0  0  0
   -1.7534    0.3008    1.7198 C   0  0  0  0  0  0  0  0  0  0  0  0
   -0.5812    0.9937    1.9859 C   0  0  0  0  0  0  0  0  0  0  0  0
    0.1449    1.5107    0.9130 C   0  0  0  0  0  0  0  0  0  0  0  0
    1.4004    2.2462    1.2091 N   0  0  0  0  0  0  0  0  0  0  0  0
    1.7187    2.3503    2.3897 O   0  0  0  0  0  0  0  0  0  0  0  0
    2.0252    2.6903    0.2533 O   0  0  0  0  0  0  0  0  0  0  0  0
   -0.2479    1.3707   -0.4164 C   0  0  0  0  0  0  0  0  0  0  0  0
   -1.4227    0.6875   -0.7094 C   0  0  0  0  0  0  0  0  0  0  0  0
   -2.3555   -0.1169    2.5180 H   0  0  0  0  0  0  0  0  0  0  0  0
   -0.2239    1.1388    2.9972 H   0  0  0  0  0  0  0  0  0  0  0  0
    0.3573    1.8024   -1.2033 H   0  0  0  0  0  0  0  0  0  0  0  0
   -1.8074    0.5374   -1.7129 H   0  0  0  0  0  0  0  0  0  0  0  0
   -4.3433    0.8441   -2.2967 B   0  0  0  0  0  0  0  0  0  0  0  0
   -5.6417    0.4139   -2.4428 F   0  0  0  0  0  0  0  0  0  0  0  0
   -3.4565   -0.3077   -2.3361 F   0  0  0  0  0  0  0  0  0  0  0  0
   -3.9309    1.7574   -3.2385 F   0  0  0  0  0  0  0  0  0  0  0  0
   -4.1613    1.3914   -0.9754 F   0  0  0  0  0  0  0  0  0  0  0  0
  1  4  2  0  0  0  0
  2  1  1  0  0  0  0
  3  2  1  0  0  0  0
  4  5  1  0  0  0  0
  4 12  1  0  0  0  0
  5 13  1  0  0  0  0
  6  7  1  0  0  0  0
  6  5  2  0  0  0  0
  7  8  2  0  0  0  0
  9  7  2  0  0  0  0
 10  6  1  0  0  0  0
 11 10  2  0  0  0  0
 11  1  1  0  0  0  0
 14 10  1  0  0  0  0
 15 11  1  0  0  0  0
 16 20  1  0  0  0  0
 17 16  1  0  0  0  0
 18 16  1  0  0  0  0
 19 16  1  0  0  0  0
M  RAD  2   2   2   3   3
M  END
