Coordinates from ORCA-job 4-NO2PhN2+~BF4-_B3LYPG-6-31G_dp-NX-Scan-d89-09-n800
 OpenBabel11261920313D

 20 19  0  0  0  0  0  0  0  0999 V2000
   -1.8834   -1.0461    0.1399 C   0  0  0  0  0  0  0  0  0  0  0  0
   -2.3902   -2.3082    0.1280 N   0  0  0  0  0  0  0  0  0  0  0  0
   -2.7585   -3.3685    0.1440 N   0  0  0  0  0  0  0  0  0  0  0  0
   -2.2848   -0.1670    1.1732 C   0  0  0  0  0  0  0  0  0  0  0  0
   -1.6706    1.0669    1.2444 C   0  0  0  0  0  0  0  0  0  0  0  0
   -0.7150    1.3966    0.2789 C   0  0  0  0  0  0  0  0  0  0  0  0
    0.0681    2.6467    0.4649 N   0  0  0  0  0  0  0  0  0  0  0  0
   -0.1809    3.3091    1.4624 O   0  0  0  0  0  0  0  0  0  0  0  0
    0.9373    2.8814   -0.3645 O   0  0  0  0  0  0  0  0  0  0  0  0
   -0.3455    0.5404   -0.7661 C   0  0  0  0  0  0  0  0  0  0  0  0
   -0.9364   -0.6992   -0.8567 C   0  0  0  0  0  0  0  0  0  0  0  0
   -3.0438   -0.4631    1.8877 H   0  0  0  0  0  0  0  0  0  0  0  0
   -1.9405    1.7958    1.9941 H   0  0  0  0  0  0  0  0  0  0  0  0
    0.3888    0.8776   -1.4861 H   0  0  0  0  0  0  0  0  0  0  0  0
   -0.6820   -1.3990   -1.6440 H   0  0  0  0  0  0  0  0  0  0  0  0
   -3.3346    2.5917   -0.9076 B   0  0  0  0  0  0  0  0  0  0  0  0
   -4.0917    3.4606   -1.6590 F   0  0  0  0  0  0  0  0  0  0  0  0
   -3.4805    1.2434   -1.3046 F   0  0  0  0  0  0  0  0  0  0  0  0
   -1.9341    2.9210   -1.0708 F   0  0  0  0  0  0  0  0  0  0  0  0
   -3.6281    2.6859    0.4677 F   0  0  0  0  0  0  0  0  0  0  0  0
  1  4  2  0  0  0  0
  2  1  1  0  0  0  0
  2  3  1  0  0  0  0
  4  5  1  0  0  0  0
  4 12  1  0  0  0  0
  5 13  1  0  0  0  0
  6  7  1  0  0  0  0
  6  5  2  0  0  0  0
  7  8  2  0  0  0  0
  9  7  2  0  0  0  0
 10  6  1  0  0  0  0
 11 10  2  0  0  0  0
 11  1  1  0  0  0  0
 14 10  1  0  0  0  0
 15 11  1  0  0  0  0
 16 20  1  0  0  0  0
 17 16  1  0  0  0  0
 18 16  1  0  0  0  0
 19 16  1  0  0  0  0
M  RAD  2   2   2   3   3
M  END
