Coordinates from ORCA-job 4-NO2PhN2+~BF4-_B3LYPG-6-31G_dp-NX-Scan-d89-09-n800
 OpenBabel11261920313D

 20 19  0  0  0  0  0  0  0  0999 V2000
   -1.6412   -1.3608    0.1470 C   0  0  0  0  0  0  0  0  0  0  0  0
   -2.0150   -2.6687    0.2739 N   0  0  0  0  0  0  0  0  0  0  0  0
   -2.2750   -3.7532    0.3921 N   0  0  0  0  0  0  0  0  0  0  0  0
   -2.4216   -0.3462    0.7606 C   0  0  0  0  0  0  0  0  0  0  0  0
   -1.9513    0.9545    0.7151 C   0  0  0  0  0  0  0  0  0  0  0  0
   -0.7468    1.1972    0.0447 C   0  0  0  0  0  0  0  0  0  0  0  0
   -0.1210    2.5385    0.1332 N   0  0  0  0  0  0  0  0  0  0  0  0
   -0.3371    3.1587    1.1610 O   0  0  0  0  0  0  0  0  0  0  0  0
    0.6258    2.8548   -0.7839 O   0  0  0  0  0  0  0  0  0  0  0  0
   -0.0139    0.2084   -0.6227 C   0  0  0  0  0  0  0  0  0  0  0  0
   -0.4470   -1.1017   -0.5690 C   0  0  0  0  0  0  0  0  0  0  0  0
   -3.3579   -0.5868    1.2509 H   0  0  0  0  0  0  0  0  0  0  0  0
   -2.5107    1.7987    1.1337 H   0  0  0  0  0  0  0  0  0  0  0  0
    0.8877    0.4863   -1.1547 H   0  0  0  0  0  0  0  0  0  0  0  0
    0.1061   -1.9078   -1.0367 H   0  0  0  0  0  0  0  0  0  0  0  0
   -3.5690    3.3217   -0.5219 B   0  0  0  0  0  0  0  0  0  0  0  0
   -4.0943    4.5057   -0.9931 F   0  0  0  0  0  0  0  0  0  0  0  0
   -4.3623    2.2031   -0.8102 F   0  0  0  0  0  0  0  0  0  0  0  0
   -2.2708    3.0871   -1.0918 F   0  0  0  0  0  0  0  0  0  0  0  0
   -3.3911    3.3767    0.8977 F   0  0  0  0  0  0  0  0  0  0  0  0
  1  2  1  0  0  0  0
  1  4  2  0  0  0  0
  2  3  1  0  0  0  0
  4 12  1  0  0  0  0
  5  4  1  0  0  0  0
  5 13  1  0  0  0  0
  6  7  1  0  0  0  0
  6  5  2  0  0  0  0
  7  8  2  0  0  0  0
  9  7  2  0  0  0  0
 10 11  2  0  0  0  0
 10  6  1  0  0  0  0
 11  1  1  0  0  0  0
 14 10  1  0  0  0  0
 15 11  1  0  0  0  0
 16 20  1  0  0  0  0
 17 16  1  0  0  0  0
 18 16  1  0  0  0  0
 19 16  1  0  0  0  0
M  RAD  2   2   2   3   3
M  END
