Coordinates from ORCA-job 4-NO2PhN2+~BF4-_B3LYPG-6-31G_dp-NX-Scan-d89-09-n800
 OpenBabel11261920313D

 20 19  0  0  0  0  0  0  0  0999 V2000
   -1.9006   -0.9869    0.1335 C   0  0  0  0  0  0  0  0  0  0  0  0
   -2.4921   -2.2084    0.0681 N   0  0  0  0  0  0  0  0  0  0  0  0
   -2.9436   -3.2347    0.0327 N   0  0  0  0  0  0  0  0  0  0  0  0
   -2.2645   -0.1208    1.1892 C   0  0  0  0  0  0  0  0  0  0  0  0
   -1.6089    1.0903    1.2814 C   0  0  0  0  0  0  0  0  0  0  0  0
   -0.6569    1.4102    0.3115 C   0  0  0  0  0  0  0  0  0  0  0  0
    0.1171    2.6673    0.4766 N   0  0  0  0  0  0  0  0  0  0  0  0
   -0.1221    3.3361    1.4728 O   0  0  0  0  0  0  0  0  0  0  0  0
    0.9663    2.9085   -0.3718 O   0  0  0  0  0  0  0  0  0  0  0  0
   -0.3079    0.5589   -0.7432 C   0  0  0  0  0  0  0  0  0  0  0  0
   -0.9405   -0.6583   -0.8550 C   0  0  0  0  0  0  0  0  0  0  0  0
   -3.0378   -0.4009    1.8943 H   0  0  0  0  0  0  0  0  0  0  0  0
   -1.8552    1.8135    2.0449 H   0  0  0  0  0  0  0  0  0  0  0  0
    0.4317    0.8868   -1.4620 H   0  0  0  0  0  0  0  0  0  0  0  0
   -0.7167   -1.3493   -1.6590 H   0  0  0  0  0  0  0  0  0  0  0  0
   -3.3507    2.4633   -0.9104 B   0  0  0  0  0  0  0  0  0  0  0  0
   -4.1594    3.2600   -1.6862 F   0  0  0  0  0  0  0  0  0  0  0  0
   -3.3856    1.1031   -1.3135 F   0  0  0  0  0  0  0  0  0  0  0  0
   -1.9835    2.9021   -1.0334 F   0  0  0  0  0  0  0  0  0  0  0  0
   -3.6955    2.5253    0.4553 F   0  0  0  0  0  0  0  0  0  0  0  0
  1  4  2  0  0  0  0
  2  1  1  0  0  0  0
  3  2  1  0  0  0  0
  4  5  1  0  0  0  0
  4 12  1  0  0  0  0
  5 13  1  0  0  0  0
  6  7  1  0  0  0  0
  6  5  2  0  0  0  0
  7  8  2  0  0  0  0
  9  7  2  0  0  0  0
 10  6  1  0  0  0  0
 11 10  2  0  0  0  0
 11  1  1  0  0  0  0
 14 10  1  0  0  0  0
 15 11  1  0  0  0  0
 16 20  1  0  0  0  0
 17 16  1  0  0  0  0
 18 16  1  0  0  0  0
 19 16  1  0  0  0  0
M  RAD  2   2   2   3   3
M  END
