Coordinates from ORCA-job 4-NO2PhN2+~BF4-_B3LYPG-6-31G_dp-NX-Scan-d89-09-n800
 OpenBabel11261920323D

 20 19  0  0  0  0  0  0  0  0999 V2000
   -2.1456    0.1600    0.3829 C   0  0  0  0  0  0  0  0  0  0  0  0
   -3.3090   -0.5829    0.1719 N   0  0  0  0  0  0  0  0  0  0  0  0
   -4.1814   -1.2678    0.1661 N   0  0  0  0  0  0  0  0  0  0  0  0
   -1.7479    0.2943    1.7233 C   0  0  0  0  0  0  0  0  0  0  0  0
   -0.5777    0.9939    1.9800 C   0  0  0  0  0  0  0  0  0  0  0  0
    0.1362    1.5154    0.9012 C   0  0  0  0  0  0  0  0  0  0  0  0
    1.3915    2.2556    1.1865 N   0  0  0  0  0  0  0  0  0  0  0  0
    1.7174    2.3642    2.3646 O   0  0  0  0  0  0  0  0  0  0  0  0
    2.0086    2.6982    0.2252 O   0  0  0  0  0  0  0  0  0  0  0  0
   -0.2688    1.3757   -0.4244 C   0  0  0  0  0  0  0  0  0  0  0  0
   -1.4421    0.6858   -0.7081 C   0  0  0  0  0  0  0  0  0  0  0  0
   -2.3404   -0.1277    2.5266 H   0  0  0  0  0  0  0  0  0  0  0  0
   -0.2126    1.1404    2.9883 H   0  0  0  0  0  0  0  0  0  0  0  0
    0.3260    1.8121   -1.2167 H   0  0  0  0  0  0  0  0  0  0  0  0
   -1.8329    0.5408   -1.7097 H   0  0  0  0  0  0  0  0  0  0  0  0
   -4.3211    0.8470   -2.2849 B   0  0  0  0  0  0  0  0  0  0  0  0
   -5.6179    0.5004   -2.5739 F   0  0  0  0  0  0  0  0  0  0  0  0
   -3.4915   -0.3472   -2.2953 F   0  0  0  0  0  0  0  0  0  0  0  0
   -3.7633    1.7701   -3.1444 F   0  0  0  0  0  0  0  0  0  0  0  0
   -4.2339    1.3377   -0.9333 F   0  0  0  0  0  0  0  0  0  0  0  0
  1  4  2  0  0  0  0
  2  1  1  0  0  0  0
  3  2  1  0  0  0  0
  4  5  1  0  0  0  0
  4 12  1  0  0  0  0
  5 13  1  0  0  0  0
  6  7  1  0  0  0  0
  6  5  2  0  0  0  0
  7  8  2  0  0  0  0
  9  7  2  0  0  0  0
 10  6  1  0  0  0  0
 11 10  2  0  0  0  0
 11  1  1  0  0  0  0
 14 10  1  0  0  0  0
 15 11  1  0  0  0  0
 16 20  1  0  0  0  0
 17 16  1  0  0  0  0
 18 16  1  0  0  0  0
 19 16  1  0  0  0  0
M  RAD  2   2   2   3   3
M  END
