Coordinates from ORCA-job 4-NO2PhN2+~BF4-_B3LYPG-6-31G_dp-NX-Scan-d89-09-n800
 OpenBabel11261920323D

 20 19  0  0  0  0  0  0  0  0999 V2000
   -2.3318    0.5978    0.8168 C   0  0  0  0  0  0  0  0  0  0  0  0
   -3.7169    0.2696    0.8648 N   0  0  0  0  0  0  0  0  0  0  0  0
   -4.4045   -0.1384   -0.0592 N   0  0  0  0  0  0  0  0  0  0  0  0
   -1.6473    0.3645    2.0196 C   0  0  0  0  0  0  0  0  0  0  0  0
   -0.3007    0.6870    2.1332 C   0  0  0  0  0  0  0  0  0  0  0  0
    0.3298    1.2875    1.0458 C   0  0  0  0  0  0  0  0  0  0  0  0
    1.7540    1.6531    1.1622 N   0  0  0  0  0  0  0  0  0  0  0  0
    2.3184    1.3991    2.2242 O   0  0  0  0  0  0  0  0  0  0  0  0
    2.2836    2.1882    0.1905 O   0  0  0  0  0  0  0  0  0  0  0  0
   -0.3412    1.5666   -0.1431 C   0  0  0  0  0  0  0  0  0  0  0  0
   -1.6800    1.2118   -0.2678 C   0  0  0  0  0  0  0  0  0  0  0  0
   -2.1872   -0.0746    2.8511 H   0  0  0  0  0  0  0  0  0  0  0  0
    0.2578    0.5022    3.0420 H   0  0  0  0  0  0  0  0  0  0  0  0
    0.1913    2.0466   -0.9544 H   0  0  0  0  0  0  0  0  0  0  0  0
   -2.2076    1.4250   -1.1870 H   0  0  0  0  0  0  0  0  0  0  0  0
   -4.6198    0.8103   -3.2867 B   0  0  0  0  0  0  0  0  0  0  0  0
   -3.7407   -0.3129   -1.2107 F   0  0  0  0  0  0  0  0  0  0  0  0
   -3.5997    1.6520   -3.1814 F   0  0  0  0  0  0  0  0  0  0  0  0
   -4.4977   -0.2729   -4.0253 F   0  0  0  0  0  0  0  0  0  0  0  0
   -5.7663    1.1036   -2.7085 F   0  0  0  0  0  0  0  0  0  0  0  0
  1  2  1  0  0  0  0
  1  4  2  0  0  0  0
  3  2  1  0  0  0  0
  4  5  1  0  0  0  0
  4 12  1  0  0  0  0
  5 13  1  0  0  0  0
  6  7  1  0  0  0  0
  6  5  2  0  0  0  0
  7  8  2  0  0  0  0
  9  7  2  0  0  0  0
 10  6  1  0  0  0  0
 11 10  2  0  0  0  0
 11  1  1  0  0  0  0
 14 10  1  0  0  0  0
 15 11  1  0  0  0  0
 16 18  1  0  0  0  0
 16 20  1  0  0  0  0
 17  3  1  0  0  0  0
 19 16  1  0  0  0  0
M  RAD  2   2   2   3   2
M  END
