Coordinates from ORCA-job 4-NO2PhN2+~BF4-_B3LYPG-6-31G_dp-NX-Scan-d89-09-n800
 OpenBabel11261920323D

 20 19  0  0  0  0  0  0  0  0999 V2000
   -1.9409   -0.5504   -0.0136 C   0  0  0  0  0  0  0  0  0  0  0  0
   -2.7635   -1.6246   -0.2476 N   0  0  0  0  0  0  0  0  0  0  0  0
   -3.3403   -2.5681   -0.3977 N   0  0  0  0  0  0  0  0  0  0  0  0
   -2.2326    0.2862    1.0757 C   0  0  0  0  0  0  0  0  0  0  0  0
   -1.3404    1.3207    1.3332 C   0  0  0  0  0  0  0  0  0  0  0  0
   -0.2430    1.4818    0.4998 C   0  0  0  0  0  0  0  0  0  0  0  0
    0.7007    2.5898    0.7871 N   0  0  0  0  0  0  0  0  0  0  0  0
    0.4700    3.2787    1.7743 O   0  0  0  0  0  0  0  0  0  0  0  0
    1.6510    2.7241    0.0225 O   0  0  0  0  0  0  0  0  0  0  0  0
    0.0219    0.6660   -0.6052 C   0  0  0  0  0  0  0  0  0  0  0  0
   -0.8417   -0.3739   -0.8806 C   0  0  0  0  0  0  0  0  0  0  0  0
   -3.1269    0.1462    1.6647 H   0  0  0  0  0  0  0  0  0  0  0  0
   -1.5126    2.0154    2.1442 H   0  0  0  0  0  0  0  0  0  0  0  0
    0.8845    0.8679   -1.2263 H   0  0  0  0  0  0  0  0  0  0  0  0
   -0.6958   -1.0288   -1.7310 H   0  0  0  0  0  0  0  0  0  0  0  0
   -3.9385    1.7740   -0.9987 B   0  0  0  0  0  0  0  0  0  0  0  0
   -4.7750    2.6502   -1.6540 F   0  0  0  0  0  0  0  0  0  0  0  0
   -4.2503    0.4023   -1.2731 F   0  0  0  0  0  0  0  0  0  0  0  0
   -2.5891    1.9749   -1.3638 F   0  0  0  0  0  0  0  0  0  0  0  0
   -4.0439    1.9338    0.4159 F   0  0  0  0  0  0  0  0  0  0  0  0
  1  4  2  0  0  0  0
  2  1  1  0  0  0  0
  3  2  1  0  0  0  0
  4  5  1  0  0  0  0
  4 12  1  0  0  0  0
  5 13  1  0  0  0  0
  6  7  1  0  0  0  0
  6  5  2  0  0  0  0
  7  8  2  0  0  0  0
  9  7  2  0  0  0  0
 10  6  1  0  0  0  0
 11 10  2  0  0  0  0
 11  1  1  0  0  0  0
 14 10  1  0  0  0  0
 15 11  1  0  0  0  0
 16 20  1  0  0  0  0
 17 16  1  0  0  0  0
 18 16  1  0  0  0  0
 19 16  1  0  0  0  0
M  RAD  2   2   2   3   3
M  END
