Coordinates from ORCA-job 4-NO2PhN2+~BF4-_B3LYPG-6-31G_dp-NX-Scan-d89-09-n800
 OpenBabel11261920323D

 20 19  0  0  0  0  0  0  0  0999 V2000
   -1.9448   -0.4498   -0.0035 C   0  0  0  0  0  0  0  0  0  0  0  0
   -2.8567   -1.4432   -0.2873 N   0  0  0  0  0  0  0  0  0  0  0  0
   -3.5213   -2.3157   -0.4767 N   0  0  0  0  0  0  0  0  0  0  0  0
   -2.1860    0.3629    1.1139 C   0  0  0  0  0  0  0  0  0  0  0  0
   -1.2490    1.3517    1.3883 C   0  0  0  0  0  0  0  0  0  0  0  0
   -0.1573    1.4951    0.5407 C   0  0  0  0  0  0  0  0  0  0  0  0
    0.8354    2.5554    0.8459 N   0  0  0  0  0  0  0  0  0  0  0  0
    0.6400    3.2316    1.8496 O   0  0  0  0  0  0  0  0  0  0  0  0
    1.7846    2.6681    0.0767 O   0  0  0  0  0  0  0  0  0  0  0  0
    0.0581    0.7004   -0.5876 C   0  0  0  0  0  0  0  0  0  0  0  0
   -0.8550   -0.2958   -0.8787 C   0  0  0  0  0  0  0  0  0  0  0  0
   -3.0817    0.2452    1.7053 H   0  0  0  0  0  0  0  0  0  0  0  0
   -1.3723    2.0217    2.2288 H   0  0  0  0  0  0  0  0  0  0  0  0
    0.9200    0.8823   -1.2158 H   0  0  0  0  0  0  0  0  0  0  0  0
   -0.7523   -0.9260   -1.7535 H   0  0  0  0  0  0  0  0  0  0  0  0
   -4.0502    1.6126   -1.0611 B   0  0  0  0  0  0  0  0  0  0  0  0
   -4.9502    2.3700   -1.7648 F   0  0  0  0  0  0  0  0  0  0  0  0
   -4.2169    0.2128   -1.3650 F   0  0  0  0  0  0  0  0  0  0  0  0
   -2.7161    1.9448   -1.3700 F   0  0  0  0  0  0  0  0  0  0  0  0
   -4.2347    1.7420    0.3407 F   0  0  0  0  0  0  0  0  0  0  0  0
  1  4  2  0  0  0  0
  2  1  1  0  0  0  0
  3  2  1  0  0  0  0
  4  5  1  0  0  0  0
  4 12  1  0  0  0  0
  5 13  1  0  0  0  0
  6  7  1  0  0  0  0
  6  5  2  0  0  0  0
  7  8  2  0  0  0  0
  9  7  2  0  0  0  0
 10  6  1  0  0  0  0
 11 10  2  0  0  0  0
 11  1  1  0  0  0  0
 14 10  1  0  0  0  0
 15 11  1  0  0  0  0
 16 20  1  0  0  0  0
 17 16  1  0  0  0  0
 18 16  1  0  0  0  0
 19 16  1  0  0  0  0
M  RAD  2   2   2   3   3
M  END
