Coordinates from ORCA-job 4-NO2PhN2+~BF4-_B3LYPG-6-31G_dp-NX-Scan-d89-09-n800
 OpenBabel11261920323D

 20 19  0  0  0  0  0  0  0  0999 V2000
   -2.1377    0.1727    0.3729 C   0  0  0  0  0  0  0  0  0  0  0  0
   -3.3046   -0.5600    0.1454 N   0  0  0  0  0  0  0  0  0  0  0  0
   -4.1782   -1.2439    0.1341 N   0  0  0  0  0  0  0  0  0  0  0  0
   -1.7566    0.3059    1.7181 C   0  0  0  0  0  0  0  0  0  0  0  0
   -0.5835    0.9961    1.9875 C   0  0  0  0  0  0  0  0  0  0  0  0
    0.1483    1.5093    0.9166 C   0  0  0  0  0  0  0  0  0  0  0  0
    1.4052    2.2409    1.2163 N   0  0  0  0  0  0  0  0  0  0  0  0
    1.7192    2.3462    2.3979 O   0  0  0  0  0  0  0  0  0  0  0  0
    2.0352    2.6810    0.2621 O   0  0  0  0  0  0  0  0  0  0  0  0
   -0.2400    1.3687   -0.4140 C   0  0  0  0  0  0  0  0  0  0  0  0
   -1.4159    0.6888   -0.7104 C   0  0  0  0  0  0  0  0  0  0  0  0
   -2.3627   -0.1092    2.5146 H   0  0  0  0  0  0  0  0  0  0  0  0
   -0.2295    1.1417    3.0000 H   0  0  0  0  0  0  0  0  0  0  0  0
    0.3696    1.7974   -1.1992 H   0  0  0  0  0  0  0  0  0  0  0  0
   -1.7985    0.5380   -1.7146 H   0  0  0  0  0  0  0  0  0  0  0  0
   -4.3520    0.8425   -2.2989 B   0  0  0  0  0  0  0  0  0  0  0  0
   -5.6450    0.3814   -2.4056 F   0  0  0  0  0  0  0  0  0  0  0  0
   -3.4426   -0.2908   -2.3529 F   0  0  0  0  0  0  0  0  0  0  0  0
   -3.9894    1.7572   -3.2579 F   0  0  0  0  0  0  0  0  0  0  0  0
   -4.1479    1.4024   -0.9860 F   0  0  0  0  0  0  0  0  0  0  0  0
  1  4  2  0  0  0  0
  2  1  1  0  0  0  0
  3  2  1  0  0  0  0
  4  5  1  0  0  0  0
  4 12  1  0  0  0  0
  5 13  1  0  0  0  0
  6  7  1  0  0  0  0
  6  5  2  0  0  0  0
  7  8  2  0  0  0  0
  9  7  2  0  0  0  0
 10  6  1  0  0  0  0
 11 10  2  0  0  0  0
 11  1  1  0  0  0  0
 14 10  1  0  0  0  0
 15 11  1  0  0  0  0
 16 20  1  0  0  0  0
 17 16  1  0  0  0  0
 18 16  1  0  0  0  0
 19 16  1  0  0  0  0
M  RAD  2   2   2   3   3
M  END
