Coordinates from ORCA-job 4-NO2PhN2+~BF4-_B3LYPG-6-31G_dp-NX-Scan-d89-09-n800
 OpenBabel11261920323D

 20 19  0  0  0  0  0  0  0  0999 V2000
   -1.9356   -0.5846   -0.0152 C   0  0  0  0  0  0  0  0  0  0  0  0
   -2.7271   -1.6846   -0.2284 N   0  0  0  0  0  0  0  0  0  0  0  0
   -3.2800   -2.6454   -0.3642 N   0  0  0  0  0  0  0  0  0  0  0  0
   -2.2455    0.2617    1.0623 C   0  0  0  0  0  0  0  0  0  0  0  0
   -1.3683    1.3108    1.3132 C   0  0  0  0  0  0  0  0  0  0  0  0
   -0.2674    1.4755    0.4860 C   0  0  0  0  0  0  0  0  0  0  0  0
    0.6609    2.5976    0.7673 N   0  0  0  0  0  0  0  0  0  0  0  0
    0.4188    3.2907    1.7486 O   0  0  0  0  0  0  0  0  0  0  0  0
    1.6122    2.7372    0.0047 O   0  0  0  0  0  0  0  0  0  0  0  0
    0.0141    0.6519   -0.6100 C   0  0  0  0  0  0  0  0  0  0  0  0
   -0.8327   -0.4024   -0.8787 C   0  0  0  0  0  0  0  0  0  0  0  0
   -3.1417    0.1180    1.6476 H   0  0  0  0  0  0  0  0  0  0  0  0
   -1.5580    2.0148    2.1120 H   0  0  0  0  0  0  0  0  0  0  0  0
    0.8773    0.8593   -1.2284 H   0  0  0  0  0  0  0  0  0  0  0  0
   -0.6712   -1.0669   -1.7188 H   0  0  0  0  0  0  0  0  0  0  0  0
   -3.9122    1.8313   -0.9799 B   0  0  0  0  0  0  0  0  0  0  0  0
   -4.7312    2.7401   -1.6148 F   0  0  0  0  0  0  0  0  0  0  0  0
   -4.2568    0.4745   -1.2645 F   0  0  0  0  0  0  0  0  0  0  0  0
   -2.5602    2.0063   -1.3523 F   0  0  0  0  0  0  0  0  0  0  0  0
   -4.0019    1.9804    0.4398 F   0  0  0  0  0  0  0  0  0  0  0  0
  1  4  2  0  0  0  0
  2  1  1  0  0  0  0
  3  2  1  0  0  0  0
  4  5  1  0  0  0  0
  4 12  1  0  0  0  0
  5 13  1  0  0  0  0
  6  7  1  0  0  0  0
  6  5  2  0  0  0  0
  7  8  2  0  0  0  0
  9  7  2  0  0  0  0
 10  6  1  0  0  0  0
 11 10  2  0  0  0  0
 11  1  1  0  0  0  0
 14 10  1  0  0  0  0
 15 11  1  0  0  0  0
 16 20  1  0  0  0  0
 17 16  1  0  0  0  0
 18 16  1  0  0  0  0
 19 16  1  0  0  0  0
M  RAD  2   2   2   3   3
M  END
