Coordinates from ORCA-job 4-NO2PhN2+~BF4-_B3LYPG-6-31G_dp-NX-Scan-d89-09-n800
 OpenBabel11261920323D

 20 19  0  0  0  0  0  0  0  0999 V2000
   -1.9250   -0.8611    0.1312 C   0  0  0  0  0  0  0  0  0  0  0  0
   -2.6700   -1.9874   -0.0201 N   0  0  0  0  0  0  0  0  0  0  0  0
   -3.2642   -2.9295   -0.1362 N   0  0  0  0  0  0  0  0  0  0  0  0
   -2.2285   -0.0039    1.2094 C   0  0  0  0  0  0  0  0  0  0  0  0
   -1.4764    1.1483    1.3383 C   0  0  0  0  0  0  0  0  0  0  0  0
   -0.5140    1.4261    0.3724 C   0  0  0  0  0  0  0  0  0  0  0  0
    0.2628    2.6833    0.5005 N   0  0  0  0  0  0  0  0  0  0  0  0
    0.0509    3.3681    1.4927 O   0  0  0  0  0  0  0  0  0  0  0  0
    1.0787    2.9219   -0.3819 O   0  0  0  0  0  0  0  0  0  0  0  0
   -0.2054    0.5715   -0.6913 C   0  0  0  0  0  0  0  0  0  0  0  0
   -0.9238   -0.5942   -0.8330 C   0  0  0  0  0  0  0  0  0  0  0  0
   -3.0428   -0.2271    1.8863 H   0  0  0  0  0  0  0  0  0  0  0  0
   -1.6827    1.8726    2.1135 H   0  0  0  0  0  0  0  0  0  0  0  0
    0.5552    0.8635   -1.4033 H   0  0  0  0  0  0  0  0  0  0  0  0
   -0.7550   -1.2760   -1.6576 H   0  0  0  0  0  0  0  0  0  0  0  0
   -3.4574    2.2146   -0.9350 B   0  0  0  0  0  0  0  0  0  0  0  0
   -4.3405    2.9801   -1.6581 F   0  0  0  0  0  0  0  0  0  0  0  0
   -3.2656    0.9346   -1.5282 F   0  0  0  0  0  0  0  0  0  0  0  0
   -2.1856    2.8588   -0.8647 F   0  0  0  0  0  0  0  0  0  0  0  0
   -3.9170    2.0020    0.3910 F   0  0  0  0  0  0  0  0  0  0  0  0
  1  4  2  0  0  0  0
  2  1  1  0  0  0  0
  3  2  1  0  0  0  0
  4  5  1  0  0  0  0
  4 12  1  0  0  0  0
  5 13  1  0  0  0  0
  6  7  1  0  0  0  0
  6  5  2  0  0  0  0
  7  8  2  0  0  0  0
  9  7  2  0  0  0  0
 10  6  1  0  0  0  0
 11 10  2  0  0  0  0
 11  1  1  0  0  0  0
 14 10  1  0  0  0  0
 15 11  1  0  0  0  0
 16 19  1  0  0  0  0
 16 20  1  0  0  0  0
 17 16  1  0  0  0  0
 18 16  1  0  0  0  0
M  RAD  2   2   2   3   3
M  END
