Coordinates from ORCA-job 4-NO2PhN2+~BF4-_B3LYPG-6-31G_dp-NX-Scan-d89-09-n800
 OpenBabel11261920323D

 20 19  0  0  0  0  0  0  0  0999 V2000
   -2.2673    0.2762    0.5669 C   0  0  0  0  0  0  0  0  0  0  0  0
   -3.5157   -0.3244    0.4023 N   0  0  0  0  0  0  0  0  0  0  0  0
   -4.4126   -0.7364   -0.1532 N   0  0  0  0  0  0  0  0  0  0  0  0
   -1.8054    0.4161    1.8841 C   0  0  0  0  0  0  0  0  0  0  0  0
   -0.5613    0.9951    2.0891 C   0  0  0  0  0  0  0  0  0  0  0  0
    0.1671    1.4057    0.9730 C   0  0  0  0  0  0  0  0  0  0  0  0
    1.4991    2.0216    1.1933 N   0  0  0  0  0  0  0  0  0  0  0  0
    1.8752    2.1354    2.3562 O   0  0  0  0  0  0  0  0  0  0  0  0
    2.1263    2.3694    0.1993 O   0  0  0  0  0  0  0  0  0  0  0  0
   -0.2946    1.2666   -0.3340 C   0  0  0  0  0  0  0  0  0  0  0  0
   -1.5411    0.6904   -0.5608 C   0  0  0  0  0  0  0  0  0  0  0  0
   -2.4147    0.0789    2.7145 H   0  0  0  0  0  0  0  0  0  0  0  0
   -0.1496    1.1329    3.0805 H   0  0  0  0  0  0  0  0  0  0  0  0
    0.3158    1.6130   -1.1583 H   0  0  0  0  0  0  0  0  0  0  0  0
   -1.9374    0.5893   -1.5666 H   0  0  0  0  0  0  0  0  0  0  0  0
   -4.2253    0.8815   -2.5155 B   0  0  0  0  0  0  0  0  0  0  0  0
   -4.1574   -0.5452   -1.9869 F   0  0  0  0  0  0  0  0  0  0  0  0
   -3.0133    1.0497   -3.1797 F   0  0  0  0  0  0  0  0  0  0  0  0
   -5.3190    0.9808   -3.3111 F   0  0  0  0  0  0  0  0  0  0  0  0
   -4.2752    1.6696   -1.3672 F   0  0  0  0  0  0  0  0  0  0  0  0
  1  4  2  0  0  0  0
  2  1  1  0  0  0  0
  3  2  1  0  0  0  0
  4  5  1  0  0  0  0
  4 12  1  0  0  0  0
  5 13  1  0  0  0  0
  6  7  1  0  0  0  0
  6  5  2  0  0  0  0
  7  8  2  0  0  0  0
  9  7  2  0  0  0  0
 10  6  1  0  0  0  0
 11 10  2  0  0  0  0
 11  1  1  0  0  0  0
 14 10  1  0  0  0  0
 15 11  1  0  0  0  0
 16 17  1  0  0  0  0
 16 20  1  0  0  0  0
 18 16  1  0  0  0  0
 19 16  1  0  0  0  0
M  RAD  2   2   2   3   3
M  END
