Coordinates from ORCA-job 4-NO2PhN2+~BF4-_B3LYPG-6-31G_dp-NX-Scan-d89-09-n800
 OpenBabel11261920323D

 20 19  0  0  0  0  0  0  0  0999 V2000
   -2.1452    0.2503    0.3759 C   0  0  0  0  0  0  0  0  0  0  0  0
   -3.3355   -0.4259    0.1108 N   0  0  0  0  0  0  0  0  0  0  0  0
   -4.2562   -1.0423    0.0169 N   0  0  0  0  0  0  0  0  0  0  0  0
   -1.7755    0.3487    1.7275 C   0  0  0  0  0  0  0  0  0  0  0  0
   -0.5804    0.9890    2.0207 C   0  0  0  0  0  0  0  0  0  0  0  0
    0.1860    1.4840    0.9648 C   0  0  0  0  0  0  0  0  0  0  0  0
    1.4684    2.1587    1.2893 N   0  0  0  0  0  0  0  0  0  0  0  0
    1.7690    2.2411    2.4762 O   0  0  0  0  0  0  0  0  0  0  0  0
    2.1310    2.5795    0.3484 O   0  0  0  0  0  0  0  0  0  0  0  0
   -0.1897    1.3756   -0.3719 C   0  0  0  0  0  0  0  0  0  0  0  0
   -1.3901    0.7500   -0.6927 C   0  0  0  0  0  0  0  0  0  0  0  0
   -2.4077   -0.0540    2.5102 H   0  0  0  0  0  0  0  0  0  0  0  0
   -0.2337    1.1084    3.0391 H   0  0  0  0  0  0  0  0  0  0  0  0
    0.4498    1.7861   -1.1430 H   0  0  0  0  0  0  0  0  0  0  0  0
   -1.7672    0.6319   -1.7056 H   0  0  0  0  0  0  0  0  0  0  0  0
   -4.3932    0.7762   -2.3646 B   0  0  0  0  0  0  0  0  0  0  0  0
   -5.4339   -0.0765   -1.9554 F   0  0  0  0  0  0  0  0  0  0  0  0
   -3.2579   -0.0443   -2.6733 F   0  0  0  0  0  0  0  0  0  0  0  0
   -4.7371    1.5719   -3.4207 F   0  0  0  0  0  0  0  0  0  0  0  0
   -4.0072    1.5578   -1.2268 F   0  0  0  0  0  0  0  0  0  0  0  0
  1  4  2  0  0  0  0
  2  1  1  0  0  0  0
  3  2  1  0  0  0  0
  4  5  1  0  0  0  0
  4 12  1  0  0  0  0
  5 13  1  0  0  0  0
  6  7  1  0  0  0  0
  6  5  2  0  0  0  0
  7  8  2  0  0  0  0
  9  7  2  0  0  0  0
 10  6  1  0  0  0  0
 11 10  2  0  0  0  0
 11  1  1  0  0  0  0
 14 10  1  0  0  0  0
 15 11  1  0  0  0  0
 16 17  1  0  0  0  0
 16 20  1  0  0  0  0
 18 16  1  0  0  0  0
 19 16  1  0  0  0  0
M  RAD  2   2   2   3   3
M  END
