Coordinates from ORCA-job 4-NO2PhN2+~BF4-_B3LYPG-6-31G_dp-NX-Scan-d89-09-n800
 OpenBabel11261920323D

 20 19  0  0  0  0  0  0  0  0999 V2000
   -1.9436   -0.5210   -0.0124 C   0  0  0  0  0  0  0  0  0  0  0  0
   -2.7929   -1.5720   -0.2637 N   0  0  0  0  0  0  0  0  0  0  0  0
   -3.3907   -2.4993   -0.4259 N   0  0  0  0  0  0  0  0  0  0  0  0
   -2.2207    0.3078    1.0861 C   0  0  0  0  0  0  0  0  0  0  0  0
   -1.3156    1.3292    1.3495 C   0  0  0  0  0  0  0  0  0  0  0  0
   -0.2202    1.4866    0.5117 C   0  0  0  0  0  0  0  0  0  0  0  0
    0.7373    2.5814    0.8051 N   0  0  0  0  0  0  0  0  0  0  0  0
    0.5165    3.2661    1.7974 O   0  0  0  0  0  0  0  0  0  0  0  0
    1.6872    2.7105    0.0391 O   0  0  0  0  0  0  0  0  0  0  0  0
    0.0308    0.6774   -0.6005 C   0  0  0  0  0  0  0  0  0  0  0  0
   -0.8471   -0.3501   -0.8815 C   0  0  0  0  0  0  0  0  0  0  0  0
   -3.1147    0.1725    1.6765 H   0  0  0  0  0  0  0  0  0  0  0  0
   -1.4733    2.0159    2.1704 H   0  0  0  0  0  0  0  0  0  0  0  0
    0.8932    0.8741   -1.2235 H   0  0  0  0  0  0  0  0  0  0  0  0
   -0.7137   -0.9973   -1.7398 H   0  0  0  0  0  0  0  0  0  0  0  0
   -3.9662    1.7261   -1.0148 B   0  0  0  0  0  0  0  0  0  0  0  0
   -4.8195    2.5696   -1.6885 F   0  0  0  0  0  0  0  0  0  0  0  0
   -4.2465    0.3417   -1.2802 F   0  0  0  0  0  0  0  0  0  0  0  0
   -2.6203    1.9524   -1.3739 F   0  0  0  0  0  0  0  0  0  0  0  0
   -4.0864    1.8946    0.3947 F   0  0  0  0  0  0  0  0  0  0  0  0
  1  4  2  0  0  0  0
  2  1  1  0  0  0  0
  3  2  1  0  0  0  0
  4  5  1  0  0  0  0
  4 12  1  0  0  0  0
  5 13  1  0  0  0  0
  6  7  1  0  0  0  0
  6  5  2  0  0  0  0
  7  8  2  0  0  0  0
  9  7  2  0  0  0  0
 10  6  1  0  0  0  0
 11 10  2  0  0  0  0
 11  1  1  0  0  0  0
 14 10  1  0  0  0  0
 15 11  1  0  0  0  0
 16 20  1  0  0  0  0
 17 16  1  0  0  0  0
 18 16  1  0  0  0  0
 19 16  1  0  0  0  0
M  RAD  2   2   2   3   3
M  END
