Coordinates from ORCA-job 4-NO2PhN2+~BF4-_B3LYPG-6-31G_dp-NX-Scan-d89-09-n800
 OpenBabel11261920323D

 20 19  0  0  0  0  0  0  0  0999 V2000
   -2.1325    0.1820    0.3622 C   0  0  0  0  0  0  0  0  0  0  0  0
   -3.2954   -0.5542    0.1234 N   0  0  0  0  0  0  0  0  0  0  0  0
   -4.1609   -1.2487    0.1084 N   0  0  0  0  0  0  0  0  0  0  0  0
   -1.7688    0.3250    1.7110 C   0  0  0  0  0  0  0  0  0  0  0  0
   -0.5946    1.0100    1.9893 C   0  0  0  0  0  0  0  0  0  0  0  0
    0.1561    1.5058    0.9233 C   0  0  0  0  0  0  0  0  0  0  0  0
    1.4170    2.2266    1.2323 N   0  0  0  0  0  0  0  0  0  0  0  0
    1.7125    2.3475    2.4172 O   0  0  0  0  0  0  0  0  0  0  0  0
    2.0687    2.6425    0.2818 O   0  0  0  0  0  0  0  0  0  0  0  0
   -0.2166    1.3571   -0.4109 C   0  0  0  0  0  0  0  0  0  0  0  0
   -1.3949    0.6853   -0.7160 C   0  0  0  0  0  0  0  0  0  0  0  0
   -2.3883   -0.0786    2.5033 H   0  0  0  0  0  0  0  0  0  0  0  0
   -0.2534    1.1634    3.0050 H   0  0  0  0  0  0  0  0  0  0  0  0
    0.4071    1.7733   -1.1917 H   0  0  0  0  0  0  0  0  0  0  0  0
   -1.7708    0.5324   -1.7231 H   0  0  0  0  0  0  0  0  0  0  0  0
   -4.3752    0.8415   -2.2957 B   0  0  0  0  0  0  0  0  0  0  0  0
   -5.6441    0.3024   -2.3229 F   0  0  0  0  0  0  0  0  0  0  0  0
   -3.4080   -0.2365   -2.4051 F   0  0  0  0  0  0  0  0  0  0  0  0
   -4.1349    1.7764   -3.2716 F   0  0  0  0  0  0  0  0  0  0  0  0
   -4.1294    1.4128   -0.9944 F   0  0  0  0  0  0  0  0  0  0  0  0
  1  4  2  0  0  0  0
  2  1  1  0  0  0  0
  3  2  1  0  0  0  0
  4  5  1  0  0  0  0
  4 12  1  0  0  0  0
  5 13  1  0  0  0  0
  6  7  1  0  0  0  0
  6  5  2  0  0  0  0
  7  8  2  0  0  0  0
  9  7  2  0  0  0  0
 10  6  1  0  0  0  0
 11 10  2  0  0  0  0
 11  1  1  0  0  0  0
 14 10  1  0  0  0  0
 15 11  1  0  0  0  0
 16 20  1  0  0  0  0
 17 16  1  0  0  0  0
 18 16  1  0  0  0  0
 19 16  1  0  0  0  0
M  RAD  2   2   2   3   3
M  END
