Coordinates from ORCA-job 4-NO2PhN2+~BF4-_B3LYPG-6-31G_dp-NX-Scan-d89-09-n800
 OpenBabel11261920313D

 20 19  0  0  0  0  0  0  0  0999 V2000
   -1.7434   -1.2083    0.1146 C   0  0  0  0  0  0  0  0  0  0  0  0
   -2.2203   -2.4845    0.1316 N   0  0  0  0  0  0  0  0  0  0  0  0
   -2.5804   -3.5462    0.1622 N   0  0  0  0  0  0  0  0  0  0  0  0
   -2.3775   -0.2302    0.9195 C   0  0  0  0  0  0  0  0  0  0  0  0
   -1.8145    1.0299    0.9653 C   0  0  0  0  0  0  0  0  0  0  0  0
   -0.6990    1.2911    0.1673 C   0  0  0  0  0  0  0  0  0  0  0  0
   -0.0205    2.6061    0.2932 N   0  0  0  0  0  0  0  0  0  0  0  0
   -0.2870    3.2618    1.2880 O   0  0  0  0  0  0  0  0  0  0  0  0
    0.7968    2.8871   -0.5752 O   0  0  0  0  0  0  0  0  0  0  0  0
   -0.1002    0.3385   -0.6671 C   0  0  0  0  0  0  0  0  0  0  0  0
   -0.6138   -0.9406   -0.6995 C   0  0  0  0  0  0  0  0  0  0  0  0
   -3.2808   -0.4634    1.4701 H   0  0  0  0  0  0  0  0  0  0  0  0
   -2.2899    1.8500    1.4948 H   0  0  0  0  0  0  0  0  0  0  0  0
    0.7529    0.6256   -1.2689 H   0  0  0  0  0  0  0  0  0  0  0  0
   -0.1738   -1.7206   -1.3098 H   0  0  0  0  0  0  0  0  0  0  0  0
   -3.4835    2.9533   -0.6435 B   0  0  0  0  0  0  0  0  0  0  0  0
   -4.1996    3.8747   -1.3708 F   0  0  0  0  0  0  0  0  0  0  0  0
   -4.0455    1.6576   -0.7002 F   0  0  0  0  0  0  0  0  0  0  0  0
   -2.1426    2.8499   -1.1629 F   0  0  0  0  0  0  0  0  0  0  0  0
   -3.3837    3.3341    0.7170 F   0  0  0  0  0  0  0  0  0  0  0  0
  1  2  1  0  0  0  0
  1  4  2  0  0  0  0
  2  3  1  0  0  0  0
  4  5  1  0  0  0  0
  4 12  1  0  0  0  0
  5 13  1  0  0  0  0
  6  7  1  0  0  0  0
  6  5  2  0  0  0  0
  7  8  2  0  0  0  0
  9  7  2  0  0  0  0
 10  6  1  0  0  0  0
 11 10  2  0  0  0  0
 11  1  1  0  0  0  0
 14 10  1  0  0  0  0
 15 11  1  0  0  0  0
 16 20  1  0  0  0  0
 17 16  1  0  0  0  0
 18 16  1  0  0  0  0
 19 16  1  0  0  0  0
M  RAD  2   2   2   3   3
M  END
