Coordinates from ORCA-job 4-NO2PhN2+~BF4-_B3LYPG-6-31G_dp-NX-Scan-d89-09-n800
 OpenBabel11261920313D

 20 19  0  0  0  0  0  0  0  0999 V2000
   -1.8062   -1.1519    0.1349 C   0  0  0  0  0  0  0  0  0  0  0  0
   -2.2570   -2.4349    0.1539 N   0  0  0  0  0  0  0  0  0  0  0  0
   -2.5878   -3.5073    0.1886 N   0  0  0  0  0  0  0  0  0  0  0  0
   -2.3233   -0.2329    1.0811 C   0  0  0  0  0  0  0  0  0  0  0  0
   -1.7614    1.0258    1.1339 C   0  0  0  0  0  0  0  0  0  0  0  0
   -0.7564    1.3512    0.2167 C   0  0  0  0  0  0  0  0  0  0  0  0
   -0.0192    2.6311    0.3995 N   0  0  0  0  0  0  0  0  0  0  0  0
   -0.3036    3.2900    1.3880 O   0  0  0  0  0  0  0  0  0  0  0  0
    0.8550    2.8841   -0.4200 O   0  0  0  0  0  0  0  0  0  0  0  0
   -0.2733    0.4556   -0.7478 C   0  0  0  0  0  0  0  0  0  0  0  0
   -0.7958   -0.8167   -0.8035 C   0  0  0  0  0  0  0  0  0  0  0  0
   -3.1271   -0.5210    1.7484 H   0  0  0  0  0  0  0  0  0  0  0  0
   -2.1357    1.7928    1.7968 H   0  0  0  0  0  0  0  0  0  0  0  0
    0.5014    0.7852   -1.4283 H   0  0  0  0  0  0  0  0  0  0  0  0
   -0.4443   -1.5490   -1.5210 H   0  0  0  0  0  0  0  0  0  0  0  0
   -3.3778    2.8077   -0.8080 B   0  0  0  0  0  0  0  0  0  0  0  0
   -4.0403    3.7552   -1.5533 F   0  0  0  0  0  0  0  0  0  0  0  0
   -3.8554    1.5016   -1.0142 F   0  0  0  0  0  0  0  0  0  0  0  0
   -1.9734    2.8000   -1.1903 F   0  0  0  0  0  0  0  0  0  0  0  0
   -3.4250    3.0996    0.5705 F   0  0  0  0  0  0  0  0  0  0  0  0
  1  2  1  0  0  0  0
  1  4  2  0  0  0  0
  2  3  1  0  0  0  0
  4  5  1  0  0  0  0
  4 12  1  0  0  0  0
  5 13  1  0  0  0  0
  6  7  1  0  0  0  0
  6  5  2  0  0  0  0
  7  8  2  0  0  0  0
  9  7  2  0  0  0  0
 10  6  1  0  0  0  0
 11 10  2  0  0  0  0
 11  1  1  0  0  0  0
 14 10  1  0  0  0  0
 15 11  1  0  0  0  0
 16 20  1  0  0  0  0
 17 16  1  0  0  0  0
 18 16  1  0  0  0  0
 19 16  1  0  0  0  0
M  RAD  2   2   2   3   3
M  END
