Coordinates from ORCA-job 4-NO2PhN2+~BF4-_B3LYPG-6-31G_dp-NX-Scan-d89-09-n800
 OpenBabel11261920323D

 20 19  0  0  0  0  0  0  0  0999 V2000
   -2.0256   -0.2933    0.1066 C   0  0  0  0  0  0  0  0  0  0  0  0
   -3.0325   -1.2133   -0.1419 N   0  0  0  0  0  0  0  0  0  0  0  0
   -3.7572   -2.0486   -0.2500 N   0  0  0  0  0  0  0  0  0  0  0  0
   -2.1057    0.4522    1.2897 C   0  0  0  0  0  0  0  0  0  0  0  0
   -1.0902    1.3637    1.5347 C   0  0  0  0  0  0  0  0  0  0  0  0
   -0.0767    1.5064    0.5893 C   0  0  0  0  0  0  0  0  0  0  0  0
    1.0027    2.4879    0.8600 N   0  0  0  0  0  0  0  0  0  0  0  0
    0.9410    3.1078    1.9165 O   0  0  0  0  0  0  0  0  0  0  0  0
    1.8816    2.5987    0.0119 O   0  0  0  0  0  0  0  0  0  0  0  0
   -0.0293    0.7879   -0.6040 C   0  0  0  0  0  0  0  0  0  0  0  0
   -1.0335   -0.1300   -0.8686 C   0  0  0  0  0  0  0  0  0  0  0  0
   -2.9543    0.3435    1.9511 H   0  0  0  0  0  0  0  0  0  0  0  0
   -1.0848    1.9776    2.4259 H   0  0  0  0  0  0  0  0  0  0  0  0
    0.7695    0.9733   -1.3102 H   0  0  0  0  0  0  0  0  0  0  0  0
   -1.0848   -0.6728   -1.8030 H   0  0  0  0  0  0  0  0  0  0  0  0
   -4.0672    1.3838   -1.2962 B   0  0  0  0  0  0  0  0  0  0  0  0
   -5.0298    2.1024   -1.9557 F   0  0  0  0  0  0  0  0  0  0  0  0
   -3.6258    0.2552   -2.0710 F   0  0  0  0  0  0  0  0  0  0  0  0
   -2.9376    2.1608   -0.9866 F   0  0  0  0  0  0  0  0  0  0  0  0
   -4.5662    0.8229   -0.0725 F   0  0  0  0  0  0  0  0  0  0  0  0
  1  4  2  0  0  0  0
  2  1  1  0  0  0  0
  3  2  1  0  0  0  0
  4  5  1  0  0  0  0
  4 12  1  0  0  0  0
  5 13  1  0  0  0  0
  6  7  1  0  0  0  0
  6  5  2  0  0  0  0
  7  8  2  0  0  0  0
  9  7  2  0  0  0  0
 10  6  1  0  0  0  0
 11 10  2  0  0  0  0
 11  1  1  0  0  0  0
 14 10  1  0  0  0  0
 15 11  1  0  0  0  0
 16 19  1  0  0  0  0
 16 20  1  0  0  0  0
 17 16  1  0  0  0  0
 18 16  1  0  0  0  0
M  RAD  2   2   2   3   3
M  END
