Coordinates from ORCA-job 4-NO2PhN2+~BF4-_B3LYPG-6-31G_dp-NX-Scan-d89-09-n800
 OpenBabel11261920323D

 20 19  0  0  0  0  0  0  0  0999 V2000
   -1.9054   -0.9489    0.1339 C   0  0  0  0  0  0  0  0  0  0  0  0
   -2.5592   -2.1348    0.0297 N   0  0  0  0  0  0  0  0  0  0  0  0
   -3.0739   -3.1280   -0.0447 N   0  0  0  0  0  0  0  0  0  0  0  0
   -2.2483   -0.0882    1.1995 C   0  0  0  0  0  0  0  0  0  0  0  0
   -1.5651    1.1068    1.3033 C   0  0  0  0  0  0  0  0  0  0  0  0
   -0.6126    1.4168    0.3325 C   0  0  0  0  0  0  0  0  0  0  0  0
    0.1537    2.6799    0.4809 N   0  0  0  0  0  0  0  0  0  0  0  0
   -0.0803    3.3550    1.4743 O   0  0  0  0  0  0  0  0  0  0  0  0
    0.9893    2.9238   -0.3803 O   0  0  0  0  0  0  0  0  0  0  0  0
   -0.2728    0.5642   -0.7237 C   0  0  0  0  0  0  0  0  0  0  0  0
   -0.9314   -0.6382   -0.8459 C   0  0  0  0  0  0  0  0  0  0  0  0
   -3.0357   -0.3521    1.8948 H   0  0  0  0  0  0  0  0  0  0  0  0
   -1.8000    1.8297    2.0709 H   0  0  0  0  0  0  0  0  0  0  0  0
    0.4726    0.8831   -1.4404 H   0  0  0  0  0  0  0  0  0  0  0  0
   -0.7253   -1.3255   -1.6576 H   0  0  0  0  0  0  0  0  0  0  0  0
   -3.3747    2.3780   -0.9134 B   0  0  0  0  0  0  0  0  0  0  0  0
   -4.2140    3.1501   -1.6803 F   0  0  0  0  0  0  0  0  0  0  0  0
   -3.3436    1.0277   -1.3548 F   0  0  0  0  0  0  0  0  0  0  0  0
   -2.0325    2.8842   -1.0012 F   0  0  0  0  0  0  0  0  0  0  0  0
   -3.7474    2.3824    0.4486 F   0  0  0  0  0  0  0  0  0  0  0  0
  1  4  2  0  0  0  0
  2  1  1  0  0  0  0
  3  2  1  0  0  0  0
  4  5  1  0  0  0  0
  4 12  1  0  0  0  0
  5 13  1  0  0  0  0
  6  7  1  0  0  0  0
  6  5  2  0  0  0  0
  7  8  2  0  0  0  0
  9  7  2  0  0  0  0
 10  6  1  0  0  0  0
 11 10  2  0  0  0  0
 11  1  1  0  0  0  0
 14 10  1  0  0  0  0
 15 11  1  0  0  0  0
 16 20  1  0  0  0  0
 17 16  1  0  0  0  0
 18 16  1  0  0  0  0
 19 16  1  0  0  0  0
M  RAD  2   2   2   3   3
M  END
