Coordinates from ORCA-job 4-NO2PhN2+~BF4-_B3LYPG-6-31G_dp-NX-Scan-d89-09-n800
 OpenBabel11261920313D

 20 19  0  0  0  0  0  0  0  0999 V2000
   -1.6573   -1.3436    0.1382 C   0  0  0  0  0  0  0  0  0  0  0  0
   -2.0384   -2.6499    0.2562 N   0  0  0  0  0  0  0  0  0  0  0  0
   -2.3048   -3.7338    0.3659 N   0  0  0  0  0  0  0  0  0  0  0  0
   -2.4255   -0.3306    0.7688 C   0  0  0  0  0  0  0  0  0  0  0  0
   -1.9444    0.9662    0.7352 C   0  0  0  0  0  0  0  0  0  0  0  0
   -0.7452    1.2086    0.0562 C   0  0  0  0  0  0  0  0  0  0  0  0
   -0.1107    2.5454    0.1544 N   0  0  0  0  0  0  0  0  0  0  0  0
   -0.3345    3.1668    1.1799 O   0  0  0  0  0  0  0  0  0  0  0  0
    0.6480    2.8588   -0.7542 O   0  0  0  0  0  0  0  0  0  0  0  0
   -0.0250    0.2221   -0.6285 C   0  0  0  0  0  0  0  0  0  0  0  0
   -0.4670   -1.0852   -0.5851 C   0  0  0  0  0  0  0  0  0  0  0  0
   -3.3610   -0.5688    1.2616 H   0  0  0  0  0  0  0  0  0  0  0  0
   -2.4940    1.8085    1.1666 H   0  0  0  0  0  0  0  0  0  0  0  0
    0.8737    0.4998   -1.1652 H   0  0  0  0  0  0  0  0  0  0  0  0
    0.0763   -1.8903   -1.0659 H   0  0  0  0  0  0  0  0  0  0  0  0
   -3.5510    3.2812   -0.5289 B   0  0  0  0  0  0  0  0  0  0  0  0
   -4.1382    4.4125   -1.0511 F   0  0  0  0  0  0  0  0  0  0  0  0
   -4.2932    2.1101   -0.7538 F   0  0  0  0  0  0  0  0  0  0  0  0
   -2.2511    3.0780   -1.1062 F   0  0  0  0  0  0  0  0  0  0  0  0
   -3.3630    3.4104    0.8817 F   0  0  0  0  0  0  0  0  0  0  0  0
  1  2  1  0  0  0  0
  1  4  2  0  0  0  0
  2  3  1  0  0  0  0
  4 12  1  0  0  0  0
  5  4  1  0  0  0  0
  5 13  1  0  0  0  0
  6  7  1  0  0  0  0
  6  5  2  0  0  0  0
  7  8  2  0  0  0  0
  9  7  2  0  0  0  0
 10 11  2  0  0  0  0
 10  6  1  0  0  0  0
 11  1  1  0  0  0  0
 14 10  1  0  0  0  0
 15 11  1  0  0  0  0
 16 20  1  0  0  0  0
 17 16  1  0  0  0  0
 18 16  1  0  0  0  0
 19 16  1  0  0  0  0
M  RAD  2   2   2   3   3
M  END
