Coordinates from ORCA-job 4-NO2PhN2+~BF4-_B3LYPG-6-31G_dp-NX-Scan-d89-09-n800
 OpenBabel11261920313D

 20 19  0  0  0  0  0  0  0  0999 V2000
   -1.8070   -1.1502    0.1343 C   0  0  0  0  0  0  0  0  0  0  0  0
   -2.2598   -2.4326    0.1519 N   0  0  0  0  0  0  0  0  0  0  0  0
   -2.5923   -3.5044    0.1855 N   0  0  0  0  0  0  0  0  0  0  0  0
   -2.3231   -0.2315    1.0814 C   0  0  0  0  0  0  0  0  0  0  0  0
   -1.7600    1.0266    1.1351 C   0  0  0  0  0  0  0  0  0  0  0  0
   -0.7551    1.3518    0.2178 C   0  0  0  0  0  0  0  0  0  0  0  0
   -0.0181    2.6318    0.4002 N   0  0  0  0  0  0  0  0  0  0  0  0
   -0.3024    3.2910    1.3885 O   0  0  0  0  0  0  0  0  0  0  0  0
    0.8559    2.8848   -0.4195 O   0  0  0  0  0  0  0  0  0  0  0  0
   -0.2726    0.4564   -0.7473 C   0  0  0  0  0  0  0  0  0  0  0  0
   -0.7964   -0.8153   -0.8038 C   0  0  0  0  0  0  0  0  0  0  0  0
   -3.1273   -0.5193    1.7484 H   0  0  0  0  0  0  0  0  0  0  0  0
   -2.1336    1.7935    1.7985 H   0  0  0  0  0  0  0  0  0  0  0  0
    0.5022    0.7858   -1.4277 H   0  0  0  0  0  0  0  0  0  0  0  0
   -0.4456   -1.5475   -1.5218 H   0  0  0  0  0  0  0  0  0  0  0  0
   -3.3776    2.8039   -0.8080 B   0  0  0  0  0  0  0  0  0  0  0  0
   -4.0426    3.7485   -1.5547 F   0  0  0  0  0  0  0  0  0  0  0  0
   -3.8526    1.4963   -1.0118 F   0  0  0  0  0  0  0  0  0  0  0  0
   -1.9735    2.7983   -1.1909 F   0  0  0  0  0  0  0  0  0  0  0  0
   -3.4249    3.0980    0.5700 F   0  0  0  0  0  0  0  0  0  0  0  0
  1  2  1  0  0  0  0
  1  4  2  0  0  0  0
  2  3  1  0  0  0  0
  4  5  1  0  0  0  0
  4 12  1  0  0  0  0
  5 13  1  0  0  0  0
  6  7  1  0  0  0  0
  6  5  2  0  0  0  0
  7  8  2  0  0  0  0
  9  7  2  0  0  0  0
 10  6  1  0  0  0  0
 11 10  2  0  0  0  0
 11  1  1  0  0  0  0
 14 10  1  0  0  0  0
 15 11  1  0  0  0  0
 16 20  1  0  0  0  0
 17 16  1  0  0  0  0
 18 16  1  0  0  0  0
 19 16  1  0  0  0  0
M  RAD  2   2   2   3   3
M  END
