Coordinates from ORCA-job 4-NO2PhN2+~BF4-_B3LYPG-6-31G_dp-NX-Scan-d89-09-n800
 OpenBabel11261920313D

 20 19  0  0  0  0  0  0  0  0999 V2000
   -1.7274   -1.2311    0.1145 C   0  0  0  0  0  0  0  0  0  0  0  0
   -2.1919   -2.5121    0.1457 N   0  0  0  0  0  0  0  0  0  0  0  0
   -2.5401   -3.5769    0.1872 N   0  0  0  0  0  0  0  0  0  0  0  0
   -2.3908   -0.2423    0.8821 C   0  0  0  0  0  0  0  0  0  0  0  0
   -1.8389    1.0234    0.9174 C   0  0  0  0  0  0  0  0  0  0  0  0
   -0.7011    1.2755    0.1482 C   0  0  0  0  0  0  0  0  0  0  0  0
   -0.0326    2.5955    0.2664 N   0  0  0  0  0  0  0  0  0  0  0  0
   -0.2926    3.2468    1.2655 O   0  0  0  0  0  0  0  0  0  0  0  0
    0.7734    2.8823   -0.6107 O   0  0  0  0  0  0  0  0  0  0  0  0
   -0.0757    0.3126   -0.6539 C   0  0  0  0  0  0  0  0  0  0  0  0
   -0.5787   -0.9714   -0.6746 C   0  0  0  0  0  0  0  0  0  0  0  0
   -3.3071   -0.4709    1.4126 H   0  0  0  0  0  0  0  0  0  0  0  0
   -2.3312    1.8502    1.4237 H   0  0  0  0  0  0  0  0  0  0  0  0
    0.7909    0.5943   -1.2388 H   0  0  0  0  0  0  0  0  0  0  0  0
   -0.1165   -1.7598   -1.2570 H   0  0  0  0  0  0  0  0  0  0  0  0
   -3.5007    3.0102   -0.6130 B   0  0  0  0  0  0  0  0  0  0  0  0
   -4.2143    3.9531   -1.3149 F   0  0  0  0  0  0  0  0  0  0  0  0
   -4.0891    1.7263   -0.6687 F   0  0  0  0  0  0  0  0  0  0  0  0
   -2.1737    2.8859   -1.1570 F   0  0  0  0  0  0  0  0  0  0  0  0
   -3.3684    3.3745    0.7512 F   0  0  0  0  0  0  0  0  0  0  0  0
  1  2  1  0  0  0  0
  1  4  2  0  0  0  0
  2  3  1  0  0  0  0
  4  5  1  0  0  0  0
  4 12  1  0  0  0  0
  5 13  1  0  0  0  0
  6  7  1  0  0  0  0
  6  5  2  0  0  0  0
  7  8  2  0  0  0  0
  9  7  2  0  0  0  0
 10  6  1  0  0  0  0
 11 10  2  0  0  0  0
 11  1  1  0  0  0  0
 14 10  1  0  0  0  0
 15 11  1  0  0  0  0
 16 20  1  0  0  0  0
 17 16  1  0  0  0  0
 18 16  1  0  0  0  0
 19 16  1  0  0  0  0
M  RAD  2   2   2   3   3
M  END
