Coordinates from ORCA-job 4-NO2PhN2+~BF4-_B3LYPG-6-31G_dp-NX-Scan-d89-09-n800
 OpenBabel11261920323D

 20 19  0  0  0  0  0  0  0  0999 V2000
   -2.1468    0.1581    0.3830 C   0  0  0  0  0  0  0  0  0  0  0  0
   -3.3087   -0.5878    0.1738 N   0  0  0  0  0  0  0  0  0  0  0  0
   -4.1804   -1.2736    0.1688 N   0  0  0  0  0  0  0  0  0  0  0  0
   -1.7482    0.2945    1.7231 C   0  0  0  0  0  0  0  0  0  0  0  0
   -0.5787    0.9959    1.9780 C   0  0  0  0  0  0  0  0  0  0  0  0
    0.1338    1.5171    0.8981 C   0  0  0  0  0  0  0  0  0  0  0  0
    1.3888    2.2584    1.1816 N   0  0  0  0  0  0  0  0  0  0  0  0
    1.7168    2.3664    2.3592 O   0  0  0  0  0  0  0  0  0  0  0  0
    2.0069    2.6969    0.2190 O   0  0  0  0  0  0  0  0  0  0  0  0
   -0.2723    1.3758   -0.4270 C   0  0  0  0  0  0  0  0  0  0  0  0
   -1.4448    0.6839   -0.7091 C   0  0  0  0  0  0  0  0  0  0  0  0
   -2.3395   -0.1273    2.5272 H   0  0  0  0  0  0  0  0  0  0  0  0
   -0.2130    1.1439    2.9859 H   0  0  0  0  0  0  0  0  0  0  0  0
    0.3211    1.8123   -1.2202 H   0  0  0  0  0  0  0  0  0  0  0  0
   -1.8363    0.5384   -1.7103 H   0  0  0  0  0  0  0  0  0  0  0  0
   -4.3164    0.8486   -2.2796 B   0  0  0  0  0  0  0  0  0  0  0  0
   -5.6089    0.5171   -2.5998 F   0  0  0  0  0  0  0  0  0  0  0  0
   -3.4971   -0.3525   -2.2879 F   0  0  0  0  0  0  0  0  0  0  0  0
   -3.7297    1.7757   -3.1162 F   0  0  0  0  0  0  0  0  0  0  0  0
   -4.2531    1.3244   -0.9218 F   0  0  0  0  0  0  0  0  0  0  0  0
  1  4  2  0  0  0  0
  2  1  1  0  0  0  0
  3  2  1  0  0  0  0
  4  5  1  0  0  0  0
  4 12  1  0  0  0  0
  5 13  1  0  0  0  0
  6  7  1  0  0  0  0
  6  5  2  0  0  0  0
  7  8  2  0  0  0  0
  9  7  2  0  0  0  0
 10  6  1  0  0  0  0
 11 10  2  0  0  0  0
 11  1  1  0  0  0  0
 14 10  1  0  0  0  0
 15 11  1  0  0  0  0
 16 20  1  0  0  0  0
 17 16  1  0  0  0  0
 18 16  1  0  0  0  0
 19 16  1  0  0  0  0
M  RAD  2   2   2   3   3
M  END
