Coordinates from ORCA-job 4-NO2PhN2+~BF4-_B3LYPG-6-31G_dp-NX-Scan-d89-09-n800
 OpenBabel11261920323D

 20 19  0  0  0  0  0  0  0  0999 V2000
   -2.1366    0.0391    0.3730 C   0  0  0  0  0  0  0  0  0  0  0  0
   -3.2520   -0.7722    0.1883 N   0  0  0  0  0  0  0  0  0  0  0  0
   -4.0961   -1.4900    0.1427 N   0  0  0  0  0  0  0  0  0  0  0  0
   -1.7789    0.3034    1.7068 C   0  0  0  0  0  0  0  0  0  0  0  0
   -0.6451    1.0689    1.9263 C   0  0  0  0  0  0  0  0  0  0  0  0
    0.0758    1.5247    0.8203 C   0  0  0  0  0  0  0  0  0  0  0  0
    1.2946    2.3358    1.0684 N   0  0  0  0  0  0  0  0  0  0  0  0
    1.5794    2.5677    2.2395 O   0  0  0  0  0  0  0  0  0  0  0  0
    1.9267    2.7080    0.0872 O   0  0  0  0  0  0  0  0  0  0  0  0
   -0.2904    1.2596   -0.4956 C   0  0  0  0  0  0  0  0  0  0  0  0
   -1.4283    0.4984   -0.7450 C   0  0  0  0  0  0  0  0  0  0  0  0
   -2.3760   -0.0726    2.5291 H   0  0  0  0  0  0  0  0  0  0  0  0
   -0.3109    1.3173    2.9251 H   0  0  0  0  0  0  0  0  0  0  0  0
    0.3011    1.6574   -1.3101 H   0  0  0  0  0  0  0  0  0  0  0  0
   -1.8012    0.2893   -1.7399 H   0  0  0  0  0  0  0  0  0  0  0  0
   -4.2243    0.9767   -2.1082 B   0  0  0  0  0  0  0  0  0  0  0  0
   -5.3619    1.1108   -2.8529 F   0  0  0  0  0  0  0  0  0  0  0  0
   -3.6740   -0.3550   -2.2554 F   0  0  0  0  0  0  0  0  0  0  0  0
   -3.2114    1.8751   -2.4616 F   0  0  0  0  0  0  0  0  0  0  0  0
   -4.4970    1.1237   -0.7123 F   0  0  0  0  0  0  0  0  0  0  0  0
  1  4  2  0  0  0  0
  2  1  1  0  0  0  0
  3  2  1  0  0  0  0
  4  5  1  0  0  0  0
  4 12  1  0  0  0  0
  5 13  1  0  0  0  0
  6  7  1  0  0  0  0
  6  5  2  0  0  0  0
  7  8  2  0  0  0  0
  9  7  2  0  0  0  0
 10  6  1  0  0  0  0
 11 10  2  0  0  0  0
 11  1  1  0  0  0  0
 14 10  1  0  0  0  0
 15 11  1  0  0  0  0
 16 20  1  0  0  0  0
 17 16  1  0  0  0  0
 18 16  1  0  0  0  0
 19 16  1  0  0  0  0
M  RAD  2   2   2   3   3
M  END
