Coordinates from ORCA-job 4-NO2PhN2+~BF4-_B3LYPG-6-31G_dp-NX-Scan-d89-09-n800
 OpenBabel11261920323D

 20 19  0  0  0  0  0  0  0  0999 V2000
   -2.0221   -0.3519    0.0983 C   0  0  0  0  0  0  0  0  0  0  0  0
   -2.9752   -1.3284   -0.1208 N   0  0  0  0  0  0  0  0  0  0  0  0
   -3.6486   -2.2113   -0.1982 N   0  0  0  0  0  0  0  0  0  0  0  0
   -2.1333    0.4171    1.2653 C   0  0  0  0  0  0  0  0  0  0  0  0
   -1.1416    1.3572    1.4999 C   0  0  0  0  0  0  0  0  0  0  0  0
   -0.1220    1.5031    0.5629 C   0  0  0  0  0  0  0  0  0  0  0  0
    0.9351    2.5104    0.8269 N   0  0  0  0  0  0  0  0  0  0  0  0
    0.8528    3.1444    1.8733 O   0  0  0  0  0  0  0  0  0  0  0  0
    1.8191    2.6248   -0.0155 O   0  0  0  0  0  0  0  0  0  0  0  0
   -0.0471    0.7657   -0.6181 C   0  0  0  0  0  0  0  0  0  0  0  0
   -1.0250   -0.1810   -0.8734 C   0  0  0  0  0  0  0  0  0  0  0  0
   -2.9844    0.3015    1.9219 H   0  0  0  0  0  0  0  0  0  0  0  0
   -1.1596    1.9888    2.3785 H   0  0  0  0  0  0  0  0  0  0  0  0
    0.7543    0.9565   -1.3196 H   0  0  0  0  0  0  0  0  0  0  0  0
   -1.0479   -0.7490   -1.7941 H   0  0  0  0  0  0  0  0  0  0  0  0
   -4.0167    1.4790   -1.2505 B   0  0  0  0  0  0  0  0  0  0  0  0
   -4.9104    2.2828   -1.9193 F   0  0  0  0  0  0  0  0  0  0  0  0
   -3.6548    0.3155   -2.0145 F   0  0  0  0  0  0  0  0  0  0  0  0
   -2.8281    2.1759   -0.9489 F   0  0  0  0  0  0  0  0  0  0  0  0
   -4.5510    0.9652   -0.0280 F   0  0  0  0  0  0  0  0  0  0  0  0
  1  4  2  0  0  0  0
  2  1  1  0  0  0  0
  3  2  1  0  0  0  0
  4  5  1  0  0  0  0
  4 12  1  0  0  0  0
  5 13  1  0  0  0  0
  6  7  1  0  0  0  0
  6  5  2  0  0  0  0
  7  8  2  0  0  0  0
  9  7  2  0  0  0  0
 10  6  1  0  0  0  0
 11 10  2  0  0  0  0
 11  1  1  0  0  0  0
 14 10  1  0  0  0  0
 15 11  1  0  0  0  0
 16 19  1  0  0  0  0
 16 20  1  0  0  0  0
 17 16  1  0  0  0  0
 18 16  1  0  0  0  0
M  RAD  2   2   2   3   3
M  END
