Coordinates from ORCA-job 4-NO2PhN2+~BF4-_B3LYPG-6-31G_dp-NX-Scan-d89-09-n800
 OpenBabel11261920313D

 20 19  0  0  0  0  0  0  0  0999 V2000
   -1.8406   -1.1086    0.1374 C   0  0  0  0  0  0  0  0  0  0  0  0
   -2.3086   -2.3856    0.1457 N   0  0  0  0  0  0  0  0  0  0  0  0
   -2.6504   -3.4548    0.1739 N   0  0  0  0  0  0  0  0  0  0  0  0
   -2.3054   -0.2084    1.1267 C   0  0  0  0  0  0  0  0  0  0  0  0
   -1.7242    1.0416    1.1874 C   0  0  0  0  0  0  0  0  0  0  0  0
   -0.7459    1.3730    0.2444 C   0  0  0  0  0  0  0  0  0  0  0  0
    0.0122    2.6396    0.4321 N   0  0  0  0  0  0  0  0  0  0  0  0
   -0.2638    3.3030    1.4206 O   0  0  0  0  0  0  0  0  0  0  0  0
    0.8917    2.8811   -0.3848 O   0  0  0  0  0  0  0  0  0  0  0  0
   -0.3133    0.4954   -0.7595 C   0  0  0  0  0  0  0  0  0  0  0  0
   -0.8619   -0.7647   -0.8307 C   0  0  0  0  0  0  0  0  0  0  0  0
   -3.0840   -0.5039    1.8201 H   0  0  0  0  0  0  0  0  0  0  0  0
   -2.0507    1.7902    1.8941 H   0  0  0  0  0  0  0  0  0  0  0  0
    0.4405    0.8310   -1.4599 H   0  0  0  0  0  0  0  0  0  0  0  0
   -0.5529   -1.4822   -1.5818 H   0  0  0  0  0  0  0  0  0  0  0  0
   -3.3535    2.7170   -0.8583 B   0  0  0  0  0  0  0  0  0  0  0  0
   -4.0520    3.6422   -1.5991 F   0  0  0  0  0  0  0  0  0  0  0  0
   -3.7079    1.3855   -1.1491 F   0  0  0  0  0  0  0  0  0  0  0  0
   -1.9369    2.8402   -1.1601 F   0  0  0  0  0  0  0  0  0  0  0  0
   -3.4990    2.9346    0.5265 F   0  0  0  0  0  0  0  0  0  0  0  0
  1  2  1  0  0  0  0
  1  4  2  0  0  0  0
  2  3  1  0  0  0  0
  4  5  1  0  0  0  0
  4 12  1  0  0  0  0
  5 13  1  0  0  0  0
  6  7  1  0  0  0  0
  6  5  2  0  0  0  0
  7  8  2  0  0  0  0
  9  7  2  0  0  0  0
 10  6  1  0  0  0  0
 11 10  2  0  0  0  0
 11  1  1  0  0  0  0
 14 10  1  0  0  0  0
 15 11  1  0  0  0  0
 16 20  1  0  0  0  0
 17 16  1  0  0  0  0
 18 16  1  0  0  0  0
 19 16  1  0  0  0  0
M  RAD  2   2   2   3   3
M  END
