Coordinates from ORCA-job 4-NO2PhN2+~BF4-_B3LYPG-6-31G_dp-NX-Scan-d89-09-n800
 OpenBabel11261920323D

 20 19  0  0  0  0  0  0  0  0999 V2000
   -1.9407   -0.5473   -0.0132 C   0  0  0  0  0  0  0  0  0  0  0  0
   -2.7687   -1.6163   -0.2508 N   0  0  0  0  0  0  0  0  0  0  0  0
   -3.3552   -2.5528   -0.4059 N   0  0  0  0  0  0  0  0  0  0  0  0
   -2.2304    0.2880    1.0777 C   0  0  0  0  0  0  0  0  0  0  0  0
   -1.3374    1.3218    1.3352 C   0  0  0  0  0  0  0  0  0  0  0  0
   -0.2403    1.4828    0.5012 C   0  0  0  0  0  0  0  0  0  0  0  0
    0.7041    2.5901    0.7885 N   0  0  0  0  0  0  0  0  0  0  0  0
    0.4743    3.2789    1.7759 O   0  0  0  0  0  0  0  0  0  0  0  0
    1.6542    2.7241    0.0235 O   0  0  0  0  0  0  0  0  0  0  0  0
    0.0234    0.6673   -0.6043 C   0  0  0  0  0  0  0  0  0  0  0  0
   -0.8414   -0.3716   -0.8801 C   0  0  0  0  0  0  0  0  0  0  0  0
   -3.1243    0.1481    1.6672 H   0  0  0  0  0  0  0  0  0  0  0  0
   -1.5085    2.0159    2.1470 H   0  0  0  0  0  0  0  0  0  0  0  0
    0.8858    0.8689   -1.2257 H   0  0  0  0  0  0  0  0  0  0  0  0
   -0.6966   -1.0259   -1.7311 H   0  0  0  0  0  0  0  0  0  0  0  0
   -3.9400    1.7660   -0.9997 B   0  0  0  0  0  0  0  0  0  0  0  0
   -4.7795    2.6376   -1.6573 F   0  0  0  0  0  0  0  0  0  0  0  0
   -4.2476    0.3925   -1.2726 F   0  0  0  0  0  0  0  0  0  0  0  0
   -2.5910    1.9706   -1.3641 F   0  0  0  0  0  0  0  0  0  0  0  0
   -4.0468    1.9274    0.4144 F   0  0  0  0  0  0  0  0  0  0  0  0
  1  4  2  0  0  0  0
  2  1  1  0  0  0  0
  3  2  1  0  0  0  0
  4  5  1  0  0  0  0
  4 12  1  0  0  0  0
  5 13  1  0  0  0  0
  6  7  1  0  0  0  0
  6  5  2  0  0  0  0
  7  8  2  0  0  0  0
  9  7  2  0  0  0  0
 10  6  1  0  0  0  0
 11 10  2  0  0  0  0
 11  1  1  0  0  0  0
 14 10  1  0  0  0  0
 15 11  1  0  0  0  0
 16 20  1  0  0  0  0
 17 16  1  0  0  0  0
 18 16  1  0  0  0  0
 19 16  1  0  0  0  0
M  RAD  2   2   2   3   3
M  END
