Coordinates from ORCA-job 4-NO2PhN2+~BF4-_B3LYPG-6-31G_dp-NX-Scan-d89-09-n800
 OpenBabel11261920323D

 20 19  0  0  0  0  0  0  0  0999 V2000
   -1.9076   -0.9287    0.1340 C   0  0  0  0  0  0  0  0  0  0  0  0
   -2.5914   -2.0957    0.0116 N   0  0  0  0  0  0  0  0  0  0  0  0
   -3.1373   -3.0701   -0.0825 N   0  0  0  0  0  0  0  0  0  0  0  0
   -2.2405   -0.0699    1.2036 C   0  0  0  0  0  0  0  0  0  0  0  0
   -1.5425    1.1162    1.3134 C   0  0  0  0  0  0  0  0  0  0  0  0
   -0.5884    1.4198    0.3432 C   0  0  0  0  0  0  0  0  0  0  0  0
    0.1754    2.6849    0.4838 N   0  0  0  0  0  0  0  0  0  0  0  0
   -0.0565    3.3639    1.4752 O   0  0  0  0  0  0  0  0  0  0  0  0
    1.0058    2.9286   -0.3827 O   0  0  0  0  0  0  0  0  0  0  0  0
   -0.2535    0.5661   -0.7135 C   0  0  0  0  0  0  0  0  0  0  0  0
   -0.9253   -0.6285   -0.8406 C   0  0  0  0  0  0  0  0  0  0  0  0
   -3.0360   -0.3239    1.8931 H   0  0  0  0  0  0  0  0  0  0  0  0
   -1.7721    1.8397    2.0822 H   0  0  0  0  0  0  0  0  0  0  0  0
    0.4954    0.8794   -1.4290 H   0  0  0  0  0  0  0  0  0  0  0  0
   -0.7276   -1.3145   -1.6554 H   0  0  0  0  0  0  0  0  0  0  0  0
   -3.3914    2.3340   -0.9156 B   0  0  0  0  0  0  0  0  0  0  0  0
   -4.2449    3.0996   -1.6728 F   0  0  0  0  0  0  0  0  0  0  0  0
   -3.3289    0.9930   -1.3840 F   0  0  0  0  0  0  0  0  0  0  0  0
   -2.0623    2.8712   -0.9822 F   0  0  0  0  0  0  0  0  0  0  0  0
   -3.7769    2.3011    0.4439 F   0  0  0  0  0  0  0  0  0  0  0  0
  1  4  2  0  0  0  0
  2  1  1  0  0  0  0
  3  2  1  0  0  0  0
  4  5  1  0  0  0  0
  4 12  1  0  0  0  0
  5 13  1  0  0  0  0
  6  7  1  0  0  0  0
  6  5  2  0  0  0  0
  7  8  2  0  0  0  0
  9  7  2  0  0  0  0
 10  6  1  0  0  0  0
 11 10  2  0  0  0  0
 11  1  1  0  0  0  0
 14 10  1  0  0  0  0
 15 11  1  0  0  0  0
 16 20  1  0  0  0  0
 17 16  1  0  0  0  0
 18 16  1  0  0  0  0
 19 16  1  0  0  0  0
M  RAD  2   2   2   3   3
M  END
