Coordinates from ORCA-job 4-NO2PhN2+~BF4-_B3LYPG-6-31G_dp-NX-Scan-d89-09-n800
 OpenBabel11261920323D

 20 19  0  0  0  0  0  0  0  0999 V2000
   -2.3261    0.7120    0.8627 C   0  0  0  0  0  0  0  0  0  0  0  0
   -3.7399    0.4823    0.8906 N   0  0  0  0  0  0  0  0  0  0  0  0
   -4.3014   -0.1189   -0.0602 N   0  0  0  0  0  0  0  0  0  0  0  0
   -1.6337    0.4198    2.0476 C   0  0  0  0  0  0  0  0  0  0  0  0
   -0.2744    0.6880    2.1517 C   0  0  0  0  0  0  0  0  0  0  0  0
    0.3744    1.2824    1.0701 C   0  0  0  0  0  0  0  0  0  0  0  0
    1.8104    1.5818    1.1767 N   0  0  0  0  0  0  0  0  0  0  0  0
    2.3778    1.2837    2.2268 O   0  0  0  0  0  0  0  0  0  0  0  0
    2.3558    2.1113    0.2090 O   0  0  0  0  0  0  0  0  0  0  0  0
   -0.2981    1.6114   -0.1053 C   0  0  0  0  0  0  0  0  0  0  0  0
   -1.6535    1.3191   -0.2125 C   0  0  0  0  0  0  0  0  0  0  0  0
   -2.1784   -0.0169    2.8777 H   0  0  0  0  0  0  0  0  0  0  0  0
    0.2852    0.4608    3.0502 H   0  0  0  0  0  0  0  0  0  0  0  0
    0.2454    2.0824   -0.9148 H   0  0  0  0  0  0  0  0  0  0  0  0
   -2.1874    1.5767   -1.1199 H   0  0  0  0  0  0  0  0  0  0  0  0
   -4.7781    0.7424   -3.4886 B   0  0  0  0  0  0  0  0  0  0  0  0
   -3.6723   -0.4845   -0.8855 F   0  0  0  0  0  0  0  0  0  0  0  0
   -3.8271    1.4700   -2.9213 F   0  0  0  0  0  0  0  0  0  0  0  0
   -4.5101    0.0613   -4.5820 F   0  0  0  0  0  0  0  0  0  0  0  0
   -5.9752    0.7010   -2.9471 F   0  0  0  0  0  0  0  0  0  0  0  0
  1  2  1  0  0  0  0
  1  4  2  0  0  0  0
  3  2  2  0  0  0  0
  4  5  1  0  0  0  0
  4 12  1  0  0  0  0
  5 13  1  0  0  0  0
  6  7  1  0  0  0  0
  6  5  2  0  0  0  0
  7  8  2  0  0  0  0
  9  7  2  0  0  0  0
 10  6  1  0  0  0  0
 11 10  2  0  0  0  0
 11  1  1  0  0  0  0
 14 10  1  0  0  0  0
 15 11  1  0  0  0  0
 16 20  1  0  0  0  0
 16 18  1  0  0  0  0
 17  3  1  0  0  0  0
 19 16  1  0  0  0  0
M  END
