Coordinates from ORCA-job 4-NO2PhN2+~BF4-_B3LYPG-6-31G_dp-NX-Scan-d89-09-n800
 OpenBabel11261920323D

 20 19  0  0  0  0  0  0  0  0999 V2000
   -1.9217   -0.8727    0.1319 C   0  0  0  0  0  0  0  0  0  0  0  0
   -2.6586   -2.0047   -0.0159 N   0  0  0  0  0  0  0  0  0  0  0  0
   -3.2469   -2.9509   -0.1295 N   0  0  0  0  0  0  0  0  0  0  0  0
   -2.2301   -0.0150    1.2085 C   0  0  0  0  0  0  0  0  0  0  0  0
   -1.4869    1.1430    1.3340 C   0  0  0  0  0  0  0  0  0  0  0  0
   -0.5259    1.4249    0.3674 C   0  0  0  0  0  0  0  0  0  0  0  0
    0.2477    2.6843    0.4963 N   0  0  0  0  0  0  0  0  0  0  0  0
    0.0342    3.3672    1.4895 O   0  0  0  0  0  0  0  0  0  0  0  0
    1.0638    2.9250   -0.3852 O   0  0  0  0  0  0  0  0  0  0  0  0
   -0.2124    0.5699   -0.6946 C   0  0  0  0  0  0  0  0  0  0  0  0
   -0.9228   -0.6011   -0.8334 C   0  0  0  0  0  0  0  0  0  0  0  0
   -3.0424   -0.2423    1.8866 H   0  0  0  0  0  0  0  0  0  0  0  0
   -1.6976    1.8675    2.1078 H   0  0  0  0  0  0  0  0  0  0  0  0
    0.5462    0.8654   -1.4073 H   0  0  0  0  0  0  0  0  0  0  0  0
   -0.7489   -1.2841   -1.6559 H   0  0  0  0  0  0  0  0  0  0  0  0
   -3.4459    2.2341   -0.9303 B   0  0  0  0  0  0  0  0  0  0  0  0
   -4.3246    2.9980   -1.6606 F   0  0  0  0  0  0  0  0  0  0  0  0
   -3.2716    0.9429   -1.5041 F   0  0  0  0  0  0  0  0  0  0  0  0
   -2.1652    2.8646   -0.8808 F   0  0  0  0  0  0  0  0  0  0  0  0
   -3.8969    2.0500    0.4016 F   0  0  0  0  0  0  0  0  0  0  0  0
  1  4  2  0  0  0  0
  2  1  1  0  0  0  0
  3  2  1  0  0  0  0
  4  5  1  0  0  0  0
  4 12  1  0  0  0  0
  5 13  1  0  0  0  0
  6  7  1  0  0  0  0
  6  5  2  0  0  0  0
  7  8  2  0  0  0  0
  9  7  2  0  0  0  0
 10  6  1  0  0  0  0
 11 10  2  0  0  0  0
 11  1  1  0  0  0  0
 14 10  1  0  0  0  0
 15 11  1  0  0  0  0
 16 19  1  0  0  0  0
 16 20  1  0  0  0  0
 17 16  1  0  0  0  0
 18 16  1  0  0  0  0
M  RAD  2   2   2   3   3
M  END
