Coordinates from ORCA-job 4-NO2PhN2+~BF4-_B3LYPG-6-31G_dp-NX-Scan-d89-09-n800
 OpenBabel11261920323D

 20 19  0  0  0  0  0  0  0  0999 V2000
   -1.9063   -0.9534    0.1334 C   0  0  0  0  0  0  0  0  0  0  0  0
   -2.5475   -2.1473    0.0380 N   0  0  0  0  0  0  0  0  0  0  0  0
   -3.0466   -3.1492   -0.0260 N   0  0  0  0  0  0  0  0  0  0  0  0
   -2.2526   -0.0910    1.1967 C   0  0  0  0  0  0  0  0  0  0  0  0
   -1.5719    1.1055    1.2994 C   0  0  0  0  0  0  0  0  0  0  0  0
   -0.6184    1.4157    0.3293 C   0  0  0  0  0  0  0  0  0  0  0  0
    0.1510    2.6765    0.4809 N   0  0  0  0  0  0  0  0  0  0  0  0
   -0.0820    3.3500    1.4756 O   0  0  0  0  0  0  0  0  0  0  0  0
    0.9886    2.9196   -0.3786 O   0  0  0  0  0  0  0  0  0  0  0  0
   -0.2787    0.5635   -0.7273 C   0  0  0  0  0  0  0  0  0  0  0  0
   -0.9342   -0.6408   -0.8478 C   0  0  0  0  0  0  0  0  0  0  0  0
   -3.0391   -0.3559    1.8927 H   0  0  0  0  0  0  0  0  0  0  0  0
   -1.8075    1.8284    2.0667 H   0  0  0  0  0  0  0  0  0  0  0  0
    0.4662    0.8830   -1.4442 H   0  0  0  0  0  0  0  0  0  0  0  0
   -0.7255   -1.3293   -1.6579 H   0  0  0  0  0  0  0  0  0  0  0  0
   -3.3730    2.3914   -0.9142 B   0  0  0  0  0  0  0  0  0  0  0  0
   -4.2066    3.1736   -1.6778 F   0  0  0  0  0  0  0  0  0  0  0  0
   -3.3501    1.0426   -1.3596 F   0  0  0  0  0  0  0  0  0  0  0  0
   -2.0272    2.8891   -1.0010 F   0  0  0  0  0  0  0  0  0  0  0  0
   -3.7451    2.3940    0.4478 F   0  0  0  0  0  0  0  0  0  0  0  0
  1  4  2  0  0  0  0
  2  1  1  0  0  0  0
  3  2  1  0  0  0  0
  4  5  1  0  0  0  0
  4 12  1  0  0  0  0
  5 13  1  0  0  0  0
  6  7  1  0  0  0  0
  6  5  2  0  0  0  0
  7  8  2  0  0  0  0
  9  7  2  0  0  0  0
 10  6  1  0  0  0  0
 11 10  2  0  0  0  0
 11  1  1  0  0  0  0
 14 10  1  0  0  0  0
 15 11  1  0  0  0  0
 16 20  1  0  0  0  0
 17 16  1  0  0  0  0
 18 16  1  0  0  0  0
 19 16  1  0  0  0  0
M  RAD  2   2   2   3   3
M  END
