Coordinates from ORCA-job 4-NO2PhN2+~BF4-_B3LYPG-6-31G_dp-NX-Scan-d89-09-n800
 OpenBabel11261920323D

 20 19  0  0  0  0  0  0  0  0999 V2000
   -2.1874    0.3002    0.4482 C   0  0  0  0  0  0  0  0  0  0  0  0
   -3.4030   -0.3311    0.2051 N   0  0  0  0  0  0  0  0  0  0  0  0
   -4.3708   -0.8470   -0.0174 N   0  0  0  0  0  0  0  0  0  0  0  0
   -1.7688    0.3633    1.7879 C   0  0  0  0  0  0  0  0  0  0  0  0
   -0.5499    0.9664    2.0591 C   0  0  0  0  0  0  0  0  0  0  0  0
    0.1976    1.4617    0.9898 C   0  0  0  0  0  0  0  0  0  0  0  0
    1.5059    2.0975    1.2874 N   0  0  0  0  0  0  0  0  0  0  0  0
    1.8448    2.1490    2.4659 O   0  0  0  0  0  0  0  0  0  0  0  0
    2.1505    2.5213    0.3353 O   0  0  0  0  0  0  0  0  0  0  0  0
   -0.2201    1.3869   -0.3364 C   0  0  0  0  0  0  0  0  0  0  0  0
   -1.4462    0.7985   -0.6332 C   0  0  0  0  0  0  0  0  0  0  0  0
   -2.3871   -0.0418    2.5804 H   0  0  0  0  0  0  0  0  0  0  0  0
   -0.1693    1.0559    3.0684 H   0  0  0  0  0  0  0  0  0  0  0  0
    0.4080    1.7929   -1.1191 H   0  0  0  0  0  0  0  0  0  0  0  0
   -1.8394    0.7178   -1.6446 H   0  0  0  0  0  0  0  0  0  0  0  0
   -4.3450    0.7468   -2.4696 B   0  0  0  0  0  0  0  0  0  0  0  0
   -5.0696   -0.3634   -1.8845 F   0  0  0  0  0  0  0  0  0  0  0  0
   -3.1292    0.2249   -2.9695 F   0  0  0  0  0  0  0  0  0  0  0  0
   -5.0944    1.3519   -3.4322 F   0  0  0  0  0  0  0  0  0  0  0  0
   -4.0333    1.6144   -1.3950 F   0  0  0  0  0  0  0  0  0  0  0  0
  1  4  2  0  0  0  0
  2  1  1  0  0  0  0
  3  2  1  0  0  0  0
  4  5  1  0  0  0  0
  4 12  1  0  0  0  0
  5 13  1  0  0  0  0
  6  7  1  0  0  0  0
  6  5  2  0  0  0  0
  7  8  2  0  0  0  0
  9  7  2  0  0  0  0
 10  6  1  0  0  0  0
 11 10  2  0  0  0  0
 11  1  1  0  0  0  0
 14 10  1  0  0  0  0
 15 11  1  0  0  0  0
 16 17  1  0  0  0  0
 16 20  1  0  0  0  0
 18 16  1  0  0  0  0
 19 16  1  0  0  0  0
M  RAD  2   2   2   3   3
M  END
