Coordinates from ORCA-job 4-NO2PhN2+~BF4-_B3LYPG-6-31G_dp-NX-Scan-d89-09-n800
 OpenBabel11261920323D

 20 19  0  0  0  0  0  0  0  0999 V2000
   -1.9440   -0.4728   -0.0093 C   0  0  0  0  0  0  0  0  0  0  0  0
   -2.8357   -1.4847   -0.2862 N   0  0  0  0  0  0  0  0  0  0  0  0
   -3.4762   -2.3771   -0.4698 N   0  0  0  0  0  0  0  0  0  0  0  0
   -2.1987    0.3450    1.1017 C   0  0  0  0  0  0  0  0  0  0  0  0
   -1.2723    1.3443    1.3745 C   0  0  0  0  0  0  0  0  0  0  0  0
   -0.1781    1.4927    0.5319 C   0  0  0  0  0  0  0  0  0  0  0  0
    0.8028    2.5642    0.8353 N   0  0  0  0  0  0  0  0  0  0  0  0
    0.5976    3.2430    1.8352 O   0  0  0  0  0  0  0  0  0  0  0  0
    1.7535    2.6826    0.0687 O   0  0  0  0  0  0  0  0  0  0  0  0
    0.0506    0.6936   -0.5912 C   0  0  0  0  0  0  0  0  0  0  0  0
   -0.8506   -0.3129   -0.8807 C   0  0  0  0  0  0  0  0  0  0  0  0
   -3.0944    0.2209    1.6919 H   0  0  0  0  0  0  0  0  0  0  0  0
   -1.4079    2.0195    2.2090 H   0  0  0  0  0  0  0  0  0  0  0  0
    0.9137    0.8805   -1.2163 H   0  0  0  0  0  0  0  0  0  0  0  0
   -0.7364   -0.9487   -1.7501 H   0  0  0  0  0  0  0  0  0  0  0  0
   -4.0232    1.6489   -1.0428 B   0  0  0  0  0  0  0  0  0  0  0  0
   -4.9090    2.4307   -1.7412 F   0  0  0  0  0  0  0  0  0  0  0  0
   -4.2411    0.2490   -1.3084 F   0  0  0  0  0  0  0  0  0  0  0  0
   -2.6852    1.9308   -1.3864 F   0  0  0  0  0  0  0  0  0  0  0  0
   -4.1721    1.8165    0.3602 F   0  0  0  0  0  0  0  0  0  0  0  0
  1  4  2  0  0  0  0
  2  1  1  0  0  0  0
  3  2  1  0  0  0  0
  4  5  1  0  0  0  0
  4 12  1  0  0  0  0
  5 13  1  0  0  0  0
  6  7  1  0  0  0  0
  6  5  2  0  0  0  0
  7  8  2  0  0  0  0
  9  7  2  0  0  0  0
 10  6  1  0  0  0  0
 11 10  2  0  0  0  0
 11  1  1  0  0  0  0
 14 10  1  0  0  0  0
 15 11  1  0  0  0  0
 16 20  1  0  0  0  0
 17 16  1  0  0  0  0
 18 16  1  0  0  0  0
 19 16  1  0  0  0  0
M  RAD  2   2   2   3   3
M  END
