Coordinates from ORCA-job 4-NO2PhN2+~BF4-_B3LYPG-6-31G_dp-NX-Scan-d89-09-n800
 OpenBabel11261920323D

 20 19  0  0  0  0  0  0  0  0999 V2000
   -1.9339   -0.5904   -0.0150 C   0  0  0  0  0  0  0  0  0  0  0  0
   -2.7232   -1.6916   -0.2267 N   0  0  0  0  0  0  0  0  0  0  0  0
   -3.2807   -2.6495   -0.3641 N   0  0  0  0  0  0  0  0  0  0  0  0
   -2.2463    0.2571    1.0611 C   0  0  0  0  0  0  0  0  0  0  0  0
   -1.3723    1.3093    1.3102 C   0  0  0  0  0  0  0  0  0  0  0  0
   -0.2710    1.4748    0.4839 C   0  0  0  0  0  0  0  0  0  0  0  0
    0.6539    2.6000    0.7633 N   0  0  0  0  0  0  0  0  0  0  0  0
    0.4098    3.2941    1.7434 O   0  0  0  0  0  0  0  0  0  0  0  0
    1.6049    2.7410    0.0006 O   0  0  0  0  0  0  0  0  0  0  0  0
    0.0134    0.6497   -0.6103 C   0  0  0  0  0  0  0  0  0  0  0  0
   -0.8301   -0.4074   -0.8776 C   0  0  0  0  0  0  0  0  0  0  0  0
   -3.1427    0.1126    1.6459 H   0  0  0  0  0  0  0  0  0  0  0  0
   -1.5655    2.0151    2.1065 H   0  0  0  0  0  0  0  0  0  0  0  0
    0.8765    0.8582   -1.2285 H   0  0  0  0  0  0  0  0  0  0  0  0
   -0.6657   -1.0737   -1.7157 H   0  0  0  0  0  0  0  0  0  0  0  0
   -3.9064    1.8379   -0.9761 B   0  0  0  0  0  0  0  0  0  0  0  0
   -4.7243    2.7501   -1.6081 F   0  0  0  0  0  0  0  0  0  0  0  0
   -4.2546    0.4829   -1.2623 F   0  0  0  0  0  0  0  0  0  0  0  0
   -2.5541    2.0107   -1.3492 F   0  0  0  0  0  0  0  0  0  0  0  0
   -3.9942    1.9853    0.4445 F   0  0  0  0  0  0  0  0  0  0  0  0
  1  4  2  0  0  0  0
  2  1  1  0  0  0  0
  3  2  1  0  0  0  0
  4  5  1  0  0  0  0
  4 12  1  0  0  0  0
  5 13  1  0  0  0  0
  6  7  1  0  0  0  0
  6  5  2  0  0  0  0
  7  8  2  0  0  0  0
  9  7  2  0  0  0  0
 10  6  1  0  0  0  0
 11 10  2  0  0  0  0
 11  1  1  0  0  0  0
 14 10  1  0  0  0  0
 15 11  1  0  0  0  0
 16 20  1  0  0  0  0
 17 16  1  0  0  0  0
 18 16  1  0  0  0  0
 19 16  1  0  0  0  0
M  RAD  2   2   2   3   3
M  END
