Coordinates from ORCA-job 4-NO2PhN2+~BF4-_B3LYPG-6-31G_dp-NX-Scan-d89-09-n800
 OpenBabel11261920313D

 20 19  0  0  0  0  0  0  0  0999 V2000
   -1.7242   -1.2368    0.1154 C   0  0  0  0  0  0  0  0  0  0  0  0
   -2.1841   -2.5195    0.1506 N   0  0  0  0  0  0  0  0  0  0  0  0
   -2.5277   -3.5859    0.1953 N   0  0  0  0  0  0  0  0  0  0  0  0
   -2.3932   -0.2466    0.8764 C   0  0  0  0  0  0  0  0  0  0  0  0
   -1.8449    1.0210    0.9086 C   0  0  0  0  0  0  0  0  0  0  0  0
   -0.7038    1.2725    0.1439 C   0  0  0  0  0  0  0  0  0  0  0  0
   -0.0369    2.5932    0.2618 N   0  0  0  0  0  0  0  0  0  0  0  0
   -0.2955    3.2429    1.2623 O   0  0  0  0  0  0  0  0  0  0  0  0
    0.7672    2.8816   -0.6165 O   0  0  0  0  0  0  0  0  0  0  0  0
   -0.0737    0.3084   -0.6530 C   0  0  0  0  0  0  0  0  0  0  0  0
   -0.5734   -0.9770   -0.6707 C   0  0  0  0  0  0  0  0  0  0  0  0
   -3.3108   -0.4755    1.4046 H   0  0  0  0  0  0  0  0  0  0  0  0
   -2.3403    1.8488    1.4109 H   0  0  0  0  0  0  0  0  0  0  0  0
    0.7944    0.5901   -1.2357 H   0  0  0  0  0  0  0  0  0  0  0  0
   -0.1070   -1.7664   -1.2484 H   0  0  0  0  0  0  0  0  0  0  0  0
   -3.5020    3.0234   -0.6087 B   0  0  0  0  0  0  0  0  0  0  0  0
   -4.2119    3.9736   -1.3045 F   0  0  0  0  0  0  0  0  0  0  0  0
   -4.0976    1.7433   -0.6674 F   0  0  0  0  0  0  0  0  0  0  0  0
   -2.1770    2.8937   -1.1562 F   0  0  0  0  0  0  0  0  0  0  0  0
   -3.3641    3.3813    0.7571 F   0  0  0  0  0  0  0  0  0  0  0  0
  1  2  1  0  0  0  0
  1  4  2  0  0  0  0
  2  3  1  0  0  0  0
  4  5  1  0  0  0  0
  4 12  1  0  0  0  0
  5 13  1  0  0  0  0
  6  7  1  0  0  0  0
  6  5  2  0  0  0  0
  7  8  2  0  0  0  0
  9  7  2  0  0  0  0
 10  6  1  0  0  0  0
 11 10  2  0  0  0  0
 11  1  1  0  0  0  0
 14 10  1  0  0  0  0
 15 11  1  0  0  0  0
 16 20  1  0  0  0  0
 17 16  1  0  0  0  0
 18 16  1  0  0  0  0
 19 16  1  0  0  0  0
M  RAD  2   2   2   3   3
M  END
