Coordinates from ORCA-job 4-NO2PhN2+~BF4-_B3LYPG-6-31G_dp-NX-Scan-d89-09-n800
 OpenBabel11261920313D

 20 19  0  0  0  0  0  0  0  0999 V2000
   -1.7835   -1.1793    0.1326 C   0  0  0  0  0  0  0  0  0  0  0  0
   -2.2270   -2.4649    0.1561 N   0  0  0  0  0  0  0  0  0  0  0  0
   -2.5536   -3.5382    0.1944 N   0  0  0  0  0  0  0  0  0  0  0  0
   -2.3367   -0.2488    1.0474 C   0  0  0  0  0  0  0  0  0  0  0  0
   -1.7880    1.0156    1.0943 C   0  0  0  0  0  0  0  0  0  0  0  0
   -0.7612    1.3354    0.1994 C   0  0  0  0  0  0  0  0  0  0  0  0
   -0.0412    2.6258    0.3760 N   0  0  0  0  0  0  0  0  0  0  0  0
   -0.3267    3.2787    1.3678 O   0  0  0  0  0  0  0  0  0  0  0  0
    0.8229    2.8908   -0.4504 O   0  0  0  0  0  0  0  0  0  0  0  0
   -0.2430    0.4287   -0.7360 C   0  0  0  0  0  0  0  0  0  0  0  0
   -0.7500   -0.8507   -0.7824 C   0  0  0  0  0  0  0  0  0  0  0  0
   -3.1600   -0.5315    1.6931 H   0  0  0  0  0  0  0  0  0  0  0  0
   -2.1942    1.7951    1.7244 H   0  0  0  0  0  0  0  0  0  0  0  0
    0.5469    0.7543   -1.4009 H   0  0  0  0  0  0  0  0  0  0  0  0
   -0.3700   -1.5923   -1.4754 H   0  0  0  0  0  0  0  0  0  0  0  0
   -3.3903    2.8662   -0.7708 B   0  0  0  0  0  0  0  0  0  0  0  0
   -4.0418    3.8180   -1.5198 F   0  0  0  0  0  0  0  0  0  0  0  0
   -3.9386    1.5786   -0.9092 F   0  0  0  0  0  0  0  0  0  0  0  0
   -2.0067    2.7766   -1.2122 F   0  0  0  0  0  0  0  0  0  0  0  0
   -3.3637    3.2080    0.5975 F   0  0  0  0  0  0  0  0  0  0  0  0
  1  2  1  0  0  0  0
  1  4  2  0  0  0  0
  2  3  1  0  0  0  0
  4  5  1  0  0  0  0
  4 12  1  0  0  0  0
  5 13  1  0  0  0  0
  6  7  1  0  0  0  0
  6  5  2  0  0  0  0
  7  8  2  0  0  0  0
  9  7  2  0  0  0  0
 10  6  1  0  0  0  0
 11 10  2  0  0  0  0
 11  1  1  0  0  0  0
 14 10  1  0  0  0  0
 15 11  1  0  0  0  0
 16 20  1  0  0  0  0
 17 16  1  0  0  0  0
 18 16  1  0  0  0  0
 19 16  1  0  0  0  0
M  RAD  2   2   2   3   3
M  END
