Coordinates from ORCA-job 4-NO2PhN2+~BF4-_B3LYPG-6-31G_dp-NX-Scan-d89-09-n800
 OpenBabel11261920313D

 20 19  0  0  0  0  0  0  0  0999 V2000
   -1.8718   -1.0653    0.1387 C   0  0  0  0  0  0  0  0  0  0  0  0
   -2.3637   -2.3333    0.1333 N   0  0  0  0  0  0  0  0  0  0  0  0
   -2.7217   -3.3973    0.1528 N   0  0  0  0  0  0  0  0  0  0  0  0
   -2.2905   -0.1815    1.1616 C   0  0  0  0  0  0  0  0  0  0  0  0
   -1.6878    1.0582    1.2301 C   0  0  0  0  0  0  0  0  0  0  0  0
   -0.7276    1.3907    0.2697 C   0  0  0  0  0  0  0  0  0  0  0  0
    0.0483    2.6454    0.4585 N   0  0  0  0  0  0  0  0  0  0  0  0
   -0.2118    3.3089    1.4520 O   0  0  0  0  0  0  0  0  0  0  0  0
    0.9239    2.8810   -0.3640 O   0  0  0  0  0  0  0  0  0  0  0  0
   -0.3408    0.5298   -0.7657 C   0  0  0  0  0  0  0  0  0  0  0  0
   -0.9183   -0.7164   -0.8517 C   0  0  0  0  0  0  0  0  0  0  0  0
   -3.0524   -0.4799    1.8721 H   0  0  0  0  0  0  0  0  0  0  0  0
   -1.9731    1.7916    1.9696 H   0  0  0  0  0  0  0  0  0  0  0  0
    0.3974    0.8683   -1.4811 H   0  0  0  0  0  0  0  0  0  0  0  0
   -0.6488   -1.4201   -1.6304 H   0  0  0  0  0  0  0  0  0  0  0  0
   -3.3355    2.6288   -0.8958 B   0  0  0  0  0  0  0  0  0  0  0  0
   -4.0763    3.5132   -1.6455 F   0  0  0  0  0  0  0  0  0  0  0  0
   -3.5522    1.2800   -1.2514 F   0  0  0  0  0  0  0  0  0  0  0  0
   -1.9258    2.8902   -1.1118 F   0  0  0  0  0  0  0  0  0  0  0  0
   -3.5780    2.7736    0.4847 F   0  0  0  0  0  0  0  0  0  0  0  0
  1  4  2  0  0  0  0
  2  1  1  0  0  0  0
  2  3  1  0  0  0  0
  4  5  1  0  0  0  0
  4 12  1  0  0  0  0
  5 13  1  0  0  0  0
  6  7  1  0  0  0  0
  6  5  2  0  0  0  0
  7  8  2  0  0  0  0
  9  7  2  0  0  0  0
 10  6  1  0  0  0  0
 11 10  2  0  0  0  0
 11  1  1  0  0  0  0
 14 10  1  0  0  0  0
 15 11  1  0  0  0  0
 16 20  1  0  0  0  0
 17 16  1  0  0  0  0
 18 16  1  0  0  0  0
 19 16  1  0  0  0  0
M  RAD  2   2   2   3   3
M  END
