Coordinates from ORCA-job 4-NO2PhN2+~BF4-_B3LYPG-6-31G_dp-NX-Scan-d89-09-n800
 OpenBabel11261920323D

 20 19  0  0  0  0  0  0  0  0999 V2000
   -1.9181   -0.8852    0.1345 C   0  0  0  0  0  0  0  0  0  0  0  0
   -2.6504   -2.0201   -0.0122 N   0  0  0  0  0  0  0  0  0  0  0  0
   -3.2370   -2.9676   -0.1253 N   0  0  0  0  0  0  0  0  0  0  0  0
   -2.2288   -0.0285    1.2116 C   0  0  0  0  0  0  0  0  0  0  0  0
   -1.4956    1.1357    1.3327 C   0  0  0  0  0  0  0  0  0  0  0  0
   -0.5391    1.4239    0.3625 C   0  0  0  0  0  0  0  0  0  0  0  0
    0.2293    2.6869    0.4902 N   0  0  0  0  0  0  0  0  0  0  0  0
    0.0137    3.3688    1.4835 O   0  0  0  0  0  0  0  0  0  0  0  0
    1.0438    2.9304   -0.3917 O   0  0  0  0  0  0  0  0  0  0  0  0
   -0.2211    0.5687   -0.6979 C   0  0  0  0  0  0  0  0  0  0  0  0
   -0.9237   -0.6074   -0.8336 C   0  0  0  0  0  0  0  0  0  0  0  0
   -3.0362   -0.2622    1.8936 H   0  0  0  0  0  0  0  0  0  0  0  0
   -1.7089    1.8598    2.1061 H   0  0  0  0  0  0  0  0  0  0  0  0
    0.5341    0.8685   -1.4125 H   0  0  0  0  0  0  0  0  0  0  0  0
   -0.7466   -1.2903   -1.6556 H   0  0  0  0  0  0  0  0  0  0  0  0
   -3.4306    2.2527   -0.9268 B   0  0  0  0  0  0  0  0  0  0  0  0
   -4.3033    3.0114   -1.6698 F   0  0  0  0  0  0  0  0  0  0  0  0
   -3.2653    0.9517   -1.4812 F   0  0  0  0  0  0  0  0  0  0  0  0
   -2.1436    2.8745   -0.8898 F   0  0  0  0  0  0  0  0  0  0  0  0
   -3.8790    2.0946    0.4076 F   0  0  0  0  0  0  0  0  0  0  0  0
  1  4  2  0  0  0  0
  2  1  1  0  0  0  0
  3  2  1  0  0  0  0
  4  5  1  0  0  0  0
  4 12  1  0  0  0  0
  5 13  1  0  0  0  0
  6  7  1  0  0  0  0
  6  5  2  0  0  0  0
  7  8  2  0  0  0  0
  9  7  2  0  0  0  0
 10  6  1  0  0  0  0
 11 10  2  0  0  0  0
 11  1  1  0  0  0  0
 14 10  1  0  0  0  0
 15 11  1  0  0  0  0
 16 19  1  0  0  0  0
 16 20  1  0  0  0  0
 17 16  1  0  0  0  0
 18 16  1  0  0  0  0
M  RAD  2   2   2   3   3
M  END
