Coordinates from ORCA-job 4-NO2PhN2+~BF4-_B3LYPG-6-31G_dp-NX-Scan-d89-09-n800
 OpenBabel11261920323D

 20 19  0  0  0  0  0  0  0  0999 V2000
   -2.0218   -0.3377    0.1004 C   0  0  0  0  0  0  0  0  0  0  0  0
   -2.9965   -1.2912   -0.1323 N   0  0  0  0  0  0  0  0  0  0  0  0
   -3.6910   -2.1552   -0.2245 N   0  0  0  0  0  0  0  0  0  0  0  0
   -2.1248    0.4247    1.2720 C   0  0  0  0  0  0  0  0  0  0  0  0
   -1.1275    1.3582    1.5096 C   0  0  0  0  0  0  0  0  0  0  0  0
   -0.1100    1.5044    0.5701 C   0  0  0  0  0  0  0  0  0  0  0  0
    0.9511    2.5072    0.8349 N   0  0  0  0  0  0  0  0  0  0  0  0
    0.8729    3.1389    1.8831 O   0  0  0  0  0  0  0  0  0  0  0  0
    1.8339    2.6211   -0.0089 O   0  0  0  0  0  0  0  0  0  0  0  0
   -0.0409    0.7707   -0.6133 C   0  0  0  0  0  0  0  0  0  0  0  0
   -1.0253   -0.1690   -0.8714 C   0  0  0  0  0  0  0  0  0  0  0  0
   -2.9753    0.3107    1.9296 H   0  0  0  0  0  0  0  0  0  0  0  0
   -1.1402    1.9855    2.3913 H   0  0  0  0  0  0  0  0  0  0  0  0
    0.7599    0.9603   -1.3160 H   0  0  0  0  0  0  0  0  0  0  0  0
   -1.0552   -0.7304   -1.7958 H   0  0  0  0  0  0  0  0  0  0  0  0
   -4.0264    1.4505   -1.2586 B   0  0  0  0  0  0  0  0  0  0  0  0
   -4.9424    2.2275   -1.9256 F   0  0  0  0  0  0  0  0  0  0  0  0
   -3.6466    0.2913   -2.0226 F   0  0  0  0  0  0  0  0  0  0  0  0
   -2.8522    2.1700   -0.9636 F   0  0  0  0  0  0  0  0  0  0  0  0
   -4.5480    0.9284   -0.0324 F   0  0  0  0  0  0  0  0  0  0  0  0
  1  4  2  0  0  0  0
  2  1  1  0  0  0  0
  3  2  1  0  0  0  0
  4  5  1  0  0  0  0
  4 12  1  0  0  0  0
  5 13  1  0  0  0  0
  6  7  1  0  0  0  0
  6  5  2  0  0  0  0
  7  8  2  0  0  0  0
  9  7  2  0  0  0  0
 10  6  1  0  0  0  0
 11 10  2  0  0  0  0
 11  1  1  0  0  0  0
 14 10  1  0  0  0  0
 15 11  1  0  0  0  0
 16 19  1  0  0  0  0
 16 20  1  0  0  0  0
 17 16  1  0  0  0  0
 18 16  1  0  0  0  0
M  RAD  2   2   2   3   3
M  END
