Coordinates from ORCA-job 4-NO2PhN2+~BF4-_B3LYPG-6-31G_dp-NX-Scan-d89-09-n800
 OpenBabel11261920323D

 20 19  0  0  0  0  0  0  0  0999 V2000
   -2.1405    0.0553    0.3831 C   0  0  0  0  0  0  0  0  0  0  0  0
   -3.2635   -0.7461    0.1992 N   0  0  0  0  0  0  0  0  0  0  0  0
   -4.1144   -1.4556    0.1533 N   0  0  0  0  0  0  0  0  0  0  0  0
   -1.7667    0.2956    1.7169 C   0  0  0  0  0  0  0  0  0  0  0  0
   -0.6273    1.0528    1.9370 C   0  0  0  0  0  0  0  0  0  0  0  0
    0.0828    1.5247    0.8312 C   0  0  0  0  0  0  0  0  0  0  0  0
    1.3073    2.3273    1.0794 N   0  0  0  0  0  0  0  0  0  0  0  0
    1.6057    2.5384    2.2510 O   0  0  0  0  0  0  0  0  0  0  0  0
    1.9297    2.7139    0.0976 O   0  0  0  0  0  0  0  0  0  0  0  0
   -0.2994    1.2833   -0.4850 C   0  0  0  0  0  0  0  0  0  0  0  0
   -1.4427    0.5307   -0.7349 C   0  0  0  0  0  0  0  0  0  0  0  0
   -2.3559   -0.0922    2.5394 H   0  0  0  0  0  0  0  0  0  0  0  0
   -0.2811    1.2826    2.9362 H   0  0  0  0  0  0  0  0  0  0  0  0
    0.2847    1.6923   -1.2994 H   0  0  0  0  0  0  0  0  0  0  0  0
   -1.8250    0.3401   -1.7304 H   0  0  0  0  0  0  0  0  0  0  0  0
   -4.2309    0.9540   -2.1405 B   0  0  0  0  0  0  0  0  0  0  0  0
   -5.3873    1.0536   -2.8620 F   0  0  0  0  0  0  0  0  0  0  0  0
   -3.6760   -0.3787   -2.2519 F   0  0  0  0  0  0  0  0  0  0  0  0
   -3.2326    1.8440   -2.5500 F   0  0  0  0  0  0  0  0  0  0  0  0
   -4.4735    1.1498   -0.7445 F   0  0  0  0  0  0  0  0  0  0  0  0
  1  4  2  0  0  0  0
  2  1  1  0  0  0  0
  3  2  1  0  0  0  0
  4  5  1  0  0  0  0
  4 12  1  0  0  0  0
  5 13  1  0  0  0  0
  6  7  1  0  0  0  0
  6  5  2  0  0  0  0
  7  8  2  0  0  0  0
  9  7  2  0  0  0  0
 10  6  1  0  0  0  0
 11 10  2  0  0  0  0
 11  1  1  0  0  0  0
 14 10  1  0  0  0  0
 15 11  1  0  0  0  0
 16 20  1  0  0  0  0
 17 16  1  0  0  0  0
 18 16  1  0  0  0  0
 19 16  1  0  0  0  0
M  RAD  2   2   2   3   3
M  END
