Coordinates from ORCA-job 4-NO2PhN2+~BF4-_B3LYPG-6-31G_dp-NX-Scan-d89-09-n800
 OpenBabel11261920323D

 20 19  0  0  0  0  0  0  0  0999 V2000
   -2.1472    0.0836    0.3963 C   0  0  0  0  0  0  0  0  0  0  0  0
   -3.2825   -0.7010    0.2121 N   0  0  0  0  0  0  0  0  0  0  0  0
   -4.1476   -1.3928    0.1627 N   0  0  0  0  0  0  0  0  0  0  0  0
   -1.7500    0.2866    1.7294 C   0  0  0  0  0  0  0  0  0  0  0  0
   -0.6009    1.0294    1.9512 C   0  0  0  0  0  0  0  0  0  0  0  0
    0.0951    1.5246    0.8470 C   0  0  0  0  0  0  0  0  0  0  0  0
    1.3296    2.3116    1.0959 N   0  0  0  0  0  0  0  0  0  0  0  0
    1.6484    2.4900    2.2675 O   0  0  0  0  0  0  0  0  0  0  0  0
    1.9387    2.7193    0.1143 O   0  0  0  0  0  0  0  0  0  0  0  0
   -0.3105    1.3201   -0.4688 C   0  0  0  0  0  0  0  0  0  0  0  0
   -1.4632    0.5828   -0.7202 C   0  0  0  0  0  0  0  0  0  0  0  0
   -2.3287   -0.1180    2.5513 H   0  0  0  0  0  0  0  0  0  0  0  0
   -0.2373    1.2304    2.9505 H   0  0  0  0  0  0  0  0  0  0  0  0
    0.2643    1.7448   -1.2818 H   0  0  0  0  0  0  0  0  0  0  0  0
   -1.8580    0.4200   -1.7163 H   0  0  0  0  0  0  0  0  0  0  0  0
   -4.2428    0.9146   -2.1852 B   0  0  0  0  0  0  0  0  0  0  0  0
   -5.4221    0.9534   -2.8744 F   0  0  0  0  0  0  0  0  0  0  0  0
   -3.6663   -0.4114   -2.2455 F   0  0  0  0  0  0  0  0  0  0  0  0
   -3.2734    1.8000   -2.6661 F   0  0  0  0  0  0  0  0  0  0  0  0
   -4.4522    1.1781   -0.7939 F   0  0  0  0  0  0  0  0  0  0  0  0
  1  4  2  0  0  0  0
  2  1  1  0  0  0  0
  3  2  1  0  0  0  0
  4  5  1  0  0  0  0
  4 12  1  0  0  0  0
  5 13  1  0  0  0  0
  6  7  1  0  0  0  0
  6  5  2  0  0  0  0
  7  8  2  0  0  0  0
  9  7  2  0  0  0  0
 10  6  1  0  0  0  0
 11 10  2  0  0  0  0
 11  1  1  0  0  0  0
 14 10  1  0  0  0  0
 15 11  1  0  0  0  0
 16 20  1  0  0  0  0
 17 16  1  0  0  0  0
 18 16  1  0  0  0  0
 19 16  1  0  0  0  0
M  RAD  2   2   2   3   3
M  END
