Coordinates from ORCA-job 4-NO2PhN2+~BF4-_B3LYPG-6-31G_dp-NX-Scan-d89-09-n800
 OpenBabel11261920313D

 20 19  0  0  0  0  0  0  0  0999 V2000
   -1.8355   -1.1192    0.1408 C   0  0  0  0  0  0  0  0  0  0  0  0
   -2.2916   -2.4006    0.1574 N   0  0  0  0  0  0  0  0  0  0  0  0
   -2.6216   -3.4732    0.1920 N   0  0  0  0  0  0  0  0  0  0  0  0
   -2.3068   -0.2168    1.1254 C   0  0  0  0  0  0  0  0  0  0  0  0
   -1.7334    1.0369    1.1810 C   0  0  0  0  0  0  0  0  0  0  0  0
   -0.7541    1.3693    0.2388 C   0  0  0  0  0  0  0  0  0  0  0  0
    0.0049    2.6351    0.4287 N   0  0  0  0  0  0  0  0  0  0  0  0
   -0.2715    3.2974    1.4179 O   0  0  0  0  0  0  0  0  0  0  0  0
    0.8861    2.8760   -0.3864 O   0  0  0  0  0  0  0  0  0  0  0  0
   -0.3180    0.4908   -0.7627 C   0  0  0  0  0  0  0  0  0  0  0  0
   -0.8592   -0.7729   -0.8290 C   0  0  0  0  0  0  0  0  0  0  0  0
   -3.0832   -0.5144    1.8205 H   0  0  0  0  0  0  0  0  0  0  0  0
   -2.0642    1.7864    1.8847 H   0  0  0  0  0  0  0  0  0  0  0  0
    0.4348    0.8275   -1.4637 H   0  0  0  0  0  0  0  0  0  0  0  0
   -0.5454   -1.4916   -1.5770 H   0  0  0  0  0  0  0  0  0  0  0  0
   -3.3536    2.7401   -0.8589 B   0  0  0  0  0  0  0  0  0  0  0  0
   -4.0404    3.6809   -1.5913 F   0  0  0  0  0  0  0  0  0  0  0  0
   -3.7241    1.4165   -1.1599 F   0  0  0  0  0  0  0  0  0  0  0  0
   -1.9351    2.8490   -1.1606 F   0  0  0  0  0  0  0  0  0  0  0  0
   -3.4947    2.9488    0.5280 F   0  0  0  0  0  0  0  0  0  0  0  0
  1  2  1  0  0  0  0
  1  4  2  0  0  0  0
  2  3  1  0  0  0  0
  4  5  1  0  0  0  0
  4 12  1  0  0  0  0
  5 13  1  0  0  0  0
  6  7  1  0  0  0  0
  6  5  2  0  0  0  0
  7  8  2  0  0  0  0
  9  7  2  0  0  0  0
 10  6  1  0  0  0  0
 11 10  2  0  0  0  0
 11  1  1  0  0  0  0
 14 10  1  0  0  0  0
 15 11  1  0  0  0  0
 16 20  1  0  0  0  0
 17 16  1  0  0  0  0
 18 16  1  0  0  0  0
 19 16  1  0  0  0  0
M  RAD  2   2   2   3   3
M  END
