Coordinates from ORCA-job 4-NO2PhN2+~BF4-_B3LYPG-6-31G_dp-NX-Scan-d89-09-n800
 OpenBabel11261920323D

 20 19  0  0  0  0  0  0  0  0999 V2000
   -1.9183   -0.8867    0.1345 C   0  0  0  0  0  0  0  0  0  0  0  0
   -2.6465   -2.0243   -0.0090 N   0  0  0  0  0  0  0  0  0  0  0  0
   -3.2322   -2.9726   -0.1219 N   0  0  0  0  0  0  0  0  0  0  0  0
   -2.2298   -0.0294    1.2110 C   0  0  0  0  0  0  0  0  0  0  0  0
   -1.4975    1.1354    1.3317 C   0  0  0  0  0  0  0  0  0  0  0  0
   -0.5409    1.4238    0.3616 C   0  0  0  0  0  0  0  0  0  0  0  0
    0.2282    2.6862    0.4904 N   0  0  0  0  0  0  0  0  0  0  0  0
    0.0129    3.3676    1.4841 O   0  0  0  0  0  0  0  0  0  0  0  0
    1.0431    2.9298   -0.3912 O   0  0  0  0  0  0  0  0  0  0  0  0
   -0.2232    0.5690   -0.6992 C   0  0  0  0  0  0  0  0  0  0  0  0
   -0.9246   -0.6078   -0.8342 C   0  0  0  0  0  0  0  0  0  0  0  0
   -3.0367   -0.2637    1.8935 H   0  0  0  0  0  0  0  0  0  0  0  0
   -1.7110    1.8594    2.1051 H   0  0  0  0  0  0  0  0  0  0  0  0
    0.5314    0.8693   -1.4142 H   0  0  0  0  0  0  0  0  0  0  0  0
   -0.7470   -1.2909   -1.6560 H   0  0  0  0  0  0  0  0  0  0  0  0
   -3.4295    2.2557   -0.9270 B   0  0  0  0  0  0  0  0  0  0  0  0
   -4.3004    3.0156   -1.6701 F   0  0  0  0  0  0  0  0  0  0  0  0
   -3.2656    0.9548   -1.4810 F   0  0  0  0  0  0  0  0  0  0  0  0
   -2.1411    2.8759   -0.8899 F   0  0  0  0  0  0  0  0  0  0  0  0
   -3.8778    2.0988    0.4076 F   0  0  0  0  0  0  0  0  0  0  0  0
  1  4  2  0  0  0  0
  2  1  1  0  0  0  0
  3  2  1  0  0  0  0
  4  5  1  0  0  0  0
  4 12  1  0  0  0  0
  5 13  1  0  0  0  0
  6  7  1  0  0  0  0
  6  5  2  0  0  0  0
  7  8  2  0  0  0  0
  9  7  2  0  0  0  0
 10  6  1  0  0  0  0
 11 10  2  0  0  0  0
 11  1  1  0  0  0  0
 14 10  1  0  0  0  0
 15 11  1  0  0  0  0
 16 19  1  0  0  0  0
 16 20  1  0  0  0  0
 17 16  1  0  0  0  0
 18 16  1  0  0  0  0
M  RAD  2   2   2   3   3
M  END
