Coordinates from ORCA-job 4-NO2PhN2+~BF4-_B3LYPG-6-31G_dp-NX-Scan-d89-09-n800
 OpenBabel11261920323D

 20 19  0  0  0  0  0  0  0  0999 V2000
   -1.9435   -0.5172   -0.0121 C   0  0  0  0  0  0  0  0  0  0  0  0
   -2.7976   -1.5634   -0.2666 N   0  0  0  0  0  0  0  0  0  0  0  0
   -3.4042   -2.4841   -0.4331 N   0  0  0  0  0  0  0  0  0  0  0  0
   -2.2185    0.3104    1.0878 C   0  0  0  0  0  0  0  0  0  0  0  0
   -1.3121    1.3305    1.3517 C   0  0  0  0  0  0  0  0  0  0  0  0
   -0.2169    1.4874    0.5134 C   0  0  0  0  0  0  0  0  0  0  0  0
    0.7420    2.5808    0.8072 N   0  0  0  0  0  0  0  0  0  0  0  0
    0.5224    3.2652    1.8001 O   0  0  0  0  0  0  0  0  0  0  0  0
    1.6920    2.7093    0.0412 O   0  0  0  0  0  0  0  0  0  0  0  0
    0.0325    0.6789   -0.5997 C   0  0  0  0  0  0  0  0  0  0  0  0
   -0.8469   -0.3471   -0.8812 C   0  0  0  0  0  0  0  0  0  0  0  0
   -3.1123    0.1756    1.6785 H   0  0  0  0  0  0  0  0  0  0  0  0
   -1.4682    2.0164    2.1735 H   0  0  0  0  0  0  0  0  0  0  0  0
    0.8949    0.8751   -1.2229 H   0  0  0  0  0  0  0  0  0  0  0  0
   -0.7149   -0.9935   -1.7403 H   0  0  0  0  0  0  0  0  0  0  0  0
   -3.9694    1.7178   -1.0165 B   0  0  0  0  0  0  0  0  0  0  0  0
   -4.8264    2.5553   -1.6927 F   0  0  0  0  0  0  0  0  0  0  0  0
   -4.2443    0.3316   -1.2803 F   0  0  0  0  0  0  0  0  0  0  0  0
   -2.6240    1.9490   -1.3749 F   0  0  0  0  0  0  0  0  0  0  0  0
   -4.0909    1.8880    0.3927 F   0  0  0  0  0  0  0  0  0  0  0  0
  1  4  2  0  0  0  0
  2  1  1  0  0  0  0
  3  2  1  0  0  0  0
  4  5  1  0  0  0  0
  4 12  1  0  0  0  0
  5 13  1  0  0  0  0
  6  7  1  0  0  0  0
  6  5  2  0  0  0  0
  7  8  2  0  0  0  0
  9  7  2  0  0  0  0
 10  6  1  0  0  0  0
 11 10  2  0  0  0  0
 11  1  1  0  0  0  0
 14 10  1  0  0  0  0
 15 11  1  0  0  0  0
 16 20  1  0  0  0  0
 17 16  1  0  0  0  0
 18 16  1  0  0  0  0
 19 16  1  0  0  0  0
M  RAD  2   2   2   3   3
M  END
