Coordinates from ORCA-job 4-NO2PhN2+~BF4-_B3LYPG-6-31G_dp-NX-Scan-d89-09-n800
 OpenBabel11261920323D

 20 19  0  0  0  0  0  0  0  0999 V2000
   -2.2633    0.2039    0.6117 C   0  0  0  0  0  0  0  0  0  0  0  0
   -3.5402   -0.4013    0.5813 N   0  0  0  0  0  0  0  0  0  0  0  0
   -4.2795   -0.7678   -0.2800 N   0  0  0  0  0  0  0  0  0  0  0  0
   -1.7779    0.4054    1.9148 C   0  0  0  0  0  0  0  0  0  0  0  0
   -0.5356    0.9925    2.1164 C   0  0  0  0  0  0  0  0  0  0  0  0
    0.1996    1.3731    0.9967 C   0  0  0  0  0  0  0  0  0  0  0  0
    1.5229    2.0018    1.1971 N   0  0  0  0  0  0  0  0  0  0  0  0
    1.9041    2.1542    2.3551 O   0  0  0  0  0  0  0  0  0  0  0  0
    2.1507    2.3286    0.1937 O   0  0  0  0  0  0  0  0  0  0  0  0
   -0.2639    1.1870   -0.3040 C   0  0  0  0  0  0  0  0  0  0  0  0
   -1.5061    0.5956   -0.5096 C   0  0  0  0  0  0  0  0  0  0  0  0
   -2.3912    0.0946    2.7527 H   0  0  0  0  0  0  0  0  0  0  0  0
   -0.1335    1.1603    3.1072 H   0  0  0  0  0  0  0  0  0  0  0  0
    0.3484    1.5060   -1.1378 H   0  0  0  0  0  0  0  0  0  0  0  0
   -1.8809    0.4491   -1.5097 H   0  0  0  0  0  0  0  0  0  0  0  0
   -4.4216    1.2586   -2.7458 B   0  0  0  0  0  0  0  0  0  0  0  0
   -3.7348   -0.5582   -1.6735 F   0  0  0  0  0  0  0  0  0  0  0  0
   -3.2585    1.3425   -3.3833 F   0  0  0  0  0  0  0  0  0  0  0  0
   -5.4607    0.7053   -3.3414 F   0  0  0  0  0  0  0  0  0  0  0  0
   -4.5846    1.9348   -1.6155 F   0  0  0  0  0  0  0  0  0  0  0  0
  1  4  2  0  0  0  0
  2  1  1  0  0  0  0
  3  2  1  0  0  0  0
  4  5  1  0  0  0  0
  4 12  1  0  0  0  0
  5 13  1  0  0  0  0
  6  7  1  0  0  0  0
  6  5  2  0  0  0  0
  7  8  2  0  0  0  0
  9  7  2  0  0  0  0
 10  6  1  0  0  0  0
 11 10  2  0  0  0  0
 11  1  1  0  0  0  0
 14 10  1  0  0  0  0
 15 11  1  0  0  0  0
 16 20  1  0  0  0  0
 17  3  1  0  0  0  0
 18 16  1  0  0  0  0
 19 16  1  0  0  0  0
M  RAD  2   2   2   3   2
M  END
