Coordinates from ORCA-job 4-NO2PhN2+~BF4-_B3LYPG-6-31G_dp-NX-Scan-d89-09-n800
 OpenBabel11261920323D

 20 20  0  0  0  0  0  0  0  0999 V2000
   -2.0687    1.0453    0.0377 C   0  0  0  0  0  0  0  0  0  0  0  0
   -3.4102    1.0288   -0.4511 N   0  0  0  0  0  0  0  0  0  0  0  0
   -3.6600    0.3989   -1.5193 N   0  0  0  0  0  0  0  0  0  0  0  0
   -1.9535    0.9656    1.4348 C   0  0  0  0  0  0  0  0  0  0  0  0
   -0.7046    1.0242    2.0402 C   0  0  0  0  0  0  0  0  0  0  0  0
    0.4191    1.2001    1.2350 C   0  0  0  0  0  0  0  0  0  0  0  0
    1.7479    1.2764    1.8697 N   0  0  0  0  0  0  0  0  0  0  0  0
    1.7961    1.1749    3.0934 O   0  0  0  0  0  0  0  0  0  0  0  0
    2.7187    1.4346    1.1322 O   0  0  0  0  0  0  0  0  0  0  0  0
    0.3292    1.3198   -0.1496 C   0  0  0  0  0  0  0  0  0  0  0  0
   -0.9208    1.2342   -0.7540 C   0  0  0  0  0  0  0  0  0  0  0  0
   -2.8560    0.8560    2.0258 H   0  0  0  0  0  0  0  0  0  0  0  0
   -0.5867    0.9512    3.1142 H   0  0  0  0  0  0  0  0  0  0  0  0
    1.2298    1.4744   -0.7301 H   0  0  0  0  0  0  0  0  0  0  0  0
   -0.9909    1.3492   -1.8305 H   0  0  0  0  0  0  0  0  0  0  0  0
   -5.3443    0.3522   -2.2054 B   0  0  0  0  0  0  0  0  0  0  0  0
   -2.9637   -0.1003   -2.0352 F   0  0  0  0  0  0  0  0  0  0  0  0
   -5.0915    0.9478   -3.4043 F   0  0  0  0  0  0  0  0  0  0  0  0
   -5.5036   -0.9994   -2.2553 F   0  0  0  0  0  0  0  0  0  0  0  0
   -6.0928    1.0326   -1.3224 F   0  0  0  0  0  0  0  0  0  0  0  0
  1  4  2  0  0  0  0
  2  1  1  0  0  0  0
  3  2  1  0  0  0  0
  4 12  1  0  0  0  0
  4  5  1  0  0  0  0
  5 13  1  0  0  0  0
  6  7  1  0  0  0  0
  6  5  2  0  0  0  0
  7  8  2  0  0  0  0
  9  7  2  0  0  0  0
 10  6  1  0  0  0  0
 11 10  2  0  0  0  0
 11  1  1  0  0  0  0
 14 10  1  0  0  0  0
 15 11  1  0  0  0  0
 16  3  1  0  0  0  0
 16 20  1  0  0  0  0
 17  3  1  0  0  0  0
 18 16  1  0  0  0  0
 19 16  1  0  0  0  0
M  RAD  1   2   2
M  END
