Coordinates from ORCA-job 4-NO2PhN2+~BF4-_B3LYPG-6-31G_dp-NX-Scan-d89-09-n800
 OpenBabel11261920323D

 20 19  0  0  0  0  0  0  0  0999 V2000
   -1.9368   -0.5741   -0.0146 C   0  0  0  0  0  0  0  0  0  0  0  0
   -2.7398   -1.6643   -0.2355 N   0  0  0  0  0  0  0  0  0  0  0  0
   -3.3060   -2.6158   -0.3786 N   0  0  0  0  0  0  0  0  0  0  0  0
   -2.2408    0.2690    1.0670 C   0  0  0  0  0  0  0  0  0  0  0  0
   -1.3594    1.3142    1.3195 C   0  0  0  0  0  0  0  0  0  0  0  0
   -0.2597    1.4778    0.4904 C   0  0  0  0  0  0  0  0  0  0  0  0
    0.6729    2.5961    0.7732 N   0  0  0  0  0  0  0  0  0  0  0  0
    0.4338    3.2885    1.7557 O   0  0  0  0  0  0  0  0  0  0  0  0
    1.6236    2.7345    0.0096 O   0  0  0  0  0  0  0  0  0  0  0  0
    0.0169    0.6564   -0.6082 C   0  0  0  0  0  0  0  0  0  0  0  0
   -0.8347   -0.3937   -0.8789 C   0  0  0  0  0  0  0  0  0  0  0  0
   -3.1362    0.1261    1.6537 H   0  0  0  0  0  0  0  0  0  0  0  0
   -1.5443    2.0156    2.1218 H   0  0  0  0  0  0  0  0  0  0  0  0
    0.8798    0.8623   -1.2276 H   0  0  0  0  0  0  0  0  0  0  0  0
   -0.6778   -1.0555   -1.7220 H   0  0  0  0  0  0  0  0  0  0  0  0
   -3.9191    1.8112   -0.9851 B   0  0  0  0  0  0  0  0  0  0  0  0
   -4.7440    2.7101   -1.6263 F   0  0  0  0  0  0  0  0  0  0  0  0
   -4.2540    0.4496   -1.2660 F   0  0  0  0  0  0  0  0  0  0  0  0
   -2.5678    1.9940   -1.3554 F   0  0  0  0  0  0  0  0  0  0  0  0
   -4.0132    1.9643    0.4331 F   0  0  0  0  0  0  0  0  0  0  0  0
  1  4  2  0  0  0  0
  2  1  1  0  0  0  0
  3  2  1  0  0  0  0
  4  5  1  0  0  0  0
  4 12  1  0  0  0  0
  5 13  1  0  0  0  0
  6  7  1  0  0  0  0
  6  5  2  0  0  0  0
  7  8  2  0  0  0  0
  9  7  2  0  0  0  0
 10  6  1  0  0  0  0
 11 10  2  0  0  0  0
 11  1  1  0  0  0  0
 14 10  1  0  0  0  0
 15 11  1  0  0  0  0
 16 20  1  0  0  0  0
 17 16  1  0  0  0  0
 18 16  1  0  0  0  0
 19 16  1  0  0  0  0
M  RAD  2   2   2   3   3
M  END
