Coordinates from ORCA-job 4-NO2PhN2+~BF4-_B3LYPG-6-31G_dp-NX-Scan-d89-09-n800
 OpenBabel11261920323D

 20 19  0  0  0  0  0  0  0  0999 V2000
   -2.2789    0.2407    0.5678 C   0  0  0  0  0  0  0  0  0  0  0  0
   -3.5407   -0.3649    0.4608 N   0  0  0  0  0  0  0  0  0  0  0  0
   -4.3575   -0.7294   -0.2737 N   0  0  0  0  0  0  0  0  0  0  0  0
   -1.8160    0.4237    1.8796 C   0  0  0  0  0  0  0  0  0  0  0  0
   -0.5734    1.0082    2.0845 C   0  0  0  0  0  0  0  0  0  0  0  0
    0.1664    1.3877    0.9665 C   0  0  0  0  0  0  0  0  0  0  0  0
    1.4943    2.0107    1.1786 N   0  0  0  0  0  0  0  0  0  0  0  0
    1.8636    2.1591    2.3401 O   0  0  0  0  0  0  0  0  0  0  0  0
    2.1297    2.3320    0.1799 O   0  0  0  0  0  0  0  0  0  0  0  0
   -0.2862    1.2093   -0.3394 C   0  0  0  0  0  0  0  0  0  0  0  0
   -1.5302    0.6264   -0.5571 C   0  0  0  0  0  0  0  0  0  0  0  0
   -2.4335    0.1096    2.7131 H   0  0  0  0  0  0  0  0  0  0  0  0
   -0.1728    1.1729    3.0763 H   0  0  0  0  0  0  0  0  0  0  0  0
    0.3317    1.5309   -1.1681 H   0  0  0  0  0  0  0  0  0  0  0  0
   -1.9085    0.4927   -1.5608 H   0  0  0  0  0  0  0  0  0  0  0  0
   -4.2479    1.0155   -2.5159 B   0  0  0  0  0  0  0  0  0  0  0  0
   -3.9122   -0.4834   -1.8653 F   0  0  0  0  0  0  0  0  0  0  0  0
   -3.1030    1.2243   -3.2303 F   0  0  0  0  0  0  0  0  0  0  0  0
   -5.3742    0.8228   -3.2236 F   0  0  0  0  0  0  0  0  0  0  0  0
   -4.3572    1.7774   -1.3870 F   0  0  0  0  0  0  0  0  0  0  0  0
  1  4  2  0  0  0  0
  2  1  1  0  0  0  0
  3  2  2  0  0  0  0
  4  5  1  0  0  0  0
  4 12  1  0  0  0  0
  5 13  1  0  0  0  0
  6  7  1  0  0  0  0
  6  5  2  0  0  0  0
  7  8  2  0  0  0  0
  9  7  2  0  0  0  0
 10  6  1  0  0  0  0
 11 10  2  0  0  0  0
 11  1  1  0  0  0  0
 14 10  1  0  0  0  0
 15 11  1  0  0  0  0
 16 17  1  0  0  0  0
 16 20  1  0  0  0  0
 18 16  1  0  0  0  0
 19 16  1  0  0  0  0
M  RAD  1   3   2
M  END
