Coordinates from ORCA-job 4-NO2PhN2+~BF4-_B3LYPG-6-31G_dp-NX-Scan-d89-09-n800
 OpenBabel11261920323D

 20 19  0  0  0  0  0  0  0  0999 V2000
   -1.9455   -0.7865    0.1197 C   0  0  0  0  0  0  0  0  0  0  0  0
   -2.7181   -1.8949   -0.0400 N   0  0  0  0  0  0  0  0  0  0  0  0
   -3.3245   -2.8282   -0.1597 N   0  0  0  0  0  0  0  0  0  0  0  0
   -2.2267    0.0675    1.2052 C   0  0  0  0  0  0  0  0  0  0  0  0
   -1.4251    1.1862    1.3568 C   0  0  0  0  0  0  0  0  0  0  0  0
   -0.4452    1.4360    0.4048 C   0  0  0  0  0  0  0  0  0  0  0  0
    0.3702    2.6662    0.5481 N   0  0  0  0  0  0  0  0  0  0  0  0
    0.1684    3.3553    1.5401 O   0  0  0  0  0  0  0  0  0  0  0  0
    1.2006    2.8856   -0.3266 O   0  0  0  0  0  0  0  0  0  0  0  0
   -0.1686    0.5903   -0.6753 C   0  0  0  0  0  0  0  0  0  0  0  0
   -0.9325   -0.5432   -0.8381 C   0  0  0  0  0  0  0  0  0  0  0  0
   -3.0501   -0.1362    1.8759 H   0  0  0  0  0  0  0  0  0  0  0  0
   -1.6062    1.9046    2.1442 H   0  0  0  0  0  0  0  0  0  0  0  0
    0.6061    0.8624   -1.3798 H   0  0  0  0  0  0  0  0  0  0  0  0
   -0.7897   -1.2167   -1.6741 H   0  0  0  0  0  0  0  0  0  0  0  0
   -3.5431    2.1038   -0.9742 B   0  0  0  0  0  0  0  0  0  0  0  0
   -4.4631    2.8810   -1.6378 F   0  0  0  0  0  0  0  0  0  0  0  0
   -3.3084    0.8713   -1.6478 F   0  0  0  0  0  0  0  0  0  0  0  0
   -2.3047    2.7869   -0.8527 F   0  0  0  0  0  0  0  0  0  0  0  0
   -4.0003    1.7746    0.3373 F   0  0  0  0  0  0  0  0  0  0  0  0
  1  4  2  0  0  0  0
  2  1  1  0  0  0  0
  3  2  1  0  0  0  0
  4  5  1  0  0  0  0
  4 12  1  0  0  0  0
  5 13  1  0  0  0  0
  6  7  1  0  0  0  0
  6  5  2  0  0  0  0
  7  8  2  0  0  0  0
  9  7  2  0  0  0  0
 10  6  1  0  0  0  0
 11 10  2  0  0  0  0
 11  1  1  0  0  0  0
 14 10  1  0  0  0  0
 15 11  1  0  0  0  0
 16 19  1  0  0  0  0
 16 20  1  0  0  0  0
 17 16  1  0  0  0  0
 18 16  1  0  0  0  0
M  RAD  2   2   2   3   3
M  END
