Coordinates from ORCA-job 4-NO2PhN2+~BF4-_B3LYPG-6-31G_dp-NX-Scan-d89-09-n800
 OpenBabel11261920313D

 20 19  0  0  0  0  0  0  0  0999 V2000
   -1.6963   -1.2845    0.1218 C   0  0  0  0  0  0  0  0  0  0  0  0
   -2.1194   -2.5796    0.1922 N   0  0  0  0  0  0  0  0  0  0  0  0
   -2.4279   -3.6551    0.2652 N   0  0  0  0  0  0  0  0  0  0  0  0
   -2.4120   -0.2838    0.8262 C   0  0  0  0  0  0  0  0  0  0  0  0
   -1.8947    0.9979    0.8321 C   0  0  0  0  0  0  0  0  0  0  0  0
   -0.7260    1.2458    0.1063 C   0  0  0  0  0  0  0  0  0  0  0  0
   -0.0734    2.5735    0.2194 N   0  0  0  0  0  0  0  0  0  0  0  0
   -0.3213    3.2100    1.2304 O   0  0  0  0  0  0  0  0  0  0  0  0
    0.7147    2.8738   -0.6691 O   0  0  0  0  0  0  0  0  0  0  0  0
   -0.0541    0.2717   -0.6424 C   0  0  0  0  0  0  0  0  0  0  0  0
   -0.5269   -1.0247   -0.6355 C   0  0  0  0  0  0  0  0  0  0  0  0
   -3.3390   -0.5171    1.3364 H   0  0  0  0  0  0  0  0  0  0  0  0
   -2.4153    1.8317    1.3036 H   0  0  0  0  0  0  0  0  0  0  0  0
    0.8284    0.5525   -1.2038 H   0  0  0  0  0  0  0  0  0  0  0  0
   -0.0243   -1.8217   -1.1709 H   0  0  0  0  0  0  0  0  0  0  0  0
   -3.5153    3.1366   -0.5717 B   0  0  0  0  0  0  0  0  0  0  0  0
   -4.1910    4.1530   -1.2074 F   0  0  0  0  0  0  0  0  0  0  0  0
   -4.1722    1.8918   -0.6663 F   0  0  0  0  0  0  0  0  0  0  0  0
   -2.2091    2.9669   -1.1488 F   0  0  0  0  0  0  0  0  0  0  0  0
   -3.3313    3.4275    0.8082 F   0  0  0  0  0  0  0  0  0  0  0  0
  1  2  1  0  0  0  0
  1  4  2  0  0  0  0
  2  3  1  0  0  0  0
  4  5  1  0  0  0  0
  4 12  1  0  0  0  0
  5 13  1  0  0  0  0
  6  7  1  0  0  0  0
  6  5  2  0  0  0  0
  7  8  2  0  0  0  0
  9  7  2  0  0  0  0
 10 11  2  0  0  0  0
 10  6  1  0  0  0  0
 11  1  1  0  0  0  0
 14 10  1  0  0  0  0
 15 11  1  0  0  0  0
 16 20  1  0  0  0  0
 17 16  1  0  0  0  0
 18 16  1  0  0  0  0
 19 16  1  0  0  0  0
M  RAD  2   2   2   3   3
M  END
