Coordinates from ORCA-job 4-NO2PhN2+~BF4-_B3LYPG-6-31G_dp-NX-Scan-d89-09-n800
 OpenBabel11261920323D

 20 19  0  0  0  0  0  0  0  0999 V2000
   -1.9078   -0.9414    0.1324 C   0  0  0  0  0  0  0  0  0  0  0  0
   -2.5676   -2.1238    0.0251 N   0  0  0  0  0  0  0  0  0  0  0  0
   -3.0868   -3.1144   -0.0513 N   0  0  0  0  0  0  0  0  0  0  0  0
   -2.2482   -0.0807    1.1986 C   0  0  0  0  0  0  0  0  0  0  0  0
   -1.5579    1.1101    1.3063 C   0  0  0  0  0  0  0  0  0  0  0  0
   -0.6035    1.4172    0.3369 C   0  0  0  0  0  0  0  0  0  0  0  0
    0.1629    2.6800    0.4837 N   0  0  0  0  0  0  0  0  0  0  0  0
   -0.0702    3.3562    1.4767 O   0  0  0  0  0  0  0  0  0  0  0  0
    0.9973    2.9236   -0.3789 O   0  0  0  0  0  0  0  0  0  0  0  0
   -0.2669    0.5653   -0.7208 C   0  0  0  0  0  0  0  0  0  0  0  0
   -0.9312   -0.6338   -0.8457 C   0  0  0  0  0  0  0  0  0  0  0  0
   -3.0395   -0.3404    1.8910 H   0  0  0  0  0  0  0  0  0  0  0  0
   -1.7898    1.8323    2.0755 H   0  0  0  0  0  0  0  0  0  0  0  0
    0.4801    0.8820   -1.4368 H   0  0  0  0  0  0  0  0  0  0  0  0
   -0.7284   -1.3202   -1.6589 H   0  0  0  0  0  0  0  0  0  0  0  0
   -3.3812    2.3648   -0.9149 B   0  0  0  0  0  0  0  0  0  0  0  0
   -4.2261    3.1346   -1.6784 F   0  0  0  0  0  0  0  0  0  0  0  0
   -3.3409    1.0164   -1.3635 F   0  0  0  0  0  0  0  0  0  0  0  0
   -2.0436    2.8806   -0.9977 F   0  0  0  0  0  0  0  0  0  0  0  0
   -3.7571    2.3579    0.4469 F   0  0  0  0  0  0  0  0  0  0  0  0
  1  4  2  0  0  0  0
  2  1  1  0  0  0  0
  3  2  1  0  0  0  0
  4  5  1  0  0  0  0
  4 12  1  0  0  0  0
  5 13  1  0  0  0  0
  6  7  1  0  0  0  0
  6  5  2  0  0  0  0
  7  8  2  0  0  0  0
  9  7  2  0  0  0  0
 10  6  1  0  0  0  0
 11 10  2  0  0  0  0
 11  1  1  0  0  0  0
 14 10  1  0  0  0  0
 15 11  1  0  0  0  0
 16 20  1  0  0  0  0
 17 16  1  0  0  0  0
 18 16  1  0  0  0  0
 19 16  1  0  0  0  0
M  RAD  2   2   2   3   3
M  END
