Coordinates from ORCA-job 4-NO2PhN2+~BF4-_B3LYPG-6-31G_dp-NX-Scan-d89-09-n800
 OpenBabel11261920313D

 20 19  0  0  0  0  0  0  0  0999 V2000
   -1.8962   -1.0099    0.1359 C   0  0  0  0  0  0  0  0  0  0  0  0
   -2.4500   -2.2506    0.0951 N   0  0  0  0  0  0  0  0  0  0  0  0
   -2.8658   -3.2928    0.0814 N   0  0  0  0  0  0  0  0  0  0  0  0
   -2.2733   -0.1386    1.1836 C   0  0  0  0  0  0  0  0  0  0  0  0
   -1.6345    1.0819    1.2666 C   0  0  0  0  0  0  0  0  0  0  0  0
   -0.6819    1.4059    0.2975 C   0  0  0  0  0  0  0  0  0  0  0  0
    0.0986    2.6584    0.4721 N   0  0  0  0  0  0  0  0  0  0  0  0
   -0.1413    3.3229    1.4708 O   0  0  0  0  0  0  0  0  0  0  0  0
    0.9550    2.8970   -0.3696 O   0  0  0  0  0  0  0  0  0  0  0  0
   -0.3268    0.5530   -0.7545 C   0  0  0  0  0  0  0  0  0  0  0  0
   -0.9429   -0.6733   -0.8573 C   0  0  0  0  0  0  0  0  0  0  0  0
   -3.0391   -0.4259    1.8942 H   0  0  0  0  0  0  0  0  0  0  0  0
   -1.8888    1.8071    2.0255 H   0  0  0  0  0  0  0  0  0  0  0  0
    0.4096    0.8848   -1.4747 H   0  0  0  0  0  0  0  0  0  0  0  0
   -0.7077   -1.3679   -1.6549 H   0  0  0  0  0  0  0  0  0  0  0  0
   -3.3424    2.5144   -0.9102 B   0  0  0  0  0  0  0  0  0  0  0  0
   -4.1290    3.3397   -1.6795 F   0  0  0  0  0  0  0  0  0  0  0  0
   -3.4120    1.1588   -1.3157 F   0  0  0  0  0  0  0  0  0  0  0  0
   -1.9612    2.9169   -1.0379 F   0  0  0  0  0  0  0  0  0  0  0  0
   -3.6766    2.5844    0.4574 F   0  0  0  0  0  0  0  0  0  0  0  0
  1  4  2  0  0  0  0
  2  1  1  0  0  0  0
  3  2  1  0  0  0  0
  4  5  1  0  0  0  0
  4 12  1  0  0  0  0
  5 13  1  0  0  0  0
  6  7  1  0  0  0  0
  6  5  2  0  0  0  0
  7  8  2  0  0  0  0
  9  7  2  0  0  0  0
 10  6  1  0  0  0  0
 11 10  2  0  0  0  0
 11  1  1  0  0  0  0
 14 10  1  0  0  0  0
 15 11  1  0  0  0  0
 16 20  1  0  0  0  0
 17 16  1  0  0  0  0
 18 16  1  0  0  0  0
 19 16  1  0  0  0  0
M  RAD  2   2   2   3   3
M  END
