Coordinates from ORCA-job 4-NO2PhN2+~BF4-_B3LYPG-6-31G_dp-NX-Scan-d89-09-n800
 OpenBabel11261920323D

 20 19  0  0  0  0  0  0  0  0999 V2000
   -2.0024   -0.3899    0.0735 C   0  0  0  0  0  0  0  0  0  0  0  0
   -2.9433   -1.3725   -0.1602 N   0  0  0  0  0  0  0  0  0  0  0  0
   -3.6199   -2.2505   -0.2619 N   0  0  0  0  0  0  0  0  0  0  0  0
   -2.1486    0.3902    1.2297 C   0  0  0  0  0  0  0  0  0  0  0  0
   -1.1761    1.3500    1.4707 C   0  0  0  0  0  0  0  0  0  0  0  0
   -0.1412    1.5012    0.5529 C   0  0  0  0  0  0  0  0  0  0  0  0
    0.8931    2.5297    0.8239 N   0  0  0  0  0  0  0  0  0  0  0  0
    0.7812    3.1745    1.8609 O   0  0  0  0  0  0  0  0  0  0  0  0
    1.7903    2.6497   -0.0039 O   0  0  0  0  0  0  0  0  0  0  0  0
   -0.0286    0.7483   -0.6160 C   0  0  0  0  0  0  0  0  0  0  0  0
   -0.9848   -0.2171   -0.8778 C   0  0  0  0  0  0  0  0  0  0  0  0
   -3.0078    0.2683    1.8735 H   0  0  0  0  0  0  0  0  0  0  0  0
   -1.2221    1.9915    2.3411 H   0  0  0  0  0  0  0  0  0  0  0  0
    0.7851    0.9418   -1.3024 H   0  0  0  0  0  0  0  0  0  0  0  0
   -0.9743   -0.8023   -1.7884 H   0  0  0  0  0  0  0  0  0  0  0  0
   -4.0043    1.5274   -1.1932 B   0  0  0  0  0  0  0  0  0  0  0  0
   -4.8852    2.3224   -1.8864 F   0  0  0  0  0  0  0  0  0  0  0  0
   -3.7878    0.2643   -1.8577 F   0  0  0  0  0  0  0  0  0  0  0  0
   -2.7454    2.1468   -1.0566 F   0  0  0  0  0  0  0  0  0  0  0  0
   -4.4845    1.1922    0.1040 F   0  0  0  0  0  0  0  0  0  0  0  0
  1  4  2  0  0  0  0
  2  1  1  0  0  0  0
  3  2  1  0  0  0  0
  4  5  1  0  0  0  0
  4 12  1  0  0  0  0
  5 13  1  0  0  0  0
  6  7  1  0  0  0  0
  6  5  2  0  0  0  0
  7  8  2  0  0  0  0
  9  7  2  0  0  0  0
 10  6  1  0  0  0  0
 11 10  2  0  0  0  0
 11  1  1  0  0  0  0
 14 10  1  0  0  0  0
 15 11  1  0  0  0  0
 16 19  1  0  0  0  0
 16 20  1  0  0  0  0
 17 16  1  0  0  0  0
 18 16  1  0  0  0  0
M  RAD  2   2   2   3   3
M  END
