Coordinates from ORCA-job 4-NO2PhN2+~BF4-_B3LYPG-6-31G_dp-NX-Scan-d89-09-n800
 OpenBabel11261920323D

 20 19  0  0  0  0  0  0  0  0999 V2000
   -2.1913    0.2231    0.4599 C   0  0  0  0  0  0  0  0  0  0  0  0
   -3.3784   -0.4852    0.2947 N   0  0  0  0  0  0  0  0  0  0  0  0
   -4.3016   -1.0966    0.2420 N   0  0  0  0  0  0  0  0  0  0  0  0
   -1.6740    0.2359    1.7681 C   0  0  0  0  0  0  0  0  0  0  0  0
   -0.4820    0.9084    1.9870 C   0  0  0  0  0  0  0  0  0  0  0  0
    0.1368    1.5300    0.9018 C   0  0  0  0  0  0  0  0  0  0  0  0
    1.4152    2.2466    1.1438 N   0  0  0  0  0  0  0  0  0  0  0  0
    1.8442    2.2435    2.2936 O   0  0  0  0  0  0  0  0  0  0  0  0
    1.9451    2.7842    0.1792 O   0  0  0  0  0  0  0  0  0  0  0  0
   -0.3844    1.5119   -0.3888 C   0  0  0  0  0  0  0  0  0  0  0  0
   -1.5805    0.8447   -0.6394 C   0  0  0  0  0  0  0  0  0  0  0  0
   -2.1967   -0.2614    2.5769 H   0  0  0  0  0  0  0  0  0  0  0  0
   -0.0287    0.9599    2.9685 H   0  0  0  0  0  0  0  0  0  0  0  0
    0.1402    2.0210   -1.1875 H   0  0  0  0  0  0  0  0  0  0  0  0
   -2.0277    0.8263   -1.6296 H   0  0  0  0  0  0  0  0  0  0  0  0
   -4.2629    0.7095   -2.3655 B   0  0  0  0  0  0  0  0  0  0  0  0
   -5.4650    0.6017   -3.0040 F   0  0  0  0  0  0  0  0  0  0  0  0
   -3.6736   -0.5879   -2.1704 F   0  0  0  0  0  0  0  0  0  0  0  0
   -3.3121    1.4836   -3.0479 F   0  0  0  0  0  0  0  0  0  0  0  0
   -4.4289    1.2671   -1.0564 F   0  0  0  0  0  0  0  0  0  0  0  0
  1  4  2  0  0  0  0
  2  1  1  0  0  0  0
  3  2  1  0  0  0  0
  4  5  1  0  0  0  0
  4 12  1  0  0  0  0
  5 13  1  0  0  0  0
  6  7  1  0  0  0  0
  6  5  2  0  0  0  0
  7  8  2  0  0  0  0
  9  7  2  0  0  0  0
 10  6  1  0  0  0  0
 11 10  2  0  0  0  0
 11  1  1  0  0  0  0
 14 10  1  0  0  0  0
 15 11  1  0  0  0  0
 16 18  1  0  0  0  0
 16 20  1  0  0  0  0
 17 16  1  0  0  0  0
 19 16  1  0  0  0  0
M  RAD  2   2   2   3   3
M  END
