Coordinates from ORCA-job 4-MeOPhN2+~BF4-_B3LYPG-6-31G_dp-NX-Scan-d89-09-n800
 OpenBabel11261920503D

 22 21  0  0  0  0  0  0  0  0999 V2000
   -1.4154   -0.7112    0.4314 C   0  0  0  0  0  0  0  0  0  0  0  0
   -1.7026   -1.5709    1.5199 N   0  0  0  0  0  0  0  0  0  0  0  0
   -1.4784   -1.3604    2.7181 N   0  0  0  0  0  0  0  0  0  0  0  0
   -1.5776   -1.3504   -0.8164 C   0  0  0  0  0  0  0  0  0  0  0  0
   -1.3617   -0.6794   -2.0053 C   0  0  0  0  0  0  0  0  0  0  0  0
   -0.9958    0.6771   -1.9835 C   0  0  0  0  0  0  0  0  0  0  0  0
   -0.8130    1.2582   -3.1951 O   0  0  0  0  0  0  0  0  0  0  0  0
   -0.4635    2.6362   -3.2469 C   0  0  0  0  0  0  0  0  0  0  0  0
   -0.8515    1.3358   -0.7531 C   0  0  0  0  0  0  0  0  0  0  0  0
   -1.0519    0.6511    0.4434 C   0  0  0  0  0  0  0  0  0  0  0  0
   -1.8770   -2.3927   -0.8151 H   0  0  0  0  0  0  0  0  0  0  0  0
   -1.4787   -1.1720   -2.9645 H   0  0  0  0  0  0  0  0  0  0  0  0
   -1.2360    3.2640   -2.7862 H   0  0  0  0  0  0  0  0  0  0  0  0
   -0.3822    2.8838   -4.3057 H   0  0  0  0  0  0  0  0  0  0  0  0
    0.4989    2.8259   -2.7564 H   0  0  0  0  0  0  0  0  0  0  0  0
   -0.5793    2.3831   -0.7134 H   0  0  0  0  0  0  0  0  0  0  0  0
   -0.9430    1.1973    1.3679 H   0  0  0  0  0  0  0  0  0  0  0  0
   -1.8390    1.5853    4.5012 B   0  0  0  0  0  0  0  0  0  0  0  0
   -0.9216   -0.2612    2.9831 F   0  0  0  0  0  0  0  0  0  0  0  0
   -1.3174    2.4002    3.5962 F   0  0  0  0  0  0  0  0  0  0  0  0
   -3.0700    1.1415    4.3479 F   0  0  0  0  0  0  0  0  0  0  0  0
   -1.1471    1.2783    5.5791 F   0  0  0  0  0  0  0  0  0  0  0  0
  1 10  1  0  0  0  0
  1  2  1  0  0  0  0
  2  3  2  0  0  0  0
  3 19  1  0  0  0  0
  4 11  1  0  0  0  0
  4  1  2  0  0  0  0
  5  6  2  0  0  0  0
  5  4  1  0  0  0  0
  6  9  1  0  0  0  0
  7  6  1  0  0  0  0
  8  7  1  0  0  0  0
  8 13  1  0  0  0  0
  8 15  1  0  0  0  0
  9 16  1  0  0  0  0
  9 10  2  0  0  0  0
 10 17  1  0  0  0  0
 12  5  1  0  0  0  0
 14  8  1  0  0  0  0
 18 22  1  0  0  0  0
 20 18  1  0  0  0  0
 21 18  1  0  0  0  0
M  END
