Coordinates from ORCA-job 4-MeOPhN2+~BF4-_B3LYPG-6-31G_dp-NX-Scan-d89-09-n800
 OpenBabel11261920503D

 22 21  0  0  0  0  0  0  0  0999 V2000
   -1.4322   -1.8707    0.3044 C   0  0  0  0  0  0  0  0  0  0  0  0
   -1.6014   -2.9890    1.0328 N   0  0  0  0  0  0  0  0  0  0  0  0
   -1.7437   -3.9302    1.6357 N   0  0  0  0  0  0  0  0  0  0  0  0
   -1.5747   -1.9536   -1.1130 C   0  0  0  0  0  0  0  0  0  0  0  0
   -1.4193   -0.8104   -1.8471 C   0  0  0  0  0  0  0  0  0  0  0  0
   -1.1289    0.4319   -1.2029 C   0  0  0  0  0  0  0  0  0  0  0  0
   -1.0299    1.4724   -1.9964 O   0  0  0  0  0  0  0  0  0  0  0  0
   -0.8250    2.8057   -1.4261 C   0  0  0  0  0  0  0  0  0  0  0  0
   -0.9684    0.4899    0.2063 C   0  0  0  0  0  0  0  0  0  0  0  0
   -1.1241   -0.6448    0.9592 C   0  0  0  0  0  0  0  0  0  0  0  0
   -1.8065   -2.9028   -1.5829 H   0  0  0  0  0  0  0  0  0  0  0  0
   -1.5259   -0.8174   -2.9260 H   0  0  0  0  0  0  0  0  0  0  0  0
   -1.6161    3.0320   -0.7092 H   0  0  0  0  0  0  0  0  0  0  0  0
   -0.8417    3.4697   -2.2877 H   0  0  0  0  0  0  0  0  0  0  0  0
    0.1344    2.8549   -0.9110 H   0  0  0  0  0  0  0  0  0  0  0  0
   -0.7353    1.4011    0.7440 H   0  0  0  0  0  0  0  0  0  0  0  0
   -1.0206   -0.5797    2.0375 H   0  0  0  0  0  0  0  0  0  0  0  0
   -1.1512    3.3447    2.0681 B   0  0  0  0  0  0  0  0  0  0  0  0
   -0.1820    3.9457    1.2411 F   0  0  0  0  0  0  0  0  0  0  0  0
   -2.2843    3.0252    1.2608 F   0  0  0  0  0  0  0  0  0  0  0  0
   -0.6216    2.0959    2.5342 F   0  0  0  0  0  0  0  0  0  0  0  0
   -1.5054    4.1494    3.1246 F   0  0  0  0  0  0  0  0  0  0  0  0
  1 10  1  0  0  0  0
  1  2  1  0  0  0  0
  2  3  1  0  0  0  0
  4  1  2  0  0  0  0
  5  6  2  0  0  0  0
  5  4  1  0  0  0  0
  6  9  1  0  0  0  0
  7  8  1  0  0  0  0
  7  6  1  0  0  0  0
  8 15  1  0  0  0  0
  8 13  1  0  0  0  0
  9 16  1  0  0  0  0
  9 10  2  0  0  0  0
 10 17  1  0  0  0  0
 11  4  1  0  0  0  0
 12  5  1  0  0  0  0
 14  8  1  0  0  0  0
 18 21  1  0  0  0  0
 18 22  1  0  0  0  0
 19 18  1  0  0  0  0
 20 18  1  0  0  0  0
M  RAD  2   2   2   3   3
M  END
