Coordinates from ORCA-job 4-MeOPhN2+~BF4-_B3LYPG-6-31G_dp-NX-Scan-d89-09-n800
 OpenBabel11261920503D

 22 21  0  0  0  0  0  0  0  0999 V2000
   -1.2698   -0.6582    0.6077 C   0  0  0  0  0  0  0  0  0  0  0  0
   -1.3944   -1.3796    1.7644 N   0  0  0  0  0  0  0  0  0  0  0  0
   -1.5009   -2.0657    2.6357 N   0  0  0  0  0  0  0  0  0  0  0  0
   -1.7182   -1.2783   -0.5831 C   0  0  0  0  0  0  0  0  0  0  0  0
   -1.6167   -0.5754   -1.7596 C   0  0  0  0  0  0  0  0  0  0  0  0
   -1.0819    0.7368   -1.7604 C   0  0  0  0  0  0  0  0  0  0  0  0
   -1.0474    1.3332   -2.9578 O   0  0  0  0  0  0  0  0  0  0  0  0
   -0.5647    2.6790   -3.0617 C   0  0  0  0  0  0  0  0  0  0  0  0
   -0.6340    1.3257   -0.5623 C   0  0  0  0  0  0  0  0  0  0  0  0
   -0.7251    0.6382    0.6349 C   0  0  0  0  0  0  0  0  0  0  0  0
   -2.1376   -2.2776   -0.5594 H   0  0  0  0  0  0  0  0  0  0  0  0
   -1.9509   -0.9994   -2.6990 H   0  0  0  0  0  0  0  0  0  0  0  0
   -1.1741    3.3600   -2.4598 H   0  0  0  0  0  0  0  0  0  0  0  0
   -0.6551    2.9388   -4.1157 H   0  0  0  0  0  0  0  0  0  0  0  0
    0.4840    2.7439   -2.7545 H   0  0  0  0  0  0  0  0  0  0  0  0
   -0.2328    2.3301   -0.5473 H   0  0  0  0  0  0  0  0  0  0  0  0
   -0.4130    1.0751    1.5763 H   0  0  0  0  0  0  0  0  0  0  0  0
   -1.6929    1.2421    3.5833 B   0  0  0  0  0  0  0  0  0  0  0  0
   -0.5006    0.4393    3.5320 F   0  0  0  0  0  0  0  0  0  0  0  0
   -1.4271    2.4126    2.8488 F   0  0  0  0  0  0  0  0  0  0  0  0
   -2.6969    0.4955    2.9026 F   0  0  0  0  0  0  0  0  0  0  0  0
   -2.0535    1.5036    4.8812 F   0  0  0  0  0  0  0  0  0  0  0  0
  1 10  1  0  0  0  0
  1  2  1  0  0  0  0
  2  3  1  0  0  0  0
  4 11  1  0  0  0  0
  4  1  2  0  0  0  0
  5  4  1  0  0  0  0
  6  5  2  0  0  0  0
  6  9  1  0  0  0  0
  7  6  1  0  0  0  0
  8  7  1  0  0  0  0
  8 15  1  0  0  0  0
  8 13  1  0  0  0  0
  9 16  1  0  0  0  0
  9 10  2  0  0  0  0
 10 17  1  0  0  0  0
 12  5  1  0  0  0  0
 14  8  1  0  0  0  0
 18 22  1  0  0  0  0
 19 18  1  0  0  0  0
 20 18  1  0  0  0  0
 21 18  1  0  0  0  0
M  RAD  2   2   2   3   3
M  END
