Coordinates from ORCA-job 4-MeOPhN2+~BF4-_B3LYPG-6-31G_dp-NX-Scan-d89-09-n800
 OpenBabel11261920503D

 22 21  0  0  0  0  0  0  0  0999 V2000
   -1.2421   -1.5313    0.4326 C   0  0  0  0  0  0  0  0  0  0  0  0
   -1.3529   -2.5184    1.3437 N   0  0  0  0  0  0  0  0  0  0  0  0
   -1.4373   -3.3255    2.1221 N   0  0  0  0  0  0  0  0  0  0  0  0
   -1.6136   -1.7882   -0.9197 C   0  0  0  0  0  0  0  0  0  0  0  0
   -1.5492   -0.7489   -1.8075 C   0  0  0  0  0  0  0  0  0  0  0  0
   -1.1299    0.5444   -1.3713 C   0  0  0  0  0  0  0  0  0  0  0  0
   -1.1808    1.4988   -2.2870 O   0  0  0  0  0  0  0  0  0  0  0  0
   -0.8441    2.8599   -1.9100 C   0  0  0  0  0  0  0  0  0  0  0  0
   -0.7155    0.7585   -0.0416 C   0  0  0  0  0  0  0  0  0  0  0  0
   -0.7962   -0.2616    0.8764 C   0  0  0  0  0  0  0  0  0  0  0  0
   -1.9479   -2.7744   -1.2209 H   0  0  0  0  0  0  0  0  0  0  0  0
   -1.8394   -0.8761   -2.8440 H   0  0  0  0  0  0  0  0  0  0  0  0
   -1.3381    3.1468   -0.9792 H   0  0  0  0  0  0  0  0  0  0  0  0
   -1.1806    3.4719   -2.7453 H   0  0  0  0  0  0  0  0  0  0  0  0
    0.2399    2.9471   -1.7922 H   0  0  0  0  0  0  0  0  0  0  0  0
   -0.4297    1.7383    0.3253 H   0  0  0  0  0  0  0  0  0  0  0  0
   -0.5586   -0.0389    1.9132 H   0  0  0  0  0  0  0  0  0  0  0  0
   -1.4388    2.5983    2.4388 B   0  0  0  0  0  0  0  0  0  0  0  0
   -0.3239    1.7690    2.7746 F   0  0  0  0  0  0  0  0  0  0  0  0
   -1.0662    3.3408    1.2654 F   0  0  0  0  0  0  0  0  0  0  0  0
   -2.5138    1.7573    2.1027 F   0  0  0  0  0  0  0  0  0  0  0  0
   -1.7450    3.4520    3.4705 F   0  0  0  0  0  0  0  0  0  0  0  0
  1 10  1  0  0  0  0
  1  2  1  0  0  0  0
  2  3  1  0  0  0  0
  4  1  2  0  0  0  0
  5  6  2  0  0  0  0
  5  4  1  0  0  0  0
  6  9  1  0  0  0  0
  7  8  1  0  0  0  0
  7  6  1  0  0  0  0
  8 15  1  0  0  0  0
  8 13  1  0  0  0  0
  9 16  1  0  0  0  0
  9 10  2  0  0  0  0
 10 17  1  0  0  0  0
 11  4  1  0  0  0  0
 12  5  1  0  0  0  0
 14  8  1  0  0  0  0
 18 19  1  0  0  0  0
 18 22  1  0  0  0  0
 20 18  1  0  0  0  0
 21 18  1  0  0  0  0
M  RAD  2   2   2   3   3
M  END
