Coordinates from ORCA-job 4-MeOPhN2+~BF4-_B3LYPG-6-31G_dp-NX-Scan-d89-09-n800
 OpenBabel11261920503D

 22 21  0  0  0  0  0  0  0  0999 V2000
   -1.3674   -0.6809    0.4702 C   0  0  0  0  0  0  0  0  0  0  0  0
   -1.6035   -1.5026    1.5849 N   0  0  0  0  0  0  0  0  0  0  0  0
   -1.4152   -1.3603    2.7688 N   0  0  0  0  0  0  0  0  0  0  0  0
   -1.6238   -1.3186   -0.7617 C   0  0  0  0  0  0  0  0  0  0  0  0
   -1.4500   -0.6501   -1.9579 C   0  0  0  0  0  0  0  0  0  0  0  0
   -1.0263    0.6912   -1.9520 C   0  0  0  0  0  0  0  0  0  0  0  0
   -0.8884    1.2673   -3.1680 O   0  0  0  0  0  0  0  0  0  0  0  0
   -0.4752    2.6287   -3.2424 C   0  0  0  0  0  0  0  0  0  0  0  0
   -0.7824    1.3406   -0.7302 C   0  0  0  0  0  0  0  0  0  0  0  0
   -0.9462    0.6640    0.4739 C   0  0  0  0  0  0  0  0  0  0  0  0
   -1.9593   -2.3496   -0.7459 H   0  0  0  0  0  0  0  0  0  0  0  0
   -1.6396   -1.1318   -2.9106 H   0  0  0  0  0  0  0  0  0  0  0  0
   -1.1900    3.2915   -2.7407 H   0  0  0  0  0  0  0  0  0  0  0  0
   -0.4418    2.8710   -4.3048 H   0  0  0  0  0  0  0  0  0  0  0  0
    0.5210    2.7690   -2.8068 H   0  0  0  0  0  0  0  0  0  0  0  0
   -0.4632    2.3748   -0.7059 H   0  0  0  0  0  0  0  0  0  0  0  0
   -0.7646    1.1834    1.4014 H   0  0  0  0  0  0  0  0  0  0  0  0
   -1.8960    1.4651    4.3185 B   0  0  0  0  0  0  0  0  0  0  0  0
   -0.8059   -0.1000    3.1091 F   0  0  0  0  0  0  0  0  0  0  0  0
   -1.4002    2.4172    3.5337 F   0  0  0  0  0  0  0  0  0  0  0  0
   -3.0927    0.9679    4.0544 F   0  0  0  0  0  0  0  0  0  0  0  0
   -1.2933    1.1818    5.4584 F   0  0  0  0  0  0  0  0  0  0  0  0
  1 10  1  0  0  0  0
  1  2  1  0  0  0  0
  2  3  1  0  0  0  0
  3 19  1  0  0  0  0
  4 11  1  0  0  0  0
  4  1  2  0  0  0  0
  5  6  2  0  0  0  0
  5  4  1  0  0  0  0
  6  9  1  0  0  0  0
  7  6  1  0  0  0  0
  8  7  1  0  0  0  0
  8 15  1  0  0  0  0
  8 13  1  0  0  0  0
  9 16  1  0  0  0  0
  9 10  2  0  0  0  0
 10 17  1  0  0  0  0
 12  5  1  0  0  0  0
 14  8  1  0  0  0  0
 18 22  1  0  0  0  0
 20 18  1  0  0  0  0
 21 18  1  0  0  0  0
M  RAD  2   2   2   3   2
M  END
