Coordinates from ORCA-job 4-MeOPhN2+~BF4-_B3LYPG-6-31G_dp-NX-Scan-d89-09-n800
 OpenBabel11261920503D

 22 21  0  0  0  0  0  0  0  0999 V2000
   -1.2572   -1.3660    0.4361 C   0  0  0  0  0  0  0  0  0  0  0  0
   -1.3440   -2.2833    1.4249 N   0  0  0  0  0  0  0  0  0  0  0  0
   -1.4087   -3.0146    2.2739 N   0  0  0  0  0  0  0  0  0  0  0  0
   -1.5771   -1.7377   -0.9006 C   0  0  0  0  0  0  0  0  0  0  0  0
   -1.5146   -0.7617   -1.8583 C   0  0  0  0  0  0  0  0  0  0  0  0
   -1.1544    0.5733   -1.5037 C   0  0  0  0  0  0  0  0  0  0  0  0
   -1.1630    1.4441   -2.5090 O   0  0  0  0  0  0  0  0  0  0  0  0
   -0.8588    2.8273   -2.2366 C   0  0  0  0  0  0  0  0  0  0  0  0
   -0.8307    0.9093   -0.1776 C   0  0  0  0  0  0  0  0  0  0  0  0
   -0.8825   -0.0551    0.8072 C   0  0  0  0  0  0  0  0  0  0  0  0
   -1.8662   -2.7546   -1.1402 H   0  0  0  0  0  0  0  0  0  0  0  0
   -1.7533   -0.9737   -2.8941 H   0  0  0  0  0  0  0  0  0  0  0  0
   -1.5421    3.2337   -1.4865 H   0  0  0  0  0  0  0  0  0  0  0  0
   -0.9894    3.3408   -3.1879 H   0  0  0  0  0  0  0  0  0  0  0  0
    0.1736    2.9315   -1.8918 H   0  0  0  0  0  0  0  0  0  0  0  0
   -0.5944    1.9174    0.1494 H   0  0  0  0  0  0  0  0  0  0  0  0
   -0.6620    0.2132    1.8438 H   0  0  0  0  0  0  0  0  0  0  0  0
   -1.3738    2.3404    2.8208 B   0  0  0  0  0  0  0  0  0  0  0  0
   -0.5265    1.2826    3.2966 F   0  0  0  0  0  0  0  0  0  0  0  0
   -0.6604    3.0316    1.7992 F   0  0  0  0  0  0  0  0  0  0  0  0
   -2.5035    1.7339    2.2339 F   0  0  0  0  0  0  0  0  0  0  0  0
   -1.7149    3.1871    3.8470 F   0  0  0  0  0  0  0  0  0  0  0  0
  1 10  1  0  0  0  0
  1  2  1  0  0  0  0
  2  3  1  0  0  0  0
  4  1  2  0  0  0  0
  5  6  2  0  0  0  0
  5  4  1  0  0  0  0
  6  9  1  0  0  0  0
  7  8  1  0  0  0  0
  7  6  1  0  0  0  0
  8 15  1  0  0  0  0
  8 13  1  0  0  0  0
  9 16  1  0  0  0  0
  9 10  2  0  0  0  0
 10 17  1  0  0  0  0
 11  4  1  0  0  0  0
 12  5  1  0  0  0  0
 14  8  1  0  0  0  0
 18 19  1  0  0  0  0
 18 22  1  0  0  0  0
 20 18  1  0  0  0  0
 21 18  1  0  0  0  0
M  RAD  2   2   2   3   3
M  END
