Coordinates from ORCA-job 4-MeOPhN2+~BF4-_B3LYPG-6-31G_dp-NX-Scan-d89-09-n800
 OpenBabel11261920503D

 22 21  0  0  0  0  0  0  0  0999 V2000
   -1.4408   -1.8857    0.2996 C   0  0  0  0  0  0  0  0  0  0  0  0
   -1.6125   -3.0068    1.0224 N   0  0  0  0  0  0  0  0  0  0  0  0
   -1.7565   -3.9492    1.6227 N   0  0  0  0  0  0  0  0  0  0  0  0
   -1.5893   -1.9591   -1.1176 C   0  0  0  0  0  0  0  0  0  0  0  0
   -1.4288   -0.8123   -1.8450 C   0  0  0  0  0  0  0  0  0  0  0  0
   -1.1282    0.4240   -1.1936 C   0  0  0  0  0  0  0  0  0  0  0  0
   -1.0223    1.4679   -1.9815 O   0  0  0  0  0  0  0  0  0  0  0  0
   -0.8057    2.7976   -1.4070 C   0  0  0  0  0  0  0  0  0  0  0  0
   -0.9640    0.4732    0.2158 C   0  0  0  0  0  0  0  0  0  0  0  0
   -1.1229   -0.6659    0.9608 C   0  0  0  0  0  0  0  0  0  0  0  0
   -1.8287   -2.9039   -1.5925 H   0  0  0  0  0  0  0  0  0  0  0  0
   -1.5386   -0.8115   -2.9236 H   0  0  0  0  0  0  0  0  0  0  0  0
   -1.5921    3.0279   -0.6864 H   0  0  0  0  0  0  0  0  0  0  0  0
   -0.8211    3.4650   -2.2661 H   0  0  0  0  0  0  0  0  0  0  0  0
    0.1583    2.8388   -0.8992 H   0  0  0  0  0  0  0  0  0  0  0  0
   -0.7237    1.3827    0.7563 H   0  0  0  0  0  0  0  0  0  0  0  0
   -1.0130   -0.6135    2.0391 H   0  0  0  0  0  0  0  0  0  0  0  0
   -1.1576    3.3822    2.0505 B   0  0  0  0  0  0  0  0  0  0  0  0
   -0.2637    4.0825    1.2205 F   0  0  0  0  0  0  0  0  0  0  0  0
   -2.2863    2.9977    1.2643 F   0  0  0  0  0  0  0  0  0  0  0  0
   -0.5213    2.1649    2.4651 F   0  0  0  0  0  0  0  0  0  0  0  0
   -1.5454    4.1233    3.1420 F   0  0  0  0  0  0  0  0  0  0  0  0
  1 10  1  0  0  0  0
  1  2  1  0  0  0  0
  2  3  1  0  0  0  0
  4  1  2  0  0  0  0
  5  6  2  0  0  0  0
  5  4  1  0  0  0  0
  6  9  1  0  0  0  0
  7  8  1  0  0  0  0
  7  6  1  0  0  0  0
  8 15  1  0  0  0  0
  8 13  1  0  0  0  0
  9 16  1  0  0  0  0
  9 10  2  0  0  0  0
 10 17  1  0  0  0  0
 11  4  1  0  0  0  0
 12  5  1  0  0  0  0
 14  8  1  0  0  0  0
 18 21  1  0  0  0  0
 18 22  1  0  0  0  0
 19 18  1  0  0  0  0
 20 18  1  0  0  0  0
M  RAD  2   2   2   3   3
M  END
