Coordinates from ORCA-job 4-MeOPhN2+~BF4-_B3LYPG-6-31G_dp-NX-Scan-d89-09-n800
 OpenBabel11261920503D

 22 21  0  0  0  0  0  0  0  0999 V2000
   -1.2565   -1.3518    0.4365 C   0  0  0  0  0  0  0  0  0  0  0  0
   -1.3428   -2.2583    1.4357 N   0  0  0  0  0  0  0  0  0  0  0  0
   -1.4056   -2.9747    2.2974 N   0  0  0  0  0  0  0  0  0  0  0  0
   -1.5769   -1.7315   -0.8973 C   0  0  0  0  0  0  0  0  0  0  0  0
   -1.5139   -0.7600   -1.8597 C   0  0  0  0  0  0  0  0  0  0  0  0
   -1.1545    0.5773   -1.5128 C   0  0  0  0  0  0  0  0  0  0  0  0
   -1.1613    1.4408   -2.5248 O   0  0  0  0  0  0  0  0  0  0  0  0
   -0.8574    2.8256   -2.2626 C   0  0  0  0  0  0  0  0  0  0  0  0
   -0.8325    0.9217   -0.1885 C   0  0  0  0  0  0  0  0  0  0  0  0
   -0.8823   -0.0389    0.8003 C   0  0  0  0  0  0  0  0  0  0  0  0
   -1.8661   -2.7495   -1.1318 H   0  0  0  0  0  0  0  0  0  0  0  0
   -1.7519   -0.9773   -2.8946 H   0  0  0  0  0  0  0  0  0  0  0  0
   -1.5492    3.2405   -1.5249 H   0  0  0  0  0  0  0  0  0  0  0  0
   -0.9761    3.3302   -3.2201 H   0  0  0  0  0  0  0  0  0  0  0  0
    0.1711    2.9317   -1.9068 H   0  0  0  0  0  0  0  0  0  0  0  0
   -0.5979    1.9306    0.1362 H   0  0  0  0  0  0  0  0  0  0  0  0
   -0.6619    0.2276    1.8375 H   0  0  0  0  0  0  0  0  0  0  0  0
   -1.3755    2.3131    2.8465 B   0  0  0  0  0  0  0  0  0  0  0  0
   -0.5399    1.2428    3.3167 F   0  0  0  0  0  0  0  0  0  0  0  0
   -0.6517    3.0049    1.8336 F   0  0  0  0  0  0  0  0  0  0  0  0
   -2.5085    1.7209    2.2511 F   0  0  0  0  0  0  0  0  0  0  0  0
   -1.7125    3.1541    3.8786 F   0  0  0  0  0  0  0  0  0  0  0  0
  1 10  1  0  0  0  0
  1  2  1  0  0  0  0
  2  3  1  0  0  0  0
  4  1  2  0  0  0  0
  5  6  2  0  0  0  0
  5  4  1  0  0  0  0
  6  9  1  0  0  0  0
  7  8  1  0  0  0  0
  7  6  1  0  0  0  0
  8 15  1  0  0  0  0
  8 13  1  0  0  0  0
  9 16  1  0  0  0  0
  9 10  2  0  0  0  0
 10 17  1  0  0  0  0
 11  4  1  0  0  0  0
 12  5  1  0  0  0  0
 14  8  1  0  0  0  0
 18 19  1  0  0  0  0
 18 22  1  0  0  0  0
 20 18  1  0  0  0  0
 21 18  1  0  0  0  0
M  RAD  2   2   2   3   3
M  END
