Coordinates from ORCA-job 4-MeOPhN2+~BF4-_B3LYPG-6-31G_dp-NX-Scan-d89-09-n800
 OpenBabel11261920503D

 22 21  0  0  0  0  0  0  0  0999 V2000
   -1.3445   -1.6359    0.3796 C   0  0  0  0  0  0  0  0  0  0  0  0
   -1.5467   -2.6545    1.2351 N   0  0  0  0  0  0  0  0  0  0  0  0
   -1.7043   -3.4876    1.9746 N   0  0  0  0  0  0  0  0  0  0  0  0
   -1.6569   -1.8089   -1.0006 C   0  0  0  0  0  0  0  0  0  0  0  0
   -1.5060   -0.7311   -1.8307 C   0  0  0  0  0  0  0  0  0  0  0  0
   -1.0567    0.5199   -1.3093 C   0  0  0  0  0  0  0  0  0  0  0  0
   -1.0398    1.5256   -2.1637 O   0  0  0  0  0  0  0  0  0  0  0  0
   -0.7609    2.8671   -1.6659 C   0  0  0  0  0  0  0  0  0  0  0  0
   -0.6815    0.6460    0.0467 C   0  0  0  0  0  0  0  0  0  0  0  0
   -0.8566   -0.4104    0.9044 C   0  0  0  0  0  0  0  0  0  0  0  0
   -2.0190   -2.7630   -1.3664 H   0  0  0  0  0  0  0  0  0  0  0  0
   -1.7551   -0.7933   -2.8837 H   0  0  0  0  0  0  0  0  0  0  0  0
   -1.3823    3.0800   -0.7922 H   0  0  0  0  0  0  0  0  0  0  0  0
   -0.9964    3.5233   -2.5022 H   0  0  0  0  0  0  0  0  0  0  0  0
    0.2967    2.9511   -1.4041 H   0  0  0  0  0  0  0  0  0  0  0  0
   -0.3153    1.5802    0.4655 H   0  0  0  0  0  0  0  0  0  0  0  0
   -0.6842   -0.2605    1.9647 H   0  0  0  0  0  0  0  0  0  0  0  0
   -1.4135    2.7959    2.2456 B   0  0  0  0  0  0  0  0  0  0  0  0
   -0.0985    2.9362    1.6987 F   0  0  0  0  0  0  0  0  0  0  0  0
   -2.3135    2.8083    1.1460 F   0  0  0  0  0  0  0  0  0  0  0  0
   -1.4818    1.5239    2.8711 F   0  0  0  0  0  0  0  0  0  0  0  0
   -1.6869    3.8074    3.1331 F   0  0  0  0  0  0  0  0  0  0  0  0
  1 10  1  0  0  0  0
  1  2  1  0  0  0  0
  2  3  1  0  0  0  0
  4  1  2  0  0  0  0
  5  6  2  0  0  0  0
  5  4  1  0  0  0  0
  6  9  1  0  0  0  0
  7  8  1  0  0  0  0
  7  6  1  0  0  0  0
  8 15  1  0  0  0  0
  8 13  1  0  0  0  0
  9 16  1  0  0  0  0
  9 10  2  0  0  0  0
 10 17  1  0  0  0  0
 11  4  1  0  0  0  0
 12  5  1  0  0  0  0
 14  8  1  0  0  0  0
 18 21  1  0  0  0  0
 18 22  1  0  0  0  0
 19 18  1  0  0  0  0
 20 18  1  0  0  0  0
M  RAD  2   2   2   3   3
M  END
