Coordinates from ORCA-job 4-MeOPhN2+~BF4-_B3LYPG-6-31G_dp-NX-Scan-d89-09-n800
 OpenBabel11261920503D

 22 21  0  0  0  0  0  0  0  0999 V2000
   -1.2385   -1.5090    0.4324 C   0  0  0  0  0  0  0  0  0  0  0  0
   -1.3582   -2.4726    1.3673 N   0  0  0  0  0  0  0  0  0  0  0  0
   -1.4445   -3.2438    2.1803 N   0  0  0  0  0  0  0  0  0  0  0  0
   -1.6211   -1.7766   -0.9140 C   0  0  0  0  0  0  0  0  0  0  0  0
   -1.5530   -0.7451   -1.8112 C   0  0  0  0  0  0  0  0  0  0  0  0
   -1.1225    0.5492   -1.3883 C   0  0  0  0  0  0  0  0  0  0  0  0
   -1.1786    1.4996   -2.3092 O   0  0  0  0  0  0  0  0  0  0  0  0
   -0.8414    2.8608   -1.9359 C   0  0  0  0  0  0  0  0  0  0  0  0
   -0.6946    0.7709   -0.0652 C   0  0  0  0  0  0  0  0  0  0  0  0
   -0.7766   -0.2413    0.8612 C   0  0  0  0  0  0  0  0  0  0  0  0
   -1.9672   -2.7621   -1.2042 H   0  0  0  0  0  0  0  0  0  0  0  0
   -1.8515   -0.8784   -2.8446 H   0  0  0  0  0  0  0  0  0  0  0  0
   -1.3352    3.1490   -1.0053 H   0  0  0  0  0  0  0  0  0  0  0  0
   -1.1798    3.4721   -2.7709 H   0  0  0  0  0  0  0  0  0  0  0  0
    0.2426    2.9498   -1.8196 H   0  0  0  0  0  0  0  0  0  0  0  0
   -0.4055    1.7520    0.2958 H   0  0  0  0  0  0  0  0  0  0  0  0
   -0.5343   -0.0134    1.8961 H   0  0  0  0  0  0  0  0  0  0  0  0
   -1.4500    2.5470    2.4634 B   0  0  0  0  0  0  0  0  0  0  0  0
   -0.3446    1.7110    2.8175 F   0  0  0  0  0  0  0  0  0  0  0  0
   -1.0531    3.3006    1.3061 F   0  0  0  0  0  0  0  0  0  0  0  0
   -2.5188    1.7098    2.0975 F   0  0  0  0  0  0  0  0  0  0  0  0
   -1.7774    3.3902    3.4973 F   0  0  0  0  0  0  0  0  0  0  0  0
  1 10  1  0  0  0  0
  1  2  1  0  0  0  0
  2  3  1  0  0  0  0
  4  1  2  0  0  0  0
  5  6  2  0  0  0  0
  5  4  1  0  0  0  0
  6  9  1  0  0  0  0
  7  8  1  0  0  0  0
  7  6  1  0  0  0  0
  8 15  1  0  0  0  0
  8 13  1  0  0  0  0
  9 16  1  0  0  0  0
  9 10  2  0  0  0  0
 10 17  1  0  0  0  0
 11  4  1  0  0  0  0
 12  5  1  0  0  0  0
 14  8  1  0  0  0  0
 18 19  1  0  0  0  0
 18 22  1  0  0  0  0
 20 18  1  0  0  0  0
 21 18  1  0  0  0  0
M  RAD  2   2   2   3   3
M  END
