Coordinates from ORCA-job 4-MeOPhN2+~BF4-_B3LYPG-6-31G_dp-NX-Scan-d89-09-n800
 OpenBabel11261920503D

 22 21  0  0  0  0  0  0  0  0999 V2000
   -1.4617   -1.8850    0.2989 C   0  0  0  0  0  0  0  0  0  0  0  0
   -1.6769   -2.9921    1.0289 N   0  0  0  0  0  0  0  0  0  0  0  0
   -1.8541   -3.9124    1.6537 N   0  0  0  0  0  0  0  0  0  0  0  0
   -1.6637   -1.9359   -1.1115 C   0  0  0  0  0  0  0  0  0  0  0  0
   -1.4677   -0.7896   -1.8313 C   0  0  0  0  0  0  0  0  0  0  0  0
   -1.0865    0.4223   -1.1769 C   0  0  0  0  0  0  0  0  0  0  0  0
   -0.9701    1.4720   -1.9563 O   0  0  0  0  0  0  0  0  0  0  0  0
   -0.7239    2.7894   -1.3663 C   0  0  0  0  0  0  0  0  0  0  0  0
   -0.8584    0.4463    0.2253 C   0  0  0  0  0  0  0  0  0  0  0  0
   -1.0507   -0.6934    0.9601 C   0  0  0  0  0  0  0  0  0  0  0  0
   -1.9716   -2.8606   -1.5865 H   0  0  0  0  0  0  0  0  0  0  0  0
   -1.6179   -0.7680   -2.9047 H   0  0  0  0  0  0  0  0  0  0  0  0
   -1.5002    3.0172   -0.6360 H   0  0  0  0  0  0  0  0  0  0  0  0
   -0.7390    3.4720   -2.2133 H   0  0  0  0  0  0  0  0  0  0  0  0
    0.2506    2.8055   -0.8765 H   0  0  0  0  0  0  0  0  0  0  0  0
   -0.5537    1.3416    0.7631 H   0  0  0  0  0  0  0  0  0  0  0  0
   -0.9009   -0.6724    2.0343 H   0  0  0  0  0  0  0  0  0  0  0  0
   -1.2391    3.3843    1.9917 B   0  0  0  0  0  0  0  0  0  0  0  0
   -0.6658    4.3357    1.1356 F   0  0  0  0  0  0  0  0  0  0  0  0
   -2.3067    2.7416    1.2919 F   0  0  0  0  0  0  0  0  0  0  0  0
   -0.2584    2.3672    2.2518 F   0  0  0  0  0  0  0  0  0  0  0  0
   -1.6872    3.9336    3.1706 F   0  0  0  0  0  0  0  0  0  0  0  0
  1 10  1  0  0  0  0
  1  2  1  0  0  0  0
  2  3  1  0  0  0  0
  4  1  2  0  0  0  0
  5  6  2  0  0  0  0
  5  4  1  0  0  0  0
  6  9  1  0  0  0  0
  7  8  1  0  0  0  0
  7  6  1  0  0  0  0
  8 15  1  0  0  0  0
  8 13  1  0  0  0  0
  9 16  1  0  0  0  0
  9 10  2  0  0  0  0
 10 17  1  0  0  0  0
 11  4  1  0  0  0  0
 12  5  1  0  0  0  0
 14  8  1  0  0  0  0
 18 21  1  0  0  0  0
 18 22  1  0  0  0  0
 19 18  1  0  0  0  0
 20 18  1  0  0  0  0
M  RAD  2   2   2   3   3
M  END
