Coordinates from ORCA-job 4-MeOPhN2+~BF4-_B3LYPG-6-31G_dp-NX-Scan-d89-09-n800
 OpenBabel11261920503D

 22 21  0  0  0  0  0  0  0  0999 V2000
   -1.2218   -0.7607    0.5944 C   0  0  0  0  0  0  0  0  0  0  0  0
   -1.2859   -1.5183    1.7283 N   0  0  0  0  0  0  0  0  0  0  0  0
   -1.3365   -2.1977    2.6114 N   0  0  0  0  0  0  0  0  0  0  0  0
   -1.7917   -1.2908   -0.5887 C   0  0  0  0  0  0  0  0  0  0  0  0
   -1.7265   -0.5298   -1.7298 C   0  0  0  0  0  0  0  0  0  0  0  0
   -1.1091    0.7477   -1.7021 C   0  0  0  0  0  0  0  0  0  0  0  0
   -1.1157    1.4013   -2.8693 O   0  0  0  0  0  0  0  0  0  0  0  0
   -0.5525    2.7178   -2.9426 C   0  0  0  0  0  0  0  0  0  0  0  0
   -0.5469    1.2467   -0.5128 C   0  0  0  0  0  0  0  0  0  0  0  0
   -0.6002    0.5007    0.6506 C   0  0  0  0  0  0  0  0  0  0  0  0
   -2.2707   -2.2631   -0.5843 H   0  0  0  0  0  0  0  0  0  0  0  0
   -2.1505   -0.8783   -2.6640 H   0  0  0  0  0  0  0  0  0  0  0  0
   -1.0757    3.4038   -2.2696 H   0  0  0  0  0  0  0  0  0  0  0  0
   -0.6925    3.0359   -3.9750 H   0  0  0  0  0  0  0  0  0  0  0  0
    0.5157    2.6996   -2.7034 H   0  0  0  0  0  0  0  0  0  0  0  0
   -0.0936    2.2279   -0.4739 H   0  0  0  0  0  0  0  0  0  0  0  0
   -0.2088    0.8548    1.6013 H   0  0  0  0  0  0  0  0  0  0  0  0
   -1.7675    1.3504    3.4217 B   0  0  0  0  0  0  0  0  0  0  0  0
   -0.4022    0.9051    3.4735 F   0  0  0  0  0  0  0  0  0  0  0  0
   -1.8596    2.3057    2.3947 F   0  0  0  0  0  0  0  0  0  0  0  0
   -2.5466    0.2156    3.0472 F   0  0  0  0  0  0  0  0  0  0  0  0
   -2.1650    1.8452    4.6388 F   0  0  0  0  0  0  0  0  0  0  0  0
  1 10  1  0  0  0  0
  1  2  1  0  0  0  0
  2  3  1  0  0  0  0
  4 11  1  0  0  0  0
  4  1  2  0  0  0  0
  5  6  2  0  0  0  0
  5  4  1  0  0  0  0
  6  9  1  0  0  0  0
  7  6  1  0  0  0  0
  8  7  1  0  0  0  0
  8 15  1  0  0  0  0
  8 13  1  0  0  0  0
  9 16  1  0  0  0  0
  9 10  2  0  0  0  0
 10 17  1  0  0  0  0
 12  5  1  0  0  0  0
 14  8  1  0  0  0  0
 18 19  1  0  0  0  0
 18 22  1  0  0  0  0
 20 18  1  0  0  0  0
 21 18  1  0  0  0  0
M  RAD  2   2   2   3   3
M  END
