Coordinates from ORCA-job 4-MeOPhN2+~BF4-_B3LYPG-6-31G_dp-NX-Scan-d89-09-n800
 OpenBabel11261920503D

 22 21  0  0  0  0  0  0  0  0999 V2000
   -1.2355   -0.7875    0.5832 C   0  0  0  0  0  0  0  0  0  0  0  0
   -1.3130   -1.5502    1.7123 N   0  0  0  0  0  0  0  0  0  0  0  0
   -1.3752   -2.2298    2.5949 N   0  0  0  0  0  0  0  0  0  0  0  0
   -1.7897   -1.3123   -0.6099 C   0  0  0  0  0  0  0  0  0  0  0  0
   -1.7161   -0.5427   -1.7443 C   0  0  0  0  0  0  0  0  0  0  0  0
   -1.1070    0.7387   -1.7000 C   0  0  0  0  0  0  0  0  0  0  0  0
   -1.1079    1.4019   -2.8614 O   0  0  0  0  0  0  0  0  0  0  0  0
   -0.5578    2.7249   -2.9178 C   0  0  0  0  0  0  0  0  0  0  0  0
   -0.5583    1.2310   -0.5015 C   0  0  0  0  0  0  0  0  0  0  0  0
   -0.6191    0.4759    0.6556 C   0  0  0  0  0  0  0  0  0  0  0  0
   -2.2637   -2.2870   -0.6176 H   0  0  0  0  0  0  0  0  0  0  0  0
   -2.1283   -0.8862   -2.6857 H   0  0  0  0  0  0  0  0  0  0  0  0
   -1.0935    3.3987   -2.2423 H   0  0  0  0  0  0  0  0  0  0  0  0
   -0.6934    3.0513   -3.9482 H   0  0  0  0  0  0  0  0  0  0  0  0
    0.5086    2.7156   -2.6706 H   0  0  0  0  0  0  0  0  0  0  0  0
   -0.1109    2.2143   -0.4499 H   0  0  0  0  0  0  0  0  0  0  0  0
   -0.2315    0.8259    1.6107 H   0  0  0  0  0  0  0  0  0  0  0  0
   -1.7410    1.3935    3.4143 B   0  0  0  0  0  0  0  0  0  0  0  0
   -0.3622    0.9977    3.4665 F   0  0  0  0  0  0  0  0  0  0  0  0
   -1.8717    2.3294    2.3740 F   0  0  0  0  0  0  0  0  0  0  0  0
   -2.4826    0.2263    3.0584 F   0  0  0  0  0  0  0  0  0  0  0  0
   -2.1539    1.8901    4.6257 F   0  0  0  0  0  0  0  0  0  0  0  0
  1 10  1  0  0  0  0
  1  2  1  0  0  0  0
  2  3  1  0  0  0  0
  4  1  2  0  0  0  0
  5  6  2  0  0  0  0
  5  4  1  0  0  0  0
  6  9  1  0  0  0  0
  7  6  1  0  0  0  0
  8  7  1  0  0  0  0
  8 15  1  0  0  0  0
  8 13  1  0  0  0  0
  9 16  1  0  0  0  0
  9 10  2  0  0  0  0
 10 17  1  0  0  0  0
 11  4  1  0  0  0  0
 12  5  1  0  0  0  0
 14  8  1  0  0  0  0
 18 19  1  0  0  0  0
 18 22  1  0  0  0  0
 20 18  1  0  0  0  0
 21 18  1  0  0  0  0
M  RAD  2   2   2   3   3
M  END
