Coordinates from ORCA-job 4-MeOPhN2+~BF4-_B3LYPG-6-31G_dp-NX-Scan-d89-09-n800
 OpenBabel11261920503D

 22 21  0  0  0  0  0  0  0  0999 V2000
   -1.4539   -0.7099    0.4105 C   0  0  0  0  0  0  0  0  0  0  0  0
   -1.7667   -1.5679    1.4960 N   0  0  0  0  0  0  0  0  0  0  0  0
   -1.5499   -1.3407    2.6970 N   0  0  0  0  0  0  0  0  0  0  0  0
   -1.5613   -1.3589   -0.8378 C   0  0  0  0  0  0  0  0  0  0  0  0
   -1.3155   -0.6917   -2.0232 C   0  0  0  0  0  0  0  0  0  0  0  0
   -0.9767    0.6717   -1.9987 C   0  0  0  0  0  0  0  0  0  0  0  0
   -0.7613    1.2481   -3.2079 O   0  0  0  0  0  0  0  0  0  0  0  0
   -0.4385    2.6322   -3.2570 C   0  0  0  0  0  0  0  0  0  0  0  0
   -0.8902    1.3411   -0.7692 C   0  0  0  0  0  0  0  0  0  0  0  0
   -1.1185    0.6592    0.4246 C   0  0  0  0  0  0  0  0  0  0  0  0
   -1.8425   -2.4065   -0.8398 H   0  0  0  0  0  0  0  0  0  0  0  0
   -1.3891   -1.1930   -2.9823 H   0  0  0  0  0  0  0  0  0  0  0  0
   -1.2404    3.2473   -2.8303 H   0  0  0  0  0  0  0  0  0  0  0  0
   -0.3223    2.8746   -4.3138 H   0  0  0  0  0  0  0  0  0  0  0  0
    0.5007    2.8457   -2.7320 H   0  0  0  0  0  0  0  0  0  0  0  0
   -0.6409    2.3941   -0.7269 H   0  0  0  0  0  0  0  0  0  0  0  0
   -1.0540    1.2157    1.3476 H   0  0  0  0  0  0  0  0  0  0  0  0
   -1.7931    1.5939    4.5808 B   0  0  0  0  0  0  0  0  0  0  0  0
   -0.9997   -0.2702    2.9522 F   0  0  0  0  0  0  0  0  0  0  0  0
   -1.4087    2.4082    3.6094 F   0  0  0  0  0  0  0  0  0  0  0  0
   -3.0182    1.1108    4.5821 F   0  0  0  0  0  0  0  0  0  0  0  0
   -0.9632    1.3159    5.5652 F   0  0  0  0  0  0  0  0  0  0  0  0
  1 10  1  0  0  0  0
  1  2  1  0  0  0  0
  2  3  2  0  0  0  0
  3 19  1  0  0  0  0
  4  1  2  0  0  0  0
  5  6  2  0  0  0  0
  5  4  1  0  0  0  0
  6  9  1  0  0  0  0
  7  6  1  0  0  0  0
  8  7  1  0  0  0  0
  8 13  1  0  0  0  0
  8 15  1  0  0  0  0
  9 16  1  0  0  0  0
  9 10  2  0  0  0  0
 10 17  1  0  0  0  0
 11  4  1  0  0  0  0
 12  5  1  0  0  0  0
 14  8  1  0  0  0  0
 18 21  1  0  0  0  0
 18 22  1  0  0  0  0
 20 18  1  0  0  0  0
M  END
