Coordinates from ORCA-job 4-MeOPhN2+~BF4-_B3LYPG-6-31G_dp-NX-Scan-d89-09-n800
 OpenBabel11261920503D

 22 21  0  0  0  0  0  0  0  0999 V2000
   -1.3924   -0.6056    0.5666 C   0  0  0  0  0  0  0  0  0  0  0  0
   -1.5552   -1.3021    1.7338 N   0  0  0  0  0  0  0  0  0  0  0  0
   -1.6749   -1.8902    2.6717 N   0  0  0  0  0  0  0  0  0  0  0  0
   -1.6631   -1.2941   -0.6397 C   0  0  0  0  0  0  0  0  0  0  0  0
   -1.4987   -0.6209   -1.8267 C   0  0  0  0  0  0  0  0  0  0  0  0
   -1.0695    0.7291   -1.8230 C   0  0  0  0  0  0  0  0  0  0  0  0
   -0.9450    1.2883   -3.0326 O   0  0  0  0  0  0  0  0  0  0  0  0
   -0.5286    2.6558   -3.1376 C   0  0  0  0  0  0  0  0  0  0  0  0
   -0.8063    1.3896   -0.6076 C   0  0  0  0  0  0  0  0  0  0  0  0
   -0.9633    0.7347    0.6026 C   0  0  0  0  0  0  0  0  0  0  0  0
   -1.9958   -2.3257   -0.6207 H   0  0  0  0  0  0  0  0  0  0  0  0
   -1.6950   -1.1002   -2.7784 H   0  0  0  0  0  0  0  0  0  0  0  0
   -1.2386    3.3209   -2.6358 H   0  0  0  0  0  0  0  0  0  0  0  0
   -0.5126    2.8734   -4.2047 H   0  0  0  0  0  0  0  0  0  0  0  0
    0.4732    2.7935   -2.7185 H   0  0  0  0  0  0  0  0  0  0  0  0
   -0.4841    2.4223   -0.5919 H   0  0  0  0  0  0  0  0  0  0  0  0
   -0.7763    1.2481    1.5434 H   0  0  0  0  0  0  0  0  0  0  0  0
   -1.5482    1.1570    3.7690 B   0  0  0  0  0  0  0  0  0  0  0  0
   -0.5014    0.1937    3.6183 F   0  0  0  0  0  0  0  0  0  0  0  0
   -1.1376    2.3188    3.0688 F   0  0  0  0  0  0  0  0  0  0  0  0
   -2.6813    0.6199    3.0994 F   0  0  0  0  0  0  0  0  0  0  0  0
   -1.8091    1.4133    5.0902 F   0  0  0  0  0  0  0  0  0  0  0  0
  1 10  1  0  0  0  0
  1  2  1  0  0  0  0
  2  3  1  0  0  0  0
  4 11  1  0  0  0  0
  4  1  2  0  0  0  0
  5  6  2  0  0  0  0
  5  4  1  0  0  0  0
  6  9  1  0  0  0  0
  7  6  1  0  0  0  0
  8  7  1  0  0  0  0
  8 15  1  0  0  0  0
  8 13  1  0  0  0  0
  9 16  1  0  0  0  0
  9 10  2  0  0  0  0
 10 17  1  0  0  0  0
 12  5  1  0  0  0  0
 14  8  1  0  0  0  0
 18 22  1  0  0  0  0
 19 18  1  0  0  0  0
 20 18  1  0  0  0  0
 21 18  1  0  0  0  0
M  RAD  2   2   2   3   3
M  END
