Coordinates from ORCA-job 4-MeOPhN2+~BF4-_B3LYPG-6-31G_dp-NX-Scan-d89-09-n800
 OpenBabel11261920503D

 22 21  0  0  0  0  0  0  0  0999 V2000
   -1.2292   -0.7698    0.5915 C   0  0  0  0  0  0  0  0  0  0  0  0
   -1.2980   -1.5349    1.7198 N   0  0  0  0  0  0  0  0  0  0  0  0
   -1.3573   -2.2249    2.5943 N   0  0  0  0  0  0  0  0  0  0  0  0
   -1.7925   -1.2975   -0.5964 C   0  0  0  0  0  0  0  0  0  0  0  0
   -1.7235   -0.5340   -1.7352 C   0  0  0  0  0  0  0  0  0  0  0  0
   -1.1080    0.7446   -1.7011 C   0  0  0  0  0  0  0  0  0  0  0  0
   -1.1118    1.4020   -2.8659 O   0  0  0  0  0  0  0  0  0  0  0  0
   -0.5533    2.7209   -2.9324 C   0  0  0  0  0  0  0  0  0  0  0  0
   -0.5506    1.2399   -0.5081 C   0  0  0  0  0  0  0  0  0  0  0  0
   -0.6079    0.4912    0.6539 C   0  0  0  0  0  0  0  0  0  0  0  0
   -2.2696   -2.2707   -0.5964 H   0  0  0  0  0  0  0  0  0  0  0  0
   -2.1429   -0.8809   -2.6721 H   0  0  0  0  0  0  0  0  0  0  0  0
   -1.0815    3.4022   -2.2585 H   0  0  0  0  0  0  0  0  0  0  0  0
   -0.6913    3.0423   -3.9641 H   0  0  0  0  0  0  0  0  0  0  0  0
    0.5141    2.7060   -2.6899 H   0  0  0  0  0  0  0  0  0  0  0  0
   -0.0986    2.2215   -0.4642 H   0  0  0  0  0  0  0  0  0  0  0  0
   -0.2172    0.8490    1.6041 H   0  0  0  0  0  0  0  0  0  0  0  0
   -1.7561    1.3680    3.4201 B   0  0  0  0  0  0  0  0  0  0  0  0
   -0.3809    0.9577    3.4736 F   0  0  0  0  0  0  0  0  0  0  0  0
   -1.8755    2.3033    2.3768 F   0  0  0  0  0  0  0  0  0  0  0  0
   -2.5104    0.2096    3.0668 F   0  0  0  0  0  0  0  0  0  0  0  0
   -2.1619    1.8742    4.6297 F   0  0  0  0  0  0  0  0  0  0  0  0
  1 10  1  0  0  0  0
  1  2  1  0  0  0  0
  2  3  1  0  0  0  0
  4  1  2  0  0  0  0
  5  6  2  0  0  0  0
  5  4  1  0  0  0  0
  6  9  1  0  0  0  0
  7  6  1  0  0  0  0
  8  7  1  0  0  0  0
  8 15  1  0  0  0  0
  8 13  1  0  0  0  0
  9 16  1  0  0  0  0
  9 10  2  0  0  0  0
 10 17  1  0  0  0  0
 11  4  1  0  0  0  0
 12  5  1  0  0  0  0
 14  8  1  0  0  0  0
 18 19  1  0  0  0  0
 18 22  1  0  0  0  0
 20 18  1  0  0  0  0
 21 18  1  0  0  0  0
M  RAD  2   2   2   3   3
M  END
