Coordinates from ORCA-job 4-MeOPhN2+~BF4-_B3LYPG-6-31G_dp-NX-Scan-d89-09-n800
 OpenBabel11261920503D

 22 21  0  0  0  0  0  0  0  0999 V2000
   -1.3699   -0.6815    0.4685 C   0  0  0  0  0  0  0  0  0  0  0  0
   -1.6107   -1.5078    1.5804 N   0  0  0  0  0  0  0  0  0  0  0  0
   -1.4140   -1.3579    2.7656 N   0  0  0  0  0  0  0  0  0  0  0  0
   -1.6219   -1.3190   -0.7646 C   0  0  0  0  0  0  0  0  0  0  0  0
   -1.4455   -0.6515   -1.9611 C   0  0  0  0  0  0  0  0  0  0  0  0
   -1.0245    0.6904   -1.9552 C   0  0  0  0  0  0  0  0  0  0  0  0
   -0.8839    1.2661   -3.1716 O   0  0  0  0  0  0  0  0  0  0  0  0
   -0.4735    2.6281   -3.2450 C   0  0  0  0  0  0  0  0  0  0  0  0
   -0.7860    1.3409   -0.7332 C   0  0  0  0  0  0  0  0  0  0  0  0
   -0.9516    0.6644    0.4711 C   0  0  0  0  0  0  0  0  0  0  0  0
   -1.9561   -2.3505   -0.7489 H   0  0  0  0  0  0  0  0  0  0  0  0
   -1.6316   -1.1346   -2.9138 H   0  0  0  0  0  0  0  0  0  0  0  0
   -1.1912    3.2898   -2.7459 H   0  0  0  0  0  0  0  0  0  0  0  0
   -0.4372    2.8703   -4.3074 H   0  0  0  0  0  0  0  0  0  0  0  0
    0.5210    2.7709   -2.8064 H   0  0  0  0  0  0  0  0  0  0  0  0
   -0.4693    2.3758   -0.7084 H   0  0  0  0  0  0  0  0  0  0  0  0
   -0.7738    1.1873    1.3973 H   0  0  0  0  0  0  0  0  0  0  0  0
   -1.8985    1.4757    4.3380 B   0  0  0  0  0  0  0  0  0  0  0  0
   -0.8056   -0.1167    3.0937 F   0  0  0  0  0  0  0  0  0  0  0  0
   -1.4005    2.4197    3.5466 F   0  0  0  0  0  0  0  0  0  0  0  0
   -3.0937    0.9757    4.0770 F   0  0  0  0  0  0  0  0  0  0  0  0
   -1.2859    1.1842    5.4698 F   0  0  0  0  0  0  0  0  0  0  0  0
  1 10  1  0  0  0  0
  1  2  1  0  0  0  0
  2  3  1  0  0  0  0
  3 19  1  0  0  0  0
  4 11  1  0  0  0  0
  4  1  2  0  0  0  0
  5  6  2  0  0  0  0
  5  4  1  0  0  0  0
  6  9  1  0  0  0  0
  7  6  1  0  0  0  0
  8  7  1  0  0  0  0
  8 15  1  0  0  0  0
  8 13  1  0  0  0  0
  9 16  1  0  0  0  0
  9 10  2  0  0  0  0
 10 17  1  0  0  0  0
 12  5  1  0  0  0  0
 14  8  1  0  0  0  0
 18 22  1  0  0  0  0
 20 18  1  0  0  0  0
 21 18  1  0  0  0  0
M  RAD  2   2   2   3   2
M  END
