Coordinates from ORCA-job 4-MeOPhN2+~BF4-_B3LYPG-6-31G_dp-NX-Scan-d89-09-n800
 OpenBabel11261920503D

 22 21  0  0  0  0  0  0  0  0999 V2000
   -1.4805   -1.8964    0.2932 C   0  0  0  0  0  0  0  0  0  0  0  0
   -1.7351   -2.9941    1.0226 N   0  0  0  0  0  0  0  0  0  0  0  0
   -1.9451   -3.8972    1.6620 N   0  0  0  0  0  0  0  0  0  0  0  0
   -1.6841   -1.9297   -1.1167 C   0  0  0  0  0  0  0  0  0  0  0  0
   -1.4602   -0.7806   -1.8236 C   0  0  0  0  0  0  0  0  0  0  0  0
   -1.0552    0.4160   -1.1555 C   0  0  0  0  0  0  0  0  0  0  0  0
   -0.9271    1.4727   -1.9232 O   0  0  0  0  0  0  0  0  0  0  0  0
   -0.6971    2.7865   -1.3192 C   0  0  0  0  0  0  0  0  0  0  0  0
   -0.8172    0.4202    0.2463 C   0  0  0  0  0  0  0  0  0  0  0  0
   -1.0352   -0.7237    0.9662 C   0  0  0  0  0  0  0  0  0  0  0  0
   -2.0166   -2.8412   -1.6007 H   0  0  0  0  0  0  0  0  0  0  0  0
   -1.6120   -0.7424   -2.8963 H   0  0  0  0  0  0  0  0  0  0  0  0
   -1.5154    3.0238   -0.6410 H   0  0  0  0  0  0  0  0  0  0  0  0
   -0.6521    3.4696   -2.1644 H   0  0  0  0  0  0  0  0  0  0  0  0
    0.2420    2.7908   -0.7649 H   0  0  0  0  0  0  0  0  0  0  0  0
   -0.4925    1.3119    0.7828 H   0  0  0  0  0  0  0  0  0  0  0  0
   -0.8832   -0.7297    2.0402 H   0  0  0  0  0  0  0  0  0  0  0  0
   -1.2596    3.4029    1.9328 B   0  0  0  0  0  0  0  0  0  0  0  0
   -1.0144    4.4691    1.0610 F   0  0  0  0  0  0  0  0  0  0  0  0
   -2.2846    2.5889    1.3647 F   0  0  0  0  0  0  0  0  0  0  0  0
   -0.0731    2.5877    1.9809 F   0  0  0  0  0  0  0  0  0  0  0  0
   -1.6056    3.8145    3.1994 F   0  0  0  0  0  0  0  0  0  0  0  0
  1 10  1  0  0  0  0
  1  2  1  0  0  0  0
  2  3  1  0  0  0  0
  4  1  2  0  0  0  0
  5  6  2  0  0  0  0
  5  4  1  0  0  0  0
  6  9  1  0  0  0  0
  7  8  1  0  0  0  0
  7  6  1  0  0  0  0
  8 15  1  0  0  0  0
  8 13  1  0  0  0  0
  9 16  1  0  0  0  0
  9 10  2  0  0  0  0
 10 17  1  0  0  0  0
 11  4  1  0  0  0  0
 12  5  1  0  0  0  0
 14  8  1  0  0  0  0
 18 21  1  0  0  0  0
 18 22  1  0  0  0  0
 19 18  1  0  0  0  0
 20 18  1  0  0  0  0
M  RAD  2   2   2   3   3
M  END
