Coordinates from ORCA-job 4-MeOPhN2+~BF4-_B3LYPG-6-31G_dp-NX-Scan-d89-09-n800
 OpenBabel11261920503D

 22 21  0  0  0  0  0  0  0  0999 V2000
   -1.3169   -0.6500    0.5588 C   0  0  0  0  0  0  0  0  0  0  0  0
   -1.4711   -1.4212    1.7066 N   0  0  0  0  0  0  0  0  0  0  0  0
   -1.3260   -1.3903    2.8688 N   0  0  0  0  0  0  0  0  0  0  0  0
   -1.6725   -1.2851   -0.6484 C   0  0  0  0  0  0  0  0  0  0  0  0
   -1.5552   -0.6093   -1.8453 C   0  0  0  0  0  0  0  0  0  0  0  0
   -1.0810    0.7181   -1.8558 C   0  0  0  0  0  0  0  0  0  0  0  0
   -1.0027    1.2958   -3.0703 O   0  0  0  0  0  0  0  0  0  0  0  0
   -0.5407    2.6431   -3.1717 C   0  0  0  0  0  0  0  0  0  0  0  0
   -0.7281    1.3504   -0.6491 C   0  0  0  0  0  0  0  0  0  0  0  0
   -0.8432    0.6760    0.5583 C   0  0  0  0  0  0  0  0  0  0  0  0
   -2.0380   -2.3054   -0.6178 H   0  0  0  0  0  0  0  0  0  0  0  0
   -1.8232   -1.0727   -2.7877 H   0  0  0  0  0  0  0  0  0  0  0  0
   -1.1956    3.3296   -2.6242 H   0  0  0  0  0  0  0  0  0  0  0  0
   -0.5685    2.8842   -4.2343 H   0  0  0  0  0  0  0  0  0  0  0  0
    0.4862    2.7395   -2.8024 H   0  0  0  0  0  0  0  0  0  0  0  0
   -0.3682    2.3709   -0.6409 H   0  0  0  0  0  0  0  0  0  0  0  0
   -0.5817    1.1730    1.4808 H   0  0  0  0  0  0  0  0  0  0  0  0
   -1.7996    1.2474    3.8516 B   0  0  0  0  0  0  0  0  0  0  0  0
   -0.7098    0.0039    3.3581 F   0  0  0  0  0  0  0  0  0  0  0  0
   -1.1338    2.3195    3.3451 F   0  0  0  0  0  0  0  0  0  0  0  0
   -2.9196    0.8848    3.1790 F   0  0  0  0  0  0  0  0  0  0  0  0
   -1.8146    1.1175    5.1875 F   0  0  0  0  0  0  0  0  0  0  0  0
  1  2  1  0  0  0  0
  2  3  1  0  0  0  0
  3 19  1  0  0  0  0
  4 11  1  0  0  0  0
  4  1  2  0  0  0  0
  5  4  1  0  0  0  0
  6  5  2  0  0  0  0
  6  9  1  0  0  0  0
  7  6  1  0  0  0  0
  8  7  1  0  0  0  0
  8 15  1  0  0  0  0
  8 13  1  0  0  0  0
  9 16  1  0  0  0  0
  9 10  2  0  0  0  0
 10  1  1  0  0  0  0
 10 17  1  0  0  0  0
 12  5  1  0  0  0  0
 14  8  1  0  0  0  0
 18 22  1  0  0  0  0
 20 18  1  0  0  0  0
 21 18  1  0  0  0  0
M  RAD  2   2   2   3   2
M  END
