Coordinates from ORCA-job 4-MeOPhN2+~BF4-_B3LYPG-6-31G_dp-NX-Scan-d89-09-n800
 OpenBabel11261920503D

 22 21  0  0  0  0  0  0  0  0999 V2000
   -1.3014   -0.5407    0.5530 C   0  0  0  0  0  0  0  0  0  0  0  0
   -1.4014   -1.2092    1.7471 N   0  0  0  0  0  0  0  0  0  0  0  0
   -1.4619   -1.7418    2.7301 N   0  0  0  0  0  0  0  0  0  0  0  0
   -1.5968   -1.2571   -0.6283 C   0  0  0  0  0  0  0  0  0  0  0  0
   -1.4913   -0.6021   -1.8337 C   0  0  0  0  0  0  0  0  0  0  0  0
   -1.0878    0.7540   -1.8714 C   0  0  0  0  0  0  0  0  0  0  0  0
   -1.0192    1.2925   -3.0968 O   0  0  0  0  0  0  0  0  0  0  0  0
   -0.6307    2.6632   -3.2422 C   0  0  0  0  0  0  0  0  0  0  0  0
   -0.7878    1.4428   -0.6802 C   0  0  0  0  0  0  0  0  0  0  0  0
   -0.8960    0.8066    0.5456 C   0  0  0  0  0  0  0  0  0  0  0  0
   -1.9066   -2.2948   -0.5782 H   0  0  0  0  0  0  0  0  0  0  0  0
   -1.7139   -1.1024   -2.7688 H   0  0  0  0  0  0  0  0  0  0  0  0
   -1.3324    3.3269   -2.7268 H   0  0  0  0  0  0  0  0  0  0  0  0
   -0.6579    2.8616   -4.3130 H   0  0  0  0  0  0  0  0  0  0  0  0
    0.3837    2.8261   -2.8637 H   0  0  0  0  0  0  0  0  0  0  0  0
   -0.4755    2.4786   -0.6997 H   0  0  0  0  0  0  0  0  0  0  0  0
   -0.6769    1.3084    1.4867 H   0  0  0  0  0  0  0  0  0  0  0  0
   -1.6041    1.0290    3.9045 B   0  0  0  0  0  0  0  0  0  0  0  0
   -1.2567   -0.2888    4.3445 F   0  0  0  0  0  0  0  0  0  0  0  0
   -0.4379    1.6129    3.3429 F   0  0  0  0  0  0  0  0  0  0  0  0
   -2.5505    0.8756    2.8586 F   0  0  0  0  0  0  0  0  0  0  0  0
   -2.1011    1.7783    4.9364 F   0  0  0  0  0  0  0  0  0  0  0  0
  1  2  1  0  0  0  0
  2  3  1  0  0  0  0
  4 11  1  0  0  0  0
  4  1  2  0  0  0  0
  5  4  1  0  0  0  0
  6  5  2  0  0  0  0
  6  9  1  0  0  0  0
  7  6  1  0  0  0  0
  8  7  1  0  0  0  0
  8 15  1  0  0  0  0
  8 13  1  0  0  0  0
  9 10  2  0  0  0  0
 10  1  1  0  0  0  0
 10 17  1  0  0  0  0
 12  5  1  0  0  0  0
 14  8  1  0  0  0  0
 16  9  1  0  0  0  0
 18 19  1  0  0  0  0
 18 22  1  0  0  0  0
 20 18  1  0  0  0  0
 21 18  1  0  0  0  0
M  RAD  2   2   2   3   3
M  END
