Coordinates from ORCA-job 4-MeOPhN2+~BF4-_B3LYPG-6-31G_dp-NX-Scan-d89-09-n800
 OpenBabel11261920503D

 22 22  0  0  0  0  0  0  0  0999 V2000
   -1.5760    0.2990    0.6904 C   0  0  0  0  0  0  0  0  0  0  0  0
   -1.9468   -0.0948    2.0019 N   0  0  0  0  0  0  0  0  0  0  0  0
   -1.3650    0.4161    3.0156 N   0  0  0  0  0  0  0  0  0  0  0  0
   -2.2095   -0.4748   -0.3061 C   0  0  0  0  0  0  0  0  0  0  0  0
   -1.9881   -0.2446   -1.6501 C   0  0  0  0  0  0  0  0  0  0  0  0
   -1.1226    0.7877   -2.0519 C   0  0  0  0  0  0  0  0  0  0  0  0
   -0.9691    0.9418   -3.3893 O   0  0  0  0  0  0  0  0  0  0  0  0
   -0.1100    1.9704   -3.8663 C   0  0  0  0  0  0  0  0  0  0  0  0
   -0.4908    1.5755   -1.0795 C   0  0  0  0  0  0  0  0  0  0  0  0
   -0.7115    1.3333    0.2760 C   0  0  0  0  0  0  0  0  0  0  0  0
   -2.8795   -1.2633    0.0200 H   0  0  0  0  0  0  0  0  0  0  0  0
   -2.4732   -0.8428   -2.4134 H   0  0  0  0  0  0  0  0  0  0  0  0
   -0.4569    2.9620   -3.5507 H   0  0  0  0  0  0  0  0  0  0  0  0
   -0.1432    1.9064   -4.9548 H   0  0  0  0  0  0  0  0  0  0  0  0
    0.9221    1.8214   -3.5260 H   0  0  0  0  0  0  0  0  0  0  0  0
    0.1753    2.3814   -1.3636 H   0  0  0  0  0  0  0  0  0  0  0  0
   -0.2017    1.9807    0.9778 H   0  0  0  0  0  0  0  0  0  0  0  0
   -1.9017   -0.0859    4.6340 B   0  0  0  0  0  0  0  0  0  0  0  0
   -0.6743    1.0663    2.9615 F   0  0  0  0  0  0  0  0  0  0  0  0
   -2.9564    0.7408    4.8792 F   0  0  0  0  0  0  0  0  0  0  0  0
   -0.7486    0.2477    5.3038 F   0  0  0  0  0  0  0  0  0  0  0  0
   -2.1763   -1.4044    4.5381 F   0  0  0  0  0  0  0  0  0  0  0  0
  1  2  1  0  0  0  0
  2  3  1  0  0  0  0
  3 18  1  0  0  0  0
  4 11  1  0  0  0  0
  4  1  2  0  0  0  0
  5  4  1  0  0  0  0
  6  5  2  0  0  0  0
  6  9  1  0  0  0  0
  7  6  1  0  0  0  0
  8 13  1  0  0  0  0
  8 15  1  0  0  0  0
  8  7  1  0  0  0  0
  9 10  2  0  0  0  0
 10  1  1  0  0  0  0
 10 17  1  0  0  0  0
 12  5  1  0  0  0  0
 14  8  1  0  0  0  0
 16  9  1  0  0  0  0
 18 20  1  0  0  0  0
 18 21  1  0  0  0  0
 19  3  1  0  0  0  0
 22 18  1  0  0  0  0
M  RAD  1   2   2
M  END
