Coordinates from ORCA-job 4-MeOPhN2+~BF4-_B3LYPG-6-31G_dp-NX-Scan-d89-09-n800
 OpenBabel11261920503D

 22 21  0  0  0  0  0  0  0  0999 V2000
   -1.3211   -0.6472    0.5559 C   0  0  0  0  0  0  0  0  0  0  0  0
   -1.4502   -1.3741    1.7248 N   0  0  0  0  0  0  0  0  0  0  0  0
   -1.3606   -1.4736    2.8639 N   0  0  0  0  0  0  0  0  0  0  0  0
   -1.6785   -1.2908   -0.6456 C   0  0  0  0  0  0  0  0  0  0  0  0
   -1.5623   -0.6070   -1.8367 C   0  0  0  0  0  0  0  0  0  0  0  0
   -1.0893    0.7234   -1.8406 C   0  0  0  0  0  0  0  0  0  0  0  0
   -1.0143    1.3031   -3.0510 O   0  0  0  0  0  0  0  0  0  0  0  0
   -0.5569    2.6540   -3.1524 C   0  0  0  0  0  0  0  0  0  0  0  0
   -0.7345    1.3542   -0.6327 C   0  0  0  0  0  0  0  0  0  0  0  0
   -0.8485    0.6780    0.5722 C   0  0  0  0  0  0  0  0  0  0  0  0
   -2.0427   -2.3115   -0.6192 H   0  0  0  0  0  0  0  0  0  0  0  0
   -1.8303   -1.0648   -2.7817 H   0  0  0  0  0  0  0  0  0  0  0  0
   -1.2134    3.3359   -2.6019 H   0  0  0  0  0  0  0  0  0  0  0  0
   -0.5891    2.8949   -4.2147 H   0  0  0  0  0  0  0  0  0  0  0  0
    0.4706    2.7518   -2.7860 H   0  0  0  0  0  0  0  0  0  0  0  0
   -0.3773    2.3755   -0.6214 H   0  0  0  0  0  0  0  0  0  0  0  0
   -0.5920    1.1691    1.5024 H   0  0  0  0  0  0  0  0  0  0  0  0
   -1.7144    1.1873    3.7774 B   0  0  0  0  0  0  0  0  0  0  0  0
   -0.7191    0.0007    3.5575 F   0  0  0  0  0  0  0  0  0  0  0  0
   -1.0328    2.2613    3.2340 F   0  0  0  0  0  0  0  0  0  0  0  0
   -2.8180    0.8314    3.0284 F   0  0  0  0  0  0  0  0  0  0  0  0
   -1.9291    1.2682    5.1138 F   0  0  0  0  0  0  0  0  0  0  0  0
  1 10  1  0  0  0  0
  1  2  1  0  0  0  0
  2  3  2  0  0  0  0
  4 11  1  0  0  0  0
  4  1  2  0  0  0  0
  5  4  1  0  0  0  0
  6  5  2  0  0  0  0
  6  9  1  0  0  0  0
  7  6  1  0  0  0  0
  8  7  1  0  0  0  0
  8 15  1  0  0  0  0
  8 13  1  0  0  0  0
  9 16  1  0  0  0  0
  9 10  2  0  0  0  0
 10 17  1  0  0  0  0
 12  5  1  0  0  0  0
 14  8  1  0  0  0  0
 18 22  1  0  0  0  0
 19 18  1  0  0  0  0
 20 18  1  0  0  0  0
 21 18  1  0  0  0  0
M  RAD  1   3   2
M  END
