Coordinates from ORCA-job 4-MeOPhN2+~BF4-_B3LYPG-6-31G_dp-NX-Scan-d89-09-n800
 OpenBabel11261920503D

 22 21  0  0  0  0  0  0  0  0999 V2000
   -1.4622   -1.8903    0.2958 C   0  0  0  0  0  0  0  0  0  0  0  0
   -1.6784   -2.9966    1.0263 N   0  0  0  0  0  0  0  0  0  0  0  0
   -1.8538   -3.9146    1.6553 N   0  0  0  0  0  0  0  0  0  0  0  0
   -1.6656   -1.9371   -1.1143 C   0  0  0  0  0  0  0  0  0  0  0  0
   -1.4694   -0.7886   -1.8304 C   0  0  0  0  0  0  0  0  0  0  0  0
   -1.0873    0.4217   -1.1730 C   0  0  0  0  0  0  0  0  0  0  0  0
   -0.9697    1.4723   -1.9506 O   0  0  0  0  0  0  0  0  0  0  0  0
   -0.7214    2.7885   -1.3588 C   0  0  0  0  0  0  0  0  0  0  0  0
   -0.8592    0.4421    0.2295 C   0  0  0  0  0  0  0  0  0  0  0  0
   -1.0504   -0.7005    0.9601 C   0  0  0  0  0  0  0  0  0  0  0  0
   -1.9744   -2.8601   -1.5919 H   0  0  0  0  0  0  0  0  0  0  0  0
   -1.6198   -0.7636   -2.9037 H   0  0  0  0  0  0  0  0  0  0  0  0
   -1.5012    3.0180   -0.6328 H   0  0  0  0  0  0  0  0  0  0  0  0
   -0.7290    3.4717   -2.2052 H   0  0  0  0  0  0  0  0  0  0  0  0
    0.2501    2.8002   -0.8631 H   0  0  0  0  0  0  0  0  0  0  0  0
   -0.5553    1.3357    0.7720 H   0  0  0  0  0  0  0  0  0  0  0  0
   -0.8997   -0.6847    2.0343 H   0  0  0  0  0  0  0  0  0  0  0  0
   -1.2393    3.3931    1.9828 B   0  0  0  0  0  0  0  0  0  0  0  0
   -0.6869    4.3561    1.1272 F   0  0  0  0  0  0  0  0  0  0  0  0
   -2.3052    2.7404    1.2895 F   0  0  0  0  0  0  0  0  0  0  0  0
   -0.2423    2.3878    2.2275 F   0  0  0  0  0  0  0  0  0  0  0  0
   -1.6834    3.9282    3.1699 F   0  0  0  0  0  0  0  0  0  0  0  0
  1 10  1  0  0  0  0
  1  2  1  0  0  0  0
  2  3  1  0  0  0  0
  4  1  2  0  0  0  0
  5  6  2  0  0  0  0
  5  4  1  0  0  0  0
  6  9  1  0  0  0  0
  7  8  1  0  0  0  0
  7  6  1  0  0  0  0
  8 15  1  0  0  0  0
  8 13  1  0  0  0  0
  9 16  1  0  0  0  0
  9 10  2  0  0  0  0
 10 17  1  0  0  0  0
 11  4  1  0  0  0  0
 12  5  1  0  0  0  0
 14  8  1  0  0  0  0
 18 21  1  0  0  0  0
 18 22  1  0  0  0  0
 19 18  1  0  0  0  0
 20 18  1  0  0  0  0
M  RAD  2   2   2   3   3
M  END
