Coordinates from ORCA-job 4-MeOPhN2+~BF4-_B3LYPG-6-31G_dp-NX-Scan-d89-09-n800
 OpenBabel11261920503D

 22 21  0  0  0  0  0  0  0  0999 V2000
   -1.3358   -1.6069    0.3874 C   0  0  0  0  0  0  0  0  0  0  0  0
   -1.5424   -2.6108    1.2595 N   0  0  0  0  0  0  0  0  0  0  0  0
   -1.7031   -3.4286    2.0148 N   0  0  0  0  0  0  0  0  0  0  0  0
   -1.6612   -1.7946   -0.9877 C   0  0  0  0  0  0  0  0  0  0  0  0
   -1.5108   -0.7276   -1.8319 C   0  0  0  0  0  0  0  0  0  0  0  0
   -1.0508    0.5266   -1.3284 C   0  0  0  0  0  0  0  0  0  0  0  0
   -1.0419    1.5250   -2.1929 O   0  0  0  0  0  0  0  0  0  0  0  0
   -0.7591    2.8692   -1.7080 C   0  0  0  0  0  0  0  0  0  0  0  0
   -0.6590    0.6648    0.0207 C   0  0  0  0  0  0  0  0  0  0  0  0
   -0.8331   -0.3800    0.8932 C   0  0  0  0  0  0  0  0  0  0  0  0
   -2.0330   -2.7505   -1.3388 H   0  0  0  0  0  0  0  0  0  0  0  0
   -1.7706   -0.8002   -2.8817 H   0  0  0  0  0  0  0  0  0  0  0  0
   -1.3631    3.0838   -0.8223 H   0  0  0  0  0  0  0  0  0  0  0  0
   -1.0160    3.5219   -2.5408 H   0  0  0  0  0  0  0  0  0  0  0  0
    0.3044    2.9596   -1.4720 H   0  0  0  0  0  0  0  0  0  0  0  0
   -0.2897    1.6000    0.4323 H   0  0  0  0  0  0  0  0  0  0  0  0
   -0.6579   -0.2164    1.9511 H   0  0  0  0  0  0  0  0  0  0  0  0
   -1.4301    2.7394    2.2837 B   0  0  0  0  0  0  0  0  0  0  0  0
   -0.0842    2.8291    1.8114 F   0  0  0  0  0  0  0  0  0  0  0  0
   -2.2721    2.8013    1.1397 F   0  0  0  0  0  0  0  0  0  0  0  0
   -1.5847    1.4635    2.8881 F   0  0  0  0  0  0  0  0  0  0  0  0
   -1.7097    3.7512    3.1692 F   0  0  0  0  0  0  0  0  0  0  0  0
  1 10  1  0  0  0  0
  1  2  1  0  0  0  0
  2  3  1  0  0  0  0
  4  1  2  0  0  0  0
  5  6  2  0  0  0  0
  5  4  1  0  0  0  0
  6  9  1  0  0  0  0
  7  8  1  0  0  0  0
  7  6  1  0  0  0  0
  8 15  1  0  0  0  0
  8 13  1  0  0  0  0
  9 16  1  0  0  0  0
  9 10  2  0  0  0  0
 10 17  1  0  0  0  0
 11  4  1  0  0  0  0
 12  5  1  0  0  0  0
 14  8  1  0  0  0  0
 18 21  1  0  0  0  0
 18 22  1  0  0  0  0
 19 18  1  0  0  0  0
 20 18  1  0  0  0  0
M  RAD  2   2   2   3   3
M  END
