Coordinates from ORCA-job 4-MeOPhN2+~BF4-_B3LYPG-6-31G_dp-NX-Scan-d89-09-n800
 OpenBabel11261920503D

 22 21  0  0  0  0  0  0  0  0999 V2000
   -1.3899   -1.7393    0.3597 C   0  0  0  0  0  0  0  0  0  0  0  0
   -1.5924   -2.8223    1.1350 N   0  0  0  0  0  0  0  0  0  0  0  0
   -1.7637   -3.7426    1.7617 N   0  0  0  0  0  0  0  0  0  0  0  0
   -1.5998   -1.8747   -1.0456 C   0  0  0  0  0  0  0  0  0  0  0  0
   -1.4375   -0.7683   -1.8329 C   0  0  0  0  0  0  0  0  0  0  0  0
   -1.0718    0.4832   -1.2502 C   0  0  0  0  0  0  0  0  0  0  0  0
   -1.0169    1.5034   -2.0796 O   0  0  0  0  0  0  0  0  0  0  0  0
   -0.8141    2.8494   -1.5466 C   0  0  0  0  0  0  0  0  0  0  0  0
   -0.8098    0.5835    0.1384 C   0  0  0  0  0  0  0  0  0  0  0  0
   -0.9954   -0.5069    0.9515 C   0  0  0  0  0  0  0  0  0  0  0  0
   -1.8940   -2.8309   -1.4636 H   0  0  0  0  0  0  0  0  0  0  0  0
   -1.6068   -0.8099   -2.9028 H   0  0  0  0  0  0  0  0  0  0  0  0
   -1.5401    3.0504   -0.7558 H   0  0  0  0  0  0  0  0  0  0  0  0
   -0.9477    3.5013   -2.4078 H   0  0  0  0  0  0  0  0  0  0  0  0
    0.1929    2.9431   -1.1383 H   0  0  0  0  0  0  0  0  0  0  0  0
   -0.4869    1.5144    0.5913 H   0  0  0  0  0  0  0  0  0  0  0  0
   -0.8675   -0.3823    2.0218 H   0  0  0  0  0  0  0  0  0  0  0  0
   -1.2846    3.0376    2.1493 B   0  0  0  0  0  0  0  0  0  0  0  0
   -0.1257    3.3377    1.3682 F   0  0  0  0  0  0  0  0  0  0  0  0
   -2.3680    2.9094    1.2414 F   0  0  0  0  0  0  0  0  0  0  0  0
   -1.0669    1.7710    2.7629 F   0  0  0  0  0  0  0  0  0  0  0  0
   -1.5170    4.0126    3.0883 F   0  0  0  0  0  0  0  0  0  0  0  0
  1 10  1  0  0  0  0
  1  2  1  0  0  0  0
  2  3  1  0  0  0  0
  4  1  2  0  0  0  0
  5  6  2  0  0  0  0
  5  4  1  0  0  0  0
  6  9  1  0  0  0  0
  7  8  1  0  0  0  0
  7  6  1  0  0  0  0
  8 15  1  0  0  0  0
  8 13  1  0  0  0  0
  9 16  1  0  0  0  0
  9 10  2  0  0  0  0
 10 17  1  0  0  0  0
 11  4  1  0  0  0  0
 12  5  1  0  0  0  0
 14  8  1  0  0  0  0
 18 21  1  0  0  0  0
 18 22  1  0  0  0  0
 19 18  1  0  0  0  0
 20 18  1  0  0  0  0
M  RAD  2   2   2   3   3
M  END
