Coordinates from ORCA-job 4-MeOPhN2+~BF4-_B3LYPG-6-31G_dp-NX-Scan-d89-09-n800
 OpenBabel11261920503D

 22 21  0  0  0  0  0  0  0  0999 V2000
   -1.2129   -0.7194    0.6106 C   0  0  0  0  0  0  0  0  0  0  0  0
   -1.2910   -1.4599    1.7567 N   0  0  0  0  0  0  0  0  0  0  0  0
   -1.3567   -2.1465    2.6327 N   0  0  0  0  0  0  0  0  0  0  0  0
   -1.7685   -1.2760   -0.5663 C   0  0  0  0  0  0  0  0  0  0  0  0
   -1.7020   -0.5367   -1.7222 C   0  0  0  0  0  0  0  0  0  0  0  0
   -1.0985    0.7468   -1.7148 C   0  0  0  0  0  0  0  0  0  0  0  0
   -1.1079    1.3810   -2.8929 O   0  0  0  0  0  0  0  0  0  0  0  0
   -0.5675    2.7056   -2.9842 C   0  0  0  0  0  0  0  0  0  0  0  0
   -0.5461    1.2715   -0.5314 C   0  0  0  0  0  0  0  0  0  0  0  0
   -0.6005    0.5466    0.6453 C   0  0  0  0  0  0  0  0  0  0  0  0
   -2.2396   -2.2519   -0.5469 H   0  0  0  0  0  0  0  0  0  0  0  0
   -2.1166   -0.9075   -2.6520 H   0  0  0  0  0  0  0  0  0  0  0  0
   -1.1040    3.3923   -2.3224 H   0  0  0  0  0  0  0  0  0  0  0  0
   -0.7110    3.0064   -4.0213 H   0  0  0  0  0  0  0  0  0  0  0  0
    0.5005    2.7101   -2.7430 H   0  0  0  0  0  0  0  0  0  0  0  0
   -0.0989    2.2561   -0.5088 H   0  0  0  0  0  0  0  0  0  0  0  0
   -0.2208    0.9208    1.5904 H   0  0  0  0  0  0  0  0  0  0  0  0
   -1.7722    1.3017    3.4515 B   0  0  0  0  0  0  0  0  0  0  0  0
   -0.4720    0.6871    3.5005 F   0  0  0  0  0  0  0  0  0  0  0  0
   -1.6942    2.3643    2.5351 F   0  0  0  0  0  0  0  0  0  0  0  0
   -2.6594    0.3165    2.9282 F   0  0  0  0  0  0  0  0  0  0  0  0
   -2.1640    1.7108    4.7019 F   0  0  0  0  0  0  0  0  0  0  0  0
  1 10  1  0  0  0  0
  1  2  1  0  0  0  0
  2  3  1  0  0  0  0
  4 11  1  0  0  0  0
  4  1  2  0  0  0  0
  5  6  2  0  0  0  0
  5  4  1  0  0  0  0
  6  9  1  0  0  0  0
  7  6  1  0  0  0  0
  8  7  1  0  0  0  0
  8 15  1  0  0  0  0
  8 13  1  0  0  0  0
  9 16  1  0  0  0  0
  9 10  2  0  0  0  0
 10 17  1  0  0  0  0
 12  5  1  0  0  0  0
 14  8  1  0  0  0  0
 18 19  1  0  0  0  0
 18 22  1  0  0  0  0
 20 18  1  0  0  0  0
 21 18  1  0  0  0  0
M  RAD  2   2   2   3   3
M  END
