Coordinates from ORCA-job 4-MeOPhN2+~BF4-_B3LYPG-6-31G_dp-NX-Scan-d89-09-n800
 OpenBabel11261920503D

 22 21  0  0  0  0  0  0  0  0999 V2000
   -1.2510   -0.8200    0.5738 C   0  0  0  0  0  0  0  0  0  0  0  0
   -1.3244   -1.6021    1.6886 N   0  0  0  0  0  0  0  0  0  0  0  0
   -1.3820   -2.2920    2.5639 N   0  0  0  0  0  0  0  0  0  0  0  0
   -1.8123   -1.3224   -0.6267 C   0  0  0  0  0  0  0  0  0  0  0  0
   -1.7348   -0.5371   -1.7494 C   0  0  0  0  0  0  0  0  0  0  0  0
   -1.1122    0.7378   -1.6876 C   0  0  0  0  0  0  0  0  0  0  0  0
   -1.1087    1.4175   -2.8392 O   0  0  0  0  0  0  0  0  0  0  0  0
   -0.5453    2.7359   -2.8770 C   0  0  0  0  0  0  0  0  0  0  0  0
   -0.5564    1.2067   -0.4839 C   0  0  0  0  0  0  0  0  0  0  0  0
   -0.6241    0.4373    0.6639 C   0  0  0  0  0  0  0  0  0  0  0  0
   -2.2942   -2.2931   -0.6475 H   0  0  0  0  0  0  0  0  0  0  0  0
   -2.1528   -0.8625   -2.6947 H   0  0  0  0  0  0  0  0  0  0  0  0
   -1.0723    3.4044   -2.1897 H   0  0  0  0  0  0  0  0  0  0  0  0
   -0.6801    3.0792   -3.9020 H   0  0  0  0  0  0  0  0  0  0  0  0
    0.5216    2.7118   -2.6328 H   0  0  0  0  0  0  0  0  0  0  0  0
   -0.1012    2.1855   -0.4181 H   0  0  0  0  0  0  0  0  0  0  0  0
   -0.2288    0.7821    1.6191 H   0  0  0  0  0  0  0  0  0  0  0  0
   -1.7274    1.4363    3.3831 B   0  0  0  0  0  0  0  0  0  0  0  0
   -0.3113    1.2240    3.4192 F   0  0  0  0  0  0  0  0  0  0  0  0
   -2.0100    2.2326    2.2581 F   0  0  0  0  0  0  0  0  0  0  0  0
   -2.3247    0.1553    3.1738 F   0  0  0  0  0  0  0  0  0  0  0  0
   -2.1713    2.0026    4.5517 F   0  0  0  0  0  0  0  0  0  0  0  0
  1 10  1  0  0  0  0
  1  2  1  0  0  0  0
  2  3  1  0  0  0  0
  4  1  2  0  0  0  0
  5  6  2  0  0  0  0
  5  4  1  0  0  0  0
  6  9  1  0  0  0  0
  7  6  1  0  0  0  0
  8  7  1  0  0  0  0
  8 15  1  0  0  0  0
  8 13  1  0  0  0  0
  9 16  1  0  0  0  0
  9 10  2  0  0  0  0
 10 17  1  0  0  0  0
 11  4  1  0  0  0  0
 12  5  1  0  0  0  0
 14  8  1  0  0  0  0
 18 19  1  0  0  0  0
 18 22  1  0  0  0  0
 20 18  1  0  0  0  0
 21 18  1  0  0  0  0
M  RAD  2   2   2   3   3
M  END
