Coordinates from ORCA-job 4-MeOPhN2+~BF4-_B3LYPG-6-31G_dp-NX-Scan-d89-09-n800
 OpenBabel11261920503D

 22 21  0  0  0  0  0  0  0  0999 V2000
   -1.3854   -1.7232    0.3646 C   0  0  0  0  0  0  0  0  0  0  0  0
   -1.5905   -2.7990    1.1490 N   0  0  0  0  0  0  0  0  0  0  0  0
   -1.7641   -3.7113    1.7865 N   0  0  0  0  0  0  0  0  0  0  0  0
   -1.6129   -1.8630   -1.0374 C   0  0  0  0  0  0  0  0  0  0  0  0
   -1.4494   -0.7610   -1.8309 C   0  0  0  0  0  0  0  0  0  0  0  0
   -1.0660    0.4887   -1.2565 C   0  0  0  0  0  0  0  0  0  0  0  0
   -1.0147    1.5075   -2.0890 O   0  0  0  0  0  0  0  0  0  0  0  0
   -0.8035    2.8527   -1.5584 C   0  0  0  0  0  0  0  0  0  0  0  0
   -0.7842    0.5919    0.1277 C   0  0  0  0  0  0  0  0  0  0  0  0
   -0.9714   -0.4932    0.9475 C   0  0  0  0  0  0  0  0  0  0  0  0
   -1.9215   -2.8179   -1.4479 H   0  0  0  0  0  0  0  0  0  0  0  0
   -1.6327   -0.8047   -2.8984 H   0  0  0  0  0  0  0  0  0  0  0  0
   -1.5187    3.0527   -0.7576 H   0  0  0  0  0  0  0  0  0  0  0  0
   -0.9491    3.5058   -2.4169 H   0  0  0  0  0  0  0  0  0  0  0  0
    0.2102    2.9461   -1.1663 H   0  0  0  0  0  0  0  0  0  0  0  0
   -0.4466    1.5244    0.5678 H   0  0  0  0  0  0  0  0  0  0  0  0
   -0.8337   -0.3664    2.0162 H   0  0  0  0  0  0  0  0  0  0  0  0
   -1.3069    3.0014    2.1568 B   0  0  0  0  0  0  0  0  0  0  0  0
   -0.1344    3.2990    1.3940 F   0  0  0  0  0  0  0  0  0  0  0  0
   -2.3734    2.8679    1.2296 F   0  0  0  0  0  0  0  0  0  0  0  0
   -1.0980    1.7394    2.7809 F   0  0  0  0  0  0  0  0  0  0  0  0
   -1.5569    3.9819    3.0851 F   0  0  0  0  0  0  0  0  0  0  0  0
  1 10  1  0  0  0  0
  1  2  1  0  0  0  0
  2  3  1  0  0  0  0
  4  1  2  0  0  0  0
  5  6  2  0  0  0  0
  5  4  1  0  0  0  0
  6  9  1  0  0  0  0
  7  8  1  0  0  0  0
  7  6  1  0  0  0  0
  8 15  1  0  0  0  0
  8 13  1  0  0  0  0
  9 16  1  0  0  0  0
  9 10  2  0  0  0  0
 10 17  1  0  0  0  0
 11  4  1  0  0  0  0
 12  5  1  0  0  0  0
 14  8  1  0  0  0  0
 18 21  1  0  0  0  0
 18 22  1  0  0  0  0
 19 18  1  0  0  0  0
 20 18  1  0  0  0  0
M  RAD  2   2   2   3   3
M  END
