Coordinates from ORCA-job 4-MeOPhN2+~BF4-_B3LYPG-6-31G_dp-NX-Scan-d89-09-n800
 OpenBabel11261920503D

 22 21  0  0  0  0  0  0  0  0999 V2000
   -1.3192   -0.6492    0.5589 C   0  0  0  0  0  0  0  0  0  0  0  0
   -1.4729   -1.4168    1.7083 N   0  0  0  0  0  0  0  0  0  0  0  0
   -1.3330   -1.3948    2.8692 N   0  0  0  0  0  0  0  0  0  0  0  0
   -1.6725   -1.2858   -0.6483 C   0  0  0  0  0  0  0  0  0  0  0  0
   -1.5538   -0.6097   -1.8447 C   0  0  0  0  0  0  0  0  0  0  0  0
   -1.0808    0.7183   -1.8545 C   0  0  0  0  0  0  0  0  0  0  0  0
   -1.0014    1.2958   -3.0686 O   0  0  0  0  0  0  0  0  0  0  0  0
   -0.5415    2.6441   -3.1698 C   0  0  0  0  0  0  0  0  0  0  0  0
   -0.7302    1.3512   -0.6473 C   0  0  0  0  0  0  0  0  0  0  0  0
   -0.8466    0.6771    0.5599 C   0  0  0  0  0  0  0  0  0  0  0  0
   -2.0372   -2.3063   -0.6182 H   0  0  0  0  0  0  0  0  0  0  0  0
   -1.8198   -1.0732   -2.7877 H   0  0  0  0  0  0  0  0  0  0  0  0
   -1.1982    3.3295   -2.6231 H   0  0  0  0  0  0  0  0  0  0  0  0
   -0.5684    2.8848   -4.2324 H   0  0  0  0  0  0  0  0  0  0  0  0
    0.4849    2.7420   -2.7993 H   0  0  0  0  0  0  0  0  0  0  0  0
   -0.3715    2.3722   -0.6386 H   0  0  0  0  0  0  0  0  0  0  0  0
   -0.5873    1.1747    1.4830 H   0  0  0  0  0  0  0  0  0  0  0  0
   -1.7883    1.2389    3.8431 B   0  0  0  0  0  0  0  0  0  0  0  0
   -0.7135    0.0045    3.3723 F   0  0  0  0  0  0  0  0  0  0  0  0
   -1.1246    2.3133    3.3316 F   0  0  0  0  0  0  0  0  0  0  0  0
   -2.9122    0.8800    3.1703 F   0  0  0  0  0  0  0  0  0  0  0  0
   -1.8157    1.1292    5.1822 F   0  0  0  0  0  0  0  0  0  0  0  0
  1 10  1  0  0  0  0
  1  2  1  0  0  0  0
  2  3  1  0  0  0  0
  3 19  1  0  0  0  0
  4 11  1  0  0  0  0
  4  1  2  0  0  0  0
  5  4  1  0  0  0  0
  6  5  2  0  0  0  0
  6  9  1  0  0  0  0
  7  6  1  0  0  0  0
  8  7  1  0  0  0  0
  8 15  1  0  0  0  0
  8 13  1  0  0  0  0
  9 16  1  0  0  0  0
  9 10  2  0  0  0  0
 10 17  1  0  0  0  0
 12  5  1  0  0  0  0
 14  8  1  0  0  0  0
 18 22  1  0  0  0  0
 20 18  1  0  0  0  0
 21 18  1  0  0  0  0
M  RAD  2   2   2   3   2
M  END
