Coordinates from ORCA-job 4-MeOPhN2+~BF4-_B3LYPG-6-31G_dp-NX-Scan-d89-09-n800
 OpenBabel11261920503D

 22 21  0  0  0  0  0  0  0  0999 V2000
   -1.2619   -1.4898    0.4543 C   0  0  0  0  0  0  0  0  0  0  0  0
   -1.4208   -2.4635    1.3721 N   0  0  0  0  0  0  0  0  0  0  0  0
   -1.5501   -3.2711    2.1438 N   0  0  0  0  0  0  0  0  0  0  0  0
   -1.6777   -1.7346   -0.8879 C   0  0  0  0  0  0  0  0  0  0  0  0
   -1.5747   -0.7090   -1.7871 C   0  0  0  0  0  0  0  0  0  0  0  0
   -1.0778    0.5635   -1.3714 C   0  0  0  0  0  0  0  0  0  0  0  0
   -1.1114    1.5155   -2.2900 O   0  0  0  0  0  0  0  0  0  0  0  0
   -0.7603    2.8726   -1.9105 C   0  0  0  0  0  0  0  0  0  0  0  0
   -0.6097    0.7593   -0.0575 C   0  0  0  0  0  0  0  0  0  0  0  0
   -0.7288   -0.2454    0.8734 C   0  0  0  0  0  0  0  0  0  0  0  0
   -2.0767   -2.7020   -1.1710 H   0  0  0  0  0  0  0  0  0  0  0  0
   -1.8986   -0.8267   -2.8146 H   0  0  0  0  0  0  0  0  0  0  0  0
   -1.2717    3.1580   -0.9879 H   0  0  0  0  0  0  0  0  0  0  0  0
   -1.0787    3.4878   -2.7506 H   0  0  0  0  0  0  0  0  0  0  0  0
    0.3234    2.9483   -1.7816 H   0  0  0  0  0  0  0  0  0  0  0  0
   -0.2573    1.7157    0.3016 H   0  0  0  0  0  0  0  0  0  0  0  0
   -0.4569   -0.0356    1.9006 H   0  0  0  0  0  0  0  0  0  0  0  0
   -1.5193    2.5135    2.4084 B   0  0  0  0  0  0  0  0  0  0  0  0
   -0.1574    2.0775    2.4574 F   0  0  0  0  0  0  0  0  0  0  0  0
   -1.7058    3.1641    1.1526 F   0  0  0  0  0  0  0  0  0  0  0  0
   -2.3308    1.3562    2.4428 F   0  0  0  0  0  0  0  0  0  0  0  0
   -1.8008    3.3653    3.4496 F   0  0  0  0  0  0  0  0  0  0  0  0
  1 10  1  0  0  0  0
  1  2  1  0  0  0  0
  2  3  1  0  0  0  0
  4  1  2  0  0  0  0
  5  6  2  0  0  0  0
  5  4  1  0  0  0  0
  6  9  1  0  0  0  0
  7  8  1  0  0  0  0
  7  6  1  0  0  0  0
  8 15  1  0  0  0  0
  8 13  1  0  0  0  0
  9 16  1  0  0  0  0
  9 10  2  0  0  0  0
 10 17  1  0  0  0  0
 11  4  1  0  0  0  0
 12  5  1  0  0  0  0
 14  8  1  0  0  0  0
 18 21  1  0  0  0  0
 18 19  1  0  0  0  0
 18 22  1  0  0  0  0
 20 18  1  0  0  0  0
M  RAD  2   2   2   3   3
M  END
