Coordinates from ORCA-job 4-MeOPhN2+~BF4-_B3LYPG-6-31G_dp-NX-Scan-d89-09-n800
 OpenBabel11261920503D

 22 21  0  0  0  0  0  0  0  0999 V2000
   -1.2528   -0.8034    0.5760 C   0  0  0  0  0  0  0  0  0  0  0  0
   -1.3407   -1.5760    1.6973 N   0  0  0  0  0  0  0  0  0  0  0  0
   -1.4122   -2.2696    2.5685 N   0  0  0  0  0  0  0  0  0  0  0  0
   -1.7918   -1.3250   -0.6261 C   0  0  0  0  0  0  0  0  0  0  0  0
   -1.7092   -0.5508   -1.7565 C   0  0  0  0  0  0  0  0  0  0  0  0
   -1.1053    0.7327   -1.6998 C   0  0  0  0  0  0  0  0  0  0  0  0
   -1.0980    1.4018   -2.8576 O   0  0  0  0  0  0  0  0  0  0  0  0
   -0.5554    2.7286   -2.9017 C   0  0  0  0  0  0  0  0  0  0  0  0
   -0.5697    1.2204   -0.4936 C   0  0  0  0  0  0  0  0  0  0  0  0
   -0.6405    0.4613    0.6606 C   0  0  0  0  0  0  0  0  0  0  0  0
   -2.2617   -2.3017   -0.6430 H   0  0  0  0  0  0  0  0  0  0  0  0
   -2.1104   -0.8918   -2.7035 H   0  0  0  0  0  0  0  0  0  0  0  0
   -1.1014    3.3952   -2.2274 H   0  0  0  0  0  0  0  0  0  0  0  0
   -0.6836    3.0596   -3.9316 H   0  0  0  0  0  0  0  0  0  0  0  0
    0.5087    2.7243   -2.6449 H   0  0  0  0  0  0  0  0  0  0  0  0
   -0.1260    2.2048   -0.4328 H   0  0  0  0  0  0  0  0  0  0  0  0
   -0.2584    0.8156    1.6174 H   0  0  0  0  0  0  0  0  0  0  0  0
   -1.7178    1.4248    3.4157 B   0  0  0  0  0  0  0  0  0  0  0  0
   -0.3206    1.1031    3.4524 F   0  0  0  0  0  0  0  0  0  0  0  0
   -1.9150    2.3269    2.3566 F   0  0  0  0  0  0  0  0  0  0  0  0
   -2.4039    0.2120    3.0987 F   0  0  0  0  0  0  0  0  0  0  0  0
   -2.1383    1.9268    4.6221 F   0  0  0  0  0  0  0  0  0  0  0  0
  1 10  1  0  0  0  0
  1  2  1  0  0  0  0
  2  3  1  0  0  0  0
  4  1  2  0  0  0  0
  5  6  2  0  0  0  0
  5  4  1  0  0  0  0
  6  9  1  0  0  0  0
  7  6  1  0  0  0  0
  8  7  1  0  0  0  0
  8 15  1  0  0  0  0
  8 13  1  0  0  0  0
  9 16  1  0  0  0  0
  9 10  2  0  0  0  0
 10 17  1  0  0  0  0
 11  4  1  0  0  0  0
 12  5  1  0  0  0  0
 14  8  1  0  0  0  0
 18 19  1  0  0  0  0
 18 22  1  0  0  0  0
 20 18  1  0  0  0  0
 21 18  1  0  0  0  0
M  RAD  2   2   2   3   3
M  END
