Coordinates from ORCA-job 4-MeOPhN2+~BF4-_B3LYPG-6-31G_dp-NX-Scan-d89-09-n800
 OpenBabel11261920503D

 22 22  0  0  0  0  0  0  0  0999 V2000
   -1.5598    0.2774    0.6879 C   0  0  0  0  0  0  0  0  0  0  0  0
   -1.9227   -0.1305    1.9960 N   0  0  0  0  0  0  0  0  0  0  0  0
   -1.4056    0.4261    3.0159 N   0  0  0  0  0  0  0  0  0  0  0  0
   -2.1576   -0.5229   -0.3102 C   0  0  0  0  0  0  0  0  0  0  0  0
   -1.9377   -0.2879   -1.6533 C   0  0  0  0  0  0  0  0  0  0  0  0
   -1.1076    0.7743   -2.0525 C   0  0  0  0  0  0  0  0  0  0  0  0
   -0.9518    0.9310   -3.3887 O   0  0  0  0  0  0  0  0  0  0  0  0
   -0.1265    1.9883   -3.8641 C   0  0  0  0  0  0  0  0  0  0  0  0
   -0.5093    1.5865   -1.0784 C   0  0  0  0  0  0  0  0  0  0  0  0
   -0.7297    1.3412    0.2760 C   0  0  0  0  0  0  0  0  0  0  0  0
   -2.7989   -1.3354    0.0147 H   0  0  0  0  0  0  0  0  0  0  0  0
   -2.3957   -0.9052   -2.4181 H   0  0  0  0  0  0  0  0  0  0  0  0
   -0.5102    2.9675   -3.5530 H   0  0  0  0  0  0  0  0  0  0  0  0
   -0.1518    1.9200   -4.9524 H   0  0  0  0  0  0  0  0  0  0  0  0
    0.9081    1.8763   -3.5178 H   0  0  0  0  0  0  0  0  0  0  0  0
    0.1302    2.4139   -1.3613 H   0  0  0  0  0  0  0  0  0  0  0  0
   -0.2456    2.0049    0.9800 H   0  0  0  0  0  0  0  0  0  0  0  0
   -1.9039   -0.0743    4.6326 B   0  0  0  0  0  0  0  0  0  0  0  0
   -0.7511    1.1405    2.9669 F   0  0  0  0  0  0  0  0  0  0  0  0
   -2.7108    0.9676    4.9988 F   0  0  0  0  0  0  0  0  0  0  0  0
   -0.6694   -0.0614    5.2320 F   0  0  0  0  0  0  0  0  0  0  0  0
   -2.4964   -1.2782    4.4954 F   0  0  0  0  0  0  0  0  0  0  0  0
  1  2  1  0  0  0  0
  2  3  1  0  0  0  0
  3 18  1  0  0  0  0
  4 11  1  0  0  0  0
  4  1  2  0  0  0  0
  5  4  1  0  0  0  0
  6  5  2  0  0  0  0
  6  9  1  0  0  0  0
  7  6  1  0  0  0  0
  8 13  1  0  0  0  0
  8 15  1  0  0  0  0
  8  7  1  0  0  0  0
  9 10  2  0  0  0  0
 10  1  1  0  0  0  0
 10 17  1  0  0  0  0
 12  5  1  0  0  0  0
 14  8  1  0  0  0  0
 16  9  1  0  0  0  0
 18 20  1  0  0  0  0
 18 21  1  0  0  0  0
 19  3  1  0  0  0  0
 22 18  1  0  0  0  0
M  RAD  1   2   2
M  END
