Coordinates from ORCA-job 4-MeOPhN2+~BF4-_B3LYPG-6-31G_dp-NX-Scan-d89-09-n800
 OpenBabel11261920503D

 22 21  0  0  0  0  0  0  0  0999 V2000
   -1.5133   -0.7439    0.3589 C   0  0  0  0  0  0  0  0  0  0  0  0
   -1.8676   -1.6152    1.4364 N   0  0  0  0  0  0  0  0  0  0  0  0
   -1.5732   -1.3434    2.6376 N   0  0  0  0  0  0  0  0  0  0  0  0
   -1.5561   -1.3830   -0.8974 C   0  0  0  0  0  0  0  0  0  0  0  0
   -1.2768   -0.7032   -2.0693 C   0  0  0  0  0  0  0  0  0  0  0  0
   -0.9672    0.6660   -2.0272 C   0  0  0  0  0  0  0  0  0  0  0  0
   -0.7153    1.2541   -3.2283 O   0  0  0  0  0  0  0  0  0  0  0  0
   -0.4272    2.6442   -3.2543 C   0  0  0  0  0  0  0  0  0  0  0  0
   -0.9434    1.3278   -0.7936 C   0  0  0  0  0  0  0  0  0  0  0  0
   -1.2059    0.6302    0.3875 C   0  0  0  0  0  0  0  0  0  0  0  0
   -1.8181   -2.4356   -0.9177 H   0  0  0  0  0  0  0  0  0  0  0  0
   -1.3029   -1.2012   -3.0328 H   0  0  0  0  0  0  0  0  0  0  0  0
   -1.2611    3.2369   -2.8569 H   0  0  0  0  0  0  0  0  0  0  0  0
   -0.2731    2.8997   -4.3034 H   0  0  0  0  0  0  0  0  0  0  0  0
    0.4834    2.8798   -2.6888 H   0  0  0  0  0  0  0  0  0  0  0  0
   -0.7166    2.3854   -0.7341 H   0  0  0  0  0  0  0  0  0  0  0  0
   -1.1864    1.1910    1.3124 H   0  0  0  0  0  0  0  0  0  0  0  0
   -1.7113    1.6932    4.7475 B   0  0  0  0  0  0  0  0  0  0  0  0
   -1.0469   -0.4465    2.8440 F   0  0  0  0  0  0  0  0  0  0  0  0
   -1.1811    2.2591    3.6751 F   0  0  0  0  0  0  0  0  0  0  0  0
   -2.8453    1.0333    4.6429 F   0  0  0  0  0  0  0  0  0  0  0  0
   -1.0983    1.7909    5.9081 F   0  0  0  0  0  0  0  0  0  0  0  0
  1 10  1  0  0  0  0
  1  2  1  0  0  0  0
  2  3  2  0  0  0  0
  3 19  1  0  0  0  0
  4  1  2  0  0  0  0
  5  6  2  0  0  0  0
  5  4  1  0  0  0  0
  6  9  1  0  0  0  0
  7  6  1  0  0  0  0
  8  7  1  0  0  0  0
  8 13  1  0  0  0  0
  8 15  1  0  0  0  0
  9 16  1  0  0  0  0
  9 10  2  0  0  0  0
 10 17  1  0  0  0  0
 11  4  1  0  0  0  0
 12  5  1  0  0  0  0
 14  8  1  0  0  0  0
 18 22  1  0  0  0  0
 20 18  1  0  0  0  0
 21 18  1  0  0  0  0
M  END
