Coordinates from ORCA-job 4-MeOPhN2+~BF4-_B3LYPG-6-31G_dp-NX-Scan-d89-09-n800
 OpenBabel11261920503D

 22 21  0  0  0  0  0  0  0  0999 V2000
   -1.2543   -0.8537    0.5636 C   0  0  0  0  0  0  0  0  0  0  0  0
   -1.3433   -1.6325    1.6786 N   0  0  0  0  0  0  0  0  0  0  0  0
   -1.4077   -2.3051    2.5670 N   0  0  0  0  0  0  0  0  0  0  0  0
   -1.8116   -1.3444   -0.6434 C   0  0  0  0  0  0  0  0  0  0  0  0
   -1.7295   -0.5467   -1.7569 C   0  0  0  0  0  0  0  0  0  0  0  0
   -1.1103    0.7294   -1.6782 C   0  0  0  0  0  0  0  0  0  0  0  0
   -1.1081    1.4233   -2.8211 O   0  0  0  0  0  0  0  0  0  0  0  0
   -0.5550    2.7466   -2.8404 C   0  0  0  0  0  0  0  0  0  0  0  0
   -0.5571    1.1857   -0.4683 C   0  0  0  0  0  0  0  0  0  0  0  0
   -0.6265    0.4023    0.6692 C   0  0  0  0  0  0  0  0  0  0  0  0
   -2.2944   -2.3143   -0.6762 H   0  0  0  0  0  0  0  0  0  0  0  0
   -2.1437   -0.8613   -2.7075 H   0  0  0  0  0  0  0  0  0  0  0  0
   -1.0869    3.4008   -2.1432 H   0  0  0  0  0  0  0  0  0  0  0  0
   -0.6934    3.1033   -3.8605 H   0  0  0  0  0  0  0  0  0  0  0  0
    0.5122    2.7274   -2.5974 H   0  0  0  0  0  0  0  0  0  0  0  0
   -0.1050    2.1649   -0.3888 H   0  0  0  0  0  0  0  0  0  0  0  0
   -0.2329    0.7317    1.6311 H   0  0  0  0  0  0  0  0  0  0  0  0
   -1.7101    1.4791    3.3493 B   0  0  0  0  0  0  0  0  0  0  0  0
   -0.2883    1.3129    3.3810 F   0  0  0  0  0  0  0  0  0  0  0  0
   -2.0243    2.2449    2.2117 F   0  0  0  0  0  0  0  0  0  0  0  0
   -2.2666    0.1748    3.1666 F   0  0  0  0  0  0  0  0  0  0  0  0
   -2.1670    2.0507    4.5103 F   0  0  0  0  0  0  0  0  0  0  0  0
  1 10  1  0  0  0  0
  1  2  1  0  0  0  0
  2  3  1  0  0  0  0
  4  1  2  0  0  0  0
  5  6  2  0  0  0  0
  5  4  1  0  0  0  0
  6  9  1  0  0  0  0
  7  6  1  0  0  0  0
  8  7  1  0  0  0  0
  8 15  1  0  0  0  0
  8 13  1  0  0  0  0
  9 16  1  0  0  0  0
  9 10  2  0  0  0  0
 10 17  1  0  0  0  0
 11  4  1  0  0  0  0
 12  5  1  0  0  0  0
 14  8  1  0  0  0  0
 18 19  1  0  0  0  0
 18 22  1  0  0  0  0
 20 18  1  0  0  0  0
 21 18  1  0  0  0  0
M  RAD  2   2   2   3   3
M  END
