Coordinates from ORCA-job 4-MeOPhN2+~BF4-_B3LYPG-6-31G_dp-NX-Scan-d89-09-n800
 OpenBabel11261920503D

 22 21  0  0  0  0  0  0  0  0999 V2000
   -1.3053   -0.5391    0.5550 C   0  0  0  0  0  0  0  0  0  0  0  0
   -1.4110   -1.2072    1.7494 N   0  0  0  0  0  0  0  0  0  0  0  0
   -1.4700   -1.7018    2.7550 N   0  0  0  0  0  0  0  0  0  0  0  0
   -1.5954   -1.2563   -0.6267 C   0  0  0  0  0  0  0  0  0  0  0  0
   -1.4874   -0.6047   -1.8340 C   0  0  0  0  0  0  0  0  0  0  0  0
   -1.0857    0.7513   -1.8738 C   0  0  0  0  0  0  0  0  0  0  0  0
   -1.0141    1.2880   -3.1006 O   0  0  0  0  0  0  0  0  0  0  0  0
   -0.6275    2.6588   -3.2464 C   0  0  0  0  0  0  0  0  0  0  0  0
   -0.7901    1.4427   -0.6832 C   0  0  0  0  0  0  0  0  0  0  0  0
   -0.9015    0.8088    0.5438 C   0  0  0  0  0  0  0  0  0  0  0  0
   -1.9040   -2.2943   -0.5749 H   0  0  0  0  0  0  0  0  0  0  0  0
   -1.7066   -1.1078   -2.7684 H   0  0  0  0  0  0  0  0  0  0  0  0
   -1.3314    3.3223   -2.7336 H   0  0  0  0  0  0  0  0  0  0  0  0
   -0.6522    2.8563   -4.3175 H   0  0  0  0  0  0  0  0  0  0  0  0
    0.3857    2.8241   -2.8656 H   0  0  0  0  0  0  0  0  0  0  0  0
   -0.4787    2.4787   -0.7040 H   0  0  0  0  0  0  0  0  0  0  0  0
   -0.6847    1.3181    1.4805 H   0  0  0  0  0  0  0  0  0  0  0  0
   -1.6046    1.0317    3.9024 B   0  0  0  0  0  0  0  0  0  0  0  0
   -1.2401   -0.3156    4.2770 F   0  0  0  0  0  0  0  0  0  0  0  0
   -0.4497    1.6391    3.3550 F   0  0  0  0  0  0  0  0  0  0  0  0
   -2.5651    0.9120    2.8723 F   0  0  0  0  0  0  0  0  0  0  0  0
   -2.0846    1.7146    4.9847 F   0  0  0  0  0  0  0  0  0  0  0  0
  1  2  1  0  0  0  0
  2  3  1  0  0  0  0
  4 11  1  0  0  0  0
  4  1  2  0  0  0  0
  5  4  1  0  0  0  0
  6  5  2  0  0  0  0
  6  9  1  0  0  0  0
  7  6  1  0  0  0  0
  8  7  1  0  0  0  0
  8 15  1  0  0  0  0
  8 13  1  0  0  0  0
  9 10  2  0  0  0  0
 10  1  1  0  0  0  0
 10 17  1  0  0  0  0
 12  5  1  0  0  0  0
 14  8  1  0  0  0  0
 16  9  1  0  0  0  0
 18 19  1  0  0  0  0
 18 22  1  0  0  0  0
 20 18  1  0  0  0  0
 21 18  1  0  0  0  0
M  RAD  2   2   2   3   3
M  END
