Coordinates from ORCA-job 4-MeOPhN2+~BF4-_B3LYPG-6-31G_dp-NX-Scan-d89-09-n800
 OpenBabel11261920503D

 22 21  0  0  0  0  0  0  0  0999 V2000
   -1.3715   -1.6832    0.3683 C   0  0  0  0  0  0  0  0  0  0  0  0
   -1.5829   -2.7293    1.1882 N   0  0  0  0  0  0  0  0  0  0  0  0
   -1.7537   -3.5982    1.8831 N   0  0  0  0  0  0  0  0  0  0  0  0
   -1.6364   -1.8358   -1.0247 C   0  0  0  0  0  0  0  0  0  0  0  0
   -1.4726   -0.7439   -1.8330 C   0  0  0  0  0  0  0  0  0  0  0  0
   -1.0556    0.5042   -1.2791 C   0  0  0  0  0  0  0  0  0  0  0  0
   -1.0173    1.5201   -2.1181 O   0  0  0  0  0  0  0  0  0  0  0  0
   -0.7807    2.8620   -1.5937 C   0  0  0  0  0  0  0  0  0  0  0  0
   -0.7308    0.6141    0.0933 C   0  0  0  0  0  0  0  0  0  0  0  0
   -0.9185   -0.4582    0.9282 C   0  0  0  0  0  0  0  0  0  0  0  0
   -1.9736   -2.7886   -1.4170 H   0  0  0  0  0  0  0  0  0  0  0  0
   -1.6852   -0.7935   -2.8947 H   0  0  0  0  0  0  0  0  0  0  0  0
   -1.4617    3.0626   -0.7635 H   0  0  0  0  0  0  0  0  0  0  0  0
   -0.9606    3.5192   -2.4425 H   0  0  0  0  0  0  0  0  0  0  0  0
    0.2511    2.9515   -1.2488 H   0  0  0  0  0  0  0  0  0  0  0  0
   -0.3760    1.5471    0.5228 H   0  0  0  0  0  0  0  0  0  0  0  0
   -0.7655   -0.3226    1.9936 H   0  0  0  0  0  0  0  0  0  0  0  0
   -1.3577    2.9011    2.1846 B   0  0  0  0  0  0  0  0  0  0  0  0
   -0.1417    3.1575    1.4723 F   0  0  0  0  0  0  0  0  0  0  0  0
   -2.3799    2.7759    1.2079 F   0  0  0  0  0  0  0  0  0  0  0  0
   -1.2058    1.6501    2.8410 F   0  0  0  0  0  0  0  0  0  0  0  0
   -1.6274    3.9077    3.0782 F   0  0  0  0  0  0  0  0  0  0  0  0
  1 10  1  0  0  0  0
  1  2  1  0  0  0  0
  2  3  1  0  0  0  0
  4  1  2  0  0  0  0
  5  6  2  0  0  0  0
  5  4  1  0  0  0  0
  6  9  1  0  0  0  0
  7  8  1  0  0  0  0
  7  6  1  0  0  0  0
  8 15  1  0  0  0  0
  8 13  1  0  0  0  0
  9 16  1  0  0  0  0
  9 10  2  0  0  0  0
 10 17  1  0  0  0  0
 11  4  1  0  0  0  0
 12  5  1  0  0  0  0
 14  8  1  0  0  0  0
 18 21  1  0  0  0  0
 18 22  1  0  0  0  0
 19 18  1  0  0  0  0
 20 18  1  0  0  0  0
M  RAD  2   2   2   3   3
M  END
