Coordinates from ORCA-job 4-MeOPhN2+~BF4-_B3LYPG-6-31G_dp-NX-Scan-d89-09-n800
 OpenBabel11261920503D

 22 21  0  0  0  0  0  0  0  0999 V2000
   -1.2327   -1.4678    0.4371 C   0  0  0  0  0  0  0  0  0  0  0  0
   -1.3646   -2.4007    1.4015 N   0  0  0  0  0  0  0  0  0  0  0  0
   -1.4581   -3.1322    2.2488 N   0  0  0  0  0  0  0  0  0  0  0  0
   -1.6352   -1.7539   -0.8991 C   0  0  0  0  0  0  0  0  0  0  0  0
   -1.5621   -0.7383   -1.8146 C   0  0  0  0  0  0  0  0  0  0  0  0
   -1.1120    0.5574   -1.4167 C   0  0  0  0  0  0  0  0  0  0  0  0
   -1.1741    1.4982   -2.3491 O   0  0  0  0  0  0  0  0  0  0  0  0
   -0.8342    2.8604   -1.9881 C   0  0  0  0  0  0  0  0  0  0  0  0
   -0.6624    0.7935   -0.1050 C   0  0  0  0  0  0  0  0  0  0  0  0
   -0.7449   -0.2030    0.8386 C   0  0  0  0  0  0  0  0  0  0  0  0
   -2.0005   -2.7384   -1.1682 H   0  0  0  0  0  0  0  0  0  0  0  0
   -1.8754   -0.8840   -2.8419 H   0  0  0  0  0  0  0  0  0  0  0  0
   -1.3313    3.1571   -1.0615 H   0  0  0  0  0  0  0  0  0  0  0  0
   -1.1709    3.4668   -2.8274 H   0  0  0  0  0  0  0  0  0  0  0  0
    0.2495    2.9509   -1.8700 H   0  0  0  0  0  0  0  0  0  0  0  0
   -0.3661    1.7774    0.2415 H   0  0  0  0  0  0  0  0  0  0  0  0
   -0.4900    0.0372    1.8685 H   0  0  0  0  0  0  0  0  0  0  0  0
   -1.4688    2.4644    2.5150 B   0  0  0  0  0  0  0  0  0  0  0  0
   -0.3762    1.6270    2.9088 F   0  0  0  0  0  0  0  0  0  0  0  0
   -1.0333    3.2298    1.3826 F   0  0  0  0  0  0  0  0  0  0  0  0
   -2.5187    1.6231    2.1019 F   0  0  0  0  0  0  0  0  0  0  0  0
   -1.8418    3.2947    3.5439 F   0  0  0  0  0  0  0  0  0  0  0  0
  1 10  1  0  0  0  0
  1  2  1  0  0  0  0
  2  3  1  0  0  0  0
  4  1  2  0  0  0  0
  5  6  2  0  0  0  0
  5  4  1  0  0  0  0
  6  9  1  0  0  0  0
  7  8  1  0  0  0  0
  7  6  1  0  0  0  0
  8 15  1  0  0  0  0
  8 13  1  0  0  0  0
  9 16  1  0  0  0  0
  9 10  2  0  0  0  0
 10 17  1  0  0  0  0
 11  4  1  0  0  0  0
 12  5  1  0  0  0  0
 14  8  1  0  0  0  0
 18 19  1  0  0  0  0
 18 22  1  0  0  0  0
 20 18  1  0  0  0  0
 21 18  1  0  0  0  0
M  RAD  2   2   2   3   3
M  END
