Coordinates from ORCA-job 4-MeOPhN2+~BF4-_B3LYPG-6-31G_dp-NX-Scan-d89-09-n800
 OpenBabel11261920503D

 22 21  0  0  0  0  0  0  0  0999 V2000
   -1.2417   -1.2999    0.4495 C   0  0  0  0  0  0  0  0  0  0  0  0
   -1.3299   -2.1826    1.4707 N   0  0  0  0  0  0  0  0  0  0  0  0
   -1.3939   -2.8742    2.3520 N   0  0  0  0  0  0  0  0  0  0  0  0
   -1.5946   -1.6984   -0.8699 C   0  0  0  0  0  0  0  0  0  0  0  0
   -1.5346   -0.7453   -1.8507 C   0  0  0  0  0  0  0  0  0  0  0  0
   -1.1512    0.5929   -1.5352 C   0  0  0  0  0  0  0  0  0  0  0  0
   -1.1649    1.4361   -2.5652 O   0  0  0  0  0  0  0  0  0  0  0  0
   -0.8428    2.8218   -2.3378 C   0  0  0  0  0  0  0  0  0  0  0  0
   -0.8009    0.9567   -0.2238 C   0  0  0  0  0  0  0  0  0  0  0  0
   -0.8410    0.0134    0.7826 C   0  0  0  0  0  0  0  0  0  0  0  0
   -1.9050   -2.7154   -1.0806 H   0  0  0  0  0  0  0  0  0  0  0  0
   -1.7950   -0.9771   -2.8770 H   0  0  0  0  0  0  0  0  0  0  0  0
   -1.5302    3.2643   -1.6120 H   0  0  0  0  0  0  0  0  0  0  0  0
   -0.9552    3.3046   -3.3073 H   0  0  0  0  0  0  0  0  0  0  0  0
    0.1873    2.9247   -1.9850 H   0  0  0  0  0  0  0  0  0  0  0  0
   -0.5560    1.9682    0.0799 H   0  0  0  0  0  0  0  0  0  0  0  0
   -0.5964    0.2812    1.8139 H   0  0  0  0  0  0  0  0  0  0  0  0
   -1.4103    2.2172    2.9092 B   0  0  0  0  0  0  0  0  0  0  0  0
   -0.5808    1.1412    3.3808 F   0  0  0  0  0  0  0  0  0  0  0  0
   -0.6675    2.9185    1.9197 F   0  0  0  0  0  0  0  0  0  0  0  0
   -2.5310    1.6275    2.2870 F   0  0  0  0  0  0  0  0  0  0  0  0
   -1.7681    3.0441    3.9455 F   0  0  0  0  0  0  0  0  0  0  0  0
  1 10  1  0  0  0  0
  1  2  1  0  0  0  0
  2  3  1  0  0  0  0
  4  1  2  0  0  0  0
  5  6  2  0  0  0  0
  5  4  1  0  0  0  0
  6  9  1  0  0  0  0
  7  8  1  0  0  0  0
  7  6  1  0  0  0  0
  8 15  1  0  0  0  0
  8 13  1  0  0  0  0
  9 16  1  0  0  0  0
  9 10  2  0  0  0  0
 10 17  1  0  0  0  0
 11  4  1  0  0  0  0
 12  5  1  0  0  0  0
 14  8  1  0  0  0  0
 18 19  1  0  0  0  0
 18 22  1  0  0  0  0
 20 18  1  0  0  0  0
 21 18  1  0  0  0  0
M  RAD  2   2   2   3   3
M  END
