Coordinates from ORCA-job 4-MeOPhN2+~BF4-_B3LYPG-6-31G_dp-NX-Scan-d89-09-n800
 OpenBabel11261920503D

 22 21  0  0  0  0  0  0  0  0999 V2000
   -1.3959   -1.7602    0.3532 C   0  0  0  0  0  0  0  0  0  0  0  0
   -1.5946   -2.8535    1.1156 N   0  0  0  0  0  0  0  0  0  0  0  0
   -1.7651   -3.7864    1.7239 N   0  0  0  0  0  0  0  0  0  0  0  0
   -1.5723   -1.8943   -1.0573 C   0  0  0  0  0  0  0  0  0  0  0  0
   -1.4131   -0.7837   -1.8391 C   0  0  0  0  0  0  0  0  0  0  0  0
   -1.0829    0.4727   -1.2461 C   0  0  0  0  0  0  0  0  0  0  0  0
   -1.0224    1.4952   -2.0713 O   0  0  0  0  0  0  0  0  0  0  0  0
   -0.8366    2.8426   -1.5339 C   0  0  0  0  0  0  0  0  0  0  0  0
   -0.8581    0.5744    0.1492 C   0  0  0  0  0  0  0  0  0  0  0  0
   -1.0384   -0.5214    0.9561 C   0  0  0  0  0  0  0  0  0  0  0  0
   -1.8388   -2.8549   -1.4839 H   0  0  0  0  0  0  0  0  0  0  0  0
   -1.5562   -0.8269   -2.9129 H   0  0  0  0  0  0  0  0  0  0  0  0
   -1.5829    3.0452   -0.7625 H   0  0  0  0  0  0  0  0  0  0  0  0
   -0.9483    3.4927   -2.3995 H   0  0  0  0  0  0  0  0  0  0  0  0
    0.1572    2.9389   -1.0955 H   0  0  0  0  0  0  0  0  0  0  0  0
   -0.5671    1.5104    0.6102 H   0  0  0  0  0  0  0  0  0  0  0  0
   -0.9292   -0.3963    2.0286 H   0  0  0  0  0  0  0  0  0  0  0  0
   -1.2421    3.0899    2.1490 B   0  0  0  0  0  0  0  0  0  0  0  0
   -0.0946    3.3800    1.3503 F   0  0  0  0  0  0  0  0  0  0  0  0
   -2.3464    2.9879    1.2632 F   0  0  0  0  0  0  0  0  0  0  0  0
   -1.0347    1.8112    2.7443 F   0  0  0  0  0  0  0  0  0  0  0  0
   -1.4412    4.0563    3.1048 F   0  0  0  0  0  0  0  0  0  0  0  0
  1 10  1  0  0  0  0
  1  2  1  0  0  0  0
  2  3  1  0  0  0  0
  4  1  2  0  0  0  0
  5  6  2  0  0  0  0
  5  4  1  0  0  0  0
  6  9  1  0  0  0  0
  7  8  1  0  0  0  0
  7  6  1  0  0  0  0
  8 15  1  0  0  0  0
  8 13  1  0  0  0  0
  9 16  1  0  0  0  0
  9 10  2  0  0  0  0
 10 17  1  0  0  0  0
 11  4  1  0  0  0  0
 12  5  1  0  0  0  0
 14  8  1  0  0  0  0
 18 21  1  0  0  0  0
 18 22  1  0  0  0  0
 19 18  1  0  0  0  0
 20 18  1  0  0  0  0
M  RAD  2   2   2   3   3
M  END
