Coordinates from ORCA-job 4-MeOPhN2+~BF4-_B3LYPG-6-31G_dp-NX-Scan-d89-09-n800
 OpenBabel11261920503D

 22 21  0  0  0  0  0  0  0  0999 V2000
   -1.2498   -0.8200    0.5733 C   0  0  0  0  0  0  0  0  0  0  0  0
   -1.3223   -1.6001    1.6895 N   0  0  0  0  0  0  0  0  0  0  0  0
   -1.3767   -2.2851    2.5688 N   0  0  0  0  0  0  0  0  0  0  0  0
   -1.8119   -1.3225   -0.6266 C   0  0  0  0  0  0  0  0  0  0  0  0
   -1.7349   -0.5370   -1.7493 C   0  0  0  0  0  0  0  0  0  0  0  0
   -1.1123    0.7379   -1.6878 C   0  0  0  0  0  0  0  0  0  0  0  0
   -1.1092    1.4175   -2.8396 O   0  0  0  0  0  0  0  0  0  0  0  0
   -0.5458    2.7358   -2.8778 C   0  0  0  0  0  0  0  0  0  0  0  0
   -0.5560    1.2072   -0.4844 C   0  0  0  0  0  0  0  0  0  0  0  0
   -0.6232    0.4376    0.6632 C   0  0  0  0  0  0  0  0  0  0  0  0
   -2.2939   -2.2931   -0.6473 H   0  0  0  0  0  0  0  0  0  0  0  0
   -2.1532   -0.8622   -2.6945 H   0  0  0  0  0  0  0  0  0  0  0  0
   -1.0725    3.4045   -2.1904 H   0  0  0  0  0  0  0  0  0  0  0  0
   -0.6810    3.0789   -3.9028 H   0  0  0  0  0  0  0  0  0  0  0  0
    0.5212    2.7117   -2.6340 H   0  0  0  0  0  0  0  0  0  0  0  0
   -0.1009    2.1861   -0.4189 H   0  0  0  0  0  0  0  0  0  0  0  0
   -0.2281    0.7799    1.6194 H   0  0  0  0  0  0  0  0  0  0  0  0
   -1.7291    1.4347    3.3830 B   0  0  0  0  0  0  0  0  0  0  0  0
   -0.3143    1.2129    3.4200 F   0  0  0  0  0  0  0  0  0  0  0  0
   -2.0050    2.2364    2.2604 F   0  0  0  0  0  0  0  0  0  0  0  0
   -2.3344    0.1583    3.1692 F   0  0  0  0  0  0  0  0  0  0  0  0
   -2.1704    2.0002    4.5531 F   0  0  0  0  0  0  0  0  0  0  0  0
  1 10  1  0  0  0  0
  1  2  1  0  0  0  0
  2  3  1  0  0  0  0
  4  1  2  0  0  0  0
  5  6  2  0  0  0  0
  5  4  1  0  0  0  0
  6  9  1  0  0  0  0
  7  6  1  0  0  0  0
  8  7  1  0  0  0  0
  8 15  1  0  0  0  0
  8 13  1  0  0  0  0
  9 16  1  0  0  0  0
  9 10  2  0  0  0  0
 10 17  1  0  0  0  0
 11  4  1  0  0  0  0
 12  5  1  0  0  0  0
 14  8  1  0  0  0  0
 18 19  1  0  0  0  0
 18 22  1  0  0  0  0
 20 18  1  0  0  0  0
 21 18  1  0  0  0  0
M  RAD  2   2   2   3   3
M  END
