Coordinates from ORCA-job 4-MeOPhN2+~BF4-_B3LYPG-6-31G_dp-NX-Scan-d89-09-n800
 OpenBabel11261920503D

 22 21  0  0  0  0  0  0  0  0999 V2000
   -1.2240   -1.2563    0.4681 C   0  0  0  0  0  0  0  0  0  0  0  0
   -1.3156   -2.1212    1.5040 N   0  0  0  0  0  0  0  0  0  0  0  0
   -1.3853   -2.8053    2.3903 N   0  0  0  0  0  0  0  0  0  0  0  0
   -1.6255   -1.6623   -0.8350 C   0  0  0  0  0  0  0  0  0  0  0  0
   -1.5693   -0.7242   -1.8306 C   0  0  0  0  0  0  0  0  0  0  0  0
   -1.1455    0.6083   -1.5439 C   0  0  0  0  0  0  0  0  0  0  0  0
   -1.1733    1.4395   -2.5841 O   0  0  0  0  0  0  0  0  0  0  0  0
   -0.8232    2.8218   -2.3834 C   0  0  0  0  0  0  0  0  0  0  0  0
   -0.7462    0.9785   -0.2489 C   0  0  0  0  0  0  0  0  0  0  0  0
   -0.7799    0.0492    0.7707 C   0  0  0  0  0  0  0  0  0  0  0  0
   -1.9696   -2.6730   -1.0219 H   0  0  0  0  0  0  0  0  0  0  0  0
   -1.8661   -0.9623   -2.8454 H   0  0  0  0  0  0  0  0  0  0  0  0
   -1.4824    3.2838   -1.6436 H   0  0  0  0  0  0  0  0  0  0  0  0
   -0.9567    3.2952   -3.3550 H   0  0  0  0  0  0  0  0  0  0  0  0
    0.2185    2.9131   -2.0628 H   0  0  0  0  0  0  0  0  0  0  0  0
   -0.4783    1.9891    0.0339 H   0  0  0  0  0  0  0  0  0  0  0  0
   -0.4995    0.3178    1.7909 H   0  0  0  0  0  0  0  0  0  0  0  0
   -1.4557    2.1327    2.9297 B   0  0  0  0  0  0  0  0  0  0  0  0
   -0.5869    1.0976    3.4175 F   0  0  0  0  0  0  0  0  0  0  0  0
   -0.7273    2.8661    1.9541 F   0  0  0  0  0  0  0  0  0  0  0  0
   -2.5369    1.4892    2.2857 F   0  0  0  0  0  0  0  0  0  0  0  0
   -1.8750    2.9424    3.9564 F   0  0  0  0  0  0  0  0  0  0  0  0
  1 10  1  0  0  0  0
  1  2  1  0  0  0  0
  2  3  1  0  0  0  0
  4  1  2  0  0  0  0
  5  6  2  0  0  0  0
  5  4  1  0  0  0  0
  6  9  1  0  0  0  0
  7  8  1  0  0  0  0
  7  6  1  0  0  0  0
  8 15  1  0  0  0  0
  8 13  1  0  0  0  0
  9 16  1  0  0  0  0
  9 10  2  0  0  0  0
 10 17  1  0  0  0  0
 11  4  1  0  0  0  0
 12  5  1  0  0  0  0
 14  8  1  0  0  0  0
 18 19  1  0  0  0  0
 18 22  1  0  0  0  0
 20 18  1  0  0  0  0
 21 18  1  0  0  0  0
M  RAD  2   2   2   3   3
M  END
