Coordinates from ORCA-job 4-MeOPhN2+~BF4-_B3LYPG-6-31G_dp-NX-Scan-d89-09-n800
 OpenBabel11261920503D

 22 21  0  0  0  0  0  0  0  0999 V2000
   -1.3310   -1.5912    0.3914 C   0  0  0  0  0  0  0  0  0  0  0  0
   -1.5400   -2.5868    1.2729 N   0  0  0  0  0  0  0  0  0  0  0  0
   -1.7022   -3.3954    2.0375 N   0  0  0  0  0  0  0  0  0  0  0  0
   -1.6630   -1.7868   -0.9809 C   0  0  0  0  0  0  0  0  0  0  0  0
   -1.5131   -0.7254   -1.8322 C   0  0  0  0  0  0  0  0  0  0  0  0
   -1.0481    0.5307   -1.3382 C   0  0  0  0  0  0  0  0  0  0  0  0
   -1.0434    1.5250   -2.2080 O   0  0  0  0  0  0  0  0  0  0  0  0
   -0.7578    2.8706   -1.7307 C   0  0  0  0  0  0  0  0  0  0  0  0
   -0.6480    0.6755    0.0072 C   0  0  0  0  0  0  0  0  0  0  0  0
   -0.8213   -0.3634    0.8874 C   0  0  0  0  0  0  0  0  0  0  0  0
   -2.0395   -2.7436   -1.3245 H   0  0  0  0  0  0  0  0  0  0  0  0
   -1.7782   -0.8034   -2.8803 H   0  0  0  0  0  0  0  0  0  0  0  0
   -1.3538    3.0879   -0.8401 H   0  0  0  0  0  0  0  0  0  0  0  0
   -1.0236    3.5208   -2.5627 H   0  0  0  0  0  0  0  0  0  0  0  0
    0.3080    2.9633   -1.5059 H   0  0  0  0  0  0  0  0  0  0  0  0
   -0.2776    1.6112    0.4151 H   0  0  0  0  0  0  0  0  0  0  0  0
   -0.6448   -0.1944    1.9443 H   0  0  0  0  0  0  0  0  0  0  0  0
   -1.4392    2.7079    2.3033 B   0  0  0  0  0  0  0  0  0  0  0  0
   -0.0799    2.7693    1.8678 F   0  0  0  0  0  0  0  0  0  0  0  0
   -2.2514    2.7958    1.1394 F   0  0  0  0  0  0  0  0  0  0  0  0
   -1.6364    1.4318    2.8954 F   0  0  0  0  0  0  0  0  0  0  0  0
   -1.7195    3.7203    3.1881 F   0  0  0  0  0  0  0  0  0  0  0  0
  1 10  1  0  0  0  0
  1  2  1  0  0  0  0
  2  3  1  0  0  0  0
  4  1  2  0  0  0  0
  5  6  2  0  0  0  0
  5  4  1  0  0  0  0
  6  9  1  0  0  0  0
  7  8  1  0  0  0  0
  7  6  1  0  0  0  0
  8 15  1  0  0  0  0
  8 13  1  0  0  0  0
  9 16  1  0  0  0  0
  9 10  2  0  0  0  0
 10 17  1  0  0  0  0
 11  4  1  0  0  0  0
 12  5  1  0  0  0  0
 14  8  1  0  0  0  0
 18 21  1  0  0  0  0
 18 22  1  0  0  0  0
 19 18  1  0  0  0  0
 20 18  1  0  0  0  0
M  RAD  2   2   2   3   3
M  END
