Coordinates from ORCA-job 4-MeOPhN2+~BF4-_B3LYPG-6-31G_dp-NX-Scan-d89-09-n800
 OpenBabel11261920503D

 22 21  0  0  0  0  0  0  0  0999 V2000
   -1.2567   -1.4731    0.4565 C   0  0  0  0  0  0  0  0  0  0  0  0
   -1.4210   -2.4305    1.3904 N   0  0  0  0  0  0  0  0  0  0  0  0
   -1.5506   -3.2150    2.1852 N   0  0  0  0  0  0  0  0  0  0  0  0
   -1.6809   -1.7255   -0.8811 C   0  0  0  0  0  0  0  0  0  0  0  0
   -1.5768   -0.7059   -1.7873 C   0  0  0  0  0  0  0  0  0  0  0  0
   -1.0734    0.5674   -1.3818 C   0  0  0  0  0  0  0  0  0  0  0  0
   -1.1125    1.5159   -2.3046 O   0  0  0  0  0  0  0  0  0  0  0  0
   -0.7627    2.8741   -1.9298 C   0  0  0  0  0  0  0  0  0  0  0  0
   -0.5953    0.7686   -0.0728 C   0  0  0  0  0  0  0  0  0  0  0  0
   -0.7136   -0.2302    0.8644 C   0  0  0  0  0  0  0  0  0  0  0  0
   -2.0875   -2.6921   -1.1558 H   0  0  0  0  0  0  0  0  0  0  0  0
   -1.9070   -0.8281   -2.8123 H   0  0  0  0  0  0  0  0  0  0  0  0
   -1.2712    3.1606   -1.0060 H   0  0  0  0  0  0  0  0  0  0  0  0
   -1.0859    3.4874   -2.7696 H   0  0  0  0  0  0  0  0  0  0  0  0
    0.3212    2.9532   -1.8048 H   0  0  0  0  0  0  0  0  0  0  0  0
   -0.2428    1.7276    0.2789 H   0  0  0  0  0  0  0  0  0  0  0  0
   -0.4352   -0.0143    1.8891 H   0  0  0  0  0  0  0  0  0  0  0  0
   -1.5276    2.4742    2.4230 B   0  0  0  0  0  0  0  0  0  0  0  0
   -0.1790    2.0034    2.5133 F   0  0  0  0  0  0  0  0  0  0  0  0
   -1.6539    3.1506    1.1733 F   0  0  0  0  0  0  0  0  0  0  0  0
   -2.3660    1.3360    2.4099 F   0  0  0  0  0  0  0  0  0  0  0  0
   -1.8254    3.3154    3.4683 F   0  0  0  0  0  0  0  0  0  0  0  0
  1 10  1  0  0  0  0
  1  2  1  0  0  0  0
  2  3  1  0  0  0  0
  4  1  2  0  0  0  0
  5  6  2  0  0  0  0
  5  4  1  0  0  0  0
  6  9  1  0  0  0  0
  7  8  1  0  0  0  0
  7  6  1  0  0  0  0
  8 15  1  0  0  0  0
  8 13  1  0  0  0  0
  9 16  1  0  0  0  0
  9 10  2  0  0  0  0
 10 17  1  0  0  0  0
 11  4  1  0  0  0  0
 12  5  1  0  0  0  0
 14  8  1  0  0  0  0
 18 19  1  0  0  0  0
 18 22  1  0  0  0  0
 20 18  1  0  0  0  0
 21 18  1  0  0  0  0
M  RAD  2   2   2   3   3
M  END
