Coordinates from ORCA-job 4-MeOPhN2+~BF4-_B3LYPG-6-31G_dp-NX-Scan-d89-09-n800
 OpenBabel11261920503D

 22 21  0  0  0  0  0  0  0  0999 V2000
   -1.2699   -0.5432    0.5557 C   0  0  0  0  0  0  0  0  0  0  0  0
   -1.3587   -1.2173    1.7472 N   0  0  0  0  0  0  0  0  0  0  0  0
   -1.4110   -1.8101    2.6927 N   0  0  0  0  0  0  0  0  0  0  0  0
   -1.5918   -1.2541   -0.6226 C   0  0  0  0  0  0  0  0  0  0  0  0
   -1.5024   -0.5939   -1.8260 C   0  0  0  0  0  0  0  0  0  0  0  0
   -1.0907    0.7602   -1.8643 C   0  0  0  0  0  0  0  0  0  0  0  0
   -1.0426    1.3039   -3.0877 O   0  0  0  0  0  0  0  0  0  0  0  0
   -0.6530    2.6745   -3.2346 C   0  0  0  0  0  0  0  0  0  0  0  0
   -0.7628    1.4410   -0.6757 C   0  0  0  0  0  0  0  0  0  0  0  0
   -0.8546    0.8009    0.5490 C   0  0  0  0  0  0  0  0  0  0  0  0
   -1.9095   -2.2893   -0.5716 H   0  0  0  0  0  0  0  0  0  0  0  0
   -1.7459   -1.0880   -2.7591 H   0  0  0  0  0  0  0  0  0  0  0  0
   -1.3425    3.3373   -2.7022 H   0  0  0  0  0  0  0  0  0  0  0  0
   -0.7012    2.8776   -4.3038 H   0  0  0  0  0  0  0  0  0  0  0  0
    0.3692    2.8324   -2.8758 H   0  0  0  0  0  0  0  0  0  0  0  0
   -0.4431    2.4745   -0.6966 H   0  0  0  0  0  0  0  0  0  0  0  0
   -0.6151    1.2921    1.4912 H   0  0  0  0  0  0  0  0  0  0  0  0
   -1.6277    1.0254    3.8964 B   0  0  0  0  0  0  0  0  0  0  0  0
   -1.3886   -0.2457    4.4754 F   0  0  0  0  0  0  0  0  0  0  0  0
   -0.3995    1.4972    3.3477 F   0  0  0  0  0  0  0  0  0  0  0  0
   -2.5222    0.8312    2.8038 F   0  0  0  0  0  0  0  0  0  0  0  0
   -2.1403    1.9128    4.8076 F   0  0  0  0  0  0  0  0  0  0  0  0
  1  2  1  0  0  0  0
  2  3  1  0  0  0  0
  4 11  1  0  0  0  0
  4  1  2  0  0  0  0
  5  4  1  0  0  0  0
  6  5  2  0  0  0  0
  6  9  1  0  0  0  0
  7  6  1  0  0  0  0
  8  7  1  0  0  0  0
  8 15  1  0  0  0  0
  8 13  1  0  0  0  0
  9 10  2  0  0  0  0
 10  1  1  0  0  0  0
 10 17  1  0  0  0  0
 12  5  1  0  0  0  0
 14  8  1  0  0  0  0
 16  9  1  0  0  0  0
 18 19  1  0  0  0  0
 18 22  1  0  0  0  0
 20 18  1  0  0  0  0
 21 18  1  0  0  0  0
M  RAD  2   2   2   3   3
M  END
