Coordinates from ORCA-job 4-MeOPhN2+~BF4-_B3LYPG-6-31G_dp-NX-Scan-d89-09-n800
 OpenBabel11261920503D

 22 21  0  0  0  0  0  0  0  0999 V2000
   -1.3314   -1.5920    0.3918 C   0  0  0  0  0  0  0  0  0  0  0  0
   -1.5401   -2.5891    1.2715 N   0  0  0  0  0  0  0  0  0  0  0  0
   -1.7028   -3.4006    2.0330 N   0  0  0  0  0  0  0  0  0  0  0  0
   -1.6630   -1.7872   -0.9807 C   0  0  0  0  0  0  0  0  0  0  0  0
   -1.5132   -0.7256   -1.8319 C   0  0  0  0  0  0  0  0  0  0  0  0
   -1.0482    0.5303   -1.3374 C   0  0  0  0  0  0  0  0  0  0  0  0
   -1.0431    1.5248   -2.2069 O   0  0  0  0  0  0  0  0  0  0  0  0
   -0.7579    2.8704   -1.7292 C   0  0  0  0  0  0  0  0  0  0  0  0
   -0.6486    0.6747    0.0083 C   0  0  0  0  0  0  0  0  0  0  0  0
   -0.8219   -0.3644    0.8882 C   0  0  0  0  0  0  0  0  0  0  0  0
   -2.0394   -2.7439   -1.3246 H   0  0  0  0  0  0  0  0  0  0  0  0
   -1.7780   -0.8034   -2.8800 H   0  0  0  0  0  0  0  0  0  0  0  0
   -1.3543    3.0875   -0.8389 H   0  0  0  0  0  0  0  0  0  0  0  0
   -1.0232    3.5207   -2.5613 H   0  0  0  0  0  0  0  0  0  0  0  0
    0.3078    2.9632   -1.5039 H   0  0  0  0  0  0  0  0  0  0  0  0
   -0.2785    1.6107    0.4157 H   0  0  0  0  0  0  0  0  0  0  0  0
   -0.6447   -0.1951    1.9449 H   0  0  0  0  0  0  0  0  0  0  0  0
   -1.4386    2.7106    2.3021 B   0  0  0  0  0  0  0  0  0  0  0  0
   -0.0799    2.7744    1.8648 F   0  0  0  0  0  0  0  0  0  0  0  0
   -2.2522    2.7959    1.1390 F   0  0  0  0  0  0  0  0  0  0  0  0
   -1.6329    1.4346    2.8955 F   0  0  0  0  0  0  0  0  0  0  0  0
   -1.7197    3.7232    3.1864 F   0  0  0  0  0  0  0  0  0  0  0  0
  1 10  1  0  0  0  0
  1  2  1  0  0  0  0
  2  3  1  0  0  0  0
  4  1  2  0  0  0  0
  5  6  2  0  0  0  0
  5  4  1  0  0  0  0
  6  9  1  0  0  0  0
  7  8  1  0  0  0  0
  7  6  1  0  0  0  0
  8 15  1  0  0  0  0
  8 13  1  0  0  0  0
  9 16  1  0  0  0  0
  9 10  2  0  0  0  0
 10 17  1  0  0  0  0
 11  4  1  0  0  0  0
 12  5  1  0  0  0  0
 14  8  1  0  0  0  0
 18 21  1  0  0  0  0
 18 22  1  0  0  0  0
 19 18  1  0  0  0  0
 20 18  1  0  0  0  0
M  RAD  2   2   2   3   3
M  END
