Coordinates from ORCA-job 4-MeOPhN2+~BF4-_B3LYPG-6-31G_dp-NX-Scan-d89-09-n800
 OpenBabel11261920503D

 22 21  0  0  0  0  0  0  0  0999 V2000
   -1.4628   -0.7127    0.4056 C   0  0  0  0  0  0  0  0  0  0  0  0
   -1.7829   -1.5744    1.4897 N   0  0  0  0  0  0  0  0  0  0  0  0
   -1.5513   -1.3331    2.6909 N   0  0  0  0  0  0  0  0  0  0  0  0
   -1.5568   -1.3619   -0.8436 C   0  0  0  0  0  0  0  0  0  0  0  0
   -1.3047   -0.6944   -2.0278 C   0  0  0  0  0  0  0  0  0  0  0  0
   -0.9731    0.6706   -2.0022 C   0  0  0  0  0  0  0  0  0  0  0  0
   -0.7506    1.2472   -3.2109 O   0  0  0  0  0  0  0  0  0  0  0  0
   -0.4359    2.6328   -3.2578 C   0  0  0  0  0  0  0  0  0  0  0  0
   -0.9004    1.3410   -0.7729 C   0  0  0  0  0  0  0  0  0  0  0  0
   -1.1348    0.6580    0.4198 C   0  0  0  0  0  0  0  0  0  0  0  0
   -1.8333   -2.4107   -0.8472 H   0  0  0  0  0  0  0  0  0  0  0  0
   -1.3684   -1.1970   -2.9869 H   0  0  0  0  0  0  0  0  0  0  0  0
   -1.2449    3.2436   -2.8382 H   0  0  0  0  0  0  0  0  0  0  0  0
   -0.3120    2.8758   -4.3136 H   0  0  0  0  0  0  0  0  0  0  0  0
    0.4975    2.8526   -2.7249 H   0  0  0  0  0  0  0  0  0  0  0  0
   -0.6569    2.3954   -0.7292 H   0  0  0  0  0  0  0  0  0  0  0  0
   -1.0804    1.2182    1.3417 H   0  0  0  0  0  0  0  0  0  0  0  0
   -1.7840    1.6069    4.6039 B   0  0  0  0  0  0  0  0  0  0  0  0
   -1.0107   -0.3004    2.9321 F   0  0  0  0  0  0  0  0  0  0  0  0
   -1.3981    2.3990    3.6153 F   0  0  0  0  0  0  0  0  0  0  0  0
   -3.0111    1.1300    4.6185 F   0  0  0  0  0  0  0  0  0  0  0  0
   -0.9482    1.3330    5.5841 F   0  0  0  0  0  0  0  0  0  0  0  0
  1 10  1  0  0  0  0
  1  2  1  0  0  0  0
  2  3  2  0  0  0  0
  3 19  1  0  0  0  0
  4  1  2  0  0  0  0
  5  6  2  0  0  0  0
  5  4  1  0  0  0  0
  6  9  1  0  0  0  0
  7  6  1  0  0  0  0
  8  7  1  0  0  0  0
  8 13  1  0  0  0  0
  8 15  1  0  0  0  0
  9 16  1  0  0  0  0
  9 10  2  0  0  0  0
 10 17  1  0  0  0  0
 11  4  1  0  0  0  0
 12  5  1  0  0  0  0
 14  8  1  0  0  0  0
 18 21  1  0  0  0  0
 18 22  1  0  0  0  0
 20 18  1  0  0  0  0
M  END
