Coordinates from ORCA-job 4-MeOPhN2+~BF4-_B3LYPG-6-31G_dp-NX-Scan-d89-09-n800
 OpenBabel11261920503D

 22 21  0  0  0  0  0  0  0  0999 V2000
   -1.2719   -0.5377    0.5577 C   0  0  0  0  0  0  0  0  0  0  0  0
   -1.3648   -1.2071    1.7518 N   0  0  0  0  0  0  0  0  0  0  0  0
   -1.4246   -1.7776    2.7116 N   0  0  0  0  0  0  0  0  0  0  0  0
   -1.5879   -1.2522   -0.6196 C   0  0  0  0  0  0  0  0  0  0  0  0
   -1.4970   -0.5957   -1.8251 C   0  0  0  0  0  0  0  0  0  0  0  0
   -1.0886    0.7590   -1.8667 C   0  0  0  0  0  0  0  0  0  0  0  0
   -1.0386    1.2995   -3.0918 O   0  0  0  0  0  0  0  0  0  0  0  0
   -0.6521    2.6705   -3.2411 C   0  0  0  0  0  0  0  0  0  0  0  0
   -0.7654    1.4441   -0.6793 C   0  0  0  0  0  0  0  0  0  0  0  0
   -0.8590    0.8071    0.5470 C   0  0  0  0  0  0  0  0  0  0  0  0
   -1.9032   -2.2881   -0.5664 H   0  0  0  0  0  0  0  0  0  0  0  0
   -1.7366   -1.0934   -2.7574 H   0  0  0  0  0  0  0  0  0  0  0  0
   -1.3443    3.3331   -2.7119 H   0  0  0  0  0  0  0  0  0  0  0  0
   -0.6982    2.8712   -4.3108 H   0  0  0  0  0  0  0  0  0  0  0  0
    0.3689    2.8321   -2.8803 H   0  0  0  0  0  0  0  0  0  0  0  0
   -0.4475    2.4781   -0.7025 H   0  0  0  0  0  0  0  0  0  0  0  0
   -0.6217    1.3023    1.4871 H   0  0  0  0  0  0  0  0  0  0  0  0
   -1.6268    1.0192    3.8972 B   0  0  0  0  0  0  0  0  0  0  0  0
   -1.3874   -0.2780    4.4310 F   0  0  0  0  0  0  0  0  0  0  0  0
   -0.4012    1.4991    3.3554 F   0  0  0  0  0  0  0  0  0  0  0  0
   -2.5325    0.8635    2.8117 F   0  0  0  0  0  0  0  0  0  0  0  0
   -2.1234    1.8708    4.8489 F   0  0  0  0  0  0  0  0  0  0  0  0
  1  2  1  0  0  0  0
  2  3  1  0  0  0  0
  4 11  1  0  0  0  0
  4  1  2  0  0  0  0
  5  4  1  0  0  0  0
  6  5  2  0  0  0  0
  6  9  1  0  0  0  0
  7  6  1  0  0  0  0
  8  7  1  0  0  0  0
  8 15  1  0  0  0  0
  8 13  1  0  0  0  0
  9 10  2  0  0  0  0
 10  1  1  0  0  0  0
 10 17  1  0  0  0  0
 12  5  1  0  0  0  0
 14  8  1  0  0  0  0
 16  9  1  0  0  0  0
 18 19  1  0  0  0  0
 18 22  1  0  0  0  0
 20 18  1  0  0  0  0
 21 18  1  0  0  0  0
M  RAD  2   2   2   3   3
M  END
