Coordinates from ORCA-job 4-MeOPhN2+~BF4-_B3LYPG-6-31G_dp-NX-Scan-d89-09-n800
 OpenBabel11261920503D

 22 21  0  0  0  0  0  0  0  0999 V2000
   -1.3043   -1.5467    0.4181 C   0  0  0  0  0  0  0  0  0  0  0  0
   -1.4972   -2.5366    1.3107 N   0  0  0  0  0  0  0  0  0  0  0  0
   -1.6515   -3.3521    2.0696 N   0  0  0  0  0  0  0  0  0  0  0  0
   -1.6728   -1.7614   -0.9425 C   0  0  0  0  0  0  0  0  0  0  0  0
   -1.5396   -0.7156   -1.8151 C   0  0  0  0  0  0  0  0  0  0  0  0
   -1.0552    0.5454   -1.3539 C   0  0  0  0  0  0  0  0  0  0  0  0
   -1.0657    1.5235   -2.2431 O   0  0  0  0  0  0  0  0  0  0  0  0
   -0.7496    2.8741   -1.8059 C   0  0  0  0  0  0  0  0  0  0  0  0
   -0.6214    0.7090   -0.0223 C   0  0  0  0  0  0  0  0  0  0  0  0
   -0.7765   -0.3141    0.8809 C   0  0  0  0  0  0  0  0  0  0  0  0
   -2.0627   -2.7216   -1.2606 H   0  0  0  0  0  0  0  0  0  0  0  0
   -1.8315   -0.8094   -2.8546 H   0  0  0  0  0  0  0  0  0  0  0  0
   -1.3054    3.1184   -0.8964 H   0  0  0  0  0  0  0  0  0  0  0  0
   -1.0439    3.5108   -2.6388 H   0  0  0  0  0  0  0  0  0  0  0  0
    0.3263    2.9607   -1.6303 H   0  0  0  0  0  0  0  0  0  0  0  0
   -0.2497    1.6488    0.3684 H   0  0  0  0  0  0  0  0  0  0  0  0
   -0.5688   -0.1305    1.9285 H   0  0  0  0  0  0  0  0  0  0  0  0
   -1.4800    2.6252    2.3510 B   0  0  0  0  0  0  0  0  0  0  0  0
   -0.0797    2.5279    2.0865 F   0  0  0  0  0  0  0  0  0  0  0  0
   -2.1234    2.9055    1.1126 F   0  0  0  0  0  0  0  0  0  0  0  0
   -1.9137    1.3528    2.8049 F   0  0  0  0  0  0  0  0  0  0  0  0
   -1.7373    3.6058    3.2791 F   0  0  0  0  0  0  0  0  0  0  0  0
  1 10  1  0  0  0  0
  1  2  1  0  0  0  0
  2  3  1  0  0  0  0
  4  1  2  0  0  0  0
  5  6  2  0  0  0  0
  5  4  1  0  0  0  0
  6  9  1  0  0  0  0
  7  8  1  0  0  0  0
  7  6  1  0  0  0  0
  8 15  1  0  0  0  0
  8 13  1  0  0  0  0
  9 16  1  0  0  0  0
  9 10  2  0  0  0  0
 10 17  1  0  0  0  0
 11  4  1  0  0  0  0
 12  5  1  0  0  0  0
 14  8  1  0  0  0  0
 18 21  1  0  0  0  0
 18 22  1  0  0  0  0
 19 18  1  0  0  0  0
 20 18  1  0  0  0  0
M  RAD  2   2   2   3   3
M  END
