Coordinates from ORCA-job 4-MeOPhN2+~BF4-_B3LYPG-6-31G_dp-NX-Scan-d89-09-n800
 OpenBabel11261920503D

 22 21  0  0  0  0  0  0  0  0999 V2000
   -1.3791   -1.7077    0.3681 C   0  0  0  0  0  0  0  0  0  0  0  0
   -1.5847   -2.7749    1.1632 N   0  0  0  0  0  0  0  0  0  0  0  0
   -1.7561   -3.6758    1.8167 N   0  0  0  0  0  0  0  0  0  0  0  0
   -1.6250   -1.8509   -1.0302 C   0  0  0  0  0  0  0  0  0  0  0  0
   -1.4629   -0.7524   -1.8289 C   0  0  0  0  0  0  0  0  0  0  0  0
   -1.0639    0.4959   -1.2626 C   0  0  0  0  0  0  0  0  0  0  0  0
   -1.0179    1.5134   -2.0980 O   0  0  0  0  0  0  0  0  0  0  0  0
   -0.7903    2.8573   -1.5727 C   0  0  0  0  0  0  0  0  0  0  0  0
   -0.7625    0.6010    0.1166 C   0  0  0  0  0  0  0  0  0  0  0  0
   -0.9484   -0.4797    0.9421 C   0  0  0  0  0  0  0  0  0  0  0  0
   -1.9462   -2.8046   -1.4336 H   0  0  0  0  0  0  0  0  0  0  0  0
   -1.6604   -0.7977   -2.8938 H   0  0  0  0  0  0  0  0  0  0  0  0
   -1.4883    3.0622   -0.7580 H   0  0  0  0  0  0  0  0  0  0  0  0
   -0.9502    3.5107   -2.4284 H   0  0  0  0  0  0  0  0  0  0  0  0
    0.2326    2.9462   -1.2033 H   0  0  0  0  0  0  0  0  0  0  0  0
   -0.4176    1.5349    0.5504 H   0  0  0  0  0  0  0  0  0  0  0  0
   -0.8022   -0.3496    2.0092 H   0  0  0  0  0  0  0  0  0  0  0  0
   -1.3300    2.9612    2.1658 B   0  0  0  0  0  0  0  0  0  0  0  0
   -0.1400    3.2448    1.4229 F   0  0  0  0  0  0  0  0  0  0  0  0
   -2.3774    2.8242    1.2173 F   0  0  0  0  0  0  0  0  0  0  0  0
   -1.1400    1.7064    2.8075 F   0  0  0  0  0  0  0  0  0  0  0  0
   -1.5932    3.9547    3.0761 F   0  0  0  0  0  0  0  0  0  0  0  0
  1 10  1  0  0  0  0
  1  2  1  0  0  0  0
  2  3  1  0  0  0  0
  4  1  2  0  0  0  0
  5  6  2  0  0  0  0
  5  4  1  0  0  0  0
  6  9  1  0  0  0  0
  7  8  1  0  0  0  0
  7  6  1  0  0  0  0
  8 15  1  0  0  0  0
  8 13  1  0  0  0  0
  9 16  1  0  0  0  0
  9 10  2  0  0  0  0
 10 17  1  0  0  0  0
 11  4  1  0  0  0  0
 12  5  1  0  0  0  0
 14  8  1  0  0  0  0
 18 21  1  0  0  0  0
 18 22  1  0  0  0  0
 19 18  1  0  0  0  0
 20 18  1  0  0  0  0
M  RAD  2   2   2   3   3
M  END
