Coordinates from ORCA-job 4-MeOPhN2+~BF4-_B3LYPG-6-31G_dp-NX-Scan-d89-09-n800
 OpenBabel11261920503D

 22 21  0  0  0  0  0  0  0  0999 V2000
   -1.2302   -1.4531    0.4386 C   0  0  0  0  0  0  0  0  0  0  0  0
   -1.3663   -2.3745    1.4138 N   0  0  0  0  0  0  0  0  0  0  0  0
   -1.4618   -3.0916    2.2731 N   0  0  0  0  0  0  0  0  0  0  0  0
   -1.6399   -1.7455   -0.8937 C   0  0  0  0  0  0  0  0  0  0  0  0
   -1.5657   -0.7352   -1.8150 C   0  0  0  0  0  0  0  0  0  0  0  0
   -1.1092    0.5611   -1.4262 C   0  0  0  0  0  0  0  0  0  0  0  0
   -1.1735    1.4975   -2.3636 O   0  0  0  0  0  0  0  0  0  0  0  0
   -0.8311    2.8602   -2.0102 C   0  0  0  0  0  0  0  0  0  0  0  0
   -0.6521    0.8028   -0.1186 C   0  0  0  0  0  0  0  0  0  0  0  0
   -0.7343   -0.1887    0.8307 C   0  0  0  0  0  0  0  0  0  0  0  0
   -2.0113   -2.7296   -1.1557 H   0  0  0  0  0  0  0  0  0  0  0  0
   -1.8839   -0.8851   -2.8402 H   0  0  0  0  0  0  0  0  0  0  0  0
   -1.3290    3.1635   -1.0861 H   0  0  0  0  0  0  0  0  0  0  0  0
   -1.1663    3.4630   -2.8527 H   0  0  0  0  0  0  0  0  0  0  0  0
    0.2527    2.9502   -1.8916 H   0  0  0  0  0  0  0  0  0  0  0  0
   -0.3533    1.7870    0.2245 H   0  0  0  0  0  0  0  0  0  0  0  0
   -0.4765    0.0536    1.8599 H   0  0  0  0  0  0  0  0  0  0  0  0
   -1.4753    2.4339    2.5357 B   0  0  0  0  0  0  0  0  0  0  0  0
   -0.3877    1.5955    2.9425 F   0  0  0  0  0  0  0  0  0  0  0  0
   -1.0262    3.2047    1.4134 F   0  0  0  0  0  0  0  0  0  0  0  0
   -2.5181    1.5916    2.1049 F   0  0  0  0  0  0  0  0  0  0  0  0
   -1.8649    3.2584    3.5631 F   0  0  0  0  0  0  0  0  0  0  0  0
  1 10  1  0  0  0  0
  1  2  1  0  0  0  0
  2  3  1  0  0  0  0
  4  1  2  0  0  0  0
  5  6  2  0  0  0  0
  5  4  1  0  0  0  0
  6  9  1  0  0  0  0
  7  8  1  0  0  0  0
  7  6  1  0  0  0  0
  8 15  1  0  0  0  0
  8 13  1  0  0  0  0
  9 16  1  0  0  0  0
  9 10  2  0  0  0  0
 10 17  1  0  0  0  0
 11  4  1  0  0  0  0
 12  5  1  0  0  0  0
 14  8  1  0  0  0  0
 18 19  1  0  0  0  0
 18 22  1  0  0  0  0
 20 18  1  0  0  0  0
 21 18  1  0  0  0  0
M  RAD  2   2   2   3   3
M  END
