Coordinates from ORCA-job 4-MeOPhN2+~BF4-_B3LYPG-6-31G_dp-NX-Scan-d89-09-n800
 OpenBabel11261920503D

 22 21  0  0  0  0  0  0  0  0999 V2000
   -1.2692   -0.5478    0.5539 C   0  0  0  0  0  0  0  0  0  0  0  0
   -1.3576   -1.2248    1.7436 N   0  0  0  0  0  0  0  0  0  0  0  0
   -1.4029   -1.8312    2.6803 N   0  0  0  0  0  0  0  0  0  0  0  0
   -1.5948   -1.2557   -0.6253 C   0  0  0  0  0  0  0  0  0  0  0  0
   -1.5060   -0.5929   -1.8271 C   0  0  0  0  0  0  0  0  0  0  0  0
   -1.0921    0.7607   -1.8629 C   0  0  0  0  0  0  0  0  0  0  0  0
   -1.0447    1.3068   -3.0851 O   0  0  0  0  0  0  0  0  0  0  0  0
   -0.6527    2.6771   -3.2299 C   0  0  0  0  0  0  0  0  0  0  0  0
   -0.7619    1.4386   -0.6732 C   0  0  0  0  0  0  0  0  0  0  0  0
   -0.8528    0.7961    0.5502 C   0  0  0  0  0  0  0  0  0  0  0  0
   -1.9147   -2.2903   -0.5762 H   0  0  0  0  0  0  0  0  0  0  0  0
   -1.7519   -1.0843   -2.7610 H   0  0  0  0  0  0  0  0  0  0  0  0
   -1.3404    3.3401   -2.6956 H   0  0  0  0  0  0  0  0  0  0  0  0
   -0.7017    2.8821   -4.2987 H   0  0  0  0  0  0  0  0  0  0  0  0
    0.3702    2.8323   -2.8719 H   0  0  0  0  0  0  0  0  0  0  0  0
   -0.4414    2.4718   -0.6922 H   0  0  0  0  0  0  0  0  0  0  0  0
   -0.6132    1.2851    1.4939 H   0  0  0  0  0  0  0  0  0  0  0  0
   -1.6271    1.0308    3.8962 B   0  0  0  0  0  0  0  0  0  0  0  0
   -1.3827   -0.2220    4.5036 F   0  0  0  0  0  0  0  0  0  0  0  0
   -0.3995    1.5019    3.3426 F   0  0  0  0  0  0  0  0  0  0  0  0
   -2.5138    0.8076    2.8002 F   0  0  0  0  0  0  0  0  0  0  0  0
   -2.1530    1.9378    4.7809 F   0  0  0  0  0  0  0  0  0  0  0  0
  1  2  1  0  0  0  0
  2  3  1  0  0  0  0
  4 11  1  0  0  0  0
  4  1  2  0  0  0  0
  5  4  1  0  0  0  0
  6  5  2  0  0  0  0
  6  9  1  0  0  0  0
  7  6  1  0  0  0  0
  8  7  1  0  0  0  0
  8 15  1  0  0  0  0
  8 13  1  0  0  0  0
  9 10  2  0  0  0  0
 10  1  1  0  0  0  0
 10 17  1  0  0  0  0
 12  5  1  0  0  0  0
 14  8  1  0  0  0  0
 16  9  1  0  0  0  0
 18 19  1  0  0  0  0
 18 22  1  0  0  0  0
 20 18  1  0  0  0  0
 21 18  1  0  0  0  0
M  RAD  2   2   2   3   3
M  END
