Coordinates from ORCA-job 4-MeOPhN2+~BF4-_B3LYPG-6-31G_dp-NX-Scan-d89-09-n800
 OpenBabel11261920503D

 22 21  0  0  0  0  0  0  0  0999 V2000
   -1.3036   -1.5452    0.4173 C   0  0  0  0  0  0  0  0  0  0  0  0
   -1.4970   -2.5315    1.3138 N   0  0  0  0  0  0  0  0  0  0  0  0
   -1.6504   -3.3416    2.0787 N   0  0  0  0  0  0  0  0  0  0  0  0
   -1.6730   -1.7606   -0.9427 C   0  0  0  0  0  0  0  0  0  0  0  0
   -1.5398   -0.7150   -1.8155 C   0  0  0  0  0  0  0  0  0  0  0  0
   -1.0549    0.5464   -1.3554 C   0  0  0  0  0  0  0  0  0  0  0  0
   -1.0660    1.5240   -2.2450 O   0  0  0  0  0  0  0  0  0  0  0  0
   -0.7494    2.8746   -1.8081 C   0  0  0  0  0  0  0  0  0  0  0  0
   -0.6201    0.7104   -0.0242 C   0  0  0  0  0  0  0  0  0  0  0  0
   -0.7751   -0.3125    0.8792 C   0  0  0  0  0  0  0  0  0  0  0  0
   -2.0636   -2.7207   -1.2602 H   0  0  0  0  0  0  0  0  0  0  0  0
   -1.8323   -0.8091   -2.8549 H   0  0  0  0  0  0  0  0  0  0  0  0
   -1.3049    3.1192   -0.8985 H   0  0  0  0  0  0  0  0  0  0  0  0
   -1.0437    3.5113   -2.6411 H   0  0  0  0  0  0  0  0  0  0  0  0
    0.3267    2.9609   -1.6328 H   0  0  0  0  0  0  0  0  0  0  0  0
   -0.2482    1.6497    0.3673 H   0  0  0  0  0  0  0  0  0  0  0  0
   -0.5679   -0.1298    1.9270 H   0  0  0  0  0  0  0  0  0  0  0  0
   -1.4814    2.6197    2.3525 B   0  0  0  0  0  0  0  0  0  0  0  0
   -0.0808    2.5183    2.0905 F   0  0  0  0  0  0  0  0  0  0  0  0
   -2.1218    2.9042    1.1134 F   0  0  0  0  0  0  0  0  0  0  0  0
   -1.9189    1.3477    2.8033 F   0  0  0  0  0  0  0  0  0  0  0  0
   -1.7377    3.5993    3.2818 F   0  0  0  0  0  0  0  0  0  0  0  0
  1 10  1  0  0  0  0
  1  2  1  0  0  0  0
  2  3  1  0  0  0  0
  4  1  2  0  0  0  0
  5  6  2  0  0  0  0
  5  4  1  0  0  0  0
  6  9  1  0  0  0  0
  7  8  1  0  0  0  0
  7  6  1  0  0  0  0
  8 15  1  0  0  0  0
  8 13  1  0  0  0  0
  9 16  1  0  0  0  0
  9 10  2  0  0  0  0
 10 17  1  0  0  0  0
 11  4  1  0  0  0  0
 12  5  1  0  0  0  0
 14  8  1  0  0  0  0
 18 21  1  0  0  0  0
 18 22  1  0  0  0  0
 19 18  1  0  0  0  0
 20 18  1  0  0  0  0
M  RAD  2   2   2   3   3
M  END
