Coordinates from ORCA-job 4-MeOPhN2+~BF4-_B3LYPG-6-31G_dp-NX-Scan-d89-09-n800
 OpenBabel11261920503D

 22 21  0  0  0  0  0  0  0  0999 V2000
   -1.3715   -1.6808    0.3673 C   0  0  0  0  0  0  0  0  0  0  0  0
   -1.5850   -2.7232    1.1912 N   0  0  0  0  0  0  0  0  0  0  0  0
   -1.7558   -3.5856    1.8941 N   0  0  0  0  0  0  0  0  0  0  0  0
   -1.6363   -1.8347   -1.0254 C   0  0  0  0  0  0  0  0  0  0  0  0
   -1.4712   -0.7436   -1.8345 C   0  0  0  0  0  0  0  0  0  0  0  0
   -1.0536    0.5049   -1.2815 C   0  0  0  0  0  0  0  0  0  0  0  0
   -1.0159    1.5206   -2.1210 O   0  0  0  0  0  0  0  0  0  0  0  0
   -0.7813    2.8624   -1.5958 C   0  0  0  0  0  0  0  0  0  0  0  0
   -0.7280    0.6155    0.0904 C   0  0  0  0  0  0  0  0  0  0  0  0
   -0.9170   -0.4559    0.9261 C   0  0  0  0  0  0  0  0  0  0  0  0
   -1.9744   -2.7875   -1.4170 H   0  0  0  0  0  0  0  0  0  0  0  0
   -1.6838   -0.7937   -2.8962 H   0  0  0  0  0  0  0  0  0  0  0  0
   -1.4620    3.0610   -0.7649 H   0  0  0  0  0  0  0  0  0  0  0  0
   -0.9631    3.5202   -2.4438 H   0  0  0  0  0  0  0  0  0  0  0  0
    0.2507    2.9535   -1.2517 H   0  0  0  0  0  0  0  0  0  0  0  0
   -0.3721    1.5475    0.5215 H   0  0  0  0  0  0  0  0  0  0  0  0
   -0.7651   -0.3197    1.9917 H   0  0  0  0  0  0  0  0  0  0  0  0
   -1.3591    2.8945    2.1869 B   0  0  0  0  0  0  0  0  0  0  0  0
   -0.1425    3.1487    1.4744 F   0  0  0  0  0  0  0  0  0  0  0  0
   -2.3814    2.7704    1.2106 F   0  0  0  0  0  0  0  0  0  0  0  0
   -1.2083    1.6435    2.8438 F   0  0  0  0  0  0  0  0  0  0  0  0
   -1.6270    3.9017    3.0803 F   0  0  0  0  0  0  0  0  0  0  0  0
  1 10  1  0  0  0  0
  1  2  1  0  0  0  0
  2  3  1  0  0  0  0
  4  1  2  0  0  0  0
  5  6  2  0  0  0  0
  5  4  1  0  0  0  0
  6  9  1  0  0  0  0
  7  8  1  0  0  0  0
  7  6  1  0  0  0  0
  8 15  1  0  0  0  0
  8 13  1  0  0  0  0
  9 16  1  0  0  0  0
  9 10  2  0  0  0  0
 10 17  1  0  0  0  0
 11  4  1  0  0  0  0
 12  5  1  0  0  0  0
 14  8  1  0  0  0  0
 18 21  1  0  0  0  0
 18 22  1  0  0  0  0
 19 18  1  0  0  0  0
 20 18  1  0  0  0  0
M  RAD  2   2   2   3   3
M  END
