Coordinates from ORCA-job 4-MeOPhN2+~BF4-_B3LYPG-6-31G_dp-NX-Scan-d89-09-n800
 OpenBabel11261920503D

 22 21  0  0  0  0  0  0  0  0999 V2000
   -1.4247   -1.8318    0.3237 C   0  0  0  0  0  0  0  0  0  0  0  0
   -1.6126   -2.9428    1.0609 N   0  0  0  0  0  0  0  0  0  0  0  0
   -1.7732   -3.8851    1.6573 N   0  0  0  0  0  0  0  0  0  0  0  0
   -1.5773   -1.9336   -1.0921 C   0  0  0  0  0  0  0  0  0  0  0  0
   -1.4147   -0.8039   -1.8454 C   0  0  0  0  0  0  0  0  0  0  0  0
   -1.1077    0.4433   -1.2202 C   0  0  0  0  0  0  0  0  0  0  0  0
   -1.0202    1.4780   -2.0242 O   0  0  0  0  0  0  0  0  0  0  0  0
   -0.8297    2.8167   -1.4621 C   0  0  0  0  0  0  0  0  0  0  0  0
   -0.9240    0.5168    0.1843 C   0  0  0  0  0  0  0  0  0  0  0  0
   -1.0931   -0.6017    0.9589 C   0  0  0  0  0  0  0  0  0  0  0  0
   -1.8249   -2.8869   -1.5457 H   0  0  0  0  0  0  0  0  0  0  0  0
   -1.5327   -0.8254   -2.9229 H   0  0  0  0  0  0  0  0  0  0  0  0
   -1.6142    3.0305   -0.7339 H   0  0  0  0  0  0  0  0  0  0  0  0
   -0.8720    3.4770   -2.3258 H   0  0  0  0  0  0  0  0  0  0  0  0
    0.1363    2.8851   -0.9616 H   0  0  0  0  0  0  0  0  0  0  0  0
   -0.6685    1.4363    0.6929 H   0  0  0  0  0  0  0  0  0  0  0  0
   -0.9850   -0.5133    2.0350 H   0  0  0  0  0  0  0  0  0  0  0  0
   -1.1780    3.2627    2.0974 B   0  0  0  0  0  0  0  0  0  0  0  0
   -0.1679    3.8085    1.2728 F   0  0  0  0  0  0  0  0  0  0  0  0
   -2.3036    2.9751    1.2712 F   0  0  0  0  0  0  0  0  0  0  0  0
   -0.7013    2.0077    2.5982 F   0  0  0  0  0  0  0  0  0  0  0  0
   -1.5147    4.1067    3.1277 F   0  0  0  0  0  0  0  0  0  0  0  0
  1 10  1  0  0  0  0
  1  2  1  0  0  0  0
  2  3  1  0  0  0  0
  4  1  2  0  0  0  0
  5  6  2  0  0  0  0
  5  4  1  0  0  0  0
  6  9  1  0  0  0  0
  7  8  1  0  0  0  0
  7  6  1  0  0  0  0
  8 15  1  0  0  0  0
  8 13  1  0  0  0  0
  9 16  1  0  0  0  0
  9 10  2  0  0  0  0
 10 17  1  0  0  0  0
 11  4  1  0  0  0  0
 12  5  1  0  0  0  0
 14  8  1  0  0  0  0
 18 21  1  0  0  0  0
 18 22  1  0  0  0  0
 19 18  1  0  0  0  0
 20 18  1  0  0  0  0
M  RAD  2   2   2   3   3
M  END
