Coordinates from ORCA-job 4-MeOPhN2+~BF4-_B3LYPG-6-31G_dp-NX-Scan-d89-09-n800
 OpenBabel11261920503D

 22 21  0  0  0  0  0  0  0  0999 V2000
   -1.5036   -1.9884    0.2574 C   0  0  0  0  0  0  0  0  0  0  0  0
   -1.7090   -3.1322    0.9304 N   0  0  0  0  0  0  0  0  0  0  0  0
   -1.8801   -4.0872    1.5041 N   0  0  0  0  0  0  0  0  0  0  0  0
   -1.5606   -2.0033   -1.1669 C   0  0  0  0  0  0  0  0  0  0  0  0
   -1.3612   -0.8246   -1.8286 C   0  0  0  0  0  0  0  0  0  0  0  0
   -1.1128    0.3857   -1.1078 C   0  0  0  0  0  0  0  0  0  0  0  0
   -0.9621    1.4525   -1.8517 O   0  0  0  0  0  0  0  0  0  0  0  0
   -0.8058    2.7723   -1.2295 C   0  0  0  0  0  0  0  0  0  0  0  0
   -1.0420    0.3817    0.3160 C   0  0  0  0  0  0  0  0  0  0  0  0
   -1.2368   -0.7956    0.9897 C   0  0  0  0  0  0  0  0  0  0  0  0
   -1.7616   -2.9276   -1.6968 H   0  0  0  0  0  0  0  0  0  0  0  0
   -1.3981   -0.7747   -2.9111 H   0  0  0  0  0  0  0  0  0  0  0  0
   -1.6820    2.9916   -0.6209 H   0  0  0  0  0  0  0  0  0  0  0  0
   -0.7066    3.4568   -2.0680 H   0  0  0  0  0  0  0  0  0  0  0  0
    0.0776    2.7869   -0.5922 H   0  0  0  0  0  0  0  0  0  0  0  0
   -0.8256    1.2877    0.8831 H   0  0  0  0  0  0  0  0  0  0  0  0
   -1.1917   -0.8206    2.0735 H   0  0  0  0  0  0  0  0  0  0  0  0
   -1.0752    3.6054    1.8782 B   0  0  0  0  0  0  0  0  0  0  0  0
   -0.8848    4.6389    0.9539 F   0  0  0  0  0  0  0  0  0  0  0  0
   -2.2291    2.8578    1.4946 F   0  0  0  0  0  0  0  0  0  0  0  0
    0.0382    2.6973    1.7664 F   0  0  0  0  0  0  0  0  0  0  0  0
   -1.1910    4.0594    3.1725 F   0  0  0  0  0  0  0  0  0  0  0  0
  1  2  1  0  0  0  0
  1 10  2  0  0  0  0
  2  3  1  0  0  0  0
  4  1  1  0  0  0  0
  5  4  2  0  0  0  0
  5  6  1  0  0  0  0
  6  9  2  0  0  0  0
  7  8  1  0  0  0  0
  7  6  1  0  0  0  0
  8 13  1  0  0  0  0
  8 15  1  0  0  0  0
  9 16  1  0  0  0  0
  9 10  1  0  0  0  0
 10 17  1  0  0  0  0
 11  4  1  0  0  0  0
 12  5  1  0  0  0  0
 14  8  1  0  0  0  0
 18 22  1  0  0  0  0
 19 18  1  0  0  0  0
 20 18  1  0  0  0  0
 21 18  1  0  0  0  0
M  RAD  2   2   2   3   3
M  END
