Coordinates from ORCA-job 4-MeOPhN2+~BF4-_B3LYPG-6-31G_dp-NX-Scan-d89-09-n800
 OpenBabel11261920503D

 22 21  0  0  0  0  0  0  0  0999 V2000
   -1.2741   -1.4992    0.4479 C   0  0  0  0  0  0  0  0  0  0  0  0
   -1.4511   -2.4759    1.3587 N   0  0  0  0  0  0  0  0  0  0  0  0
   -1.5957   -3.2856    2.1255 N   0  0  0  0  0  0  0  0  0  0  0  0
   -1.6936   -1.7281   -0.8957 C   0  0  0  0  0  0  0  0  0  0  0  0
   -1.5772   -0.6976   -1.7881 C   0  0  0  0  0  0  0  0  0  0  0  0
   -1.0625    0.5643   -1.3633 C   0  0  0  0  0  0  0  0  0  0  0  0
   -1.0891    1.5266   -2.2706 O   0  0  0  0  0  0  0  0  0  0  0  0
   -0.7374    2.8787   -1.8720 C   0  0  0  0  0  0  0  0  0  0  0  0
   -0.5840    0.7419   -0.0502 C   0  0  0  0  0  0  0  0  0  0  0  0
   -0.7180   -0.2664    0.8738 C   0  0  0  0  0  0  0  0  0  0  0  0
   -2.1071   -2.6875   -1.1852 H   0  0  0  0  0  0  0  0  0  0  0  0
   -1.9054   -0.8031   -2.8155 H   0  0  0  0  0  0  0  0  0  0  0  0
   -1.2571    3.1511   -0.9497 H   0  0  0  0  0  0  0  0  0  0  0  0
   -1.0502    3.5045   -2.7065 H   0  0  0  0  0  0  0  0  0  0  0  0
    0.3456    2.9514   -1.7362 H   0  0  0  0  0  0  0  0  0  0  0  0
   -0.2069    1.6860    0.3181 H   0  0  0  0  0  0  0  0  0  0  0  0
   -0.4556   -0.0723    1.9058 H   0  0  0  0  0  0  0  0  0  0  0  0
   -1.5316    2.5262    2.3746 B   0  0  0  0  0  0  0  0  0  0  0  0
   -0.1263    2.2777    2.2800 F   0  0  0  0  0  0  0  0  0  0  0  0
   -1.9635    3.0047    1.1045 F   0  0  0  0  0  0  0  0  0  0  0  0
   -2.1616    1.2824    2.6249 F   0  0  0  0  0  0  0  0  0  0  0  0
   -1.8015    3.4397    3.3656 F   0  0  0  0  0  0  0  0  0  0  0  0
  1 10  1  0  0  0  0
  1  2  1  0  0  0  0
  2  3  1  0  0  0  0
  4  1  2  0  0  0  0
  5  6  2  0  0  0  0
  5  4  1  0  0  0  0
  6  9  1  0  0  0  0
  7  8  1  0  0  0  0
  7  6  1  0  0  0  0
  8 15  1  0  0  0  0
  8 13  1  0  0  0  0
  9 16  1  0  0  0  0
  9 10  2  0  0  0  0
 10 17  1  0  0  0  0
 11  4  1  0  0  0  0
 12  5  1  0  0  0  0
 14  8  1  0  0  0  0
 18 21  1  0  0  0  0
 18 22  1  0  0  0  0
 19 18  1  0  0  0  0
 20 18  1  0  0  0  0
M  RAD  2   2   2   3   3
M  END
