Coordinates from ORCA-job 4-MeOPhN2+~BF4-_B3LYPG-6-31G_dp-NX-Scan-d89-09-n800
 OpenBabel11261920503D

 22 21  0  0  0  0  0  0  0  0999 V2000
   -1.2307   -0.6645    0.6167 C   0  0  0  0  0  0  0  0  0  0  0  0
   -1.3085   -1.3951    1.7709 N   0  0  0  0  0  0  0  0  0  0  0  0
   -1.3755   -2.0730    2.6524 N   0  0  0  0  0  0  0  0  0  0  0  0
   -1.7536   -1.2538   -0.5590 C   0  0  0  0  0  0  0  0  0  0  0  0
   -1.6788   -0.5389   -1.7301 C   0  0  0  0  0  0  0  0  0  0  0  0
   -1.0951    0.7528   -1.7405 C   0  0  0  0  0  0  0  0  0  0  0  0
   -1.0861    1.3599   -2.9332 O   0  0  0  0  0  0  0  0  0  0  0  0
   -0.5498    2.6844   -3.0453 C   0  0  0  0  0  0  0  0  0  0  0  0
   -0.5776    1.3124   -0.5571 C   0  0  0  0  0  0  0  0  0  0  0  0
   -0.6426    0.6131    0.6349 C   0  0  0  0  0  0  0  0  0  0  0  0
   -2.2061   -2.2382   -0.5280 H   0  0  0  0  0  0  0  0  0  0  0  0
   -2.0688   -0.9379   -2.6589 H   0  0  0  0  0  0  0  0  0  0  0  0
   -1.1064    3.3860   -2.4164 H   0  0  0  0  0  0  0  0  0  0  0  0
   -0.6674    2.9573   -4.0933 H   0  0  0  0  0  0  0  0  0  0  0  0
    0.5114    2.7011   -2.7766 H   0  0  0  0  0  0  0  0  0  0  0  0
   -0.1446    2.3036   -0.5486 H   0  0  0  0  0  0  0  0  0  0  0  0
   -0.2889    1.0205    1.5746 H   0  0  0  0  0  0  0  0  0  0  0  0
   -1.7678    1.2315    3.5273 B   0  0  0  0  0  0  0  0  0  0  0  0
   -0.5116    0.5232    3.4931 F   0  0  0  0  0  0  0  0  0  0  0  0
   -1.6326    2.3473    2.6833 F   0  0  0  0  0  0  0  0  0  0  0  0
   -2.7305    0.3477    2.9660 F   0  0  0  0  0  0  0  0  0  0  0  0
   -2.0922    1.5801    4.8145 F   0  0  0  0  0  0  0  0  0  0  0  0
  1 10  1  0  0  0  0
  1  2  1  0  0  0  0
  2  3  1  0  0  0  0
  4 11  1  0  0  0  0
  4  1  2  0  0  0  0
  5  4  1  0  0  0  0
  6  5  2  0  0  0  0
  6  9  1  0  0  0  0
  7  6  1  0  0  0  0
  8  7  1  0  0  0  0
  8 15  1  0  0  0  0
  8 13  1  0  0  0  0
  9 16  1  0  0  0  0
  9 10  2  0  0  0  0
 10 17  1  0  0  0  0
 12  5  1  0  0  0  0
 14  8  1  0  0  0  0
 18 22  1  0  0  0  0
 19 18  1  0  0  0  0
 20 18  1  0  0  0  0
 21 18  1  0  0  0  0
M  RAD  2   2   2   3   3
M  END
