Coordinates from ORCA-job 4-MeOPhN2+~BF4-_B3LYPG-6-31G_dp-NX-Scan-d89-09-n800
 OpenBabel11261920503D

 22 21  0  0  0  0  0  0  0  0999 V2000
   -1.4456   -1.8908    0.2957 C   0  0  0  0  0  0  0  0  0  0  0  0
   -1.6220   -3.0093    1.0208 N   0  0  0  0  0  0  0  0  0  0  0  0
   -1.7684   -3.9454    1.6305 N   0  0  0  0  0  0  0  0  0  0  0  0
   -1.5959   -1.9604   -1.1211 C   0  0  0  0  0  0  0  0  0  0  0  0
   -1.4303   -0.8124   -1.8455 C   0  0  0  0  0  0  0  0  0  0  0  0
   -1.1241    0.4212   -1.1916 C   0  0  0  0  0  0  0  0  0  0  0  0
   -1.0145    1.4665   -1.9771 O   0  0  0  0  0  0  0  0  0  0  0  0
   -0.7979    2.7941   -1.3971 C   0  0  0  0  0  0  0  0  0  0  0  0
   -0.9580    0.4667    0.2180 C   0  0  0  0  0  0  0  0  0  0  0  0
   -1.1206   -0.6741    0.9594 C   0  0  0  0  0  0  0  0  0  0  0  0
   -1.8406   -2.9029   -1.5981 H   0  0  0  0  0  0  0  0  0  0  0  0
   -1.5409   -0.8086   -2.9240 H   0  0  0  0  0  0  0  0  0  0  0  0
   -1.5851    3.0196   -0.6762 H   0  0  0  0  0  0  0  0  0  0  0  0
   -0.8131    3.4656   -2.2529 H   0  0  0  0  0  0  0  0  0  0  0  0
    0.1668    2.8326   -0.8903 H   0  0  0  0  0  0  0  0  0  0  0  0
   -0.7125    1.3733    0.7632 H   0  0  0  0  0  0  0  0  0  0  0  0
   -1.0083   -0.6278    2.0377 H   0  0  0  0  0  0  0  0  0  0  0  0
   -1.1620    3.3947    2.0412 B   0  0  0  0  0  0  0  0  0  0  0  0
   -0.3119    4.1428    1.2088 F   0  0  0  0  0  0  0  0  0  0  0  0
   -2.2894    2.9800    1.2684 F   0  0  0  0  0  0  0  0  0  0  0  0
   -0.4701    2.1961    2.4228 F   0  0  0  0  0  0  0  0  0  0  0  0
   -1.5594    4.0983    3.1538 F   0  0  0  0  0  0  0  0  0  0  0  0
  1 10  1  0  0  0  0
  1  2  1  0  0  0  0
  2  3  1  0  0  0  0
  4  1  2  0  0  0  0
  5  6  2  0  0  0  0
  5  4  1  0  0  0  0
  6  9  1  0  0  0  0
  7  8  1  0  0  0  0
  7  6  1  0  0  0  0
  8 15  1  0  0  0  0
  8 13  1  0  0  0  0
  9 16  1  0  0  0  0
  9 10  2  0  0  0  0
 10 17  1  0  0  0  0
 11  4  1  0  0  0  0
 12  5  1  0  0  0  0
 14  8  1  0  0  0  0
 18 21  1  0  0  0  0
 18 22  1  0  0  0  0
 19 18  1  0  0  0  0
 20 18  1  0  0  0  0
M  RAD  2   2   2   3   3
M  END
