Coordinates from ORCA-job 4-MeOPhN2+~BF4-_B3LYPG-6-31G_dp-NX-Scan-d89-09-n800
 OpenBabel11261920503D

 22 21  0  0  0  0  0  0  0  0999 V2000
   -1.2338   -1.4779    0.4346 C   0  0  0  0  0  0  0  0  0  0  0  0
   -1.3647   -2.4144    1.3955 N   0  0  0  0  0  0  0  0  0  0  0  0
   -1.4564   -3.1485    2.2410 N   0  0  0  0  0  0  0  0  0  0  0  0
   -1.6313   -1.7597   -0.9040 C   0  0  0  0  0  0  0  0  0  0  0  0
   -1.5588   -0.7399   -1.8147 C   0  0  0  0  0  0  0  0  0  0  0  0
   -1.1136    0.5556   -1.4107 C   0  0  0  0  0  0  0  0  0  0  0  0
   -1.1751    1.4989   -2.3402 O   0  0  0  0  0  0  0  0  0  0  0  0
   -0.8366    2.8609   -1.9754 C   0  0  0  0  0  0  0  0  0  0  0  0
   -0.6686    0.7884   -0.0964 C   0  0  0  0  0  0  0  0  0  0  0  0
   -0.7517   -0.2123    0.8426 C   0  0  0  0  0  0  0  0  0  0  0  0
   -1.9924   -2.7443   -1.1784 H   0  0  0  0  0  0  0  0  0  0  0  0
   -1.8683   -0.8825   -2.8436 H   0  0  0  0  0  0  0  0  0  0  0  0
   -1.3325    3.1542   -1.0472 H   0  0  0  0  0  0  0  0  0  0  0  0
   -1.1748    3.4689   -2.8129 H   0  0  0  0  0  0  0  0  0  0  0  0
    0.2472    2.9516   -1.8584 H   0  0  0  0  0  0  0  0  0  0  0  0
   -0.3746    1.7714    0.2548 H   0  0  0  0  0  0  0  0  0  0  0  0
   -0.5017    0.0236    1.8746 H   0  0  0  0  0  0  0  0  0  0  0  0
   -1.4644    2.4813    2.5023 B   0  0  0  0  0  0  0  0  0  0  0  0
   -0.3687    1.6427    2.8839 F   0  0  0  0  0  0  0  0  0  0  0  0
   -1.0388    3.2458    1.3643 F   0  0  0  0  0  0  0  0  0  0  0  0
   -2.5201    1.6426    2.1005 F   0  0  0  0  0  0  0  0  0  0  0  0
   -1.8243    3.3134    3.5344 F   0  0  0  0  0  0  0  0  0  0  0  0
  1 10  1  0  0  0  0
  1  2  1  0  0  0  0
  2  3  1  0  0  0  0
  4  1  2  0  0  0  0
  5  6  2  0  0  0  0
  5  4  1  0  0  0  0
  6  9  1  0  0  0  0
  7  8  1  0  0  0  0
  7  6  1  0  0  0  0
  8 15  1  0  0  0  0
  8 13  1  0  0  0  0
  9 16  1  0  0  0  0
  9 10  2  0  0  0  0
 10 17  1  0  0  0  0
 11  4  1  0  0  0  0
 12  5  1  0  0  0  0
 14  8  1  0  0  0  0
 18 19  1  0  0  0  0
 18 22  1  0  0  0  0
 20 18  1  0  0  0  0
 21 18  1  0  0  0  0
M  RAD  2   2   2   3   3
M  END
