Coordinates from ORCA-job 4-MeOPhN2+~BF4-_B3LYPG-6-31G_dp-NX-Scan-d89-09-n800
 OpenBabel11261920503D

 22 21  0  0  0  0  0  0  0  0999 V2000
   -1.2918   -1.5200    0.4309 C   0  0  0  0  0  0  0  0  0  0  0  0
   -1.4823   -2.4999    1.3351 N   0  0  0  0  0  0  0  0  0  0  0  0
   -1.6370   -3.3091    2.1003 N   0  0  0  0  0  0  0  0  0  0  0  0
   -1.6826   -1.7434   -0.9221 C   0  0  0  0  0  0  0  0  0  0  0  0
   -1.5540   -0.7066   -1.8059 C   0  0  0  0  0  0  0  0  0  0  0  0
   -1.0542    0.5549   -1.3626 C   0  0  0  0  0  0  0  0  0  0  0  0
   -1.0713    1.5259   -2.2601 O   0  0  0  0  0  0  0  0  0  0  0  0
   -0.7436    2.8777   -1.8377 C   0  0  0  0  0  0  0  0  0  0  0  0
   -0.5994    0.7257   -0.0396 C   0  0  0  0  0  0  0  0  0  0  0  0
   -0.7474   -0.2884    0.8749 C   0  0  0  0  0  0  0  0  0  0  0  0
   -2.0853   -2.7031   -1.2255 H   0  0  0  0  0  0  0  0  0  0  0  0
   -1.8621   -0.8071   -2.8401 H   0  0  0  0  0  0  0  0  0  0  0  0
   -1.2892    3.1325   -0.9251 H   0  0  0  0  0  0  0  0  0  0  0  0
   -1.0428    3.5096   -2.6725 H   0  0  0  0  0  0  0  0  0  0  0  0
    0.3347    2.9606   -1.6739 H   0  0  0  0  0  0  0  0  0  0  0  0
   -0.2238    1.6672    0.3395 H   0  0  0  0  0  0  0  0  0  0  0  0
   -0.5169   -0.0994    1.9160 H   0  0  0  0  0  0  0  0  0  0  0  0
   -1.5053    2.5696    2.3669 B   0  0  0  0  0  0  0  0  0  0  0  0
   -0.0982    2.4135    2.1690 F   0  0  0  0  0  0  0  0  0  0  0  0
   -2.0728    2.9129    1.1071 F   0  0  0  0  0  0  0  0  0  0  0  0
   -2.0152    1.3083    2.7642 F   0  0  0  0  0  0  0  0  0  0  0  0
   -1.7631    3.5384    3.3077 F   0  0  0  0  0  0  0  0  0  0  0  0
  1 10  1  0  0  0  0
  1  2  1  0  0  0  0
  2  3  1  0  0  0  0
  4  1  2  0  0  0  0
  5  6  2  0  0  0  0
  5  4  1  0  0  0  0
  6  9  1  0  0  0  0
  7  8  1  0  0  0  0
  7  6  1  0  0  0  0
  8 15  1  0  0  0  0
  8 13  1  0  0  0  0
  9 16  1  0  0  0  0
  9 10  2  0  0  0  0
 10 17  1  0  0  0  0
 11  4  1  0  0  0  0
 12  5  1  0  0  0  0
 14  8  1  0  0  0  0
 18 21  1  0  0  0  0
 18 22  1  0  0  0  0
 19 18  1  0  0  0  0
 20 18  1  0  0  0  0
M  RAD  2   2   2   3   3
M  END
