Coordinates from ORCA-job 4-MeOPhN2+~BF4-_B3LYPG-6-31G_dp-NX-Scan-d89-09-n800
 OpenBabel11261920503D

 22 21  0  0  0  0  0  0  0  0999 V2000
   -1.2295   -1.4500    0.4380 C   0  0  0  0  0  0  0  0  0  0  0  0
   -1.3669   -2.3658    1.4182 N   0  0  0  0  0  0  0  0  0  0  0  0
   -1.4616   -3.0736    2.2851 N   0  0  0  0  0  0  0  0  0  0  0  0
   -1.6407   -1.7440   -0.8934 C   0  0  0  0  0  0  0  0  0  0  0  0
   -1.5660   -0.7344   -1.8157 C   0  0  0  0  0  0  0  0  0  0  0  0
   -1.1084    0.5621   -1.4287 C   0  0  0  0  0  0  0  0  0  0  0  0
   -1.1734    1.4977   -2.3670 O   0  0  0  0  0  0  0  0  0  0  0  0
   -0.8307    2.8604   -2.0146 C   0  0  0  0  0  0  0  0  0  0  0  0
   -0.6497    0.8050   -0.1219 C   0  0  0  0  0  0  0  0  0  0  0  0
   -0.7319   -0.1860    0.8279 C   0  0  0  0  0  0  0  0  0  0  0  0
   -2.0136   -2.7279   -1.1541 H   0  0  0  0  0  0  0  0  0  0  0  0
   -1.8852   -0.8849   -2.8404 H   0  0  0  0  0  0  0  0  0  0  0  0
   -1.3291    3.1645   -1.0910 H   0  0  0  0  0  0  0  0  0  0  0  0
   -1.1655    3.4628   -2.8576 H   0  0  0  0  0  0  0  0  0  0  0  0
    0.2530    2.9504   -1.8955 H   0  0  0  0  0  0  0  0  0  0  0  0
   -0.3505    1.7887    0.2218 H   0  0  0  0  0  0  0  0  0  0  0  0
   -0.4751    0.0553    1.8575 H   0  0  0  0  0  0  0  0  0  0  0  0
   -1.4767    2.4251    2.5392 B   0  0  0  0  0  0  0  0  0  0  0  0
   -0.3910    1.5842    2.9469 F   0  0  0  0  0  0  0  0  0  0  0  0
   -1.0241    3.1989    1.4205 F   0  0  0  0  0  0  0  0  0  0  0  0
   -2.5186    1.5844    2.1031 F   0  0  0  0  0  0  0  0  0  0  0  0
   -1.8685    3.2466    3.5681 F   0  0  0  0  0  0  0  0  0  0  0  0
  1 10  1  0  0  0  0
  1  2  1  0  0  0  0
  2  3  1  0  0  0  0
  4  1  2  0  0  0  0
  5  6  2  0  0  0  0
  5  4  1  0  0  0  0
  6  9  1  0  0  0  0
  7  8  1  0  0  0  0
  7  6  1  0  0  0  0
  8 15  1  0  0  0  0
  8 13  1  0  0  0  0
  9 16  1  0  0  0  0
  9 10  2  0  0  0  0
 10 17  1  0  0  0  0
 11  4  1  0  0  0  0
 12  5  1  0  0  0  0
 14  8  1  0  0  0  0
 18 19  1  0  0  0  0
 18 22  1  0  0  0  0
 20 18  1  0  0  0  0
 21 18  1  0  0  0  0
M  RAD  2   2   2   3   3
M  END
