Coordinates from ORCA-job 4-MeOPhN2+~BF4-_B3LYPG-6-31G_dp-NX-Scan-d89-09-n800
 OpenBabel11261920503D

 22 21  0  0  0  0  0  0  0  0999 V2000
   -1.4978   -1.9558    0.2665 C   0  0  0  0  0  0  0  0  0  0  0  0
   -1.7323   -3.0791    0.9624 N   0  0  0  0  0  0  0  0  0  0  0  0
   -1.9268   -4.0077    1.5701 N   0  0  0  0  0  0  0  0  0  0  0  0
   -1.6113   -1.9753   -1.1539 C   0  0  0  0  0  0  0  0  0  0  0  0
   -1.3948   -0.8065   -1.8288 C   0  0  0  0  0  0  0  0  0  0  0  0
   -1.0803    0.3968   -1.1230 C   0  0  0  0  0  0  0  0  0  0  0  0
   -0.9365    1.4608   -1.8741 O   0  0  0  0  0  0  0  0  0  0  0  0
   -0.7642    2.7785   -1.2550 C   0  0  0  0  0  0  0  0  0  0  0  0
   -0.9431    0.3927    0.2946 C   0  0  0  0  0  0  0  0  0  0  0  0
   -1.1530   -0.7735    0.9813 C   0  0  0  0  0  0  0  0  0  0  0  0
   -1.8695   -2.8929   -1.6704 H   0  0  0  0  0  0  0  0  0  0  0  0
   -1.4762   -0.7581   -2.9089 H   0  0  0  0  0  0  0  0  0  0  0  0
   -1.6313    3.0034   -0.6364 H   0  0  0  0  0  0  0  0  0  0  0  0
   -0.6713    3.4627   -2.0948 H   0  0  0  0  0  0  0  0  0  0  0  0
    0.1284    2.7922   -0.6300 H   0  0  0  0  0  0  0  0  0  0  0  0
   -0.6758    1.2881    0.8574 H   0  0  0  0  0  0  0  0  0  0  0  0
   -1.0649   -0.7958    2.0624 H   0  0  0  0  0  0  0  0  0  0  0  0
   -1.1510    3.5297    1.8904 B   0  0  0  0  0  0  0  0  0  0  0  0
   -0.9842    4.5694    0.9690 F   0  0  0  0  0  0  0  0  0  0  0  0
   -2.2525    2.7273    1.4717 F   0  0  0  0  0  0  0  0  0  0  0  0
    0.0144    2.6839    1.8171 F   0  0  0  0  0  0  0  0  0  0  0  0
   -1.3297    3.9793    3.1789 F   0  0  0  0  0  0  0  0  0  0  0  0
  1  2  1  0  0  0  0
  1 10  2  0  0  0  0
  2  3  1  0  0  0  0
  4  1  1  0  0  0  0
  5  4  2  0  0  0  0
  5  6  1  0  0  0  0
  6  9  2  0  0  0  0
  7  8  1  0  0  0  0
  7  6  1  0  0  0  0
  8 13  1  0  0  0  0
  8 15  1  0  0  0  0
  9 16  1  0  0  0  0
  9 10  1  0  0  0  0
 10 17  1  0  0  0  0
 11  4  1  0  0  0  0
 12  5  1  0  0  0  0
 14  8  1  0  0  0  0
 18 22  1  0  0  0  0
 19 18  1  0  0  0  0
 20 18  1  0  0  0  0
 21 18  1  0  0  0  0
M  RAD  2   2   2   3   3
M  END
