Coordinates from ORCA-job 4-MeOPhN2+~BF4-_B3LYPG-6-31G_dp-NX-Scan-d89-09-n800
 OpenBabel11261920503D

 22 21  0  0  0  0  0  0  0  0999 V2000
   -1.2238   -1.2548    0.4681 C   0  0  0  0  0  0  0  0  0  0  0  0
   -1.3168   -2.1182    1.5054 N   0  0  0  0  0  0  0  0  0  0  0  0
   -1.3869   -2.7990    2.3942 N   0  0  0  0  0  0  0  0  0  0  0  0
   -1.6256   -1.6614   -0.8346 C   0  0  0  0  0  0  0  0  0  0  0  0
   -1.5690   -0.7238   -1.8306 C   0  0  0  0  0  0  0  0  0  0  0  0
   -1.1449    0.6087   -1.5448 C   0  0  0  0  0  0  0  0  0  0  0  0
   -1.1729    1.4392   -2.5855 O   0  0  0  0  0  0  0  0  0  0  0  0
   -0.8230    2.8216   -2.3859 C   0  0  0  0  0  0  0  0  0  0  0  0
   -0.7452    0.9797   -0.2501 C   0  0  0  0  0  0  0  0  0  0  0  0
   -0.7789    0.0509    0.7701 C   0  0  0  0  0  0  0  0  0  0  0  0
   -1.9701   -2.6721   -1.0211 H   0  0  0  0  0  0  0  0  0  0  0  0
   -1.8658   -0.9622   -2.8453 H   0  0  0  0  0  0  0  0  0  0  0  0
   -1.4823    3.2841   -1.6465 H   0  0  0  0  0  0  0  0  0  0  0  0
   -0.9566    3.2943   -3.3578 H   0  0  0  0  0  0  0  0  0  0  0  0
    0.2187    2.9134   -2.0653 H   0  0  0  0  0  0  0  0  0  0  0  0
   -0.4769    1.9904    0.0318 H   0  0  0  0  0  0  0  0  0  0  0  0
   -0.4991    0.3187    1.7909 H   0  0  0  0  0  0  0  0  0  0  0  0
   -1.4563    2.1292    2.9317 B   0  0  0  0  0  0  0  0  0  0  0  0
   -0.5864    1.0939    3.4173 F   0  0  0  0  0  0  0  0  0  0  0  0
   -0.7293    2.8643    1.9565 F   0  0  0  0  0  0  0  0  0  0  0  0
   -2.5376    1.4856    2.2881 F   0  0  0  0  0  0  0  0  0  0  0  0
   -1.8750    2.9371    3.9599 F   0  0  0  0  0  0  0  0  0  0  0  0
  1 10  1  0  0  0  0
  1  2  1  0  0  0  0
  2  3  1  0  0  0  0
  4  1  2  0  0  0  0
  5  6  2  0  0  0  0
  5  4  1  0  0  0  0
  6  9  1  0  0  0  0
  7  8  1  0  0  0  0
  7  6  1  0  0  0  0
  8 15  1  0  0  0  0
  8 13  1  0  0  0  0
  9 16  1  0  0  0  0
  9 10  2  0  0  0  0
 10 17  1  0  0  0  0
 11  4  1  0  0  0  0
 12  5  1  0  0  0  0
 14  8  1  0  0  0  0
 18 19  1  0  0  0  0
 18 22  1  0  0  0  0
 20 18  1  0  0  0  0
 21 18  1  0  0  0  0
M  RAD  2   2   2   3   3
M  END
