Coordinates from ORCA-job 4-MeOPhN2+~BF4-_B3LYPG-6-31G_dp-NX-Scan-d89-09-n800
 OpenBabel11261920503D

 22 21  0  0  0  0  0  0  0  0999 V2000
   -1.3986   -1.7704    0.3507 C   0  0  0  0  0  0  0  0  0  0  0  0
   -1.5940   -2.8681    1.1078 N   0  0  0  0  0  0  0  0  0  0  0  0
   -1.7620   -3.8062    1.7093 N   0  0  0  0  0  0  0  0  0  0  0  0
   -1.5753   -1.8989   -1.0603 C   0  0  0  0  0  0  0  0  0  0  0  0
   -1.4170   -0.7852   -1.8379 C   0  0  0  0  0  0  0  0  0  0  0  0
   -1.0866    0.4693   -1.2410 C   0  0  0  0  0  0  0  0  0  0  0  0
   -1.0235    1.4932   -2.0635 O   0  0  0  0  0  0  0  0  0  0  0  0
   -0.8348    2.8396   -1.5236 C   0  0  0  0  0  0  0  0  0  0  0  0
   -0.8634    0.5662    0.1553 C   0  0  0  0  0  0  0  0  0  0  0  0
   -1.0422   -0.5329    0.9580 C   0  0  0  0  0  0  0  0  0  0  0  0
   -1.8409   -2.8580   -1.4906 H   0  0  0  0  0  0  0  0  0  0  0  0
   -1.5597   -0.8247   -2.9118 H   0  0  0  0  0  0  0  0  0  0  0  0
   -1.5848    3.0441   -0.7564 H   0  0  0  0  0  0  0  0  0  0  0  0
   -0.9384    3.4909   -2.3892 H   0  0  0  0  0  0  0  0  0  0  0  0
    0.1564    2.9310   -1.0787 H   0  0  0  0  0  0  0  0  0  0  0  0
   -0.5720    1.4990    0.6214 H   0  0  0  0  0  0  0  0  0  0  0  0
   -0.9314   -0.4137    2.0309 H   0  0  0  0  0  0  0  0  0  0  0  0
   -1.2366    3.1143    2.1396 B   0  0  0  0  0  0  0  0  0  0  0  0
   -0.0982    3.4343    1.3426 F   0  0  0  0  0  0  0  0  0  0  0  0
   -2.3418    2.9948    1.2555 F   0  0  0  0  0  0  0  0  0  0  0  0
   -1.0029    1.8341    2.7240 F   0  0  0  0  0  0  0  0  0  0  0  0
   -1.4561    4.0670    3.1046 F   0  0  0  0  0  0  0  0  0  0  0  0
  1 10  1  0  0  0  0
  1  2  1  0  0  0  0
  2  3  1  0  0  0  0
  4  1  2  0  0  0  0
  5  6  2  0  0  0  0
  5  4  1  0  0  0  0
  6  9  1  0  0  0  0
  7  8  1  0  0  0  0
  7  6  1  0  0  0  0
  8 15  1  0  0  0  0
  8 13  1  0  0  0  0
  9 16  1  0  0  0  0
  9 10  2  0  0  0  0
 10 17  1  0  0  0  0
 11  4  1  0  0  0  0
 12  5  1  0  0  0  0
 14  8  1  0  0  0  0
 18 21  1  0  0  0  0
 18 22  1  0  0  0  0
 19 18  1  0  0  0  0
 20 18  1  0  0  0  0
M  RAD  2   2   2   3   3
M  END
