Coordinates from ORCA-job 4-MeOPhN2+~BF4-_B3LYPG-6-31G_dp-NX-Scan-d89-09-n800
 OpenBabel11261920503D

 22 21  0  0  0  0  0  0  0  0999 V2000
   -1.2281   -1.4400    0.4403 C   0  0  0  0  0  0  0  0  0  0  0  0
   -1.3666   -2.3530    1.4234 N   0  0  0  0  0  0  0  0  0  0  0  0
   -1.4633   -3.0600    2.2907 N   0  0  0  0  0  0  0  0  0  0  0  0
   -1.6432   -1.7385   -0.8889 C   0  0  0  0  0  0  0  0  0  0  0  0
   -1.5686   -0.7330   -1.8156 C   0  0  0  0  0  0  0  0  0  0  0  0
   -1.1075    0.5640   -1.4349 C   0  0  0  0  0  0  0  0  0  0  0  0
   -1.1732    1.4961   -2.3771 O   0  0  0  0  0  0  0  0  0  0  0  0
   -0.8296    2.8595   -2.0298 C   0  0  0  0  0  0  0  0  0  0  0  0
   -0.6453    0.8112   -0.1305 C   0  0  0  0  0  0  0  0  0  0  0  0
   -0.7266   -0.1756    0.8241 C   0  0  0  0  0  0  0  0  0  0  0  0
   -2.0189   -2.7226   -1.1445 H   0  0  0  0  0  0  0  0  0  0  0  0
   -1.8907   -0.8871   -2.8389 H   0  0  0  0  0  0  0  0  0  0  0  0
   -1.3309    3.1681   -1.1091 H   0  0  0  0  0  0  0  0  0  0  0  0
   -1.1614    3.4591   -2.8760 H   0  0  0  0  0  0  0  0  0  0  0  0
    0.2538    2.9493   -1.9077 H   0  0  0  0  0  0  0  0  0  0  0  0
   -0.3442    1.7959    0.2087 H   0  0  0  0  0  0  0  0  0  0  0  0
   -0.4665    0.0692    1.8526 H   0  0  0  0  0  0  0  0  0  0  0  0
   -1.4793    2.4092    2.5550 B   0  0  0  0  0  0  0  0  0  0  0  0
   -0.4016    1.5651    2.9773 F   0  0  0  0  0  0  0  0  0  0  0  0
   -1.0106    3.1832    1.4443 F   0  0  0  0  0  0  0  0  0  0  0  0
   -2.5169    1.5701    2.1036 F   0  0  0  0  0  0  0  0  0  0  0  0
   -1.8847    3.2294    3.5796 F   0  0  0  0  0  0  0  0  0  0  0  0
  1 10  1  0  0  0  0
  1  2  1  0  0  0  0
  2  3  1  0  0  0  0
  4  1  2  0  0  0  0
  5  6  2  0  0  0  0
  5  4  1  0  0  0  0
  6  9  1  0  0  0  0
  7  8  1  0  0  0  0
  7  6  1  0  0  0  0
  8 15  1  0  0  0  0
  8 13  1  0  0  0  0
  9 16  1  0  0  0  0
  9 10  2  0  0  0  0
 10 17  1  0  0  0  0
 11  4  1  0  0  0  0
 12  5  1  0  0  0  0
 14  8  1  0  0  0  0
 18 19  1  0  0  0  0
 18 22  1  0  0  0  0
 20 18  1  0  0  0  0
 21 18  1  0  0  0  0
M  RAD  2   2   2   3   3
M  END
