Coordinates from ORCA-job 4-MeOPhN2+~BF4-_B3LYPG-6-31G_dp-NX-Scan-d89-09-n800
 OpenBabel11261920503D

 22 21  0  0  0  0  0  0  0  0999 V2000
   -1.2393   -1.5134    0.4341 C   0  0  0  0  0  0  0  0  0  0  0  0
   -1.3553   -2.4858    1.3601 N   0  0  0  0  0  0  0  0  0  0  0  0
   -1.4426   -3.2736    2.1569 N   0  0  0  0  0  0  0  0  0  0  0  0
   -1.6206   -1.7786   -0.9136 C   0  0  0  0  0  0  0  0  0  0  0  0
   -1.5538   -0.7461   -1.8095 C   0  0  0  0  0  0  0  0  0  0  0  0
   -1.1246    0.5477   -1.3838 C   0  0  0  0  0  0  0  0  0  0  0  0
   -1.1791    1.4992   -2.3034 O   0  0  0  0  0  0  0  0  0  0  0  0
   -0.8413    2.8603   -1.9297 C   0  0  0  0  0  0  0  0  0  0  0  0
   -0.6989    0.7675   -0.0594 C   0  0  0  0  0  0  0  0  0  0  0  0
   -0.7804   -0.2457    0.8658 C   0  0  0  0  0  0  0  0  0  0  0  0
   -1.9644   -2.7645   -1.2052 H   0  0  0  0  0  0  0  0  0  0  0  0
   -1.8514   -0.8783   -2.8432 H   0  0  0  0  0  0  0  0  0  0  0  0
   -1.3352    3.1492   -0.9993 H   0  0  0  0  0  0  0  0  0  0  0  0
   -1.1789    3.4716   -2.7651 H   0  0  0  0  0  0  0  0  0  0  0  0
    0.2428    2.9487   -1.8131 H   0  0  0  0  0  0  0  0  0  0  0  0
   -0.4098    1.7494    0.2991 H   0  0  0  0  0  0  0  0  0  0  0  0
   -0.5362   -0.0176    1.9001 H   0  0  0  0  0  0  0  0  0  0  0  0
   -1.4483    2.5610    2.4585 B   0  0  0  0  0  0  0  0  0  0  0  0
   -0.3403    1.7298    2.8137 F   0  0  0  0  0  0  0  0  0  0  0  0
   -1.0550    3.3085    1.2958 F   0  0  0  0  0  0  0  0  0  0  0  0
   -2.5166    1.7204    2.0996 F   0  0  0  0  0  0  0  0  0  0  0  0
   -1.7746    3.4100    3.4880 F   0  0  0  0  0  0  0  0  0  0  0  0
  1 10  1  0  0  0  0
  1  2  1  0  0  0  0
  2  3  1  0  0  0  0
  4  1  2  0  0  0  0
  5  6  2  0  0  0  0
  5  4  1  0  0  0  0
  6  9  1  0  0  0  0
  7  8  1  0  0  0  0
  7  6  1  0  0  0  0
  8 15  1  0  0  0  0
  8 13  1  0  0  0  0
  9 16  1  0  0  0  0
  9 10  2  0  0  0  0
 10 17  1  0  0  0  0
 11  4  1  0  0  0  0
 12  5  1  0  0  0  0
 14  8  1  0  0  0  0
 18 19  1  0  0  0  0
 18 22  1  0  0  0  0
 20 18  1  0  0  0  0
 21 18  1  0  0  0  0
M  RAD  2   2   2   3   3
M  END
