Coordinates from ORCA-job 4-MeOPhN2+~BF4-_B3LYPG-6-31G_dp-NX-Scan-d89-09-n800
 OpenBabel11261920503D

 22 21  0  0  0  0  0  0  0  0999 V2000
   -1.4092   -1.7920    0.3438 C   0  0  0  0  0  0  0  0  0  0  0  0
   -1.6019   -2.8975    1.0903 N   0  0  0  0  0  0  0  0  0  0  0  0
   -1.7682   -3.8435    1.6801 N   0  0  0  0  0  0  0  0  0  0  0  0
   -1.5811   -1.9099   -1.0688 C   0  0  0  0  0  0  0  0  0  0  0  0
   -1.4207   -0.7909   -1.8382 C   0  0  0  0  0  0  0  0  0  0  0  0
   -1.0933    0.4600   -1.2321 C   0  0  0  0  0  0  0  0  0  0  0  0
   -1.0217    1.4876   -2.0482 O   0  0  0  0  0  0  0  0  0  0  0  0
   -0.8288    2.8314   -1.5018 C   0  0  0  0  0  0  0  0  0  0  0  0
   -0.8794    0.5478    0.1668 C   0  0  0  0  0  0  0  0  0  0  0  0
   -1.0570   -0.5575    0.9605 C   0  0  0  0  0  0  0  0  0  0  0  0
   -1.8437   -2.8663   -1.5069 H   0  0  0  0  0  0  0  0  0  0  0  0
   -1.5581   -0.8236   -2.9131 H   0  0  0  0  0  0  0  0  0  0  0  0
   -1.5870    3.0400   -0.7442 H   0  0  0  0  0  0  0  0  0  0  0  0
   -0.9149    3.4856   -2.3671 H   0  0  0  0  0  0  0  0  0  0  0  0
    0.1565    2.9142   -1.0425 H   0  0  0  0  0  0  0  0  0  0  0  0
   -0.5944    1.4751    0.6445 H   0  0  0  0  0  0  0  0  0  0  0  0
   -0.9440   -0.4488    2.0343 H   0  0  0  0  0  0  0  0  0  0  0  0
   -1.2193    3.1690    2.1235 B   0  0  0  0  0  0  0  0  0  0  0  0
   -0.1259    3.5870    1.3179 F   0  0  0  0  0  0  0  0  0  0  0  0
   -2.3304    2.9731    1.2568 F   0  0  0  0  0  0  0  0  0  0  0  0
   -0.8807    1.8973    2.6804 F   0  0  0  0  0  0  0  0  0  0  0  0
   -1.5006    4.0818    3.1104 F   0  0  0  0  0  0  0  0  0  0  0  0
  1 10  1  0  0  0  0
  1  2  1  0  0  0  0
  2  3  1  0  0  0  0
  4  1  2  0  0  0  0
  5  6  2  0  0  0  0
  5  4  1  0  0  0  0
  6  9  1  0  0  0  0
  7  8  1  0  0  0  0
  7  6  1  0  0  0  0
  8 15  1  0  0  0  0
  8 13  1  0  0  0  0
  9 16  1  0  0  0  0
  9 10  2  0  0  0  0
 10 17  1  0  0  0  0
 11  4  1  0  0  0  0
 12  5  1  0  0  0  0
 14  8  1  0  0  0  0
 18 21  1  0  0  0  0
 18 22  1  0  0  0  0
 19 18  1  0  0  0  0
 20 18  1  0  0  0  0
M  RAD  2   2   2   3   3
M  END
