Coordinates from ORCA-job 4-MeOPhN2+~BF4-_B3LYPG-6-31G_dp-NX-Scan-d89-09-n800
 OpenBabel11261920503D

 22 21  0  0  0  0  0  0  0  0999 V2000
   -1.3845   -1.7151    0.3617 C   0  0  0  0  0  0  0  0  0  0  0  0
   -1.5932   -2.7799    1.1587 N   0  0  0  0  0  0  0  0  0  0  0  0
   -1.7651   -3.6733    1.8223 N   0  0  0  0  0  0  0  0  0  0  0  0
   -1.6113   -1.8588   -1.0395 C   0  0  0  0  0  0  0  0  0  0  0  0
   -1.4453   -0.7583   -1.8348 C   0  0  0  0  0  0  0  0  0  0  0  0
   -1.0616    0.4927   -1.2628 C   0  0  0  0  0  0  0  0  0  0  0  0
   -1.0122    1.5108   -2.0968 O   0  0  0  0  0  0  0  0  0  0  0  0
   -0.8046    2.8561   -1.5660 C   0  0  0  0  0  0  0  0  0  0  0  0
   -0.7786    0.5978    0.1203 C   0  0  0  0  0  0  0  0  0  0  0  0
   -0.9683   -0.4853    0.9416 C   0  0  0  0  0  0  0  0  0  0  0  0
   -1.9214   -2.8140   -1.4480 H   0  0  0  0  0  0  0  0  0  0  0  0
   -1.6284   -0.8036   -2.9023 H   0  0  0  0  0  0  0  0  0  0  0  0
   -1.5177    3.0528   -0.7625 H   0  0  0  0  0  0  0  0  0  0  0  0
   -0.9562    3.5095   -2.4232 H   0  0  0  0  0  0  0  0  0  0  0  0
    0.2103    2.9532   -1.1777 H   0  0  0  0  0  0  0  0  0  0  0  0
   -0.4414    1.5273    0.5683 H   0  0  0  0  0  0  0  0  0  0  0  0
   -0.8340   -0.3561    2.0105 H   0  0  0  0  0  0  0  0  0  0  0  0
   -1.3121    2.9763    2.1632 B   0  0  0  0  0  0  0  0  0  0  0  0
   -0.1355    3.2526    1.3960 F   0  0  0  0  0  0  0  0  0  0  0  0
   -2.3798    2.8519    1.2376 F   0  0  0  0  0  0  0  0  0  0  0  0
   -1.1165    1.7166    2.7950 F   0  0  0  0  0  0  0  0  0  0  0  0
   -1.5465    3.9667    3.0848 F   0  0  0  0  0  0  0  0  0  0  0  0
  1 10  1  0  0  0  0
  1  2  1  0  0  0  0
  2  3  1  0  0  0  0
  4  1  2  0  0  0  0
  5  6  2  0  0  0  0
  5  4  1  0  0  0  0
  6  9  1  0  0  0  0
  7  8  1  0  0  0  0
  7  6  1  0  0  0  0
  8 15  1  0  0  0  0
  8 13  1  0  0  0  0
  9 16  1  0  0  0  0
  9 10  2  0  0  0  0
 10 17  1  0  0  0  0
 11  4  1  0  0  0  0
 12  5  1  0  0  0  0
 14  8  1  0  0  0  0
 18 21  1  0  0  0  0
 18 22  1  0  0  0  0
 19 18  1  0  0  0  0
 20 18  1  0  0  0  0
M  RAD  2   2   2   3   3
M  END
