Coordinates from ORCA-job 4-MeOPhN2+~BF4-_B3LYPG-6-31G_dp-NX-Scan-d89-09-n800
 OpenBabel11261920503D

 22 21  0  0  0  0  0  0  0  0999 V2000
   -1.3394   -1.6196    0.3828 C   0  0  0  0  0  0  0  0  0  0  0  0
   -1.5447   -2.6277    1.2502 N   0  0  0  0  0  0  0  0  0  0  0  0
   -1.7029   -3.4475    2.0042 N   0  0  0  0  0  0  0  0  0  0  0  0
   -1.6592   -1.8009   -0.9943 C   0  0  0  0  0  0  0  0  0  0  0  0
   -1.5084   -0.7290   -1.8321 C   0  0  0  0  0  0  0  0  0  0  0  0
   -1.0528    0.5238   -1.3209 C   0  0  0  0  0  0  0  0  0  0  0  0
   -1.0408    1.5255   -2.1811 O   0  0  0  0  0  0  0  0  0  0  0  0
   -0.7602    2.8684   -1.6899 C   0  0  0  0  0  0  0  0  0  0  0  0
   -0.6678    0.6568    0.0310 C   0  0  0  0  0  0  0  0  0  0  0  0
   -0.8427   -0.3932    0.8969 C   0  0  0  0  0  0  0  0  0  0  0  0
   -2.0270   -2.7559   -1.3520 H   0  0  0  0  0  0  0  0  0  0  0  0
   -1.7636   -0.7970   -2.8833 H   0  0  0  0  0  0  0  0  0  0  0  0
   -1.3715    3.0810   -0.8089 H   0  0  0  0  0  0  0  0  0  0  0  0
   -1.0087    3.5231   -2.5236 H   0  0  0  0  0  0  0  0  0  0  0  0
    0.3009    2.9564   -1.4433 H   0  0  0  0  0  0  0  0  0  0  0  0
   -0.2984    1.5905    0.4473 H   0  0  0  0  0  0  0  0  0  0  0  0
   -0.6699   -0.2361    1.9562 H   0  0  0  0  0  0  0  0  0  0  0  0
   -1.4236    2.7623    2.2674 B   0  0  0  0  0  0  0  0  0  0  0  0
   -0.0903    2.8726    1.7625 F   0  0  0  0  0  0  0  0  0  0  0  0
   -2.2914    2.8068    1.1425 F   0  0  0  0  0  0  0  0  0  0  0  0
   -1.5434    1.4866    2.8792 F   0  0  0  0  0  0  0  0  0  0  0  0
   -1.6982    3.7728    3.1558 F   0  0  0  0  0  0  0  0  0  0  0  0
  1 10  1  0  0  0  0
  1  2  1  0  0  0  0
  2  3  1  0  0  0  0
  4  1  2  0  0  0  0
  5  6  2  0  0  0  0
  5  4  1  0  0  0  0
  6  9  1  0  0  0  0
  7  8  1  0  0  0  0
  7  6  1  0  0  0  0
  8 15  1  0  0  0  0
  8 13  1  0  0  0  0
  9 16  1  0  0  0  0
  9 10  2  0  0  0  0
 10 17  1  0  0  0  0
 11  4  1  0  0  0  0
 12  5  1  0  0  0  0
 14  8  1  0  0  0  0
 18 21  1  0  0  0  0
 18 22  1  0  0  0  0
 19 18  1  0  0  0  0
 20 18  1  0  0  0  0
M  RAD  2   2   2   3   3
M  END
