Coordinates from ORCA-job 4-MeOPhN2+~BF4-_B3LYPG-6-31G_dp-NX-Scan-d89-09-n800
 OpenBabel11261920503D

 22 21  0  0  0  0  0  0  0  0999 V2000
   -1.2298   -1.4522    0.4383 C   0  0  0  0  0  0  0  0  0  0  0  0
   -1.3667   -2.3717    1.4153 N   0  0  0  0  0  0  0  0  0  0  0  0
   -1.4622   -3.0856    2.2772 N   0  0  0  0  0  0  0  0  0  0  0  0
   -1.6400   -1.7451   -0.8937 C   0  0  0  0  0  0  0  0  0  0  0  0
   -1.5656   -0.7349   -1.8152 C   0  0  0  0  0  0  0  0  0  0  0  0
   -1.1088    0.5614   -1.4270 C   0  0  0  0  0  0  0  0  0  0  0  0
   -1.1735    1.4975   -2.3648 O   0  0  0  0  0  0  0  0  0  0  0  0
   -0.8310    2.8602   -2.0117 C   0  0  0  0  0  0  0  0  0  0  0  0
   -0.6512    0.8036   -0.1197 C   0  0  0  0  0  0  0  0  0  0  0  0
   -0.7333   -0.1878    0.8297 C   0  0  0  0  0  0  0  0  0  0  0  0
   -2.0119   -2.7291   -1.1553 H   0  0  0  0  0  0  0  0  0  0  0  0
   -1.8842   -0.8850   -2.8403 H   0  0  0  0  0  0  0  0  0  0  0  0
   -1.3291    3.1638   -1.0877 H   0  0  0  0  0  0  0  0  0  0  0  0
   -1.1662    3.4629   -2.8543 H   0  0  0  0  0  0  0  0  0  0  0  0
    0.2527    2.9503   -1.8930 H   0  0  0  0  0  0  0  0  0  0  0  0
   -0.3524    1.7876    0.2236 H   0  0  0  0  0  0  0  0  0  0  0  0
   -0.4760    0.0541    1.8592 H   0  0  0  0  0  0  0  0  0  0  0  0
   -1.4758    2.4311    2.5369 B   0  0  0  0  0  0  0  0  0  0  0  0
   -0.3888    1.5917    2.9437 F   0  0  0  0  0  0  0  0  0  0  0  0
   -1.0256    3.2031    1.4159 F   0  0  0  0  0  0  0  0  0  0  0  0
   -2.5184    1.5894    2.1044 F   0  0  0  0  0  0  0  0  0  0  0  0
   -1.8659    3.2544    3.5650 F   0  0  0  0  0  0  0  0  0  0  0  0
  1 10  1  0  0  0  0
  1  2  1  0  0  0  0
  2  3  1  0  0  0  0
  4  1  2  0  0  0  0
  5  6  2  0  0  0  0
  5  4  1  0  0  0  0
  6  9  1  0  0  0  0
  7  8  1  0  0  0  0
  7  6  1  0  0  0  0
  8 15  1  0  0  0  0
  8 13  1  0  0  0  0
  9 16  1  0  0  0  0
  9 10  2  0  0  0  0
 10 17  1  0  0  0  0
 11  4  1  0  0  0  0
 12  5  1  0  0  0  0
 14  8  1  0  0  0  0
 18 19  1  0  0  0  0
 18 22  1  0  0  0  0
 20 18  1  0  0  0  0
 21 18  1  0  0  0  0
M  RAD  2   2   2   3   3
M  END
