Coordinates from ORCA-job 4-MeOPhN2+~BF4-_B3LYPG-6-31G_dp-NX-Scan-d89-09-n800
 OpenBabel11261920503D

 22 21  0  0  0  0  0  0  0  0999 V2000
   -1.2698   -0.5498    0.5534 C   0  0  0  0  0  0  0  0  0  0  0  0
   -1.3526   -1.2296    1.7419 N   0  0  0  0  0  0  0  0  0  0  0  0
   -1.3922   -1.8435    2.6737 N   0  0  0  0  0  0  0  0  0  0  0  0
   -1.5976   -1.2562   -0.6262 C   0  0  0  0  0  0  0  0  0  0  0  0
   -1.5094   -0.5920   -1.8273 C   0  0  0  0  0  0  0  0  0  0  0  0
   -1.0934    0.7611   -1.8620 C   0  0  0  0  0  0  0  0  0  0  0  0
   -1.0463    1.3084   -3.0835 O   0  0  0  0  0  0  0  0  0  0  0  0
   -0.6520    2.6782   -3.2275 C   0  0  0  0  0  0  0  0  0  0  0  0
   -0.7610    1.4373   -0.6718 C   0  0  0  0  0  0  0  0  0  0  0  0
   -0.8524    0.7938    0.5510 C   0  0  0  0  0  0  0  0  0  0  0  0
   -1.9180   -2.2907   -0.5780 H   0  0  0  0  0  0  0  0  0  0  0  0
   -1.7568   -1.0820   -2.7615 H   0  0  0  0  0  0  0  0  0  0  0  0
   -1.3380    3.3418   -2.6917 H   0  0  0  0  0  0  0  0  0  0  0  0
   -0.7019    2.8842   -4.2960 H   0  0  0  0  0  0  0  0  0  0  0  0
    0.3715    2.8312   -2.8704 H   0  0  0  0  0  0  0  0  0  0  0  0
   -0.4394    2.4702   -0.6899 H   0  0  0  0  0  0  0  0  0  0  0  0
   -0.6132    1.2814    1.4957 H   0  0  0  0  0  0  0  0  0  0  0  0
   -1.6279    1.0339    3.8958 B   0  0  0  0  0  0  0  0  0  0  0  0
   -1.3826   -0.2103    4.5159 F   0  0  0  0  0  0  0  0  0  0  0  0
   -0.3999    1.5041    3.3404 F   0  0  0  0  0  0  0  0  0  0  0  0
   -2.5104    0.7976    2.7976 F   0  0  0  0  0  0  0  0  0  0  0  0
   -2.1604    1.9503    4.7669 F   0  0  0  0  0  0  0  0  0  0  0  0
  1  2  1  0  0  0  0
  2  3  1  0  0  0  0
  4 11  1  0  0  0  0
  4  1  2  0  0  0  0
  5  4  1  0  0  0  0
  6  5  2  0  0  0  0
  6  9  1  0  0  0  0
  7  6  1  0  0  0  0
  8  7  1  0  0  0  0
  8 15  1  0  0  0  0
  8 13  1  0  0  0  0
  9 10  2  0  0  0  0
 10  1  1  0  0  0  0
 10 17  1  0  0  0  0
 12  5  1  0  0  0  0
 14  8  1  0  0  0  0
 16  9  1  0  0  0  0
 18 19  1  0  0  0  0
 18 22  1  0  0  0  0
 20 18  1  0  0  0  0
 21 18  1  0  0  0  0
M  RAD  2   2   2   3   3
M  END
