Coordinates from ORCA-job 4-MeOPhN2+~BF4-_B3LYPG-6-31G_dp-NX-Scan-d89-09-n800
 OpenBabel11261920503D

 22 21  0  0  0  0  0  0  0  0999 V2000
   -1.4964   -1.9354    0.2681 C   0  0  0  0  0  0  0  0  0  0  0  0
   -1.7516   -3.0429    0.9813 N   0  0  0  0  0  0  0  0  0  0  0  0
   -1.9619   -3.9507    1.6141 N   0  0  0  0  0  0  0  0  0  0  0  0
   -1.6132   -1.9669   -1.1515 C   0  0  0  0  0  0  0  0  0  0  0  0
   -1.3869   -0.8060   -1.8375 C   0  0  0  0  0  0  0  0  0  0  0  0
   -1.0635    0.4003   -1.1415 C   0  0  0  0  0  0  0  0  0  0  0  0
   -0.9245    1.4633   -1.8963 O   0  0  0  0  0  0  0  0  0  0  0  0
   -0.7660    2.7794   -1.2704 C   0  0  0  0  0  0  0  0  0  0  0  0
   -0.9147    0.4047    0.2739 C   0  0  0  0  0  0  0  0  0  0  0  0
   -1.1343   -0.7522    0.9719 C   0  0  0  0  0  0  0  0  0  0  0  0
   -1.8832   -2.8861   -1.6590 H   0  0  0  0  0  0  0  0  0  0  0  0
   -1.4724   -0.7659   -2.9176 H   0  0  0  0  0  0  0  0  0  0  0  0
   -1.6268    2.9827   -0.6356 H   0  0  0  0  0  0  0  0  0  0  0  0
   -0.6994    3.4726   -2.1053 H   0  0  0  0  0  0  0  0  0  0  0  0
    0.1373    2.8052   -0.6614 H   0  0  0  0  0  0  0  0  0  0  0  0
   -0.6388    1.2997    0.8326 H   0  0  0  0  0  0  0  0  0  0  0  0
   -1.0430   -0.7649    2.0529 H   0  0  0  0  0  0  0  0  0  0  0  0
   -1.1638    3.4877    1.9107 B   0  0  0  0  0  0  0  0  0  0  0  0
   -0.9970    4.5207    0.9816 F   0  0  0  0  0  0  0  0  0  0  0  0
   -2.2554    2.6752    1.4876 F   0  0  0  0  0  0  0  0  0  0  0  0
    0.0096    2.6525    1.8544 F   0  0  0  0  0  0  0  0  0  0  0  0
   -1.3578    3.9468    3.1935 F   0  0  0  0  0  0  0  0  0  0  0  0
  1 10  2  0  0  0  0
  1  2  1  0  0  0  0
  2  3  1  0  0  0  0
  4  1  1  0  0  0  0
  5  4  2  0  0  0  0
  5  6  1  0  0  0  0
  6  9  2  0  0  0  0
  7  8  1  0  0  0  0
  7  6  1  0  0  0  0
  8 15  1  0  0  0  0
  8 13  1  0  0  0  0
  9 16  1  0  0  0  0
  9 10  1  0  0  0  0
 10 17  1  0  0  0  0
 11  4  1  0  0  0  0
 12  5  1  0  0  0  0
 14  8  1  0  0  0  0
 18 22  1  0  0  0  0
 19 18  1  0  0  0  0
 20 18  1  0  0  0  0
 21 18  1  0  0  0  0
M  RAD  2   2   2   3   3
M  END
