Coordinates from ORCA-job 4-MeOPhN2+~BF4-_B3LYPG-6-31G_dp-NX-Scan-d89-09-n800
 OpenBabel11261920503D

 22 21  0  0  0  0  0  0  0  0999 V2000
   -1.3019   -0.6367    0.5910 C   0  0  0  0  0  0  0  0  0  0  0  0
   -1.4170   -1.3448    1.7561 N   0  0  0  0  0  0  0  0  0  0  0  0
   -1.4987   -1.9565    2.6829 N   0  0  0  0  0  0  0  0  0  0  0  0
   -1.7034   -1.2795   -0.6034 C   0  0  0  0  0  0  0  0  0  0  0  0
   -1.5912   -0.5860   -1.7849 C   0  0  0  0  0  0  0  0  0  0  0  0
   -1.0865    0.7378   -1.7868 C   0  0  0  0  0  0  0  0  0  0  0  0
   -1.0259    1.3200   -2.9904 O   0  0  0  0  0  0  0  0  0  0  0  0
   -0.5477    2.6670   -3.0986 C   0  0  0  0  0  0  0  0  0  0  0  0
   -0.6919    1.3525   -0.5829 C   0  0  0  0  0  0  0  0  0  0  0  0
   -0.7965    0.6762    0.6200 C   0  0  0  0  0  0  0  0  0  0  0  0
   -2.0951   -2.2899   -0.5798 H   0  0  0  0  0  0  0  0  0  0  0  0
   -1.8896   -1.0281   -2.7281 H   0  0  0  0  0  0  0  0  0  0  0  0
   -1.1819    3.3544   -2.5304 H   0  0  0  0  0  0  0  0  0  0  0  0
   -0.6011    2.9096   -4.1592 H   0  0  0  0  0  0  0  0  0  0  0  0
    0.4888    2.7431   -2.7548 H   0  0  0  0  0  0  0  0  0  0  0  0
   -0.3173    2.3673   -0.5689 H   0  0  0  0  0  0  0  0  0  0  0  0
   -0.5260    1.1444    1.5604 H   0  0  0  0  0  0  0  0  0  0  0  0
   -1.6622    1.1949    3.6568 B   0  0  0  0  0  0  0  0  0  0  0  0
   -0.5330    0.3100    3.5808 F   0  0  0  0  0  0  0  0  0  0  0  0
   -1.3073    2.3650    2.9516 F   0  0  0  0  0  0  0  0  0  0  0  0
   -2.7156    0.5474    2.9546 F   0  0  0  0  0  0  0  0  0  0  0  0
   -2.0026    1.4515    4.9605 F   0  0  0  0  0  0  0  0  0  0  0  0
  1 10  1  0  0  0  0
  1  2  1  0  0  0  0
  2  3  1  0  0  0  0
  4 11  1  0  0  0  0
  4  1  2  0  0  0  0
  5  4  1  0  0  0  0
  6  5  2  0  0  0  0
  6  9  1  0  0  0  0
  7  6  1  0  0  0  0
  8  7  1  0  0  0  0
  8 15  1  0  0  0  0
  8 13  1  0  0  0  0
  9 16  1  0  0  0  0
  9 10  2  0  0  0  0
 10 17  1  0  0  0  0
 12  5  1  0  0  0  0
 14  8  1  0  0  0  0
 18 22  1  0  0  0  0
 19 18  1  0  0  0  0
 20 18  1  0  0  0  0
 21 18  1  0  0  0  0
M  RAD  2   2   2   3   3
M  END
