Coordinates from ORCA-job 4-MeOPhN2+~BF4-_B3LYPG-6-31G_dp-NX-Scan-d89-09-n800
 OpenBabel11261920503D

 22 21  0  0  0  0  0  0  0  0999 V2000
   -1.3100   -1.5651    0.4098 C   0  0  0  0  0  0  0  0  0  0  0  0
   -1.5012   -2.5596    1.2975 N   0  0  0  0  0  0  0  0  0  0  0  0
   -1.6517   -3.3760    2.0565 N   0  0  0  0  0  0  0  0  0  0  0  0
   -1.6688   -1.7724   -0.9543 C   0  0  0  0  0  0  0  0  0  0  0  0
   -1.5349   -0.7196   -1.8183 C   0  0  0  0  0  0  0  0  0  0  0  0
   -1.0583    0.5406   -1.3462 C   0  0  0  0  0  0  0  0  0  0  0  0
   -1.0655    1.5230   -2.2300 O   0  0  0  0  0  0  0  0  0  0  0  0
   -0.7511    2.8721   -1.7854 C   0  0  0  0  0  0  0  0  0  0  0  0
   -0.6349    0.6982   -0.0101 C   0  0  0  0  0  0  0  0  0  0  0  0
   -0.7921   -0.3322    0.8842 C   0  0  0  0  0  0  0  0  0  0  0  0
   -2.0517   -2.7323   -1.2817 H   0  0  0  0  0  0  0  0  0  0  0  0
   -1.8194   -0.8077   -2.8604 H   0  0  0  0  0  0  0  0  0  0  0  0
   -1.3101    3.1129   -0.8769 H   0  0  0  0  0  0  0  0  0  0  0  0
   -1.0422    3.5119   -2.6172 H   0  0  0  0  0  0  0  0  0  0  0  0
    0.3241    2.9573   -1.6053 H   0  0  0  0  0  0  0  0  0  0  0  0
   -0.2645    1.6363    0.3884 H   0  0  0  0  0  0  0  0  0  0  0  0
   -0.5949   -0.1558    1.9354 H   0  0  0  0  0  0  0  0  0  0  0  0
   -1.4683    2.6592    2.3368 B   0  0  0  0  0  0  0  0  0  0  0  0
   -0.0737    2.5956    2.0356 F   0  0  0  0  0  0  0  0  0  0  0  0
   -2.1493    2.9151    1.1134 F   0  0  0  0  0  0  0  0  0  0  0  0
   -1.8588    1.3794    2.8091 F   0  0  0  0  0  0  0  0  0  0  0  0
   -1.7264    3.6385    3.2657 F   0  0  0  0  0  0  0  0  0  0  0  0
  1 10  1  0  0  0  0
  1  2  1  0  0  0  0
  2  3  1  0  0  0  0
  4  1  2  0  0  0  0
  5  6  2  0  0  0  0
  5  4  1  0  0  0  0
  6  9  1  0  0  0  0
  7  8  1  0  0  0  0
  7  6  1  0  0  0  0
  8 15  1  0  0  0  0
  8 13  1  0  0  0  0
  9 16  1  0  0  0  0
  9 10  2  0  0  0  0
 10 17  1  0  0  0  0
 11  4  1  0  0  0  0
 12  5  1  0  0  0  0
 14  8  1  0  0  0  0
 18 21  1  0  0  0  0
 18 22  1  0  0  0  0
 19 18  1  0  0  0  0
 20 18  1  0  0  0  0
M  RAD  2   2   2   3   3
M  END
