Coordinates from ORCA-job 4-MeOPhN2+~BF4-_B3LYPG-6-31G_dp-NX-Scan-d89-09-n800
 OpenBabel11261920503D

 22 21  0  0  0  0  0  0  0  0999 V2000
   -1.2711   -1.4905    0.4497 C   0  0  0  0  0  0  0  0  0  0  0  0
   -1.4507   -2.4581    1.3695 N   0  0  0  0  0  0  0  0  0  0  0  0
   -1.5956   -3.2564    2.1481 N   0  0  0  0  0  0  0  0  0  0  0  0
   -1.6975   -1.7219   -0.8911 C   0  0  0  0  0  0  0  0  0  0  0  0
   -1.5804   -0.6942   -1.7866 C   0  0  0  0  0  0  0  0  0  0  0  0
   -1.0600    0.5675   -1.3673 C   0  0  0  0  0  0  0  0  0  0  0  0
   -1.0885    1.5281   -2.2765 O   0  0  0  0  0  0  0  0  0  0  0  0
   -0.7360    2.8804   -1.8797 C   0  0  0  0  0  0  0  0  0  0  0  0
   -0.5748    0.7465   -0.0572 C   0  0  0  0  0  0  0  0  0  0  0  0
   -0.7080   -0.2593    0.8695 C   0  0  0  0  0  0  0  0  0  0  0  0
   -2.1166   -2.6802   -1.1761 H   0  0  0  0  0  0  0  0  0  0  0  0
   -1.9134   -0.8010   -2.8124 H   0  0  0  0  0  0  0  0  0  0  0  0
   -1.2560    3.1533   -0.9577 H   0  0  0  0  0  0  0  0  0  0  0  0
   -1.0485    3.5057   -2.7147 H   0  0  0  0  0  0  0  0  0  0  0  0
    0.3470    2.9531   -1.7437 H   0  0  0  0  0  0  0  0  0  0  0  0
   -0.1953    1.6902    0.3084 H   0  0  0  0  0  0  0  0  0  0  0  0
   -0.4399   -0.0648    1.8999 H   0  0  0  0  0  0  0  0  0  0  0  0
   -1.5386    2.5045    2.3773 B   0  0  0  0  0  0  0  0  0  0  0  0
   -0.1339    2.2469    2.2972 F   0  0  0  0  0  0  0  0  0  0  0  0
   -1.9535    2.9955    1.1065 F   0  0  0  0  0  0  0  0  0  0  0  0
   -2.1784    1.2626    2.6110 F   0  0  0  0  0  0  0  0  0  0  0  0
   -1.8140    3.4118    3.3725 F   0  0  0  0  0  0  0  0  0  0  0  0
  1 10  1  0  0  0  0
  1  2  1  0  0  0  0
  2  3  1  0  0  0  0
  4  1  2  0  0  0  0
  5  6  2  0  0  0  0
  5  4  1  0  0  0  0
  6  9  1  0  0  0  0
  7  8  1  0  0  0  0
  7  6  1  0  0  0  0
  8 15  1  0  0  0  0
  8 13  1  0  0  0  0
  9 16  1  0  0  0  0
  9 10  2  0  0  0  0
 10 17  1  0  0  0  0
 11  4  1  0  0  0  0
 12  5  1  0  0  0  0
 14  8  1  0  0  0  0
 18 21  1  0  0  0  0
 18 22  1  0  0  0  0
 19 18  1  0  0  0  0
 20 18  1  0  0  0  0
M  RAD  2   2   2   3   3
M  END
