Coordinates from ORCA-job 4-MeOPhN2+~BF4-_B3LYPG-6-31G_dp-NX-Scan-d89-09-n800
 OpenBabel11261920503D

 22 21  0  0  0  0  0  0  0  0999 V2000
   -1.3170   -0.6493    0.5606 C   0  0  0  0  0  0  0  0  0  0  0  0
   -1.4565   -1.3945    1.7210 N   0  0  0  0  0  0  0  0  0  0  0  0
   -1.3444   -1.4334    2.8717 N   0  0  0  0  0  0  0  0  0  0  0  0
   -1.6771   -1.2881   -0.6429 C   0  0  0  0  0  0  0  0  0  0  0  0
   -1.5618   -0.6071   -1.8362 C   0  0  0  0  0  0  0  0  0  0  0  0
   -1.0860    0.7212   -1.8429 C   0  0  0  0  0  0  0  0  0  0  0  0
   -1.0121    1.3013   -3.0545 O   0  0  0  0  0  0  0  0  0  0  0  0
   -0.5528    2.6507   -3.1558 C   0  0  0  0  0  0  0  0  0  0  0  0
   -0.7272    1.3510   -0.6359 C   0  0  0  0  0  0  0  0  0  0  0  0
   -0.8406    0.6749    0.5696 C   0  0  0  0  0  0  0  0  0  0  0  0
   -2.0438   -2.3080   -0.6146 H   0  0  0  0  0  0  0  0  0  0  0  0
   -1.8329   -1.0659   -2.7798 H   0  0  0  0  0  0  0  0  0  0  0  0
   -1.2067    3.3339   -2.6035 H   0  0  0  0  0  0  0  0  0  0  0  0
   -0.5867    2.8930   -4.2177 H   0  0  0  0  0  0  0  0  0  0  0  0
    0.4757    2.7472   -2.7914 H   0  0  0  0  0  0  0  0  0  0  0  0
   -0.3668    2.3712   -0.6260 H   0  0  0  0  0  0  0  0  0  0  0  0
   -0.5789    1.1676    1.4961 H   0  0  0  0  0  0  0  0  0  0  0  0
   -1.7474    1.2067    3.7892 B   0  0  0  0  0  0  0  0  0  0  0  0
   -0.7165    0.0063    3.4705 F   0  0  0  0  0  0  0  0  0  0  0  0
   -1.0733    2.2867    3.2719 F   0  0  0  0  0  0  0  0  0  0  0  0
   -2.8564    0.8532    3.0645 F   0  0  0  0  0  0  0  0  0  0  0  0
   -1.8946    1.2010    5.1325 F   0  0  0  0  0  0  0  0  0  0  0  0
  1 10  1  0  0  0  0
  1  2  1  0  0  0  0
  2  3  2  0  0  0  0
  4 11  1  0  0  0  0
  4  1  2  0  0  0  0
  5  4  1  0  0  0  0
  6  5  2  0  0  0  0
  6  9  1  0  0  0  0
  7  6  1  0  0  0  0
  8  7  1  0  0  0  0
  8 15  1  0  0  0  0
  8 13  1  0  0  0  0
  9 16  1  0  0  0  0
  9 10  2  0  0  0  0
 10 17  1  0  0  0  0
 12  5  1  0  0  0  0
 14  8  1  0  0  0  0
 18 22  1  0  0  0  0
 19 18  1  0  0  0  0
 20 18  1  0  0  0  0
 21 18  1  0  0  0  0
M  RAD  1   3   2
M  END
