Coordinates from ORCA-job 4-MeOPhN2+~BF4-_B3LYPG-6-31G_dp-NX-Scan-d89-09-n800
 OpenBabel11261920503D

 22 21  0  0  0  0  0  0  0  0999 V2000
   -1.2420   -0.8190    0.5748 C   0  0  0  0  0  0  0  0  0  0  0  0
   -1.3145   -1.5941    1.6944 N   0  0  0  0  0  0  0  0  0  0  0  0
   -1.3660   -2.2700    2.5808 N   0  0  0  0  0  0  0  0  0  0  0  0
   -1.8093   -1.3214   -0.6223 C   0  0  0  0  0  0  0  0  0  0  0  0
   -1.7353   -0.5362   -1.7455 C   0  0  0  0  0  0  0  0  0  0  0  0
   -1.1123    0.7385   -1.6864 C   0  0  0  0  0  0  0  0  0  0  0  0
   -1.1136    1.4180   -2.8383 O   0  0  0  0  0  0  0  0  0  0  0  0
   -0.5503    2.7362   -2.8790 C   0  0  0  0  0  0  0  0  0  0  0  0
   -0.5515    1.2082   -0.4851 C   0  0  0  0  0  0  0  0  0  0  0  0
   -0.6139    0.4381    0.6622 C   0  0  0  0  0  0  0  0  0  0  0  0
   -2.2927   -2.2914   -0.6409 H   0  0  0  0  0  0  0  0  0  0  0  0
   -2.1571   -0.8613   -2.6892 H   0  0  0  0  0  0  0  0  0  0  0  0
   -1.0744    3.4052   -2.1900 H   0  0  0  0  0  0  0  0  0  0  0  0
   -0.6892    3.0789   -3.9037 H   0  0  0  0  0  0  0  0  0  0  0  0
    0.5176    2.7121   -2.6392 H   0  0  0  0  0  0  0  0  0  0  0  0
   -0.0962    2.1871   -0.4215 H   0  0  0  0  0  0  0  0  0  0  0  0
   -0.2169    0.7764    1.6190 H   0  0  0  0  0  0  0  0  0  0  0  0
   -1.7363    1.4289    3.3769 B   0  0  0  0  0  0  0  0  0  0  0  0
   -0.3268    1.1721    3.4256 F   0  0  0  0  0  0  0  0  0  0  0  0
   -1.9793    2.2517    2.2624 F   0  0  0  0  0  0  0  0  0  0  0  0
   -2.3696    0.1707    3.1418 F   0  0  0  0  0  0  0  0  0  0  0  0
   -2.1742    1.9911    4.5499 F   0  0  0  0  0  0  0  0  0  0  0  0
  1 10  1  0  0  0  0
  1  2  1  0  0  0  0
  2  3  1  0  0  0  0
  4  1  2  0  0  0  0
  5  6  2  0  0  0  0
  5  4  1  0  0  0  0
  6  9  1  0  0  0  0
  7  6  1  0  0  0  0
  8  7  1  0  0  0  0
  8 15  1  0  0  0  0
  8 13  1  0  0  0  0
  9 16  1  0  0  0  0
  9 10  2  0  0  0  0
 10 17  1  0  0  0  0
 11  4  1  0  0  0  0
 12  5  1  0  0  0  0
 14  8  1  0  0  0  0
 18 19  1  0  0  0  0
 18 22  1  0  0  0  0
 20 18  1  0  0  0  0
 21 18  1  0  0  0  0
M  RAD  2   2   2   3   3
M  END
