Coordinates from ORCA-job 4-MeOPhN2+~BF4-_B3LYPG-6-31G_dp-NX-Scan-d89-09-n800
 OpenBabel11261920503D

 22 21  0  0  0  0  0  0  0  0999 V2000
   -1.2321   -0.7840    0.5844 C   0  0  0  0  0  0  0  0  0  0  0  0
   -1.3064   -1.5430    1.7161 N   0  0  0  0  0  0  0  0  0  0  0  0
   -1.3644   -2.2169    2.6032 N   0  0  0  0  0  0  0  0  0  0  0  0
   -1.7899   -1.3095   -0.6065 C   0  0  0  0  0  0  0  0  0  0  0  0
   -1.7183   -0.5407   -1.7418 C   0  0  0  0  0  0  0  0  0  0  0  0
   -1.1077    0.7402   -1.7000 C   0  0  0  0  0  0  0  0  0  0  0  0
   -1.1102    1.4022   -2.8622 O   0  0  0  0  0  0  0  0  0  0  0  0
   -0.5577    2.7241   -2.9212 C   0  0  0  0  0  0  0  0  0  0  0  0
   -0.5560    1.2334   -0.5033 C   0  0  0  0  0  0  0  0  0  0  0  0
   -0.6148    0.4788    0.6542 C   0  0  0  0  0  0  0  0  0  0  0  0
   -2.2651   -2.2837   -0.6122 H   0  0  0  0  0  0  0  0  0  0  0  0
   -2.1330   -0.8845   -2.6819 H   0  0  0  0  0  0  0  0  0  0  0  0
   -1.0906    3.3998   -2.2456 H   0  0  0  0  0  0  0  0  0  0  0  0
   -0.6944    3.0494   -3.9519 H   0  0  0  0  0  0  0  0  0  0  0  0
    0.5092    2.7128   -2.6760 H   0  0  0  0  0  0  0  0  0  0  0  0
   -0.1077    2.2164   -0.4534 H   0  0  0  0  0  0  0  0  0  0  0  0
   -0.2269    0.8266    1.6096 H   0  0  0  0  0  0  0  0  0  0  0  0
   -1.7463    1.3859    3.4136 B   0  0  0  0  0  0  0  0  0  0  0  0
   -0.3715    0.9755    3.4677 F   0  0  0  0  0  0  0  0  0  0  0  0
   -1.8646    2.3284    2.3778 F   0  0  0  0  0  0  0  0  0  0  0  0
   -2.4981    0.2279    3.0498 F   0  0  0  0  0  0  0  0  0  0  0  0
   -2.1572    1.8805    4.6264 F   0  0  0  0  0  0  0  0  0  0  0  0
  1 10  1  0  0  0  0
  1  2  1  0  0  0  0
  2  3  1  0  0  0  0
  4  1  2  0  0  0  0
  5  6  2  0  0  0  0
  5  4  1  0  0  0  0
  6  9  1  0  0  0  0
  7  6  1  0  0  0  0
  8  7  1  0  0  0  0
  8 15  1  0  0  0  0
  8 13  1  0  0  0  0
  9 16  1  0  0  0  0
  9 10  2  0  0  0  0
 10 17  1  0  0  0  0
 11  4  1  0  0  0  0
 12  5  1  0  0  0  0
 14  8  1  0  0  0  0
 18 19  1  0  0  0  0
 18 22  1  0  0  0  0
 20 18  1  0  0  0  0
 21 18  1  0  0  0  0
M  RAD  2   2   2   3   3
M  END
