Coordinates from ORCA-job 4-MeOPhN2+~BF4-_B3LYPG-6-31G_dp-NX-Scan-d89-09-n800
 OpenBabel11261920503D

 22 21  0  0  0  0  0  0  0  0999 V2000
   -1.3108   -0.6632    0.5446 C   0  0  0  0  0  0  0  0  0  0  0  0
   -1.4801   -1.4588    1.6801 N   0  0  0  0  0  0  0  0  0  0  0  0
   -1.3060   -1.3750    2.8502 N   0  0  0  0  0  0  0  0  0  0  0  0
   -1.6642   -1.2905   -0.6677 C   0  0  0  0  0  0  0  0  0  0  0  0
   -1.5461   -0.6146   -1.8654 C   0  0  0  0  0  0  0  0  0  0  0  0
   -1.0737    0.7120   -1.8753 C   0  0  0  0  0  0  0  0  0  0  0  0
   -0.9946    1.2927   -3.0908 O   0  0  0  0  0  0  0  0  0  0  0  0
   -0.5341    2.6395   -3.1871 C   0  0  0  0  0  0  0  0  0  0  0  0
   -0.7233    1.3416   -0.6675 C   0  0  0  0  0  0  0  0  0  0  0  0
   -0.8382    0.6636    0.5393 C   0  0  0  0  0  0  0  0  0  0  0  0
   -2.0295   -2.3109   -0.6385 H   0  0  0  0  0  0  0  0  0  0  0  0
   -1.8130   -1.0785   -2.8081 H   0  0  0  0  0  0  0  0  0  0  0  0
   -1.1900    3.3247   -2.6386 H   0  0  0  0  0  0  0  0  0  0  0  0
   -0.5600    2.8850   -4.2488 H   0  0  0  0  0  0  0  0  0  0  0  0
    0.4922    2.7370   -2.8157 H   0  0  0  0  0  0  0  0  0  0  0  0
   -0.3631    2.3622   -0.6573 H   0  0  0  0  0  0  0  0  0  0  0  0
   -0.5748    1.1588    1.4610 H   0  0  0  0  0  0  0  0  0  0  0  0
   -1.8713    1.3298    3.9555 B   0  0  0  0  0  0  0  0  0  0  0  0
   -0.6999   -0.0201    3.2635 F   0  0  0  0  0  0  0  0  0  0  0  0
   -1.1870    2.3624    3.4348 F   0  0  0  0  0  0  0  0  0  0  0  0
   -2.9849    0.9418    3.3211 F   0  0  0  0  0  0  0  0  0  0  0  0
   -1.7514    1.0803    5.2570 F   0  0  0  0  0  0  0  0  0  0  0  0
  1  2  1  0  0  0  0
  2  3  1  0  0  0  0
  3 19  1  0  0  0  0
  4 11  1  0  0  0  0
  4  1  2  0  0  0  0
  5  4  1  0  0  0  0
  6  5  2  0  0  0  0
  6  9  1  0  0  0  0
  7  6  1  0  0  0  0
  8  7  1  0  0  0  0
  8 15  1  0  0  0  0
  8 13  1  0  0  0  0
  9 16  1  0  0  0  0
  9 10  2  0  0  0  0
 10  1  1  0  0  0  0
 10 17  1  0  0  0  0
 12  5  1  0  0  0  0
 14  8  1  0  0  0  0
 18 22  1  0  0  0  0
 20 18  1  0  0  0  0
 21 18  1  0  0  0  0
M  RAD  2   2   2   3   2
M  END
