Coordinates from ORCA-job 4-MeOPhN2+~BF4-_B3LYPG-6-31G_dp-NX-Scan-d89-09-n800
 OpenBabel11261920503D

 22 21  0  0  0  0  0  0  0  0999 V2000
   -1.2367   -1.4226    0.4346 C   0  0  0  0  0  0  0  0  0  0  0  0
   -1.3428   -2.3473    1.4125 N   0  0  0  0  0  0  0  0  0  0  0  0
   -1.4182   -3.0759    2.2637 N   0  0  0  0  0  0  0  0  0  0  0  0
   -1.6053   -1.7505   -0.9014 C   0  0  0  0  0  0  0  0  0  0  0  0
   -1.5441   -0.7526   -1.8369 C   0  0  0  0  0  0  0  0  0  0  0  0
   -1.1365    0.5628   -1.4602 C   0  0  0  0  0  0  0  0  0  0  0  0
   -1.1834    1.4732   -2.4266 O   0  0  0  0  0  0  0  0  0  0  0  0
   -0.8589    2.8446   -2.1050 C   0  0  0  0  0  0  0  0  0  0  0  0
   -0.7379    0.8474   -0.1429 C   0  0  0  0  0  0  0  0  0  0  0  0
   -0.8027   -0.1339    0.8212 C   0  0  0  0  0  0  0  0  0  0  0  0
   -1.9333   -2.7517   -1.1563 H   0  0  0  0  0  0  0  0  0  0  0  0
   -1.8278   -0.9305   -2.8677 H   0  0  0  0  0  0  0  0  0  0  0  0
   -1.4321    3.1904   -1.2414 H   0  0  0  0  0  0  0  0  0  0  0  0
   -1.1201    3.4146   -2.9954 H   0  0  0  0  0  0  0  0  0  0  0  0
    0.2107    2.9391   -1.8977 H   0  0  0  0  0  0  0  0  0  0  0  0
   -0.4661    1.8421    0.1973 H   0  0  0  0  0  0  0  0  0  0  0  0
   -0.5686    0.1223    1.8560 H   0  0  0  0  0  0  0  0  0  0  0  0
   -1.4196    2.4108    2.6603 B   0  0  0  0  0  0  0  0  0  0  0  0
   -0.5118    1.4210    3.1628 F   0  0  0  0  0  0  0  0  0  0  0  0
   -0.7454    3.1274    1.6228 F   0  0  0  0  0  0  0  0  0  0  0  0
   -2.5088    1.7282    2.0827 F   0  0  0  0  0  0  0  0  0  0  0  0
   -1.8144    3.2609    3.6642 F   0  0  0  0  0  0  0  0  0  0  0  0
  1 10  1  0  0  0  0
  1  2  1  0  0  0  0
  2  3  1  0  0  0  0
  4  1  2  0  0  0  0
  5  6  2  0  0  0  0
  5  4  1  0  0  0  0
  6  9  1  0  0  0  0
  7  8  1  0  0  0  0
  7  6  1  0  0  0  0
  8 15  1  0  0  0  0
  8 13  1  0  0  0  0
  9 16  1  0  0  0  0
  9 10  2  0  0  0  0
 10 17  1  0  0  0  0
 11  4  1  0  0  0  0
 12  5  1  0  0  0  0
 14  8  1  0  0  0  0
 18 19  1  0  0  0  0
 18 22  1  0  0  0  0
 20 18  1  0  0  0  0
 21 18  1  0  0  0  0
M  RAD  2   2   2   3   3
M  END
