Coordinates from ORCA-job 4-MeOPhN2+~BF4-_B3LYPG-6-31G_dp-NX-Scan-d89-09-n800
 OpenBabel11261920503D

 22 21  0  0  0  0  0  0  0  0999 V2000
   -1.4611   -0.7132    0.4050 C   0  0  0  0  0  0  0  0  0  0  0  0
   -1.7799   -1.5738    1.4894 N   0  0  0  0  0  0  0  0  0  0  0  0
   -1.5521   -1.3364    2.6906 N   0  0  0  0  0  0  0  0  0  0  0  0
   -1.5574   -1.3621   -0.8441 C   0  0  0  0  0  0  0  0  0  0  0  0
   -1.3064   -0.6941   -2.0282 C   0  0  0  0  0  0  0  0  0  0  0  0
   -0.9736    0.6706   -2.0023 C   0  0  0  0  0  0  0  0  0  0  0  0
   -0.7523    1.2475   -3.2108 O   0  0  0  0  0  0  0  0  0  0  0  0
   -0.4363    2.6329   -3.2578 C   0  0  0  0  0  0  0  0  0  0  0  0
   -0.8985    1.3405   -0.7728 C   0  0  0  0  0  0  0  0  0  0  0  0
   -1.1318    0.6573    0.4199 C   0  0  0  0  0  0  0  0  0  0  0  0
   -1.8348   -2.4107   -0.8478 H   0  0  0  0  0  0  0  0  0  0  0  0
   -1.3717   -1.1962   -2.9875 H   0  0  0  0  0  0  0  0  0  0  0  0
   -1.2442    3.2442   -2.8367 H   0  0  0  0  0  0  0  0  0  0  0  0
   -0.3140    2.8761   -4.3138 H   0  0  0  0  0  0  0  0  0  0  0  0
    0.4981    2.8516   -2.7263 H   0  0  0  0  0  0  0  0  0  0  0  0
   -0.6540    2.3946   -0.7289 H   0  0  0  0  0  0  0  0  0  0  0  0
   -1.0757    1.2160    1.3424 H   0  0  0  0  0  0  0  0  0  0  0  0
   -1.7858    1.6066    4.6032 B   0  0  0  0  0  0  0  0  0  0  0  0
   -1.0082   -0.2947    2.9357 F   0  0  0  0  0  0  0  0  0  0  0  0
   -1.4004    2.4005    3.6160 F   0  0  0  0  0  0  0  0  0  0  0  0
   -3.0127    1.1288    4.6168 F   0  0  0  0  0  0  0  0  0  0  0  0
   -0.9509    1.3337    5.5844 F   0  0  0  0  0  0  0  0  0  0  0  0
  1 10  1  0  0  0  0
  1  2  1  0  0  0  0
  2  3  2  0  0  0  0
  3 19  1  0  0  0  0
  4  1  2  0  0  0  0
  5  6  2  0  0  0  0
  5  4  1  0  0  0  0
  6  9  1  0  0  0  0
  7  6  1  0  0  0  0
  8  7  1  0  0  0  0
  8 13  1  0  0  0  0
  8 15  1  0  0  0  0
  9 16  1  0  0  0  0
  9 10  2  0  0  0  0
 10 17  1  0  0  0  0
 11  4  1  0  0  0  0
 12  5  1  0  0  0  0
 14  8  1  0  0  0  0
 18 21  1  0  0  0  0
 18 22  1  0  0  0  0
 20 18  1  0  0  0  0
M  END
