Coordinates from ORCA-job 4-MeOPhN2+~BF4-_B3LYPG-6-31G_dp-NX-Scan-d89-09-n800
 OpenBabel11261920503D

 22 21  0  0  0  0  0  0  0  0999 V2000
   -1.2603   -1.4835    0.4548 C   0  0  0  0  0  0  0  0  0  0  0  0
   -1.4214   -2.4510    1.3789 N   0  0  0  0  0  0  0  0  0  0  0  0
   -1.5506   -3.2495    2.1599 N   0  0  0  0  0  0  0  0  0  0  0  0
   -1.6782   -1.7314   -0.8859 C   0  0  0  0  0  0  0  0  0  0  0  0
   -1.5747   -0.7081   -1.7877 C   0  0  0  0  0  0  0  0  0  0  0  0
   -1.0762    0.5650   -1.3756 C   0  0  0  0  0  0  0  0  0  0  0  0
   -1.1115    1.5156   -2.2960 O   0  0  0  0  0  0  0  0  0  0  0  0
   -0.7612    2.8731   -1.9181 C   0  0  0  0  0  0  0  0  0  0  0  0
   -0.6055    0.7632   -0.0633 C   0  0  0  0  0  0  0  0  0  0  0  0
   -0.7243   -0.2392    0.8700 C   0  0  0  0  0  0  0  0  0  0  0  0
   -2.0795   -2.6987   -1.1661 H   0  0  0  0  0  0  0  0  0  0  0  0
   -1.9002   -0.8277   -2.8145 H   0  0  0  0  0  0  0  0  0  0  0  0
   -1.2721    3.1591   -0.9955 H   0  0  0  0  0  0  0  0  0  0  0  0
   -1.0808    3.4876   -2.7584 H   0  0  0  0  0  0  0  0  0  0  0  0
    0.3225    2.9501   -1.7898 H   0  0  0  0  0  0  0  0  0  0  0  0
   -0.2536    1.7207    0.2932 H   0  0  0  0  0  0  0  0  0  0  0  0
   -0.4506   -0.0269    1.8964 H   0  0  0  0  0  0  0  0  0  0  0  0
   -1.5218    2.4985    2.4148 B   0  0  0  0  0  0  0  0  0  0  0  0
   -0.1647    2.0488    2.4772 F   0  0  0  0  0  0  0  0  0  0  0  0
   -1.6880    3.1577    1.1606 F   0  0  0  0  0  0  0  0  0  0  0  0
   -2.3442    1.3487    2.4341 F   0  0  0  0  0  0  0  0  0  0  0  0
   -1.8069    3.3476    3.4573 F   0  0  0  0  0  0  0  0  0  0  0  0
  1 10  1  0  0  0  0
  1  2  1  0  0  0  0
  2  3  1  0  0  0  0
  4  1  2  0  0  0  0
  5  6  2  0  0  0  0
  5  4  1  0  0  0  0
  6  9  1  0  0  0  0
  7  8  1  0  0  0  0
  7  6  1  0  0  0  0
  8 15  1  0  0  0  0
  8 13  1  0  0  0  0
  9 16  1  0  0  0  0
  9 10  2  0  0  0  0
 10 17  1  0  0  0  0
 11  4  1  0  0  0  0
 12  5  1  0  0  0  0
 14  8  1  0  0  0  0
 18 21  1  0  0  0  0
 18 19  1  0  0  0  0
 18 22  1  0  0  0  0
 20 18  1  0  0  0  0
M  RAD  2   2   2   3   3
M  END
