Coordinates from ORCA-job 4-MeOPhN2+~BF4-_B3LYPG-6-31G_dp-NX-Scan-d89-09-n800
 OpenBabel11261920503D

 22 21  0  0  0  0  0  0  0  0999 V2000
   -1.2356   -1.4380    0.4313 C   0  0  0  0  0  0  0  0  0  0  0  0
   -1.3441   -2.3649    1.4065 N   0  0  0  0  0  0  0  0  0  0  0  0
   -1.4189   -3.0901    2.2609 N   0  0  0  0  0  0  0  0  0  0  0  0
   -1.6033   -1.7578   -0.9068 C   0  0  0  0  0  0  0  0  0  0  0  0
   -1.5424   -0.7540   -1.8362 C   0  0  0  0  0  0  0  0  0  0  0  0
   -1.1351    0.5592   -1.4514 C   0  0  0  0  0  0  0  0  0  0  0  0
   -1.1861    1.4773   -2.4097 O   0  0  0  0  0  0  0  0  0  0  0  0
   -0.8626    2.8471   -2.0771 C   0  0  0  0  0  0  0  0  0  0  0  0
   -0.7337    0.8349   -0.1329 C   0  0  0  0  0  0  0  0  0  0  0  0
   -0.8007   -0.1515    0.8251 C   0  0  0  0  0  0  0  0  0  0  0  0
   -1.9312   -2.7575   -1.1680 H   0  0  0  0  0  0  0  0  0  0  0  0
   -1.8268   -0.9256   -2.8679 H   0  0  0  0  0  0  0  0  0  0  0  0
   -1.4213    3.1804   -1.1993 H   0  0  0  0  0  0  0  0  0  0  0  0
   -1.1411    3.4259   -2.9565 H   0  0  0  0  0  0  0  0  0  0  0  0
    0.2101    2.9429   -1.8872 H   0  0  0  0  0  0  0  0  0  0  0  0
   -0.4610    1.8279    0.2120 H   0  0  0  0  0  0  0  0  0  0  0  0
   -0.5714    0.1020    1.8615 H   0  0  0  0  0  0  0  0  0  0  0  0
   -1.4198    2.4328    2.6306 B   0  0  0  0  0  0  0  0  0  0  0  0
   -0.5093    1.4435    3.1289 F   0  0  0  0  0  0  0  0  0  0  0  0
   -0.7505    3.1484    1.5875 F   0  0  0  0  0  0  0  0  0  0  0  0
   -2.5124    1.7516    2.0599 F   0  0  0  0  0  0  0  0  0  0  0  0
   -1.8067    3.2853    3.6354 F   0  0  0  0  0  0  0  0  0  0  0  0
  1 10  1  0  0  0  0
  1  2  1  0  0  0  0
  2  3  1  0  0  0  0
  4  1  2  0  0  0  0
  5  6  2  0  0  0  0
  5  4  1  0  0  0  0
  6  9  1  0  0  0  0
  7  8  1  0  0  0  0
  7  6  1  0  0  0  0
  8 15  1  0  0  0  0
  8 13  1  0  0  0  0
  9 16  1  0  0  0  0
  9 10  2  0  0  0  0
 10 17  1  0  0  0  0
 11  4  1  0  0  0  0
 12  5  1  0  0  0  0
 14  8  1  0  0  0  0
 18 19  1  0  0  0  0
 18 22  1  0  0  0  0
 20 18  1  0  0  0  0
 21 18  1  0  0  0  0
M  RAD  2   2   2   3   3
M  END
