Coordinates from ORCA-job 4-MeOPhN2+~BF4-_B3LYPG-6-31G_dp-NX-Scan-d89-09-n800
 OpenBabel11261920503D

 22 21  0  0  0  0  0  0  0  0999 V2000
   -1.3548   -1.6475    0.3751 C   0  0  0  0  0  0  0  0  0  0  0  0
   -1.5655   -2.6717    1.2217 N   0  0  0  0  0  0  0  0  0  0  0  0
   -1.7315   -3.5107    1.9526 N   0  0  0  0  0  0  0  0  0  0  0  0
   -1.6531   -1.8144   -1.0091 C   0  0  0  0  0  0  0  0  0  0  0  0
   -1.4945   -0.7334   -1.8335 C   0  0  0  0  0  0  0  0  0  0  0  0
   -1.0519    0.5154   -1.3020 C   0  0  0  0  0  0  0  0  0  0  0  0
   -1.0288    1.5261   -2.1501 O   0  0  0  0  0  0  0  0  0  0  0  0
   -0.7657    2.8665   -1.6389 C   0  0  0  0  0  0  0  0  0  0  0  0
   -0.6891    0.6355    0.0583 C   0  0  0  0  0  0  0  0  0  0  0  0
   -0.8718   -0.4240    0.9101 C   0  0  0  0  0  0  0  0  0  0  0  0
   -2.0112   -2.7672   -1.3824 H   0  0  0  0  0  0  0  0  0  0  0  0
   -1.7334   -0.7914   -2.8892 H   0  0  0  0  0  0  0  0  0  0  0  0
   -1.4084    3.0715   -0.7792 H   0  0  0  0  0  0  0  0  0  0  0  0
   -0.9832    3.5255   -2.4778 H   0  0  0  0  0  0  0  0  0  0  0  0
    0.2837    2.9534   -1.3483 H   0  0  0  0  0  0  0  0  0  0  0  0
   -0.3245    1.5700    0.4780 H   0  0  0  0  0  0  0  0  0  0  0  0
   -0.7048   -0.2777    1.9719 H   0  0  0  0  0  0  0  0  0  0  0  0
   -1.3986    2.8206    2.2247 B   0  0  0  0  0  0  0  0  0  0  0  0
   -0.1192    3.0115    1.6094 F   0  0  0  0  0  0  0  0  0  0  0  0
   -2.3490    2.7545    1.1716 F   0  0  0  0  0  0  0  0  0  0  0  0
   -1.3677    1.5651    2.8859 F   0  0  0  0  0  0  0  0  0  0  0  0
   -1.6806    3.8421    3.0976 F   0  0  0  0  0  0  0  0  0  0  0  0
  1 10  1  0  0  0  0
  1  2  1  0  0  0  0
  2  3  1  0  0  0  0
  4  1  2  0  0  0  0
  5  6  2  0  0  0  0
  5  4  1  0  0  0  0
  6  9  1  0  0  0  0
  7  8  1  0  0  0  0
  7  6  1  0  0  0  0
  8 15  1  0  0  0  0
  8 13  1  0  0  0  0
  9 16  1  0  0  0  0
  9 10  2  0  0  0  0
 10 17  1  0  0  0  0
 11  4  1  0  0  0  0
 12  5  1  0  0  0  0
 14  8  1  0  0  0  0
 18 21  1  0  0  0  0
 18 22  1  0  0  0  0
 19 18  1  0  0  0  0
 20 18  1  0  0  0  0
M  RAD  2   2   2   3   3
M  END
