Coordinates from ORCA-job 4-MeOPhN2+~BF4-_B3LYPG-6-31G_dp-NX-Scan-d89-09-n800
 OpenBabel11261920503D

 22 21  0  0  0  0  0  0  0  0999 V2000
   -1.4290   -1.8467    0.3159 C   0  0  0  0  0  0  0  0  0  0  0  0
   -1.6111   -2.9596    1.0506 N   0  0  0  0  0  0  0  0  0  0  0  0
   -1.7658   -3.9008    1.6505 N   0  0  0  0  0  0  0  0  0  0  0  0
   -1.5750   -1.9421   -1.1007 C   0  0  0  0  0  0  0  0  0  0  0  0
   -1.4136   -0.8077   -1.8473 C   0  0  0  0  0  0  0  0  0  0  0  0
   -1.1143    0.4381   -1.2151 C   0  0  0  0  0  0  0  0  0  0  0  0
   -1.0217    1.4752   -2.0147 O   0  0  0  0  0  0  0  0  0  0  0  0
   -0.8311    2.8120   -1.4477 C   0  0  0  0  0  0  0  0  0  0  0  0
   -0.9416    0.5063    0.1915 C   0  0  0  0  0  0  0  0  0  0  0  0
   -1.1069   -0.6179    0.9584 C   0  0  0  0  0  0  0  0  0  0  0  0
   -1.8159   -2.8941   -1.5604 H   0  0  0  0  0  0  0  0  0  0  0  0
   -1.5254   -0.8245   -2.9256 H   0  0  0  0  0  0  0  0  0  0  0  0
   -1.6223    3.0277   -0.7275 H   0  0  0  0  0  0  0  0  0  0  0  0
   -0.8611    3.4744   -2.3103 H   0  0  0  0  0  0  0  0  0  0  0  0
    0.1295    2.8754   -0.9364 H   0  0  0  0  0  0  0  0  0  0  0  0
   -0.6938    1.4223    0.7114 H   0  0  0  0  0  0  0  0  0  0  0  0
   -1.0013   -0.5376    2.0354 H   0  0  0  0  0  0  0  0  0  0  0  0
   -1.1645    3.2953    2.0870 B   0  0  0  0  0  0  0  0  0  0  0  0
   -0.1724    3.8667    1.2616 F   0  0  0  0  0  0  0  0  0  0  0  0
   -2.2934    2.9942    1.2688 F   0  0  0  0  0  0  0  0  0  0  0  0
   -0.6638    2.0423    2.5712 F   0  0  0  0  0  0  0  0  0  0  0  0
   -1.5095    4.1210    3.1297 F   0  0  0  0  0  0  0  0  0  0  0  0
  1 10  1  0  0  0  0
  1  2  1  0  0  0  0
  2  3  1  0  0  0  0
  4  1  2  0  0  0  0
  5  6  2  0  0  0  0
  5  4  1  0  0  0  0
  6  9  1  0  0  0  0
  7  8  1  0  0  0  0
  7  6  1  0  0  0  0
  8 15  1  0  0  0  0
  8 13  1  0  0  0  0
  9 16  1  0  0  0  0
  9 10  2  0  0  0  0
 10 17  1  0  0  0  0
 11  4  1  0  0  0  0
 12  5  1  0  0  0  0
 14  8  1  0  0  0  0
 18 21  1  0  0  0  0
 18 22  1  0  0  0  0
 19 18  1  0  0  0  0
 20 18  1  0  0  0  0
M  RAD  2   2   2   3   3
M  END
