Coordinates from ORCA-job 4-MeOPhN2+~BF4-_B3LYPG-6-31G_dp-NX-Scan-d89-09-n800
 OpenBabel11261920503D

 22 21  0  0  0  0  0  0  0  0999 V2000
   -1.2807   -0.6449    0.6007 C   0  0  0  0  0  0  0  0  0  0  0  0
   -1.3974   -1.3572    1.7633 N   0  0  0  0  0  0  0  0  0  0  0  0
   -1.4912   -1.9971    2.6701 N   0  0  0  0  0  0  0  0  0  0  0  0
   -1.7103   -1.2764   -0.5902 C   0  0  0  0  0  0  0  0  0  0  0  0
   -1.6063   -0.5789   -1.7700 C   0  0  0  0  0  0  0  0  0  0  0  0
   -1.0844    0.7383   -1.7736 C   0  0  0  0  0  0  0  0  0  0  0  0
   -1.0394    1.3268   -2.9748 O   0  0  0  0  0  0  0  0  0  0  0  0
   -0.5569    2.6723   -3.0829 C   0  0  0  0  0  0  0  0  0  0  0  0
   -0.6585    1.3404   -0.5741 C   0  0  0  0  0  0  0  0  0  0  0  0
   -0.7535    0.6591    0.6266 C   0  0  0  0  0  0  0  0  0  0  0  0
   -2.1173   -2.2807   -0.5649 H   0  0  0  0  0  0  0  0  0  0  0  0
   -1.9265   -1.0119   -2.7102 H   0  0  0  0  0  0  0  0  0  0  0  0
   -1.1756    3.3580   -2.4959 H   0  0  0  0  0  0  0  0  0  0  0  0
   -0.6319    2.9233   -4.1403 H   0  0  0  0  0  0  0  0  0  0  0  0
    0.4871    2.7410   -2.7608 H   0  0  0  0  0  0  0  0  0  0  0  0
   -0.2693    2.3496   -0.5612 H   0  0  0  0  0  0  0  0  0  0  0  0
   -0.4606    1.1119    1.5671 H   0  0  0  0  0  0  0  0  0  0  0  0
   -1.6853    1.2118    3.6181 B   0  0  0  0  0  0  0  0  0  0  0  0
   -0.5291    0.3584    3.5498 F   0  0  0  0  0  0  0  0  0  0  0  0
   -1.3653    2.3840    2.9045 F   0  0  0  0  0  0  0  0  0  0  0  0
   -2.7198    0.5254    2.9241 F   0  0  0  0  0  0  0  0  0  0  0  0
   -2.0315    1.4665    4.9210 F   0  0  0  0  0  0  0  0  0  0  0  0
  1 10  1  0  0  0  0
  1  2  1  0  0  0  0
  2  3  1  0  0  0  0
  4 11  1  0  0  0  0
  4  1  2  0  0  0  0
  5  4  1  0  0  0  0
  6  5  2  0  0  0  0
  6  9  1  0  0  0  0
  7  6  1  0  0  0  0
  8  7  1  0  0  0  0
  8 15  1  0  0  0  0
  8 13  1  0  0  0  0
  9 16  1  0  0  0  0
  9 10  2  0  0  0  0
 10 17  1  0  0  0  0
 12  5  1  0  0  0  0
 14  8  1  0  0  0  0
 18 22  1  0  0  0  0
 19 18  1  0  0  0  0
 20 18  1  0  0  0  0
 21 18  1  0  0  0  0
M  RAD  2   2   2   3   3
M  END
