Coordinates from ORCA-job 4-MeOPhN2+~BF4-_B3LYPG-6-31G_dp-NX-Scan-d89-09-n800
 OpenBabel11261920503D

 22 21  0  0  0  0  0  0  0  0999 V2000
   -1.3670   -1.6669    0.3680 C   0  0  0  0  0  0  0  0  0  0  0  0
   -1.5846   -2.6977    1.2049 N   0  0  0  0  0  0  0  0  0  0  0  0
   -1.7558   -3.5425    1.9286 N   0  0  0  0  0  0  0  0  0  0  0  0
   -1.6418   -1.8266   -1.0218 C   0  0  0  0  0  0  0  0  0  0  0  0
   -1.4758   -0.7398   -1.8369 C   0  0  0  0  0  0  0  0  0  0  0  0
   -1.0487    0.5088   -1.2919 C   0  0  0  0  0  0  0  0  0  0  0  0
   -1.0161    1.5232   -2.1341 O   0  0  0  0  0  0  0  0  0  0  0  0
   -0.7772    2.8643   -1.6100 C   0  0  0  0  0  0  0  0  0  0  0  0
   -0.7098    0.6230    0.0759 C   0  0  0  0  0  0  0  0  0  0  0  0
   -0.9000   -0.4431    0.9179 C   0  0  0  0  0  0  0  0  0  0  0  0
   -1.9884   -2.7790   -1.4066 H   0  0  0  0  0  0  0  0  0  0  0  0
   -1.6966   -0.7932   -2.8968 H   0  0  0  0  0  0  0  0  0  0  0  0
   -1.4471    3.0596   -0.7695 H   0  0  0  0  0  0  0  0  0  0  0  0
   -0.9731    3.5241   -2.4535 H   0  0  0  0  0  0  0  0  0  0  0  0
    0.2602    2.9575   -1.2827 H   0  0  0  0  0  0  0  0  0  0  0  0
   -0.3482    1.5543    0.5046 H   0  0  0  0  0  0  0  0  0  0  0  0
   -0.7451   -0.3024    1.9825 H   0  0  0  0  0  0  0  0  0  0  0  0
   -1.3736    2.8618    2.2009 B   0  0  0  0  0  0  0  0  0  0  0  0
   -0.1394    3.0984    1.5125 F   0  0  0  0  0  0  0  0  0  0  0  0
   -2.3779    2.7487    1.2048 F   0  0  0  0  0  0  0  0  0  0  0  0
   -1.2517    1.6116    2.8645 F   0  0  0  0  0  0  0  0  0  0  0  0
   -1.6460    3.8757    3.0853 F   0  0  0  0  0  0  0  0  0  0  0  0
  1 10  1  0  0  0  0
  1  2  1  0  0  0  0
  2  3  1  0  0  0  0
  4  1  2  0  0  0  0
  5  6  2  0  0  0  0
  5  4  1  0  0  0  0
  6  9  1  0  0  0  0
  7  8  1  0  0  0  0
  7  6  1  0  0  0  0
  8 15  1  0  0  0  0
  8 13  1  0  0  0  0
  9 16  1  0  0  0  0
  9 10  2  0  0  0  0
 10 17  1  0  0  0  0
 11  4  1  0  0  0  0
 12  5  1  0  0  0  0
 14  8  1  0  0  0  0
 18 21  1  0  0  0  0
 18 22  1  0  0  0  0
 19 18  1  0  0  0  0
 20 18  1  0  0  0  0
M  RAD  2   2   2   3   3
M  END
