Coordinates from ORCA-job 4-MeOPhN2+~BF4-_B3LYPG-6-31G_dp-NX-Scan-d89-09-n800
 OpenBabel11261920503D

 22 21  0  0  0  0  0  0  0  0999 V2000
   -1.2145   -0.7207    0.6101 C   0  0  0  0  0  0  0  0  0  0  0  0
   -1.2927   -1.4627    1.7552 N   0  0  0  0  0  0  0  0  0  0  0  0
   -1.3583   -2.1528    2.6286 N   0  0  0  0  0  0  0  0  0  0  0  0
   -1.7695   -1.2767   -0.5675 C   0  0  0  0  0  0  0  0  0  0  0  0
   -1.7023   -0.5369   -1.7229 C   0  0  0  0  0  0  0  0  0  0  0  0
   -1.0986    0.7465   -1.7145 C   0  0  0  0  0  0  0  0  0  0  0  0
   -1.1073    1.3813   -2.8923 O   0  0  0  0  0  0  0  0  0  0  0  0
   -0.5668    2.7059   -2.9827 C   0  0  0  0  0  0  0  0  0  0  0  0
   -0.5469    1.2705   -0.5305 C   0  0  0  0  0  0  0  0  0  0  0  0
   -0.6022    0.5452    0.6459 C   0  0  0  0  0  0  0  0  0  0  0  0
   -2.2405   -2.2527   -0.5488 H   0  0  0  0  0  0  0  0  0  0  0  0
   -2.1165   -0.9073   -2.6532 H   0  0  0  0  0  0  0  0  0  0  0  0
   -1.1037    3.3923   -2.3210 H   0  0  0  0  0  0  0  0  0  0  0  0
   -0.7097    3.0071   -4.0198 H   0  0  0  0  0  0  0  0  0  0  0  0
    0.5010    2.7102   -2.7409 H   0  0  0  0  0  0  0  0  0  0  0  0
   -0.0997    2.2551   -0.5071 H   0  0  0  0  0  0  0  0  0  0  0  0
   -0.2226    0.9196    1.5910 H   0  0  0  0  0  0  0  0  0  0  0  0
   -1.7702    1.3046    3.4515 B   0  0  0  0  0  0  0  0  0  0  0  0
   -0.4664    0.6988    3.5018 F   0  0  0  0  0  0  0  0  0  0  0  0
   -1.7001    2.3641    2.5307 F   0  0  0  0  0  0  0  0  0  0  0  0
   -2.6521    0.3120    2.9326 F   0  0  0  0  0  0  0  0  0  0  0  0
   -2.1641    1.7162    4.7005 F   0  0  0  0  0  0  0  0  0  0  0  0
  1 10  1  0  0  0  0
  1  2  1  0  0  0  0
  2  3  1  0  0  0  0
  4 11  1  0  0  0  0
  4  1  2  0  0  0  0
  5  6  2  0  0  0  0
  5  4  1  0  0  0  0
  6  9  1  0  0  0  0
  7  6  1  0  0  0  0
  8  7  1  0  0  0  0
  8 15  1  0  0  0  0
  8 13  1  0  0  0  0
  9 16  1  0  0  0  0
  9 10  2  0  0  0  0
 10 17  1  0  0  0  0
 12  5  1  0  0  0  0
 14  8  1  0  0  0  0
 18 19  1  0  0  0  0
 18 22  1  0  0  0  0
 20 18  1  0  0  0  0
 21 18  1  0  0  0  0
M  RAD  2   2   2   3   3
M  END
