Coordinates from ORCA-job 4-MeOPhN2+~BF4-_B3LYPG-6-31G_dp-NX-Scan-d89-09-n800
 OpenBabel11261920503D

 22 21  0  0  0  0  0  0  0  0999 V2000
   -1.2864   -0.6422    0.5971 C   0  0  0  0  0  0  0  0  0  0  0  0
   -1.4005   -1.3521    1.7612 N   0  0  0  0  0  0  0  0  0  0  0  0
   -1.4863   -1.9761    2.6798 N   0  0  0  0  0  0  0  0  0  0  0  0
   -1.7086   -1.2769   -0.5945 C   0  0  0  0  0  0  0  0  0  0  0  0
   -1.6029   -0.5805   -1.7749 C   0  0  0  0  0  0  0  0  0  0  0  0
   -1.0857    0.7385   -1.7783 C   0  0  0  0  0  0  0  0  0  0  0  0
   -1.0361    1.3249   -2.9804 O   0  0  0  0  0  0  0  0  0  0  0  0
   -0.5536    2.6703   -3.0888 C   0  0  0  0  0  0  0  0  0  0  0  0
   -0.6685    1.3444   -0.5776 C   0  0  0  0  0  0  0  0  0  0  0  0
   -0.7658    0.6647    0.6238 C   0  0  0  0  0  0  0  0  0  0  0  0
   -2.1111   -2.2831   -0.5695 H   0  0  0  0  0  0  0  0  0  0  0  0
   -1.9173   -1.0161   -2.7159 H   0  0  0  0  0  0  0  0  0  0  0  0
   -1.1762    3.3573   -2.5074 H   0  0  0  0  0  0  0  0  0  0  0  0
   -0.6221    2.9187   -4.1473 H   0  0  0  0  0  0  0  0  0  0  0  0
    0.4883    2.7403   -2.7605 H   0  0  0  0  0  0  0  0  0  0  0  0
   -0.2837    2.3553   -0.5646 H   0  0  0  0  0  0  0  0  0  0  0  0
   -0.4798    1.1222    1.5642 H   0  0  0  0  0  0  0  0  0  0  0  0
   -1.6806    1.2043    3.6310 B   0  0  0  0  0  0  0  0  0  0  0  0
   -0.5347    0.3376    3.5603 F   0  0  0  0  0  0  0  0  0  0  0  0
   -1.3453    2.3756    2.9216 F   0  0  0  0  0  0  0  0  0  0  0  0
   -2.7222    0.5336    2.9330 F   0  0  0  0  0  0  0  0  0  0  0  0
   -2.0247    1.4591    4.9343 F   0  0  0  0  0  0  0  0  0  0  0  0
  1 10  1  0  0  0  0
  1  2  1  0  0  0  0
  2  3  1  0  0  0  0
  4 11  1  0  0  0  0
  4  1  2  0  0  0  0
  5  4  1  0  0  0  0
  6  5  2  0  0  0  0
  6  9  1  0  0  0  0
  7  6  1  0  0  0  0
  8  7  1  0  0  0  0
  8 15  1  0  0  0  0
  8 13  1  0  0  0  0
  9 16  1  0  0  0  0
  9 10  2  0  0  0  0
 10 17  1  0  0  0  0
 12  5  1  0  0  0  0
 14  8  1  0  0  0  0
 18 22  1  0  0  0  0
 19 18  1  0  0  0  0
 20 18  1  0  0  0  0
 21 18  1  0  0  0  0
M  RAD  2   2   2   3   3
M  END
