Coordinates from ORCA-job 4-MeOPhN2+~BF4-_B3LYPG-6-31G_dp-NX-Scan-d89-09-n800
 OpenBabel11261920503D

 22 21  0  0  0  0  0  0  0  0999 V2000
   -1.2738   -0.6515    0.6049 C   0  0  0  0  0  0  0  0  0  0  0  0
   -1.3943   -1.3684    1.7645 N   0  0  0  0  0  0  0  0  0  0  0  0
   -1.4978   -2.0307    2.6541 N   0  0  0  0  0  0  0  0  0  0  0  0
   -1.7134   -1.2773   -0.5858 C   0  0  0  0  0  0  0  0  0  0  0  0
   -1.6114   -0.5771   -1.7639 C   0  0  0  0  0  0  0  0  0  0  0  0
   -1.0830    0.7377   -1.7664 C   0  0  0  0  0  0  0  0  0  0  0  0
   -1.0443    1.3303   -2.9657 O   0  0  0  0  0  0  0  0  0  0  0  0
   -0.5619    2.6759   -3.0719 C   0  0  0  0  0  0  0  0  0  0  0  0
   -0.6452    1.3330   -0.5678 C   0  0  0  0  0  0  0  0  0  0  0  0
   -0.7373    0.6485    0.6312 C   0  0  0  0  0  0  0  0  0  0  0  0
   -2.1267   -2.2791   -0.5611 H   0  0  0  0  0  0  0  0  0  0  0  0
   -1.9394   -1.0055   -2.7036 H   0  0  0  0  0  0  0  0  0  0  0  0
   -1.1756    3.3592   -2.4770 H   0  0  0  0  0  0  0  0  0  0  0  0
   -0.6453    2.9314   -4.1276 H   0  0  0  0  0  0  0  0  0  0  0  0
    0.4847    2.7428   -2.7579 H   0  0  0  0  0  0  0  0  0  0  0  0
   -0.2500    2.3398   -0.5540 H   0  0  0  0  0  0  0  0  0  0  0  0
   -0.4345    1.0938    1.5718 H   0  0  0  0  0  0  0  0  0  0  0  0
   -1.6899    1.2262    3.5987 B   0  0  0  0  0  0  0  0  0  0  0  0
   -0.5174    0.3951    3.5399 F   0  0  0  0  0  0  0  0  0  0  0  0
   -1.3929    2.3976    2.8750 F   0  0  0  0  0  0  0  0  0  0  0  0
   -2.7108    0.5128    2.9102 F   0  0  0  0  0  0  0  0  0  0  0  0
   -2.0436    1.4853    4.8989 F   0  0  0  0  0  0  0  0  0  0  0  0
  1 10  1  0  0  0  0
  1  2  1  0  0  0  0
  2  3  1  0  0  0  0
  4 11  1  0  0  0  0
  4  1  2  0  0  0  0
  5  4  1  0  0  0  0
  6  5  2  0  0  0  0
  6  9  1  0  0  0  0
  7  6  1  0  0  0  0
  8  7  1  0  0  0  0
  8 15  1  0  0  0  0
  8 13  1  0  0  0  0
  9 16  1  0  0  0  0
  9 10  2  0  0  0  0
 10 17  1  0  0  0  0
 12  5  1  0  0  0  0
 14  8  1  0  0  0  0
 18 22  1  0  0  0  0
 19 18  1  0  0  0  0
 20 18  1  0  0  0  0
 21 18  1  0  0  0  0
M  RAD  2   2   2   3   3
M  END
