Coordinates from ORCA-job 4-MeOPhN2+~BF4-_B3LYPG-6-31G_dp-NX-Scan-d89-09-n800
 OpenBabel11261920503D

 22 21  0  0  0  0  0  0  0  0999 V2000
   -1.5059   -2.0018    0.2542 C   0  0  0  0  0  0  0  0  0  0  0  0
   -1.7018   -3.1530    0.9179 N   0  0  0  0  0  0  0  0  0  0  0  0
   -1.8653   -4.1174    1.4782 N   0  0  0  0  0  0  0  0  0  0  0  0
   -1.5385   -2.0137   -1.1711 C   0  0  0  0  0  0  0  0  0  0  0  0
   -1.3455   -0.8307   -1.8267 C   0  0  0  0  0  0  0  0  0  0  0  0
   -1.1251    0.3818   -1.1002 C   0  0  0  0  0  0  0  0  0  0  0  0
   -0.9728    1.4496   -1.8415 O   0  0  0  0  0  0  0  0  0  0  0  0
   -0.8235    2.7709   -1.2199 C   0  0  0  0  0  0  0  0  0  0  0  0
   -1.0817    0.3763    0.3253 C   0  0  0  0  0  0  0  0  0  0  0  0
   -1.2714   -0.8058    0.9930 C   0  0  0  0  0  0  0  0  0  0  0  0
   -1.7156   -2.9397   -1.7065 H   0  0  0  0  0  0  0  0  0  0  0  0
   -1.3633   -0.7791   -2.9096 H   0  0  0  0  0  0  0  0  0  0  0  0
   -1.7015    2.9875   -0.6127 H   0  0  0  0  0  0  0  0  0  0  0  0
   -0.7253    3.4549   -2.0590 H   0  0  0  0  0  0  0  0  0  0  0  0
    0.0583    2.7874   -0.5806 H   0  0  0  0  0  0  0  0  0  0  0  0
   -0.8881    1.2847    0.8968 H   0  0  0  0  0  0  0  0  0  0  0  0
   -1.2451   -0.8327    2.0774 H   0  0  0  0  0  0  0  0  0  0  0  0
   -1.0434    3.6344    1.8714 B   0  0  0  0  0  0  0  0  0  0  0  0
   -0.8483    4.6680    0.9482 F   0  0  0  0  0  0  0  0  0  0  0  0
   -2.2164    2.9076    1.5025 F   0  0  0  0  0  0  0  0  0  0  0  0
    0.0496    2.7052    1.7403 F   0  0  0  0  0  0  0  0  0  0  0  0
   -1.1332    4.0855    3.1689 F   0  0  0  0  0  0  0  0  0  0  0  0
  1  2  1  0  0  0  0
  1 10  2  0  0  0  0
  2  3  1  0  0  0  0
  4  1  1  0  0  0  0
  5  4  2  0  0  0  0
  5  6  1  0  0  0  0
  6  9  2  0  0  0  0
  7  8  1  0  0  0  0
  7  6  1  0  0  0  0
  8 13  1  0  0  0  0
  8 15  1  0  0  0  0
  9 16  1  0  0  0  0
  9 10  1  0  0  0  0
 10 17  1  0  0  0  0
 11  4  1  0  0  0  0
 12  5  1  0  0  0  0
 14  8  1  0  0  0  0
 18 22  1  0  0  0  0
 19 18  1  0  0  0  0
 20 18  1  0  0  0  0
 21 18  1  0  0  0  0
M  RAD  2   2   2   3   3
M  END
