Coordinates from ORCA-job 4-MeOPhN2+~BF4-_B3LYPG-6-31G_dp-NX-Scan-d89-09-n800
 OpenBabel11261920503D

 22 21  0  0  0  0  0  0  0  0999 V2000
   -1.3255   -0.6382    0.5510 C   0  0  0  0  0  0  0  0  0  0  0  0
   -1.4533   -1.3450    1.7275 N   0  0  0  0  0  0  0  0  0  0  0  0
   -1.4063   -1.5357    2.8480 N   0  0  0  0  0  0  0  0  0  0  0  0
   -1.6676   -1.2937   -0.6491 C   0  0  0  0  0  0  0  0  0  0  0  0
   -1.5477   -0.6116   -1.8400 C   0  0  0  0  0  0  0  0  0  0  0  0
   -1.0882    0.7246   -1.8438 C   0  0  0  0  0  0  0  0  0  0  0  0
   -1.0114    1.3008   -3.0544 O   0  0  0  0  0  0  0  0  0  0  0  0
   -0.5734    2.6587   -3.1576 C   0  0  0  0  0  0  0  0  0  0  0  0
   -0.7473    1.3628   -0.6356 C   0  0  0  0  0  0  0  0  0  0  0  0
   -0.8643    0.6908    0.5709 C   0  0  0  0  0  0  0  0  0  0  0  0
   -2.0226   -2.3177   -0.6229 H   0  0  0  0  0  0  0  0  0  0  0  0
   -1.8033   -1.0744   -2.7860 H   0  0  0  0  0  0  0  0  0  0  0  0
   -1.2430    3.3315   -2.6118 H   0  0  0  0  0  0  0  0  0  0  0  0
   -0.6044    2.8957   -4.2206 H   0  0  0  0  0  0  0  0  0  0  0  0
    0.4507    2.7723   -2.7866 H   0  0  0  0  0  0  0  0  0  0  0  0
   -0.3992    2.3872   -0.6251 H   0  0  0  0  0  0  0  0  0  0  0  0
   -0.6195    1.1871    1.5037 H   0  0  0  0  0  0  0  0  0  0  0  0
   -1.6678    1.1670    3.7831 B   0  0  0  0  0  0  0  0  0  0  0  0
   -0.7655   -0.0532    3.7109 F   0  0  0  0  0  0  0  0  0  0  0  0
   -0.9047    2.1896    3.2229 F   0  0  0  0  0  0  0  0  0  0  0  0
   -2.7520    0.8505    2.9726 F   0  0  0  0  0  0  0  0  0  0  0  0
   -1.9876    1.3707    5.0893 F   0  0  0  0  0  0  0  0  0  0  0  0
  1 10  1  0  0  0  0
  1  2  1  0  0  0  0
  2  3  1  0  0  0  0
  4 11  1  0  0  0  0
  4  1  2  0  0  0  0
  5  4  1  0  0  0  0
  6  5  2  0  0  0  0
  6  9  1  0  0  0  0
  7  6  1  0  0  0  0
  8  7  1  0  0  0  0
  8 15  1  0  0  0  0
  8 13  1  0  0  0  0
  9 16  1  0  0  0  0
  9 10  2  0  0  0  0
 10 17  1  0  0  0  0
 12  5  1  0  0  0  0
 14  8  1  0  0  0  0
 18 22  1  0  0  0  0
 19 18  1  0  0  0  0
 20 18  1  0  0  0  0
 21 18  1  0  0  0  0
M  RAD  2   2   2   3   3
M  END
