Coordinates from ORCA-job 4-MeOPhN2+~BF4-_B3LYPG-6-31G_dp-NX-Scan-d89-09-n800
 OpenBabel11261920503D

 22 21  0  0  0  0  0  0  0  0999 V2000
   -1.3240   -0.6448    0.5529 C   0  0  0  0  0  0  0  0  0  0  0  0
   -1.4514   -1.3619    1.7259 N   0  0  0  0  0  0  0  0  0  0  0  0
   -1.3789   -1.5007    2.8572 N   0  0  0  0  0  0  0  0  0  0  0  0
   -1.6757   -1.2928   -0.6480 C   0  0  0  0  0  0  0  0  0  0  0  0
   -1.5576   -0.6088   -1.8384 C   0  0  0  0  0  0  0  0  0  0  0  0
   -1.0895    0.7238   -1.8413 C   0  0  0  0  0  0  0  0  0  0  0  0
   -1.0132    1.3027   -3.0513 O   0  0  0  0  0  0  0  0  0  0  0  0
   -0.5623    2.6562   -3.1527 C   0  0  0  0  0  0  0  0  0  0  0  0
   -0.7404    1.3570   -0.6328 C   0  0  0  0  0  0  0  0  0  0  0  0
   -0.8558    0.6817    0.5722 C   0  0  0  0  0  0  0  0  0  0  0  0
   -2.0366   -2.3148   -0.6225 H   0  0  0  0  0  0  0  0  0  0  0  0
   -1.8206   -1.0678   -2.7842 H   0  0  0  0  0  0  0  0  0  0  0  0
   -1.2238    3.3348   -2.6043 H   0  0  0  0  0  0  0  0  0  0  0  0
   -0.5932    2.8958   -4.2153 H   0  0  0  0  0  0  0  0  0  0  0  0
    0.4637    2.7592   -2.7838 H   0  0  0  0  0  0  0  0  0  0  0  0
   -0.3870    2.3795   -0.6210 H   0  0  0  0  0  0  0  0  0  0  0  0
   -0.6048    1.1743    1.5041 H   0  0  0  0  0  0  0  0  0  0  0  0
   -1.6929    1.1786    3.7775 B   0  0  0  0  0  0  0  0  0  0  0  0
   -0.7305   -0.0153    3.6195 F   0  0  0  0  0  0  0  0  0  0  0  0
   -0.9879    2.2367    3.2203 F   0  0  0  0  0  0  0  0  0  0  0  0
   -2.7917    0.8322    3.0084 F   0  0  0  0  0  0  0  0  0  0  0  0
   -1.9495    1.3142    5.1042 F   0  0  0  0  0  0  0  0  0  0  0  0
  1 10  1  0  0  0  0
  1  2  1  0  0  0  0
  2  3  2  0  0  0  0
  4 11  1  0  0  0  0
  4  1  2  0  0  0  0
  5  4  1  0  0  0  0
  6  5  2  0  0  0  0
  6  9  1  0  0  0  0
  7  6  1  0  0  0  0
  8  7  1  0  0  0  0
  8 15  1  0  0  0  0
  8 13  1  0  0  0  0
  9 16  1  0  0  0  0
  9 10  2  0  0  0  0
 10 17  1  0  0  0  0
 12  5  1  0  0  0  0
 14  8  1  0  0  0  0
 18 22  1  0  0  0  0
 19 18  1  0  0  0  0
 20 18  1  0  0  0  0
 21 18  1  0  0  0  0
M  RAD  1   3   2
M  END
