Coordinates from ORCA-job 4-MeOPhN2+~BF4-_B3LYPG-6-31G_dp-NX-Scan-d89-09-n800
 OpenBabel11261920503D

 22 21  0  0  0  0  0  0  0  0999 V2000
   -1.2697   -0.6557    0.6074 C   0  0  0  0  0  0  0  0  0  0  0  0
   -1.3928   -1.3755    1.7653 N   0  0  0  0  0  0  0  0  0  0  0  0
   -1.4992   -2.0539    2.6425 N   0  0  0  0  0  0  0  0  0  0  0  0
   -1.7166   -1.2775   -0.5829 C   0  0  0  0  0  0  0  0  0  0  0  0
   -1.6155   -0.5756   -1.7601 C   0  0  0  0  0  0  0  0  0  0  0  0
   -1.0821    0.7372   -1.7618 C   0  0  0  0  0  0  0  0  0  0  0  0
   -1.0470    1.3324   -2.9599 O   0  0  0  0  0  0  0  0  0  0  0  0
   -0.5645    2.6781   -3.0649 C   0  0  0  0  0  0  0  0  0  0  0  0
   -0.6360    1.3279   -0.5640 C   0  0  0  0  0  0  0  0  0  0  0  0
   -0.7268    0.6414    0.6339 C   0  0  0  0  0  0  0  0  0  0  0  0
   -2.1345   -2.2774   -0.5586 H   0  0  0  0  0  0  0  0  0  0  0  0
   -1.9487   -1.0008   -2.6993 H   0  0  0  0  0  0  0  0  0  0  0  0
   -1.1746    3.3598   -2.4646 H   0  0  0  0  0  0  0  0  0  0  0  0
   -0.6536    2.9367   -4.1193 H   0  0  0  0  0  0  0  0  0  0  0  0
    0.4839    2.7435   -2.7565 H   0  0  0  0  0  0  0  0  0  0  0  0
   -0.2362    2.3329   -0.5498 H   0  0  0  0  0  0  0  0  0  0  0  0
   -0.4171    1.0808    1.5749 H   0  0  0  0  0  0  0  0  0  0  0  0
   -1.6936    1.2364    3.5866 B   0  0  0  0  0  0  0  0  0  0  0  0
   -0.5082    0.4230    3.5328 F   0  0  0  0  0  0  0  0  0  0  0  0
   -1.4157    2.4073    2.8566 F   0  0  0  0  0  0  0  0  0  0  0  0
   -2.7037    0.5023    2.9028 F   0  0  0  0  0  0  0  0  0  0  0  0
   -2.0517    1.4964    4.8855 F   0  0  0  0  0  0  0  0  0  0  0  0
  1 10  1  0  0  0  0
  1  2  1  0  0  0  0
  2  3  1  0  0  0  0
  4 11  1  0  0  0  0
  4  1  2  0  0  0  0
  5  4  1  0  0  0  0
  6  5  2  0  0  0  0
  6  9  1  0  0  0  0
  7  6  1  0  0  0  0
  8  7  1  0  0  0  0
  8 15  1  0  0  0  0
  8 13  1  0  0  0  0
  9 16  1  0  0  0  0
  9 10  2  0  0  0  0
 10 17  1  0  0  0  0
 12  5  1  0  0  0  0
 14  8  1  0  0  0  0
 18 22  1  0  0  0  0
 19 18  1  0  0  0  0
 20 18  1  0  0  0  0
 21 18  1  0  0  0  0
M  RAD  2   2   2   3   3
M  END
