Coordinates from ORCA-job 4-MeOPhN2+~BF4-_B3LYPG-6-31G_dp-NX-Scan-d89-09-n800
 OpenBabel11261920503D

 22 21  0  0  0  0  0  0  0  0999 V2000
   -1.3808   -0.6892    0.4614 C   0  0  0  0  0  0  0  0  0  0  0  0
   -1.6386   -1.5303    1.5639 N   0  0  0  0  0  0  0  0  0  0  0  0
   -1.4175   -1.3552    2.7538 N   0  0  0  0  0  0  0  0  0  0  0  0
   -1.6103   -1.3261   -0.7769 C   0  0  0  0  0  0  0  0  0  0  0  0
   -1.4235   -0.6593   -1.9725 C   0  0  0  0  0  0  0  0  0  0  0  0
   -1.0170    0.6865   -1.9636 C   0  0  0  0  0  0  0  0  0  0  0  0
   -0.8659    1.2631   -3.1798 O   0  0  0  0  0  0  0  0  0  0  0  0
   -0.4722    2.6295   -3.2474 C   0  0  0  0  0  0  0  0  0  0  0  0
   -0.8034    1.3399   -0.7394 C   0  0  0  0  0  0  0  0  0  0  0  0
   -0.9771    0.6616    0.4637 C   0  0  0  0  0  0  0  0  0  0  0  0
   -1.9366   -2.3601   -0.7641 H   0  0  0  0  0  0  0  0  0  0  0  0
   -1.5923   -1.1461   -2.9267 H   0  0  0  0  0  0  0  0  0  0  0  0
   -1.2047    3.2824   -2.7578 H   0  0  0  0  0  0  0  0  0  0  0  0
   -0.4245    2.8732   -4.3091 H   0  0  0  0  0  0  0  0  0  0  0  0
    0.5144    2.7857   -2.7953 H   0  0  0  0  0  0  0  0  0  0  0  0
   -0.4990    2.3785   -0.7110 H   0  0  0  0  0  0  0  0  0  0  0  0
   -0.8171    1.1953    1.3872 H   0  0  0  0  0  0  0  0  0  0  0  0
   -1.8926    1.5167    4.3919 B   0  0  0  0  0  0  0  0  0  0  0  0
   -0.8193   -0.1800    3.0459 F   0  0  0  0  0  0  0  0  0  0  0  0
   -1.3658    2.4230    3.5792 F   0  0  0  0  0  0  0  0  0  0  0  0
   -3.0928    1.0327    4.1359 F   0  0  0  0  0  0  0  0  0  0  0  0
   -1.2670    1.1979    5.5072 F   0  0  0  0  0  0  0  0  0  0  0  0
  1 10  1  0  0  0  0
  1  2  1  0  0  0  0
  2  3  1  0  0  0  0
  3 19  1  0  0  0  0
  4 11  1  0  0  0  0
  4  1  2  0  0  0  0
  5  6  2  0  0  0  0
  5  4  1  0  0  0  0
  6  9  1  0  0  0  0
  7  6  1  0  0  0  0
  8  7  1  0  0  0  0
  8 15  1  0  0  0  0
  8 13  1  0  0  0  0
  9 16  1  0  0  0  0
  9 10  2  0  0  0  0
 10 17  1  0  0  0  0
 12  5  1  0  0  0  0
 14  8  1  0  0  0  0
 18 22  1  0  0  0  0
 20 18  1  0  0  0  0
 21 18  1  0  0  0  0
M  RAD  2   2   2   3   2
M  END
