Coordinates from ORCA-job 4-MeOPhN2+~BF4-_B3LYPG-6-31G_dp-NX-Scan-d89-09-n800
 OpenBabel11261920503D

 22 21  0  0  0  0  0  0  0  0999 V2000
   -1.2240   -1.2571    0.4684 C   0  0  0  0  0  0  0  0  0  0  0  0
   -1.3156   -2.1241    1.5026 N   0  0  0  0  0  0  0  0  0  0  0  0
   -1.3859   -2.8116    2.3864 N   0  0  0  0  0  0  0  0  0  0  0  0
   -1.6253   -1.6626   -0.8350 C   0  0  0  0  0  0  0  0  0  0  0  0
   -1.5693   -0.7244   -1.8304 C   0  0  0  0  0  0  0  0  0  0  0  0
   -1.1457    0.6080   -1.5434 C   0  0  0  0  0  0  0  0  0  0  0  0
   -1.1734    1.4394   -2.5833 O   0  0  0  0  0  0  0  0  0  0  0  0
   -0.8234    2.8217   -2.3823 C   0  0  0  0  0  0  0  0  0  0  0  0
   -0.7466    0.9779   -0.2482 C   0  0  0  0  0  0  0  0  0  0  0  0
   -0.7801    0.0487    0.7716 C   0  0  0  0  0  0  0  0  0  0  0  0
   -1.9691   -2.6734   -1.0223 H   0  0  0  0  0  0  0  0  0  0  0  0
   -1.8659   -0.9623   -2.8453 H   0  0  0  0  0  0  0  0  0  0  0  0
   -1.4827    3.2836   -1.6425 H   0  0  0  0  0  0  0  0  0  0  0  0
   -0.9569    3.2953   -3.3538 H   0  0  0  0  0  0  0  0  0  0  0  0
    0.2182    2.9131   -2.0616 H   0  0  0  0  0  0  0  0  0  0  0  0
   -0.4789    1.9886    0.0344 H   0  0  0  0  0  0  0  0  0  0  0  0
   -0.4994    0.3184    1.7915 H   0  0  0  0  0  0  0  0  0  0  0  0
   -1.4554    2.1352    2.9290 B   0  0  0  0  0  0  0  0  0  0  0  0
   -0.5867    1.1006    3.4179 F   0  0  0  0  0  0  0  0  0  0  0  0
   -0.7267    2.8676    1.9527 F   0  0  0  0  0  0  0  0  0  0  0  0
   -2.5365    1.4912    2.2855 F   0  0  0  0  0  0  0  0  0  0  0  0
   -1.8746    2.9460    3.9547 F   0  0  0  0  0  0  0  0  0  0  0  0
  1 10  1  0  0  0  0
  1  2  1  0  0  0  0
  2  3  1  0  0  0  0
  4  1  2  0  0  0  0
  5  6  2  0  0  0  0
  5  4  1  0  0  0  0
  6  9  1  0  0  0  0
  7  8  1  0  0  0  0
  7  6  1  0  0  0  0
  8 15  1  0  0  0  0
  8 13  1  0  0  0  0
  9 16  1  0  0  0  0
  9 10  2  0  0  0  0
 10 17  1  0  0  0  0
 11  4  1  0  0  0  0
 12  5  1  0  0  0  0
 14  8  1  0  0  0  0
 18 19  1  0  0  0  0
 18 22  1  0  0  0  0
 20 18  1  0  0  0  0
 21 18  1  0  0  0  0
M  RAD  2   2   2   3   3
M  END
