Coordinates from ORCA-job 4-MeOPhN2+~BF4-_B3LYPG-6-31G_dp-NX-Scan-d89-09-n800
 OpenBabel11261920503D

 22 21  0  0  0  0  0  0  0  0999 V2000
   -1.2532   -0.8340    0.5695 C   0  0  0  0  0  0  0  0  0  0  0  0
   -1.3314   -1.6162    1.6835 N   0  0  0  0  0  0  0  0  0  0  0  0
   -1.3915   -2.2992    2.5641 N   0  0  0  0  0  0  0  0  0  0  0  0
   -1.8134   -1.3310   -0.6337 C   0  0  0  0  0  0  0  0  0  0  0  0
   -1.7338   -0.5404   -1.7525 C   0  0  0  0  0  0  0  0  0  0  0  0
   -1.1114    0.7344   -1.6837 C   0  0  0  0  0  0  0  0  0  0  0  0
   -1.1080    1.4202   -2.8317 O   0  0  0  0  0  0  0  0  0  0  0  0
   -0.5484    2.7404   -2.8616 C   0  0  0  0  0  0  0  0  0  0  0  0
   -0.5558    1.1973   -0.4776 C   0  0  0  0  0  0  0  0  0  0  0  0
   -0.6251    0.4224    0.6662 C   0  0  0  0  0  0  0  0  0  0  0  0
   -2.2961   -2.3012   -0.6596 H   0  0  0  0  0  0  0  0  0  0  0  0
   -2.1509   -0.8608   -2.6999 H   0  0  0  0  0  0  0  0  0  0  0  0
   -1.0766    3.4030   -2.1695 H   0  0  0  0  0  0  0  0  0  0  0  0
   -0.6853    3.0897   -3.8844 H   0  0  0  0  0  0  0  0  0  0  0  0
    0.5188    2.7177   -2.6188 H   0  0  0  0  0  0  0  0  0  0  0  0
   -0.1007    2.1758   -0.4064 H   0  0  0  0  0  0  0  0  0  0  0  0
   -0.2294    0.7605    1.6239 H   0  0  0  0  0  0  0  0  0  0  0  0
   -1.7208    1.4545    3.3695 B   0  0  0  0  0  0  0  0  0  0  0  0
   -0.3014    1.2687    3.4021 F   0  0  0  0  0  0  0  0  0  0  0  0
   -2.0226    2.2332    2.2372 F   0  0  0  0  0  0  0  0  0  0  0  0
   -2.2955    0.1603    3.1760 F   0  0  0  0  0  0  0  0  0  0  0  0
   -2.1713    2.0244    4.5339 F   0  0  0  0  0  0  0  0  0  0  0  0
  1 10  1  0  0  0  0
  1  2  1  0  0  0  0
  2  3  1  0  0  0  0
  4  1  2  0  0  0  0
  5  6  2  0  0  0  0
  5  4  1  0  0  0  0
  6  9  1  0  0  0  0
  7  6  1  0  0  0  0
  8  7  1  0  0  0  0
  8 15  1  0  0  0  0
  8 13  1  0  0  0  0
  9 16  1  0  0  0  0
  9 10  2  0  0  0  0
 10 17  1  0  0  0  0
 11  4  1  0  0  0  0
 12  5  1  0  0  0  0
 14  8  1  0  0  0  0
 18 19  1  0  0  0  0
 18 22  1  0  0  0  0
 20 18  1  0  0  0  0
 21 18  1  0  0  0  0
M  RAD  2   2   2   3   3
M  END
