Coordinates from ORCA-job 4-MeOPhN2+~BF4-_B3LYPG-6-31G_dp-NX-Scan-d89-09-n800
 OpenBabel11261920503D

 22 21  0  0  0  0  0  0  0  0999 V2000
   -1.3868   -0.6931    0.4572 C   0  0  0  0  0  0  0  0  0  0  0  0
   -1.6512   -1.5399    1.5561 N   0  0  0  0  0  0  0  0  0  0  0  0
   -1.4235   -1.3531    2.7480 N   0  0  0  0  0  0  0  0  0  0  0  0
   -1.6036   -1.3303   -0.7833 C   0  0  0  0  0  0  0  0  0  0  0  0
   -1.4117   -0.6632   -1.9782 C   0  0  0  0  0  0  0  0  0  0  0  0
   -1.0133    0.6847   -1.9674 C   0  0  0  0  0  0  0  0  0  0  0  0
   -0.8565    1.2617   -3.1833 O   0  0  0  0  0  0  0  0  0  0  0  0
   -0.4718    2.6305   -3.2481 C   0  0  0  0  0  0  0  0  0  0  0  0
   -0.8129    1.3396   -0.7421 C   0  0  0  0  0  0  0  0  0  0  0  0
   -0.9911    0.6602    0.4601 C   0  0  0  0  0  0  0  0  0  0  0  0
   -1.9249   -2.3660   -0.7723 H   0  0  0  0  0  0  0  0  0  0  0  0
   -1.5709   -1.1517   -2.9332 H   0  0  0  0  0  0  0  0  0  0  0  0
   -1.2120    3.2786   -2.7637 H   0  0  0  0  0  0  0  0  0  0  0  0
   -0.4180    2.8748   -4.3094 H   0  0  0  0  0  0  0  0  0  0  0  0
    0.5106    2.7936   -2.7889 H   0  0  0  0  0  0  0  0  0  0  0  0
   -0.5149    2.3801   -0.7118 H   0  0  0  0  0  0  0  0  0  0  0  0
   -0.8408    1.1982    1.3830 H   0  0  0  0  0  0  0  0  0  0  0  0
   -1.8844    1.5322    4.4148 B   0  0  0  0  0  0  0  0  0  0  0  0
   -0.8357   -0.2041    3.0272 F   0  0  0  0  0  0  0  0  0  0  0  0
   -1.3447    2.4188    3.5899 F   0  0  0  0  0  0  0  0  0  0  0  0
   -3.0905    1.0608    4.1660 F   0  0  0  0  0  0  0  0  0  0  0  0
   -1.2555    1.2071    5.5261 F   0  0  0  0  0  0  0  0  0  0  0  0
  1 10  1  0  0  0  0
  1  2  1  0  0  0  0
  2  3  1  0  0  0  0
  3 19  1  0  0  0  0
  4 11  1  0  0  0  0
  4  1  2  0  0  0  0
  5  6  2  0  0  0  0
  5  4  1  0  0  0  0
  6  9  1  0  0  0  0
  7  6  1  0  0  0  0
  8  7  1  0  0  0  0
  8 15  1  0  0  0  0
  8 13  1  0  0  0  0
  9 16  1  0  0  0  0
  9 10  2  0  0  0  0
 10 17  1  0  0  0  0
 12  5  1  0  0  0  0
 14  8  1  0  0  0  0
 18 22  1  0  0  0  0
 20 18  1  0  0  0  0
 21 18  1  0  0  0  0
M  RAD  2   2   2   3   2
M  END
