Coordinates from ORCA-job 4-MeOPhN2+~BF4-_B3LYPG-6-31G_dp-NX-Scan-d89-09-n800
 OpenBabel11261920503D

 22 21  0  0  0  0  0  0  0  0999 V2000
   -1.2707   -0.5399    0.5569 C   0  0  0  0  0  0  0  0  0  0  0  0
   -1.3616   -1.2113    1.7499 N   0  0  0  0  0  0  0  0  0  0  0  0
   -1.4183   -1.7920    2.7032 N   0  0  0  0  0  0  0  0  0  0  0  0
   -1.5894   -1.2529   -0.6207 C   0  0  0  0  0  0  0  0  0  0  0  0
   -1.4994   -0.5948   -1.8253 C   0  0  0  0  0  0  0  0  0  0  0  0
   -1.0895    0.7596   -1.8656 C   0  0  0  0  0  0  0  0  0  0  0  0
   -1.0406    1.3015   -3.0900 O   0  0  0  0  0  0  0  0  0  0  0  0
   -0.6527    2.6723   -3.2384 C   0  0  0  0  0  0  0  0  0  0  0  0
   -0.7640    1.4429   -0.6778 C   0  0  0  0  0  0  0  0  0  0  0  0
   -0.8566    0.8046    0.5479 C   0  0  0  0  0  0  0  0  0  0  0  0
   -1.9058   -2.2885   -0.5684 H   0  0  0  0  0  0  0  0  0  0  0  0
   -1.7408   -1.0910   -2.7579 H   0  0  0  0  0  0  0  0  0  0  0  0
   -1.3437    3.3350   -2.7077 H   0  0  0  0  0  0  0  0  0  0  0  0
   -0.7000    2.8740   -4.3079 H   0  0  0  0  0  0  0  0  0  0  0  0
    0.3688    2.8323   -2.8786 H   0  0  0  0  0  0  0  0  0  0  0  0
   -0.4453    2.4766   -0.7000 H   0  0  0  0  0  0  0  0  0  0  0  0
   -0.6181    1.2979    1.4889 H   0  0  0  0  0  0  0  0  0  0  0  0
   -1.6275    1.0215    3.8967 B   0  0  0  0  0  0  0  0  0  0  0  0
   -1.3898   -0.2642    4.4513 F   0  0  0  0  0  0  0  0  0  0  0  0
   -0.4001    1.4964    3.3521 F   0  0  0  0  0  0  0  0  0  0  0  0
   -2.5281    0.8495    2.8077 F   0  0  0  0  0  0  0  0  0  0  0  0
   -2.1307    1.8902    4.8302 F   0  0  0  0  0  0  0  0  0  0  0  0
  1  2  1  0  0  0  0
  2  3  1  0  0  0  0
  4 11  1  0  0  0  0
  4  1  2  0  0  0  0
  5  4  1  0  0  0  0
  6  5  2  0  0  0  0
  6  9  1  0  0  0  0
  7  6  1  0  0  0  0
  8  7  1  0  0  0  0
  8 15  1  0  0  0  0
  8 13  1  0  0  0  0
  9 10  2  0  0  0  0
 10  1  1  0  0  0  0
 10 17  1  0  0  0  0
 12  5  1  0  0  0  0
 14  8  1  0  0  0  0
 16  9  1  0  0  0  0
 18 19  1  0  0  0  0
 18 22  1  0  0  0  0
 20 18  1  0  0  0  0
 21 18  1  0  0  0  0
M  RAD  2   2   2   3   3
M  END
