Coordinates from ORCA-job 4-MeOPhN2+~BF4-_B3LYPG-6-31G_dp-NX-Scan-d89-09-n800
 OpenBabel11261920503D

 22 21  0  0  0  0  0  0  0  0999 V2000
   -1.5038   -1.9851    0.2570 C   0  0  0  0  0  0  0  0  0  0  0  0
   -1.7133   -3.1259    0.9334 N   0  0  0  0  0  0  0  0  0  0  0  0
   -1.8875   -4.0760    1.5141 N   0  0  0  0  0  0  0  0  0  0  0  0
   -1.5612   -2.0015   -1.1671 C   0  0  0  0  0  0  0  0  0  0  0  0
   -1.3594   -0.8237   -1.8300 C   0  0  0  0  0  0  0  0  0  0  0  0
   -1.1090    0.3868   -1.1104 C   0  0  0  0  0  0  0  0  0  0  0  0
   -0.9588    1.4535   -1.8549 O   0  0  0  0  0  0  0  0  0  0  0  0
   -0.8062    2.7728   -1.2310 C   0  0  0  0  0  0  0  0  0  0  0  0
   -1.0363    0.3837    0.3132 C   0  0  0  0  0  0  0  0  0  0  0  0
   -1.2335   -0.7924    0.9880 C   0  0  0  0  0  0  0  0  0  0  0  0
   -1.7647   -2.9259   -1.6961 H   0  0  0  0  0  0  0  0  0  0  0  0
   -1.3968   -0.7747   -2.9125 H   0  0  0  0  0  0  0  0  0  0  0  0
   -1.6823    2.9877   -0.6209 H   0  0  0  0  0  0  0  0  0  0  0  0
   -0.7104    3.4593   -2.0684 H   0  0  0  0  0  0  0  0  0  0  0  0
    0.0782    2.7894   -0.5951 H   0  0  0  0  0  0  0  0  0  0  0  0
   -0.8180    1.2884    0.8816 H   0  0  0  0  0  0  0  0  0  0  0  0
   -1.1879   -0.8164    2.0718 H   0  0  0  0  0  0  0  0  0  0  0  0
   -1.0776    3.5974    1.8800 B   0  0  0  0  0  0  0  0  0  0  0  0
   -0.8926    4.6292    0.9528 F   0  0  0  0  0  0  0  0  0  0  0  0
   -2.2288    2.8446    1.4991 F   0  0  0  0  0  0  0  0  0  0  0  0
    0.0400    2.6945    1.7687 F   0  0  0  0  0  0  0  0  0  0  0  0
   -1.1939    4.0539    3.1733 F   0  0  0  0  0  0  0  0  0  0  0  0
  1  2  1  0  0  0  0
  1 10  2  0  0  0  0
  2  3  1  0  0  0  0
  4  1  1  0  0  0  0
  5  4  2  0  0  0  0
  5  6  1  0  0  0  0
  6  9  2  0  0  0  0
  7  8  1  0  0  0  0
  7  6  1  0  0  0  0
  8 13  1  0  0  0  0
  8 15  1  0  0  0  0
  9 16  1  0  0  0  0
  9 10  1  0  0  0  0
 10 17  1  0  0  0  0
 11  4  1  0  0  0  0
 12  5  1  0  0  0  0
 14  8  1  0  0  0  0
 18 22  1  0  0  0  0
 19 18  1  0  0  0  0
 20 18  1  0  0  0  0
 21 18  1  0  0  0  0
M  RAD  2   2   2   3   3
M  END
