Coordinates from ORCA-job 4-MeOPhN2+~BF4-_B3LYPG-6-31G_dp-NX-Scan-d89-09-n800
 OpenBabel11261920503D

 22 21  0  0  0  0  0  0  0  0999 V2000
   -1.4325   -1.8742    0.3048 C   0  0  0  0  0  0  0  0  0  0  0  0
   -1.6024   -2.9952    1.0288 N   0  0  0  0  0  0  0  0  0  0  0  0
   -1.7461   -3.9414    1.6234 N   0  0  0  0  0  0  0  0  0  0  0  0
   -1.5744   -1.9552   -1.1130 C   0  0  0  0  0  0  0  0  0  0  0  0
   -1.4188   -0.8113   -1.8457 C   0  0  0  0  0  0  0  0  0  0  0  0
   -1.1288    0.4302   -1.1996 C   0  0  0  0  0  0  0  0  0  0  0  0
   -1.0297    1.4711   -1.9923 O   0  0  0  0  0  0  0  0  0  0  0  0
   -0.8257    2.8054   -1.4241 C   0  0  0  0  0  0  0  0  0  0  0  0
   -0.9688    0.4864    0.2098 C   0  0  0  0  0  0  0  0  0  0  0  0
   -1.1249   -0.6492    0.9612 C   0  0  0  0  0  0  0  0  0  0  0  0
   -1.8058   -2.9040   -1.5842 H   0  0  0  0  0  0  0  0  0  0  0  0
   -1.5248   -0.8167   -2.9247 H   0  0  0  0  0  0  0  0  0  0  0  0
   -1.6164    3.0327   -0.7070 H   0  0  0  0  0  0  0  0  0  0  0  0
   -0.8439    3.4676   -2.2872 H   0  0  0  0  0  0  0  0  0  0  0  0
    0.1342    2.8575   -0.9101 H   0  0  0  0  0  0  0  0  0  0  0  0
   -0.7357    1.3987    0.7459 H   0  0  0  0  0  0  0  0  0  0  0  0
   -1.0216   -0.5858    2.0396 H   0  0  0  0  0  0  0  0  0  0  0  0
   -1.1498    3.3528    2.0667 B   0  0  0  0  0  0  0  0  0  0  0  0
   -0.1828    3.9551    1.2376 F   0  0  0  0  0  0  0  0  0  0  0  0
   -2.2832    3.0297    1.2612 F   0  0  0  0  0  0  0  0  0  0  0  0
   -0.6176    2.1060    2.5341 F   0  0  0  0  0  0  0  0  0  0  0  0
   -1.5042    4.1594    3.1217 F   0  0  0  0  0  0  0  0  0  0  0  0
  1 10  1  0  0  0  0
  1  2  1  0  0  0  0
  2  3  1  0  0  0  0
  4  1  2  0  0  0  0
  5  6  2  0  0  0  0
  5  4  1  0  0  0  0
  6  9  1  0  0  0  0
  7  8  1  0  0  0  0
  7  6  1  0  0  0  0
  8 15  1  0  0  0  0
  8 13  1  0  0  0  0
  9 16  1  0  0  0  0
  9 10  2  0  0  0  0
 10 17  1  0  0  0  0
 11  4  1  0  0  0  0
 12  5  1  0  0  0  0
 14  8  1  0  0  0  0
 18 21  1  0  0  0  0
 18 22  1  0  0  0  0
 19 18  1  0  0  0  0
 20 18  1  0  0  0  0
M  RAD  2   2   2   3   3
M  END
