Coordinates from ORCA-job 4-MeOPhN2+~BF4-_B3LYPG-6-31G_dp-NX-Scan-d89-09-n800
 OpenBabel11261920503D

 22 21  0  0  0  0  0  0  0  0999 V2000
   -1.3054   -1.5509    0.4151 C   0  0  0  0  0  0  0  0  0  0  0  0
   -1.4981   -2.5395    1.3091 N   0  0  0  0  0  0  0  0  0  0  0  0
   -1.6505   -3.3512    2.0727 N   0  0  0  0  0  0  0  0  0  0  0  0
   -1.6716   -1.7640   -0.9461 C   0  0  0  0  0  0  0  0  0  0  0  0
   -1.5383   -0.7163   -1.8164 C   0  0  0  0  0  0  0  0  0  0  0  0
   -1.0559    0.5448   -1.3529 C   0  0  0  0  0  0  0  0  0  0  0  0
   -1.0660    1.5237   -2.2409 O   0  0  0  0  0  0  0  0  0  0  0  0
   -0.7500    2.8739   -1.8020 C   0  0  0  0  0  0  0  0  0  0  0  0
   -0.6245    0.7071   -0.0203 C   0  0  0  0  0  0  0  0  0  0  0  0
   -0.7800   -0.3179    0.8806 C   0  0  0  0  0  0  0  0  0  0  0  0
   -2.0598   -2.7242   -1.2664 H   0  0  0  0  0  0  0  0  0  0  0  0
   -1.8285   -0.8088   -2.8566 H   0  0  0  0  0  0  0  0  0  0  0  0
   -1.3063    3.1175   -0.8927 H   0  0  0  0  0  0  0  0  0  0  0  0
   -1.0435    3.5114   -2.6346 H   0  0  0  0  0  0  0  0  0  0  0  0
    0.3259    2.9598   -1.6256 H   0  0  0  0  0  0  0  0  0  0  0  0
   -0.2530    1.6460    0.3735 H   0  0  0  0  0  0  0  0  0  0  0  0
   -0.5760   -0.1369    1.9295 H   0  0  0  0  0  0  0  0  0  0  0  0
   -1.4776    2.6308    2.3484 B   0  0  0  0  0  0  0  0  0  0  0  0
   -0.0785    2.5392    2.0759 F   0  0  0  0  0  0  0  0  0  0  0  0
   -2.1291    2.9081    1.1135 F   0  0  0  0  0  0  0  0  0  0  0  0
   -1.9031    1.3567    2.8050 F   0  0  0  0  0  0  0  0  0  0  0  0
   -1.7339    3.6104    3.2778 F   0  0  0  0  0  0  0  0  0  0  0  0
  1 10  1  0  0  0  0
  1  2  1  0  0  0  0
  2  3  1  0  0  0  0
  4  1  2  0  0  0  0
  5  6  2  0  0  0  0
  5  4  1  0  0  0  0
  6  9  1  0  0  0  0
  7  8  1  0  0  0  0
  7  6  1  0  0  0  0
  8 15  1  0  0  0  0
  8 13  1  0  0  0  0
  9 16  1  0  0  0  0
  9 10  2  0  0  0  0
 10 17  1  0  0  0  0
 11  4  1  0  0  0  0
 12  5  1  0  0  0  0
 14  8  1  0  0  0  0
 18 21  1  0  0  0  0
 18 22  1  0  0  0  0
 19 18  1  0  0  0  0
 20 18  1  0  0  0  0
M  RAD  2   2   2   3   3
M  END
