Coordinates from ORCA-job 4-MeOPhN2+~BF4-_B3LYPG-6-31G_dp-NX-Scan-d89-09-n800
 OpenBabel11261920503D

 22 21  0  0  0  0  0  0  0  0999 V2000
   -1.4002   -1.7774    0.3503 C   0  0  0  0  0  0  0  0  0  0  0  0
   -1.5946   -2.8799    1.1011 N   0  0  0  0  0  0  0  0  0  0  0  0
   -1.7627   -3.8244    1.6925 N   0  0  0  0  0  0  0  0  0  0  0  0
   -1.5766   -1.9020   -1.0613 C   0  0  0  0  0  0  0  0  0  0  0  0
   -1.4185   -0.7867   -1.8364 C   0  0  0  0  0  0  0  0  0  0  0  0
   -1.0884    0.4666   -1.2367 C   0  0  0  0  0  0  0  0  0  0  0  0
   -1.0239    1.4914   -2.0576 O   0  0  0  0  0  0  0  0  0  0  0  0
   -0.8342    2.8378   -1.5177 C   0  0  0  0  0  0  0  0  0  0  0  0
   -0.8665    0.5605    0.1603 C   0  0  0  0  0  0  0  0  0  0  0  0
   -1.0447   -0.5408    0.9603 C   0  0  0  0  0  0  0  0  0  0  0  0
   -1.8415   -2.8603   -1.4940 H   0  0  0  0  0  0  0  0  0  0  0  0
   -1.5607   -0.8239   -2.9105 H   0  0  0  0  0  0  0  0  0  0  0  0
   -1.5855    3.0442   -0.7525 H   0  0  0  0  0  0  0  0  0  0  0  0
   -0.9346    3.4885   -2.3842 H   0  0  0  0  0  0  0  0  0  0  0  0
    0.1560    2.9282   -1.0704 H   0  0  0  0  0  0  0  0  0  0  0  0
   -0.5755    1.4923    0.6279 H   0  0  0  0  0  0  0  0  0  0  0  0
   -0.9325   -0.4239    2.0334 H   0  0  0  0  0  0  0  0  0  0  0  0
   -1.2329    3.1315    2.1345 B   0  0  0  0  0  0  0  0  0  0  0  0
   -0.1008    3.4685    1.3370 F   0  0  0  0  0  0  0  0  0  0  0  0
   -2.3390    2.9992    1.2527 F   0  0  0  0  0  0  0  0  0  0  0  0
   -0.9832    1.8520    2.7151 F   0  0  0  0  0  0  0  0  0  0  0  0
   -1.4633    4.0784    3.1027 F   0  0  0  0  0  0  0  0  0  0  0  0
  1 10  1  0  0  0  0
  1  2  1  0  0  0  0
  2  3  1  0  0  0  0
  4  1  2  0  0  0  0
  5  6  2  0  0  0  0
  5  4  1  0  0  0  0
  6  9  1  0  0  0  0
  7  8  1  0  0  0  0
  7  6  1  0  0  0  0
  8 15  1  0  0  0  0
  8 13  1  0  0  0  0
  9 16  1  0  0  0  0
  9 10  2  0  0  0  0
 10 17  1  0  0  0  0
 11  4  1  0  0  0  0
 12  5  1  0  0  0  0
 14  8  1  0  0  0  0
 18 21  1  0  0  0  0
 18 22  1  0  0  0  0
 19 18  1  0  0  0  0
 20 18  1  0  0  0  0
M  RAD  2   2   2   3   3
M  END
