Coordinates from ORCA-job 4-MeOPhN2+~BF4-_B3LYPG-6-31G_dp-NX-Scan-d89-09-n800
 OpenBabel11261920503D

 22 21  0  0  0  0  0  0  0  0999 V2000
   -1.3010   -0.6812    0.5340 C   0  0  0  0  0  0  0  0  0  0  0  0
   -1.4760   -1.4925    1.6609 N   0  0  0  0  0  0  0  0  0  0  0  0
   -1.2871   -1.3886    2.8347 N   0  0  0  0  0  0  0  0  0  0  0  0
   -1.6574   -1.2993   -0.6824 C   0  0  0  0  0  0  0  0  0  0  0  0
   -1.5429   -0.6185   -1.8781 C   0  0  0  0  0  0  0  0  0  0  0  0
   -1.0708    0.7076   -1.8839 C   0  0  0  0  0  0  0  0  0  0  0  0
   -0.9961    1.2950   -3.0980 O   0  0  0  0  0  0  0  0  0  0  0  0
   -0.5381    2.6423   -3.1871 C   0  0  0  0  0  0  0  0  0  0  0  0
   -0.7166    1.3303   -0.6744 C   0  0  0  0  0  0  0  0  0  0  0  0
   -0.8275    0.6456    0.5299 C   0  0  0  0  0  0  0  0  0  0  0  0
   -2.0234   -2.3196   -0.6567 H   0  0  0  0  0  0  0  0  0  0  0  0
   -1.8129   -1.0787   -2.8218 H   0  0  0  0  0  0  0  0  0  0  0  0
   -1.1927    3.3237   -2.6320 H   0  0  0  0  0  0  0  0  0  0  0  0
   -0.5677    2.8952   -4.2471 H   0  0  0  0  0  0  0  0  0  0  0  0
    0.4895    2.7397   -2.8186 H   0  0  0  0  0  0  0  0  0  0  0  0
   -0.3553    2.3505   -0.6602 H   0  0  0  0  0  0  0  0  0  0  0  0
   -0.5593    1.1365    1.4519 H   0  0  0  0  0  0  0  0  0  0  0  0
   -1.9171    1.4008    4.0115 B   0  0  0  0  0  0  0  0  0  0  0  0
   -0.6871   -0.0570    3.2209 F   0  0  0  0  0  0  0  0  0  0  0  0
   -1.1967    2.3910    3.4784 F   0  0  0  0  0  0  0  0  0  0  0  0
   -3.0149    1.0002    3.3744 F   0  0  0  0  0  0  0  0  0  0  0  0
   -1.7527    1.0968    5.2902 F   0  0  0  0  0  0  0  0  0  0  0  0
  1  2  1  0  0  0  0
  2  3  1  0  0  0  0
  3 19  1  0  0  0  0
  4 11  1  0  0  0  0
  4  1  2  0  0  0  0
  5  4  1  0  0  0  0
  6  5  2  0  0  0  0
  6  9  1  0  0  0  0
  7  6  1  0  0  0  0
  8  7  1  0  0  0  0
  8 15  1  0  0  0  0
  8 13  1  0  0  0  0
  9 16  1  0  0  0  0
  9 10  2  0  0  0  0
 10  1  1  0  0  0  0
 10 17  1  0  0  0  0
 12  5  1  0  0  0  0
 14  8  1  0  0  0  0
 18 22  1  0  0  0  0
 20 18  1  0  0  0  0
 21 18  1  0  0  0  0
M  RAD  2   2   2   3   2
M  END
