Coordinates from ORCA-job 4-MeOPhN2+~BF4-_B3LYPG-6-31G_dp-NX-Scan-d89-09-n800
 OpenBabel11261920503D

 22 21  0  0  0  0  0  0  0  0999 V2000
   -1.3122   -0.6538    0.5574 C   0  0  0  0  0  0  0  0  0  0  0  0
   -1.4697   -1.4334    1.7011 N   0  0  0  0  0  0  0  0  0  0  0  0
   -1.3153   -1.3839    2.8662 N   0  0  0  0  0  0  0  0  0  0  0  0
   -1.6708   -1.2857   -0.6508 C   0  0  0  0  0  0  0  0  0  0  0  0
   -1.5556   -0.6097   -1.8480 C   0  0  0  0  0  0  0  0  0  0  0  0
   -1.0799    0.7167   -1.8593 C   0  0  0  0  0  0  0  0  0  0  0  0
   -1.0040    1.2956   -3.0741 O   0  0  0  0  0  0  0  0  0  0  0  0
   -0.5410    2.6422   -3.1748 C   0  0  0  0  0  0  0  0  0  0  0  0
   -0.7233    1.3471   -0.6530 C   0  0  0  0  0  0  0  0  0  0  0  0
   -0.8365    0.6716    0.5543 C   0  0  0  0  0  0  0  0  0  0  0  0
   -2.0376   -2.3055   -0.6198 H   0  0  0  0  0  0  0  0  0  0  0  0
   -1.8264   -1.0726   -2.7899 H   0  0  0  0  0  0  0  0  0  0  0  0
   -1.1937    3.3290   -2.6249 H   0  0  0  0  0  0  0  0  0  0  0  0
   -0.5709    2.8850   -4.2369 H   0  0  0  0  0  0  0  0  0  0  0  0
    0.4870    2.7374   -2.8078 H   0  0  0  0  0  0  0  0  0  0  0  0
   -0.3615    2.3671   -0.6449 H   0  0  0  0  0  0  0  0  0  0  0  0
   -0.5706    1.1673    1.4758 H   0  0  0  0  0  0  0  0  0  0  0  0
   -1.8233    1.2706    3.8726 B   0  0  0  0  0  0  0  0  0  0  0  0
   -0.7054   -0.0008    3.3290 F   0  0  0  0  0  0  0  0  0  0  0  0
   -1.1466    2.3329    3.3740 F   0  0  0  0  0  0  0  0  0  0  0  0
   -2.9358    0.9039    3.2002 F   0  0  0  0  0  0  0  0  0  0  0  0
   -1.8109    1.0990    5.2001 F   0  0  0  0  0  0  0  0  0  0  0  0
  1  2  1  0  0  0  0
  2  3  1  0  0  0  0
  3 19  1  0  0  0  0
  4 11  1  0  0  0  0
  4  1  2  0  0  0  0
  5  4  1  0  0  0  0
  6  5  2  0  0  0  0
  6  9  1  0  0  0  0
  7  6  1  0  0  0  0
  8  7  1  0  0  0  0
  8 15  1  0  0  0  0
  8 13  1  0  0  0  0
  9 16  1  0  0  0  0
  9 10  2  0  0  0  0
 10  1  1  0  0  0  0
 10 17  1  0  0  0  0
 12  5  1  0  0  0  0
 14  8  1  0  0  0  0
 18 22  1  0  0  0  0
 20 18  1  0  0  0  0
 21 18  1  0  0  0  0
M  RAD  2   2   2   3   2
M  END
