Coordinates from ORCA-job 4-MeOPhN2+~BF4-_B3LYPG-6-31G_dp-NX-Scan-d89-09-n800
 OpenBabel11261920503D

 22 21  0  0  0  0  0  0  0  0999 V2000
   -1.2392   -0.7893    0.5828 C   0  0  0  0  0  0  0  0  0  0  0  0
   -1.3184   -1.5554    1.7093 N   0  0  0  0  0  0  0  0  0  0  0  0
   -1.3848   -2.2418    2.5864 N   0  0  0  0  0  0  0  0  0  0  0  0
   -1.7905   -1.3137   -0.6121 C   0  0  0  0  0  0  0  0  0  0  0  0
   -1.7151   -0.5437   -1.7461 C   0  0  0  0  0  0  0  0  0  0  0  0
   -1.1064    0.7378   -1.6999 C   0  0  0  0  0  0  0  0  0  0  0  0
   -1.1057    1.4017   -2.8608 O   0  0  0  0  0  0  0  0  0  0  0  0
   -0.5573    2.7256   -2.9153 C   0  0  0  0  0  0  0  0  0  0  0  0
   -0.5597    1.2292   -0.5002 C   0  0  0  0  0  0  0  0  0  0  0  0
   -0.6227    0.4739    0.6569 C   0  0  0  0  0  0  0  0  0  0  0  0
   -2.2640   -2.2887   -0.6211 H   0  0  0  0  0  0  0  0  0  0  0  0
   -2.1254   -0.8871   -2.6883 H   0  0  0  0  0  0  0  0  0  0  0  0
   -1.0948    3.3980   -2.2400 H   0  0  0  0  0  0  0  0  0  0  0  0
   -0.6918    3.0526   -3.9457 H   0  0  0  0  0  0  0  0  0  0  0  0
    0.5088    2.7174   -2.6666 H   0  0  0  0  0  0  0  0  0  0  0  0
   -0.1124    2.2125   -0.4472 H   0  0  0  0  0  0  0  0  0  0  0  0
   -0.2355    0.8263    1.6114 H   0  0  0  0  0  0  0  0  0  0  0  0
   -1.7364    1.3987    3.4152 B   0  0  0  0  0  0  0  0  0  0  0  0
   -0.3531    1.0209    3.4662 F   0  0  0  0  0  0  0  0  0  0  0  0
   -1.8816    2.3253    2.3683 F   0  0  0  0  0  0  0  0  0  0  0  0
   -2.4651    0.2202    3.0693 F   0  0  0  0  0  0  0  0  0  0  0  0
   -2.1528    1.8991    4.6238 F   0  0  0  0  0  0  0  0  0  0  0  0
  1 10  1  0  0  0  0
  1  2  1  0  0  0  0
  2  3  1  0  0  0  0
  4  1  2  0  0  0  0
  5  6  2  0  0  0  0
  5  4  1  0  0  0  0
  6  9  1  0  0  0  0
  7  6  1  0  0  0  0
  8  7  1  0  0  0  0
  8 15  1  0  0  0  0
  8 13  1  0  0  0  0
  9 16  1  0  0  0  0
  9 10  2  0  0  0  0
 10 17  1  0  0  0  0
 11  4  1  0  0  0  0
 12  5  1  0  0  0  0
 14  8  1  0  0  0  0
 18 19  1  0  0  0  0
 18 22  1  0  0  0  0
 20 18  1  0  0  0  0
 21 18  1  0  0  0  0
M  RAD  2   2   2   3   3
M  END
