Coordinates from ORCA-job 4-MeOPhN2+~BF4-_B3LYPG-6-31G_dp-NX-Scan-d89-09-n800
 OpenBabel11261920503D

 22 21  0  0  0  0  0  0  0  0999 V2000
   -1.2248   -0.7648    0.5926 C   0  0  0  0  0  0  0  0  0  0  0  0
   -1.2910   -1.5241    1.7251 N   0  0  0  0  0  0  0  0  0  0  0  0
   -1.3441   -2.2053    2.6068 N   0  0  0  0  0  0  0  0  0  0  0  0
   -1.7917   -1.2941   -0.5924 C   0  0  0  0  0  0  0  0  0  0  0  0
   -1.7248   -0.5319   -1.7324 C   0  0  0  0  0  0  0  0  0  0  0  0
   -1.1087    0.7463   -1.7020 C   0  0  0  0  0  0  0  0  0  0  0  0
   -1.1139    1.4013   -2.8683 O   0  0  0  0  0  0  0  0  0  0  0  0
   -0.5528    2.7188   -2.9388 C   0  0  0  0  0  0  0  0  0  0  0  0
   -0.5491    1.2442   -0.5110 C   0  0  0  0  0  0  0  0  0  0  0  0
   -0.6041    0.4970    0.6516 C   0  0  0  0  0  0  0  0  0  0  0  0
   -2.2698   -2.2668   -0.5900 H   0  0  0  0  0  0  0  0  0  0  0  0
   -2.1467   -0.8797   -2.6680 H   0  0  0  0  0  0  0  0  0  0  0  0
   -1.0783    3.4029   -2.2656 H   0  0  0  0  0  0  0  0  0  0  0  0
   -0.6918    3.0382   -3.9710 H   0  0  0  0  0  0  0  0  0  0  0  0
    0.5150    2.7021   -2.6980 H   0  0  0  0  0  0  0  0  0  0  0  0
   -0.0967    2.2257   -0.4701 H   0  0  0  0  0  0  0  0  0  0  0  0
   -0.2132    0.8511    1.6027 H   0  0  0  0  0  0  0  0  0  0  0  0
   -1.7626    1.3577    3.4216 B   0  0  0  0  0  0  0  0  0  0  0  0
   -0.3940    0.9241    3.4728 F   0  0  0  0  0  0  0  0  0  0  0  0
   -1.8646    2.3080    2.3908 F   0  0  0  0  0  0  0  0  0  0  0  0
   -2.5334    0.2151    3.0526 F   0  0  0  0  0  0  0  0  0  0  0  0
   -2.1628    1.8538    4.6373 F   0  0  0  0  0  0  0  0  0  0  0  0
  1 10  1  0  0  0  0
  1  2  1  0  0  0  0
  2  3  1  0  0  0  0
  4 11  1  0  0  0  0
  4  1  2  0  0  0  0
  5  6  2  0  0  0  0
  5  4  1  0  0  0  0
  6  9  1  0  0  0  0
  7  6  1  0  0  0  0
  8  7  1  0  0  0  0
  8 15  1  0  0  0  0
  8 13  1  0  0  0  0
  9 16  1  0  0  0  0
  9 10  2  0  0  0  0
 10 17  1  0  0  0  0
 12  5  1  0  0  0  0
 14  8  1  0  0  0  0
 18 19  1  0  0  0  0
 18 22  1  0  0  0  0
 20 18  1  0  0  0  0
 21 18  1  0  0  0  0
M  RAD  2   2   2   3   3
M  END
