Coordinates from ORCA-job 4-MeOPhN2+~BF4-_B3LYPG-6-31G_dp-NX-Scan-d89-09-n800
 OpenBabel11261920503D

 22 21  0  0  0  0  0  0  0  0999 V2000
   -1.3486   -1.6422    0.3780 C   0  0  0  0  0  0  0  0  0  0  0  0
   -1.5528   -2.6652    1.2277 N   0  0  0  0  0  0  0  0  0  0  0  0
   -1.7128   -3.5027    1.9615 N   0  0  0  0  0  0  0  0  0  0  0  0
   -1.6558   -1.8116   -1.0039 C   0  0  0  0  0  0  0  0  0  0  0  0
   -1.5025   -0.7320   -1.8312 C   0  0  0  0  0  0  0  0  0  0  0  0
   -1.0559    0.5177   -1.3049 C   0  0  0  0  0  0  0  0  0  0  0  0
   -1.0363    1.5259   -2.1561 O   0  0  0  0  0  0  0  0  0  0  0  0
   -0.7621    2.8666   -1.6528 C   0  0  0  0  0  0  0  0  0  0  0  0
   -0.6857    0.6406    0.0530 C   0  0  0  0  0  0  0  0  0  0  0  0
   -0.8631   -0.4177    0.9077 C   0  0  0  0  0  0  0  0  0  0  0  0
   -2.0160   -2.7651   -1.3733 H   0  0  0  0  0  0  0  0  0  0  0  0
   -1.7479   -0.7919   -2.8852 H   0  0  0  0  0  0  0  0  0  0  0  0
   -1.3921    3.0775   -0.7850 H   0  0  0  0  0  0  0  0  0  0  0  0
   -0.9889    3.5242   -2.4904 H   0  0  0  0  0  0  0  0  0  0  0  0
    0.2923    2.9503   -1.3789 H   0  0  0  0  0  0  0  0  0  0  0  0
   -0.3205    1.5752    0.4719 H   0  0  0  0  0  0  0  0  0  0  0  0
   -0.6920   -0.2695    1.9684 H   0  0  0  0  0  0  0  0  0  0  0  0
   -1.4078    2.8094    2.2349 B   0  0  0  0  0  0  0  0  0  0  0  0
   -0.1070    2.9715    1.6586 F   0  0  0  0  0  0  0  0  0  0  0  0
   -2.3296    2.7899    1.1542 F   0  0  0  0  0  0  0  0  0  0  0  0
   -1.4349    1.5436    2.8758 F   0  0  0  0  0  0  0  0  0  0  0  0
   -1.6838    3.8250    3.1166 F   0  0  0  0  0  0  0  0  0  0  0  0
  1 10  1  0  0  0  0
  1  2  1  0  0  0  0
  2  3  1  0  0  0  0
  4  1  2  0  0  0  0
  5  6  2  0  0  0  0
  5  4  1  0  0  0  0
  6  9  1  0  0  0  0
  7  8  1  0  0  0  0
  7  6  1  0  0  0  0
  8 15  1  0  0  0  0
  8 13  1  0  0  0  0
  9 16  1  0  0  0  0
  9 10  2  0  0  0  0
 10 17  1  0  0  0  0
 11  4  1  0  0  0  0
 12  5  1  0  0  0  0
 14  8  1  0  0  0  0
 18 21  1  0  0  0  0
 18 22  1  0  0  0  0
 19 18  1  0  0  0  0
 20 18  1  0  0  0  0
M  RAD  2   2   2   3   3
M  END
