Coordinates from ORCA-job 4-MeOPhN2+~BF4-_B3LYPG-6-31G_dp-NX-Scan-d89-09-n800
 OpenBabel11261920503D

 22 21  0  0  0  0  0  0  0  0999 V2000
   -1.3444   -1.6349    0.3791 C   0  0  0  0  0  0  0  0  0  0  0  0
   -1.5474   -2.6517    1.2366 N   0  0  0  0  0  0  0  0  0  0  0  0
   -1.7049   -3.4816    1.9797 N   0  0  0  0  0  0  0  0  0  0  0  0
   -1.6567   -1.8085   -1.0009 C   0  0  0  0  0  0  0  0  0  0  0  0
   -1.5054   -0.7311   -1.8314 C   0  0  0  0  0  0  0  0  0  0  0  0
   -1.0560    0.5201   -1.3105 C   0  0  0  0  0  0  0  0  0  0  0  0
   -1.0393    1.5257   -2.1652 O   0  0  0  0  0  0  0  0  0  0  0  0
   -0.7611    2.8672   -1.6672 C   0  0  0  0  0  0  0  0  0  0  0  0
   -0.6806    0.6467    0.0452 C   0  0  0  0  0  0  0  0  0  0  0  0
   -0.8561   -0.4092    0.9034 C   0  0  0  0  0  0  0  0  0  0  0  0
   -2.0190   -2.7627   -1.3663 H   0  0  0  0  0  0  0  0  0  0  0  0
   -1.7545   -0.7937   -2.8844 H   0  0  0  0  0  0  0  0  0  0  0  0
   -1.3821    3.0794   -0.7930 H   0  0  0  0  0  0  0  0  0  0  0  0
   -0.9976    3.5236   -2.5031 H   0  0  0  0  0  0  0  0  0  0  0  0
    0.2966    2.9519   -1.4061 H   0  0  0  0  0  0  0  0  0  0  0  0
   -0.3138    1.5805    0.4645 H   0  0  0  0  0  0  0  0  0  0  0  0
   -0.6846   -0.2590    1.9638 H   0  0  0  0  0  0  0  0  0  0  0  0
   -1.4140    2.7930    2.2471 B   0  0  0  0  0  0  0  0  0  0  0  0
   -0.0986    2.9316    1.7009 F   0  0  0  0  0  0  0  0  0  0  0  0
   -2.3137    2.8072    1.1472 F   0  0  0  0  0  0  0  0  0  0  0  0
   -1.4841    1.5207    2.8719 F   0  0  0  0  0  0  0  0  0  0  0  0
   -1.6864    3.8043    3.1351 F   0  0  0  0  0  0  0  0  0  0  0  0
  1 10  1  0  0  0  0
  1  2  1  0  0  0  0
  2  3  1  0  0  0  0
  4  1  2  0  0  0  0
  5  6  2  0  0  0  0
  5  4  1  0  0  0  0
  6  9  1  0  0  0  0
  7  8  1  0  0  0  0
  7  6  1  0  0  0  0
  8 15  1  0  0  0  0
  8 13  1  0  0  0  0
  9 16  1  0  0  0  0
  9 10  2  0  0  0  0
 10 17  1  0  0  0  0
 11  4  1  0  0  0  0
 12  5  1  0  0  0  0
 14  8  1  0  0  0  0
 18 21  1  0  0  0  0
 18 22  1  0  0  0  0
 19 18  1  0  0  0  0
 20 18  1  0  0  0  0
M  RAD  2   2   2   3   3
M  END
