Coordinates from ORCA-job 4-MeOPhN2+~BF4-_B3LYPG-6-31G_dp-NX-Scan-d89-09-n800
 OpenBabel11261920503D

 22 21  0  0  0  0  0  0  0  0999 V2000
   -1.3485   -1.6413    0.3772 C   0  0  0  0  0  0  0  0  0  0  0  0
   -1.5537   -2.6618    1.2296 N   0  0  0  0  0  0  0  0  0  0  0  0
   -1.7138   -3.4958    1.9675 N   0  0  0  0  0  0  0  0  0  0  0  0
   -1.6555   -1.8114   -1.0046 C   0  0  0  0  0  0  0  0  0  0  0  0
   -1.5018   -0.7319   -1.8320 C   0  0  0  0  0  0  0  0  0  0  0  0
   -1.0551    0.5181   -1.3061 C   0  0  0  0  0  0  0  0  0  0  0  0
   -1.0356    1.5261   -2.1576 O   0  0  0  0  0  0  0  0  0  0  0  0
   -0.7624    2.8669   -1.6540 C   0  0  0  0  0  0  0  0  0  0  0  0
   -0.6849    0.6413    0.0516 C   0  0  0  0  0  0  0  0  0  0  0  0
   -0.8628   -0.4167    0.9065 C   0  0  0  0  0  0  0  0  0  0  0  0
   -2.0160   -2.7649   -1.3736 H   0  0  0  0  0  0  0  0  0  0  0  0
   -1.7470   -0.7921   -2.8861 H   0  0  0  0  0  0  0  0  0  0  0  0
   -1.3921    3.0768   -0.7857 H   0  0  0  0  0  0  0  0  0  0  0  0
   -0.9903    3.5246   -2.4911 H   0  0  0  0  0  0  0  0  0  0  0  0
    0.2921    2.9514   -1.3805 H   0  0  0  0  0  0  0  0  0  0  0  0
   -0.3193    1.5754    0.4713 H   0  0  0  0  0  0  0  0  0  0  0  0
   -0.6925   -0.2687    1.9675 H   0  0  0  0  0  0  0  0  0  0  0  0
   -1.4080    2.8063    2.2361 B   0  0  0  0  0  0  0  0  0  0  0  0
   -0.1071    2.9676    1.6602 F   0  0  0  0  0  0  0  0  0  0  0  0
   -2.3300    2.7882    1.1554 F   0  0  0  0  0  0  0  0  0  0  0  0
   -1.4357    1.5402    2.8763 F   0  0  0  0  0  0  0  0  0  0  0  0
   -1.6837    3.8216    3.1185 F   0  0  0  0  0  0  0  0  0  0  0  0
  1 10  1  0  0  0  0
  1  2  1  0  0  0  0
  2  3  1  0  0  0  0
  4  1  2  0  0  0  0
  5  6  2  0  0  0  0
  5  4  1  0  0  0  0
  6  9  1  0  0  0  0
  7  8  1  0  0  0  0
  7  6  1  0  0  0  0
  8 15  1  0  0  0  0
  8 13  1  0  0  0  0
  9 16  1  0  0  0  0
  9 10  2  0  0  0  0
 10 17  1  0  0  0  0
 11  4  1  0  0  0  0
 12  5  1  0  0  0  0
 14  8  1  0  0  0  0
 18 21  1  0  0  0  0
 18 22  1  0  0  0  0
 19 18  1  0  0  0  0
 20 18  1  0  0  0  0
M  RAD  2   2   2   3   3
M  END
