Coordinates from ORCA-job 4-MeOPhN2+~BF4-_B3LYPG-6-31G_dp-NX-Scan-d89-09-n800
 OpenBabel11261920503D

 22 21  0  0  0  0  0  0  0  0999 V2000
   -1.5011   -1.9677    0.2617 C   0  0  0  0  0  0  0  0  0  0  0  0
   -1.7274   -3.0975    0.9501 N   0  0  0  0  0  0  0  0  0  0  0  0
   -1.9149   -4.0337    1.5486 N   0  0  0  0  0  0  0  0  0  0  0  0
   -1.5902   -1.9864   -1.1605 C   0  0  0  0  0  0  0  0  0  0  0  0
   -1.3780   -0.8140   -1.8303 C   0  0  0  0  0  0  0  0  0  0  0  0
   -1.0897    0.3924   -1.1184 C   0  0  0  0  0  0  0  0  0  0  0  0
   -0.9430    1.4576   -1.8666 O   0  0  0  0  0  0  0  0  0  0  0  0
   -0.7833    2.7759   -1.2438 C   0  0  0  0  0  0  0  0  0  0  0  0
   -0.9794    0.3889    0.3021 C   0  0  0  0  0  0  0  0  0  0  0  0
   -1.1859   -0.7811    0.9836 C   0  0  0  0  0  0  0  0  0  0  0  0
   -1.8266   -2.9068   -1.6825 H   0  0  0  0  0  0  0  0  0  0  0  0
   -1.4405   -0.7656   -2.9117 H   0  0  0  0  0  0  0  0  0  0  0  0
   -1.6553    2.9920   -0.6287 H   0  0  0  0  0  0  0  0  0  0  0  0
   -0.6917    3.4627   -2.0815 H   0  0  0  0  0  0  0  0  0  0  0  0
    0.1057    2.7932   -0.6142 H   0  0  0  0  0  0  0  0  0  0  0  0
   -0.7303    1.2872    0.8683 H   0  0  0  0  0  0  0  0  0  0  0  0
   -1.1156   -0.8042    2.0661 H   0  0  0  0  0  0  0  0  0  0  0  0
   -1.1205    3.5578    1.8859 B   0  0  0  0  0  0  0  0  0  0  0  0
   -0.9485    4.5921    0.9591 F   0  0  0  0  0  0  0  0  0  0  0  0
   -2.2432    2.7740    1.4870 F   0  0  0  0  0  0  0  0  0  0  0  0
    0.0264    2.6890    1.7964 F   0  0  0  0  0  0  0  0  0  0  0  0
   -1.2708    4.0139    3.1758 F   0  0  0  0  0  0  0  0  0  0  0  0
  1  2  1  0  0  0  0
  1 10  2  0  0  0  0
  2  3  1  0  0  0  0
  4  1  1  0  0  0  0
  5  4  2  0  0  0  0
  5  6  1  0  0  0  0
  6  9  2  0  0  0  0
  7  8  1  0  0  0  0
  7  6  1  0  0  0  0
  8 13  1  0  0  0  0
  8 15  1  0  0  0  0
  9 16  1  0  0  0  0
  9 10  1  0  0  0  0
 10 17  1  0  0  0  0
 11  4  1  0  0  0  0
 12  5  1  0  0  0  0
 14  8  1  0  0  0  0
 18 22  1  0  0  0  0
 19 18  1  0  0  0  0
 20 18  1  0  0  0  0
 21 18  1  0  0  0  0
M  RAD  2   2   2   3   3
M  END
