Coordinates from ORCA-job 4-MeOPhN2+~BF4-_B3LYPG-6-31G_dp-NX-Scan-d89-09-n800
 OpenBabel11261920503D

 22 21  0  0  0  0  0  0  0  0999 V2000
   -1.3903   -1.7414    0.3597 C   0  0  0  0  0  0  0  0  0  0  0  0
   -1.5917   -2.8259    1.1334 N   0  0  0  0  0  0  0  0  0  0  0  0
   -1.7621   -3.7484    1.7573 N   0  0  0  0  0  0  0  0  0  0  0  0
   -1.6018   -1.8753   -1.0456 C   0  0  0  0  0  0  0  0  0  0  0  0
   -1.4400   -0.7684   -1.8321 C   0  0  0  0  0  0  0  0  0  0  0  0
   -1.0729    0.4824   -1.2490 C   0  0  0  0  0  0  0  0  0  0  0  0
   -1.0173    1.5029   -2.0778 O   0  0  0  0  0  0  0  0  0  0  0  0
   -0.8130    2.8484   -1.5438 C   0  0  0  0  0  0  0  0  0  0  0  0
   -0.8098    0.5817    0.1397 C   0  0  0  0  0  0  0  0  0  0  0  0
   -0.9948   -0.5093    0.9522 C   0  0  0  0  0  0  0  0  0  0  0  0
   -1.8968   -2.8311   -1.4641 H   0  0  0  0  0  0  0  0  0  0  0  0
   -1.6104   -0.8091   -2.9019 H   0  0  0  0  0  0  0  0  0  0  0  0
   -1.5408    3.0499   -0.7549 H   0  0  0  0  0  0  0  0  0  0  0  0
   -0.9431    3.5010   -2.4050 H   0  0  0  0  0  0  0  0  0  0  0  0
    0.1930    2.9398   -1.1327 H   0  0  0  0  0  0  0  0  0  0  0  0
   -0.4851    1.5120    0.5918 H   0  0  0  0  0  0  0  0  0  0  0  0
   -0.8652   -0.3865    2.0225 H   0  0  0  0  0  0  0  0  0  0  0  0
   -1.2842    3.0435    2.1465 B   0  0  0  0  0  0  0  0  0  0  0  0
   -0.1268    3.3534    1.3683 F   0  0  0  0  0  0  0  0  0  0  0  0
   -2.3662    2.9108    1.2370 F   0  0  0  0  0  0  0  0  0  0  0  0
   -1.0596    1.7759    2.7563 F   0  0  0  0  0  0  0  0  0  0  0  0
   -1.5249    4.0134    3.0887 F   0  0  0  0  0  0  0  0  0  0  0  0
  1 10  1  0  0  0  0
  1  2  1  0  0  0  0
  2  3  1  0  0  0  0
  4  1  2  0  0  0  0
  5  6  2  0  0  0  0
  5  4  1  0  0  0  0
  6  9  1  0  0  0  0
  7  8  1  0  0  0  0
  7  6  1  0  0  0  0
  8 15  1  0  0  0  0
  8 13  1  0  0  0  0
  9 16  1  0  0  0  0
  9 10  2  0  0  0  0
 10 17  1  0  0  0  0
 11  4  1  0  0  0  0
 12  5  1  0  0  0  0
 14  8  1  0  0  0  0
 18 21  1  0  0  0  0
 18 22  1  0  0  0  0
 19 18  1  0  0  0  0
 20 18  1  0  0  0  0
M  RAD  2   2   2   3   3
M  END
