Coordinates from ORCA-job 4-MeOPhN2+~BF4-_B3LYPG-6-31G_dp-NX-Scan-d89-09-n800
 OpenBabel11261920503D

 22 21  0  0  0  0  0  0  0  0999 V2000
   -1.3329   -1.5975    0.3890 C   0  0  0  0  0  0  0  0  0  0  0  0
   -1.5413   -2.5952    1.2681 N   0  0  0  0  0  0  0  0  0  0  0  0
   -1.7021   -3.4046    2.0324 N   0  0  0  0  0  0  0  0  0  0  0  0
   -1.6619   -1.7900   -0.9843 C   0  0  0  0  0  0  0  0  0  0  0  0
   -1.5119   -0.7262   -1.8326 C   0  0  0  0  0  0  0  0  0  0  0  0
   -1.0491    0.5292   -1.3347 C   0  0  0  0  0  0  0  0  0  0  0  0
   -1.0430    1.5252   -2.2025 O   0  0  0  0  0  0  0  0  0  0  0  0
   -0.7585    2.8701   -1.7219 C   0  0  0  0  0  0  0  0  0  0  0  0
   -0.6525    0.6716    0.0121 C   0  0  0  0  0  0  0  0  0  0  0  0
   -0.8263   -0.3699    0.8891 C   0  0  0  0  0  0  0  0  0  0  0  0
   -2.0363   -2.7464   -1.3312 H   0  0  0  0  0  0  0  0  0  0  0  0
   -1.7746   -0.8020   -2.8814 H   0  0  0  0  0  0  0  0  0  0  0  0
   -1.3577    3.0863   -0.8333 H   0  0  0  0  0  0  0  0  0  0  0  0
   -1.0206    3.5215   -2.5542 H   0  0  0  0  0  0  0  0  0  0  0  0
    0.3064    2.9618   -1.4926 H   0  0  0  0  0  0  0  0  0  0  0  0
   -0.2823    1.6067    0.4224 H   0  0  0  0  0  0  0  0  0  0  0  0
   -0.6514   -0.2034    1.9467 H   0  0  0  0  0  0  0  0  0  0  0  0
   -1.4356    2.7193    2.2959 B   0  0  0  0  0  0  0  0  0  0  0  0
   -0.0815    2.7911    1.8452 F   0  0  0  0  0  0  0  0  0  0  0  0
   -2.2603    2.7975    1.1402 F   0  0  0  0  0  0  0  0  0  0  0  0
   -1.6161    1.4432    2.8930 F   0  0  0  0  0  0  0  0  0  0  0  0
   -1.7145    3.7316    3.1812 F   0  0  0  0  0  0  0  0  0  0  0  0
  1 10  1  0  0  0  0
  1  2  1  0  0  0  0
  2  3  1  0  0  0  0
  4  1  2  0  0  0  0
  5  6  2  0  0  0  0
  5  4  1  0  0  0  0
  6  9  1  0  0  0  0
  7  8  1  0  0  0  0
  7  6  1  0  0  0  0
  8 15  1  0  0  0  0
  8 13  1  0  0  0  0
  9 16  1  0  0  0  0
  9 10  2  0  0  0  0
 10 17  1  0  0  0  0
 11  4  1  0  0  0  0
 12  5  1  0  0  0  0
 14  8  1  0  0  0  0
 18 21  1  0  0  0  0
 18 22  1  0  0  0  0
 19 18  1  0  0  0  0
 20 18  1  0  0  0  0
M  RAD  2   2   2   3   3
M  END
