Coordinates from ORCA-job 4-MeOPhN2+~BF4-_B3LYPG-6-31G_dp-NX-Scan-d89-09-n800
 OpenBabel11261920503D

 22 21  0  0  0  0  0  0  0  0999 V2000
   -1.2763   -0.6483    0.6033 C   0  0  0  0  0  0  0  0  0  0  0  0
   -1.3955   -1.3630    1.7643 N   0  0  0  0  0  0  0  0  0  0  0  0
   -1.4961   -2.0165    2.6608 N   0  0  0  0  0  0  0  0  0  0  0  0
   -1.7119   -1.2767   -0.5873 C   0  0  0  0  0  0  0  0  0  0  0  0
   -1.6092   -0.5777   -1.7663 C   0  0  0  0  0  0  0  0  0  0  0  0
   -1.0834    0.7380   -1.7695 C   0  0  0  0  0  0  0  0  0  0  0  0
   -1.0422    1.3287   -2.9697 O   0  0  0  0  0  0  0  0  0  0  0  0
   -0.5599    2.6743   -3.0769 C   0  0  0  0  0  0  0  0  0  0  0  0
   -0.6502    1.3362   -0.5707 C   0  0  0  0  0  0  0  0  0  0  0  0
   -0.7434    0.6533    0.6291 C   0  0  0  0  0  0  0  0  0  0  0  0
   -2.1226   -2.2795   -0.5622 H   0  0  0  0  0  0  0  0  0  0  0  0
   -1.9341   -1.0082   -2.7060 H   0  0  0  0  0  0  0  0  0  0  0  0
   -1.1755    3.3586   -2.4851 H   0  0  0  0  0  0  0  0  0  0  0  0
   -0.6402    2.9279   -4.1333 H   0  0  0  0  0  0  0  0  0  0  0  0
    0.4857    2.7420   -2.7600 H   0  0  0  0  0  0  0  0  0  0  0  0
   -0.2574    2.3440   -0.5575 H   0  0  0  0  0  0  0  0  0  0  0  0
   -0.4446    1.1016    1.5697 H   0  0  0  0  0  0  0  0  0  0  0  0
   -1.6885    1.2198    3.6071 B   0  0  0  0  0  0  0  0  0  0  0  0
   -0.5227    0.3793    3.5429 F   0  0  0  0  0  0  0  0  0  0  0  0
   -1.3824    2.3920    2.8883 F   0  0  0  0  0  0  0  0  0  0  0  0
   -2.7156    0.5181    2.9165 F   0  0  0  0  0  0  0  0  0  0  0  0
   -2.0380    1.4759    4.9089 F   0  0  0  0  0  0  0  0  0  0  0  0
  1 10  1  0  0  0  0
  1  2  1  0  0  0  0
  2  3  1  0  0  0  0
  4 11  1  0  0  0  0
  4  1  2  0  0  0  0
  5  4  1  0  0  0  0
  6  5  2  0  0  0  0
  6  9  1  0  0  0  0
  7  6  1  0  0  0  0
  8  7  1  0  0  0  0
  8 15  1  0  0  0  0
  8 13  1  0  0  0  0
  9 16  1  0  0  0  0
  9 10  2  0  0  0  0
 10 17  1  0  0  0  0
 12  5  1  0  0  0  0
 14  8  1  0  0  0  0
 18 22  1  0  0  0  0
 19 18  1  0  0  0  0
 20 18  1  0  0  0  0
 21 18  1  0  0  0  0
M  RAD  2   2   2   3   3
M  END
