Coordinates from ORCA-job 4-MeOPhN2+~BF4-_B3LYPG-6-31G_dp-NX-Scan-d89-09-n800
 OpenBabel11261920503D

 22 21  0  0  0  0  0  0  0  0999 V2000
   -1.4136   -1.7965    0.3416 C   0  0  0  0  0  0  0  0  0  0  0  0
   -1.6091   -2.9021    1.0868 N   0  0  0  0  0  0  0  0  0  0  0  0
   -1.7782   -3.8478    1.6760 N   0  0  0  0  0  0  0  0  0  0  0  0
   -1.5804   -1.9131   -1.0718 C   0  0  0  0  0  0  0  0  0  0  0  0
   -1.4172   -0.7937   -1.8399 C   0  0  0  0  0  0  0  0  0  0  0  0
   -1.0932    0.4571   -1.2316 C   0  0  0  0  0  0  0  0  0  0  0  0
   -1.0186    1.4856   -2.0460 O   0  0  0  0  0  0  0  0  0  0  0  0
   -0.8285    2.8288   -1.4966 C   0  0  0  0  0  0  0  0  0  0  0  0
   -0.8849    0.5435    0.1681 C   0  0  0  0  0  0  0  0  0  0  0  0
   -1.0633   -0.5626    0.9603 C   0  0  0  0  0  0  0  0  0  0  0  0
   -1.8413   -2.8693   -1.5115 H   0  0  0  0  0  0  0  0  0  0  0  0
   -1.5502   -0.8259   -2.9154 H   0  0  0  0  0  0  0  0  0  0  0  0
   -1.5918    3.0368   -0.7440 H   0  0  0  0  0  0  0  0  0  0  0  0
   -0.9086    3.4840   -2.3617 H   0  0  0  0  0  0  0  0  0  0  0  0
    0.1533    2.9113   -1.0301 H   0  0  0  0  0  0  0  0  0  0  0  0
   -0.6053    1.4703    0.6495 H   0  0  0  0  0  0  0  0  0  0  0  0
   -0.9515   -0.4548    2.0342 H   0  0  0  0  0  0  0  0  0  0  0  0
   -1.2121    3.1816    2.1212 B   0  0  0  0  0  0  0  0  0  0  0  0
   -0.1418    3.6349    1.3060 F   0  0  0  0  0  0  0  0  0  0  0  0
   -2.3283    2.9564    1.2677 F   0  0  0  0  0  0  0  0  0  0  0  0
   -0.8309    1.9159    2.6664 F   0  0  0  0  0  0  0  0  0  0  0  0
   -1.5086    4.0795    3.1172 F   0  0  0  0  0  0  0  0  0  0  0  0
  1 10  1  0  0  0  0
  1  2  1  0  0  0  0
  2  3  1  0  0  0  0
  4  1  2  0  0  0  0
  5  6  2  0  0  0  0
  5  4  1  0  0  0  0
  6  9  1  0  0  0  0
  7  8  1  0  0  0  0
  7  6  1  0  0  0  0
  8 15  1  0  0  0  0
  8 13  1  0  0  0  0
  9 16  1  0  0  0  0
  9 10  2  0  0  0  0
 10 17  1  0  0  0  0
 11  4  1  0  0  0  0
 12  5  1  0  0  0  0
 14  8  1  0  0  0  0
 18 21  1  0  0  0  0
 18 22  1  0  0  0  0
 19 18  1  0  0  0  0
 20 18  1  0  0  0  0
M  RAD  2   2   2   3   3
M  END
