Coordinates from ORCA-job 4-MeOPhN2+~BF4-_B3LYPG-6-31G_dp-NX-Scan-d89-09-n800
 OpenBabel11261920503D

 22 21  0  0  0  0  0  0  0  0999 V2000
   -1.3630   -1.6627    0.3712 C   0  0  0  0  0  0  0  0  0  0  0  0
   -1.5764   -2.6948    1.2075 N   0  0  0  0  0  0  0  0  0  0  0  0
   -1.7457   -3.5438    1.9264 N   0  0  0  0  0  0  0  0  0  0  0  0
   -1.6465   -1.8232   -1.0169 C   0  0  0  0  0  0  0  0  0  0  0  0
   -1.4840   -0.7376   -1.8343 C   0  0  0  0  0  0  0  0  0  0  0  0
   -1.0517    0.5105   -1.2926 C   0  0  0  0  0  0  0  0  0  0  0  0
   -1.0215    1.5241   -2.1361 O   0  0  0  0  0  0  0  0  0  0  0  0
   -0.7720    2.8649   -1.6169 C   0  0  0  0  0  0  0  0  0  0  0  0
   -0.7051    0.6256    0.0731 C   0  0  0  0  0  0  0  0  0  0  0  0
   -0.8915   -0.4392    0.9174 C   0  0  0  0  0  0  0  0  0  0  0  0
   -1.9966   -2.7756   -1.3986 H   0  0  0  0  0  0  0  0  0  0  0  0
   -1.7112   -0.7917   -2.8928 H   0  0  0  0  0  0  0  0  0  0  0  0
   -1.4319    3.0651   -0.7695 H   0  0  0  0  0  0  0  0  0  0  0  0
   -0.9744    3.5241   -2.4593 H   0  0  0  0  0  0  0  0  0  0  0  0
    0.2700    2.9542   -1.3028 H   0  0  0  0  0  0  0  0  0  0  0  0
   -0.3438    1.5594    0.4965 H   0  0  0  0  0  0  0  0  0  0  0  0
   -0.7304   -0.2978    1.9809 H   0  0  0  0  0  0  0  0  0  0  0  0
   -1.3812    2.8540    2.2059 B   0  0  0  0  0  0  0  0  0  0  0  0
   -0.1321    3.0790    1.5414 F   0  0  0  0  0  0  0  0  0  0  0  0
   -2.3679    2.7508    1.1904 F   0  0  0  0  0  0  0  0  0  0  0  0
   -1.2856    1.6032    2.8714 F   0  0  0  0  0  0  0  0  0  0  0  0
   -1.6612    3.8712    3.0842 F   0  0  0  0  0  0  0  0  0  0  0  0
  1 10  1  0  0  0  0
  1  2  1  0  0  0  0
  2  3  1  0  0  0  0
  4  1  2  0  0  0  0
  5  6  2  0  0  0  0
  5  4  1  0  0  0  0
  6  9  1  0  0  0  0
  7  8  1  0  0  0  0
  7  6  1  0  0  0  0
  8 15  1  0  0  0  0
  8 13  1  0  0  0  0
  9 16  1  0  0  0  0
  9 10  2  0  0  0  0
 10 17  1  0  0  0  0
 11  4  1  0  0  0  0
 12  5  1  0  0  0  0
 14  8  1  0  0  0  0
 18 21  1  0  0  0  0
 18 22  1  0  0  0  0
 19 18  1  0  0  0  0
 20 18  1  0  0  0  0
M  RAD  2   2   2   3   3
M  END
