Coordinates from ORCA-job 4-MeOPhN2+~BF4-_B3LYPG-6-31G_dp-NX-Scan-d89-09-n800
 OpenBabel11261920503D

 22 21  0  0  0  0  0  0  0  0999 V2000
   -1.3890   -1.7351    0.3585 C   0  0  0  0  0  0  0  0  0  0  0  0
   -1.5921   -2.8133    1.1398 N   0  0  0  0  0  0  0  0  0  0  0  0
   -1.7624   -3.7255    1.7783 N   0  0  0  0  0  0  0  0  0  0  0  0
   -1.5984   -1.8729   -1.0464 C   0  0  0  0  0  0  0  0  0  0  0  0
   -1.4358   -0.7671   -1.8348 C   0  0  0  0  0  0  0  0  0  0  0  0
   -1.0709    0.4852   -1.2535 C   0  0  0  0  0  0  0  0  0  0  0  0
   -1.0170    1.5050   -2.0837 O   0  0  0  0  0  0  0  0  0  0  0  0
   -0.8143    2.8507   -1.5504 C   0  0  0  0  0  0  0  0  0  0  0  0
   -0.8088    0.5872    0.1348 C   0  0  0  0  0  0  0  0  0  0  0  0
   -0.9947   -0.5022    0.9488 C   0  0  0  0  0  0  0  0  0  0  0  0
   -1.8925   -2.8296   -1.4633 H   0  0  0  0  0  0  0  0  0  0  0  0
   -1.6049   -0.8100   -2.9047 H   0  0  0  0  0  0  0  0  0  0  0  0
   -1.5388    3.0508   -0.7581 H   0  0  0  0  0  0  0  0  0  0  0  0
   -0.9501    3.5033   -2.4107 H   0  0  0  0  0  0  0  0  0  0  0  0
    0.1936    2.9446   -1.1441 H   0  0  0  0  0  0  0  0  0  0  0  0
   -0.4875    1.5175    0.5902 H   0  0  0  0  0  0  0  0  0  0  0  0
   -0.8685   -0.3766    2.0192 H   0  0  0  0  0  0  0  0  0  0  0  0
   -1.2869    3.0255    2.1528 B   0  0  0  0  0  0  0  0  0  0  0  0
   -0.1251    3.3130    1.3700 F   0  0  0  0  0  0  0  0  0  0  0  0
   -2.3709    2.9051    1.2452 F   0  0  0  0  0  0  0  0  0  0  0  0
   -1.0789    1.7590    2.7693 F   0  0  0  0  0  0  0  0  0  0  0  0
   -1.5099    4.0051    3.0892 F   0  0  0  0  0  0  0  0  0  0  0  0
  1 10  1  0  0  0  0
  1  2  1  0  0  0  0
  2  3  1  0  0  0  0
  4  1  2  0  0  0  0
  5  6  2  0  0  0  0
  5  4  1  0  0  0  0
  6  9  1  0  0  0  0
  7  8  1  0  0  0  0
  7  6  1  0  0  0  0
  8 15  1  0  0  0  0
  8 13  1  0  0  0  0
  9 16  1  0  0  0  0
  9 10  2  0  0  0  0
 10 17  1  0  0  0  0
 11  4  1  0  0  0  0
 12  5  1  0  0  0  0
 14  8  1  0  0  0  0
 18 21  1  0  0  0  0
 18 22  1  0  0  0  0
 19 18  1  0  0  0  0
 20 18  1  0  0  0  0
M  RAD  2   2   2   3   3
M  END
