Coordinates from ORCA-job 4-MeOPhN2+~BF4-_B3LYPG-6-31G_dp-NX-Scan-d89-09-n800
 OpenBabel11261920503D

 22 21  0  0  0  0  0  0  0  0999 V2000
   -1.3027   -0.5377    0.5545 C   0  0  0  0  0  0  0  0  0  0  0  0
   -1.4049   -1.2054    1.7492 N   0  0  0  0  0  0  0  0  0  0  0  0
   -1.4636   -1.7201    2.7432 N   0  0  0  0  0  0  0  0  0  0  0  0
   -1.5957   -1.2553   -0.6264 C   0  0  0  0  0  0  0  0  0  0  0  0
   -1.4894   -0.6029   -1.8332 C   0  0  0  0  0  0  0  0  0  0  0  0
   -1.0869    0.7531   -1.8731 C   0  0  0  0  0  0  0  0  0  0  0  0
   -1.0170    1.2898   -3.0997 O   0  0  0  0  0  0  0  0  0  0  0  0
   -0.6290    2.6603   -3.2464 C   0  0  0  0  0  0  0  0  0  0  0  0
   -0.7888    1.4441   -0.6828 C   0  0  0  0  0  0  0  0  0  0  0  0
   -0.8984    0.8100    0.5442 C   0  0  0  0  0  0  0  0  0  0  0  0
   -1.9048   -2.2931   -0.5746 H   0  0  0  0  0  0  0  0  0  0  0  0
   -1.7106   -1.1053   -2.7675 H   0  0  0  0  0  0  0  0  0  0  0  0
   -1.3316    3.3245   -2.7327 H   0  0  0  0  0  0  0  0  0  0  0  0
   -0.6550    2.8575   -4.3175 H   0  0  0  0  0  0  0  0  0  0  0  0
    0.3848    2.8244   -2.8669 H   0  0  0  0  0  0  0  0  0  0  0  0
   -0.4769    2.4800   -0.7039 H   0  0  0  0  0  0  0  0  0  0  0  0
   -0.6796    1.3164    1.4825 H   0  0  0  0  0  0  0  0  0  0  0  0
   -1.6056    1.0273    3.9051 B   0  0  0  0  0  0  0  0  0  0  0  0
   -1.2532   -0.3069    4.3115 F   0  0  0  0  0  0  0  0  0  0  0  0
   -0.4432    1.6203    3.3513 F   0  0  0  0  0  0  0  0  0  0  0  0
   -2.5592    0.8944    2.8666 F   0  0  0  0  0  0  0  0  0  0  0  0
   -2.0925    1.7442    4.9632 F   0  0  0  0  0  0  0  0  0  0  0  0
  1  2  1  0  0  0  0
  2  3  1  0  0  0  0
  4 11  1  0  0  0  0
  4  1  2  0  0  0  0
  5  4  1  0  0  0  0
  6  5  2  0  0  0  0
  6  9  1  0  0  0  0
  7  6  1  0  0  0  0
  8  7  1  0  0  0  0
  8 15  1  0  0  0  0
  8 13  1  0  0  0  0
  9 10  2  0  0  0  0
 10  1  1  0  0  0  0
 10 17  1  0  0  0  0
 12  5  1  0  0  0  0
 14  8  1  0  0  0  0
 16  9  1  0  0  0  0
 18 19  1  0  0  0  0
 18 22  1  0  0  0  0
 20 18  1  0  0  0  0
 21 18  1  0  0  0  0
M  RAD  2   2   2   3   3
M  END
