Coordinates from ORCA-job 4-MeOPhN2+~BF4-_B3LYPG-6-31G_dp-NX-Scan-d89-09-n800
 OpenBabel11261920503D

 22 21  0  0  0  0  0  0  0  0999 V2000
   -1.5203   -0.7450    0.3581 C   0  0  0  0  0  0  0  0  0  0  0  0
   -1.8786   -1.6163    1.4357 N   0  0  0  0  0  0  0  0  0  0  0  0
   -1.5762   -1.3382    2.6372 N   0  0  0  0  0  0  0  0  0  0  0  0
   -1.5531   -1.3846   -0.8982 C   0  0  0  0  0  0  0  0  0  0  0  0
   -1.2696   -0.7044   -2.0690 C   0  0  0  0  0  0  0  0  0  0  0  0
   -0.9646    0.6658   -2.0263 C   0  0  0  0  0  0  0  0  0  0  0  0
   -0.7076    1.2539   -3.2269 O   0  0  0  0  0  0  0  0  0  0  0  0
   -0.4263    2.6451   -3.2520 C   0  0  0  0  0  0  0  0  0  0  0  0
   -0.9501    1.3281   -0.7933 C   0  0  0  0  0  0  0  0  0  0  0  0
   -1.2176    0.6300    0.3868 C   0  0  0  0  0  0  0  0  0  0  0  0
   -1.8113   -2.4382   -0.9195 H   0  0  0  0  0  0  0  0  0  0  0  0
   -1.2887   -1.2034   -3.0323 H   0  0  0  0  0  0  0  0  0  0  0  0
   -1.2651    3.2340   -2.8591 H   0  0  0  0  0  0  0  0  0  0  0  0
   -0.2681    2.9011   -4.3005 H   0  0  0  0  0  0  0  0  0  0  0  0
    0.4802    2.8857   -2.6820 H   0  0  0  0  0  0  0  0  0  0  0  0
   -0.7268    2.3865   -0.7330 H   0  0  0  0  0  0  0  0  0  0  0  0
   -1.2053    1.1928    1.3109 H   0  0  0  0  0  0  0  0  0  0  0  0
   -1.7022    1.6965    4.7474 B   0  0  0  0  0  0  0  0  0  0  0  0
   -1.0562   -0.4600    2.8383 F   0  0  0  0  0  0  0  0  0  0  0  0
   -1.1715    2.2542    3.6709 F   0  0  0  0  0  0  0  0  0  0  0  0
   -2.8393    1.0411    4.6477 F   0  0  0  0  0  0  0  0  0  0  0  0
   -1.0854    1.7951    5.9057 F   0  0  0  0  0  0  0  0  0  0  0  0
  1 10  1  0  0  0  0
  1  2  1  0  0  0  0
  2  3  2  0  0  0  0
  3 19  1  0  0  0  0
  4  1  2  0  0  0  0
  5  6  2  0  0  0  0
  5  4  1  0  0  0  0
  6  9  1  0  0  0  0
  7  6  1  0  0  0  0
  8  7  1  0  0  0  0
  8 13  1  0  0  0  0
  8 15  1  0  0  0  0
  9 16  1  0  0  0  0
  9 10  2  0  0  0  0
 10 17  1  0  0  0  0
 11  4  1  0  0  0  0
 12  5  1  0  0  0  0
 14  8  1  0  0  0  0
 18 22  1  0  0  0  0
 20 18  1  0  0  0  0
 21 18  1  0  0  0  0
M  END
