Coordinates from ORCA-job 4-MeOPhN2+~BF4-_B3LYPG-6-31G_dp-NX-Scan-d89-09-n800
 OpenBabel11261920503D

 22 21  0  0  0  0  0  0  0  0999 V2000
   -1.3133   -1.5726    0.4082 C   0  0  0  0  0  0  0  0  0  0  0  0
   -1.5039   -2.5728    1.2893 N   0  0  0  0  0  0  0  0  0  0  0  0
   -1.6557   -3.3971    2.0393 N   0  0  0  0  0  0  0  0  0  0  0  0
   -1.6679   -1.7766   -0.9577 C   0  0  0  0  0  0  0  0  0  0  0  0
   -1.5332   -0.7215   -1.8187 C   0  0  0  0  0  0  0  0  0  0  0  0
   -1.0589    0.5378   -1.3418 C   0  0  0  0  0  0  0  0  0  0  0  0
   -1.0639    1.5224   -2.2228 O   0  0  0  0  0  0  0  0  0  0  0  0
   -0.7517    2.8710   -1.7744 C   0  0  0  0  0  0  0  0  0  0  0  0
   -0.6400    0.6923   -0.0036 C   0  0  0  0  0  0  0  0  0  0  0  0
   -0.7985   -0.3405    0.8874 C   0  0  0  0  0  0  0  0  0  0  0  0
   -2.0486   -2.7362   -1.2885 H   0  0  0  0  0  0  0  0  0  0  0  0
   -1.8147   -0.8071   -2.8618 H   0  0  0  0  0  0  0  0  0  0  0  0
   -1.3139    3.1097   -0.8673 H   0  0  0  0  0  0  0  0  0  0  0  0
   -1.0401    3.5121   -2.6060 H   0  0  0  0  0  0  0  0  0  0  0  0
    0.3228    2.9563   -1.5902 H   0  0  0  0  0  0  0  0  0  0  0  0
   -0.2703    1.6307    0.3955 H   0  0  0  0  0  0  0  0  0  0  0  0
   -0.6030   -0.1652    1.9391 H   0  0  0  0  0  0  0  0  0  0  0  0
   -1.4629    2.6768    2.3289 B   0  0  0  0  0  0  0  0  0  0  0  0
   -0.0716    2.6350    2.0088 F   0  0  0  0  0  0  0  0  0  0  0  0
   -2.1633    2.9120    1.1126 F   0  0  0  0  0  0  0  0  0  0  0  0
   -1.8264    1.3945    2.8161 F   0  0  0  0  0  0  0  0  0  0  0  0
   -1.7250    3.6585    3.2542 F   0  0  0  0  0  0  0  0  0  0  0  0
  1 10  1  0  0  0  0
  1  2  1  0  0  0  0
  2  3  1  0  0  0  0
  4  1  2  0  0  0  0
  5  6  2  0  0  0  0
  5  4  1  0  0  0  0
  6  9  1  0  0  0  0
  7  8  1  0  0  0  0
  7  6  1  0  0  0  0
  8 15  1  0  0  0  0
  8 13  1  0  0  0  0
  9 16  1  0  0  0  0
  9 10  2  0  0  0  0
 10 17  1  0  0  0  0
 11  4  1  0  0  0  0
 12  5  1  0  0  0  0
 14  8  1  0  0  0  0
 18 21  1  0  0  0  0
 18 22  1  0  0  0  0
 19 18  1  0  0  0  0
 20 18  1  0  0  0  0
M  RAD  2   2   2   3   3
M  END
