Coordinates from ORCA-job 4-MeOPhN2+~BF4-_B3LYPG-6-31G_dp-NX-Scan-d89-09-n800
 OpenBabel11261920503D

 22 21  0  0  0  0  0  0  0  0999 V2000
   -1.4620   -1.8884    0.2960 C   0  0  0  0  0  0  0  0  0  0  0  0
   -1.6794   -2.9935    1.0281 N   0  0  0  0  0  0  0  0  0  0  0  0
   -1.8558   -3.9095    1.6598 N   0  0  0  0  0  0  0  0  0  0  0  0
   -1.6652   -1.9363   -1.1140 C   0  0  0  0  0  0  0  0  0  0  0  0
   -1.4685   -0.7885   -1.8311 C   0  0  0  0  0  0  0  0  0  0  0  0
   -1.0864    0.4222   -1.1748 C   0  0  0  0  0  0  0  0  0  0  0  0
   -0.9694    1.4727   -1.9528 O   0  0  0  0  0  0  0  0  0  0  0  0
   -0.7219    2.7888   -1.3605 C   0  0  0  0  0  0  0  0  0  0  0  0
   -0.8577    0.4436    0.2275 C   0  0  0  0  0  0  0  0  0  0  0  0
   -1.0495   -0.6982    0.9592 C   0  0  0  0  0  0  0  0  0  0  0  0
   -1.9744   -2.8596   -1.5909 H   0  0  0  0  0  0  0  0  0  0  0  0
   -1.6190   -0.7645   -2.9044 H   0  0  0  0  0  0  0  0  0  0  0  0
   -1.5012    3.0168   -0.6336 H   0  0  0  0  0  0  0  0  0  0  0  0
   -0.7308    3.4728   -2.2063 H   0  0  0  0  0  0  0  0  0  0  0  0
    0.2500    2.8010   -0.8656 H   0  0  0  0  0  0  0  0  0  0  0  0
   -0.5538    1.3372    0.7700 H   0  0  0  0  0  0  0  0  0  0  0  0
   -0.8989   -0.6812    2.0334 H   0  0  0  0  0  0  0  0  0  0  0  0
   -1.2399    3.3889    1.9848 B   0  0  0  0  0  0  0  0  0  0  0  0
   -0.6852    4.3504    1.1289 F   0  0  0  0  0  0  0  0  0  0  0  0
   -2.3057    2.7370    1.2906 F   0  0  0  0  0  0  0  0  0  0  0  0
   -0.2443    2.3825    2.2314 F   0  0  0  0  0  0  0  0  0  0  0  0
   -1.6847    3.9254    3.1709 F   0  0  0  0  0  0  0  0  0  0  0  0
  1 10  1  0  0  0  0
  1  2  1  0  0  0  0
  2  3  1  0  0  0  0
  4  1  2  0  0  0  0
  5  6  2  0  0  0  0
  5  4  1  0  0  0  0
  6  9  1  0  0  0  0
  7  8  1  0  0  0  0
  7  6  1  0  0  0  0
  8 15  1  0  0  0  0
  8 13  1  0  0  0  0
  9 16  1  0  0  0  0
  9 10  2  0  0  0  0
 10 17  1  0  0  0  0
 11  4  1  0  0  0  0
 12  5  1  0  0  0  0
 14  8  1  0  0  0  0
 18 21  1  0  0  0  0
 18 22  1  0  0  0  0
 19 18  1  0  0  0  0
 20 18  1  0  0  0  0
M  RAD  2   2   2   3   3
M  END
