Coordinates from ORCA-job 4-MeOPhN2+~BF4-_B3LYPG-6-31G_dp-NX-Scan-d89-09-n800
 OpenBabel11261920503D

 22 21  0  0  0  0  0  0  0  0999 V2000
   -1.3184   -0.5840    0.5520 C   0  0  0  0  0  0  0  0  0  0  0  0
   -1.4341   -1.2686    1.7377 N   0  0  0  0  0  0  0  0  0  0  0  0
   -1.4579   -1.6244    2.8093 N   0  0  0  0  0  0  0  0  0  0  0  0
   -1.6302   -1.2743   -0.6385 C   0  0  0  0  0  0  0  0  0  0  0  0
   -1.5160   -0.6100   -1.8391 C   0  0  0  0  0  0  0  0  0  0  0  0
   -1.0885    0.7374   -1.8632 C   0  0  0  0  0  0  0  0  0  0  0  0
   -1.0131    1.2906   -3.0835 O   0  0  0  0  0  0  0  0  0  0  0  0
   -0.6026    2.6555   -3.2114 C   0  0  0  0  0  0  0  0  0  0  0  0
   -0.7739    1.4065   -0.6646 C   0  0  0  0  0  0  0  0  0  0  0  0
   -0.8894    0.7566    0.5540 C   0  0  0  0  0  0  0  0  0  0  0  0
   -1.9591   -2.3064   -0.5978 H   0  0  0  0  0  0  0  0  0  0  0  0
   -1.7506   -1.0961   -2.7788 H   0  0  0  0  0  0  0  0  0  0  0  0
   -1.2915    3.3246   -2.6854 H   0  0  0  0  0  0  0  0  0  0  0  0
   -0.6291    2.8694   -4.2794 H   0  0  0  0  0  0  0  0  0  0  0  0
    0.4154    2.7977   -2.8339 H   0  0  0  0  0  0  0  0  0  0  0  0
   -0.4461    2.4376   -0.6721 H   0  0  0  0  0  0  0  0  0  0  0  0
   -0.6618    1.2655    1.4875 H   0  0  0  0  0  0  0  0  0  0  0  0
   -1.6205    1.0967    3.8520 B   0  0  0  0  0  0  0  0  0  0  0  0
   -0.9850   -0.2261    4.0235 F   0  0  0  0  0  0  0  0  0  0  0  0
   -0.6294    1.9391    3.3212 F   0  0  0  0  0  0  0  0  0  0  0  0
   -2.6310    0.9097    2.8979 F   0  0  0  0  0  0  0  0  0  0  0  0
   -2.0908    1.5229    5.0591 F   0  0  0  0  0  0  0  0  0  0  0  0
  1 10  1  0  0  0  0
  1  2  1  0  0  0  0
  2  3  1  0  0  0  0
  4 11  1  0  0  0  0
  4  1  2  0  0  0  0
  5  4  1  0  0  0  0
  6  5  2  0  0  0  0
  6  9  1  0  0  0  0
  7  6  1  0  0  0  0
  8  7  1  0  0  0  0
  8 15  1  0  0  0  0
  8 13  1  0  0  0  0
  9 10  2  0  0  0  0
 10 17  1  0  0  0  0
 12  5  1  0  0  0  0
 14  8  1  0  0  0  0
 16  9  1  0  0  0  0
 18 19  1  0  0  0  0
 18 22  1  0  0  0  0
 20 18  1  0  0  0  0
 21 18  1  0  0  0  0
M  RAD  2   2   2   3   3
M  END
