Coordinates from ORCA-job 4-MeOPhN2+~BF4-_B3LYPG-6-31G_dp-NX-Scan-d89-09-n800
 OpenBabel11261920503D

 22 21  0  0  0  0  0  0  0  0999 V2000
   -1.4010   -1.7789    0.3488 C   0  0  0  0  0  0  0  0  0  0  0  0
   -1.5941   -2.8808    1.1007 N   0  0  0  0  0  0  0  0  0  0  0  0
   -1.7606   -3.8238    1.6951 N   0  0  0  0  0  0  0  0  0  0  0  0
   -1.5776   -1.9027   -1.0627 C   0  0  0  0  0  0  0  0  0  0  0  0
   -1.4198   -0.7868   -1.8369 C   0  0  0  0  0  0  0  0  0  0  0  0
   -1.0896    0.4662   -1.2366 C   0  0  0  0  0  0  0  0  0  0  0  0
   -1.0243    1.4914   -2.0569 O   0  0  0  0  0  0  0  0  0  0  0  0
   -0.8330    2.8371   -1.5156 C   0  0  0  0  0  0  0  0  0  0  0  0
   -0.8680    0.5593    0.1605 C   0  0  0  0  0  0  0  0  0  0  0  0
   -1.0458   -0.5425    0.9597 C   0  0  0  0  0  0  0  0  0  0  0  0
   -1.8425   -2.8607   -1.4960 H   0  0  0  0  0  0  0  0  0  0  0  0
   -1.5621   -0.8232   -2.9110 H   0  0  0  0  0  0  0  0  0  0  0  0
   -1.5850    3.0437   -0.7511 H   0  0  0  0  0  0  0  0  0  0  0  0
   -0.9311    3.4889   -2.3815 H   0  0  0  0  0  0  0  0  0  0  0  0
    0.1566    2.9252   -1.0667 H   0  0  0  0  0  0  0  0  0  0  0  0
   -0.5772    1.4899    0.6303 H   0  0  0  0  0  0  0  0  0  0  0  0
   -0.9334   -0.4275    2.0329 H   0  0  0  0  0  0  0  0  0  0  0  0
   -1.2320    3.1349    2.1327 B   0  0  0  0  0  0  0  0  0  0  0  0
   -0.1026    3.4801    1.3360 F   0  0  0  0  0  0  0  0  0  0  0  0
   -2.3380    2.9976    1.2511 F   0  0  0  0  0  0  0  0  0  0  0  0
   -0.9742    1.8552    2.7098 F   0  0  0  0  0  0  0  0  0  0  0  0
   -1.4687    4.0772    3.1038 F   0  0  0  0  0  0  0  0  0  0  0  0
  1 10  1  0  0  0  0
  1  2  1  0  0  0  0
  2  3  1  0  0  0  0
  4  1  2  0  0  0  0
  5  6  2  0  0  0  0
  5  4  1  0  0  0  0
  6  9  1  0  0  0  0
  7  8  1  0  0  0  0
  7  6  1  0  0  0  0
  8 15  1  0  0  0  0
  8 13  1  0  0  0  0
  9 16  1  0  0  0  0
  9 10  2  0  0  0  0
 10 17  1  0  0  0  0
 11  4  1  0  0  0  0
 12  5  1  0  0  0  0
 14  8  1  0  0  0  0
 18 21  1  0  0  0  0
 18 22  1  0  0  0  0
 19 18  1  0  0  0  0
 20 18  1  0  0  0  0
M  RAD  2   2   2   3   3
M  END
