Coordinates from ORCA-job 4-MeOPhN2+~BF4-_B3LYPG-6-31G_dp-NX-Scan-d89-09-n800
 OpenBabel11261920503D

 22 21  0  0  0  0  0  0  0  0999 V2000
   -1.2503   -0.8342    0.5691 C   0  0  0  0  0  0  0  0  0  0  0  0
   -1.3276   -1.6135    1.6851 N   0  0  0  0  0  0  0  0  0  0  0  0
   -1.3842   -2.2904    2.5707 N   0  0  0  0  0  0  0  0  0  0  0  0
   -1.8124   -1.3311   -0.6330 C   0  0  0  0  0  0  0  0  0  0  0  0
   -1.7342   -0.5401   -1.7517 C   0  0  0  0  0  0  0  0  0  0  0  0
   -1.1120    0.7348   -1.6835 C   0  0  0  0  0  0  0  0  0  0  0  0
   -1.1099    1.4206   -2.8315 O   0  0  0  0  0  0  0  0  0  0  0  0
   -0.5496    2.7404   -2.8623 C   0  0  0  0  0  0  0  0  0  0  0  0
   -0.5552    1.1981   -0.4780 C   0  0  0  0  0  0  0  0  0  0  0  0
   -0.6225    0.4225    0.6653 C   0  0  0  0  0  0  0  0  0  0  0  0
   -2.2953   -2.3011   -0.6585 H   0  0  0  0  0  0  0  0  0  0  0  0
   -2.1522   -0.8603   -2.6987 H   0  0  0  0  0  0  0  0  0  0  0  0
   -1.0769    3.4036   -2.1699 H   0  0  0  0  0  0  0  0  0  0  0  0
   -0.6870    3.0896   -3.8850 H   0  0  0  0  0  0  0  0  0  0  0  0
    0.5178    2.7173   -2.6202 H   0  0  0  0  0  0  0  0  0  0  0  0
   -0.1006    2.1769   -0.4071 H   0  0  0  0  0  0  0  0  0  0  0  0
   -0.2267    0.7580    1.6239 H   0  0  0  0  0  0  0  0  0  0  0  0
   -1.7236    1.4521    3.3680 B   0  0  0  0  0  0  0  0  0  0  0  0
   -0.3061    1.2500    3.4046 F   0  0  0  0  0  0  0  0  0  0  0  0
   -2.0126    2.2387    2.2380 F   0  0  0  0  0  0  0  0  0  0  0  0
   -2.3117    0.1652    3.1678 F   0  0  0  0  0  0  0  0  0  0  0  0
   -2.1709    2.0226    4.5333 F   0  0  0  0  0  0  0  0  0  0  0  0
  1 10  1  0  0  0  0
  1  2  1  0  0  0  0
  2  3  1  0  0  0  0
  4  1  2  0  0  0  0
  5  6  2  0  0  0  0
  5  4  1  0  0  0  0
  6  9  1  0  0  0  0
  7  6  1  0  0  0  0
  8  7  1  0  0  0  0
  8 15  1  0  0  0  0
  8 13  1  0  0  0  0
  9 16  1  0  0  0  0
  9 10  2  0  0  0  0
 10 17  1  0  0  0  0
 11  4  1  0  0  0  0
 12  5  1  0  0  0  0
 14  8  1  0  0  0  0
 18 19  1  0  0  0  0
 18 22  1  0  0  0  0
 20 18  1  0  0  0  0
 21 18  1  0  0  0  0
M  RAD  2   2   2   3   3
M  END
