Coordinates from ORCA-job 4-MeOPhN2+~BF4-_B3LYPG-6-31G_dp-NX-Scan-d89-09-n800
 OpenBabel11261920503D

 22 21  0  0  0  0  0  0  0  0999 V2000
   -1.4607   -1.8817    0.2986 C   0  0  0  0  0  0  0  0  0  0  0  0
   -1.6788   -2.9850    1.0333 N   0  0  0  0  0  0  0  0  0  0  0  0
   -1.8576   -3.9002    1.6653 N   0  0  0  0  0  0  0  0  0  0  0  0
   -1.6635   -1.9343   -1.1115 C   0  0  0  0  0  0  0  0  0  0  0  0
   -1.4668   -0.7890   -1.8327 C   0  0  0  0  0  0  0  0  0  0  0  0
   -1.0850    0.4237   -1.1802 C   0  0  0  0  0  0  0  0  0  0  0  0
   -0.9698    1.4732   -1.9602 O   0  0  0  0  0  0  0  0  0  0  0  0
   -0.7243    2.7901   -1.3689 C   0  0  0  0  0  0  0  0  0  0  0  0
   -0.8554    0.4490    0.2216 C   0  0  0  0  0  0  0  0  0  0  0  0
   -1.0478   -0.6896    0.9579 C   0  0  0  0  0  0  0  0  0  0  0  0
   -1.9727   -2.8592   -1.5852 H   0  0  0  0  0  0  0  0  0  0  0  0
   -1.6177   -0.7687   -2.9061 H   0  0  0  0  0  0  0  0  0  0  0  0
   -1.5000    3.0150   -0.6370 H   0  0  0  0  0  0  0  0  0  0  0  0
   -0.7413    3.4742   -2.2145 H   0  0  0  0  0  0  0  0  0  0  0  0
    0.2508    2.8063   -0.8803 H   0  0  0  0  0  0  0  0  0  0  0  0
   -0.5511    1.3435    0.7611 H   0  0  0  0  0  0  0  0  0  0  0  0
   -0.8976   -0.6671    2.0321 H   0  0  0  0  0  0  0  0  0  0  0  0
   -1.2406    3.3759    1.9941 B   0  0  0  0  0  0  0  0  0  0  0  0
   -0.6638    4.3263    1.1398 F   0  0  0  0  0  0  0  0  0  0  0  0
   -2.3071    2.7351    1.2908 F   0  0  0  0  0  0  0  0  0  0  0  0
   -0.2615    2.3577    2.2563 F   0  0  0  0  0  0  0  0  0  0  0  0
   -1.6915    3.9246    3.1722 F   0  0  0  0  0  0  0  0  0  0  0  0
  1 10  1  0  0  0  0
  1  2  1  0  0  0  0
  2  3  1  0  0  0  0
  4  1  2  0  0  0  0
  5  6  2  0  0  0  0
  5  4  1  0  0  0  0
  6  9  1  0  0  0  0
  7  8  1  0  0  0  0
  7  6  1  0  0  0  0
  8 15  1  0  0  0  0
  8 13  1  0  0  0  0
  9 16  1  0  0  0  0
  9 10  2  0  0  0  0
 10 17  1  0  0  0  0
 11  4  1  0  0  0  0
 12  5  1  0  0  0  0
 14  8  1  0  0  0  0
 18 21  1  0  0  0  0
 18 22  1  0  0  0  0
 19 18  1  0  0  0  0
 20 18  1  0  0  0  0
M  RAD  2   2   2   3   3
M  END
