Coordinates from ORCA-job 4-MeOPhN2+~BF4-_B3LYPG-6-31G_dp-NX-Scan-d89-09-n800
 OpenBabel11261920503D

 22 21  0  0  0  0  0  0  0  0999 V2000
   -1.4876   -0.7252    0.3857 C   0  0  0  0  0  0  0  0  0  0  0  0
   -1.8266   -1.5919    1.4666 N   0  0  0  0  0  0  0  0  0  0  0  0
   -1.5730   -1.3274    2.6685 N   0  0  0  0  0  0  0  0  0  0  0  0
   -1.5454   -1.3735   -0.8656 C   0  0  0  0  0  0  0  0  0  0  0  0
   -1.2767   -0.7021   -2.0444 C   0  0  0  0  0  0  0  0  0  0  0  0
   -0.9643    0.6671   -2.0129 C   0  0  0  0  0  0  0  0  0  0  0  0
   -0.7232    1.2470   -3.2182 O   0  0  0  0  0  0  0  0  0  0  0  0
   -0.4306    2.6367   -3.2572 C   0  0  0  0  0  0  0  0  0  0  0  0
   -0.9274    1.3372   -0.7831 C   0  0  0  0  0  0  0  0  0  0  0  0
   -1.1783    0.6491    0.4047 C   0  0  0  0  0  0  0  0  0  0  0  0
   -1.8091   -2.4257   -0.8759 H   0  0  0  0  0  0  0  0  0  0  0  0
   -1.3132   -1.2058   -3.0045 H   0  0  0  0  0  0  0  0  0  0  0  0
   -1.2585    3.2344   -2.8554 H   0  0  0  0  0  0  0  0  0  0  0  0
   -0.2870    2.8835   -4.3098 H   0  0  0  0  0  0  0  0  0  0  0  0
    0.4868    2.8723   -2.7033 H   0  0  0  0  0  0  0  0  0  0  0  0
   -0.6988    2.3948   -0.7330 H   0  0  0  0  0  0  0  0  0  0  0  0
   -1.1496    1.2139    1.3260 H   0  0  0  0  0  0  0  0  0  0  0  0
   -1.7489    1.6441    4.6687 B   0  0  0  0  0  0  0  0  0  0  0  0
   -1.0486   -0.3627    2.8907 F   0  0  0  0  0  0  0  0  0  0  0  0
   -1.3454    2.3630    3.6332 F   0  0  0  0  0  0  0  0  0  0  0  0
   -2.9701    1.1539    4.6880 F   0  0  0  0  0  0  0  0  0  0  0  0
   -0.9283    1.4368    5.6774 F   0  0  0  0  0  0  0  0  0  0  0  0
  1 10  1  0  0  0  0
  1  2  1  0  0  0  0
  2  3  2  0  0  0  0
  3 19  1  0  0  0  0
  4  1  2  0  0  0  0
  5  6  2  0  0  0  0
  5  4  1  0  0  0  0
  6  9  1  0  0  0  0
  7  6  1  0  0  0  0
  8  7  1  0  0  0  0
  8 13  1  0  0  0  0
  8 15  1  0  0  0  0
  9 16  1  0  0  0  0
  9 10  2  0  0  0  0
 10 17  1  0  0  0  0
 11  4  1  0  0  0  0
 12  5  1  0  0  0  0
 14  8  1  0  0  0  0
 18 21  1  0  0  0  0
 18 22  1  0  0  0  0
 20 18  1  0  0  0  0
M  END
