Coordinates from ORCA-job 4-MeOPhN2+~BF4-_B3LYPG-6-31G_dp-NX-Scan-d89-09-n800
 OpenBabel11261920503D

 22 21  0  0  0  0  0  0  0  0999 V2000
   -1.4458   -1.8922    0.2956 C   0  0  0  0  0  0  0  0  0  0  0  0
   -1.6220   -3.0115    1.0195 N   0  0  0  0  0  0  0  0  0  0  0  0
   -1.7684   -3.9490    1.6270 N   0  0  0  0  0  0  0  0  0  0  0  0
   -1.5968   -1.9609   -1.1212 C   0  0  0  0  0  0  0  0  0  0  0  0
   -1.4312   -0.8126   -1.8450 C   0  0  0  0  0  0  0  0  0  0  0  0
   -1.1244    0.4205   -1.1905 C   0  0  0  0  0  0  0  0  0  0  0  0
   -1.0144    1.4661   -1.9756 O   0  0  0  0  0  0  0  0  0  0  0  0
   -0.7970    2.7935   -1.3953 C   0  0  0  0  0  0  0  0  0  0  0  0
   -0.9579    0.4653    0.2191 C   0  0  0  0  0  0  0  0  0  0  0  0
   -1.1203   -0.6760    0.9599 C   0  0  0  0  0  0  0  0  0  0  0  0
   -1.8419   -2.9031   -1.5986 H   0  0  0  0  0  0  0  0  0  0  0  0
   -1.5423   -0.8080   -2.9235 H   0  0  0  0  0  0  0  0  0  0  0  0
   -1.5844    3.0195   -0.6748 H   0  0  0  0  0  0  0  0  0  0  0  0
   -0.8113    3.4651   -2.2511 H   0  0  0  0  0  0  0  0  0  0  0  0
    0.1676    2.8313   -0.8882 H   0  0  0  0  0  0  0  0  0  0  0  0
   -0.7119    1.3720    0.7639 H   0  0  0  0  0  0  0  0  0  0  0  0
   -1.0075   -0.6305    2.0381 H   0  0  0  0  0  0  0  0  0  0  0  0
   -1.1623    3.3983    2.0396 B   0  0  0  0  0  0  0  0  0  0  0  0
   -0.3155    4.1502    1.2072 F   0  0  0  0  0  0  0  0  0  0  0  0
   -2.2892    2.9807    1.2677 F   0  0  0  0  0  0  0  0  0  0  0  0
   -0.4664    2.2015    2.4194 F   0  0  0  0  0  0  0  0  0  0  0  0
   -1.5608    4.0995    3.1534 F   0  0  0  0  0  0  0  0  0  0  0  0
  1 10  1  0  0  0  0
  1  2  1  0  0  0  0
  2  3  1  0  0  0  0
  4  1  2  0  0  0  0
  5  6  2  0  0  0  0
  5  4  1  0  0  0  0
  6  9  1  0  0  0  0
  7  8  1  0  0  0  0
  7  6  1  0  0  0  0
  8 15  1  0  0  0  0
  8 13  1  0  0  0  0
  9 16  1  0  0  0  0
  9 10  2  0  0  0  0
 10 17  1  0  0  0  0
 11  4  1  0  0  0  0
 12  5  1  0  0  0  0
 14  8  1  0  0  0  0
 18 21  1  0  0  0  0
 18 22  1  0  0  0  0
 19 18  1  0  0  0  0
 20 18  1  0  0  0  0
M  RAD  2   2   2   3   3
M  END
