Coordinates from ORCA-job 4-MeOPhN2+~BF4-_B3LYPG-6-31G_dp-NX-Scan-d89-09-n800
 OpenBabel11261920503D

 22 21  0  0  0  0  0  0  0  0999 V2000
   -1.4964   -1.9434    0.2692 C   0  0  0  0  0  0  0  0  0  0  0  0
   -1.7397   -3.0597    0.9734 N   0  0  0  0  0  0  0  0  0  0  0  0
   -1.9411   -3.9810    1.5895 N   0  0  0  0  0  0  0  0  0  0  0  0
   -1.6160   -1.9701   -1.1506 C   0  0  0  0  0  0  0  0  0  0  0  0
   -1.3950   -0.8065   -1.8334 C   0  0  0  0  0  0  0  0  0  0  0  0
   -1.0719    0.3982   -1.1345 C   0  0  0  0  0  0  0  0  0  0  0  0
   -0.9303    1.4615   -1.8879 O   0  0  0  0  0  0  0  0  0  0  0  0
   -0.7631    2.7779   -1.2647 C   0  0  0  0  0  0  0  0  0  0  0  0
   -0.9246    0.3997    0.2816 C   0  0  0  0  0  0  0  0  0  0  0  0
   -1.1388   -0.7605    0.9764 C   0  0  0  0  0  0  0  0  0  0  0  0
   -1.8832   -2.8888   -1.6606 H   0  0  0  0  0  0  0  0  0  0  0  0
   -1.4817   -0.7635   -2.9133 H   0  0  0  0  0  0  0  0  0  0  0  0
   -1.6245    2.9903   -0.6335 H   0  0  0  0  0  0  0  0  0  0  0  0
   -0.6876    3.4678   -2.1017 H   0  0  0  0  0  0  0  0  0  0  0  0
    0.1382    2.7980   -0.6525 H   0  0  0  0  0  0  0  0  0  0  0  0
   -0.6477    1.2967    0.8367 H   0  0  0  0  0  0  0  0  0  0  0  0
   -1.0452   -0.7767    2.0571 H   0  0  0  0  0  0  0  0  0  0  0  0
   -1.1617    3.5075    1.9039 B   0  0  0  0  0  0  0  0  0  0  0  0
   -0.9788    4.5429    0.9803 F   0  0  0  0  0  0  0  0  0  0  0  0
   -2.2581    2.7060    1.4712 F   0  0  0  0  0  0  0  0  0  0  0  0
    0.0032    2.6599    1.8529 F   0  0  0  0  0  0  0  0  0  0  0  0
   -1.3598    3.9636    3.1871 F   0  0  0  0  0  0  0  0  0  0  0  0
  1  2  1  0  0  0  0
  1 10  2  0  0  0  0
  2  3  1  0  0  0  0
  4  1  1  0  0  0  0
  5  4  2  0  0  0  0
  5  6  1  0  0  0  0
  6  9  2  0  0  0  0
  7  8  1  0  0  0  0
  7  6  1  0  0  0  0
  8 15  1  0  0  0  0
  8 13  1  0  0  0  0
  9 16  1  0  0  0  0
  9 10  1  0  0  0  0
 10 17  1  0  0  0  0
 11  4  1  0  0  0  0
 12  5  1  0  0  0  0
 14  8  1  0  0  0  0
 18 22  1  0  0  0  0
 19 18  1  0  0  0  0
 20 18  1  0  0  0  0
 21 18  1  0  0  0  0
M  RAD  2   2   2   3   3
M  END
