Coordinates from ORCA-job 4-MeOPhN2+~BF4-_B3LYPG-6-31G_dp-NX-Scan-d89-09-n800
 OpenBabel11261920503D

 22 21  0  0  0  0  0  0  0  0999 V2000
   -1.2930   -0.6891    0.5306 C   0  0  0  0  0  0  0  0  0  0  0  0
   -1.4678   -1.5126    1.6513 N   0  0  0  0  0  0  0  0  0  0  0  0
   -1.2651   -1.3944    2.8276 N   0  0  0  0  0  0  0  0  0  0  0  0
   -1.6555   -1.3011   -0.6873 C   0  0  0  0  0  0  0  0  0  0  0  0
   -1.5457   -0.6180   -1.8825 C   0  0  0  0  0  0  0  0  0  0  0  0
   -1.0714    0.7068   -1.8879 C   0  0  0  0  0  0  0  0  0  0  0  0
   -1.0008    1.2974   -3.1017 O   0  0  0  0  0  0  0  0  0  0  0  0
   -0.5386    2.6429   -3.1887 C   0  0  0  0  0  0  0  0  0  0  0  0
   -0.7110    1.3254   -0.6785 C   0  0  0  0  0  0  0  0  0  0  0  0
   -0.8178    0.6374    0.5247 C   0  0  0  0  0  0  0  0  0  0  0  0
   -2.0230   -2.3209   -0.6625 H   0  0  0  0  0  0  0  0  0  0  0  0
   -1.8211   -1.0758   -2.8258 H   0  0  0  0  0  0  0  0  0  0  0  0
   -1.1886    3.3254   -2.6293 H   0  0  0  0  0  0  0  0  0  0  0  0
   -0.5712    2.8992   -4.2478 H   0  0  0  0  0  0  0  0  0  0  0  0
    0.4907    2.7362   -2.8237 H   0  0  0  0  0  0  0  0  0  0  0  0
   -0.3477    2.3450   -0.6633 H   0  0  0  0  0  0  0  0  0  0  0  0
   -0.5441    1.1280    1.4451 H   0  0  0  0  0  0  0  0  0  0  0  0
   -1.9480    1.4371    4.0420 B   0  0  0  0  0  0  0  0  0  0  0  0
   -0.6769   -0.0857    3.1936 F   0  0  0  0  0  0  0  0  0  0  0  0
   -1.2113    2.4040    3.4979 F   0  0  0  0  0  0  0  0  0  0  0  0
   -3.0355    1.0231    3.4039 F   0  0  0  0  0  0  0  0  0  0  0  0
   -1.7603    1.1094    5.3088 F   0  0  0  0  0  0  0  0  0  0  0  0
  1  2  1  0  0  0  0
  2  3  1  0  0  0  0
  3 19  1  0  0  0  0
  4 11  1  0  0  0  0
  4  1  2  0  0  0  0
  5  4  1  0  0  0  0
  6  5  2  0  0  0  0
  6  9  1  0  0  0  0
  7  6  1  0  0  0  0
  8  7  1  0  0  0  0
  8 15  1  0  0  0  0
  8 13  1  0  0  0  0
  9 16  1  0  0  0  0
  9 10  2  0  0  0  0
 10  1  1  0  0  0  0
 10 17  1  0  0  0  0
 12  5  1  0  0  0  0
 14  8  1  0  0  0  0
 18 22  1  0  0  0  0
 20 18  1  0  0  0  0
 21 18  1  0  0  0  0
M  RAD  2   2   2   3   2
M  END
