Coordinates from ORCA-job 4-MeOPhN2+~BF4-_B3LYPG-6-31G_dp-NX-Scan-d89-09-n800
 OpenBabel11261920503D

 22 21  0  0  0  0  0  0  0  0999 V2000
   -1.3069   -0.5403    0.5556 C   0  0  0  0  0  0  0  0  0  0  0  0
   -1.4155   -1.2089    1.7498 N   0  0  0  0  0  0  0  0  0  0  0  0
   -1.4745   -1.6873    2.7646 N   0  0  0  0  0  0  0  0  0  0  0  0
   -1.5952   -1.2571   -0.6266 C   0  0  0  0  0  0  0  0  0  0  0  0
   -1.4859   -0.6061   -1.8343 C   0  0  0  0  0  0  0  0  0  0  0  0
   -1.0846    0.7498   -1.8742 C   0  0  0  0  0  0  0  0  0  0  0  0
   -1.0121    1.2867   -3.1011 O   0  0  0  0  0  0  0  0  0  0  0  0
   -0.6267    2.6577   -3.2462 C   0  0  0  0  0  0  0  0  0  0  0  0
   -0.7903    1.4414   -0.6834 C   0  0  0  0  0  0  0  0  0  0  0  0
   -0.9031    0.8075    0.5436 C   0  0  0  0  0  0  0  0  0  0  0  0
   -1.9036   -2.2951   -0.5749 H   0  0  0  0  0  0  0  0  0  0  0  0
   -1.7041   -1.1095   -2.7688 H   0  0  0  0  0  0  0  0  0  0  0  0
   -1.3315    3.3205   -2.7336 H   0  0  0  0  0  0  0  0  0  0  0  0
   -0.6509    2.8557   -4.3173 H   0  0  0  0  0  0  0  0  0  0  0  0
    0.3861    2.8241   -2.8647 H   0  0  0  0  0  0  0  0  0  0  0  0
   -0.4790    2.4774   -0.7040 H   0  0  0  0  0  0  0  0  0  0  0  0
   -0.6875    1.3186    1.4792 H   0  0  0  0  0  0  0  0  0  0  0  0
   -1.6043    1.0354    3.8995 B   0  0  0  0  0  0  0  0  0  0  0  0
   -1.2307   -0.3220    4.2490 F   0  0  0  0  0  0  0  0  0  0  0  0
   -0.4546    1.6540    3.3586 F   0  0  0  0  0  0  0  0  0  0  0  0
   -2.5698    0.9262    2.8758 F   0  0  0  0  0  0  0  0  0  0  0  0
   -2.0793    1.6911    4.9999 F   0  0  0  0  0  0  0  0  0  0  0  0
  1  2  1  0  0  0  0
  2  3  1  0  0  0  0
  4 11  1  0  0  0  0
  4  1  2  0  0  0  0
  5  4  1  0  0  0  0
  6  5  2  0  0  0  0
  6  9  1  0  0  0  0
  7  6  1  0  0  0  0
  8  7  1  0  0  0  0
  8 15  1  0  0  0  0
  8 13  1  0  0  0  0
  9 10  2  0  0  0  0
 10  1  1  0  0  0  0
 10 17  1  0  0  0  0
 12  5  1  0  0  0  0
 14  8  1  0  0  0  0
 16  9  1  0  0  0  0
 18 19  1  0  0  0  0
 18 22  1  0  0  0  0
 20 18  1  0  0  0  0
 21 18  1  0  0  0  0
M  RAD  2   2   2   3   3
M  END
