Coordinates from ORCA-job 4-MeOPhN2+~BF4-_B3LYPG-6-31G_dp-NX-Scan-d89-09-n800
 OpenBabel11261920503D

 22 21  0  0  0  0  0  0  0  0999 V2000
   -1.2341   -1.4789    0.4348 C   0  0  0  0  0  0  0  0  0  0  0  0
   -1.3641   -2.4172    1.3941 N   0  0  0  0  0  0  0  0  0  0  0  0
   -1.4558   -3.1546    2.2368 N   0  0  0  0  0  0  0  0  0  0  0  0
   -1.6311   -1.7603   -0.9040 C   0  0  0  0  0  0  0  0  0  0  0  0
   -1.5588   -0.7402   -1.8144 C   0  0  0  0  0  0  0  0  0  0  0  0
   -1.1141    0.5553   -1.4097 C   0  0  0  0  0  0  0  0  0  0  0  0
   -1.1752    1.4989   -2.3389 O   0  0  0  0  0  0  0  0  0  0  0  0
   -0.8366    2.8608   -1.9739 C   0  0  0  0  0  0  0  0  0  0  0  0
   -0.6698    0.7877   -0.0951 C   0  0  0  0  0  0  0  0  0  0  0  0
   -0.7528   -0.2133    0.8436 C   0  0  0  0  0  0  0  0  0  0  0  0
   -1.9916   -2.7450   -1.1789 H   0  0  0  0  0  0  0  0  0  0  0  0
   -1.8680   -0.8825   -2.8434 H   0  0  0  0  0  0  0  0  0  0  0  0
   -1.3323    3.1543   -1.0457 H   0  0  0  0  0  0  0  0  0  0  0  0
   -1.1747    3.4689   -2.8115 H   0  0  0  0  0  0  0  0  0  0  0  0
    0.2473    2.9514   -1.8570 H   0  0  0  0  0  0  0  0  0  0  0  0
   -0.3760    1.7708    0.2559 H   0  0  0  0  0  0  0  0  0  0  0  0
   -0.5025    0.0226    1.8754 H   0  0  0  0  0  0  0  0  0  0  0  0
   -1.4638    2.4843    2.5010 B   0  0  0  0  0  0  0  0  0  0  0  0
   -0.3676    1.6465    2.8825 F   0  0  0  0  0  0  0  0  0  0  0  0
   -1.0392    3.2478    1.3620 F   0  0  0  0  0  0  0  0  0  0  0  0
   -2.5197    1.6450    2.1006 F   0  0  0  0  0  0  0  0  0  0  0  0
   -1.8233    3.3173    3.5325 F   0  0  0  0  0  0  0  0  0  0  0  0
  1 10  1  0  0  0  0
  1  2  1  0  0  0  0
  2  3  1  0  0  0  0
  4  1  2  0  0  0  0
  5  6  2  0  0  0  0
  5  4  1  0  0  0  0
  6  9  1  0  0  0  0
  7  8  1  0  0  0  0
  7  6  1  0  0  0  0
  8 15  1  0  0  0  0
  8 13  1  0  0  0  0
  9 16  1  0  0  0  0
  9 10  2  0  0  0  0
 10 17  1  0  0  0  0
 11  4  1  0  0  0  0
 12  5  1  0  0  0  0
 14  8  1  0  0  0  0
 18 19  1  0  0  0  0
 18 22  1  0  0  0  0
 20 18  1  0  0  0  0
 21 18  1  0  0  0  0
M  RAD  2   2   2   3   3
M  END
