Coordinates from ORCA-job 4-MeOPhN2+~BF4-_B3LYPG-6-31G_dp-NX-Scan-d89-09-n800
 OpenBabel11261920503D

 22 21  0  0  0  0  0  0  0  0999 V2000
   -1.3442   -1.6336    0.3789 C   0  0  0  0  0  0  0  0  0  0  0  0
   -1.5480   -2.6490    1.2380 N   0  0  0  0  0  0  0  0  0  0  0  0
   -1.7054   -3.4761    1.9842 N   0  0  0  0  0  0  0  0  0  0  0  0
   -1.6566   -1.8080   -1.0009 C   0  0  0  0  0  0  0  0  0  0  0  0
   -1.5050   -0.7310   -1.8320 C   0  0  0  0  0  0  0  0  0  0  0  0
   -1.0553    0.5204   -1.3118 C   0  0  0  0  0  0  0  0  0  0  0  0
   -1.0390    1.5258   -2.1668 O   0  0  0  0  0  0  0  0  0  0  0  0
   -0.7613    2.8673   -1.6688 C   0  0  0  0  0  0  0  0  0  0  0  0
   -0.6793    0.6475    0.0437 C   0  0  0  0  0  0  0  0  0  0  0  0
   -0.8553   -0.4079    0.9025 C   0  0  0  0  0  0  0  0  0  0  0  0
   -2.0193   -2.7622   -1.3658 H   0  0  0  0  0  0  0  0  0  0  0  0
   -1.7543   -0.7940   -2.8849 H   0  0  0  0  0  0  0  0  0  0  0  0
   -1.3818    3.0789   -0.7941 H   0  0  0  0  0  0  0  0  0  0  0  0
   -0.9989    3.5238   -2.5043 H   0  0  0  0  0  0  0  0  0  0  0  0
    0.2966    2.9527   -1.4086 H   0  0  0  0  0  0  0  0  0  0  0  0
   -0.3118    1.5810    0.4632 H   0  0  0  0  0  0  0  0  0  0  0  0
   -0.6845   -0.2570    1.9630 H   0  0  0  0  0  0  0  0  0  0  0  0
   -1.4148    2.7899    2.2488 B   0  0  0  0  0  0  0  0  0  0  0  0
   -0.0985    2.9265    1.7041 F   0  0  0  0  0  0  0  0  0  0  0  0
   -2.3133    2.8062    1.1481 F   0  0  0  0  0  0  0  0  0  0  0  0
   -1.4875    1.5173    2.8729 F   0  0  0  0  0  0  0  0  0  0  0  0
   -1.6862    3.8012    3.1372 F   0  0  0  0  0  0  0  0  0  0  0  0
  1 10  1  0  0  0  0
  1  2  1  0  0  0  0
  2  3  1  0  0  0  0
  4  1  2  0  0  0  0
  5  6  2  0  0  0  0
  5  4  1  0  0  0  0
  6  9  1  0  0  0  0
  7  8  1  0  0  0  0
  7  6  1  0  0  0  0
  8 15  1  0  0  0  0
  8 13  1  0  0  0  0
  9 16  1  0  0  0  0
  9 10  2  0  0  0  0
 10 17  1  0  0  0  0
 11  4  1  0  0  0  0
 12  5  1  0  0  0  0
 14  8  1  0  0  0  0
 18 21  1  0  0  0  0
 18 22  1  0  0  0  0
 19 18  1  0  0  0  0
 20 18  1  0  0  0  0
M  RAD  2   2   2   3   3
M  END
