Coordinates from ORCA-job 4-MeOPhN2+~BF4-_B3LYPG-6-31G_dp-NX-Scan-d89-09-n800
 OpenBabel11261920503D

 22 21  0  0  0  0  0  0  0  0999 V2000
   -1.2361   -1.4420    0.4318 C   0  0  0  0  0  0  0  0  0  0  0  0
   -1.3432   -2.3738    1.4023 N   0  0  0  0  0  0  0  0  0  0  0  0
   -1.4184   -3.1076    2.2491 N   0  0  0  0  0  0  0  0  0  0  0  0
   -1.6028   -1.7597   -0.9073 C   0  0  0  0  0  0  0  0  0  0  0  0
   -1.5422   -0.7547   -1.8354 C   0  0  0  0  0  0  0  0  0  0  0  0
   -1.1357    0.5579   -1.4482 C   0  0  0  0  0  0  0  0  0  0  0  0
   -1.1864    1.4779   -2.4046 O   0  0  0  0  0  0  0  0  0  0  0  0
   -0.8635    2.8473   -2.0694 C   0  0  0  0  0  0  0  0  0  0  0  0
   -0.7350    0.8315   -0.1289 C   0  0  0  0  0  0  0  0  0  0  0  0
   -0.8023   -0.1558    0.8280 C   0  0  0  0  0  0  0  0  0  0  0  0
   -1.9298   -2.7593   -1.1699 H   0  0  0  0  0  0  0  0  0  0  0  0
   -1.8263   -0.9252   -2.8674 H   0  0  0  0  0  0  0  0  0  0  0  0
   -1.4192    3.1780   -1.1888 H   0  0  0  0  0  0  0  0  0  0  0  0
   -1.1455    3.4280   -2.9464 H   0  0  0  0  0  0  0  0  0  0  0  0
    0.2099    2.9436   -1.8830 H   0  0  0  0  0  0  0  0  0  0  0  0
   -0.4631    1.8251    0.2152 H   0  0  0  0  0  0  0  0  0  0  0  0
   -0.5720    0.0979    1.8637 H   0  0  0  0  0  0  0  0  0  0  0  0
   -1.4184    2.4423    2.6235 B   0  0  0  0  0  0  0  0  0  0  0  0
   -0.5083    1.4555    3.1255 F   0  0  0  0  0  0  0  0  0  0  0  0
   -0.7485    3.1541    1.5775 F   0  0  0  0  0  0  0  0  0  0  0  0
   -2.5111    1.7596    2.0547 F   0  0  0  0  0  0  0  0  0  0  0  0
   -1.8058    3.2992    3.6245 F   0  0  0  0  0  0  0  0  0  0  0  0
  1 10  1  0  0  0  0
  1  2  1  0  0  0  0
  2  3  1  0  0  0  0
  4  1  2  0  0  0  0
  5  6  2  0  0  0  0
  5  4  1  0  0  0  0
  6  9  1  0  0  0  0
  7  8  1  0  0  0  0
  7  6  1  0  0  0  0
  8 15  1  0  0  0  0
  8 13  1  0  0  0  0
  9 16  1  0  0  0  0
  9 10  2  0  0  0  0
 10 17  1  0  0  0  0
 11  4  1  0  0  0  0
 12  5  1  0  0  0  0
 14  8  1  0  0  0  0
 18 19  1  0  0  0  0
 18 22  1  0  0  0  0
 20 18  1  0  0  0  0
 21 18  1  0  0  0  0
M  RAD  2   2   2   3   3
M  END
