Coordinates from ORCA-job 4-MeOPhN2+~BF4-_B3LYPG-6-31G_dp-NX-Scan-d89-09-n800
 OpenBabel11261920503D

 22 21  0  0  0  0  0  0  0  0999 V2000
   -1.2336   -1.4756    0.4341 C   0  0  0  0  0  0  0  0  0  0  0  0
   -1.3651   -2.4083    1.3985 N   0  0  0  0  0  0  0  0  0  0  0  0
   -1.4560   -3.1361    2.2494 N   0  0  0  0  0  0  0  0  0  0  0  0
   -1.6322   -1.7587   -0.9038 C   0  0  0  0  0  0  0  0  0  0  0  0
   -1.5591   -0.7396   -1.8154 C   0  0  0  0  0  0  0  0  0  0  0  0
   -1.1129    0.5561   -1.4126 C   0  0  0  0  0  0  0  0  0  0  0  0
   -1.1748    1.4992   -2.3425 O   0  0  0  0  0  0  0  0  0  0  0  0
   -0.8362    2.8610   -1.9776 C   0  0  0  0  0  0  0  0  0  0  0  0
   -0.6669    0.7895   -0.0989 C   0  0  0  0  0  0  0  0  0  0  0  0
   -0.7501   -0.2105    0.8405 C   0  0  0  0  0  0  0  0  0  0  0  0
   -1.9943   -2.7432   -1.1772 H   0  0  0  0  0  0  0  0  0  0  0  0
   -1.8694   -0.8826   -2.8440 H   0  0  0  0  0  0  0  0  0  0  0  0
   -1.3323    3.1541   -1.0494 H   0  0  0  0  0  0  0  0  0  0  0  0
   -1.1742    3.4693   -2.8150 H   0  0  0  0  0  0  0  0  0  0  0  0
    0.2476    2.9518   -1.8604 H   0  0  0  0  0  0  0  0  0  0  0  0
   -0.3724    1.7722    0.2525 H   0  0  0  0  0  0  0  0  0  0  0  0
   -0.5003    0.0251    1.8725 H   0  0  0  0  0  0  0  0  0  0  0  0
   -1.4654    2.4755    2.5042 B   0  0  0  0  0  0  0  0  0  0  0  0
   -0.3706    1.6357    2.8867 F   0  0  0  0  0  0  0  0  0  0  0  0
   -1.0381    3.2417    1.3683 F   0  0  0  0  0  0  0  0  0  0  0  0
   -2.5206    1.6373    2.0994 F   0  0  0  0  0  0  0  0  0  0  0  0
   -1.8269    3.3058    3.5372 F   0  0  0  0  0  0  0  0  0  0  0  0
  1 10  1  0  0  0  0
  1  2  1  0  0  0  0
  2  3  1  0  0  0  0
  4  1  2  0  0  0  0
  5  6  2  0  0  0  0
  5  4  1  0  0  0  0
  6  9  1  0  0  0  0
  7  8  1  0  0  0  0
  7  6  1  0  0  0  0
  8 15  1  0  0  0  0
  8 13  1  0  0  0  0
  9 16  1  0  0  0  0
  9 10  2  0  0  0  0
 10 17  1  0  0  0  0
 11  4  1  0  0  0  0
 12  5  1  0  0  0  0
 14  8  1  0  0  0  0
 18 19  1  0  0  0  0
 18 22  1  0  0  0  0
 20 18  1  0  0  0  0
 21 18  1  0  0  0  0
M  RAD  2   2   2   3   3
M  END
