Coordinates from ORCA-job 4-MeOPhN2+~BF4-_B3LYPG-6-31G_dp-NX-Scan-d89-09-n800
 OpenBabel11261920503D

 22 21  0  0  0  0  0  0  0  0999 V2000
   -1.3115   -0.5453    0.5553 C   0  0  0  0  0  0  0  0  0  0  0  0
   -1.4238   -1.2155    1.7487 N   0  0  0  0  0  0  0  0  0  0  0  0
   -1.4796   -1.6678    2.7776 N   0  0  0  0  0  0  0  0  0  0  0  0
   -1.5982   -1.2598   -0.6284 C   0  0  0  0  0  0  0  0  0  0  0  0
   -1.4862   -0.6082   -1.8357 C   0  0  0  0  0  0  0  0  0  0  0  0
   -1.0836    0.7472   -1.8740 C   0  0  0  0  0  0  0  0  0  0  0  0
   -1.0088    1.2853   -3.1005 O   0  0  0  0  0  0  0  0  0  0  0  0
   -0.6232    2.6564   -3.2432 C   0  0  0  0  0  0  0  0  0  0  0  0
   -0.7907    1.4374   -0.6822 C   0  0  0  0  0  0  0  0  0  0  0  0
   -0.9063    0.8023    0.5440 C   0  0  0  0  0  0  0  0  0  0  0  0
   -1.9077   -2.2976   -0.5779 H   0  0  0  0  0  0  0  0  0  0  0  0
   -1.7032   -1.1108   -2.7709 H   0  0  0  0  0  0  0  0  0  0  0  0
   -1.3284    3.3186   -2.7305 H   0  0  0  0  0  0  0  0  0  0  0  0
   -0.6461    2.8561   -4.3140 H   0  0  0  0  0  0  0  0  0  0  0  0
    0.3892    2.8223   -2.8603 H   0  0  0  0  0  0  0  0  0  0  0  0
   -0.4787    2.4733   -0.7012 H   0  0  0  0  0  0  0  0  0  0  0  0
   -0.6937    1.3146    1.4794 H   0  0  0  0  0  0  0  0  0  0  0  0
   -1.6027    1.0444    3.8937 B   0  0  0  0  0  0  0  0  0  0  0  0
   -1.1963   -0.3213    4.2032 F   0  0  0  0  0  0  0  0  0  0  0  0
   -0.4711    1.6961    3.3601 F   0  0  0  0  0  0  0  0  0  0  0  0
   -2.5779    0.9388    2.8824 F   0  0  0  0  0  0  0  0  0  0  0  0
   -2.0753    1.6531    5.0208 F   0  0  0  0  0  0  0  0  0  0  0  0
  1  2  1  0  0  0  0
  2  3  1  0  0  0  0
  4 11  1  0  0  0  0
  4  1  2  0  0  0  0
  5  4  1  0  0  0  0
  6  5  2  0  0  0  0
  6  9  1  0  0  0  0
  7  6  1  0  0  0  0
  8  7  1  0  0  0  0
  8 15  1  0  0  0  0
  8 13  1  0  0  0  0
  9 10  2  0  0  0  0
 10  1  1  0  0  0  0
 10 17  1  0  0  0  0
 12  5  1  0  0  0  0
 14  8  1  0  0  0  0
 16  9  1  0  0  0  0
 18 19  1  0  0  0  0
 18 22  1  0  0  0  0
 20 18  1  0  0  0  0
 21 18  1  0  0  0  0
M  RAD  2   2   2   3   3
M  END
