Coordinates from ORCA-job 4-MeOPhN2+~BF4-_B3LYPG-6-31G_dp-NX-Scan-d89-09-n800
 OpenBabel11261920503D

 22 21  0  0  0  0  0  0  0  0999 V2000
   -1.3236   -1.5742    0.3985 C   0  0  0  0  0  0  0  0  0  0  0  0
   -1.5312   -2.5640    1.2873 N   0  0  0  0  0  0  0  0  0  0  0  0
   -1.6931   -3.3692    2.0556 N   0  0  0  0  0  0  0  0  0  0  0  0
   -1.6659   -1.7778   -0.9700 C   0  0  0  0  0  0  0  0  0  0  0  0
   -1.5192   -0.7224   -1.8293 C   0  0  0  0  0  0  0  0  0  0  0  0
   -1.0476    0.5355   -1.3467 C   0  0  0  0  0  0  0  0  0  0  0  0
   -1.0481    1.5246   -2.2231 O   0  0  0  0  0  0  0  0  0  0  0  0
   -0.7553    2.8721   -1.7578 C   0  0  0  0  0  0  0  0  0  0  0  0
   -0.6365    0.6875   -0.0058 C   0  0  0  0  0  0  0  0  0  0  0  0
   -0.8065   -0.3451    0.8829 C   0  0  0  0  0  0  0  0  0  0  0  0
   -2.0475   -2.7357   -1.3047 H   0  0  0  0  0  0  0  0  0  0  0  0
   -1.7922   -0.8064   -2.8748 H   0  0  0  0  0  0  0  0  0  0  0  0
   -1.3392    3.0965   -0.8608 H   0  0  0  0  0  0  0  0  0  0  0  0
   -1.0315    3.5180   -2.5897 H   0  0  0  0  0  0  0  0  0  0  0  0
    0.3138    2.9652   -1.5488 H   0  0  0  0  0  0  0  0  0  0  0  0
   -0.2648    1.6244    0.3963 H   0  0  0  0  0  0  0  0  0  0  0  0
   -0.6248   -0.1701    1.9378 H   0  0  0  0  0  0  0  0  0  0  0  0
   -1.4521    2.6749    2.3239 B   0  0  0  0  0  0  0  0  0  0  0  0
   -0.0764    2.6947    1.9394 F   0  0  0  0  0  0  0  0  0  0  0  0
   -2.2190    2.8118    1.1341 F   0  0  0  0  0  0  0  0  0  0  0  0
   -1.7140    1.3973    2.8862 F   0  0  0  0  0  0  0  0  0  0  0  0
   -1.7289    3.6821    3.2161 F   0  0  0  0  0  0  0  0  0  0  0  0
  1 10  1  0  0  0  0
  1  2  1  0  0  0  0
  2  3  1  0  0  0  0
  4  1  2  0  0  0  0
  5  6  2  0  0  0  0
  5  4  1  0  0  0  0
  6  9  1  0  0  0  0
  7  8  1  0  0  0  0
  7  6  1  0  0  0  0
  8 15  1  0  0  0  0
  8 13  1  0  0  0  0
  9 16  1  0  0  0  0
  9 10  2  0  0  0  0
 10 17  1  0  0  0  0
 11  4  1  0  0  0  0
 12  5  1  0  0  0  0
 14  8  1  0  0  0  0
 18 21  1  0  0  0  0
 18 22  1  0  0  0  0
 19 18  1  0  0  0  0
 20 18  1  0  0  0  0
M  RAD  2   2   2   3   3
M  END
