Coordinates from ORCA-job 4-MeOPhN2+~BF4-_B3LYPG-6-31G_dp-NX-Scan-d89-09-n800
 OpenBabel11261920503D

 22 21  0  0  0  0  0  0  0  0999 V2000
   -1.3351   -1.6048    0.3868 C   0  0  0  0  0  0  0  0  0  0  0  0
   -1.5427   -2.6059    1.2622 N   0  0  0  0  0  0  0  0  0  0  0  0
   -1.7027   -3.4185    2.0233 N   0  0  0  0  0  0  0  0  0  0  0  0
   -1.6610   -1.7937   -0.9878 C   0  0  0  0  0  0  0  0  0  0  0  0
   -1.5105   -0.7272   -1.8326 C   0  0  0  0  0  0  0  0  0  0  0  0
   -1.0502    0.5274   -1.3304 C   0  0  0  0  0  0  0  0  0  0  0  0
   -1.0421    1.5253   -2.1956 O   0  0  0  0  0  0  0  0  0  0  0  0
   -0.7591    2.8695   -1.7113 C   0  0  0  0  0  0  0  0  0  0  0  0
   -0.6575    0.6666    0.0182 C   0  0  0  0  0  0  0  0  0  0  0  0
   -0.8318   -0.3776    0.8915 C   0  0  0  0  0  0  0  0  0  0  0  0
   -2.0333   -2.7497   -1.3383 H   0  0  0  0  0  0  0  0  0  0  0  0
   -1.7707   -0.8004   -2.8823 H   0  0  0  0  0  0  0  0  0  0  0  0
   -1.3622    3.0841   -0.8250 H   0  0  0  0  0  0  0  0  0  0  0  0
   -1.0171    3.5221   -2.5438 H   0  0  0  0  0  0  0  0  0  0  0  0
    0.3046    2.9602   -1.4766 H   0  0  0  0  0  0  0  0  0  0  0  0
   -0.2875    1.6013    0.4305 H   0  0  0  0  0  0  0  0  0  0  0  0
   -0.6577   -0.2142    1.9498 H   0  0  0  0  0  0  0  0  0  0  0  0
   -1.4315    2.7337    2.2868 B   0  0  0  0  0  0  0  0  0  0  0  0
   -0.0840    2.8185    1.8180 F   0  0  0  0  0  0  0  0  0  0  0  0
   -2.2707    2.8001    1.1410 F   0  0  0  0  0  0  0  0  0  0  0  0
   -1.5918    1.4575    2.8893 F   0  0  0  0  0  0  0  0  0  0  0  0
   -1.7093    3.7455    3.1727 F   0  0  0  0  0  0  0  0  0  0  0  0
  1 10  1  0  0  0  0
  1  2  1  0  0  0  0
  2  3  1  0  0  0  0
  4  1  2  0  0  0  0
  5  6  2  0  0  0  0
  5  4  1  0  0  0  0
  6  9  1  0  0  0  0
  7  8  1  0  0  0  0
  7  6  1  0  0  0  0
  8 15  1  0  0  0  0
  8 13  1  0  0  0  0
  9 16  1  0  0  0  0
  9 10  2  0  0  0  0
 10 17  1  0  0  0  0
 11  4  1  0  0  0  0
 12  5  1  0  0  0  0
 14  8  1  0  0  0  0
 18 21  1  0  0  0  0
 18 22  1  0  0  0  0
 19 18  1  0  0  0  0
 20 18  1  0  0  0  0
M  RAD  2   2   2   3   3
M  END
