Coordinates from ORCA-job 4-MeOPhN2+~BF4-_B3LYPG-6-31G_dp-NX-Scan-d89-09-n800
 OpenBabel11261920503D

 22 21  0  0  0  0  0  0  0  0999 V2000
   -1.2569   -1.3891    0.4323 C   0  0  0  0  0  0  0  0  0  0  0  0
   -1.3468   -2.3114    1.4155 N   0  0  0  0  0  0  0  0  0  0  0  0
   -1.4122   -3.0437    2.2639 N   0  0  0  0  0  0  0  0  0  0  0  0
   -1.5785   -1.7479   -0.9076 C   0  0  0  0  0  0  0  0  0  0  0  0
   -1.5154   -0.7631   -1.8563 C   0  0  0  0  0  0  0  0  0  0  0  0
   -1.1522    0.5680   -1.4900 C   0  0  0  0  0  0  0  0  0  0  0  0
   -1.1665    1.4507   -2.4843 O   0  0  0  0  0  0  0  0  0  0  0  0
   -0.8618    2.8312   -2.1944 C   0  0  0  0  0  0  0  0  0  0  0  0
   -0.8211    0.8901   -0.1624 C   0  0  0  0  0  0  0  0  0  0  0  0
   -0.8775   -0.0821    0.8137 C   0  0  0  0  0  0  0  0  0  0  0  0
   -1.8699   -2.7620   -1.1562 H   0  0  0  0  0  0  0  0  0  0  0  0
   -1.7572   -0.9650   -2.8934 H   0  0  0  0  0  0  0  0  0  0  0  0
   -1.5241    3.2202   -1.4170 H   0  0  0  0  0  0  0  0  0  0  0  0
   -1.0209    3.3611   -3.1323 H   0  0  0  0  0  0  0  0  0  0  0  0
    0.1796    2.9328   -1.8767 H   0  0  0  0  0  0  0  0  0  0  0  0
   -0.5812    1.8948    0.1739 H   0  0  0  0  0  0  0  0  0  0  0  0
   -0.6602    0.1817    1.8517 H   0  0  0  0  0  0  0  0  0  0  0  0
   -1.3742    2.3746    2.7749 B   0  0  0  0  0  0  0  0  0  0  0  0
   -0.5119    1.3312    3.2522 F   0  0  0  0  0  0  0  0  0  0  0  0
   -0.6741    3.0726    1.7466 F   0  0  0  0  0  0  0  0  0  0  0  0
   -2.4985    1.7525    2.1944 F   0  0  0  0  0  0  0  0  0  0  0  0
   -1.7222    3.2223    3.7979 F   0  0  0  0  0  0  0  0  0  0  0  0
  1 10  1  0  0  0  0
  1  2  1  0  0  0  0
  2  3  1  0  0  0  0
  4  1  2  0  0  0  0
  5  6  2  0  0  0  0
  5  4  1  0  0  0  0
  6  9  1  0  0  0  0
  7  8  1  0  0  0  0
  7  6  1  0  0  0  0
  8 15  1  0  0  0  0
  8 13  1  0  0  0  0
  9 16  1  0  0  0  0
  9 10  2  0  0  0  0
 10 17  1  0  0  0  0
 11  4  1  0  0  0  0
 12  5  1  0  0  0  0
 14  8  1  0  0  0  0
 18 19  1  0  0  0  0
 18 22  1  0  0  0  0
 20 18  1  0  0  0  0
 21 18  1  0  0  0  0
M  RAD  2   2   2   3   3
M  END
