Coordinates from ORCA-job 4-MeOPhN2+~BF4-_B3LYPG-6-31G_dp-NX-Scan-d89-09-n800
 OpenBabel11261920503D

 22 21  0  0  0  0  0  0  0  0999 V2000
   -1.2569   -1.3927    0.4330 C   0  0  0  0  0  0  0  0  0  0  0  0
   -1.3469   -2.3199    1.4115 N   0  0  0  0  0  0  0  0  0  0  0  0
   -1.4139   -3.0609    2.2523 N   0  0  0  0  0  0  0  0  0  0  0  0
   -1.5781   -1.7492   -0.9078 C   0  0  0  0  0  0  0  0  0  0  0  0
   -1.5152   -0.7636   -1.8555 C   0  0  0  0  0  0  0  0  0  0  0  0
   -1.1523    0.5669   -1.4874 C   0  0  0  0  0  0  0  0  0  0  0  0
   -1.1669    1.4512   -2.4802 O   0  0  0  0  0  0  0  0  0  0  0  0
   -0.8626    2.8314   -2.1880 C   0  0  0  0  0  0  0  0  0  0  0  0
   -0.8212    0.8872   -0.1594 C   0  0  0  0  0  0  0  0  0  0  0  0
   -0.8777   -0.0857    0.8163 C   0  0  0  0  0  0  0  0  0  0  0  0
   -1.8690   -2.7632   -1.1577 H   0  0  0  0  0  0  0  0  0  0  0  0
   -1.7570   -0.9647   -2.8928 H   0  0  0  0  0  0  0  0  0  0  0  0
   -1.5229    3.2180   -1.4076 H   0  0  0  0  0  0  0  0  0  0  0  0
   -1.0249    3.3632   -3.1242 H   0  0  0  0  0  0  0  0  0  0  0  0
    0.1796    2.9330   -1.8731 H   0  0  0  0  0  0  0  0  0  0  0  0
   -0.5820    1.8921    0.1769 H   0  0  0  0  0  0  0  0  0  0  0  0
   -0.6595    0.1802    1.8536 H   0  0  0  0  0  0  0  0  0  0  0  0
   -1.3733    2.3830    2.7691 B   0  0  0  0  0  0  0  0  0  0  0  0
   -0.5106    1.3425    3.2505 F   0  0  0  0  0  0  0  0  0  0  0  0
   -0.6730    3.0775    1.7381 F   0  0  0  0  0  0  0  0  0  0  0  0
   -2.4972    1.7584    2.1905 F   0  0  0  0  0  0  0  0  0  0  0  0
   -1.7222    3.2349    3.7883 F   0  0  0  0  0  0  0  0  0  0  0  0
  1 10  1  0  0  0  0
  1  2  1  0  0  0  0
  2  3  1  0  0  0  0
  4  1  2  0  0  0  0
  5  6  2  0  0  0  0
  5  4  1  0  0  0  0
  6  9  1  0  0  0  0
  7  8  1  0  0  0  0
  7  6  1  0  0  0  0
  8 15  1  0  0  0  0
  8 13  1  0  0  0  0
  9 16  1  0  0  0  0
  9 10  2  0  0  0  0
 10 17  1  0  0  0  0
 11  4  1  0  0  0  0
 12  5  1  0  0  0  0
 14  8  1  0  0  0  0
 18 19  1  0  0  0  0
 18 22  1  0  0  0  0
 20 18  1  0  0  0  0
 21 18  1  0  0  0  0
M  RAD  2   2   2   3   3
M  END
