Coordinates from ORCA-job 4-MeOPhN2+~BF4-_B3LYPG-6-31G_dp-NX-Scan-d89-09-n800
 OpenBabel11261920503D

 22 22  0  0  0  0  0  0  0  0999 V2000
   -1.6118    0.3199    0.6889 C   0  0  0  0  0  0  0  0  0  0  0  0
   -2.0038   -0.0487    2.0047 N   0  0  0  0  0  0  0  0  0  0  0  0
   -1.3348    0.3926    3.0060 N   0  0  0  0  0  0  0  0  0  0  0  0
   -2.2319   -0.4616   -0.3089 C   0  0  0  0  0  0  0  0  0  0  0  0
   -1.9891   -0.2438   -1.6516 C   0  0  0  0  0  0  0  0  0  0  0  0
   -1.1213    0.7875   -2.0508 C   0  0  0  0  0  0  0  0  0  0  0  0
   -0.9483    0.9290   -3.3883 O   0  0  0  0  0  0  0  0  0  0  0  0
   -0.0920    1.9611   -3.8613 C   0  0  0  0  0  0  0  0  0  0  0  0
   -0.5091    1.5878   -1.0772 C   0  0  0  0  0  0  0  0  0  0  0  0
   -0.7474    1.3541    0.2776 C   0  0  0  0  0  0  0  0  0  0  0  0
   -2.9084   -1.2463    0.0136 H   0  0  0  0  0  0  0  0  0  0  0  0
   -2.4622   -0.8496   -2.4166 H   0  0  0  0  0  0  0  0  0  0  0  0
   -0.4532    2.9523   -3.5603 H   0  0  0  0  0  0  0  0  0  0  0  0
   -0.1072    1.8871   -4.9495 H   0  0  0  0  0  0  0  0  0  0  0  0
    0.9362    1.8259   -3.5036 H   0  0  0  0  0  0  0  0  0  0  0  0
    0.1543    2.3969   -1.3587 H   0  0  0  0  0  0  0  0  0  0  0  0
   -0.2585    2.0165    0.9817 H   0  0  0  0  0  0  0  0  0  0  0  0
   -1.8873   -0.0843    4.6353 B   0  0  0  0  0  0  0  0  0  0  0  0
   -0.6022    0.9453    2.9406 F   0  0  0  0  0  0  0  0  0  0  0  0
   -2.9605    0.7195    4.8604 F   0  0  0  0  0  0  0  0  0  0  0  0
   -0.7391    0.2907    5.2948 F   0  0  0  0  0  0  0  0  0  0  0  0
   -2.1263   -1.4122    4.5694 F   0  0  0  0  0  0  0  0  0  0  0  0
  1  2  1  0  0  0  0
  2  3  1  0  0  0  0
  3 18  1  0  0  0  0
  4 11  1  0  0  0  0
  4  1  2  0  0  0  0
  5  4  1  0  0  0  0
  6  5  2  0  0  0  0
  6  9  1  0  0  0  0
  7  6  1  0  0  0  0
  8 13  1  0  0  0  0
  8 15  1  0  0  0  0
  8  7  1  0  0  0  0
  9 10  2  0  0  0  0
 10  1  1  0  0  0  0
 10 17  1  0  0  0  0
 12  5  1  0  0  0  0
 14  8  1  0  0  0  0
 16  9  1  0  0  0  0
 18 20  1  0  0  0  0
 18 21  1  0  0  0  0
 19  3  1  0  0  0  0
 22 18  1  0  0  0  0
M  RAD  1   2   2
M  END
