Coordinates from ORCA-job 4-MeOPhN2+~BF4-_B3LYPG-6-31G_dp-NX-Scan-d89-09-n800
 OpenBabel11261920503D

 22 21  0  0  0  0  0  0  0  0999 V2000
   -1.2745   -0.6502    0.6043 C   0  0  0  0  0  0  0  0  0  0  0  0
   -1.3946   -1.3663    1.7645 N   0  0  0  0  0  0  0  0  0  0  0  0
   -1.4977   -2.0259    2.6563 N   0  0  0  0  0  0  0  0  0  0  0  0
   -1.7128   -1.2770   -0.5863 C   0  0  0  0  0  0  0  0  0  0  0  0
   -1.6107   -0.5773   -1.7648 C   0  0  0  0  0  0  0  0  0  0  0  0
   -1.0831    0.7378   -1.7676 C   0  0  0  0  0  0  0  0  0  0  0  0
   -1.0436    1.3296   -2.9673 O   0  0  0  0  0  0  0  0  0  0  0  0
   -0.5612    2.6753   -3.0739 C   0  0  0  0  0  0  0  0  0  0  0  0
   -0.6466    1.3341   -0.5691 C   0  0  0  0  0  0  0  0  0  0  0  0
   -0.7389    0.6502    0.6302 C   0  0  0  0  0  0  0  0  0  0  0  0
   -2.1252   -2.2791   -0.5613 H   0  0  0  0  0  0  0  0  0  0  0  0
   -1.9377   -1.0064   -2.7044 H   0  0  0  0  0  0  0  0  0  0  0  0
   -1.1754    3.3589   -2.4800 H   0  0  0  0  0  0  0  0  0  0  0  0
   -0.6438    2.9301   -4.1298 H   0  0  0  0  0  0  0  0  0  0  0  0
    0.4851    2.7424   -2.7592 H   0  0  0  0  0  0  0  0  0  0  0  0
   -0.2522    2.3413   -0.5556 H   0  0  0  0  0  0  0  0  0  0  0  0
   -0.4374    1.0965    1.5708 H   0  0  0  0  0  0  0  0  0  0  0  0
   -1.6897    1.2239    3.6021 B   0  0  0  0  0  0  0  0  0  0  0  0
   -0.5193    0.3898    3.5409 F   0  0  0  0  0  0  0  0  0  0  0  0
   -1.3899    2.3959    2.8807 F   0  0  0  0  0  0  0  0  0  0  0  0
   -2.7127    0.5147    2.9127 F   0  0  0  0  0  0  0  0  0  0  0  0
   -2.0419    1.4812    4.9031 F   0  0  0  0  0  0  0  0  0  0  0  0
  1 10  1  0  0  0  0
  1  2  1  0  0  0  0
  2  3  1  0  0  0  0
  4 11  1  0  0  0  0
  4  1  2  0  0  0  0
  5  4  1  0  0  0  0
  6  5  2  0  0  0  0
  6  9  1  0  0  0  0
  7  6  1  0  0  0  0
  8  7  1  0  0  0  0
  8 15  1  0  0  0  0
  8 13  1  0  0  0  0
  9 16  1  0  0  0  0
  9 10  2  0  0  0  0
 10 17  1  0  0  0  0
 12  5  1  0  0  0  0
 14  8  1  0  0  0  0
 18 22  1  0  0  0  0
 19 18  1  0  0  0  0
 20 18  1  0  0  0  0
 21 18  1  0  0  0  0
M  RAD  2   2   2   3   3
M  END
