Coordinates from ORCA-job 4-MeOPhN2+~BF4-_B3LYPG-6-31G_dp-NX-Scan-d89-09-n800
 OpenBabel11261920503D

 22 21  0  0  0  0  0  0  0  0999 V2000
   -1.2952   -1.5243    0.4265 C   0  0  0  0  0  0  0  0  0  0  0  0
   -1.4888   -2.5023    1.3321 N   0  0  0  0  0  0  0  0  0  0  0  0
   -1.6437   -3.3060    2.1032 N   0  0  0  0  0  0  0  0  0  0  0  0
   -1.6799   -1.7469   -0.9282 C   0  0  0  0  0  0  0  0  0  0  0  0
   -1.5488   -0.7085   -1.8100 C   0  0  0  0  0  0  0  0  0  0  0  0
   -1.0528    0.5532   -1.3630 C   0  0  0  0  0  0  0  0  0  0  0  0
   -1.0684    1.5257   -2.2589 O   0  0  0  0  0  0  0  0  0  0  0  0
   -0.7454    2.8774   -1.8320 C   0  0  0  0  0  0  0  0  0  0  0  0
   -0.6032    0.7231   -0.0381 C   0  0  0  0  0  0  0  0  0  0  0  0
   -0.7538   -0.2925    0.8742 C   0  0  0  0  0  0  0  0  0  0  0  0
   -2.0800   -2.7067   -1.2347 H   0  0  0  0  0  0  0  0  0  0  0  0
   -1.8523   -0.8081   -2.8456 H   0  0  0  0  0  0  0  0  0  0  0  0
   -1.2951    3.1285   -0.9208 H   0  0  0  0  0  0  0  0  0  0  0  0
   -1.0431    3.5106   -2.6664 H   0  0  0  0  0  0  0  0  0  0  0  0
    0.3319    2.9623   -1.6637 H   0  0  0  0  0  0  0  0  0  0  0  0
   -0.2286    1.6638    0.3448 H   0  0  0  0  0  0  0  0  0  0  0  0
   -0.5311   -0.1050    1.9175 H   0  0  0  0  0  0  0  0  0  0  0  0
   -1.4991    2.5768    2.3658 B   0  0  0  0  0  0  0  0  0  0  0  0
   -0.0935    2.4345    2.1498 F   0  0  0  0  0  0  0  0  0  0  0  0
   -2.0885    2.9009    1.1110 F   0  0  0  0  0  0  0  0  0  0  0  0
   -1.9885    1.3126    2.7816 F   0  0  0  0  0  0  0  0  0  0  0  0
   -1.7559    3.5505    3.3014 F   0  0  0  0  0  0  0  0  0  0  0  0
  1 10  1  0  0  0  0
  1  2  1  0  0  0  0
  2  3  1  0  0  0  0
  4  1  2  0  0  0  0
  5  6  2  0  0  0  0
  5  4  1  0  0  0  0
  6  9  1  0  0  0  0
  7  8  1  0  0  0  0
  7  6  1  0  0  0  0
  8 15  1  0  0  0  0
  8 13  1  0  0  0  0
  9 16  1  0  0  0  0
  9 10  2  0  0  0  0
 10 17  1  0  0  0  0
 11  4  1  0  0  0  0
 12  5  1  0  0  0  0
 14  8  1  0  0  0  0
 18 21  1  0  0  0  0
 18 22  1  0  0  0  0
 19 18  1  0  0  0  0
 20 18  1  0  0  0  0
M  RAD  2   2   2   3   3
M  END
