Coordinates from ORCA-job 4-MeOPhN2+~BF4-_B3LYPG-6-31G_dp-NX-Scan-d89-09-n800
 OpenBabel11261920503D

 22 21  0  0  0  0  0  0  0  0999 V2000
   -1.2621   -1.4912    0.4551 C   0  0  0  0  0  0  0  0  0  0  0  0
   -1.4203   -2.4680    1.3697 N   0  0  0  0  0  0  0  0  0  0  0  0
   -1.5502   -3.2803    2.1363 N   0  0  0  0  0  0  0  0  0  0  0  0
   -1.6782   -1.7348   -0.8873 C   0  0  0  0  0  0  0  0  0  0  0  0
   -1.5757   -0.7088   -1.7861 C   0  0  0  0  0  0  0  0  0  0  0  0
   -1.0783    0.5632   -1.3696 C   0  0  0  0  0  0  0  0  0  0  0  0
   -1.1114    1.5158   -2.2874 O   0  0  0  0  0  0  0  0  0  0  0  0
   -0.7595    2.8726   -1.9075 C   0  0  0  0  0  0  0  0  0  0  0  0
   -0.6099    0.7576   -0.0555 C   0  0  0  0  0  0  0  0  0  0  0  0
   -0.7289   -0.2473    0.8750 C   0  0  0  0  0  0  0  0  0  0  0  0
   -2.0771   -2.7021   -1.1709 H   0  0  0  0  0  0  0  0  0  0  0  0
   -1.9000   -0.8261   -2.8136 H   0  0  0  0  0  0  0  0  0  0  0  0
   -1.2708    3.1581   -0.9849 H   0  0  0  0  0  0  0  0  0  0  0  0
   -1.0776    3.4882   -2.7476 H   0  0  0  0  0  0  0  0  0  0  0  0
    0.3243    2.9476   -1.7787 H   0  0  0  0  0  0  0  0  0  0  0  0
   -0.2567    1.7137    0.3038 H   0  0  0  0  0  0  0  0  0  0  0  0
   -0.4568   -0.0376    1.9021 H   0  0  0  0  0  0  0  0  0  0  0  0
   -1.5194    2.5179    2.4050 B   0  0  0  0  0  0  0  0  0  0  0  0
   -0.1552    2.0884    2.4499 F   0  0  0  0  0  0  0  0  0  0  0  0
   -1.7131    3.1649    1.1484 F   0  0  0  0  0  0  0  0  0  0  0  0
   -2.3257    1.3573    2.4449 F   0  0  0  0  0  0  0  0  0  0  0  0
   -1.8011    3.3707    3.4455 F   0  0  0  0  0  0  0  0  0  0  0  0
  1 10  1  0  0  0  0
  1  2  1  0  0  0  0
  2  3  1  0  0  0  0
  4  1  2  0  0  0  0
  5  6  2  0  0  0  0
  5  4  1  0  0  0  0
  6  9  1  0  0  0  0
  7  8  1  0  0  0  0
  7  6  1  0  0  0  0
  8 15  1  0  0  0  0
  8 13  1  0  0  0  0
  9 16  1  0  0  0  0
  9 10  2  0  0  0  0
 10 17  1  0  0  0  0
 11  4  1  0  0  0  0
 12  5  1  0  0  0  0
 14  8  1  0  0  0  0
 18 21  1  0  0  0  0
 18 19  1  0  0  0  0
 18 22  1  0  0  0  0
 20 18  1  0  0  0  0
M  RAD  2   2   2   3   3
M  END
