Coordinates from ORCA-job 4-MeOPhN2+~BF4-_B3LYPG-6-31G_dp-NX-Scan-d89-09-n800
 OpenBabel11261920503D

 22 21  0  0  0  0  0  0  0  0999 V2000
   -1.2197   -1.4562    0.4349 C   0  0  0  0  0  0  0  0  0  0  0  0
   -1.3384   -2.3838    1.4072 N   0  0  0  0  0  0  0  0  0  0  0  0
   -1.4205   -3.1095    2.2606 N   0  0  0  0  0  0  0  0  0  0  0  0
   -1.6236   -1.7550   -0.8979 C   0  0  0  0  0  0  0  0  0  0  0  0
   -1.5639   -0.7436   -1.8193 C   0  0  0  0  0  0  0  0  0  0  0  0
   -1.1236    0.5580   -1.4311 C   0  0  0  0  0  0  0  0  0  0  0  0
   -1.1950    1.4923   -2.3708 O   0  0  0  0  0  0  0  0  0  0  0  0
   -0.8594    2.8569   -2.0217 C   0  0  0  0  0  0  0  0  0  0  0  0
   -0.6740    0.8077   -0.1226 C   0  0  0  0  0  0  0  0  0  0  0  0
   -0.7445   -0.1841    0.8279 C   0  0  0  0  0  0  0  0  0  0  0  0
   -1.9796   -2.7447   -1.1601 H   0  0  0  0  0  0  0  0  0  0  0  0
   -1.8793   -0.8988   -2.8445 H   0  0  0  0  0  0  0  0  0  0  0  0
   -1.3611    3.1627   -1.1006 H   0  0  0  0  0  0  0  0  0  0  0  0
   -1.1960    3.4559   -2.8665 H   0  0  0  0  0  0  0  0  0  0  0  0
    0.2232    2.9532   -1.8995 H   0  0  0  0  0  0  0  0  0  0  0  0
   -0.3796    1.7937    0.2231 H   0  0  0  0  0  0  0  0  0  0  0  0
   -0.4978    0.0626    1.8602 H   0  0  0  0  0  0  0  0  0  0  0  0
   -1.4555    2.4490    2.5559 B   0  0  0  0  0  0  0  0  0  0  0  0
   -0.5245    1.4893    3.0712 F   0  0  0  0  0  0  0  0  0  0  0  0
   -0.7951    3.1716    1.5080 F   0  0  0  0  0  0  0  0  0  0  0  0
   -2.5273    1.7377    1.9850 F   0  0  0  0  0  0  0  0  0  0  0  0
   -1.8684    3.3049    3.5474 F   0  0  0  0  0  0  0  0  0  0  0  0
  1 10  1  0  0  0  0
  1  2  1  0  0  0  0
  2  3  1  0  0  0  0
  4  1  2  0  0  0  0
  5  6  2  0  0  0  0
  5  4  1  0  0  0  0
  6  9  1  0  0  0  0
  7  8  1  0  0  0  0
  7  6  1  0  0  0  0
  8 15  1  0  0  0  0
  8 13  1  0  0  0  0
  9 16  1  0  0  0  0
  9 10  2  0  0  0  0
 10 17  1  0  0  0  0
 11  4  1  0  0  0  0
 12  5  1  0  0  0  0
 14  8  1  0  0  0  0
 18 19  1  0  0  0  0
 18 22  1  0  0  0  0
 20 18  1  0  0  0  0
 21 18  1  0  0  0  0
M  RAD  2   2   2   3   3
M  END
