Coordinates from ORCA-job 4-MeOPhN2+~BF4-_B3LYPG-6-31G_dp-NX-Scan-d89-09-n800
 OpenBabel11261920503D

 22 21  0  0  0  0  0  0  0  0999 V2000
   -1.2108   -0.7404    0.6041 C   0  0  0  0  0  0  0  0  0  0  0  0
   -1.2650   -1.4953    1.7408 N   0  0  0  0  0  0  0  0  0  0  0  0
   -1.3083   -2.1773    2.6222 N   0  0  0  0  0  0  0  0  0  0  0  0
   -1.7935   -1.2737   -0.5711 C   0  0  0  0  0  0  0  0  0  0  0  0
   -1.7345   -0.5195   -1.7171 C   0  0  0  0  0  0  0  0  0  0  0  0
   -1.1095    0.7544   -1.7024 C   0  0  0  0  0  0  0  0  0  0  0  0
   -1.1216    1.4010   -2.8737 O   0  0  0  0  0  0  0  0  0  0  0  0
   -0.5499    2.7129   -2.9595 C   0  0  0  0  0  0  0  0  0  0  0  0
   -0.5352    1.2573   -0.5207 C   0  0  0  0  0  0  0  0  0  0  0  0
   -0.5835    0.5184    0.6476 C   0  0  0  0  0  0  0  0  0  0  0  0
   -2.2771   -2.2436   -0.5573 H   0  0  0  0  0  0  0  0  0  0  0  0
   -2.1685   -0.8712   -2.6456 H   0  0  0  0  0  0  0  0  0  0  0  0
   -1.0631    3.4069   -2.2869 H   0  0  0  0  0  0  0  0  0  0  0  0
   -0.6957    3.0257   -3.9927 H   0  0  0  0  0  0  0  0  0  0  0  0
    0.5200    2.6889   -2.7284 H   0  0  0  0  0  0  0  0  0  0  0  0
   -0.0762    2.2362   -0.4918 H   0  0  0  0  0  0  0  0  0  0  0  0
   -0.1876    0.8756    1.5943 H   0  0  0  0  0  0  0  0  0  0  0  0
   -1.7886    1.3184    3.4233 B   0  0  0  0  0  0  0  0  0  0  0  0
   -0.4343    0.8375    3.4760 F   0  0  0  0  0  0  0  0  0  0  0  0
   -1.8508    2.2854    2.4046 F   0  0  0  0  0  0  0  0  0  0  0  0
   -2.5944    0.2081    3.0370 F   0  0  0  0  0  0  0  0  0  0  0  0
   -2.1756    1.8140    4.6435 F   0  0  0  0  0  0  0  0  0  0  0  0
  1 10  1  0  0  0  0
  1  2  1  0  0  0  0
  2  3  1  0  0  0  0
  4 11  1  0  0  0  0
  4  1  2  0  0  0  0
  5  6  2  0  0  0  0
  5  4  1  0  0  0  0
  6  9  1  0  0  0  0
  7  6  1  0  0  0  0
  8  7  1  0  0  0  0
  8 15  1  0  0  0  0
  8 13  1  0  0  0  0
  9 16  1  0  0  0  0
  9 10  2  0  0  0  0
 10 17  1  0  0  0  0
 12  5  1  0  0  0  0
 14  8  1  0  0  0  0
 18 19  1  0  0  0  0
 18 22  1  0  0  0  0
 20 18  1  0  0  0  0
 21 18  1  0  0  0  0
M  RAD  2   2   2   3   3
M  END
