Coordinates from ORCA-job 4-MeOPhN2+~BF4-_B3LYPG-6-31G_dp-NX-Scan-d89-09-n800
 OpenBabel11261920503D

 22 21  0  0  0  0  0  0  0  0999 V2000
   -1.3987   -1.7716    0.3515 C   0  0  0  0  0  0  0  0  0  0  0  0
   -1.5946   -2.8713    1.1059 N   0  0  0  0  0  0  0  0  0  0  0  0
   -1.7637   -3.8124    1.7022 N   0  0  0  0  0  0  0  0  0  0  0  0
   -1.5750   -1.8994   -1.0598 C   0  0  0  0  0  0  0  0  0  0  0  0
   -1.4166   -0.7857   -1.8371 C   0  0  0  0  0  0  0  0  0  0  0  0
   -1.0864    0.4686   -1.2397 C   0  0  0  0  0  0  0  0  0  0  0  0
   -1.0234    1.4926   -2.0621 O   0  0  0  0  0  0  0  0  0  0  0  0
   -0.8353    2.8395   -1.5231 C   0  0  0  0  0  0  0  0  0  0  0  0
   -0.8634    0.5651    0.1567 C   0  0  0  0  0  0  0  0  0  0  0  0
   -1.0424   -0.5343    0.9591 C   0  0  0  0  0  0  0  0  0  0  0  0
   -1.8406   -2.8585   -1.4904 H   0  0  0  0  0  0  0  0  0  0  0  0
   -1.5591   -0.8249   -2.9111 H   0  0  0  0  0  0  0  0  0  0  0  0
   -1.5853    3.0444   -0.7560 H   0  0  0  0  0  0  0  0  0  0  0  0
   -0.9394    3.4899   -2.3893 H   0  0  0  0  0  0  0  0  0  0  0  0
    0.1559    2.9321   -1.0784 H   0  0  0  0  0  0  0  0  0  0  0  0
   -0.5721    1.4984    0.6219 H   0  0  0  0  0  0  0  0  0  0  0  0
   -0.9312   -0.4146    2.0319 H   0  0  0  0  0  0  0  0  0  0  0  0
   -1.2360    3.1177    2.1392 B   0  0  0  0  0  0  0  0  0  0  0  0
   -0.0981    3.4382    1.3414 F   0  0  0  0  0  0  0  0  0  0  0  0
   -2.3416    2.9967    1.2558 F   0  0  0  0  0  0  0  0  0  0  0  0
   -1.0017    1.8380    2.7247 F   0  0  0  0  0  0  0  0  0  0  0  0
   -1.4552    4.0714    3.1033 F   0  0  0  0  0  0  0  0  0  0  0  0
  1 10  1  0  0  0  0
  1  2  1  0  0  0  0
  2  3  1  0  0  0  0
  4  1  2  0  0  0  0
  5  6  2  0  0  0  0
  5  4  1  0  0  0  0
  6  9  1  0  0  0  0
  7  8  1  0  0  0  0
  7  6  1  0  0  0  0
  8 15  1  0  0  0  0
  8 13  1  0  0  0  0
  9 16  1  0  0  0  0
  9 10  2  0  0  0  0
 10 17  1  0  0  0  0
 11  4  1  0  0  0  0
 12  5  1  0  0  0  0
 14  8  1  0  0  0  0
 18 21  1  0  0  0  0
 18 22  1  0  0  0  0
 19 18  1  0  0  0  0
 20 18  1  0  0  0  0
M  RAD  2   2   2   3   3
M  END
