Coordinates from ORCA-job 4-MeOPhN2+~BF4-_B3LYPG-6-31G_dp-NX-Scan-d89-09-n800
 OpenBabel11261920503D

 22 21  0  0  0  0  0  0  0  0999 V2000
   -1.2218   -0.6987    0.6138 C   0  0  0  0  0  0  0  0  0  0  0  0
   -1.2982   -1.4408    1.7598 N   0  0  0  0  0  0  0  0  0  0  0  0
   -1.3637   -2.1363    2.6285 N   0  0  0  0  0  0  0  0  0  0  0  0
   -1.7664   -1.2663   -0.5632 C   0  0  0  0  0  0  0  0  0  0  0  0
   -1.6964   -0.5361   -1.7247 C   0  0  0  0  0  0  0  0  0  0  0  0
   -1.0979    0.7493   -1.7237 C   0  0  0  0  0  0  0  0  0  0  0  0
   -1.0991    1.3736   -2.9073 O   0  0  0  0  0  0  0  0  0  0  0  0
   -0.5580    2.6973   -3.0063 C   0  0  0  0  0  0  0  0  0  0  0  0
   -0.5575    1.2858   -0.5399 C   0  0  0  0  0  0  0  0  0  0  0  0
   -0.6168    0.5707    0.6428 C   0  0  0  0  0  0  0  0  0  0  0  0
   -2.2317   -2.2449   -0.5396 H   0  0  0  0  0  0  0  0  0  0  0  0
   -2.1029   -0.9167   -2.6542 H   0  0  0  0  0  0  0  0  0  0  0  0
   -1.1007    3.3905   -2.3566 H   0  0  0  0  0  0  0  0  0  0  0  0
   -0.6916    2.9880   -4.0477 H   0  0  0  0  0  0  0  0  0  0  0  0
    0.5076    2.7042   -2.7550 H   0  0  0  0  0  0  0  0  0  0  0  0
   -0.1138    2.2720   -0.5226 H   0  0  0  0  0  0  0  0  0  0  0  0
   -0.2450    0.9582    1.5852 H   0  0  0  0  0  0  0  0  0  0  0  0
   -1.7697    1.2794    3.4804 B   0  0  0  0  0  0  0  0  0  0  0  0
   -0.4744    0.6516    3.4979 F   0  0  0  0  0  0  0  0  0  0  0  0
   -1.6940    2.3589    2.5839 F   0  0  0  0  0  0  0  0  0  0  0  0
   -2.6731    0.3130    2.9506 F   0  0  0  0  0  0  0  0  0  0  0  0
   -2.1387    1.6671    4.7444 F   0  0  0  0  0  0  0  0  0  0  0  0
  1 10  1  0  0  0  0
  1  2  1  0  0  0  0
  2  3  1  0  0  0  0
  4 11  1  0  0  0  0
  4  1  2  0  0  0  0
  5  6  2  0  0  0  0
  5  4  1  0  0  0  0
  6  9  1  0  0  0  0
  7  6  1  0  0  0  0
  8  7  1  0  0  0  0
  8 15  1  0  0  0  0
  8 13  1  0  0  0  0
  9 16  1  0  0  0  0
  9 10  2  0  0  0  0
 10 17  1  0  0  0  0
 12  5  1  0  0  0  0
 14  8  1  0  0  0  0
 18 19  1  0  0  0  0
 18 22  1  0  0  0  0
 20 18  1  0  0  0  0
 21 18  1  0  0  0  0
M  RAD  2   2   2   3   3
M  END
