Coordinates from ORCA-job 4-MeOPhN2+~BF4-_B3LYPG-6-31G_dp-NX-Scan-d89-09-n800
 OpenBabel11261920503D

 22 21  0  0  0  0  0  0  0  0999 V2000
   -1.2274   -0.6742    0.6165 C   0  0  0  0  0  0  0  0  0  0  0  0
   -1.3023   -1.4099    1.7675 N   0  0  0  0  0  0  0  0  0  0  0  0
   -1.3674   -2.0971    2.6423 N   0  0  0  0  0  0  0  0  0  0  0  0
   -1.7597   -1.2559   -0.5590 C   0  0  0  0  0  0  0  0  0  0  0  0
   -1.6872   -0.5360   -1.7271 C   0  0  0  0  0  0  0  0  0  0  0  0
   -1.0969    0.7528   -1.7346 C   0  0  0  0  0  0  0  0  0  0  0  0
   -1.0913    1.3651   -2.9246 O   0  0  0  0  0  0  0  0  0  0  0  0
   -0.5503    2.6880   -3.0336 C   0  0  0  0  0  0  0  0  0  0  0  0
   -0.5700    1.3045   -0.5517 C   0  0  0  0  0  0  0  0  0  0  0  0
   -0.6326    0.6002    0.6374 C   0  0  0  0  0  0  0  0  0  0  0  0
   -2.2174   -2.2379   -0.5299 H   0  0  0  0  0  0  0  0  0  0  0  0
   -2.0842   -0.9287   -2.6556 H   0  0  0  0  0  0  0  0  0  0  0  0
   -1.1005    3.3886   -2.3981 H   0  0  0  0  0  0  0  0  0  0  0  0
   -0.6730    2.9662   -4.0797 H   0  0  0  0  0  0  0  0  0  0  0  0
    0.5125    2.6990   -2.7711 H   0  0  0  0  0  0  0  0  0  0  0  0
   -0.1322    2.2935   -0.5409 H   0  0  0  0  0  0  0  0  0  0  0  0
   -0.2711    1.0000    1.5779 H   0  0  0  0  0  0  0  0  0  0  0  0
   -1.7709    1.2458    3.5122 B   0  0  0  0  0  0  0  0  0  0  0  0
   -0.4969    0.5714    3.4915 F   0  0  0  0  0  0  0  0  0  0  0  0
   -1.6670    2.3487    2.6474 F   0  0  0  0  0  0  0  0  0  0  0  0
   -2.7113    0.3266    2.9673 F   0  0  0  0  0  0  0  0  0  0  0  0
   -2.1065    1.6090    4.7926 F   0  0  0  0  0  0  0  0  0  0  0  0
  1 10  1  0  0  0  0
  1  2  1  0  0  0  0
  2  3  1  0  0  0  0
  4 11  1  0  0  0  0
  4  1  2  0  0  0  0
  5  4  1  0  0  0  0
  6  5  2  0  0  0  0
  6  9  1  0  0  0  0
  7  6  1  0  0  0  0
  8  7  1  0  0  0  0
  8 15  1  0  0  0  0
  8 13  1  0  0  0  0
  9 16  1  0  0  0  0
  9 10  2  0  0  0  0
 10 17  1  0  0  0  0
 12  5  1  0  0  0  0
 14  8  1  0  0  0  0
 18 22  1  0  0  0  0
 19 18  1  0  0  0  0
 20 18  1  0  0  0  0
 21 18  1  0  0  0  0
M  RAD  2   2   2   3   3
M  END
