Coordinates from ORCA-job 4-MeOPhN2+~BF4-_B3LYPG-6-31G_dp-NX-Scan-d89-09-n800
 OpenBabel11261920503D

 22 21  0  0  0  0  0  0  0  0999 V2000
   -1.2715   -0.5382    0.5575 C   0  0  0  0  0  0  0  0  0  0  0  0
   -1.3639   -1.2081    1.7513 N   0  0  0  0  0  0  0  0  0  0  0  0
   -1.4230   -1.7812    2.7095 N   0  0  0  0  0  0  0  0  0  0  0  0
   -1.5882   -1.2524   -0.6199 C   0  0  0  0  0  0  0  0  0  0  0  0
   -1.4976   -0.5955   -1.8252 C   0  0  0  0  0  0  0  0  0  0  0  0
   -1.0888    0.7592   -1.8664 C   0  0  0  0  0  0  0  0  0  0  0  0
   -1.0391    1.3000   -3.0914 O   0  0  0  0  0  0  0  0  0  0  0  0
   -0.6523    2.6710   -3.2404 C   0  0  0  0  0  0  0  0  0  0  0  0
   -0.7650    1.4438   -0.6789 C   0  0  0  0  0  0  0  0  0  0  0  0
   -0.8583    0.8065    0.5472 C   0  0  0  0  0  0  0  0  0  0  0  0
   -1.9038   -2.2882   -0.5668 H   0  0  0  0  0  0  0  0  0  0  0  0
   -1.7377   -1.0928   -2.7575 H   0  0  0  0  0  0  0  0  0  0  0  0
   -1.3442    3.3336   -2.7108 H   0  0  0  0  0  0  0  0  0  0  0  0
   -0.6988    2.8719   -4.3101 H   0  0  0  0  0  0  0  0  0  0  0  0
    0.3689    2.8321   -2.8799 H   0  0  0  0  0  0  0  0  0  0  0  0
   -0.4469    2.4777   -0.7019 H   0  0  0  0  0  0  0  0  0  0  0  0
   -0.6207    1.3013    1.4876 H   0  0  0  0  0  0  0  0  0  0  0  0
   -1.6271    1.0197    3.8970 B   0  0  0  0  0  0  0  0  0  0  0  0
   -1.3884   -0.2747    4.4362 F   0  0  0  0  0  0  0  0  0  0  0  0
   -0.4008    1.4981    3.3546 F   0  0  0  0  0  0  0  0  0  0  0  0
   -2.5314    0.8601    2.8106 F   0  0  0  0  0  0  0  0  0  0  0  0
   -2.1252    1.8758    4.8441 F   0  0  0  0  0  0  0  0  0  0  0  0
  1  2  1  0  0  0  0
  2  3  1  0  0  0  0
  4 11  1  0  0  0  0
  4  1  2  0  0  0  0
  5  4  1  0  0  0  0
  6  5  2  0  0  0  0
  6  9  1  0  0  0  0
  7  6  1  0  0  0  0
  8  7  1  0  0  0  0
  8 15  1  0  0  0  0
  8 13  1  0  0  0  0
  9 10  2  0  0  0  0
 10  1  1  0  0  0  0
 10 17  1  0  0  0  0
 12  5  1  0  0  0  0
 14  8  1  0  0  0  0
 16  9  1  0  0  0  0
 18 19  1  0  0  0  0
 18 22  1  0  0  0  0
 20 18  1  0  0  0  0
 21 18  1  0  0  0  0
M  RAD  2   2   2   3   3
M  END
