Coordinates from ORCA-job 4-MeOPhN2+~BF4-_B3LYPG-6-31G_dp-NX-Scan-d89-09-n800
 OpenBabel11261920503D

 22 21  0  0  0  0  0  0  0  0999 V2000
   -1.2791   -1.5157    0.4423 C   0  0  0  0  0  0  0  0  0  0  0  0
   -1.4527   -2.5025    1.3426 N   0  0  0  0  0  0  0  0  0  0  0  0
   -1.5957   -3.3246    2.0966 N   0  0  0  0  0  0  0  0  0  0  0  0
   -1.6883   -1.7390   -0.9057 C   0  0  0  0  0  0  0  0  0  0  0  0
   -1.5725   -0.7028   -1.7914 C   0  0  0  0  0  0  0  0  0  0  0  0
   -1.0664    0.5593   -1.3565 C   0  0  0  0  0  0  0  0  0  0  0  0
   -1.0897    1.5253   -2.2592 O   0  0  0  0  0  0  0  0  0  0  0  0
   -0.7388    2.8766   -1.8556 C   0  0  0  0  0  0  0  0  0  0  0  0
   -0.5987    0.7324   -0.0384 C   0  0  0  0  0  0  0  0  0  0  0  0
   -0.7339   -0.2816    0.8789 C   0  0  0  0  0  0  0  0  0  0  0  0
   -2.0934   -2.6995   -1.2035 H   0  0  0  0  0  0  0  0  0  0  0  0
   -1.8931   -0.8045   -2.8216 H   0  0  0  0  0  0  0  0  0  0  0  0
   -1.2581    3.1464   -0.9321 H   0  0  0  0  0  0  0  0  0  0  0  0
   -1.0518    3.5046   -2.6883 H   0  0  0  0  0  0  0  0  0  0  0  0
    0.3443    2.9486   -1.7199 H   0  0  0  0  0  0  0  0  0  0  0  0
   -0.2244    1.6756    0.3364 H   0  0  0  0  0  0  0  0  0  0  0  0
   -0.4822   -0.0916    1.9144 H   0  0  0  0  0  0  0  0  0  0  0  0
   -1.5202    2.5624    2.3665 B   0  0  0  0  0  0  0  0  0  0  0  0
   -0.1135    2.3390    2.2429 F   0  0  0  0  0  0  0  0  0  0  0  0
   -1.9882    3.0146    1.0993 F   0  0  0  0  0  0  0  0  0  0  0  0
   -2.1224    1.3116    2.6485 F   0  0  0  0  0  0  0  0  0  0  0  0
   -1.7850    3.4852    3.3504 F   0  0  0  0  0  0  0  0  0  0  0  0
  1 10  1  0  0  0  0
  1  2  1  0  0  0  0
  2  3  1  0  0  0  0
  4  1  2  0  0  0  0
  5  6  2  0  0  0  0
  5  4  1  0  0  0  0
  6  9  1  0  0  0  0
  7  8  1  0  0  0  0
  7  6  1  0  0  0  0
  8 15  1  0  0  0  0
  8 13  1  0  0  0  0
  9 16  1  0  0  0  0
  9 10  2  0  0  0  0
 10 17  1  0  0  0  0
 11  4  1  0  0  0  0
 12  5  1  0  0  0  0
 14  8  1  0  0  0  0
 18 21  1  0  0  0  0
 18 22  1  0  0  0  0
 19 18  1  0  0  0  0
 20 18  1  0  0  0  0
M  RAD  2   2   2   3   3
M  END
