Coordinates from ORCA-job 4-MeOPhN2+~BF4-_B3LYPG-6-31G_dp-NX-Scan-d89-09-n800
 OpenBabel11261920503D

 22 21  0  0  0  0  0  0  0  0999 V2000
   -1.5164   -0.7444    0.3586 C   0  0  0  0  0  0  0  0  0  0  0  0
   -1.8725   -1.6158    1.4362 N   0  0  0  0  0  0  0  0  0  0  0  0
   -1.5743   -1.3408    2.6375 N   0  0  0  0  0  0  0  0  0  0  0  0
   -1.5547   -1.3837   -0.8977 C   0  0  0  0  0  0  0  0  0  0  0  0
   -1.2736   -0.7037   -2.0691 C   0  0  0  0  0  0  0  0  0  0  0  0
   -0.9659    0.6659   -2.0268 C   0  0  0  0  0  0  0  0  0  0  0  0
   -0.7117    1.2540   -3.2276 O   0  0  0  0  0  0  0  0  0  0  0  0
   -0.4269    2.6446   -3.2533 C   0  0  0  0  0  0  0  0  0  0  0  0
   -0.9462    1.3279   -0.7934 C   0  0  0  0  0  0  0  0  0  0  0  0
   -1.2110    0.6301    0.3873 C   0  0  0  0  0  0  0  0  0  0  0  0
   -1.8152   -2.4367   -0.9184 H   0  0  0  0  0  0  0  0  0  0  0  0
   -1.2967   -1.2022   -3.0326 H   0  0  0  0  0  0  0  0  0  0  0  0
   -1.2630    3.2355   -2.8577 H   0  0  0  0  0  0  0  0  0  0  0  0
   -0.2712    2.9004   -4.3021 H   0  0  0  0  0  0  0  0  0  0  0  0
    0.4820    2.8826   -2.6860 H   0  0  0  0  0  0  0  0  0  0  0  0
   -0.7208    2.3858   -0.7336 H   0  0  0  0  0  0  0  0  0  0  0  0
   -1.1945    1.1919    1.3117 H   0  0  0  0  0  0  0  0  0  0  0  0
   -1.7074    1.6947    4.7473 B   0  0  0  0  0  0  0  0  0  0  0  0
   -1.0514   -0.4531    2.8413 F   0  0  0  0  0  0  0  0  0  0  0  0
   -1.1770    2.2568    3.6730 F   0  0  0  0  0  0  0  0  0  0  0  0
   -2.8430    1.0371    4.6451 F   0  0  0  0  0  0  0  0  0  0  0  0
   -1.0924    1.7926    5.9067 F   0  0  0  0  0  0  0  0  0  0  0  0
  1 10  1  0  0  0  0
  1  2  1  0  0  0  0
  2  3  2  0  0  0  0
  3 19  1  0  0  0  0
  4  1  2  0  0  0  0
  5  6  2  0  0  0  0
  5  4  1  0  0  0  0
  6  9  1  0  0  0  0
  7  6  1  0  0  0  0
  8  7  1  0  0  0  0
  8 13  1  0  0  0  0
  8 15  1  0  0  0  0
  9 16  1  0  0  0  0
  9 10  2  0  0  0  0
 10 17  1  0  0  0  0
 11  4  1  0  0  0  0
 12  5  1  0  0  0  0
 14  8  1  0  0  0  0
 18 22  1  0  0  0  0
 20 18  1  0  0  0  0
 21 18  1  0  0  0  0
M  END
