Coordinates from ORCA-job 4-MeOPhN2+~BF4-_B3LYPG-6-31G_dp-NX-Scan-d89-09-n800
 OpenBabel11261920503D

 22 21  0  0  0  0  0  0  0  0999 V2000
   -1.2790   -1.5151    0.4415 C   0  0  0  0  0  0  0  0  0  0  0  0
   -1.4531   -2.4996    1.3445 N   0  0  0  0  0  0  0  0  0  0  0  0
   -1.5954   -3.3180    2.1026 N   0  0  0  0  0  0  0  0  0  0  0  0
   -1.6885   -1.7387   -0.9062 C   0  0  0  0  0  0  0  0  0  0  0  0
   -1.5725   -0.7025   -1.7918 C   0  0  0  0  0  0  0  0  0  0  0  0
   -1.0662    0.5598   -1.3572 C   0  0  0  0  0  0  0  0  0  0  0  0
   -1.0896    1.5256   -2.2601 O   0  0  0  0  0  0  0  0  0  0  0  0
   -0.7387    2.8769   -1.8564 C   0  0  0  0  0  0  0  0  0  0  0  0
   -0.5982    0.7331   -0.0393 C   0  0  0  0  0  0  0  0  0  0  0  0
   -0.7334   -0.2810    0.8778 C   0  0  0  0  0  0  0  0  0  0  0  0
   -2.0940   -2.6990   -1.2038 H   0  0  0  0  0  0  0  0  0  0  0  0
   -1.8932   -0.8042   -2.8220 H   0  0  0  0  0  0  0  0  0  0  0  0
   -1.2581    3.1465   -0.9329 H   0  0  0  0  0  0  0  0  0  0  0  0
   -1.0517    3.5050   -2.6891 H   0  0  0  0  0  0  0  0  0  0  0  0
    0.3444    2.9489   -1.7207 H   0  0  0  0  0  0  0  0  0  0  0  0
   -0.2239    1.6759    0.3362 H   0  0  0  0  0  0  0  0  0  0  0  0
   -0.4819   -0.0920    1.9136 H   0  0  0  0  0  0  0  0  0  0  0  0
   -1.5204    2.5596    2.3669 B   0  0  0  0  0  0  0  0  0  0  0  0
   -0.1138    2.3356    2.2442 F   0  0  0  0  0  0  0  0  0  0  0  0
   -1.9876    3.0132    1.0999 F   0  0  0  0  0  0  0  0  0  0  0  0
   -2.1230    1.3086    2.6471 F   0  0  0  0  0  0  0  0  0  0  0  0
   -1.7859    3.4813    3.3517 F   0  0  0  0  0  0  0  0  0  0  0  0
  1 10  1  0  0  0  0
  1  2  1  0  0  0  0
  2  3  1  0  0  0  0
  4  1  2  0  0  0  0
  5  6  2  0  0  0  0
  5  4  1  0  0  0  0
  6  9  1  0  0  0  0
  7  8  1  0  0  0  0
  7  6  1  0  0  0  0
  8 15  1  0  0  0  0
  8 13  1  0  0  0  0
  9 16  1  0  0  0  0
  9 10  2  0  0  0  0
 10 17  1  0  0  0  0
 11  4  1  0  0  0  0
 12  5  1  0  0  0  0
 14  8  1  0  0  0  0
 18 21  1  0  0  0  0
 18 22  1  0  0  0  0
 19 18  1  0  0  0  0
 20 18  1  0  0  0  0
M  RAD  2   2   2   3   3
M  END
