Coordinates from ORCA-job 4-MeOPhN2+~BF4-_B3LYPG-6-31G_dp-NX-Scan-d89-09-n800
 OpenBabel11261920503D

 22 21  0  0  0  0  0  0  0  0999 V2000
   -1.3958   -1.7590    0.3524 C   0  0  0  0  0  0  0  0  0  0  0  0
   -1.5939   -2.8504    1.1175 N   0  0  0  0  0  0  0  0  0  0  0  0
   -1.7633   -3.7801    1.7310 N   0  0  0  0  0  0  0  0  0  0  0  0
   -1.5726   -1.8938   -1.0578 C   0  0  0  0  0  0  0  0  0  0  0  0
   -1.4135   -0.7832   -1.8399 C   0  0  0  0  0  0  0  0  0  0  0  0
   -1.0831    0.4734   -1.2474 C   0  0  0  0  0  0  0  0  0  0  0  0
   -1.0226    1.4958   -2.0728 O   0  0  0  0  0  0  0  0  0  0  0  0
   -0.8361    2.8427   -1.5345 C   0  0  0  0  0  0  0  0  0  0  0  0
   -0.8581    0.5755    0.1478 C   0  0  0  0  0  0  0  0  0  0  0  0
   -1.0383   -0.5200    0.9550 C   0  0  0  0  0  0  0  0  0  0  0  0
   -1.8392   -2.8544   -1.4841 H   0  0  0  0  0  0  0  0  0  0  0  0
   -1.5568   -0.8267   -2.9136 H   0  0  0  0  0  0  0  0  0  0  0  0
   -1.5824    3.0449   -0.7630 H   0  0  0  0  0  0  0  0  0  0  0  0
   -0.9472    3.4937   -2.3994 H   0  0  0  0  0  0  0  0  0  0  0  0
    0.1577    2.9378   -1.0959 H   0  0  0  0  0  0  0  0  0  0  0  0
   -0.5671    1.5110    0.6098 H   0  0  0  0  0  0  0  0  0  0  0  0
   -0.9295   -0.3954    2.0276 H   0  0  0  0  0  0  0  0  0  0  0  0
   -1.2427    3.0866    2.1495 B   0  0  0  0  0  0  0  0  0  0  0  0
   -0.0947    3.3762    1.3515 F   0  0  0  0  0  0  0  0  0  0  0  0
   -2.3467    2.9859    1.2629 F   0  0  0  0  0  0  0  0  0  0  0  0
   -1.0357    1.8072    2.7436 F   0  0  0  0  0  0  0  0  0  0  0  0
   -1.4421    4.0519    3.1062 F   0  0  0  0  0  0  0  0  0  0  0  0
  1 10  1  0  0  0  0
  1  2  1  0  0  0  0
  2  3  1  0  0  0  0
  4  1  2  0  0  0  0
  5  6  2  0  0  0  0
  5  4  1  0  0  0  0
  6  9  1  0  0  0  0
  7  8  1  0  0  0  0
  7  6  1  0  0  0  0
  8 15  1  0  0  0  0
  8 13  1  0  0  0  0
  9 16  1  0  0  0  0
  9 10  2  0  0  0  0
 10 17  1  0  0  0  0
 11  4  1  0  0  0  0
 12  5  1  0  0  0  0
 14  8  1  0  0  0  0
 18 21  1  0  0  0  0
 18 22  1  0  0  0  0
 19 18  1  0  0  0  0
 20 18  1  0  0  0  0
M  RAD  2   2   2   3   3
M  END
