Coordinates from ORCA-job 4-MeOPhN2+~BF4-_B3LYPG-6-31G_dp-NX-Scan-d89-09-n800
 OpenBabel11261920503D

 22 21  0  0  0  0  0  0  0  0999 V2000
   -1.3241   -1.5748    0.3988 C   0  0  0  0  0  0  0  0  0  0  0  0
   -1.5318   -2.5659    1.2860 N   0  0  0  0  0  0  0  0  0  0  0  0
   -1.6946   -3.3734    2.0516 N   0  0  0  0  0  0  0  0  0  0  0  0
   -1.6659   -1.7781   -0.9700 C   0  0  0  0  0  0  0  0  0  0  0  0
   -1.5190   -0.7227   -1.8292 C   0  0  0  0  0  0  0  0  0  0  0  0
   -1.0474    0.5351   -1.3461 C   0  0  0  0  0  0  0  0  0  0  0  0
   -1.0475    1.5244   -2.2222 O   0  0  0  0  0  0  0  0  0  0  0  0
   -0.7554    2.8719   -1.7562 C   0  0  0  0  0  0  0  0  0  0  0  0
   -0.6370    0.6867   -0.0050 C   0  0  0  0  0  0  0  0  0  0  0  0
   -0.8071   -0.3459    0.8835 C   0  0  0  0  0  0  0  0  0  0  0  0
   -2.0475   -2.7360   -1.3049 H   0  0  0  0  0  0  0  0  0  0  0  0
   -1.7916   -0.8065   -2.8749 H   0  0  0  0  0  0  0  0  0  0  0  0
   -1.3400    3.0958   -0.8596 H   0  0  0  0  0  0  0  0  0  0  0  0
   -1.0313    3.5180   -2.5881 H   0  0  0  0  0  0  0  0  0  0  0  0
    0.3135    2.9653   -1.5464 H   0  0  0  0  0  0  0  0  0  0  0  0
   -0.2656    1.6239    0.3966 H   0  0  0  0  0  0  0  0  0  0  0  0
   -0.6249   -0.1706    1.9383 H   0  0  0  0  0  0  0  0  0  0  0  0
   -1.4513    2.6772    2.3229 B   0  0  0  0  0  0  0  0  0  0  0  0
   -0.0763    2.7003    1.9359 F   0  0  0  0  0  0  0  0  0  0  0  0
   -2.2204    2.8098    1.1340 F   0  0  0  0  0  0  0  0  0  0  0  0
   -1.7090    1.3999    2.8878 F   0  0  0  0  0  0  0  0  0  0  0  0
   -1.7295    3.6852    3.2138 F   0  0  0  0  0  0  0  0  0  0  0  0
  1 10  1  0  0  0  0
  1  2  1  0  0  0  0
  2  3  1  0  0  0  0
  4  1  2  0  0  0  0
  5  6  2  0  0  0  0
  5  4  1  0  0  0  0
  6  9  1  0  0  0  0
  7  8  1  0  0  0  0
  7  6  1  0  0  0  0
  8 15  1  0  0  0  0
  8 13  1  0  0  0  0
  9 16  1  0  0  0  0
  9 10  2  0  0  0  0
 10 17  1  0  0  0  0
 11  4  1  0  0  0  0
 12  5  1  0  0  0  0
 14  8  1  0  0  0  0
 18 21  1  0  0  0  0
 18 22  1  0  0  0  0
 19 18  1  0  0  0  0
 20 18  1  0  0  0  0
M  RAD  2   2   2   3   3
M  END
