Coordinates from ORCA-job 4-MeOPhN2+~BF4-_B3LYPG-6-31G_dp-NX-Scan-d89-09-n800
 OpenBabel11261920503D

 22 21  0  0  0  0  0  0  0  0999 V2000
   -1.2392   -1.5128    0.4336 C   0  0  0  0  0  0  0  0  0  0  0  0
   -1.3561   -2.4832    1.3617 N   0  0  0  0  0  0  0  0  0  0  0  0
   -1.4431   -3.2674    2.1621 N   0  0  0  0  0  0  0  0  0  0  0  0
   -1.6206   -1.7783   -0.9139 C   0  0  0  0  0  0  0  0  0  0  0  0
   -1.5534   -0.7458   -1.8098 C   0  0  0  0  0  0  0  0  0  0  0  0
   -1.1242    0.5481   -1.3845 C   0  0  0  0  0  0  0  0  0  0  0  0
   -1.1790    1.4993   -2.3044 O   0  0  0  0  0  0  0  0  0  0  0  0
   -0.8414    2.8605   -1.9308 C   0  0  0  0  0  0  0  0  0  0  0  0
   -0.6982    0.7683   -0.0603 C   0  0  0  0  0  0  0  0  0  0  0  0
   -0.7798   -0.2449    0.8650 C   0  0  0  0  0  0  0  0  0  0  0  0
   -1.9647   -2.7641   -1.2054 H   0  0  0  0  0  0  0  0  0  0  0  0
   -1.8511   -0.8782   -2.8435 H   0  0  0  0  0  0  0  0  0  0  0  0
   -1.3352    3.1491   -1.0003 H   0  0  0  0  0  0  0  0  0  0  0  0
   -1.1793    3.4718   -2.7661 H   0  0  0  0  0  0  0  0  0  0  0  0
    0.2426    2.9490   -1.8143 H   0  0  0  0  0  0  0  0  0  0  0  0
   -0.4092    1.7499    0.2991 H   0  0  0  0  0  0  0  0  0  0  0  0
   -0.5363   -0.0175    1.8995 H   0  0  0  0  0  0  0  0  0  0  0  0
   -1.4483    2.5583    2.4591 B   0  0  0  0  0  0  0  0  0  0  0  0
   -0.3407    1.7263    2.8139 F   0  0  0  0  0  0  0  0  0  0  0  0
   -1.0547    3.3072    1.2974 F   0  0  0  0  0  0  0  0  0  0  0  0
   -2.5167    1.7182    2.0988 F   0  0  0  0  0  0  0  0  0  0  0  0
   -1.7750    3.4059    3.4896 F   0  0  0  0  0  0  0  0  0  0  0  0
  1 10  1  0  0  0  0
  1  2  1  0  0  0  0
  2  3  1  0  0  0  0
  4  1  2  0  0  0  0
  5  6  2  0  0  0  0
  5  4  1  0  0  0  0
  6  9  1  0  0  0  0
  7  8  1  0  0  0  0
  7  6  1  0  0  0  0
  8 15  1  0  0  0  0
  8 13  1  0  0  0  0
  9 16  1  0  0  0  0
  9 10  2  0  0  0  0
 10 17  1  0  0  0  0
 11  4  1  0  0  0  0
 12  5  1  0  0  0  0
 14  8  1  0  0  0  0
 18 19  1  0  0  0  0
 18 22  1  0  0  0  0
 20 18  1  0  0  0  0
 21 18  1  0  0  0  0
M  RAD  2   2   2   3   3
M  END
