Coordinates from ORCA-job 4-MeOPhN2+~BF4-_B3LYPG-6-31G_dp-NX-Scan-d89-09-n800
 OpenBabel11261920503D

 22 21  0  0  0  0  0  0  0  0999 V2000
   -1.3245   -0.6429    0.5526 C   0  0  0  0  0  0  0  0  0  0  0  0
   -1.4515   -1.3570    1.7265 N   0  0  0  0  0  0  0  0  0  0  0  0
   -1.3858   -1.5102    2.8551 N   0  0  0  0  0  0  0  0  0  0  0  0
   -1.6738   -1.2929   -0.6481 C   0  0  0  0  0  0  0  0  0  0  0  0
   -1.5553   -0.6094   -1.8387 C   0  0  0  0  0  0  0  0  0  0  0  0
   -1.0894    0.7242   -1.8418 C   0  0  0  0  0  0  0  0  0  0  0  0
   -1.0129    1.3024   -3.0520 O   0  0  0  0  0  0  0  0  0  0  0  0
   -0.5649    2.6569   -3.1538 C   0  0  0  0  0  0  0  0  0  0  0  0
   -0.7424    1.3587   -0.6334 C   0  0  0  0  0  0  0  0  0  0  0  0
   -0.8582    0.6843    0.5720 C   0  0  0  0  0  0  0  0  0  0  0  0
   -2.0331   -2.3154   -0.6224 H   0  0  0  0  0  0  0  0  0  0  0  0
   -1.8164   -1.0693   -2.7845 H   0  0  0  0  0  0  0  0  0  0  0  0
   -1.2284    3.3343   -2.6063 H   0  0  0  0  0  0  0  0  0  0  0  0
   -0.5956    2.8958   -4.2165 H   0  0  0  0  0  0  0  0  0  0  0  0
    0.4606    2.7624   -2.7842 H   0  0  0  0  0  0  0  0  0  0  0  0
   -0.3903    2.3818   -0.6220 H   0  0  0  0  0  0  0  0  0  0  0  0
   -0.6088    1.1778    1.5042 H   0  0  0  0  0  0  0  0  0  0  0  0
   -1.6861    1.1749    3.7781 B   0  0  0  0  0  0  0  0  0  0  0  0
   -0.7391   -0.0260    3.6444 F   0  0  0  0  0  0  0  0  0  0  0  0
   -0.9671    2.2234    3.2169 F   0  0  0  0  0  0  0  0  0  0  0  0
   -2.7824    0.8347    3.0002 F   0  0  0  0  0  0  0  0  0  0  0  0
   -1.9583    1.3310    5.1000 F   0  0  0  0  0  0  0  0  0  0  0  0
  1 10  1  0  0  0  0
  1  2  1  0  0  0  0
  2  3  2  0  0  0  0
  4 11  1  0  0  0  0
  4  1  2  0  0  0  0
  5  4  1  0  0  0  0
  6  5  2  0  0  0  0
  6  9  1  0  0  0  0
  7  6  1  0  0  0  0
  8  7  1  0  0  0  0
  8 15  1  0  0  0  0
  8 13  1  0  0  0  0
  9 16  1  0  0  0  0
  9 10  2  0  0  0  0
 10 17  1  0  0  0  0
 12  5  1  0  0  0  0
 14  8  1  0  0  0  0
 18 22  1  0  0  0  0
 19 18  1  0  0  0  0
 20 18  1  0  0  0  0
 21 18  1  0  0  0  0
M  RAD  1   3   2
M  END
