Coordinates from ORCA-job 4-MeOPhN2+~BF4-_B3LYPG-6-31G_dp-NX-Scan-d89-09-n800
 OpenBabel11261920503D

 22 21  0  0  0  0  0  0  0  0999 V2000
   -1.3918   -0.6070    0.5635 C   0  0  0  0  0  0  0  0  0  0  0  0
   -1.5492   -1.3018    1.7323 N   0  0  0  0  0  0  0  0  0  0  0  0
   -1.6596   -1.8749    2.6807 N   0  0  0  0  0  0  0  0  0  0  0  0
   -1.6639   -1.2947   -0.6426 C   0  0  0  0  0  0  0  0  0  0  0  0
   -1.5006   -0.6205   -1.8293 C   0  0  0  0  0  0  0  0  0  0  0  0
   -1.0709    0.7293   -1.8250 C   0  0  0  0  0  0  0  0  0  0  0  0
   -0.9469    1.2891   -3.0345 O   0  0  0  0  0  0  0  0  0  0  0  0
   -0.5287    2.6561   -3.1391 C   0  0  0  0  0  0  0  0  0  0  0  0
   -0.8066    1.3893   -0.6095 C   0  0  0  0  0  0  0  0  0  0  0  0
   -0.9630    0.7334    0.6003 C   0  0  0  0  0  0  0  0  0  0  0  0
   -1.9963   -2.3264   -0.6239 H   0  0  0  0  0  0  0  0  0  0  0  0
   -1.6980   -1.0990   -2.7813 H   0  0  0  0  0  0  0  0  0  0  0  0
   -1.2378    3.3219   -2.6372 H   0  0  0  0  0  0  0  0  0  0  0  0
   -0.5124    2.8739   -4.2062 H   0  0  0  0  0  0  0  0  0  0  0  0
    0.4733    2.7923   -2.7200 H   0  0  0  0  0  0  0  0  0  0  0  0
   -0.4845    2.4220   -0.5933 H   0  0  0  0  0  0  0  0  0  0  0  0
   -0.7757    1.2455    1.5421 H   0  0  0  0  0  0  0  0  0  0  0  0
   -1.5512    1.1548    3.7737 B   0  0  0  0  0  0  0  0  0  0  0  0
   -0.5104    0.1832    3.6323 F   0  0  0  0  0  0  0  0  0  0  0  0
   -1.1272    2.3118    3.0731 F   0  0  0  0  0  0  0  0  0  0  0  0
   -2.6837    0.6250    3.0980 F   0  0  0  0  0  0  0  0  0  0  0  0
   -1.8185    1.4166    5.0924 F   0  0  0  0  0  0  0  0  0  0  0  0
  1 10  1  0  0  0  0
  1  2  1  0  0  0  0
  2  3  1  0  0  0  0
  4 11  1  0  0  0  0
  4  1  2  0  0  0  0
  5  6  2  0  0  0  0
  5  4  1  0  0  0  0
  6  9  1  0  0  0  0
  7  6  1  0  0  0  0
  8  7  1  0  0  0  0
  8 15  1  0  0  0  0
  8 13  1  0  0  0  0
  9 16  1  0  0  0  0
  9 10  2  0  0  0  0
 10 17  1  0  0  0  0
 12  5  1  0  0  0  0
 14  8  1  0  0  0  0
 18 22  1  0  0  0  0
 19 18  1  0  0  0  0
 20 18  1  0  0  0  0
 21 18  1  0  0  0  0
M  RAD  2   2   2   3   3
M  END
