Coordinates from ORCA-job 4-MeOPhN2+~BF4-_B3LYPG-6-31G_dp-NX-Scan-d89-09-n800
 OpenBabel11261920503D

 22 21  0  0  0  0  0  0  0  0999 V2000
   -1.3361   -1.6074    0.3882 C   0  0  0  0  0  0  0  0  0  0  0  0
   -1.5424   -2.6135    1.2578 N   0  0  0  0  0  0  0  0  0  0  0  0
   -1.7035   -3.4347    2.0092 N   0  0  0  0  0  0  0  0  0  0  0  0
   -1.6613   -1.7948   -0.9871 C   0  0  0  0  0  0  0  0  0  0  0  0
   -1.5110   -0.7279   -1.8313 C   0  0  0  0  0  0  0  0  0  0  0  0
   -1.0509    0.5262   -1.3275 C   0  0  0  0  0  0  0  0  0  0  0  0
   -1.0418    1.5247   -2.1918 O   0  0  0  0  0  0  0  0  0  0  0  0
   -0.7591    2.8688   -1.7068 C   0  0  0  0  0  0  0  0  0  0  0  0
   -0.6593    0.6641    0.0216 C   0  0  0  0  0  0  0  0  0  0  0  0
   -0.8334   -0.3807    0.8942 C   0  0  0  0  0  0  0  0  0  0  0  0
   -2.0331   -2.7506   -1.3384 H   0  0  0  0  0  0  0  0  0  0  0  0
   -1.7707   -0.8003   -2.8811 H   0  0  0  0  0  0  0  0  0  0  0  0
   -1.3634    3.0835   -0.8213 H   0  0  0  0  0  0  0  0  0  0  0  0
   -1.0157    3.5216   -2.5397 H   0  0  0  0  0  0  0  0  0  0  0  0
    0.3043    2.9593   -1.4704 H   0  0  0  0  0  0  0  0  0  0  0  0
   -0.2902    1.5996    0.4325 H   0  0  0  0  0  0  0  0  0  0  0  0
   -0.6575   -0.2162    1.9519 H   0  0  0  0  0  0  0  0  0  0  0  0
   -1.4297    2.7420    2.2826 B   0  0  0  0  0  0  0  0  0  0  0  0
   -0.0842    2.8334    1.8093 F   0  0  0  0  0  0  0  0  0  0  0  0
   -2.2723    2.8020    1.1390 F   0  0  0  0  0  0  0  0  0  0  0  0
   -1.5828    1.4663    2.8881 F   0  0  0  0  0  0  0  0  0  0  0  0
   -1.7098    3.7541    3.1676 F   0  0  0  0  0  0  0  0  0  0  0  0
  1 10  1  0  0  0  0
  1  2  1  0  0  0  0
  2  3  1  0  0  0  0
  4  1  2  0  0  0  0
  5  6  2  0  0  0  0
  5  4  1  0  0  0  0
  6  9  1  0  0  0  0
  7  8  1  0  0  0  0
  7  6  1  0  0  0  0
  8 15  1  0  0  0  0
  8 13  1  0  0  0  0
  9 16  1  0  0  0  0
  9 10  2  0  0  0  0
 10 17  1  0  0  0  0
 11  4  1  0  0  0  0
 12  5  1  0  0  0  0
 14  8  1  0  0  0  0
 18 21  1  0  0  0  0
 18 22  1  0  0  0  0
 19 18  1  0  0  0  0
 20 18  1  0  0  0  0
M  RAD  2   2   2   3   3
M  END
