Coordinates from ORCA-job 4-MeOPhN2+~BF4-_B3LYPG-6-31G_dp-NX-Scan-d89-09-n800
 OpenBabel11261920503D

 22 21  0  0  0  0  0  0  0  0999 V2000
   -1.3105   -1.5663    0.4096 C   0  0  0  0  0  0  0  0  0  0  0  0
   -1.5013   -2.5616    1.2963 N   0  0  0  0  0  0  0  0  0  0  0  0
   -1.6522   -3.3797    2.0533 N   0  0  0  0  0  0  0  0  0  0  0  0
   -1.6688   -1.7731   -0.9548 C   0  0  0  0  0  0  0  0  0  0  0  0
   -1.5348   -0.7199   -1.8183 C   0  0  0  0  0  0  0  0  0  0  0  0
   -1.0585    0.5402   -1.3454 C   0  0  0  0  0  0  0  0  0  0  0  0
   -1.0652    1.5229   -2.2288 O   0  0  0  0  0  0  0  0  0  0  0  0
   -0.7512    2.8720   -1.7837 C   0  0  0  0  0  0  0  0  0  0  0  0
   -0.6358    0.6973   -0.0090 C   0  0  0  0  0  0  0  0  0  0  0  0
   -0.7931   -0.3335    0.8848 C   0  0  0  0  0  0  0  0  0  0  0  0
   -2.0514   -2.7329   -1.2826 H   0  0  0  0  0  0  0  0  0  0  0  0
   -1.8189   -0.8076   -2.8605 H   0  0  0  0  0  0  0  0  0  0  0  0
   -1.3106    3.1125   -0.8754 H   0  0  0  0  0  0  0  0  0  0  0  0
   -1.0418    3.5119   -2.6155 H   0  0  0  0  0  0  0  0  0  0  0  0
    0.3239    2.9572   -1.6030 H   0  0  0  0  0  0  0  0  0  0  0  0
   -0.2656    1.6354    0.3895 H   0  0  0  0  0  0  0  0  0  0  0  0
   -0.5959   -0.1575    1.9360 H   0  0  0  0  0  0  0  0  0  0  0  0
   -1.4674    2.6621    2.3355 B   0  0  0  0  0  0  0  0  0  0  0  0
   -0.0732    2.6020    2.0320 F   0  0  0  0  0  0  0  0  0  0  0  0
   -2.1509    2.9149    1.1128 F   0  0  0  0  0  0  0  0  0  0  0  0
   -1.8539    1.3818    2.8099 F   0  0  0  0  0  0  0  0  0  0  0  0
   -1.7267    3.6416    3.2639 F   0  0  0  0  0  0  0  0  0  0  0  0
  1 10  1  0  0  0  0
  1  2  1  0  0  0  0
  2  3  1  0  0  0  0
  4  1  2  0  0  0  0
  5  6  2  0  0  0  0
  5  4  1  0  0  0  0
  6  9  1  0  0  0  0
  7  8  1  0  0  0  0
  7  6  1  0  0  0  0
  8 15  1  0  0  0  0
  8 13  1  0  0  0  0
  9 16  1  0  0  0  0
  9 10  2  0  0  0  0
 10 17  1  0  0  0  0
 11  4  1  0  0  0  0
 12  5  1  0  0  0  0
 14  8  1  0  0  0  0
 18 21  1  0  0  0  0
 18 22  1  0  0  0  0
 19 18  1  0  0  0  0
 20 18  1  0  0  0  0
M  RAD  2   2   2   3   3
M  END
