Coordinates from ORCA-job 4-MeOPhN2+~BF4-_B3LYPG-6-31G_dp-NX-Scan-d89-09-n800
 OpenBabel11261920503D

 22 21  0  0  0  0  0  0  0  0999 V2000
   -1.5252   -0.7733    0.3609 C   0  0  0  0  0  0  0  0  0  0  0  0
   -1.8795   -1.6450    1.4439 N   0  0  0  0  0  0  0  0  0  0  0  0
   -1.3613   -1.4618    2.6012 N   0  0  0  0  0  0  0  0  0  0  0  0
   -1.6751   -1.3621   -0.9108 C   0  0  0  0  0  0  0  0  0  0  0  0
   -1.4175   -0.6569   -2.0736 C   0  0  0  0  0  0  0  0  0  0  0  0
   -1.0202    0.6883   -2.0053 C   0  0  0  0  0  0  0  0  0  0  0  0
   -0.7952    1.3026   -3.2016 O   0  0  0  0  0  0  0  0  0  0  0  0
   -0.4157    2.6697   -3.1953 C   0  0  0  0  0  0  0  0  0  0  0  0
   -0.8904    1.3025   -0.7552 C   0  0  0  0  0  0  0  0  0  0  0  0
   -1.1339    0.5769    0.4151 C   0  0  0  0  0  0  0  0  0  0  0  0
   -2.0028   -2.3955   -0.9525 H   0  0  0  0  0  0  0  0  0  0  0  0
   -1.5272   -1.1172   -3.0500 H   0  0  0  0  0  0  0  0  0  0  0  0
   -1.1852    3.3015   -2.7328 H   0  0  0  0  0  0  0  0  0  0  0  0
   -0.2990    2.9552   -4.2417 H   0  0  0  0  0  0  0  0  0  0  0  0
    0.5368    2.8237   -2.6720 H   0  0  0  0  0  0  0  0  0  0  0  0
   -0.5967    2.3419   -0.6735 H   0  0  0  0  0  0  0  0  0  0  0  0
   -1.0341    1.1027    1.3567 H   0  0  0  0  0  0  0  0  0  0  0  0
   -1.7681    1.7722    4.6764 B   0  0  0  0  0  0  0  0  0  0  0  0
   -0.7247   -0.7173    2.7457 F   0  0  0  0  0  0  0  0  0  0  0  0
   -0.9366    2.0667    3.6891 F   0  0  0  0  0  0  0  0  0  0  0  0
   -2.3735    0.6022    4.6827 F   0  0  0  0  0  0  0  0  0  0  0  0
   -1.9787    2.6428    5.6389 F   0  0  0  0  0  0  0  0  0  0  0  0
  1 10  1  0  0  0  0
  1  2  1  0  0  0  0
  2  3  2  0  0  0  0
  3 19  1  0  0  0  0
  4  1  2  0  0  0  0
  5  6  2  0  0  0  0
  5  4  1  0  0  0  0
  6  9  1  0  0  0  0
  7  8  1  0  0  0  0
  7  6  1  0  0  0  0
  8 13  1  0  0  0  0
  8 15  1  0  0  0  0
  9 16  1  0  0  0  0
  9 10  2  0  0  0  0
 10 17  1  0  0  0  0
 11  4  1  0  0  0  0
 12  5  1  0  0  0  0
 14  8  1  0  0  0  0
 18 21  1  0  0  0  0
 18 22  1  0  0  0  0
 20 18  1  0  0  0  0
M  END
