Coordinates from ORCA-job 4-MeOPhN2+~BF4-_B3LYPG-6-31G_dp-NX-Scan-d89-09-n800
 OpenBabel11261920503D

 22 21  0  0  0  0  0  0  0  0999 V2000
   -1.2701   -0.5514    0.5527 C   0  0  0  0  0  0  0  0  0  0  0  0
   -1.3522   -1.2324    1.7406 N   0  0  0  0  0  0  0  0  0  0  0  0
   -1.3908   -1.8503    2.6696 N   0  0  0  0  0  0  0  0  0  0  0  0
   -1.5987   -1.2569   -0.6273 C   0  0  0  0  0  0  0  0  0  0  0  0
   -1.5105   -0.5917   -1.8278 C   0  0  0  0  0  0  0  0  0  0  0  0
   -1.0936    0.7612   -1.8615 C   0  0  0  0  0  0  0  0  0  0  0  0
   -1.0463    1.3092   -3.0826 O   0  0  0  0  0  0  0  0  0  0  0  0
   -0.6519    2.6791   -3.2257 C   0  0  0  0  0  0  0  0  0  0  0  0
   -0.7607    1.4363   -0.6709 C   0  0  0  0  0  0  0  0  0  0  0  0
   -0.8522    0.7920    0.5514 C   0  0  0  0  0  0  0  0  0  0  0  0
   -1.9198   -2.2913   -0.5797 H   0  0  0  0  0  0  0  0  0  0  0  0
   -1.7586   -1.0808   -2.7624 H   0  0  0  0  0  0  0  0  0  0  0  0
   -1.3372    3.3424   -2.6887 H   0  0  0  0  0  0  0  0  0  0  0  0
   -0.7028    2.8861   -4.2940 H   0  0  0  0  0  0  0  0  0  0  0  0
    0.3720    2.8315   -2.8695 H   0  0  0  0  0  0  0  0  0  0  0  0
   -0.4387    2.4691   -0.6883 H   0  0  0  0  0  0  0  0  0  0  0  0
   -0.6135    1.2788    1.4967 H   0  0  0  0  0  0  0  0  0  0  0  0
   -1.6272    1.0362    3.8957 B   0  0  0  0  0  0  0  0  0  0  0  0
   -1.3797   -0.2018    4.5251 F   0  0  0  0  0  0  0  0  0  0  0  0
   -0.3996    1.5068    3.3390 F   0  0  0  0  0  0  0  0  0  0  0  0
   -2.5068    0.7895    2.7965 F   0  0  0  0  0  0  0  0  0  0  0  0
   -2.1650    1.9582    4.7577 F   0  0  0  0  0  0  0  0  0  0  0  0
  1  2  1  0  0  0  0
  2  3  1  0  0  0  0
  4 11  1  0  0  0  0
  4  1  2  0  0  0  0
  5  4  1  0  0  0  0
  6  5  2  0  0  0  0
  6  9  1  0  0  0  0
  7  6  1  0  0  0  0
  8  7  1  0  0  0  0
  8 15  1  0  0  0  0
  8 13  1  0  0  0  0
  9 10  2  0  0  0  0
 10  1  1  0  0  0  0
 10 17  1  0  0  0  0
 12  5  1  0  0  0  0
 14  8  1  0  0  0  0
 16  9  1  0  0  0  0
 18 19  1  0  0  0  0
 18 22  1  0  0  0  0
 20 18  1  0  0  0  0
 21 18  1  0  0  0  0
M  RAD  2   2   2   3   3
M  END
