Coordinates from ORCA-job 4-MeOPhN2+~BF4-_B3LYPG-6-31G_dp-NX-Scan-d89-09-n800
 OpenBabel11261920503D

 22 21  0  0  0  0  0  0  0  0999 V2000
   -1.4469   -1.8964    0.2934 C   0  0  0  0  0  0  0  0  0  0  0  0
   -1.6231   -3.0163    1.0164 N   0  0  0  0  0  0  0  0  0  0  0  0
   -1.7687   -3.9529    1.6258 N   0  0  0  0  0  0  0  0  0  0  0  0
   -1.5989   -1.9621   -1.1232 C   0  0  0  0  0  0  0  0  0  0  0  0
   -1.4326   -0.8122   -1.8444 C   0  0  0  0  0  0  0  0  0  0  0  0
   -1.1242    0.4194   -1.1878 C   0  0  0  0  0  0  0  0  0  0  0  0
   -1.0129    1.4656   -1.9717 O   0  0  0  0  0  0  0  0  0  0  0  0
   -0.7944    2.7922   -1.3902 C   0  0  0  0  0  0  0  0  0  0  0  0
   -0.9573    0.4617    0.2221 C   0  0  0  0  0  0  0  0  0  0  0  0
   -1.1200   -0.6815    0.9600 C   0  0  0  0  0  0  0  0  0  0  0  0
   -1.8451   -2.9029   -1.6026 H   0  0  0  0  0  0  0  0  0  0  0  0
   -1.5441   -0.8052   -2.9228 H   0  0  0  0  0  0  0  0  0  0  0  0
   -1.5821    3.0178   -0.6699 H   0  0  0  0  0  0  0  0  0  0  0  0
   -0.8078    3.4648   -2.2452 H   0  0  0  0  0  0  0  0  0  0  0  0
    0.1701    2.8284   -0.8830 H   0  0  0  0  0  0  0  0  0  0  0  0
   -0.7098    1.3668    0.7703 H   0  0  0  0  0  0  0  0  0  0  0  0
   -1.0064   -0.6398    2.0383 H   0  0  0  0  0  0  0  0  0  0  0  0
   -1.1635    3.4069    2.0342 B   0  0  0  0  0  0  0  0  0  0  0  0
   -0.3278    4.1685    1.1999 F   0  0  0  0  0  0  0  0  0  0  0  0
   -2.2913    2.9818    1.2677 F   0  0  0  0  0  0  0  0  0  0  0  0
   -0.4550    2.2146    2.4064 F   0  0  0  0  0  0  0  0  0  0  0  0
   -1.5618    4.1004    3.1529 F   0  0  0  0  0  0  0  0  0  0  0  0
  1 10  1  0  0  0  0
  1  2  1  0  0  0  0
  2  3  1  0  0  0  0
  4  1  2  0  0  0  0
  5  6  2  0  0  0  0
  5  4  1  0  0  0  0
  6  9  1  0  0  0  0
  7  8  1  0  0  0  0
  7  6  1  0  0  0  0
  8 15  1  0  0  0  0
  8 13  1  0  0  0  0
  9 16  1  0  0  0  0
  9 10  2  0  0  0  0
 10 17  1  0  0  0  0
 11  4  1  0  0  0  0
 12  5  1  0  0  0  0
 14  8  1  0  0  0  0
 18 21  1  0  0  0  0
 18 22  1  0  0  0  0
 19 18  1  0  0  0  0
 20 18  1  0  0  0  0
M  RAD  2   2   2   3   3
M  END
