Coordinates from ORCA-job 4-MeOPhN2+~BF4-_B3LYPG-6-31G_dp-NX-Scan-d89-09-n800
 OpenBabel11261920503D

 22 21  0  0  0  0  0  0  0  0999 V2000
   -1.3283   -0.6255    0.5498 C   0  0  0  0  0  0  0  0  0  0  0  0
   -1.4542   -1.3223    1.7300 N   0  0  0  0  0  0  0  0  0  0  0  0
   -1.4291   -1.5673    2.8365 N   0  0  0  0  0  0  0  0  0  0  0  0
   -1.6598   -1.2910   -0.6482 C   0  0  0  0  0  0  0  0  0  0  0  0
   -1.5385   -0.6131   -1.8410 C   0  0  0  0  0  0  0  0  0  0  0  0
   -1.0884    0.7268   -1.8484 C   0  0  0  0  0  0  0  0  0  0  0  0
   -1.0100    1.2971   -3.0612 O   0  0  0  0  0  0  0  0  0  0  0  0
   -0.5808    2.6577   -3.1700 C   0  0  0  0  0  0  0  0  0  0  0  0
   -0.7579    1.3735   -0.6418 C   0  0  0  0  0  0  0  0  0  0  0  0
   -0.8765    0.7070    0.5676 C   0  0  0  0  0  0  0  0  0  0  0  0
   -2.0075   -2.3174   -0.6194 H   0  0  0  0  0  0  0  0  0  0  0  0
   -1.7857   -1.0818   -2.7862 H   0  0  0  0  0  0  0  0  0  0  0  0
   -1.2579    3.3286   -2.6312 H   0  0  0  0  0  0  0  0  0  0  0  0
   -0.6083    2.8883   -4.2345 H   0  0  0  0  0  0  0  0  0  0  0  0
    0.4406    2.7802   -2.7946 H   0  0  0  0  0  0  0  0  0  0  0  0
   -0.4162    2.4001   -0.6349 H   0  0  0  0  0  0  0  0  0  0  0  0
   -0.6390    1.2074    1.5015 H   0  0  0  0  0  0  0  0  0  0  0  0
   -1.6451    1.1488    3.8000 B   0  0  0  0  0  0  0  0  0  0  0  0
   -0.8019   -0.0916    3.8010 F   0  0  0  0  0  0  0  0  0  0  0  0
   -0.8268    2.1367    3.2425 F   0  0  0  0  0  0  0  0  0  0  0  0
   -2.7115    0.8628    2.9476 F   0  0  0  0  0  0  0  0  0  0  0  0
   -2.0212    1.4147    5.0816 F   0  0  0  0  0  0  0  0  0  0  0  0
  1 10  1  0  0  0  0
  1  2  1  0  0  0  0
  2  3  1  0  0  0  0
  4 11  1  0  0  0  0
  4  1  2  0  0  0  0
  5  4  1  0  0  0  0
  6  5  2  0  0  0  0
  6  9  1  0  0  0  0
  7  6  1  0  0  0  0
  8  7  1  0  0  0  0
  8 15  1  0  0  0  0
  8 13  1  0  0  0  0
  9 16  1  0  0  0  0
  9 10  2  0  0  0  0
 10 17  1  0  0  0  0
 12  5  1  0  0  0  0
 14  8  1  0  0  0  0
 18 19  1  0  0  0  0
 18 22  1  0  0  0  0
 20 18  1  0  0  0  0
 21 18  1  0  0  0  0
M  RAD  2   2   2   3   3
M  END
