Coordinates from ORCA-job 4-MeOPhN2+~BF4-_B3LYPG-6-31G_dp-NX-Scan-d89-09-n800
 OpenBabel11261920503D

 22 21  0  0  0  0  0  0  0  0999 V2000
   -1.4054   -0.7050    0.4424 C   0  0  0  0  0  0  0  0  0  0  0  0
   -1.6868   -1.5612    1.5342 N   0  0  0  0  0  0  0  0  0  0  0  0
   -1.4527   -1.3562    2.7298 N   0  0  0  0  0  0  0  0  0  0  0  0
   -1.5869   -1.3432   -0.8033 C   0  0  0  0  0  0  0  0  0  0  0  0
   -1.3793   -0.6741   -1.9947 C   0  0  0  0  0  0  0  0  0  0  0  0
   -1.0023    0.6796   -1.9770 C   0  0  0  0  0  0  0  0  0  0  0  0
   -0.8290    1.2591   -3.1905 O   0  0  0  0  0  0  0  0  0  0  0  0
   -0.4684    2.6342   -3.2467 C   0  0  0  0  0  0  0  0  0  0  0  0
   -0.8385    1.3371   -0.7484 C   0  0  0  0  0  0  0  0  0  0  0  0
   -1.0306    0.6542    0.4505 C   0  0  0  0  0  0  0  0  0  0  0  0
   -1.8946   -2.3831   -0.7984 H   0  0  0  0  0  0  0  0  0  0  0  0
   -1.5112   -1.1657   -2.9524 H   0  0  0  0  0  0  0  0  0  0  0  0
   -1.2302    3.2686   -2.7773 H   0  0  0  0  0  0  0  0  0  0  0  0
   -0.3971    2.8809   -4.3064 H   0  0  0  0  0  0  0  0  0  0  0  0
    0.5011    2.8158   -2.7672 H   0  0  0  0  0  0  0  0  0  0  0  0
   -0.5575    2.3822   -0.7118 H   0  0  0  0  0  0  0  0  0  0  0  0
   -0.9069    1.1993    1.3736 H   0  0  0  0  0  0  0  0  0  0  0  0
   -1.8564    1.5706    4.4689 B   0  0  0  0  0  0  0  0  0  0  0  0
   -0.8813   -0.2524    2.9931 F   0  0  0  0  0  0  0  0  0  0  0  0
   -1.3113    2.4121    3.6026 F   0  0  0  0  0  0  0  0  0  0  0  0
   -3.0779    1.1219    4.2621 F   0  0  0  0  0  0  0  0  0  0  0  0
   -1.2005    1.2446    5.5635 F   0  0  0  0  0  0  0  0  0  0  0  0
  1 10  1  0  0  0  0
  1  2  1  0  0  0  0
  2  3  2  0  0  0  0
  3 19  1  0  0  0  0
  4 11  1  0  0  0  0
  4  1  2  0  0  0  0
  5  6  2  0  0  0  0
  5  4  1  0  0  0  0
  6  9  1  0  0  0  0
  7  6  1  0  0  0  0
  8  7  1  0  0  0  0
  8 13  1  0  0  0  0
  8 15  1  0  0  0  0
  9 16  1  0  0  0  0
  9 10  2  0  0  0  0
 10 17  1  0  0  0  0
 12  5  1  0  0  0  0
 14  8  1  0  0  0  0
 18 22  1  0  0  0  0
 20 18  1  0  0  0  0
 21 18  1  0  0  0  0
M  END
