Coordinates from ORCA-job 4-MeOPhN2+~BF4-_B3LYPG-6-31G_dp-NX-Scan-d89-09-n800
 OpenBabel11261920503D

 22 21  0  0  0  0  0  0  0  0999 V2000
   -1.2175   -0.7527    0.5981 C   0  0  0  0  0  0  0  0  0  0  0  0
   -1.2771   -1.5093    1.7331 N   0  0  0  0  0  0  0  0  0  0  0  0
   -1.3242   -2.1892    2.6160 N   0  0  0  0  0  0  0  0  0  0  0  0
   -1.7927   -1.2839   -0.5818 C   0  0  0  0  0  0  0  0  0  0  0  0
   -1.7300   -0.5255   -1.7248 C   0  0  0  0  0  0  0  0  0  0  0  0
   -1.1094    0.7506   -1.7022 C   0  0  0  0  0  0  0  0  0  0  0  0
   -1.1181    1.4014   -2.8710 O   0  0  0  0  0  0  0  0  0  0  0  0
   -0.5512    2.7159   -2.9492 C   0  0  0  0  0  0  0  0  0  0  0  0
   -0.5423    1.2510   -0.5159 C   0  0  0  0  0  0  0  0  0  0  0  0
   -0.5935    0.5076    0.6494 C   0  0  0  0  0  0  0  0  0  0  0  0
   -2.2736   -2.2552   -0.5738 H   0  0  0  0  0  0  0  0  0  0  0  0
   -2.1581   -0.8751   -2.6567 H   0  0  0  0  0  0  0  0  0  0  0  0
   -1.0702    3.4053   -2.2764 H   0  0  0  0  0  0  0  0  0  0  0  0
   -0.6934    3.0320   -3.9820 H   0  0  0  0  0  0  0  0  0  0  0  0
    0.5177    2.6951   -2.7133 H   0  0  0  0  0  0  0  0  0  0  0  0
   -0.0866    2.2312   -0.4809 H   0  0  0  0  0  0  0  0  0  0  0  0
   -0.2005    0.8628    1.5987 H   0  0  0  0  0  0  0  0  0  0  0  0
   -1.7762    1.3373    3.4223 B   0  0  0  0  0  0  0  0  0  0  0  0
   -0.4148    0.8787    3.4745 F   0  0  0  0  0  0  0  0  0  0  0  0
   -1.8574    2.2957    2.3969 F   0  0  0  0  0  0  0  0  0  0  0  0
   -2.5657    0.2113    3.0455 F   0  0  0  0  0  0  0  0  0  0  0  0
   -2.1689    1.8345    4.6400 F   0  0  0  0  0  0  0  0  0  0  0  0
  1 10  1  0  0  0  0
  1  2  1  0  0  0  0
  2  3  1  0  0  0  0
  4 11  1  0  0  0  0
  4  1  2  0  0  0  0
  5  6  2  0  0  0  0
  5  4  1  0  0  0  0
  6  9  1  0  0  0  0
  7  6  1  0  0  0  0
  8  7  1  0  0  0  0
  8 15  1  0  0  0  0
  8 13  1  0  0  0  0
  9 16  1  0  0  0  0
  9 10  2  0  0  0  0
 10 17  1  0  0  0  0
 12  5  1  0  0  0  0
 14  8  1  0  0  0  0
 18 19  1  0  0  0  0
 18 22  1  0  0  0  0
 20 18  1  0  0  0  0
 21 18  1  0  0  0  0
M  RAD  2   2   2   3   3
M  END
