Coordinates from ORCA-job 4-MeOPhN2+~BF4-_B3LYPG-6-31G_dp-NX-Scan-d89-09-n800
 OpenBabel11261920503D

 22 21  0  0  0  0  0  0  0  0999 V2000
   -1.3026   -1.5424    0.4180 C   0  0  0  0  0  0  0  0  0  0  0  0
   -1.4967   -2.5271    1.3164 N   0  0  0  0  0  0  0  0  0  0  0  0
   -1.6500   -3.3343    2.0844 N   0  0  0  0  0  0  0  0  0  0  0  0
   -1.6734   -1.7589   -0.9414 C   0  0  0  0  0  0  0  0  0  0  0  0
   -1.5403   -0.7142   -1.8153 C   0  0  0  0  0  0  0  0  0  0  0  0
   -1.0543    0.5473   -1.3568 C   0  0  0  0  0  0  0  0  0  0  0  0
   -1.0663    1.5243   -2.2473 O   0  0  0  0  0  0  0  0  0  0  0  0
   -0.7491    2.8750   -1.8116 C   0  0  0  0  0  0  0  0  0  0  0  0
   -0.6180    0.7124   -0.0265 C   0  0  0  0  0  0  0  0  0  0  0  0
   -0.7726   -0.3096    0.8782 C   0  0  0  0  0  0  0  0  0  0  0  0
   -2.0648   -2.7191   -1.2577 H   0  0  0  0  0  0  0  0  0  0  0  0
   -1.8338   -0.8091   -2.8543 H   0  0  0  0  0  0  0  0  0  0  0  0
   -1.3039    3.1201   -0.9017 H   0  0  0  0  0  0  0  0  0  0  0  0
   -1.0441    3.5113   -2.6446 H   0  0  0  0  0  0  0  0  0  0  0  0
    0.3270    2.9614   -1.6372 H   0  0  0  0  0  0  0  0  0  0  0  0
   -0.2456    1.6517    0.3646 H   0  0  0  0  0  0  0  0  0  0  0  0
   -0.5646   -0.1262    1.9258 H   0  0  0  0  0  0  0  0  0  0  0  0
   -1.4835    2.6134    2.3548 B   0  0  0  0  0  0  0  0  0  0  0  0
   -0.0824    2.5054    2.0976 F   0  0  0  0  0  0  0  0  0  0  0  0
   -2.1186    2.9034    1.1142 F   0  0  0  0  0  0  0  0  0  0  0  0
   -1.9283    1.3426    2.8018 F   0  0  0  0  0  0  0  0  0  0  0  0
   -1.7380    3.5926    3.2851 F   0  0  0  0  0  0  0  0  0  0  0  0
  1 10  1  0  0  0  0
  1  2  1  0  0  0  0
  2  3  1  0  0  0  0
  4  1  2  0  0  0  0
  5  6  2  0  0  0  0
  5  4  1  0  0  0  0
  6  9  1  0  0  0  0
  7  8  1  0  0  0  0
  7  6  1  0  0  0  0
  8 15  1  0  0  0  0
  8 13  1  0  0  0  0
  9 16  1  0  0  0  0
  9 10  2  0  0  0  0
 10 17  1  0  0  0  0
 11  4  1  0  0  0  0
 12  5  1  0  0  0  0
 14  8  1  0  0  0  0
 18 21  1  0  0  0  0
 18 22  1  0  0  0  0
 19 18  1  0  0  0  0
 20 18  1  0  0  0  0
M  RAD  2   2   2   3   3
M  END
