Coordinates from ORCA-job 4-MeOPhN2+~BF4-_B3LYPG-6-31G_dp-NX-Scan-d89-09-n800
 OpenBabel11261920503D

 22 21  0  0  0  0  0  0  0  0999 V2000
   -1.2812   -1.5227    0.4387 C   0  0  0  0  0  0  0  0  0  0  0  0
   -1.4539   -2.5113    1.3373 N   0  0  0  0  0  0  0  0  0  0  0  0
   -1.5948   -3.3334    2.0918 N   0  0  0  0  0  0  0  0  0  0  0  0
   -1.6886   -1.7424   -0.9104 C   0  0  0  0  0  0  0  0  0  0  0  0
   -1.5726   -0.7032   -1.7924 C   0  0  0  0  0  0  0  0  0  0  0  0
   -1.0680    0.5582   -1.3533 C   0  0  0  0  0  0  0  0  0  0  0  0
   -1.0900    1.5260   -2.2538 O   0  0  0  0  0  0  0  0  0  0  0  0
   -0.7382    2.8765   -1.8478 C   0  0  0  0  0  0  0  0  0  0  0  0
   -0.6025    0.7283   -0.0338 C   0  0  0  0  0  0  0  0  0  0  0  0
   -0.7381   -0.2889    0.8797 C   0  0  0  0  0  0  0  0  0  0  0  0
   -2.0921   -2.7024   -1.2116 H   0  0  0  0  0  0  0  0  0  0  0  0
   -1.8916   -0.8020   -2.8234 H   0  0  0  0  0  0  0  0  0  0  0  0
   -1.2608    3.1465   -0.9262 H   0  0  0  0  0  0  0  0  0  0  0  0
   -1.0469    3.5054   -2.6815 H   0  0  0  0  0  0  0  0  0  0  0  0
    0.3444    2.9464   -1.7079 H   0  0  0  0  0  0  0  0  0  0  0  0
   -0.2285    1.6705    0.3445 H   0  0  0  0  0  0  0  0  0  0  0  0
   -0.4897   -0.1038    1.9170 H   0  0  0  0  0  0  0  0  0  0  0  0
   -1.5162    2.5744    2.3610 B   0  0  0  0  0  0  0  0  0  0  0  0
   -0.1082    2.3708    2.2248 F   0  0  0  0  0  0  0  0  0  0  0  0
   -2.0032    3.0082    1.0943 F   0  0  0  0  0  0  0  0  0  0  0  0
   -2.0972    1.3173    2.6600 F   0  0  0  0  0  0  0  0  0  0  0  0
   -1.7860    3.5015    3.3394 F   0  0  0  0  0  0  0  0  0  0  0  0
  1 10  1  0  0  0  0
  1  2  1  0  0  0  0
  2  3  1  0  0  0  0
  4  1  2  0  0  0  0
  5  6  2  0  0  0  0
  5  4  1  0  0  0  0
  6  9  1  0  0  0  0
  7  8  1  0  0  0  0
  7  6  1  0  0  0  0
  8 15  1  0  0  0  0
  8 13  1  0  0  0  0
  9 16  1  0  0  0  0
  9 10  2  0  0  0  0
 10 17  1  0  0  0  0
 11  4  1  0  0  0  0
 12  5  1  0  0  0  0
 14  8  1  0  0  0  0
 18 21  1  0  0  0  0
 18 22  1  0  0  0  0
 19 18  1  0  0  0  0
 20 18  1  0  0  0  0
M  RAD  2   2   2   3   3
M  END
