Coordinates from ORCA-job 4-MeOPhN2+~BF4-_B3LYPG-6-31G_dp-NX-Scan-d89-09-n800
 OpenBabel11261920503D

 22 21  0  0  0  0  0  0  0  0999 V2000
   -1.2572   -1.4743    0.4563 C   0  0  0  0  0  0  0  0  0  0  0  0
   -1.4212   -2.4328    1.3891 N   0  0  0  0  0  0  0  0  0  0  0  0
   -1.5507   -3.2189    2.1824 N   0  0  0  0  0  0  0  0  0  0  0  0
   -1.6808   -1.7261   -0.8816 C   0  0  0  0  0  0  0  0  0  0  0  0
   -1.5767   -0.7060   -1.7873 C   0  0  0  0  0  0  0  0  0  0  0  0
   -1.0736    0.5672   -1.3810 C   0  0  0  0  0  0  0  0  0  0  0  0
   -1.1122    1.5160   -2.3036 O   0  0  0  0  0  0  0  0  0  0  0  0
   -0.7623    2.8740   -1.9283 C   0  0  0  0  0  0  0  0  0  0  0  0
   -0.5964    0.7680   -0.0717 C   0  0  0  0  0  0  0  0  0  0  0  0
   -0.7147   -0.2312    0.8651 C   0  0  0  0  0  0  0  0  0  0  0  0
   -2.0869   -2.6927   -1.1570 H   0  0  0  0  0  0  0  0  0  0  0  0
   -1.9064   -0.8278   -2.8125 H   0  0  0  0  0  0  0  0  0  0  0  0
   -1.2711    3.1605   -1.0047 H   0  0  0  0  0  0  0  0  0  0  0  0
   -1.0849    3.4875   -2.7682 H   0  0  0  0  0  0  0  0  0  0  0  0
    0.3217    2.9528   -1.8029 H   0  0  0  0  0  0  0  0  0  0  0  0
   -0.2438    1.7267    0.2806 H   0  0  0  0  0  0  0  0  0  0  0  0
   -0.4368   -0.0159    1.8899 H   0  0  0  0  0  0  0  0  0  0  0  0
   -1.5271    2.4768    2.4219 B   0  0  0  0  0  0  0  0  0  0  0  0
   -0.1771    2.0096    2.5079 F   0  0  0  0  0  0  0  0  0  0  0  0
   -1.6599    3.1503    1.1714 F   0  0  0  0  0  0  0  0  0  0  0  0
   -2.3629    1.3366    2.4141 F   0  0  0  0  0  0  0  0  0  0  0  0
   -1.8230    3.3193    3.4667 F   0  0  0  0  0  0  0  0  0  0  0  0
  1 10  1  0  0  0  0
  1  2  1  0  0  0  0
  2  3  1  0  0  0  0
  4  1  2  0  0  0  0
  5  6  2  0  0  0  0
  5  4  1  0  0  0  0
  6  9  1  0  0  0  0
  7  8  1  0  0  0  0
  7  6  1  0  0  0  0
  8 15  1  0  0  0  0
  8 13  1  0  0  0  0
  9 16  1  0  0  0  0
  9 10  2  0  0  0  0
 10 17  1  0  0  0  0
 11  4  1  0  0  0  0
 12  5  1  0  0  0  0
 14  8  1  0  0  0  0
 18 19  1  0  0  0  0
 18 22  1  0  0  0  0
 20 18  1  0  0  0  0
 21 18  1  0  0  0  0
M  RAD  2   2   2   3   3
M  END
