Coordinates from ORCA-job 4-MeOPhN2+~BF4-_B3LYPG-6-31G_dp-NX-Scan-d89-09-n800
 OpenBabel11261920503D

 22 21  0  0  0  0  0  0  0  0999 V2000
   -1.2151   -1.2310    0.4793 C   0  0  0  0  0  0  0  0  0  0  0  0
   -1.3114   -2.0857    1.5234 N   0  0  0  0  0  0  0  0  0  0  0  0
   -1.3861   -2.7642    2.4135 N   0  0  0  0  0  0  0  0  0  0  0  0
   -1.6426   -1.6404   -0.8143 C   0  0  0  0  0  0  0  0  0  0  0  0
   -1.5874   -0.7114   -1.8182 C   0  0  0  0  0  0  0  0  0  0  0  0
   -1.1411    0.6171   -1.5483 C   0  0  0  0  0  0  0  0  0  0  0  0
   -1.1766    1.4414   -2.5942 O   0  0  0  0  0  0  0  0  0  0  0  0
   -0.8124    2.8217   -2.4088 C   0  0  0  0  0  0  0  0  0  0  0  0
   -0.7149    0.9906   -0.2631 C   0  0  0  0  0  0  0  0  0  0  0  0
   -0.7461    0.0698    0.7646 C   0  0  0  0  0  0  0  0  0  0  0  0
   -2.0052   -2.6471   -0.9877 H   0  0  0  0  0  0  0  0  0  0  0  0
   -1.9034   -0.9526   -2.8264 H   0  0  0  0  0  0  0  0  0  0  0  0
   -1.4556    3.2940   -1.6614 H   0  0  0  0  0  0  0  0  0  0  0  0
   -0.9587    3.2899   -3.3812 H   0  0  0  0  0  0  0  0  0  0  0  0
    0.2354    2.9073   -2.1067 H   0  0  0  0  0  0  0  0  0  0  0  0
   -0.4327    2.0004    0.0061 H   0  0  0  0  0  0  0  0  0  0  0  0
   -0.4473    0.3389    1.7787 H   0  0  0  0  0  0  0  0  0  0  0  0
   -1.4801    2.0831    2.9394 B   0  0  0  0  0  0  0  0  0  0  0  0
   -0.5835    1.0763    3.4336 F   0  0  0  0  0  0  0  0  0  0  0  0
   -0.7680    2.8383    1.9695 F   0  0  0  0  0  0  0  0  0  0  0  0
   -2.5364    1.4043    2.2870 F   0  0  0  0  0  0  0  0  0  0  0  0
   -1.9346    2.8789    3.9618 F   0  0  0  0  0  0  0  0  0  0  0  0
  1 10  1  0  0  0  0
  1  2  1  0  0  0  0
  2  3  1  0  0  0  0
  4  1  2  0  0  0  0
  5  6  2  0  0  0  0
  5  4  1  0  0  0  0
  6  9  1  0  0  0  0
  7  8  1  0  0  0  0
  7  6  1  0  0  0  0
  8 15  1  0  0  0  0
  8 13  1  0  0  0  0
  9 16  1  0  0  0  0
  9 10  2  0  0  0  0
 10 17  1  0  0  0  0
 11  4  1  0  0  0  0
 12  5  1  0  0  0  0
 14  8  1  0  0  0  0
 18 19  1  0  0  0  0
 18 22  1  0  0  0  0
 20 18  1  0  0  0  0
 21 18  1  0  0  0  0
M  RAD  2   2   2   3   3
M  END
