Coordinates from ORCA-job 4-MeOPhN2+~BF4-_B3LYPG-6-31G_dp-NX-Scan-d89-09-n800
 OpenBabel11261920503D

 22 21  0  0  0  0  0  0  0  0999 V2000
   -1.2486   -1.3291    0.4434 C   0  0  0  0  0  0  0  0  0  0  0  0
   -1.3323   -2.2296    1.4485 N   0  0  0  0  0  0  0  0  0  0  0  0
   -1.3944   -2.9433    2.3123 N   0  0  0  0  0  0  0  0  0  0  0  0
   -1.5839   -1.7171   -0.8843 C   0  0  0  0  0  0  0  0  0  0  0  0
   -1.5242   -0.7540   -1.8552 C   0  0  0  0  0  0  0  0  0  0  0  0
   -1.1557    0.5841   -1.5220 C   0  0  0  0  0  0  0  0  0  0  0  0
   -1.1652    1.4385   -2.5422 O   0  0  0  0  0  0  0  0  0  0  0  0
   -0.8527    2.8238   -2.2959 C   0  0  0  0  0  0  0  0  0  0  0  0
   -0.8227    0.9375   -0.2030 C   0  0  0  0  0  0  0  0  0  0  0  0
   -0.8649   -0.0154    0.7939 C   0  0  0  0  0  0  0  0  0  0  0  0
   -1.8814   -2.7352   -1.1081 H   0  0  0  0  0  0  0  0  0  0  0  0
   -1.7721   -0.9781   -2.8863 H   0  0  0  0  0  0  0  0  0  0  0  0
   -1.5464    3.2531   -1.5682 H   0  0  0  0  0  0  0  0  0  0  0  0
   -0.9626    3.3174   -3.2602 H   0  0  0  0  0  0  0  0  0  0  0  0
    0.1746    2.9280   -1.9359 H   0  0  0  0  0  0  0  0  0  0  0  0
   -0.5870    1.9485    0.1123 H   0  0  0  0  0  0  0  0  0  0  0  0
   -0.6295    0.2534    1.8272 H   0  0  0  0  0  0  0  0  0  0  0  0
   -1.3892    2.2744    2.8747 B   0  0  0  0  0  0  0  0  0  0  0  0
   -0.5735    1.1931    3.3563 F   0  0  0  0  0  0  0  0  0  0  0  0
   -0.6384    2.9600    1.8789 F   0  0  0  0  0  0  0  0  0  0  0  0
   -2.5169    1.6949    2.2565 F   0  0  0  0  0  0  0  0  0  0  0  0
   -1.7371    3.1149    3.9035 F   0  0  0  0  0  0  0  0  0  0  0  0
  1 10  1  0  0  0  0
  1  2  1  0  0  0  0
  2  3  1  0  0  0  0
  4  1  2  0  0  0  0
  5  6  2  0  0  0  0
  5  4  1  0  0  0  0
  6  9  1  0  0  0  0
  7  8  1  0  0  0  0
  7  6  1  0  0  0  0
  8 15  1  0  0  0  0
  8 13  1  0  0  0  0
  9 16  1  0  0  0  0
  9 10  2  0  0  0  0
 10 17  1  0  0  0  0
 11  4  1  0  0  0  0
 12  5  1  0  0  0  0
 14  8  1  0  0  0  0
 18 19  1  0  0  0  0
 18 22  1  0  0  0  0
 20 18  1  0  0  0  0
 21 18  1  0  0  0  0
M  RAD  2   2   2   3   3
M  END
