Coordinates from ORCA-job 4-MeOPhN2+~BF4-_B3LYPG-6-31G_dp-NX-Scan-d89-09-n800
 OpenBabel11261920503D

 22 21  0  0  0  0  0  0  0  0999 V2000
   -1.1989   -0.7251    0.6140 C   0  0  0  0  0  0  0  0  0  0  0  0
   -1.2535   -1.4751    1.7545 N   0  0  0  0  0  0  0  0  0  0  0  0
   -1.2985   -2.1601    2.6332 N   0  0  0  0  0  0  0  0  0  0  0  0
   -1.7892   -1.2629   -0.5550 C   0  0  0  0  0  0  0  0  0  0  0  0
   -1.7345   -0.5156   -1.7059 C   0  0  0  0  0  0  0  0  0  0  0  0
   -1.1066    0.7565   -1.7020 C   0  0  0  0  0  0  0  0  0  0  0  0
   -1.1258    1.3979   -2.8762 O   0  0  0  0  0  0  0  0  0  0  0  0
   -0.5563    2.7099   -2.9713 C   0  0  0  0  0  0  0  0  0  0  0  0
   -0.5228    1.2637   -0.5266 C   0  0  0  0  0  0  0  0  0  0  0  0
   -0.5669    0.5316    0.6462 C   0  0  0  0  0  0  0  0  0  0  0  0
   -2.2760   -2.2311   -0.5329 H   0  0  0  0  0  0  0  0  0  0  0  0
   -2.1752   -0.8713   -2.6297 H   0  0  0  0  0  0  0  0  0  0  0  0
   -1.0648    3.4058   -2.2972 H   0  0  0  0  0  0  0  0  0  0  0  0
   -0.7107    3.0189   -4.0044 H   0  0  0  0  0  0  0  0  0  0  0  0
    0.5156    2.6880   -2.7488 H   0  0  0  0  0  0  0  0  0  0  0  0
   -0.0603    2.2411   -0.5062 H   0  0  0  0  0  0  0  0  0  0  0  0
   -0.1672    0.8928    1.5887 H   0  0  0  0  0  0  0  0  0  0  0  0
   -1.8031    1.2966    3.4196 B   0  0  0  0  0  0  0  0  0  0  0  0
   -0.4686    0.7609    3.4812 F   0  0  0  0  0  0  0  0  0  0  0  0
   -1.8064    2.2945    2.4295 F   0  0  0  0  0  0  0  0  0  0  0  0
   -2.6433    0.2304    2.9885 F   0  0  0  0  0  0  0  0  0  0  0  0
   -2.1908    1.7723    4.6475 F   0  0  0  0  0  0  0  0  0  0  0  0
  1 10  1  0  0  0  0
  1  2  1  0  0  0  0
  2  3  1  0  0  0  0
  4 11  1  0  0  0  0
  4  1  2  0  0  0  0
  5  6  2  0  0  0  0
  5  4  1  0  0  0  0
  6  9  1  0  0  0  0
  7  6  1  0  0  0  0
  8  7  1  0  0  0  0
  8 15  1  0  0  0  0
  8 13  1  0  0  0  0
  9 16  1  0  0  0  0
  9 10  2  0  0  0  0
 10 17  1  0  0  0  0
 12  5  1  0  0  0  0
 14  8  1  0  0  0  0
 18 19  1  0  0  0  0
 18 22  1  0  0  0  0
 20 18  1  0  0  0  0
 21 18  1  0  0  0  0
M  RAD  2   2   2   3   3
M  END
