Coordinates from ORCA-job 4-MeOPhN2+~BF4-_B3LYPG-6-31G_dp-NX-Scan-d89-09-n800
 OpenBabel11261920503D

 22 21  0  0  0  0  0  0  0  0999 V2000
   -1.5009   -1.9694    0.2619 C   0  0  0  0  0  0  0  0  0  0  0  0
   -1.7248   -3.1009    0.9486 N   0  0  0  0  0  0  0  0  0  0  0  0
   -1.9105   -4.0396    1.5436 N   0  0  0  0  0  0  0  0  0  0  0  0
   -1.5903   -1.9872   -1.1604 C   0  0  0  0  0  0  0  0  0  0  0  0
   -1.3794   -0.8143   -1.8296 C   0  0  0  0  0  0  0  0  0  0  0  0
   -1.0917    0.3919   -1.1171 C   0  0  0  0  0  0  0  0  0  0  0  0
   -0.9446    1.4572   -1.8650 O   0  0  0  0  0  0  0  0  0  0  0  0
   -0.7828    2.7756   -1.2429 C   0  0  0  0  0  0  0  0  0  0  0  0
   -0.9822    0.3880    0.3036 C   0  0  0  0  0  0  0  0  0  0  0  0
   -1.1873   -0.7828    0.9845 C   0  0  0  0  0  0  0  0  0  0  0  0
   -1.8257   -2.9075   -1.6829 H   0  0  0  0  0  0  0  0  0  0  0  0
   -1.4420   -0.7653   -2.9109 H   0  0  0  0  0  0  0  0  0  0  0  0
   -1.6548    2.9941   -0.6286 H   0  0  0  0  0  0  0  0  0  0  0  0
   -0.6890    3.4615   -2.0811 H   0  0  0  0  0  0  0  0  0  0  0  0
    0.1057    2.7915   -0.6124 H   0  0  0  0  0  0  0  0  0  0  0  0
   -0.7337    1.2869    0.8692 H   0  0  0  0  0  0  0  0  0  0  0  0
   -1.1169   -0.8064    2.0669 H   0  0  0  0  0  0  0  0  0  0  0  0
   -1.1197    3.5618    1.8848 B   0  0  0  0  0  0  0  0  0  0  0  0
   -0.9446    4.5967    0.9593 F   0  0  0  0  0  0  0  0  0  0  0  0
   -2.2436    2.7805    1.4842 F   0  0  0  0  0  0  0  0  0  0  0  0
    0.0253    2.6903    1.7958 F   0  0  0  0  0  0  0  0  0  0  0  0
   -1.2702    4.0170    3.1750 F   0  0  0  0  0  0  0  0  0  0  0  0
  1  2  1  0  0  0  0
  1 10  2  0  0  0  0
  2  3  1  0  0  0  0
  4  1  1  0  0  0  0
  5  4  2  0  0  0  0
  5  6  1  0  0  0  0
  6  9  2  0  0  0  0
  7  8  1  0  0  0  0
  7  6  1  0  0  0  0
  8 13  1  0  0  0  0
  8 15  1  0  0  0  0
  9 16  1  0  0  0  0
  9 10  1  0  0  0  0
 10 17  1  0  0  0  0
 11  4  1  0  0  0  0
 12  5  1  0  0  0  0
 14  8  1  0  0  0  0
 18 22  1  0  0  0  0
 19 18  1  0  0  0  0
 20 18  1  0  0  0  0
 21 18  1  0  0  0  0
M  RAD  2   2   2   3   3
M  END
