Coordinates from ORCA-job 4-MeOPhN2+~BF4-_B3LYPG-6-31G_dp-NX-Scan-d89-09-n800
 OpenBabel11261920503D

 22 21  0  0  0  0  0  0  0  0999 V2000
   -1.4969   -1.9278    0.2684 C   0  0  0  0  0  0  0  0  0  0  0  0
   -1.7582   -3.0296    0.9880 N   0  0  0  0  0  0  0  0  0  0  0  0
   -1.9742   -3.9292    1.6301 N   0  0  0  0  0  0  0  0  0  0  0  0
   -1.6106   -1.9648   -1.1511 C   0  0  0  0  0  0  0  0  0  0  0  0
   -1.3816   -0.8064   -1.8410 C   0  0  0  0  0  0  0  0  0  0  0  0
   -1.0590    0.4018   -1.1481 C   0  0  0  0  0  0  0  0  0  0  0  0
   -0.9212    1.4642   -1.9044 O   0  0  0  0  0  0  0  0  0  0  0  0
   -0.7656    2.7801   -1.2780 C   0  0  0  0  0  0  0  0  0  0  0  0
   -0.9111    0.4102    0.2670 C   0  0  0  0  0  0  0  0  0  0  0  0
   -1.1340   -0.7433    0.9688 C   0  0  0  0  0  0  0  0  0  0  0  0
   -1.8810   -2.8855   -1.6558 H   0  0  0  0  0  0  0  0  0  0  0  0
   -1.4655   -0.7699   -2.9213 H   0  0  0  0  0  0  0  0  0  0  0  0
   -1.6253    2.9822   -0.6413 H   0  0  0  0  0  0  0  0  0  0  0  0
   -0.7032    3.4742   -2.1126 H   0  0  0  0  0  0  0  0  0  0  0  0
    0.1391    2.8088   -0.6710 H   0  0  0  0  0  0  0  0  0  0  0  0
   -0.6371    1.3056    0.8251 H   0  0  0  0  0  0  0  0  0  0  0  0
   -1.0455   -0.7516    2.0501 H   0  0  0  0  0  0  0  0  0  0  0  0
   -1.1658    3.4709    1.9200 B   0  0  0  0  0  0  0  0  0  0  0  0
   -1.0155    4.5015    0.9854 F   0  0  0  0  0  0  0  0  0  0  0  0
   -2.2540    2.6485    1.5091 F   0  0  0  0  0  0  0  0  0  0  0  0
    0.0147    2.6462    1.8563 F   0  0  0  0  0  0  0  0  0  0  0  0
   -1.3523    3.9336    3.2026 F   0  0  0  0  0  0  0  0  0  0  0  0
  1 10  2  0  0  0  0
  1  2  1  0  0  0  0
  2  3  1  0  0  0  0
  4  1  1  0  0  0  0
  5  4  2  0  0  0  0
  5  6  1  0  0  0  0
  6  9  2  0  0  0  0
  7  8  1  0  0  0  0
  7  6  1  0  0  0  0
  8 15  1  0  0  0  0
  8 13  1  0  0  0  0
  9 16  1  0  0  0  0
  9 10  1  0  0  0  0
 10 17  1  0  0  0  0
 11  4  1  0  0  0  0
 12  5  1  0  0  0  0
 14  8  1  0  0  0  0
 18 22  1  0  0  0  0
 19 18  1  0  0  0  0
 20 18  1  0  0  0  0
 21 18  1  0  0  0  0
M  RAD  2   2   2   3   3
M  END
