Coordinates from ORCA-job 4-MeOPhN2+~BF4-_B3LYPG-6-31G_dp-NX-Scan-d89-09-n800
 OpenBabel11261920503D

 22 21  0  0  0  0  0  0  0  0999 V2000
   -1.2285   -1.4408    0.4406 C   0  0  0  0  0  0  0  0  0  0  0  0
   -1.3662   -2.3557    1.4220 N   0  0  0  0  0  0  0  0  0  0  0  0
   -1.4630   -3.0659    2.2867 N   0  0  0  0  0  0  0  0  0  0  0  0
   -1.6431   -1.7389   -0.8889 C   0  0  0  0  0  0  0  0  0  0  0  0
   -1.5687   -0.7332   -1.8154 C   0  0  0  0  0  0  0  0  0  0  0  0
   -1.1078    0.5637   -1.4341 C   0  0  0  0  0  0  0  0  0  0  0  0
   -1.1731    1.4961   -2.3759 O   0  0  0  0  0  0  0  0  0  0  0  0
   -0.8295    2.8594   -2.0283 C   0  0  0  0  0  0  0  0  0  0  0  0
   -0.6461    0.8105   -0.1294 C   0  0  0  0  0  0  0  0  0  0  0  0
   -0.7275   -0.1764    0.8251 C   0  0  0  0  0  0  0  0  0  0  0  0
   -2.0184   -2.7230   -1.1448 H   0  0  0  0  0  0  0  0  0  0  0  0
   -1.8904   -0.8872   -2.8388 H   0  0  0  0  0  0  0  0  0  0  0  0
   -1.3307    3.1678   -1.1075 H   0  0  0  0  0  0  0  0  0  0  0  0
   -1.1614    3.4592   -2.8744 H   0  0  0  0  0  0  0  0  0  0  0  0
    0.2538    2.9492   -1.9063 H   0  0  0  0  0  0  0  0  0  0  0  0
   -0.3450    1.7953    0.2095 H   0  0  0  0  0  0  0  0  0  0  0  0
   -0.4669    0.0688    1.8533 H   0  0  0  0  0  0  0  0  0  0  0  0
   -1.4790    2.4119    2.5537 B   0  0  0  0  0  0  0  0  0  0  0  0
   -0.4003    1.5690    2.9759 F   0  0  0  0  0  0  0  0  0  0  0  0
   -1.0117    3.1848    1.4416 F   0  0  0  0  0  0  0  0  0  0  0  0
   -2.5166    1.5719    2.1044 F   0  0  0  0  0  0  0  0  0  0  0  0
   -1.8837    3.2332    3.5777 F   0  0  0  0  0  0  0  0  0  0  0  0
  1 10  1  0  0  0  0
  1  2  1  0  0  0  0
  2  3  1  0  0  0  0
  4  1  2  0  0  0  0
  5  6  2  0  0  0  0
  5  4  1  0  0  0  0
  6  9  1  0  0  0  0
  7  8  1  0  0  0  0
  7  6  1  0  0  0  0
  8 15  1  0  0  0  0
  8 13  1  0  0  0  0
  9 16  1  0  0  0  0
  9 10  2  0  0  0  0
 10 17  1  0  0  0  0
 11  4  1  0  0  0  0
 12  5  1  0  0  0  0
 14  8  1  0  0  0  0
 18 19  1  0  0  0  0
 18 22  1  0  0  0  0
 20 18  1  0  0  0  0
 21 18  1  0  0  0  0
M  RAD  2   2   2   3   3
M  END
