Coordinates from ORCA-job 4-MeOPhN2+~BF4-_B3LYPG-6-31G_dp-NX-Scan-d89-09-n800
 OpenBabel11261920503D

 22 21  0  0  0  0  0  0  0  0999 V2000
   -1.3854   -1.7240    0.3656 C   0  0  0  0  0  0  0  0  0  0  0  0
   -1.5903   -2.8020    1.1473 N   0  0  0  0  0  0  0  0  0  0  0  0
   -1.7647   -3.7179    1.7793 N   0  0  0  0  0  0  0  0  0  0  0  0
   -1.6130   -1.8632   -1.0365 C   0  0  0  0  0  0  0  0  0  0  0  0
   -1.4497   -0.7613   -1.8299 C   0  0  0  0  0  0  0  0  0  0  0  0
   -1.0662    0.4882   -1.2554 C   0  0  0  0  0  0  0  0  0  0  0  0
   -1.0148    1.5069   -2.0880 O   0  0  0  0  0  0  0  0  0  0  0  0
   -0.8035    2.8524   -1.5582 C   0  0  0  0  0  0  0  0  0  0  0  0
   -0.7843    0.5913    0.1289 C   0  0  0  0  0  0  0  0  0  0  0  0
   -0.9714   -0.4939    0.9487 C   0  0  0  0  0  0  0  0  0  0  0  0
   -1.9216   -2.8180   -1.4472 H   0  0  0  0  0  0  0  0  0  0  0  0
   -1.6332   -0.8048   -2.8974 H   0  0  0  0  0  0  0  0  0  0  0  0
   -1.5189    3.0531   -0.7577 H   0  0  0  0  0  0  0  0  0  0  0  0
   -0.9488    3.5049   -2.4171 H   0  0  0  0  0  0  0  0  0  0  0  0
    0.2101    2.9458   -1.1659 H   0  0  0  0  0  0  0  0  0  0  0  0
   -0.4463    1.5245    0.5679 H   0  0  0  0  0  0  0  0  0  0  0  0
   -0.8331   -0.3669    2.0173 H   0  0  0  0  0  0  0  0  0  0  0  0
   -1.3067    3.0043    2.1565 B   0  0  0  0  0  0  0  0  0  0  0  0
   -0.1344    3.3029    1.3934 F   0  0  0  0  0  0  0  0  0  0  0  0
   -2.3733    2.8700    1.2295 F   0  0  0  0  0  0  0  0  0  0  0  0
   -1.0973    1.7424    2.7809 F   0  0  0  0  0  0  0  0  0  0  0  0
   -1.5570    3.9850    3.0844 F   0  0  0  0  0  0  0  0  0  0  0  0
  1 10  1  0  0  0  0
  1  2  1  0  0  0  0
  2  3  1  0  0  0  0
  4  1  2  0  0  0  0
  5  6  2  0  0  0  0
  5  4  1  0  0  0  0
  6  9  1  0  0  0  0
  7  8  1  0  0  0  0
  7  6  1  0  0  0  0
  8 15  1  0  0  0  0
  8 13  1  0  0  0  0
  9 16  1  0  0  0  0
  9 10  2  0  0  0  0
 10 17  1  0  0  0  0
 11  4  1  0  0  0  0
 12  5  1  0  0  0  0
 14  8  1  0  0  0  0
 18 21  1  0  0  0  0
 18 22  1  0  0  0  0
 19 18  1  0  0  0  0
 20 18  1  0  0  0  0
M  RAD  2   2   2   3   3
M  END
