Coordinates from ORCA-job 4-MeOPhN2+~BF4-_B3LYPG-6-31G_dp-NX-Scan-d89-09-n800
 OpenBabel11261920503D

 22 21  0  0  0  0  0  0  0  0999 V2000
   -1.4181   -1.8046    0.3365 C   0  0  0  0  0  0  0  0  0  0  0  0
   -1.6142   -2.9099    1.0814 N   0  0  0  0  0  0  0  0  0  0  0  0
   -1.7831   -3.8525    1.6754 N   0  0  0  0  0  0  0  0  0  0  0  0
   -1.5794   -1.9185   -1.0776 C   0  0  0  0  0  0  0  0  0  0  0  0
   -1.4146   -0.7971   -1.8427 C   0  0  0  0  0  0  0  0  0  0  0  0
   -1.0956    0.4531   -1.2304 C   0  0  0  0  0  0  0  0  0  0  0  0
   -1.0168    1.4834   -2.0419 O   0  0  0  0  0  0  0  0  0  0  0  0
   -0.8284    2.8250   -1.4876 C   0  0  0  0  0  0  0  0  0  0  0  0
   -0.8951    0.5369    0.1707 C   0  0  0  0  0  0  0  0  0  0  0  0
   -1.0722   -0.5717    0.9589 C   0  0  0  0  0  0  0  0  0  0  0  0
   -1.8371   -2.8741   -1.5205 H   0  0  0  0  0  0  0  0  0  0  0  0
   -1.5421   -0.8274   -2.9189 H   0  0  0  0  0  0  0  0  0  0  0  0
   -1.5989    3.0331   -0.7426 H   0  0  0  0  0  0  0  0  0  0  0  0
   -0.8975    3.4824   -2.3519 H   0  0  0  0  0  0  0  0  0  0  0  0
    0.1484    2.9043   -1.0102 H   0  0  0  0  0  0  0  0  0  0  0  0
   -0.6237    1.4617    0.6598 H   0  0  0  0  0  0  0  0  0  0  0  0
   -0.9618   -0.4681    2.0335 H   0  0  0  0  0  0  0  0  0  0  0  0
   -1.2017    3.2016    2.1161 B   0  0  0  0  0  0  0  0  0  0  0  0
   -0.1570    3.6934    1.2936 F   0  0  0  0  0  0  0  0  0  0  0  0
   -2.3227    2.9483    1.2754 F   0  0  0  0  0  0  0  0  0  0  0  0
   -0.7775    1.9412    2.6445 F   0  0  0  0  0  0  0  0  0  0  0  0
   -1.5147    4.0793    3.1251 F   0  0  0  0  0  0  0  0  0  0  0  0
  1 10  1  0  0  0  0
  1  2  1  0  0  0  0
  2  3  1  0  0  0  0
  4  1  2  0  0  0  0
  5  6  2  0  0  0  0
  5  4  1  0  0  0  0
  6  9  1  0  0  0  0
  7  8  1  0  0  0  0
  7  6  1  0  0  0  0
  8 15  1  0  0  0  0
  8 13  1  0  0  0  0
  9 16  1  0  0  0  0
  9 10  2  0  0  0  0
 10 17  1  0  0  0  0
 11  4  1  0  0  0  0
 12  5  1  0  0  0  0
 14  8  1  0  0  0  0
 18 21  1  0  0  0  0
 18 22  1  0  0  0  0
 19 18  1  0  0  0  0
 20 18  1  0  0  0  0
M  RAD  2   2   2   3   3
M  END
