Coordinates from ORCA-job 4-MeOPhN2+~BF4-_B3LYPG-6-31G_dp-NX-Scan-d89-09-n800
 OpenBabel11261920503D

 22 21  0  0  0  0  0  0  0  0999 V2000
   -1.2633   -0.8565    0.5655 C   0  0  0  0  0  0  0  0  0  0  0  0
   -1.3590   -1.6469    1.6720 N   0  0  0  0  0  0  0  0  0  0  0  0
   -1.4380   -2.3455    2.5391 N   0  0  0  0  0  0  0  0  0  0  0  0
   -1.8152   -1.3454   -0.6455 C   0  0  0  0  0  0  0  0  0  0  0  0
   -1.7288   -0.5480   -1.7586 C   0  0  0  0  0  0  0  0  0  0  0  0
   -1.1086    0.7272   -1.6767 C   0  0  0  0  0  0  0  0  0  0  0  0
   -1.1025    1.4226   -2.8186 O   0  0  0  0  0  0  0  0  0  0  0  0
   -0.5521    2.7471   -2.8339 C   0  0  0  0  0  0  0  0  0  0  0  0
   -0.5581    1.1805   -0.4647 C   0  0  0  0  0  0  0  0  0  0  0  0
   -0.6340    0.3985    0.6739 C   0  0  0  0  0  0  0  0  0  0  0  0
   -2.2979   -2.3153   -0.6806 H   0  0  0  0  0  0  0  0  0  0  0  0
   -2.1402   -0.8622   -2.7105 H   0  0  0  0  0  0  0  0  0  0  0  0
   -1.0863    3.3984   -2.1358 H   0  0  0  0  0  0  0  0  0  0  0  0
   -0.6898    3.1059   -3.8533 H   0  0  0  0  0  0  0  0  0  0  0  0
    0.5148    2.7295   -2.5895 H   0  0  0  0  0  0  0  0  0  0  0  0
   -0.1040    2.1587   -0.3831 H   0  0  0  0  0  0  0  0  0  0  0  0
   -0.2389    0.7369    1.6319 H   0  0  0  0  0  0  0  0  0  0  0  0
   -1.6991    1.4932    3.3487 B   0  0  0  0  0  0  0  0  0  0  0  0
   -0.2722    1.3943    3.3671 F   0  0  0  0  0  0  0  0  0  0  0  0
   -2.0602    2.2263    2.2031 F   0  0  0  0  0  0  0  0  0  0  0  0
   -2.1975    0.1615    3.1901 F   0  0  0  0  0  0  0  0  0  0  0  0
   -2.1729    2.0590    4.5058 F   0  0  0  0  0  0  0  0  0  0  0  0
  1 10  1  0  0  0  0
  1  2  1  0  0  0  0
  2  3  1  0  0  0  0
  4  1  2  0  0  0  0
  5  6  2  0  0  0  0
  5  4  1  0  0  0  0
  6  9  1  0  0  0  0
  7  6  1  0  0  0  0
  8  7  1  0  0  0  0
  8 15  1  0  0  0  0
  8 13  1  0  0  0  0
  9 16  1  0  0  0  0
  9 10  2  0  0  0  0
 10 17  1  0  0  0  0
 11  4  1  0  0  0  0
 12  5  1  0  0  0  0
 14  8  1  0  0  0  0
 18 19  1  0  0  0  0
 18 22  1  0  0  0  0
 20 18  1  0  0  0  0
 21 18  1  0  0  0  0
M  RAD  2   2   2   3   3
M  END
