Coordinates from ORCA-job 4-MeOPhN2+~BF4-_B3LYPG-6-31G_dp-NX-Scan-d89-09-n800
 OpenBabel11261920503D

 22 21  0  0  0  0  0  0  0  0999 V2000
   -1.4030   -1.7841    0.3474 C   0  0  0  0  0  0  0  0  0  0  0  0
   -1.5949   -2.8883    1.0963 N   0  0  0  0  0  0  0  0  0  0  0  0
   -1.7605   -3.8336    1.6872 N   0  0  0  0  0  0  0  0  0  0  0  0
   -1.5792   -1.9052   -1.0644 C   0  0  0  0  0  0  0  0  0  0  0  0
   -1.4214   -0.7879   -1.8366 C   0  0  0  0  0  0  0  0  0  0  0  0
   -1.0914    0.4642   -1.2342 C   0  0  0  0  0  0  0  0  0  0  0  0
   -1.0244    1.4901   -2.0530 O   0  0  0  0  0  0  0  0  0  0  0  0
   -0.8315    2.8353   -1.5106 C   0  0  0  0  0  0  0  0  0  0  0  0
   -0.8714    0.5550    0.1635 C   0  0  0  0  0  0  0  0  0  0  0  0
   -1.0486   -0.5485    0.9605 C   0  0  0  0  0  0  0  0  0  0  0  0
   -1.8435   -2.8625   -1.4996 H   0  0  0  0  0  0  0  0  0  0  0  0
   -1.5630   -0.8226   -2.9108 H   0  0  0  0  0  0  0  0  0  0  0  0
   -1.5849    3.0433   -0.7479 H   0  0  0  0  0  0  0  0  0  0  0  0
   -0.9259    3.4876   -2.3765 H   0  0  0  0  0  0  0  0  0  0  0  0
    0.1571    2.9212   -1.0590 H   0  0  0  0  0  0  0  0  0  0  0  0
   -0.5814    1.4842    0.6359 H   0  0  0  0  0  0  0  0  0  0  0  0
   -0.9353   -0.4361    2.0339 H   0  0  0  0  0  0  0  0  0  0  0  0
   -1.2286    3.1478    2.1288 B   0  0  0  0  0  0  0  0  0  0  0  0
   -0.1073    3.5125    1.3313 F   0  0  0  0  0  0  0  0  0  0  0  0
   -2.3353    2.9956    1.2496 F   0  0  0  0  0  0  0  0  0  0  0  0
   -0.9508    1.8694    2.7006 F   0  0  0  0  0  0  0  0  0  0  0  0
   -1.4785    4.0823    3.1040 F   0  0  0  0  0  0  0  0  0  0  0  0
  1 10  1  0  0  0  0
  1  2  1  0  0  0  0
  2  3  1  0  0  0  0
  4  1  2  0  0  0  0
  5  6  2  0  0  0  0
  5  4  1  0  0  0  0
  6  9  1  0  0  0  0
  7  8  1  0  0  0  0
  7  6  1  0  0  0  0
  8 15  1  0  0  0  0
  8 13  1  0  0  0  0
  9 16  1  0  0  0  0
  9 10  2  0  0  0  0
 10 17  1  0  0  0  0
 11  4  1  0  0  0  0
 12  5  1  0  0  0  0
 14  8  1  0  0  0  0
 18 21  1  0  0  0  0
 18 22  1  0  0  0  0
 19 18  1  0  0  0  0
 20 18  1  0  0  0  0
M  RAD  2   2   2   3   3
M  END
