Coordinates from ORCA-job 4-MeOPhN2+~BF4-_B3LYPG-6-31G_dp-NX-Scan-d89-09-n800
 OpenBabel11261920503D

 22 21  0  0  0  0  0  0  0  0999 V2000
   -1.2943   -0.6869    0.5322 C   0  0  0  0  0  0  0  0  0  0  0  0
   -1.4680   -1.5069    1.6548 N   0  0  0  0  0  0  0  0  0  0  0  0
   -1.2693   -1.3933    2.8303 N   0  0  0  0  0  0  0  0  0  0  0  0
   -1.6567   -1.3002   -0.6850 C   0  0  0  0  0  0  0  0  0  0  0  0
   -1.5465   -0.6175   -1.8802 C   0  0  0  0  0  0  0  0  0  0  0  0
   -1.0719    0.7073   -1.8859 C   0  0  0  0  0  0  0  0  0  0  0  0
   -1.0009    1.2973   -3.0997 O   0  0  0  0  0  0  0  0  0  0  0  0
   -0.5389    2.6429   -3.1875 C   0  0  0  0  0  0  0  0  0  0  0  0
   -0.7115    1.3266   -0.6767 C   0  0  0  0  0  0  0  0  0  0  0  0
   -0.8187    0.6393    0.5268 C   0  0  0  0  0  0  0  0  0  0  0  0
   -2.0243   -2.3200   -0.6598 H   0  0  0  0  0  0  0  0  0  0  0  0
   -1.8217   -1.0756   -2.8235 H   0  0  0  0  0  0  0  0  0  0  0  0
   -1.1890    3.3256   -2.6285 H   0  0  0  0  0  0  0  0  0  0  0  0
   -0.5716    2.8985   -4.2468 H   0  0  0  0  0  0  0  0  0  0  0  0
    0.4904    2.7363   -2.8226 H   0  0  0  0  0  0  0  0  0  0  0  0
   -0.3480    2.3460   -0.6619 H   0  0  0  0  0  0  0  0  0  0  0  0
   -0.5452    1.1293    1.4476 H   0  0  0  0  0  0  0  0  0  0  0  0
   -1.9403    1.4261    4.0297 B   0  0  0  0  0  0  0  0  0  0  0  0
   -0.6786   -0.0763    3.2029 F   0  0  0  0  0  0  0  0  0  0  0  0
   -1.2079    2.4002    3.4901 F   0  0  0  0  0  0  0  0  0  0  0  0
   -3.0289    1.0148    3.3896 F   0  0  0  0  0  0  0  0  0  0  0  0
   -1.7620    1.1061    5.3006 F   0  0  0  0  0  0  0  0  0  0  0  0
  1  2  1  0  0  0  0
  2  3  1  0  0  0  0
  3 19  1  0  0  0  0
  4 11  1  0  0  0  0
  4  1  2  0  0  0  0
  5  4  1  0  0  0  0
  6  5  2  0  0  0  0
  6  9  1  0  0  0  0
  7  6  1  0  0  0  0
  8  7  1  0  0  0  0
  8 15  1  0  0  0  0
  8 13  1  0  0  0  0
  9 16  1  0  0  0  0
  9 10  2  0  0  0  0
 10  1  1  0  0  0  0
 10 17  1  0  0  0  0
 12  5  1  0  0  0  0
 14  8  1  0  0  0  0
 18 22  1  0  0  0  0
 20 18  1  0  0  0  0
 21 18  1  0  0  0  0
M  RAD  2   2   2   3   2
M  END
