Coordinates from ORCA-job 4-MeOPhN2+~BF4-_B3LYPG-6-31G_dp-NX-Scan-d89-09-n800
 OpenBabel11261920503D

 22 21  0  0  0  0  0  0  0  0999 V2000
   -1.4459   -1.8936    0.2957 C   0  0  0  0  0  0  0  0  0  0  0  0
   -1.6220   -3.0143    1.0176 N   0  0  0  0  0  0  0  0  0  0  0  0
   -1.7685   -3.9537    1.6220 N   0  0  0  0  0  0  0  0  0  0  0  0
   -1.5972   -1.9615   -1.1211 C   0  0  0  0  0  0  0  0  0  0  0  0
   -1.4319   -0.8128   -1.8444 C   0  0  0  0  0  0  0  0  0  0  0  0
   -1.1248    0.4198   -1.1892 C   0  0  0  0  0  0  0  0  0  0  0  0
   -1.0146    1.4656   -1.9740 O   0  0  0  0  0  0  0  0  0  0  0  0
   -0.7965    2.7929   -1.3939 C   0  0  0  0  0  0  0  0  0  0  0  0
   -0.9579    0.4641    0.2204 C   0  0  0  0  0  0  0  0  0  0  0  0
   -1.1202   -0.6777    0.9606 C   0  0  0  0  0  0  0  0  0  0  0  0
   -1.8424   -2.9034   -1.5990 H   0  0  0  0  0  0  0  0  0  0  0  0
   -1.5431   -0.8076   -2.9228 H   0  0  0  0  0  0  0  0  0  0  0  0
   -1.5839    3.0196   -0.6736 H   0  0  0  0  0  0  0  0  0  0  0  0
   -0.8103    3.4644   -2.2498 H   0  0  0  0  0  0  0  0  0  0  0  0
    0.1679    2.8303   -0.8866 H   0  0  0  0  0  0  0  0  0  0  0  0
   -0.7116    1.3711    0.7646 H   0  0  0  0  0  0  0  0  0  0  0  0
   -1.0071   -0.6329    2.0389 H   0  0  0  0  0  0  0  0  0  0  0  0
   -1.1622    3.4020    2.0384 B   0  0  0  0  0  0  0  0  0  0  0  0
   -0.3175    4.1561    1.2056 F   0  0  0  0  0  0  0  0  0  0  0  0
   -2.2888    2.9822    1.2672 F   0  0  0  0  0  0  0  0  0  0  0  0
   -0.4642    2.2063    2.4179 F   0  0  0  0  0  0  0  0  0  0  0  0
   -1.5611    4.1027    3.1523 F   0  0  0  0  0  0  0  0  0  0  0  0
  1 10  1  0  0  0  0
  1  2  1  0  0  0  0
  2  3  1  0  0  0  0
  4  1  2  0  0  0  0
  5  6  2  0  0  0  0
  5  4  1  0  0  0  0
  6  9  1  0  0  0  0
  7  8  1  0  0  0  0
  7  6  1  0  0  0  0
  8 15  1  0  0  0  0
  8 13  1  0  0  0  0
  9 16  1  0  0  0  0
  9 10  2  0  0  0  0
 10 17  1  0  0  0  0
 11  4  1  0  0  0  0
 12  5  1  0  0  0  0
 14  8  1  0  0  0  0
 18 21  1  0  0  0  0
 18 22  1  0  0  0  0
 19 18  1  0  0  0  0
 20 18  1  0  0  0  0
M  RAD  2   2   2   3   3
M  END
