Coordinates from ORCA-job 4-MeOPhN2+~BF4-_B3LYPG-6-31G_dp-NX-Scan-d89-09-n800
 OpenBabel11261920503D

 22 21  0  0  0  0  0  0  0  0999 V2000
   -1.2563   -1.3504    0.4365 C   0  0  0  0  0  0  0  0  0  0  0  0
   -1.3433   -2.2559    1.4367 N   0  0  0  0  0  0  0  0  0  0  0  0
   -1.4061   -2.9698    2.3006 N   0  0  0  0  0  0  0  0  0  0  0  0
   -1.5766   -1.7307   -0.8970 C   0  0  0  0  0  0  0  0  0  0  0  0
   -1.5135   -0.7598   -1.8599 C   0  0  0  0  0  0  0  0  0  0  0  0
   -1.1541    0.5777   -1.5139 C   0  0  0  0  0  0  0  0  0  0  0  0
   -1.1610    1.4402   -2.5269 O   0  0  0  0  0  0  0  0  0  0  0  0
   -0.8575    2.8253   -2.2659 C   0  0  0  0  0  0  0  0  0  0  0  0
   -0.8323    0.9231   -0.1900 C   0  0  0  0  0  0  0  0  0  0  0  0
   -0.8820   -0.0368    0.7996 C   0  0  0  0  0  0  0  0  0  0  0  0
   -1.8659   -2.7489   -1.1311 H   0  0  0  0  0  0  0  0  0  0  0  0
   -1.7513   -0.9777   -2.8947 H   0  0  0  0  0  0  0  0  0  0  0  0
   -1.5502    3.2411   -1.5296 H   0  0  0  0  0  0  0  0  0  0  0  0
   -0.9750    3.3288   -3.2241 H   0  0  0  0  0  0  0  0  0  0  0  0
    0.1707    2.9320   -1.9090 H   0  0  0  0  0  0  0  0  0  0  0  0
   -0.5976    1.9321    0.1342 H   0  0  0  0  0  0  0  0  0  0  0  0
   -0.6622    0.2298    1.8372 H   0  0  0  0  0  0  0  0  0  0  0  0
   -1.3758    2.3100    2.8499 B   0  0  0  0  0  0  0  0  0  0  0  0
   -0.5412    1.2378    3.3180 F   0  0  0  0  0  0  0  0  0  0  0  0
   -0.6516    3.0023    1.8380 F   0  0  0  0  0  0  0  0  0  0  0  0
   -2.5097    1.7198    2.2542 F   0  0  0  0  0  0  0  0  0  0  0  0
   -1.7113    3.1496    3.8836 F   0  0  0  0  0  0  0  0  0  0  0  0
  1 10  1  0  0  0  0
  1  2  1  0  0  0  0
  2  3  1  0  0  0  0
  4  1  2  0  0  0  0
  5  6  2  0  0  0  0
  5  4  1  0  0  0  0
  6  9  1  0  0  0  0
  7  8  1  0  0  0  0
  7  6  1  0  0  0  0
  8 15  1  0  0  0  0
  8 13  1  0  0  0  0
  9 16  1  0  0  0  0
  9 10  2  0  0  0  0
 10 17  1  0  0  0  0
 11  4  1  0  0  0  0
 12  5  1  0  0  0  0
 14  8  1  0  0  0  0
 18 19  1  0  0  0  0
 18 22  1  0  0  0  0
 20 18  1  0  0  0  0
 21 18  1  0  0  0  0
M  RAD  2   2   2   3   3
M  END
