Coordinates from ORCA-job 4-MeOPhN2+~BF4-_B3LYPG-6-31G_dp-NX-Scan-d89-09-n800
 OpenBabel11261920503D

 22 21  0  0  0  0  0  0  0  0999 V2000
   -1.2151   -0.7213    0.6099 C   0  0  0  0  0  0  0  0  0  0  0  0
   -1.2936   -1.4642    1.7545 N   0  0  0  0  0  0  0  0  0  0  0  0
   -1.3594   -2.1561    2.6264 N   0  0  0  0  0  0  0  0  0  0  0  0
   -1.7698   -1.2770   -0.5680 C   0  0  0  0  0  0  0  0  0  0  0  0
   -1.7024   -0.5371   -1.7233 C   0  0  0  0  0  0  0  0  0  0  0  0
   -1.0987    0.7464   -1.7144 C   0  0  0  0  0  0  0  0  0  0  0  0
   -1.1071    1.3814   -2.8920 O   0  0  0  0  0  0  0  0  0  0  0  0
   -0.5665    2.7061   -2.9820 C   0  0  0  0  0  0  0  0  0  0  0  0
   -0.5473    1.2701   -0.5301 C   0  0  0  0  0  0  0  0  0  0  0  0
   -0.6030    0.5446    0.6462 C   0  0  0  0  0  0  0  0  0  0  0  0
   -2.2408   -2.2531   -0.5496 H   0  0  0  0  0  0  0  0  0  0  0  0
   -2.1164   -0.9072   -2.6537 H   0  0  0  0  0  0  0  0  0  0  0  0
   -1.1037    3.3923   -2.3202 H   0  0  0  0  0  0  0  0  0  0  0  0
   -0.7091    3.0075   -4.0191 H   0  0  0  0  0  0  0  0  0  0  0  0
    0.5012    2.7104   -2.7398 H   0  0  0  0  0  0  0  0  0  0  0  0
   -0.1002    2.2546   -0.5063 H   0  0  0  0  0  0  0  0  0  0  0  0
   -0.2234    0.9193    1.5913 H   0  0  0  0  0  0  0  0  0  0  0  0
   -1.7693    1.3060    3.4514 B   0  0  0  0  0  0  0  0  0  0  0  0
   -0.4638    0.7043    3.5025 F   0  0  0  0  0  0  0  0  0  0  0  0
   -1.7026    2.3637    2.5282 F   0  0  0  0  0  0  0  0  0  0  0  0
   -2.6486    0.3098    2.9350 F   0  0  0  0  0  0  0  0  0  0  0  0
   -2.1641    1.7192    4.6996 F   0  0  0  0  0  0  0  0  0  0  0  0
  1 10  1  0  0  0  0
  1  2  1  0  0  0  0
  2  3  1  0  0  0  0
  4 11  1  0  0  0  0
  4  1  2  0  0  0  0
  5  6  2  0  0  0  0
  5  4  1  0  0  0  0
  6  9  1  0  0  0  0
  7  6  1  0  0  0  0
  8  7  1  0  0  0  0
  8 15  1  0  0  0  0
  8 13  1  0  0  0  0
  9 16  1  0  0  0  0
  9 10  2  0  0  0  0
 10 17  1  0  0  0  0
 12  5  1  0  0  0  0
 14  8  1  0  0  0  0
 18 19  1  0  0  0  0
 18 22  1  0  0  0  0
 20 18  1  0  0  0  0
 21 18  1  0  0  0  0
M  RAD  2   2   2   3   3
M  END
