Coordinates from ORCA-job 4-MeOPhN2+~BF4-_B3LYPG-6-31G_dp-NX-Scan-d89-09-n800
 OpenBabel11261920503D

 22 21  0  0  0  0  0  0  0  0999 V2000
   -1.4438   -1.8861    0.2978 C   0  0  0  0  0  0  0  0  0  0  0  0
   -1.6195   -3.0040    1.0241 N   0  0  0  0  0  0  0  0  0  0  0  0
   -1.7658   -3.9407    1.6329 N   0  0  0  0  0  0  0  0  0  0  0  0
   -1.5926   -1.9591   -1.1191 C   0  0  0  0  0  0  0  0  0  0  0  0
   -1.4284   -0.8125   -1.8462 C   0  0  0  0  0  0  0  0  0  0  0  0
   -1.1248    0.4229   -1.1946 C   0  0  0  0  0  0  0  0  0  0  0  0
   -1.0169    1.4674   -1.9816 O   0  0  0  0  0  0  0  0  0  0  0  0
   -0.8016    2.7959   -1.4034 C   0  0  0  0  0  0  0  0  0  0  0  0
   -0.9596    0.4713    0.2148 C   0  0  0  0  0  0  0  0  0  0  0  0
   -1.1214   -0.6676    0.9592 C   0  0  0  0  0  0  0  0  0  0  0  0
   -1.8353   -2.9030   -1.5941 H   0  0  0  0  0  0  0  0  0  0  0  0
   -1.5382   -0.8113   -2.9248 H   0  0  0  0  0  0  0  0  0  0  0  0
   -1.5881    3.0218   -0.6817 H   0  0  0  0  0  0  0  0  0  0  0  0
   -0.8187    3.4662   -2.2602 H   0  0  0  0  0  0  0  0  0  0  0  0
    0.1632    2.8366   -0.8972 H   0  0  0  0  0  0  0  0  0  0  0  0
   -0.7163    1.3793    0.7572 H   0  0  0  0  0  0  0  0  0  0  0  0
   -1.0106   -0.6170    2.0375 H   0  0  0  0  0  0  0  0  0  0  0  0
   -1.1602    3.3842    2.0473 B   0  0  0  0  0  0  0  0  0  0  0  0
   -0.2920    4.1142    1.2170 F   0  0  0  0  0  0  0  0  0  0  0  0
   -2.2877    2.9824    1.2679 F   0  0  0  0  0  0  0  0  0  0  0  0
   -0.4905    2.1775    2.4414 F   0  0  0  0  0  0  0  0  0  0  0  0
   -1.5549    4.1014    3.1522 F   0  0  0  0  0  0  0  0  0  0  0  0
  1 10  1  0  0  0  0
  1  2  1  0  0  0  0
  2  3  1  0  0  0  0
  4  1  2  0  0  0  0
  5  6  2  0  0  0  0
  5  4  1  0  0  0  0
  6  9  1  0  0  0  0
  7  8  1  0  0  0  0
  7  6  1  0  0  0  0
  8 15  1  0  0  0  0
  8 13  1  0  0  0  0
  9 16  1  0  0  0  0
  9 10  2  0  0  0  0
 10 17  1  0  0  0  0
 11  4  1  0  0  0  0
 12  5  1  0  0  0  0
 14  8  1  0  0  0  0
 18 21  1  0  0  0  0
 18 22  1  0  0  0  0
 19 18  1  0  0  0  0
 20 18  1  0  0  0  0
M  RAD  2   2   2   3   3
M  END
