Coordinates from ORCA-job 4-MeOPhN2+~BF4-_B3LYPG-6-31G_dp-NX-Scan-d89-09-n800
 OpenBabel11261920503D

 22 21  0  0  0  0  0  0  0  0999 V2000
   -1.4333   -1.8763    0.3016 C   0  0  0  0  0  0  0  0  0  0  0  0
   -1.5990   -2.9957    1.0289 N   0  0  0  0  0  0  0  0  0  0  0  0
   -1.7376   -3.9361    1.6340 N   0  0  0  0  0  0  0  0  0  0  0  0
   -1.5775   -1.9557   -1.1157 C   0  0  0  0  0  0  0  0  0  0  0  0
   -1.4235   -0.8104   -1.8468 C   0  0  0  0  0  0  0  0  0  0  0  0
   -1.1326    0.4305   -1.1999 C   0  0  0  0  0  0  0  0  0  0  0  0
   -1.0319    1.4719   -1.9918 O   0  0  0  0  0  0  0  0  0  0  0  0
   -0.8194    2.8034   -1.4202 C   0  0  0  0  0  0  0  0  0  0  0  0
   -0.9727    0.4856    0.2096 C   0  0  0  0  0  0  0  0  0  0  0  0
   -1.1263   -0.6515    0.9592 C   0  0  0  0  0  0  0  0  0  0  0  0
   -1.8089   -2.9039   -1.5879 H   0  0  0  0  0  0  0  0  0  0  0  0
   -1.5307   -0.8146   -2.9256 H   0  0  0  0  0  0  0  0  0  0  0  0
   -1.6077    3.0333   -0.7015 H   0  0  0  0  0  0  0  0  0  0  0  0
   -0.8343    3.4688   -2.2809 H   0  0  0  0  0  0  0  0  0  0  0  0
    0.1419    2.8465   -0.9079 H   0  0  0  0  0  0  0  0  0  0  0  0
   -0.7416    1.3958    0.7512 H   0  0  0  0  0  0  0  0  0  0  0  0
   -1.0218   -0.5906    2.0376 H   0  0  0  0  0  0  0  0  0  0  0  0
   -1.1515    3.3565    2.0626 B   0  0  0  0  0  0  0  0  0  0  0  0
   -0.1935    3.9738    1.2358 F   0  0  0  0  0  0  0  0  0  0  0  0
   -2.2845    3.0270    1.2586 F   0  0  0  0  0  0  0  0  0  0  0  0
   -0.6056    2.1113    2.5202 F   0  0  0  0  0  0  0  0  0  0  0  0
   -1.5120    4.1502    3.1254 F   0  0  0  0  0  0  0  0  0  0  0  0
  1 10  1  0  0  0  0
  1  2  1  0  0  0  0
  2  3  1  0  0  0  0
  4  1  2  0  0  0  0
  5  6  2  0  0  0  0
  5  4  1  0  0  0  0
  6  9  1  0  0  0  0
  7  8  1  0  0  0  0
  7  6  1  0  0  0  0
  8 15  1  0  0  0  0
  8 13  1  0  0  0  0
  9 16  1  0  0  0  0
  9 10  2  0  0  0  0
 10 17  1  0  0  0  0
 11  4  1  0  0  0  0
 12  5  1  0  0  0  0
 14  8  1  0  0  0  0
 18 21  1  0  0  0  0
 18 22  1  0  0  0  0
 19 18  1  0  0  0  0
 20 18  1  0  0  0  0
M  RAD  2   2   2   3   3
M  END
