Coordinates from ORCA-job 4-MeOPhN2+~BF4-_B3LYPG-6-31G_dp-NX-Scan-d89-09-n800
 OpenBabel11261920503D

 22 21  0  0  0  0  0  0  0  0999 V2000
   -1.2622   -0.8573    0.5645 C   0  0  0  0  0  0  0  0  0  0  0  0
   -1.3579   -1.6452    1.6728 N   0  0  0  0  0  0  0  0  0  0  0  0
   -1.4348   -2.3390    2.5439 N   0  0  0  0  0  0  0  0  0  0  0  0
   -1.8139   -1.3466   -0.6462 C   0  0  0  0  0  0  0  0  0  0  0  0
   -1.7277   -0.5487   -1.7591 C   0  0  0  0  0  0  0  0  0  0  0  0
   -1.1086    0.7270   -1.6770 C   0  0  0  0  0  0  0  0  0  0  0  0
   -1.1030    1.4225   -2.8188 O   0  0  0  0  0  0  0  0  0  0  0  0
   -0.5533    2.7473   -2.8339 C   0  0  0  0  0  0  0  0  0  0  0  0
   -0.5587    1.1808   -0.4648 C   0  0  0  0  0  0  0  0  0  0  0  0
   -0.6338    0.3980    0.6732 C   0  0  0  0  0  0  0  0  0  0  0  0
   -2.2962   -2.3167   -0.6816 H   0  0  0  0  0  0  0  0  0  0  0  0
   -2.1387   -0.8630   -2.7112 H   0  0  0  0  0  0  0  0  0  0  0  0
   -1.0881    3.3984   -2.1360 H   0  0  0  0  0  0  0  0  0  0  0  0
   -0.6908    3.1060   -3.8533 H   0  0  0  0  0  0  0  0  0  0  0  0
    0.5135    2.7303   -2.5890 H   0  0  0  0  0  0  0  0  0  0  0  0
   -0.1056    2.1594   -0.3829 H   0  0  0  0  0  0  0  0  0  0  0  0
   -0.2398    0.7344    1.6325 H   0  0  0  0  0  0  0  0  0  0  0  0
   -1.6995    1.4928    3.3484 B   0  0  0  0  0  0  0  0  0  0  0  0
   -0.2734    1.3815    3.3686 F   0  0  0  0  0  0  0  0  0  0  0  0
   -2.0526    2.2330    2.2050 F   0  0  0  0  0  0  0  0  0  0  0  0
   -2.2088    0.1660    3.1846 F   0  0  0  0  0  0  0  0  0  0  0  0
   -2.1698    2.0587    4.5069 F   0  0  0  0  0  0  0  0  0  0  0  0
  1 10  1  0  0  0  0
  1  2  1  0  0  0  0
  2  3  1  0  0  0  0
  4  1  2  0  0  0  0
  5  6  2  0  0  0  0
  5  4  1  0  0  0  0
  6  9  1  0  0  0  0
  7  6  1  0  0  0  0
  8  7  1  0  0  0  0
  8 15  1  0  0  0  0
  8 13  1  0  0  0  0
  9 16  1  0  0  0  0
  9 10  2  0  0  0  0
 10 17  1  0  0  0  0
 11  4  1  0  0  0  0
 12  5  1  0  0  0  0
 14  8  1  0  0  0  0
 18 19  1  0  0  0  0
 18 22  1  0  0  0  0
 20 18  1  0  0  0  0
 21 18  1  0  0  0  0
M  RAD  2   2   2   3   3
M  END
