Coordinates from ORCA-job 4-MeOPhN2+~BF4-_B3LYPG-6-31G_dp-NX-Scan-d89-09-n800
 OpenBabel11261920503D

 22 21  0  0  0  0  0  0  0  0999 V2000
   -1.3746   -1.6942    0.3681 C   0  0  0  0  0  0  0  0  0  0  0  0
   -1.5830   -2.7496    1.1773 N   0  0  0  0  0  0  0  0  0  0  0  0
   -1.7538   -3.6327    1.8544 N   0  0  0  0  0  0  0  0  0  0  0  0
   -1.6319   -1.8423   -1.0272 C   0  0  0  0  0  0  0  0  0  0  0  0
   -1.4690   -0.7473   -1.8310 C   0  0  0  0  0  0  0  0  0  0  0  0
   -1.0594    0.5008   -1.2715 C   0  0  0  0  0  0  0  0  0  0  0  0
   -1.0177    1.5175   -2.1087 O   0  0  0  0  0  0  0  0  0  0  0  0
   -0.7844    2.8601   -1.5837 C   0  0  0  0  0  0  0  0  0  0  0  0
   -0.7445    0.6082    0.1039 C   0  0  0  0  0  0  0  0  0  0  0  0
   -0.9311   -0.4680    0.9344 C   0  0  0  0  0  0  0  0  0  0  0  0
   -1.9623   -2.7955   -1.4244 H   0  0  0  0  0  0  0  0  0  0  0  0
   -1.6755   -0.7947   -2.8941 H   0  0  0  0  0  0  0  0  0  0  0  0
   -1.4732    3.0631   -0.7607 H   0  0  0  0  0  0  0  0  0  0  0  0
   -0.9544    3.5158   -2.4358 H   0  0  0  0  0  0  0  0  0  0  0  0
    0.2434    2.9485   -1.2272 H   0  0  0  0  0  0  0  0  0  0  0  0
   -0.3939    1.5415    0.5353 H   0  0  0  0  0  0  0  0  0  0  0  0
   -0.7805   -0.3352    2.0005 H   0  0  0  0  0  0  0  0  0  0  0  0
   -1.3463    2.9275    2.1753 B   0  0  0  0  0  0  0  0  0  0  0  0
   -0.1420    3.1956    1.4484 F   0  0  0  0  0  0  0  0  0  0  0  0
   -2.3803    2.7970    1.2117 F   0  0  0  0  0  0  0  0  0  0  0  0
   -1.1771    1.6750    2.8255 F   0  0  0  0  0  0  0  0  0  0  0  0
   -1.6123    3.9287    3.0762 F   0  0  0  0  0  0  0  0  0  0  0  0
  1 10  1  0  0  0  0
  1  2  1  0  0  0  0
  2  3  1  0  0  0  0
  4  1  2  0  0  0  0
  5  6  2  0  0  0  0
  5  4  1  0  0  0  0
  6  9  1  0  0  0  0
  7  8  1  0  0  0  0
  7  6  1  0  0  0  0
  8 15  1  0  0  0  0
  8 13  1  0  0  0  0
  9 16  1  0  0  0  0
  9 10  2  0  0  0  0
 10 17  1  0  0  0  0
 11  4  1  0  0  0  0
 12  5  1  0  0  0  0
 14  8  1  0  0  0  0
 18 21  1  0  0  0  0
 18 22  1  0  0  0  0
 19 18  1  0  0  0  0
 20 18  1  0  0  0  0
M  RAD  2   2   2   3   3
M  END
