Coordinates from ORCA-job 4-MeOPhN2+~BF4-_B3LYPG-6-31G_dp-NX-Scan-d89-09-n800
 OpenBabel11261920503D

 22 21  0  0  0  0  0  0  0  0999 V2000
   -1.2306   -1.4537    0.4392 C   0  0  0  0  0  0  0  0  0  0  0  0
   -1.3656   -2.3775    1.4122 N   0  0  0  0  0  0  0  0  0  0  0  0
   -1.4607   -3.0980    2.2685 N   0  0  0  0  0  0  0  0  0  0  0  0
   -1.6399   -1.7458   -0.8935 C   0  0  0  0  0  0  0  0  0  0  0  0
   -1.5660   -0.7353   -1.8148 C   0  0  0  0  0  0  0  0  0  0  0  0
   -1.1096    0.5608   -1.4254 C   0  0  0  0  0  0  0  0  0  0  0  0
   -1.1735    1.4975   -2.3625 O   0  0  0  0  0  0  0  0  0  0  0  0
   -0.8309    2.8601   -2.0087 C   0  0  0  0  0  0  0  0  0  0  0  0
   -0.6531    0.8021   -0.1175 C   0  0  0  0  0  0  0  0  0  0  0  0
   -0.7353   -0.1895    0.8318 C   0  0  0  0  0  0  0  0  0  0  0  0
   -2.0108   -2.7300   -1.1557 H   0  0  0  0  0  0  0  0  0  0  0  0
   -1.8840   -0.8852   -2.8400 H   0  0  0  0  0  0  0  0  0  0  0  0
   -1.3288    3.1633   -1.0846 H   0  0  0  0  0  0  0  0  0  0  0  0
   -1.1661    3.4632   -2.8512 H   0  0  0  0  0  0  0  0  0  0  0  0
    0.2528    2.9500   -1.8901 H   0  0  0  0  0  0  0  0  0  0  0  0
   -0.3541    1.7864    0.2250 H   0  0  0  0  0  0  0  0  0  0  0  0
   -0.4769    0.0537    1.8605 H   0  0  0  0  0  0  0  0  0  0  0  0
   -1.4751    2.4366    2.5345 B   0  0  0  0  0  0  0  0  0  0  0  0
   -0.3871    1.5990    2.9419 F   0  0  0  0  0  0  0  0  0  0  0  0
   -1.0265    3.2058    1.4109 F   0  0  0  0  0  0  0  0  0  0  0  0
   -2.5178    1.5936    2.1052 F   0  0  0  0  0  0  0  0  0  0  0  0
   -1.8642    3.2625    3.5609 F   0  0  0  0  0  0  0  0  0  0  0  0
  1 10  1  0  0  0  0
  1  2  1  0  0  0  0
  2  3  1  0  0  0  0
  4  1  2  0  0  0  0
  5  6  2  0  0  0  0
  5  4  1  0  0  0  0
  6  9  1  0  0  0  0
  7  8  1  0  0  0  0
  7  6  1  0  0  0  0
  8 15  1  0  0  0  0
  8 13  1  0  0  0  0
  9 16  1  0  0  0  0
  9 10  2  0  0  0  0
 10 17  1  0  0  0  0
 11  4  1  0  0  0  0
 12  5  1  0  0  0  0
 14  8  1  0  0  0  0
 18 19  1  0  0  0  0
 18 22  1  0  0  0  0
 20 18  1  0  0  0  0
 21 18  1  0  0  0  0
M  RAD  2   2   2   3   3
M  END
