Coordinates from ORCA-job 4-MeOPhN2+~BF4-_B3LYPG-6-31G_dp-NX-Scan-d89-09-n800
 OpenBabel11261920503D

 22 21  0  0  0  0  0  0  0  0999 V2000
   -1.2427   -1.5342    0.4326 C   0  0  0  0  0  0  0  0  0  0  0  0
   -1.3523   -2.5246    1.3404 N   0  0  0  0  0  0  0  0  0  0  0  0
   -1.4367   -3.3366    2.1137 N   0  0  0  0  0  0  0  0  0  0  0  0
   -1.6125   -1.7897   -0.9205 C   0  0  0  0  0  0  0  0  0  0  0  0
   -1.5486   -0.7495   -1.8070 C   0  0  0  0  0  0  0  0  0  0  0  0
   -1.1309    0.5437   -1.3690 C   0  0  0  0  0  0  0  0  0  0  0  0
   -1.1810    1.4986   -2.2842 O   0  0  0  0  0  0  0  0  0  0  0  0
   -0.8443    2.8597   -1.9069 C   0  0  0  0  0  0  0  0  0  0  0  0
   -0.7185    0.7569   -0.0384 C   0  0  0  0  0  0  0  0  0  0  0  0
   -0.7990   -0.2642    0.8785 C   0  0  0  0  0  0  0  0  0  0  0  0
   -1.9451   -2.7760   -1.2231 H   0  0  0  0  0  0  0  0  0  0  0  0
   -1.8376   -0.8758   -2.8439 H   0  0  0  0  0  0  0  0  0  0  0  0
   -1.3384    3.1468   -0.9763 H   0  0  0  0  0  0  0  0  0  0  0  0
   -1.1803    3.4717   -2.7424 H   0  0  0  0  0  0  0  0  0  0  0  0
    0.2397    2.9466   -1.7888 H   0  0  0  0  0  0  0  0  0  0  0  0
   -0.4334    1.7366    0.3294 H   0  0  0  0  0  0  0  0  0  0  0  0
   -0.5622   -0.0422    1.9156 H   0  0  0  0  0  0  0  0  0  0  0  0
   -1.4372    2.6052    2.4359 B   0  0  0  0  0  0  0  0  0  0  0  0
   -0.3204    1.7776    2.7689 F   0  0  0  0  0  0  0  0  0  0  0  0
   -1.0690    3.3460    1.2600 F   0  0  0  0  0  0  0  0  0  0  0  0
   -2.5126    1.7628    2.1047 F   0  0  0  0  0  0  0  0  0  0  0  0
   -1.7406    3.4604    3.4672 F   0  0  0  0  0  0  0  0  0  0  0  0
  1 10  1  0  0  0  0
  1  2  1  0  0  0  0
  2  3  1  0  0  0  0
  4  1  2  0  0  0  0
  5  6  2  0  0  0  0
  5  4  1  0  0  0  0
  6  9  1  0  0  0  0
  7  8  1  0  0  0  0
  7  6  1  0  0  0  0
  8 15  1  0  0  0  0
  8 13  1  0  0  0  0
  9 16  1  0  0  0  0
  9 10  2  0  0  0  0
 10 17  1  0  0  0  0
 11  4  1  0  0  0  0
 12  5  1  0  0  0  0
 14  8  1  0  0  0  0
 18 19  1  0  0  0  0
 18 22  1  0  0  0  0
 20 18  1  0  0  0  0
 21 18  1  0  0  0  0
M  RAD  2   2   2   3   3
M  END
