Coordinates from ORCA-job 4-MeOPhN2+~BF4-_B3LYPG-6-31G_dp-NX-Scan-d89-09-n800
 OpenBabel11261920503D

 22 21  0  0  0  0  0  0  0  0999 V2000
   -1.3979   -1.7675    0.3512 C   0  0  0  0  0  0  0  0  0  0  0  0
   -1.5940   -2.8637    1.1102 N   0  0  0  0  0  0  0  0  0  0  0  0
   -1.7625   -3.7998    1.7145 N   0  0  0  0  0  0  0  0  0  0  0  0
   -1.5746   -1.8976   -1.0596 C   0  0  0  0  0  0  0  0  0  0  0  0
   -1.4161   -0.7847   -1.8383 C   0  0  0  0  0  0  0  0  0  0  0  0
   -1.0856    0.4703   -1.2426 C   0  0  0  0  0  0  0  0  0  0  0  0
   -1.0232    1.4938   -2.0658 O   0  0  0  0  0  0  0  0  0  0  0  0
   -0.8353    2.8404   -1.5263 C   0  0  0  0  0  0  0  0  0  0  0  0
   -0.8619    0.5686    0.1534 C   0  0  0  0  0  0  0  0  0  0  0  0
   -1.0412   -0.5296    0.9573 C   0  0  0  0  0  0  0  0  0  0  0  0
   -1.8405   -2.8571   -1.4889 H   0  0  0  0  0  0  0  0  0  0  0  0
   -1.5590   -0.8253   -2.9122 H   0  0  0  0  0  0  0  0  0  0  0  0
   -1.5844    3.0443   -0.7582 H   0  0  0  0  0  0  0  0  0  0  0  0
   -0.9407    3.4916   -2.3918 H   0  0  0  0  0  0  0  0  0  0  0  0
    0.1565    2.9328   -1.0828 H   0  0  0  0  0  0  0  0  0  0  0  0
   -0.5706    1.5020    0.6184 H   0  0  0  0  0  0  0  0  0  0  0  0
   -0.9308   -0.4090    2.0301 H   0  0  0  0  0  0  0  0  0  0  0  0
   -1.2381    3.1073    2.1420 B   0  0  0  0  0  0  0  0  0  0  0  0
   -0.0972    3.4195    1.3448 F   0  0  0  0  0  0  0  0  0  0  0  0
   -2.3431    2.9928    1.2573 F   0  0  0  0  0  0  0  0  0  0  0  0
   -1.0114    1.8272    2.7289 F   0  0  0  0  0  0  0  0  0  0  0  0
   -1.4524    4.0633    3.1050 F   0  0  0  0  0  0  0  0  0  0  0  0
  1 10  1  0  0  0  0
  1  2  1  0  0  0  0
  2  3  1  0  0  0  0
  4  1  2  0  0  0  0
  5  6  2  0  0  0  0
  5  4  1  0  0  0  0
  6  9  1  0  0  0  0
  7  8  1  0  0  0  0
  7  6  1  0  0  0  0
  8 15  1  0  0  0  0
  8 13  1  0  0  0  0
  9 16  1  0  0  0  0
  9 10  2  0  0  0  0
 10 17  1  0  0  0  0
 11  4  1  0  0  0  0
 12  5  1  0  0  0  0
 14  8  1  0  0  0  0
 18 21  1  0  0  0  0
 18 22  1  0  0  0  0
 19 18  1  0  0  0  0
 20 18  1  0  0  0  0
M  RAD  2   2   2   3   3
M  END
