Coordinates from ORCA-job 4-MeOPhN2+~BF4-_B3LYPG-6-31G_dp-NX-Scan-d89-09-n800
 OpenBabel11261920503D

 22 21  0  0  0  0  0  0  0  0999 V2000
   -1.3218   -0.6467    0.5552 C   0  0  0  0  0  0  0  0  0  0  0  0
   -1.4499   -1.3711    1.7252 N   0  0  0  0  0  0  0  0  0  0  0  0
   -1.3643   -1.4802    2.8624 N   0  0  0  0  0  0  0  0  0  0  0  0
   -1.6782   -1.2912   -0.6461 C   0  0  0  0  0  0  0  0  0  0  0  0
   -1.5617   -0.6073   -1.8369 C   0  0  0  0  0  0  0  0  0  0  0  0
   -1.0896    0.7236   -1.8406 C   0  0  0  0  0  0  0  0  0  0  0  0
   -1.0142    1.3032   -3.0508 O   0  0  0  0  0  0  0  0  0  0  0  0
   -0.5579    2.6545   -3.1523 C   0  0  0  0  0  0  0  0  0  0  0  0
   -0.7358    1.3548   -0.6325 C   0  0  0  0  0  0  0  0  0  0  0  0
   -0.8501    0.6787    0.5723 C   0  0  0  0  0  0  0  0  0  0  0  0
   -2.0417   -2.3122   -0.6200 H   0  0  0  0  0  0  0  0  0  0  0  0
   -1.8286   -1.0652   -2.7821 H   0  0  0  0  0  0  0  0  0  0  0  0
   -1.2154    3.3358   -2.6021 H   0  0  0  0  0  0  0  0  0  0  0  0
   -0.5900    2.8952   -4.2145 H   0  0  0  0  0  0  0  0  0  0  0  0
    0.4693    2.7532   -2.7853 H   0  0  0  0  0  0  0  0  0  0  0  0
   -0.3794    2.3764   -0.6211 H   0  0  0  0  0  0  0  0  0  0  0  0
   -0.5948    1.1700    1.5031 H   0  0  0  0  0  0  0  0  0  0  0  0
   -1.7092    1.1849    3.7767 B   0  0  0  0  0  0  0  0  0  0  0  0
   -0.7212   -0.0024    3.5722 F   0  0  0  0  0  0  0  0  0  0  0  0
   -1.0234    2.2557    3.2291 F   0  0  0  0  0  0  0  0  0  0  0  0
   -2.8119    0.8302    3.0235 F   0  0  0  0  0  0  0  0  0  0  0  0
   -1.9340    1.2798    5.1111 F   0  0  0  0  0  0  0  0  0  0  0  0
  1 10  1  0  0  0  0
  1  2  1  0  0  0  0
  2  3  2  0  0  0  0
  4 11  1  0  0  0  0
  4  1  2  0  0  0  0
  5  4  1  0  0  0  0
  6  5  2  0  0  0  0
  6  9  1  0  0  0  0
  7  6  1  0  0  0  0
  8  7  1  0  0  0  0
  8 15  1  0  0  0  0
  8 13  1  0  0  0  0
  9 16  1  0  0  0  0
  9 10  2  0  0  0  0
 10 17  1  0  0  0  0
 12  5  1  0  0  0  0
 14  8  1  0  0  0  0
 18 22  1  0  0  0  0
 19 18  1  0  0  0  0
 20 18  1  0  0  0  0
 21 18  1  0  0  0  0
M  RAD  1   3   2
M  END
