Coordinates from ORCA-job 4-MeOPhN2+~BF4-_B3LYPG-6-31G_dp-NX-Scan-d89-09-n800
 OpenBabel11261920503D

 22 21  0  0  0  0  0  0  0  0999 V2000
   -1.3773   -0.6868    0.4638 C   0  0  0  0  0  0  0  0  0  0  0  0
   -1.6303   -1.5238    1.5688 N   0  0  0  0  0  0  0  0  0  0  0  0
   -1.4155   -1.3559    2.7574 N   0  0  0  0  0  0  0  0  0  0  0  0
   -1.6140   -1.3237   -0.7731 C   0  0  0  0  0  0  0  0  0  0  0  0
   -1.4305   -0.6568   -1.9691 C   0  0  0  0  0  0  0  0  0  0  0  0
   -1.0193    0.6877   -1.9613 C   0  0  0  0  0  0  0  0  0  0  0  0
   -0.8715    1.2639   -3.1776 O   0  0  0  0  0  0  0  0  0  0  0  0
   -0.4725    2.6289   -3.2470 C   0  0  0  0  0  0  0  0  0  0  0  0
   -0.7978    1.3402   -0.7377 C   0  0  0  0  0  0  0  0  0  0  0  0
   -0.9689    0.6625    0.4658 C   0  0  0  0  0  0  0  0  0  0  0  0
   -1.9431   -2.3568   -0.7592 H   0  0  0  0  0  0  0  0  0  0  0  0
   -1.6049   -1.1425   -2.9228 H   0  0  0  0  0  0  0  0  0  0  0  0
   -1.2002    3.2847   -2.7543 H   0  0  0  0  0  0  0  0  0  0  0  0
   -0.4284    2.8722   -4.3089 H   0  0  0  0  0  0  0  0  0  0  0  0
    0.5167    2.7809   -2.7992 H   0  0  0  0  0  0  0  0  0  0  0  0
   -0.4894    2.3777   -0.7105 H   0  0  0  0  0  0  0  0  0  0  0  0
   -0.8032    1.1932    1.3899 H   0  0  0  0  0  0  0  0  0  0  0  0
   -1.8960    1.5053    4.3770 B   0  0  0  0  0  0  0  0  0  0  0  0
   -0.8133   -0.1622    3.0590 F   0  0  0  0  0  0  0  0  0  0  0  0
   -1.3781    2.4230    3.5706 F   0  0  0  0  0  0  0  0  0  0  0  0
   -3.0936    1.0146    4.1190 F   0  0  0  0  0  0  0  0  0  0  0  0
   -1.2728    1.1935    5.4961 F   0  0  0  0  0  0  0  0  0  0  0  0
  1 10  1  0  0  0  0
  1  2  1  0  0  0  0
  2  3  1  0  0  0  0
  3 19  1  0  0  0  0
  4 11  1  0  0  0  0
  4  1  2  0  0  0  0
  5  6  2  0  0  0  0
  5  4  1  0  0  0  0
  6  9  1  0  0  0  0
  7  6  1  0  0  0  0
  8  7  1  0  0  0  0
  8 15  1  0  0  0  0
  8 13  1  0  0  0  0
  9 16  1  0  0  0  0
  9 10  2  0  0  0  0
 10 17  1  0  0  0  0
 12  5  1  0  0  0  0
 14  8  1  0  0  0  0
 18 22  1  0  0  0  0
 20 18  1  0  0  0  0
 21 18  1  0  0  0  0
M  RAD  2   2   2   3   2
M  END
