Coordinates from ORCA-job 4-MeOPhN2+~BF4-_B3LYPG-6-31G_dp-NX-Scan-d89-09-n800
 OpenBabel11261920503D

 22 21  0  0  0  0  0  0  0  0999 V2000
   -1.2485   -0.8035    0.5762 C   0  0  0  0  0  0  0  0  0  0  0  0
   -1.3354   -1.5721    1.7003 N   0  0  0  0  0  0  0  0  0  0  0  0
   -1.4042   -2.2582    2.5776 N   0  0  0  0  0  0  0  0  0  0  0  0
   -1.7904   -1.3251   -0.6243 C   0  0  0  0  0  0  0  0  0  0  0  0
   -1.7094   -0.5505   -1.7547 C   0  0  0  0  0  0  0  0  0  0  0  0
   -1.1053    0.7329   -1.6992 C   0  0  0  0  0  0  0  0  0  0  0  0
   -1.1003    1.4019   -2.8571 O   0  0  0  0  0  0  0  0  0  0  0  0
   -0.5583    2.7288   -2.9023 C   0  0  0  0  0  0  0  0  0  0  0  0
   -0.5671    1.2209   -0.4942 C   0  0  0  0  0  0  0  0  0  0  0  0
   -0.6355    0.4611    0.6596 C   0  0  0  0  0  0  0  0  0  0  0  0
   -2.2611   -2.3013   -0.6402 H   0  0  0  0  0  0  0  0  0  0  0  0
   -2.1124   -0.8912   -2.7010 H   0  0  0  0  0  0  0  0  0  0  0  0
   -1.1029    3.3952   -2.2266 H   0  0  0  0  0  0  0  0  0  0  0  0
   -0.6890    3.0600   -3.9318 H   0  0  0  0  0  0  0  0  0  0  0  0
    0.5065    2.7248   -2.6480 H   0  0  0  0  0  0  0  0  0  0  0  0
   -0.1232    2.2053   -0.4341 H   0  0  0  0  0  0  0  0  0  0  0  0
   -0.2523    0.8114    1.6171 H   0  0  0  0  0  0  0  0  0  0  0  0
   -1.7216    1.4221    3.4124 B   0  0  0  0  0  0  0  0  0  0  0  0
   -0.3298    1.0782    3.4559 F   0  0  0  0  0  0  0  0  0  0  0  0
   -1.8973    2.3363    2.3600 F   0  0  0  0  0  0  0  0  0  0  0  0
   -2.4242    0.2228    3.0805 F   0  0  0  0  0  0  0  0  0  0  0  0
   -2.1424    1.9201    4.6204 F   0  0  0  0  0  0  0  0  0  0  0  0
  1 10  1  0  0  0  0
  1  2  1  0  0  0  0
  2  3  1  0  0  0  0
  4  1  2  0  0  0  0
  5  6  2  0  0  0  0
  5  4  1  0  0  0  0
  6  9  1  0  0  0  0
  7  6  1  0  0  0  0
  8  7  1  0  0  0  0
  8 15  1  0  0  0  0
  8 13  1  0  0  0  0
  9 16  1  0  0  0  0
  9 10  2  0  0  0  0
 10 17  1  0  0  0  0
 11  4  1  0  0  0  0
 12  5  1  0  0  0  0
 14  8  1  0  0  0  0
 18 19  1  0  0  0  0
 18 22  1  0  0  0  0
 20 18  1  0  0  0  0
 21 18  1  0  0  0  0
M  RAD  2   2   2   3   3
M  END
