Coordinates from ORCA-job 4-MeOPhN2+~BF4-_B3LYPG-6-31G_dp-NX-Scan-d89-09-n800
 OpenBabel11261920503D

 22 21  0  0  0  0  0  0  0  0999 V2000
   -1.2194   -1.4549    0.4348 C   0  0  0  0  0  0  0  0  0  0  0  0
   -1.3396   -2.3806    1.4087 N   0  0  0  0  0  0  0  0  0  0  0  0
   -1.4222   -3.1030    2.2649 N   0  0  0  0  0  0  0  0  0  0  0  0
   -1.6236   -1.7544   -0.8977 C   0  0  0  0  0  0  0  0  0  0  0  0
   -1.5635   -0.7434   -1.8196 C   0  0  0  0  0  0  0  0  0  0  0  0
   -1.1234    0.5585   -1.4321 C   0  0  0  0  0  0  0  0  0  0  0  0
   -1.1950    1.4922   -2.3724 O   0  0  0  0  0  0  0  0  0  0  0  0
   -0.8592    2.8569   -2.0244 C   0  0  0  0  0  0  0  0  0  0  0  0
   -0.6741    0.8092   -0.1237 C   0  0  0  0  0  0  0  0  0  0  0  0
   -0.7436   -0.1826    0.8269 C   0  0  0  0  0  0  0  0  0  0  0  0
   -1.9797   -2.7441   -1.1596 H   0  0  0  0  0  0  0  0  0  0  0  0
   -1.8786   -0.8989   -2.8449 H   0  0  0  0  0  0  0  0  0  0  0  0
   -1.3619    3.1639   -1.1042 H   0  0  0  0  0  0  0  0  0  0  0  0
   -1.1945    3.4552   -2.8701 H   0  0  0  0  0  0  0  0  0  0  0  0
    0.2234    2.9529   -1.9009 H   0  0  0  0  0  0  0  0  0  0  0  0
   -0.3801    1.7952    0.2219 H   0  0  0  0  0  0  0  0  0  0  0  0
   -0.4974    0.0635    1.8598 H   0  0  0  0  0  0  0  0  0  0  0  0
   -1.4556    2.4455    2.5582 B   0  0  0  0  0  0  0  0  0  0  0  0
   -0.5236    1.4856    3.0715 F   0  0  0  0  0  0  0  0  0  0  0  0
   -0.7966    3.1696    1.5108 F   0  0  0  0  0  0  0  0  0  0  0  0
   -2.5271    1.7339    1.9871 F   0  0  0  0  0  0  0  0  0  0  0  0
   -1.8684    3.2997    3.5513 F   0  0  0  0  0  0  0  0  0  0  0  0
  1 10  1  0  0  0  0
  1  2  1  0  0  0  0
  2  3  1  0  0  0  0
  4  1  2  0  0  0  0
  5  6  2  0  0  0  0
  5  4  1  0  0  0  0
  6  9  1  0  0  0  0
  7  8  1  0  0  0  0
  7  6  1  0  0  0  0
  8 15  1  0  0  0  0
  8 13  1  0  0  0  0
  9 16  1  0  0  0  0
  9 10  2  0  0  0  0
 10 17  1  0  0  0  0
 11  4  1  0  0  0  0
 12  5  1  0  0  0  0
 14  8  1  0  0  0  0
 18 19  1  0  0  0  0
 18 22  1  0  0  0  0
 20 18  1  0  0  0  0
 21 18  1  0  0  0  0
M  RAD  2   2   2   3   3
M  END
