Coordinates from ORCA-job 4-MeOPhN2+~BF4-_B3LYPG-6-31G_dp-NX-Scan-d89-09-n800
 OpenBabel11261920503D

 22 21  0  0  0  0  0  0  0  0999 V2000
   -1.3792   -1.7014    0.3660 C   0  0  0  0  0  0  0  0  0  0  0  0
   -1.5892   -2.7603    1.1703 N   0  0  0  0  0  0  0  0  0  0  0  0
   -1.7616   -3.6473    1.8420 N   0  0  0  0  0  0  0  0  0  0  0  0
   -1.6244   -1.8481   -1.0317 C   0  0  0  0  0  0  0  0  0  0  0  0
   -1.4592   -0.7513   -1.8325 C   0  0  0  0  0  0  0  0  0  0  0  0
   -1.0586    0.4977   -1.2683 C   0  0  0  0  0  0  0  0  0  0  0  0
   -1.0138    1.5149   -2.1043 O   0  0  0  0  0  0  0  0  0  0  0  0
   -0.7917    2.8587   -1.5768 C   0  0  0  0  0  0  0  0  0  0  0  0
   -0.7554    0.6041    0.1101 C   0  0  0  0  0  0  0  0  0  0  0  0
   -0.9450   -0.4742    0.9373 C   0  0  0  0  0  0  0  0  0  0  0  0
   -1.9480   -2.8018   -1.4331 H   0  0  0  0  0  0  0  0  0  0  0  0
   -1.6567   -0.7979   -2.8974 H   0  0  0  0  0  0  0  0  0  0  0  0
   -1.4894    3.0581   -0.7605 H   0  0  0  0  0  0  0  0  0  0  0  0
   -0.9566    3.5135   -2.4306 H   0  0  0  0  0  0  0  0  0  0  0  0
    0.2314    2.9520   -1.2091 H   0  0  0  0  0  0  0  0  0  0  0  0
   -0.4083    1.5356    0.5477 H   0  0  0  0  0  0  0  0  0  0  0  0
   -0.8011   -0.3419    2.0045 H   0  0  0  0  0  0  0  0  0  0  0  0
   -1.3342    2.9447    2.1705 B   0  0  0  0  0  0  0  0  0  0  0  0
   -0.1437    3.2200    1.4235 F   0  0  0  0  0  0  0  0  0  0  0  0
   -2.3834    2.8109    1.2248 F   0  0  0  0  0  0  0  0  0  0  0  0
   -1.1472    1.6914    2.8153 F   0  0  0  0  0  0  0  0  0  0  0  0
   -1.5887    3.9423    3.0787 F   0  0  0  0  0  0  0  0  0  0  0  0
  1 10  1  0  0  0  0
  1  2  1  0  0  0  0
  2  3  1  0  0  0  0
  4  1  2  0  0  0  0
  5  6  2  0  0  0  0
  5  4  1  0  0  0  0
  6  9  1  0  0  0  0
  7  8  1  0  0  0  0
  7  6  1  0  0  0  0
  8 15  1  0  0  0  0
  8 13  1  0  0  0  0
  9 16  1  0  0  0  0
  9 10  2  0  0  0  0
 10 17  1  0  0  0  0
 11  4  1  0  0  0  0
 12  5  1  0  0  0  0
 14  8  1  0  0  0  0
 18 21  1  0  0  0  0
 18 22  1  0  0  0  0
 19 18  1  0  0  0  0
 20 18  1  0  0  0  0
M  RAD  2   2   2   3   3
M  END
