Coordinates from ORCA-job 4-MeOPhN2+~BF4-_B3LYPG-6-31G_dp-NX-Scan-d89-09-n800
 OpenBabel11261920503D

 22 21  0  0  0  0  0  0  0  0999 V2000
   -1.4625   -1.8921    0.2958 C   0  0  0  0  0  0  0  0  0  0  0  0
   -1.6774   -3.0000    1.0244 N   0  0  0  0  0  0  0  0  0  0  0  0
   -1.8519   -3.9203    1.6502 N   0  0  0  0  0  0  0  0  0  0  0  0
   -1.6659   -1.9378   -1.1144 C   0  0  0  0  0  0  0  0  0  0  0  0
   -1.4700   -0.7888   -1.8296 C   0  0  0  0  0  0  0  0  0  0  0  0
   -1.0882    0.4210   -1.1713 C   0  0  0  0  0  0  0  0  0  0  0  0
   -0.9699    1.4718   -1.9485 O   0  0  0  0  0  0  0  0  0  0  0  0
   -0.7211    2.7883   -1.3574 C   0  0  0  0  0  0  0  0  0  0  0  0
   -0.8607    0.4406    0.2314 C   0  0  0  0  0  0  0  0  0  0  0  0
   -1.0514   -0.7026    0.9610 C   0  0  0  0  0  0  0  0  0  0  0  0
   -1.9742   -2.8607   -1.5926 H   0  0  0  0  0  0  0  0  0  0  0  0
   -1.6203   -0.7630   -2.9029 H   0  0  0  0  0  0  0  0  0  0  0  0
   -1.5011    3.0192   -0.6321 H   0  0  0  0  0  0  0  0  0  0  0  0
   -0.7278    3.4706   -2.2046 H   0  0  0  0  0  0  0  0  0  0  0  0
    0.2502    2.7999   -0.8612 H   0  0  0  0  0  0  0  0  0  0  0  0
   -0.5566    1.3344    0.7735 H   0  0  0  0  0  0  0  0  0  0  0  0
   -0.9008   -0.6878    2.0353 H   0  0  0  0  0  0  0  0  0  0  0  0
   -1.2387    3.3973    1.9813 B   0  0  0  0  0  0  0  0  0  0  0  0
   -0.6875    4.3611    1.1256 F   0  0  0  0  0  0  0  0  0  0  0  0
   -2.3048    2.7442    1.2887 F   0  0  0  0  0  0  0  0  0  0  0  0
   -0.2411    2.3924    2.2248 F   0  0  0  0  0  0  0  0  0  0  0  0
   -1.6821    3.9318    3.1689 F   0  0  0  0  0  0  0  0  0  0  0  0
  1 10  1  0  0  0  0
  1  2  1  0  0  0  0
  2  3  1  0  0  0  0
  4  1  2  0  0  0  0
  5  6  2  0  0  0  0
  5  4  1  0  0  0  0
  6  9  1  0  0  0  0
  7  8  1  0  0  0  0
  7  6  1  0  0  0  0
  8 15  1  0  0  0  0
  8 13  1  0  0  0  0
  9 16  1  0  0  0  0
  9 10  2  0  0  0  0
 10 17  1  0  0  0  0
 11  4  1  0  0  0  0
 12  5  1  0  0  0  0
 14  8  1  0  0  0  0
 18 21  1  0  0  0  0
 18 22  1  0  0  0  0
 19 18  1  0  0  0  0
 20 18  1  0  0  0  0
M  RAD  2   2   2   3   3
M  END
