Coordinates from ORCA-job 4-MeOPhN2+~BF4-_B3LYPG-6-31G_dp-NX-Scan-d89-09-n800
 OpenBabel11261920503D

 22 21  0  0  0  0  0  0  0  0999 V2000
   -1.2671   -1.4801    0.4538 C   0  0  0  0  0  0  0  0  0  0  0  0
   -1.4488   -2.4409    1.3803 N   0  0  0  0  0  0  0  0  0  0  0  0
   -1.5950   -3.2315    2.1663 N   0  0  0  0  0  0  0  0  0  0  0  0
   -1.7028   -1.7140   -0.8834 C   0  0  0  0  0  0  0  0  0  0  0  0
   -1.5855   -0.6898   -1.7831 C   0  0  0  0  0  0  0  0  0  0  0  0
   -1.0573    0.5709   -1.3708 C   0  0  0  0  0  0  0  0  0  0  0  0
   -1.0884    1.5295   -2.2824 O   0  0  0  0  0  0  0  0  0  0  0  0
   -0.7340    2.8820   -1.8890 C   0  0  0  0  0  0  0  0  0  0  0  0
   -0.5628    0.7515   -0.0645 C   0  0  0  0  0  0  0  0  0  0  0  0
   -0.6949   -0.2508    0.8661 C   0  0  0  0  0  0  0  0  0  0  0  0
   -2.1290   -2.6708   -1.1626 H   0  0  0  0  0  0  0  0  0  0  0  0
   -1.9254   -0.7981   -2.8064 H   0  0  0  0  0  0  0  0  0  0  0  0
   -1.2523    3.1564   -0.9665 H   0  0  0  0  0  0  0  0  0  0  0  0
   -1.0476    3.5063   -2.7242 H   0  0  0  0  0  0  0  0  0  0  0  0
    0.3493    2.9545   -1.7550 H   0  0  0  0  0  0  0  0  0  0  0  0
   -0.1798    1.6954    0.2960 H   0  0  0  0  0  0  0  0  0  0  0  0
   -0.4183   -0.0541    1.8937 H   0  0  0  0  0  0  0  0  0  0  0  0
   -1.5481    2.4809    2.3798 B   0  0  0  0  0  0  0  0  0  0  0  0
   -0.1441    2.2123    2.3196 F   0  0  0  0  0  0  0  0  0  0  0  0
   -1.9392    2.9879    1.1080 F   0  0  0  0  0  0  0  0  0  0  0  0
   -2.2007    1.2417    2.5912 F   0  0  0  0  0  0  0  0  0  0  0  0
   -1.8318    3.3804    3.3797 F   0  0  0  0  0  0  0  0  0  0  0  0
  1 10  1  0  0  0  0
  1  2  1  0  0  0  0
  2  3  1  0  0  0  0
  4  1  2  0  0  0  0
  5  6  2  0  0  0  0
  5  4  1  0  0  0  0
  6  9  1  0  0  0  0
  7  8  1  0  0  0  0
  7  6  1  0  0  0  0
  8 15  1  0  0  0  0
  8 13  1  0  0  0  0
  9 16  1  0  0  0  0
  9 10  2  0  0  0  0
 10 17  1  0  0  0  0
 11  4  1  0  0  0  0
 12  5  1  0  0  0  0
 14  8  1  0  0  0  0
 18 21  1  0  0  0  0
 18 22  1  0  0  0  0
 19 18  1  0  0  0  0
 20 18  1  0  0  0  0
M  RAD  2   2   2   3   3
M  END
