Coordinates from ORCA-job 4-MeOPhN2+~BF4-_B3LYPG-6-31G_dp-NX-Scan-d89-09-n800
 OpenBabel11261920503D

 22 21  0  0  0  0  0  0  0  0999 V2000
   -1.3056   -0.5384    0.5552 C   0  0  0  0  0  0  0  0  0  0  0  0
   -1.4116   -1.2060    1.7500 N   0  0  0  0  0  0  0  0  0  0  0  0
   -1.4707   -1.6979    2.7573 N   0  0  0  0  0  0  0  0  0  0  0  0
   -1.5954   -1.2560   -0.6263 C   0  0  0  0  0  0  0  0  0  0  0  0
   -1.4871   -0.6048   -1.8338 C   0  0  0  0  0  0  0  0  0  0  0  0
   -1.0854    0.7512   -1.8741 C   0  0  0  0  0  0  0  0  0  0  0  0
   -1.0137    1.2875   -3.1011 O   0  0  0  0  0  0  0  0  0  0  0  0
   -0.6273    2.6583   -3.2472 C   0  0  0  0  0  0  0  0  0  0  0  0
   -0.7899    1.4430   -0.6837 C   0  0  0  0  0  0  0  0  0  0  0  0
   -0.9017    0.8094    0.5435 C   0  0  0  0  0  0  0  0  0  0  0  0
   -1.9039   -2.2940   -0.5742 H   0  0  0  0  0  0  0  0  0  0  0  0
   -1.7061   -1.1082   -2.7681 H   0  0  0  0  0  0  0  0  0  0  0  0
   -1.3313    3.3218   -2.7346 H   0  0  0  0  0  0  0  0  0  0  0  0
   -0.6519    2.8556   -4.3184 H   0  0  0  0  0  0  0  0  0  0  0  0
    0.3858    2.8239   -2.8663 H   0  0  0  0  0  0  0  0  0  0  0  0
   -0.4784    2.4790   -0.7048 H   0  0  0  0  0  0  0  0  0  0  0  0
   -0.6851    1.3188    1.4803 H   0  0  0  0  0  0  0  0  0  0  0  0
   -1.6048    1.0309    3.9025 B   0  0  0  0  0  0  0  0  0  0  0  0
   -1.2388   -0.3184    4.2715 F   0  0  0  0  0  0  0  0  0  0  0  0
   -0.4506    1.6410    3.3568 F   0  0  0  0  0  0  0  0  0  0  0  0
   -2.5667    0.9144    2.8736 F   0  0  0  0  0  0  0  0  0  0  0  0
   -2.0837    1.7084    4.9885 F   0  0  0  0  0  0  0  0  0  0  0  0
  1  2  1  0  0  0  0
  2  3  1  0  0  0  0
  4 11  1  0  0  0  0
  4  1  2  0  0  0  0
  5  4  1  0  0  0  0
  6  5  2  0  0  0  0
  6  9  1  0  0  0  0
  7  6  1  0  0  0  0
  8  7  1  0  0  0  0
  8 15  1  0  0  0  0
  8 13  1  0  0  0  0
  9 10  2  0  0  0  0
 10  1  1  0  0  0  0
 10 17  1  0  0  0  0
 12  5  1  0  0  0  0
 14  8  1  0  0  0  0
 16  9  1  0  0  0  0
 18 19  1  0  0  0  0
 18 22  1  0  0  0  0
 20 18  1  0  0  0  0
 21 18  1  0  0  0  0
M  RAD  2   2   2   3   3
M  END
