Coordinates from ORCA-job 4-MeOPhN2+~BF4-_B3LYPG-6-31G_dp-NX-Scan-d89-09-n800
 OpenBabel11261920503D

 22 21  0  0  0  0  0  0  0  0999 V2000
   -1.2467   -0.8202    0.5732 C   0  0  0  0  0  0  0  0  0  0  0  0
   -1.3186   -1.5976    1.6913 N   0  0  0  0  0  0  0  0  0  0  0  0
   -1.3701   -2.2765    2.5754 N   0  0  0  0  0  0  0  0  0  0  0  0
   -1.8108   -1.3226   -0.6256 C   0  0  0  0  0  0  0  0  0  0  0  0
   -1.7350   -0.5368   -1.7483 C   0  0  0  0  0  0  0  0  0  0  0  0
   -1.1124    0.7381   -1.6875 C   0  0  0  0  0  0  0  0  0  0  0  0
   -1.1109    1.4177   -2.8392 O   0  0  0  0  0  0  0  0  0  0  0  0
   -0.5475    2.7359   -2.8783 C   0  0  0  0  0  0  0  0  0  0  0  0
   -0.5546    1.2076   -0.4848 C   0  0  0  0  0  0  0  0  0  0  0  0
   -0.6200    0.4375    0.6625 C   0  0  0  0  0  0  0  0  0  0  0  0
   -2.2932   -2.2930   -0.6457 H   0  0  0  0  0  0  0  0  0  0  0  0
   -2.1545   -0.8619   -2.6930 H   0  0  0  0  0  0  0  0  0  0  0  0
   -1.0733    3.4048   -2.1903 H   0  0  0  0  0  0  0  0  0  0  0  0
   -0.6840    3.0790   -3.9032 H   0  0  0  0  0  0  0  0  0  0  0  0
    0.5198    2.7118   -2.6359 H   0  0  0  0  0  0  0  0  0  0  0  0
   -0.0997    2.1866   -0.4198 H   0  0  0  0  0  0  0  0  0  0  0  0
   -0.2245    0.7771    1.6195 H   0  0  0  0  0  0  0  0  0  0  0  0
   -1.7322    1.4327    3.3810 B   0  0  0  0  0  0  0  0  0  0  0  0
   -0.3198    1.1940    3.4220 F   0  0  0  0  0  0  0  0  0  0  0  0
   -1.9939    2.2441    2.2623 F   0  0  0  0  0  0  0  0  0  0  0  0
   -2.3511    0.1647    3.1581 F   0  0  0  0  0  0  0  0  0  0  0  0
   -2.1706    1.9967    4.5529 F   0  0  0  0  0  0  0  0  0  0  0  0
  1 10  1  0  0  0  0
  1  2  1  0  0  0  0
  2  3  1  0  0  0  0
  4  1  2  0  0  0  0
  5  6  2  0  0  0  0
  5  4  1  0  0  0  0
  6  9  1  0  0  0  0
  7  6  1  0  0  0  0
  8  7  1  0  0  0  0
  8 15  1  0  0  0  0
  8 13  1  0  0  0  0
  9 16  1  0  0  0  0
  9 10  2  0  0  0  0
 10 17  1  0  0  0  0
 11  4  1  0  0  0  0
 12  5  1  0  0  0  0
 14  8  1  0  0  0  0
 18 19  1  0  0  0  0
 18 22  1  0  0  0  0
 20 18  1  0  0  0  0
 21 18  1  0  0  0  0
M  RAD  2   2   2   3   3
M  END
