Coordinates from ORCA-job 4-MeOPhN2+~BF4-_B3LYPG-6-31G_dp-NX-Scan-d89-09-n800
 OpenBabel11261920503D

 22 21  0  0  0  0  0  0  0  0999 V2000
   -1.4134   -1.7951    0.3409 C   0  0  0  0  0  0  0  0  0  0  0  0
   -1.6084   -2.8991    1.0886 N   0  0  0  0  0  0  0  0  0  0  0  0
   -1.7764   -3.8417    1.6831 N   0  0  0  0  0  0  0  0  0  0  0  0
   -1.5808   -1.9124   -1.0722 C   0  0  0  0  0  0  0  0  0  0  0  0
   -1.4178   -0.7931   -1.8406 C   0  0  0  0  0  0  0  0  0  0  0  0
   -1.0933    0.4578   -1.2328 C   0  0  0  0  0  0  0  0  0  0  0  0
   -1.0187    1.4863   -2.0474 O   0  0  0  0  0  0  0  0  0  0  0  0
   -0.8280    2.8289   -1.4971 C   0  0  0  0  0  0  0  0  0  0  0  0
   -0.8847    0.5447    0.1668 C   0  0  0  0  0  0  0  0  0  0  0  0
   -1.0629   -0.5611    0.9592 C   0  0  0  0  0  0  0  0  0  0  0  0
   -1.8420   -2.8687   -1.5115 H   0  0  0  0  0  0  0  0  0  0  0  0
   -1.5511   -0.8256   -2.9160 H   0  0  0  0  0  0  0  0  0  0  0  0
   -1.5912    3.0364   -0.7444 H   0  0  0  0  0  0  0  0  0  0  0  0
   -0.9075    3.4851   -2.3615 H   0  0  0  0  0  0  0  0  0  0  0  0
    0.1539    2.9102   -1.0304 H   0  0  0  0  0  0  0  0  0  0  0  0
   -0.6049    1.4709    0.6491 H   0  0  0  0  0  0  0  0  0  0  0  0
   -0.9512   -0.4537    2.0333 H   0  0  0  0  0  0  0  0  0  0  0  0
   -1.2128    3.1781    2.1215 B   0  0  0  0  0  0  0  0  0  0  0  0
   -0.1417    3.6308    1.3074 F   0  0  0  0  0  0  0  0  0  0  0  0
   -2.3286    2.9544    1.2669 F   0  0  0  0  0  0  0  0  0  0  0  0
   -0.8324    1.9117    2.6658 F   0  0  0  0  0  0  0  0  0  0  0  0
   -1.5099    4.0750    3.1181 F   0  0  0  0  0  0  0  0  0  0  0  0
  1 10  1  0  0  0  0
  1  2  1  0  0  0  0
  2  3  1  0  0  0  0
  4  1  2  0  0  0  0
  5  6  2  0  0  0  0
  5  4  1  0  0  0  0
  6  9  1  0  0  0  0
  7  8  1  0  0  0  0
  7  6  1  0  0  0  0
  8 15  1  0  0  0  0
  8 13  1  0  0  0  0
  9 16  1  0  0  0  0
  9 10  2  0  0  0  0
 10 17  1  0  0  0  0
 11  4  1  0  0  0  0
 12  5  1  0  0  0  0
 14  8  1  0  0  0  0
 18 21  1  0  0  0  0
 18 22  1  0  0  0  0
 19 18  1  0  0  0  0
 20 18  1  0  0  0  0
M  RAD  2   2   2   3   3
M  END
