Coordinates from ORCA-job 4-MeOPhN2+~BF4-_B3LYPG-6-31G_dp-NX-Scan-d89-09-n800
 OpenBabel11261920503D

 22 21  0  0  0  0  0  0  0  0999 V2000
   -1.4166   -1.8001    0.3376 C   0  0  0  0  0  0  0  0  0  0  0  0
   -1.6125   -2.9034    1.0854 N   0  0  0  0  0  0  0  0  0  0  0  0
   -1.7809   -3.8435    1.6836 N   0  0  0  0  0  0  0  0  0  0  0  0
   -1.5802   -1.9158   -1.0760 C   0  0  0  0  0  0  0  0  0  0  0  0
   -1.4157   -0.7954   -1.8426 C   0  0  0  0  0  0  0  0  0  0  0  0
   -1.0945    0.4552   -1.2324 C   0  0  0  0  0  0  0  0  0  0  0  0
   -1.0171    1.4848   -2.0452 O   0  0  0  0  0  0  0  0  0  0  0  0
   -0.8277    2.8264   -1.4913 C   0  0  0  0  0  0  0  0  0  0  0  0
   -0.8910    0.5406    0.1681 C   0  0  0  0  0  0  0  0  0  0  0  0
   -1.0687   -0.5667    0.9581 C   0  0  0  0  0  0  0  0  0  0  0  0
   -1.8395   -2.8718   -1.5173 H   0  0  0  0  0  0  0  0  0  0  0  0
   -1.5454   -0.8268   -2.9185 H   0  0  0  0  0  0  0  0  0  0  0  0
   -1.5959    3.0336   -0.7437 H   0  0  0  0  0  0  0  0  0  0  0  0
   -0.8999    3.4842   -2.3551 H   0  0  0  0  0  0  0  0  0  0  0  0
    0.1507    2.9055   -1.0171 H   0  0  0  0  0  0  0  0  0  0  0  0
   -0.6169    1.4653    0.6556 H   0  0  0  0  0  0  0  0  0  0  0  0
   -0.9580   -0.4618    2.0325 H   0  0  0  0  0  0  0  0  0  0  0  0
   -1.2060    3.1906    2.1183 B   0  0  0  0  0  0  0  0  0  0  0  0
   -0.1534    3.6711    1.2985 F   0  0  0  0  0  0  0  0  0  0  0  0
   -2.3254    2.9462    1.2733 F   0  0  0  0  0  0  0  0  0  0  0  0
   -0.7940    1.9282    2.6509 F   0  0  0  0  0  0  0  0  0  0  0  0
   -1.5150    4.0733    3.1240 F   0  0  0  0  0  0  0  0  0  0  0  0
  1 10  1  0  0  0  0
  1  2  1  0  0  0  0
  2  3  1  0  0  0  0
  4  1  2  0  0  0  0
  5  6  2  0  0  0  0
  5  4  1  0  0  0  0
  6  9  1  0  0  0  0
  7  8  1  0  0  0  0
  7  6  1  0  0  0  0
  8 15  1  0  0  0  0
  8 13  1  0  0  0  0
  9 16  1  0  0  0  0
  9 10  2  0  0  0  0
 10 17  1  0  0  0  0
 11  4  1  0  0  0  0
 12  5  1  0  0  0  0
 14  8  1  0  0  0  0
 18 21  1  0  0  0  0
 18 22  1  0  0  0  0
 19 18  1  0  0  0  0
 20 18  1  0  0  0  0
M  RAD  2   2   2   3   3
M  END
