Coordinates from ORCA-job 4-MeOPhN2+~BF4-_B3LYPG-6-31G_dp-NX-Scan-d89-09-n800
 OpenBabel11261920503D

 22 21  0  0  0  0  0  0  0  0999 V2000
   -1.3071   -0.5397    0.5557 C   0  0  0  0  0  0  0  0  0  0  0  0
   -1.4160   -1.2080    1.7503 N   0  0  0  0  0  0  0  0  0  0  0  0
   -1.4751   -1.6833    2.7669 N   0  0  0  0  0  0  0  0  0  0  0  0
   -1.5952   -1.2568   -0.6263 C   0  0  0  0  0  0  0  0  0  0  0  0
   -1.4857   -0.6061   -1.8341 C   0  0  0  0  0  0  0  0  0  0  0  0
   -1.0843    0.7497   -1.8744 C   0  0  0  0  0  0  0  0  0  0  0  0
   -1.0118    1.2862   -3.1016 O   0  0  0  0  0  0  0  0  0  0  0  0
   -0.6265    2.6572   -3.2470 C   0  0  0  0  0  0  0  0  0  0  0  0
   -0.7900    1.4416   -0.6839 C   0  0  0  0  0  0  0  0  0  0  0  0
   -0.9032    0.8081    0.5433 C   0  0  0  0  0  0  0  0  0  0  0  0
   -1.9036   -2.2948   -0.5742 H   0  0  0  0  0  0  0  0  0  0  0  0
   -1.7037   -1.1099   -2.7685 H   0  0  0  0  0  0  0  0  0  0  0  0
   -1.3314    3.3200   -2.7345 H   0  0  0  0  0  0  0  0  0  0  0  0
   -0.6507    2.8550   -4.3181 H   0  0  0  0  0  0  0  0  0  0  0  0
    0.3863    2.8238   -2.8655 H   0  0  0  0  0  0  0  0  0  0  0  0
   -0.4786    2.4776   -0.7048 H   0  0  0  0  0  0  0  0  0  0  0  0
   -0.6878    1.3193    1.4791 H   0  0  0  0  0  0  0  0  0  0  0  0
   -1.6045    1.0348    3.8996 B   0  0  0  0  0  0  0  0  0  0  0  0
   -1.2293   -0.3246    4.2433 F   0  0  0  0  0  0  0  0  0  0  0  0
   -0.4556    1.6561    3.3606 F   0  0  0  0  0  0  0  0  0  0  0  0
   -2.5714    0.9286    2.8772 F   0  0  0  0  0  0  0  0  0  0  0  0
   -2.0785    1.6847    5.0036 F   0  0  0  0  0  0  0  0  0  0  0  0
  1  2  1  0  0  0  0
  2  3  1  0  0  0  0
  4 11  1  0  0  0  0
  4  1  2  0  0  0  0
  5  4  1  0  0  0  0
  6  5  2  0  0  0  0
  6  9  1  0  0  0  0
  7  6  1  0  0  0  0
  8  7  1  0  0  0  0
  8 15  1  0  0  0  0
  8 13  1  0  0  0  0
  9 10  2  0  0  0  0
 10  1  1  0  0  0  0
 10 17  1  0  0  0  0
 12  5  1  0  0  0  0
 14  8  1  0  0  0  0
 16  9  1  0  0  0  0
 18 19  1  0  0  0  0
 18 22  1  0  0  0  0
 20 18  1  0  0  0  0
 21 18  1  0  0  0  0
M  RAD  2   2   2   3   3
M  END
