Coordinates from ORCA-job 4-MeOPhN2+~BF4-_B3LYPG-6-31G_dp-NX-Scan-d89-09-n800
 OpenBabel11261920503D

 22 21  0  0  0  0  0  0  0  0999 V2000
   -1.2554   -1.3408    0.4391 C   0  0  0  0  0  0  0  0  0  0  0  0
   -1.3405   -2.2450    1.4406 N   0  0  0  0  0  0  0  0  0  0  0  0
   -1.4041   -2.9638    2.3002 N   0  0  0  0  0  0  0  0  0  0  0  0
   -1.5768   -1.7260   -0.8930 C   0  0  0  0  0  0  0  0  0  0  0  0
   -1.5143   -0.7587   -1.8595 C   0  0  0  0  0  0  0  0  0  0  0  0
   -1.1552    0.5801   -1.5184 C   0  0  0  0  0  0  0  0  0  0  0  0
   -1.1606    1.4383   -2.5352 O   0  0  0  0  0  0  0  0  0  0  0  0
   -0.8560    2.8242   -2.2809 C   0  0  0  0  0  0  0  0  0  0  0  0
   -0.8345    0.9307   -0.1955 C   0  0  0  0  0  0  0  0  0  0  0  0
   -0.8821   -0.0261    0.7974 C   0  0  0  0  0  0  0  0  0  0  0  0
   -1.8660   -2.7451   -1.1229 H   0  0  0  0  0  0  0  0  0  0  0  0
   -1.7523   -0.9806   -2.8934 H   0  0  0  0  0  0  0  0  0  0  0  0
   -1.5534    3.2460   -1.5524 H   0  0  0  0  0  0  0  0  0  0  0  0
   -0.9660    3.3219   -3.2430 H   0  0  0  0  0  0  0  0  0  0  0  0
    0.1698    2.9314   -1.9175 H   0  0  0  0  0  0  0  0  0  0  0  0
   -0.6018    1.9413    0.1246 H   0  0  0  0  0  0  0  0  0  0  0  0
   -0.6583    0.2420    1.8334 H   0  0  0  0  0  0  0  0  0  0  0  0
   -1.3772    2.2962    2.8659 B   0  0  0  0  0  0  0  0  0  0  0  0
   -0.5510    1.2200    3.3389 F   0  0  0  0  0  0  0  0  0  0  0  0
   -0.6442    2.9816    1.8554 F   0  0  0  0  0  0  0  0  0  0  0  0
   -2.5123    1.7120    2.2664 F   0  0  0  0  0  0  0  0  0  0  0  0
   -1.7116    3.1401    3.8963 F   0  0  0  0  0  0  0  0  0  0  0  0
  1 10  1  0  0  0  0
  1  2  1  0  0  0  0
  2  3  1  0  0  0  0
  4  1  2  0  0  0  0
  5  6  2  0  0  0  0
  5  4  1  0  0  0  0
  6  9  1  0  0  0  0
  7  8  1  0  0  0  0
  7  6  1  0  0  0  0
  8 15  1  0  0  0  0
  8 13  1  0  0  0  0
  9 16  1  0  0  0  0
  9 10  2  0  0  0  0
 10 17  1  0  0  0  0
 11  4  1  0  0  0  0
 12  5  1  0  0  0  0
 14  8  1  0  0  0  0
 18 19  1  0  0  0  0
 18 22  1  0  0  0  0
 20 18  1  0  0  0  0
 21 18  1  0  0  0  0
M  RAD  2   2   2   3   3
M  END
