Coordinates from ORCA-job 4-MeOPhN2+~BF4-_B3LYPG-6-31G_dp-NX-Scan-d89-09-n800
 OpenBabel11261920503D

 22 21  0  0  0  0  0  0  0  0999 V2000
   -1.3047   -0.5380    0.5549 C   0  0  0  0  0  0  0  0  0  0  0  0
   -1.4094   -1.2055    1.7497 N   0  0  0  0  0  0  0  0  0  0  0  0
   -1.4683   -1.7052    2.7525 N   0  0  0  0  0  0  0  0  0  0  0  0
   -1.5955   -1.2556   -0.6263 C   0  0  0  0  0  0  0  0  0  0  0  0
   -1.4879   -0.6041   -1.8336 C   0  0  0  0  0  0  0  0  0  0  0  0
   -1.0859    0.7519   -1.8738 C   0  0  0  0  0  0  0  0  0  0  0  0
   -1.0148    1.2883   -3.1007 O   0  0  0  0  0  0  0  0  0  0  0  0
   -0.6278    2.6589   -3.2471 C   0  0  0  0  0  0  0  0  0  0  0  0
   -0.7897    1.4435   -0.6835 C   0  0  0  0  0  0  0  0  0  0  0  0
   -0.9008    0.8098    0.5437 C   0  0  0  0  0  0  0  0  0  0  0  0
   -1.9042   -2.2936   -0.5742 H   0  0  0  0  0  0  0  0  0  0  0  0
   -1.7075   -1.1073   -2.7679 H   0  0  0  0  0  0  0  0  0  0  0  0
   -1.3313    3.3227   -2.7343 H   0  0  0  0  0  0  0  0  0  0  0  0
   -0.6527    2.8560   -4.3183 H   0  0  0  0  0  0  0  0  0  0  0  0
    0.3856    2.8240   -2.8666 H   0  0  0  0  0  0  0  0  0  0  0  0
   -0.4781    2.4795   -0.7047 H   0  0  0  0  0  0  0  0  0  0  0  0
   -0.6834    1.3183    1.4810 H   0  0  0  0  0  0  0  0  0  0  0  0
   -1.6050    1.0294    3.9036 B   0  0  0  0  0  0  0  0  0  0  0  0
   -1.2436   -0.3149    4.2852 F   0  0  0  0  0  0  0  0  0  0  0  0
   -0.4481    1.6338    3.3549 F   0  0  0  0  0  0  0  0  0  0  0  0
   -2.5643    0.9075    2.8716 F   0  0  0  0  0  0  0  0  0  0  0  0
   -2.0866    1.7203    4.9805 F   0  0  0  0  0  0  0  0  0  0  0  0
  1  2  1  0  0  0  0
  2  3  1  0  0  0  0
  4 11  1  0  0  0  0
  4  1  2  0  0  0  0
  5  4  1  0  0  0  0
  6  5  2  0  0  0  0
  6  9  1  0  0  0  0
  7  6  1  0  0  0  0
  8  7  1  0  0  0  0
  8 15  1  0  0  0  0
  8 13  1  0  0  0  0
  9 10  2  0  0  0  0
 10  1  1  0  0  0  0
 10 17  1  0  0  0  0
 12  5  1  0  0  0  0
 14  8  1  0  0  0  0
 16  9  1  0  0  0  0
 18 19  1  0  0  0  0
 18 22  1  0  0  0  0
 20 18  1  0  0  0  0
 21 18  1  0  0  0  0
M  RAD  2   2   2   3   3
M  END
