Coordinates from ORCA-job 4-MeOPhN2+~BF4-_B3LYPG-6-31G_dp-NX-Scan-d89-09-n800
 OpenBabel11261920503D

 22 21  0  0  0  0  0  0  0  0999 V2000
   -1.2510   -0.8035    0.5759 C   0  0  0  0  0  0  0  0  0  0  0  0
   -1.3380   -1.5740    1.6988 N   0  0  0  0  0  0  0  0  0  0  0  0
   -1.4076   -2.2636    2.5733 N   0  0  0  0  0  0  0  0  0  0  0  0
   -1.7913   -1.3251   -0.6254 C   0  0  0  0  0  0  0  0  0  0  0  0
   -1.7094   -0.5506   -1.7557 C   0  0  0  0  0  0  0  0  0  0  0  0
   -1.1052    0.7328   -1.6996 C   0  0  0  0  0  0  0  0  0  0  0  0
   -1.0990    1.4018   -2.8575 O   0  0  0  0  0  0  0  0  0  0  0  0
   -0.5567    2.7286   -2.9021 C   0  0  0  0  0  0  0  0  0  0  0  0
   -0.5684    1.2206   -0.4940 C   0  0  0  0  0  0  0  0  0  0  0  0
   -0.6383    0.4612    0.6600 C   0  0  0  0  0  0  0  0  0  0  0  0
   -2.2616   -2.3015   -0.6418 H   0  0  0  0  0  0  0  0  0  0  0  0
   -2.1114   -0.8914   -2.7025 H   0  0  0  0  0  0  0  0  0  0  0  0
   -1.1020    3.3951   -2.2272 H   0  0  0  0  0  0  0  0  0  0  0  0
   -0.6861    3.0597   -3.9319 H   0  0  0  0  0  0  0  0  0  0  0  0
    0.5077    2.7246   -2.6465 H   0  0  0  0  0  0  0  0  0  0  0  0
   -0.1244    2.2050   -0.4335 H   0  0  0  0  0  0  0  0  0  0  0  0
   -0.2558    0.8132    1.6173 H   0  0  0  0  0  0  0  0  0  0  0  0
   -1.7197    1.4235    3.4144 B   0  0  0  0  0  0  0  0  0  0  0  0
   -0.3251    1.0911    3.4543 F   0  0  0  0  0  0  0  0  0  0  0  0
   -1.9065    2.3317    2.3587 F   0  0  0  0  0  0  0  0  0  0  0  0
   -2.4138    0.2172    3.0900 F   0  0  0  0  0  0  0  0  0  0  0  0
   -2.1404    1.9233    4.6217 F   0  0  0  0  0  0  0  0  0  0  0  0
  1 10  1  0  0  0  0
  1  2  1  0  0  0  0
  2  3  1  0  0  0  0
  4  1  2  0  0  0  0
  5  6  2  0  0  0  0
  5  4  1  0  0  0  0
  6  9  1  0  0  0  0
  7  6  1  0  0  0  0
  8  7  1  0  0  0  0
  8 15  1  0  0  0  0
  8 13  1  0  0  0  0
  9 16  1  0  0  0  0
  9 10  2  0  0  0  0
 10 17  1  0  0  0  0
 11  4  1  0  0  0  0
 12  5  1  0  0  0  0
 14  8  1  0  0  0  0
 18 19  1  0  0  0  0
 18 22  1  0  0  0  0
 20 18  1  0  0  0  0
 21 18  1  0  0  0  0
M  RAD  2   2   2   3   3
M  END
