Coordinates from ORCA-job 4-MeOPhN2+~BF4-_B3LYPG-6-31G_dp-NX-Scan-d89-09-n800
 OpenBabel11261920503D

 22 22  0  0  0  0  0  0  0  0999 V2000
   -1.5797    0.2989    0.6900 C   0  0  0  0  0  0  0  0  0  0  0  0
   -1.9521   -0.0944    2.0021 N   0  0  0  0  0  0  0  0  0  0  0  0
   -1.3623    0.4159    3.0144 N   0  0  0  0  0  0  0  0  0  0  0  0
   -2.2120   -0.4744   -0.3075 C   0  0  0  0  0  0  0  0  0  0  0  0
   -1.9889   -0.2441   -1.6512 C   0  0  0  0  0  0  0  0  0  0  0  0
   -1.1226    0.7878   -2.0522 C   0  0  0  0  0  0  0  0  0  0  0  0
   -0.9675    0.9419   -3.3897 O   0  0  0  0  0  0  0  0  0  0  0  0
   -0.1080    1.9705   -3.8653 C   0  0  0  0  0  0  0  0  0  0  0  0
   -0.4920    1.5752   -1.0791 C   0  0  0  0  0  0  0  0  0  0  0  0
   -0.7145    1.3328    0.2763 C   0  0  0  0  0  0  0  0  0  0  0  0
   -2.8828   -1.2627    0.0177 H   0  0  0  0  0  0  0  0  0  0  0  0
   -2.4733   -0.8421   -2.4151 H   0  0  0  0  0  0  0  0  0  0  0  0
   -0.4553    2.9620   -3.5498 H   0  0  0  0  0  0  0  0  0  0  0  0
   -0.1399    1.9070   -4.9538 H   0  0  0  0  0  0  0  0  0  0  0  0
    0.9238    1.8216   -3.5238 H   0  0  0  0  0  0  0  0  0  0  0  0
    0.1746    2.3810   -1.3624 H   0  0  0  0  0  0  0  0  0  0  0  0
   -0.2056    1.9809    0.9784 H   0  0  0  0  0  0  0  0  0  0  0  0
   -1.8995   -0.0847    4.6343 B   0  0  0  0  0  0  0  0  0  0  0  0
   -0.6754    1.0553    2.9594 F   0  0  0  0  0  0  0  0  0  0  0  0
   -2.9566    0.7390    4.8783 F   0  0  0  0  0  0  0  0  0  0  0  0
   -0.7459    0.2570    5.3003 F   0  0  0  0  0  0  0  0  0  0  0  0
   -2.1683   -1.4048    4.5451 F   0  0  0  0  0  0  0  0  0  0  0  0
  1  2  1  0  0  0  0
  2  3  1  0  0  0  0
  3 18  1  0  0  0  0
  4 11  1  0  0  0  0
  4  1  2  0  0  0  0
  5  4  1  0  0  0  0
  6  5  2  0  0  0  0
  6  9  1  0  0  0  0
  7  6  1  0  0  0  0
  8 13  1  0  0  0  0
  8 15  1  0  0  0  0
  8  7  1  0  0  0  0
  9 10  2  0  0  0  0
 10  1  1  0  0  0  0
 10 17  1  0  0  0  0
 12  5  1  0  0  0  0
 14  8  1  0  0  0  0
 16  9  1  0  0  0  0
 18 20  1  0  0  0  0
 18 21  1  0  0  0  0
 19  3  1  0  0  0  0
 22 18  1  0  0  0  0
M  RAD  1   2   2
M  END
