Coordinates from ORCA-job 4-MeOPhN2+~BF4-_B3LYPG-6-31G_dp-NX-Scan-d89-09-n800
 OpenBabel11261920503D

 22 21  0  0  0  0  0  0  0  0999 V2000
   -1.2565   -1.3538    0.4370 C   0  0  0  0  0  0  0  0  0  0  0  0
   -1.3428   -2.2635    1.4332 N   0  0  0  0  0  0  0  0  0  0  0  0
   -1.4066   -2.9860    2.2898 N   0  0  0  0  0  0  0  0  0  0  0  0
   -1.5768   -1.7322   -0.8973 C   0  0  0  0  0  0  0  0  0  0  0  0
   -1.5140   -0.7603   -1.8592 C   0  0  0  0  0  0  0  0  0  0  0  0
   -1.1547    0.5767   -1.5112 C   0  0  0  0  0  0  0  0  0  0  0  0
   -1.1616    1.4410   -2.5225 O   0  0  0  0  0  0  0  0  0  0  0  0
   -0.8577    2.8257   -2.2592 C   0  0  0  0  0  0  0  0  0  0  0  0
   -0.8328    0.9201   -0.1867 C   0  0  0  0  0  0  0  0  0  0  0  0
   -0.8826   -0.0407    0.8020 C   0  0  0  0  0  0  0  0  0  0  0  0
   -1.8657   -2.7502   -1.1325 H   0  0  0  0  0  0  0  0  0  0  0  0
   -1.7520   -0.9771   -2.8942 H   0  0  0  0  0  0  0  0  0  0  0  0
   -1.5489    3.2398   -1.5205 H   0  0  0  0  0  0  0  0  0  0  0  0
   -0.9772    3.3312   -3.2162 H   0  0  0  0  0  0  0  0  0  0  0  0
    0.1711    2.9316   -1.9041 H   0  0  0  0  0  0  0  0  0  0  0  0
   -0.5984    1.9293    0.1376 H   0  0  0  0  0  0  0  0  0  0  0  0
   -0.6615    0.2269    1.8388 H   0  0  0  0  0  0  0  0  0  0  0  0
   -1.3749    2.3180    2.8436 B   0  0  0  0  0  0  0  0  0  0  0  0
   -0.5381    1.2501    3.3163 F   0  0  0  0  0  0  0  0  0  0  0  0
   -0.6519    3.0081    1.8287 F   0  0  0  0  0  0  0  0  0  0  0  0
   -2.5074    1.7234    2.2497 F   0  0  0  0  0  0  0  0  0  0  0  0
   -1.7127    3.1615    3.8734 F   0  0  0  0  0  0  0  0  0  0  0  0
  1 10  1  0  0  0  0
  1  2  1  0  0  0  0
  2  3  1  0  0  0  0
  4  1  2  0  0  0  0
  5  6  2  0  0  0  0
  5  4  1  0  0  0  0
  6  9  1  0  0  0  0
  7  8  1  0  0  0  0
  7  6  1  0  0  0  0
  8 15  1  0  0  0  0
  8 13  1  0  0  0  0
  9 16  1  0  0  0  0
  9 10  2  0  0  0  0
 10 17  1  0  0  0  0
 11  4  1  0  0  0  0
 12  5  1  0  0  0  0
 14  8  1  0  0  0  0
 18 19  1  0  0  0  0
 18 22  1  0  0  0  0
 20 18  1  0  0  0  0
 21 18  1  0  0  0  0
M  RAD  2   2   2   3   3
M  END
