Coordinates from ORCA-job 4-MeOPhN2+~BF4-_B3LYPG-6-31G_dp-NX-Scan-d89-09-n800
 OpenBabel11261920503D

 22 21  0  0  0  0  0  0  0  0999 V2000
   -1.4246   -1.8302    0.3232 C   0  0  0  0  0  0  0  0  0  0  0  0
   -1.6121   -2.9391    1.0633 N   0  0  0  0  0  0  0  0  0  0  0  0
   -1.7719   -3.8787    1.6644 N   0  0  0  0  0  0  0  0  0  0  0  0
   -1.5777   -1.9329   -1.0923 C   0  0  0  0  0  0  0  0  0  0  0  0
   -1.4151   -0.8036   -1.8463 C   0  0  0  0  0  0  0  0  0  0  0  0
   -1.1076    0.4441   -1.2220 C   0  0  0  0  0  0  0  0  0  0  0  0
   -1.0202    1.4787   -2.0261 O   0  0  0  0  0  0  0  0  0  0  0  0
   -0.8290    2.8167   -1.4629 C   0  0  0  0  0  0  0  0  0  0  0  0
   -0.9237    0.5182    0.1823 C   0  0  0  0  0  0  0  0  0  0  0  0
   -1.0927   -0.5998    0.9577 C   0  0  0  0  0  0  0  0  0  0  0  0
   -1.8257   -2.8863   -1.5453 H   0  0  0  0  0  0  0  0  0  0  0  0
   -1.5335   -0.8258   -2.9237 H   0  0  0  0  0  0  0  0  0  0  0  0
   -1.6135    3.0302   -0.7346 H   0  0  0  0  0  0  0  0  0  0  0  0
   -0.8709    3.4780   -2.3260 H   0  0  0  0  0  0  0  0  0  0  0  0
    0.1369    2.8839   -0.9622 H   0  0  0  0  0  0  0  0  0  0  0  0
   -0.6681    1.4370    0.6920 H   0  0  0  0  0  0  0  0  0  0  0  0
   -0.9844   -0.5107    2.0337 H   0  0  0  0  0  0  0  0  0  0  0  0
   -1.1789    3.2587    2.0983 B   0  0  0  0  0  0  0  0  0  0  0  0
   -0.1683    3.8048    1.2749 F   0  0  0  0  0  0  0  0  0  0  0  0
   -2.3041    2.9725    1.2710 F   0  0  0  0  0  0  0  0  0  0  0  0
   -0.7025    2.0030    2.5976 F   0  0  0  0  0  0  0  0  0  0  0  0
   -1.5162    4.1012    3.1296 F   0  0  0  0  0  0  0  0  0  0  0  0
  1 10  1  0  0  0  0
  1  2  1  0  0  0  0
  2  3  1  0  0  0  0
  4  1  2  0  0  0  0
  5  6  2  0  0  0  0
  5  4  1  0  0  0  0
  6  9  1  0  0  0  0
  7  8  1  0  0  0  0
  7  6  1  0  0  0  0
  8 15  1  0  0  0  0
  8 13  1  0  0  0  0
  9 16  1  0  0  0  0
  9 10  2  0  0  0  0
 10 17  1  0  0  0  0
 11  4  1  0  0  0  0
 12  5  1  0  0  0  0
 14  8  1  0  0  0  0
 18 21  1  0  0  0  0
 18 22  1  0  0  0  0
 19 18  1  0  0  0  0
 20 18  1  0  0  0  0
M  RAD  2   2   2   3   3
M  END
