Coordinates from ORCA-job 4-MeOPhN2+~BF4-_B3LYPG-6-31G_dp-NX-Scan-d89-09-n800
 OpenBabel11261920503D

 22 21  0  0  0  0  0  0  0  0999 V2000
   -1.3384   -0.5595    0.5508 C   0  0  0  0  0  0  0  0  0  0  0  0
   -1.4521   -1.2403    1.7386 N   0  0  0  0  0  0  0  0  0  0  0  0
   -1.4785   -1.6386    2.7935 N   0  0  0  0  0  0  0  0  0  0  0  0
   -1.6190   -1.2666   -0.6384 C   0  0  0  0  0  0  0  0  0  0  0  0
   -1.4951   -0.6122   -1.8433 C   0  0  0  0  0  0  0  0  0  0  0  0
   -1.0872    0.7413   -1.8736 C   0  0  0  0  0  0  0  0  0  0  0  0
   -0.9958    1.2825   -3.0980 O   0  0  0  0  0  0  0  0  0  0  0  0
   -0.5955    2.6499   -3.2331 C   0  0  0  0  0  0  0  0  0  0  0  0
   -0.8076    1.4278   -0.6763 C   0  0  0  0  0  0  0  0  0  0  0  0
   -0.9348    0.7888    0.5471 C   0  0  0  0  0  0  0  0  0  0  0  0
   -1.9306   -2.3040   -0.5934 H   0  0  0  0  0  0  0  0  0  0  0  0
   -1.7050   -1.1115   -2.7819 H   0  0  0  0  0  0  0  0  0  0  0  0
   -1.3011    3.3183   -2.7289 H   0  0  0  0  0  0  0  0  0  0  0  0
   -0.6021    2.8515   -4.3037 H   0  0  0  0  0  0  0  0  0  0  0  0
    0.4132    2.8057   -2.8365 H   0  0  0  0  0  0  0  0  0  0  0  0
   -0.4971    2.4642   -0.6888 H   0  0  0  0  0  0  0  0  0  0  0  0
   -0.7382    1.3097    1.4810 H   0  0  0  0  0  0  0  0  0  0  0  0
   -1.5921    1.0691    3.8883 B   0  0  0  0  0  0  0  0  0  0  0  0
   -1.0318   -0.2764    4.0876 F   0  0  0  0  0  0  0  0  0  0  0  0
   -0.5580    1.8528    3.3457 F   0  0  0  0  0  0  0  0  0  0  0  0
   -2.6066    0.9204    2.9282 F   0  0  0  0  0  0  0  0  0  0  0  0
   -2.0503    1.5470    5.0815 F   0  0  0  0  0  0  0  0  0  0  0  0
  1  2  1  0  0  0  0
  2  3  1  0  0  0  0
  4 11  1  0  0  0  0
  4  1  2  0  0  0  0
  5  4  1  0  0  0  0
  6  5  2  0  0  0  0
  6  9  1  0  0  0  0
  7  6  1  0  0  0  0
  8  7  1  0  0  0  0
  8 15  1  0  0  0  0
  8 13  1  0  0  0  0
  9 10  2  0  0  0  0
 10  1  1  0  0  0  0
 10 17  1  0  0  0  0
 12  5  1  0  0  0  0
 14  8  1  0  0  0  0
 16  9  1  0  0  0  0
 18 19  1  0  0  0  0
 18 22  1  0  0  0  0
 20 18  1  0  0  0  0
 21 18  1  0  0  0  0
M  RAD  2   2   2   3   3
M  END
