Coordinates from ORCA-job 4-MeOPhN2+~BF4-_B3LYPG-6-31G_dp-NX-Scan-d89-09-n800
 OpenBabel11261920503D

 22 21  0  0  0  0  0  0  0  0999 V2000
   -1.4009   -0.7023    0.4444 C   0  0  0  0  0  0  0  0  0  0  0  0
   -1.6779   -1.5549    1.5382 N   0  0  0  0  0  0  0  0  0  0  0  0
   -1.4501   -1.3567    2.7332 N   0  0  0  0  0  0  0  0  0  0  0  0
   -1.5905   -1.3406   -0.8000 C   0  0  0  0  0  0  0  0  0  0  0  0
   -1.3864   -0.6717   -1.9920 C   0  0  0  0  0  0  0  0  0  0  0  0
   -1.0044    0.6806   -1.9756 C   0  0  0  0  0  0  0  0  0  0  0  0
   -0.8349    1.2596   -3.1895 O   0  0  0  0  0  0  0  0  0  0  0  0
   -0.4691    2.6334   -3.2478 C   0  0  0  0  0  0  0  0  0  0  0  0
   -0.8321    1.3378   -0.7476 C   0  0  0  0  0  0  0  0  0  0  0  0
   -1.0212    0.6557    0.4519 C   0  0  0  0  0  0  0  0  0  0  0  0
   -1.9012   -2.3796   -0.7938 H   0  0  0  0  0  0  0  0  0  0  0  0
   -1.5245   -1.1624   -2.9492 H   0  0  0  0  0  0  0  0  0  0  0  0
   -1.2260    3.2707   -2.7747 H   0  0  0  0  0  0  0  0  0  0  0  0
   -0.4024    2.8794   -4.3080 H   0  0  0  0  0  0  0  0  0  0  0  0
    0.5036    2.8109   -2.7734 H   0  0  0  0  0  0  0  0  0  0  0  0
   -0.5470    2.3818   -0.7126 H   0  0  0  0  0  0  0  0  0  0  0  0
   -0.8916    1.1977    1.3758 H   0  0  0  0  0  0  0  0  0  0  0  0
   -1.8619    1.5597    4.4589 B   0  0  0  0  0  0  0  0  0  0  0  0
   -0.8738   -0.2343    3.0043 F   0  0  0  0  0  0  0  0  0  0  0  0
   -1.3187    2.4088    3.5985 F   0  0  0  0  0  0  0  0  0  0  0  0
   -3.0802    1.1046    4.2456 F   0  0  0  0  0  0  0  0  0  0  0  0
   -1.2126    1.2414    5.5601 F   0  0  0  0  0  0  0  0  0  0  0  0
  1 10  1  0  0  0  0
  1  2  1  0  0  0  0
  2  3  2  0  0  0  0
  3 19  1  0  0  0  0
  4 11  1  0  0  0  0
  4  1  2  0  0  0  0
  5  6  2  0  0  0  0
  5  4  1  0  0  0  0
  6  9  1  0  0  0  0
  7  6  1  0  0  0  0
  8  7  1  0  0  0  0
  8 13  1  0  0  0  0
  8 15  1  0  0  0  0
  9 16  1  0  0  0  0
  9 10  2  0  0  0  0
 10 17  1  0  0  0  0
 12  5  1  0  0  0  0
 14  8  1  0  0  0  0
 18 22  1  0  0  0  0
 20 18  1  0  0  0  0
 21 18  1  0  0  0  0
M  END
