Coordinates from ORCA-job 4-MeOPhN2+~BF4-_B3LYPG-6-31G_dp-NX-Scan-d89-09-n800
 OpenBabel11261920503D

 22 21  0  0  0  0  0  0  0  0999 V2000
   -1.3918   -0.6074    0.5640 C   0  0  0  0  0  0  0  0  0  0  0  0
   -1.5516   -1.3029    1.7321 N   0  0  0  0  0  0  0  0  0  0  0  0
   -1.6648   -1.8787    2.6785 N   0  0  0  0  0  0  0  0  0  0  0  0
   -1.6635   -1.2949   -0.6423 C   0  0  0  0  0  0  0  0  0  0  0  0
   -1.5000   -0.6207   -1.8290 C   0  0  0  0  0  0  0  0  0  0  0  0
   -1.0707    0.7292   -1.8245 C   0  0  0  0  0  0  0  0  0  0  0  0
   -0.9466    1.2891   -3.0339 O   0  0  0  0  0  0  0  0  0  0  0  0
   -0.5289    2.6562   -3.1383 C   0  0  0  0  0  0  0  0  0  0  0  0
   -0.8068    1.3890   -0.6089 C   0  0  0  0  0  0  0  0  0  0  0  0
   -0.9630    0.7331    0.6009 C   0  0  0  0  0  0  0  0  0  0  0  0
   -1.9960   -2.3265   -0.6238 H   0  0  0  0  0  0  0  0  0  0  0  0
   -1.6970   -1.0993   -2.7810 H   0  0  0  0  0  0  0  0  0  0  0  0
   -1.2383    3.3218   -2.6364 H   0  0  0  0  0  0  0  0  0  0  0  0
   -0.5124    2.8742   -4.2054 H   0  0  0  0  0  0  0  0  0  0  0  0
    0.4731    2.7928   -2.7191 H   0  0  0  0  0  0  0  0  0  0  0  0
   -0.4848    2.4217   -0.5926 H   0  0  0  0  0  0  0  0  0  0  0  0
   -0.7756    1.2459    1.5422 H   0  0  0  0  0  0  0  0  0  0  0  0
   -1.5501    1.1559    3.7726 B   0  0  0  0  0  0  0  0  0  0  0  0
   -0.5071    0.1868    3.6305 F   0  0  0  0  0  0  0  0  0  0  0  0
   -1.1294    2.3135    3.0711 F   0  0  0  0  0  0  0  0  0  0  0  0
   -2.6820    0.6231    3.0983 F   0  0  0  0  0  0  0  0  0  0  0  0
   -1.8166    1.4177    5.0915 F   0  0  0  0  0  0  0  0  0  0  0  0
  1 10  1  0  0  0  0
  1  2  1  0  0  0  0
  2  3  1  0  0  0  0
  4 11  1  0  0  0  0
  4  1  2  0  0  0  0
  5  6  2  0  0  0  0
  5  4  1  0  0  0  0
  6  9  1  0  0  0  0
  7  6  1  0  0  0  0
  8  7  1  0  0  0  0
  8 15  1  0  0  0  0
  8 13  1  0  0  0  0
  9 16  1  0  0  0  0
  9 10  2  0  0  0  0
 10 17  1  0  0  0  0
 12  5  1  0  0  0  0
 14  8  1  0  0  0  0
 18 22  1  0  0  0  0
 19 18  1  0  0  0  0
 20 18  1  0  0  0  0
 21 18  1  0  0  0  0
M  RAD  2   2   2   3   3
M  END
