Coordinates from ORCA-job 4-MeOPhN2+~BF4-_B3LYPG-6-31G_dp-NX-Scan-d89-09-n800
 OpenBabel11261920503D

 22 21  0  0  0  0  0  0  0  0999 V2000
   -1.2198   -0.7570    0.5961 C   0  0  0  0  0  0  0  0  0  0  0  0
   -1.2817   -1.5140    1.7306 N   0  0  0  0  0  0  0  0  0  0  0  0
   -1.3304   -2.1932    2.6139 N   0  0  0  0  0  0  0  0  0  0  0  0
   -1.7921   -1.2876   -0.5855 C   0  0  0  0  0  0  0  0  0  0  0  0
   -1.7281   -0.5278   -1.7275 C   0  0  0  0  0  0  0  0  0  0  0  0
   -1.1092    0.7491   -1.7022 C   0  0  0  0  0  0  0  0  0  0  0  0
   -1.1169    1.4014   -2.8701 O   0  0  0  0  0  0  0  0  0  0  0  0
   -0.5519    2.7169   -2.9456 C   0  0  0  0  0  0  0  0  0  0  0  0
   -0.5448    1.2488   -0.5142 C   0  0  0  0  0  0  0  0  0  0  0  0
   -0.5971    0.5039    0.6501 C   0  0  0  0  0  0  0  0  0  0  0  0
   -2.2720   -2.2595   -0.5795 H   0  0  0  0  0  0  0  0  0  0  0  0
   -2.1540   -0.8768   -2.6607 H   0  0  0  0  0  0  0  0  0  0  0  0
   -1.0731    3.4045   -2.2728 H   0  0  0  0  0  0  0  0  0  0  0  0
   -0.6929    3.0341   -3.9782 H   0  0  0  0  0  0  0  0  0  0  0  0
    0.5167    2.6975   -2.7080 H   0  0  0  0  0  0  0  0  0  0  0  0
   -0.0905    2.2296   -0.4771 H   0  0  0  0  0  0  0  0  0  0  0  0
   -0.2051    0.8584    1.6002 H   0  0  0  0  0  0  0  0  0  0  0  0
   -1.7716    1.3441    3.4219 B   0  0  0  0  0  0  0  0  0  0  0  0
   -0.4083    0.8921    3.4739 F   0  0  0  0  0  0  0  0  0  0  0  0
   -1.8582    2.3008    2.3954 F   0  0  0  0  0  0  0  0  0  0  0  0
   -2.5562    0.2137    3.0467 F   0  0  0  0  0  0  0  0  0  0  0  0
   -2.1664    1.8405    4.6392 F   0  0  0  0  0  0  0  0  0  0  0  0
  1 10  1  0  0  0  0
  1  2  1  0  0  0  0
  2  3  1  0  0  0  0
  4 11  1  0  0  0  0
  4  1  2  0  0  0  0
  5  6  2  0  0  0  0
  5  4  1  0  0  0  0
  6  9  1  0  0  0  0
  7  6  1  0  0  0  0
  8  7  1  0  0  0  0
  8 15  1  0  0  0  0
  8 13  1  0  0  0  0
  9 16  1  0  0  0  0
  9 10  2  0  0  0  0
 10 17  1  0  0  0  0
 12  5  1  0  0  0  0
 14  8  1  0  0  0  0
 18 19  1  0  0  0  0
 18 22  1  0  0  0  0
 20 18  1  0  0  0  0
 21 18  1  0  0  0  0
M  RAD  2   2   2   3   3
M  END
