Coordinates from ORCA-job 4-MeOPhN2+~BF4-_B3LYPG-6-31G_dp-NX-Scan-d89-09-n800
 OpenBabel11261920503D

 22 21  0  0  0  0  0  0  0  0999 V2000
   -1.3904   -1.7454    0.3606 C   0  0  0  0  0  0  0  0  0  0  0  0
   -1.5913   -2.8335    1.1297 N   0  0  0  0  0  0  0  0  0  0  0  0
   -1.7620   -3.7621    1.7447 N   0  0  0  0  0  0  0  0  0  0  0  0
   -1.6042   -1.8765   -1.0448 C   0  0  0  0  0  0  0  0  0  0  0  0
   -1.4425   -0.7686   -1.8299 C   0  0  0  0  0  0  0  0  0  0  0  0
   -1.0732    0.4809   -1.2456 C   0  0  0  0  0  0  0  0  0  0  0  0
   -1.0166    1.5017   -2.0736 O   0  0  0  0  0  0  0  0  0  0  0  0
   -0.8132    2.8479   -1.5406 C   0  0  0  0  0  0  0  0  0  0  0  0
   -0.8085    0.5780    0.1432 C   0  0  0  0  0  0  0  0  0  0  0  0
   -0.9930   -0.5142    0.9544 C   0  0  0  0  0  0  0  0  0  0  0  0
   -1.9007   -2.8313   -1.4642 H   0  0  0  0  0  0  0  0  0  0  0  0
   -1.6144   -0.8077   -2.8995 H   0  0  0  0  0  0  0  0  0  0  0  0
   -1.5430    3.0503   -0.7537 H   0  0  0  0  0  0  0  0  0  0  0  0
   -0.9412    3.4991   -2.4032 H   0  0  0  0  0  0  0  0  0  0  0  0
    0.1917    2.9403   -1.1271 H   0  0  0  0  0  0  0  0  0  0  0  0
   -0.4809    1.5081    0.5937 H   0  0  0  0  0  0  0  0  0  0  0  0
   -0.8604   -0.3935    2.0245 H   0  0  0  0  0  0  0  0  0  0  0  0
   -1.2835    3.0534    2.1426 B   0  0  0  0  0  0  0  0  0  0  0  0
   -0.1253    3.3709    1.3697 F   0  0  0  0  0  0  0  0  0  0  0  0
   -2.3626    2.9177    1.2294 F   0  0  0  0  0  0  0  0  0  0  0  0
   -1.0562    1.7848    2.7497 F   0  0  0  0  0  0  0  0  0  0  0  0
   -1.5325    4.0194    3.0866 F   0  0  0  0  0  0  0  0  0  0  0  0
  1 10  1  0  0  0  0
  1  2  1  0  0  0  0
  2  3  1  0  0  0  0
  4  1  2  0  0  0  0
  5  6  2  0  0  0  0
  5  4  1  0  0  0  0
  6  9  1  0  0  0  0
  7  8  1  0  0  0  0
  7  6  1  0  0  0  0
  8 15  1  0  0  0  0
  8 13  1  0  0  0  0
  9 16  1  0  0  0  0
  9 10  2  0  0  0  0
 10 17  1  0  0  0  0
 11  4  1  0  0  0  0
 12  5  1  0  0  0  0
 14  8  1  0  0  0  0
 18 21  1  0  0  0  0
 18 22  1  0  0  0  0
 19 18  1  0  0  0  0
 20 18  1  0  0  0  0
M  RAD  2   2   2   3   3
M  END
