Coordinates from ORCA-job 4-MeOPhN2+~BF4-_B3LYPG-6-31G_dp-NX-Scan-d89-09-n800
 OpenBabel11261920503D

 22 21  0  0  0  0  0  0  0  0999 V2000
   -1.2568   -1.3544    0.4373 C   0  0  0  0  0  0  0  0  0  0  0  0
   -1.3425   -2.2657    1.4320 N   0  0  0  0  0  0  0  0  0  0  0  0
   -1.4067   -2.9914    2.2858 N   0  0  0  0  0  0  0  0  0  0  0  0
   -1.5767   -1.7325   -0.8973 C   0  0  0  0  0  0  0  0  0  0  0  0
   -1.5141   -0.7605   -1.8591 C   0  0  0  0  0  0  0  0  0  0  0  0
   -1.1549    0.5764   -1.5106 C   0  0  0  0  0  0  0  0  0  0  0  0
   -1.1616    1.4412   -2.5214 O   0  0  0  0  0  0  0  0  0  0  0  0
   -0.8576    2.8258   -2.2575 C   0  0  0  0  0  0  0  0  0  0  0  0
   -0.8334    0.9193   -0.1858 C   0  0  0  0  0  0  0  0  0  0  0  0
   -0.8833   -0.0416    0.8027 C   0  0  0  0  0  0  0  0  0  0  0  0
   -1.8655   -2.7505   -1.1325 H   0  0  0  0  0  0  0  0  0  0  0  0
   -1.7520   -0.9772   -2.8942 H   0  0  0  0  0  0  0  0  0  0  0  0
   -1.5484    3.2397   -1.5183 H   0  0  0  0  0  0  0  0  0  0  0  0
   -0.9774    3.3317   -3.2142 H   0  0  0  0  0  0  0  0  0  0  0  0
    0.1714    2.9315   -1.9028 H   0  0  0  0  0  0  0  0  0  0  0  0
   -0.5990    1.9286    0.1381 H   0  0  0  0  0  0  0  0  0  0  0  0
   -0.6616    0.2266    1.8390 H   0  0  0  0  0  0  0  0  0  0  0  0
   -1.3746    2.3203    2.8423 B   0  0  0  0  0  0  0  0  0  0  0  0
   -0.5369    1.2539    3.3167 F   0  0  0  0  0  0  0  0  0  0  0  0
   -0.6525    3.0090    1.8258 F   0  0  0  0  0  0  0  0  0  0  0  0
   -2.5070    1.7240    2.2497 F   0  0  0  0  0  0  0  0  0  0  0  0
   -1.7126    3.1654    3.8707 F   0  0  0  0  0  0  0  0  0  0  0  0
  1 10  1  0  0  0  0
  1  2  1  0  0  0  0
  2  3  1  0  0  0  0
  4  1  2  0  0  0  0
  5  6  2  0  0  0  0
  5  4  1  0  0  0  0
  6  9  1  0  0  0  0
  7  8  1  0  0  0  0
  7  6  1  0  0  0  0
  8 15  1  0  0  0  0
  8 13  1  0  0  0  0
  9 16  1  0  0  0  0
  9 10  2  0  0  0  0
 10 17  1  0  0  0  0
 11  4  1  0  0  0  0
 12  5  1  0  0  0  0
 14  8  1  0  0  0  0
 18 19  1  0  0  0  0
 18 22  1  0  0  0  0
 20 18  1  0  0  0  0
 21 18  1  0  0  0  0
M  RAD  2   2   2   3   3
M  END
