Coordinates from ORCA-job 4-MeOPhN2+~BF4-_B3LYPG-6-31G_dp-NX-Scan-d89-09-n800
 OpenBabel11261920503D

 22 21  0  0  0  0  0  0  0  0999 V2000
   -1.2761   -1.5060    0.4456 C   0  0  0  0  0  0  0  0  0  0  0  0
   -1.4516   -2.4871    1.3520 N   0  0  0  0  0  0  0  0  0  0  0  0
   -1.5953   -3.3019    2.1136 N   0  0  0  0  0  0  0  0  0  0  0  0
   -1.6911   -1.7327   -0.8999 C   0  0  0  0  0  0  0  0  0  0  0  0
   -1.5751   -0.6999   -1.7895 C   0  0  0  0  0  0  0  0  0  0  0  0
   -1.0643    0.5623   -1.3605 C   0  0  0  0  0  0  0  0  0  0  0  0
   -1.0896    1.5259   -2.2661 O   0  0  0  0  0  0  0  0  0  0  0  0
   -0.7381    2.8778   -1.8658 C   0  0  0  0  0  0  0  0  0  0  0  0
   -0.5906    0.7383   -0.0453 C   0  0  0  0  0  0  0  0  0  0  0  0
   -0.7249   -0.2724    0.8760 C   0  0  0  0  0  0  0  0  0  0  0  0
   -2.1008   -2.6927   -1.1929 H   0  0  0  0  0  0  0  0  0  0  0  0
   -1.8999   -0.8039   -2.8182 H   0  0  0  0  0  0  0  0  0  0  0  0
   -1.2575    3.1494   -0.9429 H   0  0  0  0  0  0  0  0  0  0  0  0
   -1.0510    3.5043   -2.6996 H   0  0  0  0  0  0  0  0  0  0  0  0
    0.3449    2.9501   -1.7301 H   0  0  0  0  0  0  0  0  0  0  0  0
   -0.2151    1.6821    0.3259 H   0  0  0  0  0  0  0  0  0  0  0  0
   -0.4672   -0.0800    1.9096 H   0  0  0  0  0  0  0  0  0  0  0  0
   -1.5266    2.5412    2.3717 B   0  0  0  0  0  0  0  0  0  0  0  0
   -0.1208    2.3014    2.2659 F   0  0  0  0  0  0  0  0  0  0  0  0
   -1.9722    3.0103    1.1027 F   0  0  0  0  0  0  0  0  0  0  0  0
   -2.1468    1.2949    2.6340 F   0  0  0  0  0  0  0  0  0  0  0  0
   -1.7939    3.4582    3.3603 F   0  0  0  0  0  0  0  0  0  0  0  0
  1 10  1  0  0  0  0
  1  2  1  0  0  0  0
  2  3  1  0  0  0  0
  4  1  2  0  0  0  0
  5  6  2  0  0  0  0
  5  4  1  0  0  0  0
  6  9  1  0  0  0  0
  7  8  1  0  0  0  0
  7  6  1  0  0  0  0
  8 15  1  0  0  0  0
  8 13  1  0  0  0  0
  9 16  1  0  0  0  0
  9 10  2  0  0  0  0
 10 17  1  0  0  0  0
 11  4  1  0  0  0  0
 12  5  1  0  0  0  0
 14  8  1  0  0  0  0
 18 21  1  0  0  0  0
 18 22  1  0  0  0  0
 19 18  1  0  0  0  0
 20 18  1  0  0  0  0
M  RAD  2   2   2   3   3
M  END
