Coordinates from ORCA-job 4-MeOPhN2+~BF4-_B3LYPG-6-31G_dp-NX-Scan-d89-09-n800
 OpenBabel11261920503D

 22 21  0  0  0  0  0  0  0  0999 V2000
   -1.2317   -0.6639    0.6163 C   0  0  0  0  0  0  0  0  0  0  0  0
   -1.3111   -1.3934    1.7711 N   0  0  0  0  0  0  0  0  0  0  0  0
   -1.3793   -2.0694    2.6539 N   0  0  0  0  0  0  0  0  0  0  0  0
   -1.7518   -1.2546   -0.5598 C   0  0  0  0  0  0  0  0  0  0  0  0
   -1.6762   -0.5403   -1.7313 C   0  0  0  0  0  0  0  0  0  0  0  0
   -1.0944    0.7522   -1.7415 C   0  0  0  0  0  0  0  0  0  0  0  0
   -1.0848    1.3589   -2.9345 O   0  0  0  0  0  0  0  0  0  0  0  0
   -0.5507    2.6842   -3.0464 C   0  0  0  0  0  0  0  0  0  0  0  0
   -0.5794    1.3132   -0.5577 C   0  0  0  0  0  0  0  0  0  0  0  0
   -0.6452    0.6144    0.6346 C   0  0  0  0  0  0  0  0  0  0  0  0
   -2.2032   -2.2395   -0.5290 H   0  0  0  0  0  0  0  0  0  0  0  0
   -2.0643   -0.9404   -2.6604 H   0  0  0  0  0  0  0  0  0  0  0  0
   -1.1093    3.3850   -2.4185 H   0  0  0  0  0  0  0  0  0  0  0  0
   -0.6674    2.9565   -4.0947 H   0  0  0  0  0  0  0  0  0  0  0  0
    0.5102    2.7028   -2.7763 H   0  0  0  0  0  0  0  0  0  0  0  0
   -0.1477    2.3049   -0.5491 H   0  0  0  0  0  0  0  0  0  0  0  0
   -0.2933    1.0233    1.5744 H   0  0  0  0  0  0  0  0  0  0  0  0
   -1.7657    1.2306    3.5296 B   0  0  0  0  0  0  0  0  0  0  0  0
   -0.5136    0.5151    3.4950 F   0  0  0  0  0  0  0  0  0  0  0  0
   -1.6219    2.3490    2.6903 F   0  0  0  0  0  0  0  0  0  0  0  0
   -2.7325    0.3548    2.9630 F   0  0  0  0  0  0  0  0  0  0  0  0
   -2.0905    1.5761    4.8176 F   0  0  0  0  0  0  0  0  0  0  0  0
  1 10  1  0  0  0  0
  1  2  1  0  0  0  0
  2  3  1  0  0  0  0
  4 11  1  0  0  0  0
  4  1  2  0  0  0  0
  5  4  1  0  0  0  0
  6  5  2  0  0  0  0
  6  9  1  0  0  0  0
  7  6  1  0  0  0  0
  8  7  1  0  0  0  0
  8 15  1  0  0  0  0
  8 13  1  0  0  0  0
  9 16  1  0  0  0  0
  9 10  2  0  0  0  0
 10 17  1  0  0  0  0
 12  5  1  0  0  0  0
 14  8  1  0  0  0  0
 18 22  1  0  0  0  0
 19 18  1  0  0  0  0
 20 18  1  0  0  0  0
 21 18  1  0  0  0  0
M  RAD  2   2   2   3   3
M  END
