Coordinates from ORCA-job 4-MeOPhN2+~BF4-_B3LYPG-6-31G_dp-NX-Scan-d89-09-n800
 OpenBabel11261920503D

 22 21  0  0  0  0  0  0  0  0999 V2000
   -1.2552   -1.3393    0.4385 C   0  0  0  0  0  0  0  0  0  0  0  0
   -1.3405   -2.2405    1.4427 N   0  0  0  0  0  0  0  0  0  0  0  0
   -1.4030   -2.9525    2.3080 N   0  0  0  0  0  0  0  0  0  0  0  0
   -1.5770   -1.7254   -0.8930 C   0  0  0  0  0  0  0  0  0  0  0  0
   -1.5144   -0.7584   -1.8600 C   0  0  0  0  0  0  0  0  0  0  0  0
   -1.1549    0.5806   -1.5197 C   0  0  0  0  0  0  0  0  0  0  0  0
   -1.1605    1.4381   -2.5371 O   0  0  0  0  0  0  0  0  0  0  0  0
   -0.8558    2.8240   -2.2835 C   0  0  0  0  0  0  0  0  0  0  0  0
   -0.8338    0.9317   -0.1971 C   0  0  0  0  0  0  0  0  0  0  0  0
   -0.8812   -0.0248    0.7960 C   0  0  0  0  0  0  0  0  0  0  0  0
   -1.8667   -2.7445   -1.1225 H   0  0  0  0  0  0  0  0  0  0  0  0
   -1.7526   -0.9806   -2.8938 H   0  0  0  0  0  0  0  0  0  0  0  0
   -1.5535    3.2465   -1.5556 H   0  0  0  0  0  0  0  0  0  0  0  0
   -0.9653    3.3213   -3.2460 H   0  0  0  0  0  0  0  0  0  0  0  0
    0.1699    2.9314   -1.9198 H   0  0  0  0  0  0  0  0  0  0  0  0
   -0.6006    1.9420    0.1234 H   0  0  0  0  0  0  0  0  0  0  0  0
   -0.6583    0.2423    1.8325 H   0  0  0  0  0  0  0  0  0  0  0  0
   -1.3780    2.2921    2.8679 B   0  0  0  0  0  0  0  0  0  0  0  0
   -0.5528    1.2130    3.3377 F   0  0  0  0  0  0  0  0  0  0  0  0
   -0.6444    2.9797    1.8597 F   0  0  0  0  0  0  0  0  0  0  0  0
   -2.5136    1.7105    2.2669 F   0  0  0  0  0  0  0  0  0  0  0  0
   -1.7115    3.1327    3.9013 F   0  0  0  0  0  0  0  0  0  0  0  0
  1 10  1  0  0  0  0
  1  2  1  0  0  0  0
  2  3  1  0  0  0  0
  4  1  2  0  0  0  0
  5  6  2  0  0  0  0
  5  4  1  0  0  0  0
  6  9  1  0  0  0  0
  7  8  1  0  0  0  0
  7  6  1  0  0  0  0
  8 15  1  0  0  0  0
  8 13  1  0  0  0  0
  9 16  1  0  0  0  0
  9 10  2  0  0  0  0
 10 17  1  0  0  0  0
 11  4  1  0  0  0  0
 12  5  1  0  0  0  0
 14  8  1  0  0  0  0
 18 19  1  0  0  0  0
 18 22  1  0  0  0  0
 20 18  1  0  0  0  0
 21 18  1  0  0  0  0
M  RAD  2   2   2   3   3
M  END
