Coordinates from ORCA-job 4-MeOPhN2+~BF4-_B3LYPG-6-31G_dp-NX-Scan-d89-09-n800
 OpenBabel11261920503D

 22 21  0  0  0  0  0  0  0  0999 V2000
   -1.2703   -0.5412    0.5565 C   0  0  0  0  0  0  0  0  0  0  0  0
   -1.3603   -1.2136    1.7489 N   0  0  0  0  0  0  0  0  0  0  0  0
   -1.4154   -1.7992    2.6990 N   0  0  0  0  0  0  0  0  0  0  0  0
   -1.5903   -1.2533   -0.6214 C   0  0  0  0  0  0  0  0  0  0  0  0
   -1.5006   -0.5944   -1.8255 C   0  0  0  0  0  0  0  0  0  0  0  0
   -1.0900    0.7598   -1.8651 C   0  0  0  0  0  0  0  0  0  0  0  0
   -1.0415    1.3024   -3.0891 O   0  0  0  0  0  0  0  0  0  0  0  0
   -0.6529    2.6732   -3.2369 C   0  0  0  0  0  0  0  0  0  0  0  0
   -0.7635    1.4422   -0.6769 C   0  0  0  0  0  0  0  0  0  0  0  0
   -0.8557    0.8032    0.5483 C   0  0  0  0  0  0  0  0  0  0  0  0
   -1.9072   -2.2888   -0.5696 H   0  0  0  0  0  0  0  0  0  0  0  0
   -1.7429   -1.0898   -2.7584 H   0  0  0  0  0  0  0  0  0  0  0  0
   -1.3433    3.3359   -2.7055 H   0  0  0  0  0  0  0  0  0  0  0  0
   -0.7006    2.8754   -4.3063 H   0  0  0  0  0  0  0  0  0  0  0  0
    0.3689    2.8324   -2.8776 H   0  0  0  0  0  0  0  0  0  0  0  0
   -0.4444    2.4758   -0.6987 H   0  0  0  0  0  0  0  0  0  0  0  0
   -0.6167    1.2956    1.4898 H   0  0  0  0  0  0  0  0  0  0  0  0
   -1.6277    1.0230    3.8966 B   0  0  0  0  0  0  0  0  0  0  0  0
   -1.3898   -0.2570    4.4610 F   0  0  0  0  0  0  0  0  0  0  0  0
   -0.3998    1.4963    3.3503 F   0  0  0  0  0  0  0  0  0  0  0  0
   -2.5258    0.8423    2.8060 F   0  0  0  0  0  0  0  0  0  0  0  0
   -2.1344    1.8995    4.8210 F   0  0  0  0  0  0  0  0  0  0  0  0
  1  2  1  0  0  0  0
  2  3  1  0  0  0  0
  4 11  1  0  0  0  0
  4  1  2  0  0  0  0
  5  4  1  0  0  0  0
  6  5  2  0  0  0  0
  6  9  1  0  0  0  0
  7  6  1  0  0  0  0
  8  7  1  0  0  0  0
  8 15  1  0  0  0  0
  8 13  1  0  0  0  0
  9 10  2  0  0  0  0
 10  1  1  0  0  0  0
 10 17  1  0  0  0  0
 12  5  1  0  0  0  0
 14  8  1  0  0  0  0
 16  9  1  0  0  0  0
 18 19  1  0  0  0  0
 18 22  1  0  0  0  0
 20 18  1  0  0  0  0
 21 18  1  0  0  0  0
M  RAD  2   2   2   3   3
M  END
