Coordinates from ORCA-job 4-MeOPhN2+~BF4-_B3LYPG-6-31G_dp-NX-Scan-d89-09-n800
 OpenBabel11261920503D

 22 21  0  0  0  0  0  0  0  0999 V2000
   -1.2582   -1.4654    0.4642 C   0  0  0  0  0  0  0  0  0  0  0  0
   -1.4386   -2.4209    1.3964 N   0  0  0  0  0  0  0  0  0  0  0  0
   -1.5847   -3.2084    2.1854 N   0  0  0  0  0  0  0  0  0  0  0  0
   -1.7174   -1.6990   -0.8653 C   0  0  0  0  0  0  0  0  0  0  0  0
   -1.6028   -0.6794   -1.7703 C   0  0  0  0  0  0  0  0  0  0  0  0
   -1.0554    0.5772   -1.3705 C   0  0  0  0  0  0  0  0  0  0  0  0
   -1.0927    1.5328   -2.2854 O   0  0  0  0  0  0  0  0  0  0  0  0
   -0.7275    2.8847   -1.9011 C   0  0  0  0  0  0  0  0  0  0  0  0
   -0.5378    0.7566   -0.0733 C   0  0  0  0  0  0  0  0  0  0  0  0
   -0.6664   -0.2413    0.8630 C   0  0  0  0  0  0  0  0  0  0  0  0
   -2.1591   -2.6518   -1.1341 H   0  0  0  0  0  0  0  0  0  0  0  0
   -1.9601   -0.7871   -2.7877 H   0  0  0  0  0  0  0  0  0  0  0  0
   -1.2354    3.1642   -0.9744 H   0  0  0  0  0  0  0  0  0  0  0  0
   -1.0473    3.5076   -2.7351 H   0  0  0  0  0  0  0  0  0  0  0  0
    0.3575    2.9532   -1.7792 H   0  0  0  0  0  0  0  0  0  0  0  0
   -0.1447    1.6998    0.2770 H   0  0  0  0  0  0  0  0  0  0  0  0
   -0.3686   -0.0436    1.8843 H   0  0  0  0  0  0  0  0  0  0  0  0
   -1.5689    2.4477    2.3743 B   0  0  0  0  0  0  0  0  0  0  0  0
   -0.1654    2.1705    2.3616 F   0  0  0  0  0  0  0  0  0  0  0  0
   -1.9060    2.9908    1.1021 F   0  0  0  0  0  0  0  0  0  0  0  0
   -2.2379    1.2086    2.5291 F   0  0  0  0  0  0  0  0  0  0  0  0
   -1.8865    3.3229    3.3855 F   0  0  0  0  0  0  0  0  0  0  0  0
  1 10  1  0  0  0  0
  1  2  1  0  0  0  0
  2  3  1  0  0  0  0
  4  1  2  0  0  0  0
  5  6  2  0  0  0  0
  5  4  1  0  0  0  0
  6  9  1  0  0  0  0
  7  8  1  0  0  0  0
  7  6  1  0  0  0  0
  8 15  1  0  0  0  0
  8 13  1  0  0  0  0
  9 16  1  0  0  0  0
  9 10  2  0  0  0  0
 10 17  1  0  0  0  0
 11  4  1  0  0  0  0
 12  5  1  0  0  0  0
 14  8  1  0  0  0  0
 18 21  1  0  0  0  0
 18 22  1  0  0  0  0
 19 18  1  0  0  0  0
 20 18  1  0  0  0  0
M  RAD  2   2   2   3   3
M  END
