Coordinates from ORCA-job 4-MeOPhN2+~BF4-_B3LYPG-6-31G_dp-NX-Scan-d89-09-n800
 OpenBabel11261920503D

 22 21  0  0  0  0  0  0  0  0999 V2000
   -1.2367   -1.4216    0.4343 C   0  0  0  0  0  0  0  0  0  0  0  0
   -1.3431   -2.3449    1.4135 N   0  0  0  0  0  0  0  0  0  0  0  0
   -1.4181   -3.0705    2.2674 N   0  0  0  0  0  0  0  0  0  0  0  0
   -1.6050   -1.7501   -0.9015 C   0  0  0  0  0  0  0  0  0  0  0  0
   -1.5438   -0.7525   -1.8373 C   0  0  0  0  0  0  0  0  0  0  0  0
   -1.1365    0.5631   -1.4612 C   0  0  0  0  0  0  0  0  0  0  0  0
   -1.1832    1.4729   -2.4283 O   0  0  0  0  0  0  0  0  0  0  0  0
   -0.8588    2.8444   -2.1075 C   0  0  0  0  0  0  0  0  0  0  0  0
   -0.7383    0.8485   -0.1440 C   0  0  0  0  0  0  0  0  0  0  0  0
   -0.8029   -0.1326    0.8204 C   0  0  0  0  0  0  0  0  0  0  0  0
   -1.9330   -2.7515   -1.1562 H   0  0  0  0  0  0  0  0  0  0  0  0
   -1.8272   -0.9308   -2.8682 H   0  0  0  0  0  0  0  0  0  0  0  0
   -1.4333    3.1911   -1.2451 H   0  0  0  0  0  0  0  0  0  0  0  0
   -1.1185    3.4137   -2.9987 H   0  0  0  0  0  0  0  0  0  0  0  0
    0.2105    2.9389   -1.8986 H   0  0  0  0  0  0  0  0  0  0  0  0
   -0.4667    1.8432    0.1964 H   0  0  0  0  0  0  0  0  0  0  0  0
   -0.5693    0.1236    1.8555 H   0  0  0  0  0  0  0  0  0  0  0  0
   -1.4196    2.4082    2.6628 B   0  0  0  0  0  0  0  0  0  0  0  0
   -0.5125    1.4168    3.1638 F   0  0  0  0  0  0  0  0  0  0  0  0
   -0.7450    3.1258    1.6265 F   0  0  0  0  0  0  0  0  0  0  0  0
   -2.5093    1.7273    2.0844 F   0  0  0  0  0  0  0  0  0  0  0  0
   -1.8135    3.2569    3.6682 F   0  0  0  0  0  0  0  0  0  0  0  0
  1 10  1  0  0  0  0
  1  2  1  0  0  0  0
  2  3  1  0  0  0  0
  4  1  2  0  0  0  0
  5  6  2  0  0  0  0
  5  4  1  0  0  0  0
  6  9  1  0  0  0  0
  7  8  1  0  0  0  0
  7  6  1  0  0  0  0
  8 15  1  0  0  0  0
  8 13  1  0  0  0  0
  9 16  1  0  0  0  0
  9 10  2  0  0  0  0
 10 17  1  0  0  0  0
 11  4  1  0  0  0  0
 12  5  1  0  0  0  0
 14  8  1  0  0  0  0
 18 19  1  0  0  0  0
 18 22  1  0  0  0  0
 20 18  1  0  0  0  0
 21 18  1  0  0  0  0
M  RAD  2   2   2   3   3
M  END
