Coordinates from ORCA-job 4-MeOPhN2+~BF4-_B3LYPG-6-31G_dp-NX-Scan-d89-09-n800
 OpenBabel11261920503D

 22 21  0  0  0  0  0  0  0  0999 V2000
   -1.3264   -1.5789    0.3959 C   0  0  0  0  0  0  0  0  0  0  0  0
   -1.5357   -2.5696    1.2831 N   0  0  0  0  0  0  0  0  0  0  0  0
   -1.6984   -3.3743    2.0517 N   0  0  0  0  0  0  0  0  0  0  0  0
   -1.6648   -1.7804   -0.9739 C   0  0  0  0  0  0  0  0  0  0  0  0
   -1.5164   -0.7234   -1.8310 C   0  0  0  0  0  0  0  0  0  0  0  0
   -1.0469    0.5340   -1.3448 C   0  0  0  0  0  0  0  0  0  0  0  0
   -1.0457    1.5248   -2.2191 O   0  0  0  0  0  0  0  0  0  0  0  0
   -0.7563    2.8717   -1.7492 C   0  0  0  0  0  0  0  0  0  0  0  0
   -0.6396    0.6839   -0.0025 C   0  0  0  0  0  0  0  0  0  0  0  0
   -0.8112   -0.3503    0.8838 C   0  0  0  0  0  0  0  0  0  0  0  0
   -2.0451   -2.7379   -1.3113 H   0  0  0  0  0  0  0  0  0  0  0  0
   -1.7865   -0.8057   -2.8774 H   0  0  0  0  0  0  0  0  0  0  0  0
   -1.3448    3.0929   -0.8546 H   0  0  0  0  0  0  0  0  0  0  0  0
   -1.0292    3.5192   -2.5811 H   0  0  0  0  0  0  0  0  0  0  0  0
    0.3115    2.9654   -1.5345 H   0  0  0  0  0  0  0  0  0  0  0  0
   -0.2684    1.6204    0.4015 H   0  0  0  0  0  0  0  0  0  0  0  0
   -0.6318   -0.1770    1.9394 H   0  0  0  0  0  0  0  0  0  0  0  0
   -1.4476    2.6839    2.3181 B   0  0  0  0  0  0  0  0  0  0  0  0
   -0.0774    2.7190    1.9153 F   0  0  0  0  0  0  0  0  0  0  0  0
   -2.2314    2.8002    1.1373 F   0  0  0  0  0  0  0  0  0  0  0  0
   -1.6850    1.4073    2.8940 F   0  0  0  0  0  0  0  0  0  0  0  0
   -1.7266    3.6945    3.2057 F   0  0  0  0  0  0  0  0  0  0  0  0
  1 10  1  0  0  0  0
  1  2  1  0  0  0  0
  2  3  1  0  0  0  0
  4  1  2  0  0  0  0
  5  6  2  0  0  0  0
  5  4  1  0  0  0  0
  6  9  1  0  0  0  0
  7  8  1  0  0  0  0
  7  6  1  0  0  0  0
  8 15  1  0  0  0  0
  8 13  1  0  0  0  0
  9 16  1  0  0  0  0
  9 10  2  0  0  0  0
 10 17  1  0  0  0  0
 11  4  1  0  0  0  0
 12  5  1  0  0  0  0
 14  8  1  0  0  0  0
 18 21  1  0  0  0  0
 18 22  1  0  0  0  0
 19 18  1  0  0  0  0
 20 18  1  0  0  0  0
M  RAD  2   2   2   3   3
M  END
