Coordinates from ORCA-job 4-MeOPhN2+~BF4-_B3LYPG-6-31G_dp-NX-Scan-d89-09-n800
 OpenBabel11261920503D

 22 21  0  0  0  0  0  0  0  0999 V2000
   -1.2540   -0.8339    0.5697 C   0  0  0  0  0  0  0  0  0  0  0  0
   -1.3326   -1.6171    1.6830 N   0  0  0  0  0  0  0  0  0  0  0  0
   -1.3942   -2.3023    2.5618 N   0  0  0  0  0  0  0  0  0  0  0  0
   -1.8136   -1.3309   -0.6338 C   0  0  0  0  0  0  0  0  0  0  0  0
   -1.7338   -0.5404   -1.7527 C   0  0  0  0  0  0  0  0  0  0  0  0
   -1.1113    0.7343   -1.6837 C   0  0  0  0  0  0  0  0  0  0  0  0
   -1.1075    1.4201   -2.8317 O   0  0  0  0  0  0  0  0  0  0  0  0
   -0.5481    2.7403   -2.8615 C   0  0  0  0  0  0  0  0  0  0  0  0
   -0.5558    1.1971   -0.4775 C   0  0  0  0  0  0  0  0  0  0  0  0
   -0.6257    0.4224    0.6665 C   0  0  0  0  0  0  0  0  0  0  0  0
   -2.2963   -2.3010   -0.6597 H   0  0  0  0  0  0  0  0  0  0  0  0
   -2.1506   -0.8609   -2.7001 H   0  0  0  0  0  0  0  0  0  0  0  0
   -1.0765    3.4028   -2.1693 H   0  0  0  0  0  0  0  0  0  0  0  0
   -0.6848    3.0897   -3.8842 H   0  0  0  0  0  0  0  0  0  0  0  0
    0.5191    2.7178   -2.6184 H   0  0  0  0  0  0  0  0  0  0  0  0
   -0.1006    2.1755   -0.4062 H   0  0  0  0  0  0  0  0  0  0  0  0
   -0.2298    0.7617    1.6238 H   0  0  0  0  0  0  0  0  0  0  0  0
   -1.7201    1.4552    3.3699 B   0  0  0  0  0  0  0  0  0  0  0  0
   -0.3000    1.2746    3.4014 F   0  0  0  0  0  0  0  0  0  0  0  0
   -2.0258    2.2312    2.2368 F   0  0  0  0  0  0  0  0  0  0  0  0
   -2.2903    0.1587    3.1785 F   0  0  0  0  0  0  0  0  0  0  0  0
   -2.1716    2.0249    4.5340 F   0  0  0  0  0  0  0  0  0  0  0  0
  1 10  1  0  0  0  0
  1  2  1  0  0  0  0
  2  3  1  0  0  0  0
  4  1  2  0  0  0  0
  5  6  2  0  0  0  0
  5  4  1  0  0  0  0
  6  9  1  0  0  0  0
  7  6  1  0  0  0  0
  8  7  1  0  0  0  0
  8 15  1  0  0  0  0
  8 13  1  0  0  0  0
  9 16  1  0  0  0  0
  9 10  2  0  0  0  0
 10 17  1  0  0  0  0
 11  4  1  0  0  0  0
 12  5  1  0  0  0  0
 14  8  1  0  0  0  0
 18 19  1  0  0  0  0
 18 22  1  0  0  0  0
 20 18  1  0  0  0  0
 21 18  1  0  0  0  0
M  RAD  2   2   2   3   3
M  END
