Coordinates from ORCA-job 4-MeOPhN2+~BF4-_B3LYPG-6-31G_dp-NX-Scan-d89-09-n800
 OpenBabel11261920503D

 22 21  0  0  0  0  0  0  0  0999 V2000
   -1.2254   -1.4359    0.4412 C   0  0  0  0  0  0  0  0  0  0  0  0
   -1.3552   -2.3525    1.4222 N   0  0  0  0  0  0  0  0  0  0  0  0
   -1.4501   -3.0777    2.2745 N   0  0  0  0  0  0  0  0  0  0  0  0
   -1.6357   -1.7410   -0.8884 C   0  0  0  0  0  0  0  0  0  0  0  0
   -1.5670   -0.7370   -1.8168 C   0  0  0  0  0  0  0  0  0  0  0  0
   -1.1150    0.5637   -1.4387 C   0  0  0  0  0  0  0  0  0  0  0  0
   -1.1827    1.4916   -2.3857 O   0  0  0  0  0  0  0  0  0  0  0  0
   -0.8450    2.8572   -2.0444 C   0  0  0  0  0  0  0  0  0  0  0  0
   -0.6580    0.8191   -0.1345 C   0  0  0  0  0  0  0  0  0  0  0  0
   -0.7369   -0.1652    0.8236 C   0  0  0  0  0  0  0  0  0  0  0  0
   -2.0023   -2.7290   -1.1421 H   0  0  0  0  0  0  0  0  0  0  0  0
   -1.8852   -0.8963   -2.8406 H   0  0  0  0  0  0  0  0  0  0  0  0
   -1.3520    3.1700   -1.1283 H   0  0  0  0  0  0  0  0  0  0  0  0
   -1.1752    3.4517   -2.8949 H   0  0  0  0  0  0  0  0  0  0  0  0
    0.2371    2.9521   -1.9166 H   0  0  0  0  0  0  0  0  0  0  0  0
   -0.3604    1.8063    0.2022 H   0  0  0  0  0  0  0  0  0  0  0  0
   -0.4792    0.0760    1.8540 H   0  0  0  0  0  0  0  0  0  0  0  0
   -1.4629    2.4116    2.5744 B   0  0  0  0  0  0  0  0  0  0  0  0
   -0.4614    1.5157    3.0658 F   0  0  0  0  0  0  0  0  0  0  0  0
   -0.8819    3.1640    1.5029 F   0  0  0  0  0  0  0  0  0  0  0  0
   -2.5075    1.6262    2.0458 F   0  0  0  0  0  0  0  0  0  0  0  0
   -1.9021    3.2490    3.5709 F   0  0  0  0  0  0  0  0  0  0  0  0
  1 10  1  0  0  0  0
  1  2  1  0  0  0  0
  2  3  1  0  0  0  0
  4  1  2  0  0  0  0
  5  6  2  0  0  0  0
  5  4  1  0  0  0  0
  6  9  1  0  0  0  0
  7  8  1  0  0  0  0
  7  6  1  0  0  0  0
  8 15  1  0  0  0  0
  8 13  1  0  0  0  0
  9 16  1  0  0  0  0
  9 10  2  0  0  0  0
 10 17  1  0  0  0  0
 11  4  1  0  0  0  0
 12  5  1  0  0  0  0
 14  8  1  0  0  0  0
 18 19  1  0  0  0  0
 18 22  1  0  0  0  0
 20 18  1  0  0  0  0
 21 18  1  0  0  0  0
M  RAD  2   2   2   3   3
M  END
