Coordinates from ORCA-job 4-MeOPhN2+~BF4-_B3LYPG-6-31G_dp-NX-Scan-d89-09-n800
 OpenBabel11261920503D

 22 21  0  0  0  0  0  0  0  0999 V2000
   -1.2437   -1.5385    0.4326 C   0  0  0  0  0  0  0  0  0  0  0  0
   -1.3514   -2.5335    1.3356 N   0  0  0  0  0  0  0  0  0  0  0  0
   -1.4357   -3.3525    2.1016 N   0  0  0  0  0  0  0  0  0  0  0  0
   -1.6109   -1.7919   -0.9217 C   0  0  0  0  0  0  0  0  0  0  0  0
   -1.5478   -0.7502   -1.8064 C   0  0  0  0  0  0  0  0  0  0  0  0
   -1.1325    0.5428   -1.3657 C   0  0  0  0  0  0  0  0  0  0  0  0
   -1.1813    1.4983   -2.2800 O   0  0  0  0  0  0  0  0  0  0  0  0
   -0.8444    2.8594   -1.9024 C   0  0  0  0  0  0  0  0  0  0  0  0
   -0.7234    0.7546   -0.0337 C   0  0  0  0  0  0  0  0  0  0  0  0
   -0.8036   -0.2680    0.8815 C   0  0  0  0  0  0  0  0  0  0  0  0
   -1.9409   -2.7785   -1.2266 H   0  0  0  0  0  0  0  0  0  0  0  0
   -1.8347   -0.8754   -2.8440 H   0  0  0  0  0  0  0  0  0  0  0  0
   -1.3389    3.1470   -0.9722 H   0  0  0  0  0  0  0  0  0  0  0  0
   -1.1793    3.4713   -2.7385 H   0  0  0  0  0  0  0  0  0  0  0  0
    0.2395    2.9457   -1.7835 H   0  0  0  0  0  0  0  0  0  0  0  0
   -0.4392    1.7340    0.3356 H   0  0  0  0  0  0  0  0  0  0  0  0
   -0.5680   -0.0474    1.9190 H   0  0  0  0  0  0  0  0  0  0  0  0
   -1.4346    2.6152    2.4319 B   0  0  0  0  0  0  0  0  0  0  0  0
   -0.3142    1.7911    2.7602 F   0  0  0  0  0  0  0  0  0  0  0  0
   -1.0744    3.3534    1.2518 F   0  0  0  0  0  0  0  0  0  0  0  0
   -2.5102    1.7699    2.1090 F   0  0  0  0  0  0  0  0  0  0  0  0
   -1.7340    3.4729    3.4624 F   0  0  0  0  0  0  0  0  0  0  0  0
  1 10  1  0  0  0  0
  1  2  1  0  0  0  0
  2  3  1  0  0  0  0
  4  1  2  0  0  0  0
  5  6  2  0  0  0  0
  5  4  1  0  0  0  0
  6  9  1  0  0  0  0
  7  8  1  0  0  0  0
  7  6  1  0  0  0  0
  8 15  1  0  0  0  0
  8 13  1  0  0  0  0
  9 16  1  0  0  0  0
  9 10  2  0  0  0  0
 10 17  1  0  0  0  0
 11  4  1  0  0  0  0
 12  5  1  0  0  0  0
 14  8  1  0  0  0  0
 18 19  1  0  0  0  0
 18 22  1  0  0  0  0
 20 18  1  0  0  0  0
 21 18  1  0  0  0  0
M  RAD  2   2   2   3   3
M  END
