Coordinates from ORCA-job 4-MeOPhN2+~BF4-_B3LYPG-6-31G_dp-NX-Scan-d89-09-n800
 OpenBabel11261920503D

 22 21  0  0  0  0  0  0  0  0999 V2000
   -1.2589   -0.8573    0.5633 C   0  0  0  0  0  0  0  0  0  0  0  0
   -1.3526   -1.6402    1.6751 N   0  0  0  0  0  0  0  0  0  0  0  0
   -1.4237   -2.3229    2.5553 N   0  0  0  0  0  0  0  0  0  0  0  0
   -1.8122   -1.3471   -0.6462 C   0  0  0  0  0  0  0  0  0  0  0  0
   -1.7274   -0.5488   -1.7590 C   0  0  0  0  0  0  0  0  0  0  0  0
   -1.1091    0.7275   -1.6774 C   0  0  0  0  0  0  0  0  0  0  0  0
   -1.1049    1.4228   -2.8194 O   0  0  0  0  0  0  0  0  0  0  0  0
   -0.5548    2.7474   -2.8355 C   0  0  0  0  0  0  0  0  0  0  0  0
   -0.5587    1.1823   -0.4658 C   0  0  0  0  0  0  0  0  0  0  0  0
   -0.6314    0.3986    0.6715 C   0  0  0  0  0  0  0  0  0  0  0  0
   -2.2943   -2.3173   -0.6811 H   0  0  0  0  0  0  0  0  0  0  0  0
   -2.1390   -0.8630   -2.7108 H   0  0  0  0  0  0  0  0  0  0  0  0
   -1.0893    3.3991   -2.1379 H   0  0  0  0  0  0  0  0  0  0  0  0
   -0.6925    3.1056   -3.8551 H   0  0  0  0  0  0  0  0  0  0  0  0
    0.5120    2.7302   -2.5909 H   0  0  0  0  0  0  0  0  0  0  0  0
   -0.1068    2.1615   -0.3842 H   0  0  0  0  0  0  0  0  0  0  0  0
   -0.2385    0.7310    1.6326 H   0  0  0  0  0  0  0  0  0  0  0  0
   -1.7030    1.4886    3.3480 B   0  0  0  0  0  0  0  0  0  0  0  0
   -0.2787    1.3506    3.3732 F   0  0  0  0  0  0  0  0  0  0  0  0
   -2.0379    2.2418    2.2079 F   0  0  0  0  0  0  0  0  0  0  0  0
   -2.2355    0.1724    3.1748 F   0  0  0  0  0  0  0  0  0  0  0  0
   -2.1664    2.0567    4.5082 F   0  0  0  0  0  0  0  0  0  0  0  0
  1 10  1  0  0  0  0
  1  2  1  0  0  0  0
  2  3  1  0  0  0  0
  4  1  2  0  0  0  0
  5  6  2  0  0  0  0
  5  4  1  0  0  0  0
  6  9  1  0  0  0  0
  7  6  1  0  0  0  0
  8  7  1  0  0  0  0
  8 15  1  0  0  0  0
  8 13  1  0  0  0  0
  9 16  1  0  0  0  0
  9 10  2  0  0  0  0
 10 17  1  0  0  0  0
 11  4  1  0  0  0  0
 12  5  1  0  0  0  0
 14  8  1  0  0  0  0
 18 19  1  0  0  0  0
 18 22  1  0  0  0  0
 20 18  1  0  0  0  0
 21 18  1  0  0  0  0
M  RAD  2   2   2   3   3
M  END
