Coordinates from ORCA-job 4-MeOPhN2+~BF4-_B3LYPG-6-31G_dp-NX-Scan-d89-09-n800
 OpenBabel11261920503D

 22 21  0  0  0  0  0  0  0  0999 V2000
   -1.2727   -1.4951    0.4484 C   0  0  0  0  0  0  0  0  0  0  0  0
   -1.4509   -2.4668    1.3641 N   0  0  0  0  0  0  0  0  0  0  0  0
   -1.5955   -3.2703    2.1374 N   0  0  0  0  0  0  0  0  0  0  0  0
   -1.6954   -1.7254   -0.8939 C   0  0  0  0  0  0  0  0  0  0  0  0
   -1.5786   -0.6961   -1.7878 C   0  0  0  0  0  0  0  0  0  0  0  0
   -1.0614    0.5658   -1.3654 C   0  0  0  0  0  0  0  0  0  0  0  0
   -1.0887    1.5274   -2.2735 O   0  0  0  0  0  0  0  0  0  0  0  0
   -0.7368    2.8796   -1.8755 C   0  0  0  0  0  0  0  0  0  0  0  0
   -0.5799    0.7441   -0.0536 C   0  0  0  0  0  0  0  0  0  0  0  0
   -0.7135   -0.2632    0.8715 C   0  0  0  0  0  0  0  0  0  0  0  0
   -2.1114   -2.6843   -1.1813 H   0  0  0  0  0  0  0  0  0  0  0  0
   -1.9089   -0.8022   -2.8145 H   0  0  0  0  0  0  0  0  0  0  0  0
   -1.2567    3.1520   -0.9533 H   0  0  0  0  0  0  0  0  0  0  0  0
   -1.0493    3.5052   -2.7102 H   0  0  0  0  0  0  0  0  0  0  0  0
    0.3462    2.9523   -1.7395 H   0  0  0  0  0  0  0  0  0  0  0  0
   -0.2018    1.6879    0.3136 H   0  0  0  0  0  0  0  0  0  0  0  0
   -0.4487   -0.0691    1.9028 H   0  0  0  0  0  0  0  0  0  0  0  0
   -1.5347    2.5158    2.3760 B   0  0  0  0  0  0  0  0  0  0  0  0
   -0.1298    2.2629    2.2879 F   0  0  0  0  0  0  0  0  0  0  0  0
   -1.9590    3.0001    1.1055 F   0  0  0  0  0  0  0  0  0  0  0  0
   -2.1693    1.2729    2.6186 F   0  0  0  0  0  0  0  0  0  0  0  0
   -1.8071    3.4264    3.3691 F   0  0  0  0  0  0  0  0  0  0  0  0
  1 10  1  0  0  0  0
  1  2  1  0  0  0  0
  2  3  1  0  0  0  0
  4  1  2  0  0  0  0
  5  6  2  0  0  0  0
  5  4  1  0  0  0  0
  6  9  1  0  0  0  0
  7  8  1  0  0  0  0
  7  6  1  0  0  0  0
  8 15  1  0  0  0  0
  8 13  1  0  0  0  0
  9 16  1  0  0  0  0
  9 10  2  0  0  0  0
 10 17  1  0  0  0  0
 11  4  1  0  0  0  0
 12  5  1  0  0  0  0
 14  8  1  0  0  0  0
 18 21  1  0  0  0  0
 18 22  1  0  0  0  0
 19 18  1  0  0  0  0
 20 18  1  0  0  0  0
M  RAD  2   2   2   3   3
M  END
