Coordinates from ORCA-job 4-MeOPhN2+~BF4-_B3LYPG-6-31G_dp-NX-Scan-d89-09-n800
 OpenBabel11261920503D

 22 21  0  0  0  0  0  0  0  0999 V2000
   -1.2449   -1.5427    0.4331 C   0  0  0  0  0  0  0  0  0  0  0  0
   -1.3504   -2.5435    1.3299 N   0  0  0  0  0  0  0  0  0  0  0  0
   -1.4357   -3.3725    2.0850 N   0  0  0  0  0  0  0  0  0  0  0  0
   -1.6097   -1.7940   -0.9225 C   0  0  0  0  0  0  0  0  0  0  0  0
   -1.5474   -0.7509   -1.8054 C   0  0  0  0  0  0  0  0  0  0  0  0
   -1.1342    0.5418   -1.3621 C   0  0  0  0  0  0  0  0  0  0  0  0
   -1.1815    1.4979   -2.2755 O   0  0  0  0  0  0  0  0  0  0  0  0
   -0.8442    2.8591   -1.8979 C   0  0  0  0  0  0  0  0  0  0  0  0
   -0.7283    0.7521   -0.0286 C   0  0  0  0  0  0  0  0  0  0  0  0
   -0.8081   -0.2720    0.8850 C   0  0  0  0  0  0  0  0  0  0  0  0
   -1.9373   -2.7808   -1.2294 H   0  0  0  0  0  0  0  0  0  0  0  0
   -1.8325   -0.8751   -2.8436 H   0  0  0  0  0  0  0  0  0  0  0  0
   -1.3398    3.1478   -0.9686 H   0  0  0  0  0  0  0  0  0  0  0  0
   -1.1774    3.4704   -2.7351 H   0  0  0  0  0  0  0  0  0  0  0  0
    0.2396    2.9445   -1.7774 H   0  0  0  0  0  0  0  0  0  0  0  0
   -0.4450    1.7316    0.3409 H   0  0  0  0  0  0  0  0  0  0  0  0
   -0.5729   -0.0530    1.9228 H   0  0  0  0  0  0  0  0  0  0  0  0
   -1.4318    2.6263    2.4284 B   0  0  0  0  0  0  0  0  0  0  0  0
   -0.3061    1.8094    2.7538 F   0  0  0  0  0  0  0  0  0  0  0  0
   -1.0808    3.3603    1.2425 F   0  0  0  0  0  0  0  0  0  0  0  0
   -2.5055    1.7750    2.1151 F   0  0  0  0  0  0  0  0  0  0  0  0
   -1.7298    3.4880    3.4559 F   0  0  0  0  0  0  0  0  0  0  0  0
  1 10  1  0  0  0  0
  1  2  1  0  0  0  0
  2  3  1  0  0  0  0
  4  1  2  0  0  0  0
  5  6  2  0  0  0  0
  5  4  1  0  0  0  0
  6  9  1  0  0  0  0
  7  8  1  0  0  0  0
  7  6  1  0  0  0  0
  8 15  1  0  0  0  0
  8 13  1  0  0  0  0
  9 16  1  0  0  0  0
  9 10  2  0  0  0  0
 10 17  1  0  0  0  0
 11  4  1  0  0  0  0
 12  5  1  0  0  0  0
 14  8  1  0  0  0  0
 18 19  1  0  0  0  0
 18 22  1  0  0  0  0
 20 18  1  0  0  0  0
 21 18  1  0  0  0  0
M  RAD  2   2   2   3   3
M  END
