Coordinates from ORCA-job 4-MeOPhN2+~BF4-_B3LYPG-6-31G_dp-NX-Scan-d89-09-n800
 OpenBabel11261920503D

 22 21  0  0  0  0  0  0  0  0999 V2000
   -1.2498   -0.8035    0.5761 C   0  0  0  0  0  0  0  0  0  0  0  0
   -1.3367   -1.5731    1.6995 N   0  0  0  0  0  0  0  0  0  0  0  0
   -1.4059   -2.2608    2.5755 N   0  0  0  0  0  0  0  0  0  0  0  0
   -1.7908   -1.3251   -0.6249 C   0  0  0  0  0  0  0  0  0  0  0  0
   -1.7094   -0.5506   -1.7552 C   0  0  0  0  0  0  0  0  0  0  0  0
   -1.1052    0.7328   -1.6994 C   0  0  0  0  0  0  0  0  0  0  0  0
   -1.0996    1.4018   -2.8573 O   0  0  0  0  0  0  0  0  0  0  0  0
   -0.5575    2.7287   -2.9022 C   0  0  0  0  0  0  0  0  0  0  0  0
   -0.5677    1.2207   -0.4941 C   0  0  0  0  0  0  0  0  0  0  0  0
   -0.6369    0.4611    0.6598 C   0  0  0  0  0  0  0  0  0  0  0  0
   -2.2613   -2.3014   -0.6411 H   0  0  0  0  0  0  0  0  0  0  0  0
   -2.1119   -0.8913   -2.7018 H   0  0  0  0  0  0  0  0  0  0  0  0
   -1.1025    3.3951   -2.2269 H   0  0  0  0  0  0  0  0  0  0  0  0
   -0.6876    3.0599   -3.9318 H   0  0  0  0  0  0  0  0  0  0  0  0
    0.5071    2.7247   -2.6472 H   0  0  0  0  0  0  0  0  0  0  0  0
   -0.1238    2.2051   -0.4338 H   0  0  0  0  0  0  0  0  0  0  0  0
   -0.2541    0.8122    1.6172 H   0  0  0  0  0  0  0  0  0  0  0  0
   -1.7206    1.4228    3.4134 B   0  0  0  0  0  0  0  0  0  0  0  0
   -0.3274    1.0846    3.4551 F   0  0  0  0  0  0  0  0  0  0  0  0
   -1.9018    2.3341    2.3594 F   0  0  0  0  0  0  0  0  0  0  0  0
   -2.4191    0.2201    3.0851 F   0  0  0  0  0  0  0  0  0  0  0  0
   -2.1414    1.9217    4.6211 F   0  0  0  0  0  0  0  0  0  0  0  0
  1 10  1  0  0  0  0
  1  2  1  0  0  0  0
  2  3  1  0  0  0  0
  4  1  2  0  0  0  0
  5  6  2  0  0  0  0
  5  4  1  0  0  0  0
  6  9  1  0  0  0  0
  7  6  1  0  0  0  0
  8  7  1  0  0  0  0
  8 15  1  0  0  0  0
  8 13  1  0  0  0  0
  9 16  1  0  0  0  0
  9 10  2  0  0  0  0
 10 17  1  0  0  0  0
 11  4  1  0  0  0  0
 12  5  1  0  0  0  0
 14  8  1  0  0  0  0
 18 19  1  0  0  0  0
 18 22  1  0  0  0  0
 20 18  1  0  0  0  0
 21 18  1  0  0  0  0
M  RAD  2   2   2   3   3
M  END
