Coordinates from ORCA-job 4-MeOPhN2+~BF4-_B3LYPG-6-31G_dp-NX-Scan-d89-09-n800
 OpenBabel11261920503D

 22 21  0  0  0  0  0  0  0  0999 V2000
   -1.2568   -1.3629    0.4355 C   0  0  0  0  0  0  0  0  0  0  0  0
   -1.3445   -2.2755    1.4288 N   0  0  0  0  0  0  0  0  0  0  0  0
   -1.4085   -2.9984    2.2852 N   0  0  0  0  0  0  0  0  0  0  0  0
   -1.5771   -1.7363   -0.9003 C   0  0  0  0  0  0  0  0  0  0  0  0
   -1.5141   -0.7610   -1.8587 C   0  0  0  0  0  0  0  0  0  0  0  0
   -1.1539    0.5744   -1.5061 C   0  0  0  0  0  0  0  0  0  0  0  0
   -1.1625    1.4432   -2.5134 O   0  0  0  0  0  0  0  0  0  0  0  0
   -0.8588    2.8270   -2.2434 C   0  0  0  0  0  0  0  0  0  0  0  0
   -0.8299    0.9126   -0.1808 C   0  0  0  0  0  0  0  0  0  0  0  0
   -0.8815   -0.0512    0.8048 C   0  0  0  0  0  0  0  0  0  0  0  0
   -1.8666   -2.7533   -1.1392 H   0  0  0  0  0  0  0  0  0  0  0  0
   -1.7528   -0.9740   -2.8944 H   0  0  0  0  0  0  0  0  0  0  0  0
   -1.5438    3.2350   -1.4956 H   0  0  0  0  0  0  0  0  0  0  0  0
   -0.9874    3.3385   -3.1960 H   0  0  0  0  0  0  0  0  0  0  0  0
    0.1729    2.9319   -1.8966 H   0  0  0  0  0  0  0  0  0  0  0  0
   -0.5936    1.9204    0.1469 H   0  0  0  0  0  0  0  0  0  0  0  0
   -0.6622    0.2154    1.8423 H   0  0  0  0  0  0  0  0  0  0  0  0
   -1.3744    2.3322    2.8268 B   0  0  0  0  0  0  0  0  0  0  0  0
   -0.5299    1.2703    3.2986 F   0  0  0  0  0  0  0  0  0  0  0  0
   -0.6587    3.0263    1.8091 F   0  0  0  0  0  0  0  0  0  0  0  0
   -2.5049    1.7302    2.2366 F   0  0  0  0  0  0  0  0  0  0  0  0
   -1.7147    3.1749    3.8565 F   0  0  0  0  0  0  0  0  0  0  0  0
  1 10  1  0  0  0  0
  1  2  1  0  0  0  0
  2  3  1  0  0  0  0
  4  1  2  0  0  0  0
  5  6  2  0  0  0  0
  5  4  1  0  0  0  0
  6  9  1  0  0  0  0
  7  8  1  0  0  0  0
  7  6  1  0  0  0  0
  8 15  1  0  0  0  0
  8 13  1  0  0  0  0
  9 16  1  0  0  0  0
  9 10  2  0  0  0  0
 10 17  1  0  0  0  0
 11  4  1  0  0  0  0
 12  5  1  0  0  0  0
 14  8  1  0  0  0  0
 18 19  1  0  0  0  0
 18 22  1  0  0  0  0
 20 18  1  0  0  0  0
 21 18  1  0  0  0  0
M  RAD  2   2   2   3   3
M  END
