Coordinates from ORCA-job 4-MeOPhN2+~BF4-_B3LYPG-6-31G_dp-NX-Scan-d89-09-n800
 OpenBabel11261920503D

 22 21  0  0  0  0  0  0  0  0999 V2000
   -1.4338   -1.8794    0.3016 C   0  0  0  0  0  0  0  0  0  0  0  0
   -1.5997   -3.0008    1.0257 N   0  0  0  0  0  0  0  0  0  0  0  0
   -1.7391   -3.9450    1.6246 N   0  0  0  0  0  0  0  0  0  0  0  0
   -1.5780   -1.9571   -1.1159 C   0  0  0  0  0  0  0  0  0  0  0  0
   -1.4239   -0.8111   -1.8457 C   0  0  0  0  0  0  0  0  0  0  0  0
   -1.1328    0.4289   -1.1973 C   0  0  0  0  0  0  0  0  0  0  0  0
   -1.0316    1.4708   -1.9884 O   0  0  0  0  0  0  0  0  0  0  0  0
   -0.8189    2.8029   -1.4180 C   0  0  0  0  0  0  0  0  0  0  0  0
   -0.9730    0.4826    0.2124 C   0  0  0  0  0  0  0  0  0  0  0  0
   -1.1268   -0.6554    0.9606 C   0  0  0  0  0  0  0  0  0  0  0  0
   -1.8094   -2.9048   -1.5891 H   0  0  0  0  0  0  0  0  0  0  0  0
   -1.5311   -0.8140   -2.9246 H   0  0  0  0  0  0  0  0  0  0  0  0
   -1.6066    3.0338   -0.6989 H   0  0  0  0  0  0  0  0  0  0  0  0
   -0.8347    3.4671   -2.2796 H   0  0  0  0  0  0  0  0  0  0  0  0
    0.1429    2.8472   -0.9068 H   0  0  0  0  0  0  0  0  0  0  0  0
   -0.7416    1.3934    0.7527 H   0  0  0  0  0  0  0  0  0  0  0  0
   -1.0220   -0.5964    2.0391 H   0  0  0  0  0  0  0  0  0  0  0  0
   -1.1507    3.3639    2.0609 B   0  0  0  0  0  0  0  0  0  0  0  0
   -0.1967    3.9859    1.2331 F   0  0  0  0  0  0  0  0  0  0  0  0
   -2.2836    3.0296    1.2584 F   0  0  0  0  0  0  0  0  0  0  0  0
   -0.5996    2.1211    2.5176 F   0  0  0  0  0  0  0  0  0  0  0  0
   -1.5133    4.1565    3.1239 F   0  0  0  0  0  0  0  0  0  0  0  0
  1 10  1  0  0  0  0
  1  2  1  0  0  0  0
  2  3  1  0  0  0  0
  4  1  2  0  0  0  0
  5  6  2  0  0  0  0
  5  4  1  0  0  0  0
  6  9  1  0  0  0  0
  7  8  1  0  0  0  0
  7  6  1  0  0  0  0
  8 15  1  0  0  0  0
  8 13  1  0  0  0  0
  9 16  1  0  0  0  0
  9 10  2  0  0  0  0
 10 17  1  0  0  0  0
 11  4  1  0  0  0  0
 12  5  1  0  0  0  0
 14  8  1  0  0  0  0
 18 21  1  0  0  0  0
 18 22  1  0  0  0  0
 19 18  1  0  0  0  0
 20 18  1  0  0  0  0
M  RAD  2   2   2   3   3
M  END
