Coordinates from ORCA-job 4-MeOPhN2+~BF4-_B3LYPG-6-31G_dp-NX-Scan-d89-09-n800
 OpenBabel11261920503D

 22 21  0  0  0  0  0  0  0  0999 V2000
   -1.2238   -0.7635    0.5931 C   0  0  0  0  0  0  0  0  0  0  0  0
   -1.2893   -1.5222    1.7261 N   0  0  0  0  0  0  0  0  0  0  0  0
   -1.3415   -2.2026    2.6084 N   0  0  0  0  0  0  0  0  0  0  0  0
   -1.7917   -1.2931   -0.5912 C   0  0  0  0  0  0  0  0  0  0  0  0
   -1.7254   -0.5312   -1.7316 C   0  0  0  0  0  0  0  0  0  0  0  0
   -1.1088    0.7467   -1.7021 C   0  0  0  0  0  0  0  0  0  0  0  0
   -1.1145    1.4013   -2.8687 O   0  0  0  0  0  0  0  0  0  0  0  0
   -0.5527    2.7185   -2.9400 C   0  0  0  0  0  0  0  0  0  0  0  0
   -0.5484    1.2450   -0.5116 C   0  0  0  0  0  0  0  0  0  0  0  0
   -0.6029    0.4981    0.6513 C   0  0  0  0  0  0  0  0  0  0  0  0
   -2.2700   -2.2657   -0.5883 H   0  0  0  0  0  0  0  0  0  0  0  0
   -2.1479   -0.8793   -2.6667 H   0  0  0  0  0  0  0  0  0  0  0  0
   -1.0775    3.4032   -2.2669 H   0  0  0  0  0  0  0  0  0  0  0  0
   -0.6920    3.0375   -3.9722 H   0  0  0  0  0  0  0  0  0  0  0  0
    0.5153    2.7013   -2.6997 H   0  0  0  0  0  0  0  0  0  0  0  0
   -0.0958    2.2264   -0.4713 H   0  0  0  0  0  0  0  0  0  0  0  0
   -0.2119    0.8522    1.6023 H   0  0  0  0  0  0  0  0  0  0  0  0
   -1.7642    1.3554    3.4217 B   0  0  0  0  0  0  0  0  0  0  0  0
   -0.3967    0.9178    3.4730 F   0  0  0  0  0  0  0  0  0  0  0  0
   -1.8629    2.3074    2.3922 F   0  0  0  0  0  0  0  0  0  0  0  0
   -2.5377    0.2154    3.0507 F   0  0  0  0  0  0  0  0  0  0  0  0
   -2.1635    1.8510    4.6379 F   0  0  0  0  0  0  0  0  0  0  0  0
  1 10  1  0  0  0  0
  1  2  1  0  0  0  0
  2  3  1  0  0  0  0
  4 11  1  0  0  0  0
  4  1  2  0  0  0  0
  5  6  2  0  0  0  0
  5  4  1  0  0  0  0
  6  9  1  0  0  0  0
  7  6  1  0  0  0  0
  8  7  1  0  0  0  0
  8 15  1  0  0  0  0
  8 13  1  0  0  0  0
  9 16  1  0  0  0  0
  9 10  2  0  0  0  0
 10 17  1  0  0  0  0
 12  5  1  0  0  0  0
 14  8  1  0  0  0  0
 18 19  1  0  0  0  0
 18 22  1  0  0  0  0
 20 18  1  0  0  0  0
 21 18  1  0  0  0  0
M  RAD  2   2   2   3   3
M  END
