Coordinates from ORCA-job 4-MeOPhN2+~BF4-_B3LYPG-6-31G_dp-NX-Scan-d89-09-n800
 OpenBabel11261920503D

 22 21  0  0  0  0  0  0  0  0999 V2000
   -1.2551   -1.3372    0.4381 C   0  0  0  0  0  0  0  0  0  0  0  0
   -1.3409   -2.2354    1.4451 N   0  0  0  0  0  0  0  0  0  0  0  0
   -1.4026   -2.9413    2.3153 N   0  0  0  0  0  0  0  0  0  0  0  0
   -1.5770   -1.7245   -0.8928 C   0  0  0  0  0  0  0  0  0  0  0  0
   -1.5141   -0.7582   -1.8605 C   0  0  0  0  0  0  0  0  0  0  0  0
   -1.1545    0.5812   -1.5214 C   0  0  0  0  0  0  0  0  0  0  0  0
   -1.1601    1.4377   -2.5397 O   0  0  0  0  0  0  0  0  0  0  0  0
   -0.8555    2.8238   -2.2875 C   0  0  0  0  0  0  0  0  0  0  0  0
   -0.8332    0.9334   -0.1991 C   0  0  0  0  0  0  0  0  0  0  0  0
   -0.8808   -0.0225    0.7944 C   0  0  0  0  0  0  0  0  0  0  0  0
   -1.8669   -2.7437   -1.1216 H   0  0  0  0  0  0  0  0  0  0  0  0
   -1.7523   -0.9810   -2.8941 H   0  0  0  0  0  0  0  0  0  0  0  0
   -1.5537    3.2471   -1.5606 H   0  0  0  0  0  0  0  0  0  0  0  0
   -0.9642    3.3201   -3.2506 H   0  0  0  0  0  0  0  0  0  0  0  0
    0.1699    2.9316   -1.9232 H   0  0  0  0  0  0  0  0  0  0  0  0
   -0.5998    1.9436    0.1213 H   0  0  0  0  0  0  0  0  0  0  0  0
   -0.6587    0.2439    1.8313 H   0  0  0  0  0  0  0  0  0  0  0  0
   -1.3788    2.2869    2.8715 B   0  0  0  0  0  0  0  0  0  0  0  0
   -0.5544    1.2054    3.3381 F   0  0  0  0  0  0  0  0  0  0  0  0
   -0.6450    2.9762    1.8650 F   0  0  0  0  0  0  0  0  0  0  0  0
   -2.5152    1.7077    2.2699 F   0  0  0  0  0  0  0  0  0  0  0  0
   -1.7108    3.1248    3.9076 F   0  0  0  0  0  0  0  0  0  0  0  0
  1 10  1  0  0  0  0
  1  2  1  0  0  0  0
  2  3  1  0  0  0  0
  4  1  2  0  0  0  0
  5  6  2  0  0  0  0
  5  4  1  0  0  0  0
  6  9  1  0  0  0  0
  7  8  1  0  0  0  0
  7  6  1  0  0  0  0
  8 15  1  0  0  0  0
  8 13  1  0  0  0  0
  9 16  1  0  0  0  0
  9 10  2  0  0  0  0
 10 17  1  0  0  0  0
 11  4  1  0  0  0  0
 12  5  1  0  0  0  0
 14  8  1  0  0  0  0
 18 19  1  0  0  0  0
 18 22  1  0  0  0  0
 20 18  1  0  0  0  0
 21 18  1  0  0  0  0
M  RAD  2   2   2   3   3
M  END
