Coordinates from ORCA-job 4-MeOPhN2+~BF4-_B3LYPG-6-31G_dp-NX-Scan-d89-09-n800
 OpenBabel11261920503D

 22 21  0  0  0  0  0  0  0  0999 V2000
   -1.4056   -1.7887    0.3458 C   0  0  0  0  0  0  0  0  0  0  0  0
   -1.5970   -2.8943    1.0927 N   0  0  0  0  0  0  0  0  0  0  0  0
   -1.7623   -3.8410    1.6816 N   0  0  0  0  0  0  0  0  0  0  0  0
   -1.5806   -1.9076   -1.0664 C   0  0  0  0  0  0  0  0  0  0  0  0
   -1.4221   -0.7892   -1.8368 C   0  0  0  0  0  0  0  0  0  0  0  0
   -1.0928    0.4621   -1.2324 C   0  0  0  0  0  0  0  0  0  0  0  0
   -1.0237    1.4889   -2.0498 O   0  0  0  0  0  0  0  0  0  0  0  0
   -0.8300    2.8335   -1.5059 C   0  0  0  0  0  0  0  0  0  0  0  0
   -0.8751    0.5510    0.1659 C   0  0  0  0  0  0  0  0  0  0  0  0
   -1.0520   -0.5538    0.9609 C   0  0  0  0  0  0  0  0  0  0  0  0
   -1.8442   -2.8643   -1.5033 H   0  0  0  0  0  0  0  0  0  0  0  0
   -1.5623   -0.8224   -2.9113 H   0  0  0  0  0  0  0  0  0  0  0  0
   -1.5852    3.0423   -0.7453 H   0  0  0  0  0  0  0  0  0  0  0  0
   -0.9207    3.4864   -2.3717 H   0  0  0  0  0  0  0  0  0  0  0  0
    0.1573    2.9176   -1.0513 H   0  0  0  0  0  0  0  0  0  0  0  0
   -0.5867    1.4792    0.6407 H   0  0  0  0  0  0  0  0  0  0  0  0
   -0.9384   -0.4438    2.0345 H   0  0  0  0  0  0  0  0  0  0  0  0
   -1.2246    3.1595    2.1255 B   0  0  0  0  0  0  0  0  0  0  0  0
   -0.1142    3.5474    1.3258 F   0  0  0  0  0  0  0  0  0  0  0  0
   -2.3326    2.9886    1.2505 F   0  0  0  0  0  0  0  0  0  0  0  0
   -0.9215    1.8836    2.6912 F   0  0  0  0  0  0  0  0  0  0  0  0
   -1.4894    4.0848    3.1055 F   0  0  0  0  0  0  0  0  0  0  0  0
  1 10  1  0  0  0  0
  1  2  1  0  0  0  0
  2  3  1  0  0  0  0
  4  1  2  0  0  0  0
  5  6  2  0  0  0  0
  5  4  1  0  0  0  0
  6  9  1  0  0  0  0
  7  8  1  0  0  0  0
  7  6  1  0  0  0  0
  8 15  1  0  0  0  0
  8 13  1  0  0  0  0
  9 16  1  0  0  0  0
  9 10  2  0  0  0  0
 10 17  1  0  0  0  0
 11  4  1  0  0  0  0
 12  5  1  0  0  0  0
 14  8  1  0  0  0  0
 18 21  1  0  0  0  0
 18 22  1  0  0  0  0
 19 18  1  0  0  0  0
 20 18  1  0  0  0  0
M  RAD  2   2   2   3   3
M  END
