Coordinates from ORCA-job 4-MeOPhN2+~BF4-_B3LYPG-6-31G_dp-NX-Scan-d89-09-n800
 OpenBabel11261920503D

 22 21  0  0  0  0  0  0  0  0999 V2000
   -1.2741   -0.5360    0.5582 C   0  0  0  0  0  0  0  0  0  0  0  0
   -1.3692   -1.2039    1.7531 N   0  0  0  0  0  0  0  0  0  0  0  0
   -1.4317   -1.7633    2.7199 N   0  0  0  0  0  0  0  0  0  0  0  0
   -1.5868   -1.2519   -0.6191 C   0  0  0  0  0  0  0  0  0  0  0  0
   -1.4946   -0.5968   -1.8253 C   0  0  0  0  0  0  0  0  0  0  0  0
   -1.0877    0.7582   -1.8679 C   0  0  0  0  0  0  0  0  0  0  0  0
   -1.0361    1.2975   -3.0936 O   0  0  0  0  0  0  0  0  0  0  0  0
   -0.6507    2.6687   -3.2434 C   0  0  0  0  0  0  0  0  0  0  0  0
   -0.7674    1.4449   -0.6807 C   0  0  0  0  0  0  0  0  0  0  0  0
   -0.8625    0.8092    0.5462 C   0  0  0  0  0  0  0  0  0  0  0  0
   -1.9009   -2.2881   -0.5651 H   0  0  0  0  0  0  0  0  0  0  0  0
   -1.7319   -1.0959   -2.7574 H   0  0  0  0  0  0  0  0  0  0  0  0
   -1.3445    3.3311   -2.7160 H   0  0  0  0  0  0  0  0  0  0  0  0
   -0.6953    2.8684   -4.3135 H   0  0  0  0  0  0  0  0  0  0  0  0
    0.3695    2.8317   -2.8811 H   0  0  0  0  0  0  0  0  0  0  0  0
   -0.4504    2.4792   -0.7045 H   0  0  0  0  0  0  0  0  0  0  0  0
   -0.6270    1.3066    1.4854 H   0  0  0  0  0  0  0  0  0  0  0  0
   -1.6254    1.0179    3.8978 B   0  0  0  0  0  0  0  0  0  0  0  0
   -1.3804   -0.2907    4.4092 F   0  0  0  0  0  0  0  0  0  0  0  0
   -0.4033    1.5061    3.3582 F   0  0  0  0  0  0  0  0  0  0  0  0
   -2.5369    0.8769    2.8171 F   0  0  0  0  0  0  0  0  0  0  0  0
   -2.1163    1.8497    4.8689 F   0  0  0  0  0  0  0  0  0  0  0  0
  1  2  1  0  0  0  0
  2  3  1  0  0  0  0
  4 11  1  0  0  0  0
  4  1  2  0  0  0  0
  5  4  1  0  0  0  0
  6  5  2  0  0  0  0
  6  9  1  0  0  0  0
  7  6  1  0  0  0  0
  8  7  1  0  0  0  0
  8 15  1  0  0  0  0
  8 13  1  0  0  0  0
  9 10  2  0  0  0  0
 10  1  1  0  0  0  0
 10 17  1  0  0  0  0
 12  5  1  0  0  0  0
 14  8  1  0  0  0  0
 16  9  1  0  0  0  0
 18 19  1  0  0  0  0
 18 22  1  0  0  0  0
 20 18  1  0  0  0  0
 21 18  1  0  0  0  0
M  RAD  2   2   2   3   3
M  END
