Coordinates from ORCA-job 4-MeOPhN2+~BF4-_B3LYPG-6-31G_dp-NX-Scan-d89-09-n800
 OpenBabel11261920503D

 22 21  0  0  0  0  0  0  0  0999 V2000
   -1.2446   -0.8028    0.5769 C   0  0  0  0  0  0  0  0  0  0  0  0
   -1.3310   -1.5688    1.7029 N   0  0  0  0  0  0  0  0  0  0  0  0
   -1.3986   -2.2503    2.5837 N   0  0  0  0  0  0  0  0  0  0  0  0
   -1.7892   -1.3244   -0.6222 C   0  0  0  0  0  0  0  0  0  0  0  0
   -1.7100   -0.5499   -1.7528 C   0  0  0  0  0  0  0  0  0  0  0  0
   -1.1056    0.7334   -1.6986 C   0  0  0  0  0  0  0  0  0  0  0  0
   -1.1026    1.4022   -2.8567 O   0  0  0  0  0  0  0  0  0  0  0  0
   -0.5600    2.7289   -2.9031 C   0  0  0  0  0  0  0  0  0  0  0  0
   -0.5652    1.2217   -0.4947 C   0  0  0  0  0  0  0  0  0  0  0  0
   -0.6311    0.4616    0.6589 C   0  0  0  0  0  0  0  0  0  0  0  0
   -2.2606   -2.3004   -0.6371 H   0  0  0  0  0  0  0  0  0  0  0  0
   -2.1148   -0.8906   -2.6984 H   0  0  0  0  0  0  0  0  0  0  0  0
   -1.1031    3.3956   -2.2266 H   0  0  0  0  0  0  0  0  0  0  0  0
   -0.6924    3.0599   -3.9325 H   0  0  0  0  0  0  0  0  0  0  0  0
    0.5052    2.7244   -2.6506 H   0  0  0  0  0  0  0  0  0  0  0  0
   -0.1211    2.2061   -0.4355 H   0  0  0  0  0  0  0  0  0  0  0  0
   -0.2469    0.8101    1.6166 H   0  0  0  0  0  0  0  0  0  0  0  0
   -1.7250    1.4189    3.4097 B   0  0  0  0  0  0  0  0  0  0  0  0
   -0.3372    1.0587    3.4578 F   0  0  0  0  0  0  0  0  0  0  0  0
   -1.8853    2.3407    2.3614 F   0  0  0  0  0  0  0  0  0  0  0  0
   -2.4393    0.2293    3.0687 F   0  0  0  0  0  0  0  0  0  0  0  0
   -2.1453    1.9155    4.6185 F   0  0  0  0  0  0  0  0  0  0  0  0
  1 10  1  0  0  0  0
  1  2  1  0  0  0  0
  2  3  1  0  0  0  0
  4  1  2  0  0  0  0
  5  6  2  0  0  0  0
  5  4  1  0  0  0  0
  6  9  1  0  0  0  0
  7  6  1  0  0  0  0
  8  7  1  0  0  0  0
  8 15  1  0  0  0  0
  8 13  1  0  0  0  0
  9 16  1  0  0  0  0
  9 10  2  0  0  0  0
 10 17  1  0  0  0  0
 11  4  1  0  0  0  0
 12  5  1  0  0  0  0
 14  8  1  0  0  0  0
 18 19  1  0  0  0  0
 18 22  1  0  0  0  0
 20 18  1  0  0  0  0
 21 18  1  0  0  0  0
M  RAD  2   2   2   3   3
M  END
