Coordinates from ORCA-job 4-MeOPhN2+~BF4-_B3LYPG-6-31G_dp-NX-Scan-d89-09-n800
 OpenBabel11261920503D

 22 21  0  0  0  0  0  0  0  0999 V2000
   -1.2803   -1.5193    0.4392 C   0  0  0  0  0  0  0  0  0  0  0  0
   -1.4543   -2.5044    1.3414 N   0  0  0  0  0  0  0  0  0  0  0  0
   -1.5954   -3.3219    2.1009 N   0  0  0  0  0  0  0  0  0  0  0  0
   -1.6879   -1.7410   -0.9093 C   0  0  0  0  0  0  0  0  0  0  0  0
   -1.5716   -0.7031   -1.7929 C   0  0  0  0  0  0  0  0  0  0  0  0
   -1.0668    0.5590   -1.3558 C   0  0  0  0  0  0  0  0  0  0  0  0
   -1.0896    1.5258   -2.2573 O   0  0  0  0  0  0  0  0  0  0  0  0
   -0.7388    2.8767   -1.8519 C   0  0  0  0  0  0  0  0  0  0  0  0
   -0.6007    0.7308   -0.0369 C   0  0  0  0  0  0  0  0  0  0  0  0
   -0.7365   -0.2851    0.8782 C   0  0  0  0  0  0  0  0  0  0  0  0
   -2.0919   -2.7012   -1.2092 H   0  0  0  0  0  0  0  0  0  0  0  0
   -1.8908   -0.8034   -2.8237 H   0  0  0  0  0  0  0  0  0  0  0  0
   -1.2596    3.1458   -0.9291 H   0  0  0  0  0  0  0  0  0  0  0  0
   -1.0501    3.5055   -2.6847 H   0  0  0  0  0  0  0  0  0  0  0  0
    0.3441    2.9479   -1.7143 H   0  0  0  0  0  0  0  0  0  0  0  0
   -0.2265    1.6728    0.3414 H   0  0  0  0  0  0  0  0  0  0  0  0
   -0.4882   -0.0983    1.9152 H   0  0  0  0  0  0  0  0  0  0  0  0
   -1.5180    2.5666    2.3640 B   0  0  0  0  0  0  0  0  0  0  0  0
   -0.1109    2.3518    2.2321 F   0  0  0  0  0  0  0  0  0  0  0  0
   -1.9972    3.0114    1.0984 F   0  0  0  0  0  0  0  0  0  0  0  0
   -2.1097    1.3126    2.6541 F   0  0  0  0  0  0  0  0  0  0  0  0
   -1.7832    3.4906    3.3467 F   0  0  0  0  0  0  0  0  0  0  0  0
  1 10  1  0  0  0  0
  1  2  1  0  0  0  0
  2  3  1  0  0  0  0
  4  1  2  0  0  0  0
  5  6  2  0  0  0  0
  5  4  1  0  0  0  0
  6  9  1  0  0  0  0
  7  8  1  0  0  0  0
  7  6  1  0  0  0  0
  8 15  1  0  0  0  0
  8 13  1  0  0  0  0
  9 16  1  0  0  0  0
  9 10  2  0  0  0  0
 10 17  1  0  0  0  0
 11  4  1  0  0  0  0
 12  5  1  0  0  0  0
 14  8  1  0  0  0  0
 18 21  1  0  0  0  0
 18 22  1  0  0  0  0
 19 18  1  0  0  0  0
 20 18  1  0  0  0  0
M  RAD  2   2   2   3   3
M  END
