Coordinates from ORCA-job 4-MeOPhN2+~BF4-_B3LYPG-6-31G_dp-NX-Scan-d89-09-n800
 OpenBabel11261920503D

 22 22  0  0  0  0  0  0  0  0999 V2000
   -1.5589    0.2792    0.6881 C   0  0  0  0  0  0  0  0  0  0  0  0
   -1.9212   -0.1283    1.9957 N   0  0  0  0  0  0  0  0  0  0  0  0
   -1.4065    0.4246    3.0164 N   0  0  0  0  0  0  0  0  0  0  0  0
   -2.1575   -0.5218   -0.3091 C   0  0  0  0  0  0  0  0  0  0  0  0
   -1.9378   -0.2878   -1.6524 C   0  0  0  0  0  0  0  0  0  0  0  0
   -1.1076    0.7741   -2.0523 C   0  0  0  0  0  0  0  0  0  0  0  0
   -0.9518    0.9299   -3.3883 O   0  0  0  0  0  0  0  0  0  0  0  0
   -0.1269    1.9872   -3.8647 C   0  0  0  0  0  0  0  0  0  0  0  0
   -0.5091    1.5873   -1.0786 C   0  0  0  0  0  0  0  0  0  0  0  0
   -0.7290    1.3429    0.2757 C   0  0  0  0  0  0  0  0  0  0  0  0
   -2.7990   -1.3338    0.0164 H   0  0  0  0  0  0  0  0  0  0  0  0
   -2.3960   -0.9054   -2.4168 H   0  0  0  0  0  0  0  0  0  0  0  0
   -0.5107    2.9666   -3.5543 H   0  0  0  0  0  0  0  0  0  0  0  0
   -0.1523    1.9180   -4.9529 H   0  0  0  0  0  0  0  0  0  0  0  0
    0.9078    1.8756   -3.5185 H   0  0  0  0  0  0  0  0  0  0  0  0
    0.1301    2.4147   -1.3623 H   0  0  0  0  0  0  0  0  0  0  0  0
   -0.2455    2.0071    0.9796 H   0  0  0  0  0  0  0  0  0  0  0  0
   -1.9047   -0.0760    4.6324 B   0  0  0  0  0  0  0  0  0  0  0  0
   -0.7452    1.1463    2.9674 F   0  0  0  0  0  0  0  0  0  0  0  0
   -2.7133    0.9642    4.9993 F   0  0  0  0  0  0  0  0  0  0  0  0
   -0.6721   -0.0649    5.2346 F   0  0  0  0  0  0  0  0  0  0  0  0
   -2.4968   -1.2799    4.4912 F   0  0  0  0  0  0  0  0  0  0  0  0
  1  2  1  0  0  0  0
  2  3  1  0  0  0  0
  3 18  1  0  0  0  0
  4 11  1  0  0  0  0
  4  1  2  0  0  0  0
  5  4  1  0  0  0  0
  6  5  2  0  0  0  0
  6  9  1  0  0  0  0
  7  6  1  0  0  0  0
  8 13  1  0  0  0  0
  8 15  1  0  0  0  0
  8  7  1  0  0  0  0
  9 10  2  0  0  0  0
 10  1  1  0  0  0  0
 10 17  1  0  0  0  0
 12  5  1  0  0  0  0
 14  8  1  0  0  0  0
 16  9  1  0  0  0  0
 18 20  1  0  0  0  0
 18 21  1  0  0  0  0
 19  3  1  0  0  0  0
 22 18  1  0  0  0  0
M  RAD  1   2   2
M  END
