Coordinates from ORCA-job 4-MeOPhN2+~BF4-_B3LYPG-6-31G_dp-NX-Scan-d89-09-n800
 OpenBabel11261920503D

 22 21  0  0  0  0  0  0  0  0999 V2000
   -1.2640   -1.4737    0.4577 C   0  0  0  0  0  0  0  0  0  0  0  0
   -1.4456   -2.4324    1.3865 N   0  0  0  0  0  0  0  0  0  0  0  0
   -1.5924   -3.2218    2.1736 N   0  0  0  0  0  0  0  0  0  0  0  0
   -1.7077   -1.7084   -0.8768 C   0  0  0  0  0  0  0  0  0  0  0  0
   -1.5912   -0.6863   -1.7790 C   0  0  0  0  0  0  0  0  0  0  0  0
   -1.0563    0.5731   -1.3716 C   0  0  0  0  0  0  0  0  0  0  0  0
   -1.0896    1.5304   -2.2848 O   0  0  0  0  0  0  0  0  0  0  0  0
   -0.7321    2.8828   -1.8948 C   0  0  0  0  0  0  0  0  0  0  0  0
   -0.5536    0.7541   -0.0685 C   0  0  0  0  0  0  0  0  0  0  0  0
   -0.6849   -0.2462    0.8647 C   0  0  0  0  0  0  0  0  0  0  0  0
   -2.1394   -2.6639   -1.1519 H   0  0  0  0  0  0  0  0  0  0  0  0
   -1.9370   -0.7949   -2.8002 H   0  0  0  0  0  0  0  0  0  0  0  0
   -1.2475    3.1592   -0.9713 H   0  0  0  0  0  0  0  0  0  0  0  0
   -1.0475    3.5063   -2.7300 H   0  0  0  0  0  0  0  0  0  0  0  0
    0.3517    2.9545   -1.7643 H   0  0  0  0  0  0  0  0  0  0  0  0
   -0.1668    1.6980    0.2872 H   0  0  0  0  0  0  0  0  0  0  0  0
   -0.4002   -0.0479    1.8898 H   0  0  0  0  0  0  0  0  0  0  0  0
   -1.5556    2.4674    2.3801 B   0  0  0  0  0  0  0  0  0  0  0  0
   -0.1519    2.1934    2.3383 F   0  0  0  0  0  0  0  0  0  0  0  0
   -1.9252    2.9874    1.1071 F   0  0  0  0  0  0  0  0  0  0  0  0
   -2.2163    1.2292    2.5714 F   0  0  0  0  0  0  0  0  0  0  0  0
   -1.8507    3.3593    3.3834 F   0  0  0  0  0  0  0  0  0  0  0  0
  1 10  1  0  0  0  0
  1  2  1  0  0  0  0
  2  3  1  0  0  0  0
  4  1  2  0  0  0  0
  5  6  2  0  0  0  0
  5  4  1  0  0  0  0
  6  9  1  0  0  0  0
  7  8  1  0  0  0  0
  7  6  1  0  0  0  0
  8 15  1  0  0  0  0
  8 13  1  0  0  0  0
  9 16  1  0  0  0  0
  9 10  2  0  0  0  0
 10 17  1  0  0  0  0
 11  4  1  0  0  0  0
 12  5  1  0  0  0  0
 14  8  1  0  0  0  0
 18 21  1  0  0  0  0
 18 22  1  0  0  0  0
 19 18  1  0  0  0  0
 20 18  1  0  0  0  0
M  RAD  2   2   2   3   3
M  END
