Coordinates from ORCA-job 4-MeOPhN2+~BF4-_B3LYPG-6-31G_dp-NX-Scan-d89-09-n800
 OpenBabel11261920503D

 22 21  0  0  0  0  0  0  0  0999 V2000
   -1.4287   -1.8450    0.3158 C   0  0  0  0  0  0  0  0  0  0  0  0
   -1.6106   -2.9566    1.0525 N   0  0  0  0  0  0  0  0  0  0  0  0
   -1.7646   -3.8955    1.6561 N   0  0  0  0  0  0  0  0  0  0  0  0
   -1.5753   -1.9413   -1.1006 C   0  0  0  0  0  0  0  0  0  0  0  0
   -1.4140   -0.8072   -1.8478 C   0  0  0  0  0  0  0  0  0  0  0  0
   -1.1143    0.4389   -1.2165 C   0  0  0  0  0  0  0  0  0  0  0  0
   -1.0219    1.4758   -2.0165 O   0  0  0  0  0  0  0  0  0  0  0  0
   -0.8306    2.8122   -1.4488 C   0  0  0  0  0  0  0  0  0  0  0  0
   -0.9411    0.5078    0.1898 C   0  0  0  0  0  0  0  0  0  0  0  0
   -1.1062   -0.6158    0.9575 C   0  0  0  0  0  0  0  0  0  0  0  0
   -1.8166   -2.8935   -1.5597 H   0  0  0  0  0  0  0  0  0  0  0  0
   -1.5262   -0.8247   -2.9261 H   0  0  0  0  0  0  0  0  0  0  0  0
   -1.6216    3.0276   -0.7283 H   0  0  0  0  0  0  0  0  0  0  0  0
   -0.8602    3.4754   -2.3107 H   0  0  0  0  0  0  0  0  0  0  0  0
    0.1301    2.8742   -0.9373 H   0  0  0  0  0  0  0  0  0  0  0  0
   -0.6932    1.4233    0.7105 H   0  0  0  0  0  0  0  0  0  0  0  0
   -1.0004   -0.5348    2.0345 H   0  0  0  0  0  0  0  0  0  0  0  0
   -1.1655    3.2913    2.0877 B   0  0  0  0  0  0  0  0  0  0  0  0
   -0.1723    3.8618    1.2632 F   0  0  0  0  0  0  0  0  0  0  0  0
   -2.2942    2.9918    1.2686 F   0  0  0  0  0  0  0  0  0  0  0  0
   -0.6660    2.0375    2.5716 F   0  0  0  0  0  0  0  0  0  0  0  0
   -1.5103    4.1164    3.1309 F   0  0  0  0  0  0  0  0  0  0  0  0
  1 10  1  0  0  0  0
  1  2  1  0  0  0  0
  2  3  1  0  0  0  0
  4  1  2  0  0  0  0
  5  6  2  0  0  0  0
  5  4  1  0  0  0  0
  6  9  1  0  0  0  0
  7  8  1  0  0  0  0
  7  6  1  0  0  0  0
  8 15  1  0  0  0  0
  8 13  1  0  0  0  0
  9 16  1  0  0  0  0
  9 10  2  0  0  0  0
 10 17  1  0  0  0  0
 11  4  1  0  0  0  0
 12  5  1  0  0  0  0
 14  8  1  0  0  0  0
 18 21  1  0  0  0  0
 18 22  1  0  0  0  0
 19 18  1  0  0  0  0
 20 18  1  0  0  0  0
M  RAD  2   2   2   3   3
M  END
