Coordinates from ORCA-job 4-MeOPhN2+~BF4-_B3LYPG-6-31G_dp-NX-Scan-d89-09-n800
 OpenBabel11261920503D

 22 21  0  0  0  0  0  0  0  0999 V2000
   -1.2454   -1.5457    0.4345 C   0  0  0  0  0  0  0  0  0  0  0  0
   -1.3497   -2.5529    1.3245 N   0  0  0  0  0  0  0  0  0  0  0  0
   -1.4379   -3.3935    2.0662 N   0  0  0  0  0  0  0  0  0  0  0  0
   -1.6089   -1.7954   -0.9221 C   0  0  0  0  0  0  0  0  0  0  0  0
   -1.5472   -0.7517   -1.8040 C   0  0  0  0  0  0  0  0  0  0  0  0
   -1.1352    0.5407   -1.3589 C   0  0  0  0  0  0  0  0  0  0  0  0
   -1.1814    1.4971   -2.2719 O   0  0  0  0  0  0  0  0  0  0  0  0
   -0.8445    2.8586   -1.8950 C   0  0  0  0  0  0  0  0  0  0  0  0
   -0.7308    0.7500   -0.0246 C   0  0  0  0  0  0  0  0  0  0  0  0
   -0.8104   -0.2748    0.8884 C   0  0  0  0  0  0  0  0  0  0  0  0
   -1.9351   -2.7823   -1.2301 H   0  0  0  0  0  0  0  0  0  0  0  0
   -1.8315   -0.8750   -2.8426 H   0  0  0  0  0  0  0  0  0  0  0  0
   -1.3406    3.1484   -0.9664 H   0  0  0  0  0  0  0  0  0  0  0  0
   -1.1770    3.4690   -2.7330 H   0  0  0  0  0  0  0  0  0  0  0  0
    0.2393    2.9441   -1.7739 H   0  0  0  0  0  0  0  0  0  0  0  0
   -0.4478    1.7303    0.3431 H   0  0  0  0  0  0  0  0  0  0  0  0
   -0.5743   -0.0560    1.9259 H   0  0  0  0  0  0  0  0  0  0  0  0
   -1.4301    2.6362    2.4266 B   0  0  0  0  0  0  0  0  0  0  0  0
   -0.3007    1.8257    2.7531 F   0  0  0  0  0  0  0  0  0  0  0  0
   -1.0842    3.3649    1.2362 F   0  0  0  0  0  0  0  0  0  0  0  0
   -2.5016    1.7793    2.1206 F   0  0  0  0  0  0  0  0  0  0  0  0
   -1.7289    3.5028    3.4499 F   0  0  0  0  0  0  0  0  0  0  0  0
  1 10  1  0  0  0  0
  1  2  1  0  0  0  0
  2  3  1  0  0  0  0
  4  1  2  0  0  0  0
  5  6  2  0  0  0  0
  5  4  1  0  0  0  0
  6  9  1  0  0  0  0
  7  8  1  0  0  0  0
  7  6  1  0  0  0  0
  8 15  1  0  0  0  0
  8 13  1  0  0  0  0
  9 16  1  0  0  0  0
  9 10  2  0  0  0  0
 10 17  1  0  0  0  0
 11  4  1  0  0  0  0
 12  5  1  0  0  0  0
 14  8  1  0  0  0  0
 18 19  1  0  0  0  0
 18 22  1  0  0  0  0
 20 18  1  0  0  0  0
 21 18  1  0  0  0  0
M  RAD  2   2   2   3   3
M  END
