Coordinates from ORCA-job 4-MeOPhN2+~BF4-_B3LYPG-6-31G_dp-NX-Scan-d89-09-n800
 OpenBabel11261920503D

 22 21  0  0  0  0  0  0  0  0999 V2000
   -1.4977   -1.9590    0.2671 C   0  0  0  0  0  0  0  0  0  0  0  0
   -1.7268   -3.0862    0.9590 N   0  0  0  0  0  0  0  0  0  0  0  0
   -1.9176   -4.0204    1.5593 N   0  0  0  0  0  0  0  0  0  0  0  0
   -1.6126   -1.9766   -1.1533 C   0  0  0  0  0  0  0  0  0  0  0  0
   -1.3987   -0.8067   -1.8270 C   0  0  0  0  0  0  0  0  0  0  0  0
   -1.0842    0.3959   -1.1200 C   0  0  0  0  0  0  0  0  0  0  0  0
   -0.9393    1.4600   -1.8706 O   0  0  0  0  0  0  0  0  0  0  0  0
   -0.7621    2.7779   -1.2533 C   0  0  0  0  0  0  0  0  0  0  0  0
   -0.9473    0.3907    0.2978 C   0  0  0  0  0  0  0  0  0  0  0  0
   -1.1549   -0.7767    0.9833 C   0  0  0  0  0  0  0  0  0  0  0  0
   -1.8696   -2.8940   -1.6707 H   0  0  0  0  0  0  0  0  0  0  0  0
   -1.4809   -0.7571   -2.9069 H   0  0  0  0  0  0  0  0  0  0  0  0
   -1.6293    3.0084   -0.6368 H   0  0  0  0  0  0  0  0  0  0  0  0
   -0.6646    3.4599   -2.0944 H   0  0  0  0  0  0  0  0  0  0  0  0
    0.1293    2.7889   -0.6267 H   0  0  0  0  0  0  0  0  0  0  0  0
   -0.6802    1.2872    0.8589 H   0  0  0  0  0  0  0  0  0  0  0  0
   -1.0659   -0.8004    2.0643 H   0  0  0  0  0  0  0  0  0  0  0  0
   -1.1506    3.5374    1.8881 B   0  0  0  0  0  0  0  0  0  0  0  0
   -0.9784    4.5780    0.9685 F   0  0  0  0  0  0  0  0  0  0  0  0
   -2.2537    2.7386    1.4666 F   0  0  0  0  0  0  0  0  0  0  0  0
    0.0118    2.6873    1.8166 F   0  0  0  0  0  0  0  0  0  0  0  0
   -1.3305    3.9863    3.1767 F   0  0  0  0  0  0  0  0  0  0  0  0
  1  2  1  0  0  0  0
  1 10  2  0  0  0  0
  2  3  1  0  0  0  0
  4  1  1  0  0  0  0
  5  4  2  0  0  0  0
  5  6  1  0  0  0  0
  6  9  2  0  0  0  0
  7  8  1  0  0  0  0
  7  6  1  0  0  0  0
  8 13  1  0  0  0  0
  8 15  1  0  0  0  0
  9 16  1  0  0  0  0
  9 10  1  0  0  0  0
 10 17  1  0  0  0  0
 11  4  1  0  0  0  0
 12  5  1  0  0  0  0
 14  8  1  0  0  0  0
 18 22  1  0  0  0  0
 19 18  1  0  0  0  0
 20 18  1  0  0  0  0
 21 18  1  0  0  0  0
M  RAD  2   2   2   3   3
M  END
