Coordinates from ORCA-job 4-MeOPhN2+~BF4-_B3LYPG-6-31G_dp-NX-Scan-d89-09-n800
 OpenBabel11261920503D

 22 21  0  0  0  0  0  0  0  0999 V2000
   -1.3904   -1.7426    0.3603 C   0  0  0  0  0  0  0  0  0  0  0  0
   -1.5919   -2.8288    1.1318 N   0  0  0  0  0  0  0  0  0  0  0  0
   -1.7632   -3.7543    1.7510 N   0  0  0  0  0  0  0  0  0  0  0  0
   -1.6019   -1.8758   -1.0451 C   0  0  0  0  0  0  0  0  0  0  0  0
   -1.4400   -0.7688   -1.8314 C   0  0  0  0  0  0  0  0  0  0  0  0
   -1.0728    0.4818   -1.2479 C   0  0  0  0  0  0  0  0  0  0  0  0
   -1.0171    1.5024   -2.0765 O   0  0  0  0  0  0  0  0  0  0  0  0
   -0.8133    2.8483   -1.5432 C   0  0  0  0  0  0  0  0  0  0  0  0
   -0.8097    0.5806    0.1409 C   0  0  0  0  0  0  0  0  0  0  0  0
   -0.9948   -0.5107    0.9532 C   0  0  0  0  0  0  0  0  0  0  0  0
   -1.8969   -2.8314   -1.4639 H   0  0  0  0  0  0  0  0  0  0  0  0
   -1.6105   -0.8092   -2.9012 H   0  0  0  0  0  0  0  0  0  0  0  0
   -1.5412    3.0502   -0.7545 H   0  0  0  0  0  0  0  0  0  0  0  0
   -0.9435    3.5001   -2.4049 H   0  0  0  0  0  0  0  0  0  0  0  0
    0.1926    2.9405   -1.1319 H   0  0  0  0  0  0  0  0  0  0  0  0
   -0.4847    1.5114    0.5921 H   0  0  0  0  0  0  0  0  0  0  0  0
   -0.8648   -0.3877    2.0234 H   0  0  0  0  0  0  0  0  0  0  0  0
   -1.2838    3.0468    2.1460 B   0  0  0  0  0  0  0  0  0  0  0  0
   -0.1268    3.3578    1.3674 F   0  0  0  0  0  0  0  0  0  0  0  0
   -2.3659    2.9126    1.2368 F   0  0  0  0  0  0  0  0  0  0  0  0
   -1.0582    1.7796    2.7564 F   0  0  0  0  0  0  0  0  0  0  0  0
   -1.5251    4.0170    3.0877 F   0  0  0  0  0  0  0  0  0  0  0  0
  1 10  1  0  0  0  0
  1  2  1  0  0  0  0
  2  3  1  0  0  0  0
  4  1  2  0  0  0  0
  5  6  2  0  0  0  0
  5  4  1  0  0  0  0
  6  9  1  0  0  0  0
  7  8  1  0  0  0  0
  7  6  1  0  0  0  0
  8 15  1  0  0  0  0
  8 13  1  0  0  0  0
  9 16  1  0  0  0  0
  9 10  2  0  0  0  0
 10 17  1  0  0  0  0
 11  4  1  0  0  0  0
 12  5  1  0  0  0  0
 14  8  1  0  0  0  0
 18 21  1  0  0  0  0
 18 22  1  0  0  0  0
 19 18  1  0  0  0  0
 20 18  1  0  0  0  0
M  RAD  2   2   2   3   3
M  END
