Coordinates from ORCA-job 4-MeOPhN2+~BF4-_B3LYPG-6-31G_dp-NX-Scan-d89-09-n800
 OpenBabel11261920503D

 22 21  0  0  0  0  0  0  0  0999 V2000
   -1.2599   -1.4821    0.4550 C   0  0  0  0  0  0  0  0  0  0  0  0
   -1.4214   -2.4483    1.3804 N   0  0  0  0  0  0  0  0  0  0  0  0
   -1.5507   -3.2450    2.1632 N   0  0  0  0  0  0  0  0  0  0  0  0
   -1.6786   -1.7307   -0.8853 C   0  0  0  0  0  0  0  0  0  0  0  0
   -1.5750   -0.7077   -1.7877 C   0  0  0  0  0  0  0  0  0  0  0  0
   -1.0758    0.5653   -1.3764 C   0  0  0  0  0  0  0  0  0  0  0  0
   -1.1116    1.5157   -2.2971 O   0  0  0  0  0  0  0  0  0  0  0  0
   -0.7613    2.8733   -1.9196 C   0  0  0  0  0  0  0  0  0  0  0  0
   -0.6042    0.7639   -0.0645 C   0  0  0  0  0  0  0  0  0  0  0  0
   -0.7230   -0.2381    0.8693 C   0  0  0  0  0  0  0  0  0  0  0  0
   -2.0805   -2.6978   -1.1648 H   0  0  0  0  0  0  0  0  0  0  0  0
   -1.9010   -0.8277   -2.8142 H   0  0  0  0  0  0  0  0  0  0  0  0
   -1.2720    3.1594   -0.9969 H   0  0  0  0  0  0  0  0  0  0  0  0
   -1.0812    3.4876   -2.7598 H   0  0  0  0  0  0  0  0  0  0  0  0
    0.3224    2.9505   -1.7916 H   0  0  0  0  0  0  0  0  0  0  0  0
   -0.2522    1.7216    0.2914 H   0  0  0  0  0  0  0  0  0  0  0  0
   -0.4487   -0.0253    1.8955 H   0  0  0  0  0  0  0  0  0  0  0  0
   -1.5226    2.4953    2.4159 B   0  0  0  0  0  0  0  0  0  0  0  0
   -0.1664    2.0433    2.4811 F   0  0  0  0  0  0  0  0  0  0  0  0
   -1.6847    3.1562    1.1620 F   0  0  0  0  0  0  0  0  0  0  0  0
   -2.3467    1.3467    2.4319 F   0  0  0  0  0  0  0  0  0  0  0  0
   -1.8088    3.3436    3.4586 F   0  0  0  0  0  0  0  0  0  0  0  0
  1 10  1  0  0  0  0
  1  2  1  0  0  0  0
  2  3  1  0  0  0  0
  4  1  2  0  0  0  0
  5  6  2  0  0  0  0
  5  4  1  0  0  0  0
  6  9  1  0  0  0  0
  7  8  1  0  0  0  0
  7  6  1  0  0  0  0
  8 15  1  0  0  0  0
  8 13  1  0  0  0  0
  9 16  1  0  0  0  0
  9 10  2  0  0  0  0
 10 17  1  0  0  0  0
 11  4  1  0  0  0  0
 12  5  1  0  0  0  0
 14  8  1  0  0  0  0
 18 21  1  0  0  0  0
 18 19  1  0  0  0  0
 18 22  1  0  0  0  0
 20 18  1  0  0  0  0
M  RAD  2   2   2   3   3
M  END
