Coordinates from ORCA-job 4-MeOPhN2+~BF4-_B3LYPG-6-31G_dp-NX-Scan-d89-09-n800
 OpenBabel11261920503D

 22 21  0  0  0  0  0  0  0  0999 V2000
   -1.3111   -0.6577    0.5525 C   0  0  0  0  0  0  0  0  0  0  0  0
   -1.4742   -1.4451    1.6923 N   0  0  0  0  0  0  0  0  0  0  0  0
   -1.3103   -1.3781    2.8599 N   0  0  0  0  0  0  0  0  0  0  0  0
   -1.6679   -1.2874   -0.6575 C   0  0  0  0  0  0  0  0  0  0  0  0
   -1.5517   -0.6117   -1.8551 C   0  0  0  0  0  0  0  0  0  0  0  0
   -1.0771    0.7146   -1.8662 C   0  0  0  0  0  0  0  0  0  0  0  0
   -1.0001    1.2942   -3.0814 O   0  0  0  0  0  0  0  0  0  0  0  0
   -0.5383    2.6408   -3.1804 C   0  0  0  0  0  0  0  0  0  0  0  0
   -0.7225    1.3446   -0.6594 C   0  0  0  0  0  0  0  0  0  0  0  0
   -0.8362    0.6681    0.5478 C   0  0  0  0  0  0  0  0  0  0  0  0
   -2.0343   -2.3074   -0.6270 H   0  0  0  0  0  0  0  0  0  0  0  0
   -1.8212   -1.0752   -2.7972 H   0  0  0  0  0  0  0  0  0  0  0  0
   -1.1921    3.3269   -2.6308 H   0  0  0  0  0  0  0  0  0  0  0  0
   -0.5670    2.8848   -4.2423 H   0  0  0  0  0  0  0  0  0  0  0  0
    0.4892    2.7371   -2.8120 H   0  0  0  0  0  0  0  0  0  0  0  0
   -0.3609    2.3647   -0.6506 H   0  0  0  0  0  0  0  0  0  0  0  0
   -0.5706    1.1635    1.4691 H   0  0  0  0  0  0  0  0  0  0  0  0
   -1.8461    1.2970    3.9081 B   0  0  0  0  0  0  0  0  0  0  0  0
   -0.7028   -0.0085    3.2973 F   0  0  0  0  0  0  0  0  0  0  0  0
   -1.1644    2.3464    3.4035 F   0  0  0  0  0  0  0  0  0  0  0  0
   -2.9582    0.9221    3.2511 F   0  0  0  0  0  0  0  0  0  0  0  0
   -1.7860    1.0861    5.2248 F   0  0  0  0  0  0  0  0  0  0  0  0
  1  2  1  0  0  0  0
  2  3  1  0  0  0  0
  3 19  1  0  0  0  0
  4 11  1  0  0  0  0
  4  1  2  0  0  0  0
  5  4  1  0  0  0  0
  6  5  2  0  0  0  0
  6  9  1  0  0  0  0
  7  6  1  0  0  0  0
  8  7  1  0  0  0  0
  8 15  1  0  0  0  0
  8 13  1  0  0  0  0
  9 16  1  0  0  0  0
  9 10  2  0  0  0  0
 10  1  1  0  0  0  0
 10 17  1  0  0  0  0
 12  5  1  0  0  0  0
 14  8  1  0  0  0  0
 18 22  1  0  0  0  0
 20 18  1  0  0  0  0
 21 18  1  0  0  0  0
M  RAD  2   2   2   3   2
M  END
