Coordinates from ORCA-job 4-MeOPhN2+~BF4-_B3LYPG-6-31G_dp-NX-Scan-d89-09-n800
 OpenBabel11261920503D

 22 21  0  0  0  0  0  0  0  0999 V2000
   -1.3740   -0.6844    0.4658 C   0  0  0  0  0  0  0  0  0  0  0  0
   -1.6221   -1.5173    1.5735 N   0  0  0  0  0  0  0  0  0  0  0  0
   -1.4141   -1.3564    2.7608 N   0  0  0  0  0  0  0  0  0  0  0  0
   -1.6175   -1.3215   -0.7695 C   0  0  0  0  0  0  0  0  0  0  0  0
   -1.4371   -0.6545   -1.9659 C   0  0  0  0  0  0  0  0  0  0  0  0
   -1.0215    0.6888   -1.9590 C   0  0  0  0  0  0  0  0  0  0  0  0
   -0.8768    1.2648   -3.1754 O   0  0  0  0  0  0  0  0  0  0  0  0
   -0.4727    2.6284   -3.2467 C   0  0  0  0  0  0  0  0  0  0  0  0
   -0.7926    1.3406   -0.7361 C   0  0  0  0  0  0  0  0  0  0  0  0
   -0.9613    0.6634    0.4677 C   0  0  0  0  0  0  0  0  0  0  0  0
   -1.9489   -2.3538   -0.7548 H   0  0  0  0  0  0  0  0  0  0  0  0
   -1.6167   -1.1391   -2.9191 H   0  0  0  0  0  0  0  0  0  0  0  0
   -1.1960    3.2869   -2.7512 H   0  0  0  0  0  0  0  0  0  0  0  0
   -0.4319    2.8712   -4.3088 H   0  0  0  0  0  0  0  0  0  0  0  0
    0.5189    2.7763   -2.8028 H   0  0  0  0  0  0  0  0  0  0  0  0
   -0.4806    2.3769   -0.7101 H   0  0  0  0  0  0  0  0  0  0  0  0
   -0.7903    1.1911    1.3926 H   0  0  0  0  0  0  0  0  0  0  0  0
   -1.8982    1.4934    4.3623 B   0  0  0  0  0  0  0  0  0  0  0  0
   -0.8090   -0.1437    3.0724 F   0  0  0  0  0  0  0  0  0  0  0  0
   -1.3892    2.4221    3.5618 F   0  0  0  0  0  0  0  0  0  0  0  0
   -3.0941    0.9973    4.1030 F   0  0  0  0  0  0  0  0  0  0  0  0
   -1.2782    1.1894    5.4858 F   0  0  0  0  0  0  0  0  0  0  0  0
  1 10  1  0  0  0  0
  1  2  1  0  0  0  0
  2  3  1  0  0  0  0
  3 19  1  0  0  0  0
  4 11  1  0  0  0  0
  4  1  2  0  0  0  0
  5  6  2  0  0  0  0
  5  4  1  0  0  0  0
  6  9  1  0  0  0  0
  7  6  1  0  0  0  0
  8  7  1  0  0  0  0
  8 15  1  0  0  0  0
  8 13  1  0  0  0  0
  9 16  1  0  0  0  0
  9 10  2  0  0  0  0
 10 17  1  0  0  0  0
 12  5  1  0  0  0  0
 14  8  1  0  0  0  0
 18 22  1  0  0  0  0
 20 18  1  0  0  0  0
 21 18  1  0  0  0  0
M  RAD  2   2   2   3   2
M  END
