Coordinates from ORCA-job 4-MeOPhN2+~BF4-_B3LYPG-6-31G_dp-NX-Scan-d89-09-n800
 OpenBabel11261920503D

 22 21  0  0  0  0  0  0  0  0999 V2000
   -1.4043   -1.7877    0.3474 C   0  0  0  0  0  0  0  0  0  0  0  0
   -1.5963   -2.8946    1.0925 N   0  0  0  0  0  0  0  0  0  0  0  0
   -1.7628   -3.8438    1.6770 N   0  0  0  0  0  0  0  0  0  0  0  0
   -1.5796   -1.9070   -1.0649 C   0  0  0  0  0  0  0  0  0  0  0  0
   -1.4215   -0.7890   -1.8359 C   0  0  0  0  0  0  0  0  0  0  0  0
   -1.0920    0.4625   -1.2320 C   0  0  0  0  0  0  0  0  0  0  0  0
   -1.0242    1.4889   -2.0499 O   0  0  0  0  0  0  0  0  0  0  0  0
   -0.8312    2.8343   -1.5077 C   0  0  0  0  0  0  0  0  0  0  0  0
   -0.8733    0.5518    0.1661 C   0  0  0  0  0  0  0  0  0  0  0  0
   -1.0504   -0.5527    0.9619 C   0  0  0  0  0  0  0  0  0  0  0  0
   -1.8434   -2.8639   -1.5013 H   0  0  0  0  0  0  0  0  0  0  0  0
   -1.5623   -0.8227   -2.9103 H   0  0  0  0  0  0  0  0  0  0  0  0
   -1.5854    3.0433   -0.7461 H   0  0  0  0  0  0  0  0  0  0  0  0
   -0.9242    3.4860   -2.3742 H   0  0  0  0  0  0  0  0  0  0  0  0
    0.1568    2.9202   -1.0549 H   0  0  0  0  0  0  0  0  0  0  0  0
   -0.5841    1.4810    0.6389 H   0  0  0  0  0  0  0  0  0  0  0  0
   -0.9367   -0.4408    2.0353 H   0  0  0  0  0  0  0  0  0  0  0  0
   -1.2261    3.1572    2.1267 B   0  0  0  0  0  0  0  0  0  0  0  0
   -0.1105    3.5337    1.3274 F   0  0  0  0  0  0  0  0  0  0  0  0
   -2.3337    2.9944    1.2502 F   0  0  0  0  0  0  0  0  0  0  0  0
   -0.9355    1.8804    2.6966 F   0  0  0  0  0  0  0  0  0  0  0  0
   -1.4829    4.0882    3.1034 F   0  0  0  0  0  0  0  0  0  0  0  0
  1 10  1  0  0  0  0
  1  2  1  0  0  0  0
  2  3  1  0  0  0  0
  4  1  2  0  0  0  0
  5  6  2  0  0  0  0
  5  4  1  0  0  0  0
  6  9  1  0  0  0  0
  7  8  1  0  0  0  0
  7  6  1  0  0  0  0
  8 15  1  0  0  0  0
  8 13  1  0  0  0  0
  9 16  1  0  0  0  0
  9 10  2  0  0  0  0
 10 17  1  0  0  0  0
 11  4  1  0  0  0  0
 12  5  1  0  0  0  0
 14  8  1  0  0  0  0
 18 21  1  0  0  0  0
 18 22  1  0  0  0  0
 19 18  1  0  0  0  0
 20 18  1  0  0  0  0
M  RAD  2   2   2   3   3
M  END
