Coordinates from ORCA-job 4-MeOPhN2+~BF4-_B3LYPG-6-31G_dp-NX-Scan-d89-09-n800
 OpenBabel11261920503D

 22 21  0  0  0  0  0  0  0  0999 V2000
   -1.3119   -0.6595    0.5485 C   0  0  0  0  0  0  0  0  0  0  0  0
   -1.4782   -1.4505    1.6862 N   0  0  0  0  0  0  0  0  0  0  0  0
   -1.3092   -1.3750    2.8551 N   0  0  0  0  0  0  0  0  0  0  0  0
   -1.6662   -1.2885   -0.6627 C   0  0  0  0  0  0  0  0  0  0  0  0
   -1.5485   -0.6132   -1.8605 C   0  0  0  0  0  0  0  0  0  0  0  0
   -1.0752    0.7134   -1.8712 C   0  0  0  0  0  0  0  0  0  0  0  0
   -0.9964    1.2930   -3.0868 O   0  0  0  0  0  0  0  0  0  0  0  0
   -0.5352    2.6396   -3.1847 C   0  0  0  0  0  0  0  0  0  0  0  0
   -0.7238    1.3438   -0.6640 C   0  0  0  0  0  0  0  0  0  0  0  0
   -0.8386    0.6671    0.5432 C   0  0  0  0  0  0  0  0  0  0  0  0
   -2.0318   -2.3088   -0.6326 H   0  0  0  0  0  0  0  0  0  0  0  0
   -1.8159   -1.0773   -2.8029 H   0  0  0  0  0  0  0  0  0  0  0  0
   -1.1905    3.3256   -2.6365 H   0  0  0  0  0  0  0  0  0  0  0  0
   -0.5616    2.8839   -4.2467 H   0  0  0  0  0  0  0  0  0  0  0  0
    0.4914    2.7367   -2.8141 H   0  0  0  0  0  0  0  0  0  0  0  0
   -0.3633    2.3643   -0.6547 H   0  0  0  0  0  0  0  0  0  0  0  0
   -0.5750    1.1628    1.4647 H   0  0  0  0  0  0  0  0  0  0  0  0
   -1.8577    1.3110    3.9332 B   0  0  0  0  0  0  0  0  0  0  0  0
   -0.7020   -0.0127    3.2799 F   0  0  0  0  0  0  0  0  0  0  0  0
   -1.1779    2.3538    3.4195 F   0  0  0  0  0  0  0  0  0  0  0  0
   -2.9725    0.9292    3.2909 F   0  0  0  0  0  0  0  0  0  0  0  0
   -1.7639    1.0810    5.2427 F   0  0  0  0  0  0  0  0  0  0  0  0
  1  2  1  0  0  0  0
  2  3  1  0  0  0  0
  3 19  1  0  0  0  0
  4 11  1  0  0  0  0
  4  1  2  0  0  0  0
  5  4  1  0  0  0  0
  6  5  2  0  0  0  0
  6  9  1  0  0  0  0
  7  6  1  0  0  0  0
  8  7  1  0  0  0  0
  8 15  1  0  0  0  0
  8 13  1  0  0  0  0
  9 16  1  0  0  0  0
  9 10  2  0  0  0  0
 10  1  1  0  0  0  0
 10 17  1  0  0  0  0
 12  5  1  0  0  0  0
 14  8  1  0  0  0  0
 18 22  1  0  0  0  0
 20 18  1  0  0  0  0
 21 18  1  0  0  0  0
M  RAD  2   2   2   3   2
M  END
