Coordinates from ORCA-job 4-MeOPhN2+~BF4-_B3LYPG-6-31G_dp-NX-Scan-d89-09-n800
 OpenBabel11261920503D

 22 21  0  0  0  0  0  0  0  0999 V2000
   -1.2430   -1.5357    0.4326 C   0  0  0  0  0  0  0  0  0  0  0  0
   -1.3520   -2.5277    1.3388 N   0  0  0  0  0  0  0  0  0  0  0  0
   -1.4363   -3.3421    2.1096 N   0  0  0  0  0  0  0  0  0  0  0  0
   -1.6119   -1.7904   -0.9209 C   0  0  0  0  0  0  0  0  0  0  0  0
   -1.5483   -0.7497   -1.8068 C   0  0  0  0  0  0  0  0  0  0  0  0
   -1.1314    0.5434   -1.3679 C   0  0  0  0  0  0  0  0  0  0  0  0
   -1.1811    1.4985   -2.2827 O   0  0  0  0  0  0  0  0  0  0  0  0
   -0.8444    2.8596   -1.9053 C   0  0  0  0  0  0  0  0  0  0  0  0
   -0.7202    0.7561   -0.0368 C   0  0  0  0  0  0  0  0  0  0  0  0
   -0.8006   -0.2655    0.8795 C   0  0  0  0  0  0  0  0  0  0  0  0
   -1.9437   -2.7769   -1.2244 H   0  0  0  0  0  0  0  0  0  0  0  0
   -1.8366   -0.8757   -2.8440 H   0  0  0  0  0  0  0  0  0  0  0  0
   -1.3385    3.1468   -0.9748 H   0  0  0  0  0  0  0  0  0  0  0  0
   -1.1801    3.4715   -2.7410 H   0  0  0  0  0  0  0  0  0  0  0  0
    0.2396    2.9463   -1.7870 H   0  0  0  0  0  0  0  0  0  0  0  0
   -0.4353    1.7357    0.3315 H   0  0  0  0  0  0  0  0  0  0  0  0
   -0.5642   -0.0439    1.9168 H   0  0  0  0  0  0  0  0  0  0  0  0
   -1.4364    2.6086    2.4345 B   0  0  0  0  0  0  0  0  0  0  0  0
   -0.3185    1.7820    2.7658 F   0  0  0  0  0  0  0  0  0  0  0  0
   -1.0707    3.3486    1.2572 F   0  0  0  0  0  0  0  0  0  0  0  0
   -2.5119    1.7655    2.1060 F   0  0  0  0  0  0  0  0  0  0  0  0
   -1.7382    3.4646    3.4656 F   0  0  0  0  0  0  0  0  0  0  0  0
  1 10  1  0  0  0  0
  1  2  1  0  0  0  0
  2  3  1  0  0  0  0
  4  1  2  0  0  0  0
  5  6  2  0  0  0  0
  5  4  1  0  0  0  0
  6  9  1  0  0  0  0
  7  8  1  0  0  0  0
  7  6  1  0  0  0  0
  8 15  1  0  0  0  0
  8 13  1  0  0  0  0
  9 16  1  0  0  0  0
  9 10  2  0  0  0  0
 10 17  1  0  0  0  0
 11  4  1  0  0  0  0
 12  5  1  0  0  0  0
 14  8  1  0  0  0  0
 18 19  1  0  0  0  0
 18 22  1  0  0  0  0
 20 18  1  0  0  0  0
 21 18  1  0  0  0  0
M  RAD  2   2   2   3   3
M  END
