Coordinates from ORCA-job 4-MeOPhN2+~BF4-_B3LYPG-6-31G_dp-NX-Scan-d89-09-n800
 OpenBabel11261920503D

 22 21  0  0  0  0  0  0  0  0999 V2000
   -1.4153   -1.7987    0.3399 C   0  0  0  0  0  0  0  0  0  0  0  0
   -1.6115   -2.9039    1.0854 N   0  0  0  0  0  0  0  0  0  0  0  0
   -1.7809   -3.8482    1.6768 N   0  0  0  0  0  0  0  0  0  0  0  0
   -1.5802   -1.9147   -1.0737 C   0  0  0  0  0  0  0  0  0  0  0  0
   -1.4161   -0.7948   -1.8410 C   0  0  0  0  0  0  0  0  0  0  0  0
   -1.0936    0.4558   -1.2315 C   0  0  0  0  0  0  0  0  0  0  0  0
   -1.0176    1.4849   -2.0450 O   0  0  0  0  0  0  0  0  0  0  0  0
   -0.8284    2.8275   -1.4938 C   0  0  0  0  0  0  0  0  0  0  0  0
   -0.8879    0.5416    0.1686 C   0  0  0  0  0  0  0  0  0  0  0  0
   -1.0662   -0.5652    0.9597 C   0  0  0  0  0  0  0  0  0  0  0  0
   -1.8402   -2.8708   -1.5143 H   0  0  0  0  0  0  0  0  0  0  0  0
   -1.5471   -0.8266   -2.9167 H   0  0  0  0  0  0  0  0  0  0  0  0
   -1.5941    3.0352   -0.7438 H   0  0  0  0  0  0  0  0  0  0  0  0
   -0.9047    3.4836   -2.3586 H   0  0  0  0  0  0  0  0  0  0  0  0
    0.1518    2.9091   -1.0235 H   0  0  0  0  0  0  0  0  0  0  0  0
   -0.6112    1.4676    0.6526 H   0  0  0  0  0  0  0  0  0  0  0  0
   -0.9549   -0.4585    2.0338 H   0  0  0  0  0  0  0  0  0  0  0  0
   -1.2087    3.1875    2.1198 B   0  0  0  0  0  0  0  0  0  0  0  0
   -0.1483    3.6556    1.3013 F   0  0  0  0  0  0  0  0  0  0  0  0
   -2.3269    2.9510    1.2715 F   0  0  0  0  0  0  0  0  0  0  0  0
   -0.8103    1.9239    2.6588 F   0  0  0  0  0  0  0  0  0  0  0  0
   -1.5116    4.0779    3.1205 F   0  0  0  0  0  0  0  0  0  0  0  0
  1 10  1  0  0  0  0
  1  2  1  0  0  0  0
  2  3  1  0  0  0  0
  4  1  2  0  0  0  0
  5  6  2  0  0  0  0
  5  4  1  0  0  0  0
  6  9  1  0  0  0  0
  7  8  1  0  0  0  0
  7  6  1  0  0  0  0
  8 15  1  0  0  0  0
  8 13  1  0  0  0  0
  9 16  1  0  0  0  0
  9 10  2  0  0  0  0
 10 17  1  0  0  0  0
 11  4  1  0  0  0  0
 12  5  1  0  0  0  0
 14  8  1  0  0  0  0
 18 21  1  0  0  0  0
 18 22  1  0  0  0  0
 19 18  1  0  0  0  0
 20 18  1  0  0  0  0
M  RAD  2   2   2   3   3
M  END
