Coordinates from ORCA-job 4-MeOPhN2+~BF4-_B3LYPG-6-31G_dp-NX-Scan-d89-09-n800
 OpenBabel11261920503D

 22 21  0  0  0  0  0  0  0  0999 V2000
   -1.4058   -1.7901    0.3464 C   0  0  0  0  0  0  0  0  0  0  0  0
   -1.5977   -2.8974    1.0909 N   0  0  0  0  0  0  0  0  0  0  0  0
   -1.7641   -3.8471    1.6747 N   0  0  0  0  0  0  0  0  0  0  0  0
   -1.5803   -1.9082   -1.0660 C   0  0  0  0  0  0  0  0  0  0  0  0
   -1.4216   -0.7897   -1.8361 C   0  0  0  0  0  0  0  0  0  0  0  0
   -1.0926    0.4614   -1.2312 C   0  0  0  0  0  0  0  0  0  0  0  0
   -1.0236    1.4883   -2.0484 O   0  0  0  0  0  0  0  0  0  0  0  0
   -0.8305    2.8334   -1.5054 C   0  0  0  0  0  0  0  0  0  0  0  0
   -0.8752    0.5498    0.1672 C   0  0  0  0  0  0  0  0  0  0  0  0
   -1.0523   -0.5553    0.9620 C   0  0  0  0  0  0  0  0  0  0  0  0
   -1.8437   -2.8648   -1.5032 H   0  0  0  0  0  0  0  0  0  0  0  0
   -1.5615   -0.8227   -2.9106 H   0  0  0  0  0  0  0  0  0  0  0  0
   -1.5856    3.0426   -0.7449 H   0  0  0  0  0  0  0  0  0  0  0  0
   -0.9218    3.4853   -2.3719 H   0  0  0  0  0  0  0  0  0  0  0  0
    0.1568    2.9187   -1.0511 H   0  0  0  0  0  0  0  0  0  0  0  0
   -0.5869    1.4786    0.6412 H   0  0  0  0  0  0  0  0  0  0  0  0
   -0.9384   -0.4449    2.0355 H   0  0  0  0  0  0  0  0  0  0  0  0
   -1.2240    3.1629    2.1253 B   0  0  0  0  0  0  0  0  0  0  0  0
   -0.1143    3.5515    1.3246 F   0  0  0  0  0  0  0  0  0  0  0  0
   -2.3324    2.9904    1.2511 F   0  0  0  0  0  0  0  0  0  0  0  0
   -0.9200    1.8876    2.6919 F   0  0  0  0  0  0  0  0  0  0  0  0
   -1.4884    4.0892    3.1045 F   0  0  0  0  0  0  0  0  0  0  0  0
  1 10  1  0  0  0  0
  1  2  1  0  0  0  0
  2  3  1  0  0  0  0
  4  1  2  0  0  0  0
  5  6  2  0  0  0  0
  5  4  1  0  0  0  0
  6  9  1  0  0  0  0
  7  8  1  0  0  0  0
  7  6  1  0  0  0  0
  8 15  1  0  0  0  0
  8 13  1  0  0  0  0
  9 16  1  0  0  0  0
  9 10  2  0  0  0  0
 10 17  1  0  0  0  0
 11  4  1  0  0  0  0
 12  5  1  0  0  0  0
 14  8  1  0  0  0  0
 18 21  1  0  0  0  0
 18 22  1  0  0  0  0
 19 18  1  0  0  0  0
 20 18  1  0  0  0  0
M  RAD  2   2   2   3   3
M  END
