Coordinates from ORCA-job 4-MeOPhN2+~BF4-_B3LYPG-6-31G_dp-NX-Scan-d89-09-n800
 OpenBabel11261920503D

 22 21  0  0  0  0  0  0  0  0999 V2000
   -1.4202   -1.8101    0.3323 C   0  0  0  0  0  0  0  0  0  0  0  0
   -1.6144   -2.9146    1.0782 N   0  0  0  0  0  0  0  0  0  0  0  0
   -1.7808   -3.8534    1.6788 N   0  0  0  0  0  0  0  0  0  0  0  0
   -1.5790   -1.9220   -1.0820 C   0  0  0  0  0  0  0  0  0  0  0  0
   -1.4144   -0.7988   -1.8447 C   0  0  0  0  0  0  0  0  0  0  0  0
   -1.0986    0.4511   -1.2298 C   0  0  0  0  0  0  0  0  0  0  0  0
   -1.0174    1.4825   -2.0394 O   0  0  0  0  0  0  0  0  0  0  0  0
   -0.8282    2.8226   -1.4813 C   0  0  0  0  0  0  0  0  0  0  0  0
   -0.9028    0.5329    0.1721 C   0  0  0  0  0  0  0  0  0  0  0  0
   -1.0779   -0.5777    0.9574 C   0  0  0  0  0  0  0  0  0  0  0  0
   -1.8342   -2.8772   -1.5271 H   0  0  0  0  0  0  0  0  0  0  0  0
   -1.5392   -0.8275   -2.9213 H   0  0  0  0  0  0  0  0  0  0  0  0
   -1.6029    3.0313   -0.7411 H   0  0  0  0  0  0  0  0  0  0  0  0
   -0.8890    3.4822   -2.3445 H   0  0  0  0  0  0  0  0  0  0  0  0
    0.1454    2.8975   -0.9967 H   0  0  0  0  0  0  0  0  0  0  0  0
   -0.6365    1.4557    0.6675 H   0  0  0  0  0  0  0  0  0  0  0  0
   -0.9685   -0.4777    2.0325 H   0  0  0  0  0  0  0  0  0  0  0  0
   -1.1955    3.2141    2.1120 B   0  0  0  0  0  0  0  0  0  0  0  0
   -0.1625    3.7245    1.2886 F   0  0  0  0  0  0  0  0  0  0  0  0
   -2.3179    2.9493    1.2759 F   0  0  0  0  0  0  0  0  0  0  0  0
   -0.7523    1.9553    2.6304 F   0  0  0  0  0  0  0  0  0  0  0  0
   -1.5172    4.0797    3.1286 F   0  0  0  0  0  0  0  0  0  0  0  0
  1 10  1  0  0  0  0
  1  2  1  0  0  0  0
  2  3  1  0  0  0  0
  4  1  2  0  0  0  0
  5  6  2  0  0  0  0
  5  4  1  0  0  0  0
  6  9  1  0  0  0  0
  7  8  1  0  0  0  0
  7  6  1  0  0  0  0
  8 15  1  0  0  0  0
  8 13  1  0  0  0  0
  9 16  1  0  0  0  0
  9 10  2  0  0  0  0
 10 17  1  0  0  0  0
 11  4  1  0  0  0  0
 12  5  1  0  0  0  0
 14  8  1  0  0  0  0
 18 21  1  0  0  0  0
 18 22  1  0  0  0  0
 19 18  1  0  0  0  0
 20 18  1  0  0  0  0
M  RAD  2   2   2   3   3
M  END
