Coordinates from ORCA-job 4-MeOPhN2+~BF4-_B3LYPG-6-31G_dp-NX-Scan-d89-09-n800
 OpenBabel11261920503D

 22 21  0  0  0  0  0  0  0  0999 V2000
   -1.3928   -0.6039    0.5692 C   0  0  0  0  0  0  0  0  0  0  0  0
   -1.5566   -1.3025    1.7352 N   0  0  0  0  0  0  0  0  0  0  0  0
   -1.6805   -1.9026    2.6648 N   0  0  0  0  0  0  0  0  0  0  0  0
   -1.6632   -1.2931   -0.6371 C   0  0  0  0  0  0  0  0  0  0  0  0
   -1.4988   -0.6205   -1.8244 C   0  0  0  0  0  0  0  0  0  0  0  0
   -1.0698    0.7295   -1.8214 C   0  0  0  0  0  0  0  0  0  0  0  0
   -0.9457    1.2883   -3.0313 O   0  0  0  0  0  0  0  0  0  0  0  0
   -0.5279    2.6553   -3.1368 C   0  0  0  0  0  0  0  0  0  0  0  0
   -0.8067    1.3905   -0.6064 C   0  0  0  0  0  0  0  0  0  0  0  0
   -0.9639    0.7363    0.6042 C   0  0  0  0  0  0  0  0  0  0  0  0
   -1.9957   -2.3247   -0.6177 H   0  0  0  0  0  0  0  0  0  0  0  0
   -1.6951   -1.1005   -2.7759 H   0  0  0  0  0  0  0  0  0  0  0  0
   -1.2380    3.3214   -2.6366 H   0  0  0  0  0  0  0  0  0  0  0  0
   -0.5102    2.8720   -4.2042 H   0  0  0  0  0  0  0  0  0  0  0  0
    0.4735    2.7925   -2.7165 H   0  0  0  0  0  0  0  0  0  0  0  0
   -0.4847    2.4233   -0.5909 H   0  0  0  0  0  0  0  0  0  0  0  0
   -0.7770    1.2503    1.5446 H   0  0  0  0  0  0  0  0  0  0  0  0
   -1.5462    1.1577    3.7656 B   0  0  0  0  0  0  0  0  0  0  0  0
   -0.4959    0.2001    3.6106 F   0  0  0  0  0  0  0  0  0  0  0  0
   -1.1438    2.3230    3.0659 F   0  0  0  0  0  0  0  0  0  0  0  0
   -2.6790    0.6162    3.0980 F   0  0  0  0  0  0  0  0  0  0  0  0
   -1.8057    1.4112    5.0876 F   0  0  0  0  0  0  0  0  0  0  0  0
  1 10  1  0  0  0  0
  1  2  1  0  0  0  0
  2  3  1  0  0  0  0
  4 11  1  0  0  0  0
  4  1  2  0  0  0  0
  5  6  2  0  0  0  0
  5  4  1  0  0  0  0
  6  9  1  0  0  0  0
  7  6  1  0  0  0  0
  8  7  1  0  0  0  0
  8 15  1  0  0  0  0
  8 13  1  0  0  0  0
  9 16  1  0  0  0  0
  9 10  2  0  0  0  0
 10 17  1  0  0  0  0
 12  5  1  0  0  0  0
 14  8  1  0  0  0  0
 18 22  1  0  0  0  0
 19 18  1  0  0  0  0
 20 18  1  0  0  0  0
 21 18  1  0  0  0  0
M  RAD  2   2   2   3   3
M  END
