Coordinates from ORCA-job 4-MeOPhN2+~BF4-_B3LYPG-6-31G_dp-NX-Scan-d89-09-n800
 OpenBabel11261920503D

 22 21  0  0  0  0  0  0  0  0999 V2000
   -1.2590   -1.4794    0.4554 C   0  0  0  0  0  0  0  0  0  0  0  0
   -1.4214   -2.4430    1.3834 N   0  0  0  0  0  0  0  0  0  0  0  0
   -1.5508   -3.2360    2.1698 N   0  0  0  0  0  0  0  0  0  0  0  0
   -1.6794   -1.7290   -0.8840 C   0  0  0  0  0  0  0  0  0  0  0  0
   -1.5756   -0.7071   -1.7876 C   0  0  0  0  0  0  0  0  0  0  0  0
   -1.0750    0.5660   -1.3780 C   0  0  0  0  0  0  0  0  0  0  0  0
   -1.1117    1.5158   -2.2993 O   0  0  0  0  0  0  0  0  0  0  0  0
   -0.7614    2.8736   -1.9225 C   0  0  0  0  0  0  0  0  0  0  0  0
   -0.6015    0.7653   -0.0669 C   0  0  0  0  0  0  0  0  0  0  0  0
   -0.7202   -0.2357    0.8679 C   0  0  0  0  0  0  0  0  0  0  0  0
   -2.0827   -2.6960   -1.1622 H   0  0  0  0  0  0  0  0  0  0  0  0
   -1.9029   -0.8277   -2.8136 H   0  0  0  0  0  0  0  0  0  0  0  0
   -1.2716    3.1598   -0.9995 H   0  0  0  0  0  0  0  0  0  0  0  0
   -1.0821    3.4876   -2.7627 H   0  0  0  0  0  0  0  0  0  0  0  0
    0.3224    2.9512   -1.7953 H   0  0  0  0  0  0  0  0  0  0  0  0
   -0.2492    1.7233    0.2878 H   0  0  0  0  0  0  0  0  0  0  0  0
   -0.4447   -0.0221    1.8936 H   0  0  0  0  0  0  0  0  0  0  0  0
   -1.5243    2.4889    2.4178 B   0  0  0  0  0  0  0  0  0  0  0  0
   -0.1698    2.0323    2.4893 F   0  0  0  0  0  0  0  0  0  0  0  0
   -1.6777    3.1535    1.1649 F   0  0  0  0  0  0  0  0  0  0  0  0
   -2.3518    1.3427    2.4269 F   0  0  0  0  0  0  0  0  0  0  0  0
   -1.8133    3.3355    3.4612 F   0  0  0  0  0  0  0  0  0  0  0  0
  1 10  1  0  0  0  0
  1  2  1  0  0  0  0
  2  3  1  0  0  0  0
  4  1  2  0  0  0  0
  5  6  2  0  0  0  0
  5  4  1  0  0  0  0
  6  9  1  0  0  0  0
  7  8  1  0  0  0  0
  7  6  1  0  0  0  0
  8 15  1  0  0  0  0
  8 13  1  0  0  0  0
  9 16  1  0  0  0  0
  9 10  2  0  0  0  0
 10 17  1  0  0  0  0
 11  4  1  0  0  0  0
 12  5  1  0  0  0  0
 14  8  1  0  0  0  0
 18 21  1  0  0  0  0
 18 19  1  0  0  0  0
 18 22  1  0  0  0  0
 20 18  1  0  0  0  0
M  RAD  2   2   2   3   3
M  END
