Coordinates from ORCA-job 4-MeOPhN2+~BF4-_B3LYPG-6-31G_dp-NX-Scan-d89-09-n800
 OpenBabel11261920503D

 22 21  0  0  0  0  0  0  0  0999 V2000
   -1.3255   -0.6378    0.5517 C   0  0  0  0  0  0  0  0  0  0  0  0
   -1.4532   -1.3455    1.7280 N   0  0  0  0  0  0  0  0  0  0  0  0
   -1.4028   -1.5291    2.8504 N   0  0  0  0  0  0  0  0  0  0  0  0
   -1.6687   -1.2928   -0.6482 C   0  0  0  0  0  0  0  0  0  0  0  0
   -1.5489   -0.6109   -1.8394 C   0  0  0  0  0  0  0  0  0  0  0  0
   -1.0884    0.7249   -1.8436 C   0  0  0  0  0  0  0  0  0  0  0  0
   -1.0115    1.3009   -3.0544 O   0  0  0  0  0  0  0  0  0  0  0  0
   -0.5713    2.6580   -3.1579 C   0  0  0  0  0  0  0  0  0  0  0  0
   -0.7468    1.3630   -0.6356 C   0  0  0  0  0  0  0  0  0  0  0  0
   -0.8636    0.6909    0.5709 C   0  0  0  0  0  0  0  0  0  0  0  0
   -2.0244   -2.3166   -0.6218 H   0  0  0  0  0  0  0  0  0  0  0  0
   -1.8054   -1.0736   -2.7851 H   0  0  0  0  0  0  0  0  0  0  0  0
   -1.2398    3.3321   -2.6125 H   0  0  0  0  0  0  0  0  0  0  0  0
   -0.6018    2.8948   -4.2210 H   0  0  0  0  0  0  0  0  0  0  0  0
    0.4529    2.7700   -2.7868 H   0  0  0  0  0  0  0  0  0  0  0  0
   -0.3981    2.3873   -0.6253 H   0  0  0  0  0  0  0  0  0  0  0  0
   -0.6184    1.1871    1.5036 H   0  0  0  0  0  0  0  0  0  0  0  0
   -1.6714    1.1665    3.7826 B   0  0  0  0  0  0  0  0  0  0  0  0
   -0.7605   -0.0504    3.6974 F   0  0  0  0  0  0  0  0  0  0  0  0
   -0.9164    2.1945    3.2228 F   0  0  0  0  0  0  0  0  0  0  0  0
   -2.7582    0.8466    2.9783 F   0  0  0  0  0  0  0  0  0  0  0  0
   -1.9816    1.3598    5.0923 F   0  0  0  0  0  0  0  0  0  0  0  0
  1 10  1  0  0  0  0
  1  2  1  0  0  0  0
  2  3  1  0  0  0  0
  4 11  1  0  0  0  0
  4  1  2  0  0  0  0
  5  4  1  0  0  0  0
  6  5  2  0  0  0  0
  6  9  1  0  0  0  0
  7  6  1  0  0  0  0
  8  7  1  0  0  0  0
  8 15  1  0  0  0  0
  8 13  1  0  0  0  0
  9 16  1  0  0  0  0
  9 10  2  0  0  0  0
 10 17  1  0  0  0  0
 12  5  1  0  0  0  0
 14  8  1  0  0  0  0
 18 22  1  0  0  0  0
 19 18  1  0  0  0  0
 20 18  1  0  0  0  0
 21 18  1  0  0  0  0
M  RAD  2   2   2   3   3
M  END
