Coordinates from ORCA-job 4-MeOPhN2+~BF4-_B3LYPG-6-31G_dp-NX-Scan-d89-09-n800
 OpenBabel11261920503D

 22 21  0  0  0  0  0  0  0  0999 V2000
   -1.2443   -1.5408    0.4328 C   0  0  0  0  0  0  0  0  0  0  0  0
   -1.3509   -2.5387    1.3327 N   0  0  0  0  0  0  0  0  0  0  0  0
   -1.4355   -3.3625    2.0934 N   0  0  0  0  0  0  0  0  0  0  0  0
   -1.6101   -1.7931   -0.9223 C   0  0  0  0  0  0  0  0  0  0  0  0
   -1.5474   -0.7506   -1.8059 C   0  0  0  0  0  0  0  0  0  0  0  0
   -1.1334    0.5423   -1.3638 C   0  0  0  0  0  0  0  0  0  0  0  0
   -1.1814    1.4981   -2.2776 O   0  0  0  0  0  0  0  0  0  0  0  0
   -0.8443    2.8593   -1.8999 C   0  0  0  0  0  0  0  0  0  0  0  0
   -0.7262    0.7533   -0.0310 C   0  0  0  0  0  0  0  0  0  0  0  0
   -0.8061   -0.2702    0.8833 C   0  0  0  0  0  0  0  0  0  0  0  0
   -1.9388   -2.7798   -1.2283 H   0  0  0  0  0  0  0  0  0  0  0  0
   -1.8334   -0.8752   -2.8439 H   0  0  0  0  0  0  0  0  0  0  0  0
   -1.3394    3.1474   -0.9702 H   0  0  0  0  0  0  0  0  0  0  0  0
   -1.1784    3.4709   -2.7365 H   0  0  0  0  0  0  0  0  0  0  0  0
    0.2395    2.9450   -1.7802 H   0  0  0  0  0  0  0  0  0  0  0  0
   -0.4425    1.7327    0.3387 H   0  0  0  0  0  0  0  0  0  0  0  0
   -0.5710   -0.0505    1.9210 H   0  0  0  0  0  0  0  0  0  0  0  0
   -1.4331    2.6211    2.4299 B   0  0  0  0  0  0  0  0  0  0  0  0
   -0.3100    1.8003    2.7562 F   0  0  0  0  0  0  0  0  0  0  0  0
   -1.0778    3.3573    1.2469 F   0  0  0  0  0  0  0  0  0  0  0  0
   -2.5080    1.7729    2.1121 F   0  0  0  0  0  0  0  0  0  0  0  0
   -1.7312    3.4806    3.4592 F   0  0  0  0  0  0  0  0  0  0  0  0
  1 10  1  0  0  0  0
  1  2  1  0  0  0  0
  2  3  1  0  0  0  0
  4  1  2  0  0  0  0
  5  6  2  0  0  0  0
  5  4  1  0  0  0  0
  6  9  1  0  0  0  0
  7  8  1  0  0  0  0
  7  6  1  0  0  0  0
  8 15  1  0  0  0  0
  8 13  1  0  0  0  0
  9 16  1  0  0  0  0
  9 10  2  0  0  0  0
 10 17  1  0  0  0  0
 11  4  1  0  0  0  0
 12  5  1  0  0  0  0
 14  8  1  0  0  0  0
 18 19  1  0  0  0  0
 18 22  1  0  0  0  0
 20 18  1  0  0  0  0
 21 18  1  0  0  0  0
M  RAD  2   2   2   3   3
M  END
