Coordinates from ORCA-job 4-MeOPhN2+~BF4-_B3LYPG-6-31G_dp-NX-Scan-d89-09-n800
 OpenBabel11261920503D

 22 21  0  0  0  0  0  0  0  0999 V2000
   -1.2445   -0.8201    0.5740 C   0  0  0  0  0  0  0  0  0  0  0  0
   -1.3181   -1.5966    1.6926 N   0  0  0  0  0  0  0  0  0  0  0  0
   -1.3707   -2.2744    2.5775 N   0  0  0  0  0  0  0  0  0  0  0  0
   -1.8099   -1.3223   -0.6243 C   0  0  0  0  0  0  0  0  0  0  0  0
   -1.7348   -0.5368   -1.7471 C   0  0  0  0  0  0  0  0  0  0  0  0
   -1.1123    0.7382   -1.6868 C   0  0  0  0  0  0  0  0  0  0  0  0
   -1.1120    1.4179   -2.8385 O   0  0  0  0  0  0  0  0  0  0  0  0
   -0.5489    2.7363   -2.8780 C   0  0  0  0  0  0  0  0  0  0  0  0
   -0.5535    1.2077   -0.4845 C   0  0  0  0  0  0  0  0  0  0  0  0
   -0.6173    0.4375    0.6627 C   0  0  0  0  0  0  0  0  0  0  0  0
   -2.2927   -2.2926   -0.6439 H   0  0  0  0  0  0  0  0  0  0  0  0
   -2.1551   -0.8618   -2.6915 H   0  0  0  0  0  0  0  0  0  0  0  0
   -1.0742    3.4050   -2.1895 H   0  0  0  0  0  0  0  0  0  0  0  0
   -0.6863    3.0793   -3.9028 H   0  0  0  0  0  0  0  0  0  0  0  0
    0.5186    2.7123   -2.6365 H   0  0  0  0  0  0  0  0  0  0  0  0
   -0.0987    2.1868   -0.4199 H   0  0  0  0  0  0  0  0  0  0  0  0
   -0.2212    0.7770    1.6195 H   0  0  0  0  0  0  0  0  0  0  0  0
   -1.7335    1.4313    3.3783 B   0  0  0  0  0  0  0  0  0  0  0  0
   -0.3219    1.1864    3.4222 F   0  0  0  0  0  0  0  0  0  0  0  0
   -1.9883    2.2464    2.2607 F   0  0  0  0  0  0  0  0  0  0  0  0
   -2.3573    0.1667    3.1518 F   0  0  0  0  0  0  0  0  0  0  0  0
   -2.1713    1.9955    4.5504 F   0  0  0  0  0  0  0  0  0  0  0  0
  1 10  1  0  0  0  0
  1  2  1  0  0  0  0
  2  3  1  0  0  0  0
  4  1  2  0  0  0  0
  5  6  2  0  0  0  0
  5  4  1  0  0  0  0
  6  9  1  0  0  0  0
  7  6  1  0  0  0  0
  8  7  1  0  0  0  0
  8 15  1  0  0  0  0
  8 13  1  0  0  0  0
  9 16  1  0  0  0  0
  9 10  2  0  0  0  0
 10 17  1  0  0  0  0
 11  4  1  0  0  0  0
 12  5  1  0  0  0  0
 14  8  1  0  0  0  0
 18 19  1  0  0  0  0
 18 22  1  0  0  0  0
 20 18  1  0  0  0  0
 21 18  1  0  0  0  0
M  RAD  2   2   2   3   3
M  END
