Coordinates from ORCA-job 4-MeOPhN2+~BF4-_B3LYPG-6-31G_dp-NX-Scan-d89-09-n800
 OpenBabel11261920503D

 22 21  0  0  0  0  0  0  0  0999 V2000
   -1.2819   -0.6441    0.6000 C   0  0  0  0  0  0  0  0  0  0  0  0
   -1.3980   -1.3559    1.7629 N   0  0  0  0  0  0  0  0  0  0  0  0
   -1.4900   -1.9920    2.6725 N   0  0  0  0  0  0  0  0  0  0  0  0
   -1.7099   -1.2765   -0.5911 C   0  0  0  0  0  0  0  0  0  0  0  0
   -1.6056   -0.5792   -1.7711 C   0  0  0  0  0  0  0  0  0  0  0  0
   -1.0847    0.7384   -1.7747 C   0  0  0  0  0  0  0  0  0  0  0  0
   -1.0387    1.3264   -2.9761 O   0  0  0  0  0  0  0  0  0  0  0  0
   -0.5562    2.6718   -3.0844 C   0  0  0  0  0  0  0  0  0  0  0  0
   -0.6608    1.3414   -0.5749 C   0  0  0  0  0  0  0  0  0  0  0  0
   -0.7563    0.6605    0.6259 C   0  0  0  0  0  0  0  0  0  0  0  0
   -2.1158   -2.2812   -0.5659 H   0  0  0  0  0  0  0  0  0  0  0  0
   -1.9245   -1.0129   -2.7114 H   0  0  0  0  0  0  0  0  0  0  0  0
   -1.1757    3.3578   -2.4987 H   0  0  0  0  0  0  0  0  0  0  0  0
   -0.6297    2.9222   -4.1420 H   0  0  0  0  0  0  0  0  0  0  0  0
    0.4874    2.7408   -2.7609 H   0  0  0  0  0  0  0  0  0  0  0  0
   -0.2726    2.3510   -0.5620 H   0  0  0  0  0  0  0  0  0  0  0  0
   -0.4649    1.1144    1.5664 H   0  0  0  0  0  0  0  0  0  0  0  0
   -1.6843    1.2099    3.6211 B   0  0  0  0  0  0  0  0  0  0  0  0
   -0.5306    0.3532    3.5521 F   0  0  0  0  0  0  0  0  0  0  0  0
   -1.3606    2.3820    2.9086 F   0  0  0  0  0  0  0  0  0  0  0  0
   -2.7206    0.5274    2.9260 F   0  0  0  0  0  0  0  0  0  0  0  0
   -2.0300    1.4644    4.9241 F   0  0  0  0  0  0  0  0  0  0  0  0
  1 10  1  0  0  0  0
  1  2  1  0  0  0  0
  2  3  1  0  0  0  0
  4 11  1  0  0  0  0
  4  1  2  0  0  0  0
  5  4  1  0  0  0  0
  6  5  2  0  0  0  0
  6  9  1  0  0  0  0
  7  6  1  0  0  0  0
  8  7  1  0  0  0  0
  8 15  1  0  0  0  0
  8 13  1  0  0  0  0
  9 16  1  0  0  0  0
  9 10  2  0  0  0  0
 10 17  1  0  0  0  0
 12  5  1  0  0  0  0
 14  8  1  0  0  0  0
 18 22  1  0  0  0  0
 19 18  1  0  0  0  0
 20 18  1  0  0  0  0
 21 18  1  0  0  0  0
M  RAD  2   2   2   3   3
M  END
