Coordinates from ORCA-job 4-MeOPhN2+~BF4-_B3LYPG-6-31G_dp-NX-Scan-d89-09-n800
 OpenBabel11261920503D

 22 21  0  0  0  0  0  0  0  0999 V2000
   -1.2531   -0.8036    0.5762 C   0  0  0  0  0  0  0  0  0  0  0  0
   -1.3427   -1.5774    1.6965 N   0  0  0  0  0  0  0  0  0  0  0  0
   -1.4161   -2.2730    2.5660 N   0  0  0  0  0  0  0  0  0  0  0  0
   -1.7915   -1.3251   -0.6263 C   0  0  0  0  0  0  0  0  0  0  0  0
   -1.7088   -0.5510   -1.7568 C   0  0  0  0  0  0  0  0  0  0  0  0
   -1.1053    0.7325   -1.6997 C   0  0  0  0  0  0  0  0  0  0  0  0
   -1.0978    1.4018   -2.8574 O   0  0  0  0  0  0  0  0  0  0  0  0
   -0.5552    2.7286   -2.9012 C   0  0  0  0  0  0  0  0  0  0  0  0
   -0.5703    1.2202   -0.4933 C   0  0  0  0  0  0  0  0  0  0  0  0
   -0.6410    0.4613    0.6611 C   0  0  0  0  0  0  0  0  0  0  0  0
   -2.2612   -2.3019   -0.6434 H   0  0  0  0  0  0  0  0  0  0  0  0
   -2.1095   -0.8922   -2.7039 H   0  0  0  0  0  0  0  0  0  0  0  0
   -1.1016    3.3953   -2.2273 H   0  0  0  0  0  0  0  0  0  0  0  0
   -0.6828    3.0597   -3.9312 H   0  0  0  0  0  0  0  0  0  0  0  0
    0.5088    2.7245   -2.6438 H   0  0  0  0  0  0  0  0  0  0  0  0
   -0.1269    2.2048   -0.4324 H   0  0  0  0  0  0  0  0  0  0  0  0
   -0.2589    0.8169    1.6175 H   0  0  0  0  0  0  0  0  0  0  0  0
   -1.7169    1.4257    3.4158 B   0  0  0  0  0  0  0  0  0  0  0  0
   -0.3185    1.1082    3.4513 F   0  0  0  0  0  0  0  0  0  0  0  0
   -1.9178    2.3254    2.3553 F   0  0  0  0  0  0  0  0  0  0  0  0
   -2.3995    0.2103    3.1018 F   0  0  0  0  0  0  0  0  0  0  0  0
   -2.1371    1.9288    4.6218 F   0  0  0  0  0  0  0  0  0  0  0  0
  1 10  1  0  0  0  0
  1  2  1  0  0  0  0
  2  3  1  0  0  0  0
  4  1  2  0  0  0  0
  5  6  2  0  0  0  0
  5  4  1  0  0  0  0
  6  9  1  0  0  0  0
  7  6  1  0  0  0  0
  8  7  1  0  0  0  0
  8 15  1  0  0  0  0
  8 13  1  0  0  0  0
  9 16  1  0  0  0  0
  9 10  2  0  0  0  0
 10 17  1  0  0  0  0
 11  4  1  0  0  0  0
 12  5  1  0  0  0  0
 14  8  1  0  0  0  0
 18 19  1  0  0  0  0
 18 22  1  0  0  0  0
 20 18  1  0  0  0  0
 21 18  1  0  0  0  0
M  RAD  2   2   2   3   3
M  END
