Coordinates from ORCA-job 4-MeOPhN2+~BF4-_B3LYPG-6-31G_dp-NX-Scan-d89-09-n800
 OpenBabel11261920503D

 22 21  0  0  0  0  0  0  0  0999 V2000
   -1.2488   -1.3241    0.4426 C   0  0  0  0  0  0  0  0  0  0  0  0
   -1.3340   -2.2168    1.4546 N   0  0  0  0  0  0  0  0  0  0  0  0
   -1.3956   -2.9181    2.3285 N   0  0  0  0  0  0  0  0  0  0  0  0
   -1.5845   -1.7150   -0.8839 C   0  0  0  0  0  0  0  0  0  0  0  0
   -1.5236   -0.7531   -1.8561 C   0  0  0  0  0  0  0  0  0  0  0  0
   -1.1542    0.5857   -1.5257 C   0  0  0  0  0  0  0  0  0  0  0  0
   -1.1637    1.4377   -2.5479 O   0  0  0  0  0  0  0  0  0  0  0  0
   -0.8513    2.8235   -2.3047 C   0  0  0  0  0  0  0  0  0  0  0  0
   -0.8205    0.9416   -0.2076 C   0  0  0  0  0  0  0  0  0  0  0  0
   -0.8637   -0.0103    0.7901 C   0  0  0  0  0  0  0  0  0  0  0  0
   -1.8829   -2.7331   -1.1059 H   0  0  0  0  0  0  0  0  0  0  0  0
   -1.7716   -0.9788   -2.8869 H   0  0  0  0  0  0  0  0  0  0  0  0
   -1.5450    3.2542   -1.5778 H   0  0  0  0  0  0  0  0  0  0  0  0
   -0.9613    3.3151   -3.2700 H   0  0  0  0  0  0  0  0  0  0  0  0
    0.1760    2.9285   -1.9449 H   0  0  0  0  0  0  0  0  0  0  0  0
   -0.5836    1.9522    0.1076 H   0  0  0  0  0  0  0  0  0  0  0  0
   -0.6304    0.2563    1.8244 H   0  0  0  0  0  0  0  0  0  0  0  0
   -1.3913    2.2618    2.8829 B   0  0  0  0  0  0  0  0  0  0  0  0
   -0.5719    1.1795    3.3568 F   0  0  0  0  0  0  0  0  0  0  0  0
   -0.6452    2.9532    1.8874 F   0  0  0  0  0  0  0  0  0  0  0  0
   -2.5200    1.6827    2.2663 F   0  0  0  0  0  0  0  0  0  0  0  0
   -1.7367    3.0969    3.9168 F   0  0  0  0  0  0  0  0  0  0  0  0
  1 10  1  0  0  0  0
  1  2  1  0  0  0  0
  2  3  1  0  0  0  0
  4  1  2  0  0  0  0
  5  6  2  0  0  0  0
  5  4  1  0  0  0  0
  6  9  1  0  0  0  0
  7  8  1  0  0  0  0
  7  6  1  0  0  0  0
  8 15  1  0  0  0  0
  8 13  1  0  0  0  0
  9 16  1  0  0  0  0
  9 10  2  0  0  0  0
 10 17  1  0  0  0  0
 11  4  1  0  0  0  0
 12  5  1  0  0  0  0
 14  8  1  0  0  0  0
 18 19  1  0  0  0  0
 18 22  1  0  0  0  0
 20 18  1  0  0  0  0
 21 18  1  0  0  0  0
M  RAD  2   2   2   3   3
M  END
