Coordinates from ORCA-job 4-MeOPhN2+~BF4-_B3LYPG-6-31G_dp-NX-Scan-d89-09-n800
 OpenBabel11261920503D

 22 21  0  0  0  0  0  0  0  0999 V2000
   -1.3972   -1.7646    0.3517 C   0  0  0  0  0  0  0  0  0  0  0  0
   -1.5940   -2.8593    1.1127 N   0  0  0  0  0  0  0  0  0  0  0  0
   -1.7629   -3.7933    1.7199 N   0  0  0  0  0  0  0  0  0  0  0  0
   -1.5739   -1.8963   -1.0590 C   0  0  0  0  0  0  0  0  0  0  0  0
   -1.4152   -0.7842   -1.8388 C   0  0  0  0  0  0  0  0  0  0  0  0
   -1.0847    0.4713   -1.2442 C   0  0  0  0  0  0  0  0  0  0  0  0
   -1.0230    1.4945   -2.0681 O   0  0  0  0  0  0  0  0  0  0  0  0
   -0.8356    2.8411   -1.5290 C   0  0  0  0  0  0  0  0  0  0  0  0
   -0.8606    0.5709    0.1516 C   0  0  0  0  0  0  0  0  0  0  0  0
   -1.0402   -0.5264    0.9566 C   0  0  0  0  0  0  0  0  0  0  0  0
   -1.8401   -2.8562   -1.4872 H   0  0  0  0  0  0  0  0  0  0  0  0
   -1.5582   -0.8258   -2.9126 H   0  0  0  0  0  0  0  0  0  0  0  0
   -1.5838    3.0445   -0.7598 H   0  0  0  0  0  0  0  0  0  0  0  0
   -0.9429    3.4923   -2.3944 H   0  0  0  0  0  0  0  0  0  0  0  0
    0.1568    2.9346   -1.0871 H   0  0  0  0  0  0  0  0  0  0  0  0
   -0.5693    1.5051    0.6154 H   0  0  0  0  0  0  0  0  0  0  0  0
   -0.9303   -0.4044    2.0293 H   0  0  0  0  0  0  0  0  0  0  0  0
   -1.2396    3.1003    2.1445 B   0  0  0  0  0  0  0  0  0  0  0  0
   -0.0962    3.4050    1.3471 F   0  0  0  0  0  0  0  0  0  0  0  0
   -2.3443    2.9907    1.2591 F   0  0  0  0  0  0  0  0  0  0  0  0
   -1.0197    1.8204    2.7338 F   0  0  0  0  0  0  0  0  0  0  0  0
   -1.4489    4.0595    3.1054 F   0  0  0  0  0  0  0  0  0  0  0  0
  1 10  1  0  0  0  0
  1  2  1  0  0  0  0
  2  3  1  0  0  0  0
  4  1  2  0  0  0  0
  5  6  2  0  0  0  0
  5  4  1  0  0  0  0
  6  9  1  0  0  0  0
  7  8  1  0  0  0  0
  7  6  1  0  0  0  0
  8 15  1  0  0  0  0
  8 13  1  0  0  0  0
  9 16  1  0  0  0  0
  9 10  2  0  0  0  0
 10 17  1  0  0  0  0
 11  4  1  0  0  0  0
 12  5  1  0  0  0  0
 14  8  1  0  0  0  0
 18 21  1  0  0  0  0
 18 22  1  0  0  0  0
 19 18  1  0  0  0  0
 20 18  1  0  0  0  0
M  RAD  2   2   2   3   3
M  END
