Coordinates from ORCA-job 4-MeOPhN2+~BF4-_B3LYPG-6-31G_dp-NX-Scan-d89-09-n800
 OpenBabel11261920503D

 22 21  0  0  0  0  0  0  0  0999 V2000
   -1.3184   -0.6497    0.5605 C   0  0  0  0  0  0  0  0  0  0  0  0
   -1.4654   -1.4034    1.7166 N   0  0  0  0  0  0  0  0  0  0  0  0
   -1.3440   -1.4174    2.8720 N   0  0  0  0  0  0  0  0  0  0  0  0
   -1.6746   -1.2877   -0.6447 C   0  0  0  0  0  0  0  0  0  0  0  0
   -1.5571   -0.6086   -1.8391 C   0  0  0  0  0  0  0  0  0  0  0  0
   -1.0829    0.7197   -1.8466 C   0  0  0  0  0  0  0  0  0  0  0  0
   -1.0067    1.2991   -3.0590 O   0  0  0  0  0  0  0  0  0  0  0  0
   -0.5494    2.6490   -3.1595 C   0  0  0  0  0  0  0  0  0  0  0  0
   -0.7280    1.3506   -0.6393 C   0  0  0  0  0  0  0  0  0  0  0  0
   -0.8432    0.6752    0.5668 C   0  0  0  0  0  0  0  0  0  0  0  0
   -2.0405   -2.3079   -0.6160 H   0  0  0  0  0  0  0  0  0  0  0  0
   -1.8253   -1.0694   -2.7827 H   0  0  0  0  0  0  0  0  0  0  0  0
   -1.2058    3.3316   -2.6092 H   0  0  0  0  0  0  0  0  0  0  0  0
   -0.5810    2.8912   -4.2216 H   0  0  0  0  0  0  0  0  0  0  0  0
    0.4780    2.7477   -2.7927 H   0  0  0  0  0  0  0  0  0  0  0  0
   -0.3683    2.3712   -0.6296 H   0  0  0  0  0  0  0  0  0  0  0  0
   -0.5829    1.1701    1.4919 H   0  0  0  0  0  0  0  0  0  0  0  0
   -1.7607    1.2179    3.8054 B   0  0  0  0  0  0  0  0  0  0  0  0
   -0.7182    0.0041    3.4318 F   0  0  0  0  0  0  0  0  0  0  0  0
   -1.0901    2.2948    3.2880 F   0  0  0  0  0  0  0  0  0  0  0  0
   -2.8787    0.8649    3.1038 F   0  0  0  0  0  0  0  0  0  0  0  0
   -1.8606    1.1766    5.1498 F   0  0  0  0  0  0  0  0  0  0  0  0
  1 10  1  0  0  0  0
  1  2  1  0  0  0  0
  2  3  2  0  0  0  0
  4 11  1  0  0  0  0
  4  1  2  0  0  0  0
  5  4  1  0  0  0  0
  6  5  2  0  0  0  0
  6  9  1  0  0  0  0
  7  6  1  0  0  0  0
  8  7  1  0  0  0  0
  8 15  1  0  0  0  0
  8 13  1  0  0  0  0
  9 16  1  0  0  0  0
  9 10  2  0  0  0  0
 10 17  1  0  0  0  0
 12  5  1  0  0  0  0
 14  8  1  0  0  0  0
 18 22  1  0  0  0  0
 19 18  1  0  0  0  0
 20 18  1  0  0  0  0
 21 18  1  0  0  0  0
M  RAD  1   3   2
M  END
