Coordinates from ORCA-job 4-MeOPhN2+~BF4-_B3LYPG-6-31G_dp-NX-Scan-d89-09-n800
 OpenBabel11261920503D

 22 21  0  0  0  0  0  0  0  0999 V2000
   -1.4795   -1.8930    0.2929 C   0  0  0  0  0  0  0  0  0  0  0  0
   -1.7388   -2.9861    1.0272 N   0  0  0  0  0  0  0  0  0  0  0  0
   -1.9521   -3.8837    1.6734 N   0  0  0  0  0  0  0  0  0  0  0  0
   -1.6837   -1.9283   -1.1168 C   0  0  0  0  0  0  0  0  0  0  0  0
   -1.4583   -0.7804   -1.8254 C   0  0  0  0  0  0  0  0  0  0  0  0
   -1.0526    0.4170   -1.1590 C   0  0  0  0  0  0  0  0  0  0  0  0
   -0.9259    1.4736   -1.9272 O   0  0  0  0  0  0  0  0  0  0  0  0
   -0.6977    2.7870   -1.3217 C   0  0  0  0  0  0  0  0  0  0  0  0
   -0.8133    0.4224    0.2424 C   0  0  0  0  0  0  0  0  0  0  0  0
   -1.0316   -0.7202    0.9639 C   0  0  0  0  0  0  0  0  0  0  0  0
   -2.0179   -2.8399   -1.5991 H   0  0  0  0  0  0  0  0  0  0  0  0
   -1.6106   -0.7436   -2.8981 H   0  0  0  0  0  0  0  0  0  0  0  0
   -1.5156    3.0207   -0.6417 H   0  0  0  0  0  0  0  0  0  0  0  0
   -0.6554    3.4718   -2.1656 H   0  0  0  0  0  0  0  0  0  0  0  0
    0.2423    2.7923   -0.7689 H   0  0  0  0  0  0  0  0  0  0  0  0
   -0.4887    1.3136    0.7798 H   0  0  0  0  0  0  0  0  0  0  0  0
   -0.8793   -0.7246    2.0378 H   0  0  0  0  0  0  0  0  0  0  0  0
   -1.2612    3.3945    1.9356 B   0  0  0  0  0  0  0  0  0  0  0  0
   -1.0164    4.4614    1.0650 F   0  0  0  0  0  0  0  0  0  0  0  0
   -2.2845    2.5801    1.3651 F   0  0  0  0  0  0  0  0  0  0  0  0
   -0.0735    2.5813    1.9845 F   0  0  0  0  0  0  0  0  0  0  0  0
   -1.6096    3.8040    3.2024 F   0  0  0  0  0  0  0  0  0  0  0  0
  1 10  1  0  0  0  0
  1  2  1  0  0  0  0
  2  3  1  0  0  0  0
  4  1  2  0  0  0  0
  5  6  2  0  0  0  0
  5  4  1  0  0  0  0
  6  9  1  0  0  0  0
  7  8  1  0  0  0  0
  7  6  1  0  0  0  0
  8 15  1  0  0  0  0
  8 13  1  0  0  0  0
  9 16  1  0  0  0  0
  9 10  2  0  0  0  0
 10 17  1  0  0  0  0
 11  4  1  0  0  0  0
 12  5  1  0  0  0  0
 14  8  1  0  0  0  0
 18 21  1  0  0  0  0
 18 22  1  0  0  0  0
 19 18  1  0  0  0  0
 20 18  1  0  0  0  0
M  RAD  2   2   2   3   3
M  END
