Coordinates from ORCA-job 4-MeOPhN2+~BF4-_B3LYPG-6-31G_dp-NX-Scan-d89-09-n800
 OpenBabel11261920503D

 22 21  0  0  0  0  0  0  0  0999 V2000
   -1.4275   -1.8379    0.3189 C   0  0  0  0  0  0  0  0  0  0  0  0
   -1.6124   -2.9476    1.0580 N   0  0  0  0  0  0  0  0  0  0  0  0
   -1.7691   -3.8856    1.6624 N   0  0  0  0  0  0  0  0  0  0  0  0
   -1.5772   -1.9373   -1.0971 C   0  0  0  0  0  0  0  0  0  0  0  0
   -1.4145   -0.8056   -1.8476 C   0  0  0  0  0  0  0  0  0  0  0  0
   -1.1104    0.4411   -1.2197 C   0  0  0  0  0  0  0  0  0  0  0  0
   -1.0199    1.4770   -2.0214 O   0  0  0  0  0  0  0  0  0  0  0  0
   -0.8298    2.8139   -1.4548 C   0  0  0  0  0  0  0  0  0  0  0  0
   -0.9320    0.5124    0.1857 C   0  0  0  0  0  0  0  0  0  0  0  0
   -1.0996   -0.6084    0.9571 C   0  0  0  0  0  0  0  0  0  0  0  0
   -1.8223   -2.8899   -1.5532 H   0  0  0  0  0  0  0  0  0  0  0  0
   -1.5297   -0.8254   -2.9254 H   0  0  0  0  0  0  0  0  0  0  0  0
   -1.6189    3.0273   -0.7316 H   0  0  0  0  0  0  0  0  0  0  0  0
   -0.8643    3.4769   -2.3168 H   0  0  0  0  0  0  0  0  0  0  0  0
    0.1326    2.8784   -0.9470 H   0  0  0  0  0  0  0  0  0  0  0  0
   -0.6790    1.4288    0.7017 H   0  0  0  0  0  0  0  0  0  0  0  0
   -0.9922   -0.5237    2.0336 H   0  0  0  0  0  0  0  0  0  0  0  0
   -1.1718    3.2762    2.0923 B   0  0  0  0  0  0  0  0  0  0  0  0
   -0.1731    3.8402    1.2688 F   0  0  0  0  0  0  0  0  0  0  0  0
   -2.2985    2.9803    1.2697 F   0  0  0  0  0  0  0  0  0  0  0  0
   -0.6785    2.0222    2.5811 F   0  0  0  0  0  0  0  0  0  0  0  0
   -1.5157    4.1062    3.1318 F   0  0  0  0  0  0  0  0  0  0  0  0
  1 10  1  0  0  0  0
  1  2  1  0  0  0  0
  2  3  1  0  0  0  0
  4  1  2  0  0  0  0
  5  6  2  0  0  0  0
  5  4  1  0  0  0  0
  6  9  1  0  0  0  0
  7  8  1  0  0  0  0
  7  6  1  0  0  0  0
  8 15  1  0  0  0  0
  8 13  1  0  0  0  0
  9 16  1  0  0  0  0
  9 10  2  0  0  0  0
 10 17  1  0  0  0  0
 11  4  1  0  0  0  0
 12  5  1  0  0  0  0
 14  8  1  0  0  0  0
 18 21  1  0  0  0  0
 18 22  1  0  0  0  0
 19 18  1  0  0  0  0
 20 18  1  0  0  0  0
M  RAD  2   2   2   3   3
M  END
