Coordinates from ORCA-job 4-MeOPhN2+~BF4-_B3LYPG-6-31G_dp-NX-Scan-d89-09-n800
 OpenBabel11261920503D

 22 21  0  0  0  0  0  0  0  0999 V2000
   -1.3792   -1.7067    0.3672 C   0  0  0  0  0  0  0  0  0  0  0  0
   -1.5854   -2.7716    1.1650 N   0  0  0  0  0  0  0  0  0  0  0  0
   -1.7566   -3.6688    1.8236 N   0  0  0  0  0  0  0  0  0  0  0  0
   -1.6248   -1.8506   -1.0309 C   0  0  0  0  0  0  0  0  0  0  0  0
   -1.4623   -0.7523   -1.8300 C   0  0  0  0  0  0  0  0  0  0  0  0
   -1.0631    0.4963   -1.2638 C   0  0  0  0  0  0  0  0  0  0  0  0
   -1.0172    1.5137   -2.0991 O   0  0  0  0  0  0  0  0  0  0  0  0
   -0.7905    2.8576   -1.5733 C   0  0  0  0  0  0  0  0  0  0  0  0
   -0.7618    0.6015    0.1154 C   0  0  0  0  0  0  0  0  0  0  0  0
   -0.9482   -0.4789    0.9409 C   0  0  0  0  0  0  0  0  0  0  0  0
   -1.9463   -2.8044   -1.4341 H   0  0  0  0  0  0  0  0  0  0  0  0
   -1.6595   -0.7976   -2.8949 H   0  0  0  0  0  0  0  0  0  0  0  0
   -1.4884    3.0615   -0.7583 H   0  0  0  0  0  0  0  0  0  0  0  0
   -0.9513    3.5113   -2.4286 H   0  0  0  0  0  0  0  0  0  0  0  0
    0.2325    2.9472   -1.2042 H   0  0  0  0  0  0  0  0  0  0  0  0
   -0.4170    1.5347    0.5502 H   0  0  0  0  0  0  0  0  0  0  0  0
   -0.8027   -0.3491    2.0082 H   0  0  0  0  0  0  0  0  0  0  0  0
   -1.3304    2.9582    2.1666 B   0  0  0  0  0  0  0  0  0  0  0  0
   -0.1404    3.2412    1.4235 F   0  0  0  0  0  0  0  0  0  0  0  0
   -2.3778    2.8220    1.2181 F   0  0  0  0  0  0  0  0  0  0  0  0
   -1.1403    1.7031    2.8076 F   0  0  0  0  0  0  0  0  0  0  0  0
   -1.5930    3.9513    3.0775 F   0  0  0  0  0  0  0  0  0  0  0  0
  1 10  1  0  0  0  0
  1  2  1  0  0  0  0
  2  3  1  0  0  0  0
  4  1  2  0  0  0  0
  5  6  2  0  0  0  0
  5  4  1  0  0  0  0
  6  9  1  0  0  0  0
  7  8  1  0  0  0  0
  7  6  1  0  0  0  0
  8 15  1  0  0  0  0
  8 13  1  0  0  0  0
  9 16  1  0  0  0  0
  9 10  2  0  0  0  0
 10 17  1  0  0  0  0
 11  4  1  0  0  0  0
 12  5  1  0  0  0  0
 14  8  1  0  0  0  0
 18 21  1  0  0  0  0
 18 22  1  0  0  0  0
 19 18  1  0  0  0  0
 20 18  1  0  0  0  0
M  RAD  2   2   2   3   3
M  END
