Coordinates from ORCA-job 4-MeOPhN2+~BF4-_B3LYPG-6-31G_dp-NX-Scan-d89-09-n800
 OpenBabel11261920503D

 22 21  0  0  0  0  0  0  0  0999 V2000
   -1.2607   -1.4848    0.4546 C   0  0  0  0  0  0  0  0  0  0  0  0
   -1.4213   -2.4536    1.3774 N   0  0  0  0  0  0  0  0  0  0  0  0
   -1.5506   -3.2539    2.1566 N   0  0  0  0  0  0  0  0  0  0  0  0
   -1.6779   -1.7322   -0.8864 C   0  0  0  0  0  0  0  0  0  0  0  0
   -1.5745   -0.7083   -1.7877 C   0  0  0  0  0  0  0  0  0  0  0  0
   -1.0765    0.5647   -1.3748 C   0  0  0  0  0  0  0  0  0  0  0  0
   -1.1115    1.5155   -2.2948 O   0  0  0  0  0  0  0  0  0  0  0  0
   -0.7612    2.8730   -1.9166 C   0  0  0  0  0  0  0  0  0  0  0  0
   -0.6066    0.7624   -0.0621 C   0  0  0  0  0  0  0  0  0  0  0  0
   -0.7255   -0.2405    0.8707 C   0  0  0  0  0  0  0  0  0  0  0  0
   -2.0785   -2.6996   -1.1673 H   0  0  0  0  0  0  0  0  0  0  0  0
   -1.8995   -0.8277   -2.8147 H   0  0  0  0  0  0  0  0  0  0  0  0
   -1.2723    3.1589   -0.9941 H   0  0  0  0  0  0  0  0  0  0  0  0
   -1.0804    3.4876   -2.7569 H   0  0  0  0  0  0  0  0  0  0  0  0
    0.3225    2.9498   -1.7881 H   0  0  0  0  0  0  0  0  0  0  0  0
   -0.2548    1.7198    0.2950 H   0  0  0  0  0  0  0  0  0  0  0  0
   -0.4523   -0.0286    1.8974 H   0  0  0  0  0  0  0  0  0  0  0  0
   -1.5211    2.5017    2.4137 B   0  0  0  0  0  0  0  0  0  0  0  0
   -0.1631    2.0544    2.4732 F   0  0  0  0  0  0  0  0  0  0  0  0
   -1.6913    3.1592    1.1591 F   0  0  0  0  0  0  0  0  0  0  0  0
   -2.3416    1.3506    2.4361 F   0  0  0  0  0  0  0  0  0  0  0  0
   -1.8050    3.3514    3.4559 F   0  0  0  0  0  0  0  0  0  0  0  0
  1 10  1  0  0  0  0
  1  2  1  0  0  0  0
  2  3  1  0  0  0  0
  4  1  2  0  0  0  0
  5  6  2  0  0  0  0
  5  4  1  0  0  0  0
  6  9  1  0  0  0  0
  7  8  1  0  0  0  0
  7  6  1  0  0  0  0
  8 15  1  0  0  0  0
  8 13  1  0  0  0  0
  9 16  1  0  0  0  0
  9 10  2  0  0  0  0
 10 17  1  0  0  0  0
 11  4  1  0  0  0  0
 12  5  1  0  0  0  0
 14  8  1  0  0  0  0
 18 21  1  0  0  0  0
 18 19  1  0  0  0  0
 18 22  1  0  0  0  0
 20 18  1  0  0  0  0
M  RAD  2   2   2   3   3
M  END
