Coordinates from ORCA-job 4-MeOPhN2+~BF4-_B3LYPG-6-31G_dp-NX-Scan-d89-09-n800
 OpenBabel11261920503D

 22 21  0  0  0  0  0  0  0  0999 V2000
   -1.2405   -0.8185    0.5753 C   0  0  0  0  0  0  0  0  0  0  0  0
   -1.3131   -1.5929    1.6954 N   0  0  0  0  0  0  0  0  0  0  0  0
   -1.3645   -2.2681    2.5823 N   0  0  0  0  0  0  0  0  0  0  0  0
   -1.8088   -1.3211   -0.6212 C   0  0  0  0  0  0  0  0  0  0  0  0
   -1.7354   -0.5361   -1.7447 C   0  0  0  0  0  0  0  0  0  0  0  0
   -1.1122    0.7386   -1.6862 C   0  0  0  0  0  0  0  0  0  0  0  0
   -1.1143    1.4179   -2.8382 O   0  0  0  0  0  0  0  0  0  0  0  0
   -0.5512    2.7361   -2.8795 C   0  0  0  0  0  0  0  0  0  0  0  0
   -0.5503    1.2084   -0.4854 C   0  0  0  0  0  0  0  0  0  0  0  0
   -0.6120    0.4385    0.6620 C   0  0  0  0  0  0  0  0  0  0  0  0
   -2.2925   -2.2909   -0.6393 H   0  0  0  0  0  0  0  0  0  0  0  0
   -2.1579   -0.8612   -2.6880 H   0  0  0  0  0  0  0  0  0  0  0  0
   -1.0749    3.4052   -2.1901 H   0  0  0  0  0  0  0  0  0  0  0  0
   -0.6910    3.0788   -3.9041 H   0  0  0  0  0  0  0  0  0  0  0  0
    0.5169    2.7122   -2.6405 H   0  0  0  0  0  0  0  0  0  0  0  0
   -0.0949    2.1873   -0.4222 H   0  0  0  0  0  0  0  0  0  0  0  0
   -0.2145    0.7762    1.6187 H   0  0  0  0  0  0  0  0  0  0  0  0
   -1.7376    1.4279    3.3760 B   0  0  0  0  0  0  0  0  0  0  0  0
   -0.3294    1.1644    3.4274 F   0  0  0  0  0  0  0  0  0  0  0  0
   -1.9738    2.2552    2.2635 F   0  0  0  0  0  0  0  0  0  0  0  0
   -2.3760    0.1734    3.1356 F   0  0  0  0  0  0  0  0  0  0  0  0
   -2.1758    1.9885    4.5497 F   0  0  0  0  0  0  0  0  0  0  0  0
  1 10  1  0  0  0  0
  1  2  1  0  0  0  0
  2  3  1  0  0  0  0
  4  1  2  0  0  0  0
  5  6  2  0  0  0  0
  5  4  1  0  0  0  0
  6  9  1  0  0  0  0
  7  6  1  0  0  0  0
  8  7  1  0  0  0  0
  8 15  1  0  0  0  0
  8 13  1  0  0  0  0
  9 16  1  0  0  0  0
  9 10  2  0  0  0  0
 10 17  1  0  0  0  0
 11  4  1  0  0  0  0
 12  5  1  0  0  0  0
 14  8  1  0  0  0  0
 18 19  1  0  0  0  0
 18 22  1  0  0  0  0
 20 18  1  0  0  0  0
 21 18  1  0  0  0  0
M  RAD  2   2   2   3   3
M  END
