Coordinates from ORCA-job 4-MeOPhN2+~BF4-_B3LYPG-6-31G_dp-NX-Scan-d89-09-n800
 OpenBabel11261920503D

 22 21  0  0  0  0  0  0  0  0999 V2000
   -1.5038   -0.7738    0.3612 C   0  0  0  0  0  0  0  0  0  0  0  0
   -1.8482   -1.6493    1.4425 N   0  0  0  0  0  0  0  0  0  0  0  0
   -1.3503   -1.4754    2.6006 N   0  0  0  0  0  0  0  0  0  0  0  0
   -1.6832   -1.3573   -0.9091 C   0  0  0  0  0  0  0  0  0  0  0  0
   -1.4386   -0.6510   -2.0739 C   0  0  0  0  0  0  0  0  0  0  0  0
   -1.0282    0.6903   -2.0073 C   0  0  0  0  0  0  0  0  0  0  0  0
   -0.8196    1.3071   -3.2042 O   0  0  0  0  0  0  0  0  0  0  0  0
   -0.4179    2.6684   -3.2004 C   0  0  0  0  0  0  0  0  0  0  0  0
   -0.8711    1.2994   -0.7570 C   0  0  0  0  0  0  0  0  0  0  0  0
   -1.0989    0.5725    0.4146 C   0  0  0  0  0  0  0  0  0  0  0  0
   -2.0219   -2.3872   -0.9484 H   0  0  0  0  0  0  0  0  0  0  0  0
   -1.5695   -1.1066   -3.0498 H   0  0  0  0  0  0  0  0  0  0  0  0
   -1.1705    3.3112   -2.7258 H   0  0  0  0  0  0  0  0  0  0  0  0
   -0.3116    2.9542   -4.2477 H   0  0  0  0  0  0  0  0  0  0  0  0
    0.5442    2.8052   -2.6903 H   0  0  0  0  0  0  0  0  0  0  0  0
   -0.5675    2.3361   -0.6776 H   0  0  0  0  0  0  0  0  0  0  0  0
   -0.9775    1.0915    1.3568 H   0  0  0  0  0  0  0  0  0  0  0  0
   -1.7972    1.7699    4.6809 B   0  0  0  0  0  0  0  0  0  0  0  0
   -0.6955   -0.6957    2.7570 F   0  0  0  0  0  0  0  0  0  0  0  0
   -0.9605    2.0676    3.6987 F   0  0  0  0  0  0  0  0  0  0  0  0
   -2.4027    0.6008    4.6840 F   0  0  0  0  0  0  0  0  0  0  0  0
   -2.0138    2.6416    5.6416 F   0  0  0  0  0  0  0  0  0  0  0  0
  1 10  1  0  0  0  0
  1  2  1  0  0  0  0
  2  3  2  0  0  0  0
  3 19  1  0  0  0  0
  4  1  2  0  0  0  0
  5  6  2  0  0  0  0
  5  4  1  0  0  0  0
  6  9  1  0  0  0  0
  7  8  1  0  0  0  0
  7  6  1  0  0  0  0
  8 13  1  0  0  0  0
  8 15  1  0  0  0  0
  9 16  1  0  0  0  0
  9 10  2  0  0  0  0
 10 17  1  0  0  0  0
 11  4  1  0  0  0  0
 12  5  1  0  0  0  0
 14  8  1  0  0  0  0
 18 21  1  0  0  0  0
 18 22  1  0  0  0  0
 20 18  1  0  0  0  0
M  END
