Coordinates from ORCA-job 4-MeOPhN2+~BF4-_B3LYPG-6-31G_dp-NX-Scan-d89-09-n800
 OpenBabel11261920503D

 22 21  0  0  0  0  0  0  0  0999 V2000
   -1.3673   -1.6684    0.3681 C   0  0  0  0  0  0  0  0  0  0  0  0
   -1.5838   -2.7008    1.2034 N   0  0  0  0  0  0  0  0  0  0  0  0
   -1.7547   -3.5481    1.9241 N   0  0  0  0  0  0  0  0  0  0  0  0
   -1.6414   -1.8275   -1.0219 C   0  0  0  0  0  0  0  0  0  0  0  0
   -1.4759   -0.7401   -1.8364 C   0  0  0  0  0  0  0  0  0  0  0  0
   -1.0497    0.5085   -1.2906 C   0  0  0  0  0  0  0  0  0  0  0  0
   -1.0166    1.5230   -2.1325 O   0  0  0  0  0  0  0  0  0  0  0  0
   -0.7772    2.8641   -1.6088 C   0  0  0  0  0  0  0  0  0  0  0  0
   -0.7121    0.6223    0.0776 C   0  0  0  0  0  0  0  0  0  0  0  0
   -0.9017   -0.4444    0.9189 C   0  0  0  0  0  0  0  0  0  0  0  0
   -1.9872   -2.7799   -1.4074 H   0  0  0  0  0  0  0  0  0  0  0  0
   -1.6961   -0.7931   -2.8965 H   0  0  0  0  0  0  0  0  0  0  0  0
   -1.4473    3.0603   -0.7686 H   0  0  0  0  0  0  0  0  0  0  0  0
   -0.9720    3.5236   -2.4527 H   0  0  0  0  0  0  0  0  0  0  0  0
    0.2601    2.9565   -1.2808 H   0  0  0  0  0  0  0  0  0  0  0  0
   -0.3515    1.5541    0.5060 H   0  0  0  0  0  0  0  0  0  0  0  0
   -0.7468   -0.3044    1.9835 H   0  0  0  0  0  0  0  0  0  0  0  0
   -1.3723    2.8654    2.1996 B   0  0  0  0  0  0  0  0  0  0  0  0
   -0.1391    3.1034    1.5100 F   0  0  0  0  0  0  0  0  0  0  0  0
   -2.3775    2.7516    1.2044 F   0  0  0  0  0  0  0  0  0  0  0  0
   -1.2487    1.6150    2.8624 F   0  0  0  0  0  0  0  0  0  0  0  0
   -1.6450    3.8786    3.0847 F   0  0  0  0  0  0  0  0  0  0  0  0
  1 10  1  0  0  0  0
  1  2  1  0  0  0  0
  2  3  1  0  0  0  0
  4  1  2  0  0  0  0
  5  6  2  0  0  0  0
  5  4  1  0  0  0  0
  6  9  1  0  0  0  0
  7  8  1  0  0  0  0
  7  6  1  0  0  0  0
  8 15  1  0  0  0  0
  8 13  1  0  0  0  0
  9 16  1  0  0  0  0
  9 10  2  0  0  0  0
 10 17  1  0  0  0  0
 11  4  1  0  0  0  0
 12  5  1  0  0  0  0
 14  8  1  0  0  0  0
 18 21  1  0  0  0  0
 18 22  1  0  0  0  0
 19 18  1  0  0  0  0
 20 18  1  0  0  0  0
M  RAD  2   2   2   3   3
M  END
