Coordinates from ORCA-job 4-MeOPhN2+~BF4-_B3LYPG-6-31G_dp-NX-Scan-d89-09-n800
 OpenBabel11261920503D

 22 21  0  0  0  0  0  0  0  0999 V2000
   -1.5008   -1.9711    0.2621 C   0  0  0  0  0  0  0  0  0  0  0  0
   -1.7223   -3.1042    0.9470 N   0  0  0  0  0  0  0  0  0  0  0  0
   -1.9062   -4.0454    1.5387 N   0  0  0  0  0  0  0  0  0  0  0  0
   -1.5906   -1.9879   -1.1602 C   0  0  0  0  0  0  0  0  0  0  0  0
   -1.3809   -0.8145   -1.8288 C   0  0  0  0  0  0  0  0  0  0  0  0
   -1.0937    0.3915   -1.1157 C   0  0  0  0  0  0  0  0  0  0  0  0
   -0.9462    1.4568   -1.8634 O   0  0  0  0  0  0  0  0  0  0  0  0
   -0.7822    2.7753   -1.2421 C   0  0  0  0  0  0  0  0  0  0  0  0
   -0.9847    0.3870    0.3050 C   0  0  0  0  0  0  0  0  0  0  0  0
   -1.1886   -0.7843    0.9854 C   0  0  0  0  0  0  0  0  0  0  0  0
   -1.8250   -2.9083   -1.6832 H   0  0  0  0  0  0  0  0  0  0  0  0
   -1.4435   -0.7651   -2.9101 H   0  0  0  0  0  0  0  0  0  0  0  0
   -1.6543    2.9963   -0.6288 H   0  0  0  0  0  0  0  0  0  0  0  0
   -0.6861    3.4603   -2.0808 H   0  0  0  0  0  0  0  0  0  0  0  0
    0.1057    2.7898   -0.6107 H   0  0  0  0  0  0  0  0  0  0  0  0
   -0.7368    1.2866    0.8698 H   0  0  0  0  0  0  0  0  0  0  0  0
   -1.1181   -0.8085    2.0678 H   0  0  0  0  0  0  0  0  0  0  0  0
   -1.1190    3.5657    1.8837 B   0  0  0  0  0  0  0  0  0  0  0  0
   -0.9411    4.6014    0.9596 F   0  0  0  0  0  0  0  0  0  0  0  0
   -2.2440    2.7867    1.4816 F   0  0  0  0  0  0  0  0  0  0  0  0
    0.0242    2.6918    1.7950 F   0  0  0  0  0  0  0  0  0  0  0  0
   -1.2697    4.0198    3.1743 F   0  0  0  0  0  0  0  0  0  0  0  0
  1  2  1  0  0  0  0
  1 10  2  0  0  0  0
  2  3  1  0  0  0  0
  4  1  1  0  0  0  0
  5  4  2  0  0  0  0
  5  6  1  0  0  0  0
  6  9  2  0  0  0  0
  7  8  1  0  0  0  0
  7  6  1  0  0  0  0
  8 13  1  0  0  0  0
  8 15  1  0  0  0  0
  9 16  1  0  0  0  0
  9 10  1  0  0  0  0
 10 17  1  0  0  0  0
 11  4  1  0  0  0  0
 12  5  1  0  0  0  0
 14  8  1  0  0  0  0
 18 22  1  0  0  0  0
 19 18  1  0  0  0  0
 20 18  1  0  0  0  0
 21 18  1  0  0  0  0
M  RAD  2   2   2   3   3
M  END
