Coordinates from ORCA-job 4-MeOPhN2+~BF4-_B3LYPG-6-31G_dp-NX-Scan-d89-09-n800
 OpenBabel11261920503D

 22 21  0  0  0  0  0  0  0  0999 V2000
   -1.2637   -0.8560    0.5661 C   0  0  0  0  0  0  0  0  0  0  0  0
   -1.3595   -1.6478    1.6717 N   0  0  0  0  0  0  0  0  0  0  0  0
   -1.4395   -2.3488    2.5368 N   0  0  0  0  0  0  0  0  0  0  0  0
   -1.8159   -1.3447   -0.6450 C   0  0  0  0  0  0  0  0  0  0  0  0
   -1.7295   -0.5474   -1.7582 C   0  0  0  0  0  0  0  0  0  0  0  0
   -1.1086    0.7274   -1.6766 C   0  0  0  0  0  0  0  0  0  0  0  0
   -1.1024    1.4227   -2.8185 O   0  0  0  0  0  0  0  0  0  0  0  0
   -0.5514    2.7470   -2.8339 C   0  0  0  0  0  0  0  0  0  0  0  0
   -0.5577    1.1804   -0.4646 C   0  0  0  0  0  0  0  0  0  0  0  0
   -0.6339    0.3987    0.6742 C   0  0  0  0  0  0  0  0  0  0  0  0
   -2.2990   -2.3144   -0.6799 H   0  0  0  0  0  0  0  0  0  0  0  0
   -2.1413   -0.8616   -2.7099 H   0  0  0  0  0  0  0  0  0  0  0  0
   -1.0852    3.3985   -2.1356 H   0  0  0  0  0  0  0  0  0  0  0  0
   -0.6894    3.1059   -3.8532 H   0  0  0  0  0  0  0  0  0  0  0  0
    0.5155    2.7290   -2.5899 H   0  0  0  0  0  0  0  0  0  0  0  0
   -0.1030    2.1583   -0.3832 H   0  0  0  0  0  0  0  0  0  0  0  0
   -0.2379    0.7385    1.6314 H   0  0  0  0  0  0  0  0  0  0  0  0
   -1.6990    1.4931    3.3487 B   0  0  0  0  0  0  0  0  0  0  0  0
   -0.2718    1.4009    3.3663 F   0  0  0  0  0  0  0  0  0  0  0  0
   -2.0643    2.2220    2.2017 F   0  0  0  0  0  0  0  0  0  0  0  0
   -2.1917    0.1589    3.1933 F   0  0  0  0  0  0  0  0  0  0  0  0
   -2.1747    2.0594    4.5048 F   0  0  0  0  0  0  0  0  0  0  0  0
  1 10  1  0  0  0  0
  1  2  1  0  0  0  0
  2  3  1  0  0  0  0
  4  1  2  0  0  0  0
  5  6  2  0  0  0  0
  5  4  1  0  0  0  0
  6  9  1  0  0  0  0
  7  6  1  0  0  0  0
  8  7  1  0  0  0  0
  8 15  1  0  0  0  0
  8 13  1  0  0  0  0
  9 16  1  0  0  0  0
  9 10  2  0  0  0  0
 10 17  1  0  0  0  0
 11  4  1  0  0  0  0
 12  5  1  0  0  0  0
 14  8  1  0  0  0  0
 18 19  1  0  0  0  0
 18 22  1  0  0  0  0
 20 18  1  0  0  0  0
 21 18  1  0  0  0  0
M  RAD  2   2   2   3   3
M  END
