Coordinates from ORCA-job 4-MeOPhN2+~BF4-_B3LYPG-6-31G_dp-NX-Scan-d89-09-n800
 OpenBabel11261920503D

 22 21  0  0  0  0  0  0  0  0999 V2000
   -1.3291   -0.6244    0.5491 C   0  0  0  0  0  0  0  0  0  0  0  0
   -1.4545   -1.3202    1.7296 N   0  0  0  0  0  0  0  0  0  0  0  0
   -1.4320   -1.5732    2.8336 N   0  0  0  0  0  0  0  0  0  0  0  0
   -1.6589   -1.2911   -0.6488 C   0  0  0  0  0  0  0  0  0  0  0  0
   -1.5372   -0.6135   -1.8417 C   0  0  0  0  0  0  0  0  0  0  0  0
   -1.0883    0.7269   -1.8492 C   0  0  0  0  0  0  0  0  0  0  0  0
   -1.0091    1.2965   -3.0621 O   0  0  0  0  0  0  0  0  0  0  0  0
   -0.5815    2.6576   -3.1713 C   0  0  0  0  0  0  0  0  0  0  0  0
   -0.7595    1.3744   -0.6426 C   0  0  0  0  0  0  0  0  0  0  0  0
   -0.8786    0.7086    0.5671 C   0  0  0  0  0  0  0  0  0  0  0  0
   -2.0057   -2.3178   -0.6198 H   0  0  0  0  0  0  0  0  0  0  0  0
   -1.7831   -1.0829   -2.7869 H   0  0  0  0  0  0  0  0  0  0  0  0
   -1.2598    3.3279   -2.6332 H   0  0  0  0  0  0  0  0  0  0  0  0
   -0.6088    2.8876   -4.2360 H   0  0  0  0  0  0  0  0  0  0  0  0
    0.4395    2.7815   -2.7955 H   0  0  0  0  0  0  0  0  0  0  0  0
   -0.4187    2.4013   -0.6359 H   0  0  0  0  0  0  0  0  0  0  0  0
   -0.6426    1.2096    1.5013 H   0  0  0  0  0  0  0  0  0  0  0  0
   -1.6416    1.1473    3.8032 B   0  0  0  0  0  0  0  0  0  0  0  0
   -0.8059   -0.0944    3.8135 F   0  0  0  0  0  0  0  0  0  0  0  0
   -0.8178    2.1309    3.2441 F   0  0  0  0  0  0  0  0  0  0  0  0
   -2.7065    0.8638    2.9468 F   0  0  0  0  0  0  0  0  0  0  0  0
   -2.0237    1.4232    5.0813 F   0  0  0  0  0  0  0  0  0  0  0  0
  1 10  1  0  0  0  0
  1  2  1  0  0  0  0
  2  3  1  0  0  0  0
  4 11  1  0  0  0  0
  4  1  2  0  0  0  0
  5  4  1  0  0  0  0
  6  5  2  0  0  0  0
  6  9  1  0  0  0  0
  7  6  1  0  0  0  0
  8  7  1  0  0  0  0
  8 15  1  0  0  0  0
  8 13  1  0  0  0  0
  9 16  1  0  0  0  0
  9 10  2  0  0  0  0
 10 17  1  0  0  0  0
 12  5  1  0  0  0  0
 14  8  1  0  0  0  0
 18 19  1  0  0  0  0
 18 22  1  0  0  0  0
 20 18  1  0  0  0  0
 21 18  1  0  0  0  0
M  RAD  2   2   2   3   3
M  END
