Coordinates from ORCA-job 4-MeOPhN2+~BF4-_B3LYPG-6-31G_dp-NX-Scan-d89-09-n800
 OpenBabel11261920503D

 22 21  0  0  0  0  0  0  0  0999 V2000
   -1.2989   -1.5315    0.4237 C   0  0  0  0  0  0  0  0  0  0  0  0
   -1.4931   -2.5141    1.3241 N   0  0  0  0  0  0  0  0  0  0  0  0
   -1.6486   -3.3223    2.0904 N   0  0  0  0  0  0  0  0  0  0  0  0
   -1.6769   -1.7519   -0.9333 C   0  0  0  0  0  0  0  0  0  0  0  0
   -1.5445   -0.7113   -1.8123 C   0  0  0  0  0  0  0  0  0  0  0  0
   -1.0529    0.5502   -1.3604 C   0  0  0  0  0  0  0  0  0  0  0  0
   -1.0667    1.5247   -2.2540 O   0  0  0  0  0  0  0  0  0  0  0  0
   -0.7474    2.8761   -1.8230 C   0  0  0  0  0  0  0  0  0  0  0  0
   -0.6093    0.7183   -0.0330 C   0  0  0  0  0  0  0  0  0  0  0  0
   -0.7622   -0.2994    0.8766 C   0  0  0  0  0  0  0  0  0  0  0  0
   -2.0733   -2.7119   -1.2438 H   0  0  0  0  0  0  0  0  0  0  0  0
   -1.8434   -0.8091   -2.8494 H   0  0  0  0  0  0  0  0  0  0  0  0
   -1.3000    3.1241   -0.9126 H   0  0  0  0  0  0  0  0  0  0  0  0
   -1.0439    3.5106   -2.6568 H   0  0  0  0  0  0  0  0  0  0  0  0
    0.3292    2.9626   -1.6514 H   0  0  0  0  0  0  0  0  0  0  0  0
   -0.2358    1.6589    0.3522 H   0  0  0  0  0  0  0  0  0  0  0  0
   -0.5455   -0.1124    1.9215 H   0  0  0  0  0  0  0  0  0  0  0  0
   -1.4918    2.5934    2.3615 B   0  0  0  0  0  0  0  0  0  0  0  0
   -0.0880    2.4673    2.1269 F   0  0  0  0  0  0  0  0  0  0  0  0
   -2.1026    2.8987    1.1125 F   0  0  0  0  0  0  0  0  0  0  0  0
   -1.9606    1.3267    2.7948 F   0  0  0  0  0  0  0  0  0  0  0  0
   -1.7477    3.5718    3.2924 F   0  0  0  0  0  0  0  0  0  0  0  0
  1 10  1  0  0  0  0
  1  2  1  0  0  0  0
  2  3  1  0  0  0  0
  4  1  2  0  0  0  0
  5  6  2  0  0  0  0
  5  4  1  0  0  0  0
  6  9  1  0  0  0  0
  7  8  1  0  0  0  0
  7  6  1  0  0  0  0
  8 15  1  0  0  0  0
  8 13  1  0  0  0  0
  9 16  1  0  0  0  0
  9 10  2  0  0  0  0
 10 17  1  0  0  0  0
 11  4  1  0  0  0  0
 12  5  1  0  0  0  0
 14  8  1  0  0  0  0
 18 21  1  0  0  0  0
 18 22  1  0  0  0  0
 19 18  1  0  0  0  0
 20 18  1  0  0  0  0
M  RAD  2   2   2   3   3
M  END
