Coordinates from ORCA-job 4-MeOPhN2+~BF4-_B3LYPG-6-31G_dp-NX-Scan-d89-09-n800
 OpenBabel11261920503D

 22 21  0  0  0  0  0  0  0  0999 V2000
   -1.3040   -1.5461    0.4175 C   0  0  0  0  0  0  0  0  0  0  0  0
   -1.4971   -2.5338    1.3124 N   0  0  0  0  0  0  0  0  0  0  0  0
   -1.6509   -3.3463    2.0746 N   0  0  0  0  0  0  0  0  0  0  0  0
   -1.6730   -1.7611   -0.9428 C   0  0  0  0  0  0  0  0  0  0  0  0
   -1.5397   -0.7153   -1.8154 C   0  0  0  0  0  0  0  0  0  0  0  0
   -1.0551    0.5459   -1.3547 C   0  0  0  0  0  0  0  0  0  0  0  0
   -1.0658    1.5238   -2.2440 O   0  0  0  0  0  0  0  0  0  0  0  0
   -0.7494    2.8744   -1.8068 C   0  0  0  0  0  0  0  0  0  0  0  0
   -0.6209    0.7096   -0.0233 C   0  0  0  0  0  0  0  0  0  0  0  0
   -0.7759   -0.3135    0.8799 C   0  0  0  0  0  0  0  0  0  0  0  0
   -2.0632   -2.7213   -1.2606 H   0  0  0  0  0  0  0  0  0  0  0  0
   -1.8319   -0.8092   -2.8549 H   0  0  0  0  0  0  0  0  0  0  0  0
   -1.3052    3.1188   -0.8973 H   0  0  0  0  0  0  0  0  0  0  0  0
   -1.0437    3.5112   -2.6397 H   0  0  0  0  0  0  0  0  0  0  0  0
    0.3265    2.9608   -1.6312 H   0  0  0  0  0  0  0  0  0  0  0  0
   -0.2491    1.6491    0.3680 H   0  0  0  0  0  0  0  0  0  0  0  0
   -0.5685   -0.1306    1.9277 H   0  0  0  0  0  0  0  0  0  0  0  0
   -1.4806    2.6224    2.3516 B   0  0  0  0  0  0  0  0  0  0  0  0
   -0.0802    2.5237    2.0881 F   0  0  0  0  0  0  0  0  0  0  0  0
   -2.1228    2.9046    1.1129 F   0  0  0  0  0  0  0  0  0  0  0  0
   -1.9156    1.3501    2.8041 F   0  0  0  0  0  0  0  0  0  0  0  0
   -1.7378    3.6024    3.2804 F   0  0  0  0  0  0  0  0  0  0  0  0
  1 10  1  0  0  0  0
  1  2  1  0  0  0  0
  2  3  1  0  0  0  0
  4  1  2  0  0  0  0
  5  6  2  0  0  0  0
  5  4  1  0  0  0  0
  6  9  1  0  0  0  0
  7  8  1  0  0  0  0
  7  6  1  0  0  0  0
  8 15  1  0  0  0  0
  8 13  1  0  0  0  0
  9 16  1  0  0  0  0
  9 10  2  0  0  0  0
 10 17  1  0  0  0  0
 11  4  1  0  0  0  0
 12  5  1  0  0  0  0
 14  8  1  0  0  0  0
 18 21  1  0  0  0  0
 18 22  1  0  0  0  0
 19 18  1  0  0  0  0
 20 18  1  0  0  0  0
M  RAD  2   2   2   3   3
M  END
