Coordinates from ORCA-job 4-MeOPhN2+~BF4-_B3LYPG-6-31G_dp-NX-Scan-d89-09-n800
 OpenBabel11261920503D

 22 21  0  0  0  0  0  0  0  0999 V2000
   -1.4202   -1.8114    0.3332 C   0  0  0  0  0  0  0  0  0  0  0  0
   -1.6149   -2.9178    1.0762 N   0  0  0  0  0  0  0  0  0  0  0  0
   -1.7823   -3.8599    1.6713 N   0  0  0  0  0  0  0  0  0  0  0  0
   -1.5786   -1.9226   -1.0815 C   0  0  0  0  0  0  0  0  0  0  0  0
   -1.4140   -0.7993   -1.8440 C   0  0  0  0  0  0  0  0  0  0  0  0
   -1.0986    0.4503   -1.2284 C   0  0  0  0  0  0  0  0  0  0  0  0
   -1.0174    1.4819   -2.0378 O   0  0  0  0  0  0  0  0  0  0  0  0
   -0.8287    2.8225   -1.4808 C   0  0  0  0  0  0  0  0  0  0  0  0
   -0.9031    0.5317    0.1736 C   0  0  0  0  0  0  0  0  0  0  0  0
   -1.0782   -0.5792    0.9587 C   0  0  0  0  0  0  0  0  0  0  0  0
   -1.8335   -2.8778   -1.5269 H   0  0  0  0  0  0  0  0  0  0  0  0
   -1.5385   -0.8278   -2.9205 H   0  0  0  0  0  0  0  0  0  0  0  0
   -1.6035    3.0318   -0.7407 H   0  0  0  0  0  0  0  0  0  0  0  0
   -0.8900    3.4812   -2.3447 H   0  0  0  0  0  0  0  0  0  0  0  0
    0.1449    2.8985   -0.9964 H   0  0  0  0  0  0  0  0  0  0  0  0
   -0.6368    1.4551    0.6681 H   0  0  0  0  0  0  0  0  0  0  0  0
   -0.9688   -0.4786    2.0336 H   0  0  0  0  0  0  0  0  0  0  0  0
   -1.1948    3.2177    2.1116 B   0  0  0  0  0  0  0  0  0  0  0  0
   -0.1622    3.7281    1.2872 F   0  0  0  0  0  0  0  0  0  0  0  0
   -2.3175    2.9518    1.2764 F   0  0  0  0  0  0  0  0  0  0  0  0
   -0.7513    1.9593    2.6310 F   0  0  0  0  0  0  0  0  0  0  0  0
   -1.5158    4.0842    3.1276 F   0  0  0  0  0  0  0  0  0  0  0  0
  1 10  1  0  0  0  0
  1  2  1  0  0  0  0
  2  3  1  0  0  0  0
  4  1  2  0  0  0  0
  5  6  2  0  0  0  0
  5  4  1  0  0  0  0
  6  9  1  0  0  0  0
  7  8  1  0  0  0  0
  7  6  1  0  0  0  0
  8 15  1  0  0  0  0
  8 13  1  0  0  0  0
  9 16  1  0  0  0  0
  9 10  2  0  0  0  0
 10 17  1  0  0  0  0
 11  4  1  0  0  0  0
 12  5  1  0  0  0  0
 14  8  1  0  0  0  0
 18 21  1  0  0  0  0
 18 22  1  0  0  0  0
 19 18  1  0  0  0  0
 20 18  1  0  0  0  0
M  RAD  2   2   2   3   3
M  END
