Coordinates from ORCA-job 4-MeOPhN2+~BF4-_B3LYPG-6-31G_dp-NX-Scan-d89-09-n800
 OpenBabel11261920503D

 22 21  0  0  0  0  0  0  0  0999 V2000
   -1.2131   -0.7444    0.6021 C   0  0  0  0  0  0  0  0  0  0  0  0
   -1.2688   -1.5000    1.7382 N   0  0  0  0  0  0  0  0  0  0  0  0
   -1.3133   -2.1812    2.6201 N   0  0  0  0  0  0  0  0  0  0  0  0
   -1.7933   -1.2770   -0.5746 C   0  0  0  0  0  0  0  0  0  0  0  0
   -1.7332   -0.5214   -1.7196 C   0  0  0  0  0  0  0  0  0  0  0  0
   -1.1095    0.7532   -1.7024 C   0  0  0  0  0  0  0  0  0  0  0  0
   -1.1205    1.4012   -2.8728 O   0  0  0  0  0  0  0  0  0  0  0  0
   -0.5502    2.7139   -2.9561 C   0  0  0  0  0  0  0  0  0  0  0  0
   -0.5375    1.2553   -0.5191 C   0  0  0  0  0  0  0  0  0  0  0  0
   -0.5867    0.5149    0.6482 C   0  0  0  0  0  0  0  0  0  0  0  0
   -2.2761   -2.2473   -0.5627 H   0  0  0  0  0  0  0  0  0  0  0  0
   -2.1653   -0.8723   -2.6492 H   0  0  0  0  0  0  0  0  0  0  0  0
   -1.0652    3.4065   -2.2835 H   0  0  0  0  0  0  0  0  0  0  0  0
   -0.6947    3.0278   -3.9893 H   0  0  0  0  0  0  0  0  0  0  0  0
    0.5194    2.6908   -2.7235 H   0  0  0  0  0  0  0  0  0  0  0  0
   -0.0796    2.2346   -0.4882 H   0  0  0  0  0  0  0  0  0  0  0  0
   -0.1918    0.8714    1.5957 H   0  0  0  0  0  0  0  0  0  0  0  0
   -1.7846    1.3245    3.4231 B   0  0  0  0  0  0  0  0  0  0  0  0
   -0.4278    0.8514    3.4755 F   0  0  0  0  0  0  0  0  0  0  0  0
   -1.8537    2.2882    2.4017 F   0  0  0  0  0  0  0  0  0  0  0  0
   -2.5849    0.2086    3.0405 F   0  0  0  0  0  0  0  0  0  0  0  0
   -2.1733    1.8210    4.6423 F   0  0  0  0  0  0  0  0  0  0  0  0
  1 10  1  0  0  0  0
  1  2  1  0  0  0  0
  2  3  1  0  0  0  0
  4 11  1  0  0  0  0
  4  1  2  0  0  0  0
  5  6  2  0  0  0  0
  5  4  1  0  0  0  0
  6  9  1  0  0  0  0
  7  6  1  0  0  0  0
  8  7  1  0  0  0  0
  8 15  1  0  0  0  0
  8 13  1  0  0  0  0
  9 16  1  0  0  0  0
  9 10  2  0  0  0  0
 10 17  1  0  0  0  0
 12  5  1  0  0  0  0
 14  8  1  0  0  0  0
 18 19  1  0  0  0  0
 18 22  1  0  0  0  0
 20 18  1  0  0  0  0
 21 18  1  0  0  0  0
M  RAD  2   2   2   3   3
M  END
