Coordinates from ORCA-job 4-MeOPhN2+~BF4-_B3LYPG-6-31G_dp-NX-Scan-d89-09-n800
 OpenBabel11261920503D

 22 21  0  0  0  0  0  0  0  0999 V2000
   -1.2419   -1.5298    0.4325 C   0  0  0  0  0  0  0  0  0  0  0  0
   -1.3532   -2.5154    1.3454 N   0  0  0  0  0  0  0  0  0  0  0  0
   -1.4376   -3.3199    2.1263 N   0  0  0  0  0  0  0  0  0  0  0  0
   -1.6141   -1.7874   -0.9194 C   0  0  0  0  0  0  0  0  0  0  0  0
   -1.5494   -0.7487   -1.8078 C   0  0  0  0  0  0  0  0  0  0  0  0
   -1.1293    0.5447   -1.3724 C   0  0  0  0  0  0  0  0  0  0  0  0
   -1.1807    1.4988   -2.2884 O   0  0  0  0  0  0  0  0  0  0  0  0
   -0.8440    2.8599   -1.9115 C   0  0  0  0  0  0  0  0  0  0  0  0
   -0.7141    0.7593   -0.0431 C   0  0  0  0  0  0  0  0  0  0  0  0
   -0.7949   -0.2603    0.8754 C   0  0  0  0  0  0  0  0  0  0  0  0
   -1.9492   -2.7736   -1.2199 H   0  0  0  0  0  0  0  0  0  0  0  0
   -1.8402   -0.8762   -2.8440 H   0  0  0  0  0  0  0  0  0  0  0  0
   -1.3379    3.1468   -0.9807 H   0  0  0  0  0  0  0  0  0  0  0  0
   -1.1807    3.4720   -2.7467 H   0  0  0  0  0  0  0  0  0  0  0  0
    0.2400    2.9473   -1.7939 H   0  0  0  0  0  0  0  0  0  0  0  0
   -0.4281    1.7392    0.3235 H   0  0  0  0  0  0  0  0  0  0  0  0
   -0.5570   -0.0373    1.9121 H   0  0  0  0  0  0  0  0  0  0  0  0
   -1.4396    2.5949    2.4402 B   0  0  0  0  0  0  0  0  0  0  0  0
   -0.3255    1.7648    2.7771 F   0  0  0  0  0  0  0  0  0  0  0  0
   -1.0650    3.3382    1.2680 F   0  0  0  0  0  0  0  0  0  0  0  0
   -2.5143    1.7545    2.1018 F   0  0  0  0  0  0  0  0  0  0  0  0
   -1.7470    3.4478    3.4722 F   0  0  0  0  0  0  0  0  0  0  0  0
  1 10  1  0  0  0  0
  1  2  1  0  0  0  0
  2  3  1  0  0  0  0
  4  1  2  0  0  0  0
  5  6  2  0  0  0  0
  5  4  1  0  0  0  0
  6  9  1  0  0  0  0
  7  8  1  0  0  0  0
  7  6  1  0  0  0  0
  8 15  1  0  0  0  0
  8 13  1  0  0  0  0
  9 16  1  0  0  0  0
  9 10  2  0  0  0  0
 10 17  1  0  0  0  0
 11  4  1  0  0  0  0
 12  5  1  0  0  0  0
 14  8  1  0  0  0  0
 18 19  1  0  0  0  0
 18 22  1  0  0  0  0
 20 18  1  0  0  0  0
 21 18  1  0  0  0  0
M  RAD  2   2   2   3   3
M  END
