Coordinates from ORCA-job 4-MeOPhN2+~BF4-_B3LYPG-6-31G_dp-NX-Scan-d89-09-n800
 OpenBabel11261920503D

 22 21  0  0  0  0  0  0  0  0999 V2000
   -1.4473   -1.8980    0.2930 C   0  0  0  0  0  0  0  0  0  0  0  0
   -1.6234   -3.0184    1.0151 N   0  0  0  0  0  0  0  0  0  0  0  0
   -1.7688   -3.9557    1.6234 N   0  0  0  0  0  0  0  0  0  0  0  0
   -1.5999   -1.9626   -1.1237 C   0  0  0  0  0  0  0  0  0  0  0  0
   -1.4334   -0.8122   -1.8440 C   0  0  0  0  0  0  0  0  0  0  0  0
   -1.1242    0.4188   -1.1866 C   0  0  0  0  0  0  0  0  0  0  0  0
   -1.0124    1.4652   -1.9700 O   0  0  0  0  0  0  0  0  0  0  0  0
   -0.7933    2.7916   -1.3880 C   0  0  0  0  0  0  0  0  0  0  0  0
   -0.9570    0.4601    0.2234 C   0  0  0  0  0  0  0  0  0  0  0  0
   -1.1198   -0.6837    0.9603 C   0  0  0  0  0  0  0  0  0  0  0  0
   -1.8467   -2.9030   -1.6037 H   0  0  0  0  0  0  0  0  0  0  0  0
   -1.5453   -0.8043   -2.9224 H   0  0  0  0  0  0  0  0  0  0  0  0
   -1.5813    3.0174   -0.6681 H   0  0  0  0  0  0  0  0  0  0  0  0
   -0.8059    3.4645   -2.2428 H   0  0  0  0  0  0  0  0  0  0  0  0
    0.1711    2.8271   -0.8805 H   0  0  0  0  0  0  0  0  0  0  0  0
   -0.7087    1.3649    0.7718 H   0  0  0  0  0  0  0  0  0  0  0  0
   -1.0057   -0.6433    2.0386 H   0  0  0  0  0  0  0  0  0  0  0  0
   -1.1640    3.4107    2.0321 B   0  0  0  0  0  0  0  0  0  0  0  0
   -0.3328    4.1767    1.1974 F   0  0  0  0  0  0  0  0  0  0  0  0
   -2.2916    2.9822    1.2673 F   0  0  0  0  0  0  0  0  0  0  0  0
   -0.4501    2.2207    2.4014 F   0  0  0  0  0  0  0  0  0  0  0  0
   -1.5630    4.1009    3.1525 F   0  0  0  0  0  0  0  0  0  0  0  0
  1 10  1  0  0  0  0
  1  2  1  0  0  0  0
  2  3  1  0  0  0  0
  4  1  2  0  0  0  0
  5  6  2  0  0  0  0
  5  4  1  0  0  0  0
  6  9  1  0  0  0  0
  7  8  1  0  0  0  0
  7  6  1  0  0  0  0
  8 15  1  0  0  0  0
  8 13  1  0  0  0  0
  9 16  1  0  0  0  0
  9 10  2  0  0  0  0
 10 17  1  0  0  0  0
 11  4  1  0  0  0  0
 12  5  1  0  0  0  0
 14  8  1  0  0  0  0
 18 21  1  0  0  0  0
 18 22  1  0  0  0  0
 19 18  1  0  0  0  0
 20 18  1  0  0  0  0
M  RAD  2   2   2   3   3
M  END
