Coordinates from ORCA-job 4-MeOPhN2+~BF4-_B3LYPG-6-31G_dp-NX-Scan-d89-09-n800
 OpenBabel11261920503D

 22 21  0  0  0  0  0  0  0  0999 V2000
   -1.3004   -0.6376    0.5922 C   0  0  0  0  0  0  0  0  0  0  0  0
   -1.4150   -1.3464    1.7569 N   0  0  0  0  0  0  0  0  0  0  0  0
   -1.4975   -1.9627    2.6804 N   0  0  0  0  0  0  0  0  0  0  0  0
   -1.7042   -1.2792   -0.6020 C   0  0  0  0  0  0  0  0  0  0  0  0
   -1.5929   -0.5851   -1.7833 C   0  0  0  0  0  0  0  0  0  0  0  0
   -1.0869    0.7382   -1.7852 C   0  0  0  0  0  0  0  0  0  0  0  0
   -1.0276    1.3210   -2.9885 O   0  0  0  0  0  0  0  0  0  0  0  0
   -0.5482    2.6675   -3.0968 C   0  0  0  0  0  0  0  0  0  0  0  0
   -0.6896    1.3517   -0.5816 C   0  0  0  0  0  0  0  0  0  0  0  0
   -0.7933    0.6747    0.6210 C   0  0  0  0  0  0  0  0  0  0  0  0
   -2.0971   -2.2892   -0.5785 H   0  0  0  0  0  0  0  0  0  0  0  0
   -1.8932   -1.0264   -2.7263 H   0  0  0  0  0  0  0  0  0  0  0  0
   -1.1809    3.3553   -2.5275 H   0  0  0  0  0  0  0  0  0  0  0  0
   -0.6026    2.9106   -4.1572 H   0  0  0  0  0  0  0  0  0  0  0  0
    0.4888    2.7424   -2.7542 H   0  0  0  0  0  0  0  0  0  0  0  0
   -0.3140    2.3660   -0.5675 H   0  0  0  0  0  0  0  0  0  0  0  0
   -0.5209    1.1421    1.5612 H   0  0  0  0  0  0  0  0  0  0  0  0
   -1.6636    1.1965    3.6526 B   0  0  0  0  0  0  0  0  0  0  0  0
   -0.5318    0.3152    3.5787 F   0  0  0  0  0  0  0  0  0  0  0  0
   -1.3127    2.3662    2.9445 F   0  0  0  0  0  0  0  0  0  0  0  0
   -2.7151    0.5439    2.9519 F   0  0  0  0  0  0  0  0  0  0  0  0
   -2.0050    1.4552    4.9556 F   0  0  0  0  0  0  0  0  0  0  0  0
  1 10  1  0  0  0  0
  1  2  1  0  0  0  0
  2  3  1  0  0  0  0
  4 11  1  0  0  0  0
  4  1  2  0  0  0  0
  5  4  1  0  0  0  0
  6  5  2  0  0  0  0
  6  9  1  0  0  0  0
  7  6  1  0  0  0  0
  8  7  1  0  0  0  0
  8 15  1  0  0  0  0
  8 13  1  0  0  0  0
  9 16  1  0  0  0  0
  9 10  2  0  0  0  0
 10 17  1  0  0  0  0
 12  5  1  0  0  0  0
 14  8  1  0  0  0  0
 18 22  1  0  0  0  0
 19 18  1  0  0  0  0
 20 18  1  0  0  0  0
 21 18  1  0  0  0  0
M  RAD  2   2   2   3   3
M  END
