Coordinates from ORCA-job 4-MeOPhN2+~BF4-_B3LYPG-6-31G_dp-NX-Scan-d89-09-n800
 OpenBabel11261920503D

 22 21  0  0  0  0  0  0  0  0999 V2000
   -1.3062   -1.5529    0.4151 C   0  0  0  0  0  0  0  0  0  0  0  0
   -1.4983   -2.5438    1.3067 N   0  0  0  0  0  0  0  0  0  0  0  0
   -1.6515   -3.3597    2.0655 N   0  0  0  0  0  0  0  0  0  0  0  0
   -1.6715   -1.7652   -0.9466 C   0  0  0  0  0  0  0  0  0  0  0  0
   -1.5381   -0.7170   -1.8162 C   0  0  0  0  0  0  0  0  0  0  0  0
   -1.0563    0.5439   -1.3514 C   0  0  0  0  0  0  0  0  0  0  0  0
   -1.0656    1.5234   -2.2388 O   0  0  0  0  0  0  0  0  0  0  0  0
   -0.7501    2.8735   -1.7992 C   0  0  0  0  0  0  0  0  0  0  0  0
   -0.6261    0.7054   -0.0183 C   0  0  0  0  0  0  0  0  0  0  0  0
   -0.7818   -0.3202    0.8818 C   0  0  0  0  0  0  0  0  0  0  0  0
   -2.0591   -2.7253   -1.2677 H   0  0  0  0  0  0  0  0  0  0  0  0
   -1.8276   -0.8089   -2.8566 H   0  0  0  0  0  0  0  0  0  0  0  0
   -1.3070    3.1167   -0.8900 H   0  0  0  0  0  0  0  0  0  0  0  0
   -1.0433    3.5112   -2.6317 H   0  0  0  0  0  0  0  0  0  0  0  0
    0.3256    2.9596   -1.6220 H   0  0  0  0  0  0  0  0  0  0  0  0
   -0.2550    1.6446    0.3752 H   0  0  0  0  0  0  0  0  0  0  0  0
   -0.5776   -0.1394    1.9307 H   0  0  0  0  0  0  0  0  0  0  0  0
   -1.4759    2.6365    2.3465 B   0  0  0  0  0  0  0  0  0  0  0  0
   -0.0772    2.5508    2.0704 F   0  0  0  0  0  0  0  0  0  0  0  0
   -2.1314    2.9087    1.1124 F   0  0  0  0  0  0  0  0  0  0  0  0
   -1.8953    1.3615    2.8062 F   0  0  0  0  0  0  0  0  0  0  0  0
   -1.7344    3.6165    3.2747 F   0  0  0  0  0  0  0  0  0  0  0  0
  1 10  1  0  0  0  0
  1  2  1  0  0  0  0
  2  3  1  0  0  0  0
  4  1  2  0  0  0  0
  5  6  2  0  0  0  0
  5  4  1  0  0  0  0
  6  9  1  0  0  0  0
  7  8  1  0  0  0  0
  7  6  1  0  0  0  0
  8 15  1  0  0  0  0
  8 13  1  0  0  0  0
  9 16  1  0  0  0  0
  9 10  2  0  0  0  0
 10 17  1  0  0  0  0
 11  4  1  0  0  0  0
 12  5  1  0  0  0  0
 14  8  1  0  0  0  0
 18 21  1  0  0  0  0
 18 22  1  0  0  0  0
 19 18  1  0  0  0  0
 20 18  1  0  0  0  0
M  RAD  2   2   2   3   3
M  END
