Coordinates from ORCA-job 4-MeOPhN2+~BF4-_B3LYPG-6-31G_dp-NX-Scan-d89-09-n800
 OpenBabel11261920503D

 22 21  0  0  0  0  0  0  0  0999 V2000
   -1.2964   -0.6925    0.5232 C   0  0  0  0  0  0  0  0  0  0  0  0
   -1.4782   -1.5216    1.6403 N   0  0  0  0  0  0  0  0  0  0  0  0
   -1.2694   -1.3948    2.8187 N   0  0  0  0  0  0  0  0  0  0  0  0
   -1.6502   -1.3046   -0.6974 C   0  0  0  0  0  0  0  0  0  0  0  0
   -1.5362   -0.6220   -1.8927 C   0  0  0  0  0  0  0  0  0  0  0  0
   -1.0670    0.7043   -1.8964 C   0  0  0  0  0  0  0  0  0  0  0  0
   -0.9918    1.2950   -3.1104 O   0  0  0  0  0  0  0  0  0  0  0  0
   -0.5350    2.6421   -3.1947 C   0  0  0  0  0  0  0  0  0  0  0  0
   -0.7163    1.3245   -0.6853 C   0  0  0  0  0  0  0  0  0  0  0  0
   -0.8264    0.6360    0.5178 C   0  0  0  0  0  0  0  0  0  0  0  0
   -2.0147   -2.3255   -0.6740 H   0  0  0  0  0  0  0  0  0  0  0  0
   -1.8047   -1.0817   -2.8371 H   0  0  0  0  0  0  0  0  0  0  0  0
   -1.1909    3.3221   -2.6390 H   0  0  0  0  0  0  0  0  0  0  0  0
   -0.5625    2.8986   -4.2540 H   0  0  0  0  0  0  0  0  0  0  0  0
    0.4918    2.7401   -2.8238 H   0  0  0  0  0  0  0  0  0  0  0  0
   -0.3572    2.3456   -0.6682 H   0  0  0  0  0  0  0  0  0  0  0  0
   -0.5596    1.1303    1.4382 H   0  0  0  0  0  0  0  0  0  0  0  0
   -1.9557    1.4588    4.0838 B   0  0  0  0  0  0  0  0  0  0  0  0
   -0.6820   -0.1049    3.1721 F   0  0  0  0  0  0  0  0  0  0  0  0
   -1.2190    2.4109    3.5181 F   0  0  0  0  0  0  0  0  0  0  0  0
   -3.0521    1.0412    3.4679 F   0  0  0  0  0  0  0  0  0  0  0  0
   -1.7303    1.1178    5.3395 F   0  0  0  0  0  0  0  0  0  0  0  0
  1  2  1  0  0  0  0
  2  3  1  0  0  0  0
  3 19  1  0  0  0  0
  4 11  1  0  0  0  0
  4  1  2  0  0  0  0
  5  4  1  0  0  0  0
  6  5  2  0  0  0  0
  6  9  1  0  0  0  0
  7  6  1  0  0  0  0
  8  7  1  0  0  0  0
  8 15  1  0  0  0  0
  8 13  1  0  0  0  0
  9 16  1  0  0  0  0
  9 10  2  0  0  0  0
 10  1  1  0  0  0  0
 10 17  1  0  0  0  0
 12  5  1  0  0  0  0
 14  8  1  0  0  0  0
 18 22  1  0  0  0  0
 20 18  1  0  0  0  0
 21 18  1  0  0  0  0
M  RAD  2   2   2   3   2
M  END
