Coordinates from ORCA-job 4-MeOPhN2+~BF4-_B3LYPG-6-31G_dp-NX-Scan-d89-09-n800
 OpenBabel11261920503D

 22 21  0  0  0  0  0  0  0  0999 V2000
   -1.2714   -1.4913    0.4500 C   0  0  0  0  0  0  0  0  0  0  0  0
   -1.4504   -2.4608    1.3679 N   0  0  0  0  0  0  0  0  0  0  0  0
   -1.5957   -3.2621    2.1432 N   0  0  0  0  0  0  0  0  0  0  0  0
   -1.6973   -1.7225   -0.8912 C   0  0  0  0  0  0  0  0  0  0  0  0
   -1.5803   -0.6946   -1.7865 C   0  0  0  0  0  0  0  0  0  0  0  0
   -1.0603    0.5670   -1.3667 C   0  0  0  0  0  0  0  0  0  0  0  0
   -1.0885    1.5278   -2.2757 O   0  0  0  0  0  0  0  0  0  0  0  0
   -0.7361    2.8801   -1.8787 C   0  0  0  0  0  0  0  0  0  0  0  0
   -0.5756    0.7459   -0.0562 C   0  0  0  0  0  0  0  0  0  0  0  0
   -0.7090   -0.2601    0.8703 C   0  0  0  0  0  0  0  0  0  0  0  0
   -2.1159   -2.6809   -1.1764 H   0  0  0  0  0  0  0  0  0  0  0  0
   -1.9130   -0.8013   -2.8124 H   0  0  0  0  0  0  0  0  0  0  0  0
   -1.2562    3.1530   -0.9567 H   0  0  0  0  0  0  0  0  0  0  0  0
   -1.0486    3.5054   -2.7138 H   0  0  0  0  0  0  0  0  0  0  0  0
    0.3469    2.9529   -1.7427 H   0  0  0  0  0  0  0  0  0  0  0  0
   -0.1963    1.6898    0.3090 H   0  0  0  0  0  0  0  0  0  0  0  0
   -0.4408   -0.0652    1.9006 H   0  0  0  0  0  0  0  0  0  0  0  0
   -1.5380    2.5074    2.3770 B   0  0  0  0  0  0  0  0  0  0  0  0
   -0.1331    2.2511    2.2958 F   0  0  0  0  0  0  0  0  0  0  0  0
   -1.9543    2.9965    1.1058 F   0  0  0  0  0  0  0  0  0  0  0  0
   -2.1768    1.2655    2.6127 F   0  0  0  0  0  0  0  0  0  0  0  0
   -1.8132    3.4159    3.3712 F   0  0  0  0  0  0  0  0  0  0  0  0
  1 10  1  0  0  0  0
  1  2  1  0  0  0  0
  2  3  1  0  0  0  0
  4  1  2  0  0  0  0
  5  6  2  0  0  0  0
  5  4  1  0  0  0  0
  6  9  1  0  0  0  0
  7  8  1  0  0  0  0
  7  6  1  0  0  0  0
  8 15  1  0  0  0  0
  8 13  1  0  0  0  0
  9 16  1  0  0  0  0
  9 10  2  0  0  0  0
 10 17  1  0  0  0  0
 11  4  1  0  0  0  0
 12  5  1  0  0  0  0
 14  8  1  0  0  0  0
 18 21  1  0  0  0  0
 18 22  1  0  0  0  0
 19 18  1  0  0  0  0
 20 18  1  0  0  0  0
M  RAD  2   2   2   3   3
M  END
