Coordinates from ORCA-job 4-MeOPhN2+~BF4-_B3LYPG-6-31G_dp-NX-Scan-d89-09-n800
 OpenBabel11261920503D

 22 21  0  0  0  0  0  0  0  0999 V2000
   -1.4732   -0.7169    0.3973 C   0  0  0  0  0  0  0  0  0  0  0  0
   -1.8018   -1.5807    1.4801 N   0  0  0  0  0  0  0  0  0  0  0  0
   -1.5613   -1.3288    2.6816 N   0  0  0  0  0  0  0  0  0  0  0  0
   -1.5514   -1.3664   -0.8526 C   0  0  0  0  0  0  0  0  0  0  0  0
   -1.2920   -0.6979   -2.0348 C   0  0  0  0  0  0  0  0  0  0  0  0
   -0.9690    0.6690   -2.0073 C   0  0  0  0  0  0  0  0  0  0  0  0
   -0.7384    1.2464   -3.2148 O   0  0  0  0  0  0  0  0  0  0  0  0
   -0.4336    2.6339   -3.2590 C   0  0  0  0  0  0  0  0  0  0  0  0
   -0.9121    1.3400   -0.7780 C   0  0  0  0  0  0  0  0  0  0  0  0
   -1.1535    0.6555    0.4130 C   0  0  0  0  0  0  0  0  0  0  0  0
   -1.8224   -2.4167   -0.8585 H   0  0  0  0  0  0  0  0  0  0  0  0
   -1.3437   -1.2016   -2.9942 H   0  0  0  0  0  0  0  0  0  0  0  0
   -1.2512    3.2390   -2.8476 H   0  0  0  0  0  0  0  0  0  0  0  0
   -0.3011    2.8779   -4.3136 H   0  0  0  0  0  0  0  0  0  0  0  0
    0.4928    2.8612   -2.7170 H   0  0  0  0  0  0  0  0  0  0  0  0
   -0.6752    2.3959   -0.7321 H   0  0  0  0  0  0  0  0  0  0  0  0
   -1.1104    1.2182    1.3343 H   0  0  0  0  0  0  0  0  0  0  0  0
   -1.7693    1.6210    4.6340 B   0  0  0  0  0  0  0  0  0  0  0  0
   -1.0277   -0.3250    2.9140 F   0  0  0  0  0  0  0  0  0  0  0  0
   -1.3759    2.3844    3.6263 F   0  0  0  0  0  0  0  0  0  0  0  0
   -2.9950    1.1413    4.6511 F   0  0  0  0  0  0  0  0  0  0  0  0
   -0.9386    1.3699    5.6244 F   0  0  0  0  0  0  0  0  0  0  0  0
  1 10  1  0  0  0  0
  1  2  1  0  0  0  0
  2  3  2  0  0  0  0
  3 19  1  0  0  0  0
  4  1  2  0  0  0  0
  5  6  2  0  0  0  0
  5  4  1  0  0  0  0
  6  9  1  0  0  0  0
  7  6  1  0  0  0  0
  8  7  1  0  0  0  0
  8 13  1  0  0  0  0
  8 15  1  0  0  0  0
  9 16  1  0  0  0  0
  9 10  2  0  0  0  0
 10 17  1  0  0  0  0
 11  4  1  0  0  0  0
 12  5  1  0  0  0  0
 14  8  1  0  0  0  0
 18 21  1  0  0  0  0
 18 22  1  0  0  0  0
 20 18  1  0  0  0  0
M  END
