Coordinates from ORCA-job 4-MeOPhN2+~BF4-_B3LYPG-6-31G_dp-NX-Scan-d89-09-n800
 OpenBabel11261920503D

 22 21  0  0  0  0  0  0  0  0999 V2000
   -1.2459   -0.8032    0.5767 C   0  0  0  0  0  0  0  0  0  0  0  0
   -1.3326   -1.5699    1.7020 N   0  0  0  0  0  0  0  0  0  0  0  0
   -1.4006   -2.2529    2.5818 N   0  0  0  0  0  0  0  0  0  0  0  0
   -1.7896   -1.3247   -0.6229 C   0  0  0  0  0  0  0  0  0  0  0  0
   -1.7097   -0.5502   -1.7535 C   0  0  0  0  0  0  0  0  0  0  0  0
   -1.1055    0.7332   -1.6988 C   0  0  0  0  0  0  0  0  0  0  0  0
   -1.1018    1.4021   -2.8568 O   0  0  0  0  0  0  0  0  0  0  0  0
   -0.5595    2.7289   -2.9027 C   0  0  0  0  0  0  0  0  0  0  0  0
   -0.5658    1.2213   -0.4945 C   0  0  0  0  0  0  0  0  0  0  0  0
   -0.6326    0.4613    0.6591 C   0  0  0  0  0  0  0  0  0  0  0  0
   -2.2607   -2.3008   -0.6382 H   0  0  0  0  0  0  0  0  0  0  0  0
   -2.1139   -0.8909   -2.6994 H   0  0  0  0  0  0  0  0  0  0  0  0
   -1.1032    3.3954   -2.2265 H   0  0  0  0  0  0  0  0  0  0  0  0
   -0.6914    3.0600   -3.9321 H   0  0  0  0  0  0  0  0  0  0  0  0
    0.5055    2.7247   -2.6497 H   0  0  0  0  0  0  0  0  0  0  0  0
   -0.1219    2.2058   -0.4349 H   0  0  0  0  0  0  0  0  0  0  0  0
   -0.2487    0.8103    1.6168 H   0  0  0  0  0  0  0  0  0  0  0  0
   -1.7238    1.4201    3.4105 B   0  0  0  0  0  0  0  0  0  0  0  0
   -0.3347    1.0652    3.4572 F   0  0  0  0  0  0  0  0  0  0  0  0
   -1.8890    2.3396    2.3610 F   0  0  0  0  0  0  0  0  0  0  0  0
   -2.4343    0.2274    3.0723 F   0  0  0  0  0  0  0  0  0  0  0  0
   -2.1443    1.9170    4.6191 F   0  0  0  0  0  0  0  0  0  0  0  0
  1 10  1  0  0  0  0
  1  2  1  0  0  0  0
  2  3  1  0  0  0  0
  4  1  2  0  0  0  0
  5  6  2  0  0  0  0
  5  4  1  0  0  0  0
  6  9  1  0  0  0  0
  7  6  1  0  0  0  0
  8  7  1  0  0  0  0
  8 15  1  0  0  0  0
  8 13  1  0  0  0  0
  9 16  1  0  0  0  0
  9 10  2  0  0  0  0
 10 17  1  0  0  0  0
 11  4  1  0  0  0  0
 12  5  1  0  0  0  0
 14  8  1  0  0  0  0
 18 19  1  0  0  0  0
 18 22  1  0  0  0  0
 20 18  1  0  0  0  0
 21 18  1  0  0  0  0
M  RAD  2   2   2   3   3
M  END
