Coordinates from ORCA-job 4-MeOPhN2+~BF4-_B3LYPG-6-31G_dp-NX-Scan-d89-09-n800
 OpenBabel11261920503D

 22 21  0  0  0  0  0  0  0  0999 V2000
   -1.4022   -0.7031    0.4444 C   0  0  0  0  0  0  0  0  0  0  0  0
   -1.6808   -1.5576    1.5373 N   0  0  0  0  0  0  0  0  0  0  0  0
   -1.4497   -1.3555    2.7326 N   0  0  0  0  0  0  0  0  0  0  0  0
   -1.5894   -1.3412   -0.8005 C   0  0  0  0  0  0  0  0  0  0  0  0
   -1.3843   -0.6724   -1.9924 C   0  0  0  0  0  0  0  0  0  0  0  0
   -1.0039    0.6804   -1.9758 C   0  0  0  0  0  0  0  0  0  0  0  0
   -0.8333    1.2595   -3.1896 O   0  0  0  0  0  0  0  0  0  0  0  0
   -0.4689    2.6337   -3.2472 C   0  0  0  0  0  0  0  0  0  0  0  0
   -0.8341    1.3376   -0.7476 C   0  0  0  0  0  0  0  0  0  0  0  0
   -1.0241    0.6553    0.4518 C   0  0  0  0  0  0  0  0  0  0  0  0
   -1.8991   -2.3805   -0.7947 H   0  0  0  0  0  0  0  0  0  0  0  0
   -1.5206   -1.1634   -2.9497 H   0  0  0  0  0  0  0  0  0  0  0  0
   -1.2272    3.2702   -2.7753 H   0  0  0  0  0  0  0  0  0  0  0  0
   -0.4006    2.8799   -4.3073 H   0  0  0  0  0  0  0  0  0  0  0  0
    0.5029    2.8123   -2.7711 H   0  0  0  0  0  0  0  0  0  0  0  0
   -0.5504    2.3820   -0.7121 H   0  0  0  0  0  0  0  0  0  0  0  0
   -0.8962    1.1989    1.3751 H   0  0  0  0  0  0  0  0  0  0  0  0
   -1.8604    1.5634    4.4611 B   0  0  0  0  0  0  0  0  0  0  0  0
   -0.8766   -0.2419    2.9992 F   0  0  0  0  0  0  0  0  0  0  0  0
   -1.3168    2.4103    3.5990 F   0  0  0  0  0  0  0  0  0  0  0  0
   -3.0798    1.1104    4.2499 F   0  0  0  0  0  0  0  0  0  0  0  0
   -1.2084    1.2414    5.5595 F   0  0  0  0  0  0  0  0  0  0  0  0
  1 10  1  0  0  0  0
  1  2  1  0  0  0  0
  2  3  2  0  0  0  0
  3 19  1  0  0  0  0
  4 11  1  0  0  0  0
  4  1  2  0  0  0  0
  5  6  2  0  0  0  0
  5  4  1  0  0  0  0
  6  9  1  0  0  0  0
  7  6  1  0  0  0  0
  8  7  1  0  0  0  0
  8 13  1  0  0  0  0
  8 15  1  0  0  0  0
  9 16  1  0  0  0  0
  9 10  2  0  0  0  0
 10 17  1  0  0  0  0
 12  5  1  0  0  0  0
 14  8  1  0  0  0  0
 18 22  1  0  0  0  0
 20 18  1  0  0  0  0
 21 18  1  0  0  0  0
M  END
