Coordinates from ORCA-job 4-MeOPhN2+~BF4-_B3LYPG-6-31G_dp-NX-Scan-d89-09-n800
 OpenBabel11261920503D

 22 21  0  0  0  0  0  0  0  0999 V2000
   -1.3372   -1.6123    0.3848 C   0  0  0  0  0  0  0  0  0  0  0  0
   -1.5435   -2.6169    1.2562 N   0  0  0  0  0  0  0  0  0  0  0  0
   -1.7025   -3.4331    2.0137 N   0  0  0  0  0  0  0  0  0  0  0  0
   -1.6601   -1.7974   -0.9910 C   0  0  0  0  0  0  0  0  0  0  0  0
   -1.5096   -0.7281   -1.8323 C   0  0  0  0  0  0  0  0  0  0  0  0
   -1.0517    0.5256   -1.3256 C   0  0  0  0  0  0  0  0  0  0  0  0
   -1.0416    1.5254   -2.1883 O   0  0  0  0  0  0  0  0  0  0  0  0
   -0.7596    2.8689   -1.7007 C   0  0  0  0  0  0  0  0  0  0  0  0
   -0.6627    0.6618    0.0246 C   0  0  0  0  0  0  0  0  0  0  0  0
   -0.8372   -0.3854    0.8942 C   0  0  0  0  0  0  0  0  0  0  0  0
   -2.0302   -2.7529   -1.3451 H   0  0  0  0  0  0  0  0  0  0  0  0
   -1.7673   -0.7987   -2.8828 H   0  0  0  0  0  0  0  0  0  0  0  0
   -1.3666    3.0826   -0.8168 H   0  0  0  0  0  0  0  0  0  0  0  0
   -1.0130    3.5226   -2.5337 H   0  0  0  0  0  0  0  0  0  0  0  0
    0.3029    2.9582   -1.4603 H   0  0  0  0  0  0  0  0  0  0  0  0
   -0.2932    1.5960    0.4390 H   0  0  0  0  0  0  0  0  0  0  0  0
   -0.6637   -0.2253    1.9529 H   0  0  0  0  0  0  0  0  0  0  0  0
   -1.4276    2.7481    2.2771 B   0  0  0  0  0  0  0  0  0  0  0  0
   -0.0868    2.8455    1.7908 F   0  0  0  0  0  0  0  0  0  0  0  0
   -2.2807    2.8039    1.1413 F   0  0  0  0  0  0  0  0  0  0  0  0
   -1.5683    1.4720    2.8841 F   0  0  0  0  0  0  0  0  0  0  0  0
   -1.7039    3.7592    3.1644 F   0  0  0  0  0  0  0  0  0  0  0  0
  1 10  1  0  0  0  0
  1  2  1  0  0  0  0
  2  3  1  0  0  0  0
  4  1  2  0  0  0  0
  5  6  2  0  0  0  0
  5  4  1  0  0  0  0
  6  9  1  0  0  0  0
  7  8  1  0  0  0  0
  7  6  1  0  0  0  0
  8 15  1  0  0  0  0
  8 13  1  0  0  0  0
  9 16  1  0  0  0  0
  9 10  2  0  0  0  0
 10 17  1  0  0  0  0
 11  4  1  0  0  0  0
 12  5  1  0  0  0  0
 14  8  1  0  0  0  0
 18 21  1  0  0  0  0
 18 22  1  0  0  0  0
 19 18  1  0  0  0  0
 20 18  1  0  0  0  0
M  RAD  2   2   2   3   3
M  END
