Coordinates from ORCA-job 4-MeOPhN2+~BF4-_B3LYPG-6-31G_dp-NX-Scan-d89-09-n800
 OpenBabel11261920503D

 22 21  0  0  0  0  0  0  0  0999 V2000
   -1.2585   -1.4781    0.4557 C   0  0  0  0  0  0  0  0  0  0  0  0
   -1.4214   -2.4403    1.3848 N   0  0  0  0  0  0  0  0  0  0  0  0
   -1.5509   -3.2316    2.1730 N   0  0  0  0  0  0  0  0  0  0  0  0
   -1.6798   -1.7282   -0.8834 C   0  0  0  0  0  0  0  0  0  0  0  0
   -1.5759   -0.7067   -1.7875 C   0  0  0  0  0  0  0  0  0  0  0  0
   -1.0746    0.5663   -1.3788 C   0  0  0  0  0  0  0  0  0  0  0  0
   -1.1118    1.5159   -2.3003 O   0  0  0  0  0  0  0  0  0  0  0  0
   -0.7615    2.8737   -1.9240 C   0  0  0  0  0  0  0  0  0  0  0  0
   -0.6001    0.7660   -0.0681 C   0  0  0  0  0  0  0  0  0  0  0  0
   -0.7188   -0.2346    0.8672 C   0  0  0  0  0  0  0  0  0  0  0  0
   -2.0839   -2.6951   -1.1608 H   0  0  0  0  0  0  0  0  0  0  0  0
   -1.9038   -0.8277   -2.8133 H   0  0  0  0  0  0  0  0  0  0  0  0
   -1.2714    3.1600   -1.0009 H   0  0  0  0  0  0  0  0  0  0  0  0
   -1.0827    3.4876   -2.7641 H   0  0  0  0  0  0  0  0  0  0  0  0
    0.3223    2.9516   -1.7972 H   0  0  0  0  0  0  0  0  0  0  0  0
   -0.2477    1.7242    0.2860 H   0  0  0  0  0  0  0  0  0  0  0  0
   -0.4426   -0.0205    1.8927 H   0  0  0  0  0  0  0  0  0  0  0  0
   -1.5251    2.4857    2.4188 B   0  0  0  0  0  0  0  0  0  0  0  0
   -0.1716    2.0268    2.4936 F   0  0  0  0  0  0  0  0  0  0  0  0
   -1.6739    3.1523    1.1664 F   0  0  0  0  0  0  0  0  0  0  0  0
   -2.3545    1.3408    2.4241 F   0  0  0  0  0  0  0  0  0  0  0  0
   -1.8157    3.3314    3.4625 F   0  0  0  0  0  0  0  0  0  0  0  0
  1 10  1  0  0  0  0
  1  2  1  0  0  0  0
  2  3  1  0  0  0  0
  4  1  2  0  0  0  0
  5  6  2  0  0  0  0
  5  4  1  0  0  0  0
  6  9  1  0  0  0  0
  7  8  1  0  0  0  0
  7  6  1  0  0  0  0
  8 15  1  0  0  0  0
  8 13  1  0  0  0  0
  9 16  1  0  0  0  0
  9 10  2  0  0  0  0
 10 17  1  0  0  0  0
 11  4  1  0  0  0  0
 12  5  1  0  0  0  0
 14  8  1  0  0  0  0
 18 21  1  0  0  0  0
 18 19  1  0  0  0  0
 18 22  1  0  0  0  0
 20 18  1  0  0  0  0
M  RAD  2   2   2   3   3
M  END
