Coordinates from ORCA-job 4-MeOPhN2+~BF4-_B3LYPG-6-31G_dp-NX-Scan-d89-09-n800
 OpenBabel11261920503D

 22 21  0  0  0  0  0  0  0  0999 V2000
   -1.2709   -0.6544    0.6058 C   0  0  0  0  0  0  0  0  0  0  0  0
   -1.3925   -1.3722    1.7648 N   0  0  0  0  0  0  0  0  0  0  0  0
   -1.4971   -2.0392    2.6509 N   0  0  0  0  0  0  0  0  0  0  0  0
   -1.7151   -1.2777   -0.5846 C   0  0  0  0  0  0  0  0  0  0  0  0
   -1.6139   -0.5762   -1.7620 C   0  0  0  0  0  0  0  0  0  0  0  0
   -1.0824    0.7374   -1.7640 C   0  0  0  0  0  0  0  0  0  0  0  0
   -1.0461    1.3316   -2.9625 O   0  0  0  0  0  0  0  0  0  0  0  0
   -0.5636    2.6773   -3.0679 C   0  0  0  0  0  0  0  0  0  0  0  0
   -0.6394    1.3298   -0.5659 C   0  0  0  0  0  0  0  0  0  0  0  0
   -0.7305    0.6440    0.6323 C   0  0  0  0  0  0  0  0  0  0  0  0
   -2.1312   -2.2783   -0.5601 H   0  0  0  0  0  0  0  0  0  0  0  0
   -1.9452   -1.0025   -2.7015 H   0  0  0  0  0  0  0  0  0  0  0  0
   -1.1750    3.3596   -2.4694 H   0  0  0  0  0  0  0  0  0  0  0  0
   -0.6508    2.9349   -4.1228 H   0  0  0  0  0  0  0  0  0  0  0  0
    0.4841    2.7433   -2.7577 H   0  0  0  0  0  0  0  0  0  0  0  0
   -0.2414    2.3356   -0.5518 H   0  0  0  0  0  0  0  0  0  0  0  0
   -0.4235    1.0852    1.5734 H   0  0  0  0  0  0  0  0  0  0  0  0
   -1.6930    1.2316    3.5918 B   0  0  0  0  0  0  0  0  0  0  0  0
   -0.5140    0.4087    3.5358 F   0  0  0  0  0  0  0  0  0  0  0  0
   -1.4050    2.4024    2.8650 F   0  0  0  0  0  0  0  0  0  0  0  0
   -2.7085    0.5078    2.9057 F   0  0  0  0  0  0  0  0  0  0  0  0
   -2.0488    1.4911    4.8914 F   0  0  0  0  0  0  0  0  0  0  0  0
  1 10  1  0  0  0  0
  1  2  1  0  0  0  0
  2  3  1  0  0  0  0
  4 11  1  0  0  0  0
  4  1  2  0  0  0  0
  5  4  1  0  0  0  0
  6  5  2  0  0  0  0
  6  9  1  0  0  0  0
  7  6  1  0  0  0  0
  8  7  1  0  0  0  0
  8 15  1  0  0  0  0
  8 13  1  0  0  0  0
  9 16  1  0  0  0  0
  9 10  2  0  0  0  0
 10 17  1  0  0  0  0
 12  5  1  0  0  0  0
 14  8  1  0  0  0  0
 18 22  1  0  0  0  0
 19 18  1  0  0  0  0
 20 18  1  0  0  0  0
 21 18  1  0  0  0  0
M  RAD  2   2   2   3   3
M  END
