Coordinates from ORCA-job 4-MeOPhN2+~BF4-_B3LYPG-6-31G_dp-NX-Scan-d89-09-n800
 OpenBabel11261920503D

 22 21  0  0  0  0  0  0  0  0999 V2000
   -1.3085   -1.5600    0.4125 C   0  0  0  0  0  0  0  0  0  0  0  0
   -1.4997   -2.5539    1.3008 N   0  0  0  0  0  0  0  0  0  0  0  0
   -1.6520   -3.3724    2.0571 N   0  0  0  0  0  0  0  0  0  0  0  0
   -1.6701   -1.7694   -0.9507 C   0  0  0  0  0  0  0  0  0  0  0  0
   -1.5365   -0.7187   -1.8171 C   0  0  0  0  0  0  0  0  0  0  0  0
   -1.0575    0.5418   -1.3481 C   0  0  0  0  0  0  0  0  0  0  0  0
   -1.0654    1.5230   -2.2334 O   0  0  0  0  0  0  0  0  0  0  0  0
   -0.7507    2.8726   -1.7910 C   0  0  0  0  0  0  0  0  0  0  0  0
   -0.6313    0.7010   -0.0132 C   0  0  0  0  0  0  0  0  0  0  0  0
   -0.7878   -0.3273    0.8837 C   0  0  0  0  0  0  0  0  0  0  0  0
   -2.0550   -2.7295   -1.2752 H   0  0  0  0  0  0  0  0  0  0  0  0
   -1.8231   -0.8084   -2.8585 H   0  0  0  0  0  0  0  0  0  0  0  0
   -1.3088    3.1143   -0.8822 H   0  0  0  0  0  0  0  0  0  0  0  0
   -1.0428    3.5114   -2.6231 H   0  0  0  0  0  0  0  0  0  0  0  0
    0.3247    2.9584   -1.6123 H   0  0  0  0  0  0  0  0  0  0  0  0
   -0.2609    1.6398    0.3826 H   0  0  0  0  0  0  0  0  0  0  0  0
   -0.5870   -0.1487    1.9337 H   0  0  0  0  0  0  0  0  0  0  0  0
   -1.4712    2.6507    2.3407 B   0  0  0  0  0  0  0  0  0  0  0  0
   -0.0747    2.5787    2.0508 F   0  0  0  0  0  0  0  0  0  0  0  0
   -2.1410    2.9129    1.1123 F   0  0  0  0  0  0  0  0  0  0  0  0
   -1.8738    1.3729    2.8080 F   0  0  0  0  0  0  0  0  0  0  0  0
   -1.7307    3.6305    3.2690 F   0  0  0  0  0  0  0  0  0  0  0  0
  1 10  1  0  0  0  0
  1  2  1  0  0  0  0
  2  3  1  0  0  0  0
  4  1  2  0  0  0  0
  5  6  2  0  0  0  0
  5  4  1  0  0  0  0
  6  9  1  0  0  0  0
  7  8  1  0  0  0  0
  7  6  1  0  0  0  0
  8 15  1  0  0  0  0
  8 13  1  0  0  0  0
  9 16  1  0  0  0  0
  9 10  2  0  0  0  0
 10 17  1  0  0  0  0
 11  4  1  0  0  0  0
 12  5  1  0  0  0  0
 14  8  1  0  0  0  0
 18 21  1  0  0  0  0
 18 22  1  0  0  0  0
 19 18  1  0  0  0  0
 20 18  1  0  0  0  0
M  RAD  2   2   2   3   3
M  END
