Coordinates from ORCA-job PhN2+~TsO-_B3LYPG-6-31G_dp-NX-Scan-d89-09-n800
 OpenBabel11261920463D

 31 32  0  0  1  0  0  0  0  0999 V2000
   -5.4310   -1.3994   -0.6540 C   0  0  2  0  0  0  0  0  0  0  0  0
   -6.7240   -1.1891   -0.6818 N   0  0  0  0  0  0  0  0  0  0  0  0
   -7.8595   -1.1041   -0.6997 N   0  0  0  0  0  0  0  0  0  0  0  0
   -4.8389   -1.9985   -1.8589 C   0  0  0  0  0  0  0  0  0  0  0  0
   -4.1762   -3.1548   -1.6962 C   0  0  0  0  0  0  0  0  0  0  0  0
   -4.3257   -3.8266   -0.3620 C   0  0  1  0  0  0  0  0  0  0  0  0
   -4.1695   -2.8516    0.7717 C   0  0  0  0  0  0  0  0  0  0  0  0
   -4.8326   -1.6901    0.6571 C   0  0  0  0  0  0  0  0  0  0  0  0
   -4.9491   -1.5019   -2.8186 H   0  0  0  0  0  0  0  0  0  0  0  0
   -3.6395   -3.6463   -2.5005 H   0  0  0  0  0  0  0  0  0  0  0  0
   -3.7191   -4.7243   -0.2500 H   0  0  0  0  0  0  0  0  0  0  0  0
   -3.6314   -3.1386    1.6687 H   0  0  0  0  0  0  0  0  0  0  0  0
   -4.9453   -0.9813    1.4721 H   0  0  0  0  0  0  0  0  0  0  0  0
   -8.8069   -5.4872   -0.2404 C   0  0  0  0  0  0  0  0  0  0  0  0
   -9.8362   -6.1112   -0.9380 C   0  0  0  0  0  0  0  0  0  0  0  0
   -9.6549   -7.3731   -1.5273 C   0  0  0  0  0  0  0  0  0  0  0  0
   -8.4063   -7.9957   -1.4035 C   0  0  0  0  0  0  0  0  0  0  0  0
   -7.3594   -7.3835   -0.7144 C   0  0  0  0  0  0  0  0  0  0  0  0
   -7.5714   -6.1316   -0.1403 C   0  0  0  0  0  0  0  0  0  0  0  0
   -8.9546   -4.5178    0.2226 H   0  0  0  0  0  0  0  0  0  0  0  0
  -10.7989   -5.6136   -1.0240 H   0  0  0  0  0  0  0  0  0  0  0  0
   -8.2503   -8.9743   -1.8485 H   0  0  0  0  0  0  0  0  0  0  0  0
   -6.3944   -7.8678   -0.6110 H   0  0  0  0  0  0  0  0  0  0  0  0
   -6.2452   -5.3465    0.7580 S   0  0  0  0  0  0  0  0  0  0  0  0
   -6.8090   -4.6207    1.8955 O   0  0  0  0  0  0  0  0  0  0  0  0
   -5.7799   -4.2738   -0.3915 O   0  0  0  0  0  0  0  0  0  0  0  0
   -5.1558   -6.3064    0.9673 O   0  0  0  0  0  0  0  0  0  0  0  0
  -10.7915   -8.0446   -2.2595 C   0  0  0  0  0  0  0  0  0  0  0  0
  -11.5721   -8.3677   -1.5604 H   0  0  0  0  0  0  0  0  0  0  0  0
  -11.2628   -7.3616   -2.9743 H   0  0  0  0  0  0  0  0  0  0  0  0
  -10.4506   -8.9269   -2.8070 H   0  0  0  0  0  0  0  0  0  0  0  0
  1  2  1  1  0  0  0
  1  8  1  0  0  0  0
  3  2  1  0  0  0  0
  4  5  2  0  0  0  0
  4  1  1  0  0  0  0
  5  6  1  0  0  0  0
  6 11  1  1  0  0  0
  6  7  1  0  0  0  0
  7 12  1  0  0  0  0
  8  7  2  0  0  0  0
  8 13  1  0  0  0  0
  9  4  1  0  0  0  0
 10  5  1  0  0  0  0
 14 19  1  0  0  0  0
 14 20  1  0  0  0  0
 15 14  2  0  0  0  0
 16 17  2  0  0  0  0
 16 15  1  0  0  0  0
 17 18  1  0  0  0  0
 18 23  1  0  0  0  0
 18 19  2  0  0  0  0
 19 24  1  0  0  0  0
 21 15  1  0  0  0  0
 22 17  1  0  0  0  0
 24 27  2  0  0  0  0
 24 25  2  0  0  0  0
 26  6  1  0  0  0  0
 26 24  1  0  0  0  0
 28 29  1  0  0  0  0
 28 16  1  0  0  0  0
 30 28  1  0  0  0  0
 31 28  1  0  0  0  0
M  RAD  3   1   2   2   2   3   3
M  END
