Coordinates from ORCA-job PhN2+~TsO-_B3LYPG-6-31G_dp-NX-Scan-d89-09-n800
 OpenBabel11261920463D

 31 32  0  0  1  0  0  0  0  0999 V2000
   -4.7997   -0.7583   -0.8972 C   0  0  0  0  0  0  0  0  0  0  0  0
   -4.6889    0.5163   -1.1958 N   0  0  0  0  0  0  0  0  0  0  0  0
   -4.5870    1.6289   -1.4525 N   0  0  0  0  0  0  0  0  0  0  0  0
   -4.3889   -1.7722   -1.8499 C   0  0  0  0  0  0  0  0  0  0  0  0
   -4.4368   -3.0768   -1.5198 C   0  0  0  0  0  0  0  0  0  0  0  0
   -4.8993   -3.5660   -0.1834 C   0  0  1  0  0  0  0  0  0  0  0  0
   -5.3529   -2.4710    0.7338 C   0  0  0  0  0  0  0  0  0  0  0  0
   -5.3063   -1.1678    0.4001 C   0  0  0  0  0  0  0  0  0  0  0  0
   -4.0312   -1.4551   -2.8245 H   0  0  0  0  0  0  0  0  0  0  0  0
   -4.1215   -3.8329   -2.2310 H   0  0  0  0  0  0  0  0  0  0  0  0
   -4.1257   -4.1880    0.2859 H   0  0  0  0  0  0  0  0  0  0  0  0
   -5.7270   -2.7786    1.7042 H   0  0  0  0  0  0  0  0  0  0  0  0
   -5.6344   -0.4007    1.0946 H   0  0  0  0  0  0  0  0  0  0  0  0
   -8.8003   -6.2786    0.2949 C   0  0  0  0  0  0  0  0  0  0  0  0
   -9.9263   -6.8746   -0.2638 C   0  0  0  0  0  0  0  0  0  0  0  0
   -9.8140   -7.7893   -1.3236 C   0  0  0  0  0  0  0  0  0  0  0  0
   -8.5365   -8.0988   -1.8085 C   0  0  0  0  0  0  0  0  0  0  0  0
   -7.3957   -7.5118   -1.2631 C   0  0  0  0  0  0  0  0  0  0  0  0
   -7.5417   -6.6012   -0.2177 C   0  0  0  0  0  0  0  0  0  0  0  0
   -8.8854   -5.5837    1.1231 H   0  0  0  0  0  0  0  0  0  0  0  0
  -10.9091   -6.6310    0.1308 H   0  0  0  0  0  0  0  0  0  0  0  0
   -8.4317   -8.8120   -2.6215 H   0  0  0  0  0  0  0  0  0  0  0  0
   -6.4059   -7.7609   -1.6287 H   0  0  0  0  0  0  0  0  0  0  0  0
   -6.0915   -5.8471    0.4899 S   0  0  0  0  0  0  0  0  0  0  0  0
   -6.3648   -5.4498    1.8740 O   0  0  0  0  0  0  0  0  0  0  0  0
   -6.0512   -4.5062   -0.4482 O   0  0  0  0  0  0  0  0  0  0  0  0
   -4.9140   -6.6674    0.1940 O   0  0  0  0  0  0  0  0  0  0  0  0
  -11.0475   -8.4225   -1.9206 C   0  0  0  0  0  0  0  0  0  0  0  0
  -11.6456   -8.9257   -1.1528 H   0  0  0  0  0  0  0  0  0  0  0  0
  -11.6915   -7.6676   -2.3867 H   0  0  0  0  0  0  0  0  0  0  0  0
  -10.7894   -9.1603   -2.6847 H   0  0  0  0  0  0  0  0  0  0  0  0
  1  8  1  0  0  0  0
  2  1  1  0  0  0  0
  3  2  1  0  0  0  0
  4  5  1  0  0  0  0
  4  1  2  0  0  0  0
  5  6  1  0  0  0  0
  6 11  1  1  0  0  0
  6  7  1  0  0  0  0
  7 12  1  0  0  0  0
  8  7  2  0  0  0  0
  8 13  1  0  0  0  0
  9  4  1  0  0  0  0
 10  5  1  0  0  0  0
 14 20  1  0  0  0  0
 15 21  1  0  0  0  0
 15 14  2  0  0  0  0
 16 15  1  0  0  0  0
 17 16  2  0  0  0  0
 17 18  1  0  0  0  0
 18 19  2  0  0  0  0
 19 14  1  0  0  0  0
 19 24  1  0  0  0  0
 22 17  1  0  0  0  0
 23 18  1  0  0  0  0
 24 25  2  0  0  0  0
 26  6  1  0  0  0  0
 26 24  1  0  0  0  0
 27 24  2  0  0  0  0
 28 16  1  0  0  0  0
 28 29  1  0  0  0  0
 30 28  1  0  0  0  0
 31 28  1  0  0  0  0
M  RAD  3   2   2   3   3   5   2
M  END
