Coordinates from ORCA-job PhN2+~TsO-_B3LYPG-6-31G_dp-NX-Scan-d89-09-n800
 OpenBabel11261920463D

 31 32  0  0  1  0  0  0  0  0999 V2000
   -4.9090   -0.8302   -0.9367 C   0  0  0  0  0  0  0  0  0  0  0  0
   -4.9501    0.4272   -1.3111 N   0  0  0  0  0  0  0  0  0  0  0  0
   -4.9858    1.5243   -1.6364 N   0  0  0  0  0  0  0  0  0  0  0  0
   -4.3920   -1.8400   -1.8388 C   0  0  0  0  0  0  0  0  0  0  0  0
   -4.3337   -3.1275   -1.4504 C   0  0  0  0  0  0  0  0  0  0  0  0
   -4.8221   -3.5965   -0.1178 C   0  0  1  0  0  0  0  0  0  0  0  0
   -5.2965   -2.4975    0.7803 C   0  0  0  0  0  0  0  0  0  0  0  0
   -5.3561   -1.2111    0.3894 C   0  0  0  0  0  0  0  0  0  0  0  0
   -4.0396   -1.5315   -2.8179 H   0  0  0  0  0  0  0  0  0  0  0  0
   -3.9372   -3.8849   -2.1181 H   0  0  0  0  0  0  0  0  0  0  0  0
   -4.0692   -4.2251    0.3726 H   0  0  0  0  0  0  0  0  0  0  0  0
   -5.6235   -2.7892    1.7722 H   0  0  0  0  0  0  0  0  0  0  0  0
   -5.7212   -0.4367    1.0567 H   0  0  0  0  0  0  0  0  0  0  0  0
   -8.7660   -6.2613    0.3104 C   0  0  0  0  0  0  0  0  0  0  0  0
   -9.9023   -6.8274   -0.2584 C   0  0  0  0  0  0  0  0  0  0  0  0
   -9.8067   -7.7195   -1.3388 C   0  0  0  0  0  0  0  0  0  0  0  0
   -8.5352   -8.0373   -1.8342 C   0  0  0  0  0  0  0  0  0  0  0  0
   -7.3843   -7.4803   -1.2788 C   0  0  0  0  0  0  0  0  0  0  0  0
   -7.5136   -6.5914   -0.2127 C   0  0  0  0  0  0  0  0  0  0  0  0
   -8.8382   -5.5842    1.1543 H   0  0  0  0  0  0  0  0  0  0  0  0
  -10.8803   -6.5779    0.1444 H   0  0  0  0  0  0  0  0  0  0  0  0
   -8.4434   -8.7332   -2.6636 H   0  0  0  0  0  0  0  0  0  0  0  0
   -6.3993   -7.7363   -1.6526 H   0  0  0  0  0  0  0  0  0  0  0  0
   -6.0502   -5.8745    0.5064 S   0  0  0  0  0  0  0  0  0  0  0  0
   -6.3149   -5.4985    1.8983 O   0  0  0  0  0  0  0  0  0  0  0  0
   -5.9870   -4.5177   -0.4063 O   0  0  0  0  0  0  0  0  0  0  0  0
   -4.8873   -6.7097    0.1944 O   0  0  0  0  0  0  0  0  0  0  0  0
  -11.0512   -8.3204   -1.9463 C   0  0  0  0  0  0  0  0  0  0  0  0
  -11.6535   -8.8341   -1.1887 H   0  0  0  0  0  0  0  0  0  0  0  0
  -11.6862   -7.5453   -2.3909 H   0  0  0  0  0  0  0  0  0  0  0  0
  -10.8063   -9.0427   -2.7294 H   0  0  0  0  0  0  0  0  0  0  0  0
  1  8  1  0  0  0  0
  2  1  1  0  0  0  0
  3  2  1  0  0  0  0
  4  5  1  0  0  0  0
  4  1  2  0  0  0  0
  5  6  1  0  0  0  0
  6 11  1  1  0  0  0
  6  7  1  0  0  0  0
  7 12  1  0  0  0  0
  8  7  2  0  0  0  0
  8 13  1  0  0  0  0
  9  4  1  0  0  0  0
 10  5  1  0  0  0  0
 14 20  1  0  0  0  0
 15 21  1  0  0  0  0
 15 14  2  0  0  0  0
 16 15  1  0  0  0  0
 17 16  2  0  0  0  0
 17 18  1  0  0  0  0
 18 19  2  0  0  0  0
 19 14  1  0  0  0  0
 19 24  1  0  0  0  0
 22 17  1  0  0  0  0
 23 18  1  0  0  0  0
 24 25  2  0  0  0  0
 26  6  1  0  0  0  0
 26 24  1  0  0  0  0
 27 24  2  0  0  0  0
 28 16  1  0  0  0  0
 28 29  1  0  0  0  0
 30 28  1  0  0  0  0
 31 28  1  0  0  0  0
M  RAD  3   2   2   3   3   5   2
M  END
