Coordinates from ORCA-job PhN2+~TsO-_B3LYPG-6-31G_dp-NX-Scan-d89-09-n800
 OpenBabel11261920463D

 31 31  0  0  0  0  0  0  0  0999 V2000
   -3.6634   -0.5812    0.1181 C   0  0  0  0  0  0  0  0  0  0  0  0
   -3.3167    0.5824    0.7228 N   0  0  0  0  0  0  0  0  0  0  0  0
   -3.0511    1.5454    1.2387 N   0  0  0  0  0  0  0  0  0  0  0  0
   -2.7292   -1.1925   -0.7557 C   0  0  0  0  0  0  0  0  0  0  0  0
   -3.1166   -2.3710   -1.3651 C   0  0  0  0  0  0  0  0  0  0  0  0
   -4.3905   -2.9173   -1.1247 C   0  0  0  0  0  0  0  0  0  0  0  0
   -5.2972   -2.2964   -0.2425 C   0  0  0  0  0  0  0  0  0  0  0  0
   -4.9480   -1.1208    0.3924 C   0  0  0  0  0  0  0  0  0  0  0  0
   -1.7610   -0.7368   -0.9296 H   0  0  0  0  0  0  0  0  0  0  0  0
   -2.4317   -2.8684   -2.0440 H   0  0  0  0  0  0  0  0  0  0  0  0
   -4.7383   -3.8336   -1.6072 H   0  0  0  0  0  0  0  0  0  0  0  0
   -6.2797   -2.7632   -0.0891 H   0  0  0  0  0  0  0  0  0  0  0  0
   -5.6191   -0.6122    1.0764 H   0  0  0  0  0  0  0  0  0  0  0  0
   -9.7257   -6.2069   -0.4447 C   0  0  0  0  0  0  0  0  0  0  0  0
  -10.4559   -7.3757   -0.2374 C   0  0  0  0  0  0  0  0  0  0  0  0
   -9.9975   -8.6114   -0.7161 C   0  0  0  0  0  0  0  0  0  0  0  0
   -8.7827   -8.6424   -1.4135 C   0  0  0  0  0  0  0  0  0  0  0  0
   -8.0433   -7.4790   -1.6274 C   0  0  0  0  0  0  0  0  0  0  0  0
   -8.5166   -6.2603   -1.1410 C   0  0  0  0  0  0  0  0  0  0  0  0
  -10.0768   -5.2552   -0.0603 H   0  0  0  0  0  0  0  0  0  0  0  0
  -11.3977   -7.3295    0.3048 H   0  0  0  0  0  0  0  0  0  0  0  0
   -8.4095   -9.5908   -1.7934 H   0  0  0  0  0  0  0  0  0  0  0  0
   -7.0962   -7.5052   -2.1549 H   0  0  0  0  0  0  0  0  0  0  0  0
   -7.6094   -4.7407   -1.4736 S   0  0  0  0  0  0  0  0  0  0  0  0
   -7.8039   -3.9072   -0.2408 O   0  0  0  0  0  0  0  0  0  0  0  0
   -8.1876   -4.1355   -2.6944 O   0  0  0  0  0  0  0  0  0  0  0  0
   -6.1821   -5.1763   -1.6434 O   0  0  0  0  0  0  0  0  0  0  0  0
  -10.7762   -9.8798   -0.4564 C   0  0  0  0  0  0  0  0  0  0  0  0
  -10.4920  -10.3317    0.5031 H   0  0  0  0  0  0  0  0  0  0  0  0
  -11.8534   -9.6886   -0.4162 H   0  0  0  0  0  0  0  0  0  0  0  0
  -10.5929  -10.6287   -1.2335 H   0  0  0  0  0  0  0  0  0  0  0  0
  1  8  1  0  0  0  0
  1  2  1  0  0  0  0
  2  3  1  0  0  0  0
  4  1  2  0  0  0  0
  5  6  2  0  0  0  0
  5  4  1  0  0  0  0
  6  7  1  0  0  0  0
  7 12  1  0  0  0  0
  7  8  2  0  0  0  0
  8 13  1  0  0  0  0
  9  4  1  0  0  0  0
 10  5  1  0  0  0  0
 11  6  1  0  0  0  0
 14 15  1  0  0  0  0
 14 20  1  0  0  0  0
 15 21  1  0  0  0  0
 16 28  1  0  0  0  0
 16 15  2  0  0  0  0
 17 16  1  0  0  0  0
 18 17  2  0  0  0  0
 18 19  1  0  0  0  0
 19 14  2  0  0  0  0
 22 17  1  0  0  0  0
 23 18  1  0  0  0  0
 24 19  1  0  0  0  0
 24 25  1  0  0  0  0
 26 24  2  0  0  0  0
 27 24  2  0  0  0  0
 28 30  1  0  0  0  0
 28 29  1  0  0  0  0
 31 28  1  0  0  0  0
M  RAD  3   2   2   3   3  25   2
M  END
