Coordinates from ORCA-job PhN2+~TsO-_B3LYPG-6-31G_dp-NX-Scan-d89-09-n800
 OpenBabel11261920463D

 31 32  0  0  1  0  0  0  0  0999 V2000
   -5.4924   -1.4163   -0.6422 C   0  0  2  0  0  0  0  0  0  0  0  0
   -6.8036   -1.4311   -0.6443 N   0  0  0  0  0  0  0  0  0  0  0  0
   -7.9360   -1.5502   -0.6388 N   0  0  0  0  0  0  0  0  0  0  0  0
   -4.8589   -1.9765   -1.8544 C   0  0  0  0  0  0  0  0  0  0  0  0
   -4.1683   -3.1155   -1.6965 C   0  0  0  0  0  0  0  0  0  0  0  0
   -4.3148   -3.8005   -0.3659 C   0  0  1  0  0  0  0  0  0  0  0  0
   -4.1671   -2.8254    0.7723 C   0  0  0  0  0  0  0  0  0  0  0  0
   -4.8576   -1.6807    0.6662 C   0  0  0  0  0  0  0  0  0  0  0  0
   -4.9689   -1.4692   -2.8086 H   0  0  0  0  0  0  0  0  0  0  0  0
   -3.6010   -3.5824   -2.4948 H   0  0  0  0  0  0  0  0  0  0  0  0
   -3.6971   -4.6913   -0.2589 H   0  0  0  0  0  0  0  0  0  0  0  0
   -3.6022   -3.0989    1.6574 H   0  0  0  0  0  0  0  0  0  0  0  0
   -4.9740   -0.9713    1.4801 H   0  0  0  0  0  0  0  0  0  0  0  0
   -8.7552   -5.4292   -0.3133 C   0  0  0  0  0  0  0  0  0  0  0  0
   -9.7943   -6.0439   -1.0045 C   0  0  0  0  0  0  0  0  0  0  0  0
   -9.6540   -7.3392   -1.5290 C   0  0  0  0  0  0  0  0  0  0  0  0
   -8.4350   -8.0050   -1.3490 C   0  0  0  0  0  0  0  0  0  0  0  0
   -7.3779   -7.4035   -0.6657 C   0  0  0  0  0  0  0  0  0  0  0  0
   -7.5504   -6.1188   -0.1547 C   0  0  0  0  0  0  0  0  0  0  0  0
   -8.8713   -4.4302    0.0924 H   0  0  0  0  0  0  0  0  0  0  0  0
  -10.7325   -5.5112   -1.1377 H   0  0  0  0  0  0  0  0  0  0  0  0
   -8.3093   -9.0081   -1.7467 H   0  0  0  0  0  0  0  0  0  0  0  0
   -6.4344   -7.9186   -0.5216 H   0  0  0  0  0  0  0  0  0  0  0  0
   -6.2124   -5.3526    0.7416 S   0  0  0  0  0  0  0  0  0  0  0  0
   -6.7560   -4.6423    1.8983 O   0  0  0  0  0  0  0  0  0  0  0  0
   -5.7617   -4.2608   -0.3988 O   0  0  0  0  0  0  0  0  0  0  0  0
   -5.1215   -6.3166    0.9205 O   0  0  0  0  0  0  0  0  0  0  0  0
  -10.8033   -8.0010   -2.2501 C   0  0  0  0  0  0  0  0  0  0  0  0
  -11.5725   -8.3303   -1.5411 H   0  0  0  0  0  0  0  0  0  0  0  0
  -11.2850   -7.3107   -2.9502 H   0  0  0  0  0  0  0  0  0  0  0  0
  -10.4730   -8.8793   -2.8107 H   0  0  0  0  0  0  0  0  0  0  0  0
  1  2  1  1  0  0  0
  1  8  1  0  0  0  0
  2  3  1  0  0  0  0
  4  5  2  0  0  0  0
  4  1  1  0  0  0  0
  5  6  1  0  0  0  0
  6 11  1  1  0  0  0
  6  7  1  0  0  0  0
  7 12  1  0  0  0  0
  8  7  2  0  0  0  0
  8 13  1  0  0  0  0
  9  4  1  0  0  0  0
 10  5  1  0  0  0  0
 14 19  1  0  0  0  0
 14 20  1  0  0  0  0
 15 14  2  0  0  0  0
 16 17  2  0  0  0  0
 16 15  1  0  0  0  0
 17 18  1  0  0  0  0
 18 23  1  0  0  0  0
 18 19  2  0  0  0  0
 19 24  1  0  0  0  0
 21 15  1  0  0  0  0
 22 17  1  0  0  0  0
 24 27  2  0  0  0  0
 24 25  2  0  0  0  0
 26  6  1  0  0  0  0
 26 24  1  0  0  0  0
 28 29  1  0  0  0  0
 28 16  1  0  0  0  0
 30 28  1  0  0  0  0
 31 28  1  0  0  0  0
M  RAD  3   1   2   2   2   3   3
M  END
