Coordinates from ORCA-job PhN2+~TsO-_B3LYPG-6-31G_dp-NX-Scan-d89-09-n800
 OpenBabel11261920463D

 31 32  0  0  1  0  0  0  0  0999 V2000
   -5.3555   -1.3703   -0.6892 C   0  0  2  0  0  0  0  0  0  0  0  0
   -6.5754   -0.9013   -0.7638 N   0  0  0  0  0  0  0  0  0  0  0  0
   -7.6660   -0.5782   -0.8234 N   0  0  0  0  0  0  0  0  0  0  0  0
   -4.8070   -2.0326   -1.8721 C   0  0  0  0  0  0  0  0  0  0  0  0
   -4.1929   -3.2128   -1.6826 C   0  0  0  0  0  0  0  0  0  0  0  0
   -4.3550   -3.8490   -0.3354 C   0  0  1  0  0  0  0  0  0  0  0  0
   -4.1942   -2.8588    0.7809 C   0  0  0  0  0  0  0  0  0  0  0  0
   -4.8094   -1.6735    0.6336 C   0  0  0  0  0  0  0  0  0  0  0  0
   -4.9024   -1.5592   -2.8449 H   0  0  0  0  0  0  0  0  0  0  0  0
   -3.6942   -3.7486   -2.4827 H   0  0  0  0  0  0  0  0  0  0  0  0
   -3.7621   -4.7528   -0.2023 H   0  0  0  0  0  0  0  0  0  0  0  0
   -3.6995   -3.1515    1.7004 H   0  0  0  0  0  0  0  0  0  0  0  0
   -4.9134   -0.9505    1.4370 H   0  0  0  0  0  0  0  0  0  0  0  0
   -8.8782   -5.5885   -0.1166 C   0  0  0  0  0  0  0  0  0  0  0  0
   -9.8965   -6.2214   -0.8226 C   0  0  0  0  0  0  0  0  0  0  0  0
   -9.6614   -7.4149   -1.5242 C   0  0  0  0  0  0  0  0  0  0  0  0
   -8.3718   -7.9620   -1.5001 C   0  0  0  0  0  0  0  0  0  0  0  0
   -7.3367   -7.3399   -0.8028 C   0  0  0  0  0  0  0  0  0  0  0  0
   -7.6010   -6.1540   -0.1195 C   0  0  0  0  0  0  0  0  0  0  0  0
   -9.0650   -4.6763    0.4390 H   0  0  0  0  0  0  0  0  0  0  0  0
  -10.8925   -5.7859   -0.8259 H   0  0  0  0  0  0  0  0  0  0  0  0
   -8.1753   -8.8903   -2.0290 H   0  0  0  0  0  0  0  0  0  0  0  0
   -6.3415   -7.7700   -0.7732 H   0  0  0  0  0  0  0  0  0  0  0  0
   -6.2878   -5.3533    0.7852 S   0  0  0  0  0  0  0  0  0  0  0  0
   -6.8689   -4.6317    1.9169 O   0  0  0  0  0  0  0  0  0  0  0  0
   -5.8171   -4.2804   -0.3598 O   0  0  0  0  0  0  0  0  0  0  0  0
   -5.1935   -6.3054    1.0064 O   0  0  0  0  0  0  0  0  0  0  0  0
  -10.7824   -8.0933   -2.2740 C   0  0  0  0  0  0  0  0  0  0  0  0
  -11.5738   -8.4194   -1.5894 H   0  0  0  0  0  0  0  0  0  0  0  0
  -11.2442   -7.4123   -2.9976 H   0  0  0  0  0  0  0  0  0  0  0  0
  -10.4272   -8.9724   -2.8172 H   0  0  0  0  0  0  0  0  0  0  0  0
  1  2  1  1  0  0  0
  1  8  1  0  0  0  0
  3  2  1  0  0  0  0
  4  5  2  0  0  0  0
  4  1  1  0  0  0  0
  5  6  1  0  0  0  0
  6 11  1  1  0  0  0
  6  7  1  0  0  0  0
  7 12  1  0  0  0  0
  8  7  2  0  0  0  0
  8 13  1  0  0  0  0
  9  4  1  0  0  0  0
 10  5  1  0  0  0  0
 14 20  1  0  0  0  0
 15 14  2  0  0  0  0
 16 17  2  0  0  0  0
 16 15  1  0  0  0  0
 17 18  1  0  0  0  0
 18 23  1  0  0  0  0
 18 19  2  0  0  0  0
 19 14  1  0  0  0  0
 19 24  1  0  0  0  0
 21 15  1  0  0  0  0
 22 17  1  0  0  0  0
 24 27  2  0  0  0  0
 24 25  2  0  0  0  0
 26  6  1  0  0  0  0
 26 24  1  0  0  0  0
 28 29  1  0  0  0  0
 28 16  1  0  0  0  0
 30 28  1  0  0  0  0
 31 28  1  0  0  0  0
M  RAD  3   1   2   2   2   3   3
M  END
