Coordinates from ORCA-job PhN2+~TsO-_B3LYPG-6-31G_dp-NX-Scan-d89-09-n800
 OpenBabel11261920463D

 31 32  0  0  1  0  0  0  0  0999 V2000
   -5.3263   -1.2478   -1.0150 C   0  0  2  0  0  0  0  0  0  0  0  0
   -6.0718   -0.3401   -1.5949 N   0  0  0  0  0  0  0  0  0  0  0  0
   -6.7505    0.4218   -2.1055 N   0  0  0  0  0  0  0  0  0  0  0  0
   -4.4878   -2.1072   -1.8271 C   0  0  0  0  0  0  0  0  0  0  0  0
   -4.0064   -3.2404   -1.2847 C   0  0  0  0  0  0  0  0  0  0  0  0
   -4.4963   -3.6961    0.0494 C   0  0  1  0  0  0  0  0  0  0  0  0
   -4.9370   -2.5861    0.9465 C   0  0  0  0  0  0  0  0  0  0  0  0
   -5.4236   -1.4487    0.4181 C   0  0  0  0  0  0  0  0  0  0  0  0
   -4.2523   -1.8049   -2.8425 H   0  0  0  0  0  0  0  0  0  0  0  0
   -3.3497   -3.8976   -1.8442 H   0  0  0  0  0  0  0  0  0  0  0  0
   -3.7960   -4.3812    0.5306 H   0  0  0  0  0  0  0  0  0  0  0  0
   -4.9687   -2.7699    2.0147 H   0  0  0  0  0  0  0  0  0  0  0  0
   -5.8701   -0.6697    1.0283 H   0  0  0  0  0  0  0  0  0  0  0  0
   -8.6811   -6.0792    0.3146 C   0  0  0  0  0  0  0  0  0  0  0  0
   -9.8288   -6.5569   -0.3104 C   0  0  0  0  0  0  0  0  0  0  0  0
   -9.7486   -7.4157   -1.4184 C   0  0  0  0  0  0  0  0  0  0  0  0
   -8.4816   -7.7907   -1.8846 C   0  0  0  0  0  0  0  0  0  0  0  0
   -7.3199   -7.3229   -1.2722 C   0  0  0  0  0  0  0  0  0  0  0  0
   -7.4330   -6.4654   -0.1790 C   0  0  0  0  0  0  0  0  0  0  0  0
   -8.7413   -5.4288    1.1803 H   0  0  0  0  0  0  0  0  0  0  0  0
  -10.8038   -6.2635    0.0696 H   0  0  0  0  0  0  0  0  0  0  0  0
   -8.4023   -8.4609   -2.7361 H   0  0  0  0  0  0  0  0  0  0  0  0
   -6.3396   -7.6250   -1.6233 H   0  0  0  0  0  0  0  0  0  0  0  0
   -5.9554   -5.8624    0.6139 S   0  0  0  0  0  0  0  0  0  0  0  0
   -6.2594   -5.4822    1.9966 O   0  0  0  0  0  0  0  0  0  0  0  0
   -5.7437   -4.5123   -0.2825 O   0  0  0  0  0  0  0  0  0  0  0  0
   -4.8446   -6.7819    0.3502 O   0  0  0  0  0  0  0  0  0  0  0  0
  -11.0050   -7.9256   -2.0823 C   0  0  0  0  0  0  0  0  0  0  0  0
  -11.6291   -8.4815   -1.3732 H   0  0  0  0  0  0  0  0  0  0  0  0
  -11.6130   -7.0984   -2.4658 H   0  0  0  0  0  0  0  0  0  0  0  0
  -10.7750   -8.5896   -2.9196 H   0  0  0  0  0  0  0  0  0  0  0  0
  1  2  1  6  0  0  0
  1  8  1  0  0  0  0
  3  2  1  0  0  0  0
  4  5  2  0  0  0  0
  4  1  1  0  0  0  0
  5  6  1  0  0  0  0
  6 11  1  1  0  0  0
  6  7  1  0  0  0  0
  7 12  1  0  0  0  0
  8  7  2  0  0  0  0
  8 13  1  0  0  0  0
  9  4  1  0  0  0  0
 10  5  1  0  0  0  0
 14 20  1  0  0  0  0
 15 21  1  0  0  0  0
 15 14  2  0  0  0  0
 16 15  1  0  0  0  0
 17 16  2  0  0  0  0
 17 18  1  0  0  0  0
 18 19  2  0  0  0  0
 19 14  1  0  0  0  0
 19 24  1  0  0  0  0
 22 17  1  0  0  0  0
 23 18  1  0  0  0  0
 24 25  2  0  0  0  0
 26  6  1  0  0  0  0
 26 24  1  0  0  0  0
 27 24  2  0  0  0  0
 28 16  1  0  0  0  0
 28 29  1  0  0  0  0
 30 28  1  0  0  0  0
 31 28  1  0  0  0  0
M  RAD  3   1   2   2   2   3   3
M  END
