Coordinates from ORCA-job PhN2+~TsO-_B3LYPG-6-31G_dp-NX-Scan-d89-09-n800
 OpenBabel11261920463D

 31 31  0  0  0  0  0  0  0  0999 V2000
   -4.1368   -0.4264   -0.4453 C   0  0  0  0  0  0  0  0  0  0  0  0
   -3.9557    0.9052   -0.3011 N   0  0  0  0  0  0  0  0  0  0  0  0
   -3.7954    2.0131   -0.1717 N   0  0  0  0  0  0  0  0  0  0  0  0
   -3.6005   -1.0578   -1.5993 C   0  0  0  0  0  0  0  0  0  0  0  0
   -3.7464   -2.4248   -1.7034 C   0  0  0  0  0  0  0  0  0  0  0  0
   -4.4077   -3.1605   -0.6980 C   0  0  0  0  0  0  0  0  0  0  0  0
   -4.9636   -2.5046    0.4247 C   0  0  0  0  0  0  0  0  0  0  0  0
   -4.8341   -1.1416    0.5701 C   0  0  0  0  0  0  0  0  0  0  0  0
   -3.0852   -0.4713   -2.3521 H   0  0  0  0  0  0  0  0  0  0  0  0
   -3.3398   -2.9408   -2.5665 H   0  0  0  0  0  0  0  0  0  0  0  0
   -4.4537   -4.2459   -0.7454 H   0  0  0  0  0  0  0  0  0  0  0  0
   -5.5278   -3.0963    1.1437 H   0  0  0  0  0  0  0  0  0  0  0  0
   -5.2441   -0.6125    1.4232 H   0  0  0  0  0  0  0  0  0  0  0  0
   -9.3644   -6.2404   -0.1310 C   0  0  0  0  0  0  0  0  0  0  0  0
  -10.3680   -7.1563   -0.4355 C   0  0  0  0  0  0  0  0  0  0  0  0
  -10.0798   -8.3472   -1.1203 C   0  0  0  0  0  0  0  0  0  0  0  0
   -8.7521   -8.5950   -1.4917 C   0  0  0  0  0  0  0  0  0  0  0  0
   -7.7378   -7.6844   -1.1945 C   0  0  0  0  0  0  0  0  0  0  0  0
   -8.0472   -6.5073   -0.5137 C   0  0  0  0  0  0  0  0  0  0  0  0
   -9.5861   -5.3285    0.4128 H   0  0  0  0  0  0  0  0  0  0  0  0
  -11.3921   -6.9488   -0.1335 H   0  0  0  0  0  0  0  0  0  0  0  0
   -8.5082   -9.5156   -2.0166 H   0  0  0  0  0  0  0  0  0  0  0  0
   -6.7070   -7.8796   -1.4695 H   0  0  0  0  0  0  0  0  0  0  0  0
   -6.7545   -5.3057   -0.1722 S   0  0  0  0  0  0  0  0  0  0  0  0
   -7.0994   -4.6901    1.1409 O   0  0  0  0  0  0  0  0  0  0  0  0
   -6.8230   -4.3164   -1.3080 O   0  0  0  0  0  0  0  0  0  0  0  0
   -5.4669   -6.0574   -0.1809 O   0  0  0  0  0  0  0  0  0  0  0  0
  -11.1731   -9.3453   -1.4225 C   0  0  0  0  0  0  0  0  0  0  0  0
  -11.4648   -9.9011   -0.5224 H   0  0  0  0  0  0  0  0  0  0  0  0
  -12.0746   -8.8507   -1.7993 H   0  0  0  0  0  0  0  0  0  0  0  0
  -10.8517  -10.0767   -2.1699 H   0  0  0  0  0  0  0  0  0  0  0  0
  1  2  1  0  0  0  0
  1  8  2  0  0  0  0
  2  3  1  0  0  0  0
  4  1  1  0  0  0  0
  5  4  2  0  0  0  0
  5  6  1  0  0  0  0
  6  7  2  0  0  0  0
  7  8  1  0  0  0  0
  7 12  1  0  0  0  0
  8 13  1  0  0  0  0
  9  4  1  0  0  0  0
 10  5  1  0  0  0  0
 11  6  1  0  0  0  0
 14 20  1  0  0  0  0
 15 21  1  0  0  0  0
 15 14  1  0  0  0  0
 16 15  2  0  0  0  0
 17 18  2  0  0  0  0
 17 16  1  0  0  0  0
 18 19  1  0  0  0  0
 19 24  1  0  0  0  0
 19 14  2  0  0  0  0
 22 17  1  0  0  0  0
 23 18  1  0  0  0  0
 24 25  1  0  0  0  0
 26 24  2  0  0  0  0
 27 24  2  0  0  0  0
 28 16  1  0  0  0  0
 28 29  1  0  0  0  0
 30 28  1  0  0  0  0
 31 28  1  0  0  0  0
M  RAD  3   2   2   3   3  25   2
M  END
