Coordinates from ORCA-job PhN2+~TsO-_B3LYPG-6-31G_dp-NX-Scan-d89-09-n800
 OpenBabel11261920463D

 31 32  0  0  1  0  0  0  0  0999 V2000
   -4.6590   -0.6880   -0.8467 C   0  0  0  0  0  0  0  0  0  0  0  0
   -4.3721    0.5796   -1.0568 N   0  0  0  0  0  0  0  0  0  0  0  0
   -4.1128    1.6848   -1.2335 N   0  0  0  0  0  0  0  0  0  0  0  0
   -4.3873   -1.6904   -1.8629 C   0  0  0  0  0  0  0  0  0  0  0  0
   -4.5688   -3.0009   -1.6046 C   0  0  0  0  0  0  0  0  0  0  0  0
   -4.9963   -3.5226   -0.2659 C   0  0  1  0  0  0  0  0  0  0  0  0
   -5.4147   -2.4318    0.6779 C   0  0  0  0  0  0  0  0  0  0  0  0
   -5.2345   -1.1224    0.4161 C   0  0  0  0  0  0  0  0  0  0  0  0
   -4.0285   -1.3620   -2.8335 H   0  0  0  0  0  0  0  0  0  0  0  0
   -4.3583   -3.7407   -2.3698 H   0  0  0  0  0  0  0  0  0  0  0  0
   -4.1980   -4.1389    0.1712 H   0  0  0  0  0  0  0  0  0  0  0  0
   -5.8433   -2.7489    1.6224 H   0  0  0  0  0  0  0  0  0  0  0  0
   -5.5133   -0.3681    1.1454 H   0  0  0  0  0  0  0  0  0  0  0  0
   -8.8460   -6.3020    0.2804 C   0  0  0  0  0  0  0  0  0  0  0  0
   -9.9564   -6.9365   -0.2672 C   0  0  0  0  0  0  0  0  0  0  0  0
   -9.8199   -7.8723   -1.3054 C   0  0  0  0  0  0  0  0  0  0  0  0
   -8.5341   -8.1635   -1.7800 C   0  0  0  0  0  0  0  0  0  0  0  0
   -7.4087   -7.5381   -1.2454 C   0  0  0  0  0  0  0  0  0  0  0  0
   -7.5788   -6.6072   -0.2216 C   0  0  0  0  0  0  0  0  0  0  0  0
   -8.9496   -5.5901    1.0919 H   0  0  0  0  0  0  0  0  0  0  0  0
  -10.9456   -6.7067    0.1193 H   0  0  0  0  0  0  0  0  0  0  0  0
   -8.4106   -8.8930   -2.5758 H   0  0  0  0  0  0  0  0  0  0  0  0
   -6.4125   -7.7727   -1.6029 H   0  0  0  0  0  0  0  0  0  0  0  0
   -6.1489   -5.8039    0.4728 S   0  0  0  0  0  0  0  0  0  0  0  0
   -6.4387   -5.3760    1.8441 O   0  0  0  0  0  0  0  0  0  0  0  0
   -6.1348   -4.4884   -0.5017 O   0  0  0  0  0  0  0  0  0  0  0  0
   -4.9520   -6.6049    0.2038 O   0  0  0  0  0  0  0  0  0  0  0  0
  -11.0367   -8.5467   -1.8913 C   0  0  0  0  0  0  0  0  0  0  0  0
  -11.6296   -9.0398   -1.1131 H   0  0  0  0  0  0  0  0  0  0  0  0
  -11.6925   -7.8182   -2.3825 H   0  0  0  0  0  0  0  0  0  0  0  0
  -10.7594   -9.3003   -2.6330 H   0  0  0  0  0  0  0  0  0  0  0  0
  1  8  1  0  0  0  0
  2  1  1  0  0  0  0
  3  2  1  0  0  0  0
  4  5  1  0  0  0  0
  4  1  2  0  0  0  0
  5  6  1  0  0  0  0
  6 11  1  1  0  0  0
  6  7  1  0  0  0  0
  7 12  1  0  0  0  0
  8  7  2  0  0  0  0
  8 13  1  0  0  0  0
  9  4  1  0  0  0  0
 10  5  1  0  0  0  0
 14 20  1  0  0  0  0
 15 21  1  0  0  0  0
 15 14  2  0  0  0  0
 16 15  1  0  0  0  0
 17 16  2  0  0  0  0
 17 18  1  0  0  0  0
 18 19  2  0  0  0  0
 19 14  1  0  0  0  0
 19 24  1  0  0  0  0
 22 17  1  0  0  0  0
 23 18  1  0  0  0  0
 24 25  2  0  0  0  0
 26  6  1  0  0  0  0
 26 24  1  0  0  0  0
 27 24  2  0  0  0  0
 28 16  1  0  0  0  0
 28 29  1  0  0  0  0
 30 28  1  0  0  0  0
 31 28  1  0  0  0  0
M  RAD  3   2   2   3   3   5   2
M  END
