Coordinates from ORCA-job PhN2+~TsO-_B3LYPG-6-31G_dp-NX-Scan-d89-09-n800
 OpenBabel11261920463D

 31 31  0  0  0  0  0  0  0  0999 V2000
   -3.6773   -0.5315    0.0521 C   0  0  0  0  0  0  0  0  0  0  0  0
   -3.3579    0.6715    0.5911 N   0  0  0  0  0  0  0  0  0  0  0  0
   -3.1161    1.6679    1.0522 N   0  0  0  0  0  0  0  0  0  0  0  0
   -2.7467   -1.1492   -0.8210 C   0  0  0  0  0  0  0  0  0  0  0  0
   -3.1092   -2.3663   -1.3663 C   0  0  0  0  0  0  0  0  0  0  0  0
   -4.3554   -2.9450   -1.0644 C   0  0  0  0  0  0  0  0  0  0  0  0
   -5.2582   -2.3163   -0.1836 C   0  0  0  0  0  0  0  0  0  0  0  0
   -4.9335   -1.1019    0.3879 C   0  0  0  0  0  0  0  0  0  0  0  0
   -1.8006   -0.6689   -1.0435 H   0  0  0  0  0  0  0  0  0  0  0  0
   -2.4266   -2.8696   -2.0433 H   0  0  0  0  0  0  0  0  0  0  0  0
   -4.6857   -3.8904   -1.5009 H   0  0  0  0  0  0  0  0  0  0  0  0
   -6.2215   -2.8049    0.0161 H   0  0  0  0  0  0  0  0  0  0  0  0
   -5.6040   -0.5851    1.0663 H   0  0  0  0  0  0  0  0  0  0  0  0
   -9.7086   -6.2308   -0.3941 C   0  0  0  0  0  0  0  0  0  0  0  0
  -10.4672   -7.3894   -0.2397 C   0  0  0  0  0  0  0  0  0  0  0  0
  -10.0297   -8.6168   -0.7582 C   0  0  0  0  0  0  0  0  0  0  0  0
   -8.8066   -8.6496   -1.4406 C   0  0  0  0  0  0  0  0  0  0  0  0
   -8.0388   -7.4959   -1.6019 C   0  0  0  0  0  0  0  0  0  0  0  0
   -8.4916   -6.2859   -1.0768 C   0  0  0  0  0  0  0  0  0  0  0  0
  -10.0438   -5.2863    0.0211 H   0  0  0  0  0  0  0  0  0  0  0  0
  -11.4148   -7.3421    0.2922 H   0  0  0  0  0  0  0  0  0  0  0  0
   -8.4493   -9.5917   -1.8504 H   0  0  0  0  0  0  0  0  0  0  0  0
   -7.0856   -7.5236   -2.1181 H   0  0  0  0  0  0  0  0  0  0  0  0
   -7.5474   -4.7757   -1.3405 S   0  0  0  0  0  0  0  0  0  0  0  0
   -7.7243   -3.9932   -0.0720 O   0  0  0  0  0  0  0  0  0  0  0  0
   -8.1085   -4.1007   -2.5331 O   0  0  0  0  0  0  0  0  0  0  0  0
   -6.1307   -5.2365   -1.5293 O   0  0  0  0  0  0  0  0  0  0  0  0
  -10.8412   -9.8752   -0.5566 C   0  0  0  0  0  0  0  0  0  0  0  0
  -10.6048  -10.3524    0.4038 H   0  0  0  0  0  0  0  0  0  0  0  0
  -11.9156   -9.6642   -0.5551 H   0  0  0  0  0  0  0  0  0  0  0  0
  -10.6407  -10.6110   -1.3417 H   0  0  0  0  0  0  0  0  0  0  0  0
  1  8  1  0  0  0  0
  1  2  1  0  0  0  0
  2  3  1  0  0  0  0
  4  1  2  0  0  0  0
  5  6  2  0  0  0  0
  5  4  1  0  0  0  0
  6  7  1  0  0  0  0
  7 12  1  0  0  0  0
  7  8  2  0  0  0  0
  8 13  1  0  0  0  0
  9  4  1  0  0  0  0
 10  5  1  0  0  0  0
 11  6  1  0  0  0  0
 14 15  1  0  0  0  0
 14 20  1  0  0  0  0
 15 21  1  0  0  0  0
 16 28  1  0  0  0  0
 16 15  2  0  0  0  0
 17 16  1  0  0  0  0
 18 17  2  0  0  0  0
 18 19  1  0  0  0  0
 19 14  2  0  0  0  0
 22 17  1  0  0  0  0
 23 18  1  0  0  0  0
 24 19  1  0  0  0  0
 24 25  1  0  0  0  0
 26 24  2  0  0  0  0
 27 24  2  0  0  0  0
 28 30  1  0  0  0  0
 28 29  1  0  0  0  0
 31 28  1  0  0  0  0
M  RAD  3   2   2   3   3  25   2
M  END
