Coordinates from ORCA-job PhN2+~TsO-_B3LYPG-6-31G_dp-NX-Scan-d89-09-n800
 OpenBabel11261920463D

 31 31  0  0  0  0  0  0  0  0999 V2000
   -4.5498   -2.2802   -1.2113 C   0  0  0  0  0  0  0  0  0  0  0  0
   -5.7648   -2.5976   -1.8387 N   0  0  0  0  0  0  0  0  0  0  0  0
   -6.6173   -3.3655   -1.9566 N   0  0  0  0  0  0  0  0  0  0  0  0
   -4.0030   -1.0288   -1.5269 C   0  0  0  0  0  0  0  0  0  0  0  0
   -2.8048   -0.6537   -0.9303 C   0  0  0  0  0  0  0  0  0  0  0  0
   -2.1742   -1.5227   -0.0341 C   0  0  0  0  0  0  0  0  0  0  0  0
   -2.7355   -2.7673    0.2690 C   0  0  0  0  0  0  0  0  0  0  0  0
   -3.9326   -3.1697   -0.3156 C   0  0  0  0  0  0  0  0  0  0  0  0
   -4.5215   -0.3783   -2.2226 H   0  0  0  0  0  0  0  0  0  0  0  0
   -2.3656    0.3109   -1.1604 H   0  0  0  0  0  0  0  0  0  0  0  0
   -1.2389   -1.2276    0.4313 H   0  0  0  0  0  0  0  0  0  0  0  0
   -2.2400   -3.4329    0.9684 H   0  0  0  0  0  0  0  0  0  0  0  0
   -4.3955   -4.1253   -0.1030 H   0  0  0  0  0  0  0  0  0  0  0  0
   -9.6763   -5.6339   -0.7727 C   0  0  0  0  0  0  0  0  0  0  0  0
  -10.6705   -6.5065   -1.2131 C   0  0  0  0  0  0  0  0  0  0  0  0
  -10.5111   -7.8956   -1.1159 C   0  0  0  0  0  0  0  0  0  0  0  0
   -9.3227   -8.3928   -0.5608 C   0  0  0  0  0  0  0  0  0  0  0  0
   -8.3201   -7.5340   -0.1155 C   0  0  0  0  0  0  0  0  0  0  0  0
   -8.5021   -6.1548   -0.2291 C   0  0  0  0  0  0  0  0  0  0  0  0
   -9.8059   -4.5587   -0.8355 H   0  0  0  0  0  0  0  0  0  0  0  0
  -11.5866   -6.1023   -1.6366 H   0  0  0  0  0  0  0  0  0  0  0  0
   -9.1828   -9.4677   -0.4728 H   0  0  0  0  0  0  0  0  0  0  0  0
   -7.4084   -7.9199    0.3275 H   0  0  0  0  0  0  0  0  0  0  0  0
   -7.2010   -5.0433    0.3046 S   0  0  0  0  0  0  0  0  0  0  0  0
   -7.8131   -3.7276    0.5587 O   0  0  0  0  0  0  0  0  0  0  0  0
   -6.2400   -4.9472   -0.9333 O   0  0  0  0  0  0  0  0  0  0  0  0
   -6.4665   -5.7093    1.3902 O   0  0  0  0  0  0  0  0  0  0  0  0
  -11.6046   -8.8340   -1.5683 C   0  0  0  0  0  0  0  0  0  0  0  0
  -12.2788   -9.0840   -0.7394 H   0  0  0  0  0  0  0  0  0  0  0  0
  -12.2136   -8.3859   -2.3594 H   0  0  0  0  0  0  0  0  0  0  0  0
  -11.1942   -9.7747   -1.9465 H   0  0  0  0  0  0  0  0  0  0  0  0
  1  8  1  0  0  0  0
  2  1  1  0  0  0  0
  3  2  2  0  0  0  0
  4  1  2  0  0  0  0
  4  5  1  0  0  0  0
  5  6  2  0  0  0  0
  6  7  1  0  0  0  0
  6 11  1  0  0  0  0
  7 12  1  0  0  0  0
  8 13  1  0  0  0  0
  8  7  2  0  0  0  0
  9  4  1  0  0  0  0
 10  5  1  0  0  0  0
 14 19  2  0  0  0  0
 15 16  2  0  0  0  0
 15 14  1  0  0  0  0
 16 17  1  0  0  0  0
 17 22  1  0  0  0  0
 17 18  2  0  0  0  0
 18 23  1  0  0  0  0
 19 18  1  0  0  0  0
 19 24  1  0  0  0  0
 20 14  1  0  0  0  0
 21 15  1  0  0  0  0
 24 25  2  0  0  0  0
 24 27  1  0  0  0  0
 26 24  2  0  0  0  0
 28 16  1  0  0  0  0
 28 29  1  0  0  0  0
 30 28  1  0  0  0  0
 31 28  1  0  0  0  0
M  RAD  2   3   2  27   2
M  END
