Coordinates from ORCA-job PhN2+~TsO-_B3LYPG-6-31G_dp-NX-Scan-d89-09-n800
 OpenBabel11261920463D

 31 32  0  0  0  0  0  0  0  0999 V2000
   -4.9614   -2.5552   -0.9077 C   0  0  0  0  0  0  0  0  0  0  0  0
   -6.3712   -2.6457   -1.0139 N   0  0  0  0  0  0  0  0  0  0  0  0
   -7.1962   -3.2989   -0.4006 N   0  0  0  0  0  0  0  0  0  0  0  0
   -4.4129   -1.6861   -1.8688 C   0  0  0  0  0  0  0  0  0  0  0  0
   -3.0422   -1.4581   -1.9184 C   0  0  0  0  0  0  0  0  0  0  0  0
   -2.2024   -2.0942   -1.0015 C   0  0  0  0  0  0  0  0  0  0  0  0
   -2.7408   -2.9556   -0.0423 C   0  0  0  0  0  0  0  0  0  0  0  0
   -4.1120   -3.1977    0.0171 C   0  0  0  0  0  0  0  0  0  0  0  0
   -5.0910   -1.2020   -2.5631 H   0  0  0  0  0  0  0  0  0  0  0  0
   -2.6306   -0.7858   -2.6651 H   0  0  0  0  0  0  0  0  0  0  0  0
   -1.1309   -1.9174   -1.0313 H   0  0  0  0  0  0  0  0  0  0  0  0
   -2.0876   -3.4481    0.6716 H   0  0  0  0  0  0  0  0  0  0  0  0
   -4.5142   -3.8632    0.7650 H   0  0  0  0  0  0  0  0  0  0  0  0
   -9.7829   -5.4499   -0.3152 C   0  0  0  0  0  0  0  0  0  0  0  0
  -10.4314   -6.2671   -1.2378 C   0  0  0  0  0  0  0  0  0  0  0  0
   -9.9821   -7.5705   -1.4967 C   0  0  0  0  0  0  0  0  0  0  0  0
   -8.8561   -8.0416   -0.8056 C   0  0  0  0  0  0  0  0  0  0  0  0
   -8.1924   -7.2412    0.1209 C   0  0  0  0  0  0  0  0  0  0  0  0
   -8.6645   -5.9483    0.3550 C   0  0  0  0  0  0  0  0  0  0  0  0
  -10.1332   -4.4456   -0.1092 H   0  0  0  0  0  0  0  0  0  0  0  0
  -11.3032   -5.8873   -1.7634 H   0  0  0  0  0  0  0  0  0  0  0  0
   -8.4966   -9.0493   -0.9933 H   0  0  0  0  0  0  0  0  0  0  0  0
   -7.3295   -7.6099    0.6647 H   0  0  0  0  0  0  0  0  0  0  0  0
   -7.8219   -4.9203    1.5411 S   0  0  0  0  0  0  0  0  0  0  0  0
   -8.7336   -3.8888    2.0168 O   0  0  0  0  0  0  0  0  0  0  0  0
   -6.6193   -4.1890    0.6326 O   0  0  0  0  0  0  0  0  0  0  0  0
   -7.0499   -5.7582    2.4502 O   0  0  0  0  0  0  0  0  0  0  0  0
  -10.7144   -8.4572   -2.4741 C   0  0  0  0  0  0  0  0  0  0  0  0
  -11.5235   -9.0038   -1.9738 H   0  0  0  0  0  0  0  0  0  0  0  0
  -11.1669   -7.8747   -3.2815 H   0  0  0  0  0  0  0  0  0  0  0  0
  -10.0470   -9.1999   -2.9205 H   0  0  0  0  0  0  0  0  0  0  0  0
  1  8  2  0  0  0  0
  2  1  1  0  0  0  0
  2  3  1  0  0  0  0
  3 26  1  0  0  0  0
  4  1  1  0  0  0  0
  5  4  2  0  0  0  0
  5  6  1  0  0  0  0
  6  7  2  0  0  0  0
  7  8  1  0  0  0  0
  7 12  1  0  0  0  0
  8 13  1  0  0  0  0
  9  4  1  0  0  0  0
 10  5  1  0  0  0  0
 11  6  1  0  0  0  0
 14 20  1  0  0  0  0
 14 19  2  0  0  0  0
 15 14  1  0  0  0  0
 16 15  2  0  0  0  0
 16 17  1  0  0  0  0
 17 18  2  0  0  0  0
 18 19  1  0  0  0  0
 18 23  1  0  0  0  0
 19 24  1  0  0  0  0
 21 15  1  0  0  0  0
 22 17  1  0  0  0  0
 24 25  2  0  0  0  0
 24 27  2  0  0  0  0
 26 24  1  0  0  0  0
 28 29  1  0  0  0  0
 28 16  1  0  0  0  0
 30 28  1  0  0  0  0
 31 28  1  0  0  0  0
M  RAD  2   2   2   3   2
M  END
