Coordinates from ORCA-job PhN2+~TsO-_B3LYPG-6-31G_dp-NX-Scan-d89-09-n800
 OpenBabel11261920463D

 31 32  0  0  0  0  0  0  0  0999 V2000
   -4.3411   -2.4902   -0.6566 C   0  0  0  0  0  0  0  0  0  0  0  0
   -5.4562   -3.3723   -0.5297 N   0  0  0  0  0  0  0  0  0  0  0  0
   -6.2842   -3.3372   -1.5279 N   0  0  0  0  0  0  0  0  0  0  0  0
   -3.7052   -2.2067    0.5635 C   0  0  0  0  0  0  0  0  0  0  0  0
   -2.5784   -1.3927    0.5991 C   0  0  0  0  0  0  0  0  0  0  0  0
   -2.0610   -0.8510   -0.5810 C   0  0  0  0  0  0  0  0  0  0  0  0
   -2.6831   -1.1375   -1.7950 C   0  0  0  0  0  0  0  0  0  0  0  0
   -3.8170   -1.9516   -1.8440 C   0  0  0  0  0  0  0  0  0  0  0  0
   -4.1194   -2.6364    1.4692 H   0  0  0  0  0  0  0  0  0  0  0  0
   -2.1031   -1.1795    1.5519 H   0  0  0  0  0  0  0  0  0  0  0  0
   -1.1803   -0.2169   -0.5537 H   0  0  0  0  0  0  0  0  0  0  0  0
   -2.2864   -0.7296   -2.7199 H   0  0  0  0  0  0  0  0  0  0  0  0
   -4.2607   -2.1626   -2.8105 H   0  0  0  0  0  0  0  0  0  0  0  0
   -8.3271   -7.3457   -1.1322 C   0  0  0  0  0  0  0  0  0  0  0  0
   -9.2740   -8.3071   -1.4774 C   0  0  0  0  0  0  0  0  0  0  0  0
  -10.5556   -8.2999   -0.9038 C   0  0  0  0  0  0  0  0  0  0  0  0
  -10.8649   -7.2985    0.0262 C   0  0  0  0  0  0  0  0  0  0  0  0
   -9.9256   -6.3301    0.3834 C   0  0  0  0  0  0  0  0  0  0  0  0
   -8.6654   -6.3572   -0.2059 C   0  0  0  0  0  0  0  0  0  0  0  0
   -7.3422   -7.3566   -1.5904 H   0  0  0  0  0  0  0  0  0  0  0  0
   -9.0183   -9.0740   -2.2048 H   0  0  0  0  0  0  0  0  0  0  0  0
  -11.8534   -7.2773    0.4778 H   0  0  0  0  0  0  0  0  0  0  0  0
  -10.1507   -5.5522    1.1071 H   0  0  0  0  0  0  0  0  0  0  0  0
   -7.4260   -5.1310    0.3278 S   0  0  1  0  0  0  0  0  0  0  0  0
   -7.4824   -4.3981   -1.1980 O   0  0  0  0  0  0  0  0  0  0  0  0
   -6.4245   -2.9221   -2.3369 O   0  0  0  0  0  0  0  0  0  0  0  0
   -8.1116   -4.2779    1.3398 O   0  0  0  0  0  0  0  0  0  0  0  0
  -11.5638   -9.3655   -1.2630 C   0  0  0  0  0  0  0  0  0  0  0  0
  -11.5127   -9.6234   -2.3255 H   0  0  0  0  0  0  0  0  0  0  0  0
  -11.3827  -10.2877   -0.6974 H   0  0  0  0  0  0  0  0  0  0  0  0
  -12.5847   -9.0419   -1.0405 H   0  0  0  0  0  0  0  0  0  0  0  0
  1  2  1  0  0  0  0
  1  4  2  0  0  0  0
  3 25  1  0  0  0  0
  3  2  1  0  0  0  0
  4  5  1  0  0  0  0
  4  9  1  0  0  0  0
  5 10  1  0  0  0  0
  6 11  1  0  0  0  0
  6  5  2  0  0  0  0
  7  6  1  0  0  0  0
  8  7  2  0  0  0  0
  8  1  1  0  0  0  0
 12  7  1  0  0  0  0
 13  8  1  0  0  0  0
 14 19  1  0  0  0  0
 15 14  2  0  0  0  0
 15 16  1  0  0  0  0
 16 17  2  0  0  0  0
 17 18  1  0  0  0  0
 17 22  1  0  0  0  0
 18 23  1  0  0  0  0
 19 24  1  0  0  0  0
 19 18  2  0  0  0  0
 20 14  1  0  0  0  0
 21 15  1  0  0  0  0
 24 25  1  6  0  0  0
 24 27  1  0  0  0  0
 26  3  1  0  0  0  0
 28 31  1  0  0  0  0
 28 16  1  0  0  0  0
 28 30  1  0  0  0  0
 29 28  1  0  0  0  0
M  RAD  3   2   2  26   2  27   2
M  END
