Coordinates from ORCA-job PhN2+~TsO-_B3LYPG-6-31G_dp-NX-Scan-d89-09-n800
 OpenBabel11261920463D

 31 31  0  0  0  0  0  0  0  0999 V2000
   -4.3609   -0.5101   -0.5691 C   0  0  0  0  0  0  0  0  0  0  0  0
   -4.2374    0.8296   -0.5615 N   0  0  0  0  0  0  0  0  0  0  0  0
   -4.1194    1.9538   -0.5465 N   0  0  0  0  0  0  0  0  0  0  0  0
   -4.0068   -1.2267   -1.7498 C   0  0  0  0  0  0  0  0  0  0  0  0
   -4.0494   -2.5992   -1.7107 C   0  0  0  0  0  0  0  0  0  0  0  0
   -4.4364   -3.2843   -0.5319 C   0  0  0  0  0  0  0  0  0  0  0  0
   -4.8271   -2.5479    0.6179 C   0  0  0  0  0  0  0  0  0  0  0  0
   -4.7958   -1.1762    0.6174 C   0  0  0  0  0  0  0  0  0  0  0  0
   -3.6887   -0.6867   -2.6350 H   0  0  0  0  0  0  0  0  0  0  0  0
   -3.7702   -3.1700   -2.5891 H   0  0  0  0  0  0  0  0  0  0  0  0
   -4.2838   -4.3539   -0.4507 H   0  0  0  0  0  0  0  0  0  0  0  0
   -5.1840   -3.0938    1.4849 H   0  0  0  0  0  0  0  0  0  0  0  0
   -5.0782   -0.5967    1.4894 H   0  0  0  0  0  0  0  0  0  0  0  0
   -9.2404   -6.1803   -0.0900 C   0  0  0  0  0  0  0  0  0  0  0  0
  -10.2750   -7.0203   -0.4936 C   0  0  0  0  0  0  0  0  0  0  0  0
  -10.0158   -8.1935   -1.2188 C   0  0  0  0  0  0  0  0  0  0  0  0
   -8.6852   -8.5029   -1.5299 C   0  0  0  0  0  0  0  0  0  0  0  0
   -7.6393   -7.6693   -1.1340 C   0  0  0  0  0  0  0  0  0  0  0  0
   -7.9219   -6.5087   -0.4143 C   0  0  0  0  0  0  0  0  0  0  0  0
   -9.4396   -5.2828    0.4854 H   0  0  0  0  0  0  0  0  0  0  0  0
  -11.3012   -6.7665   -0.2377 H   0  0  0  0  0  0  0  0  0  0  0  0
   -8.4647   -9.4116   -2.0848 H   0  0  0  0  0  0  0  0  0  0  0  0
   -6.6074   -7.9140   -1.3613 H   0  0  0  0  0  0  0  0  0  0  0  0
   -6.5840   -5.4110    0.0697 S   0  0  0  0  0  0  0  0  0  0  0  0
   -6.9840   -4.7883    1.3563 O   0  0  0  0  0  0  0  0  0  0  0  0
   -6.5216   -4.3946   -1.0643 O   0  0  0  0  0  0  0  0  0  0  0  0
   -5.3453   -6.2313    0.1175 O   0  0  0  0  0  0  0  0  0  0  0  0
  -11.1446   -9.1110   -1.6268 C   0  0  0  0  0  0  0  0  0  0  0  0
  -11.5044   -9.7009   -0.7745 H   0  0  0  0  0  0  0  0  0  0  0  0
  -12.0009   -8.5466   -2.0105 H   0  0  0  0  0  0  0  0  0  0  0  0
  -10.8284   -9.8149   -2.4023 H   0  0  0  0  0  0  0  0  0  0  0  0
  1  2  1  0  0  0  0
  1  8  2  0  0  0  0
  2  3  1  0  0  0  0
  4  5  2  0  0  0  0
  4  1  1  0  0  0  0
  5  6  1  0  0  0  0
  6 11  1  0  0  0  0
  6  7  2  0  0  0  0
  7 12  1  0  0  0  0
  8  7  1  0  0  0  0
  8 13  1  0  0  0  0
  9  4  1  0  0  0  0
 10  5  1  0  0  0  0
 14 20  1  0  0  0  0
 15 21  1  0  0  0  0
 15 14  2  0  0  0  0
 16 15  1  0  0  0  0
 17 16  2  0  0  0  0
 17 18  1  0  0  0  0
 18 19  2  0  0  0  0
 19 14  1  0  0  0  0
 19 24  1  0  0  0  0
 22 17  1  0  0  0  0
 23 18  1  0  0  0  0
 24 27  2  0  0  0  0
 24 25  1  0  0  0  0
 26 24  2  0  0  0  0
 28 16  1  0  0  0  0
 28 29  1  0  0  0  0
 30 28  1  0  0  0  0
 31 28  1  0  0  0  0
M  RAD  3   2   2   3   3  25   2
M  END
