Coordinates from ORCA-job PhN2+~TsO-_B3LYPG-6-31G_dp-NX-Scan-d89-09-n800
 OpenBabel11261920463D

 31 32  0  0  1  0  0  0  0  0999 V2000
   -5.3652   -1.3565   -0.6970 C   0  0  2  0  0  0  0  0  0  0  0  0
   -6.6322   -1.7173   -0.5939 N   0  0  0  0  0  0  0  0  0  0  0  0
   -7.6241   -2.2577   -0.4878 N   0  0  0  0  0  0  0  0  0  0  0  0
   -4.7572   -1.9937   -1.9095 C   0  0  0  0  0  0  0  0  0  0  0  0
   -4.2079   -3.1995   -1.7143 C   0  0  0  0  0  0  0  0  0  0  0  0
   -4.4049   -3.8064   -0.3481 C   0  0  1  0  0  0  0  0  0  0  0  0
   -4.0893   -2.8028    0.7354 C   0  0  0  0  0  0  0  0  0  0  0  0
   -4.6463   -1.5919    0.5964 C   0  0  0  0  0  0  0  0  0  0  0  0
   -4.7964   -1.4977   -2.8752 H   0  0  0  0  0  0  0  0  0  0  0  0
   -3.6824   -3.7530   -2.4868 H   0  0  0  0  0  0  0  0  0  0  0  0
   -3.9004   -4.7618   -0.2155 H   0  0  0  0  0  0  0  0  0  0  0  0
   -3.4910   -3.0967    1.5926 H   0  0  0  0  0  0  0  0  0  0  0  0
   -4.6188   -0.8229    1.3629 H   0  0  0  0  0  0  0  0  0  0  0  0
   -8.9561   -5.4444   -0.1887 C   0  0  0  0  0  0  0  0  0  0  0  0
   -9.9377   -6.1134   -0.9163 C   0  0  0  0  0  0  0  0  0  0  0  0
   -9.6660   -7.3310   -1.5572 C   0  0  0  0  0  0  0  0  0  0  0  0
   -8.3738   -7.8668   -1.4553 C   0  0  0  0  0  0  0  0  0  0  0  0
   -7.3765   -7.2116   -0.7368 C   0  0  0  0  0  0  0  0  0  0  0  0
   -7.6787   -6.0010   -0.1117 C   0  0  0  0  0  0  0  0  0  0  0  0
   -9.1715   -4.5075    0.3108 H   0  0  0  0  0  0  0  0  0  0  0  0
  -10.9335   -5.6836   -0.9846 H   0  0  0  0  0  0  0  0  0  0  0  0
   -8.1464   -8.8121   -1.9403 H   0  0  0  0  0  0  0  0  0  0  0  0
   -6.3810   -7.6321   -0.6468 H   0  0  0  0  0  0  0  0  0  0  0  0
   -6.4094   -5.1691    0.8264 S   0  0  0  0  0  0  0  0  0  0  0  0
   -7.0303   -4.4449    1.9326 O   0  0  0  0  0  0  0  0  0  0  0  0
   -5.9099   -4.0701   -0.2967 O   0  0  0  0  0  0  0  0  0  0  0  0
   -5.3093   -6.1057    1.0804 O   0  0  0  0  0  0  0  0  0  0  0  0
  -10.7469   -8.0663   -2.3117 C   0  0  0  0  0  0  0  0  0  0  0  0
  -11.2508   -8.7933   -1.6627 H   0  0  0  0  0  0  0  0  0  0  0  0
  -11.5110   -7.3802   -2.6877 H   0  0  0  0  0  0  0  0  0  0  0  0
  -10.3366   -8.6196   -3.1614 H   0  0  0  0  0  0  0  0  0  0  0  0
  1  2  1  1  0  0  0
  1  8  1  0  0  0  0
  2  3  1  0  0  0  0
  4  5  2  0  0  0  0
  4  1  1  0  0  0  0
  5  6  1  0  0  0  0
  6 26  1  0  0  0  0
  6 11  1  1  0  0  0
  6  7  1  0  0  0  0
  7 12  1  0  0  0  0
  8  7  2  0  0  0  0
  8 13  1  0  0  0  0
  9  4  1  0  0  0  0
 10  5  1  0  0  0  0
 14 19  1  0  0  0  0
 14 20  1  0  0  0  0
 15 14  2  0  0  0  0
 16 17  2  0  0  0  0
 16 15  1  0  0  0  0
 17 18  1  0  0  0  0
 18 23  1  0  0  0  0
 18 19  2  0  0  0  0
 19 24  1  0  0  0  0
 21 15  1  0  0  0  0
 22 17  1  0  0  0  0
 24 27  2  0  0  0  0
 24 25  2  0  0  0  0
 26 24  1  0  0  0  0
 28 29  1  0  0  0  0
 28 16  1  0  0  0  0
 30 28  1  0  0  0  0
 31 28  1  0  0  0  0
M  RAD  3   1   2   2   2   3   3
M  END
