Coordinates from ORCA-job PhN2+~TsO-_B3LYPG-6-31G_dp-NX-Scan-d89-09-n800
 OpenBabel11261920463D

 31 32  0  0  0  0  0  0  0  0999 V2000
   -4.9082   -2.5194   -0.9454 C   0  0  0  0  0  0  0  0  0  0  0  0
   -6.3100   -2.6419   -1.0621 N   0  0  0  0  0  0  0  0  0  0  0  0
   -7.1652   -3.2820   -0.5205 N   0  0  0  0  0  0  0  0  0  0  0  0
   -4.3574   -1.5963   -1.8509 C   0  0  0  0  0  0  0  0  0  0  0  0
   -2.9884   -1.3531   -1.8542 C   0  0  0  0  0  0  0  0  0  0  0  0
   -2.1640   -2.0293   -0.9516 C   0  0  0  0  0  0  0  0  0  0  0  0
   -2.7117   -2.9471   -0.0509 C   0  0  0  0  0  0  0  0  0  0  0  0
   -4.0804   -3.2056   -0.0348 C   0  0  0  0  0  0  0  0  0  0  0  0
   -5.0246   -1.0843   -2.5357 H   0  0  0  0  0  0  0  0  0  0  0  0
   -2.5661   -0.6385   -2.5539 H   0  0  0  0  0  0  0  0  0  0  0  0
   -1.0944   -1.8399   -0.9475 H   0  0  0  0  0  0  0  0  0  0  0  0
   -2.0680   -3.4699    0.6497 H   0  0  0  0  0  0  0  0  0  0  0  0
   -4.5047   -3.9122    0.6623 H   0  0  0  0  0  0  0  0  0  0  0  0
   -9.7933   -5.4723   -0.3325 C   0  0  0  0  0  0  0  0  0  0  0  0
  -10.4617   -6.2976   -1.2344 C   0  0  0  0  0  0  0  0  0  0  0  0
  -10.0310   -7.6105   -1.4746 C   0  0  0  0  0  0  0  0  0  0  0  0
   -8.9042   -8.0819   -0.7851 C   0  0  0  0  0  0  0  0  0  0  0  0
   -8.2226   -7.2725    0.1204 C   0  0  0  0  0  0  0  0  0  0  0  0
   -8.6738   -5.9691    0.3362 C   0  0  0  0  0  0  0  0  0  0  0  0
  -10.1316   -4.4613   -0.1384 H   0  0  0  0  0  0  0  0  0  0  0  0
  -11.3353   -5.9172   -1.7570 H   0  0  0  0  0  0  0  0  0  0  0  0
   -8.5589   -9.0976   -0.9573 H   0  0  0  0  0  0  0  0  0  0  0  0
   -7.3603   -7.6426    0.6642 H   0  0  0  0  0  0  0  0  0  0  0  0
   -7.8013   -4.9240    1.4913 S   0  0  0  0  0  0  0  0  0  0  0  0
   -8.6962   -3.8546    1.9219 O   0  0  0  0  0  0  0  0  0  0  0  0
   -6.5898   -4.2818    0.5895 O   0  0  0  0  0  0  0  0  0  0  0  0
   -7.0957   -5.7676    2.4524 O   0  0  0  0  0  0  0  0  0  0  0  0
  -10.7835   -8.5065   -2.4284 C   0  0  0  0  0  0  0  0  0  0  0  0
  -11.5881   -9.0420   -1.9093 H   0  0  0  0  0  0  0  0  0  0  0  0
  -11.2446   -7.9328   -3.2374 H   0  0  0  0  0  0  0  0  0  0  0  0
  -10.1270   -9.2591   -2.8745 H   0  0  0  0  0  0  0  0  0  0  0  0
  1  8  2  0  0  0  0
  2  1  1  0  0  0  0
  2  3  1  0  0  0  0
  3 26  1  0  0  0  0
  4  1  1  0  0  0  0
  5  4  2  0  0  0  0
  5  6  1  0  0  0  0
  6 11  1  0  0  0  0
  6  7  2  0  0  0  0
  7  8  1  0  0  0  0
  7 12  1  0  0  0  0
  8 13  1  0  0  0  0
  9  4  1  0  0  0  0
 10  5  1  0  0  0  0
 14 20  1  0  0  0  0
 14 19  2  0  0  0  0
 15 14  1  0  0  0  0
 16 15  2  0  0  0  0
 16 17  1  0  0  0  0
 17 18  2  0  0  0  0
 18 19  1  0  0  0  0
 18 23  1  0  0  0  0
 19 24  1  0  0  0  0
 21 15  1  0  0  0  0
 22 17  1  0  0  0  0
 24 25  2  0  0  0  0
 24 27  2  0  0  0  0
 26 24  1  0  0  0  0
 28 29  1  0  0  0  0
 28 16  1  0  0  0  0
 30 28  1  0  0  0  0
 31 28  1  0  0  0  0
M  RAD  2   2   2   3   2
M  END
