Coordinates from ORCA-job PhN2+~TsO-_B3LYPG-6-31G_dp-NX-Scan-d89-09-n800
 OpenBabel11261920463D

 31 32  0  0  1  0  0  0  0  0999 V2000
   -5.3517   -1.3502   -0.7780 C   0  0  2  0  0  0  0  0  0  0  0  0
   -6.6096   -1.7448   -0.5791 N   0  0  0  0  0  0  0  0  0  0  0  0
   -7.4900   -2.4255   -0.3608 N   0  0  0  0  0  0  0  0  0  0  0  0
   -4.8157   -2.0947   -1.9633 C   0  0  0  0  0  0  0  0  0  0  0  0
   -4.2912   -3.3009   -1.7008 C   0  0  0  0  0  0  0  0  0  0  0  0
   -4.4388   -3.7984   -0.2891 C   0  0  1  0  0  0  0  0  0  0  0  0
   -4.0509   -2.7323    0.7008 C   0  0  0  0  0  0  0  0  0  0  0  0
   -4.5830   -1.5169    0.4978 C   0  0  0  0  0  0  0  0  0  0  0  0
   -4.8950   -1.6782   -2.9635 H   0  0  0  0  0  0  0  0  0  0  0  0
   -3.8186   -3.9261   -2.4527 H   0  0  0  0  0  0  0  0  0  0  0  0
   -3.9706   -4.7629   -0.1058 H   0  0  0  0  0  0  0  0  0  0  0  0
   -3.4234   -2.9804    1.5519 H   0  0  0  0  0  0  0  0  0  0  0  0
   -4.5071   -0.7008    1.2105 H   0  0  0  0  0  0  0  0  0  0  0  0
   -8.9922   -5.4814   -0.1024 C   0  0  0  0  0  0  0  0  0  0  0  0
   -9.9535   -6.1354   -0.8692 C   0  0  0  0  0  0  0  0  0  0  0  0
   -9.6429   -7.2994   -1.5880 C   0  0  0  0  0  0  0  0  0  0  0  0
   -8.3333   -7.7962   -1.5222 C   0  0  0  0  0  0  0  0  0  0  0  0
   -7.3558   -7.1545   -0.7648 C   0  0  0  0  0  0  0  0  0  0  0  0
   -7.6955   -5.9967   -0.0638 C   0  0  0  0  0  0  0  0  0  0  0  0
   -9.2377   -4.5874    0.4586 H   0  0  0  0  0  0  0  0  0  0  0  0
  -10.9638   -5.7368   -0.9077 H   0  0  0  0  0  0  0  0  0  0  0  0
   -8.0760   -8.7009   -2.0664 H   0  0  0  0  0  0  0  0  0  0  0  0
   -6.3471   -7.5476   -0.7021 H   0  0  0  0  0  0  0  0  0  0  0  0
   -6.4489   -5.1774    0.9173 S   0  0  0  0  0  0  0  0  0  0  0  0
   -7.0935   -4.5282    2.0558 O   0  0  0  0  0  0  0  0  0  0  0  0
   -5.9759   -3.9934   -0.1309 O   0  0  0  0  0  0  0  0  0  0  0  0
   -5.3290   -6.1021    1.1255 O   0  0  0  0  0  0  0  0  0  0  0  0
  -10.7022   -8.0198   -2.3862 C   0  0  0  0  0  0  0  0  0  0  0  0
  -11.2185   -8.7645   -1.7677 H   0  0  0  0  0  0  0  0  0  0  0  0
  -11.4606   -7.3273   -2.7624 H   0  0  0  0  0  0  0  0  0  0  0  0
  -10.2700   -8.5493   -3.2400 H   0  0  0  0  0  0  0  0  0  0  0  0
  1  2  1  1  0  0  0
  1  8  1  0  0  0  0
  2  3  1  0  0  0  0
  4  5  2  0  0  0  0
  4  1  1  0  0  0  0
  5  6  1  0  0  0  0
  6 26  1  0  0  0  0
  6 11  1  1  0  0  0
  6  7  1  0  0  0  0
  7 12  1  0  0  0  0
  8  7  2  0  0  0  0
  8 13  1  0  0  0  0
  9  4  1  0  0  0  0
 10  5  1  0  0  0  0
 14 19  1  0  0  0  0
 14 20  1  0  0  0  0
 15 14  2  0  0  0  0
 16 17  2  0  0  0  0
 16 15  1  0  0  0  0
 17 18  1  0  0  0  0
 18 23  1  0  0  0  0
 18 19  2  0  0  0  0
 19 24  1  0  0  0  0
 21 15  1  0  0  0  0
 22 17  1  0  0  0  0
 24 27  2  0  0  0  0
 24 25  2  0  0  0  0
 26 24  1  0  0  0  0
 28 29  1  0  0  0  0
 28 16  1  0  0  0  0
 30 28  1  0  0  0  0
 31 28  1  0  0  0  0
M  RAD  3   1   2   2   2   3   3
M  END
