Coordinates from ORCA-job PhN2+~TsO-_B3LYPG-6-31G_dp-NX-Scan-d89-09-n800
 OpenBabel11261920463D

 31 31  0  0  0  0  0  0  0  0999 V2000
   -3.7189   -0.4675   -0.0500 C   0  0  0  0  0  0  0  0  0  0  0  0
   -3.4464    0.7891    0.3820 N   0  0  0  0  0  0  0  0  0  0  0  0
   -3.2430    1.8306    0.7530 N   0  0  0  0  0  0  0  0  0  0  0  0
   -2.7904   -1.1008   -0.9140 C   0  0  0  0  0  0  0  0  0  0  0  0
   -3.1072   -2.3725   -1.3529 C   0  0  0  0  0  0  0  0  0  0  0  0
   -4.3072   -2.9905   -0.9564 C   0  0  0  0  0  0  0  0  0  0  0  0
   -5.2082   -2.3439   -0.0865 C   0  0  0  0  0  0  0  0  0  0  0  0
   -4.9284   -1.0745    0.3796 C   0  0  0  0  0  0  0  0  0  0  0  0
   -1.8810   -0.5910   -1.2110 H   0  0  0  0  0  0  0  0  0  0  0  0
   -2.4255   -2.8894   -2.0205 H   0  0  0  0  0  0  0  0  0  0  0  0
   -4.6048   -3.9781   -1.3169 H   0  0  0  0  0  0  0  0  0  0  0  0
   -6.1388   -2.8599    0.1831 H   0  0  0  0  0  0  0  0  0  0  0  0
   -5.6014   -0.5415    1.0428 H   0  0  0  0  0  0  0  0  0  0  0  0
   -9.6582   -6.2672   -0.3018 C   0  0  0  0  0  0  0  0  0  0  0  0
  -10.4609   -7.4033   -0.2227 C   0  0  0  0  0  0  0  0  0  0  0  0
  -10.0694   -8.6108   -0.8194 C   0  0  0  0  0  0  0  0  0  0  0  0
   -8.8462   -8.6469   -1.5009 C   0  0  0  0  0  0  0  0  0  0  0  0
   -8.0341   -7.5154   -1.5873 C   0  0  0  0  0  0  0  0  0  0  0  0
   -8.4423   -6.3251   -0.9866 C   0  0  0  0  0  0  0  0  0  0  0  0
   -9.9575   -5.3389    0.1731 H   0  0  0  0  0  0  0  0  0  0  0  0
  -11.4073   -7.3541    0.3113 H   0  0  0  0  0  0  0  0  0  0  0  0
   -8.5235   -9.5742   -1.9692 H   0  0  0  0  0  0  0  0  0  0  0  0
   -7.0809   -7.5467   -2.1033 H   0  0  0  0  0  0  0  0  0  0  0  0
   -7.4412   -4.8386   -1.1550 S   0  0  0  0  0  0  0  0  0  0  0  0
   -7.6069   -4.1190    0.1515 O   0  0  0  0  0  0  0  0  0  0  0  0
   -7.9606   -4.0771   -2.3151 O   0  0  0  0  0  0  0  0  0  0  0  0
   -6.0397   -5.3387   -1.3541 O   0  0  0  0  0  0  0  0  0  0  0  0
  -10.9325   -9.8455   -0.7026 C   0  0  0  0  0  0  0  0  0  0  0  0
  -10.7703  -10.3574    0.2553 H   0  0  0  0  0  0  0  0  0  0  0  0
  -11.9977   -9.5969   -0.7571 H   0  0  0  0  0  0  0  0  0  0  0  0
  -10.7111  -10.5647   -1.4971 H   0  0  0  0  0  0  0  0  0  0  0  0
  1  8  1  0  0  0  0
  1  2  1  0  0  0  0
  2  3  1  0  0  0  0
  4  1  2  0  0  0  0
  5  6  2  0  0  0  0
  5  4  1  0  0  0  0
  6  7  1  0  0  0  0
  7 12  1  0  0  0  0
  7  8  2  0  0  0  0
  8 13  1  0  0  0  0
  9  4  1  0  0  0  0
 10  5  1  0  0  0  0
 11  6  1  0  0  0  0
 14 15  1  0  0  0  0
 14 20  1  0  0  0  0
 15 21  1  0  0  0  0
 16 28  1  0  0  0  0
 16 15  2  0  0  0  0
 17 16  1  0  0  0  0
 18 17  2  0  0  0  0
 18 19  1  0  0  0  0
 19 14  2  0  0  0  0
 22 17  1  0  0  0  0
 23 18  1  0  0  0  0
 24 19  1  0  0  0  0
 24 25  1  0  0  0  0
 26 24  2  0  0  0  0
 27 24  2  0  0  0  0
 28 29  1  0  0  0  0
 30 28  1  0  0  0  0
 31 28  1  0  0  0  0
M  RAD  3   2   2   3   3  25   2
M  END
