Coordinates from ORCA-job PhN2+~TsO-_B3LYPG-6-31G_dp-NX-Scan-d89-09-n800
 OpenBabel11261920463D

 31 32  0  0  1  0  0  0  0  0999 V2000
   -4.9820   -0.8880   -0.9625 C   0  0  0  0  0  0  0  0  0  0  0  0
   -5.1318    0.3437   -1.3890 N   0  0  0  0  0  0  0  0  0  0  0  0
   -5.2666    1.4168   -1.7618 N   0  0  0  0  0  0  0  0  0  0  0  0
   -4.3966   -1.8879   -1.8320 C   0  0  0  0  0  0  0  0  0  0  0  0
   -4.2665   -3.1575   -1.4044 C   0  0  0  0  0  0  0  0  0  0  0  0
   -4.7697   -3.6153   -0.0746 C   0  0  1  0  0  0  0  0  0  0  0  0
   -5.2538   -2.5130    0.8123 C   0  0  0  0  0  0  0  0  0  0  0  0
   -5.3851   -1.2442    0.3838 C   0  0  0  0  0  0  0  0  0  0  0  0
   -4.0512   -1.5850   -2.8153 H   0  0  0  0  0  0  0  0  0  0  0  0
   -3.8172   -3.9101   -2.0435 H   0  0  0  0  0  0  0  0  0  0  0  0
   -4.0302   -4.2493    0.4272 H   0  0  0  0  0  0  0  0  0  0  0  0
   -5.5458   -2.7903    1.8191 H   0  0  0  0  0  0  0  0  0  0  0  0
   -5.7734   -0.4658    1.0333 H   0  0  0  0  0  0  0  0  0  0  0  0
   -8.7443   -6.2491    0.3223 C   0  0  0  0  0  0  0  0  0  0  0  0
   -9.8864   -6.7956   -0.2542 C   0  0  0  0  0  0  0  0  0  0  0  0
   -9.8000   -7.6698   -1.3499 C   0  0  0  0  0  0  0  0  0  0  0  0
   -8.5319   -7.9901   -1.8526 C   0  0  0  0  0  0  0  0  0  0  0  0
   -7.3755   -7.4528   -1.2894 C   0  0  0  0  0  0  0  0  0  0  0  0
   -7.4956   -6.5811   -0.2081 C   0  0  0  0  0  0  0  0  0  0  0  0
   -8.8091   -5.5860    1.1779 H   0  0  0  0  0  0  0  0  0  0  0  0
  -10.8616   -6.5446    0.1544 H   0  0  0  0  0  0  0  0  0  0  0  0
   -8.4474   -8.6721   -2.6941 H   0  0  0  0  0  0  0  0  0  0  0  0
   -6.3934   -7.7111   -1.6690 H   0  0  0  0  0  0  0  0  0  0  0  0
   -6.0249   -5.8883    0.5201 S   0  0  0  0  0  0  0  0  0  0  0  0
   -6.2871   -5.5244    1.9158 O   0  0  0  0  0  0  0  0  0  0  0  0
   -5.9443   -4.5232   -0.3779 O   0  0  0  0  0  0  0  0  0  0  0  0
   -4.8712   -6.7338    0.2010 O   0  0  0  0  0  0  0  0  0  0  0  0
  -11.0505   -8.2496   -1.9655 C   0  0  0  0  0  0  0  0  0  0  0  0
  -11.6545   -8.7737   -1.2163 H   0  0  0  0  0  0  0  0  0  0  0  0
  -11.6812   -7.4613   -2.3929 H   0  0  0  0  0  0  0  0  0  0  0  0
  -10.8131   -8.9582   -2.7632 H   0  0  0  0  0  0  0  0  0  0  0  0
  1  8  1  0  0  0  0
  2  1  1  0  0  0  0
  3  2  1  0  0  0  0
  4  5  1  0  0  0  0
  4  1  2  0  0  0  0
  5  6  1  0  0  0  0
  6 11  1  1  0  0  0
  6  7  1  0  0  0  0
  7 12  1  0  0  0  0
  8  7  2  0  0  0  0
  8 13  1  0  0  0  0
  9  4  1  0  0  0  0
 10  5  1  0  0  0  0
 14 20  1  0  0  0  0
 15 21  1  0  0  0  0
 15 14  2  0  0  0  0
 16 15  1  0  0  0  0
 17 16  2  0  0  0  0
 17 18  1  0  0  0  0
 18 19  2  0  0  0  0
 19 14  1  0  0  0  0
 19 24  1  0  0  0  0
 22 17  1  0  0  0  0
 23 18  1  0  0  0  0
 24 25  2  0  0  0  0
 26  6  1  0  0  0  0
 26 24  1  0  0  0  0
 27 24  2  0  0  0  0
 28 16  1  0  0  0  0
 28 29  1  0  0  0  0
 30 28  1  0  0  0  0
 31 28  1  0  0  0  0
M  RAD  3   2   2   3   3   5   2
M  END
