Coordinates from ORCA-job PhN2+~TsO-_B3LYPG-6-31G_dp-NX-Scan-d89-09-n800
 OpenBabel11261920463D

 31 32  0  0  1  0  0  0  0  0999 V2000
   -5.3610   -1.3750   -0.6786 C   0  0  2  0  0  0  0  0  0  0  0  0
   -6.6034   -0.9653   -0.7344 N   0  0  0  0  0  0  0  0  0  0  0  0
   -7.7096   -0.6979   -0.7774 N   0  0  0  0  0  0  0  0  0  0  0  0
   -4.8111   -2.0247   -1.8702 C   0  0  0  0  0  0  0  0  0  0  0  0
   -4.1924   -3.2038   -1.6909 C   0  0  0  0  0  0  0  0  0  0  0  0
   -4.3517   -3.8484   -0.3467 C   0  0  1  0  0  0  0  0  0  0  0  0
   -4.1782   -2.8642    0.7738 C   0  0  0  0  0  0  0  0  0  0  0  0
   -4.7977   -1.6801    0.6386 C   0  0  0  0  0  0  0  0  0  0  0  0
   -4.9109   -1.5439   -2.8389 H   0  0  0  0  0  0  0  0  0  0  0  0
   -3.6904   -3.7315   -2.4944 H   0  0  0  0  0  0  0  0  0  0  0  0
   -3.7633   -4.7563   -0.2217 H   0  0  0  0  0  0  0  0  0  0  0  0
   -3.6696   -3.1603    1.6847 H   0  0  0  0  0  0  0  0  0  0  0  0
   -4.8950   -0.9603    1.4458 H   0  0  0  0  0  0  0  0  0  0  0  0
   -8.8744   -5.5652   -0.1413 C   0  0  0  0  0  0  0  0  0  0  0  0
   -9.8908   -6.2011   -0.8473 C   0  0  0  0  0  0  0  0  0  0  0  0
   -9.6590   -7.4083   -1.5262 C   0  0  0  0  0  0  0  0  0  0  0  0
   -8.3745   -7.9656   -1.4800 C   0  0  0  0  0  0  0  0  0  0  0  0
   -7.3411   -7.3406   -0.7825 C   0  0  0  0  0  0  0  0  0  0  0  0
   -7.6022   -6.1416   -0.1216 C   0  0  0  0  0  0  0  0  0  0  0  0
   -9.0593   -4.6418    0.3961 H   0  0  0  0  0  0  0  0  0  0  0  0
  -10.8828   -5.7569   -0.8687 H   0  0  0  0  0  0  0  0  0  0  0  0
   -8.1804   -8.9040   -1.9916 H   0  0  0  0  0  0  0  0  0  0  0  0
   -6.3497   -7.7780   -0.7363 H   0  0  0  0  0  0  0  0  0  0  0  0
   -6.2914   -5.3370    0.7830 S   0  0  0  0  0  0  0  0  0  0  0  0
   -6.8755   -4.6078    1.9081 O   0  0  0  0  0  0  0  0  0  0  0  0
   -5.8161   -4.2702   -0.3665 O   0  0  0  0  0  0  0  0  0  0  0  0
   -5.1986   -6.2887    1.0129 O   0  0  0  0  0  0  0  0  0  0  0  0
  -10.7787   -8.0908   -2.2742 C   0  0  0  0  0  0  0  0  0  0  0  0
  -11.5657   -8.4234   -1.5876 H   0  0  0  0  0  0  0  0  0  0  0  0
  -11.2469   -7.4107   -2.9943 H   0  0  0  0  0  0  0  0  0  0  0  0
  -10.4205   -8.9670   -2.8205 H   0  0  0  0  0  0  0  0  0  0  0  0
  1  2  1  1  0  0  0
  1  8  1  0  0  0  0
  3  2  1  0  0  0  0
  4  5  2  0  0  0  0
  4  1  1  0  0  0  0
  5  6  1  0  0  0  0
  6 11  1  1  0  0  0
  6  7  1  0  0  0  0
  7 12  1  0  0  0  0
  8  7  2  0  0  0  0
  8 13  1  0  0  0  0
  9  4  1  0  0  0  0
 10  5  1  0  0  0  0
 14 19  1  0  0  0  0
 14 20  1  0  0  0  0
 15 14  2  0  0  0  0
 16 17  2  0  0  0  0
 16 15  1  0  0  0  0
 17 18  1  0  0  0  0
 18 23  1  0  0  0  0
 18 19  2  0  0  0  0
 19 24  1  0  0  0  0
 21 15  1  0  0  0  0
 22 17  1  0  0  0  0
 24 27  2  0  0  0  0
 24 25  2  0  0  0  0
 26  6  1  0  0  0  0
 26 24  1  0  0  0  0
 28 29  1  0  0  0  0
 28 16  1  0  0  0  0
 30 28  1  0  0  0  0
 31 28  1  0  0  0  0
M  RAD  3   1   2   2   2   3   3
M  END
