Coordinates from ORCA-job PhN2+~TsO-_B3LYPG-6-31G_dp-NX-Scan-d89-09-n800
 OpenBabel11261920463D

 31 31  0  0  0  0  0  0  0  0999 V2000
   -3.8917   -0.4054   -0.2744 C   0  0  0  0  0  0  0  0  0  0  0  0
   -3.7448    0.9265   -0.0640 N   0  0  0  0  0  0  0  0  0  0  0  0
   -3.6419    2.0302    0.1219 N   0  0  0  0  0  0  0  0  0  0  0  0
   -2.9871   -1.0518   -1.1537 C   0  0  0  0  0  0  0  0  0  0  0  0
   -3.1758   -2.4043   -1.3664 C   0  0  0  0  0  0  0  0  0  0  0  0
   -4.2277   -3.0909   -0.7330 C   0  0  0  0  0  0  0  0  0  0  0  0
   -5.1088   -2.4258    0.1440 C   0  0  0  0  0  0  0  0  0  0  0  0
   -4.9549   -1.0755    0.3865 C   0  0  0  0  0  0  0  0  0  0  0  0
   -2.1925   -0.4911   -1.6330 H   0  0  0  0  0  0  0  0  0  0  0  0
   -2.5101   -2.9352   -2.0390 H   0  0  0  0  0  0  0  0  0  0  0  0
   -4.4244   -4.1494   -0.9236 H   0  0  0  0  0  0  0  0  0  0  0  0
   -5.9335   -2.9949    0.5871 H   0  0  0  0  0  0  0  0  0  0  0  0
   -5.6213   -0.5272    1.0437 H   0  0  0  0  0  0  0  0  0  0  0  0
   -9.5198   -6.3134   -0.1352 C   0  0  0  0  0  0  0  0  0  0  0  0
  -10.4249   -7.3694   -0.2195 C   0  0  0  0  0  0  0  0  0  0  0  0
  -10.1225   -8.5269   -0.9520 C   0  0  0  0  0  0  0  0  0  0  0  0
   -8.8826   -8.5957   -1.6000 C   0  0  0  0  0  0  0  0  0  0  0  0
   -7.9684   -7.5440   -1.5236 C   0  0  0  0  0  0  0  0  0  0  0  0
   -8.2895   -6.4026   -0.7902 C   0  0  0  0  0  0  0  0  0  0  0  0
   -9.7497   -5.4261    0.4449 H   0  0  0  0  0  0  0  0  0  0  0  0
  -11.3816   -7.2970    0.2930 H   0  0  0  0  0  0  0  0  0  0  0  0
   -8.6271   -9.4866   -2.1698 H   0  0  0  0  0  0  0  0  0  0  0  0
   -7.0027   -7.6031   -2.0133 H   0  0  0  0  0  0  0  0  0  0  0  0
   -7.1494   -5.0105   -0.7427 S   0  0  0  0  0  0  0  0  0  0  0  0
   -7.3177   -4.4200    0.6255 O   0  0  0  0  0  0  0  0  0  0  0  0
   -7.5341   -4.0745   -1.8293 O   0  0  0  0  0  0  0  0  0  0  0  0
   -5.7904   -5.6135   -0.9457 O   0  0  0  0  0  0  0  0  0  0  0  0
  -11.0985   -9.6787   -1.0134 C   0  0  0  0  0  0  0  0  0  0  0  0
  -11.0555  -10.2875   -0.1006 H   0  0  0  0  0  0  0  0  0  0  0  0
  -12.1302   -9.3257   -1.1150 H   0  0  0  0  0  0  0  0  0  0  0  0
  -10.8827  -10.3404   -1.8576 H   0  0  0  0  0  0  0  0  0  0  0  0
  1  2  1  0  0  0  0
  1  8  2  0  0  0  0
  2  3  1  0  0  0  0
  4  1  1  0  0  0  0
  5  4  2  0  0  0  0
  5  6  1  0  0  0  0
  6  7  2  0  0  0  0
  7  8  1  0  0  0  0
  7 12  1  0  0  0  0
  8 13  1  0  0  0  0
  9  4  1  0  0  0  0
 10  5  1  0  0  0  0
 11  6  1  0  0  0  0
 14 20  1  0  0  0  0
 15 14  1  0  0  0  0
 15 21  1  0  0  0  0
 16 15  2  0  0  0  0
 17 18  2  0  0  0  0
 17 16  1  0  0  0  0
 18 19  1  0  0  0  0
 19 24  1  0  0  0  0
 19 14  2  0  0  0  0
 22 17  1  0  0  0  0
 23 18  1  0  0  0  0
 24 25  1  0  0  0  0
 26 24  2  0  0  0  0
 27 24  2  0  0  0  0
 28 16  1  0  0  0  0
 28 29  1  0  0  0  0
 30 28  1  0  0  0  0
 31 28  1  0  0  0  0
M  RAD  3   2   2   3   3  25   2
M  END
