Coordinates from ORCA-job PhN2+~TsO-_B3LYPG-6-31G_dp-NX-Scan-d89-09-n800
 OpenBabel11261920463D

 31 32  0  0  1  0  0  0  0  0999 V2000
   -5.2282   -1.1291   -1.0130 C   0  0  0  0  0  0  0  0  0  0  0  0
   -5.7886   -0.0861   -1.5750 N   0  0  0  0  0  0  0  0  0  0  0  0
   -6.2995    0.8061   -2.0712 N   0  0  0  0  0  0  0  0  0  0  0  0
   -4.4492   -2.0443   -1.8211 C   0  0  0  0  0  0  0  0  0  0  0  0
   -4.0716   -3.2241   -1.2960 C   0  0  0  0  0  0  0  0  0  0  0  0
   -4.5808   -3.6723    0.0330 C   0  0  1  0  0  0  0  0  0  0  0  0
   -5.0511   -2.5642    0.9165 C   0  0  0  0  0  0  0  0  0  0  0  0
   -5.4321   -1.3820    0.3995 C   0  0  0  0  0  0  0  0  0  0  0  0
   -4.1674   -1.7461   -2.8259 H   0  0  0  0  0  0  0  0  0  0  0  0
   -3.4670   -3.9209   -1.8668 H   0  0  0  0  0  0  0  0  0  0  0  0
   -3.8734   -4.3380    0.5332 H   0  0  0  0  0  0  0  0  0  0  0  0
   -5.1775   -2.7798    1.9716 H   0  0  0  0  0  0  0  0  0  0  0  0
   -5.8715   -0.6009    1.0122 H   0  0  0  0  0  0  0  0  0  0  0  0
   -8.6889   -6.1483    0.3259 C   0  0  0  0  0  0  0  0  0  0  0  0
   -9.8403   -6.6399   -0.2809 C   0  0  0  0  0  0  0  0  0  0  0  0
   -9.7673   -7.4923   -1.3945 C   0  0  0  0  0  0  0  0  0  0  0  0
   -8.5034   -7.8470   -1.8844 C   0  0  0  0  0  0  0  0  0  0  0  0
   -7.3379   -7.3648   -1.2906 C   0  0  0  0  0  0  0  0  0  0  0  0
   -7.4442   -6.5138   -0.1916 C   0  0  0  0  0  0  0  0  0  0  0  0
   -8.7436   -5.5028    1.1956 H   0  0  0  0  0  0  0  0  0  0  0  0
  -10.8125   -6.3627    0.1177 H   0  0  0  0  0  0  0  0  0  0  0  0
   -8.4294   -8.5124   -2.7401 H   0  0  0  0  0  0  0  0  0  0  0  0
   -6.3596   -7.6506   -1.6603 H   0  0  0  0  0  0  0  0  0  0  0  0
   -5.9617   -5.8917    0.5764 S   0  0  0  0  0  0  0  0  0  0  0  0
   -6.2396   -5.5391    1.9720 O   0  0  0  0  0  0  0  0  0  0  0  0
   -5.8023   -4.5211   -0.3001 O   0  0  0  0  0  0  0  0  0  0  0  0
   -4.8378   -6.7816    0.2707 O   0  0  0  0  0  0  0  0  0  0  0  0
  -11.0276   -8.0149   -2.0407 C   0  0  0  0  0  0  0  0  0  0  0  0
  -11.6483   -8.5559   -1.3174 H   0  0  0  0  0  0  0  0  0  0  0  0
  -11.6370   -7.1948   -2.4375 H   0  0  0  0  0  0  0  0  0  0  0  0
  -10.8025   -8.6952   -2.8662 H   0  0  0  0  0  0  0  0  0  0  0  0
  1  8  1  0  0  0  0
  2  1  1  0  0  0  0
  3  2  1  0  0  0  0
  4  5  1  0  0  0  0
  4  1  2  0  0  0  0
  5  6  1  0  0  0  0
  6 11  1  1  0  0  0
  6  7  1  0  0  0  0
  7 12  1  0  0  0  0
  8  7  2  0  0  0  0
  8 13  1  0  0  0  0
  9  4  1  0  0  0  0
 10  5  1  0  0  0  0
 14 20  1  0  0  0  0
 15 21  1  0  0  0  0
 15 14  2  0  0  0  0
 16 15  1  0  0  0  0
 17 16  2  0  0  0  0
 17 18  1  0  0  0  0
 18 19  2  0  0  0  0
 19 14  1  0  0  0  0
 19 24  1  0  0  0  0
 22 17  1  0  0  0  0
 23 18  1  0  0  0  0
 24 25  2  0  0  0  0
 26  6  1  0  0  0  0
 26 24  1  0  0  0  0
 27 24  2  0  0  0  0
 28 16  1  0  0  0  0
 28 29  1  0  0  0  0
 30 28  1  0  0  0  0
 31 28  1  0  0  0  0
M  RAD  3   2   2   3   3   5   2
M  END
