Coordinates from ORCA-job PhN2+~TsO-_B3LYPG-6-31G_dp-NX-Scan-d89-09-n800
 OpenBabel11261920463D

 31 31  0  0  0  0  0  0  0  0999 V2000
   -4.6030   -2.3299   -1.1450 C   0  0  0  0  0  0  0  0  0  0  0  0
   -5.8938   -2.6499   -1.5988 N   0  0  0  0  0  0  0  0  0  0  0  0
   -6.7633   -3.4124   -1.5132 N   0  0  0  0  0  0  0  0  0  0  0  0
   -4.0635   -1.1347   -1.6413 C   0  0  0  0  0  0  0  0  0  0  0  0
   -2.7947   -0.7458   -1.2264 C   0  0  0  0  0  0  0  0  0  0  0  0
   -2.0832   -1.5468   -0.3279 C   0  0  0  0  0  0  0  0  0  0  0  0
   -2.6351   -2.7368    0.1577 C   0  0  0  0  0  0  0  0  0  0  0  0
   -3.9024   -3.1499   -0.2430 C   0  0  0  0  0  0  0  0  0  0  0  0
   -4.6448   -0.5348   -2.3329 H   0  0  0  0  0  0  0  0  0  0  0  0
   -2.3637    0.1773   -1.5986 H   0  0  0  0  0  0  0  0  0  0  0  0
   -1.0932   -1.2420   -0.0035 H   0  0  0  0  0  0  0  0  0  0  0  0
   -2.0754   -3.3508    0.8560 H   0  0  0  0  0  0  0  0  0  0  0  0
   -4.3609   -4.0627    0.1145 H   0  0  0  0  0  0  0  0  0  0  0  0
   -9.7108   -5.6071   -0.6446 C   0  0  0  0  0  0  0  0  0  0  0  0
  -10.6283   -6.4656   -1.2489 C   0  0  0  0  0  0  0  0  0  0  0  0
  -10.4345   -7.8537   -1.2442 C   0  0  0  0  0  0  0  0  0  0  0  0
   -9.2895   -8.3650   -0.6155 C   0  0  0  0  0  0  0  0  0  0  0  0
   -8.3633   -7.5209   -0.0071 C   0  0  0  0  0  0  0  0  0  0  0  0
   -8.5790   -6.1419   -0.0292 C   0  0  0  0  0  0  0  0  0  0  0  0
   -9.8691   -4.5341   -0.6341 H   0  0  0  0  0  0  0  0  0  0  0  0
  -11.5123   -6.0513   -1.7271 H   0  0  0  0  0  0  0  0  0  0  0  0
   -9.1242   -9.4398   -0.5983 H   0  0  0  0  0  0  0  0  0  0  0  0
   -7.4870   -7.9192    0.4927 H   0  0  0  0  0  0  0  0  0  0  0  0
   -7.3784   -5.0473    0.7275 S   0  0  0  0  0  0  0  0  0  0  0  0
   -8.0525   -3.7717    1.0072 O   0  0  0  0  0  0  0  0  0  0  0  0
   -6.2872   -4.8367   -0.3970 O   0  0  0  0  0  0  0  0  0  0  0  0
   -6.7301   -5.7827    1.8196 O   0  0  0  0  0  0  0  0  0  0  0  0
  -11.4511   -8.7799   -1.8682 C   0  0  0  0  0  0  0  0  0  0  0  0
  -12.1915   -9.1069   -1.1275 H   0  0  0  0  0  0  0  0  0  0  0  0
  -11.9970   -8.2878   -2.6786 H   0  0  0  0  0  0  0  0  0  0  0  0
  -10.9791   -9.6799   -2.2730 H   0  0  0  0  0  0  0  0  0  0  0  0
  1  8  2  0  0  0  0
  2  3  2  0  0  0  0
  2  1  1  0  0  0  0
  4  5  2  0  0  0  0
  4  1  1  0  0  0  0
  5  6  1  0  0  0  0
  6 11  1  0  0  0  0
  6  7  2  0  0  0  0
  7 12  1  0  0  0  0
  8 13  1  0  0  0  0
  8  7  1  0  0  0  0
  9  4  1  0  0  0  0
 10  5  1  0  0  0  0
 14 20  1  0  0  0  0
 14 19  2  0  0  0  0
 15 16  2  0  0  0  0
 15 14  1  0  0  0  0
 16 17  1  0  0  0  0
 17 22  1  0  0  0  0
 17 18  2  0  0  0  0
 18 23  1  0  0  0  0
 19 18  1  0  0  0  0
 19 24  1  0  0  0  0
 21 15  1  0  0  0  0
 24 25  2  0  0  0  0
 24 27  1  0  0  0  0
 26 24  2  0  0  0  0
 28 16  1  0  0  0  0
 28 29  1  0  0  0  0
 30 28  1  0  0  0  0
 31 28  1  0  0  0  0
M  RAD  2   3   2  27   2
M  END
