Coordinates from ORCA-job PhN2+~TsO-_B3LYPG-6-31G_dp-NX-Scan-d89-09-n800
 OpenBabel11261920463D

 31 32  0  0  1  0  0  0  0  0999 V2000
   -5.4288   -1.3798   -0.6435 C   0  0  2  0  0  0  0  0  0  0  0  0
   -6.7179   -1.6349   -0.5803 N   0  0  0  0  0  0  0  0  0  0  0  0
   -7.7903   -2.0059   -0.5179 N   0  0  0  0  0  0  0  0  0  0  0  0
   -4.8082   -1.9546   -1.8722 C   0  0  0  0  0  0  0  0  0  0  0  0
   -4.1919   -3.1341   -1.7198 C   0  0  0  0  0  0  0  0  0  0  0  0
   -4.3636   -3.8023   -0.3800 C   0  0  1  0  0  0  0  0  0  0  0  0
   -4.1124   -2.8282    0.7456 C   0  0  0  0  0  0  0  0  0  0  0  0
   -4.7316   -1.6442    0.6482 C   0  0  0  0  0  0  0  0  0  0  0  0
   -4.8813   -1.4314   -2.8214 H   0  0  0  0  0  0  0  0  0  0  0  0
   -3.6448   -3.6322   -2.5141 H   0  0  0  0  0  0  0  0  0  0  0  0
   -3.8089   -4.7337   -0.2792 H   0  0  0  0  0  0  0  0  0  0  0  0
   -3.5164   -3.1262    1.6026 H   0  0  0  0  0  0  0  0  0  0  0  0
   -4.7609   -0.9108    1.4487 H   0  0  0  0  0  0  0  0  0  0  0  0
   -8.8651   -5.4257   -0.2651 C   0  0  0  0  0  0  0  0  0  0  0  0
   -9.8716   -6.0771   -0.9714 C   0  0  0  0  0  0  0  0  0  0  0  0
   -9.6597   -7.3423   -1.5422 C   0  0  0  0  0  0  0  0  0  0  0  0
   -8.4026   -7.9418   -1.3912 C   0  0  0  0  0  0  0  0  0  0  0  0
   -7.3781   -7.3036   -0.6927 C   0  0  0  0  0  0  0  0  0  0  0  0
   -7.6211   -6.0482   -0.1376 C   0  0  0  0  0  0  0  0  0  0  0  0
   -9.0347   -4.4514    0.1778 H   0  0  0  0  0  0  0  0  0  0  0  0
  -10.8407   -5.5966   -1.0799 H   0  0  0  0  0  0  0  0  0  0  0  0
   -8.2219   -8.9225   -1.8222 H   0  0  0  0  0  0  0  0  0  0  0  0
   -6.4072   -7.7704   -0.5677 H   0  0  0  0  0  0  0  0  0  0  0  0
   -6.3217   -5.2370    0.7758 S   0  0  0  0  0  0  0  0  0  0  0  0
   -6.9082   -4.5074    1.8977 O   0  0  0  0  0  0  0  0  0  0  0  0
   -5.8425   -4.1525   -0.3670 O   0  0  0  0  0  0  0  0  0  0  0  0
   -5.2235   -6.1822    1.0044 O   0  0  0  0  0  0  0  0  0  0  0  0
  -10.7733   -8.0454   -2.2799 C   0  0  0  0  0  0  0  0  0  0  0  0
  -11.5122   -8.4518   -1.5786 H   0  0  0  0  0  0  0  0  0  0  0  0
  -11.3055   -7.3587   -2.9461 H   0  0  0  0  0  0  0  0  0  0  0  0
  -10.3953   -8.8777   -2.8793 H   0  0  0  0  0  0  0  0  0  0  0  0
  1  2  1  1  0  0  0
  1  8  1  0  0  0  0
  2  3  1  0  0  0  0
  4  5  2  0  0  0  0
  4  1  1  0  0  0  0
  5  6  1  0  0  0  0
  6 26  1  0  0  0  0
  6 11  1  1  0  0  0
  6  7  1  0  0  0  0
  7 12  1  0  0  0  0
  8  7  2  0  0  0  0
  8 13  1  0  0  0  0
  9  4  1  0  0  0  0
 10  5  1  0  0  0  0
 14 19  1  0  0  0  0
 14 20  1  0  0  0  0
 15 14  2  0  0  0  0
 16 17  2  0  0  0  0
 16 15  1  0  0  0  0
 17 18  1  0  0  0  0
 18 23  1  0  0  0  0
 18 19  2  0  0  0  0
 19 24  1  0  0  0  0
 21 15  1  0  0  0  0
 22 17  1  0  0  0  0
 24 27  2  0  0  0  0
 24 25  2  0  0  0  0
 26 24  1  0  0  0  0
 28 29  1  0  0  0  0
 28 16  1  0  0  0  0
 30 28  1  0  0  0  0
 31 28  1  0  0  0  0
M  RAD  3   1   2   2   2   3   3
M  END
