Coordinates from ORCA-job PhN2+~TsO-_B3LYPG-6-31G_dp-NX-Scan-d89-09-n800
 OpenBabel11261920463D

 31 32  0  0  1  0  0  0  0  0999 V2000
   -5.3832   -1.3833   -0.6675 C   0  0  2  0  0  0  0  0  0  0  0  0
   -6.6480   -1.0459   -0.7093 N   0  0  0  0  0  0  0  0  0  0  0  0
   -7.7687   -0.8452   -0.7399 N   0  0  0  0  0  0  0  0  0  0  0  0
   -4.8210   -2.0143   -1.8659 C   0  0  0  0  0  0  0  0  0  0  0  0
   -4.1877   -3.1865   -1.6953 C   0  0  0  0  0  0  0  0  0  0  0  0
   -4.3427   -3.8423   -0.3551 C   0  0  1  0  0  0  0  0  0  0  0  0
   -4.1707   -2.8629    0.7709 C   0  0  0  0  0  0  0  0  0  0  0  0
   -4.8046   -1.6857    0.6460 C   0  0  0  0  0  0  0  0  0  0  0  0
   -4.9257   -1.5265   -2.8307 H   0  0  0  0  0  0  0  0  0  0  0  0
   -3.6748   -3.7011   -2.5005 H   0  0  0  0  0  0  0  0  0  0  0  0
   -3.7501   -4.7483   -0.2368 H   0  0  0  0  0  0  0  0  0  0  0  0
   -3.6493   -3.1578    1.6751 H   0  0  0  0  0  0  0  0  0  0  0  0
   -4.9048   -0.9706    1.4571 H   0  0  0  0  0  0  0  0  0  0  0  0
   -8.8531   -5.5345   -0.1788 C   0  0  0  0  0  0  0  0  0  0  0  0
   -9.8728   -6.1677   -0.8824 C   0  0  0  0  0  0  0  0  0  0  0  0
   -9.6569   -7.3964   -1.5272 C   0  0  0  0  0  0  0  0  0  0  0  0
   -8.3845   -7.9774   -1.4506 C   0  0  0  0  0  0  0  0  0  0  0  0
   -7.3475   -7.3554   -0.7557 C   0  0  0  0  0  0  0  0  0  0  0  0
   -7.5931   -6.1356   -0.1277 C   0  0  0  0  0  0  0  0  0  0  0  0
   -9.0264   -4.5934    0.3309 H   0  0  0  0  0  0  0  0  0  0  0  0
  -10.8550   -5.7041   -0.9288 H   0  0  0  0  0  0  0  0  0  0  0  0
   -8.2024   -8.9316   -1.9368 H   0  0  0  0  0  0  0  0  0  0  0  0
   -6.3650   -7.8096   -0.6869 H   0  0  0  0  0  0  0  0  0  0  0  0
   -6.2783   -5.3356    0.7747 S   0  0  0  0  0  0  0  0  0  0  0  0
   -6.8573   -4.6050    1.9015 O   0  0  0  0  0  0  0  0  0  0  0  0
   -5.8048   -4.2691   -0.3762 O   0  0  0  0  0  0  0  0  0  0  0  0
   -5.1869   -6.2896    1.0012 O   0  0  0  0  0  0  0  0  0  0  0  0
  -10.7813   -8.0769   -2.2700 C   0  0  0  0  0  0  0  0  0  0  0  0
  -11.5663   -8.4063   -1.5793 H   0  0  0  0  0  0  0  0  0  0  0  0
  -11.2508   -7.3968   -2.9891 H   0  0  0  0  0  0  0  0  0  0  0  0
  -10.4279   -8.9553   -2.8157 H   0  0  0  0  0  0  0  0  0  0  0  0
  1  2  1  1  0  0  0
  1  8  1  0  0  0  0
  3  2  1  0  0  0  0
  4  5  2  0  0  0  0
  4  1  1  0  0  0  0
  5  6  1  0  0  0  0
  6 11  1  1  0  0  0
  6  7  1  0  0  0  0
  7 12  1  0  0  0  0
  8  7  2  0  0  0  0
  8 13  1  0  0  0  0
  9  4  1  0  0  0  0
 10  5  1  0  0  0  0
 14 19  1  0  0  0  0
 14 20  1  0  0  0  0
 15 14  2  0  0  0  0
 16 17  2  0  0  0  0
 16 15  1  0  0  0  0
 17 18  1  0  0  0  0
 18 23  1  0  0  0  0
 18 19  2  0  0  0  0
 19 24  1  0  0  0  0
 21 15  1  0  0  0  0
 22 17  1  0  0  0  0
 24 27  2  0  0  0  0
 24 25  2  0  0  0  0
 26  6  1  0  0  0  0
 26 24  1  0  0  0  0
 28 29  1  0  0  0  0
 28 16  1  0  0  0  0
 30 28  1  0  0  0  0
 31 28  1  0  0  0  0
M  RAD  3   1   2   2   2   3   3
M  END
