Coordinates from ORCA-job PhN2+~TsO-_B3LYPG-6-31G_dp-NX-Scan-d89-09-n800
 OpenBabel11261920463D

 31 31  0  0  0  0  0  0  0  0999 V2000
   -3.9693   -0.3873   -0.3320 C   0  0  0  0  0  0  0  0  0  0  0  0
   -3.7116    0.9157   -0.0661 N   0  0  0  0  0  0  0  0  0  0  0  0
   -3.4915    1.9942    0.1687 N   0  0  0  0  0  0  0  0  0  0  0  0
   -3.3305   -0.9821   -1.4507 C   0  0  0  0  0  0  0  0  0  0  0  0
   -3.5812   -2.3192   -1.6853 C   0  0  0  0  0  0  0  0  0  0  0  0
   -4.4410   -3.0509   -0.8429 C   0  0  0  0  0  0  0  0  0  0  0  0
   -5.0831   -2.4306    0.2515 C   0  0  0  0  0  0  0  0  0  0  0  0
   -4.8558   -1.0979    0.5242 C   0  0  0  0  0  0  0  0  0  0  0  0
   -2.6691   -0.3956   -2.0788 H   0  0  0  0  0  0  0  0  0  0  0  0
   -3.1062   -2.8109   -2.5273 H   0  0  0  0  0  0  0  0  0  0  0  0
   -4.6080   -4.1155   -1.0018 H   0  0  0  0  0  0  0  0  0  0  0  0
   -5.7800   -3.0224    0.8491 H   0  0  0  0  0  0  0  0  0  0  0  0
   -5.3294   -0.5914    1.3579 H   0  0  0  0  0  0  0  0  0  0  0  0
   -9.4545   -6.2740   -0.1841 C   0  0  0  0  0  0  0  0  0  0  0  0
  -10.4250   -7.2480   -0.4032 C   0  0  0  0  0  0  0  0  0  0  0  0
  -10.1080   -8.4570   -1.0421 C   0  0  0  0  0  0  0  0  0  0  0  0
   -8.7857   -8.6618   -1.4563 C   0  0  0  0  0  0  0  0  0  0  0  0
   -7.8048   -7.6924   -1.2445 C   0  0  0  0  0  0  0  0  0  0  0  0
   -8.1417   -6.4984   -0.6077 C   0  0  0  0  0  0  0  0  0  0  0  0
   -9.6987   -5.3478    0.3248 H   0  0  0  0  0  0  0  0  0  0  0  0
  -11.4452   -7.0725   -0.0693 H   0  0  0  0  0  0  0  0  0  0  0  0
   -8.5193   -9.5946   -1.9477 H   0  0  0  0  0  0  0  0  0  0  0  0
   -6.7777   -7.8531   -1.5529 H   0  0  0  0  0  0  0  0  0  0  0  0
   -6.8953   -5.2230   -0.3788 S   0  0  0  0  0  0  0  0  0  0  0  0
   -7.1964   -4.5994    0.9457 O   0  0  0  0  0  0  0  0  0  0  0  0
   -7.0629   -4.2616   -1.5172 O   0  0  0  0  0  0  0  0  0  0  0  0
   -5.5751   -5.9187   -0.4332 O   0  0  0  0  0  0  0  0  0  0  0  0
  -11.1635   -9.5180   -1.2499 C   0  0  0  0  0  0  0  0  0  0  0  0
  -11.3858  -10.0472   -0.3146 H   0  0  0  0  0  0  0  0  0  0  0  0
  -12.1046   -9.0837   -1.6033 H   0  0  0  0  0  0  0  0  0  0  0  0
  -10.8409  -10.2652   -1.9809 H   0  0  0  0  0  0  0  0  0  0  0  0
  1  2  1  0  0  0  0
  1  8  2  0  0  0  0
  2  3  1  0  0  0  0
  4  1  1  0  0  0  0
  5  4  2  0  0  0  0
  5  6  1  0  0  0  0
  6  7  2  0  0  0  0
  7  8  1  0  0  0  0
  7 12  1  0  0  0  0
  8 13  1  0  0  0  0
  9  4  1  0  0  0  0
 10  5  1  0  0  0  0
 11  6  1  0  0  0  0
 14 20  1  0  0  0  0
 15 14  1  0  0  0  0
 15 21  1  0  0  0  0
 16 15  2  0  0  0  0
 17 18  2  0  0  0  0
 17 16  1  0  0  0  0
 18 19  1  0  0  0  0
 19 24  1  0  0  0  0
 19 14  2  0  0  0  0
 22 17  1  0  0  0  0
 23 18  1  0  0  0  0
 24 25  1  0  0  0  0
 26 24  2  0  0  0  0
 27 24  2  0  0  0  0
 28 16  1  0  0  0  0
 28 29  1  0  0  0  0
 30 28  1  0  0  0  0
 31 28  1  0  0  0  0
M  RAD  3   2   2   3   3  25   2
M  END
