Coordinates from ORCA-job PhN2+~TsO-_B3LYPG-6-31G_dp-NX-Scan-d89-09-n800
 OpenBabel11261920463D

 31 32  0  0  1  0  0  0  0  0999 V2000
   -4.9943   -0.8983   -0.9663 C   0  0  0  0  0  0  0  0  0  0  0  0
   -5.1629    0.3278   -1.4013 N   0  0  0  0  0  0  0  0  0  0  0  0
   -5.3150    1.3958   -1.7818 N   0  0  0  0  0  0  0  0  0  0  0  0
   -4.3979   -1.8959   -1.8309 C   0  0  0  0  0  0  0  0  0  0  0  0
   -4.2557   -3.1620   -1.3973 C   0  0  0  0  0  0  0  0  0  0  0  0
   -4.7607   -3.6184   -0.0677 C   0  0  1  0  0  0  0  0  0  0  0  0
   -5.2457   -2.5157    0.8177 C   0  0  0  0  0  0  0  0  0  0  0  0
   -5.3892   -1.2502    0.3835 C   0  0  0  0  0  0  0  0  0  0  0  0
   -4.0543   -1.5936   -2.8151 H   0  0  0  0  0  0  0  0  0  0  0  0
   -3.7978   -3.9132   -2.0319 H   0  0  0  0  0  0  0  0  0  0  0  0
   -4.0232   -4.2535    0.4353 H   0  0  0  0  0  0  0  0  0  0  0  0
   -5.5313   -2.7904    1.8271 H   0  0  0  0  0  0  0  0  0  0  0  0
   -5.7810   -0.4714    1.0303 H   0  0  0  0  0  0  0  0  0  0  0  0
   -8.7409   -6.2462    0.3238 C   0  0  0  0  0  0  0  0  0  0  0  0
   -9.8838   -6.7896   -0.2541 C   0  0  0  0  0  0  0  0  0  0  0  0
   -9.7987   -7.6613   -1.3518 C   0  0  0  0  0  0  0  0  0  0  0  0
   -8.5312   -7.9824   -1.8552 C   0  0  0  0  0  0  0  0  0  0  0  0
   -7.3739   -7.4482   -1.2907 C   0  0  0  0  0  0  0  0  0  0  0  0
   -7.4927   -6.5789   -0.2074 C   0  0  0  0  0  0  0  0  0  0  0  0
   -8.8047   -5.5850    1.1809 H   0  0  0  0  0  0  0  0  0  0  0  0
  -10.8586   -6.5380    0.1550 H   0  0  0  0  0  0  0  0  0  0  0  0
   -8.4476   -8.6626   -2.6984 H   0  0  0  0  0  0  0  0  0  0  0  0
   -6.3922   -7.7072   -1.6708 H   0  0  0  0  0  0  0  0  0  0  0  0
   -6.0210   -5.8901    0.5225 S   0  0  0  0  0  0  0  0  0  0  0  0
   -6.2830   -5.5279    1.9187 O   0  0  0  0  0  0  0  0  0  0  0  0
   -5.9371   -4.5238   -0.3733 O   0  0  0  0  0  0  0  0  0  0  0  0
   -4.8688   -6.7373    0.2027 O   0  0  0  0  0  0  0  0  0  0  0  0
  -11.0502   -8.2378   -1.9688 C   0  0  0  0  0  0  0  0  0  0  0  0
  -11.6545   -8.7634   -1.2210 H   0  0  0  0  0  0  0  0  0  0  0  0
  -11.6800   -7.4475   -2.3937 H   0  0  0  0  0  0  0  0  0  0  0  0
  -10.8138   -8.9443   -2.7686 H   0  0  0  0  0  0  0  0  0  0  0  0
  1  8  1  0  0  0  0
  2  1  1  0  0  0  0
  3  2  1  0  0  0  0
  4  5  1  0  0  0  0
  4  1  2  0  0  0  0
  5  6  1  0  0  0  0
  6 11  1  1  0  0  0
  6  7  1  0  0  0  0
  7 12  1  0  0  0  0
  8  7  2  0  0  0  0
  8 13  1  0  0  0  0
  9  4  1  0  0  0  0
 10  5  1  0  0  0  0
 14 20  1  0  0  0  0
 15 21  1  0  0  0  0
 15 14  2  0  0  0  0
 16 15  1  0  0  0  0
 17 16  2  0  0  0  0
 17 18  1  0  0  0  0
 18 19  2  0  0  0  0
 19 14  1  0  0  0  0
 19 24  1  0  0  0  0
 22 17  1  0  0  0  0
 23 18  1  0  0  0  0
 24 25  2  0  0  0  0
 26  6  1  0  0  0  0
 26 24  1  0  0  0  0
 27 24  2  0  0  0  0
 28 16  1  0  0  0  0
 28 29  1  0  0  0  0
 30 28  1  0  0  0  0
 31 28  1  0  0  0  0
M  RAD  3   2   2   3   3   5   2
M  END
