Coordinates from ORCA-job PhN2+~TsO-_B3LYPG-6-31G_dp-NX-Scan-d89-09-n800
 OpenBabel11261920463D

 31 32  0  0  1  0  0  0  0  0999 V2000
   -5.3569   -1.3458   -0.7444 C   0  0  2  0  0  0  0  0  0  0  0  0
   -6.4714   -0.6813   -0.9130 N   0  0  0  0  0  0  0  0  0  0  0  0
   -7.4794   -0.1693   -1.0560 N   0  0  0  0  0  0  0  0  0  0  0  0
   -4.7920   -2.0638   -1.8788 C   0  0  0  0  0  0  0  0  0  0  0  0
   -4.1901   -3.2404   -1.6313 C   0  0  0  0  0  0  0  0  0  0  0  0
   -4.3702   -3.8339   -0.2695 C   0  0  1  0  0  0  0  0  0  0  0  0
   -4.2910   -2.8098    0.8215 C   0  0  0  0  0  0  0  0  0  0  0  0
   -4.8948   -1.6276    0.6085 C   0  0  0  0  0  0  0  0  0  0  0  0
   -4.8592   -1.6293   -2.8717 H   0  0  0  0  0  0  0  0  0  0  0  0
   -3.6913   -3.8102   -2.4073 H   0  0  0  0  0  0  0  0  0  0  0  0
   -3.7448   -4.7078   -0.0905 H   0  0  0  0  0  0  0  0  0  0  0  0
   -3.8661   -3.0767    1.7825 H   0  0  0  0  0  0  0  0  0  0  0  0
   -5.0414   -0.8866    1.3883 H   0  0  0  0  0  0  0  0  0  0  0  0
   -8.8624   -5.6825   -0.0242 C   0  0  0  0  0  0  0  0  0  0  0  0
   -9.8987   -6.2880   -0.7281 C   0  0  0  0  0  0  0  0  0  0  0  0
   -9.6731   -7.4289   -1.5152 C   0  0  0  0  0  0  0  0  0  0  0  0
   -8.3749   -7.9522   -1.5782 C   0  0  0  0  0  0  0  0  0  0  0  0
   -7.3223   -7.3570   -0.8840 C   0  0  0  0  0  0  0  0  0  0  0  0
   -7.5774   -6.2223   -0.1155 C   0  0  0  0  0  0  0  0  0  0  0  0
   -9.0404   -4.8124    0.5981 H   0  0  0  0  0  0  0  0  0  0  0  0
  -10.9014   -5.8735   -0.6619 H   0  0  0  0  0  0  0  0  0  0  0  0
   -8.1859   -8.8413   -2.1734 H   0  0  0  0  0  0  0  0  0  0  0  0
   -6.3200   -7.7696   -0.9213 H   0  0  0  0  0  0  0  0  0  0  0  0
   -6.2413   -5.4572    0.7864 S   0  0  0  0  0  0  0  0  0  0  0  0
   -6.7894   -4.7947    1.9703 O   0  0  0  0  0  0  0  0  0  0  0  0
   -5.8115   -4.3326   -0.3226 O   0  0  0  0  0  0  0  0  0  0  0  0
   -5.1364   -6.4119    0.9310 O   0  0  0  0  0  0  0  0  0  0  0  0
  -10.8117   -8.0763   -2.2659 C   0  0  0  0  0  0  0  0  0  0  0  0
  -11.5976   -8.4112   -1.5795 H   0  0  0  0  0  0  0  0  0  0  0  0
  -11.2755   -7.3721   -2.9660 H   0  0  0  0  0  0  0  0  0  0  0  0
  -10.4732   -8.9444   -2.8371 H   0  0  0  0  0  0  0  0  0  0  0  0
  1  2  1  1  0  0  0
  1  8  1  0  0  0  0
  3  2  1  0  0  0  0
  4  5  2  0  0  0  0
  4  1  1  0  0  0  0
  5  6  1  0  0  0  0
  6 11  1  1  0  0  0
  6  7  1  0  0  0  0
  7 12  1  0  0  0  0
  8  7  2  0  0  0  0
  8 13  1  0  0  0  0
  9  4  1  0  0  0  0
 10  5  1  0  0  0  0
 14 20  1  0  0  0  0
 15 21  1  0  0  0  0
 15 14  2  0  0  0  0
 16 15  1  0  0  0  0
 17 16  2  0  0  0  0
 17 18  1  0  0  0  0
 18 19  2  0  0  0  0
 19 14  1  0  0  0  0
 19 24  1  0  0  0  0
 22 17  1  0  0  0  0
 23 18  1  0  0  0  0
 24 27  2  0  0  0  0
 24 25  2  0  0  0  0
 26  6  1  0  0  0  0
 26 24  1  0  0  0  0
 28 29  1  0  0  0  0
 28 16  1  0  0  0  0
 30 28  1  0  0  0  0
 31 28  1  0  0  0  0
M  RAD  3   1   2   2   2   3   3
M  END
