Coordinates from ORCA-job PhN2+~TsO-_B3LYPG-6-31G_dp-NX-Scan-d89-09-n800
 OpenBabel11261920463D

 31 32  0  0  1  0  0  0  0  0999 V2000
   -4.8328   -0.7784   -0.9090 C   0  0  0  0  0  0  0  0  0  0  0  0
   -4.7671    0.4935   -1.2300 N   0  0  0  0  0  0  0  0  0  0  0  0
   -4.7059    1.6037   -1.5071 N   0  0  0  0  0  0  0  0  0  0  0  0
   -4.3897   -1.7921   -1.8465 C   0  0  0  0  0  0  0  0  0  0  0  0
   -4.4054   -3.0928   -1.4991 C   0  0  0  0  0  0  0  0  0  0  0  0
   -4.8759   -3.5756   -0.1637 C   0  0  1  0  0  0  0  0  0  0  0  0
   -5.3362   -2.4796    0.7478 C   0  0  0  0  0  0  0  0  0  0  0  0
   -5.3217   -1.1803    0.3969 C   0  0  0  0  0  0  0  0  0  0  0  0
   -4.0332   -1.4775   -2.8223 H   0  0  0  0  0  0  0  0  0  0  0  0
   -4.0654   -3.8503   -2.1972 H   0  0  0  0  0  0  0  0  0  0  0  0
   -4.1085   -4.1996    0.3122 H   0  0  0  0  0  0  0  0  0  0  0  0
   -5.6963   -2.7832    1.7246 H   0  0  0  0  0  0  0  0  0  0  0  0
   -5.6611   -0.4108    1.0833 H   0  0  0  0  0  0  0  0  0  0  0  0
   -8.7898   -6.2729    0.2988 C   0  0  0  0  0  0  0  0  0  0  0  0
   -9.9192   -6.8598   -0.2628 C   0  0  0  0  0  0  0  0  0  0  0  0
   -9.8121   -7.7687   -1.3281 C   0  0  0  0  0  0  0  0  0  0  0  0
   -8.5364   -8.0817   -1.8157 C   0  0  0  0  0  0  0  0  0  0  0  0
   -7.3924   -7.5037   -1.2675 C   0  0  0  0  0  0  0  0  0  0  0  0
   -7.5331   -6.5987   -0.2165 C   0  0  0  0  0  0  0  0  0  0  0  0
   -8.8709   -5.5827    1.1313 H   0  0  0  0  0  0  0  0  0  0  0  0
  -10.9005   -6.6137    0.1340 H   0  0  0  0  0  0  0  0  0  0  0  0
   -8.4358   -8.7904   -2.6331 H   0  0  0  0  0  0  0  0  0  0  0  0
   -6.4041   -7.7556   -1.6352 H   0  0  0  0  0  0  0  0  0  0  0  0
   -6.0787   -5.8561    0.4944 S   0  0  0  0  0  0  0  0  0  0  0  0
   -6.3488   -5.4655    1.8810 O   0  0  0  0  0  0  0  0  0  0  0  0
   -6.0317   -4.5100   -0.4357 O   0  0  0  0  0  0  0  0  0  0  0  0
   -4.9057   -6.6809    0.1930 O   0  0  0  0  0  0  0  0  0  0  0  0
  -11.0491   -8.3922   -1.9281 C   0  0  0  0  0  0  0  0  0  0  0  0
  -11.6488   -8.8977   -1.1630 H   0  0  0  0  0  0  0  0  0  0  0  0
  -11.6901   -7.6312   -2.3884 H   0  0  0  0  0  0  0  0  0  0  0  0
  -10.7952   -9.1261   -2.6973 H   0  0  0  0  0  0  0  0  0  0  0  0
  1  8  1  0  0  0  0
  2  1  1  0  0  0  0
  3  2  1  0  0  0  0
  4  5  1  0  0  0  0
  4  1  2  0  0  0  0
  5  6  1  0  0  0  0
  6 11  1  1  0  0  0
  6  7  1  0  0  0  0
  7 12  1  0  0  0  0
  8  7  2  0  0  0  0
  8 13  1  0  0  0  0
  9  4  1  0  0  0  0
 10  5  1  0  0  0  0
 14 20  1  0  0  0  0
 15 21  1  0  0  0  0
 15 14  2  0  0  0  0
 16 15  1  0  0  0  0
 17 16  2  0  0  0  0
 17 18  1  0  0  0  0
 18 19  2  0  0  0  0
 19 14  1  0  0  0  0
 19 24  1  0  0  0  0
 22 17  1  0  0  0  0
 23 18  1  0  0  0  0
 24 25  2  0  0  0  0
 26  6  1  0  0  0  0
 26 24  1  0  0  0  0
 27 24  2  0  0  0  0
 28 16  1  0  0  0  0
 28 29  1  0  0  0  0
 30 28  1  0  0  0  0
 31 28  1  0  0  0  0
M  RAD  3   2   2   3   3   5   2
M  END
