Coordinates from ORCA-job PhN2+~TsO-_B3LYPG-6-31G_dp-NX-Scan-d89-09-n800
 OpenBabel11261920463D

 31 31  0  0  0  0  0  0  0  0999 V2000
   -3.6690   -0.5559    0.0854 C   0  0  0  0  0  0  0  0  0  0  0  0
   -3.3355    0.6277    0.6579 N   0  0  0  0  0  0  0  0  0  0  0  0
   -3.0816    1.6076    1.1470 N   0  0  0  0  0  0  0  0  0  0  0  0
   -2.7367   -1.1699   -0.7885 C   0  0  0  0  0  0  0  0  0  0  0  0
   -3.1123   -2.3679   -1.3666 C   0  0  0  0  0  0  0  0  0  0  0  0
   -4.3727   -2.9308   -1.0957 C   0  0  0  0  0  0  0  0  0  0  0  0
   -5.2773   -2.3064   -0.2138 C   0  0  0  0  0  0  0  0  0  0  0  0
   -4.9398   -1.1113    0.3901 C   0  0  0  0  0  0  0  0  0  0  0  0
   -1.7792   -0.7016   -0.9864 H   0  0  0  0  0  0  0  0  0  0  0  0
   -2.4286   -2.8680   -2.0448 H   0  0  0  0  0  0  0  0  0  0  0  0
   -4.7122   -3.8617   -1.5558 H   0  0  0  0  0  0  0  0  0  0  0  0
   -6.2505   -2.7844   -0.0373 H   0  0  0  0  0  0  0  0  0  0  0  0
   -5.6104   -0.5988    1.0717 H   0  0  0  0  0  0  0  0  0  0  0  0
   -9.7190   -6.2188   -0.4208 C   0  0  0  0  0  0  0  0  0  0  0  0
  -10.4632   -7.3831   -0.2401 C   0  0  0  0  0  0  0  0  0  0  0  0
  -10.0142   -8.6150   -0.7373 C   0  0  0  0  0  0  0  0  0  0  0  0
   -8.7944   -8.6467   -1.4258 C   0  0  0  0  0  0  0  0  0  0  0  0
   -8.0410   -7.4876   -1.6133 C   0  0  0  0  0  0  0  0  0  0  0  0
   -8.5050   -6.2729   -1.1089 C   0  0  0  0  0  0  0  0  0  0  0  0
  -10.0630   -5.2704   -0.0220 H   0  0  0  0  0  0  0  0  0  0  0  0
  -11.4085   -7.3364    0.2959 H   0  0  0  0  0  0  0  0  0  0  0  0
   -8.4284   -9.5923   -1.8197 H   0  0  0  0  0  0  0  0  0  0  0  0
   -7.0903   -7.5143   -2.1341 H   0  0  0  0  0  0  0  0  0  0  0  0
   -7.5793   -4.7574   -1.4063 S   0  0  0  0  0  0  0  0  0  0  0  0
   -7.7644   -3.9501   -0.1548 O   0  0  0  0  0  0  0  0  0  0  0  0
   -8.1495   -4.1162   -2.6128 O   0  0  0  0  0  0  0  0  0  0  0  0
   -6.1574   -5.2057   -1.5863 O   0  0  0  0  0  0  0  0  0  0  0  0
  -10.8088   -9.8790   -0.5064 C   0  0  0  0  0  0  0  0  0  0  0  0
  -10.5473  -10.3440    0.4534 H   0  0  0  0  0  0  0  0  0  0  0  0
  -11.8849   -9.6784   -0.4844 H   0  0  0  0  0  0  0  0  0  0  0  0
  -10.6175  -10.6209   -1.2881 H   0  0  0  0  0  0  0  0  0  0  0  0
  1  8  1  0  0  0  0
  1  2  1  0  0  0  0
  2  3  1  0  0  0  0
  4  1  2  0  0  0  0
  5  6  2  0  0  0  0
  5  4  1  0  0  0  0
  6  7  1  0  0  0  0
  7 12  1  0  0  0  0
  7  8  2  0  0  0  0
  8 13  1  0  0  0  0
  9  4  1  0  0  0  0
 10  5  1  0  0  0  0
 11  6  1  0  0  0  0
 14 15  1  0  0  0  0
 14 20  1  0  0  0  0
 15 21  1  0  0  0  0
 16 28  1  0  0  0  0
 16 15  2  0  0  0  0
 17 16  1  0  0  0  0
 18 17  2  0  0  0  0
 18 19  1  0  0  0  0
 19 14  2  0  0  0  0
 22 17  1  0  0  0  0
 23 18  1  0  0  0  0
 24 19  1  0  0  0  0
 24 25  1  0  0  0  0
 26 24  2  0  0  0  0
 27 24  2  0  0  0  0
 28 30  1  0  0  0  0
 28 29  1  0  0  0  0
 31 28  1  0  0  0  0
M  RAD  3   2   2   3   3  25   2
M  END
