Coordinates from ORCA-job PhN2+~TsO-_B3LYPG-6-31G_dp-NX-Scan-d89-09-n800
 OpenBabel11261920463D

 31 31  0  0  0  0  0  0  0  0999 V2000
   -3.6606   -0.6431    0.1900 C   0  0  0  0  0  0  0  0  0  0  0  0
   -3.2886    0.4756    0.8610 N   0  0  0  0  0  0  0  0  0  0  0  0
   -2.9996    1.4004    1.4317 N   0  0  0  0  0  0  0  0  0  0  0  0
   -2.7205   -1.2509   -0.6801 C   0  0  0  0  0  0  0  0  0  0  0  0
   -3.1299   -2.3858   -1.3543 C   0  0  0  0  0  0  0  0  0  0  0  0
   -4.4308   -2.8923   -1.1810 C   0  0  0  0  0  0  0  0  0  0  0  0
   -5.3438   -2.2763   -0.3019 C   0  0  0  0  0  0  0  0  0  0  0  0
   -4.9731   -1.1444    0.3972 C   0  0  0  0  0  0  0  0  0  0  0  0
   -1.7306   -0.8255   -0.8015 H   0  0  0  0  0  0  0  0  0  0  0  0
   -2.4407   -2.8794   -2.0316 H   0  0  0  0  0  0  0  0  0  0  0  0
   -4.7938   -3.7763   -1.7106 H   0  0  0  0  0  0  0  0  0  0  0  0
   -6.3454   -2.7162   -0.2002 H   0  0  0  0  0  0  0  0  0  0  0  0
   -5.6469   -0.6423    1.0834 H   0  0  0  0  0  0  0  0  0  0  0  0
   -9.7287   -6.1785   -0.4889 C   0  0  0  0  0  0  0  0  0  0  0  0
  -10.4277   -7.3543   -0.2210 C   0  0  0  0  0  0  0  0  0  0  0  0
   -9.9547   -8.5964   -0.6671 C   0  0  0  0  0  0  0  0  0  0  0  0
   -8.7569   -8.6271   -1.3937 C   0  0  0  0  0  0  0  0  0  0  0  0
   -8.0490   -7.4572   -1.6680 C   0  0  0  0  0  0  0  0  0  0  0  0
   -8.5369   -6.2315   -1.2141 C   0  0  0  0  0  0  0  0  0  0  0  0
  -10.0909   -5.2207   -0.1308 H   0  0  0  0  0  0  0  0  0  0  0  0
  -11.3568   -7.3081    0.3428 H   0  0  0  0  0  0  0  0  0  0  0  0
   -8.3726   -9.5806   -1.7492 H   0  0  0  0  0  0  0  0  0  0  0  0
   -7.1150   -7.4833   -2.2185 H   0  0  0  0  0  0  0  0  0  0  0  0
   -7.6736   -4.7065   -1.6303 S   0  0  0  0  0  0  0  0  0  0  0  0
   -7.8887   -3.8133   -0.4437 O   0  0  0  0  0  0  0  0  0  0  0  0
   -8.2713   -4.1878   -2.8805 O   0  0  0  0  0  0  0  0  0  0  0  0
   -6.2350   -5.1118   -1.7806 O   0  0  0  0  0  0  0  0  0  0  0  0
  -10.6993   -9.8708   -0.3446 C   0  0  0  0  0  0  0  0  0  0  0  0
  -10.3742  -10.2896    0.6167 H   0  0  0  0  0  0  0  0  0  0  0  0
  -11.7780   -9.6984   -0.2732 H   0  0  0  0  0  0  0  0  0  0  0  0
  -10.5279  -10.6384   -1.1061 H   0  0  0  0  0  0  0  0  0  0  0  0
  1  8  1  0  0  0  0
  1  2  1  0  0  0  0
  2  3  1  0  0  0  0
  4  1  2  0  0  0  0
  5  6  2  0  0  0  0
  5  4  1  0  0  0  0
  6  7  1  0  0  0  0
  7 12  1  0  0  0  0
  7  8  2  0  0  0  0
  8 13  1  0  0  0  0
  9  4  1  0  0  0  0
 10  5  1  0  0  0  0
 11  6  1  0  0  0  0
 14 15  1  0  0  0  0
 14 20  1  0  0  0  0
 15 21  1  0  0  0  0
 16 28  1  0  0  0  0
 16 15  2  0  0  0  0
 17 16  1  0  0  0  0
 18 17  2  0  0  0  0
 18 19  1  0  0  0  0
 19 14  2  0  0  0  0
 22 17  1  0  0  0  0
 23 18  1  0  0  0  0
 24 19  1  0  0  0  0
 24 25  1  0  0  0  0
 26 24  2  0  0  0  0
 27 24  2  0  0  0  0
 28 30  1  0  0  0  0
 28 29  1  0  0  0  0
 31 28  1  0  0  0  0
M  RAD  3   2   2   3   3  25   2
M  END
