Coordinates from ORCA-job PhN2+~TsO-_B3LYPG-6-31G_dp-NX-Scan-d89-09-n800
 OpenBabel11261920463D

 31 31  0  0  0  0  0  0  0  0999 V2000
   -3.7577   -0.4376   -0.1161 C   0  0  0  0  0  0  0  0  0  0  0  0
   -3.5199    0.8482    0.2444 N   0  0  0  0  0  0  0  0  0  0  0  0
   -3.3445    1.9140    0.5556 N   0  0  0  0  0  0  0  0  0  0  0  0
   -2.8273   -1.0825   -0.9694 C   0  0  0  0  0  0  0  0  0  0  0  0
   -3.1098   -2.3846   -1.3370 C   0  0  0  0  0  0  0  0  0  0  0  0
   -4.2781   -3.0219   -0.8810 C   0  0  0  0  0  0  0  0  0  0  0  0
   -5.1813   -2.3622   -0.0232 C   0  0  0  0  0  0  0  0  0  0  0  0
   -4.9357   -1.0621    0.3718 C   0  0  0  0  0  0  0  0  0  0  0  0
   -1.9428   -0.5582   -1.3131 H   0  0  0  0  0  0  0  0  0  0  0  0
   -2.4261   -2.9113   -1.9947 H   0  0  0  0  0  0  0  0  0  0  0  0
   -4.5505   -4.0340   -1.1903 H   0  0  0  0  0  0  0  0  0  0  0  0
   -6.0892   -2.8927    0.2905 H   0  0  0  0  0  0  0  0  0  0  0  0
   -5.6130   -0.5183    1.0217 H   0  0  0  0  0  0  0  0  0  0  0  0
   -9.6176   -6.2887   -0.2416 C   0  0  0  0  0  0  0  0  0  0  0  0
  -10.4481   -7.4070   -0.2071 C   0  0  0  0  0  0  0  0  0  0  0  0
  -10.0895   -8.5969   -0.8573 C   0  0  0  0  0  0  0  0  0  0  0  0
   -8.8704   -8.6340   -1.5460 C   0  0  0  0  0  0  0  0  0  0  0  0
   -8.0306   -7.5203   -1.5880 C   0  0  0  0  0  0  0  0  0  0  0  0
   -8.4064   -6.3472   -0.9345 C   0  0  0  0  0  0  0  0  0  0  0  0
   -9.8908   -5.3745    0.2746 H   0  0  0  0  0  0  0  0  0  0  0  0
  -11.3906   -7.3576    0.3339 H   0  0  0  0  0  0  0  0  0  0  0  0
   -8.5725   -9.5483   -2.0547 H   0  0  0  0  0  0  0  0  0  0  0  0
   -7.0803   -7.5537   -2.1091 H   0  0  0  0  0  0  0  0  0  0  0  0
   -7.3680   -4.8813   -1.0438 S   0  0  0  0  0  0  0  0  0  0  0  0
   -7.5363   -4.1951    0.2799 O   0  0  0  0  0  0  0  0  0  0  0  0
   -7.8499   -4.0721   -2.1886 O   0  0  0  0  0  0  0  0  0  0  0  0
   -5.9760   -5.4089   -1.2386 O   0  0  0  0  0  0  0  0  0  0  0  0
  -10.9832   -9.8135   -0.7893 C   0  0  0  0  0  0  0  0  0  0  0  0
  -10.8480  -10.3562    0.1558 H   0  0  0  0  0  0  0  0  0  0  0  0
  -12.0413   -9.5379   -0.8524 H   0  0  0  0  0  0  0  0  0  0  0  0
  -10.7666  -10.5143   -1.6012 H   0  0  0  0  0  0  0  0  0  0  0  0
  1  2  1  0  0  0  0
  1  8  2  0  0  0  0
  2  3  1  0  0  0  0
  4  1  1  0  0  0  0
  5  4  2  0  0  0  0
  5  6  1  0  0  0  0
  6  7  2  0  0  0  0
  7 12  1  0  0  0  0
  7  8  1  0  0  0  0
  8 13  1  0  0  0  0
  9  4  1  0  0  0  0
 10  5  1  0  0  0  0
 11  6  1  0  0  0  0
 14 15  1  0  0  0  0
 14 20  1  0  0  0  0
 15 21  1  0  0  0  0
 16 28  1  0  0  0  0
 16 15  2  0  0  0  0
 17 16  1  0  0  0  0
 18 17  2  0  0  0  0
 18 19  1  0  0  0  0
 19 14  2  0  0  0  0
 22 17  1  0  0  0  0
 23 18  1  0  0  0  0
 24 19  1  0  0  0  0
 24 25  1  0  0  0  0
 26 24  2  0  0  0  0
 27 24  2  0  0  0  0
 28 29  1  0  0  0  0
 30 28  1  0  0  0  0
 31 28  1  0  0  0  0
M  RAD  3   2   2   3   3  25   2
M  END
