Coordinates from ORCA-job PhN2+~TsO-_B3LYPG-6-31G_dp-NX-Scan-d89-09-n800
 OpenBabel11261920463D

 31 32  0  0  1  0  0  0  0  0999 V2000
   -5.4371   -1.4013   -0.6525 C   0  0  2  0  0  0  0  0  0  0  0  0
   -6.7327   -1.2070   -0.6787 N   0  0  0  0  0  0  0  0  0  0  0  0
   -7.8692   -1.1363   -0.6952 N   0  0  0  0  0  0  0  0  0  0  0  0
   -4.8413   -1.9965   -1.8580 C   0  0  0  0  0  0  0  0  0  0  0  0
   -4.1750   -3.1508   -1.6962 C   0  0  0  0  0  0  0  0  0  0  0  0
   -4.3238   -3.8244   -0.3626 C   0  0  1  0  0  0  0  0  0  0  0  0
   -4.1697   -2.8498    0.7720 C   0  0  0  0  0  0  0  0  0  0  0  0
   -4.8363   -1.6903    0.6585 C   0  0  0  0  0  0  0  0  0  0  0  0
   -4.9521   -1.4989   -2.8172 H   0  0  0  0  0  0  0  0  0  0  0  0
   -3.6354   -3.6395   -2.5002 H   0  0  0  0  0  0  0  0  0  0  0  0
   -3.7155   -4.7210   -0.2512 H   0  0  0  0  0  0  0  0  0  0  0  0
   -3.6296   -3.1356    1.6682 H   0  0  0  0  0  0  0  0  0  0  0  0
   -4.9505   -0.9821    1.4738 H   0  0  0  0  0  0  0  0  0  0  0  0
   -8.8009   -5.4816   -0.2481 C   0  0  0  0  0  0  0  0  0  0  0  0
   -9.8315   -6.1045   -0.9449 C   0  0  0  0  0  0  0  0  0  0  0  0
   -9.6547   -7.3702   -1.5273 C   0  0  0  0  0  0  0  0  0  0  0  0
   -8.4093   -7.9978   -1.3977 C   0  0  0  0  0  0  0  0  0  0  0  0
   -7.3610   -7.3869   -0.7094 C   0  0  0  0  0  0  0  0  0  0  0  0
   -7.5686   -6.1313   -0.1420 C   0  0  0  0  0  0  0  0  0  0  0  0
   -8.9452   -4.5090    0.2090 H   0  0  0  0  0  0  0  0  0  0  0  0
  -10.7916   -5.6028   -1.0357 H   0  0  0  0  0  0  0  0  0  0  0  0
   -8.2567   -8.9793   -1.8376 H   0  0  0  0  0  0  0  0  0  0  0  0
   -6.3983   -7.8748   -0.6017 H   0  0  0  0  0  0  0  0  0  0  0  0
   -6.2409   -5.3483    0.7559 S   0  0  0  0  0  0  0  0  0  0  0  0
   -6.8025   -4.6238    1.8952 O   0  0  0  0  0  0  0  0  0  0  0  0
   -5.7769   -4.2743   -0.3931 O   0  0  0  0  0  0  0  0  0  0  0  0
   -5.1516   -6.3089    0.9624 O   0  0  0  0  0  0  0  0  0  0  0  0
  -10.7929   -8.0405   -2.2581 C   0  0  0  0  0  0  0  0  0  0  0  0
  -11.5731   -8.3624   -1.5581 H   0  0  0  0  0  0  0  0  0  0  0  0
  -11.2641   -7.3572   -2.9726 H   0  0  0  0  0  0  0  0  0  0  0  0
  -10.4537   -8.9235   -2.8056 H   0  0  0  0  0  0  0  0  0  0  0  0
  1  2  1  1  0  0  0
  1  8  1  0  0  0  0
  3  2  1  0  0  0  0
  4  5  2  0  0  0  0
  4  1  1  0  0  0  0
  5  6  1  0  0  0  0
  6 11  1  1  0  0  0
  6  7  1  0  0  0  0
  7 12  1  0  0  0  0
  8  7  2  0  0  0  0
  8 13  1  0  0  0  0
  9  4  1  0  0  0  0
 10  5  1  0  0  0  0
 14 19  1  0  0  0  0
 14 20  1  0  0  0  0
 15 14  2  0  0  0  0
 16 17  2  0  0  0  0
 16 15  1  0  0  0  0
 17 18  1  0  0  0  0
 18 23  1  0  0  0  0
 18 19  2  0  0  0  0
 19 24  1  0  0  0  0
 21 15  1  0  0  0  0
 22 17  1  0  0  0  0
 24 27  2  0  0  0  0
 24 25  2  0  0  0  0
 26  6  1  0  0  0  0
 26 24  1  0  0  0  0
 28 29  1  0  0  0  0
 28 16  1  0  0  0  0
 30 28  1  0  0  0  0
 31 28  1  0  0  0  0
M  RAD  3   1   2   2   2   3   3
M  END
