Coordinates from ORCA-job PhN2+~TsO-_B3LYPG-6-31G_dp-NX-Scan-d89-09-n800
 OpenBabel11261920463D

 31 32  0  0  1  0  0  0  0  0999 V2000
   -4.5175   -0.6394   -0.7942 C   0  0  0  0  0  0  0  0  0  0  0  0
   -4.0880    0.6021   -0.9335 N   0  0  0  0  0  0  0  0  0  0  0  0
   -3.7030    1.6821   -1.0469 N   0  0  0  0  0  0  0  0  0  0  0  0
   -4.4124   -1.6044   -1.8795 C   0  0  0  0  0  0  0  0  0  0  0  0
   -4.7187   -2.9059   -1.6904 C   0  0  0  0  0  0  0  0  0  0  0  0
   -5.0836   -3.4786   -0.3508 C   0  0  1  0  0  0  0  0  0  0  0  0
   -5.4190   -2.4004    0.6451 C   0  0  0  0  0  0  0  0  0  0  0  0
   -5.1145   -1.0996    0.4533 C   0  0  0  0  0  0  0  0  0  0  0  0
   -4.0813   -1.2560   -2.8531 H   0  0  0  0  0  0  0  0  0  0  0  0
   -4.6324   -3.6067   -2.5143 H   0  0  0  0  0  0  0  0  0  0  0  0
   -4.2634   -4.1106    0.0196 H   0  0  0  0  0  0  0  0  0  0  0  0
   -5.8654   -2.7239    1.5789 H   0  0  0  0  0  0  0  0  0  0  0  0
   -5.3163   -0.3692    1.2309 H   0  0  0  0  0  0  0  0  0  0  0  0
   -8.9080   -6.3092    0.2531 C   0  0  0  0  0  0  0  0  0  0  0  0
   -9.9948   -6.9881   -0.2886 C   0  0  0  0  0  0  0  0  0  0  0  0
   -9.8212   -7.9534   -1.2937 C   0  0  0  0  0  0  0  0  0  0  0  0
   -8.5221   -8.2282   -1.7413 C   0  0  0  0  0  0  0  0  0  0  0  0
   -7.4199   -7.5583   -1.2126 C   0  0  0  0  0  0  0  0  0  0  0  0
   -7.6268   -6.5993   -0.2218 C   0  0  0  0  0  0  0  0  0  0  0  0
   -9.0402   -5.5744    1.0396 H   0  0  0  0  0  0  0  0  0  0  0  0
  -10.9947   -6.7706    0.0773 H   0  0  0  0  0  0  0  0  0  0  0  0
   -8.3698   -8.9804   -2.5106 H   0  0  0  0  0  0  0  0  0  0  0  0
   -6.4133   -7.7802   -1.5488 H   0  0  0  0  0  0  0  0  0  0  0  0
   -6.2262   -5.7420    0.4678 S   0  0  0  0  0  0  0  0  0  0  0  0
   -6.5464   -5.2838    1.8222 O   0  0  0  0  0  0  0  0  0  0  0  0
   -6.2313   -4.4558   -0.5445 O   0  0  0  0  0  0  0  0  0  0  0  0
   -5.0067   -6.5207    0.2375 O   0  0  0  0  0  0  0  0  0  0  0  0
  -11.0131   -8.6752   -1.8743 C   0  0  0  0  0  0  0  0  0  0  0  0
  -11.6153   -9.1424   -1.0875 H   0  0  0  0  0  0  0  0  0  0  0  0
  -11.6693   -7.9812   -2.4130 H   0  0  0  0  0  0  0  0  0  0  0  0
  -10.7068   -9.4568   -2.5745 H   0  0  0  0  0  0  0  0  0  0  0  0
  1  8  1  0  0  0  0
  2  1  1  0  0  0  0
  3  2  1  0  0  0  0
  4  5  1  0  0  0  0
  4  1  2  0  0  0  0
  5  6  1  0  0  0  0
  6 11  1  1  0  0  0
  6  7  1  0  0  0  0
  7 12  1  0  0  0  0
  8  7  2  0  0  0  0
  8 13  1  0  0  0  0
  9  4  1  0  0  0  0
 10  5  1  0  0  0  0
 14 20  1  0  0  0  0
 15 21  1  0  0  0  0
 15 14  2  0  0  0  0
 16 15  1  0  0  0  0
 17 16  2  0  0  0  0
 17 18  1  0  0  0  0
 18 19  2  0  0  0  0
 19 14  1  0  0  0  0
 19 24  1  0  0  0  0
 22 17  1  0  0  0  0
 23 18  1  0  0  0  0
 24 25  2  0  0  0  0
 26  6  1  0  0  0  0
 26 24  1  0  0  0  0
 27 24  2  0  0  0  0
 28 16  1  0  0  0  0
 28 29  1  0  0  0  0
 30 28  1  0  0  0  0
 31 28  1  0  0  0  0
M  RAD  3   2   2   3   3   5   2
M  END
