Coordinates from ORCA-job PhN2+~TsO-_B3LYPG-6-31G_dp-NX-Scan-d89-09-n800
 OpenBabel11261920463D

 31 31  0  0  0  0  0  0  0  0999 V2000
   -3.7040   -0.4846   -0.0196 C   0  0  0  0  0  0  0  0  0  0  0  0
   -3.4168    0.7569    0.4450 N   0  0  0  0  0  0  0  0  0  0  0  0
   -3.2015    1.7858    0.8436 N   0  0  0  0  0  0  0  0  0  0  0  0
   -2.7758   -1.1124   -0.8880 C   0  0  0  0  0  0  0  0  0  0  0  0
   -3.1072   -2.3686   -1.3595 C   0  0  0  0  0  0  0  0  0  0  0  0
   -4.3210   -2.9765   -0.9905 C   0  0  0  0  0  0  0  0  0  0  0  0
   -5.2216   -2.3361   -0.1157 C   0  0  0  0  0  0  0  0  0  0  0  0
   -4.9274   -1.0823    0.3827 C   0  0  0  0  0  0  0  0  0  0  0  0
   -1.8554   -0.6101   -1.1634 H   0  0  0  0  0  0  0  0  0  0  0  0
   -2.4259   -2.8808   -2.0312 H   0  0  0  0  0  0  0  0  0  0  0  0
   -4.6291   -3.9520   -1.3742 H   0  0  0  0  0  0  0  0  0  0  0  0
   -6.1621   -2.8449    0.1336 H   0  0  0  0  0  0  0  0  0  0  0  0
   -5.5989   -0.5547    1.0517 H   0  0  0  0  0  0  0  0  0  0  0  0
   -9.6758   -6.2564   -0.3305 C   0  0  0  0  0  0  0  0  0  0  0  0
  -10.4655   -7.3999   -0.2300 C   0  0  0  0  0  0  0  0  0  0  0  0
  -10.0588   -8.6145   -0.8016 C   0  0  0  0  0  0  0  0  0  0  0  0
   -8.8339   -8.6500   -1.4803 C   0  0  0  0  0  0  0  0  0  0  0  0
   -8.0349   -7.5111   -1.5880 C   0  0  0  0  0  0  0  0  0  0  0  0
   -8.4579   -6.3138   -1.0118 C   0  0  0  0  0  0  0  0  0  0  0  0
   -9.9872   -5.3224    0.1251 H   0  0  0  0  0  0  0  0  0  0  0  0
  -11.4136   -7.3509    0.3009 H   0  0  0  0  0  0  0  0  0  0  0  0
   -8.4998   -9.5825   -1.9298 H   0  0  0  0  0  0  0  0  0  0  0  0
   -7.0805   -7.5414   -2.1018 H   0  0  0  0  0  0  0  0  0  0  0  0
   -7.4739   -4.8192   -1.2074 S   0  0  0  0  0  0  0  0  0  0  0  0
   -7.6403   -4.0832    0.0899 O   0  0  0  0  0  0  0  0  0  0  0  0
   -8.0082   -4.0808   -2.3753 O   0  0  0  0  0  0  0  0  0  0  0  0
   -6.0680   -5.3072   -1.4067 O   0  0  0  0  0  0  0  0  0  0  0  0
  -10.9070   -9.8570   -0.6610 C   0  0  0  0  0  0  0  0  0  0  0  0
  -10.7260  -10.3577    0.2995 H   0  0  0  0  0  0  0  0  0  0  0  0
  -11.9754   -9.6203   -0.7032 H   0  0  0  0  0  0  0  0  0  0  0  0
  -10.6886  -10.5819   -1.4512 H   0  0  0  0  0  0  0  0  0  0  0  0
  1  8  1  0  0  0  0
  1  2  1  0  0  0  0
  2  3  1  0  0  0  0
  4  1  2  0  0  0  0
  5  6  2  0  0  0  0
  5  4  1  0  0  0  0
  6  7  1  0  0  0  0
  7 12  1  0  0  0  0
  7  8  2  0  0  0  0
  8 13  1  0  0  0  0
  9  4  1  0  0  0  0
 10  5  1  0  0  0  0
 11  6  1  0  0  0  0
 14 15  1  0  0  0  0
 14 20  1  0  0  0  0
 15 21  1  0  0  0  0
 16 28  1  0  0  0  0
 16 15  2  0  0  0  0
 17 16  1  0  0  0  0
 18 17  2  0  0  0  0
 18 19  1  0  0  0  0
 19 14  2  0  0  0  0
 22 17  1  0  0  0  0
 23 18  1  0  0  0  0
 24 19  1  0  0  0  0
 24 25  1  0  0  0  0
 26 24  2  0  0  0  0
 27 24  2  0  0  0  0
 28 29  1  0  0  0  0
 30 28  1  0  0  0  0
 31 28  1  0  0  0  0
M  RAD  3   2   2   3   3  25   2
M  END
