Coordinates from ORCA-job PhN2+~TsO-_B3LYPG-6-31G_dp-NX-Scan-d89-09-n800
 OpenBabel11261920463D

 31 32  0  0  1  0  0  0  0  0999 V2000
   -4.8081   -0.7633   -0.9001 C   0  0  0  0  0  0  0  0  0  0  0  0
   -4.7088    0.5108   -1.2044 N   0  0  0  0  0  0  0  0  0  0  0  0
   -4.6171    1.6229   -1.4663 N   0  0  0  0  0  0  0  0  0  0  0  0
   -4.3891   -1.7772   -1.8490 C   0  0  0  0  0  0  0  0  0  0  0  0
   -4.4288   -3.0809   -1.5146 C   0  0  0  0  0  0  0  0  0  0  0  0
   -4.8934   -3.5685   -0.1784 C   0  0  1  0  0  0  0  0  0  0  0  0
   -5.3487   -2.4733    0.7374 C   0  0  0  0  0  0  0  0  0  0  0  0
   -5.3103   -1.1709    0.3993 C   0  0  0  0  0  0  0  0  0  0  0  0
   -4.0316   -1.4607   -2.8239 H   0  0  0  0  0  0  0  0  0  0  0  0
   -4.1072   -3.8374   -2.2224 H   0  0  0  0  0  0  0  0  0  0  0  0
   -4.1213   -4.1909    0.2926 H   0  0  0  0  0  0  0  0  0  0  0  0
   -5.7193   -2.7799    1.7094 H   0  0  0  0  0  0  0  0  0  0  0  0
   -5.6413   -0.4032    1.0917 H   0  0  0  0  0  0  0  0  0  0  0  0
   -8.7976   -6.2771    0.2958 C   0  0  0  0  0  0  0  0  0  0  0  0
   -9.9245   -6.8708   -0.2636 C   0  0  0  0  0  0  0  0  0  0  0  0
   -9.8136   -7.7840   -1.3247 C   0  0  0  0  0  0  0  0  0  0  0  0
   -8.5365   -8.0946   -1.8103 C   0  0  0  0  0  0  0  0  0  0  0  0
   -7.3949   -7.5099   -1.2642 C   0  0  0  0  0  0  0  0  0  0  0  0
   -7.5395   -6.6006   -0.2174 C   0  0  0  0  0  0  0  0  0  0  0  0
   -8.8817   -5.5833    1.1251 H   0  0  0  0  0  0  0  0  0  0  0  0
  -10.9069   -6.6265    0.1315 H   0  0  0  0  0  0  0  0  0  0  0  0
   -8.4328   -8.8067   -2.6243 H   0  0  0  0  0  0  0  0  0  0  0  0
   -6.4055   -7.7598   -1.6303 H   0  0  0  0  0  0  0  0  0  0  0  0
   -6.0882   -5.8495    0.4910 S   0  0  0  0  0  0  0  0  0  0  0  0
   -6.3606   -5.4539    1.8757 O   0  0  0  0  0  0  0  0  0  0  0  0
   -6.0462   -4.5072   -0.4450 O   0  0  0  0  0  0  0  0  0  0  0  0
   -4.9119   -6.6710    0.1936 O   0  0  0  0  0  0  0  0  0  0  0  0
  -11.0479   -8.4148   -1.9225 C   0  0  0  0  0  0  0  0  0  0  0  0
  -11.6465   -8.9185   -1.1553 H   0  0  0  0  0  0  0  0  0  0  0  0
  -11.6911   -7.6583   -2.3872 H   0  0  0  0  0  0  0  0  0  0  0  0
  -10.7909   -9.1517   -2.6878 H   0  0  0  0  0  0  0  0  0  0  0  0
  1  8  1  0  0  0  0
  2  1  1  0  0  0  0
  3  2  1  0  0  0  0
  4  5  1  0  0  0  0
  4  1  2  0  0  0  0
  5  6  1  0  0  0  0
  6 11  1  1  0  0  0
  6  7  1  0  0  0  0
  7 12  1  0  0  0  0
  8  7  2  0  0  0  0
  8 13  1  0  0  0  0
  9  4  1  0  0  0  0
 10  5  1  0  0  0  0
 14 20  1  0  0  0  0
 15 21  1  0  0  0  0
 15 14  2  0  0  0  0
 16 15  1  0  0  0  0
 17 16  2  0  0  0  0
 17 18  1  0  0  0  0
 18 19  2  0  0  0  0
 19 14  1  0  0  0  0
 19 24  1  0  0  0  0
 22 17  1  0  0  0  0
 23 18  1  0  0  0  0
 24 25  2  0  0  0  0
 26  6  1  0  0  0  0
 26 24  1  0  0  0  0
 27 24  2  0  0  0  0
 28 16  1  0  0  0  0
 28 29  1  0  0  0  0
 30 28  1  0  0  0  0
 31 28  1  0  0  0  0
M  RAD  3   2   2   3   3   5   2
M  END
