Coordinates from ORCA-job PhN2+~TsO-_B3LYPG-6-31G_dp-NX-Scan-d89-09-n800
 OpenBabel11261920463D

 31 32  0  0  1  0  0  0  0  0999 V2000
   -5.3632   -1.2960   -1.0059 C   0  0  2  0  0  0  0  0  0  0  0  0
   -6.1868   -0.4501   -1.5728 N   0  0  0  0  0  0  0  0  0  0  0  0
   -6.9356    0.2517   -2.0706 N   0  0  0  0  0  0  0  0  0  0  0  0
   -4.5160   -2.1304   -1.8362 C   0  0  0  0  0  0  0  0  0  0  0  0
   -3.9915   -3.2474   -1.3004 C   0  0  0  0  0  0  0  0  0  0  0  0
   -4.4585   -3.7100    0.0399 C   0  0  1  0  0  0  0  0  0  0  0  0
   -4.8688   -2.6001    0.9523 C   0  0  0  0  0  0  0  0  0  0  0  0
   -5.3991   -1.4781    0.4333 C   0  0  0  0  0  0  0  0  0  0  0  0
   -4.3114   -1.8231   -2.8570 H   0  0  0  0  0  0  0  0  0  0  0  0
   -3.3235   -3.8868   -1.8669 H   0  0  0  0  0  0  0  0  0  0  0  0
   -3.7593   -4.4091    0.5015 H   0  0  0  0  0  0  0  0  0  0  0  0
   -4.8468   -2.7728    2.0225 H   0  0  0  0  0  0  0  0  0  0  0  0
   -5.8362   -0.7001    1.0515 H   0  0  0  0  0  0  0  0  0  0  0  0
   -8.6889   -6.0386    0.3020 C   0  0  0  0  0  0  0  0  0  0  0  0
   -9.8303   -6.5166   -0.3344 C   0  0  0  0  0  0  0  0  0  0  0  0
   -9.7391   -7.3880   -1.4316 C   0  0  0  0  0  0  0  0  0  0  0  0
   -8.4675   -7.7751   -1.8752 C   0  0  0  0  0  0  0  0  0  0  0  0
   -7.3123   -7.3074   -1.2510 C   0  0  0  0  0  0  0  0  0  0  0  0
   -7.4362   -6.4373   -0.1689 C   0  0  0  0  0  0  0  0  0  0  0  0
   -8.7578   -5.3783    1.1596 H   0  0  0  0  0  0  0  0  0  0  0  0
  -10.8090   -6.2134    0.0279 H   0  0  0  0  0  0  0  0  0  0  0  0
   -8.3798   -8.4550   -2.7183 H   0  0  0  0  0  0  0  0  0  0  0  0
   -6.3287   -7.6189   -1.5846 H   0  0  0  0  0  0  0  0  0  0  0  0
   -5.9668   -5.8345    0.6396 S   0  0  0  0  0  0  0  0  0  0  0  0
   -6.2928   -5.4263    2.0090 O   0  0  0  0  0  0  0  0  0  0  0  0
   -5.7236   -4.5051   -0.2795 O   0  0  0  0  0  0  0  0  0  0  0  0
   -4.8610   -6.7703    0.4137 O   0  0  0  0  0  0  0  0  0  0  0  0
  -10.9886   -7.8996   -2.1070 C   0  0  0  0  0  0  0  0  0  0  0  0
  -11.6156   -8.4611   -1.4046 H   0  0  0  0  0  0  0  0  0  0  0  0
  -11.5971   -7.0732   -2.4912 H   0  0  0  0  0  0  0  0  0  0  0  0
  -10.7500   -8.5595   -2.9451 H   0  0  0  0  0  0  0  0  0  0  0  0
  1  2  1  6  0  0  0
  1  8  1  0  0  0  0
  3  2  1  0  0  0  0
  4  5  2  0  0  0  0
  4  1  1  0  0  0  0
  5  6  1  0  0  0  0
  6 11  1  1  0  0  0
  6  7  1  0  0  0  0
  7 12  1  0  0  0  0
  8  7  2  0  0  0  0
  8 13  1  0  0  0  0
  9  4  1  0  0  0  0
 10  5  1  0  0  0  0
 14 20  1  0  0  0  0
 15 21  1  0  0  0  0
 15 14  2  0  0  0  0
 16 15  1  0  0  0  0
 17 16  2  0  0  0  0
 17 18  1  0  0  0  0
 18 19  2  0  0  0  0
 19 14  1  0  0  0  0
 19 24  1  0  0  0  0
 22 17  1  0  0  0  0
 23 18  1  0  0  0  0
 24 25  2  0  0  0  0
 26  6  1  0  0  0  0
 26 24  1  0  0  0  0
 27 24  2  0  0  0  0
 28 16  1  0  0  0  0
 28 29  1  0  0  0  0
 30 28  1  0  0  0  0
 31 28  1  0  0  0  0
M  RAD  3   1   2   2   2   3   3
M  END
