Coordinates from ORCA-job PhN2+~TsO-_B3LYPG-6-31G_dp-NX-Scan-d89-09-n800
 OpenBabel11261920463D

 31 32  0  0  1  0  0  0  0  0999 V2000
   -5.4387   -1.3844   -0.6398 C   0  0  2  0  0  0  0  0  0  0  0  0
   -6.7319   -1.6156   -0.5834 N   0  0  0  0  0  0  0  0  0  0  0  0
   -7.8146   -1.9577   -0.5271 N   0  0  0  0  0  0  0  0  0  0  0  0
   -4.8164   -1.9539   -1.8683 C   0  0  0  0  0  0  0  0  0  0  0  0
   -4.1891   -3.1282   -1.7181 C   0  0  0  0  0  0  0  0  0  0  0  0
   -4.3566   -3.8016   -0.3809 C   0  0  1  0  0  0  0  0  0  0  0  0
   -4.1178   -2.8291    0.7483 C   0  0  0  0  0  0  0  0  0  0  0  0
   -4.7473   -1.6503    0.6530 C   0  0  0  0  0  0  0  0  0  0  0  0
   -4.8955   -1.4306   -2.8169 H   0  0  0  0  0  0  0  0  0  0  0  0
   -3.6388   -3.6198   -2.5142 H   0  0  0  0  0  0  0  0  0  0  0  0
   -3.7934   -4.7281   -0.2816 H   0  0  0  0  0  0  0  0  0  0  0  0
   -3.5238   -3.1249    1.6074 H   0  0  0  0  0  0  0  0  0  0  0  0
   -4.7874   -0.9211    1.4569 H   0  0  0  0  0  0  0  0  0  0  0  0
   -8.8484   -5.4225   -0.2778 C   0  0  0  0  0  0  0  0  0  0  0  0
   -9.8594   -6.0695   -0.9816 C   0  0  0  0  0  0  0  0  0  0  0  0
   -9.6590   -7.3420   -1.5405 C   0  0  0  0  0  0  0  0  0  0  0  0
   -8.4086   -7.9530   -1.3804 C   0  0  0  0  0  0  0  0  0  0  0  0
   -7.3795   -7.3192   -0.6844 C   0  0  0  0  0  0  0  0  0  0  0  0
   -7.6114   -6.0568   -0.1409 C   0  0  0  0  0  0  0  0  0  0  0  0
   -9.0096   -4.4423    0.1555 H   0  0  0  0  0  0  0  0  0  0  0  0
  -10.8230   -5.5799   -1.0976 H   0  0  0  0  0  0  0  0  0  0  0  0
   -8.2366   -8.9390   -1.8026 H   0  0  0  0  0  0  0  0  0  0  0  0
   -6.4135   -7.7943   -0.5531 H   0  0  0  0  0  0  0  0  0  0  0  0
   -6.3066   -5.2512    0.7697 S   0  0  0  0  0  0  0  0  0  0  0  0
   -6.8871   -4.5230    1.8958 O   0  0  0  0  0  0  0  0  0  0  0  0
   -5.8313   -4.1666   -0.3740 O   0  0  0  0  0  0  0  0  0  0  0  0
   -5.2092   -6.1986    0.9922 O   0  0  0  0  0  0  0  0  0  0  0  0
  -10.7775   -8.0399   -2.2755 C   0  0  0  0  0  0  0  0  0  0  0  0
  -11.5226   -8.4327   -1.5729 H   0  0  0  0  0  0  0  0  0  0  0  0
  -11.3007   -7.3537   -2.9492 H   0  0  0  0  0  0  0  0  0  0  0  0
  -10.4063   -8.8812   -2.8666 H   0  0  0  0  0  0  0  0  0  0  0  0
  1  2  1  1  0  0  0
  1  8  1  0  0  0  0
  2  3  1  0  0  0  0
  4  5  2  0  0  0  0
  4  1  1  0  0  0  0
  5  6  1  0  0  0  0
  6 26  1  0  0  0  0
  6 11  1  1  0  0  0
  6  7  1  0  0  0  0
  7 12  1  0  0  0  0
  8  7  2  0  0  0  0
  8 13  1  0  0  0  0
  9  4  1  0  0  0  0
 10  5  1  0  0  0  0
 14 19  1  0  0  0  0
 14 20  1  0  0  0  0
 15 14  2  0  0  0  0
 16 17  2  0  0  0  0
 16 15  1  0  0  0  0
 17 18  1  0  0  0  0
 18 23  1  0  0  0  0
 18 19  2  0  0  0  0
 19 24  1  0  0  0  0
 21 15  1  0  0  0  0
 22 17  1  0  0  0  0
 24 27  2  0  0  0  0
 24 25  2  0  0  0  0
 26 24  1  0  0  0  0
 28 29  1  0  0  0  0
 28 16  1  0  0  0  0
 30 28  1  0  0  0  0
 31 28  1  0  0  0  0
M  RAD  3   1   2   2   2   3   3
M  END
