Coordinates from ORCA-job PhN2+~TsO-_B3LYPG-6-31G_dp-NX-Scan-d89-09-n800
 OpenBabel11261920463D

 31 31  0  0  0  0  0  0  0  0999 V2000
   -4.4200   -0.5337   -0.6004 C   0  0  0  0  0  0  0  0  0  0  0  0
   -4.3123    0.8052   -0.6249 N   0  0  0  0  0  0  0  0  0  0  0  0
   -4.2070    1.9320   -0.6370 N   0  0  0  0  0  0  0  0  0  0  0  0
   -4.0884   -1.2758   -1.7739 C   0  0  0  0  0  0  0  0  0  0  0  0
   -4.1063   -2.6460   -1.7025 C   0  0  0  0  0  0  0  0  0  0  0  0
   -4.4502   -3.3123   -0.4966 C   0  0  0  0  0  0  0  0  0  0  0  0
   -4.8175   -2.5513    0.6479 C   0  0  0  0  0  0  0  0  0  0  0  0
   -4.8099   -1.1811    0.6134 C   0  0  0  0  0  0  0  0  0  0  0  0
   -3.8026   -0.7524   -2.6798 H   0  0  0  0  0  0  0  0  0  0  0  0
   -3.8413   -3.2334   -2.5742 H   0  0  0  0  0  0  0  0  0  0  0  0
   -4.2418   -4.3693   -0.3868 H   0  0  0  0  0  0  0  0  0  0  0  0
   -5.1341   -3.0804    1.5403 H   0  0  0  0  0  0  0  0  0  0  0  0
   -5.0740   -0.5857    1.4804 H   0  0  0  0  0  0  0  0  0  0  0  0
   -9.2036   -6.1708   -0.0687 C   0  0  0  0  0  0  0  0  0  0  0  0
  -10.2469   -6.9885   -0.4948 C   0  0  0  0  0  0  0  0  0  0  0  0
   -9.9989   -8.1520   -1.2396 C   0  0  0  0  0  0  0  0  0  0  0  0
   -8.6706   -8.4744   -1.5476 C   0  0  0  0  0  0  0  0  0  0  0  0
   -7.6159   -7.6631   -1.1296 C   0  0  0  0  0  0  0  0  0  0  0  0
   -7.8879   -6.5122   -0.3906 C   0  0  0  0  0  0  0  0  0  0  0  0
   -9.3941   -5.2814    0.5220 H   0  0  0  0  0  0  0  0  0  0  0  0
  -11.2711   -6.7251   -0.2412 H   0  0  0  0  0  0  0  0  0  0  0  0
   -8.4590   -9.3759   -2.1174 H   0  0  0  0  0  0  0  0  0  0  0  0
   -6.5860   -7.9183   -1.3543 H   0  0  0  0  0  0  0  0  0  0  0  0
   -6.5382   -5.4456    0.1274 S   0  0  0  0  0  0  0  0  0  0  0  0
   -6.9396   -4.8354    1.4179 O   0  0  0  0  0  0  0  0  0  0  0  0
   -6.4568   -4.4086   -0.9934 O   0  0  0  0  0  0  0  0  0  0  0  0
   -5.3104   -6.2801    0.1656 O   0  0  0  0  0  0  0  0  0  0  0  0
  -11.1374   -9.0461   -1.6713 C   0  0  0  0  0  0  0  0  0  0  0  0
  -11.5136   -9.6429   -0.8309 H   0  0  0  0  0  0  0  0  0  0  0  0
  -11.9817   -8.4632   -2.0540 H   0  0  0  0  0  0  0  0  0  0  0  0
  -10.8248   -9.7431   -2.4543 H   0  0  0  0  0  0  0  0  0  0  0  0
  1  8  2  0  0  0  0
  2  1  1  0  0  0  0
  3  2  1  0  0  0  0
  4  5  2  0  0  0  0
  4  1  1  0  0  0  0
  5  6  1  0  0  0  0
  6 11  1  0  0  0  0
  6  7  2  0  0  0  0
  7 12  1  0  0  0  0
  8  7  1  0  0  0  0
  8 13  1  0  0  0  0
  9  4  1  0  0  0  0
 10  5  1  0  0  0  0
 14 20  1  0  0  0  0
 15 21  1  0  0  0  0
 15 14  2  0  0  0  0
 16 15  1  0  0  0  0
 17 16  2  0  0  0  0
 17 18  1  0  0  0  0
 18 19  2  0  0  0  0
 19 14  1  0  0  0  0
 19 24  1  0  0  0  0
 22 17  1  0  0  0  0
 23 18  1  0  0  0  0
 24 27  2  0  0  0  0
 24 25  1  0  0  0  0
 26 24  2  0  0  0  0
 28 16  1  0  0  0  0
 28 29  1  0  0  0  0
 30 28  1  0  0  0  0
 31 28  1  0  0  0  0
M  RAD  3   2   2   3   3  25   2
M  END
