Coordinates from ORCA-job PhN2+~TsO-_B3LYPG-6-31G_dp-NX-Scan-d89-09-n800
 OpenBabel11261920463D

 31 32  0  0  0  0  0  0  0  0999 V2000
   -4.9261   -2.5303   -0.9333 C   0  0  0  0  0  0  0  0  0  0  0  0
   -6.3304   -2.6411   -1.0431 N   0  0  0  0  0  0  0  0  0  0  0  0
   -7.1786   -3.2814   -0.4797 N   0  0  0  0  0  0  0  0  0  0  0  0
   -4.3761   -1.6243   -1.8571 C   0  0  0  0  0  0  0  0  0  0  0  0
   -3.0061   -1.3881   -1.8772 C   0  0  0  0  0  0  0  0  0  0  0  0
   -2.1767   -2.0539   -0.9716 C   0  0  0  0  0  0  0  0  0  0  0  0
   -2.7216   -2.9541   -0.0517 C   0  0  0  0  0  0  0  0  0  0  0  0
   -4.0915   -3.2051   -0.0196 C   0  0  0  0  0  0  0  0  0  0  0  0
   -5.0470   -1.1194   -2.5437 H   0  0  0  0  0  0  0  0  0  0  0  0
   -2.5868   -0.6869   -2.5921 H   0  0  0  0  0  0  0  0  0  0  0  0
   -1.1060   -1.8703   -0.9800 H   0  0  0  0  0  0  0  0  0  0  0  0
   -2.0745   -3.4690    0.6517 H   0  0  0  0  0  0  0  0  0  0  0  0
   -4.5097   -3.8987    0.6937 H   0  0  0  0  0  0  0  0  0  0  0  0
   -9.7907   -5.4649   -0.3255 C   0  0  0  0  0  0  0  0  0  0  0  0
  -10.4509   -6.2875   -1.2355 C   0  0  0  0  0  0  0  0  0  0  0  0
  -10.0126   -7.5967   -1.4825 C   0  0  0  0  0  0  0  0  0  0  0  0
   -8.8863   -8.0674   -0.7916 C   0  0  0  0  0  0  0  0  0  0  0  0
   -8.2123   -7.2608    0.1222 C   0  0  0  0  0  0  0  0  0  0  0  0
   -8.6717   -5.9614    0.3445 C   0  0  0  0  0  0  0  0  0  0  0  0
  -10.1343   -4.4566   -0.1267 H   0  0  0  0  0  0  0  0  0  0  0  0
  -11.3238   -5.9078   -1.7596 H   0  0  0  0  0  0  0  0  0  0  0  0
   -8.5352   -9.0801   -0.9692 H   0  0  0  0  0  0  0  0  0  0  0  0
   -7.3503   -7.6302    0.6668 H   0  0  0  0  0  0  0  0  0  0  0  0
   -7.8109   -4.9214    1.5116 S   0  0  0  0  0  0  0  0  0  0  0  0
   -8.7133   -3.8647    1.9550 O   0  0  0  0  0  0  0  0  0  0  0  0
   -6.6013   -4.2522    0.6121 O   0  0  0  0  0  0  0  0  0  0  0  0
   -7.0881   -5.7650    2.4585 O   0  0  0  0  0  0  0  0  0  0  0  0
  -10.7566   -8.4898   -2.4455 C   0  0  0  0  0  0  0  0  0  0  0  0
  -11.5621   -9.0309   -1.9337 H   0  0  0  0  0  0  0  0  0  0  0  0
  -11.2154   -7.9131   -3.2536 H   0  0  0  0  0  0  0  0  0  0  0  0
  -10.0951   -9.2376   -2.8923 H   0  0  0  0  0  0  0  0  0  0  0  0
  1  8  2  0  0  0  0
  2  1  1  0  0  0  0
  2  3  1  0  0  0  0
  3 26  1  0  0  0  0
  4  1  1  0  0  0  0
  5  4  2  0  0  0  0
  5  6  1  0  0  0  0
  6  7  2  0  0  0  0
  7  8  1  0  0  0  0
  7 12  1  0  0  0  0
  8 13  1  0  0  0  0
  9  4  1  0  0  0  0
 10  5  1  0  0  0  0
 11  6  1  0  0  0  0
 14 20  1  0  0  0  0
 14 19  2  0  0  0  0
 15 14  1  0  0  0  0
 16 15  2  0  0  0  0
 16 17  1  0  0  0  0
 17 18  2  0  0  0  0
 18 19  1  0  0  0  0
 18 23  1  0  0  0  0
 19 24  1  0  0  0  0
 21 15  1  0  0  0  0
 22 17  1  0  0  0  0
 24 25  2  0  0  0  0
 24 27  2  0  0  0  0
 26 24  1  0  0  0  0
 28 29  1  0  0  0  0
 28 16  1  0  0  0  0
 30 28  1  0  0  0  0
 31 28  1  0  0  0  0
M  RAD  2   2   2   3   2
M  END
