Coordinates from ORCA-job PhN2+~TsO-_B3LYPG-6-31G_dp-NX-Scan-d89-09-n800
 OpenBabel11261920463D

 31 32  0  0  0  0  0  0  0  0999 V2000
   -4.9800   -2.5663   -0.8935 C   0  0  0  0  0  0  0  0  0  0  0  0
   -6.3933   -2.6445   -0.9972 N   0  0  0  0  0  0  0  0  0  0  0  0
   -7.2020   -3.3080   -0.3546 N   0  0  0  0  0  0  0  0  0  0  0  0
   -4.4320   -1.7157   -1.8721 C   0  0  0  0  0  0  0  0  0  0  0  0
   -3.0612   -1.4933   -1.9377 C   0  0  0  0  0  0  0  0  0  0  0  0
   -2.2154   -2.1158   -1.0171 C   0  0  0  0  0  0  0  0  0  0  0  0
   -2.7502   -2.9578   -0.0392 C   0  0  0  0  0  0  0  0  0  0  0  0
   -4.1222   -3.1940    0.0347 C   0  0  0  0  0  0  0  0  0  0  0  0
   -5.1143   -1.2406   -2.5687 H   0  0  0  0  0  0  0  0  0  0  0  0
   -2.6540   -0.8353   -2.6996 H   0  0  0  0  0  0  0  0  0  0  0  0
   -1.1435   -1.9436   -1.0584 H   0  0  0  0  0  0  0  0  0  0  0  0
   -2.0936   -3.4402    0.6786 H   0  0  0  0  0  0  0  0  0  0  0  0
   -4.5151   -3.8456    0.7994 H   0  0  0  0  0  0  0  0  0  0  0  0
   -9.7787   -5.4422   -0.3116 C   0  0  0  0  0  0  0  0  0  0  0  0
  -10.4208   -6.2569   -1.2404 C   0  0  0  0  0  0  0  0  0  0  0  0
   -9.9668   -7.5581   -1.5035 C   0  0  0  0  0  0  0  0  0  0  0  0
   -8.8420   -8.0298   -0.8107 C   0  0  0  0  0  0  0  0  0  0  0  0
   -8.1837   -7.2325    0.1221 C   0  0  0  0  0  0  0  0  0  0  0  0
   -8.6619   -5.9425    0.3605 C   0  0  0  0  0  0  0  0  0  0  0  0
  -10.1315   -4.4393   -0.1035 H   0  0  0  0  0  0  0  0  0  0  0  0
  -11.2909   -5.8767   -1.7683 H   0  0  0  0  0  0  0  0  0  0  0  0
   -8.4790   -9.0354   -1.0023 H   0  0  0  0  0  0  0  0  0  0  0  0
   -7.3211   -7.6008    0.6663 H   0  0  0  0  0  0  0  0  0  0  0  0
   -7.8284   -4.9205    1.5550 S   0  0  0  0  0  0  0  0  0  0  0  0
   -8.7433   -3.9018    2.0484 O   0  0  0  0  0  0  0  0  0  0  0  0
   -6.6308   -4.1522    0.6350 O   0  0  0  0  0  0  0  0  0  0  0  0
   -7.0258   -5.7513    2.4418 O   0  0  0  0  0  0  0  0  0  0  0  0
  -10.6927   -8.4415   -2.4883 C   0  0  0  0  0  0  0  0  0  0  0  0
  -11.5049   -8.9892   -1.9945 H   0  0  0  0  0  0  0  0  0  0  0  0
  -11.1401   -7.8564   -3.2966 H   0  0  0  0  0  0  0  0  0  0  0  0
  -10.0226   -9.1829   -2.9326 H   0  0  0  0  0  0  0  0  0  0  0  0
  1  8  2  0  0  0  0
  2  1  1  0  0  0  0
  2  3  1  0  0  0  0
  3 26  1  0  0  0  0
  4  1  1  0  0  0  0
  5  4  2  0  0  0  0
  5  6  1  0  0  0  0
  6  7  2  0  0  0  0
  7  8  1  0  0  0  0
  7 12  1  0  0  0  0
  8 13  1  0  0  0  0
  9  4  1  0  0  0  0
 10  5  1  0  0  0  0
 11  6  1  0  0  0  0
 14 20  1  0  0  0  0
 14 19  2  0  0  0  0
 15 14  1  0  0  0  0
 16 15  2  0  0  0  0
 16 17  1  0  0  0  0
 17 18  2  0  0  0  0
 18 19  1  0  0  0  0
 18 23  1  0  0  0  0
 19 24  1  0  0  0  0
 21 15  1  0  0  0  0
 22 17  1  0  0  0  0
 24 25  2  0  0  0  0
 24 27  2  0  0  0  0
 26 24  1  0  0  0  0
 28 29  1  0  0  0  0
 28 16  1  0  0  0  0
 30 28  1  0  0  0  0
 31 28  1  0  0  0  0
M  RAD  2   2   2   3   2
M  END
