Coordinates from ORCA-job PhN2+~TsO-_B3LYPG-6-31G_dp-NX-Scan-d89-09-n800
 OpenBabel11261920463D

 31 32  0  0  1  0  0  0  0  0999 V2000
   -5.3523   -1.3478   -0.7441 C   0  0  2  0  0  0  0  0  0  0  0  0
   -6.6110   -1.7436   -0.5948 N   0  0  0  0  0  0  0  0  0  0  0  0
   -7.5334   -2.3831   -0.4329 N   0  0  0  0  0  0  0  0  0  0  0  0
   -4.7740   -2.0434   -1.9403 C   0  0  0  0  0  0  0  0  0  0  0  0
   -4.2450   -3.2521   -1.7052 C   0  0  0  0  0  0  0  0  0  0  0  0
   -4.4258   -3.7995   -0.3135 C   0  0  1  0  0  0  0  0  0  0  0  0
   -4.0732   -2.7608    0.7217 C   0  0  0  0  0  0  0  0  0  0  0  0
   -4.6113   -1.5452    0.5446 C   0  0  0  0  0  0  0  0  0  0  0  0
   -4.8240   -1.5888   -2.9257 H   0  0  0  0  0  0  0  0  0  0  0  0
   -3.7436   -3.8460   -2.4637 H   0  0  0  0  0  0  0  0  0  0  0  0
   -3.9427   -4.7609   -0.1515 H   0  0  0  0  0  0  0  0  0  0  0  0
   -3.4636   -3.0310    1.5790 H   0  0  0  0  0  0  0  0  0  0  0  0
   -4.5570   -0.7489    1.2813 H   0  0  0  0  0  0  0  0  0  0  0  0
   -8.9833   -5.4686   -0.1338 C   0  0  0  0  0  0  0  0  0  0  0  0
   -9.9541   -6.1316   -0.8810 C   0  0  0  0  0  0  0  0  0  0  0  0
   -9.6578   -7.3156   -1.5724 C   0  0  0  0  0  0  0  0  0  0  0  0
   -8.3526   -7.8234   -1.5002 C   0  0  0  0  0  0  0  0  0  0  0  0
   -7.3660   -7.1734   -0.7623 C   0  0  0  0  0  0  0  0  0  0  0  0
   -7.6919   -5.9960   -0.0877 C   0  0  0  0  0  0  0  0  0  0  0  0
   -9.2176   -4.5588    0.4057 H   0  0  0  0  0  0  0  0  0  0  0  0
  -10.9606   -5.7241   -0.9253 H   0  0  0  0  0  0  0  0  0  0  0  0
   -8.1063   -8.7432   -2.0236 H   0  0  0  0  0  0  0  0  0  0  0  0
   -6.3607   -7.5743   -0.6944 H   0  0  0  0  0  0  0  0  0  0  0  0
   -6.4347   -5.1694    0.8725 S   0  0  0  0  0  0  0  0  0  0  0  0
   -7.0683   -4.4850    1.9965 O   0  0  0  0  0  0  0  0  0  0  0  0
   -5.9492   -4.0243   -0.2114 O   0  0  0  0  0  0  0  0  0  0  0  0
   -5.3241   -6.1001    1.1021 O   0  0  0  0  0  0  0  0  0  0  0  0
  -10.7270   -8.0455   -2.3486 C   0  0  0  0  0  0  0  0  0  0  0  0
  -11.2317   -8.7864   -1.7161 H   0  0  0  0  0  0  0  0  0  0  0  0
  -11.4928   -7.3583   -2.7194 H   0  0  0  0  0  0  0  0  0  0  0  0
  -10.3059   -8.5814   -3.2040 H   0  0  0  0  0  0  0  0  0  0  0  0
  1  2  1  1  0  0  0
  1  8  1  0  0  0  0
  2  3  1  0  0  0  0
  4  5  2  0  0  0  0
  4  1  1  0  0  0  0
  5  6  1  0  0  0  0
  6 26  1  0  0  0  0
  6 11  1  1  0  0  0
  6  7  1  0  0  0  0
  7 12  1  0  0  0  0
  8  7  2  0  0  0  0
  8 13  1  0  0  0  0
  9  4  1  0  0  0  0
 10  5  1  0  0  0  0
 14 19  1  0  0  0  0
 14 20  1  0  0  0  0
 15 14  2  0  0  0  0
 16 17  2  0  0  0  0
 16 15  1  0  0  0  0
 17 18  1  0  0  0  0
 18 23  1  0  0  0  0
 18 19  2  0  0  0  0
 19 24  1  0  0  0  0
 21 15  1  0  0  0  0
 22 17  1  0  0  0  0
 24 27  2  0  0  0  0
 24 25  2  0  0  0  0
 26 24  1  0  0  0  0
 28 29  1  0  0  0  0
 28 16  1  0  0  0  0
 30 28  1  0  0  0  0
 31 28  1  0  0  0  0
M  RAD  3   1   2   2   2   3   3
M  END
