Coordinates from ORCA-job PhN2+~TsO-_B3LYPG-6-31G_dp-NX-Scan-d89-09-n800
 OpenBabel11261920463D

 31 32  0  0  0  0  0  0  0  0999 V2000
   -4.3942   -2.4818   -0.6729 C   0  0  0  0  0  0  0  0  0  0  0  0
   -5.5171   -3.3417   -0.5573 N   0  0  0  0  0  0  0  0  0  0  0  0
   -6.2784   -3.4620   -1.5804 N   0  0  0  0  0  0  0  0  0  0  0  0
   -3.7367   -2.2679    0.5520 C   0  0  0  0  0  0  0  0  0  0  0  0
   -2.6037   -1.4656    0.6168 C   0  0  0  0  0  0  0  0  0  0  0  0
   -2.0998   -0.8663   -0.5410 C   0  0  0  0  0  0  0  0  0  0  0  0
   -2.7447   -1.0792   -1.7588 C   0  0  0  0  0  0  0  0  0  0  0  0
   -3.8874   -1.8778   -1.8381 C   0  0  0  0  0  0  0  0  0  0  0  0
   -4.1420   -2.7426    1.4390 H   0  0  0  0  0  0  0  0  0  0  0  0
   -2.1124   -1.3083    1.5723 H   0  0  0  0  0  0  0  0  0  0  0  0
   -1.2125   -0.2423   -0.4937 H   0  0  0  0  0  0  0  0  0  0  0  0
   -2.3601   -0.6205   -2.6649 H   0  0  0  0  0  0  0  0  0  0  0  0
   -4.3602   -2.0216   -2.8003 H   0  0  0  0  0  0  0  0  0  0  0  0
   -8.2897   -7.3675   -1.1067 C   0  0  0  0  0  0  0  0  0  0  0  0
   -9.2511   -8.3164   -1.4450 C   0  0  0  0  0  0  0  0  0  0  0  0
  -10.5395   -8.2722   -0.8882 C   0  0  0  0  0  0  0  0  0  0  0  0
  -10.8413   -7.2462    0.0176 C   0  0  0  0  0  0  0  0  0  0  0  0
   -9.8888   -6.2888    0.3672 C   0  0  0  0  0  0  0  0  0  0  0  0
   -8.6217   -6.3537   -0.2056 C   0  0  0  0  0  0  0  0  0  0  0  0
   -7.2997   -7.4073   -1.5520 H   0  0  0  0  0  0  0  0  0  0  0  0
   -9.0014   -9.1026   -2.1534 H   0  0  0  0  0  0  0  0  0  0  0  0
  -11.8348   -7.1967    0.4555 H   0  0  0  0  0  0  0  0  0  0  0  0
  -10.1095   -5.4926    1.0718 H   0  0  0  0  0  0  0  0  0  0  0  0
   -7.3632   -5.1504    0.3184 S   0  0  1  0  0  0  0  0  0  0  0  0
   -7.4293   -4.4316   -1.2574 O   0  0  0  0  0  0  0  0  0  0  0  0
   -6.3372   -3.0883   -2.5386 O   0  0  0  0  0  0  0  0  0  0  0  0
   -8.0298   -4.2733    1.3170 O   0  0  0  0  0  0  0  0  0  0  0  0
  -11.5638   -9.3248   -1.2389 C   0  0  0  0  0  0  0  0  0  0  0  0
  -11.4977   -9.6118   -2.2928 H   0  0  0  0  0  0  0  0  0  0  0  0
  -11.4128  -10.2348   -0.6454 H   0  0  0  0  0  0  0  0  0  0  0  0
  -12.5812   -8.9736   -1.0448 H   0  0  0  0  0  0  0  0  0  0  0  0
  1  2  1  0  0  0  0
  1  4  2  0  0  0  0
  3 25  1  0  0  0  0
  3  2  1  0  0  0  0
  4  5  1  0  0  0  0
  4  9  1  0  0  0  0
  5 10  1  0  0  0  0
  6 11  1  0  0  0  0
  6  5  2  0  0  0  0
  7  6  1  0  0  0  0
  8  7  2  0  0  0  0
  8  1  1  0  0  0  0
 12  7  1  0  0  0  0
 13  8  1  0  0  0  0
 14 19  1  0  0  0  0
 15 14  2  0  0  0  0
 15 16  1  0  0  0  0
 16 17  2  0  0  0  0
 17 18  1  0  0  0  0
 17 22  1  0  0  0  0
 18 23  1  0  0  0  0
 19 24  1  0  0  0  0
 19 18  2  0  0  0  0
 20 14  1  0  0  0  0
 21 15  1  0  0  0  0
 24 25  1  6  0  0  0
 24 27  1  0  0  0  0
 26  3  1  0  0  0  0
 28 31  1  0  0  0  0
 28 16  1  0  0  0  0
 28 30  1  0  0  0  0
 29 28  1  0  0  0  0
M  RAD  3   2   2  26   2  27   2
M  END
