Coordinates from ORCA-job PhN2+~TsO-_B3LYPG-6-31G_dp-NX-Scan-d89-09-n800
 OpenBabel11261920463D

 31 31  0  0  0  0  0  0  0  0999 V2000
   -4.0319   -0.3996   -0.3791 C   0  0  0  0  0  0  0  0  0  0  0  0
   -3.8042    0.9171   -0.1631 N   0  0  0  0  0  0  0  0  0  0  0  0
   -3.6083    2.0094    0.0275 N   0  0  0  0  0  0  0  0  0  0  0  0
   -3.4351   -1.0062   -1.5151 C   0  0  0  0  0  0  0  0  0  0  0  0
   -3.6445   -2.3582   -1.6955 C   0  0  0  0  0  0  0  0  0  0  0  0
   -4.4244   -3.0963   -0.7830 C   0  0  0  0  0  0  0  0  0  0  0  0
   -5.0314   -2.4641    0.3251 C   0  0  0  0  0  0  0  0  0  0  0  0
   -4.8424   -1.1165    0.5455 C   0  0  0  0  0  0  0  0  0  0  0  0
   -2.8329   -0.4157   -2.1969 H   0  0  0  0  0  0  0  0  0  0  0  0
   -3.1980   -2.8580   -2.5483 H   0  0  0  0  0  0  0  0  0  0  0  0
   -4.5472   -4.1723   -0.8958 H   0  0  0  0  0  0  0  0  0  0  0  0
   -5.6758   -3.0590    0.9737 H   0  0  0  0  0  0  0  0  0  0  0  0
   -5.2898   -0.6024    1.3889 H   0  0  0  0  0  0  0  0  0  0  0  0
   -9.4224   -6.2621   -0.1621 C   0  0  0  0  0  0  0  0  0  0  0  0
  -10.4056   -7.2145   -0.4168 C   0  0  0  0  0  0  0  0  0  0  0  0
  -10.0985   -8.4161   -1.0743 C   0  0  0  0  0  0  0  0  0  0  0  0
   -8.7731   -8.6361   -1.4702 C   0  0  0  0  0  0  0  0  0  0  0  0
   -7.7794   -7.6884   -1.2229 C   0  0  0  0  0  0  0  0  0  0  0  0
   -8.1068   -6.5015   -0.5681 C   0  0  0  0  0  0  0  0  0  0  0  0
   -9.6589   -5.3419    0.3610 H   0  0  0  0  0  0  0  0  0  0  0  0
  -11.4281   -7.0278   -0.0965 H   0  0  0  0  0  0  0  0  0  0  0  0
   -8.5144   -9.5639   -1.9750 H   0  0  0  0  0  0  0  0  0  0  0  0
   -6.7500   -7.8614   -1.5170 H   0  0  0  0  0  0  0  0  0  0  0  0
   -6.8425   -5.2533   -0.2926 S   0  0  0  0  0  0  0  0  0  0  0  0
   -7.1601   -4.6379    1.0300 O   0  0  0  0  0  0  0  0  0  0  0  0
   -6.9736   -4.2776   -1.4277 O   0  0  0  0  0  0  0  0  0  0  0  0
   -5.5336   -5.9695   -0.3322 O   0  0  0  0  0  0  0  0  0  0  0  0
  -11.1689   -9.4535   -1.3218 C   0  0  0  0  0  0  0  0  0  0  0  0
  -11.4278   -9.9867   -0.3985 H   0  0  0  0  0  0  0  0  0  0  0  0
  -12.0910   -8.9967   -1.6966 H   0  0  0  0  0  0  0  0  0  0  0  0
  -10.8413  -10.2000   -2.0512 H   0  0  0  0  0  0  0  0  0  0  0  0
  1  2  1  0  0  0  0
  1  8  2  0  0  0  0
  2  3  1  0  0  0  0
  4  1  1  0  0  0  0
  5  4  2  0  0  0  0
  5  6  1  0  0  0  0
  6  7  2  0  0  0  0
  7  8  1  0  0  0  0
  7 12  1  0  0  0  0
  8 13  1  0  0  0  0
  9  4  1  0  0  0  0
 10  5  1  0  0  0  0
 11  6  1  0  0  0  0
 14 20  1  0  0  0  0
 15 14  1  0  0  0  0
 15 21  1  0  0  0  0
 16 15  2  0  0  0  0
 17 18  2  0  0  0  0
 17 16  1  0  0  0  0
 18 19  1  0  0  0  0
 19 24  1  0  0  0  0
 19 14  2  0  0  0  0
 22 17  1  0  0  0  0
 23 18  1  0  0  0  0
 24 25  1  0  0  0  0
 26 24  2  0  0  0  0
 27 24  2  0  0  0  0
 28 16  1  0  0  0  0
 28 29  1  0  0  0  0
 30 28  1  0  0  0  0
 31 28  1  0  0  0  0
M  RAD  3   2   2   3   3  25   2
M  END
