Coordinates from ORCA-job PhN2+~TsO-_B3LYPG-6-31G_dp-NX-Scan-d89-09-n800
 OpenBabel11261920463D

 31 32  0  0  0  0  0  0  0  0999 V2000
   -4.8332   -2.4760   -0.9913 C   0  0  0  0  0  0  0  0  0  0  0  0
   -6.2222   -2.6518   -1.1484 N   0  0  0  0  0  0  0  0  0  0  0  0
   -7.0971   -3.3036   -0.6936 N   0  0  0  0  0  0  0  0  0  0  0  0
   -4.2806   -1.4955   -1.8309 C   0  0  0  0  0  0  0  0  0  0  0  0
   -2.9201   -1.2173   -1.7619 C   0  0  0  0  0  0  0  0  0  0  0  0
   -2.1160   -1.9156   -0.8572 C   0  0  0  0  0  0  0  0  0  0  0  0
   -2.6717   -2.8917   -0.0246 C   0  0  0  0  0  0  0  0  0  0  0  0
   -4.0314   -3.1873   -0.0788 C   0  0  0  0  0  0  0  0  0  0  0  0
   -4.9330   -0.9686   -2.5186 H   0  0  0  0  0  0  0  0  0  0  0  0
   -2.4886   -0.4585   -2.4069 H   0  0  0  0  0  0  0  0  0  0  0  0
   -1.0535   -1.6978   -0.7987 H   0  0  0  0  0  0  0  0  0  0  0  0
   -2.0418   -3.4300    0.6766 H   0  0  0  0  0  0  0  0  0  0  0  0
   -4.4750   -3.9368    0.5606 H   0  0  0  0  0  0  0  0  0  0  0  0
   -9.7968   -5.5041   -0.3675 C   0  0  0  0  0  0  0  0  0  0  0  0
  -10.5066   -6.3369   -1.2308 C   0  0  0  0  0  0  0  0  0  0  0  0
  -10.1156   -7.6668   -1.4414 C   0  0  0  0  0  0  0  0  0  0  0  0
   -8.9865   -8.1470   -0.7617 C   0  0  0  0  0  0  0  0  0  0  0  0
   -8.2652   -7.3293    0.1050 C   0  0  0  0  0  0  0  0  0  0  0  0
   -8.6758   -6.0083    0.2923 C   0  0  0  0  0  0  0  0  0  0  0  0
  -10.1060   -4.4798   -0.1939 H   0  0  0  0  0  0  0  0  0  0  0  0
  -11.3820   -5.9491   -1.7451 H   0  0  0  0  0  0  0  0  0  0  0  0
   -8.6713   -9.1763   -0.9107 H   0  0  0  0  0  0  0  0  0  0  0  0
   -7.4018   -7.7069    0.6419 H   0  0  0  0  0  0  0  0  0  0  0  0
   -7.7464   -4.9488    1.3932 S   0  0  0  0  0  0  0  0  0  0  0  0
   -8.6030   -3.8288    1.7807 O   0  0  0  0  0  0  0  0  0  0  0  0
   -6.5339   -4.4084    0.4707 O   0  0  0  0  0  0  0  0  0  0  0  0
   -7.0964   -5.7864    2.4014 O   0  0  0  0  0  0  0  0  0  0  0  0
  -10.9119   -8.5708   -2.3517 C   0  0  0  0  0  0  0  0  0  0  0  0
  -11.7116   -9.0782   -1.7982 H   0  0  0  0  0  0  0  0  0  0  0  0
  -11.3843   -8.0079   -3.1619 H   0  0  0  0  0  0  0  0  0  0  0  0
  -10.2825   -9.3466   -2.7973 H   0  0  0  0  0  0  0  0  0  0  0  0
  1  8  2  0  0  0  0
  2  1  1  0  0  0  0
  2  3  1  0  0  0  0
  3 26  1  0  0  0  0
  4  5  2  0  0  0  0
  4  1  1  0  0  0  0
  5  6  1  0  0  0  0
  6 11  1  0  0  0  0
  6  7  2  0  0  0  0
  7 12  1  0  0  0  0
  8  7  1  0  0  0  0
  8 13  1  0  0  0  0
  9  4  1  0  0  0  0
 10  5  1  0  0  0  0
 14 20  1  0  0  0  0
 14 19  2  0  0  0  0
 15 14  1  0  0  0  0
 16 15  2  0  0  0  0
 16 17  1  0  0  0  0
 17 18  2  0  0  0  0
 18 19  1  0  0  0  0
 18 23  1  0  0  0  0
 19 24  1  0  0  0  0
 21 15  1  0  0  0  0
 22 17  1  0  0  0  0
 24 25  2  0  0  0  0
 24 27  2  0  0  0  0
 26 24  1  0  0  0  0
 28 29  1  0  0  0  0
 28 16  1  0  0  0  0
 30 28  1  0  0  0  0
 31 28  1  0  0  0  0
M  RAD  2   2   2   3   2
M  END
