Coordinates from ORCA-job PhN2+~TsO-_B3LYPG-6-31G_dp-NX-Scan-d89-09-n800
 OpenBabel11261920463D

 31 32  0  0  1  0  0  0  0  0999 V2000
   -5.2202   -1.1199   -1.0118 C   0  0  0  0  0  0  0  0  0  0  0  0
   -5.7664   -0.0675   -1.5703 N   0  0  0  0  0  0  0  0  0  0  0  0
   -6.2644    0.8338   -2.0633 N   0  0  0  0  0  0  0  0  0  0  0  0
   -4.4474   -2.0390   -1.8214 C   0  0  0  0  0  0  0  0  0  0  0  0
   -4.0779   -3.2226   -1.2990 C   0  0  0  0  0  0  0  0  0  0  0  0
   -4.5870   -3.6708    0.0301 C   0  0  1  0  0  0  0  0  0  0  0  0
   -5.0579   -2.5629    0.9136 C   0  0  0  0  0  0  0  0  0  0  0  0
   -5.4307   -1.3770    0.3990 C   0  0  0  0  0  0  0  0  0  0  0  0
   -4.1633   -1.7407   -2.8254 H   0  0  0  0  0  0  0  0  0  0  0  0
   -3.4785   -3.9221   -1.8719 H   0  0  0  0  0  0  0  0  0  0  0  0
   -3.8787   -4.3355    0.5304 H   0  0  0  0  0  0  0  0  0  0  0  0
   -5.1902   -2.7811    1.9675 H   0  0  0  0  0  0  0  0  0  0  0  0
   -5.8683   -0.5959    1.0129 H   0  0  0  0  0  0  0  0  0  0  0  0
   -8.6906   -6.1521    0.3258 C   0  0  0  0  0  0  0  0  0  0  0  0
   -9.8418   -6.6455   -0.2800 C   0  0  0  0  0  0  0  0  0  0  0  0
   -9.7685   -7.4986   -1.3929 C   0  0  0  0  0  0  0  0  0  0  0  0
   -8.5045   -7.8523   -1.8833 C   0  0  0  0  0  0  0  0  0  0  0  0
   -7.3393   -7.3684   -1.2906 C   0  0  0  0  0  0  0  0  0  0  0  0
   -7.4459   -6.5167   -0.1922 C   0  0  0  0  0  0  0  0  0  0  0  0
   -8.7455   -5.5061    1.1951 H   0  0  0  0  0  0  0  0  0  0  0  0
  -10.8141   -6.3690    0.1190 H   0  0  0  0  0  0  0  0  0  0  0  0
   -8.4304   -8.5183   -2.7385 H   0  0  0  0  0  0  0  0  0  0  0  0
   -6.3608   -7.6534   -1.6606 H   0  0  0  0  0  0  0  0  0  0  0  0
   -5.9635   -5.8925    0.5744 S   0  0  0  0  0  0  0  0  0  0  0  0
   -6.2405   -5.5403    1.9704 O   0  0  0  0  0  0  0  0  0  0  0  0
   -5.8072   -4.5214   -0.3020 O   0  0  0  0  0  0  0  0  0  0  0  0
   -4.8386   -6.7806    0.2674 O   0  0  0  0  0  0  0  0  0  0  0  0
  -11.0287   -8.0229   -2.0381 C   0  0  0  0  0  0  0  0  0  0  0  0
  -11.6492   -8.5627   -1.3138 H   0  0  0  0  0  0  0  0  0  0  0  0
  -11.6384   -7.2038   -2.4366 H   0  0  0  0  0  0  0  0  0  0  0  0
  -10.8033   -8.7047   -2.8623 H   0  0  0  0  0  0  0  0  0  0  0  0
  1  8  1  0  0  0  0
  2  1  1  0  0  0  0
  3  2  1  0  0  0  0
  4  5  1  0  0  0  0
  4  1  2  0  0  0  0
  5  6  1  0  0  0  0
  6 11  1  1  0  0  0
  6  7  1  0  0  0  0
  7 12  1  0  0  0  0
  8  7  2  0  0  0  0
  8 13  1  0  0  0  0
  9  4  1  0  0  0  0
 10  5  1  0  0  0  0
 14 20  1  0  0  0  0
 15 21  1  0  0  0  0
 15 14  2  0  0  0  0
 16 15  1  0  0  0  0
 17 16  2  0  0  0  0
 17 18  1  0  0  0  0
 18 19  2  0  0  0  0
 19 14  1  0  0  0  0
 19 24  1  0  0  0  0
 22 17  1  0  0  0  0
 23 18  1  0  0  0  0
 24 25  2  0  0  0  0
 26  6  1  0  0  0  0
 26 24  1  0  0  0  0
 27 24  2  0  0  0  0
 28 16  1  0  0  0  0
 28 29  1  0  0  0  0
 30 28  1  0  0  0  0
 31 28  1  0  0  0  0
M  RAD  3   2   2   3   3   5   2
M  END
