Coordinates from ORCA-job PhN2+~TsO-_B3LYPG-6-31G_dp-NX-Scan-d89-09-n800
 OpenBabel11261920463D

 31 32  0  0  1  0  0  0  0  0999 V2000
   -5.4107   -1.3709   -0.6484 C   0  0  2  0  0  0  0  0  0  0  0  0
   -6.6927   -1.6626   -0.5713 N   0  0  0  0  0  0  0  0  0  0  0  0
   -7.7454   -2.0825   -0.4962 N   0  0  0  0  0  0  0  0  0  0  0  0
   -4.7965   -1.9554   -1.8787 C   0  0  0  0  0  0  0  0  0  0  0  0
   -4.2004   -3.1448   -1.7237 C   0  0  0  0  0  0  0  0  0  0  0  0
   -4.3770   -3.8040   -0.3796 C   0  0  1  0  0  0  0  0  0  0  0  0
   -4.1014   -2.8281    0.7394 C   0  0  0  0  0  0  0  0  0  0  0  0
   -4.7017   -1.6346    0.6398 C   0  0  0  0  0  0  0  0  0  0  0  0
   -4.8610   -1.4327   -2.8288 H   0  0  0  0  0  0  0  0  0  0  0  0
   -3.6613   -3.6543   -2.5164 H   0  0  0  0  0  0  0  0  0  0  0  0
   -3.8380   -4.7443   -0.2772 H   0  0  0  0  0  0  0  0  0  0  0  0
   -3.5011   -3.1310    1.5919 H   0  0  0  0  0  0  0  0  0  0  0  0
   -4.7102   -0.8948    1.4349 H   0  0  0  0  0  0  0  0  0  0  0  0
   -8.8932   -5.4308   -0.2460 C   0  0  0  0  0  0  0  0  0  0  0  0
   -9.8914   -6.0900   -0.9570 C   0  0  0  0  0  0  0  0  0  0  0  0
   -9.6603   -7.3435   -1.5456 C   0  0  0  0  0  0  0  0  0  0  0  0
   -8.3925   -7.9235   -1.4072 C   0  0  0  0  0  0  0  0  0  0  0  0
   -7.3764   -7.2773   -0.7039 C   0  0  0  0  0  0  0  0  0  0  0  0
   -7.6383   -6.0334   -0.1316 C   0  0  0  0  0  0  0  0  0  0  0  0
   -9.0772   -4.4660    0.2114 H   0  0  0  0  0  0  0  0  0  0  0  0
  -10.8691   -5.6250   -1.0551 H   0  0  0  0  0  0  0  0  0  0  0  0
   -8.1969   -8.8953   -1.8515 H   0  0  0  0  0  0  0  0  0  0  0  0
   -6.3978   -7.7300   -0.5877 H   0  0  0  0  0  0  0  0  0  0  0  0
   -6.3488   -5.2122    0.7872 S   0  0  0  0  0  0  0  0  0  0  0  0
   -6.9466   -4.4808    1.9017 O   0  0  0  0  0  0  0  0  0  0  0  0
   -5.8634   -4.1268   -0.3532 O   0  0  0  0  0  0  0  0  0  0  0  0
   -5.2492   -6.1530    1.0266 O   0  0  0  0  0  0  0  0  0  0  0  0
  -10.7644   -8.0557   -2.2885 C   0  0  0  0  0  0  0  0  0  0  0  0
  -11.4913   -8.4879   -1.5899 H   0  0  0  0  0  0  0  0  0  0  0  0
  -11.3136   -7.3687   -2.9404 H   0  0  0  0  0  0  0  0  0  0  0  0
  -10.3742   -8.8709   -2.9036 H   0  0  0  0  0  0  0  0  0  0  0  0
  1  2  1  1  0  0  0
  1  8  1  0  0  0  0
  2  3  1  0  0  0  0
  4  5  2  0  0  0  0
  4  1  1  0  0  0  0
  5  6  1  0  0  0  0
  6 26  1  0  0  0  0
  6 11  1  1  0  0  0
  6  7  1  0  0  0  0
  7 12  1  0  0  0  0
  8  7  2  0  0  0  0
  8 13  1  0  0  0  0
  9  4  1  0  0  0  0
 10  5  1  0  0  0  0
 14 19  1  0  0  0  0
 14 20  1  0  0  0  0
 15 14  2  0  0  0  0
 16 17  2  0  0  0  0
 16 15  1  0  0  0  0
 17 18  1  0  0  0  0
 18 23  1  0  0  0  0
 18 19  2  0  0  0  0
 19 24  1  0  0  0  0
 21 15  1  0  0  0  0
 22 17  1  0  0  0  0
 24 27  2  0  0  0  0
 24 25  2  0  0  0  0
 26 24  1  0  0  0  0
 28 29  1  0  0  0  0
 28 16  1  0  0  0  0
 30 28  1  0  0  0  0
 31 28  1  0  0  0  0
M  RAD  3   1   2   2   2   3   3
M  END
