Coordinates from ORCA-job PhN2+~TsO-_B3LYPG-6-31G_dp-NX-Scan-d89-09-n800
 OpenBabel11261920463D

 31 32  0  0  1  0  0  0  0  0999 V2000
   -5.3618   -1.3541   -0.7039 C   0  0  2  0  0  0  0  0  0  0  0  0
   -6.6268   -1.7236   -0.5948 N   0  0  0  0  0  0  0  0  0  0  0  0
   -7.6072   -2.2830   -0.4815 N   0  0  0  0  0  0  0  0  0  0  0  0
   -4.7569   -1.9996   -1.9141 C   0  0  0  0  0  0  0  0  0  0  0  0
   -4.2123   -3.2068   -1.7129 C   0  0  0  0  0  0  0  0  0  0  0  0
   -4.4088   -3.8052   -0.3432 C   0  0  1  0  0  0  0  0  0  0  0  0
   -4.0873   -2.7968    0.7340 C   0  0  0  0  0  0  0  0  0  0  0  0
   -4.6400   -1.5844    0.5893 C   0  0  0  0  0  0  0  0  0  0  0  0
   -4.7956   -1.5090   -2.8825 H   0  0  0  0  0  0  0  0  0  0  0  0
   -3.6900   -3.7664   -2.4832 H   0  0  0  0  0  0  0  0  0  0  0  0
   -3.9082   -4.7619   -0.2062 H   0  0  0  0  0  0  0  0  0  0  0  0
   -3.4880   -3.0880    1.5914 H   0  0  0  0  0  0  0  0  0  0  0  0
   -4.6077   -0.8112    1.3514 H   0  0  0  0  0  0  0  0  0  0  0  0
   -8.9622   -5.4483   -0.1795 C   0  0  0  0  0  0  0  0  0  0  0  0
   -9.9420   -6.1173   -0.9096 C   0  0  0  0  0  0  0  0  0  0  0  0
   -9.6655   -7.3293   -1.5592 C   0  0  0  0  0  0  0  0  0  0  0  0
   -8.3706   -7.8594   -1.4632 C   0  0  0  0  0  0  0  0  0  0  0  0
   -7.3751   -7.2041   -0.7422 C   0  0  0  0  0  0  0  0  0  0  0  0
   -7.6819   -5.9991   -0.1086 C   0  0  0  0  0  0  0  0  0  0  0  0
   -9.1812   -4.5161    0.3270 H   0  0  0  0  0  0  0  0  0  0  0  0
  -10.9400   -5.6920   -0.9731 H   0  0  0  0  0  0  0  0  0  0  0  0
   -8.1395   -8.8004   -1.9548 H   0  0  0  0  0  0  0  0  0  0  0  0
   -6.3775   -7.6207   -0.6566 H   0  0  0  0  0  0  0  0  0  0  0  0
   -6.4147   -5.1673    0.8326 S   0  0  0  0  0  0  0  0  0  0  0  0
   -7.0378   -4.4483    1.9409 O   0  0  0  0  0  0  0  0  0  0  0  0
   -5.9167   -4.0621   -0.2852 O   0  0  0  0  0  0  0  0  0  0  0  0
   -5.3132   -6.1030    1.0839 O   0  0  0  0  0  0  0  0  0  0  0  0
  -10.7444   -8.0647   -2.3165 C   0  0  0  0  0  0  0  0  0  0  0  0
  -11.2462   -8.7955   -1.6702 H   0  0  0  0  0  0  0  0  0  0  0  0
  -11.5103   -7.3793   -2.6899 H   0  0  0  0  0  0  0  0  0  0  0  0
  -10.3326   -8.6136   -3.1683 H   0  0  0  0  0  0  0  0  0  0  0  0
  1  2  1  1  0  0  0
  1  8  1  0  0  0  0
  2  3  1  0  0  0  0
  4  5  2  0  0  0  0
  4  1  1  0  0  0  0
  5  6  1  0  0  0  0
  6 26  1  0  0  0  0
  6 11  1  1  0  0  0
  6  7  1  0  0  0  0
  7 12  1  0  0  0  0
  8  7  2  0  0  0  0
  8 13  1  0  0  0  0
  9  4  1  0  0  0  0
 10  5  1  0  0  0  0
 14 19  1  0  0  0  0
 14 20  1  0  0  0  0
 15 14  2  0  0  0  0
 16 17  2  0  0  0  0
 16 15  1  0  0  0  0
 17 18  1  0  0  0  0
 18 23  1  0  0  0  0
 18 19  2  0  0  0  0
 19 24  1  0  0  0  0
 21 15  1  0  0  0  0
 22 17  1  0  0  0  0
 24 27  2  0  0  0  0
 24 25  2  0  0  0  0
 26 24  1  0  0  0  0
 28 29  1  0  0  0  0
 28 16  1  0  0  0  0
 30 28  1  0  0  0  0
 31 28  1  0  0  0  0
M  RAD  3   1   2   2   2   3   3
M  END
