Coordinates from ORCA-job PhN2+~TsO-_B3LYPG-6-31G_dp-NX-Scan-d89-09-n800
 OpenBabel11261920463D

 31 31  0  0  0  0  0  0  0  0999 V2000
   -3.8846   -0.4059   -0.2680 C   0  0  0  0  0  0  0  0  0  0  0  0
   -3.7343    0.9247   -0.0525 N   0  0  0  0  0  0  0  0  0  0  0  0
   -3.6289    2.0275    0.1377 N   0  0  0  0  0  0  0  0  0  0  0  0
   -2.9770   -1.0529   -1.1439 C   0  0  0  0  0  0  0  0  0  0  0  0
   -3.1696   -2.4039   -1.3623 C   0  0  0  0  0  0  0  0  0  0  0  0
   -4.2281   -3.0885   -0.7378 C   0  0  0  0  0  0  0  0  0  0  0  0
   -5.1118   -2.4231    0.1363 C   0  0  0  0  0  0  0  0  0  0  0  0
   -4.9542   -1.0741    0.3844 C   0  0  0  0  0  0  0  0  0  0  0  0
   -2.1774   -0.4936   -1.6165 H   0  0  0  0  0  0  0  0  0  0  0  0
   -2.5019   -2.9351   -2.0326 H   0  0  0  0  0  0  0  0  0  0  0  0
   -4.4285   -4.1454   -0.9333 H   0  0  0  0  0  0  0  0  0  0  0  0
   -5.9412   -2.9905    0.5731 H   0  0  0  0  0  0  0  0  0  0  0  0
   -5.6224   -0.5255    1.0395 H   0  0  0  0  0  0  0  0  0  0  0  0
   -9.5246   -6.3133   -0.1385 C   0  0  0  0  0  0  0  0  0  0  0  0
  -10.4260   -7.3729   -0.2173 C   0  0  0  0  0  0  0  0  0  0  0  0
  -10.1217   -8.5310   -0.9478 C   0  0  0  0  0  0  0  0  0  0  0  0
   -8.8836   -8.5969   -1.5997 C   0  0  0  0  0  0  0  0  0  0  0  0
   -7.9731   -7.5416   -1.5288 C   0  0  0  0  0  0  0  0  0  0  0  0
   -8.2961   -6.3995   -0.7971 C   0  0  0  0  0  0  0  0  0  0  0  0
   -9.7560   -5.4253    0.4401 H   0  0  0  0  0  0  0  0  0  0  0  0
  -11.3814   -7.3027    0.2980 H   0  0  0  0  0  0  0  0  0  0  0  0
   -8.6266   -9.4882   -2.1680 H   0  0  0  0  0  0  0  0  0  0  0  0
   -7.0088   -7.5984   -2.0213 H   0  0  0  0  0  0  0  0  0  0  0  0
   -7.1609   -5.0032   -0.7567 S   0  0  0  0  0  0  0  0  0  0  0  0
   -7.3288   -4.4089    0.6099 O   0  0  0  0  0  0  0  0  0  0  0  0
   -7.5508   -4.0724   -1.8457 O   0  0  0  0  0  0  0  0  0  0  0  0
   -5.8002   -5.6024   -0.9598 O   0  0  0  0  0  0  0  0  0  0  0  0
  -11.0934   -9.6868   -1.0030 C   0  0  0  0  0  0  0  0  0  0  0  0
  -11.0439  -10.2940   -0.0895 H   0  0  0  0  0  0  0  0  0  0  0  0
  -12.1269   -9.3379   -1.1005 H   0  0  0  0  0  0  0  0  0  0  0  0
  -10.8790  -10.3488   -1.8473 H   0  0  0  0  0  0  0  0  0  0  0  0
  1  2  1  0  0  0  0
  1  8  2  0  0  0  0
  2  3  1  0  0  0  0
  4  1  1  0  0  0  0
  5  4  2  0  0  0  0
  5  6  1  0  0  0  0
  6  7  2  0  0  0  0
  7  8  1  0  0  0  0
  7 12  1  0  0  0  0
  8 13  1  0  0  0  0
  9  4  1  0  0  0  0
 10  5  1  0  0  0  0
 11  6  1  0  0  0  0
 14 20  1  0  0  0  0
 15 14  1  0  0  0  0
 15 21  1  0  0  0  0
 16 15  2  0  0  0  0
 17 18  2  0  0  0  0
 17 16  1  0  0  0  0
 18 19  1  0  0  0  0
 19 24  1  0  0  0  0
 19 14  2  0  0  0  0
 22 17  1  0  0  0  0
 23 18  1  0  0  0  0
 24 25  1  0  0  0  0
 26 24  2  0  0  0  0
 27 24  2  0  0  0  0
 28 16  1  0  0  0  0
 28 29  1  0  0  0  0
 30 28  1  0  0  0  0
 31 28  1  0  0  0  0
M  RAD  3   2   2   3   3  25   2
M  END
