Coordinates from ORCA-job PhN2+~TsO-_B3LYPG-6-31G_dp-NX-Scan-d89-09-n800
 OpenBabel11261920463D

 31 32  0  0  1  0  0  0  0  0999 V2000
   -5.4907   -1.4144   -0.6406 C   0  0  2  0  0  0  0  0  0  0  0  0
   -6.8015   -1.4603   -0.6353 N   0  0  0  0  0  0  0  0  0  0  0  0
   -7.9303   -1.6086   -0.6234 N   0  0  0  0  0  0  0  0  0  0  0  0
   -4.8570   -1.9730   -1.8552 C   0  0  0  0  0  0  0  0  0  0  0  0
   -4.1702   -3.1143   -1.6991 C   0  0  0  0  0  0  0  0  0  0  0  0
   -4.3178   -3.7996   -0.3683 C   0  0  1  0  0  0  0  0  0  0  0  0
   -4.1617   -2.8249    0.7697 C   0  0  0  0  0  0  0  0  0  0  0  0
   -4.8483   -1.6779    0.6659 C   0  0  0  0  0  0  0  0  0  0  0  0
   -4.9649   -1.4633   -2.8084 H   0  0  0  0  0  0  0  0  0  0  0  0
   -3.6031   -3.5817   -2.4973 H   0  0  0  0  0  0  0  0  0  0  0  0
   -3.7044   -4.6934   -0.2629 H   0  0  0  0  0  0  0  0  0  0  0  0
   -3.5921   -3.0999    1.6514 H   0  0  0  0  0  0  0  0  0  0  0  0
   -4.9577   -0.9668    1.4794 H   0  0  0  0  0  0  0  0  0  0  0  0
   -8.7607   -5.4252   -0.3147 C   0  0  0  0  0  0  0  0  0  0  0  0
   -9.7977   -6.0425   -1.0069 C   0  0  0  0  0  0  0  0  0  0  0  0
   -9.6543   -7.3379   -1.5302 C   0  0  0  0  0  0  0  0  0  0  0  0
   -8.4343   -8.0013   -1.3479 C   0  0  0  0  0  0  0  0  0  0  0  0
   -7.3793   -7.3973   -0.6637 C   0  0  0  0  0  0  0  0  0  0  0  0
   -7.5549   -6.1124   -0.1540 C   0  0  0  0  0  0  0  0  0  0  0  0
   -8.8792   -4.4261    0.0897 H   0  0  0  0  0  0  0  0  0  0  0  0
  -10.7367   -5.5116   -1.1419 H   0  0  0  0  0  0  0  0  0  0  0  0
   -8.3061   -9.0045   -1.7447 H   0  0  0  0  0  0  0  0  0  0  0  0
   -6.4351   -7.9106   -0.5178 H   0  0  0  0  0  0  0  0  0  0  0  0
   -6.2194   -5.3433    0.7434 S   0  0  0  0  0  0  0  0  0  0  0  0
   -6.7654   -4.6313    1.8978 O   0  0  0  0  0  0  0  0  0  0  0  0
   -5.7670   -4.2520   -0.3976 O   0  0  0  0  0  0  0  0  0  0  0  0
   -5.1279   -6.3059    0.9254 O   0  0  0  0  0  0  0  0  0  0  0  0
  -10.8013   -8.0027   -2.2522 C   0  0  0  0  0  0  0  0  0  0  0  0
  -11.5685   -8.3373   -1.5435 H   0  0  0  0  0  0  0  0  0  0  0  0
  -11.2867   -7.3124   -2.9499 H   0  0  0  0  0  0  0  0  0  0  0  0
  -10.4678   -8.8780   -2.8156 H   0  0  0  0  0  0  0  0  0  0  0  0
  1  2  1  1  0  0  0
  1  8  1  0  0  0  0
  2  3  1  0  0  0  0
  4  5  2  0  0  0  0
  4  1  1  0  0  0  0
  5  6  1  0  0  0  0
  6 11  1  1  0  0  0
  6  7  1  0  0  0  0
  7 12  1  0  0  0  0
  8  7  2  0  0  0  0
  8 13  1  0  0  0  0
  9  4  1  0  0  0  0
 10  5  1  0  0  0  0
 14 19  1  0  0  0  0
 14 20  1  0  0  0  0
 15 14  2  0  0  0  0
 16 17  2  0  0  0  0
 16 15  1  0  0  0  0
 17 18  1  0  0  0  0
 18 23  1  0  0  0  0
 18 19  2  0  0  0  0
 19 24  1  0  0  0  0
 21 15  1  0  0  0  0
 22 17  1  0  0  0  0
 24 27  2  0  0  0  0
 24 25  2  0  0  0  0
 26  6  1  0  0  0  0
 26 24  1  0  0  0  0
 28 29  1  0  0  0  0
 28 16  1  0  0  0  0
 30 28  1  0  0  0  0
 31 28  1  0  0  0  0
M  RAD  3   1   2   2   2   3   3
M  END
