Coordinates from ORCA-job PhN2+~TsO-_B3LYPG-6-31G_dp-NX-Scan-d89-09-n800
 OpenBabel11261920463D

 31 32  0  0  1  0  0  0  0  0999 V2000
   -5.3603   -1.3435   -0.7537 C   0  0  2  0  0  0  0  0  0  0  0  0
   -6.4628   -0.6632   -0.9375 N   0  0  0  0  0  0  0  0  0  0  0  0
   -7.4607   -0.1353   -1.0937 N   0  0  0  0  0  0  0  0  0  0  0  0
   -4.7881   -2.0683   -1.8794 C   0  0  0  0  0  0  0  0  0  0  0  0
   -4.1863   -3.2428   -1.6215 C   0  0  0  0  0  0  0  0  0  0  0  0
   -4.3714   -3.8298   -0.2577 C   0  0  1  0  0  0  0  0  0  0  0  0
   -4.3081   -2.8001    0.8286 C   0  0  0  0  0  0  0  0  0  0  0  0
   -4.9119   -1.6200    0.6043 C   0  0  0  0  0  0  0  0  0  0  0  0
   -4.8495   -1.6401   -2.8754 H   0  0  0  0  0  0  0  0  0  0  0  0
   -3.6839   -3.8167   -2.3922 H   0  0  0  0  0  0  0  0  0  0  0  0
   -3.7403   -4.6979   -0.0702 H   0  0  0  0  0  0  0  0  0  0  0  0
   -3.8943   -3.0618    1.7960 H   0  0  0  0  0  0  0  0  0  0  0  0
   -5.0676   -0.8762    1.3797 H   0  0  0  0  0  0  0  0  0  0  0  0
   -8.8564   -5.6940   -0.0124 C   0  0  0  0  0  0  0  0  0  0  0  0
   -9.8965   -6.2940   -0.7154 C   0  0  0  0  0  0  0  0  0  0  0  0
   -9.6750   -7.4279   -1.5136 C   0  0  0  0  0  0  0  0  0  0  0  0
   -8.3770   -7.9501   -1.5889 C   0  0  0  0  0  0  0  0  0  0  0  0
   -7.3205   -7.3603   -0.8958 C   0  0  0  0  0  0  0  0  0  0  0  0
   -7.5716   -6.2324   -0.1160 C   0  0  0  0  0  0  0  0  0  0  0  0
   -9.0311   -4.8295    0.6185 H   0  0  0  0  0  0  0  0  0  0  0  0
  -10.8990   -5.8806   -0.6396 H   0  0  0  0  0  0  0  0  0  0  0  0
   -8.1911   -8.8338   -2.1929 H   0  0  0  0  0  0  0  0  0  0  0  0
   -6.3183   -7.7720   -0.9426 H   0  0  0  0  0  0  0  0  0  0  0  0
   -6.2306   -5.4747    0.7846 S   0  0  0  0  0  0  0  0  0  0  0  0
   -6.7715   -4.8230    1.9779 O   0  0  0  0  0  0  0  0  0  0  0  0
   -5.8083   -4.3407   -0.3174 O   0  0  0  0  0  0  0  0  0  0  0  0
   -5.1244   -6.4300    0.9144 O   0  0  0  0  0  0  0  0  0  0  0  0
  -10.8177   -8.0694   -2.2632 C   0  0  0  0  0  0  0  0  0  0  0  0
  -11.5993   -8.4110   -1.5752 H   0  0  0  0  0  0  0  0  0  0  0  0
  -11.2862   -7.3593   -2.9542 H   0  0  0  0  0  0  0  0  0  0  0  0
  -10.4821   -8.9321   -2.8442 H   0  0  0  0  0  0  0  0  0  0  0  0
  1  2  1  1  0  0  0
  1  8  1  0  0  0  0
  3  2  1  0  0  0  0
  4  5  2  0  0  0  0
  4  1  1  0  0  0  0
  5  6  1  0  0  0  0
  6 11  1  1  0  0  0
  6  7  1  0  0  0  0
  7 12  1  0  0  0  0
  8  7  2  0  0  0  0
  8 13  1  0  0  0  0
  9  4  1  0  0  0  0
 10  5  1  0  0  0  0
 14 20  1  0  0  0  0
 15 21  1  0  0  0  0
 15 14  2  0  0  0  0
 16 15  1  0  0  0  0
 17 16  2  0  0  0  0
 17 18  1  0  0  0  0
 18 19  2  0  0  0  0
 19 14  1  0  0  0  0
 19 24  1  0  0  0  0
 22 17  1  0  0  0  0
 23 18  1  0  0  0  0
 24 27  2  0  0  0  0
 24 25  2  0  0  0  0
 26  6  1  0  0  0  0
 26 24  1  0  0  0  0
 28 29  1  0  0  0  0
 28 16  1  0  0  0  0
 30 28  1  0  0  0  0
 31 28  1  0  0  0  0
M  RAD  3   1   2   2   2   3   3
M  END
