Coordinates from ORCA-job PhN2+~TsO-_B3LYPG-6-31G_dp-NX-Scan-d89-09-n800
 OpenBabel11261920463D

 31 32  0  0  0  0  0  0  0  0999 V2000
   -5.0363   -2.5877   -0.8665 C   0  0  0  0  0  0  0  0  0  0  0  0
   -6.4625   -2.6304   -0.9416 N   0  0  0  0  0  0  0  0  0  0  0  0
   -7.1818   -3.3486   -0.1806 N   0  0  0  0  0  0  0  0  0  0  0  0
   -4.4925   -1.7855   -1.8894 C   0  0  0  0  0  0  0  0  0  0  0  0
   -3.1215   -1.5891   -2.0055 C   0  0  0  0  0  0  0  0  0  0  0  0
   -2.2529   -2.1885   -1.0895 C   0  0  0  0  0  0  0  0  0  0  0  0
   -2.7751   -2.9802   -0.0667 C   0  0  0  0  0  0  0  0  0  0  0  0
   -4.1507   -3.1886    0.0547 C   0  0  0  0  0  0  0  0  0  0  0  0
   -5.1871   -1.3242   -2.5837 H   0  0  0  0  0  0  0  0  0  0  0  0
   -2.7296   -0.9675   -2.8057 H   0  0  0  0  0  0  0  0  0  0  0  0
   -1.1801   -2.0365   -1.1701 H   0  0  0  0  0  0  0  0  0  0  0  0
   -2.1074   -3.4471    0.6521 H   0  0  0  0  0  0  0  0  0  0  0  0
   -4.5147   -3.8058    0.8622 H   0  0  0  0  0  0  0  0  0  0  0  0
   -9.7731   -5.4249   -0.2814 C   0  0  0  0  0  0  0  0  0  0  0  0
  -10.3737   -6.2201   -1.2527 C   0  0  0  0  0  0  0  0  0  0  0  0
   -9.9070   -7.5156   -1.5244 C   0  0  0  0  0  0  0  0  0  0  0  0
   -8.8090   -8.0035   -0.7986 C   0  0  0  0  0  0  0  0  0  0  0  0
   -8.1871   -7.2279    0.1747 C   0  0  0  0  0  0  0  0  0  0  0  0
   -8.6861   -5.9466    0.4259 C   0  0  0  0  0  0  0  0  0  0  0  0
  -10.1332   -4.4259   -0.0690 H   0  0  0  0  0  0  0  0  0  0  0  0
  -11.2189   -5.8274   -1.8104 H   0  0  0  0  0  0  0  0  0  0  0  0
   -8.4364   -9.0034   -0.9998 H   0  0  0  0  0  0  0  0  0  0  0  0
   -7.3400   -7.6042    0.7376 H   0  0  0  0  0  0  0  0  0  0  0  0
   -7.8896   -4.9443    1.6462 S   0  0  0  0  0  0  0  0  0  0  0  0
   -8.8038   -3.9394    2.1647 O   0  0  0  0  0  0  0  0  0  0  0  0
   -6.6848   -4.0272    0.6187 O   0  0  0  0  0  0  0  0  0  0  0  0
   -6.9885   -5.7293    2.4740 O   0  0  0  0  0  0  0  0  0  0  0  0
  -10.5901   -8.3763   -2.5573 C   0  0  0  0  0  0  0  0  0  0  0  0
  -11.4200   -8.9351   -2.1072 H   0  0  0  0  0  0  0  0  0  0  0  0
  -11.0067   -7.7729   -3.3684 H   0  0  0  0  0  0  0  0  0  0  0  0
   -9.9015   -9.1068   -2.9909 H   0  0  0  0  0  0  0  0  0  0  0  0
  1  8  2  0  0  0  0
  2  1  1  0  0  0  0
  2  3  2  0  0  0  0
  3 26  1  0  0  0  0
  4  1  1  0  0  0  0
  5  4  2  0  0  0  0
  5  6  1  0  0  0  0
  6  7  2  0  0  0  0
  7  8  1  0  0  0  0
  7 12  1  0  0  0  0
  8 13  1  0  0  0  0
  9  4  1  0  0  0  0
 10  5  1  0  0  0  0
 11  6  1  0  0  0  0
 14 20  1  0  0  0  0
 14 19  2  0  0  0  0
 15 14  1  0  0  0  0
 16 15  2  0  0  0  0
 16 17  1  0  0  0  0
 17 18  2  0  0  0  0
 18 19  1  0  0  0  0
 18 23  1  0  0  0  0
 19 24  1  0  0  0  0
 21 15  1  0  0  0  0
 22 17  1  0  0  0  0
 24 25  2  0  0  0  0
 24 27  2  0  0  0  0
 26 24  1  0  0  0  0
 28 29  1  0  0  0  0
 28 16  1  0  0  0  0
 30 28  1  0  0  0  0
 31 28  1  0  0  0  0
M  END
