Coordinates from ORCA-job PhN2+~TsO-_B3LYPG-6-31G_dp-NX-Scan-d89-09-n800
 OpenBabel11261920463D

 31 31  0  0  0  0  0  0  0  0999 V2000
   -4.4081   -0.5271   -0.5960 C   0  0  0  0  0  0  0  0  0  0  0  0
   -4.2895    0.8112   -0.6144 N   0  0  0  0  0  0  0  0  0  0  0  0
   -4.1747    1.9369   -0.6214 N   0  0  0  0  0  0  0  0  0  0  0  0
   -4.0795   -1.2668   -1.7717 C   0  0  0  0  0  0  0  0  0  0  0  0
   -4.1062   -2.6372   -1.7056 C   0  0  0  0  0  0  0  0  0  0  0  0
   -4.4548   -3.3062   -0.5026 C   0  0  0  0  0  0  0  0  0  0  0  0
   -4.8218   -2.5472    0.6432 C   0  0  0  0  0  0  0  0  0  0  0  0
   -4.8056   -1.1768    0.6140 C   0  0  0  0  0  0  0  0  0  0  0  0
   -3.7886   -0.7421   -2.6753 H   0  0  0  0  0  0  0  0  0  0  0  0
   -3.8433   -3.2225   -2.5793 H   0  0  0  0  0  0  0  0  0  0  0  0
   -4.2512   -4.3644   -0.3958 H   0  0  0  0  0  0  0  0  0  0  0  0
   -5.1441   -3.0776    1.5327 H   0  0  0  0  0  0  0  0  0  0  0  0
   -5.0682   -0.5835    1.4829 H   0  0  0  0  0  0  0  0  0  0  0  0
   -9.2096   -6.1741   -0.0716 C   0  0  0  0  0  0  0  0  0  0  0  0
  -10.2513   -6.9952   -0.4953 C   0  0  0  0  0  0  0  0  0  0  0  0
  -10.0010   -8.1599   -1.2373 C   0  0  0  0  0  0  0  0  0  0  0  0
   -8.6722   -8.4803   -1.5449 C   0  0  0  0  0  0  0  0  0  0  0  0
   -7.6190   -7.6658   -1.1291 C   0  0  0  0  0  0  0  0  0  0  0  0
   -7.8932   -6.5136   -0.3930 C   0  0  0  0  0  0  0  0  0  0  0  0
   -9.4019   -5.2836    0.5168 H   0  0  0  0  0  0  0  0  0  0  0  0
  -11.2760   -6.7332   -0.2421 H   0  0  0  0  0  0  0  0  0  0  0  0
   -8.4588   -9.3828   -2.1124 H   0  0  0  0  0  0  0  0  0  0  0  0
   -6.5887   -7.9193   -1.3535 H   0  0  0  0  0  0  0  0  0  0  0  0
   -6.5457   -5.4426    0.1216 S   0  0  0  0  0  0  0  0  0  0  0  0
   -6.9478   -4.8304    1.4110 O   0  0  0  0  0  0  0  0  0  0  0  0
   -6.4671   -4.4083   -1.0016 O   0  0  0  0  0  0  0  0  0  0  0  0
   -5.3161   -6.2744    0.1614 O   0  0  0  0  0  0  0  0  0  0  0  0
  -11.1378   -9.0575   -1.6664 C   0  0  0  0  0  0  0  0  0  0  0  0
  -11.5123   -9.6533   -0.8246 H   0  0  0  0  0  0  0  0  0  0  0  0
  -11.9836   -8.4773   -2.0501 H   0  0  0  0  0  0  0  0  0  0  0  0
  -10.8240   -9.7556   -2.4481 H   0  0  0  0  0  0  0  0  0  0  0  0
  1  8  2  0  0  0  0
  2  1  1  0  0  0  0
  3  2  1  0  0  0  0
  4  5  2  0  0  0  0
  4  1  1  0  0  0  0
  5  6  1  0  0  0  0
  6 11  1  0  0  0  0
  6  7  2  0  0  0  0
  7 12  1  0  0  0  0
  8  7  1  0  0  0  0
  8 13  1  0  0  0  0
  9  4  1  0  0  0  0
 10  5  1  0  0  0  0
 14 20  1  0  0  0  0
 15 21  1  0  0  0  0
 15 14  2  0  0  0  0
 16 15  1  0  0  0  0
 17 16  2  0  0  0  0
 17 18  1  0  0  0  0
 18 19  2  0  0  0  0
 19 14  1  0  0  0  0
 19 24  1  0  0  0  0
 22 17  1  0  0  0  0
 23 18  1  0  0  0  0
 24 27  2  0  0  0  0
 24 25  1  0  0  0  0
 26 24  2  0  0  0  0
 28 16  1  0  0  0  0
 28 29  1  0  0  0  0
 30 28  1  0  0  0  0
 31 28  1  0  0  0  0
M  RAD  3   2   2   3   3  25   2
M  END
