Coordinates from ORCA-job PhN2+~TsO-_B3LYPG-6-31G_dp-NX-Scan-d89-09-n800
 OpenBabel11261920463D

 31 32  0  0  1  0  0  0  0  0999 V2000
   -4.7555   -0.7340   -0.8816 C   0  0  0  0  0  0  0  0  0  0  0  0
   -4.5863    0.5414   -1.1513 N   0  0  0  0  0  0  0  0  0  0  0  0
   -4.4319    1.6544   -1.3818 N   0  0  0  0  0  0  0  0  0  0  0  0
   -4.3887   -1.7464   -1.8546 C   0  0  0  0  0  0  0  0  0  0  0  0
   -4.4791   -3.0547   -1.5473 C   0  0  0  0  0  0  0  0  0  0  0  0
   -4.9303   -3.5528   -0.2094 C   0  0  1  0  0  0  0  0  0  0  0  0
   -5.3734   -2.4591    0.7158 C   0  0  0  0  0  0  0  0  0  0  0  0
   -5.2843   -1.1521    0.4047 C   0  0  0  0  0  0  0  0  0  0  0  0
   -4.0303   -1.4260   -2.8279 H   0  0  0  0  0  0  0  0  0  0  0  0
   -4.1971   -3.8076   -2.2756 H   0  0  0  0  0  0  0  0  0  0  0  0
   -4.1486   -4.1726    0.2502 H   0  0  0  0  0  0  0  0  0  0  0  0
   -5.7652   -2.7706    1.6779 H   0  0  0  0  0  0  0  0  0  0  0  0
   -5.5968   -0.3884    1.1100 H   0  0  0  0  0  0  0  0  0  0  0  0
   -8.8148   -6.2865    0.2906 C   0  0  0  0  0  0  0  0  0  0  0  0
   -9.9360   -6.8946   -0.2648 C   0  0  0  0  0  0  0  0  0  0  0  0
   -9.8161   -7.8160   -1.3178 C   0  0  0  0  0  0  0  0  0  0  0  0
   -8.5359   -8.1198   -1.7995 C   0  0  0  0  0  0  0  0  0  0  0  0
   -7.3999   -7.5206   -1.2575 C   0  0  0  0  0  0  0  0  0  0  0  0
   -7.5534   -6.6036   -0.2187 C   0  0  0  0  0  0  0  0  0  0  0  0
   -8.9057   -5.5861    1.1136 H   0  0  0  0  0  0  0  0  0  0  0  0
  -10.9208   -6.6554    0.1273 H   0  0  0  0  0  0  0  0  0  0  0  0
   -8.4253   -8.8382   -2.6072 H   0  0  0  0  0  0  0  0  0  0  0  0
   -6.4081   -7.7652   -1.6205 H   0  0  0  0  0  0  0  0  0  0  0  0
   -6.1095   -5.8341    0.4848 S   0  0  0  0  0  0  0  0  0  0  0  0
   -6.3876   -5.4274    1.8651 O   0  0  0  0  0  0  0  0  0  0  0  0
   -6.0778   -4.5006   -0.4644 O   0  0  0  0  0  0  0  0  0  0  0  0
   -4.9258   -6.6482    0.1969 O   0  0  0  0  0  0  0  0  0  0  0  0
  -11.0444   -8.4624   -1.9114 C   0  0  0  0  0  0  0  0  0  0  0  0
  -11.6403   -8.9632   -1.1403 H   0  0  0  0  0  0  0  0  0  0  0  0
  -11.6927   -7.7155   -2.3847 H   0  0  0  0  0  0  0  0  0  0  0  0
  -10.7804   -9.2047   -2.6691 H   0  0  0  0  0  0  0  0  0  0  0  0
  1  8  1  0  0  0  0
  2  1  1  0  0  0  0
  3  2  1  0  0  0  0
  4  5  1  0  0  0  0
  4  1  2  0  0  0  0
  5  6  1  0  0  0  0
  6 11  1  1  0  0  0
  6  7  1  0  0  0  0
  7 12  1  0  0  0  0
  8  7  2  0  0  0  0
  8 13  1  0  0  0  0
  9  4  1  0  0  0  0
 10  5  1  0  0  0  0
 14 20  1  0  0  0  0
 15 21  1  0  0  0  0
 15 14  2  0  0  0  0
 16 15  1  0  0  0  0
 17 16  2  0  0  0  0
 17 18  1  0  0  0  0
 18 19  2  0  0  0  0
 19 14  1  0  0  0  0
 19 24  1  0  0  0  0
 22 17  1  0  0  0  0
 23 18  1  0  0  0  0
 24 25  2  0  0  0  0
 26  6  1  0  0  0  0
 26 24  1  0  0  0  0
 27 24  2  0  0  0  0
 28 16  1  0  0  0  0
 28 29  1  0  0  0  0
 30 28  1  0  0  0  0
 31 28  1  0  0  0  0
M  RAD  3   2   2   3   3   5   2
M  END
