Coordinates from ORCA-job PhN2+~TsO-_B3LYPG-6-31G_dp-NX-Scan-d89-09-n800
 OpenBabel11261920463D

 31 32  0  0  0  0  0  0  0  0999 V2000
   -4.7991   -2.4565   -1.0109 C   0  0  0  0  0  0  0  0  0  0  0  0
   -6.1808   -2.6584   -1.1916 N   0  0  0  0  0  0  0  0  0  0  0  0
   -7.0609   -3.3198   -0.7773 N   0  0  0  0  0  0  0  0  0  0  0  0
   -4.2467   -1.4534   -1.8225 C   0  0  0  0  0  0  0  0  0  0  0  0
   -2.8921   -1.1575   -1.7188 C   0  0  0  0  0  0  0  0  0  0  0  0
   -2.0976   -1.8601   -0.8087 C   0  0  0  0  0  0  0  0  0  0  0  0
   -2.6556   -2.8587   -0.0046 C   0  0  0  0  0  0  0  0  0  0  0  0
   -4.0092   -3.1733   -0.0931 C   0  0  0  0  0  0  0  0  0  0  0  0
   -4.8920   -0.9239   -2.5149 H   0  0  0  0  0  0  0  0  0  0  0  0
   -2.4579   -0.3815   -2.3410 H   0  0  0  0  0  0  0  0  0  0  0  0
   -1.0401   -1.6280   -0.7238 H   0  0  0  0  0  0  0  0  0  0  0  0
   -2.0326   -3.3996    0.7007 H   0  0  0  0  0  0  0  0  0  0  0  0
   -4.4593   -3.9395    0.5222 H   0  0  0  0  0  0  0  0  0  0  0  0
   -9.7935   -5.5184   -0.3877 C   0  0  0  0  0  0  0  0  0  0  0  0
  -10.5254   -6.3533   -1.2308 C   0  0  0  0  0  0  0  0  0  0  0  0
  -10.1568   -7.6917   -1.4254 C   0  0  0  0  0  0  0  0  0  0  0  0
   -9.0275   -8.1784   -0.7504 C   0  0  0  0  0  0  0  0  0  0  0  0
   -8.2847   -7.3585    0.0958 C   0  0  0  0  0  0  0  0  0  0  0  0
   -8.6728   -6.0286    0.2678 C   0  0  0  0  0  0  0  0  0  0  0  0
  -10.0860   -4.4873   -0.2255 H   0  0  0  0  0  0  0  0  0  0  0  0
  -11.4007   -5.9601   -1.7413 H   0  0  0  0  0  0  0  0  0  0  0  0
   -8.7292   -9.2146   -0.8871 H   0  0  0  0  0  0  0  0  0  0  0  0
   -7.4214   -7.7411    0.6293 H   0  0  0  0  0  0  0  0  0  0  0  0
   -7.7141   -4.9652    1.3411 S   0  0  0  0  0  0  0  0  0  0  0  0
   -8.5504   -3.8227    1.7115 O   0  0  0  0  0  0  0  0  0  0  0  0
   -6.5039   -4.4694    0.4057 O   0  0  0  0  0  0  0  0  0  0  0  0
   -7.0844   -5.7979    2.3675 O   0  0  0  0  0  0  0  0  0  0  0  0
  -10.9765   -8.5978   -2.3127 C   0  0  0  0  0  0  0  0  0  0  0  0
  -11.7700   -9.0940   -1.7403 H   0  0  0  0  0  0  0  0  0  0  0  0
  -11.4590   -8.0386   -3.1196 H   0  0  0  0  0  0  0  0  0  0  0  0
  -10.3613   -9.3827   -2.7622 H   0  0  0  0  0  0  0  0  0  0  0  0
  1  8  2  0  0  0  0
  2  1  1  0  0  0  0
  2  3  1  0  0  0  0
  3 26  1  0  0  0  0
  4  5  2  0  0  0  0
  4  1  1  0  0  0  0
  5  6  1  0  0  0  0
  6 11  1  0  0  0  0
  6  7  2  0  0  0  0
  7 12  1  0  0  0  0
  8  7  1  0  0  0  0
  8 13  1  0  0  0  0
  9  4  1  0  0  0  0
 10  5  1  0  0  0  0
 14 20  1  0  0  0  0
 14 19  2  0  0  0  0
 15 14  1  0  0  0  0
 16 15  2  0  0  0  0
 16 17  1  0  0  0  0
 17 18  2  0  0  0  0
 18 19  1  0  0  0  0
 18 23  1  0  0  0  0
 19 24  1  0  0  0  0
 21 15  1  0  0  0  0
 22 17  1  0  0  0  0
 24 25  2  0  0  0  0
 24 27  2  0  0  0  0
 26 24  1  0  0  0  0
 28 29  1  0  0  0  0
 28 16  1  0  0  0  0
 30 28  1  0  0  0  0
 31 28  1  0  0  0  0
M  RAD  2   2   2   3   2
M  END
