Coordinates from ORCA-job PhN2+~TsO-_B3LYPG-6-31G_dp-NX-Scan-d89-09-n800
 OpenBabel11261920463D

 31 32  0  0  0  0  0  0  0  0999 V2000
   -4.9849   -2.5691   -0.8895 C   0  0  0  0  0  0  0  0  0  0  0  0
   -6.3994   -2.6441   -0.9926 N   0  0  0  0  0  0  0  0  0  0  0  0
   -7.2025   -3.3115   -0.3409 N   0  0  0  0  0  0  0  0  0  0  0  0
   -4.4372   -1.7240   -1.8733 C   0  0  0  0  0  0  0  0  0  0  0  0
   -3.0663   -1.5031   -1.9432 C   0  0  0  0  0  0  0  0  0  0  0  0
   -2.2187   -2.1212   -1.0213 C   0  0  0  0  0  0  0  0  0  0  0  0
   -2.7524   -2.9573   -0.0380 C   0  0  0  0  0  0  0  0  0  0  0  0
   -4.1246   -3.1921    0.0399 C   0  0  0  0  0  0  0  0  0  0  0  0
   -5.1206   -1.2519   -2.5708 H   0  0  0  0  0  0  0  0  0  0  0  0
   -2.6605   -0.8494   -2.7095 H   0  0  0  0  0  0  0  0  0  0  0  0
   -1.1468   -1.9500   -1.0658 H   0  0  0  0  0  0  0  0  0  0  0  0
   -2.0948   -3.4364    0.6812 H   0  0  0  0  0  0  0  0  0  0  0  0
   -4.5147   -3.8394    0.8095 H   0  0  0  0  0  0  0  0  0  0  0  0
   -9.7774   -5.4402   -0.3107 C   0  0  0  0  0  0  0  0  0  0  0  0
  -10.4178   -6.2540   -1.2414 C   0  0  0  0  0  0  0  0  0  0  0  0
   -9.9629   -7.5548   -1.5055 C   0  0  0  0  0  0  0  0  0  0  0  0
   -8.8389   -8.0271   -0.8118 C   0  0  0  0  0  0  0  0  0  0  0  0
   -8.1820   -7.2309    0.1228 C   0  0  0  0  0  0  0  0  0  0  0  0
   -8.6615   -5.9415    0.3623 C   0  0  0  0  0  0  0  0  0  0  0  0
  -10.1305   -4.4376   -0.1023 H   0  0  0  0  0  0  0  0  0  0  0  0
  -11.2871   -5.8733   -1.7703 H   0  0  0  0  0  0  0  0  0  0  0  0
   -8.4752   -9.0323   -1.0043 H   0  0  0  0  0  0  0  0  0  0  0  0
   -7.3196   -7.5994    0.6673 H   0  0  0  0  0  0  0  0  0  0  0  0
   -7.8303   -4.9215    1.5590 S   0  0  0  0  0  0  0  0  0  0  0  0
   -8.7456   -3.9064    2.0579 O   0  0  0  0  0  0  0  0  0  0  0  0
   -6.6347   -4.1413    0.6341 O   0  0  0  0  0  0  0  0  0  0  0  0
   -7.0178   -5.7495    2.4386 O   0  0  0  0  0  0  0  0  0  0  0  0
  -10.6871   -8.4371   -2.4924 C   0  0  0  0  0  0  0  0  0  0  0  0
  -11.5006   -8.9847   -2.0006 H   0  0  0  0  0  0  0  0  0  0  0  0
  -11.1327   -7.8511   -3.3011 H   0  0  0  0  0  0  0  0  0  0  0  0
  -10.0164   -9.1783   -2.9360 H   0  0  0  0  0  0  0  0  0  0  0  0
  1  8  2  0  0  0  0
  2  1  1  0  0  0  0
  2  3  2  0  0  0  0
  3 26  1  0  0  0  0
  4  1  1  0  0  0  0
  5  4  2  0  0  0  0
  5  6  1  0  0  0  0
  6  7  2  0  0  0  0
  7  8  1  0  0  0  0
  7 12  1  0  0  0  0
  8 13  1  0  0  0  0
  9  4  1  0  0  0  0
 10  5  1  0  0  0  0
 11  6  1  0  0  0  0
 14 20  1  0  0  0  0
 14 19  2  0  0  0  0
 15 14  1  0  0  0  0
 16 15  2  0  0  0  0
 16 17  1  0  0  0  0
 17 18  2  0  0  0  0
 18 19  1  0  0  0  0
 18 23  1  0  0  0  0
 19 24  1  0  0  0  0
 21 15  1  0  0  0  0
 22 17  1  0  0  0  0
 24 25  2  0  0  0  0
 24 27  2  0  0  0  0
 26 24  1  0  0  0  0
 28 29  1  0  0  0  0
 28 16  1  0  0  0  0
 30 28  1  0  0  0  0
 31 28  1  0  0  0  0
M  END
