Coordinates from ORCA-job PhN2+~TsO-_B3LYPG-6-31G_dp-NX-Scan-d89-09-n800
 OpenBabel11261920463D

 31 31  0  0  0  0  0  0  0  0999 V2000
   -4.1723   -0.4388   -0.4674 C   0  0  0  0  0  0  0  0  0  0  0  0
   -4.0117    0.8975   -0.3492 N   0  0  0  0  0  0  0  0  0  0  0  0
   -3.8691    2.0105   -0.2403 N   0  0  0  0  0  0  0  0  0  0  0  0
   -3.6491   -1.0818   -1.6214 C   0  0  0  0  0  0  0  0  0  0  0  0
   -3.7727   -2.4525   -1.6989 C   0  0  0  0  0  0  0  0  0  0  0  0
   -4.4010   -3.1817   -0.6674 C   0  0  0  0  0  0  0  0  0  0  0  0
   -4.9444   -2.5151    0.4558 C   0  0  0  0  0  0  0  0  0  0  0  0
   -4.8361   -1.1482    0.5748 C   0  0  0  0  0  0  0  0  0  0  0  0
   -3.1590   -0.4997   -2.3943 H   0  0  0  0  0  0  0  0  0  0  0  0
   -3.3751   -2.9770   -2.5609 H   0  0  0  0  0  0  0  0  0  0  0  0
   -4.4245   -4.2682   -0.6937 H   0  0  0  0  0  0  0  0  0  0  0  0
   -5.4842   -3.1029    1.1956 H   0  0  0  0  0  0  0  0  0  0  0  0
   -5.2374   -0.6109    1.4269 H   0  0  0  0  0  0  0  0  0  0  0  0
   -9.3439   -6.2343   -0.1174 C   0  0  0  0  0  0  0  0  0  0  0  0
  -10.3538   -7.1383   -0.4363 C   0  0  0  0  0  0  0  0  0  0  0  0
  -10.0729   -8.3232   -1.1342 C   0  0  0  0  0  0  0  0  0  0  0  0
   -8.7458   -8.5775   -1.5040 C   0  0  0  0  0  0  0  0  0  0  0  0
   -7.7253   -7.6788   -1.1926 C   0  0  0  0  0  0  0  0  0  0  0  0
   -8.0278   -6.5075   -0.4988 C   0  0  0  0  0  0  0  0  0  0  0  0
   -9.5599   -5.3272    0.4366 H   0  0  0  0  0  0  0  0  0  0  0  0
  -11.3773   -6.9261   -0.1353 H   0  0  0  0  0  0  0  0  0  0  0  0
   -8.5076   -9.4938   -2.0389 H   0  0  0  0  0  0  0  0  0  0  0  0
   -6.6952   -7.8794   -1.4662 H   0  0  0  0  0  0  0  0  0  0  0  0
   -6.7264   -5.3209   -0.1379 S   0  0  0  0  0  0  0  0  0  0  0  0
   -7.0776   -4.7068    1.1735 O   0  0  0  0  0  0  0  0  0  0  0  0
   -6.7762   -4.3263   -1.2719 O   0  0  0  0  0  0  0  0  0  0  0  0
   -5.4459   -6.0838   -0.1398 O   0  0  0  0  0  0  0  0  0  0  0  0
  -11.1731   -9.3088   -1.4521 C   0  0  0  0  0  0  0  0  0  0  0  0
  -11.4699   -9.8755   -0.5605 H   0  0  0  0  0  0  0  0  0  0  0  0
  -12.0705   -8.8022   -1.8227 H   0  0  0  0  0  0  0  0  0  0  0  0
  -10.8561  -10.0317   -2.2096 H   0  0  0  0  0  0  0  0  0  0  0  0
  1  2  1  0  0  0  0
  1  8  2  0  0  0  0
  2  3  1  0  0  0  0
  4  1  1  0  0  0  0
  5  4  2  0  0  0  0
  5  6  1  0  0  0  0
  6  7  2  0  0  0  0
  7  8  1  0  0  0  0
  7 12  1  0  0  0  0
  8 13  1  0  0  0  0
  9  4  1  0  0  0  0
 10  5  1  0  0  0  0
 11  6  1  0  0  0  0
 14 20  1  0  0  0  0
 15 21  1  0  0  0  0
 15 14  1  0  0  0  0
 16 15  2  0  0  0  0
 17 18  2  0  0  0  0
 17 16  1  0  0  0  0
 18 19  1  0  0  0  0
 19 24  1  0  0  0  0
 19 14  2  0  0  0  0
 22 17  1  0  0  0  0
 23 18  1  0  0  0  0
 24 25  1  0  0  0  0
 26 24  2  0  0  0  0
 27 24  2  0  0  0  0
 28 16  1  0  0  0  0
 28 29  1  0  0  0  0
 30 28  1  0  0  0  0
 31 28  1  0  0  0  0
M  RAD  3   2   2   3   3  25   2
M  END
