Coordinates from ORCA-job PhN2+~TsO-_B3LYPG-6-31G_dp-NX-Scan-d89-09-n800
 OpenBabel11261920463D

 31 32  0  0  1  0  0  0  0  0999 V2000
   -5.4922   -1.4154   -0.6419 C   0  0  2  0  0  0  0  0  0  0  0  0
   -6.8033   -1.4415   -0.6413 N   0  0  0  0  0  0  0  0  0  0  0  0
   -7.9346   -1.5702   -0.6334 N   0  0  0  0  0  0  0  0  0  0  0  0
   -4.8586   -1.9756   -1.8549 C   0  0  0  0  0  0  0  0  0  0  0  0
   -4.1694   -3.1154   -1.6974 C   0  0  0  0  0  0  0  0  0  0  0  0
   -4.3161   -3.8004   -0.3667 C   0  0  1  0  0  0  0  0  0  0  0  0
   -4.1653   -2.8251    0.7711 C   0  0  0  0  0  0  0  0  0  0  0  0
   -4.8544   -1.6796    0.6658 C   0  0  0  0  0  0  0  0  0  0  0  0
   -4.9675   -1.4675   -2.8088 H   0  0  0  0  0  0  0  0  0  0  0  0
   -3.6021   -3.5825   -2.4956 H   0  0  0  0  0  0  0  0  0  0  0  0
   -3.6999   -4.6923   -0.2602 H   0  0  0  0  0  0  0  0  0  0  0  0
   -3.5984   -3.0989    1.6549 H   0  0  0  0  0  0  0  0  0  0  0  0
   -4.9678   -0.9693    1.4795 H   0  0  0  0  0  0  0  0  0  0  0  0
   -8.7569   -5.4280   -0.3134 C   0  0  0  0  0  0  0  0  0  0  0  0
   -9.7953   -6.0433   -1.0052 C   0  0  0  0  0  0  0  0  0  0  0  0
   -9.6539   -7.3385   -1.5295 C   0  0  0  0  0  0  0  0  0  0  0  0
   -8.4346   -8.0037   -1.3488 C   0  0  0  0  0  0  0  0  0  0  0  0
   -7.3783   -7.4015   -0.6649 C   0  0  0  0  0  0  0  0  0  0  0  0
   -7.5518   -6.1169   -0.1542 C   0  0  0  0  0  0  0  0  0  0  0  0
   -8.8738   -4.4290    0.0921 H   0  0  0  0  0  0  0  0  0  0  0  0
  -10.7336   -5.5111   -1.1389 H   0  0  0  0  0  0  0  0  0  0  0  0
   -8.3081   -9.0067   -1.7463 H   0  0  0  0  0  0  0  0  0  0  0  0
   -6.4346   -7.9161   -0.5202 H   0  0  0  0  0  0  0  0  0  0  0  0
   -6.2149   -5.3496    0.7428 S   0  0  0  0  0  0  0  0  0  0  0  0
   -6.7595   -4.6385    1.8985 O   0  0  0  0  0  0  0  0  0  0  0  0
   -5.7636   -4.2582   -0.3980 O   0  0  0  0  0  0  0  0  0  0  0  0
   -5.1236   -6.3129    0.9231 O   0  0  0  0  0  0  0  0  0  0  0  0
  -10.8024   -8.0012   -2.2512 C   0  0  0  0  0  0  0  0  0  0  0  0
  -11.5708   -8.3328   -1.5424 H   0  0  0  0  0  0  0  0  0  0  0  0
  -11.2856   -7.3106   -2.9500 H   0  0  0  0  0  0  0  0  0  0  0  0
  -10.4710   -8.8782   -2.8132 H   0  0  0  0  0  0  0  0  0  0  0  0
  1  2  1  1  0  0  0
  1  8  1  0  0  0  0
  2  3  1  0  0  0  0
  4  5  2  0  0  0  0
  4  1  1  0  0  0  0
  5  6  1  0  0  0  0
  6 11  1  1  0  0  0
  6  7  1  0  0  0  0
  7 12  1  0  0  0  0
  8  7  2  0  0  0  0
  8 13  1  0  0  0  0
  9  4  1  0  0  0  0
 10  5  1  0  0  0  0
 14 19  1  0  0  0  0
 14 20  1  0  0  0  0
 15 14  2  0  0  0  0
 16 17  2  0  0  0  0
 16 15  1  0  0  0  0
 17 18  1  0  0  0  0
 18 23  1  0  0  0  0
 18 19  2  0  0  0  0
 19 24  1  0  0  0  0
 21 15  1  0  0  0  0
 22 17  1  0  0  0  0
 24 27  2  0  0  0  0
 24 25  2  0  0  0  0
 26  6  1  0  0  0  0
 26 24  1  0  0  0  0
 28 29  1  0  0  0  0
 28 16  1  0  0  0  0
 30 28  1  0  0  0  0
 31 28  1  0  0  0  0
M  RAD  3   1   2   2   2   3   3
M  END
