Coordinates from ORCA-job PhN2+~TsO-_B3LYPG-6-31G_dp-NX-Scan-d89-09-n800
 OpenBabel11261920463D

 31 32  0  0  1  0  0  0  0  0999 V2000
   -5.3502   -1.3532   -0.7199 C   0  0  2  0  0  0  0  0  0  0  0  0
   -6.4999   -0.7419   -0.8495 N   0  0  0  0  0  0  0  0  0  0  0  0
   -7.5368   -0.2823   -0.9579 N   0  0  0  0  0  0  0  0  0  0  0  0
   -4.7997   -2.0506   -1.8761 C   0  0  0  0  0  0  0  0  0  0  0  0
   -4.1963   -3.2315   -1.6554 C   0  0  0  0  0  0  0  0  0  0  0  0
   -4.3662   -3.8433   -0.2995 C   0  0  1  0  0  0  0  0  0  0  0  0
   -4.2487   -2.8345    0.8032 C   0  0  0  0  0  0  0  0  0  0  0  0
   -4.8537   -1.6483    0.6196 C   0  0  0  0  0  0  0  0  0  0  0  0
   -4.8804   -1.5992   -2.8606 H   0  0  0  0  0  0  0  0  0  0  0  0
   -3.7035   -3.7889   -2.4442 H   0  0  0  0  0  0  0  0  0  0  0  0
   -3.7552   -4.7312   -0.1419 H   0  0  0  0  0  0  0  0  0  0  0  0
   -3.7955   -3.1151    1.7474 H   0  0  0  0  0  0  0  0  0  0  0  0
   -4.9793   -0.9154    1.4107 H   0  0  0  0  0  0  0  0  0  0  0  0
   -8.8752   -5.6492   -0.0582 C   0  0  0  0  0  0  0  0  0  0  0  0
   -9.9023   -6.2686   -0.7635 C   0  0  0  0  0  0  0  0  0  0  0  0
   -9.6683   -7.4292   -1.5187 C   0  0  0  0  0  0  0  0  0  0  0  0
   -8.3710   -7.9578   -1.5483 C   0  0  0  0  0  0  0  0  0  0  0  0
   -7.3275   -7.3489   -0.8522 C   0  0  0  0  0  0  0  0  0  0  0  0
   -7.5908   -6.1950   -0.1157 C   0  0  0  0  0  0  0  0  0  0  0  0
   -9.0601   -4.7635    0.5394 H   0  0  0  0  0  0  0  0  0  0  0  0
  -10.9044   -5.8492   -0.7236 H   0  0  0  0  0  0  0  0  0  0  0  0
   -8.1756   -8.8617   -2.1185 H   0  0  0  0  0  0  0  0  0  0  0  0
   -6.3262   -7.7657   -0.8635 H   0  0  0  0  0  0  0  0  0  0  0  0
   -6.2665   -5.4117    0.7882 S   0  0  0  0  0  0  0  0  0  0  0  0
   -6.8318   -4.7214    1.9475 O   0  0  0  0  0  0  0  0  0  0  0  0
   -5.8175   -4.3116   -0.3384 O   0  0  0  0  0  0  0  0  0  0  0  0
   -5.1658   -6.3649    0.9700 O   0  0  0  0  0  0  0  0  0  0  0  0
  -10.7974   -8.0915   -2.2707 C   0  0  0  0  0  0  0  0  0  0  0  0
  -11.5912   -8.4139   -1.5875 H   0  0  0  0  0  0  0  0  0  0  0  0
  -11.2531   -7.4010   -2.9895 H   0  0  0  0  0  0  0  0  0  0  0  0
  -10.4516   -8.9701   -2.8211 H   0  0  0  0  0  0  0  0  0  0  0  0
  1  2  1  1  0  0  0
  1  8  1  0  0  0  0
  3  2  1  0  0  0  0
  4  5  2  0  0  0  0
  4  1  1  0  0  0  0
  5  6  1  0  0  0  0
  6 11  1  1  0  0  0
  6  7  1  0  0  0  0
  7 12  1  0  0  0  0
  8  7  2  0  0  0  0
  8 13  1  0  0  0  0
  9  4  1  0  0  0  0
 10  5  1  0  0  0  0
 14 20  1  0  0  0  0
 15 21  1  0  0  0  0
 15 14  2  0  0  0  0
 16 15  1  0  0  0  0
 17 16  2  0  0  0  0
 17 18  1  0  0  0  0
 18 19  2  0  0  0  0
 19 14  1  0  0  0  0
 19 24  1  0  0  0  0
 22 17  1  0  0  0  0
 23 18  1  0  0  0  0
 24 27  2  0  0  0  0
 24 25  2  0  0  0  0
 26  6  1  0  0  0  0
 26 24  1  0  0  0  0
 28 29  1  0  0  0  0
 28 16  1  0  0  0  0
 30 28  1  0  0  0  0
 31 28  1  0  0  0  0
M  RAD  3   1   2   2   2   3   3
M  END
