Coordinates from ORCA-job PhN2+~TsO-_B3LYPG-6-31G_dp-NX-Scan-d89-09-n800
 OpenBabel11261920463D

 31 32  0  0  1  0  0  0  0  0999 V2000
   -5.1951   -1.0918   -1.0075 C   0  0  0  0  0  0  0  0  0  0  0  0
   -5.6977   -0.0118   -1.5543 N   0  0  0  0  0  0  0  0  0  0  0  0
   -6.1559    0.9162   -2.0368 N   0  0  0  0  0  0  0  0  0  0  0  0
   -4.4423   -2.0225   -1.8224 C   0  0  0  0  0  0  0  0  0  0  0  0
   -4.0978   -3.2176   -1.3091 C   0  0  0  0  0  0  0  0  0  0  0  0
   -4.6063   -3.6659    0.0203 C   0  0  1  0  0  0  0  0  0  0  0  0
   -5.0783   -2.5588    0.9043 C   0  0  0  0  0  0  0  0  0  0  0  0
   -5.4256   -1.3619    0.3976 C   0  0  0  0  0  0  0  0  0  0  0  0
   -4.1514   -1.7239   -2.8244 H   0  0  0  0  0  0  0  0  0  0  0  0
   -3.5147   -3.9251   -1.8889 H   0  0  0  0  0  0  0  0  0  0  0  0
   -3.8951   -4.3279    0.5208 H   0  0  0  0  0  0  0  0  0  0  0  0
   -5.2283   -2.7851    1.9541 H   0  0  0  0  0  0  0  0  0  0  0  0
   -5.8575   -0.5806    1.0154 H   0  0  0  0  0  0  0  0  0  0  0  0
   -8.6962   -6.1635    0.3252 C   0  0  0  0  0  0  0  0  0  0  0  0
   -9.8468   -6.6623   -0.2775 C   0  0  0  0  0  0  0  0  0  0  0  0
   -9.7724   -7.5181   -1.3883 C   0  0  0  0  0  0  0  0  0  0  0  0
   -8.5080   -7.8689   -1.8797 C   0  0  0  0  0  0  0  0  0  0  0  0
   -7.3434   -7.3794   -1.2902 C   0  0  0  0  0  0  0  0  0  0  0  0
   -7.4511   -6.5251   -0.1940 C   0  0  0  0  0  0  0  0  0  0  0  0
   -8.7520   -5.5154    1.1928 H   0  0  0  0  0  0  0  0  0  0  0  0
  -10.8193   -6.3881    0.1224 H   0  0  0  0  0  0  0  0  0  0  0  0
   -8.4330   -8.5369   -2.7333 H   0  0  0  0  0  0  0  0  0  0  0  0
   -6.3646   -7.6620   -1.6611 H   0  0  0  0  0  0  0  0  0  0  0  0
   -5.9697   -5.8940    0.5685 S   0  0  0  0  0  0  0  0  0  0  0  0
   -6.2442   -5.5426    1.9651 O   0  0  0  0  0  0  0  0  0  0  0  0
   -5.8224   -4.5220   -0.3084 O   0  0  0  0  0  0  0  0  0  0  0  0
   -4.8414   -6.7767    0.2583 O   0  0  0  0  0  0  0  0  0  0  0  0
  -11.0317   -8.0481   -2.0304 C   0  0  0  0  0  0  0  0  0  0  0  0
  -11.6515   -8.5845   -1.3029 H   0  0  0  0  0  0  0  0  0  0  0  0
  -11.6426   -7.2321   -2.4336 H   0  0  0  0  0  0  0  0  0  0  0  0
  -10.8053   -8.7342   -2.8506 H   0  0  0  0  0  0  0  0  0  0  0  0
  1  8  1  0  0  0  0
  2  1  1  0  0  0  0
  3  2  1  0  0  0  0
  4  5  1  0  0  0  0
  4  1  2  0  0  0  0
  5  6  1  0  0  0  0
  6 11  1  1  0  0  0
  6  7  1  0  0  0  0
  7 12  1  0  0  0  0
  8  7  2  0  0  0  0
  8 13  1  0  0  0  0
  9  4  1  0  0  0  0
 10  5  1  0  0  0  0
 14 20  1  0  0  0  0
 15 21  1  0  0  0  0
 15 14  2  0  0  0  0
 16 15  1  0  0  0  0
 17 16  2  0  0  0  0
 17 18  1  0  0  0  0
 18 19  2  0  0  0  0
 19 14  1  0  0  0  0
 19 24  1  0  0  0  0
 22 17  1  0  0  0  0
 23 18  1  0  0  0  0
 24 25  2  0  0  0  0
 26  6  1  0  0  0  0
 26 24  1  0  0  0  0
 27 24  2  0  0  0  0
 28 16  1  0  0  0  0
 28 29  1  0  0  0  0
 30 28  1  0  0  0  0
 31 28  1  0  0  0  0
M  RAD  3   2   2   3   3   5   2
M  END
