Coordinates from ORCA-job PhN2+~TsO-_B3LYPG-6-31G_dp-NX-Scan-d89-09-n800
 OpenBabel11261920463D

 31 32  0  0  1  0  0  0  0  0999 V2000
   -5.3509   -1.3580   -0.7115 C   0  0  2  0  0  0  0  0  0  0  0  0
   -6.5182   -0.7780   -0.8271 N   0  0  0  0  0  0  0  0  0  0  0  0
   -7.5692   -0.3488   -0.9231 N   0  0  0  0  0  0  0  0  0  0  0  0
   -4.8017   -2.0461   -1.8750 C   0  0  0  0  0  0  0  0  0  0  0  0
   -4.1954   -3.2271   -1.6629 C   0  0  0  0  0  0  0  0  0  0  0  0
   -4.3630   -3.8455   -0.3094 C   0  0  1  0  0  0  0  0  0  0  0  0
   -4.2340   -2.8419    0.7973 C   0  0  0  0  0  0  0  0  0  0  0  0
   -4.8417   -1.6558    0.6235 C   0  0  0  0  0  0  0  0  0  0  0  0
   -4.8866   -1.5888   -2.8563 H   0  0  0  0  0  0  0  0  0  0  0  0
   -3.7016   -3.7788   -2.4551 H   0  0  0  0  0  0  0  0  0  0  0  0
   -3.7568   -4.7379   -0.1585 H   0  0  0  0  0  0  0  0  0  0  0  0
   -3.7701   -3.1261    1.7352 H   0  0  0  0  0  0  0  0  0  0  0  0
   -4.9617   -0.9257    1.4182 H   0  0  0  0  0  0  0  0  0  0  0  0
   -8.8770   -5.6342   -0.0725 C   0  0  0  0  0  0  0  0  0  0  0  0
   -9.9016   -6.2576   -0.7779 C   0  0  0  0  0  0  0  0  0  0  0  0
   -9.6665   -7.4264   -1.5200 C   0  0  0  0  0  0  0  0  0  0  0  0
   -8.3707   -7.9591   -1.5364 C   0  0  0  0  0  0  0  0  0  0  0  0
   -7.3296   -7.3463   -0.8400 C   0  0  0  0  0  0  0  0  0  0  0  0
   -7.5939   -6.1844   -0.1166 C   0  0  0  0  0  0  0  0  0  0  0  0
   -9.0629   -4.7420    0.5149 H   0  0  0  0  0  0  0  0  0  0  0  0
  -10.9026   -5.8347   -0.7485 H   0  0  0  0  0  0  0  0  0  0  0  0
   -8.1744   -8.8691   -2.0964 H   0  0  0  0  0  0  0  0  0  0  0  0
   -6.3295   -7.7661   -0.8411 H   0  0  0  0  0  0  0  0  0  0  0  0
   -6.2728   -5.3960    0.7875 S   0  0  0  0  0  0  0  0  0  0  0  0
   -6.8429   -4.6964    1.9388 O   0  0  0  0  0  0  0  0  0  0  0  0
   -5.8174   -4.3040   -0.3446 O   0  0  0  0  0  0  0  0  0  0  0  0
   -5.1740   -6.3490    0.9811 O   0  0  0  0  0  0  0  0  0  0  0  0
  -10.7932   -8.0932   -2.2717 C   0  0  0  0  0  0  0  0  0  0  0  0
  -11.5882   -8.4133   -1.5887 H   0  0  0  0  0  0  0  0  0  0  0  0
  -11.2481   -7.4064   -2.9945 H   0  0  0  0  0  0  0  0  0  0  0  0
  -10.4454   -8.9739   -2.8172 H   0  0  0  0  0  0  0  0  0  0  0  0
  1  2  1  1  0  0  0
  1  8  1  0  0  0  0
  3  2  1  0  0  0  0
  4  5  2  0  0  0  0
  4  1  1  0  0  0  0
  5  6  1  0  0  0  0
  6 11  1  1  0  0  0
  6  7  1  0  0  0  0
  7 12  1  0  0  0  0
  8  7  2  0  0  0  0
  8 13  1  0  0  0  0
  9  4  1  0  0  0  0
 10  5  1  0  0  0  0
 14 20  1  0  0  0  0
 15 21  1  0  0  0  0
 15 14  2  0  0  0  0
 16 15  1  0  0  0  0
 17 16  2  0  0  0  0
 17 18  1  0  0  0  0
 18 19  2  0  0  0  0
 19 14  1  0  0  0  0
 19 24  1  0  0  0  0
 22 17  1  0  0  0  0
 23 18  1  0  0  0  0
 24 27  2  0  0  0  0
 24 25  2  0  0  0  0
 26  6  1  0  0  0  0
 26 24  1  0  0  0  0
 28 29  1  0  0  0  0
 28 16  1  0  0  0  0
 30 28  1  0  0  0  0
 31 28  1  0  0  0  0
M  RAD  3   1   2   2   2   3   3
M  END
