Coordinates from ORCA-job PhN2+~TsO-_B3LYPG-6-31G_dp-NX-Scan-d89-09-n800
 OpenBabel11261920463D

 31 32  0  0  1  0  0  0  0  0999 V2000
   -5.3548   -1.3689   -0.6924 C   0  0  2  0  0  0  0  0  0  0  0  0
   -6.5675   -0.8829   -0.7731 N   0  0  0  0  0  0  0  0  0  0  0  0
   -7.6530   -0.5438   -0.8380 N   0  0  0  0  0  0  0  0  0  0  0  0
   -4.8061   -2.0349   -1.8725 C   0  0  0  0  0  0  0  0  0  0  0  0
   -4.1929   -3.2151   -1.6798 C   0  0  0  0  0  0  0  0  0  0  0  0
   -4.3559   -3.8487   -0.3316 C   0  0  1  0  0  0  0  0  0  0  0  0
   -4.1997   -2.8565    0.7833 C   0  0  0  0  0  0  0  0  0  0  0  0
   -4.8141   -1.6712    0.6322 C   0  0  0  0  0  0  0  0  0  0  0  0
   -4.9001   -1.5638   -2.8466 H   0  0  0  0  0  0  0  0  0  0  0  0
   -3.6948   -3.7531   -2.4788 H   0  0  0  0  0  0  0  0  0  0  0  0
   -3.7611   -4.7509   -0.1960 H   0  0  0  0  0  0  0  0  0  0  0  0
   -3.7094   -3.1480    1.7055 H   0  0  0  0  0  0  0  0  0  0  0  0
   -4.9206   -0.9472    1.4343 H   0  0  0  0  0  0  0  0  0  0  0  0
   -8.8782   -5.5952   -0.1098 C   0  0  0  0  0  0  0  0  0  0  0  0
   -9.8974   -6.2268   -0.8158 C   0  0  0  0  0  0  0  0  0  0  0  0
   -9.6621   -7.4166   -1.5235 C   0  0  0  0  0  0  0  0  0  0  0  0
   -8.3715   -7.9614   -1.5056 C   0  0  0  0  0  0  0  0  0  0  0  0
   -7.3355   -7.3406   -0.8085 C   0  0  0  0  0  0  0  0  0  0  0  0
   -7.6000   -6.1583   -0.1191 C   0  0  0  0  0  0  0  0  0  0  0  0
   -9.0650   -4.6860    0.4507 H   0  0  0  0  0  0  0  0  0  0  0  0
  -10.8944   -5.7933   -0.8139 H   0  0  0  0  0  0  0  0  0  0  0  0
   -8.1749   -8.8870   -2.0393 H   0  0  0  0  0  0  0  0  0  0  0  0
   -6.3395   -7.7691   -0.7836 H   0  0  0  0  0  0  0  0  0  0  0  0
   -6.2857   -5.3593    0.7856 S   0  0  0  0  0  0  0  0  0  0  0  0
   -6.8653   -4.6407    1.9200 O   0  0  0  0  0  0  0  0  0  0  0  0
   -5.8170   -4.2839   -0.3578 O   0  0  0  0  0  0  0  0  0  0  0  0
   -5.1908   -6.3117    1.0031 O   0  0  0  0  0  0  0  0  0  0  0  0
  -10.7839   -8.0933   -2.2737 C   0  0  0  0  0  0  0  0  0  0  0  0
  -11.5764   -8.4175   -1.5895 H   0  0  0  0  0  0  0  0  0  0  0  0
  -11.2439   -7.4118   -2.9981 H   0  0  0  0  0  0  0  0  0  0  0  0
  -10.4300   -8.9733   -2.8163 H   0  0  0  0  0  0  0  0  0  0  0  0
  1  2  1  1  0  0  0
  1  8  1  0  0  0  0
  3  2  1  0  0  0  0
  4  5  2  0  0  0  0
  4  1  1  0  0  0  0
  5  6  1  0  0  0  0
  6 11  1  1  0  0  0
  6  7  1  0  0  0  0
  7 12  1  0  0  0  0
  8  7  2  0  0  0  0
  8 13  1  0  0  0  0
  9  4  1  0  0  0  0
 10  5  1  0  0  0  0
 14 20  1  0  0  0  0
 15 21  1  0  0  0  0
 15 14  2  0  0  0  0
 16 17  2  0  0  0  0
 16 15  1  0  0  0  0
 17 18  1  0  0  0  0
 18 23  1  0  0  0  0
 18 19  2  0  0  0  0
 19 14  1  0  0  0  0
 19 24  1  0  0  0  0
 22 17  1  0  0  0  0
 24 27  2  0  0  0  0
 24 25  2  0  0  0  0
 26  6  1  0  0  0  0
 26 24  1  0  0  0  0
 28 29  1  0  0  0  0
 28 16  1  0  0  0  0
 30 28  1  0  0  0  0
 31 28  1  0  0  0  0
M  RAD  3   1   2   2   2   3   3
M  END
