Coordinates from ORCA-job PhN2+~TsO-_B3LYPG-6-31G_dp-NX-Scan-d89-09-n800
 OpenBabel11261920463D

 31 32  0  0  0  0  0  0  0  0999 V2000
   -4.3708   -2.4839   -0.6677 C   0  0  0  0  0  0  0  0  0  0  0  0
   -5.4924   -3.3517   -0.5478 N   0  0  0  0  0  0  0  0  0  0  0  0
   -6.2821   -3.3996   -1.5657 N   0  0  0  0  0  0  0  0  0  0  0  0
   -3.7190   -2.2479    0.5553 C   0  0  0  0  0  0  0  0  0  0  0  0
   -2.5869   -1.4432    0.6096 C   0  0  0  0  0  0  0  0  0  0  0  0
   -2.0778   -0.8637   -0.5561 C   0  0  0  0  0  0  0  0  0  0  0  0
   -2.7160   -1.1007   -1.7726 C   0  0  0  0  0  0  0  0  0  0  0  0
   -3.8573   -1.9029   -1.8408 C   0  0  0  0  0  0  0  0  0  0  0  0
   -4.1272   -2.7073    1.4491 H   0  0  0  0  0  0  0  0  0  0  0  0
   -2.1003   -1.2680    1.5645 H   0  0  0  0  0  0  0  0  0  0  0  0
   -1.1918   -0.2376   -0.5158 H   0  0  0  0  0  0  0  0  0  0  0  0
   -2.3270   -0.6603   -2.6858 H   0  0  0  0  0  0  0  0  0  0  0  0
   -4.3184   -2.0680   -2.8065 H   0  0  0  0  0  0  0  0  0  0  0  0
   -8.3068   -7.3566   -1.1156 C   0  0  0  0  0  0  0  0  0  0  0  0
   -9.2591   -8.3145   -1.4548 C   0  0  0  0  0  0  0  0  0  0  0  0
  -10.5457   -8.2873   -0.8929 C   0  0  0  0  0  0  0  0  0  0  0  0
  -10.8546   -7.2692    0.0192 C   0  0  0  0  0  0  0  0  0  0  0  0
   -9.9105   -6.3035    0.3701 C   0  0  0  0  0  0  0  0  0  0  0  0
   -8.6453   -6.3511   -0.2077 C   0  0  0  0  0  0  0  0  0  0  0  0
   -7.3180   -7.3834   -1.5647 H   0  0  0  0  0  0  0  0  0  0  0  0
   -9.0037   -9.0945   -2.1681 H   0  0  0  0  0  0  0  0  0  0  0  0
  -11.8468   -7.2327    0.4616 H   0  0  0  0  0  0  0  0  0  0  0  0
  -10.1360   -5.5131    1.0798 H   0  0  0  0  0  0  0  0  0  0  0  0
   -7.3987   -5.1325    0.3188 S   0  0  1  0  0  0  0  0  0  0  0  0
   -7.4589   -4.4140   -1.2343 O   0  0  0  0  0  0  0  0  0  0  0  0
   -6.3801   -3.0091   -2.4482 O   0  0  0  0  0  0  0  0  0  0  0  0
   -8.0779   -4.2642    1.3192 O   0  0  0  0  0  0  0  0  0  0  0  0
  -11.5600   -9.3491   -1.2455 C   0  0  0  0  0  0  0  0  0  0  0  0
  -11.5053   -9.6188   -2.3047 H   0  0  0  0  0  0  0  0  0  0  0  0
  -11.3880  -10.2662   -0.6688 H   0  0  0  0  0  0  0  0  0  0  0  0
  -12.5794   -9.0156   -1.0316 H   0  0  0  0  0  0  0  0  0  0  0  0
  1  2  1  0  0  0  0
  1  4  2  0  0  0  0
  3 25  1  0  0  0  0
  3  2  1  0  0  0  0
  4  5  1  0  0  0  0
  4  9  1  0  0  0  0
  5 10  1  0  0  0  0
  6 11  1  0  0  0  0
  6  5  2  0  0  0  0
  7  6  1  0  0  0  0
  8  7  2  0  0  0  0
  8  1  1  0  0  0  0
 12  7  1  0  0  0  0
 13  8  1  0  0  0  0
 14 19  1  0  0  0  0
 15 14  2  0  0  0  0
 15 16  1  0  0  0  0
 16 17  2  0  0  0  0
 17 18  1  0  0  0  0
 17 22  1  0  0  0  0
 18 23  1  0  0  0  0
 19 24  1  0  0  0  0
 19 18  2  0  0  0  0
 20 14  1  0  0  0  0
 21 15  1  0  0  0  0
 24 25  1  6  0  0  0
 24 27  1  0  0  0  0
 26  3  1  0  0  0  0
 28 31  1  0  0  0  0
 28 16  1  0  0  0  0
 28 30  1  0  0  0  0
 29 28  1  0  0  0  0
M  RAD  3   2   2  26   2  27   2
M  END
