Coordinates from ORCA-job PhN2+~TsO-_B3LYPG-6-31G_dp-NX-Scan-d89-09-n800
 OpenBabel11261920463D

 31 31  0  0  0  0  0  0  0  0999 V2000
   -3.8311   -0.4125   -0.2134 C   0  0  0  0  0  0  0  0  0  0  0  0
   -3.6494    0.9056    0.0497 N   0  0  0  0  0  0  0  0  0  0  0  0
   -3.5195    1.9982    0.2797 N   0  0  0  0  0  0  0  0  0  0  0  0
   -2.9078   -1.0626   -1.0705 C   0  0  0  0  0  0  0  0  0  0  0  0
   -3.1341   -2.3992   -1.3394 C   0  0  0  0  0  0  0  0  0  0  0  0
   -4.2407   -3.0662   -0.7830 C   0  0  0  0  0  0  0  0  0  0  0  0
   -5.1381   -2.3992    0.0755 C   0  0  0  0  0  0  0  0  0  0  0  0
   -4.9479   -1.0644    0.3728 C   0  0  0  0  0  0  0  0  0  0  0  0
   -2.0714   -0.5161   -1.4916 H   0  0  0  0  0  0  0  0  0  0  0  0
   -2.4551   -2.9317   -1.9974 H   0  0  0  0  0  0  0  0  0  0  0  0
   -4.4696   -4.1087   -1.0190 H   0  0  0  0  0  0  0  0  0  0  0  0
   -6.0016   -2.9524    0.4630 H   0  0  0  0  0  0  0  0  0  0  0  0
   -5.6247   -0.5144    1.0179 H   0  0  0  0  0  0  0  0  0  0  0  0
   -9.5607   -6.3088   -0.1704 C   0  0  0  0  0  0  0  0  0  0  0  0
  -10.4341   -7.3941   -0.2054 C   0  0  0  0  0  0  0  0  0  0  0  0
  -10.1125   -8.5610   -0.9141 C   0  0  0  0  0  0  0  0  0  0  0  0
   -8.8864   -8.6092   -1.5897 C   0  0  0  0  0  0  0  0  0  0  0  0
   -8.0040   -7.5285   -1.5624 C   0  0  0  0  0  0  0  0  0  0  0  0
   -8.3434   -6.3780   -0.8515 C   0  0  0  0  0  0  0  0  0  0  0  0
   -9.8049   -5.4134    0.3912 H   0  0  0  0  0  0  0  0  0  0  0  0
  -11.3808   -7.3369    0.3271 H   0  0  0  0  0  0  0  0  0  0  0  0
   -8.6165   -9.5066   -2.1423 H   0  0  0  0  0  0  0  0  0  0  0  0
   -7.0484   -7.5716   -2.0731 H   0  0  0  0  0  0  0  0  0  0  0  0
   -7.2462   -4.9513   -0.8676 S   0  0  0  0  0  0  0  0  0  0  0  0
   -7.4142   -4.3226    0.4840 O   0  0  0  0  0  0  0  0  0  0  0  0
   -7.6722   -4.0654   -1.9790 O   0  0  0  0  0  0  0  0  0  0  0  0
   -5.8724   -5.5223   -1.0663 O   0  0  0  0  0  0  0  0  0  0  0  0
  -11.0527   -9.7440   -0.9210 C   0  0  0  0  0  0  0  0  0  0  0  0
  -10.9595  -10.3330    0.0010 H   0  0  0  0  0  0  0  0  0  0  0  0
  -12.0979   -9.4254   -0.9940 H   0  0  0  0  0  0  0  0  0  0  0  0
  -10.8440  -10.4151   -1.7595 H   0  0  0  0  0  0  0  0  0  0  0  0
  1  2  1  0  0  0  0
  1  8  2  0  0  0  0
  2  3  1  0  0  0  0
  4  1  1  0  0  0  0
  5  4  2  0  0  0  0
  5  6  1  0  0  0  0
  6  7  2  0  0  0  0
  7  8  1  0  0  0  0
  7 12  1  0  0  0  0
  8 13  1  0  0  0  0
  9  4  1  0  0  0  0
 10  5  1  0  0  0  0
 11  6  1  0  0  0  0
 14 20  1  0  0  0  0
 15 14  1  0  0  0  0
 15 21  1  0  0  0  0
 16 15  2  0  0  0  0
 17 18  2  0  0  0  0
 17 16  1  0  0  0  0
 18 19  1  0  0  0  0
 19 14  2  0  0  0  0
 22 17  1  0  0  0  0
 23 18  1  0  0  0  0
 24 19  1  0  0  0  0
 24 25  1  0  0  0  0
 26 24  2  0  0  0  0
 27 24  2  0  0  0  0
 28 16  1  0  0  0  0
 28 29  1  0  0  0  0
 30 28  1  0  0  0  0
 31 28  1  0  0  0  0
M  RAD  3   2   2   3   3  25   2
M  END
