Coordinates from ORCA-job PhN2+~TsO-_B3LYPG-6-31G_dp-NX-Scan-d89-09-n800
 OpenBabel11261920463D

 31 32  0  0  1  0  0  0  0  0999 V2000
   -5.2625   -1.1693   -1.0168 C   0  0  0  0  0  0  0  0  0  0  0  0
   -5.8851   -0.1695   -1.5911 N   0  0  0  0  0  0  0  0  0  0  0  0
   -6.4525    0.6813   -2.0980 N   0  0  0  0  0  0  0  0  0  0  0  0
   -4.4585   -2.0667   -1.8210 C   0  0  0  0  0  0  0  0  0  0  0  0
   -4.0458   -3.2301   -1.2859 C   0  0  0  0  0  0  0  0  0  0  0  0
   -4.5531   -3.6794    0.0435 C   0  0  1  0  0  0  0  0  0  0  0  0
   -5.0187   -2.5704    0.9284 C   0  0  0  0  0  0  0  0  0  0  0  0
   -5.4355   -1.4039    0.4033 C   0  0  0  0  0  0  0  0  0  0  0  0
   -4.1886   -1.7681   -2.8289 H   0  0  0  0  0  0  0  0  0  0  0  0
   -3.4203   -3.9143   -1.8492 H   0  0  0  0  0  0  0  0  0  0  0  0
   -3.8490   -4.3500    0.5410 H   0  0  0  0  0  0  0  0  0  0  0  0
   -5.1174   -2.7747    1.9887 H   0  0  0  0  0  0  0  0  0  0  0  0
   -5.8808   -0.6233    1.0122 H   0  0  0  0  0  0  0  0  0  0  0  0
   -8.6830   -6.1291    0.3248 C   0  0  0  0  0  0  0  0  0  0  0  0
   -9.8345   -6.6142   -0.2871 C   0  0  0  0  0  0  0  0  0  0  0  0
   -9.7615   -7.4653   -1.4016 C   0  0  0  0  0  0  0  0  0  0  0  0
   -8.4975   -7.8252   -1.8875 C   0  0  0  0  0  0  0  0  0  0  0  0
   -7.3320   -7.3497   -1.2886 C   0  0  0  0  0  0  0  0  0  0  0  0
   -7.4382   -6.4998   -0.1886 C   0  0  0  0  0  0  0  0  0  0  0  0
   -8.7376   -5.4847    1.1953 H   0  0  0  0  0  0  0  0  0  0  0  0
  -10.8069   -6.3329    0.1084 H   0  0  0  0  0  0  0  0  0  0  0  0
   -8.4237   -8.4895   -2.7440 H   0  0  0  0  0  0  0  0  0  0  0  0
   -6.3537   -7.6397   -1.6551 H   0  0  0  0  0  0  0  0  0  0  0  0
   -5.9556   -5.8863    0.5863 S   0  0  0  0  0  0  0  0  0  0  0  0
   -6.2390   -5.5293    1.9796 O   0  0  0  0  0  0  0  0  0  0  0  0
   -5.7813   -4.5193   -0.2926 O   0  0  0  0  0  0  0  0  0  0  0  0
   -4.8363   -6.7848    0.2888 O   0  0  0  0  0  0  0  0  0  0  0  0
  -11.0220   -7.9814   -2.0527 C   0  0  0  0  0  0  0  0  0  0  0  0
  -11.6435   -8.5276   -1.3339 H   0  0  0  0  0  0  0  0  0  0  0  0
  -11.6305   -7.1578   -2.4433 H   0  0  0  0  0  0  0  0  0  0  0  0
  -10.7971   -8.6555   -2.8833 H   0  0  0  0  0  0  0  0  0  0  0  0
  1  8  1  0  0  0  0
  2  1  1  0  0  0  0
  3  2  1  0  0  0  0
  4  5  1  0  0  0  0
  4  1  2  0  0  0  0
  5  6  1  0  0  0  0
  6 11  1  1  0  0  0
  6  7  1  0  0  0  0
  7 12  1  0  0  0  0
  8  7  2  0  0  0  0
  8 13  1  0  0  0  0
  9  4  1  0  0  0  0
 10  5  1  0  0  0  0
 14 20  1  0  0  0  0
 15 21  1  0  0  0  0
 15 14  2  0  0  0  0
 16 15  1  0  0  0  0
 17 16  2  0  0  0  0
 17 18  1  0  0  0  0
 18 19  2  0  0  0  0
 19 14  1  0  0  0  0
 19 24  1  0  0  0  0
 22 17  1  0  0  0  0
 23 18  1  0  0  0  0
 24 25  2  0  0  0  0
 26  6  1  0  0  0  0
 26 24  1  0  0  0  0
 27 24  2  0  0  0  0
 28 16  1  0  0  0  0
 28 29  1  0  0  0  0
 30 28  1  0  0  0  0
 31 28  1  0  0  0  0
M  RAD  3   2   2   3   3   5   2
M  END
