Coordinates from ORCA-job PhN2+~TsO-_B3LYPG-6-31G_dp-NX-Scan-d89-09-n800
 OpenBabel11261920463D

 31 32  0  0  0  0  0  0  0  0999 V2000
   -5.0005   -2.5764   -0.8789 C   0  0  0  0  0  0  0  0  0  0  0  0
   -6.4184   -2.6417   -0.9789 N   0  0  0  0  0  0  0  0  0  0  0  0
   -7.2032   -3.3212   -0.3004 N   0  0  0  0  0  0  0  0  0  0  0  0
   -4.4528   -1.7475   -1.8770 C   0  0  0  0  0  0  0  0  0  0  0  0
   -3.0818   -1.5322   -1.9594 C   0  0  0  0  0  0  0  0  0  0  0  0
   -2.2295   -2.1391   -1.0343 C   0  0  0  0  0  0  0  0  0  0  0  0
   -2.7608   -2.9581   -0.0359 C   0  0  0  0  0  0  0  0  0  0  0  0
   -4.1337   -3.1871    0.0532 C   0  0  0  0  0  0  0  0  0  0  0  0
   -5.1391   -1.2826   -2.5766 H   0  0  0  0  0  0  0  0  0  0  0  0
   -2.6793   -0.8910   -2.7381 H   0  0  0  0  0  0  0  0  0  0  0  0
   -1.1572   -1.9723   -1.0879 H   0  0  0  0  0  0  0  0  0  0  0  0
   -2.1010   -3.4289    0.6868 H   0  0  0  0  0  0  0  0  0  0  0  0
   -4.5167   -3.8224    0.8365 H   0  0  0  0  0  0  0  0  0  0  0  0
   -9.7736   -5.4345   -0.3068 C   0  0  0  0  0  0  0  0  0  0  0  0
  -10.4081   -6.2452   -1.2437 C   0  0  0  0  0  0  0  0  0  0  0  0
   -9.9503   -7.5446   -1.5109 C   0  0  0  0  0  0  0  0  0  0  0  0
   -8.8289   -8.0190   -0.8142 C   0  0  0  0  0  0  0  0  0  0  0  0
   -8.1768   -7.2263    0.1265 C   0  0  0  0  0  0  0  0  0  0  0  0
   -8.6606   -5.9389    0.3694 C   0  0  0  0  0  0  0  0  0  0  0  0
  -10.1280   -4.4327   -0.0970 H   0  0  0  0  0  0  0  0  0  0  0  0
  -11.2745   -5.8630   -1.7760 H   0  0  0  0  0  0  0  0  0  0  0  0
   -8.4630   -9.0226   -1.0098 H   0  0  0  0  0  0  0  0  0  0  0  0
   -7.3154   -7.5955    0.6721 H   0  0  0  0  0  0  0  0  0  0  0  0
   -7.8363   -4.9245    1.5722 S   0  0  0  0  0  0  0  0  0  0  0  0
   -8.7525   -3.9188    2.0857 O   0  0  0  0  0  0  0  0  0  0  0  0
   -6.6462   -4.1092    0.6301 O   0  0  0  0  0  0  0  0  0  0  0  0
   -6.9952   -5.7435    2.4314 O   0  0  0  0  0  0  0  0  0  0  0  0
  -10.6686   -8.4231   -2.5053 C   0  0  0  0  0  0  0  0  0  0  0  0
  -11.4857   -8.9712   -2.0201 H   0  0  0  0  0  0  0  0  0  0  0  0
  -11.1084   -7.8341   -3.3149 H   0  0  0  0  0  0  0  0  0  0  0  0
   -9.9957   -9.1636   -2.9465 H   0  0  0  0  0  0  0  0  0  0  0  0
  1  8  2  0  0  0  0
  2  1  1  0  0  0  0
  2  3  2  0  0  0  0
  3 26  1  0  0  0  0
  4  1  1  0  0  0  0
  5  4  2  0  0  0  0
  5  6  1  0  0  0  0
  6  7  2  0  0  0  0
  7  8  1  0  0  0  0
  7 12  1  0  0  0  0
  8 13  1  0  0  0  0
  9  4  1  0  0  0  0
 10  5  1  0  0  0  0
 11  6  1  0  0  0  0
 14 20  1  0  0  0  0
 14 19  2  0  0  0  0
 15 14  1  0  0  0  0
 16 15  2  0  0  0  0
 16 17  1  0  0  0  0
 17 18  2  0  0  0  0
 18 19  1  0  0  0  0
 18 23  1  0  0  0  0
 19 24  1  0  0  0  0
 21 15  1  0  0  0  0
 22 17  1  0  0  0  0
 24 25  2  0  0  0  0
 24 27  2  0  0  0  0
 26 24  1  0  0  0  0
 28 29  1  0  0  0  0
 28 16  1  0  0  0  0
 30 28  1  0  0  0  0
 31 28  1  0  0  0  0
M  END
