Coordinates from ORCA-job PhN2+~TsO-_B3LYPG-6-31G_dp-NX-Scan-d89-09-n800
 OpenBabel11261920463D

 31 32  0  0  1  0  0  0  0  0999 V2000
   -5.3638   -1.3307   -0.7805 C   0  0  2  0  0  0  0  0  0  0  0  0
   -6.4221   -0.5956   -1.0089 N   0  0  0  0  0  0  0  0  0  0  0  0
   -7.3822   -0.0133   -1.2047 N   0  0  0  0  0  0  0  0  0  0  0  0
   -4.7745   -2.0781   -1.8803 C   0  0  0  0  0  0  0  0  0  0  0  0
   -4.1792   -3.2493   -1.5930 C   0  0  0  0  0  0  0  0  0  0  0  0
   -4.3796   -3.8175   -0.2242 C   0  0  1  0  0  0  0  0  0  0  0  0
   -4.3618   -2.7730    0.8487 C   0  0  0  0  0  0  0  0  0  0  0  0
   -4.9596   -1.5963    0.5919 C   0  0  0  0  0  0  0  0  0  0  0  0
   -4.8164   -1.6675   -2.8847 H   0  0  0  0  0  0  0  0  0  0  0  0
   -3.6699   -3.8369   -2.3486 H   0  0  0  0  0  0  0  0  0  0  0  0
   -3.7332   -4.6686   -0.0120 H   0  0  0  0  0  0  0  0  0  0  0  0
   -3.9850   -3.0223    1.8342 H   0  0  0  0  0  0  0  0  0  0  0  0
   -5.1395   -0.8451    1.3547 H   0  0  0  0  0  0  0  0  0  0  0  0
   -8.8410   -5.7319    0.0221 C   0  0  0  0  0  0  0  0  0  0  0  0
   -9.8917   -6.3167   -0.6779 C   0  0  0  0  0  0  0  0  0  0  0  0
   -9.6812   -7.4291   -1.5087 C   0  0  0  0  0  0  0  0  0  0  0  0
   -8.3834   -7.9452   -1.6200 C   0  0  0  0  0  0  0  0  0  0  0  0
   -7.3165   -7.3702   -0.9305 C   0  0  0  0  0  0  0  0  0  0  0  0
   -7.5569   -6.2635   -0.1176 C   0  0  0  0  0  0  0  0  0  0  0  0
   -9.0070   -4.8842    0.6780 H   0  0  0  0  0  0  0  0  0  0  0  0
  -10.8938   -5.9086   -0.5740 H   0  0  0  0  0  0  0  0  0  0  0  0
   -8.2058   -8.8124   -2.2500 H   0  0  0  0  0  0  0  0  0  0  0  0
   -6.3141   -7.7771   -1.0057 H   0  0  0  0  0  0  0  0  0  0  0  0
   -6.2024   -5.5251    0.7785 S   0  0  0  0  0  0  0  0  0  0  0  0
   -6.7224   -4.9059    1.9984 O   0  0  0  0  0  0  0  0  0  0  0  0
   -5.8033   -4.3632   -0.3023 O   0  0  0  0  0  0  0  0  0  0  0  0
   -5.0915   -6.4800    0.8648 O   0  0  0  0  0  0  0  0  0  0  0  0
  -10.8352   -8.0552   -2.2541 C   0  0  0  0  0  0  0  0  0  0  0  0
  -11.5979   -8.4278   -1.5609 H   0  0  0  0  0  0  0  0  0  0  0  0
  -11.3255   -7.3263   -2.9094 H   0  0  0  0  0  0  0  0  0  0  0  0
  -10.5055   -8.8944   -2.8720 H   0  0  0  0  0  0  0  0  0  0  0  0
  1  2  1  1  0  0  0
  1  8  1  0  0  0  0
  3  2  1  0  0  0  0
  4  5  2  0  0  0  0
  4  1  1  0  0  0  0
  5  6  1  0  0  0  0
  6 11  1  1  0  0  0
  6  7  1  0  0  0  0
  7 12  1  0  0  0  0
  8  7  2  0  0  0  0
  8 13  1  0  0  0  0
  9  4  1  0  0  0  0
 10  5  1  0  0  0  0
 14 20  1  0  0  0  0
 15 21  1  0  0  0  0
 15 14  2  0  0  0  0
 16 15  1  0  0  0  0
 17 16  2  0  0  0  0
 17 18  1  0  0  0  0
 18 19  2  0  0  0  0
 19 14  1  0  0  0  0
 19 24  1  0  0  0  0
 22 17  1  0  0  0  0
 23 18  1  0  0  0  0
 24 27  2  0  0  0  0
 24 25  2  0  0  0  0
 26  6  1  0  0  0  0
 26 24  1  0  0  0  0
 28 29  1  0  0  0  0
 28 16  1  0  0  0  0
 30 28  1  0  0  0  0
 31 28  1  0  0  0  0
M  RAD  3   1   2   2   2   3   3
M  END
