Coordinates from ORCA-job PhN2+~TsO-_B3LYPG-6-31G_dp-NX-Scan-d89-09-n800
 OpenBabel11261920463D

 31 32  0  0  1  0  0  0  0  0999 V2000
   -5.3551   -1.3133   -0.7923 C   0  0  2  0  0  0  0  0  0  0  0  0
   -6.3725   -0.5288   -1.0421 N   0  0  0  0  0  0  0  0  0  0  0  0
   -7.2978    0.1019   -1.2561 N   0  0  0  0  0  0  0  0  0  0  0  0
   -4.7668   -2.0763   -1.8803 C   0  0  0  0  0  0  0  0  0  0  0  0
   -4.1846   -3.2514   -1.5815 C   0  0  0  0  0  0  0  0  0  0  0  0
   -4.3913   -3.8117   -0.2109 C   0  0  1  0  0  0  0  0  0  0  0  0
   -4.3934   -2.7624    0.8567 C   0  0  0  0  0  0  0  0  0  0  0  0
   -4.9783   -1.5821    0.5862 C   0  0  0  0  0  0  0  0  0  0  0  0
   -4.7969   -1.6731   -2.8881 H   0  0  0  0  0  0  0  0  0  0  0  0
   -3.6801   -3.8489   -2.3325 H   0  0  0  0  0  0  0  0  0  0  0  0
   -3.7375   -4.6548    0.0114 H   0  0  0  0  0  0  0  0  0  0  0  0
   -4.0406   -3.0108    1.8513 H   0  0  0  0  0  0  0  0  0  0  0  0
   -5.1654   -0.8285    1.3448 H   0  0  0  0  0  0  0  0  0  0  0  0
   -8.8386   -5.7574    0.0396 C   0  0  0  0  0  0  0  0  0  0  0  0
   -9.8930   -6.3375   -0.6589 C   0  0  0  0  0  0  0  0  0  0  0  0
   -9.6853   -7.4383   -1.5057 C   0  0  0  0  0  0  0  0  0  0  0  0
   -8.3864   -7.9476   -1.6348 C   0  0  0  0  0  0  0  0  0  0  0  0
   -7.3159   -7.3773   -0.9470 C   0  0  0  0  0  0  0  0  0  0  0  0
   -7.5537   -6.2821   -0.1180 C   0  0  0  0  0  0  0  0  0  0  0  0
   -9.0022   -4.9188    0.7075 H   0  0  0  0  0  0  0  0  0  0  0  0
  -10.8957   -5.9348   -0.5413 H   0  0  0  0  0  0  0  0  0  0  0  0
   -8.2107   -8.8058   -2.2776 H   0  0  0  0  0  0  0  0  0  0  0  0
   -6.3126   -7.7790   -1.0363 H   0  0  0  0  0  0  0  0  0  0  0  0
   -6.1944   -5.5493    0.7753 S   0  0  0  0  0  0  0  0  0  0  0  0
   -6.7060   -4.9449    2.0062 O   0  0  0  0  0  0  0  0  0  0  0  0
   -5.8078   -4.3749   -0.2962 O   0  0  0  0  0  0  0  0  0  0  0  0
   -5.0799   -6.5015    0.8428 O   0  0  0  0  0  0  0  0  0  0  0  0
  -10.8432   -8.0602   -2.2485 C   0  0  0  0  0  0  0  0  0  0  0  0
  -11.5906   -8.4587   -1.5529 H   0  0  0  0  0  0  0  0  0  0  0  0
  -11.3521   -7.3219   -2.8784 H   0  0  0  0  0  0  0  0  0  0  0  0
  -10.5133   -8.8806   -2.8912 H   0  0  0  0  0  0  0  0  0  0  0  0
  1  2  1  1  0  0  0
  1  8  1  0  0  0  0
  3  2  1  0  0  0  0
  4  5  2  0  0  0  0
  4  1  1  0  0  0  0
  5  6  1  0  0  0  0
  6 11  1  1  0  0  0
  6  7  1  0  0  0  0
  7 12  1  0  0  0  0
  8  7  2  0  0  0  0
  8 13  1  0  0  0  0
  9  4  1  0  0  0  0
 10  5  1  0  0  0  0
 14 20  1  0  0  0  0
 15 21  1  0  0  0  0
 15 14  2  0  0  0  0
 16 15  1  0  0  0  0
 17 16  2  0  0  0  0
 17 18  1  0  0  0  0
 18 19  2  0  0  0  0
 19 14  1  0  0  0  0
 19 24  1  0  0  0  0
 22 17  1  0  0  0  0
 23 18  1  0  0  0  0
 24 27  2  0  0  0  0
 24 25  2  0  0  0  0
 26  6  1  0  0  0  0
 26 24  1  0  0  0  0
 28 29  1  0  0  0  0
 28 16  1  0  0  0  0
 30 28  1  0  0  0  0
 31 28  1  0  0  0  0
M  RAD  3   1   2   2   2   3   3
M  END
