Coordinates from ORCA-job PhN2+~TsO-_B3LYPG-6-31G_dp-NX-Scan-d89-09-n800
 OpenBabel11261920463D

 31 31  0  0  0  0  0  0  0  0999 V2000
   -3.8457   -0.4101   -0.2295 C   0  0  0  0  0  0  0  0  0  0  0  0
   -3.6735    0.9122    0.0188 N   0  0  0  0  0  0  0  0  0  0  0  0
   -3.5512    2.0081    0.2365 N   0  0  0  0  0  0  0  0  0  0  0  0
   -2.9258   -1.0596   -1.0906 C   0  0  0  0  0  0  0  0  0  0  0  0
   -3.1422   -2.4008   -1.3442 C   0  0  0  0  0  0  0  0  0  0  0  0
   -4.2358   -3.0731   -0.7688 C   0  0  0  0  0  0  0  0  0  0  0  0
   -5.1303   -2.4062    0.0929 C   0  0  0  0  0  0  0  0  0  0  0  0
   -4.9497   -1.0668    0.3753 C   0  0  0  0  0  0  0  0  0  0  0  0
   -2.0994   -0.5093   -1.5262 H   0  0  0  0  0  0  0  0  0  0  0  0
   -2.4656   -2.9332   -2.0048 H   0  0  0  0  0  0  0  0  0  0  0  0
   -4.4567   -4.1199   -0.9929 H   0  0  0  0  0  0  0  0  0  0  0  0
   -5.9846   -2.9635    0.4943 H   0  0  0  0  0  0  0  0  0  0  0  0
   -5.6249   -0.5169    1.0222 H   0  0  0  0  0  0  0  0  0  0  0  0
   -9.5507   -6.3107   -0.1604 C   0  0  0  0  0  0  0  0  0  0  0  0
  -10.4320   -7.3891   -0.2079 C   0  0  0  0  0  0  0  0  0  0  0  0
  -10.1156   -8.5530   -0.9238 C   0  0  0  0  0  0  0  0  0  0  0  0
   -8.8865   -8.6053   -1.5937 C   0  0  0  0  0  0  0  0  0  0  0  0
   -7.9963   -7.5314   -1.5541 C   0  0  0  0  0  0  0  0  0  0  0  0
   -8.3307   -6.3838   -0.8361 C   0  0  0  0  0  0  0  0  0  0  0  0
   -9.7911   -5.4178    0.4068 H   0  0  0  0  0  0  0  0  0  0  0  0
  -11.3808   -7.3290    0.3206 H   0  0  0  0  0  0  0  0  0  0  0  0
   -8.6205   -9.5006   -2.1517 H   0  0  0  0  0  0  0  0  0  0  0  0
   -7.0385   -7.5777   -2.0604 H   0  0  0  0  0  0  0  0  0  0  0  0
   -7.2229   -4.9652   -0.8361 S   0  0  0  0  0  0  0  0  0  0  0  0
   -7.3905   -4.3468    0.5202 O   0  0  0  0  0  0  0  0  0  0  0  0
   -7.6391   -4.0659   -1.9408 O   0  0  0  0  0  0  0  0  0  0  0  0
   -5.8527   -5.5440   -1.0364 O   0  0  0  0  0  0  0  0  0  0  0  0
  -11.0645   -9.7288   -0.9443 C   0  0  0  0  0  0  0  0  0  0  0  0
  -10.9821  -10.3241   -0.0253 H   0  0  0  0  0  0  0  0  0  0  0  0
  -12.1068   -9.4020   -1.0226 H   0  0  0  0  0  0  0  0  0  0  0  0
  -10.8550  -10.3964   -1.7855 H   0  0  0  0  0  0  0  0  0  0  0  0
  1  2  1  0  0  0  0
  1  8  2  0  0  0  0
  2  3  1  0  0  0  0
  4  1  1  0  0  0  0
  5  4  2  0  0  0  0
  5  6  1  0  0  0  0
  6  7  2  0  0  0  0
  7  8  1  0  0  0  0
  7 12  1  0  0  0  0
  8 13  1  0  0  0  0
  9  4  1  0  0  0  0
 10  5  1  0  0  0  0
 11  6  1  0  0  0  0
 14 20  1  0  0  0  0
 15 14  1  0  0  0  0
 15 21  1  0  0  0  0
 16 15  2  0  0  0  0
 17 18  2  0  0  0  0
 17 16  1  0  0  0  0
 18 19  1  0  0  0  0
 19 24  1  0  0  0  0
 19 14  2  0  0  0  0
 22 17  1  0  0  0  0
 23 18  1  0  0  0  0
 24 25  1  0  0  0  0
 26 24  2  0  0  0  0
 27 24  2  0  0  0  0
 28 16  1  0  0  0  0
 28 29  1  0  0  0  0
 30 28  1  0  0  0  0
 31 28  1  0  0  0  0
M  RAD  3   2   2   3   3  25   2
M  END
