Coordinates from ORCA-job PhN2+~TsO-_B3LYPG-6-31G_dp-NX-Scan-d89-09-n800
 OpenBabel11261920463D

 31 32  0  0  0  0  0  0  0  0999 V2000
   -4.9978   -2.5752   -0.8804 C   0  0  0  0  0  0  0  0  0  0  0  0
   -6.4152   -2.6419   -0.9808 N   0  0  0  0  0  0  0  0  0  0  0  0
   -7.2032   -3.3193   -0.3068 N   0  0  0  0  0  0  0  0  0  0  0  0
   -4.4502   -1.7437   -1.8762 C   0  0  0  0  0  0  0  0  0  0  0  0
   -3.0793   -1.5275   -1.9567 C   0  0  0  0  0  0  0  0  0  0  0  0
   -2.2276   -2.1362   -1.0322 C   0  0  0  0  0  0  0  0  0  0  0  0
   -2.7593   -2.9579   -0.0362 C   0  0  0  0  0  0  0  0  0  0  0  0
   -4.1320   -3.1879    0.0512 C   0  0  0  0  0  0  0  0  0  0  0  0
   -5.1361   -1.2776   -2.5754 H   0  0  0  0  0  0  0  0  0  0  0  0
   -2.6762   -0.8843   -2.7335 H   0  0  0  0  0  0  0  0  0  0  0  0
   -1.1554   -1.9687   -1.0845 H   0  0  0  0  0  0  0  0  0  0  0  0
   -2.0997   -3.4301    0.6860 H   0  0  0  0  0  0  0  0  0  0  0  0
   -4.5160   -3.8251    0.8324 H   0  0  0  0  0  0  0  0  0  0  0  0
   -9.7743   -5.4355   -0.3076 C   0  0  0  0  0  0  0  0  0  0  0  0
  -10.4099   -6.2468   -1.2434 C   0  0  0  0  0  0  0  0  0  0  0  0
   -9.9525   -7.5463   -1.5100 C   0  0  0  0  0  0  0  0  0  0  0  0
   -8.8305   -8.0203   -0.8140 C   0  0  0  0  0  0  0  0  0  0  0  0
   -8.1775   -7.2269    0.1256 C   0  0  0  0  0  0  0  0  0  0  0  0
   -8.6607   -5.9392    0.3680 C   0  0  0  0  0  0  0  0  0  0  0  0
  -10.1285   -4.4335   -0.0981 H   0  0  0  0  0  0  0  0  0  0  0  0
  -11.2769   -5.8649   -1.7750 H   0  0  0  0  0  0  0  0  0  0  0  0
   -8.4649   -9.0242   -1.0091 H   0  0  0  0  0  0  0  0  0  0  0  0
   -7.3159   -7.5959    0.6709 H   0  0  0  0  0  0  0  0  0  0  0  0
   -7.8353   -4.9239    1.5697 S   0  0  0  0  0  0  0  0  0  0  0  0
   -8.7515   -3.9168    2.0811 O   0  0  0  0  0  0  0  0  0  0  0  0
   -6.6443   -4.1144    0.6310 O   0  0  0  0  0  0  0  0  0  0  0  0
   -6.9989   -5.7444    2.4323 O   0  0  0  0  0  0  0  0  0  0  0  0
  -10.6718   -8.4256   -2.5030 C   0  0  0  0  0  0  0  0  0  0  0  0
  -11.4882   -8.9736   -2.0166 H   0  0  0  0  0  0  0  0  0  0  0  0
  -11.1127   -7.8372   -3.3125 H   0  0  0  0  0  0  0  0  0  0  0  0
   -9.9993   -9.1663   -2.9447 H   0  0  0  0  0  0  0  0  0  0  0  0
  1  8  2  0  0  0  0
  2  1  1  0  0  0  0
  2  3  2  0  0  0  0
  3 26  1  0  0  0  0
  4  1  1  0  0  0  0
  5  4  2  0  0  0  0
  5  6  1  0  0  0  0
  6  7  2  0  0  0  0
  7  8  1  0  0  0  0
  7 12  1  0  0  0  0
  8 13  1  0  0  0  0
  9  4  1  0  0  0  0
 10  5  1  0  0  0  0
 11  6  1  0  0  0  0
 14 20  1  0  0  0  0
 14 19  2  0  0  0  0
 15 14  1  0  0  0  0
 16 15  2  0  0  0  0
 16 17  1  0  0  0  0
 17 18  2  0  0  0  0
 18 19  1  0  0  0  0
 18 23  1  0  0  0  0
 19 24  1  0  0  0  0
 21 15  1  0  0  0  0
 22 17  1  0  0  0  0
 24 25  2  0  0  0  0
 24 27  2  0  0  0  0
 26 24  1  0  0  0  0
 28 29  1  0  0  0  0
 28 16  1  0  0  0  0
 30 28  1  0  0  0  0
 31 28  1  0  0  0  0
M  END
