Coordinates from ORCA-job PhN2+~TsO-_B3LYPG-6-31G_dp-NX-Scan-d89-09-n800
 OpenBabel11261920463D

 31 32  0  0  1  0  0  0  0  0999 V2000
   -5.3580   -1.2890   -1.0078 C   0  0  2  0  0  0  0  0  0  0  0  0
   -6.1700   -0.4339   -1.5777 N   0  0  0  0  0  0  0  0  0  0  0  0
   -6.9084    0.2770   -2.0785 N   0  0  0  0  0  0  0  0  0  0  0  0
   -4.5112   -2.1271   -1.8345 C   0  0  0  0  0  0  0  0  0  0  0  0
   -3.9930   -3.2462   -1.2969 C   0  0  0  0  0  0  0  0  0  0  0  0
   -4.4642   -3.7076    0.0422 C   0  0  1  0  0  0  0  0  0  0  0  0
   -4.8802   -2.5978    0.9518 C   0  0  0  0  0  0  0  0  0  0  0  0
   -5.4041   -1.4737    0.4307 C   0  0  0  0  0  0  0  0  0  0  0  0
   -4.3013   -1.8206   -2.8545 H   0  0  0  0  0  0  0  0  0  0  0  0
   -3.3260   -3.8882   -1.8618 H   0  0  0  0  0  0  0  0  0  0  0  0
   -3.7648   -4.4043    0.5073 H   0  0  0  0  0  0  0  0  0  0  0  0
   -4.8670   -2.7720    2.0219 H   0  0  0  0  0  0  0  0  0  0  0  0
   -5.8434   -0.6957    1.0472 H   0  0  0  0  0  0  0  0  0  0  0  0
   -8.6871   -6.0452    0.3043 C   0  0  0  0  0  0  0  0  0  0  0  0
   -9.8296   -6.5227   -0.3303 C   0  0  0  0  0  0  0  0  0  0  0  0
   -9.7406   -7.3918   -1.4294 C   0  0  0  0  0  0  0  0  0  0  0  0
   -8.4699   -7.7770   -1.8771 C   0  0  0  0  0  0  0  0  0  0  0  0
   -7.3134   -7.3097   -1.2549 C   0  0  0  0  0  0  0  0  0  0  0  0
   -7.4352   -6.4419   -0.1707 C   0  0  0  0  0  0  0  0  0  0  0  0
   -8.7543   -5.3867    1.1634 H   0  0  0  0  0  0  0  0  0  0  0  0
  -10.8076   -6.2210    0.0353 H   0  0  0  0  0  0  0  0  0  0  0  0
   -8.3838   -8.4551   -2.7217 H   0  0  0  0  0  0  0  0  0  0  0  0
   -6.3305   -7.6198   -1.5916 H   0  0  0  0  0  0  0  0  0  0  0  0
   -5.9642   -5.8396    0.6351 S   0  0  0  0  0  0  0  0  0  0  0  0
   -6.2864   -5.4364    2.0071 O   0  0  0  0  0  0  0  0  0  0  0  0
   -5.7262   -4.5065   -0.2798 O   0  0  0  0  0  0  0  0  0  0  0  0
   -4.8578   -6.7728    0.4026 O   0  0  0  0  0  0  0  0  0  0  0  0
  -10.9915   -7.9027   -2.1029 C   0  0  0  0  0  0  0  0  0  0  0  0
  -11.6180   -8.4634   -1.3995 H   0  0  0  0  0  0  0  0  0  0  0  0
  -11.5998   -7.0760   -2.4866 H   0  0  0  0  0  0  0  0  0  0  0  0
  -10.7545   -8.5630   -2.9411 H   0  0  0  0  0  0  0  0  0  0  0  0
  1  2  1  6  0  0  0
  1  8  1  0  0  0  0
  3  2  1  0  0  0  0
  4  5  2  0  0  0  0
  4  1  1  0  0  0  0
  5  6  1  0  0  0  0
  6 11  1  1  0  0  0
  6  7  1  0  0  0  0
  7 12  1  0  0  0  0
  8  7  2  0  0  0  0
  8 13  1  0  0  0  0
  9  4  1  0  0  0  0
 10  5  1  0  0  0  0
 14 20  1  0  0  0  0
 15 21  1  0  0  0  0
 15 14  2  0  0  0  0
 16 15  1  0  0  0  0
 17 16  2  0  0  0  0
 17 18  1  0  0  0  0
 18 19  2  0  0  0  0
 19 14  1  0  0  0  0
 19 24  1  0  0  0  0
 22 17  1  0  0  0  0
 23 18  1  0  0  0  0
 24 25  2  0  0  0  0
 26  6  1  0  0  0  0
 26 24  1  0  0  0  0
 27 24  2  0  0  0  0
 28 16  1  0  0  0  0
 28 29  1  0  0  0  0
 30 28  1  0  0  0  0
 31 28  1  0  0  0  0
M  RAD  3   1   2   2   2   3   3
M  END
