Coordinates from ORCA-job PhN2+~TsO-_B3LYPG-6-31G_dp-NX-Scan-d89-09-n800
 OpenBabel11261920463D

 31 32  0  0  1  0  0  0  0  0999 V2000
   -5.4440   -1.3870   -0.6371 C   0  0  2  0  0  0  0  0  0  0  0  0
   -6.7395   -1.6037   -0.5842 N   0  0  0  0  0  0  0  0  0  0  0  0
   -7.8277   -1.9290   -0.5309 N   0  0  0  0  0  0  0  0  0  0  0  0
   -4.8215   -1.9534   -1.8658 C   0  0  0  0  0  0  0  0  0  0  0  0
   -4.1881   -3.1247   -1.7176 C   0  0  0  0  0  0  0  0  0  0  0  0
   -4.3528   -3.8015   -0.3820 C   0  0  1  0  0  0  0  0  0  0  0  0
   -4.1204   -2.8303    0.7495 C   0  0  0  0  0  0  0  0  0  0  0  0
   -4.7556   -1.6543    0.6560 C   0  0  0  0  0  0  0  0  0  0  0  0
   -4.9042   -1.4296   -2.8140 H   0  0  0  0  0  0  0  0  0  0  0  0
   -3.6366   -3.6126   -2.5151 H   0  0  0  0  0  0  0  0  0  0  0  0
   -3.7849   -4.7253   -0.2840 H   0  0  0  0  0  0  0  0  0  0  0  0
   -3.5274   -3.1252    1.6094 H   0  0  0  0  0  0  0  0  0  0  0  0
   -4.8013   -0.9278    1.4620 H   0  0  0  0  0  0  0  0  0  0  0  0
   -8.8391   -5.4206   -0.2855 C   0  0  0  0  0  0  0  0  0  0  0  0
   -9.8525   -6.0654   -0.9880 C   0  0  0  0  0  0  0  0  0  0  0  0
   -9.6584   -7.3420   -1.5397 C   0  0  0  0  0  0  0  0  0  0  0  0
   -8.4120   -7.9594   -1.3738 C   0  0  0  0  0  0  0  0  0  0  0  0
   -7.3805   -7.3280   -0.6791 C   0  0  0  0  0  0  0  0  0  0  0  0
   -7.6061   -6.0615   -0.1427 C   0  0  0  0  0  0  0  0  0  0  0  0
   -8.9955   -4.4370    0.1419 H   0  0  0  0  0  0  0  0  0  0  0  0
  -10.8128   -5.5706   -1.1087 H   0  0  0  0  0  0  0  0  0  0  0  0
   -8.2448   -8.9486   -1.7906 H   0  0  0  0  0  0  0  0  0  0  0  0
   -6.4174   -7.8077   -0.5436 H   0  0  0  0  0  0  0  0  0  0  0  0
   -6.2986   -5.2586    0.7664 S   0  0  0  0  0  0  0  0  0  0  0  0
   -6.8759   -4.5307    1.8944 O   0  0  0  0  0  0  0  0  0  0  0  0
   -5.8252   -4.1745   -0.3781 O   0  0  0  0  0  0  0  0  0  0  0  0
   -5.2017   -6.2073    0.9861 O   0  0  0  0  0  0  0  0  0  0  0  0
  -10.7795   -8.0373   -2.2732 C   0  0  0  0  0  0  0  0  0  0  0  0
  -11.5280   -8.4223   -1.5699 H   0  0  0  0  0  0  0  0  0  0  0  0
  -11.2977   -7.3514   -2.9512 H   0  0  0  0  0  0  0  0  0  0  0  0
  -10.4120   -8.8835   -2.8594 H   0  0  0  0  0  0  0  0  0  0  0  0
  1  2  1  1  0  0  0
  1  8  1  0  0  0  0
  2  3  1  0  0  0  0
  4  5  2  0  0  0  0
  4  1  1  0  0  0  0
  5  6  1  0  0  0  0
  6 26  1  0  0  0  0
  6 11  1  1  0  0  0
  6  7  1  0  0  0  0
  7 12  1  0  0  0  0
  8  7  2  0  0  0  0
  8 13  1  0  0  0  0
  9  4  1  0  0  0  0
 10  5  1  0  0  0  0
 14 19  1  0  0  0  0
 14 20  1  0  0  0  0
 15 14  2  0  0  0  0
 16 17  2  0  0  0  0
 16 15  1  0  0  0  0
 17 18  1  0  0  0  0
 18 23  1  0  0  0  0
 18 19  2  0  0  0  0
 19 24  1  0  0  0  0
 21 15  1  0  0  0  0
 22 17  1  0  0  0  0
 24 27  2  0  0  0  0
 24 25  2  0  0  0  0
 26 24  1  0  0  0  0
 28 29  1  0  0  0  0
 28 16  1  0  0  0  0
 30 28  1  0  0  0  0
 31 28  1  0  0  0  0
M  RAD  3   1   2   2   2   3   3
M  END
