Coordinates from ORCA-job PhN2+~TsO-_B3LYPG-6-31G_dp-NX-Scan-d89-09-n800
 OpenBabel11261920463D

 31 32  0  0  0  0  0  0  0  0999 V2000
   -4.9777   -2.5643   -0.8960 C   0  0  0  0  0  0  0  0  0  0  0  0
   -6.3904   -2.6435   -1.0001 N   0  0  0  0  0  0  0  0  0  0  0  0
   -7.2020   -3.3050   -0.3621 N   0  0  0  0  0  0  0  0  0  0  0  0
   -4.4291   -1.7102   -1.8712 C   0  0  0  0  0  0  0  0  0  0  0  0
   -3.0581   -1.4878   -1.9340 C   0  0  0  0  0  0  0  0  0  0  0  0
   -2.2137   -2.1138   -1.0145 C   0  0  0  0  0  0  0  0  0  0  0  0
   -2.7496   -2.9594   -0.0403 C   0  0  0  0  0  0  0  0  0  0  0  0
   -4.1216   -3.1957    0.0311 C   0  0  0  0  0  0  0  0  0  0  0  0
   -5.1104   -1.2327   -2.5670 H   0  0  0  0  0  0  0  0  0  0  0  0
   -2.6498   -0.8270   -2.6928 H   0  0  0  0  0  0  0  0  0  0  0  0
   -1.1417   -1.9414   -1.0538 H   0  0  0  0  0  0  0  0  0  0  0  0
   -2.0938   -3.4445    0.6765 H   0  0  0  0  0  0  0  0  0  0  0  0
   -4.5165   -3.8500    0.7926 H   0  0  0  0  0  0  0  0  0  0  0  0
   -9.7794   -5.4433   -0.3121 C   0  0  0  0  0  0  0  0  0  0  0  0
  -10.4225   -6.2587   -1.2397 C   0  0  0  0  0  0  0  0  0  0  0  0
   -9.9687   -7.5601   -1.5023 C   0  0  0  0  0  0  0  0  0  0  0  0
   -8.8434   -8.0312   -0.8100 C   0  0  0  0  0  0  0  0  0  0  0  0
   -8.1843   -7.2331    0.1216 C   0  0  0  0  0  0  0  0  0  0  0  0
   -8.6620   -5.9428    0.3595 C   0  0  0  0  0  0  0  0  0  0  0  0
  -10.1322   -4.4404   -0.1042 H   0  0  0  0  0  0  0  0  0  0  0  0
  -11.2931   -5.8790   -1.7670 H   0  0  0  0  0  0  0  0  0  0  0  0
   -8.4805   -9.0370   -1.0011 H   0  0  0  0  0  0  0  0  0  0  0  0
   -7.3213   -7.6011    0.6656 H   0  0  0  0  0  0  0  0  0  0  0  0
   -7.8273   -4.9196    1.5526 S   0  0  0  0  0  0  0  0  0  0  0  0
   -8.7420   -3.8992    2.0433 O   0  0  0  0  0  0  0  0  0  0  0  0
   -6.6293   -4.1568    0.6346 O   0  0  0  0  0  0  0  0  0  0  0  0
   -7.0292   -5.7513    2.4429 O   0  0  0  0  0  0  0  0  0  0  0  0
  -10.6955   -8.4443   -2.4857 C   0  0  0  0  0  0  0  0  0  0  0  0
  -11.5068   -8.9922   -1.9907 H   0  0  0  0  0  0  0  0  0  0  0  0
  -11.1442   -7.8598   -3.2938 H   0  0  0  0  0  0  0  0  0  0  0  0
  -10.0256   -9.1856   -2.9305 H   0  0  0  0  0  0  0  0  0  0  0  0
  1  8  2  0  0  0  0
  2  1  1  0  0  0  0
  2  3  1  0  0  0  0
  3 26  1  0  0  0  0
  4  1  1  0  0  0  0
  5  4  2  0  0  0  0
  5  6  1  0  0  0  0
  6  7  2  0  0  0  0
  7  8  1  0  0  0  0
  7 12  1  0  0  0  0
  8 13  1  0  0  0  0
  9  4  1  0  0  0  0
 10  5  1  0  0  0  0
 11  6  1  0  0  0  0
 14 20  1  0  0  0  0
 14 19  2  0  0  0  0
 15 14  1  0  0  0  0
 16 15  2  0  0  0  0
 16 17  1  0  0  0  0
 17 18  2  0  0  0  0
 18 19  1  0  0  0  0
 18 23  1  0  0  0  0
 19 24  1  0  0  0  0
 21 15  1  0  0  0  0
 22 17  1  0  0  0  0
 24 25  2  0  0  0  0
 24 27  2  0  0  0  0
 26 24  1  0  0  0  0
 28 29  1  0  0  0  0
 28 16  1  0  0  0  0
 30 28  1  0  0  0  0
 31 28  1  0  0  0  0
M  RAD  2   2   2   3   2
M  END
