Coordinates from ORCA-job PhN2+~TsO-_B3LYPG-6-31G_dp-NX-Scan-d89-09-n800
 OpenBabel11261920463D

 31 32  0  0  1  0  0  0  0  0999 V2000
   -5.4940   -1.4178   -0.6431 C   0  0  2  0  0  0  0  0  0  0  0  0
   -6.8051   -1.4115   -0.6502 N   0  0  0  0  0  0  0  0  0  0  0  0
   -7.9395   -1.5115   -0.6490 N   0  0  0  0  0  0  0  0  0  0  0  0
   -4.8606   -1.9786   -1.8538 C   0  0  0  0  0  0  0  0  0  0  0  0
   -4.1671   -3.1160   -1.6948 C   0  0  0  0  0  0  0  0  0  0  0  0
   -4.3127   -3.8010   -0.3643 C   0  0  1  0  0  0  0  0  0  0  0  0
   -4.1708   -2.8257    0.7740 C   0  0  0  0  0  0  0  0  0  0  0  0
   -4.8642   -1.6827    0.6664 C   0  0  0  0  0  0  0  0  0  0  0  0
   -4.9720   -1.4728   -2.8086 H   0  0  0  0  0  0  0  0  0  0  0  0
   -3.5996   -3.5824   -2.4931 H   0  0  0  0  0  0  0  0  0  0  0  0
   -3.6920   -4.6896   -0.2563 H   0  0  0  0  0  0  0  0  0  0  0  0
   -3.6091   -3.0983    1.6613 H   0  0  0  0  0  0  0  0  0  0  0  0
   -4.9854   -0.9745    1.4808 H   0  0  0  0  0  0  0  0  0  0  0  0
   -8.7511   -5.4317   -0.3126 C   0  0  0  0  0  0  0  0  0  0  0  0
   -9.7918   -6.0447   -1.0031 C   0  0  0  0  0  0  0  0  0  0  0  0
   -9.6538   -7.3400   -1.5281 C   0  0  0  0  0  0  0  0  0  0  0  0
   -8.4357   -8.0077   -1.3493 C   0  0  0  0  0  0  0  0  0  0  0  0
   -7.3770   -7.4079   -0.6668 C   0  0  0  0  0  0  0  0  0  0  0  0
   -7.5472   -6.1231   -0.1553 C   0  0  0  0  0  0  0  0  0  0  0  0
   -8.8655   -4.4328    0.0937 H   0  0  0  0  0  0  0  0  0  0  0  0
  -10.7293   -5.5106   -1.1353 H   0  0  0  0  0  0  0  0  0  0  0  0
   -8.3118   -9.0108   -1.7475 H   0  0  0  0  0  0  0  0  0  0  0  0
   -6.4341   -7.9244   -0.5237 H   0  0  0  0  0  0  0  0  0  0  0  0
   -6.2075   -5.3591    0.7403 S   0  0  0  0  0  0  0  0  0  0  0  0
   -6.7492   -4.6499    1.8986 O   0  0  0  0  0  0  0  0  0  0  0  0
   -5.7579   -4.2670   -0.3998 O   0  0  0  0  0  0  0  0  0  0  0  0
   -5.1170   -6.3241    0.9169 O   0  0  0  0  0  0  0  0  0  0  0  0
  -10.8047   -7.9998   -2.2486 C   0  0  0  0  0  0  0  0  0  0  0  0
  -11.5760   -8.3241   -1.5396 H   0  0  0  0  0  0  0  0  0  0  0  0
  -11.2830   -7.3097   -2.9513 H   0  0  0  0  0  0  0  0  0  0  0  0
  -10.4770   -8.8809   -2.8063 H   0  0  0  0  0  0  0  0  0  0  0  0
  1  2  1  1  0  0  0
  1  8  1  0  0  0  0
  2  3  1  0  0  0  0
  4  5  2  0  0  0  0
  4  1  1  0  0  0  0
  5  6  1  0  0  0  0
  6 11  1  1  0  0  0
  6  7  1  0  0  0  0
  7 12  1  0  0  0  0
  8  7  2  0  0  0  0
  8 13  1  0  0  0  0
  9  4  1  0  0  0  0
 10  5  1  0  0  0  0
 14 19  1  0  0  0  0
 14 20  1  0  0  0  0
 15 14  2  0  0  0  0
 16 17  2  0  0  0  0
 16 15  1  0  0  0  0
 17 18  1  0  0  0  0
 18 23  1  0  0  0  0
 18 19  2  0  0  0  0
 19 24  1  0  0  0  0
 21 15  1  0  0  0  0
 22 17  1  0  0  0  0
 24 27  2  0  0  0  0
 24 25  2  0  0  0  0
 26  6  1  0  0  0  0
 26 24  1  0  0  0  0
 28 29  1  0  0  0  0
 28 16  1  0  0  0  0
 30 28  1  0  0  0  0
 31 28  1  0  0  0  0
M  RAD  3   1   2   2   2   3   3
M  END
