Coordinates from ORCA-job PhN2+~TsO-_B3LYPG-6-31G_dp-NX-Scan-d89-09-n800
 OpenBabel11261920463D

 31 32  0  0  1  0  0  0  0  0999 V2000
   -5.3518   -1.3603   -0.7078 C   0  0  2  0  0  0  0  0  0  0  0  0
   -6.5278   -0.7967   -0.8170 N   0  0  0  0  0  0  0  0  0  0  0  0
   -7.5855   -0.3833   -0.9073 N   0  0  0  0  0  0  0  0  0  0  0  0
   -4.8026   -2.0441   -1.8745 C   0  0  0  0  0  0  0  0  0  0  0  0
   -4.1948   -3.2248   -1.6661 C   0  0  0  0  0  0  0  0  0  0  0  0
   -4.3614   -3.8463   -0.3137 C   0  0  1  0  0  0  0  0  0  0  0  0
   -4.2275   -2.8449    0.7947 C   0  0  0  0  0  0  0  0  0  0  0  0
   -4.8367   -1.6590    0.6253 C   0  0  0  0  0  0  0  0  0  0  0  0
   -4.8894   -1.5841   -2.8544 H   0  0  0  0  0  0  0  0  0  0  0  0
   -3.7001   -3.7738   -2.4596 H   0  0  0  0  0  0  0  0  0  0  0  0
   -3.7573   -4.7404   -0.1657 H   0  0  0  0  0  0  0  0  0  0  0  0
   -3.7586   -3.1305    1.7297 H   0  0  0  0  0  0  0  0  0  0  0  0
   -4.9544   -0.9302    1.4214 H   0  0  0  0  0  0  0  0  0  0  0  0
   -8.8772   -5.6269   -0.0795 C   0  0  0  0  0  0  0  0  0  0  0  0
   -9.9009   -6.2518   -0.7849 C   0  0  0  0  0  0  0  0  0  0  0  0
   -9.6657   -7.4246   -1.5206 C   0  0  0  0  0  0  0  0  0  0  0  0
   -8.3708   -7.9597   -1.5307 C   0  0  0  0  0  0  0  0  0  0  0  0
   -7.3306   -7.3454   -0.8342 C   0  0  0  0  0  0  0  0  0  0  0  0
   -7.5949   -6.1796   -0.1171 C   0  0  0  0  0  0  0  0  0  0  0  0
   -9.0632   -4.7314    0.5029 H   0  0  0  0  0  0  0  0  0  0  0  0
  -10.9011   -5.8269   -0.7606 H   0  0  0  0  0  0  0  0  0  0  0  0
   -8.1745   -8.8727   -2.0857 H   0  0  0  0  0  0  0  0  0  0  0  0
   -6.3313   -7.7669   -0.8305 H   0  0  0  0  0  0  0  0  0  0  0  0
   -6.2751   -5.3892    0.7871 S   0  0  0  0  0  0  0  0  0  0  0  0
   -6.8470   -4.6858    1.9351 O   0  0  0  0  0  0  0  0  0  0  0  0
   -5.8170   -4.3005   -0.3473 O   0  0  0  0  0  0  0  0  0  0  0  0
   -5.1771   -6.3422    0.9853 O   0  0  0  0  0  0  0  0  0  0  0  0
  -10.7915   -8.0932   -2.2720 C   0  0  0  0  0  0  0  0  0  0  0  0
  -11.5867   -8.4129   -1.5890 H   0  0  0  0  0  0  0  0  0  0  0  0
  -11.2464   -7.4078   -2.9961 H   0  0  0  0  0  0  0  0  0  0  0  0
  -10.4428   -8.9747   -2.8159 H   0  0  0  0  0  0  0  0  0  0  0  0
  1  2  1  1  0  0  0
  1  8  1  0  0  0  0
  3  2  1  0  0  0  0
  4  5  2  0  0  0  0
  4  1  1  0  0  0  0
  5  6  1  0  0  0  0
  6 11  1  1  0  0  0
  6  7  1  0  0  0  0
  7 12  1  0  0  0  0
  8  7  2  0  0  0  0
  8 13  1  0  0  0  0
  9  4  1  0  0  0  0
 10  5  1  0  0  0  0
 14 20  1  0  0  0  0
 15 21  1  0  0  0  0
 15 14  2  0  0  0  0
 16 15  1  0  0  0  0
 17 16  2  0  0  0  0
 17 18  1  0  0  0  0
 18 23  1  0  0  0  0
 18 19  2  0  0  0  0
 19 14  1  0  0  0  0
 19 24  1  0  0  0  0
 22 17  1  0  0  0  0
 24 27  2  0  0  0  0
 24 25  2  0  0  0  0
 26  6  1  0  0  0  0
 26 24  1  0  0  0  0
 28 29  1  0  0  0  0
 28 16  1  0  0  0  0
 30 28  1  0  0  0  0
 31 28  1  0  0  0  0
M  RAD  3   1   2   2   2   3   3
M  END
