Coordinates from ORCA-job PhN2+~TsO-_B3LYPG-6-31G_dp-NX-Scan-d89-09-n800
 OpenBabel11261920463D

 31 32  0  0  1  0  0  0  0  0999 V2000
   -5.3502   -1.3556   -0.7155 C   0  0  2  0  0  0  0  0  0  0  0  0
   -6.5087   -0.7596   -0.8377 N   0  0  0  0  0  0  0  0  0  0  0  0
   -7.5527   -0.3148   -0.9397 N   0  0  0  0  0  0  0  0  0  0  0  0
   -4.8007   -2.0482   -1.8756 C   0  0  0  0  0  0  0  0  0  0  0  0
   -4.1960   -3.2293   -1.6594 C   0  0  0  0  0  0  0  0  0  0  0  0
   -4.3647   -3.8446   -0.3048 C   0  0  1  0  0  0  0  0  0  0  0  0
   -4.2410   -2.8386    0.8001 C   0  0  0  0  0  0  0  0  0  0  0  0
   -4.8471   -1.6523    0.6217 C   0  0  0  0  0  0  0  0  0  0  0  0
   -4.8836   -1.5937   -2.8584 H   0  0  0  0  0  0  0  0  0  0  0  0
   -3.7030   -3.7839   -2.4501 H   0  0  0  0  0  0  0  0  0  0  0  0
   -3.7563   -4.7349   -0.1508 H   0  0  0  0  0  0  0  0  0  0  0  0
   -3.7822   -3.1212    1.7410 H   0  0  0  0  0  0  0  0  0  0  0  0
   -4.9697   -0.9209    1.4147 H   0  0  0  0  0  0  0  0  0  0  0  0
   -8.8765   -5.6417   -0.0655 C   0  0  0  0  0  0  0  0  0  0  0  0
   -9.9022   -6.2633   -0.7708 C   0  0  0  0  0  0  0  0  0  0  0  0
   -9.6673   -7.4280   -1.5194 C   0  0  0  0  0  0  0  0  0  0  0  0
   -8.3708   -7.9584   -1.5423 C   0  0  0  0  0  0  0  0  0  0  0  0
   -7.3285   -7.3474   -0.8459 C   0  0  0  0  0  0  0  0  0  0  0  0
   -7.5926   -6.1895   -0.1161 C   0  0  0  0  0  0  0  0  0  0  0  0
   -9.0621   -4.7527    0.5270 H   0  0  0  0  0  0  0  0  0  0  0  0
  -10.9039   -5.8423   -0.7362 H   0  0  0  0  0  0  0  0  0  0  0  0
   -8.1747   -8.8654   -2.1073 H   0  0  0  0  0  0  0  0  0  0  0  0
   -6.3278   -7.7655   -0.8521 H   0  0  0  0  0  0  0  0  0  0  0  0
   -6.2701   -5.4033    0.7879 S   0  0  0  0  0  0  0  0  0  0  0  0
   -6.8381   -4.7080    1.9429 O   0  0  0  0  0  0  0  0  0  0  0  0
   -5.8177   -4.3076   -0.3417 O   0  0  0  0  0  0  0  0  0  0  0  0
   -5.1704   -6.3563    0.9762 O   0  0  0  0  0  0  0  0  0  0  0  0
  -10.7951   -8.0928   -2.2713 C   0  0  0  0  0  0  0  0  0  0  0  0
  -11.5897   -8.4139   -1.5883 H   0  0  0  0  0  0  0  0  0  0  0  0
  -11.2503   -7.4043   -2.9923 H   0  0  0  0  0  0  0  0  0  0  0  0
  -10.4482   -8.9726   -2.8189 H   0  0  0  0  0  0  0  0  0  0  0  0
  1  2  1  1  0  0  0
  1  8  1  0  0  0  0
  3  2  1  0  0  0  0
  4  5  2  0  0  0  0
  4  1  1  0  0  0  0
  5  6  1  0  0  0  0
  6 11  1  1  0  0  0
  6  7  1  0  0  0  0
  7 12  1  0  0  0  0
  8  7  2  0  0  0  0
  8 13  1  0  0  0  0
  9  4  1  0  0  0  0
 10  5  1  0  0  0  0
 14 20  1  0  0  0  0
 15 21  1  0  0  0  0
 15 14  2  0  0  0  0
 16 15  1  0  0  0  0
 17 16  2  0  0  0  0
 17 18  1  0  0  0  0
 18 19  2  0  0  0  0
 19 14  1  0  0  0  0
 19 24  1  0  0  0  0
 22 17  1  0  0  0  0
 23 18  1  0  0  0  0
 24 27  2  0  0  0  0
 24 25  2  0  0  0  0
 26  6  1  0  0  0  0
 26 24  1  0  0  0  0
 28 29  1  0  0  0  0
 28 16  1  0  0  0  0
 30 28  1  0  0  0  0
 31 28  1  0  0  0  0
M  RAD  3   1   2   2   2   3   3
M  END
