Coordinates from ORCA-job PhN2+~TsO-_B3LYPG-6-31G_dp-NX-Scan-d89-09-n800
 OpenBabel11261920463D

 31 31  0  0  0  0  0  0  0  0999 V2000
   -3.9763   -0.3894   -0.3374 C   0  0  0  0  0  0  0  0  0  0  0  0
   -3.7260    0.9161   -0.0779 N   0  0  0  0  0  0  0  0  0  0  0  0
   -3.5131    1.9972    0.1519 N   0  0  0  0  0  0  0  0  0  0  0  0
   -3.3365   -0.9858   -1.4546 C   0  0  0  0  0  0  0  0  0  0  0  0
   -3.5820   -2.3247   -1.6839 C   0  0  0  0  0  0  0  0  0  0  0  0
   -4.4382   -3.0567   -0.8381 C   0  0  0  0  0  0  0  0  0  0  0  0
   -5.0803   -2.4353    0.2558 C   0  0  0  0  0  0  0  0  0  0  0  0
   -4.8578   -1.1008    0.5234 C   0  0  0  0  0  0  0  0  0  0  0  0
   -2.6787   -0.3987   -2.0861 H   0  0  0  0  0  0  0  0  0  0  0  0
   -3.1064   -2.8176   -2.5249 H   0  0  0  0  0  0  0  0  0  0  0  0
   -4.6036   -4.1217   -0.9951 H   0  0  0  0  0  0  0  0  0  0  0  0
   -5.7740   -3.0272    0.8570 H   0  0  0  0  0  0  0  0  0  0  0  0
   -5.3321   -0.5932    1.3560 H   0  0  0  0  0  0  0  0  0  0  0  0
   -9.4499   -6.2731   -0.1789 C   0  0  0  0  0  0  0  0  0  0  0  0
  -10.4221   -7.2446   -0.4018 C   0  0  0  0  0  0  0  0  0  0  0  0
  -10.1072   -8.4518   -1.0450 C   0  0  0  0  0  0  0  0  0  0  0  0
   -8.7852   -8.6576   -1.4596 C   0  0  0  0  0  0  0  0  0  0  0  0
   -7.8025   -7.6907   -1.2441 C   0  0  0  0  0  0  0  0  0  0  0  0
   -8.1374   -6.4985   -0.6030 C   0  0  0  0  0  0  0  0  0  0  0  0
   -9.6924   -5.3483    0.3333 H   0  0  0  0  0  0  0  0  0  0  0  0
  -11.4420   -7.0684   -0.0675 H   0  0  0  0  0  0  0  0  0  0  0  0
   -8.5203   -9.5892   -1.9543 H   0  0  0  0  0  0  0  0  0  0  0  0
   -6.7756   -7.8523   -1.5528 H   0  0  0  0  0  0  0  0  0  0  0  0
   -6.8886   -5.2264   -0.3689 S   0  0  0  0  0  0  0  0  0  0  0  0
   -7.1891   -4.6067    0.9574 O   0  0  0  0  0  0  0  0  0  0  0  0
   -7.0539   -4.2604   -1.5041 O   0  0  0  0  0  0  0  0  0  0  0  0
   -5.5697   -5.9243   -0.4255 O   0  0  0  0  0  0  0  0  0  0  0  0
  -11.1646   -9.5101   -1.2569 C   0  0  0  0  0  0  0  0  0  0  0  0
  -11.3886  -10.0419   -0.3235 H   0  0  0  0  0  0  0  0  0  0  0  0
  -12.1046   -9.0729   -1.6095 H   0  0  0  0  0  0  0  0  0  0  0  0
  -10.8429  -10.2557   -1.9900 H   0  0  0  0  0  0  0  0  0  0  0  0
  1  2  1  0  0  0  0
  1  8  2  0  0  0  0
  2  3  1  0  0  0  0
  4  1  1  0  0  0  0
  5  4  2  0  0  0  0
  5  6  1  0  0  0  0
  6  7  2  0  0  0  0
  7  8  1  0  0  0  0
  7 12  1  0  0  0  0
  8 13  1  0  0  0  0
  9  4  1  0  0  0  0
 10  5  1  0  0  0  0
 11  6  1  0  0  0  0
 14 20  1  0  0  0  0
 15 14  1  0  0  0  0
 15 21  1  0  0  0  0
 16 15  2  0  0  0  0
 17 18  2  0  0  0  0
 17 16  1  0  0  0  0
 18 19  1  0  0  0  0
 19 24  1  0  0  0  0
 19 14  2  0  0  0  0
 22 17  1  0  0  0  0
 23 18  1  0  0  0  0
 24 25  1  0  0  0  0
 26 24  2  0  0  0  0
 27 24  2  0  0  0  0
 28 16  1  0  0  0  0
 28 29  1  0  0  0  0
 30 28  1  0  0  0  0
 31 28  1  0  0  0  0
M  RAD  3   2   2   3   3  25   2
M  END
