Coordinates from ORCA-job PhN2+~TsO-_B3LYPG-6-31G_dp-NX-Scan-d89-09-n800
 OpenBabel11261920463D

 31 32  0  0  1  0  0  0  0  0999 V2000
   -5.3996   -1.3650   -0.6546 C   0  0  2  0  0  0  0  0  0  0  0  0
   -6.6773   -1.6764   -0.5686 N   0  0  0  0  0  0  0  0  0  0  0  0
   -7.7172   -2.1245   -0.4850 N   0  0  0  0  0  0  0  0  0  0  0  0
   -4.7899   -1.9591   -1.8843 C   0  0  0  0  0  0  0  0  0  0  0  0
   -4.2067   -3.1541   -1.7247 C   0  0  0  0  0  0  0  0  0  0  0  0
   -4.3861   -3.8046   -0.3764 C   0  0  1  0  0  0  0  0  0  0  0  0
   -4.0960   -2.8253    0.7362 C   0  0  0  0  0  0  0  0  0  0  0  0
   -4.6841   -1.6262    0.6323 C   0  0  0  0  0  0  0  0  0  0  0  0
   -4.8488   -1.4393   -2.8363 H   0  0  0  0  0  0  0  0  0  0  0  0
   -3.6731   -3.6726   -2.5154 H   0  0  0  0  0  0  0  0  0  0  0  0
   -3.8562   -4.7497   -0.2710 H   0  0  0  0  0  0  0  0  0  0  0  0
   -3.4938   -3.1293    1.5870 H   0  0  0  0  0  0  0  0  0  0  0  0
   -4.6796   -0.8809    1.4222 H   0  0  0  0  0  0  0  0  0  0  0  0
   -8.9094   -5.4352   -0.2325 C   0  0  0  0  0  0  0  0  0  0  0  0
   -9.9027   -6.0979   -0.9473 C   0  0  0  0  0  0  0  0  0  0  0  0
   -9.6603   -7.3432   -1.5484 C   0  0  0  0  0  0  0  0  0  0  0  0
   -8.3863   -7.9115   -1.4185 C   0  0  0  0  0  0  0  0  0  0  0  0
   -7.3752   -7.2618   -0.7115 C   0  0  0  0  0  0  0  0  0  0  0  0
   -7.6481   -6.0258   -0.1270 C   0  0  0  0  0  0  0  0  0  0  0  0
   -9.1019   -4.4770    0.2350 H   0  0  0  0  0  0  0  0  0  0  0  0
  -10.8854   -5.6421   -1.0383 H   0  0  0  0  0  0  0  0  0  0  0  0
   -8.1819   -8.8772   -1.8723 H   0  0  0  0  0  0  0  0  0  0  0  0
   -6.3920   -7.7061   -0.6015 H   0  0  0  0  0  0  0  0  0  0  0  0
   -6.3644   -5.2000    0.7960 S   0  0  0  0  0  0  0  0  0  0  0  0
   -6.9686   -4.4702    1.9079 O   0  0  0  0  0  0  0  0  0  0  0  0
   -5.8767   -4.1114   -0.3409 O   0  0  0  0  0  0  0  0  0  0  0  0
   -5.2634   -6.1382    1.0394 O   0  0  0  0  0  0  0  0  0  0  0  0
  -10.7590   -8.0602   -2.2948 C   0  0  0  0  0  0  0  0  0  0  0  0
  -11.4723   -8.5173   -1.5980 H   0  0  0  0  0  0  0  0  0  0  0  0
  -11.3252   -7.3709   -2.9293 H   0  0  0  0  0  0  0  0  0  0  0  0
  -10.3607   -8.8575   -2.9279 H   0  0  0  0  0  0  0  0  0  0  0  0
  1  2  1  1  0  0  0
  1  8  1  0  0  0  0
  2  3  1  0  0  0  0
  4  5  2  0  0  0  0
  4  1  1  0  0  0  0
  5  6  1  0  0  0  0
  6 26  1  0  0  0  0
  6 11  1  1  0  0  0
  6  7  1  0  0  0  0
  7 12  1  0  0  0  0
  8  7  2  0  0  0  0
  8 13  1  0  0  0  0
  9  4  1  0  0  0  0
 10  5  1  0  0  0  0
 14 19  1  0  0  0  0
 14 20  1  0  0  0  0
 15 14  2  0  0  0  0
 16 17  2  0  0  0  0
 16 15  1  0  0  0  0
 17 18  1  0  0  0  0
 18 23  1  0  0  0  0
 18 19  2  0  0  0  0
 19 24  1  0  0  0  0
 21 15  1  0  0  0  0
 22 17  1  0  0  0  0
 24 27  2  0  0  0  0
 24 25  2  0  0  0  0
 26 24  1  0  0  0  0
 28 29  1  0  0  0  0
 28 16  1  0  0  0  0
 30 28  1  0  0  0  0
 31 28  1  0  0  0  0
M  RAD  3   1   2   2   2   3   3
M  END
