Coordinates from ORCA-job PhN2+~TsO-_B3LYPG-6-31G_dp-NX-Scan-d89-09-n800
 OpenBabel11261920463D

 31 32  0  0  1  0  0  0  0  0999 V2000
   -5.3611   -1.3429   -0.7562 C   0  0  2  0  0  0  0  0  0  0  0  0
   -6.4606   -0.6587   -0.9439 N   0  0  0  0  0  0  0  0  0  0  0  0
   -7.4559   -0.1269   -1.1037 N   0  0  0  0  0  0  0  0  0  0  0  0
   -4.7870   -2.0696   -1.8795 C   0  0  0  0  0  0  0  0  0  0  0  0
   -4.1853   -3.2435   -1.6189 C   0  0  0  0  0  0  0  0  0  0  0  0
   -4.3717   -3.8287   -0.2546 C   0  0  1  0  0  0  0  0  0  0  0  0
   -4.3126   -2.7975    0.8305 C   0  0  0  0  0  0  0  0  0  0  0  0
   -4.9164   -1.6179    0.6032 C   0  0  0  0  0  0  0  0  0  0  0  0
   -4.8469   -1.6430   -2.8764 H   0  0  0  0  0  0  0  0  0  0  0  0
   -3.6819   -3.8185   -2.3881 H   0  0  0  0  0  0  0  0  0  0  0  0
   -3.7392   -4.6953   -0.0648 H   0  0  0  0  0  0  0  0  0  0  0  0
   -3.9018   -3.0577    1.7995 H   0  0  0  0  0  0  0  0  0  0  0  0
   -5.0744   -0.8734    1.3774 H   0  0  0  0  0  0  0  0  0  0  0  0
   -8.8548   -5.6971   -0.0093 C   0  0  0  0  0  0  0  0  0  0  0  0
   -9.8960   -6.2955   -0.7121 C   0  0  0  0  0  0  0  0  0  0  0  0
   -9.6755   -7.4276   -1.5133 C   0  0  0  0  0  0  0  0  0  0  0  0
   -8.3776   -7.9494   -1.5918 C   0  0  0  0  0  0  0  0  0  0  0  0
   -7.3201   -7.3611   -0.8989 C   0  0  0  0  0  0  0  0  0  0  0  0
   -7.5701   -6.2350   -0.1161 C   0  0  0  0  0  0  0  0  0  0  0  0
   -9.0286   -4.8340    0.6239 H   0  0  0  0  0  0  0  0  0  0  0  0
  -10.8984   -5.8825   -0.6337 H   0  0  0  0  0  0  0  0  0  0  0  0
   -8.1925   -8.8317   -2.1981 H   0  0  0  0  0  0  0  0  0  0  0  0
   -6.3178   -7.7725   -0.9483 H   0  0  0  0  0  0  0  0  0  0  0  0
   -6.2279   -5.4792    0.7842 S   0  0  0  0  0  0  0  0  0  0  0  0
   -6.7668   -4.8305    1.9800 O   0  0  0  0  0  0  0  0  0  0  0  0
   -5.8075   -4.3427   -0.3159 O   0  0  0  0  0  0  0  0  0  0  0  0
   -5.1212   -6.4347    0.9100 O   0  0  0  0  0  0  0  0  0  0  0  0
  -10.8193   -8.0676   -2.2625 C   0  0  0  0  0  0  0  0  0  0  0  0
  -11.5996   -8.4112   -1.5740 H   0  0  0  0  0  0  0  0  0  0  0  0
  -11.2892   -7.3558   -2.9509 H   0  0  0  0  0  0  0  0  0  0  0  0
  -10.4843   -8.9287   -2.8463 H   0  0  0  0  0  0  0  0  0  0  0  0
  1  2  1  1  0  0  0
  1  8  1  0  0  0  0
  3  2  1  0  0  0  0
  4  5  2  0  0  0  0
  4  1  1  0  0  0  0
  5  6  1  0  0  0  0
  6 11  1  1  0  0  0
  6  7  1  0  0  0  0
  7 12  1  0  0  0  0
  8  7  2  0  0  0  0
  8 13  1  0  0  0  0
  9  4  1  0  0  0  0
 10  5  1  0  0  0  0
 14 20  1  0  0  0  0
 15 21  1  0  0  0  0
 15 14  2  0  0  0  0
 16 15  1  0  0  0  0
 17 16  2  0  0  0  0
 17 18  1  0  0  0  0
 18 19  2  0  0  0  0
 19 14  1  0  0  0  0
 19 24  1  0  0  0  0
 22 17  1  0  0  0  0
 23 18  1  0  0  0  0
 24 27  2  0  0  0  0
 24 25  2  0  0  0  0
 26  6  1  0  0  0  0
 26 24  1  0  0  0  0
 28 29  1  0  0  0  0
 28 16  1  0  0  0  0
 30 28  1  0  0  0  0
 31 28  1  0  0  0  0
M  RAD  3   1   2   2   2   3   3
M  END
