Coordinates from ORCA-job PhN2+~TsO-_B3LYPG-6-31G_dp-NX-Scan-d89-09-n800
 OpenBabel11261920463D

 31 32  0  0  1  0  0  0  0  0999 V2000
   -5.3168   -1.2360   -1.0163 C   0  0  2  0  0  0  0  0  0  0  0  0
   -6.0434   -0.3137   -1.5973 N   0  0  0  0  0  0  0  0  0  0  0  0
   -6.7051    0.4622   -2.1092 N   0  0  0  0  0  0  0  0  0  0  0  0
   -4.4821   -2.1014   -1.8255 C   0  0  0  0  0  0  0  0  0  0  0  0
   -4.0112   -3.2390   -1.2829 C   0  0  0  0  0  0  0  0  0  0  0  0
   -4.5053   -3.6931    0.0501 C   0  0  1  0  0  0  0  0  0  0  0  0
   -4.9513   -2.5832    0.9444 C   0  0  0  0  0  0  0  0  0  0  0  0
   -5.4272   -1.4416    0.4151 C   0  0  0  0  0  0  0  0  0  0  0  0
   -4.2401   -1.8000   -2.8397 H   0  0  0  0  0  0  0  0  0  0  0  0
   -3.3583   -3.9005   -1.8418 H   0  0  0  0  0  0  0  0  0  0  0  0
   -3.8047   -4.3756    0.5350 H   0  0  0  0  0  0  0  0  0  0  0  0
   -4.9946   -2.7698    2.0116 H   0  0  0  0  0  0  0  0  0  0  0  0
   -5.8746   -0.6623    1.0241 H   0  0  0  0  0  0  0  0  0  0  0  0
   -8.6804   -6.0882    0.3171 C   0  0  0  0  0  0  0  0  0  0  0  0
   -9.8291   -6.5665   -0.3055 C   0  0  0  0  0  0  0  0  0  0  0  0
   -9.7508   -7.4229   -1.4155 C   0  0  0  0  0  0  0  0  0  0  0  0
   -8.4845   -7.7949   -1.8861 C   0  0  0  0  0  0  0  0  0  0  0  0
   -7.3219   -7.3264   -1.2762 C   0  0  0  0  0  0  0  0  0  0  0  0
   -7.4332   -6.4712   -0.1809 C   0  0  0  0  0  0  0  0  0  0  0  0
   -8.7393   -5.4397    1.1843 H   0  0  0  0  0  0  0  0  0  0  0  0
  -10.8035   -6.2756    0.0779 H   0  0  0  0  0  0  0  0  0  0  0  0
   -8.4066   -8.4632   -2.7392 H   0  0  0  0  0  0  0  0  0  0  0  0
   -6.3420   -7.6261   -1.6307 H   0  0  0  0  0  0  0  0  0  0  0  0
   -5.9543   -5.8673    0.6087 S   0  0  0  0  0  0  0  0  0  0  0  0
   -6.2541   -5.4923    1.9938 O   0  0  0  0  0  0  0  0  0  0  0  0
   -5.7492   -4.5135   -0.2835 O   0  0  0  0  0  0  0  0  0  0  0  0
   -4.8422   -6.7832    0.3380 O   0  0  0  0  0  0  0  0  0  0  0  0
  -11.0082   -7.9332   -2.0771 C   0  0  0  0  0  0  0  0  0  0  0  0
  -11.6317   -8.4880   -1.3665 H   0  0  0  0  0  0  0  0  0  0  0  0
  -11.6165   -7.1062   -2.4608 H   0  0  0  0  0  0  0  0  0  0  0  0
  -10.7796   -8.5982   -2.9139 H   0  0  0  0  0  0  0  0  0  0  0  0
  1  2  1  6  0  0  0
  1  8  1  0  0  0  0
  3  2  1  0  0  0  0
  4  5  2  0  0  0  0
  4  1  1  0  0  0  0
  5  6  1  0  0  0  0
  6 11  1  1  0  0  0
  6  7  1  0  0  0  0
  7 12  1  0  0  0  0
  8  7  2  0  0  0  0
  8 13  1  0  0  0  0
  9  4  1  0  0  0  0
 10  5  1  0  0  0  0
 14 20  1  0  0  0  0
 15 21  1  0  0  0  0
 15 14  2  0  0  0  0
 16 15  1  0  0  0  0
 17 16  2  0  0  0  0
 17 18  1  0  0  0  0
 18 19  2  0  0  0  0
 19 14  1  0  0  0  0
 19 24  1  0  0  0  0
 22 17  1  0  0  0  0
 23 18  1  0  0  0  0
 24 25  2  0  0  0  0
 26  6  1  0  0  0  0
 26 24  1  0  0  0  0
 27 24  2  0  0  0  0
 28 16  1  0  0  0  0
 28 29  1  0  0  0  0
 30 28  1  0  0  0  0
 31 28  1  0  0  0  0
M  RAD  3   1   2   2   2   3   3
M  END
