Coordinates from ORCA-job PhN2+~TsO-_B3LYPG-6-31G_dp-NX-Scan-d89-09-n800
 OpenBabel11261920463D

 31 32  0  0  1  0  0  0  0  0999 V2000
   -5.3531   -1.3527   -0.7872 C   0  0  2  0  0  0  0  0  0  0  0  0
   -6.6110   -1.7441   -0.5728 N   0  0  0  0  0  0  0  0  0  0  0  0
   -7.4818   -2.4316   -0.3375 N   0  0  0  0  0  0  0  0  0  0  0  0
   -4.8309   -2.1111   -1.9694 C   0  0  0  0  0  0  0  0  0  0  0  0
   -4.3061   -3.3159   -1.6998 C   0  0  0  0  0  0  0  0  0  0  0  0
   -4.4420   -3.7989   -0.2825 C   0  0  1  0  0  0  0  0  0  0  0  0
   -4.0437   -2.7251    0.6934 C   0  0  0  0  0  0  0  0  0  0  0  0
   -4.5752   -1.5104    0.4836 C   0  0  0  0  0  0  0  0  0  0  0  0
   -4.9207   -1.7057   -2.9733 H   0  0  0  0  0  0  0  0  0  0  0  0
   -3.8427   -3.9499   -2.4499 H   0  0  0  0  0  0  0  0  0  0  0  0
   -3.9776   -4.7640   -0.0934 H   0  0  0  0  0  0  0  0  0  0  0  0
   -3.4101   -2.9666    1.5419 H   0  0  0  0  0  0  0  0  0  0  0  0
   -4.4929   -0.6886    1.1891 H   0  0  0  0  0  0  0  0  0  0  0  0
   -8.9934   -5.4840   -0.0945 C   0  0  0  0  0  0  0  0  0  0  0  0
   -9.9519   -6.1352   -0.8673 C   0  0  0  0  0  0  0  0  0  0  0  0
   -9.6375   -7.2940   -1.5927 C   0  0  0  0  0  0  0  0  0  0  0  0
   -8.3272   -7.7888   -1.5272 C   0  0  0  0  0  0  0  0  0  0  0  0
   -7.3524   -7.1499   -0.7638 C   0  0  0  0  0  0  0  0  0  0  0  0
   -7.6958   -5.9971   -0.0564 C   0  0  0  0  0  0  0  0  0  0  0  0
   -9.2419   -4.5941    0.4716 H   0  0  0  0  0  0  0  0  0  0  0  0
  -10.9628   -5.7382   -0.9055 H   0  0  0  0  0  0  0  0  0  0  0  0
   -8.0670   -8.6896   -2.0764 H   0  0  0  0  0  0  0  0  0  0  0  0
   -6.3431   -7.5415   -0.7014 H   0  0  0  0  0  0  0  0  0  0  0  0
   -6.4524   -5.1801    0.9310 S   0  0  0  0  0  0  0  0  0  0  0  0
   -7.1003   -4.5406    2.0730 O   0  0  0  0  0  0  0  0  0  0  0  0
   -5.9825   -3.9855   -0.1069 O   0  0  0  0  0  0  0  0  0  0  0  0
   -5.3300   -6.1030    1.1337 O   0  0  0  0  0  0  0  0  0  0  0  0
  -10.6938   -8.0113   -2.3978 C   0  0  0  0  0  0  0  0  0  0  0  0
  -11.2137   -8.7572   -1.7838 H   0  0  0  0  0  0  0  0  0  0  0  0
  -11.4499   -7.3170   -2.7754 H   0  0  0  0  0  0  0  0  0  0  0  0
  -10.2582   -8.5387   -3.2511 H   0  0  0  0  0  0  0  0  0  0  0  0
  1  2  1  1  0  0  0
  1  8  1  0  0  0  0
  2  3  1  0  0  0  0
  4  5  2  0  0  0  0
  4  1  1  0  0  0  0
  5  6  1  0  0  0  0
  6 26  1  0  0  0  0
  6 11  1  1  0  0  0
  6  7  1  0  0  0  0
  7 12  1  0  0  0  0
  8  7  2  0  0  0  0
  8 13  1  0  0  0  0
  9  4  1  0  0  0  0
 10  5  1  0  0  0  0
 14 19  1  0  0  0  0
 14 20  1  0  0  0  0
 15 14  2  0  0  0  0
 16 17  2  0  0  0  0
 16 15  1  0  0  0  0
 17 18  1  0  0  0  0
 18 23  1  0  0  0  0
 18 19  2  0  0  0  0
 19 24  1  0  0  0  0
 21 15  1  0  0  0  0
 22 17  1  0  0  0  0
 24 27  2  0  0  0  0
 24 25  2  0  0  0  0
 26 24  1  0  0  0  0
 28 29  1  0  0  0  0
 28 16  1  0  0  0  0
 30 28  1  0  0  0  0
 31 28  1  0  0  0  0
M  RAD  3   1   2   2   2   3   3
M  END
