Coordinates from ORCA-job PhN2+~TsO-_B3LYPG-6-31G_dp-NX-Scan-d89-09-n800
 OpenBabel11261920463D

 31 32  0  0  1  0  0  0  0  0999 V2000
   -5.4582   -1.3943   -0.6303 C   0  0  2  0  0  0  0  0  0  0  0  0
   -6.7595   -1.5691   -0.5864 N   0  0  0  0  0  0  0  0  0  0  0  0
   -7.8614   -1.8478   -0.5415 N   0  0  0  0  0  0  0  0  0  0  0  0
   -4.8355   -1.9527   -1.8595 C   0  0  0  0  0  0  0  0  0  0  0  0
   -4.1859   -3.1160   -1.7162 C   0  0  0  0  0  0  0  0  0  0  0  0
   -4.3426   -3.8014   -0.3846 C   0  0  1  0  0  0  0  0  0  0  0  0
   -4.1277   -2.8337    0.7525 C   0  0  0  0  0  0  0  0  0  0  0  0
   -4.7779   -1.6654    0.6635 C   0  0  0  0  0  0  0  0  0  0  0  0
   -4.9282   -1.4284   -2.8064 H   0  0  0  0  0  0  0  0  0  0  0  0
   -3.6313   -3.5940   -2.5173 H   0  0  0  0  0  0  0  0  0  0  0  0
   -3.7620   -4.7178   -0.2900 H   0  0  0  0  0  0  0  0  0  0  0  0
   -3.5375   -3.1264    1.6151 H   0  0  0  0  0  0  0  0  0  0  0  0
   -4.8390   -0.9462    1.4750 H   0  0  0  0  0  0  0  0  0  0  0  0
   -8.8141   -5.4161   -0.3057 C   0  0  0  0  0  0  0  0  0  0  0  0
   -9.8336   -6.0548   -1.0047 C   0  0  0  0  0  0  0  0  0  0  0  0
   -9.6566   -7.3420   -1.5374 C   0  0  0  0  0  0  0  0  0  0  0  0
   -8.4208   -7.9761   -1.3565 C   0  0  0  0  0  0  0  0  0  0  0  0
   -7.3831   -7.3510   -0.6652 C   0  0  0  0  0  0  0  0  0  0  0  0
   -7.5919   -6.0741   -0.1472 C   0  0  0  0  0  0  0  0  0  0  0  0
   -8.9576   -4.4238    0.1061 H   0  0  0  0  0  0  0  0  0  0  0  0
  -10.7855   -5.5468   -1.1378 H   0  0  0  0  0  0  0  0  0  0  0  0
   -8.2666   -8.9732   -1.7593 H   0  0  0  0  0  0  0  0  0  0  0  0
   -6.4276   -7.8428   -0.5190 H   0  0  0  0  0  0  0  0  0  0  0  0
   -6.2771   -5.2787    0.7578 S   0  0  0  0  0  0  0  0  0  0  0  0
   -6.8465   -4.5513    1.8905 O   0  0  0  0  0  0  0  0  0  0  0  0
   -5.8087   -4.1962   -0.3888 O   0  0  0  0  0  0  0  0  0  0  0  0
   -5.1819   -6.2308    0.9707 O   0  0  0  0  0  0  0  0  0  0  0  0
  -10.7847   -8.0301   -2.2670 C   0  0  0  0  0  0  0  0  0  0  0  0
  -11.5417   -8.3952   -1.5622 H   0  0  0  0  0  0  0  0  0  0  0  0
  -11.2900   -7.3456   -2.9560 H   0  0  0  0  0  0  0  0  0  0  0  0
  -10.4271   -8.8890   -2.8408 H   0  0  0  0  0  0  0  0  0  0  0  0
  1  2  1  1  0  0  0
  1  8  1  0  0  0  0
  2  3  1  0  0  0  0
  4  5  2  0  0  0  0
  4  1  1  0  0  0  0
  5  6  1  0  0  0  0
  6 11  1  1  0  0  0
  6  7  1  0  0  0  0
  7 12  1  0  0  0  0
  8  7  2  0  0  0  0
  8 13  1  0  0  0  0
  9  4  1  0  0  0  0
 10  5  1  0  0  0  0
 14 19  1  0  0  0  0
 14 20  1  0  0  0  0
 15 14  2  0  0  0  0
 16 17  2  0  0  0  0
 16 15  1  0  0  0  0
 17 18  1  0  0  0  0
 18 23  1  0  0  0  0
 18 19  2  0  0  0  0
 19 24  1  0  0  0  0
 21 15  1  0  0  0  0
 22 17  1  0  0  0  0
 24 27  2  0  0  0  0
 24 25  2  0  0  0  0
 26  6  1  0  0  0  0
 26 24  1  0  0  0  0
 28 29  1  0  0  0  0
 28 16  1  0  0  0  0
 30 28  1  0  0  0  0
 31 28  1  0  0  0  0
M  RAD  3   1   2   2   2   3   3
M  END
