Coordinates from ORCA-job PhN2+~TsO-_B3LYPG-6-31G_dp-NX-Scan-d89-09-n800
 OpenBabel11261920463D

 31 32  0  0  1  0  0  0  0  0999 V2000
   -5.3620   -1.3248   -0.7865 C   0  0  2  0  0  0  0  0  0  0  0  0
   -6.4049   -0.5711   -1.0255 N   0  0  0  0  0  0  0  0  0  0  0  0
   -7.3518    0.0294   -1.2307 N   0  0  0  0  0  0  0  0  0  0  0  0
   -4.7708   -2.0785   -1.8803 C   0  0  0  0  0  0  0  0  0  0  0  0
   -4.1796   -3.2503   -1.5867 C   0  0  0  0  0  0  0  0  0  0  0  0
   -4.3836   -3.8146   -0.2170 C   0  0  1  0  0  0  0  0  0  0  0  0
   -4.3763   -2.7673    0.8530 C   0  0  0  0  0  0  0  0  0  0  0  0
   -4.9701   -1.5900    0.5890 C   0  0  0  0  0  0  0  0  0  0  0  0
   -4.8073   -1.6717   -2.8864 H   0  0  0  0  0  0  0  0  0  0  0  0
   -3.6706   -3.8420   -2.3394 H   0  0  0  0  0  0  0  0  0  0  0  0
   -3.7335   -4.6616    0.0006 H   0  0  0  0  0  0  0  0  0  0  0  0
   -4.0100   -3.0150    1.8429 H   0  0  0  0  0  0  0  0  0  0  0  0
   -5.1548   -0.8375    1.3494 H   0  0  0  0  0  0  0  0  0  0  0  0
   -8.8384   -5.7426    0.0303 C   0  0  0  0  0  0  0  0  0  0  0  0
   -9.8914   -6.3244   -0.6689 C   0  0  0  0  0  0  0  0  0  0  0  0
   -9.6830   -7.4315   -1.5073 C   0  0  0  0  0  0  0  0  0  0  0  0
   -8.3850   -7.9453   -1.6272 C   0  0  0  0  0  0  0  0  0  0  0  0
   -7.3159   -7.3733   -0.9386 C   0  0  0  0  0  0  0  0  0  0  0  0
   -7.5543   -6.2718   -0.1180 C   0  0  0  0  0  0  0  0  0  0  0  0
   -9.0027   -4.8991    0.6919 H   0  0  0  0  0  0  0  0  0  0  0  0
  -10.8935   -5.9182   -0.5584 H   0  0  0  0  0  0  0  0  0  0  0  0
   -8.2089   -8.8084   -2.2633 H   0  0  0  0  0  0  0  0  0  0  0  0
   -6.3133   -7.7784   -1.0205 H   0  0  0  0  0  0  0  0  0  0  0  0
   -6.1969   -5.5371    0.7767 S   0  0  0  0  0  0  0  0  0  0  0  0
   -6.7122   -4.9254    2.0024 O   0  0  0  0  0  0  0  0  0  0  0  0
   -5.8038   -4.3688   -0.2992 O   0  0  0  0  0  0  0  0  0  0  0  0
   -5.0846   -6.4912    0.8531 O   0  0  0  0  0  0  0  0  0  0  0  0
  -10.8393   -8.0548   -2.2515 C   0  0  0  0  0  0  0  0  0  0  0  0
  -11.5957   -8.4379   -1.5570 H   0  0  0  0  0  0  0  0  0  0  0  0
  -11.3371   -7.3212   -2.8957 H   0  0  0  0  0  0  0  0  0  0  0  0
  -10.5103   -8.8861   -2.8802 H   0  0  0  0  0  0  0  0  0  0  0  0
  1  2  1  1  0  0  0
  1  8  1  0  0  0  0
  3  2  1  0  0  0  0
  4  5  2  0  0  0  0
  4  1  1  0  0  0  0
  5  6  1  0  0  0  0
  6 11  1  1  0  0  0
  6  7  1  0  0  0  0
  7 12  1  0  0  0  0
  8  7  2  0  0  0  0
  8 13  1  0  0  0  0
  9  4  1  0  0  0  0
 10  5  1  0  0  0  0
 14 20  1  0  0  0  0
 15 21  1  0  0  0  0
 15 14  2  0  0  0  0
 16 15  1  0  0  0  0
 17 16  2  0  0  0  0
 17 18  1  0  0  0  0
 18 19  2  0  0  0  0
 19 14  1  0  0  0  0
 19 24  1  0  0  0  0
 22 17  1  0  0  0  0
 23 18  1  0  0  0  0
 24 27  2  0  0  0  0
 24 25  2  0  0  0  0
 26  6  1  0  0  0  0
 26 24  1  0  0  0  0
 28 29  1  0  0  0  0
 28 16  1  0  0  0  0
 30 28  1  0  0  0  0
 31 28  1  0  0  0  0
M  RAD  3   1   2   2   2   3   3
M  END
