Coordinates from ORCA-job PhN2+~TsO-_B3LYPG-6-31G_dp-NX-Scan-d89-09-n800
 OpenBabel11261920463D

 31 32  0  0  1  0  0  0  0  0999 V2000
   -5.3606   -1.2925   -1.0069 C   0  0  2  0  0  0  0  0  0  0  0  0
   -6.1784   -0.4421   -1.5753 N   0  0  0  0  0  0  0  0  0  0  0  0
   -6.9221    0.2643   -2.0746 N   0  0  0  0  0  0  0  0  0  0  0  0
   -4.5136   -2.1288   -1.8354 C   0  0  0  0  0  0  0  0  0  0  0  0
   -3.9922   -3.2468   -1.2986 C   0  0  0  0  0  0  0  0  0  0  0  0
   -4.4613   -3.7088    0.0411 C   0  0  1  0  0  0  0  0  0  0  0  0
   -4.8745   -2.5990    0.9520 C   0  0  0  0  0  0  0  0  0  0  0  0
   -5.4016   -1.4759    0.4320 C   0  0  0  0  0  0  0  0  0  0  0  0
   -4.3063   -1.8219   -2.8557 H   0  0  0  0  0  0  0  0  0  0  0  0
   -3.3247   -3.8875   -1.8643 H   0  0  0  0  0  0  0  0  0  0  0  0
   -3.7621   -4.4067    0.5044 H   0  0  0  0  0  0  0  0  0  0  0  0
   -4.8569   -2.7724    2.0222 H   0  0  0  0  0  0  0  0  0  0  0  0
   -5.8399   -0.6979    1.0493 H   0  0  0  0  0  0  0  0  0  0  0  0
   -8.6880   -6.0419    0.3032 C   0  0  0  0  0  0  0  0  0  0  0  0
   -9.8299   -6.5196   -0.3323 C   0  0  0  0  0  0  0  0  0  0  0  0
   -9.7398   -7.3899   -1.4305 C   0  0  0  0  0  0  0  0  0  0  0  0
   -8.4687   -7.7761   -1.8762 C   0  0  0  0  0  0  0  0  0  0  0  0
   -7.3128   -7.3085   -1.2530 C   0  0  0  0  0  0  0  0  0  0  0  0
   -7.4357   -6.4396   -0.1698 C   0  0  0  0  0  0  0  0  0  0  0  0
   -8.7560   -5.3825    1.1615 H   0  0  0  0  0  0  0  0  0  0  0  0
  -10.8083   -6.2172    0.0316 H   0  0  0  0  0  0  0  0  0  0  0  0
   -8.3819   -8.4550   -2.7200 H   0  0  0  0  0  0  0  0  0  0  0  0
   -6.3296   -7.6194   -1.5881 H   0  0  0  0  0  0  0  0  0  0  0  0
   -5.9654   -5.8371    0.6373 S   0  0  0  0  0  0  0  0  0  0  0  0
   -6.2895   -5.4314    2.0080 O   0  0  0  0  0  0  0  0  0  0  0  0
   -5.7249   -4.5059   -0.2797 O   0  0  0  0  0  0  0  0  0  0  0  0
   -4.8594   -6.7716    0.4081 O   0  0  0  0  0  0  0  0  0  0  0  0
  -10.9900   -7.9011   -2.1049 C   0  0  0  0  0  0  0  0  0  0  0  0
  -11.6168   -8.4622   -1.4020 H   0  0  0  0  0  0  0  0  0  0  0  0
  -11.5985   -7.0746   -2.4889 H   0  0  0  0  0  0  0  0  0  0  0  0
  -10.7523   -8.5612   -2.9431 H   0  0  0  0  0  0  0  0  0  0  0  0
  1  2  1  6  0  0  0
  1  8  1  0  0  0  0
  3  2  1  0  0  0  0
  4  5  2  0  0  0  0
  4  1  1  0  0  0  0
  5  6  1  0  0  0  0
  6 11  1  1  0  0  0
  6  7  1  0  0  0  0
  7 12  1  0  0  0  0
  8  7  2  0  0  0  0
  8 13  1  0  0  0  0
  9  4  1  0  0  0  0
 10  5  1  0  0  0  0
 14 20  1  0  0  0  0
 15 21  1  0  0  0  0
 15 14  2  0  0  0  0
 16 15  1  0  0  0  0
 17 16  2  0  0  0  0
 17 18  1  0  0  0  0
 18 19  2  0  0  0  0
 19 14  1  0  0  0  0
 19 24  1  0  0  0  0
 22 17  1  0  0  0  0
 23 18  1  0  0  0  0
 24 25  2  0  0  0  0
 26  6  1  0  0  0  0
 26 24  1  0  0  0  0
 27 24  2  0  0  0  0
 28 16  1  0  0  0  0
 28 29  1  0  0  0  0
 30 28  1  0  0  0  0
 31 28  1  0  0  0  0
M  RAD  3   1   2   2   2   3   3
M  END
