Coordinates from ORCA-job PhN2+~TsO-_B3LYPG-6-31G_dp-NX-Scan-d89-09-n800
 OpenBabel11261920463D

 31 32  0  0  1  0  0  0  0  0999 V2000
   -5.4864   -1.4108   -0.6351 C   0  0  2  0  0  0  0  0  0  0  0  0
   -6.7957   -1.4954   -0.6183 N   0  0  0  0  0  0  0  0  0  0  0  0
   -7.9185   -1.6813   -0.5964 N   0  0  0  0  0  0  0  0  0  0  0  0
   -4.8549   -1.9657   -1.8549 C   0  0  0  0  0  0  0  0  0  0  0  0
   -4.1745   -3.1113   -1.7045 C   0  0  0  0  0  0  0  0  0  0  0  0
   -4.3226   -3.7994   -0.3746 C   0  0  1  0  0  0  0  0  0  0  0  0
   -4.1521   -2.8278    0.7647 C   0  0  0  0  0  0  0  0  0  0  0  0
   -4.8322   -1.6766    0.6673 C   0  0  0  0  0  0  0  0  0  0  0  0
   -4.9609   -1.4508   -2.8055 H   0  0  0  0  0  0  0  0  0  0  0  0
   -3.6096   -3.5786   -2.5045 H   0  0  0  0  0  0  0  0  0  0  0  0
   -3.7160   -4.6984   -0.2739 H   0  0  0  0  0  0  0  0  0  0  0  0
   -3.5754   -3.1073    1.6404 H   0  0  0  0  0  0  0  0  0  0  0  0
   -4.9300   -0.9647    1.4816 H   0  0  0  0  0  0  0  0  0  0  0  0
   -8.7699   -5.4193   -0.3193 C   0  0  0  0  0  0  0  0  0  0  0  0
   -9.8031   -6.0417   -1.0126 C   0  0  0  0  0  0  0  0  0  0  0  0
   -9.6545   -7.3380   -1.5320 C   0  0  0  0  0  0  0  0  0  0  0  0
   -8.4331   -7.9975   -1.3444 C   0  0  0  0  0  0  0  0  0  0  0  0
   -7.3819   -7.3885   -0.6588 C   0  0  0  0  0  0  0  0  0  0  0  0
   -7.5626   -6.1027   -0.1533 C   0  0  0  0  0  0  0  0  0  0  0  0
   -8.8921   -4.4193    0.0816 H   0  0  0  0  0  0  0  0  0  0  0  0
  -10.7432   -5.5139   -1.1517 H   0  0  0  0  0  0  0  0  0  0  0  0
   -8.3009   -9.0013   -1.7380 H   0  0  0  0  0  0  0  0  0  0  0  0
   -6.4367   -7.8988   -0.5087 H   0  0  0  0  0  0  0  0  0  0  0  0
   -6.2316   -5.3274    0.7455 S   0  0  0  0  0  0  0  0  0  0  0  0
   -6.7826   -4.6104    1.8943 O   0  0  0  0  0  0  0  0  0  0  0  0
   -5.7754   -4.2393   -0.3980 O   0  0  0  0  0  0  0  0  0  0  0  0
   -5.1394   -6.2877    0.9355 O   0  0  0  0  0  0  0  0  0  0  0  0
  -10.7975   -8.0081   -2.2554 C   0  0  0  0  0  0  0  0  0  0  0  0
  -11.5639   -8.3464   -1.5476 H   0  0  0  0  0  0  0  0  0  0  0  0
  -11.2853   -7.3202   -2.9537 H   0  0  0  0  0  0  0  0  0  0  0  0
  -10.4592   -8.8820   -2.8182 H   0  0  0  0  0  0  0  0  0  0  0  0
  1  2  1  1  0  0  0
  1  8  1  0  0  0  0
  2  3  1  0  0  0  0
  4  5  2  0  0  0  0
  4  1  1  0  0  0  0
  5  6  1  0  0  0  0
  6 11  1  1  0  0  0
  6  7  1  0  0  0  0
  7 12  1  0  0  0  0
  8  7  2  0  0  0  0
  8 13  1  0  0  0  0
  9  4  1  0  0  0  0
 10  5  1  0  0  0  0
 14 19  1  0  0  0  0
 14 20  1  0  0  0  0
 15 14  2  0  0  0  0
 16 17  2  0  0  0  0
 16 15  1  0  0  0  0
 17 18  1  0  0  0  0
 18 23  1  0  0  0  0
 18 19  2  0  0  0  0
 19 24  1  0  0  0  0
 21 15  1  0  0  0  0
 22 17  1  0  0  0  0
 24 27  2  0  0  0  0
 24 25  2  0  0  0  0
 26  6  1  0  0  0  0
 26 24  1  0  0  0  0
 28 29  1  0  0  0  0
 28 16  1  0  0  0  0
 30 28  1  0  0  0  0
 31 28  1  0  0  0  0
M  RAD  3   1   2   2   2   3   3
M  END
