Coordinates from ORCA-job PhN2+~TsO-_B3LYPG-6-31G_dp-NX-Scan-d89-09-n800
 OpenBabel11261920463D

 31 31  0  0  0  0  0  0  0  0999 V2000
   -3.7313   -0.4561   -0.0725 C   0  0  0  0  0  0  0  0  0  0  0  0
   -3.4702    0.8111    0.3348 N   0  0  0  0  0  0  0  0  0  0  0  0
   -3.2760    1.8615    0.6853 N   0  0  0  0  0  0  0  0  0  0  0  0
   -2.8020   -1.0938   -0.9325 C   0  0  0  0  0  0  0  0  0  0  0  0
   -3.1075   -2.3764   -1.3469 C   0  0  0  0  0  0  0  0  0  0  0  0
   -4.2971   -3.0012   -0.9304 C   0  0  0  0  0  0  0  0  0  0  0  0
   -5.1989   -2.3496   -0.0650 C   0  0  0  0  0  0  0  0  0  0  0  0
   -4.9304   -1.0692    0.3767 C   0  0  0  0  0  0  0  0  0  0  0  0
   -1.9007   -0.5788   -1.2453 H   0  0  0  0  0  0  0  0  0  0  0  0
   -2.4250   -2.8970   -2.0109 H   0  0  0  0  0  0  0  0  0  0  0  0
   -4.5865   -3.9975   -1.2734 H   0  0  0  0  0  0  0  0  0  0  0  0
   -6.1221   -2.8707    0.2195 H   0  0  0  0  0  0  0  0  0  0  0  0
   -5.6049   -0.5321    1.0351 H   0  0  0  0  0  0  0  0  0  0  0  0
   -9.6443   -6.2750   -0.2804 C   0  0  0  0  0  0  0  0  0  0  0  0
  -10.4565   -7.4053   -0.2166 C   0  0  0  0  0  0  0  0  0  0  0  0
  -10.0767   -8.6069   -0.8323 C   0  0  0  0  0  0  0  0  0  0  0  0
   -8.8552   -8.6433   -1.5169 C   0  0  0  0  0  0  0  0  0  0  0  0
   -8.0336   -7.5176   -1.5881 C   0  0  0  0  0  0  0  0  0  0  0  0
   -8.4303   -6.3330   -0.9687 C   0  0  0  0  0  0  0  0  0  0  0  0
   -9.9343   -5.3514    0.2091 H   0  0  0  0  0  0  0  0  0  0  0  0
  -11.4013   -7.3561    0.3203 H   0  0  0  0  0  0  0  0  0  0  0  0
   -8.5413   -9.5663   -1.9996 H   0  0  0  0  0  0  0  0  0  0  0  0
   -7.0816   -7.5496   -2.1063 H   0  0  0  0  0  0  0  0  0  0  0  0
   -7.4167   -4.8531   -1.1171 S   0  0  0  0  0  0  0  0  0  0  0  0
   -7.5831   -4.1448    0.1954 O   0  0  0  0  0  0  0  0  0  0  0  0
   -7.9236   -4.0753   -2.2723 O   0  0  0  0  0  0  0  0  0  0  0  0
   -6.0182   -5.3624   -1.3147 O   0  0  0  0  0  0  0  0  0  0  0  0
  -10.9505   -9.8357   -0.7325 C   0  0  0  0  0  0  0  0  0  0  0  0
  -10.7991  -10.3573    0.2219 H   0  0  0  0  0  0  0  0  0  0  0  0
  -12.0132   -9.5779   -0.7921 H   0  0  0  0  0  0  0  0  0  0  0  0
  -10.7294  -10.5494   -1.5320 H   0  0  0  0  0  0  0  0  0  0  0  0
  1  2  1  0  0  0  0
  1  8  2  0  0  0  0
  2  3  1  0  0  0  0
  4  1  1  0  0  0  0
  5  4  2  0  0  0  0
  5  6  1  0  0  0  0
  6  7  2  0  0  0  0
  7 12  1  0  0  0  0
  7  8  1  0  0  0  0
  8 13  1  0  0  0  0
  9  4  1  0  0  0  0
 10  5  1  0  0  0  0
 11  6  1  0  0  0  0
 14 15  1  0  0  0  0
 14 20  1  0  0  0  0
 15 21  1  0  0  0  0
 16 28  1  0  0  0  0
 16 15  2  0  0  0  0
 17 16  1  0  0  0  0
 18 17  2  0  0  0  0
 18 19  1  0  0  0  0
 19 14  2  0  0  0  0
 22 17  1  0  0  0  0
 23 18  1  0  0  0  0
 24 19  1  0  0  0  0
 24 25  1  0  0  0  0
 26 24  2  0  0  0  0
 27 24  2  0  0  0  0
 28 29  1  0  0  0  0
 30 28  1  0  0  0  0
 31 28  1  0  0  0  0
M  RAD  3   2   2   3   3  25   2
M  END
