Coordinates from ORCA-job PhN2+~TsO-_B3LYPG-6-31G_dp-NX-Scan-d89-09-n800
 OpenBabel11261920463D

 31 32  0  0  1  0  0  0  0  0999 V2000
   -5.4276   -1.3983   -0.6548 C   0  0  2  0  0  0  0  0  0  0  0  0
   -6.7192   -1.1799   -0.6834 N   0  0  0  0  0  0  0  0  0  0  0  0
   -7.8542   -1.0874   -0.7021 N   0  0  0  0  0  0  0  0  0  0  0  0
   -4.8376   -1.9995   -1.8594 C   0  0  0  0  0  0  0  0  0  0  0  0
   -4.1768   -3.1570   -1.6963 C   0  0  0  0  0  0  0  0  0  0  0  0
   -4.3267   -3.8278   -0.3617 C   0  0  1  0  0  0  0  0  0  0  0  0
   -4.1693   -2.8525    0.7715 C   0  0  0  0  0  0  0  0  0  0  0  0
   -4.8304   -1.6899    0.6564 C   0  0  0  0  0  0  0  0  0  0  0  0
   -4.9474   -1.5035   -2.8194 H   0  0  0  0  0  0  0  0  0  0  0  0
   -3.6416   -3.6500   -2.5006 H   0  0  0  0  0  0  0  0  0  0  0  0
   -3.7213   -4.7262   -0.2493 H   0  0  0  0  0  0  0  0  0  0  0  0
   -3.6322   -3.1401    1.6689 H   0  0  0  0  0  0  0  0  0  0  0  0
   -4.9422   -0.9808    1.4712 H   0  0  0  0  0  0  0  0  0  0  0  0
   -8.8103   -5.4902   -0.2362 C   0  0  0  0  0  0  0  0  0  0  0  0
   -9.8389   -6.1149   -0.9342 C   0  0  0  0  0  0  0  0  0  0  0  0
   -9.6550   -7.3746   -1.5274 C   0  0  0  0  0  0  0  0  0  0  0  0
   -8.4047   -7.9944   -1.4067 C   0  0  0  0  0  0  0  0  0  0  0  0
   -7.3585   -7.3815   -0.7172 C   0  0  0  0  0  0  0  0  0  0  0  0
   -7.5730   -6.1317   -0.1394 C   0  0  0  0  0  0  0  0  0  0  0  0
   -8.9598   -4.5226    0.2300 H   0  0  0  0  0  0  0  0  0  0  0  0
  -10.8029   -5.6196   -1.0176 H   0  0  0  0  0  0  0  0  0  0  0  0
   -8.2468   -8.9714   -1.8545 H   0  0  0  0  0  0  0  0  0  0  0  0
   -6.3923   -7.8638   -0.6160 H   0  0  0  0  0  0  0  0  0  0  0  0
   -6.2476   -5.3454    0.7592 S   0  0  0  0  0  0  0  0  0  0  0  0
   -6.8126   -4.6189    1.8957 O   0  0  0  0  0  0  0  0  0  0  0  0
   -5.7815   -4.2734   -0.3906 O   0  0  0  0  0  0  0  0  0  0  0  0
   -5.1582   -6.3049    0.9701 O   0  0  0  0  0  0  0  0  0  0  0  0
  -10.7907   -8.0469   -2.2602 C   0  0  0  0  0  0  0  0  0  0  0  0
  -11.5714   -8.3708   -1.5617 H   0  0  0  0  0  0  0  0  0  0  0  0
  -11.2622   -7.3640   -2.9750 H   0  0  0  0  0  0  0  0  0  0  0  0
  -10.4488   -8.9286   -2.8079 H   0  0  0  0  0  0  0  0  0  0  0  0
  1  2  1  1  0  0  0
  1  8  1  0  0  0  0
  3  2  1  0  0  0  0
  4  5  2  0  0  0  0
  4  1  1  0  0  0  0
  5  6  1  0  0  0  0
  6 11  1  1  0  0  0
  6  7  1  0  0  0  0
  7 12  1  0  0  0  0
  8  7  2  0  0  0  0
  8 13  1  0  0  0  0
  9  4  1  0  0  0  0
 10  5  1  0  0  0  0
 14 19  1  0  0  0  0
 14 20  1  0  0  0  0
 15 14  2  0  0  0  0
 16 17  2  0  0  0  0
 16 15  1  0  0  0  0
 17 18  1  0  0  0  0
 18 23  1  0  0  0  0
 18 19  2  0  0  0  0
 19 24  1  0  0  0  0
 21 15  1  0  0  0  0
 22 17  1  0  0  0  0
 24 27  2  0  0  0  0
 24 25  2  0  0  0  0
 26  6  1  0  0  0  0
 26 24  1  0  0  0  0
 28 29  1  0  0  0  0
 28 16  1  0  0  0  0
 30 28  1  0  0  0  0
 31 28  1  0  0  0  0
M  RAD  3   1   2   2   2   3   3
M  END
