Coordinates from ORCA-job PhN2+~TsO-_B3LYPG-6-31G_dp-NX-Scan-d89-09-n800
 OpenBabel11261920463D

 31 31  0  0  0  0  0  0  0  0999 V2000
   -4.2387   -0.4627   -0.5047 C   0  0  0  0  0  0  0  0  0  0  0  0
   -4.0858    0.8756   -0.4286 N   0  0  0  0  0  0  0  0  0  0  0  0
   -3.9456    1.9929   -0.3563 N   0  0  0  0  0  0  0  0  0  0  0  0
   -3.7979   -1.1312   -1.6807 C   0  0  0  0  0  0  0  0  0  0  0  0
   -3.8939   -2.5043   -1.7118 C   0  0  0  0  0  0  0  0  0  0  0  0
   -4.4145   -3.2202   -0.6107 C   0  0  0  0  0  0  0  0  0  0  0  0
   -4.8857   -2.5296    0.5323 C   0  0  0  0  0  0  0  0  0  0  0  0
   -4.8035   -1.1590    0.6042 C   0  0  0  0  0  0  0  0  0  0  0  0
   -3.3832   -0.5624   -2.5058 H   0  0  0  0  0  0  0  0  0  0  0  0
   -3.5551   -3.0448   -2.5888 H   0  0  0  0  0  0  0  0  0  0  0  0
   -4.3759   -4.3049   -0.5933 H   0  0  0  0  0  0  0  0  0  0  0  0
   -5.3499   -3.1041    1.3290 H   0  0  0  0  0  0  0  0  0  0  0  0
   -5.1483   -0.6075    1.4718 H   0  0  0  0  0  0  0  0  0  0  0  0
   -9.3096   -6.2126   -0.1138 C   0  0  0  0  0  0  0  0  0  0  0  0
  -10.3278   -7.0949   -0.4657 C   0  0  0  0  0  0  0  0  0  0  0  0
  -10.0517   -8.2779   -1.1685 C   0  0  0  0  0  0  0  0  0  0  0  0
   -8.7210   -8.5534   -1.5092 C   0  0  0  0  0  0  0  0  0  0  0  0
   -7.6920   -7.6770   -1.1646 C   0  0  0  0  0  0  0  0  0  0  0  0
   -7.9903   -6.5069   -0.4668 C   0  0  0  0  0  0  0  0  0  0  0  0
   -9.5216   -5.3068    0.4438 H   0  0  0  0  0  0  0  0  0  0  0  0
  -11.3541   -6.8668   -0.1869 H   0  0  0  0  0  0  0  0  0  0  0  0
   -8.4869   -9.4688   -2.0473 H   0  0  0  0  0  0  0  0  0  0  0  0
   -6.6595   -7.8946   -1.4155 H   0  0  0  0  0  0  0  0  0  0  0  0
   -6.6760   -5.3499   -0.0602 S   0  0  0  0  0  0  0  0  0  0  0  0
   -7.0582   -4.7161    1.2305 O   0  0  0  0  0  0  0  0  0  0  0  0
   -6.6707   -4.3628   -1.2087 O   0  0  0  0  0  0  0  0  0  0  0  0
   -5.4120   -6.1360   -0.0193 O   0  0  0  0  0  0  0  0  0  0  0  0
  -11.1618   -9.2399   -1.5221 C   0  0  0  0  0  0  0  0  0  0  0  0
  -11.4863   -9.8130   -0.6445 H   0  0  0  0  0  0  0  0  0  0  0  0
  -12.0424   -8.7128   -1.9040 H   0  0  0  0  0  0  0  0  0  0  0  0
  -10.8418   -9.9583   -2.2827 H   0  0  0  0  0  0  0  0  0  0  0  0
  1  2  1  0  0  0  0
  1  8  2  0  0  0  0
  2  3  1  0  0  0  0
  4  1  1  0  0  0  0
  5  4  2  0  0  0  0
  5  6  1  0  0  0  0
  6 11  1  0  0  0  0
  6  7  2  0  0  0  0
  7  8  1  0  0  0  0
  7 12  1  0  0  0  0
  8 13  1  0  0  0  0
  9  4  1  0  0  0  0
 10  5  1  0  0  0  0
 14 20  1  0  0  0  0
 15 21  1  0  0  0  0
 15 14  2  0  0  0  0
 16 15  1  0  0  0  0
 17 16  2  0  0  0  0
 17 18  1  0  0  0  0
 18 19  2  0  0  0  0
 19 14  1  0  0  0  0
 19 24  1  0  0  0  0
 22 17  1  0  0  0  0
 23 18  1  0  0  0  0
 24 27  2  0  0  0  0
 24 25  1  0  0  0  0
 26 24  2  0  0  0  0
 28 16  1  0  0  0  0
 28 29  1  0  0  0  0
 30 28  1  0  0  0  0
 31 28  1  0  0  0  0
M  RAD  3   2   2   3   3  25   2
M  END
