Coordinates from ORCA-job PhN2+~TsO-_B3LYPG-6-31G_dp-NX-Scan-d89-09-n800
 OpenBabel11261920463D

 31 31  0  0  0  0  0  0  0  0999 V2000
   -3.6610   -0.6018    0.1433 C   0  0  0  0  0  0  0  0  0  0  0  0
   -3.3047    0.5461    0.7719 N   0  0  0  0  0  0  0  0  0  0  0  0
   -3.0304    1.4958    1.3077 N   0  0  0  0  0  0  0  0  0  0  0  0
   -2.7249   -1.2114   -0.7298 C   0  0  0  0  0  0  0  0  0  0  0  0
   -3.1207   -2.3747   -1.3625 C   0  0  0  0  0  0  0  0  0  0  0  0
   -4.4045   -2.9076   -1.1457 C   0  0  0  0  0  0  0  0  0  0  0  0
   -5.3131   -2.2888   -0.2640 C   0  0  0  0  0  0  0  0  0  0  0  0
   -4.9557   -1.1285    0.3940 C   0  0  0  0  0  0  0  0  0  0  0  0
   -1.7488   -0.7660   -0.8852 H   0  0  0  0  0  0  0  0  0  0  0  0
   -2.4345   -2.8705   -2.0413 H   0  0  0  0  0  0  0  0  0  0  0  0
   -4.7581   -3.8126   -1.6450 H   0  0  0  0  0  0  0  0  0  0  0  0
   -6.3026   -2.7466   -0.1285 H   0  0  0  0  0  0  0  0  0  0  0  0
   -5.6275   -0.6224    1.0793 H   0  0  0  0  0  0  0  0  0  0  0  0
   -9.7285   -6.1975   -0.4612 C   0  0  0  0  0  0  0  0  0  0  0  0
  -10.4479   -7.3691   -0.2332 C   0  0  0  0  0  0  0  0  0  0  0  0
   -9.9836   -8.6073   -0.6992 C   0  0  0  0  0  0  0  0  0  0  0  0
   -8.7737   -8.6380   -1.4054 C   0  0  0  0  0  0  0  0  0  0  0  0
   -8.0452   -7.4719   -1.6401 C   0  0  0  0  0  0  0  0  0  0  0  0
   -8.5244   -6.2506   -1.1662 C   0  0  0  0  0  0  0  0  0  0  0  0
  -10.0841   -5.2434   -0.0869 H   0  0  0  0  0  0  0  0  0  0  0  0
  -11.3861   -7.3231    0.3155 H   0  0  0  0  0  0  0  0  0  0  0  0
   -8.3961   -9.5884   -1.7760 H   0  0  0  0  0  0  0  0  0  0  0  0
   -7.1020   -7.4979   -2.1744 H   0  0  0  0  0  0  0  0  0  0  0  0
   -7.6319   -4.7285   -1.5270 S   0  0  0  0  0  0  0  0  0  0  0  0
   -7.8341   -3.8742   -0.3099 O   0  0  0  0  0  0  0  0  0  0  0  0
   -8.2162   -4.1528   -2.7590 O   0  0  0  0  0  0  0  0  0  0  0  0
   -6.2006   -5.1540   -1.6890 O   0  0  0  0  0  0  0  0  0  0  0  0
  -10.7503   -9.8783   -0.4176 C   0  0  0  0  0  0  0  0  0  0  0  0
  -10.4504  -10.3196    0.5420 H   0  0  0  0  0  0  0  0  0  0  0  0
  -11.8281   -9.6938   -0.3649 H   0  0  0  0  0  0  0  0  0  0  0  0
  -10.5723  -10.6331   -1.1902 H   0  0  0  0  0  0  0  0  0  0  0  0
  1  8  1  0  0  0  0
  1  2  1  0  0  0  0
  2  3  1  0  0  0  0
  4  1  2  0  0  0  0
  5  6  2  0  0  0  0
  5  4  1  0  0  0  0
  6  7  1  0  0  0  0
  7 12  1  0  0  0  0
  7  8  2  0  0  0  0
  8 13  1  0  0  0  0
  9  4  1  0  0  0  0
 10  5  1  0  0  0  0
 11  6  1  0  0  0  0
 14 15  1  0  0  0  0
 14 20  1  0  0  0  0
 15 21  1  0  0  0  0
 16 28  1  0  0  0  0
 16 15  2  0  0  0  0
 17 16  1  0  0  0  0
 18 17  2  0  0  0  0
 18 19  1  0  0  0  0
 19 14  2  0  0  0  0
 22 17  1  0  0  0  0
 23 18  1  0  0  0  0
 24 19  1  0  0  0  0
 24 25  1  0  0  0  0
 26 24  2  0  0  0  0
 27 24  2  0  0  0  0
 28 30  1  0  0  0  0
 28 29  1  0  0  0  0
 31 28  1  0  0  0  0
M  RAD  3   2   2   3   3  25   2
M  END
