Coordinates from ORCA-job PhN2+~TsO-_B3LYPG-6-31G_dp-NX-Scan-d89-09-n800
 OpenBabel11261920463D

 31 32  0  0  1  0  0  0  0  0999 V2000
   -5.3555   -1.3564   -0.7969 C   0  0  2  0  0  0  0  0  0  0  0  0
   -6.6132   -1.7408   -0.5600 N   0  0  0  0  0  0  0  0  0  0  0  0
   -7.4740   -2.4327   -0.3018 N   0  0  0  0  0  0  0  0  0  0  0  0
   -4.8545   -2.1318   -1.9764 C   0  0  0  0  0  0  0  0  0  0  0  0
   -4.3294   -3.3354   -1.6997 C   0  0  0  0  0  0  0  0  0  0  0  0
   -4.4473   -3.8008   -0.2759 C   0  0  1  0  0  0  0  0  0  0  0  0
   -4.0324   -2.7183    0.6819 C   0  0  0  0  0  0  0  0  0  0  0  0
   -4.5627   -1.5038    0.4653 C   0  0  0  0  0  0  0  0  0  0  0  0
   -4.9598   -1.7399   -2.9841 H   0  0  0  0  0  0  0  0  0  0  0  0
   -3.8801   -3.9804   -2.4490 H   0  0  0  0  0  0  0  0  0  0  0  0
   -3.9880   -4.7669   -0.0807 H   0  0  0  0  0  0  0  0  0  0  0  0
   -3.3891   -2.9525    1.5251 H   0  0  0  0  0  0  0  0  0  0  0  0
   -4.4700   -0.6755    1.1618 H   0  0  0  0  0  0  0  0  0  0  0  0
   -8.9942   -5.4857   -0.0873 C   0  0  0  0  0  0  0  0  0  0  0  0
   -9.9483   -6.1333   -0.8682 C   0  0  0  0  0  0  0  0  0  0  0  0
   -9.6292   -7.2873   -1.5993 C   0  0  0  0  0  0  0  0  0  0  0  0
   -8.3186   -7.7807   -1.5309 C   0  0  0  0  0  0  0  0  0  0  0  0
   -7.3480   -7.1452   -0.7594 C   0  0  0  0  0  0  0  0  0  0  0  0
   -7.6959   -5.9972   -0.0465 C   0  0  0  0  0  0  0  0  0  0  0  0
   -9.2464   -4.5996    0.4833 H   0  0  0  0  0  0  0  0  0  0  0  0
  -10.9596   -5.7374   -0.9084 H   0  0  0  0  0  0  0  0  0  0  0  0
   -8.0548   -8.6779   -2.0844 H   0  0  0  0  0  0  0  0  0  0  0  0
   -6.3384   -7.5358   -0.6949 H   0  0  0  0  0  0  0  0  0  0  0  0
   -6.4575   -5.1828    0.9497 S   0  0  0  0  0  0  0  0  0  0  0  0
   -7.1106   -4.5559    2.0956 O   0  0  0  0  0  0  0  0  0  0  0  0
   -5.9911   -3.9749   -0.0745 O   0  0  0  0  0  0  0  0  0  0  0  0
   -5.3319   -6.1031    1.1462 O   0  0  0  0  0  0  0  0  0  0  0  0
  -10.6810   -8.0007   -2.4137 C   0  0  0  0  0  0  0  0  0  0  0  0
  -11.2067   -8.7470   -1.8052 H   0  0  0  0  0  0  0  0  0  0  0  0
  -11.4332   -7.3041   -2.7949 H   0  0  0  0  0  0  0  0  0  0  0  0
  -10.2404   -8.5267   -3.2652 H   0  0  0  0  0  0  0  0  0  0  0  0
  1  2  1  1  0  0  0
  1  8  1  0  0  0  0
  2  3  1  0  0  0  0
  4  5  2  0  0  0  0
  4  1  1  0  0  0  0
  5  6  1  0  0  0  0
  6 11  1  1  0  0  0
  6 26  1  0  0  0  0
  6  7  1  0  0  0  0
  7 12  1  0  0  0  0
  8  7  2  0  0  0  0
  8 13  1  0  0  0  0
  9  4  1  0  0  0  0
 10  5  1  0  0  0  0
 14 19  1  0  0  0  0
 14 20  1  0  0  0  0
 15 14  2  0  0  0  0
 16 17  2  0  0  0  0
 16 15  1  0  0  0  0
 17 18  1  0  0  0  0
 18 23  1  0  0  0  0
 18 19  2  0  0  0  0
 19 24  1  0  0  0  0
 21 15  1  0  0  0  0
 22 17  1  0  0  0  0
 24 27  2  0  0  0  0
 24 25  2  0  0  0  0
 26 24  1  0  0  0  0
 28 29  1  0  0  0  0
 28 16  1  0  0  0  0
 30 28  1  0  0  0  0
 31 28  1  0  0  0  0
M  RAD  3   1   2   2   2   3   3
M  END
