Coordinates from ORCA-job PhN2+~TsO-_B3LYPG-6-31G_dp-NX-Scan-d89-09-n800
 OpenBabel11261920463D

 31 31  0  0  0  0  0  0  0  0999 V2000
   -3.6857   -0.5134    0.0258 C   0  0  0  0  0  0  0  0  0  0  0  0
   -3.3777    0.7042    0.5380 N   0  0  0  0  0  0  0  0  0  0  0  0
   -3.1455    1.7130    0.9765 N   0  0  0  0  0  0  0  0  0  0  0  0
   -2.7563   -1.1343   -0.8462 C   0  0  0  0  0  0  0  0  0  0  0  0
   -3.1078   -2.3662   -1.3650 C   0  0  0  0  0  0  0  0  0  0  0  0
   -4.3423   -2.9563   -1.0383 C   0  0  0  0  0  0  0  0  0  0  0  0
   -5.2441   -2.3237   -0.1592 C   0  0  0  0  0  0  0  0  0  0  0  0
   -4.9301   -1.0946    0.3861 C   0  0  0  0  0  0  0  0  0  0  0  0
   -1.8194   -0.6454   -1.0881 H   0  0  0  0  0  0  0  0  0  0  0  0
   -2.4259   -2.8724   -2.0405 H   0  0  0  0  0  0  0  0  0  0  0  0
   -4.6649   -3.9130   -1.4559 H   0  0  0  0  0  0  0  0  0  0  0  0
   -6.1992   -2.8202    0.0589 H   0  0  0  0  0  0  0  0  0  0  0  0
   -5.6007   -0.5741    1.0615 H   0  0  0  0  0  0  0  0  0  0  0  0
   -9.6981   -6.2402   -0.3716 C   0  0  0  0  0  0  0  0  0  0  0  0
  -10.4681   -7.3938   -0.2375 C   0  0  0  0  0  0  0  0  0  0  0  0
  -10.0410   -8.6169   -0.7744 C   0  0  0  0  0  0  0  0  0  0  0  0
   -8.8164   -8.6508   -1.4538 C   0  0  0  0  0  0  0  0  0  0  0  0
   -8.0371   -7.5021   -1.5949 C   0  0  0  0  0  0  0  0  0  0  0  0
   -8.4799   -6.2962   -1.0522 C   0  0  0  0  0  0  0  0  0  0  0  0
  -10.0254   -5.2991    0.0576 H   0  0  0  0  0  0  0  0  0  0  0  0
  -11.4166   -7.3458    0.2928 H   0  0  0  0  0  0  0  0  0  0  0  0
   -8.4669   -9.5898   -1.8774 H   0  0  0  0  0  0  0  0  0  0  0  0
   -7.0829   -7.5306   -2.1091 H   0  0  0  0  0  0  0  0  0  0  0  0
   -7.5212   -4.7911   -1.2903 S   0  0  0  0  0  0  0  0  0  0  0  0
   -7.6930   -4.0267   -0.0101 O   0  0  0  0  0  0  0  0  0  0  0  0
   -8.0737   -4.0915   -2.4730 O   0  0  0  0  0  0  0  0  0  0  0  0
   -6.1086   -5.2617   -1.4845 O   0  0  0  0  0  0  0  0  0  0  0  0
  -10.8660   -9.8701   -0.5957 C   0  0  0  0  0  0  0  0  0  0  0  0
  -10.6504  -10.3561    0.3653 H   0  0  0  0  0  0  0  0  0  0  0  0
  -11.9386   -9.6501   -0.6110 H   0  0  0  0  0  0  0  0  0  0  0  0
  -10.6582  -10.6017   -1.3827 H   0  0  0  0  0  0  0  0  0  0  0  0
  1  8  1  0  0  0  0
  1  2  1  0  0  0  0
  2  3  1  0  0  0  0
  4  1  2  0  0  0  0
  5  6  2  0  0  0  0
  5  4  1  0  0  0  0
  6  7  1  0  0  0  0
  7 12  1  0  0  0  0
  7  8  2  0  0  0  0
  8 13  1  0  0  0  0
  9  4  1  0  0  0  0
 10  5  1  0  0  0  0
 11  6  1  0  0  0  0
 14 15  1  0  0  0  0
 14 20  1  0  0  0  0
 15 21  1  0  0  0  0
 16 28  1  0  0  0  0
 16 15  2  0  0  0  0
 17 16  1  0  0  0  0
 18 17  2  0  0  0  0
 18 19  1  0  0  0  0
 19 14  2  0  0  0  0
 22 17  1  0  0  0  0
 23 18  1  0  0  0  0
 24 19  1  0  0  0  0
 24 25  1  0  0  0  0
 26 24  2  0  0  0  0
 27 24  2  0  0  0  0
 28 29  1  0  0  0  0
 30 28  1  0  0  0  0
 31 28  1  0  0  0  0
M  RAD  3   2   2   3   3  25   2
M  END
