Coordinates from ORCA-job PhN2+~TsO-_B3LYPG-6-31G_dp-NX-Scan-d89-09-n800
 OpenBabel11261920463D

 31 32  0  0  1  0  0  0  0  0999 V2000
   -4.7373   -0.7245   -0.8752 C   0  0  0  0  0  0  0  0  0  0  0  0
   -4.5446    0.5502   -1.1332 N   0  0  0  0  0  0  0  0  0  0  0  0
   -4.3692    1.6626   -1.3531 N   0  0  0  0  0  0  0  0  0  0  0  0
   -4.3883   -1.7358   -1.8563 C   0  0  0  0  0  0  0  0  0  0  0  0
   -4.4962   -3.0451   -1.5583 C   0  0  0  0  0  0  0  0  0  0  0  0
   -4.9431   -3.5472   -0.2201 C   0  0  1  0  0  0  0  0  0  0  0  0
   -5.3821   -2.4539    0.7083 C   0  0  0  0  0  0  0  0  0  0  0  0
   -5.2755   -1.1460    0.4065 C   0  0  0  0  0  0  0  0  0  0  0  0
   -4.0295   -1.4140   -2.8291 H   0  0  0  0  0  0  0  0  0  0  0  0
   -4.2276   -3.7962   -2.2935 H   0  0  0  0  0  0  0  0  0  0  0  0
   -4.1580   -4.1660    0.2357 H   0  0  0  0  0  0  0  0  0  0  0  0
   -5.7814   -2.7668    1.6669 H   0  0  0  0  0  0  0  0  0  0  0  0
   -5.5819   -0.3837    1.1162 H   0  0  0  0  0  0  0  0  0  0  0  0
   -8.8205   -6.2897    0.2889 C   0  0  0  0  0  0  0  0  0  0  0  0
   -9.9397   -6.9028   -0.2650 C   0  0  0  0  0  0  0  0  0  0  0  0
   -9.8169   -7.8268   -1.3154 C   0  0  0  0  0  0  0  0  0  0  0  0
   -8.5357   -8.1282   -1.7959 C   0  0  0  0  0  0  0  0  0  0  0  0
   -7.4016   -7.5241   -1.2553 C   0  0  0  0  0  0  0  0  0  0  0  0
   -7.5581   -6.6046   -0.2192 C   0  0  0  0  0  0  0  0  0  0  0  0
   -8.9137   -5.5873    1.1098 H   0  0  0  0  0  0  0  0  0  0  0  0
  -10.9254   -6.6654    0.1261 H   0  0  0  0  0  0  0  0  0  0  0  0
   -8.4228   -8.8486   -2.6015 H   0  0  0  0  0  0  0  0  0  0  0  0
   -6.4089   -7.7668   -1.6174 H   0  0  0  0  0  0  0  0  0  0  0  0
   -6.1167   -5.8287    0.4826 S   0  0  0  0  0  0  0  0  0  0  0  0
   -6.3968   -5.4181    1.8613 O   0  0  0  0  0  0  0  0  0  0  0  0
   -6.0885   -4.4985   -0.4713 O   0  0  0  0  0  0  0  0  0  0  0  0
   -4.9305   -6.6403    0.1980 O   0  0  0  0  0  0  0  0  0  0  0  0
  -11.0432   -8.4784   -1.9075 C   0  0  0  0  0  0  0  0  0  0  0  0
  -11.6382   -8.9782   -1.1352 H   0  0  0  0  0  0  0  0  0  0  0  0
  -11.6931   -7.7349   -2.3838 H   0  0  0  0  0  0  0  0  0  0  0  0
  -10.7767   -9.2225   -2.6626 H   0  0  0  0  0  0  0  0  0  0  0  0
  1  8  1  0  0  0  0
  2  1  1  0  0  0  0
  3  2  1  0  0  0  0
  4  5  1  0  0  0  0
  4  1  2  0  0  0  0
  5  6  1  0  0  0  0
  6 11  1  1  0  0  0
  6  7  1  0  0  0  0
  7 12  1  0  0  0  0
  8  7  2  0  0  0  0
  8 13  1  0  0  0  0
  9  4  1  0  0  0  0
 10  5  1  0  0  0  0
 14 20  1  0  0  0  0
 15 21  1  0  0  0  0
 15 14  2  0  0  0  0
 16 15  1  0  0  0  0
 17 16  2  0  0  0  0
 17 18  1  0  0  0  0
 18 19  2  0  0  0  0
 19 14  1  0  0  0  0
 19 24  1  0  0  0  0
 22 17  1  0  0  0  0
 23 18  1  0  0  0  0
 24 25  2  0  0  0  0
 26  6  1  0  0  0  0
 26 24  1  0  0  0  0
 27 24  2  0  0  0  0
 28 16  1  0  0  0  0
 28 29  1  0  0  0  0
 30 28  1  0  0  0  0
 31 28  1  0  0  0  0
M  RAD  3   2   2   3   3   5   2
M  END
