Coordinates from ORCA-job PhN2+~TsO-_B3LYPG-6-31G_dp-NX-Scan-d89-09-n800
 OpenBabel11261920463D

 31 31  0  0  0  0  0  0  0  0999 V2000
   -4.5528   -2.0920   -1.1535 C   0  0  0  0  0  0  0  0  0  0  0  0
   -5.7995   -2.1781   -1.7898 N   0  0  0  0  0  0  0  0  0  0  0  0
   -6.7379   -2.7809   -2.0560 N   0  0  0  0  0  0  0  0  0  0  0  0
   -3.8391   -0.8998   -1.3399 C   0  0  0  0  0  0  0  0  0  0  0  0
   -2.6003   -0.7650   -0.7249 C   0  0  0  0  0  0  0  0  0  0  0  0
   -2.1014   -1.8054    0.0667 C   0  0  0  0  0  0  0  0  0  0  0  0
   -2.8348   -2.9825    0.2466 C   0  0  0  0  0  0  0  0  0  0  0  0
   -4.0748   -3.1500   -0.3635 C   0  0  0  0  0  0  0  0  0  0  0  0
   -4.2599   -0.1109   -1.9537 H   0  0  0  0  0  0  0  0  0  0  0  0
   -2.0275    0.1468   -0.8573 H   0  0  0  0  0  0  0  0  0  0  0  0
   -1.1353   -1.6962    0.5494 H   0  0  0  0  0  0  0  0  0  0  0  0
   -2.4437   -3.7810    0.8685 H   0  0  0  0  0  0  0  0  0  0  0  0
   -4.6638   -4.0503   -0.2335 H   0  0  0  0  0  0  0  0  0  0  0  0
   -9.7893   -5.6740   -0.9107 C   0  0  0  0  0  0  0  0  0  0  0  0
  -10.7472   -6.6411   -1.2068 C   0  0  0  0  0  0  0  0  0  0  0  0
  -10.4835   -8.0055   -1.0164 C   0  0  0  0  0  0  0  0  0  0  0  0
   -9.2268   -8.3778   -0.5200 C   0  0  0  0  0  0  0  0  0  0  0  0
   -8.2574   -7.4219   -0.2192 C   0  0  0  0  0  0  0  0  0  0  0  0
   -8.5449   -6.0720   -0.4195 C   0  0  0  0  0  0  0  0  0  0  0  0
  -10.0010   -4.6184   -1.0436 H   0  0  0  0  0  0  0  0  0  0  0  0
  -11.7173   -6.3324   -1.5880 H   0  0  0  0  0  0  0  0  0  0  0  0
   -9.0053   -9.4305   -0.3617 H   0  0  0  0  0  0  0  0  0  0  0  0
   -7.2907   -7.7088    0.1791 H   0  0  0  0  0  0  0  0  0  0  0  0
   -7.2965   -4.8343   -0.0665 S   0  0  0  0  0  0  0  0  0  0  0  0
   -7.9899   -3.5887    0.3148 O   0  0  0  0  0  0  0  0  0  0  0  0
   -6.5546   -4.6383   -1.4216 O   0  0  0  0  0  0  0  0  0  0  0  0
   -6.3553   -5.4254    0.9054 O   0  0  0  0  0  0  0  0  0  0  0  0
  -11.5411   -9.0443   -1.3056 C   0  0  0  0  0  0  0  0  0  0  0  0
  -12.1969   -9.1918   -0.4378 H   0  0  0  0  0  0  0  0  0  0  0  0
  -12.1777   -8.7461   -2.1446 H   0  0  0  0  0  0  0  0  0  0  0  0
  -11.0957  -10.0140   -1.5449 H   0  0  0  0  0  0  0  0  0  0  0  0
  1  8  1  0  0  0  0
  2  1  1  0  0  0  0
  3  2  2  0  0  0  0
  4  1  2  0  0  0  0
  4  5  1  0  0  0  0
  5  6  2  0  0  0  0
  6  7  1  0  0  0  0
  6 11  1  0  0  0  0
  7 12  1  0  0  0  0
  8 13  1  0  0  0  0
  8  7  2  0  0  0  0
  9  4  1  0  0  0  0
 10  5  1  0  0  0  0
 14 19  2  0  0  0  0
 15 16  2  0  0  0  0
 15 14  1  0  0  0  0
 16 17  1  0  0  0  0
 17 22  1  0  0  0  0
 17 18  2  0  0  0  0
 18 23  1  0  0  0  0
 19 18  1  0  0  0  0
 19 24  1  0  0  0  0
 20 14  1  0  0  0  0
 21 15  1  0  0  0  0
 24 25  2  0  0  0  0
 24 27  1  0  0  0  0
 26 24  2  0  0  0  0
 28 16  1  0  0  0  0
 28 29  1  0  0  0  0
 30 28  1  0  0  0  0
 31 28  1  0  0  0  0
M  RAD  2   3   2  27   2
M  END
