Coordinates from ORCA-job PhN2+~TsO-_B3LYPG-6-31G_dp-NX-Scan-d89-09-n800
 OpenBabel11261920463D

 31 32  0  0  1  0  0  0  0  0999 V2000
   -5.4945   -1.4181   -0.6435 C   0  0  2  0  0  0  0  0  0  0  0  0
   -6.8055   -1.4070   -0.6518 N   0  0  0  0  0  0  0  0  0  0  0  0
   -7.9403   -1.5021   -0.6518 N   0  0  0  0  0  0  0  0  0  0  0  0
   -4.8609   -1.9792   -1.8537 C   0  0  0  0  0  0  0  0  0  0  0  0
   -4.1668   -3.1161   -1.6943 C   0  0  0  0  0  0  0  0  0  0  0  0
   -4.3122   -3.8011   -0.3639 C   0  0  1  0  0  0  0  0  0  0  0  0
   -4.1720   -2.8257    0.7745 C   0  0  0  0  0  0  0  0  0  0  0  0
   -4.8660   -1.6831    0.6664 C   0  0  0  0  0  0  0  0  0  0  0  0
   -4.9725   -1.4738   -2.8087 H   0  0  0  0  0  0  0  0  0  0  0  0
   -3.5991   -3.5825   -2.4926 H   0  0  0  0  0  0  0  0  0  0  0  0
   -3.6906   -4.6890   -0.2556 H   0  0  0  0  0  0  0  0  0  0  0  0
   -3.6111   -3.0980    1.6624 H   0  0  0  0  0  0  0  0  0  0  0  0
   -4.9884   -0.9752    1.4808 H   0  0  0  0  0  0  0  0  0  0  0  0
   -8.7501   -5.4324   -0.3122 C   0  0  0  0  0  0  0  0  0  0  0  0
   -9.7912   -6.0449   -1.0026 C   0  0  0  0  0  0  0  0  0  0  0  0
   -9.6538   -7.3401   -1.5279 C   0  0  0  0  0  0  0  0  0  0  0  0
   -8.4358   -8.0083   -1.3495 C   0  0  0  0  0  0  0  0  0  0  0  0
   -7.3768   -7.4090   -0.6672 C   0  0  0  0  0  0  0  0  0  0  0  0
   -7.5464   -6.1243   -0.1554 C   0  0  0  0  0  0  0  0  0  0  0  0
   -8.8641   -4.4336    0.0943 H   0  0  0  0  0  0  0  0  0  0  0  0
  -10.7285   -5.5104   -1.1345 H   0  0  0  0  0  0  0  0  0  0  0  0
   -8.3124   -9.0114   -1.7479 H   0  0  0  0  0  0  0  0  0  0  0  0
   -6.4340   -7.9258   -0.5244 H   0  0  0  0  0  0  0  0  0  0  0  0
   -6.2062   -5.3607    0.7400 S   0  0  0  0  0  0  0  0  0  0  0  0
   -6.7475   -4.6518    1.8987 O   0  0  0  0  0  0  0  0  0  0  0  0
   -5.7569   -4.2686   -0.4001 O   0  0  0  0  0  0  0  0  0  0  0  0
   -5.1159   -6.3260    0.9161 O   0  0  0  0  0  0  0  0  0  0  0  0
  -10.8050   -7.9994   -2.2483 C   0  0  0  0  0  0  0  0  0  0  0  0
  -11.5768   -8.3226   -1.5393 H   0  0  0  0  0  0  0  0  0  0  0  0
  -11.2826   -7.3093   -2.9515 H   0  0  0  0  0  0  0  0  0  0  0  0
  -10.4779   -8.8811   -2.8053 H   0  0  0  0  0  0  0  0  0  0  0  0
  1  2  1  1  0  0  0
  1  8  1  0  0  0  0
  3  2  1  0  0  0  0
  4  5  2  0  0  0  0
  4  1  1  0  0  0  0
  5  6  1  0  0  0  0
  6 11  1  1  0  0  0
  6  7  1  0  0  0  0
  7 12  1  0  0  0  0
  8  7  2  0  0  0  0
  8 13  1  0  0  0  0
  9  4  1  0  0  0  0
 10  5  1  0  0  0  0
 14 19  1  0  0  0  0
 14 20  1  0  0  0  0
 15 14  2  0  0  0  0
 16 17  2  0  0  0  0
 16 15  1  0  0  0  0
 17 18  1  0  0  0  0
 18 23  1  0  0  0  0
 18 19  2  0  0  0  0
 19 24  1  0  0  0  0
 21 15  1  0  0  0  0
 22 17  1  0  0  0  0
 24 27  2  0  0  0  0
 24 25  2  0  0  0  0
 26  6  1  0  0  0  0
 26 24  1  0  0  0  0
 28 29  1  0  0  0  0
 28 16  1  0  0  0  0
 30 28  1  0  0  0  0
 31 28  1  0  0  0  0
M  RAD  3   1   2   2   2   3   3
M  END
