Coordinates from ORCA-job PhN2+~TsO-_B3LYPG-6-31G_dp-NX-Scan-d89-09-n800
 OpenBabel11261920463D

 31 32  0  0  1  0  0  0  0  0999 V2000
   -5.3612   -1.3231   -0.7878 C   0  0  2  0  0  0  0  0  0  0  0  0
   -6.4001   -0.5646   -1.0291 N   0  0  0  0  0  0  0  0  0  0  0  0
   -7.3436    0.0407   -1.2362 N   0  0  0  0  0  0  0  0  0  0  0  0
   -4.7699   -2.0784   -1.8803 C   0  0  0  0  0  0  0  0  0  0  0  0
   -4.1800   -3.2505   -1.5854 C   0  0  0  0  0  0  0  0  0  0  0  0
   -4.3847   -3.8139   -0.2155 C   0  0  1  0  0  0  0  0  0  0  0  0
   -4.3796   -2.7661    0.8539 C   0  0  0  0  0  0  0  0  0  0  0  0
   -4.9722   -1.5885    0.5885 C   0  0  0  0  0  0  0  0  0  0  0  0
   -4.8053   -1.6724   -2.8867 H   0  0  0  0  0  0  0  0  0  0  0  0
   -3.6714   -3.8432   -2.3375 H   0  0  0  0  0  0  0  0  0  0  0  0
   -3.7338   -4.6601    0.0032 H   0  0  0  0  0  0  0  0  0  0  0  0
   -4.0159   -3.0137    1.8448 H   0  0  0  0  0  0  0  0  0  0  0  0
   -5.1577   -0.8358    1.3483 H   0  0  0  0  0  0  0  0  0  0  0  0
   -8.8381   -5.7452    0.0321 C   0  0  0  0  0  0  0  0  0  0  0  0
   -9.8914   -6.3264   -0.6669 C   0  0  0  0  0  0  0  0  0  0  0  0
   -9.6834   -7.4324   -1.5070 C   0  0  0  0  0  0  0  0  0  0  0  0
   -8.3854   -7.9456   -1.6287 C   0  0  0  0  0  0  0  0  0  0  0  0
   -7.3159   -7.3741   -0.9403 C   0  0  0  0  0  0  0  0  0  0  0  0
   -7.5539   -6.2738   -0.1181 C   0  0  0  0  0  0  0  0  0  0  0  0
   -9.0020   -4.9026    0.6949 H   0  0  0  0  0  0  0  0  0  0  0  0
  -10.8935   -5.9206   -0.5550 H   0  0  0  0  0  0  0  0  0  0  0  0
   -8.2096   -8.8078   -2.2661 H   0  0  0  0  0  0  0  0  0  0  0  0
   -6.3132   -7.7787   -1.0237 H   0  0  0  0  0  0  0  0  0  0  0  0
   -6.1959   -5.5398    0.7764 S   0  0  0  0  0  0  0  0  0  0  0  0
   -6.7103   -4.9297    2.0033 O   0  0  0  0  0  0  0  0  0  0  0  0
   -5.8042   -4.3700   -0.2985 O   0  0  0  0  0  0  0  0  0  0  0  0
   -5.0833   -6.4935    0.8506 O   0  0  0  0  0  0  0  0  0  0  0  0
  -10.8402   -8.0551   -2.2509 C   0  0  0  0  0  0  0  0  0  0  0  0
  -11.5951   -8.4408   -1.5562 H   0  0  0  0  0  0  0  0  0  0  0  0
  -11.3399   -7.3205   -2.8925 H   0  0  0  0  0  0  0  0  0  0  0  0
  -10.5112   -8.8846   -2.8821 H   0  0  0  0  0  0  0  0  0  0  0  0
  1  2  1  1  0  0  0
  1  8  1  0  0  0  0
  3  2  1  0  0  0  0
  4  5  2  0  0  0  0
  4  1  1  0  0  0  0
  5  6  1  0  0  0  0
  6 11  1  1  0  0  0
  6  7  1  0  0  0  0
  7 12  1  0  0  0  0
  8  7  2  0  0  0  0
  8 13  1  0  0  0  0
  9  4  1  0  0  0  0
 10  5  1  0  0  0  0
 14 20  1  0  0  0  0
 15 21  1  0  0  0  0
 15 14  2  0  0  0  0
 16 15  1  0  0  0  0
 17 16  2  0  0  0  0
 17 18  1  0  0  0  0
 18 19  2  0  0  0  0
 19 14  1  0  0  0  0
 19 24  1  0  0  0  0
 22 17  1  0  0  0  0
 23 18  1  0  0  0  0
 24 27  2  0  0  0  0
 24 25  2  0  0  0  0
 26  6  1  0  0  0  0
 26 24  1  0  0  0  0
 28 29  1  0  0  0  0
 28 16  1  0  0  0  0
 30 28  1  0  0  0  0
 31 28  1  0  0  0  0
M  RAD  3   1   2   2   2   3   3
M  END
