Coordinates from ORCA-job PhN2+~TsO-_B3LYPG-6-31G_dp-NX-Scan-d89-09-n800
 OpenBabel11261920463D

 31 32  0  0  1  0  0  0  0  0999 V2000
   -5.3550   -1.3694   -0.6913 C   0  0  2  0  0  0  0  0  0  0  0  0
   -6.5701   -0.8890   -0.7699 N   0  0  0  0  0  0  0  0  0  0  0  0
   -7.6573   -0.5551   -0.8330 N   0  0  0  0  0  0  0  0  0  0  0  0
   -4.8064   -2.0341   -1.8724 C   0  0  0  0  0  0  0  0  0  0  0  0
   -4.1929   -3.2143   -1.6808 C   0  0  0  0  0  0  0  0  0  0  0  0
   -4.3556   -3.8488   -0.3329 C   0  0  1  0  0  0  0  0  0  0  0  0
   -4.1978   -2.8573    0.7825 C   0  0  0  0  0  0  0  0  0  0  0  0
   -4.8125   -1.6720    0.6327 C   0  0  0  0  0  0  0  0  0  0  0  0
   -4.9009   -1.5622   -2.8460 H   0  0  0  0  0  0  0  0  0  0  0  0
   -3.6946   -3.7516   -2.4801 H   0  0  0  0  0  0  0  0  0  0  0  0
   -3.7615   -4.7516   -0.1981 H   0  0  0  0  0  0  0  0  0  0  0  0
   -3.7061   -3.1493    1.7038 H   0  0  0  0  0  0  0  0  0  0  0  0
   -4.9181   -0.9483    1.4353 H   0  0  0  0  0  0  0  0  0  0  0  0
   -8.8782   -5.5929   -0.1121 C   0  0  0  0  0  0  0  0  0  0  0  0
   -9.8971   -6.2250   -0.8181 C   0  0  0  0  0  0  0  0  0  0  0  0
   -9.6619   -7.4160   -1.5238 C   0  0  0  0  0  0  0  0  0  0  0  0
   -8.3716   -7.9616   -1.5038 C   0  0  0  0  0  0  0  0  0  0  0  0
   -7.3359   -7.3404   -0.8065 C   0  0  0  0  0  0  0  0  0  0  0  0
   -7.6003   -6.1569   -0.1192 C   0  0  0  0  0  0  0  0  0  0  0  0
   -9.0651   -4.6828    0.4467 H   0  0  0  0  0  0  0  0  0  0  0  0
  -10.8938   -5.7908   -0.8180 H   0  0  0  0  0  0  0  0  0  0  0  0
   -8.1750   -8.8881   -2.0358 H   0  0  0  0  0  0  0  0  0  0  0  0
   -6.3401   -7.7694   -0.7801 H   0  0  0  0  0  0  0  0  0  0  0  0
   -6.2865   -5.3573    0.7855 S   0  0  0  0  0  0  0  0  0  0  0  0
   -6.8666   -4.6376    1.9189 O   0  0  0  0  0  0  0  0  0  0  0  0
   -5.8170   -4.2827   -0.3585 O   0  0  0  0  0  0  0  0  0  0  0  0
   -5.1918   -6.3095    1.0043 O   0  0  0  0  0  0  0  0  0  0  0  0
  -10.7834   -8.0933   -2.2738 C   0  0  0  0  0  0  0  0  0  0  0  0
  -11.5755   -8.4181   -1.5895 H   0  0  0  0  0  0  0  0  0  0  0  0
  -11.2440   -7.4120   -2.9980 H   0  0  0  0  0  0  0  0  0  0  0  0
  -10.4290   -8.9731   -2.8166 H   0  0  0  0  0  0  0  0  0  0  0  0
  1  2  1  1  0  0  0
  1  8  1  0  0  0  0
  3  2  1  0  0  0  0
  4  5  2  0  0  0  0
  4  1  1  0  0  0  0
  5  6  1  0  0  0  0
  6 11  1  1  0  0  0
  6  7  1  0  0  0  0
  7 12  1  0  0  0  0
  8  7  2  0  0  0  0
  8 13  1  0  0  0  0
  9  4  1  0  0  0  0
 10  5  1  0  0  0  0
 14 20  1  0  0  0  0
 15 21  1  0  0  0  0
 15 14  2  0  0  0  0
 16 17  2  0  0  0  0
 16 15  1  0  0  0  0
 17 18  1  0  0  0  0
 18 23  1  0  0  0  0
 18 19  2  0  0  0  0
 19 14  1  0  0  0  0
 19 24  1  0  0  0  0
 22 17  1  0  0  0  0
 24 27  2  0  0  0  0
 24 25  2  0  0  0  0
 26  6  1  0  0  0  0
 26 24  1  0  0  0  0
 28 29  1  0  0  0  0
 28 16  1  0  0  0  0
 30 28  1  0  0  0  0
 31 28  1  0  0  0  0
M  RAD  3   1   2   2   2   3   3
M  END
