Coordinates from ORCA-job PhN2+~TsO-_B3LYPG-6-31G_dp-NX-Scan-d89-09-n800
 OpenBabel11261920463D

 31 32  0  0  1  0  0  0  0  0999 V2000
   -5.4414   -1.3857   -0.6385 C   0  0  2  0  0  0  0  0  0  0  0  0
   -6.7357   -1.6097   -0.5839 N   0  0  0  0  0  0  0  0  0  0  0  0
   -7.8212   -1.9434   -0.5291 N   0  0  0  0  0  0  0  0  0  0  0  0
   -4.8189   -1.9537   -1.8671 C   0  0  0  0  0  0  0  0  0  0  0  0
   -4.1886   -3.1264   -1.7179 C   0  0  0  0  0  0  0  0  0  0  0  0
   -4.3547   -3.8015   -0.3814 C   0  0  1  0  0  0  0  0  0  0  0  0
   -4.1192   -2.8297    0.7489 C   0  0  0  0  0  0  0  0  0  0  0  0
   -4.7515   -1.6522    0.6545 C   0  0  0  0  0  0  0  0  0  0  0  0
   -4.8998   -1.4301   -2.8155 H   0  0  0  0  0  0  0  0  0  0  0  0
   -3.6376   -3.6162   -2.5146 H   0  0  0  0  0  0  0  0  0  0  0  0
   -3.7891   -4.7267   -0.2827 H   0  0  0  0  0  0  0  0  0  0  0  0
   -3.5257   -3.1250    1.6085 H   0  0  0  0  0  0  0  0  0  0  0  0
   -4.7945   -0.9244    1.4594 H   0  0  0  0  0  0  0  0  0  0  0  0
   -8.8437   -5.4216   -0.2816 C   0  0  0  0  0  0  0  0  0  0  0  0
   -9.8560   -6.0674   -0.9848 C   0  0  0  0  0  0  0  0  0  0  0  0
   -9.6587   -7.3419   -1.5401 C   0  0  0  0  0  0  0  0  0  0  0  0
   -8.4103   -7.9562   -1.3772 C   0  0  0  0  0  0  0  0  0  0  0  0
   -7.3800   -7.3236   -0.6818 C   0  0  0  0  0  0  0  0  0  0  0  0
   -7.6087   -6.0591   -0.1418 C   0  0  0  0  0  0  0  0  0  0  0  0
   -9.0025   -4.4397    0.1488 H   0  0  0  0  0  0  0  0  0  0  0  0
  -10.8179   -5.5753   -1.1031 H   0  0  0  0  0  0  0  0  0  0  0  0
   -8.2407   -8.9438   -1.7967 H   0  0  0  0  0  0  0  0  0  0  0  0
   -6.4154   -7.8011   -0.5484 H   0  0  0  0  0  0  0  0  0  0  0  0
   -6.3026   -5.2549    0.7681 S   0  0  0  0  0  0  0  0  0  0  0  0
   -6.8814   -4.5269    1.8951 O   0  0  0  0  0  0  0  0  0  0  0  0
   -5.8282   -4.1706   -0.3761 O   0  0  0  0  0  0  0  0  0  0  0  0
   -5.2054   -6.2030    0.9891 O   0  0  0  0  0  0  0  0  0  0  0  0
  -10.7785   -8.0386   -2.2743 C   0  0  0  0  0  0  0  0  0  0  0  0
  -11.5253   -8.4275   -1.5714 H   0  0  0  0  0  0  0  0  0  0  0  0
  -11.2993   -7.3525   -2.9502 H   0  0  0  0  0  0  0  0  0  0  0  0
  -10.4092   -8.8823   -2.8630 H   0  0  0  0  0  0  0  0  0  0  0  0
  1  2  1  1  0  0  0
  1  8  1  0  0  0  0
  2  3  1  0  0  0  0
  4  5  2  0  0  0  0
  4  1  1  0  0  0  0
  5  6  1  0  0  0  0
  6 26  1  0  0  0  0
  6 11  1  1  0  0  0
  6  7  1  0  0  0  0
  7 12  1  0  0  0  0
  8  7  2  0  0  0  0
  8 13  1  0  0  0  0
  9  4  1  0  0  0  0
 10  5  1  0  0  0  0
 14 19  1  0  0  0  0
 14 20  1  0  0  0  0
 15 14  2  0  0  0  0
 16 17  2  0  0  0  0
 16 15  1  0  0  0  0
 17 18  1  0  0  0  0
 18 23  1  0  0  0  0
 18 19  2  0  0  0  0
 19 24  1  0  0  0  0
 21 15  1  0  0  0  0
 22 17  1  0  0  0  0
 24 27  2  0  0  0  0
 24 25  2  0  0  0  0
 26 24  1  0  0  0  0
 28 29  1  0  0  0  0
 28 16  1  0  0  0  0
 30 28  1  0  0  0  0
 31 28  1  0  0  0  0
M  RAD  3   1   2   2   2   3   3
M  END
