Coordinates from ORCA-job PhN2+~TsO-_B3LYPG-6-31G_dp-NX-Scan-d89-09-n800
 OpenBabel11261920463D

 31 31  0  0  0  0  0  0  0  0999 V2000
   -4.0753   -0.4124   -0.4084 C   0  0  0  0  0  0  0  0  0  0  0  0
   -3.8862    0.9144   -0.2236 N   0  0  0  0  0  0  0  0  0  0  0  0
   -3.7250    2.0166   -0.0578 N   0  0  0  0  0  0  0  0  0  0  0  0
   -3.4733   -1.0258   -1.5380 C   0  0  0  0  0  0  0  0  0  0  0  0
   -3.6513   -2.3853   -1.6915 C   0  0  0  0  0  0  0  0  0  0  0  0
   -4.4082   -3.1244   -0.7602 C   0  0  0  0  0  0  0  0  0  0  0  0
   -5.0165   -2.4869    0.3446 C   0  0  0  0  0  0  0  0  0  0  0  0
   -4.8571   -1.1321    0.5389 C   0  0  0  0  0  0  0  0  0  0  0  0
   -2.8922   -0.4335   -2.2365 H   0  0  0  0  0  0  0  0  0  0  0  0
   -3.2011   -2.8902   -2.5393 H   0  0  0  0  0  0  0  0  0  0  0  0
   -4.5142   -4.2029   -0.8609 H   0  0  0  0  0  0  0  0  0  0  0  0
   -5.6416   -3.0827    1.0105 H   0  0  0  0  0  0  0  0  0  0  0  0
   -5.3088   -0.6130    1.3770 H   0  0  0  0  0  0  0  0  0  0  0  0
   -9.3957   -6.2571   -0.1349 C   0  0  0  0  0  0  0  0  0  0  0  0
  -10.3890   -7.1929   -0.4113 C   0  0  0  0  0  0  0  0  0  0  0  0
  -10.0933   -8.3855   -1.0900 C   0  0  0  0  0  0  0  0  0  0  0  0
   -8.7690   -8.6140   -1.4846 C   0  0  0  0  0  0  0  0  0  0  0  0
   -7.7651   -7.6829   -1.2158 C   0  0  0  0  0  0  0  0  0  0  0  0
   -8.0815   -6.5047   -0.5404 C   0  0  0  0  0  0  0  0  0  0  0  0
   -9.6234   -5.3440    0.4044 H   0  0  0  0  0  0  0  0  0  0  0  0
  -11.4106   -6.9999   -0.0917 H   0  0  0  0  0  0  0  0  0  0  0  0
   -8.5191   -9.5353   -2.0054 H   0  0  0  0  0  0  0  0  0  0  0  0
   -6.7366   -7.8626   -1.5090 H   0  0  0  0  0  0  0  0  0  0  0  0
   -6.8036   -5.2774   -0.2358 S   0  0  0  0  0  0  0  0  0  0  0  0
   -7.1190   -4.6810    1.0953 O   0  0  0  0  0  0  0  0  0  0  0  0
   -6.9213   -4.2783   -1.3540 O   0  0  0  0  0  0  0  0  0  0  0  0
   -5.5024   -6.0061   -0.2861 O   0  0  0  0  0  0  0  0  0  0  0  0
  -11.1748   -9.4053   -1.3611 C   0  0  0  0  0  0  0  0  0  0  0  0
  -11.4426   -9.9539   -0.4493 H   0  0  0  0  0  0  0  0  0  0  0  0
  -12.0904   -8.9306   -1.7295 H   0  0  0  0  0  0  0  0  0  0  0  0
  -10.8535  -10.1410   -2.1043 H   0  0  0  0  0  0  0  0  0  0  0  0
  1  2  1  0  0  0  0
  1  8  2  0  0  0  0
  2  3  1  0  0  0  0
  4  1  1  0  0  0  0
  5  4  2  0  0  0  0
  5  6  1  0  0  0  0
  6  7  2  0  0  0  0
  7  8  1  0  0  0  0
  7 12  1  0  0  0  0
  8 13  1  0  0  0  0
  9  4  1  0  0  0  0
 10  5  1  0  0  0  0
 11  6  1  0  0  0  0
 14 20  1  0  0  0  0
 15 14  1  0  0  0  0
 15 21  1  0  0  0  0
 16 15  2  0  0  0  0
 17 18  2  0  0  0  0
 17 16  1  0  0  0  0
 18 19  1  0  0  0  0
 19 24  1  0  0  0  0
 19 14  2  0  0  0  0
 22 17  1  0  0  0  0
 23 18  1  0  0  0  0
 24 25  1  0  0  0  0
 26 24  2  0  0  0  0
 27 24  2  0  0  0  0
 28 16  1  0  0  0  0
 28 29  1  0  0  0  0
 30 28  1  0  0  0  0
 31 28  1  0  0  0  0
M  RAD  3   2   2   3   3  25   2
M  END
