Coordinates from ORCA-job PhN2+~TsO-_B3LYPG-6-31G_dp-NX-Scan-d89-09-n800
 OpenBabel11261920463D

 31 31  0  0  0  0  0  0  0  0999 V2000
   -4.2255   -0.4573   -0.4991 C   0  0  0  0  0  0  0  0  0  0  0  0
   -4.0773    0.8817   -0.4172 N   0  0  0  0  0  0  0  0  0  0  0  0
   -3.9426    1.9990   -0.3394 N   0  0  0  0  0  0  0  0  0  0  0  0
   -3.7530   -1.1215   -1.6644 C   0  0  0  0  0  0  0  0  0  0  0  0
   -3.8516   -2.4948   -1.7027 C   0  0  0  0  0  0  0  0  0  0  0  0
   -4.4063   -3.2120   -0.6201 C   0  0  0  0  0  0  0  0  0  0  0  0
   -4.9050   -2.5255    0.5131 C   0  0  0  0  0  0  0  0  0  0  0  0
   -4.8205   -1.1550    0.5925 C   0  0  0  0  0  0  0  0  0  0  0  0
   -3.3152   -0.5504   -2.4759 H   0  0  0  0  0  0  0  0  0  0  0  0
   -3.4897   -3.0331   -2.5719 H   0  0  0  0  0  0  0  0  0  0  0  0
   -4.3844   -4.2978   -0.6108 H   0  0  0  0  0  0  0  0  0  0  0  0
   -5.3930   -3.1025    1.2943 H   0  0  0  0  0  0  0  0  0  0  0  0
   -5.1875   -0.6051    1.4520 H   0  0  0  0  0  0  0  0  0  0  0  0
   -9.3149   -6.2212   -0.1068 C   0  0  0  0  0  0  0  0  0  0  0  0
  -10.3325   -7.1074   -0.4508 C   0  0  0  0  0  0  0  0  0  0  0  0
  -10.0579   -8.2871   -1.1599 C   0  0  0  0  0  0  0  0  0  0  0  0
   -8.7295   -8.5550   -1.5150 C   0  0  0  0  0  0  0  0  0  0  0  0
   -7.7012   -7.6746   -1.1784 C   0  0  0  0  0  0  0  0  0  0  0  0
   -7.9978   -6.5080   -0.4740 C   0  0  0  0  0  0  0  0  0  0  0  0
   -9.5257   -5.3181    0.4557 H   0  0  0  0  0  0  0  0  0  0  0  0
  -11.3569   -6.8851   -0.1609 H   0  0  0  0  0  0  0  0  0  0  0  0
   -8.4965   -9.4678   -2.0581 H   0  0  0  0  0  0  0  0  0  0  0  0
   -6.6704   -7.8864   -1.4405 H   0  0  0  0  0  0  0  0  0  0  0  0
   -6.6852   -5.3451   -0.0786 S   0  0  0  0  0  0  0  0  0  0  0  0
   -7.0562   -4.7213    1.2209 O   0  0  0  0  0  0  0  0  0  0  0  0
   -6.6963   -4.3516   -1.2195 O   0  0  0  0  0  0  0  0  0  0  0  0
   -5.4171   -6.1261   -0.0545 O   0  0  0  0  0  0  0  0  0  0  0  0
  -11.1669   -9.2534   -1.5051 C   0  0  0  0  0  0  0  0  0  0  0  0
  -11.4814   -9.8291   -0.6255 H   0  0  0  0  0  0  0  0  0  0  0  0
  -12.0532   -8.7296   -1.8786 H   0  0  0  0  0  0  0  0  0  0  0  0
  -10.8505   -9.9693   -2.2695 H   0  0  0  0  0  0  0  0  0  0  0  0
  1  2  1  0  0  0  0
  1  8  2  0  0  0  0
  2  3  1  0  0  0  0
  4  1  1  0  0  0  0
  5  4  2  0  0  0  0
  5  6  1  0  0  0  0
  6 11  1  0  0  0  0
  6  7  2  0  0  0  0
  7  8  1  0  0  0  0
  7 12  1  0  0  0  0
  8 13  1  0  0  0  0
  9  4  1  0  0  0  0
 10  5  1  0  0  0  0
 14 20  1  0  0  0  0
 15 21  1  0  0  0  0
 15 14  1  0  0  0  0
 16 15  2  0  0  0  0
 17 18  2  0  0  0  0
 17 16  1  0  0  0  0
 18 19  1  0  0  0  0
 19 14  2  0  0  0  0
 19 24  1  0  0  0  0
 22 17  1  0  0  0  0
 23 18  1  0  0  0  0
 24 27  2  0  0  0  0
 24 25  1  0  0  0  0
 26 24  2  0  0  0  0
 28 16  1  0  0  0  0
 28 29  1  0  0  0  0
 30 28  1  0  0  0  0
 31 28  1  0  0  0  0
M  RAD  3   2   2   3   3  25   2
M  END
