Coordinates from ORCA-job PhN2+~TsO-_B3LYPG-6-31G_dp-NX-Scan-d89-09-n800
 OpenBabel11261920463D

 31 32  0  0  1  0  0  0  0  0999 V2000
   -5.3580   -1.3734   -0.6818 C   0  0  2  0  0  0  0  0  0  0  0  0
   -6.5936   -0.9448   -0.7430 N   0  0  0  0  0  0  0  0  0  0  0  0
   -7.6953   -0.6598   -0.7906 N   0  0  0  0  0  0  0  0  0  0  0  0
   -4.8094   -2.0273   -1.8709 C   0  0  0  0  0  0  0  0  0  0  0  0
   -4.1929   -3.2072   -1.6887 C   0  0  0  0  0  0  0  0  0  0  0  0
   -4.3531   -3.8491   -0.3435 C   0  0  1  0  0  0  0  0  0  0  0  0
   -4.1823   -2.8631    0.7756 C   0  0  0  0  0  0  0  0  0  0  0  0
   -4.7997   -1.6782    0.6369 C   0  0  0  0  0  0  0  0  0  0  0  0
   -4.9078   -1.5488   -2.8409 H   0  0  0  0  0  0  0  0  0  0  0  0
   -3.6924   -3.7378   -2.4913 H   0  0  0  0  0  0  0  0  0  0  0  0
   -3.7640   -4.7562   -0.2161 H   0  0  0  0  0  0  0  0  0  0  0  0
   -3.6778   -3.1585    1.6890 H   0  0  0  0  0  0  0  0  0  0  0  0
   -4.8983   -0.9573    1.4430 H   0  0  0  0  0  0  0  0  0  0  0  0
   -8.8770   -5.5728   -0.1328 C   0  0  0  0  0  0  0  0  0  0  0  0
   -9.8935   -6.2083   -0.8390 C   0  0  0  0  0  0  0  0  0  0  0  0
   -9.6597   -7.4107   -1.5257 C   0  0  0  0  0  0  0  0  0  0  0  0
   -8.3731   -7.9638   -1.4868 C   0  0  0  0  0  0  0  0  0  0  0  0
   -7.3396   -7.3392   -0.7892 C   0  0  0  0  0  0  0  0  0  0  0  0
   -7.6027   -6.1448   -0.1206 C   0  0  0  0  0  0  0  0  0  0  0  0
   -9.0632   -4.6534    0.4109 H   0  0  0  0  0  0  0  0  0  0  0  0
  -10.8872   -5.7677   -0.8543 H   0  0  0  0  0  0  0  0  0  0  0  0
   -8.1775   -8.8987   -2.0044 H   0  0  0  0  0  0  0  0  0  0  0  0
   -6.3466   -7.7736   -0.7485 H   0  0  0  0  0  0  0  0  0  0  0  0
   -6.2916   -5.3407    0.7842 S   0  0  0  0  0  0  0  0  0  0  0  0
   -6.8755   -4.6133    1.9106 O   0  0  0  0  0  0  0  0  0  0  0  0
   -5.8172   -4.2725   -0.3642 O   0  0  0  0  0  0  0  0  0  0  0  0
   -5.1984   -6.2923    1.0124 O   0  0  0  0  0  0  0  0  0  0  0  0
  -10.7793   -8.0925   -2.2745 C   0  0  0  0  0  0  0  0  0  0  0  0
  -11.5674   -8.4239   -1.5886 H   0  0  0  0  0  0  0  0  0  0  0  0
  -11.2461   -7.4121   -2.9954 H   0  0  0  0  0  0  0  0  0  0  0  0
  -10.4214   -8.9691   -2.8202 H   0  0  0  0  0  0  0  0  0  0  0  0
  1  2  1  1  0  0  0
  1  8  1  0  0  0  0
  3  2  1  0  0  0  0
  4  5  2  0  0  0  0
  4  1  1  0  0  0  0
  5  6  1  0  0  0  0
  6 11  1  1  0  0  0
  6  7  1  0  0  0  0
  7 12  1  0  0  0  0
  8  7  2  0  0  0  0
  8 13  1  0  0  0  0
  9  4  1  0  0  0  0
 10  5  1  0  0  0  0
 14 19  1  0  0  0  0
 14 20  1  0  0  0  0
 15 14  2  0  0  0  0
 16 17  2  0  0  0  0
 16 15  1  0  0  0  0
 17 18  1  0  0  0  0
 18 23  1  0  0  0  0
 18 19  2  0  0  0  0
 19 24  1  0  0  0  0
 21 15  1  0  0  0  0
 22 17  1  0  0  0  0
 24 27  2  0  0  0  0
 24 25  2  0  0  0  0
 26  6  1  0  0  0  0
 26 24  1  0  0  0  0
 28 29  1  0  0  0  0
 28 16  1  0  0  0  0
 30 28  1  0  0  0  0
 31 28  1  0  0  0  0
M  RAD  3   1   2   2   2   3   3
M  END
