Coordinates from ORCA-job PhN2+~TsO-_B3LYPG-6-31G_dp-NX-Scan-d89-09-n800
 OpenBabel11261920463D

 31 32  0  0  1  0  0  0  0  0999 V2000
   -5.3681   -1.3028   -1.0039 C   0  0  2  0  0  0  0  0  0  0  0  0
   -6.2033   -0.4661   -1.5673 N   0  0  0  0  0  0  0  0  0  0  0  0
   -6.9625    0.2268   -2.0619 N   0  0  0  0  0  0  0  0  0  0  0  0
   -4.5210   -2.1337   -1.8380 C   0  0  0  0  0  0  0  0  0  0  0  0
   -3.9903   -3.2486   -1.3041 C   0  0  0  0  0  0  0  0  0  0  0  0
   -4.4528   -3.7124    0.0374 C   0  0  1  0  0  0  0  0  0  0  0  0
   -4.8570   -2.6026    0.9526 C   0  0  0  0  0  0  0  0  0  0  0  0
   -5.3936   -1.4824    0.4360 C   0  0  0  0  0  0  0  0  0  0  0  0
   -4.3219   -1.8254   -2.8596 H   0  0  0  0  0  0  0  0  0  0  0  0
   -3.3215   -3.8855   -1.8726 H   0  0  0  0  0  0  0  0  0  0  0  0
   -3.7539   -4.4141    0.4951 H   0  0  0  0  0  0  0  0  0  0  0  0
   -4.8260   -2.7738    2.0228 H   0  0  0  0  0  0  0  0  0  0  0  0
   -5.8284   -0.7045    1.0560 H   0  0  0  0  0  0  0  0  0  0  0  0
   -8.6910   -6.0320    0.2997 C   0  0  0  0  0  0  0  0  0  0  0  0
   -9.8310   -6.5105   -0.3388 C   0  0  0  0  0  0  0  0  0  0  0  0
   -9.7375   -7.3844   -1.4338 C   0  0  0  0  0  0  0  0  0  0  0  0
   -8.4651   -7.7733   -1.8732 C   0  0  0  0  0  0  0  0  0  0  0  0
   -7.3112   -7.3051   -1.2470 C   0  0  0  0  0  0  0  0  0  0  0  0
   -7.4373   -6.4326   -0.1671 C   0  0  0  0  0  0  0  0  0  0  0  0
   -8.7617   -5.3697    1.1556 H   0  0  0  0  0  0  0  0  0  0  0  0
  -10.8104   -6.2057    0.0203 H   0  0  0  0  0  0  0  0  0  0  0  0
   -8.3757   -8.4551   -2.7146 H   0  0  0  0  0  0  0  0  0  0  0  0
   -6.3270   -7.6181   -1.5773 H   0  0  0  0  0  0  0  0  0  0  0  0
   -5.9696   -5.8292    0.6441 S   0  0  0  0  0  0  0  0  0  0  0  0
   -6.2998   -5.4158    2.0110 O   0  0  0  0  0  0  0  0  0  0  0  0
   -5.7213   -4.5037   -0.2792 O   0  0  0  0  0  0  0  0  0  0  0  0
   -4.8645   -6.7674    0.4253 O   0  0  0  0  0  0  0  0  0  0  0  0
  -10.9857   -7.8968   -2.1112 C   0  0  0  0  0  0  0  0  0  0  0  0
  -11.6132   -8.4590   -1.4099 H   0  0  0  0  0  0  0  0  0  0  0  0
  -11.5943   -7.0709   -2.4961 H   0  0  0  0  0  0  0  0  0  0  0  0
  -10.7453   -8.5563   -2.9491 H   0  0  0  0  0  0  0  0  0  0  0  0
  1  2  1  6  0  0  0
  1  8  1  0  0  0  0
  3  2  1  0  0  0  0
  4  5  2  0  0  0  0
  4  1  1  0  0  0  0
  5  6  1  0  0  0  0
  6 11  1  1  0  0  0
  6  7  1  0  0  0  0
  7 12  1  0  0  0  0
  8  7  2  0  0  0  0
  8 13  1  0  0  0  0
  9  4  1  0  0  0  0
 10  5  1  0  0  0  0
 14 20  1  0  0  0  0
 15 21  1  0  0  0  0
 15 14  2  0  0  0  0
 16 15  1  0  0  0  0
 17 16  2  0  0  0  0
 17 18  1  0  0  0  0
 18 19  2  0  0  0  0
 19 14  1  0  0  0  0
 19 24  1  0  0  0  0
 22 17  1  0  0  0  0
 23 18  1  0  0  0  0
 24 25  2  0  0  0  0
 26  6  1  0  0  0  0
 26 24  1  0  0  0  0
 27 24  2  0  0  0  0
 28 16  1  0  0  0  0
 28 29  1  0  0  0  0
 30 28  1  0  0  0  0
 31 28  1  0  0  0  0
M  RAD  3   1   2   2   2   3   3
M  END
