Coordinates from ORCA-job PhN2+~TsO-_B3LYPG-6-31G_dp-NX-Scan-d89-09-n800
 OpenBabel11261920463D

 31 32  0  0  1  0  0  0  0  0999 V2000
   -5.4195   -1.3771   -0.9612 C   0  0  2  0  0  0  0  0  0  0  0  0
   -6.3976   -0.6591   -1.4523 N   0  0  0  0  0  0  0  0  0  0  0  0
   -7.2837   -0.0831   -1.8804 N   0  0  0  0  0  0  0  0  0  0  0  0
   -4.5966   -2.1647   -1.8624 C   0  0  0  0  0  0  0  0  0  0  0  0
   -3.9950   -3.2636   -1.3725 C   0  0  0  0  0  0  0  0  0  0  0  0
   -4.3871   -3.7467   -0.0142 C   0  0  1  0  0  0  0  0  0  0  0  0
   -4.6900   -2.6394    0.9446 C   0  0  0  0  0  0  0  0  0  0  0  0
   -5.2976   -1.5339    0.4785 C   0  0  0  0  0  0  0  0  0  0  0  0
   -4.4764   -1.8390   -2.8910 H   0  0  0  0  0  0  0  0  0  0  0  0
   -3.3316   -3.8704   -1.9786 H   0  0  0  0  0  0  0  0  0  0  0  0
   -3.6937   -4.4887    0.3831 H   0  0  0  0  0  0  0  0  0  0  0  0
   -4.5327   -2.7997    2.0052 H   0  0  0  0  0  0  0  0  0  0  0  0
   -5.6846   -0.7568    1.1304 H   0  0  0  0  0  0  0  0  0  0  0  0
   -8.7270   -5.9329    0.2522 C   0  0  0  0  0  0  0  0  0  0  0  0
   -9.8449   -6.4265   -0.4135 C   0  0  0  0  0  0  0  0  0  0  0  0
   -9.7162   -7.3490   -1.4640 C   0  0  0  0  0  0  0  0  0  0  0  0
   -8.4311   -7.7707   -1.8309 C   0  0  0  0  0  0  0  0  0  0  0  0
   -7.2990   -7.2877   -1.1767 C   0  0  0  0  0  0  0  0  0  0  0  0
   -7.4598   -6.3670   -0.1421 C   0  0  0  0  0  0  0  0  0  0  0  0
   -8.8256   -5.2322    1.0741 H   0  0  0  0  0  0  0  0  0  0  0  0
  -10.8347   -6.0950   -0.1110 H   0  0  0  0  0  0  0  0  0  0  0  0
   -8.3146   -8.4901   -2.6369 H   0  0  0  0  0  0  0  0  0  0  0  0
   -6.3059   -7.6256   -1.4508 H   0  0  0  0  0  0  0  0  0  0  0  0
   -6.0205   -5.7435    0.7050 S   0  0  0  0  0  0  0  0  0  0  0  0
   -6.4097   -5.2562    2.0308 O   0  0  0  0  0  0  0  0  0  0  0  0
   -5.7050   -4.4754   -0.2774 O   0  0  0  0  0  0  0  0  0  0  0  0
   -4.9219   -6.7079    0.5878 O   0  0  0  0  0  0  0  0  0  0  0  0
  -10.9406   -7.8794   -2.1702 C   0  0  0  0  0  0  0  0  0  0  0  0
  -11.5862   -8.4333   -1.4785 H   0  0  0  0  0  0  0  0  0  0  0  0
  -11.5415   -7.0636   -2.5872 H   0  0  0  0  0  0  0  0  0  0  0  0
  -10.6716   -8.5524   -2.9885 H   0  0  0  0  0  0  0  0  0  0  0  0
  1  2  1  6  0  0  0
  1  8  1  0  0  0  0
  3  2  1  0  0  0  0
  4  5  2  0  0  0  0
  4  1  1  0  0  0  0
  5  6  1  0  0  0  0
  6 11  1  1  0  0  0
  6  7  1  0  0  0  0
  7 12  1  0  0  0  0
  8  7  2  0  0  0  0
  8 13  1  0  0  0  0
  9  4  1  0  0  0  0
 10  5  1  0  0  0  0
 14 20  1  0  0  0  0
 15 21  1  0  0  0  0
 15 14  2  0  0  0  0
 16 15  1  0  0  0  0
 17 16  2  0  0  0  0
 17 18  1  0  0  0  0
 18 19  2  0  0  0  0
 19 14  1  0  0  0  0
 19 24  1  0  0  0  0
 22 17  1  0  0  0  0
 23 18  1  0  0  0  0
 24 25  2  0  0  0  0
 26  6  1  0  0  0  0
 26 24  1  0  0  0  0
 27 24  2  0  0  0  0
 28 29  1  0  0  0  0
 28 16  1  0  0  0  0
 30 28  1  0  0  0  0
 31 28  1  0  0  0  0
M  RAD  3   1   2   2   2   3   3
M  END
