Coordinates from ORCA-job PhN2+~TsO-_B3LYPG-6-31G_dp-NX-Scan-d89-09-n800
 OpenBabel11261920463D

 31 31  0  0  0  0  0  0  0  0999 V2000
   -3.7962   -0.4210   -0.1709 C   0  0  0  0  0  0  0  0  0  0  0  0
   -3.5894    0.8846    0.1331 N   0  0  0  0  0  0  0  0  0  0  0  0
   -3.4394    1.9668    0.3973 N   0  0  0  0  0  0  0  0  0  0  0  0
   -2.8674   -1.0708   -1.0223 C   0  0  0  0  0  0  0  0  0  0  0  0
   -3.1190   -2.3937   -1.3331 C   0  0  0  0  0  0  0  0  0  0  0  0
   -4.2557   -3.0473   -0.8233 C   0  0  0  0  0  0  0  0  0  0  0  0
   -5.1578   -2.3816    0.0311 C   0  0  0  0  0  0  0  0  0  0  0  0
   -4.9428   -1.0604    0.3697 C   0  0  0  0  0  0  0  0  0  0  0  0
   -2.0077   -0.5343   -1.4076 H   0  0  0  0  0  0  0  0  0  0  0  0
   -2.4362   -2.9252   -1.9879 H   0  0  0  0  0  0  0  0  0  0  0  0
   -4.5046   -4.0774   -1.0909 H   0  0  0  0  0  0  0  0  0  0  0  0
   -6.0429   -2.9244    0.3845 H   0  0  0  0  0  0  0  0  0  0  0  0
   -5.6215   -0.5115    1.0138 H   0  0  0  0  0  0  0  0  0  0  0  0
   -9.5856   -6.3020   -0.1989 C   0  0  0  0  0  0  0  0  0  0  0  0
  -10.4396   -7.4031   -0.2026 C   0  0  0  0  0  0  0  0  0  0  0  0
  -10.1034   -8.5791   -0.8889 C   0  0  0  0  0  0  0  0  0  0  0  0
   -8.8827   -8.6201   -1.5747 C   0  0  0  0  0  0  0  0  0  0  0  0
   -8.0197   -7.5236   -1.5787 C   0  0  0  0  0  0  0  0  0  0  0  0
   -8.3734   -6.3641   -0.8895 C   0  0  0  0  0  0  0  0  0  0  0  0
   -9.8411   -5.3990    0.3453 H   0  0  0  0  0  0  0  0  0  0  0  0
  -11.3827   -7.3512    0.3371 H   0  0  0  0  0  0  0  0  0  0  0  0
   -8.6018   -9.5241   -2.1107 H   0  0  0  0  0  0  0  0  0  0  0  0
   -7.0681   -7.5608   -2.0972 H   0  0  0  0  0  0  0  0  0  0  0  0
   -7.3027   -4.9186   -0.9474 S   0  0  0  0  0  0  0  0  0  0  0  0
   -7.4717   -4.2633    0.3916 O   0  0  0  0  0  0  0  0  0  0  0  0
   -7.7531   -4.0673   -2.0752 O   0  0  0  0  0  0  0  0  0  0  0  0
   -5.9202   -5.4701   -1.1424 O   0  0  0  0  0  0  0  0  0  0  0  0
  -11.0223   -9.7784   -0.8618 C   0  0  0  0  0  0  0  0  0  0  0  0
  -10.9071  -10.3485    0.0696 H   0  0  0  0  0  0  0  0  0  0  0  0
  -12.0739   -9.4796   -0.9271 H   0  0  0  0  0  0  0  0  0  0  0  0
  -10.8122  -10.4615   -1.6903 H   0  0  0  0  0  0  0  0  0  0  0  0
  1  2  1  0  0  0  0
  1  8  2  0  0  0  0
  2  3  1  0  0  0  0
  4  1  1  0  0  0  0
  5  4  2  0  0  0  0
  5  6  1  0  0  0  0
  6  7  2  0  0  0  0
  7  8  1  0  0  0  0
  7 12  1  0  0  0  0
  8 13  1  0  0  0  0
  9  4  1  0  0  0  0
 10  5  1  0  0  0  0
 11  6  1  0  0  0  0
 14 20  1  0  0  0  0
 15 14  1  0  0  0  0
 15 21  1  0  0  0  0
 16 28  1  0  0  0  0
 16 15  2  0  0  0  0
 17 16  1  0  0  0  0
 18 17  2  0  0  0  0
 18 19  1  0  0  0  0
 19 14  2  0  0  0  0
 22 17  1  0  0  0  0
 23 18  1  0  0  0  0
 24 19  1  0  0  0  0
 24 25  1  0  0  0  0
 26 24  2  0  0  0  0
 27 24  2  0  0  0  0
 28 29  1  0  0  0  0
 30 28  1  0  0  0  0
 31 28  1  0  0  0  0
M  RAD  3   2   2   3   3  25   2
M  END
