Coordinates from ORCA-job PhN2+~TsO-_B3LYPG-6-31G_dp-NX-Scan-d89-09-n800
 OpenBabel11261920463D

 31 31  0  0  0  0  0  0  0  0999 V2000
   -3.6943   -0.4986    0.0031 C   0  0  0  0  0  0  0  0  0  0  0  0
   -3.3965    0.7312    0.4918 N   0  0  0  0  0  0  0  0  0  0  0  0
   -3.1726    1.7502    0.9105 N   0  0  0  0  0  0  0  0  0  0  0  0
   -2.7656   -1.1227   -0.8674 C   0  0  0  0  0  0  0  0  0  0  0  0
   -3.1073   -2.3669   -1.3628 C   0  0  0  0  0  0  0  0  0  0  0  0
   -4.3315   -2.9663   -1.0149 C   0  0  0  0  0  0  0  0  0  0  0  0
   -5.2325   -2.3300   -0.1376 C   0  0  0  0  0  0  0  0  0  0  0  0
   -4.9282   -1.0884    0.3845 C   0  0  0  0  0  0  0  0  0  0  0  0
   -1.8369   -0.6268   -1.1261 H   0  0  0  0  0  0  0  0  0  0  0  0
   -2.4258   -2.8760   -2.0367 H   0  0  0  0  0  0  0  0  0  0  0  0
   -4.6471   -3.9324   -1.4157 H   0  0  0  0  0  0  0  0  0  0  0  0
   -6.1804   -2.8328    0.0962 H   0  0  0  0  0  0  0  0  0  0  0  0
   -5.5991   -0.5645    1.0570 H   0  0  0  0  0  0  0  0  0  0  0  0
   -9.6876   -6.2483   -0.3514 C   0  0  0  0  0  0  0  0  0  0  0  0
  -10.4675   -7.3970   -0.2343 C   0  0  0  0  0  0  0  0  0  0  0  0
  -10.0502   -8.6162   -0.7881 C   0  0  0  0  0  0  0  0  0  0  0  0
   -8.8250   -8.6509   -1.4664 C   0  0  0  0  0  0  0  0  0  0  0  0
   -8.0359   -7.5069   -1.5906 C   0  0  0  0  0  0  0  0  0  0  0  0
   -8.4692   -6.3050   -1.0316 C   0  0  0  0  0  0  0  0  0  0  0  0
  -10.0073   -5.3106    0.0906 H   0  0  0  0  0  0  0  0  0  0  0  0
  -11.4161   -7.3485    0.2957 H   0  0  0  0  0  0  0  0  0  0  0  0
   -8.4829   -9.5868   -1.9025 H   0  0  0  0  0  0  0  0  0  0  0  0
   -7.0813   -7.5363   -2.1040 H   0  0  0  0  0  0  0  0  0  0  0  0
   -7.4978   -4.8049   -1.2483 S   0  0  0  0  0  0  0  0  0  0  0  0
   -7.6663   -4.0552    0.0410 O   0  0  0  0  0  0  0  0  0  0  0  0
   -8.0419   -4.0854   -2.4232 O   0  0  0  0  0  0  0  0  0  0  0  0
   -6.0887   -5.2841   -1.4457 O   0  0  0  0  0  0  0  0  0  0  0  0
  -10.8868   -9.8642   -0.6287 C   0  0  0  0  0  0  0  0  0  0  0  0
  -10.6891  -10.3575    0.3324 H   0  0  0  0  0  0  0  0  0  0  0  0
  -11.9574   -9.6360   -0.6582 H   0  0  0  0  0  0  0  0  0  0  0  0
  -10.6732  -10.5925   -1.4171 H   0  0  0  0  0  0  0  0  0  0  0  0
  1  8  1  0  0  0  0
  1  2  1  0  0  0  0
  2  3  1  0  0  0  0
  4  1  2  0  0  0  0
  5  6  2  0  0  0  0
  5  4  1  0  0  0  0
  6  7  1  0  0  0  0
  7 12  1  0  0  0  0
  7  8  2  0  0  0  0
  8 13  1  0  0  0  0
  9  4  1  0  0  0  0
 10  5  1  0  0  0  0
 11  6  1  0  0  0  0
 14 15  1  0  0  0  0
 14 20  1  0  0  0  0
 15 21  1  0  0  0  0
 16 28  1  0  0  0  0
 16 15  2  0  0  0  0
 17 16  1  0  0  0  0
 18 17  2  0  0  0  0
 18 19  1  0  0  0  0
 19 14  2  0  0  0  0
 22 17  1  0  0  0  0
 23 18  1  0  0  0  0
 24 19  1  0  0  0  0
 24 25  1  0  0  0  0
 26 24  2  0  0  0  0
 27 24  2  0  0  0  0
 28 29  1  0  0  0  0
 30 28  1  0  0  0  0
 31 28  1  0  0  0  0
M  RAD  3   2   2   3   3  25   2
M  END
