Coordinates from ORCA-job PhN2+~TsO-_B3LYPG-6-31G_dp-NX-Scan-d89-09-n800
 OpenBabel11261920463D

 31 32  0  0  1  0  0  0  0  0999 V2000
   -4.8409   -0.7834   -0.9119 C   0  0  0  0  0  0  0  0  0  0  0  0
   -4.7862    0.4874   -1.2385 N   0  0  0  0  0  0  0  0  0  0  0  0
   -4.7349    1.5967   -1.5205 N   0  0  0  0  0  0  0  0  0  0  0  0
   -4.3899   -1.7970   -1.8457 C   0  0  0  0  0  0  0  0  0  0  0  0
   -4.3978   -3.0966   -1.4940 C   0  0  0  0  0  0  0  0  0  0  0  0
   -4.8703   -3.5779   -0.1589 C   0  0  1  0  0  0  0  0  0  0  0  0
   -5.3321   -2.4816    0.7512 C   0  0  0  0  0  0  0  0  0  0  0  0
   -5.3254   -1.1834    0.3961 C   0  0  0  0  0  0  0  0  0  0  0  0
   -4.0337   -1.4831   -2.8218 H   0  0  0  0  0  0  0  0  0  0  0  0
   -4.0518   -3.8543   -2.1889 H   0  0  0  0  0  0  0  0  0  0  0  0
   -4.1044   -4.2023    0.3186 H   0  0  0  0  0  0  0  0  0  0  0  0
   -5.6888   -2.7842    1.7296 H   0  0  0  0  0  0  0  0  0  0  0  0
   -5.6675   -0.4133    1.0805 H   0  0  0  0  0  0  0  0  0  0  0  0
   -8.7873   -6.2716    0.2999 C   0  0  0  0  0  0  0  0  0  0  0  0
   -9.9174   -6.8564   -0.2624 C   0  0  0  0  0  0  0  0  0  0  0  0
   -9.8116   -7.7636   -1.3292 C   0  0  0  0  0  0  0  0  0  0  0  0
   -8.5364   -8.0773   -1.8176 C   0  0  0  0  0  0  0  0  0  0  0  0
   -7.3916   -7.5015   -1.2686 C   0  0  0  0  0  0  0  0  0  0  0  0
   -7.5311   -6.5980   -0.2162 C   0  0  0  0  0  0  0  0  0  0  0  0
   -8.8674   -5.5826    1.1335 H   0  0  0  0  0  0  0  0  0  0  0  0
  -10.8984   -6.6098    0.1349 H   0  0  0  0  0  0  0  0  0  0  0  0
   -8.4367   -8.7848   -2.6361 H   0  0  0  0  0  0  0  0  0  0  0  0
   -6.4037   -7.7539   -1.6369 H   0  0  0  0  0  0  0  0  0  0  0  0
   -6.0756   -5.8582    0.4956 S   0  0  0  0  0  0  0  0  0  0  0  0
   -6.3451   -5.4692    1.8828 O   0  0  0  0  0  0  0  0  0  0  0  0
   -6.0270   -4.5108   -0.4326 O   0  0  0  0  0  0  0  0  0  0  0  0
   -4.9037   -6.6841    0.1930 O   0  0  0  0  0  0  0  0  0  0  0  0
  -11.0494   -8.3848   -1.9299 C   0  0  0  0  0  0  0  0  0  0  0  0
  -11.6494   -8.8910   -1.1655 H   0  0  0  0  0  0  0  0  0  0  0  0
  -11.6897   -7.6223   -2.3887 H   0  0  0  0  0  0  0  0  0  0  0  0
  -10.7965   -9.1176   -2.7005 H   0  0  0  0  0  0  0  0  0  0  0  0
  1  8  1  0  0  0  0
  2  1  1  0  0  0  0
  3  2  1  0  0  0  0
  4  5  1  0  0  0  0
  4  1  2  0  0  0  0
  5  6  1  0  0  0  0
  6 11  1  1  0  0  0
  6  7  1  0  0  0  0
  7 12  1  0  0  0  0
  8  7  2  0  0  0  0
  8 13  1  0  0  0  0
  9  4  1  0  0  0  0
 10  5  1  0  0  0  0
 14 20  1  0  0  0  0
 15 21  1  0  0  0  0
 15 14  2  0  0  0  0
 16 15  1  0  0  0  0
 17 16  2  0  0  0  0
 17 18  1  0  0  0  0
 18 19  2  0  0  0  0
 19 14  1  0  0  0  0
 19 24  1  0  0  0  0
 22 17  1  0  0  0  0
 23 18  1  0  0  0  0
 24 25  2  0  0  0  0
 26  6  1  0  0  0  0
 26 24  1  0  0  0  0
 27 24  2  0  0  0  0
 28 16  1  0  0  0  0
 28 29  1  0  0  0  0
 30 28  1  0  0  0  0
 31 28  1  0  0  0  0
M  RAD  3   2   2   3   3   5   2
M  END
