Coordinates from ORCA-job PhN2+~TsO-_B3LYPG-6-31G_dp-NX-Scan-d89-09-n800
 OpenBabel11261920463D

 31 31  0  0  0  0  0  0  0  0999 V2000
   -3.7887   -0.4235   -0.1609 C   0  0  0  0  0  0  0  0  0  0  0  0
   -3.5761    0.8787    0.1532 N   0  0  0  0  0  0  0  0  0  0  0  0
   -3.4213    1.9582    0.4257 N   0  0  0  0  0  0  0  0  0  0  0  0
   -2.8592   -1.0728   -1.0119 C   0  0  0  0  0  0  0  0  0  0  0  0
   -3.1166   -2.3923   -1.3328 C   0  0  0  0  0  0  0  0  0  0  0  0
   -4.2596   -3.0427   -0.8334 C   0  0  0  0  0  0  0  0  0  0  0  0
   -5.1623   -2.3777    0.0209 C   0  0  0  0  0  0  0  0  0  0  0  0
   -4.9415   -1.0601    0.3696 C   0  0  0  0  0  0  0  0  0  0  0  0
   -1.9945   -0.5386   -1.3893 H   0  0  0  0  0  0  0  0  0  0  0  0
   -2.4333   -2.9231   -1.9877 H   0  0  0  0  0  0  0  0  0  0  0  0
   -4.5130   -4.0697   -1.1085 H   0  0  0  0  0  0  0  0  0  0  0  0
   -6.0519   -2.9182    0.3668 H   0  0  0  0  0  0  0  0  0  0  0  0
   -5.6202   -0.5118    1.0142 H   0  0  0  0  0  0  0  0  0  0  0  0
   -9.5914   -6.2999   -0.2062 C   0  0  0  0  0  0  0  0  0  0  0  0
  -10.4410   -7.4044   -0.2027 C   0  0  0  0  0  0  0  0  0  0  0  0
  -10.1011   -8.5828   -0.8831 C   0  0  0  0  0  0  0  0  0  0  0  0
   -8.8811   -8.6227   -1.5703 C   0  0  0  0  0  0  0  0  0  0  0  0
   -8.0224   -7.5228   -1.5814 C   0  0  0  0  0  0  0  0  0  0  0  0
   -8.3798   -6.3610   -0.8980 C   0  0  0  0  0  0  0  0  0  0  0  0
   -9.8498   -5.3950    0.3334 H   0  0  0  0  0  0  0  0  0  0  0  0
  -11.3836   -7.3533    0.3379 H   0  0  0  0  0  0  0  0  0  0  0  0
   -8.5973   -9.5285   -2.1018 H   0  0  0  0  0  0  0  0  0  0  0  0
   -7.0714   -7.5590   -2.1010 H   0  0  0  0  0  0  0  0  0  0  0  0
   -7.3151   -4.9115   -0.9655 S   0  0  0  0  0  0  0  0  0  0  0  0
   -7.4842   -4.2502    0.3706 O   0  0  0  0  0  0  0  0  0  0  0  0
   -7.7712   -4.0681   -2.0969 O   0  0  0  0  0  0  0  0  0  0  0  0
   -5.9308   -5.4585   -1.1600 O   0  0  0  0  0  0  0  0  0  0  0  0
  -11.0152   -9.7856   -0.8483 C   0  0  0  0  0  0  0  0  0  0  0  0
  -10.8959  -10.3508    0.0855 H   0  0  0  0  0  0  0  0  0  0  0  0
  -12.0681   -9.4911   -0.9128 H   0  0  0  0  0  0  0  0  0  0  0  0
  -10.8042  -10.4718   -1.6740 H   0  0  0  0  0  0  0  0  0  0  0  0
  1  2  1  0  0  0  0
  1  8  2  0  0  0  0
  2  3  1  0  0  0  0
  4  1  1  0  0  0  0
  5  4  2  0  0  0  0
  5  6  1  0  0  0  0
  6  7  2  0  0  0  0
  7 12  1  0  0  0  0
  7  8  1  0  0  0  0
  8 13  1  0  0  0  0
  9  4  1  0  0  0  0
 10  5  1  0  0  0  0
 11  6  1  0  0  0  0
 14 15  1  0  0  0  0
 14 20  1  0  0  0  0
 15 21  1  0  0  0  0
 16 28  1  0  0  0  0
 16 15  2  0  0  0  0
 17 16  1  0  0  0  0
 18 17  2  0  0  0  0
 18 19  1  0  0  0  0
 19 14  2  0  0  0  0
 22 17  1  0  0  0  0
 23 18  1  0  0  0  0
 24 19  1  0  0  0  0
 24 25  1  0  0  0  0
 26 24  2  0  0  0  0
 27 24  2  0  0  0  0
 28 29  1  0  0  0  0
 30 28  1  0  0  0  0
 31 28  1  0  0  0  0
M  RAD  3   2   2   3   3  25   2
M  END
