Coordinates from ORCA-job PhN2+~TsO-_B3LYPG-6-31G_dp-NX-Scan-d89-09-n800
 OpenBabel11261920463D

 31 32  0  0  1  0  0  0  0  0999 V2000
   -5.4148   -1.3697   -0.9715 C   0  0  2  0  0  0  0  0  0  0  0  0
   -6.3729   -0.6369   -1.4798 N   0  0  0  0  0  0  0  0  0  0  0  0
   -7.2414   -0.0460   -1.9236 N   0  0  0  0  0  0  0  0  0  0  0  0
   -4.5817   -2.1627   -1.8580 C   0  0  0  0  0  0  0  0  0  0  0  0
   -3.9888   -3.2612   -1.3569 C   0  0  0  0  0  0  0  0  0  0  0  0
   -4.3956   -3.7404   -0.0018 C   0  0  1  0  0  0  0  0  0  0  0  0
   -4.7204   -2.6320    0.9482 C   0  0  0  0  0  0  0  0  0  0  0  0
   -5.3195   -1.5270    0.4699 C   0  0  0  0  0  0  0  0  0  0  0  0
   -4.4468   -1.8409   -2.8860 H   0  0  0  0  0  0  0  0  0  0  0  0
   -3.3201   -3.8715   -1.9536 H   0  0  0  0  0  0  0  0  0  0  0  0
   -3.7008   -4.4742    0.4083 H   0  0  0  0  0  0  0  0  0  0  0  0
   -4.5853   -2.7917    2.0119 H   0  0  0  0  0  0  0  0  0  0  0  0
   -5.7185   -0.7498    1.1143 H   0  0  0  0  0  0  0  0  0  0  0  0
   -8.7187   -5.9508    0.2635 C   0  0  0  0  0  0  0  0  0  0  0  0
   -9.8414   -6.4399   -0.3975 C   0  0  0  0  0  0  0  0  0  0  0  0
   -9.7198   -7.3511   -1.4588 C   0  0  0  0  0  0  0  0  0  0  0  0
   -8.4371   -7.7658   -1.8414 C   0  0  0  0  0  0  0  0  0  0  0  0
   -7.3004   -7.2873   -1.1920 C   0  0  0  0  0  0  0  0  0  0  0  0
   -7.4541   -6.3779   -0.1465 C   0  0  0  0  0  0  0  0  0  0  0  0
   -8.8115   -5.2590    1.0936 H   0  0  0  0  0  0  0  0  0  0  0  0
  -10.8292   -6.1140   -0.0828 H   0  0  0  0  0  0  0  0  0  0  0  0
   -8.3261   -8.4764   -2.6560 H   0  0  0  0  0  0  0  0  0  0  0  0
   -6.3089   -7.6200   -1.4784 H   0  0  0  0  0  0  0  0  0  0  0  0
   -6.0087   -5.7604    0.6945 S   0  0  0  0  0  0  0  0  0  0  0  0
   -6.3869   -5.2861    2.0284 O   0  0  0  0  0  0  0  0  0  0  0  0
   -5.7037   -4.4819   -0.2775 O   0  0  0  0  0  0  0  0  0  0  0  0
   -4.9099   -6.7219    0.5588 O   0  0  0  0  0  0  0  0  0  0  0  0
  -10.9493   -7.8767   -2.1597 C   0  0  0  0  0  0  0  0  0  0  0  0
  -11.5889   -8.4370   -1.4676 H   0  0  0  0  0  0  0  0  0  0  0  0
  -11.5542   -7.0580   -2.5650 H   0  0  0  0  0  0  0  0  0  0  0  0
  -10.6862   -8.5424   -2.9858 H   0  0  0  0  0  0  0  0  0  0  0  0
  1  2  1  6  0  0  0
  1  8  1  0  0  0  0
  3  2  1  0  0  0  0
  4  5  2  0  0  0  0
  4  1  1  0  0  0  0
  5  6  1  0  0  0  0
  6 11  1  1  0  0  0
  6  7  1  0  0  0  0
  7 12  1  0  0  0  0
  8  7  2  0  0  0  0
  8 13  1  0  0  0  0
  9  4  1  0  0  0  0
 10  5  1  0  0  0  0
 14 20  1  0  0  0  0
 15 21  1  0  0  0  0
 15 14  2  0  0  0  0
 16 15  1  0  0  0  0
 17 16  2  0  0  0  0
 17 18  1  0  0  0  0
 18 19  2  0  0  0  0
 19 14  1  0  0  0  0
 19 24  1  0  0  0  0
 22 17  1  0  0  0  0
 23 18  1  0  0  0  0
 24 25  2  0  0  0  0
 26  6  1  0  0  0  0
 26 24  1  0  0  0  0
 27 24  2  0  0  0  0
 28 29  1  0  0  0  0
 28 16  1  0  0  0  0
 30 28  1  0  0  0  0
 31 28  1  0  0  0  0
M  RAD  3   1   2   2   2   3   3
M  END
