Coordinates from ORCA-job PhN2+~TsO-_B3LYPG-6-31G_dp-NX-Scan-d89-09-n800
 OpenBabel11261920463D

 31 32  0  0  1  0  0  0  0  0999 V2000
   -5.4085   -1.3693   -0.6493 C   0  0  2  0  0  0  0  0  0  0  0  0
   -6.6897   -1.6642   -0.5703 N   0  0  0  0  0  0  0  0  0  0  0  0
   -7.7409   -2.0872   -0.4936 N   0  0  0  0  0  0  0  0  0  0  0  0
   -4.7955   -1.9559   -1.8796 C   0  0  0  0  0  0  0  0  0  0  0  0
   -4.2022   -3.1464   -1.7241 C   0  0  0  0  0  0  0  0  0  0  0  0
   -4.3791   -3.8043   -0.3793 C   0  0  1  0  0  0  0  0  0  0  0  0
   -4.1004   -2.8280    0.7386 C   0  0  0  0  0  0  0  0  0  0  0  0
   -4.6980   -1.6333    0.6386 C   0  0  0  0  0  0  0  0  0  0  0  0
   -4.8587   -1.4335   -2.8300 H   0  0  0  0  0  0  0  0  0  0  0  0
   -3.6644   -3.6575   -2.5168 H   0  0  0  0  0  0  0  0  0  0  0  0
   -3.8416   -4.7455   -0.2767 H   0  0  0  0  0  0  0  0  0  0  0  0
   -3.4997   -3.1312    1.5906 H   0  0  0  0  0  0  0  0  0  0  0  0
   -4.7034   -0.8925    1.4328 H   0  0  0  0  0  0  0  0  0  0  0  0
   -8.8960   -5.4317   -0.2437 C   0  0  0  0  0  0  0  0  0  0  0  0
   -9.8933   -6.0915   -0.9555 C   0  0  0  0  0  0  0  0  0  0  0  0
   -9.6601   -7.3437   -1.5462 C   0  0  0  0  0  0  0  0  0  0  0  0
   -8.3913   -7.9217   -1.4090 C   0  0  0  0  0  0  0  0  0  0  0  0
   -7.3762   -7.2750   -0.7049 C   0  0  0  0  0  0  0  0  0  0  0  0
   -7.6400   -6.0323   -0.1306 C   0  0  0  0  0  0  0  0  0  0  0  0
   -9.0815   -4.4680    0.2154 H   0  0  0  0  0  0  0  0  0  0  0  0
  -10.8718   -5.6280   -1.0525 H   0  0  0  0  0  0  0  0  0  0  0  0
   -8.1942   -8.8925   -1.8548 H   0  0  0  0  0  0  0  0  0  0  0  0
   -6.3968   -7.7263   -0.5896 H   0  0  0  0  0  0  0  0  0  0  0  0
   -6.3518   -5.2100    0.7890 S   0  0  0  0  0  0  0  0  0  0  0  0
   -6.9509   -4.4786    1.9027 O   0  0  0  0  0  0  0  0  0  0  0  0
   -5.8659   -4.1243   -0.3510 O   0  0  0  0  0  0  0  0  0  0  0  0
   -5.2518   -6.1501    1.0295 O   0  0  0  0  0  0  0  0  0  0  0  0
  -10.7632   -8.0567   -2.2898 C   0  0  0  0  0  0  0  0  0  0  0  0
  -11.4882   -8.4929   -1.5916 H   0  0  0  0  0  0  0  0  0  0  0  0
  -11.3150   -7.3693   -2.9392 H   0  0  0  0  0  0  0  0  0  0  0  0
  -10.3715   -8.8691   -2.9076 H   0  0  0  0  0  0  0  0  0  0  0  0
  1  2  1  1  0  0  0
  1  8  1  0  0  0  0
  2  3  1  0  0  0  0
  4  5  2  0  0  0  0
  4  1  1  0  0  0  0
  5  6  1  0  0  0  0
  6 26  1  0  0  0  0
  6 11  1  1  0  0  0
  6  7  1  0  0  0  0
  7 12  1  0  0  0  0
  8  7  2  0  0  0  0
  8 13  1  0  0  0  0
  9  4  1  0  0  0  0
 10  5  1  0  0  0  0
 14 19  1  0  0  0  0
 14 20  1  0  0  0  0
 15 14  2  0  0  0  0
 16 17  2  0  0  0  0
 16 15  1  0  0  0  0
 17 18  1  0  0  0  0
 18 23  1  0  0  0  0
 18 19  2  0  0  0  0
 19 24  1  0  0  0  0
 21 15  1  0  0  0  0
 22 17  1  0  0  0  0
 24 27  2  0  0  0  0
 24 25  2  0  0  0  0
 26 24  1  0  0  0  0
 28 29  1  0  0  0  0
 28 16  1  0  0  0  0
 30 28  1  0  0  0  0
 31 28  1  0  0  0  0
M  RAD  3   1   2   2   2   3   3
M  END
