Coordinates from ORCA-job PhN2+~TsO-_B3LYPG-6-31G_dp-NX-Scan-d89-09-n800
 OpenBabel11261920463D

 31 32  0  0  1  0  0  0  0  0999 V2000
   -5.1864   -1.0824   -1.0061 C   0  0  0  0  0  0  0  0  0  0  0  0
   -5.6741    0.0066   -1.5488 N   0  0  0  0  0  0  0  0  0  0  0  0
   -6.1187    0.9431   -2.0276 N   0  0  0  0  0  0  0  0  0  0  0  0
   -4.4403   -2.0169   -1.8228 C   0  0  0  0  0  0  0  0  0  0  0  0
   -4.1045   -3.2158   -1.3125 C   0  0  0  0  0  0  0  0  0  0  0  0
   -4.6129   -3.6641    0.0169 C   0  0  1  0  0  0  0  0  0  0  0  0
   -5.0855   -2.5573    0.9010 C   0  0  0  0  0  0  0  0  0  0  0  0
   -5.4240   -1.3567    0.3970 C   0  0  0  0  0  0  0  0  0  0  0  0
   -4.1471   -1.7182   -2.8240 H   0  0  0  0  0  0  0  0  0  0  0  0
   -3.5269   -3.9260   -1.8946 H   0  0  0  0  0  0  0  0  0  0  0  0
   -3.9008   -4.3251    0.5175 H   0  0  0  0  0  0  0  0  0  0  0  0
   -5.2416   -2.7862    1.9494 H   0  0  0  0  0  0  0  0  0  0  0  0
   -5.8540   -0.5754    1.0161 H   0  0  0  0  0  0  0  0  0  0  0  0
   -8.6982   -6.1675    0.3252 C   0  0  0  0  0  0  0  0  0  0  0  0
   -9.8485   -6.6682   -0.2764 C   0  0  0  0  0  0  0  0  0  0  0  0
   -9.7737   -7.5247   -1.3867 C   0  0  0  0  0  0  0  0  0  0  0  0
   -8.5092   -7.8742   -1.8787 C   0  0  0  0  0  0  0  0  0  0  0  0
   -7.3449   -7.3829   -1.2903 C   0  0  0  0  0  0  0  0  0  0  0  0
   -7.4530   -6.5279   -0.1945 C   0  0  0  0  0  0  0  0  0  0  0  0
   -8.7543   -5.5188    1.1924 H   0  0  0  0  0  0  0  0  0  0  0  0
  -10.8211   -6.3950    0.1239 H   0  0  0  0  0  0  0  0  0  0  0  0
   -8.4338   -8.5428   -2.7318 H   0  0  0  0  0  0  0  0  0  0  0  0
   -6.3659   -7.6645   -1.6616 H   0  0  0  0  0  0  0  0  0  0  0  0
   -5.9718   -5.8943    0.5665 S   0  0  0  0  0  0  0  0  0  0  0  0
   -6.2455   -5.5432    1.9633 O   0  0  0  0  0  0  0  0  0  0  0  0
   -5.8276   -4.5222   -0.3107 O   0  0  0  0  0  0  0  0  0  0  0  0
   -4.8424   -6.7753    0.2553 O   0  0  0  0  0  0  0  0  0  0  0  0
  -11.0328   -8.0566   -2.0277 C   0  0  0  0  0  0  0  0  0  0  0  0
  -11.6521   -8.5922   -1.2992 H   0  0  0  0  0  0  0  0  0  0  0  0
  -11.6443   -7.2418   -2.4321 H   0  0  0  0  0  0  0  0  0  0  0  0
  -10.8060   -8.7440   -2.8468 H   0  0  0  0  0  0  0  0  0  0  0  0
  1  8  1  0  0  0  0
  2  1  1  0  0  0  0
  3  2  1  0  0  0  0
  4  5  1  0  0  0  0
  4  1  2  0  0  0  0
  5  6  1  0  0  0  0
  6 11  1  1  0  0  0
  6  7  1  0  0  0  0
  7 12  1  0  0  0  0
  8  7  2  0  0  0  0
  8 13  1  0  0  0  0
  9  4  1  0  0  0  0
 10  5  1  0  0  0  0
 14 20  1  0  0  0  0
 15 21  1  0  0  0  0
 15 14  2  0  0  0  0
 16 15  1  0  0  0  0
 17 16  2  0  0  0  0
 17 18  1  0  0  0  0
 18 19  2  0  0  0  0
 19 14  1  0  0  0  0
 19 24  1  0  0  0  0
 22 17  1  0  0  0  0
 23 18  1  0  0  0  0
 24 25  2  0  0  0  0
 26  6  1  0  0  0  0
 26 24  1  0  0  0  0
 27 24  2  0  0  0  0
 28 16  1  0  0  0  0
 28 29  1  0  0  0  0
 30 28  1  0  0  0  0
 31 28  1  0  0  0  0
M  RAD  3   2   2   3   3   5   2
M  END
