Coordinates from ORCA-job PhN2+~TsO-_B3LYPG-6-31G_dp-NX-Scan-d89-09-n800
 OpenBabel11261920463D

 31 31  0  0  0  0  0  0  0  0999 V2000
   -3.7693   -0.4315   -0.1337 C   0  0  0  0  0  0  0  0  0  0  0  0
   -3.5412    0.8611    0.2083 N   0  0  0  0  0  0  0  0  0  0  0  0
   -3.3738    1.9326    0.5041 N   0  0  0  0  0  0  0  0  0  0  0  0
   -2.8389   -1.0786   -0.9853 C   0  0  0  0  0  0  0  0  0  0  0  0
   -3.1117   -2.3878   -1.3343 C   0  0  0  0  0  0  0  0  0  0  0  0
   -4.2707   -3.0301   -0.8619 C   0  0  0  0  0  0  0  0  0  0  0  0
   -5.1741   -2.3679   -0.0061 C   0  0  0  0  0  0  0  0  0  0  0  0
   -4.9381   -1.0606    0.3704 C   0  0  0  0  0  0  0  0  0  0  0  0
   -1.9617   -0.5505   -1.3418 H   0  0  0  0  0  0  0  0  0  0  0  0
   -2.4279   -2.9165   -1.9903 H   0  0  0  0  0  0  0  0  0  0  0  0
   -4.5358   -4.0483   -1.1576 H   0  0  0  0  0  0  0  0  0  0  0  0
   -6.0752   -2.9021    0.3198 H   0  0  0  0  0  0  0  0  0  0  0  0
   -5.6162   -0.5146    1.0177 H   0  0  0  0  0  0  0  0  0  0  0  0
   -9.6071   -6.2935   -0.2270 C   0  0  0  0  0  0  0  0  0  0  0  0
  -10.4451   -7.4066   -0.2045 C   0  0  0  0  0  0  0  0  0  0  0  0
  -10.0942   -8.5919   -0.8673 C   0  0  0  0  0  0  0  0  0  0  0  0
   -8.8753   -8.6297   -1.5564 C   0  0  0  0  0  0  0  0  0  0  0  0
   -8.0282   -7.5212   -1.5865 C   0  0  0  0  0  0  0  0  0  0  0  0
   -8.3963   -6.3527   -0.9205 C   0  0  0  0  0  0  0  0  0  0  0  0
   -9.8742   -5.3831    0.2989 H   0  0  0  0  0  0  0  0  0  0  0  0
  -11.3871   -7.3569    0.3371 H   0  0  0  0  0  0  0  0  0  0  0  0
   -8.5833   -9.5405   -2.0747 H   0  0  0  0  0  0  0  0  0  0  0  0
   -7.0779   -7.5554   -2.1077 H   0  0  0  0  0  0  0  0  0  0  0  0
   -7.3477   -4.8929   -1.0136 S   0  0  0  0  0  0  0  0  0  0  0  0
   -7.5167   -4.2159    0.3147 O   0  0  0  0  0  0  0  0  0  0  0  0
   -7.8194   -4.0706   -2.1537 O   0  0  0  0  0  0  0  0  0  0  0  0
   -5.9586   -5.4280   -1.2078 O   0  0  0  0  0  0  0  0  0  0  0  0
  -10.9958   -9.8033   -0.8122 C   0  0  0  0  0  0  0  0  0  0  0  0
  -10.8665  -10.3549    0.1284 H   0  0  0  0  0  0  0  0  0  0  0  0
  -12.0520   -9.5203   -0.8756 H   0  0  0  0  0  0  0  0  0  0  0  0
  -10.7816  -10.4984   -1.6297 H   0  0  0  0  0  0  0  0  0  0  0  0
  1  2  1  0  0  0  0
  1  8  2  0  0  0  0
  2  3  1  0  0  0  0
  4  1  1  0  0  0  0
  5  4  2  0  0  0  0
  5  6  1  0  0  0  0
  6  7  2  0  0  0  0
  7 12  1  0  0  0  0
  7  8  1  0  0  0  0
  8 13  1  0  0  0  0
  9  4  1  0  0  0  0
 10  5  1  0  0  0  0
 11  6  1  0  0  0  0
 14 15  1  0  0  0  0
 14 20  1  0  0  0  0
 15 21  1  0  0  0  0
 16 28  1  0  0  0  0
 16 15  2  0  0  0  0
 17 16  1  0  0  0  0
 18 17  2  0  0  0  0
 18 19  1  0  0  0  0
 19 14  2  0  0  0  0
 22 17  1  0  0  0  0
 23 18  1  0  0  0  0
 24 19  1  0  0  0  0
 24 25  1  0  0  0  0
 26 24  2  0  0  0  0
 27 24  2  0  0  0  0
 28 29  1  0  0  0  0
 30 28  1  0  0  0  0
 31 28  1  0  0  0  0
M  RAD  3   2   2   3   3  25   2
M  END
