Coordinates from ORCA-job PhN2+~TsO-_B3LYPG-6-31G_dp-NX-Scan-d89-09-n800
 OpenBabel11261920463D

 31 31  0  0  0  0  0  0  0  0999 V2000
   -3.7150   -0.4716   -0.0424 C   0  0  0  0  0  0  0  0  0  0  0  0
   -3.4387    0.7813    0.3978 N   0  0  0  0  0  0  0  0  0  0  0  0
   -3.2323    1.8197    0.7758 N   0  0  0  0  0  0  0  0  0  0  0  0
   -2.7867   -1.1035   -0.9076 C   0  0  0  0  0  0  0  0  0  0  0  0
   -3.1072   -2.3714   -1.3548 C   0  0  0  0  0  0  0  0  0  0  0  0
   -4.3106   -2.9870   -0.9650 C   0  0  0  0  0  0  0  0  0  0  0  0
   -5.2114   -2.3419   -0.0938 C   0  0  0  0  0  0  0  0  0  0  0  0
   -4.9280   -1.0764    0.3805 C   0  0  0  0  0  0  0  0  0  0  0  0
   -1.8745   -0.5954   -1.1993 H   0  0  0  0  0  0  0  0  0  0  0  0
   -2.4257   -2.8870   -2.0235 H   0  0  0  0  0  0  0  0  0  0  0  0
   -4.6109   -3.9716   -1.3314 H   0  0  0  0  0  0  0  0  0  0  0  0
   -6.1445   -2.8563    0.1709 H   0  0  0  0  0  0  0  0  0  0  0  0
   -5.6005   -0.5448    1.0453 H   0  0  0  0  0  0  0  0  0  0  0  0
   -9.6627   -6.2645   -0.3091 C   0  0  0  0  0  0  0  0  0  0  0  0
  -10.4622   -7.4025   -0.2247 C   0  0  0  0  0  0  0  0  0  0  0  0
  -10.0669   -8.6118   -0.8150 C   0  0  0  0  0  0  0  0  0  0  0  0
   -8.8431   -8.6479   -1.4955 C   0  0  0  0  0  0  0  0  0  0  0  0
   -8.0343   -7.5145   -1.5872 C   0  0  0  0  0  0  0  0  0  0  0  0
   -8.4462   -6.3223   -0.9928 C   0  0  0  0  0  0  0  0  0  0  0  0
   -9.9652   -5.3347    0.1609 H   0  0  0  0  0  0  0  0  0  0  0  0
  -11.4092   -7.3533    0.3083 H   0  0  0  0  0  0  0  0  0  0  0  0
   -8.5175   -9.5766   -1.9591 H   0  0  0  0  0  0  0  0  0  0  0  0
   -7.0806   -7.5456   -2.1024 H   0  0  0  0  0  0  0  0  0  0  0  0
   -7.4494   -4.8338   -1.1679 S   0  0  0  0  0  0  0  0  0  0  0  0
   -7.6151   -4.1102    0.1365 O   0  0  0  0  0  0  0  0  0  0  0  0
   -7.9728   -4.0778   -2.3298 O   0  0  0  0  0  0  0  0  0  0  0  0
   -6.0468   -5.3308   -1.3673 O   0  0  0  0  0  0  0  0  0  0  0  0
  -10.9263   -9.8486   -0.6924 C   0  0  0  0  0  0  0  0  0  0  0  0
  -10.7599  -10.3575    0.2664 H   0  0  0  0  0  0  0  0  0  0  0  0
  -11.9923   -9.6030   -0.7444 H   0  0  0  0  0  0  0  0  0  0  0  0
  -10.7052  -10.5694   -1.4855 H   0  0  0  0  0  0  0  0  0  0  0  0
  1  8  1  0  0  0  0
  1  2  1  0  0  0  0
  2  3  1  0  0  0  0
  4  1  2  0  0  0  0
  5  6  2  0  0  0  0
  5  4  1  0  0  0  0
  6  7  1  0  0  0  0
  7 12  1  0  0  0  0
  7  8  2  0  0  0  0
  8 13  1  0  0  0  0
  9  4  1  0  0  0  0
 10  5  1  0  0  0  0
 11  6  1  0  0  0  0
 14 15  1  0  0  0  0
 14 20  1  0  0  0  0
 15 21  1  0  0  0  0
 16 28  1  0  0  0  0
 16 15  2  0  0  0  0
 17 16  1  0  0  0  0
 18 17  2  0  0  0  0
 18 19  1  0  0  0  0
 19 14  2  0  0  0  0
 22 17  1  0  0  0  0
 23 18  1  0  0  0  0
 24 19  1  0  0  0  0
 24 25  1  0  0  0  0
 26 24  2  0  0  0  0
 27 24  2  0  0  0  0
 28 29  1  0  0  0  0
 30 28  1  0  0  0  0
 31 28  1  0  0  0  0
M  RAD  3   2   2   3   3  25   2
M  END
