Coordinates from ORCA-job PhN2+~TsO-_B3LYPG-6-31G_dp-NX-Scan-d89-09-n800
 OpenBabel11261920463D

 31 32  0  0  1  0  0  0  0  0999 V2000
   -5.4649   -1.3980   -0.6286 C   0  0  2  0  0  0  0  0  0  0  0  0
   -6.7684   -1.5532   -0.5896 N   0  0  0  0  0  0  0  0  0  0  0  0
   -7.8758   -1.8108   -0.5489 N   0  0  0  0  0  0  0  0  0  0  0  0
   -4.8413   -1.9535   -1.8572 C   0  0  0  0  0  0  0  0  0  0  0  0
   -4.1842   -3.1130   -1.7148 C   0  0  0  0  0  0  0  0  0  0  0  0
   -4.3378   -3.8012   -0.3846 C   0  0  1  0  0  0  0  0  0  0  0  0
   -4.1318   -2.8343    0.7543 C   0  0  0  0  0  0  0  0  0  0  0  0
   -4.7890   -1.6698    0.6660 C   0  0  0  0  0  0  0  0  0  0  0  0
   -4.9381   -1.4298   -2.8040 H   0  0  0  0  0  0  0  0  0  0  0  0
   -3.6278   -3.5871   -2.5169 H   0  0  0  0  0  0  0  0  0  0  0  0
   -3.7513   -4.7140   -0.2906 H   0  0  0  0  0  0  0  0  0  0  0  0
   -3.5435   -3.1253    1.6188 H   0  0  0  0  0  0  0  0  0  0  0  0
   -4.8577   -0.9535    1.4795 H   0  0  0  0  0  0  0  0  0  0  0  0
   -8.8031   -5.4150   -0.3129 C   0  0  0  0  0  0  0  0  0  0  0  0
   -9.8256   -6.0506   -1.0104 C   0  0  0  0  0  0  0  0  0  0  0  0
   -9.6559   -7.3416   -1.5362 C   0  0  0  0  0  0  0  0  0  0  0  0
   -8.4244   -7.9826   -1.3504 C   0  0  0  0  0  0  0  0  0  0  0  0
   -7.3838   -7.3606   -0.6605 C   0  0  0  0  0  0  0  0  0  0  0  0
   -7.5854   -6.0800   -0.1491 C   0  0  0  0  0  0  0  0  0  0  0  0
   -8.9410   -4.4195    0.0935 H   0  0  0  0  0  0  0  0  0  0  0  0
  -10.7739   -5.5372   -1.1476 H   0  0  0  0  0  0  0  0  0  0  0  0
   -8.2759   -8.9825   -1.7482 H   0  0  0  0  0  0  0  0  0  0  0  0
   -6.4315   -7.8575   -0.5108 H   0  0  0  0  0  0  0  0  0  0  0  0
   -6.2672   -5.2884    0.7542 S   0  0  0  0  0  0  0  0  0  0  0  0
   -6.8327   -4.5617    1.8893 O   0  0  0  0  0  0  0  0  0  0  0  0
   -5.8009   -4.2062   -0.3930 O   0  0  0  0  0  0  0  0  0  0  0  0
   -5.1728   -6.2423    0.9636 O   0  0  0  0  0  0  0  0  0  0  0  0
  -10.7873   -8.0262   -2.2642 C   0  0  0  0  0  0  0  0  0  0  0  0
  -11.5475   -8.3831   -1.5587 H   0  0  0  0  0  0  0  0  0  0  0  0
  -11.2873   -7.3419   -2.9573 H   0  0  0  0  0  0  0  0  0  0  0  0
  -10.4341   -8.8900   -2.8334 H   0  0  0  0  0  0  0  0  0  0  0  0
  1  2  1  1  0  0  0
  1  8  1  0  0  0  0
  2  3  1  0  0  0  0
  4  5  2  0  0  0  0
  4  1  1  0  0  0  0
  5  6  1  0  0  0  0
  6 11  1  1  0  0  0
  6  7  1  0  0  0  0
  7 12  1  0  0  0  0
  8  7  2  0  0  0  0
  8 13  1  0  0  0  0
  9  4  1  0  0  0  0
 10  5  1  0  0  0  0
 14 19  1  0  0  0  0
 14 20  1  0  0  0  0
 15 14  2  0  0  0  0
 16 17  2  0  0  0  0
 16 15  1  0  0  0  0
 17 18  1  0  0  0  0
 18 23  1  0  0  0  0
 18 19  2  0  0  0  0
 19 24  1  0  0  0  0
 21 15  1  0  0  0  0
 22 17  1  0  0  0  0
 24 27  2  0  0  0  0
 24 25  2  0  0  0  0
 26  6  1  0  0  0  0
 26 24  1  0  0  0  0
 28 29  1  0  0  0  0
 28 16  1  0  0  0  0
 30 28  1  0  0  0  0
 31 28  1  0  0  0  0
M  RAD  3   1   2   2   2   3   3
M  END
