Coordinates from ORCA-job PhN2+~TsO-_B3LYPG-6-31G_dp-NX-Scan-d89-09-n800
 OpenBabel11261920463D

 31 32  0  0  1  0  0  0  0  0999 V2000
   -5.0827   -0.9777   -0.9881 C   0  0  0  0  0  0  0  0  0  0  0  0
   -5.3942    0.1981   -1.4780 N   0  0  0  0  0  0  0  0  0  0  0  0
   -5.6773    1.2181   -1.9090 N   0  0  0  0  0  0  0  0  0  0  0  0
   -4.4144   -1.9515   -1.8260 C   0  0  0  0  0  0  0  0  0  0  0  0
   -4.1833   -3.1901   -1.3535 C   0  0  0  0  0  0  0  0  0  0  0  0
   -4.6933   -3.6405   -0.0248 C   0  0  1  0  0  0  0  0  0  0  0  0
   -5.1761   -2.5360    0.8579 C   0  0  0  0  0  0  0  0  0  0  0  0
   -5.4089   -1.2971    0.3875 C   0  0  0  0  0  0  0  0  0  0  0  0
   -4.0908   -1.6518   -2.8176 H   0  0  0  0  0  0  0  0  0  0  0  0
   -3.6688   -3.9266   -1.9615 H   0  0  0  0  0  0  0  0  0  0  0  0
   -3.9689   -4.2870    0.4800 H   0  0  0  0  0  0  0  0  0  0  0  0
   -5.4064   -2.7918    1.8861 H   0  0  0  0  0  0  0  0  0  0  0  0
   -5.8202   -0.5163    1.0199 H   0  0  0  0  0  0  0  0  0  0  0  0
   -8.7199   -6.2150    0.3268 C   0  0  0  0  0  0  0  0  0  0  0  0
   -9.8672   -6.7379   -0.2615 C   0  0  0  0  0  0  0  0  0  0  0  0
   -9.7884   -7.5999   -1.3672 C   0  0  0  0  0  0  0  0  0  0  0  0
   -8.5228   -7.9323   -1.8682 C   0  0  0  0  0  0  0  0  0  0  0  0
   -7.3614   -7.4188   -1.2932 C   0  0  0  0  0  0  0  0  0  0  0  0
   -7.4737   -6.5587   -0.2018 C   0  0  0  0  0  0  0  0  0  0  0  0
   -8.7790   -5.5617    1.1903 H   0  0  0  0  0  0  0  0  0  0  0  0
  -10.8405   -6.4777    0.1458 H   0  0  0  0  0  0  0  0  0  0  0  0
   -8.4442   -8.6050   -2.7177 H   0  0  0  0  0  0  0  0  0  0  0  0
   -6.3813   -7.6869   -1.6715 H   0  0  0  0  0  0  0  0  0  0  0  0
   -5.9964   -5.8964    0.5415 S   0  0  0  0  0  0  0  0  0  0  0  0
   -6.2613   -5.5430    1.9395 O   0  0  0  0  0  0  0  0  0  0  0  0
   -5.8869   -4.5247   -0.3423 O   0  0  0  0  0  0  0  0  0  0  0  0
   -4.8547   -6.7579    0.2215 O   0  0  0  0  0  0  0  0  0  0  0  0
  -11.0443   -8.1548   -1.9948 C   0  0  0  0  0  0  0  0  0  0  0  0
  -11.6547   -8.6861   -1.2559 H   0  0  0  0  0  0  0  0  0  0  0  0
  -11.6661   -7.3523   -2.4083 H   0  0  0  0  0  0  0  0  0  0  0  0
  -10.8135   -8.8513   -2.8049 H   0  0  0  0  0  0  0  0  0  0  0  0
  1  8  1  0  0  0  0
  2  1  1  0  0  0  0
  3  2  1  0  0  0  0
  4  5  1  0  0  0  0
  4  1  2  0  0  0  0
  5  6  1  0  0  0  0
  6 11  1  1  0  0  0
  6  7  1  0  0  0  0
  7 12  1  0  0  0  0
  8  7  2  0  0  0  0
  8 13  1  0  0  0  0
  9  4  1  0  0  0  0
 10  5  1  0  0  0  0
 14 20  1  0  0  0  0
 15 21  1  0  0  0  0
 15 14  2  0  0  0  0
 16 15  1  0  0  0  0
 17 16  2  0  0  0  0
 17 18  1  0  0  0  0
 18 19  2  0  0  0  0
 19 14  1  0  0  0  0
 19 24  1  0  0  0  0
 22 17  1  0  0  0  0
 23 18  1  0  0  0  0
 24 25  2  0  0  0  0
 26  6  1  0  0  0  0
 26 24  1  0  0  0  0
 27 24  2  0  0  0  0
 28 16  1  0  0  0  0
 28 29  1  0  0  0  0
 30 28  1  0  0  0  0
 31 28  1  0  0  0  0
M  RAD  3   2   2   3   3   5   2
M  END
