Coordinates from ORCA-job PhN2+~TsO-_B3LYPG-6-31G_dp-NX-Scan-d89-09-n800
 OpenBabel11261920463D

 31 32  0  0  1  0  0  0  0  0999 V2000
   -5.4084   -1.3603   -0.9792 C   0  0  2  0  0  0  0  0  0  0  0  0
   -6.3463   -0.6105   -1.5007 N   0  0  0  0  0  0  0  0  0  0  0  0
   -7.1968   -0.0029   -1.9567 N   0  0  0  0  0  0  0  0  0  0  0  0
   -4.5695   -2.1592   -1.8542 C   0  0  0  0  0  0  0  0  0  0  0  0
   -3.9861   -3.2591   -1.3449 C   0  0  0  0  0  0  0  0  0  0  0  0
   -4.4046   -3.7350    0.0076 C   0  0  1  0  0  0  0  0  0  0  0  0
   -4.7465   -2.6260    0.9504 C   0  0  0  0  0  0  0  0  0  0  0  0
   -5.3361   -1.5198    0.4629 C   0  0  0  0  0  0  0  0  0  0  0  0
   -4.4221   -1.8404   -2.8815 H   0  0  0  0  0  0  0  0  0  0  0  0
   -3.3150   -3.8734   -1.9348 H   0  0  0  0  0  0  0  0  0  0  0  0
   -3.7088   -4.4623    0.4276 H   0  0  0  0  0  0  0  0  0  0  0  0
   -4.6308   -2.7865    2.0163 H   0  0  0  0  0  0  0  0  0  0  0  0
   -5.7437   -0.7426    1.1018 H   0  0  0  0  0  0  0  0  0  0  0  0
   -8.7126   -5.9665    0.2721 C   0  0  0  0  0  0  0  0  0  0  0  0
   -9.8389   -6.4528   -0.3847 C   0  0  0  0  0  0  0  0  0  0  0  0
   -9.7231   -7.3551   -1.4541 C   0  0  0  0  0  0  0  0  0  0  0  0
   -8.4423   -7.7641   -1.8492 C   0  0  0  0  0  0  0  0  0  0  0  0
   -7.3020   -7.2885   -1.2041 C   0  0  0  0  0  0  0  0  0  0  0  0
   -7.4500   -6.3879   -0.1502 C   0  0  0  0  0  0  0  0  0  0  0  0
   -8.8008   -5.2817    1.1085 H   0  0  0  0  0  0  0  0  0  0  0  0
  -10.8251   -6.1315   -0.0603 H   0  0  0  0  0  0  0  0  0  0  0  0
   -8.3358   -8.4678   -2.6704 H   0  0  0  0  0  0  0  0  0  0  0  0
   -6.3119   -7.6170   -1.5000 H   0  0  0  0  0  0  0  0  0  0  0  0
   -6.0000   -5.7743    0.6854 S   0  0  0  0  0  0  0  0  0  0  0  0
   -6.3689   -5.3116    2.0260 O   0  0  0  0  0  0  0  0  0  0  0  0
   -5.7047   -4.4869   -0.2776 O   0  0  0  0  0  0  0  0  0  0  0  0
   -4.9005   -6.7326    0.5337 O   0  0  0  0  0  0  0  0  0  0  0  0
  -10.9566   -7.8774   -2.1505 C   0  0  0  0  0  0  0  0  0  0  0  0
  -11.5922   -8.4410   -1.4575 H   0  0  0  0  0  0  0  0  0  0  0  0
  -11.5638   -7.0568   -2.5485 H   0  0  0  0  0  0  0  0  0  0  0  0
  -10.6982   -8.5391   -2.9814 H   0  0  0  0  0  0  0  0  0  0  0  0
  1  2  1  6  0  0  0
  1  8  1  0  0  0  0
  3  2  1  0  0  0  0
  4  5  2  0  0  0  0
  4  1  1  0  0  0  0
  5  6  1  0  0  0  0
  6 11  1  1  0  0  0
  6  7  1  0  0  0  0
  7 12  1  0  0  0  0
  8  7  2  0  0  0  0
  8 13  1  0  0  0  0
  9  4  1  0  0  0  0
 10  5  1  0  0  0  0
 14 20  1  0  0  0  0
 15 21  1  0  0  0  0
 15 14  2  0  0  0  0
 16 15  1  0  0  0  0
 17 16  2  0  0  0  0
 17 18  1  0  0  0  0
 18 19  2  0  0  0  0
 19 14  1  0  0  0  0
 19 24  1  0  0  0  0
 22 17  1  0  0  0  0
 23 18  1  0  0  0  0
 24 25  2  0  0  0  0
 26  6  1  0  0  0  0
 26 24  1  0  0  0  0
 27 24  2  0  0  0  0
 28 29  1  0  0  0  0
 28 16  1  0  0  0  0
 30 28  1  0  0  0  0
 31 28  1  0  0  0  0
M  RAD  3   1   2   2   2   3   3
M  END
