Coordinates from ORCA-job PhN2+~TsO-_B3LYPG-6-31G_dp-NX-Scan-d89-09-n800
 OpenBabel11261920463D

 31 31  0  0  0  0  0  0  0  0999 V2000
   -3.7813   -0.4263   -0.1508 C   0  0  0  0  0  0  0  0  0  0  0  0
   -3.5629    0.8725    0.1735 N   0  0  0  0  0  0  0  0  0  0  0  0
   -3.4034    1.9491    0.4546 N   0  0  0  0  0  0  0  0  0  0  0  0
   -2.8513   -1.0749   -1.0017 C   0  0  0  0  0  0  0  0  0  0  0  0
   -3.1145   -2.3907   -1.3330 C   0  0  0  0  0  0  0  0  0  0  0  0
   -4.2637   -3.0381   -0.8438 C   0  0  0  0  0  0  0  0  0  0  0  0
   -5.1668   -2.3740    0.0108 C   0  0  0  0  0  0  0  0  0  0  0  0
   -4.9403   -1.0600    0.3697 C   0  0  0  0  0  0  0  0  0  0  0  0
   -1.9818   -0.5430   -1.3712 H   0  0  0  0  0  0  0  0  0  0  0  0
   -2.4309   -2.9209   -1.9880 H   0  0  0  0  0  0  0  0  0  0  0  0
   -4.5215   -4.0618   -1.1265 H   0  0  0  0  0  0  0  0  0  0  0  0
   -6.0608   -2.9121    0.3491 H   0  0  0  0  0  0  0  0  0  0  0  0
   -5.6189   -0.5125    1.0151 H   0  0  0  0  0  0  0  0  0  0  0  0
   -9.5972   -6.2977   -0.2137 C   0  0  0  0  0  0  0  0  0  0  0  0
  -10.4424   -7.4055   -0.2030 C   0  0  0  0  0  0  0  0  0  0  0  0
  -10.0986   -8.5864   -0.8772 C   0  0  0  0  0  0  0  0  0  0  0  0
   -8.8792   -8.6253   -1.5655 C   0  0  0  0  0  0  0  0  0  0  0  0
   -8.0249   -7.5221   -1.5837 C   0  0  0  0  0  0  0  0  0  0  0  0
   -8.3861   -6.3579   -0.9065 C   0  0  0  0  0  0  0  0  0  0  0  0
   -9.8587   -5.3907    0.3210 H   0  0  0  0  0  0  0  0  0  0  0  0
  -11.3846   -7.3550    0.3382 H   0  0  0  0  0  0  0  0  0  0  0  0
   -8.5925   -9.5329   -2.0923 H   0  0  0  0  0  0  0  0  0  0  0  0
   -7.0742   -7.5575   -2.1042 H   0  0  0  0  0  0  0  0  0  0  0  0
   -7.3274   -4.9045   -0.9835 S   0  0  0  0  0  0  0  0  0  0  0  0
   -7.4966   -4.2372    0.3496 O   0  0  0  0  0  0  0  0  0  0  0  0
   -7.7893   -4.0690   -2.1184 O   0  0  0  0  0  0  0  0  0  0  0  0
   -5.9412   -5.4471   -1.1778 O   0  0  0  0  0  0  0  0  0  0  0  0
  -11.0080   -9.7924   -0.8348 C   0  0  0  0  0  0  0  0  0  0  0  0
  -10.8848  -10.3526    0.1015 H   0  0  0  0  0  0  0  0  0  0  0  0
  -12.0622   -9.5023   -0.8987 H   0  0  0  0  0  0  0  0  0  0  0  0
  -10.7960  -10.4819   -1.6575 H   0  0  0  0  0  0  0  0  0  0  0  0
  1  2  1  0  0  0  0
  1  8  2  0  0  0  0
  2  3  1  0  0  0  0
  4  1  1  0  0  0  0
  5  4  2  0  0  0  0
  5  6  1  0  0  0  0
  6  7  2  0  0  0  0
  7 12  1  0  0  0  0
  7  8  1  0  0  0  0
  8 13  1  0  0  0  0
  9  4  1  0  0  0  0
 10  5  1  0  0  0  0
 11  6  1  0  0  0  0
 14 15  1  0  0  0  0
 14 20  1  0  0  0  0
 15 21  1  0  0  0  0
 16 28  1  0  0  0  0
 16 15  2  0  0  0  0
 17 16  1  0  0  0  0
 18 17  2  0  0  0  0
 18 19  1  0  0  0  0
 19 14  2  0  0  0  0
 22 17  1  0  0  0  0
 23 18  1  0  0  0  0
 24 19  1  0  0  0  0
 24 25  1  0  0  0  0
 26 24  2  0  0  0  0
 27 24  2  0  0  0  0
 28 29  1  0  0  0  0
 30 28  1  0  0  0  0
 31 28  1  0  0  0  0
M  RAD  3   2   2   3   3  25   2
M  END
