Coordinates from ORCA-job PhN2+~TsO-_B3LYPG-6-31G_dp-NX-Scan-d89-09-n800
 OpenBabel11261920463D

 31 31  0  0  0  0  0  0  0  0999 V2000
   -3.8487   -0.4096   -0.2328 C   0  0  0  0  0  0  0  0  0  0  0  0
   -3.6785    0.9134    0.0128 N   0  0  0  0  0  0  0  0  0  0  0  0
   -3.5576    2.0099    0.2280 N   0  0  0  0  0  0  0  0  0  0  0  0
   -2.9296   -1.0590   -1.0948 C   0  0  0  0  0  0  0  0  0  0  0  0
   -3.1440   -2.4012   -1.3454 C   0  0  0  0  0  0  0  0  0  0  0  0
   -4.2350   -3.0744   -0.7660 C   0  0  0  0  0  0  0  0  0  0  0  0
   -5.1287   -2.4076    0.0965 C   0  0  0  0  0  0  0  0  0  0  0  0
   -4.9501   -1.0673    0.3758 C   0  0  0  0  0  0  0  0  0  0  0  0
   -2.1053   -0.5080   -1.5333 H   0  0  0  0  0  0  0  0  0  0  0  0
   -2.4680   -2.9334   -2.0065 H   0  0  0  0  0  0  0  0  0  0  0  0
   -4.4542   -4.1221   -0.9878 H   0  0  0  0  0  0  0  0  0  0  0  0
   -5.9811   -2.9657    0.5006 H   0  0  0  0  0  0  0  0  0  0  0  0
   -5.6248   -0.5175    1.0232 H   0  0  0  0  0  0  0  0  0  0  0  0
   -9.5487   -6.3110   -0.1585 C   0  0  0  0  0  0  0  0  0  0  0  0
  -10.4315   -7.3880   -0.2085 C   0  0  0  0  0  0  0  0  0  0  0  0
  -10.1161   -8.5514   -0.9257 C   0  0  0  0  0  0  0  0  0  0  0  0
   -8.8864   -8.6045   -1.5945 C   0  0  0  0  0  0  0  0  0  0  0  0
   -7.9946   -7.5320   -1.5522 C   0  0  0  0  0  0  0  0  0  0  0  0
   -8.3281   -6.3850   -0.8330 C   0  0  0  0  0  0  0  0  0  0  0  0
   -9.7882   -5.4186    0.4098 H   0  0  0  0  0  0  0  0  0  0  0  0
  -11.3808   -7.3272    0.3191 H   0  0  0  0  0  0  0  0  0  0  0  0
   -8.6212   -9.4994   -2.1534 H   0  0  0  0  0  0  0  0  0  0  0  0
   -7.0364   -7.5790   -2.0576 H   0  0  0  0  0  0  0  0  0  0  0  0
   -7.2181   -4.9681   -0.8297 S   0  0  0  0  0  0  0  0  0  0  0  0
   -7.3856   -4.3518    0.5275 O   0  0  0  0  0  0  0  0  0  0  0  0
   -7.6323   -4.0662   -1.9330 O   0  0  0  0  0  0  0  0  0  0  0  0
   -5.8486   -5.5485   -1.0304 O   0  0  0  0  0  0  0  0  0  0  0  0
  -11.0668   -9.7256   -0.9491 C   0  0  0  0  0  0  0  0  0  0  0  0
  -10.9869  -10.3221   -0.0306 H   0  0  0  0  0  0  0  0  0  0  0  0
  -12.1085   -9.3971   -1.0286 H   0  0  0  0  0  0  0  0  0  0  0  0
  -10.8571  -10.3926   -1.7907 H   0  0  0  0  0  0  0  0  0  0  0  0
  1  2  1  0  0  0  0
  1  8  2  0  0  0  0
  2  3  1  0  0  0  0
  4  1  1  0  0  0  0
  5  4  2  0  0  0  0
  5  6  1  0  0  0  0
  6  7  2  0  0  0  0
  7  8  1  0  0  0  0
  7 12  1  0  0  0  0
  8 13  1  0  0  0  0
  9  4  1  0  0  0  0
 10  5  1  0  0  0  0
 11  6  1  0  0  0  0
 14 20  1  0  0  0  0
 15 14  1  0  0  0  0
 15 21  1  0  0  0  0
 16 15  2  0  0  0  0
 17 18  2  0  0  0  0
 17 16  1  0  0  0  0
 18 19  1  0  0  0  0
 19 24  1  0  0  0  0
 19 14  2  0  0  0  0
 22 17  1  0  0  0  0
 23 18  1  0  0  0  0
 24 25  1  0  0  0  0
 26 24  2  0  0  0  0
 27 24  2  0  0  0  0
 28 16  1  0  0  0  0
 28 29  1  0  0  0  0
 30 28  1  0  0  0  0
 31 28  1  0  0  0  0
M  RAD  3   2   2   3   3  25   2
M  END
