Coordinates from ORCA-job PhN2+~TsO-_B3LYPG-6-31G_dp-NX-Scan-d89-09-n800
 OpenBabel11261920463D

 31 32  0  0  0  0  0  0  0  0999 V2000
   -4.3474   -2.4890   -0.6590 C   0  0  0  0  0  0  0  0  0  0  0  0
   -5.4644   -3.3676   -0.5339 N   0  0  0  0  0  0  0  0  0  0  0  0
   -6.2852   -3.3481   -1.5357 N   0  0  0  0  0  0  0  0  0  0  0  0
   -3.7078   -2.2163    0.5617 C   0  0  0  0  0  0  0  0  0  0  0  0
   -2.5794   -1.4048    0.6012 C   0  0  0  0  0  0  0  0  0  0  0  0
   -2.0638   -0.8552   -0.5760 C   0  0  0  0  0  0  0  0  0  0  0  0
   -2.6897   -1.1306   -1.7906 C   0  0  0  0  0  0  0  0  0  0  0  0
   -3.8257   -1.9415   -1.8436 C   0  0  0  0  0  0  0  0  0  0  0  0
   -4.1207   -2.6524    1.4650 H   0  0  0  0  0  0  0  0  0  0  0  0
   -2.1014   -1.2001    1.5545 H   0  0  0  0  0  0  0  0  0  0  0  0
   -1.1815   -0.2233   -0.5460 H   0  0  0  0  0  0  0  0  0  0  0  0
   -2.2946   -0.7160   -2.7132 H   0  0  0  0  0  0  0  0  0  0  0  0
   -4.2735   -2.1423   -2.8101 H   0  0  0  0  0  0  0  0  0  0  0  0
   -8.3226   -7.3472   -1.1282 C   0  0  0  0  0  0  0  0  0  0  0  0
   -9.2699   -8.3085   -1.4722 C   0  0  0  0  0  0  0  0  0  0  0  0
  -10.5529   -8.2976   -0.9015 C   0  0  0  0  0  0  0  0  0  0  0  0
  -10.8629   -7.2924    0.0243 C   0  0  0  0  0  0  0  0  0  0  0  0
   -9.9232   -6.3239    0.3801 C   0  0  0  0  0  0  0  0  0  0  0  0
   -8.6617   -6.3550   -0.2063 C   0  0  0  0  0  0  0  0  0  0  0  0
   -7.3367   -7.3612   -1.5842 H   0  0  0  0  0  0  0  0  0  0  0  0
   -9.0136   -9.0784   -2.1962 H   0  0  0  0  0  0  0  0  0  0  0  0
  -11.8524   -7.2683    0.4736 H   0  0  0  0  0  0  0  0  0  0  0  0
  -10.1491   -5.5433    1.1005 H   0  0  0  0  0  0  0  0  0  0  0  0
   -7.4217   -5.1294    0.3260 S   0  0  1  0  0  0  0  0  0  0  0  0
   -7.4796   -4.3996   -1.2049 O   0  0  0  0  0  0  0  0  0  0  0  0
   -6.4181   -2.9368   -2.3593 O   0  0  0  0  0  0  0  0  0  0  0  0
   -8.1066   -4.2737    1.3358 O   0  0  0  0  0  0  0  0  0  0  0  0
  -11.5617   -9.3630   -1.2593 C   0  0  0  0  0  0  0  0  0  0  0  0
  -11.5100   -9.6230   -2.3212 H   0  0  0  0  0  0  0  0  0  0  0  0
  -11.3816  -10.2842   -0.6917 H   0  0  0  0  0  0  0  0  0  0  0  0
  -12.5824   -9.0381   -1.0382 H   0  0  0  0  0  0  0  0  0  0  0  0
  1  2  1  0  0  0  0
  1  4  2  0  0  0  0
  3 25  1  0  0  0  0
  3  2  1  0  0  0  0
  4  5  1  0  0  0  0
  4  9  1  0  0  0  0
  5 10  1  0  0  0  0
  6 11  1  0  0  0  0
  6  5  2  0  0  0  0
  7  6  1  0  0  0  0
  8  7  2  0  0  0  0
  8  1  1  0  0  0  0
 12  7  1  0  0  0  0
 13  8  1  0  0  0  0
 14 19  1  0  0  0  0
 15 14  2  0  0  0  0
 15 16  1  0  0  0  0
 16 17  2  0  0  0  0
 17 18  1  0  0  0  0
 17 22  1  0  0  0  0
 18 23  1  0  0  0  0
 19 24  1  0  0  0  0
 19 18  2  0  0  0  0
 20 14  1  0  0  0  0
 21 15  1  0  0  0  0
 24 25  1  6  0  0  0
 24 27  1  0  0  0  0
 26  3  1  0  0  0  0
 28 31  1  0  0  0  0
 28 16  1  0  0  0  0
 28 30  1  0  0  0  0
 29 28  1  0  0  0  0
M  RAD  3   2   2  26   2  27   2
M  END
