Coordinates from ORCA-job PhN2+~TsO-_B3LYPG-6-31G_dp-NX-Scan-d89-09-n800
 OpenBabel11261920463D

 31 32  0  0  1  0  0  0  0  0999 V2000
   -5.3515   -1.3595   -0.7090 C   0  0  2  0  0  0  0  0  0  0  0  0
   -6.5247   -0.7905   -0.8203 N   0  0  0  0  0  0  0  0  0  0  0  0
   -7.5802   -0.3718   -0.9125 N   0  0  0  0  0  0  0  0  0  0  0  0
   -4.8023   -2.0448   -1.8746 C   0  0  0  0  0  0  0  0  0  0  0  0
   -4.1950   -3.2255   -1.6651 C   0  0  0  0  0  0  0  0  0  0  0  0
   -4.3619   -3.8460   -0.3123 C   0  0  1  0  0  0  0  0  0  0  0  0
   -4.2296   -2.8439    0.7956 C   0  0  0  0  0  0  0  0  0  0  0  0
   -4.8384   -1.6580    0.6247 C   0  0  0  0  0  0  0  0  0  0  0  0
   -4.8885   -1.5857   -2.8551 H   0  0  0  0  0  0  0  0  0  0  0  0
   -3.7006   -3.7754   -2.4581 H   0  0  0  0  0  0  0  0  0  0  0  0
   -3.7571   -4.7396   -0.1634 H   0  0  0  0  0  0  0  0  0  0  0  0
   -3.7624   -3.1290    1.7315 H   0  0  0  0  0  0  0  0  0  0  0  0
   -4.9569   -0.9287    1.4204 H   0  0  0  0  0  0  0  0  0  0  0  0
   -8.8771   -5.6293   -0.0772 C   0  0  0  0  0  0  0  0  0  0  0  0
   -9.9011   -6.2537   -0.7826 C   0  0  0  0  0  0  0  0  0  0  0  0
   -9.6659   -7.4252   -1.5204 C   0  0  0  0  0  0  0  0  0  0  0  0
   -8.3708   -7.9595   -1.5325 C   0  0  0  0  0  0  0  0  0  0  0  0
   -7.3302   -7.3458   -0.8361 C   0  0  0  0  0  0  0  0  0  0  0  0
   -7.5946   -6.1812   -0.1170 C   0  0  0  0  0  0  0  0  0  0  0  0
   -9.0631   -4.7349    0.5068 H   0  0  0  0  0  0  0  0  0  0  0  0
  -10.9016   -5.8294   -0.7566 H   0  0  0  0  0  0  0  0  0  0  0  0
   -8.1745   -8.8715   -2.0892 H   0  0  0  0  0  0  0  0  0  0  0  0
   -6.3307   -7.7667   -0.8340 H   0  0  0  0  0  0  0  0  0  0  0  0
   -6.2743   -5.3915    0.7872 S   0  0  0  0  0  0  0  0  0  0  0  0
   -6.8456   -4.6894    1.9363 O   0  0  0  0  0  0  0  0  0  0  0  0
   -5.8171   -4.3017   -0.3464 O   0  0  0  0  0  0  0  0  0  0  0  0
   -5.1761   -6.3444    0.9839 O   0  0  0  0  0  0  0  0  0  0  0  0
  -10.7921   -8.0932   -2.2719 C   0  0  0  0  0  0  0  0  0  0  0  0
  -11.5873   -8.4129   -1.5889 H   0  0  0  0  0  0  0  0  0  0  0  0
  -11.2468   -7.4074   -2.9957 H   0  0  0  0  0  0  0  0  0  0  0  0
  -10.4437   -8.9745   -2.8162 H   0  0  0  0  0  0  0  0  0  0  0  0
  1  2  1  1  0  0  0
  1  8  1  0  0  0  0
  3  2  1  0  0  0  0
  4  5  2  0  0  0  0
  4  1  1  0  0  0  0
  5  6  1  0  0  0  0
  6 11  1  1  0  0  0
  6  7  1  0  0  0  0
  7 12  1  0  0  0  0
  8  7  2  0  0  0  0
  8 13  1  0  0  0  0
  9  4  1  0  0  0  0
 10  5  1  0  0  0  0
 14 20  1  0  0  0  0
 15 21  1  0  0  0  0
 15 14  2  0  0  0  0
 16 15  1  0  0  0  0
 17 16  2  0  0  0  0
 17 18  1  0  0  0  0
 18 23  1  0  0  0  0
 18 19  2  0  0  0  0
 19 14  1  0  0  0  0
 19 24  1  0  0  0  0
 22 17  1  0  0  0  0
 24 27  2  0  0  0  0
 24 25  2  0  0  0  0
 26  6  1  0  0  0  0
 26 24  1  0  0  0  0
 28 29  1  0  0  0  0
 28 16  1  0  0  0  0
 30 28  1  0  0  0  0
 31 28  1  0  0  0  0
M  RAD  3   1   2   2   2   3   3
M  END
