Coordinates from ORCA-job PhN2+~TsO-_B3LYPG-6-31G_dp-NX-Scan-d89-09-n800
 OpenBabel11261920463D

 31 31  0  0  0  0  0  0  0  0999 V2000
   -3.6617   -0.6604    0.2080 C   0  0  0  0  0  0  0  0  0  0  0  0
   -3.2842    0.4468    0.8949 N   0  0  0  0  0  0  0  0  0  0  0  0
   -2.9895    1.3619    1.4782 N   0  0  0  0  0  0  0  0  0  0  0  0
   -2.7201   -1.2677   -0.6608 C   0  0  0  0  0  0  0  0  0  0  0  0
   -3.1342   -2.3915   -1.3504 C   0  0  0  0  0  0  0  0  0  0  0  0
   -4.4413   -2.8876   -1.1936 C   0  0  0  0  0  0  0  0  0  0  0  0
   -5.3559   -2.2725   -0.3155 C   0  0  0  0  0  0  0  0  0  0  0  0
   -4.9806   -1.1517    0.3989 C   0  0  0  0  0  0  0  0  0  0  0  0
   -1.7253   -0.8503   -0.7694 H   0  0  0  0  0  0  0  0  0  0  0  0
   -2.4439   -2.8845   -2.0270 H   0  0  0  0  0  0  0  0  0  0  0  0
   -4.8075   -3.7635   -1.7345 H   0  0  0  0  0  0  0  0  0  0  0  0
   -6.3619   -2.7051   -0.2267 H   0  0  0  0  0  0  0  0  0  0  0  0
   -5.6553   -0.6510    1.0852 H   0  0  0  0  0  0  0  0  0  0  0  0
   -9.7281   -6.1703   -0.4996 C   0  0  0  0  0  0  0  0  0  0  0  0
  -10.4186   -7.3474   -0.2160 C   0  0  0  0  0  0  0  0  0  0  0  0
   -9.9423   -8.5909   -0.6545 C   0  0  0  0  0  0  0  0  0  0  0  0
   -8.7495   -8.6217   -1.3894 C   0  0  0  0  0  0  0  0  0  0  0  0
   -8.0501   -7.4506   -1.6794 C   0  0  0  0  0  0  0  0  0  0  0  0
   -8.5414   -6.2234   -1.2332 C   0  0  0  0  0  0  0  0  0  0  0  0
  -10.0928   -5.2112   -0.1478 H   0  0  0  0  0  0  0  0  0  0  0  0
  -11.3439   -7.3010    0.3541 H   0  0  0  0  0  0  0  0  0  0  0  0
   -8.3628   -9.5763   -1.7392 H   0  0  0  0  0  0  0  0  0  0  0  0
   -7.1201   -7.4769   -2.2367 H   0  0  0  0  0  0  0  0  0  0  0  0
   -7.6903   -4.6977   -1.6714 S   0  0  0  0  0  0  0  0  0  0  0  0
   -7.9089   -3.7905   -0.4962 O   0  0  0  0  0  0  0  0  0  0  0  0
   -8.2950   -4.2009   -2.9269 O   0  0  0  0  0  0  0  0  0  0  0  0
   -6.2491   -5.0948   -1.8198 O   0  0  0  0  0  0  0  0  0  0  0  0
  -10.6780   -9.8663   -0.3160 C   0  0  0  0  0  0  0  0  0  0  0  0
  -10.3451  -10.2748    0.6470 H   0  0  0  0  0  0  0  0  0  0  0  0
  -11.7572   -9.6990   -0.2396 H   0  0  0  0  0  0  0  0  0  0  0  0
  -10.5072  -10.6398   -1.0716 H   0  0  0  0  0  0  0  0  0  0  0  0
  1  8  1  0  0  0  0
  1  2  1  0  0  0  0
  2  3  1  0  0  0  0
  4  1  2  0  0  0  0
  5  6  2  0  0  0  0
  5  4  1  0  0  0  0
  6  7  1  0  0  0  0
  7 12  1  0  0  0  0
  7  8  2  0  0  0  0
  8 13  1  0  0  0  0
  9  4  1  0  0  0  0
 10  5  1  0  0  0  0
 11  6  1  0  0  0  0
 14 15  1  0  0  0  0
 14 20  1  0  0  0  0
 15 21  1  0  0  0  0
 16 28  1  0  0  0  0
 16 15  2  0  0  0  0
 17 16  1  0  0  0  0
 18 17  2  0  0  0  0
 18 19  1  0  0  0  0
 19 14  2  0  0  0  0
 22 17  1  0  0  0  0
 23 18  1  0  0  0  0
 24 19  1  0  0  0  0
 24 25  1  0  0  0  0
 26 24  2  0  0  0  0
 27 24  2  0  0  0  0
 28 30  1  0  0  0  0
 28 29  1  0  0  0  0
 31 28  1  0  0  0  0
M  RAD  3   2   2   3   3  25   2
M  END
