Coordinates from ORCA-job PhN2+~TsO-_B3LYPG-6-31G_dp-NX-Scan-d89-09-n800
 OpenBabel11261920463D

 31 31  0  0  0  0  0  0  0  0999 V2000
   -3.9635   -0.3842   -0.3277 C   0  0  0  0  0  0  0  0  0  0  0  0
   -3.6975    0.9160   -0.0559 N   0  0  0  0  0  0  0  0  0  0  0  0
   -3.4692    1.9918    0.1831 N   0  0  0  0  0  0  0  0  0  0  0  0
   -3.3263   -0.9780   -1.4479 C   0  0  0  0  0  0  0  0  0  0  0  0
   -3.5815   -2.3134   -1.6871 C   0  0  0  0  0  0  0  0  0  0  0  0
   -4.4435   -3.0453   -0.8471 C   0  0  0  0  0  0  0  0  0  0  0  0
   -5.0854   -2.4256    0.2478 C   0  0  0  0  0  0  0  0  0  0  0  0
   -4.8541   -1.0943    0.5246 C   0  0  0  0  0  0  0  0  0  0  0  0
   -2.6619   -0.3922   -2.0737 H   0  0  0  0  0  0  0  0  0  0  0  0
   -3.1073   -2.8038   -2.5304 H   0  0  0  0  0  0  0  0  0  0  0  0
   -4.6110   -4.1097   -1.0070 H   0  0  0  0  0  0  0  0  0  0  0  0
   -5.7845   -3.0177    0.8424 H   0  0  0  0  0  0  0  0  0  0  0  0
   -5.3270   -0.5890    1.3595 H   0  0  0  0  0  0  0  0  0  0  0  0
   -9.4585   -6.2753   -0.1885 C   0  0  0  0  0  0  0  0  0  0  0  0
  -10.4277   -7.2512   -0.4049 C   0  0  0  0  0  0  0  0  0  0  0  0
  -10.1090   -8.4618   -1.0400 C   0  0  0  0  0  0  0  0  0  0  0  0
   -8.7863   -8.6661   -1.4532 C   0  0  0  0  0  0  0  0  0  0  0  0
   -7.8067   -7.6948   -1.2440 C   0  0  0  0  0  0  0  0  0  0  0  0
   -8.1452   -6.4994   -0.6110 C   0  0  0  0  0  0  0  0  0  0  0  0
   -9.7041   -5.3478    0.3175 H   0  0  0  0  0  0  0  0  0  0  0  0
  -11.4482   -7.0759   -0.0718 H   0  0  0  0  0  0  0  0  0  0  0  0
   -8.5186   -9.6001   -1.9418 H   0  0  0  0  0  0  0  0  0  0  0  0
   -6.7792   -7.8552   -1.5517 H   0  0  0  0  0  0  0  0  0  0  0  0
   -6.9008   -5.2213   -0.3857 S   0  0  0  0  0  0  0  0  0  0  0  0
   -7.2025   -4.5946    0.9373 O   0  0  0  0  0  0  0  0  0  0  0  0
   -7.0706   -4.2639   -1.5269 O   0  0  0  0  0  0  0  0  0  0  0  0
   -5.5796   -5.9154   -0.4384 O   0  0  0  0  0  0  0  0  0  0  0  0
  -11.1631   -9.5247   -1.2448 C   0  0  0  0  0  0  0  0  0  0  0  0
  -11.3846  -10.0517   -0.3081 H   0  0  0  0  0  0  0  0  0  0  0  0
  -12.1048   -9.0926   -1.5993 H   0  0  0  0  0  0  0  0  0  0  0  0
  -10.8396  -10.2735   -1.9738 H   0  0  0  0  0  0  0  0  0  0  0  0
  1  2  1  0  0  0  0
  1  8  2  0  0  0  0
  2  3  1  0  0  0  0
  4  1  1  0  0  0  0
  5  4  2  0  0  0  0
  5  6  1  0  0  0  0
  6  7  2  0  0  0  0
  7  8  1  0  0  0  0
  7 12  1  0  0  0  0
  8 13  1  0  0  0  0
  9  4  1  0  0  0  0
 10  5  1  0  0  0  0
 11  6  1  0  0  0  0
 14 20  1  0  0  0  0
 15 14  1  0  0  0  0
 15 21  1  0  0  0  0
 16 15  2  0  0  0  0
 17 18  2  0  0  0  0
 17 16  1  0  0  0  0
 18 19  1  0  0  0  0
 19 24  1  0  0  0  0
 19 14  2  0  0  0  0
 22 17  1  0  0  0  0
 23 18  1  0  0  0  0
 24 25  1  0  0  0  0
 26 24  2  0  0  0  0
 27 24  2  0  0  0  0
 28 16  1  0  0  0  0
 28 29  1  0  0  0  0
 30 28  1  0  0  0  0
 31 28  1  0  0  0  0
M  RAD  3   2   2   3   3  25   2
M  END
