Coordinates from ORCA-job PhN2+~TsO-_B3LYPG-6-31G_dp-NX-Scan-d89-09-n800
 OpenBabel11261920463D

 31 32  0  0  0  0  0  0  0  0999 V2000
   -5.0424   -2.5863   -0.8672 C   0  0  0  0  0  0  0  0  0  0  0  0
   -6.4695   -2.6227   -0.9316 N   0  0  0  0  0  0  0  0  0  0  0  0
   -7.1738   -3.3493   -0.1535 N   0  0  0  0  0  0  0  0  0  0  0  0
   -4.5008   -1.7863   -1.8934 C   0  0  0  0  0  0  0  0  0  0  0  0
   -3.1298   -1.5967   -2.0186 C   0  0  0  0  0  0  0  0  0  0  0  0
   -2.2570   -2.2008   -1.1096 C   0  0  0  0  0  0  0  0  0  0  0  0
   -2.7763   -2.9904   -0.0840 C   0  0  0  0  0  0  0  0  0  0  0  0
   -4.1525   -3.1917    0.0467 C   0  0  0  0  0  0  0  0  0  0  0  0
   -5.1977   -1.3210   -2.5828 H   0  0  0  0  0  0  0  0  0  0  0  0
   -2.7407   -0.9764   -2.8214 H   0  0  0  0  0  0  0  0  0  0  0  0
   -1.1841   -2.0542   -1.1979 H   0  0  0  0  0  0  0  0  0  0  0  0
   -2.1063   -3.4613    0.6301 H   0  0  0  0  0  0  0  0  0  0  0  0
   -4.5126   -3.8076    0.8571 H   0  0  0  0  0  0  0  0  0  0  0  0
   -9.7749   -5.4247   -0.2717 C   0  0  0  0  0  0  0  0  0  0  0  0
  -10.3627   -6.2140   -1.2556 C   0  0  0  0  0  0  0  0  0  0  0  0
   -9.8941   -7.5087   -1.5274 C   0  0  0  0  0  0  0  0  0  0  0  0
   -8.8066   -8.0022   -0.7892 C   0  0  0  0  0  0  0  0  0  0  0  0
   -8.1966   -7.2329    0.1961 C   0  0  0  0  0  0  0  0  0  0  0  0
   -8.6993   -5.9529    0.4487 C   0  0  0  0  0  0  0  0  0  0  0  0
  -10.1370   -4.4265   -0.0588 H   0  0  0  0  0  0  0  0  0  0  0  0
  -11.1992   -5.8169   -1.8234 H   0  0  0  0  0  0  0  0  0  0  0  0
   -8.4326   -9.0014   -0.9909 H   0  0  0  0  0  0  0  0  0  0  0  0
   -7.3567   -7.6126    0.7674 H   0  0  0  0  0  0  0  0  0  0  0  0
   -7.9115   -4.9522    1.6741 S   0  0  0  0  0  0  0  0  0  0  0  0
   -8.8258   -3.9411    2.1829 O   0  0  0  0  0  0  0  0  0  0  0  0
   -6.6899   -4.0144    0.6218 O   0  0  0  0  0  0  0  0  0  0  0  0
   -7.0083   -5.7323    2.5060 O   0  0  0  0  0  0  0  0  0  0  0  0
  -10.5638   -8.3630   -2.5743 C   0  0  0  0  0  0  0  0  0  0  0  0
  -11.3977   -8.9264   -2.1374 H   0  0  0  0  0  0  0  0  0  0  0  0
  -10.9724   -7.7545   -3.3856 H   0  0  0  0  0  0  0  0  0  0  0  0
   -9.8691   -9.0892   -3.0052 H   0  0  0  0  0  0  0  0  0  0  0  0
  1  8  2  0  0  0  0
  2  1  1  0  0  0  0
  2  3  2  0  0  0  0
  3 26  1  0  0  0  0
  4  1  1  0  0  0  0
  5  4  2  0  0  0  0
  5  6  1  0  0  0  0
  6  7  2  0  0  0  0
  7  8  1  0  0  0  0
  7 12  1  0  0  0  0
  8 13  1  0  0  0  0
  9  4  1  0  0  0  0
 10  5  1  0  0  0  0
 11  6  1  0  0  0  0
 14 20  1  0  0  0  0
 14 19  2  0  0  0  0
 15 14  1  0  0  0  0
 16 15  2  0  0  0  0
 16 17  1  0  0  0  0
 17 18  2  0  0  0  0
 18 19  1  0  0  0  0
 18 23  1  0  0  0  0
 19 24  1  0  0  0  0
 21 15  1  0  0  0  0
 22 17  1  0  0  0  0
 24 25  2  0  0  0  0
 24 27  2  0  0  0  0
 26 24  1  0  0  0  0
 28 29  1  0  0  0  0
 28 16  1  0  0  0  0
 30 28  1  0  0  0  0
 31 28  1  0  0  0  0
M  END
