Coordinates from ORCA-job PhN2+~TsO-_B3LYPG-6-31G_dp-NX-Scan-d89-09-n800
 OpenBabel11261920463D

 31 32  0  0  1  0  0  0  0  0999 V2000
   -4.9630   -0.8723   -0.9561 C   0  0  0  0  0  0  0  0  0  0  0  0
   -5.0839    0.3672   -1.3693 N   0  0  0  0  0  0  0  0  0  0  0  0
   -5.1924    1.4477   -1.7299 N   0  0  0  0  0  0  0  0  0  0  0  0
   -4.3951   -1.8755   -1.8337 C   0  0  0  0  0  0  0  0  0  0  0  0
   -4.2837   -3.1502   -1.4160 C   0  0  0  0  0  0  0  0  0  0  0  0
   -4.7834   -3.6105   -0.0855 C   0  0  1  0  0  0  0  0  0  0  0  0
   -5.2654   -2.5090    0.8039 C   0  0  0  0  0  0  0  0  0  0  0  0
   -5.3780   -1.2352    0.3849 C   0  0  0  0  0  0  0  0  0  0  0  0
   -4.0474   -1.5713   -2.8158 H   0  0  0  0  0  0  0  0  0  0  0  0
   -3.8479   -3.9046   -2.0623 H   0  0  0  0  0  0  0  0  0  0  0  0
   -4.0406   -4.2430    0.4137 H   0  0  0  0  0  0  0  0  0  0  0  0
   -5.5670   -2.7901    1.8069 H   0  0  0  0  0  0  0  0  0  0  0  0
   -5.7605   -0.4576    1.0388 H   0  0  0  0  0  0  0  0  0  0  0  0
   -8.7498   -6.2528    0.3196 C   0  0  0  0  0  0  0  0  0  0  0  0
   -9.8905   -6.8044   -0.2549 C   0  0  0  0  0  0  0  0  0  0  0  0
   -9.8018   -7.6829   -1.3469 C   0  0  0  0  0  0  0  0  0  0  0  0
   -8.5330   -8.0023   -1.8481 C   0  0  0  0  0  0  0  0  0  0  0  0
   -7.3779   -7.4599   -1.2869 C   0  0  0  0  0  0  0  0  0  0  0  0
   -7.5002   -6.5841   -0.2093 C   0  0  0  0  0  0  0  0  0  0  0  0
   -8.8164   -5.5864    1.1724 H   0  0  0  0  0  0  0  0  0  0  0  0
  -10.8663   -6.5540    0.1525 H   0  0  0  0  0  0  0  0  0  0  0  0
   -8.4467   -8.6877   -2.6867 H   0  0  0  0  0  0  0  0  0  0  0  0
   -6.3951   -7.7174   -1.6653 H   0  0  0  0  0  0  0  0  0  0  0  0
   -6.0314   -5.8851    0.5165 S   0  0  0  0  0  0  0  0  0  0  0  0
   -6.2939   -5.5184    1.9113 O   0  0  0  0  0  0  0  0  0  0  0  0
   -5.9554   -4.5219   -0.3850 O   0  0  0  0  0  0  0  0  0  0  0  0
   -4.8753   -6.7278    0.1989 O   0  0  0  0  0  0  0  0  0  0  0  0
  -11.0509   -8.2681   -1.9604 C   0  0  0  0  0  0  0  0  0  0  0  0
  -11.6543   -8.7896   -1.2091 H   0  0  0  0  0  0  0  0  0  0  0  0
  -11.6828   -7.4831   -2.3921 H   0  0  0  0  0  0  0  0  0  0  0  0
  -10.8117   -8.9801   -2.7545 H   0  0  0  0  0  0  0  0  0  0  0  0
  1  8  1  0  0  0  0
  2  1  1  0  0  0  0
  3  2  1  0  0  0  0
  4  5  1  0  0  0  0
  4  1  2  0  0  0  0
  5  6  1  0  0  0  0
  6 11  1  1  0  0  0
  6  7  1  0  0  0  0
  7 12  1  0  0  0  0
  8  7  2  0  0  0  0
  8 13  1  0  0  0  0
  9  4  1  0  0  0  0
 10  5  1  0  0  0  0
 14 20  1  0  0  0  0
 15 21  1  0  0  0  0
 15 14  2  0  0  0  0
 16 15  1  0  0  0  0
 17 16  2  0  0  0  0
 17 18  1  0  0  0  0
 18 19  2  0  0  0  0
 19 14  1  0  0  0  0
 19 24  1  0  0  0  0
 22 17  1  0  0  0  0
 23 18  1  0  0  0  0
 24 25  2  0  0  0  0
 26  6  1  0  0  0  0
 26 24  1  0  0  0  0
 27 24  2  0  0  0  0
 28 16  1  0  0  0  0
 28 29  1  0  0  0  0
 30 28  1  0  0  0  0
 31 28  1  0  0  0  0
M  RAD  3   2   2   3   3   5   2
M  END
