Coordinates from ORCA-job PhN2+~TsO-_B3LYPG-6-31G_dp-NX-Scan-d89-09-n800
 OpenBabel11261920463D

 31 31  0  0  0  0  0  0  0  0999 V2000
   -3.7837   -0.4254   -0.1542 C   0  0  0  0  0  0  0  0  0  0  0  0
   -3.5673    0.8746    0.1667 N   0  0  0  0  0  0  0  0  0  0  0  0
   -3.4094    1.9522    0.4449 N   0  0  0  0  0  0  0  0  0  0  0  0
   -2.8539   -1.0742   -1.0050 C   0  0  0  0  0  0  0  0  0  0  0  0
   -3.1152   -2.3912   -1.3329 C   0  0  0  0  0  0  0  0  0  0  0  0
   -4.2623   -3.0396   -0.8403 C   0  0  0  0  0  0  0  0  0  0  0  0
   -5.1653   -2.3752    0.0142 C   0  0  0  0  0  0  0  0  0  0  0  0
   -4.9407   -1.0600    0.3696 C   0  0  0  0  0  0  0  0  0  0  0  0
   -1.9860   -0.5415   -1.3772 H   0  0  0  0  0  0  0  0  0  0  0  0
   -2.4317   -2.9216   -1.9878 H   0  0  0  0  0  0  0  0  0  0  0  0
   -4.5186   -4.0645   -1.1205 H   0  0  0  0  0  0  0  0  0  0  0  0
   -6.0578   -2.9141    0.3550 H   0  0  0  0  0  0  0  0  0  0  0  0
   -5.6194   -0.5122    1.0147 H   0  0  0  0  0  0  0  0  0  0  0  0
   -9.5952   -6.2985   -0.2111 C   0  0  0  0  0  0  0  0  0  0  0  0
  -10.4419   -7.4051   -0.2029 C   0  0  0  0  0  0  0  0  0  0  0  0
  -10.0994   -8.5852   -0.8792 C   0  0  0  0  0  0  0  0  0  0  0  0
   -8.8799   -8.6244   -1.5671 C   0  0  0  0  0  0  0  0  0  0  0  0
   -8.0241   -7.5223   -1.5830 C   0  0  0  0  0  0  0  0  0  0  0  0
   -8.3840   -6.3589   -0.9037 C   0  0  0  0  0  0  0  0  0  0  0  0
   -9.8557   -5.3922    0.3252 H   0  0  0  0  0  0  0  0  0  0  0  0
  -11.3843   -7.3544    0.3381 H   0  0  0  0  0  0  0  0  0  0  0  0
   -8.5941   -9.5314   -2.0955 H   0  0  0  0  0  0  0  0  0  0  0  0
   -7.0733   -7.5580   -2.1032 H   0  0  0  0  0  0  0  0  0  0  0  0
   -7.3233   -4.9068   -0.9775 S   0  0  0  0  0  0  0  0  0  0  0  0
   -7.4925   -4.2415    0.3566 O   0  0  0  0  0  0  0  0  0  0  0  0
   -7.7833   -4.0687   -2.1112 O   0  0  0  0  0  0  0  0  0  0  0  0
   -5.9378   -5.4509   -1.1718 O   0  0  0  0  0  0  0  0  0  0  0  0
  -11.0104   -9.7901   -0.8393 C   0  0  0  0  0  0  0  0  0  0  0  0
  -10.8885  -10.3520    0.0962 H   0  0  0  0  0  0  0  0  0  0  0  0
  -12.0642   -9.4986   -0.9034 H   0  0  0  0  0  0  0  0  0  0  0  0
  -10.7987  -10.4786   -1.6630 H   0  0  0  0  0  0  0  0  0  0  0  0
  1  2  1  0  0  0  0
  1  8  2  0  0  0  0
  2  3  1  0  0  0  0
  4  1  1  0  0  0  0
  5  4  2  0  0  0  0
  5  6  1  0  0  0  0
  6  7  2  0  0  0  0
  7 12  1  0  0  0  0
  7  8  1  0  0  0  0
  8 13  1  0  0  0  0
  9  4  1  0  0  0  0
 10  5  1  0  0  0  0
 11  6  1  0  0  0  0
 14 15  1  0  0  0  0
 14 20  1  0  0  0  0
 15 21  1  0  0  0  0
 16 28  1  0  0  0  0
 16 15  2  0  0  0  0
 17 16  1  0  0  0  0
 18 17  2  0  0  0  0
 18 19  1  0  0  0  0
 19 14  2  0  0  0  0
 22 17  1  0  0  0  0
 23 18  1  0  0  0  0
 24 19  1  0  0  0  0
 24 25  1  0  0  0  0
 26 24  2  0  0  0  0
 27 24  2  0  0  0  0
 28 29  1  0  0  0  0
 30 28  1  0  0  0  0
 31 28  1  0  0  0  0
M  RAD  3   2   2   3   3  25   2
M  END
