Coordinates from ORCA-job PhN2+~TsO-_B3LYPG-6-31G_dp-NX-Scan-d89-09-n800
 OpenBabel11261920463D

 31 32  0  0  1  0  0  0  0  0999 V2000
   -5.3954   -1.3412   -0.9898 C   0  0  2  0  0  0  0  0  0  0  0  0
   -6.2969   -0.5599   -1.5294 N   0  0  0  0  0  0  0  0  0  0  0  0
   -7.1151    0.0788   -2.0019 N   0  0  0  0  0  0  0  0  0  0  0  0
   -4.5511   -2.1512   -1.8483 C   0  0  0  0  0  0  0  0  0  0  0  0
   -3.9855   -3.2554   -1.3281 C   0  0  0  0  0  0  0  0  0  0  0  0
   -4.4212   -3.7266    0.0203 C   0  0  1  0  0  0  0  0  0  0  0  0
   -4.7880   -2.6170    0.9524 C   0  0  0  0  0  0  0  0  0  0  0  0
   -5.3597   -1.5069    0.4525 C   0  0  0  0  0  0  0  0  0  0  0  0
   -4.3841   -1.8368   -2.8738 H   0  0  0  0  0  0  0  0  0  0  0  0
   -3.3136   -3.8775   -1.9090 H   0  0  0  0  0  0  0  0  0  0  0  0
   -3.7239   -4.4439    0.4551 H   0  0  0  0  0  0  0  0  0  0  0  0
   -4.7038   -2.7806    2.0209 H   0  0  0  0  0  0  0  0  0  0  0  0
   -5.7788   -0.7295    1.0836 H   0  0  0  0  0  0  0  0  0  0  0  0
   -8.7037   -5.9914    0.2838 C   0  0  0  0  0  0  0  0  0  0  0  0
   -9.8355   -6.4740   -0.3663 C   0  0  0  0  0  0  0  0  0  0  0  0
   -9.7284   -7.3644   -1.4466 C   0  0  0  0  0  0  0  0  0  0  0  0
   -8.4508   -7.7654   -1.8595 C   0  0  0  0  0  0  0  0  0  0  0  0
   -7.3050   -7.2933   -1.2213 C   0  0  0  0  0  0  0  0  0  0  0  0
   -7.4446   -6.4045   -0.1564 C   0  0  0  0  0  0  0  0  0  0  0  0
   -8.7851   -5.3161    1.1285 H   0  0  0  0  0  0  0  0  0  0  0  0
  -10.8192   -6.1593   -0.0280 H   0  0  0  0  0  0  0  0  0  0  0  0
   -8.3509   -8.4598   -2.6893 H   0  0  0  0  0  0  0  0  0  0  0  0
   -6.3172   -7.6157   -1.5310 H   0  0  0  0  0  0  0  0  0  0  0  0
   -5.9875   -5.7959    0.6704 S   0  0  0  0  0  0  0  0  0  0  0  0
   -6.3418   -5.3517    2.0213 O   0  0  0  0  0  0  0  0  0  0  0  0
   -5.7091   -4.4940   -0.2778 O   0  0  0  0  0  0  0  0  0  0  0  0
   -4.8862   -6.7476    0.4933 O   0  0  0  0  0  0  0  0  0  0  0  0
  -10.9677   -7.8823   -2.1359 C   0  0  0  0  0  0  0  0  0  0  0  0
  -11.5993   -8.4473   -1.4404 H   0  0  0  0  0  0  0  0  0  0  0  0
  -11.5764   -7.0592   -2.5267 H   0  0  0  0  0  0  0  0  0  0  0  0
  -10.7164   -8.5412   -2.9710 H   0  0  0  0  0  0  0  0  0  0  0  0
  1  2  1  6  0  0  0
  1  8  1  0  0  0  0
  3  2  1  0  0  0  0
  4  5  2  0  0  0  0
  4  1  1  0  0  0  0
  5  6  1  0  0  0  0
  6 11  1  1  0  0  0
  6  7  1  0  0  0  0
  7 12  1  0  0  0  0
  8  7  2  0  0  0  0
  8 13  1  0  0  0  0
  9  4  1  0  0  0  0
 10  5  1  0  0  0  0
 14 20  1  0  0  0  0
 15 21  1  0  0  0  0
 15 14  2  0  0  0  0
 16 15  1  0  0  0  0
 17 16  2  0  0  0  0
 17 18  1  0  0  0  0
 18 19  2  0  0  0  0
 19 14  1  0  0  0  0
 19 24  1  0  0  0  0
 22 17  1  0  0  0  0
 23 18  1  0  0  0  0
 24 25  2  0  0  0  0
 26  6  1  0  0  0  0
 26 24  1  0  0  0  0
 27 24  2  0  0  0  0
 28 16  1  0  0  0  0
 28 29  1  0  0  0  0
 30 28  1  0  0  0  0
 31 28  1  0  0  0  0
M  RAD  3   1   2   2   2   3   3
M  END
