Coordinates from ORCA-job PhN2+~TsO-_B3LYPG-6-31G_dp-NX-Scan-d89-09-n800
 OpenBabel11261920463D

 31 31  0  0  0  0  0  0  0  0999 V2000
   -3.6724   -0.5449    0.0707 C   0  0  0  0  0  0  0  0  0  0  0  0
   -3.3450    0.6473    0.6284 N   0  0  0  0  0  0  0  0  0  0  0  0
   -3.0965    1.6347    1.1052 N   0  0  0  0  0  0  0  0  0  0  0  0
   -2.7409   -1.1605   -0.8030 C   0  0  0  0  0  0  0  0  0  0  0  0
   -3.1107   -2.3670   -1.3667 C   0  0  0  0  0  0  0  0  0  0  0  0
   -4.3649   -2.9370   -1.0821 C   0  0  0  0  0  0  0  0  0  0  0  0
   -5.2687   -2.3108   -0.2006 C   0  0  0  0  0  0  0  0  0  0  0  0
   -4.9368   -1.1071    0.3891 C   0  0  0  0  0  0  0  0  0  0  0  0
   -1.7883   -0.6867   -1.0117 H   0  0  0  0  0  0  0  0  0  0  0  0
   -2.4276   -2.8685   -2.0444 H   0  0  0  0  0  0  0  0  0  0  0  0
   -4.7005   -3.8744   -1.5318 H   0  0  0  0  0  0  0  0  0  0  0  0
   -6.2376   -2.7936   -0.0138 H   0  0  0  0  0  0  0  0  0  0  0  0
   -5.6073   -0.5928    1.0694 H   0  0  0  0  0  0  0  0  0  0  0  0
   -9.7148   -6.2241   -0.4092 C   0  0  0  0  0  0  0  0  0  0  0  0
  -10.4653   -7.3860   -0.2403 C   0  0  0  0  0  0  0  0  0  0  0  0
  -10.0212   -8.6160   -0.7466 C   0  0  0  0  0  0  0  0  0  0  0  0
   -8.7998   -8.6481   -1.4321 C   0  0  0  0  0  0  0  0  0  0  0  0
   -8.0400   -7.4914   -1.6079 C   0  0  0  0  0  0  0  0  0  0  0  0
   -8.4993   -6.2786   -1.0946 C   0  0  0  0  0  0  0  0  0  0  0  0
  -10.0551   -5.2774   -0.0034 H   0  0  0  0  0  0  0  0  0  0  0  0
  -11.4118   -7.3391    0.2936 H   0  0  0  0  0  0  0  0  0  0  0  0
   -8.4374   -9.5923   -1.8329 H   0  0  0  0  0  0  0  0  0  0  0  0
   -7.0880   -7.5184   -2.1264 H   0  0  0  0  0  0  0  0  0  0  0  0
   -7.5654   -4.7653   -1.3769 S   0  0  0  0  0  0  0  0  0  0  0  0
   -7.7466   -3.9692   -0.1176 O   0  0  0  0  0  0  0  0  0  0  0  0
   -8.1317   -4.1088   -2.5771 O   0  0  0  0  0  0  0  0  0  0  0  0
   -6.1458   -5.2192   -1.5610 O   0  0  0  0  0  0  0  0  0  0  0  0
  -10.8233   -9.8777   -0.5287 C   0  0  0  0  0  0  0  0  0  0  0  0
  -10.5726  -10.3483    0.4314 H   0  0  0  0  0  0  0  0  0  0  0  0
  -11.8987   -9.6726   -0.5155 H   0  0  0  0  0  0  0  0  0  0  0  0
  -10.6280  -10.6168   -1.3121 H   0  0  0  0  0  0  0  0  0  0  0  0
  1  8  1  0  0  0  0
  1  2  1  0  0  0  0
  2  3  1  0  0  0  0
  4  1  2  0  0  0  0
  5  6  2  0  0  0  0
  5  4  1  0  0  0  0
  6  7  1  0  0  0  0
  7 12  1  0  0  0  0
  7  8  2  0  0  0  0
  8 13  1  0  0  0  0
  9  4  1  0  0  0  0
 10  5  1  0  0  0  0
 11  6  1  0  0  0  0
 14 15  1  0  0  0  0
 14 20  1  0  0  0  0
 15 21  1  0  0  0  0
 16 28  1  0  0  0  0
 16 15  2  0  0  0  0
 17 16  1  0  0  0  0
 18 17  2  0  0  0  0
 18 19  1  0  0  0  0
 19 14  2  0  0  0  0
 22 17  1  0  0  0  0
 23 18  1  0  0  0  0
 24 19  1  0  0  0  0
 24 25  1  0  0  0  0
 26 24  2  0  0  0  0
 27 24  2  0  0  0  0
 28 30  1  0  0  0  0
 28 29  1  0  0  0  0
 31 28  1  0  0  0  0
M  RAD  3   2   2   3   3  25   2
M  END
