Coordinates from ORCA-job PhN2+~TsO-_B3LYPG-6-31G_dp-NX-Scan-d89-09-n800
 OpenBabel11261920463D

 31 32  0  0  1  0  0  0  0  0999 V2000
   -5.4014   -1.3661   -0.6531 C   0  0  2  0  0  0  0  0  0  0  0  0
   -6.6796   -1.6747   -0.5688 N   0  0  0  0  0  0  0  0  0  0  0  0
   -7.7214   -2.1190   -0.4868 N   0  0  0  0  0  0  0  0  0  0  0  0
   -4.7907   -1.9580   -1.8831 C   0  0  0  0  0  0  0  0  0  0  0  0
   -4.2053   -3.1521   -1.7246 C   0  0  0  0  0  0  0  0  0  0  0  0
   -4.3843   -3.8043   -0.3772 C   0  0  1  0  0  0  0  0  0  0  0  0
   -4.0968   -2.8260    0.7369 C   0  0  0  0  0  0  0  0  0  0  0  0
   -4.6870   -1.6278    0.6339 C   0  0  0  0  0  0  0  0  0  0  0  0
   -4.8507   -1.4373   -2.8346 H   0  0  0  0  0  0  0  0  0  0  0  0
   -3.6707   -3.6688   -2.5158 H   0  0  0  0  0  0  0  0  0  0  0  0
   -3.8529   -4.7487   -0.2725 H   0  0  0  0  0  0  0  0  0  0  0  0
   -3.4950   -3.1301    1.5879 H   0  0  0  0  0  0  0  0  0  0  0  0
   -4.6851   -0.8836    1.4250 H   0  0  0  0  0  0  0  0  0  0  0  0
   -8.9068   -5.4342   -0.2352 C   0  0  0  0  0  0  0  0  0  0  0  0
   -9.9010   -6.0966   -0.9491 C   0  0  0  0  0  0  0  0  0  0  0  0
   -9.6604   -7.3434   -1.5478 C   0  0  0  0  0  0  0  0  0  0  0  0
   -8.3874   -7.9136   -1.4164 C   0  0  0  0  0  0  0  0  0  0  0  0
   -7.3755   -7.2643   -0.7103 C   0  0  0  0  0  0  0  0  0  0  0  0
   -7.6466   -6.0267   -0.1281 C   0  0  0  0  0  0  0  0  0  0  0  0
   -9.0980   -4.4747    0.2303 H   0  0  0  0  0  0  0  0  0  0  0  0
  -10.8829   -5.6393   -1.0414 H   0  0  0  0  0  0  0  0  0  0  0  0
   -8.1845   -8.8804   -1.8683 H   0  0  0  0  0  0  0  0  0  0  0  0
   -6.3931   -7.7099   -0.5991 H   0  0  0  0  0  0  0  0  0  0  0  0
   -6.3618   -5.2017    0.7941 S   0  0  0  0  0  0  0  0  0  0  0  0
   -6.9649   -4.4715    1.9064 O   0  0  0  0  0  0  0  0  0  0  0  0
   -5.8744   -4.1137   -0.3435 O   0  0  0  0  0  0  0  0  0  0  0  0
   -5.2611   -6.1404    1.0367 O   0  0  0  0  0  0  0  0  0  0  0  0
  -10.7600   -8.0598   -2.2934 C   0  0  0  0  0  0  0  0  0  0  0  0
  -11.4763   -8.5116   -1.5962 H   0  0  0  0  0  0  0  0  0  0  0  0
  -11.3227   -7.3712   -2.9320 H   0  0  0  0  0  0  0  0  0  0  0  0
  -10.3632   -8.8611   -2.9225 H   0  0  0  0  0  0  0  0  0  0  0  0
  1  2  1  1  0  0  0
  1  8  1  0  0  0  0
  2  3  1  0  0  0  0
  4  5  2  0  0  0  0
  4  1  1  0  0  0  0
  5  6  1  0  0  0  0
  6 26  1  0  0  0  0
  6 11  1  1  0  0  0
  6  7  1  0  0  0  0
  7 12  1  0  0  0  0
  8  7  2  0  0  0  0
  8 13  1  0  0  0  0
  9  4  1  0  0  0  0
 10  5  1  0  0  0  0
 14 19  1  0  0  0  0
 14 20  1  0  0  0  0
 15 14  2  0  0  0  0
 16 17  2  0  0  0  0
 16 15  1  0  0  0  0
 17 18  1  0  0  0  0
 18 23  1  0  0  0  0
 18 19  2  0  0  0  0
 19 24  1  0  0  0  0
 21 15  1  0  0  0  0
 22 17  1  0  0  0  0
 24 27  2  0  0  0  0
 24 25  2  0  0  0  0
 26 24  1  0  0  0  0
 28 29  1  0  0  0  0
 28 16  1  0  0  0  0
 30 28  1  0  0  0  0
 31 28  1  0  0  0  0
M  RAD  3   1   2   2   2   3   3
M  END
