Coordinates from ORCA-job PhN2+~TsO-_B3LYPG-6-31G_dp-NX-Scan-d89-09-n800
 OpenBabel11261920463D

 31 32  0  0  1  0  0  0  0  0999 V2000
   -5.1777   -1.0730   -1.0047 C   0  0  0  0  0  0  0  0  0  0  0  0
   -5.6503    0.0247   -1.5433 N   0  0  0  0  0  0  0  0  0  0  0  0
   -6.0812    0.9696   -2.0184 N   0  0  0  0  0  0  0  0  0  0  0  0
   -4.4383   -2.0113   -1.8231 C   0  0  0  0  0  0  0  0  0  0  0  0
   -4.1113   -3.2139   -1.3159 C   0  0  0  0  0  0  0  0  0  0  0  0
   -4.6197   -3.6623    0.0135 C   0  0  1  0  0  0  0  0  0  0  0  0
   -5.0929   -2.5557    0.8977 C   0  0  0  0  0  0  0  0  0  0  0  0
   -5.4225   -1.3515    0.3963 C   0  0  0  0  0  0  0  0  0  0  0  0
   -4.1426   -1.7126   -2.8236 H   0  0  0  0  0  0  0  0  0  0  0  0
   -3.5392   -3.9267   -1.9002 H   0  0  0  0  0  0  0  0  0  0  0  0
   -3.9066   -4.3222    0.5144 H   0  0  0  0  0  0  0  0  0  0  0  0
   -5.2553   -2.7872    1.9445 H   0  0  0  0  0  0  0  0  0  0  0  0
   -5.8508   -0.5703    1.0166 H   0  0  0  0  0  0  0  0  0  0  0  0
   -8.7001   -6.1716    0.3252 C   0  0  0  0  0  0  0  0  0  0  0  0
   -9.8501   -6.6742   -0.2753 C   0  0  0  0  0  0  0  0  0  0  0  0
   -9.7750   -7.5313   -1.3851 C   0  0  0  0  0  0  0  0  0  0  0  0
   -8.5104   -7.8795   -1.8777 C   0  0  0  0  0  0  0  0  0  0  0  0
   -7.3463   -7.3863   -1.2904 C   0  0  0  0  0  0  0  0  0  0  0  0
   -7.4547   -6.5308   -0.1951 C   0  0  0  0  0  0  0  0  0  0  0  0
   -8.7564   -5.5224    1.1920 H   0  0  0  0  0  0  0  0  0  0  0  0
  -10.8228   -6.4019    0.1255 H   0  0  0  0  0  0  0  0  0  0  0  0
   -8.4348   -8.5485   -2.7304 H   0  0  0  0  0  0  0  0  0  0  0  0
   -6.3672   -7.6668   -1.6622 H   0  0  0  0  0  0  0  0  0  0  0  0
   -5.9738   -5.8948    0.5644 S   0  0  0  0  0  0  0  0  0  0  0  0
   -6.2467   -5.5437    1.9614 O   0  0  0  0  0  0  0  0  0  0  0  0
   -5.8328   -4.5225   -0.3130 O   0  0  0  0  0  0  0  0  0  0  0  0
   -4.8434   -6.7740    0.2522 O   0  0  0  0  0  0  0  0  0  0  0  0
  -11.0338   -8.0651   -2.0250 C   0  0  0  0  0  0  0  0  0  0  0  0
  -11.6526   -8.6000   -1.2956 H   0  0  0  0  0  0  0  0  0  0  0  0
  -11.6460   -7.2512   -2.4305 H   0  0  0  0  0  0  0  0  0  0  0  0
  -10.8067   -8.7535   -2.8431 H   0  0  0  0  0  0  0  0  0  0  0  0
  1  8  1  0  0  0  0
  2  1  1  0  0  0  0
  3  2  1  0  0  0  0
  4  5  1  0  0  0  0
  4  1  2  0  0  0  0
  5  6  1  0  0  0  0
  6 11  1  1  0  0  0
  6  7  1  0  0  0  0
  7 12  1  0  0  0  0
  8  7  2  0  0  0  0
  8 13  1  0  0  0  0
  9  4  1  0  0  0  0
 10  5  1  0  0  0  0
 14 20  1  0  0  0  0
 15 21  1  0  0  0  0
 15 14  2  0  0  0  0
 16 15  1  0  0  0  0
 17 16  2  0  0  0  0
 17 18  1  0  0  0  0
 18 19  2  0  0  0  0
 19 14  1  0  0  0  0
 19 24  1  0  0  0  0
 22 17  1  0  0  0  0
 23 18  1  0  0  0  0
 24 25  2  0  0  0  0
 26  6  1  0  0  0  0
 26 24  1  0  0  0  0
 27 24  2  0  0  0  0
 28 16  1  0  0  0  0
 28 29  1  0  0  0  0
 30 28  1  0  0  0  0
 31 28  1  0  0  0  0
M  RAD  3   2   2   3   3   5   2
M  END
