Coordinates from ORCA-job PhN2+~TsO-_B3LYPG-6-31G_dp-NX-Scan-d89-09-n800
 OpenBabel11261920463D

 31 32  0  0  1  0  0  0  0  0999 V2000
   -5.4196   -1.3799   -0.9342 C   0  0  2  0  0  0  0  0  0  0  0  0
   -6.4269   -0.6739   -1.3812 N   0  0  0  0  0  0  0  0  0  0  0  0
   -7.3393   -0.1107   -1.7694 N   0  0  0  0  0  0  0  0  0  0  0  0
   -4.6314   -2.1616   -1.8717 C   0  0  0  0  0  0  0  0  0  0  0  0
   -4.0203   -3.2685   -1.4128 C   0  0  0  0  0  0  0  0  0  0  0  0
   -4.3759   -3.7614   -0.0476 C   0  0  1  0  0  0  0  0  0  0  0  0
   -4.6230   -2.6583    0.9325 C   0  0  0  0  0  0  0  0  0  0  0  0
   -5.2396   -1.5446    0.4991 C   0  0  0  0  0  0  0  0  0  0  0  0
   -4.5441   -1.8255   -2.9004 H   0  0  0  0  0  0  0  0  0  0  0  0
   -3.3782   -3.8722   -2.0446 H   0  0  0  0  0  0  0  0  0  0  0  0
   -3.6868   -4.5231    0.3181 H   0  0  0  0  0  0  0  0  0  0  0  0
   -4.4192   -2.8260    1.9840 H   0  0  0  0  0  0  0  0  0  0  0  0
   -5.5928   -0.7680    1.1705 H   0  0  0  0  0  0  0  0  0  0  0  0
   -8.7496   -5.8959    0.2227 C   0  0  0  0  0  0  0  0  0  0  0  0
   -9.8555   -6.4029   -0.4530 C   0  0  0  0  0  0  0  0  0  0  0  0
   -9.7089   -7.3546   -1.4748 C   0  0  0  0  0  0  0  0  0  0  0  0
   -8.4183   -7.7915   -1.8024 C   0  0  0  0  0  0  0  0  0  0  0  0
   -7.2980   -7.2950   -1.1380 C   0  0  0  0  0  0  0  0  0  0  0  0
   -7.4762   -6.3456   -0.1327 C   0  0  0  0  0  0  0  0  0  0  0  0
   -8.8625   -5.1723    1.0227 H   0  0  0  0  0  0  0  0  0  0  0  0
  -10.8499   -6.0591   -0.1808 H   0  0  0  0  0  0  0  0  0  0  0  0
   -8.2882   -8.5338   -2.5854 H   0  0  0  0  0  0  0  0  0  0  0  0
   -6.3009   -7.6442   -1.3818 H   0  0  0  0  0  0  0  0  0  0  0  0
   -6.0521   -5.7044    0.7273 S   0  0  0  0  0  0  0  0  0  0  0  0
   -6.4671   -5.1891    2.0343 O   0  0  0  0  0  0  0  0  0  0  0  0
   -5.7166   -4.4588   -0.2774 O   0  0  0  0  0  0  0  0  0  0  0  0
   -4.9521   -6.6717    0.6516 O   0  0  0  0  0  0  0  0  0  0  0  0
  -10.9204   -7.8990   -2.1925 C   0  0  0  0  0  0  0  0  0  0  0  0
  -11.5832   -8.4315   -1.5003 H   0  0  0  0  0  0  0  0  0  0  0  0
  -11.5084   -7.0923   -2.6442 H   0  0  0  0  0  0  0  0  0  0  0  0
  -10.6370   -8.5950   -2.9863 H   0  0  0  0  0  0  0  0  0  0  0  0
  1  2  1  1  0  0  0
  1  8  1  0  0  0  0
  3  2  1  0  0  0  0
  4  5  2  0  0  0  0
  4  1  1  0  0  0  0
  5  6  1  0  0  0  0
  6 11  1  1  0  0  0
  6  7  1  0  0  0  0
  7 12  1  0  0  0  0
  8  7  2  0  0  0  0
  8 13  1  0  0  0  0
  9  4  1  0  0  0  0
 10  5  1  0  0  0  0
 14 20  1  0  0  0  0
 15 21  1  0  0  0  0
 15 14  2  0  0  0  0
 16 15  1  0  0  0  0
 17 16  2  0  0  0  0
 17 18  1  0  0  0  0
 18 19  2  0  0  0  0
 19 14  1  0  0  0  0
 19 24  1  0  0  0  0
 22 17  1  0  0  0  0
 23 18  1  0  0  0  0
 24 25  2  0  0  0  0
 26  6  1  0  0  0  0
 26 24  1  0  0  0  0
 27 24  2  0  0  0  0
 28 29  1  0  0  0  0
 28 16  1  0  0  0  0
 30 28  1  0  0  0  0
 31 28  1  0  0  0  0
M  RAD  3   1   2   2   2   3   3
M  END
