Coordinates from ORCA-job PhN2+~TsO-_B3LYPG-6-31G_dp-NX-Scan-d89-09-n800
 OpenBabel11261920463D

 31 32  0  0  1  0  0  0  0  0999 V2000
   -5.3970   -1.3884   -0.6621 C   0  0  2  0  0  0  0  0  0  0  0  0
   -6.6747   -1.1014   -0.6965 N   0  0  0  0  0  0  0  0  0  0  0  0
   -7.8027   -0.9470   -0.7206 N   0  0  0  0  0  0  0  0  0  0  0  0
   -4.8255   -2.0084   -1.8638 C   0  0  0  0  0  0  0  0  0  0  0  0
   -4.1836   -3.1762   -1.6968 C   0  0  0  0  0  0  0  0  0  0  0  0
   -4.3374   -3.8377   -0.3588 C   0  0  1  0  0  0  0  0  0  0  0  0
   -4.1672   -2.8604    0.7700 C   0  0  0  0  0  0  0  0  0  0  0  0
   -4.8096   -1.6875    0.6498 C   0  0  0  0  0  0  0  0  0  0  0  0
   -4.9318   -1.5168   -2.8265 H   0  0  0  0  0  0  0  0  0  0  0  0
   -3.6630   -3.6831   -2.5020 H   0  0  0  0  0  0  0  0  0  0  0  0
   -3.7421   -4.7424   -0.2434 H   0  0  0  0  0  0  0  0  0  0  0  0
   -3.6386   -3.1536    1.6705 H   0  0  0  0  0  0  0  0  0  0  0  0
   -4.9118   -0.9745    1.4625 H   0  0  0  0  0  0  0  0  0  0  0  0
   -8.8404   -5.5167   -0.2001 C   0  0  0  0  0  0  0  0  0  0  0  0
   -9.8622   -6.1481   -0.9021 C   0  0  0  0  0  0  0  0  0  0  0  0
   -9.6561   -7.3883   -1.5278 C   0  0  0  0  0  0  0  0  0  0  0  0
   -8.3909   -7.9823   -1.4344 C   0  0  0  0  0  0  0  0  0  0  0  0
   -7.3516   -7.3623   -0.7410 C   0  0  0  0  0  0  0  0  0  0  0  0
   -7.5878   -6.1314   -0.1316 C   0  0  0  0  0  0  0  0  0  0  0  0
   -9.0066   -4.5658    0.2938 H   0  0  0  0  0  0  0  0  0  0  0  0
  -10.8385   -5.6736   -0.9626 H   0  0  0  0  0  0  0  0  0  0  0  0
   -8.2162   -8.9450   -1.9064 H   0  0  0  0  0  0  0  0  0  0  0  0
   -6.3745   -7.8259   -0.6599 H   0  0  0  0  0  0  0  0  0  0  0  0
   -6.2703   -5.3347    0.7698 S   0  0  0  0  0  0  0  0  0  0  0  0
   -6.8459   -4.6039    1.8982 O   0  0  0  0  0  0  0  0  0  0  0  0
   -5.7980   -4.2677   -0.3816 O   0  0  0  0  0  0  0  0  0  0  0  0
   -5.1799   -6.2903    0.9934 O   0  0  0  0  0  0  0  0  0  0  0  0
  -10.7836   -8.0674   -2.2671 C   0  0  0  0  0  0  0  0  0  0  0  0
  -11.5642   -8.4005   -1.5730 H   0  0  0  0  0  0  0  0  0  0  0  0
  -11.2581   -7.3856   -2.9810 H   0  0  0  0  0  0  0  0  0  0  0  0
  -10.4321   -8.9438   -2.8174 H   0  0  0  0  0  0  0  0  0  0  0  0
  1  2  1  1  0  0  0
  1  8  1  0  0  0  0
  3  2  1  0  0  0  0
  4  5  2  0  0  0  0
  4  1  1  0  0  0  0
  5  6  1  0  0  0  0
  6 11  1  1  0  0  0
  6  7  1  0  0  0  0
  7 12  1  0  0  0  0
  8  7  2  0  0  0  0
  8 13  1  0  0  0  0
  9  4  1  0  0  0  0
 10  5  1  0  0  0  0
 14 19  1  0  0  0  0
 14 20  1  0  0  0  0
 15 14  2  0  0  0  0
 16 17  2  0  0  0  0
 16 15  1  0  0  0  0
 17 18  1  0  0  0  0
 18 23  1  0  0  0  0
 18 19  2  0  0  0  0
 19 24  1  0  0  0  0
 21 15  1  0  0  0  0
 22 17  1  0  0  0  0
 24 27  2  0  0  0  0
 24 25  2  0  0  0  0
 26  6  1  0  0  0  0
 26 24  1  0  0  0  0
 28 29  1  0  0  0  0
 28 16  1  0  0  0  0
 30 28  1  0  0  0  0
 31 28  1  0  0  0  0
M  RAD  3   1   2   2   2   3   3
M  END
