Coordinates from ORCA-job PhN2+~TsO-_B3LYPG-6-31G_dp-NX-Scan-d89-09-n800
 OpenBabel11261920463D

 31 31  0  0  0  0  0  0  0  0999 V2000
   -3.6958   -0.4962   -0.0007 C   0  0  0  0  0  0  0  0  0  0  0  0
   -3.3997    0.7355    0.4840 N   0  0  0  0  0  0  0  0  0  0  0  0
   -3.1773    1.7562    0.8994 N   0  0  0  0  0  0  0  0  0  0  0  0
   -2.7672   -1.1209   -0.8709 C   0  0  0  0  0  0  0  0  0  0  0  0
   -3.1072   -2.3671   -1.3624 C   0  0  0  0  0  0  0  0  0  0  0  0
   -4.3297   -2.9680   -1.0109 C   0  0  0  0  0  0  0  0  0  0  0  0
   -5.2306   -2.3310   -0.1340 C   0  0  0  0  0  0  0  0  0  0  0  0
   -4.9280   -1.0874    0.3842 C   0  0  0  0  0  0  0  0  0  0  0  0
   -1.8399   -0.6239   -1.1324 H   0  0  0  0  0  0  0  0  0  0  0  0
   -2.4259   -2.8767   -2.0359 H   0  0  0  0  0  0  0  0  0  0  0  0
   -4.6441   -3.9357   -1.4089 H   0  0  0  0  0  0  0  0  0  0  0  0
   -6.1773   -2.8349    0.1024 H   0  0  0  0  0  0  0  0  0  0  0  0
   -5.5990   -0.5629    1.0562 H   0  0  0  0  0  0  0  0  0  0  0  0
   -9.6857   -6.2496   -0.3480 C   0  0  0  0  0  0  0  0  0  0  0  0
  -10.4672   -7.3975   -0.2337 C   0  0  0  0  0  0  0  0  0  0  0  0
  -10.0517   -8.6159   -0.7903 C   0  0  0  0  0  0  0  0  0  0  0  0
   -8.8265   -8.6508   -1.4686 C   0  0  0  0  0  0  0  0  0  0  0  0
   -8.0357   -7.5076   -1.5900 C   0  0  0  0  0  0  0  0  0  0  0  0
   -8.4673   -6.3065   -1.0283 C   0  0  0  0  0  0  0  0  0  0  0  0
  -10.0041   -5.3125    0.0963 H   0  0  0  0  0  0  0  0  0  0  0  0
  -11.4158   -7.3489    0.2964 H   0  0  0  0  0  0  0  0  0  0  0  0
   -8.4857   -9.5862   -1.9069 H   0  0  0  0  0  0  0  0  0  0  0  0
   -7.0811   -7.5372   -2.1034 H   0  0  0  0  0  0  0  0  0  0  0  0
   -7.4939   -4.8073   -1.2414 S   0  0  0  0  0  0  0  0  0  0  0  0
   -7.6620   -4.0599    0.0493 O   0  0  0  0  0  0  0  0  0  0  0  0
   -8.0364   -4.0845   -2.4150 O   0  0  0  0  0  0  0  0  0  0  0  0
   -6.0853   -5.2880   -1.4392 O   0  0  0  0  0  0  0  0  0  0  0  0
  -10.8903   -9.8631   -0.6342 C   0  0  0  0  0  0  0  0  0  0  0  0
  -10.6954  -10.3576    0.3269 H   0  0  0  0  0  0  0  0  0  0  0  0
  -11.9605   -9.6335   -0.6659 H   0  0  0  0  0  0  0  0  0  0  0  0
  -10.6757  -10.5909   -1.4228 H   0  0  0  0  0  0  0  0  0  0  0  0
  1  8  1  0  0  0  0
  1  2  1  0  0  0  0
  2  3  1  0  0  0  0
  4  1  2  0  0  0  0
  5  6  2  0  0  0  0
  5  4  1  0  0  0  0
  6  7  1  0  0  0  0
  7 12  1  0  0  0  0
  7  8  2  0  0  0  0
  8 13  1  0  0  0  0
  9  4  1  0  0  0  0
 10  5  1  0  0  0  0
 11  6  1  0  0  0  0
 14 15  1  0  0  0  0
 14 20  1  0  0  0  0
 15 21  1  0  0  0  0
 16 28  1  0  0  0  0
 16 15  2  0  0  0  0
 17 16  1  0  0  0  0
 18 17  2  0  0  0  0
 18 19  1  0  0  0  0
 19 14  2  0  0  0  0
 22 17  1  0  0  0  0
 23 18  1  0  0  0  0
 24 19  1  0  0  0  0
 24 25  1  0  0  0  0
 26 24  2  0  0  0  0
 27 24  2  0  0  0  0
 28 29  1  0  0  0  0
 30 28  1  0  0  0  0
 31 28  1  0  0  0  0
M  RAD  3   2   2   3   3  25   2
M  END
