Coordinates from ORCA-job PhN2+~TsO-_B3LYPG-6-31G_dp-NX-Scan-d89-09-n800
 OpenBabel11261920463D

 31 31  0  0  0  0  0  0  0  0999 V2000
   -3.6796   -0.5263    0.0446 C   0  0  0  0  0  0  0  0  0  0  0  0
   -3.3633    0.6809    0.5760 N   0  0  0  0  0  0  0  0  0  0  0  0
   -3.1243    1.6810    1.0307 N   0  0  0  0  0  0  0  0  0  0  0  0
   -2.7493   -1.1448   -0.8282 C   0  0  0  0  0  0  0  0  0  0  0  0
   -3.1087   -2.3662   -1.3661 C   0  0  0  0  0  0  0  0  0  0  0  0
   -4.3516   -2.9482   -1.0571 C   0  0  0  0  0  0  0  0  0  0  0  0
   -5.2541   -2.3184   -0.1767 C   0  0  0  0  0  0  0  0  0  0  0  0
   -4.9324   -1.0998    0.3873 C   0  0  0  0  0  0  0  0  0  0  0  0
   -1.8058   -0.6620   -1.0563 H   0  0  0  0  0  0  0  0  0  0  0  0
   -2.4264   -2.8703   -2.0427 H   0  0  0  0  0  0  0  0  0  0  0  0
   -4.6798   -3.8968   -1.4883 H   0  0  0  0  0  0  0  0  0  0  0  0
   -6.2151   -2.8093    0.0282 H   0  0  0  0  0  0  0  0  0  0  0  0
   -5.6029   -0.5819    1.0650 H   0  0  0  0  0  0  0  0  0  0  0  0
   -9.7058   -6.2334   -0.3878 C   0  0  0  0  0  0  0  0  0  0  0  0
  -10.4676   -7.3907   -0.2392 C   0  0  0  0  0  0  0  0  0  0  0  0
  -10.0330   -8.6169   -0.7629 C   0  0  0  0  0  0  0  0  0  0  0  0
   -8.8094   -8.6500   -1.4442 C   0  0  0  0  0  0  0  0  0  0  0  0
   -8.0383   -7.4977   -1.5997 C   0  0  0  0  0  0  0  0  0  0  0  0
   -8.4884   -6.2888   -1.0698 C   0  0  0  0  0  0  0  0  0  0  0  0
  -10.0389   -5.2899    0.0312 H   0  0  0  0  0  0  0  0  0  0  0  0
  -11.4156   -7.3432    0.2921 H   0  0  0  0  0  0  0  0  0  0  0  0
   -8.4542   -9.5913   -1.8579 H   0  0  0  0  0  0  0  0  0  0  0  0
   -7.0847   -7.5256   -2.1152 H   0  0  0  0  0  0  0  0  0  0  0  0
   -7.5400   -4.7800   -1.3260 S   0  0  0  0  0  0  0  0  0  0  0  0
   -7.7153   -4.0028   -0.0541 O   0  0  0  0  0  0  0  0  0  0  0  0
   -8.0988   -4.0978   -2.5158 O   0  0  0  0  0  0  0  0  0  0  0  0
   -6.1245   -5.2436   -1.5166 O   0  0  0  0  0  0  0  0  0  0  0  0
  -10.8483   -9.8739   -0.5678 C   0  0  0  0  0  0  0  0  0  0  0  0
  -10.6178  -10.3537    0.3928 H   0  0  0  0  0  0  0  0  0  0  0  0
  -11.9222   -9.6604   -0.5711 H   0  0  0  0  0  0  0  0  0  0  0  0
  -10.6458  -10.6085   -1.3535 H   0  0  0  0  0  0  0  0  0  0  0  0
  1  8  1  0  0  0  0
  1  2  1  0  0  0  0
  2  3  1  0  0  0  0
  4  1  2  0  0  0  0
  5  6  2  0  0  0  0
  5  4  1  0  0  0  0
  6  7  1  0  0  0  0
  7 12  1  0  0  0  0
  7  8  2  0  0  0  0
  8 13  1  0  0  0  0
  9  4  1  0  0  0  0
 10  5  1  0  0  0  0
 11  6  1  0  0  0  0
 14 15  1  0  0  0  0
 14 20  1  0  0  0  0
 15 21  1  0  0  0  0
 16 28  1  0  0  0  0
 16 15  2  0  0  0  0
 17 16  1  0  0  0  0
 18 17  2  0  0  0  0
 18 19  1  0  0  0  0
 19 14  2  0  0  0  0
 22 17  1  0  0  0  0
 23 18  1  0  0  0  0
 24 19  1  0  0  0  0
 24 25  1  0  0  0  0
 26 24  2  0  0  0  0
 27 24  2  0  0  0  0
 28 29  1  0  0  0  0
 30 28  1  0  0  0  0
 31 28  1  0  0  0  0
M  RAD  3   2   2   3   3  25   2
M  END
