Coordinates from ORCA-job PhN2+~TsO-_B3LYPG-6-31G_dp-NX-Scan-d89-09-n800
 OpenBabel11261920463D

 31 32  0  0  1  0  0  0  0  0999 V2000
   -5.4975   -1.4199   -0.6457 C   0  0  2  0  0  0  0  0  0  0  0  0
   -6.8075   -1.3785   -0.6614 N   0  0  0  0  0  0  0  0  0  0  0  0
   -7.9445   -1.4444   -0.6681 N   0  0  0  0  0  0  0  0  0  0  0  0
   -4.8636   -1.9830   -1.8532 C   0  0  0  0  0  0  0  0  0  0  0  0
   -4.1655   -3.1175   -1.6916 C   0  0  0  0  0  0  0  0  0  0  0  0
   -4.3095   -3.8020   -0.3612 C   0  0  1  0  0  0  0  0  0  0  0  0
   -4.1783   -2.8257    0.7769 C   0  0  0  0  0  0  0  0  0  0  0  0
   -4.8762   -1.6855    0.6661 C   0  0  0  0  0  0  0  0  0  0  0  0
   -4.9766   -1.4801   -2.8094 H   0  0  0  0  0  0  0  0  0  0  0  0
   -3.5973   -3.5832   -2.4898 H   0  0  0  0  0  0  0  0  0  0  0  0
   -3.6833   -4.6864   -0.2510 H   0  0  0  0  0  0  0  0  0  0  0  0
   -3.6220   -3.0961    1.6682 H   0  0  0  0  0  0  0  0  0  0  0  0
   -5.0052   -0.9789    1.4806 H   0  0  0  0  0  0  0  0  0  0  0  0
   -8.7443   -5.4371   -0.3093 C   0  0  0  0  0  0  0  0  0  0  0  0
   -9.7876   -6.0464   -0.9989 C   0  0  0  0  0  0  0  0  0  0  0  0
   -9.6533   -7.3412   -1.5265 C   0  0  0  0  0  0  0  0  0  0  0  0
   -8.4363   -8.0118   -1.3512 C   0  0  0  0  0  0  0  0  0  0  0  0
   -7.3750   -7.4155   -0.6697 C   0  0  0  0  0  0  0  0  0  0  0  0
   -7.5414   -6.1313   -0.1556 C   0  0  0  0  0  0  0  0  0  0  0  0
   -8.8559   -4.4388    0.0994 H   0  0  0  0  0  0  0  0  0  0  0  0
  -10.7242   -5.5101   -1.1283 H   0  0  0  0  0  0  0  0  0  0  0  0
   -8.3155   -9.0145   -1.7513 H   0  0  0  0  0  0  0  0  0  0  0  0
   -6.4329   -7.9341   -0.5292 H   0  0  0  0  0  0  0  0  0  0  0  0
   -6.1987   -5.3709    0.7387 S   0  0  0  0  0  0  0  0  0  0  0  0
   -6.7374   -4.6635    1.8997 O   0  0  0  0  0  0  0  0  0  0  0  0
   -5.7514   -4.2783   -0.4010 O   0  0  0  0  0  0  0  0  0  0  0  0
   -5.1090   -6.3374    0.9117 O   0  0  0  0  0  0  0  0  0  0  0  0
  -10.8069   -7.9968   -2.2466 C   0  0  0  0  0  0  0  0  0  0  0  0
  -11.5829   -8.3108   -1.5381 H   0  0  0  0  0  0  0  0  0  0  0  0
  -11.2778   -7.3074   -2.9550 H   0  0  0  0  0  0  0  0  0  0  0  0
  -10.4840   -8.8836   -2.7979 H   0  0  0  0  0  0  0  0  0  0  0  0
  1  2  1  1  0  0  0
  1  8  1  0  0  0  0
  3  2  1  0  0  0  0
  4  5  2  0  0  0  0
  4  1  1  0  0  0  0
  5  6  1  0  0  0  0
  6 11  1  1  0  0  0
  6  7  1  0  0  0  0
  7 12  1  0  0  0  0
  8  7  2  0  0  0  0
  8 13  1  0  0  0  0
  9  4  1  0  0  0  0
 10  5  1  0  0  0  0
 14 19  1  0  0  0  0
 14 20  1  0  0  0  0
 15 14  2  0  0  0  0
 16 17  2  0  0  0  0
 16 15  1  0  0  0  0
 17 18  1  0  0  0  0
 18 23  1  0  0  0  0
 18 19  2  0  0  0  0
 19 24  1  0  0  0  0
 21 15  1  0  0  0  0
 22 17  1  0  0  0  0
 24 27  2  0  0  0  0
 24 25  2  0  0  0  0
 26  6  1  0  0  0  0
 26 24  1  0  0  0  0
 28 29  1  0  0  0  0
 28 16  1  0  0  0  0
 30 28  1  0  0  0  0
 31 28  1  0  0  0  0
M  RAD  3   1   2   2   2   3   3
M  END
