Coordinates from ORCA-job PhN2+~TsO-_B3LYPG-6-31G_dp-NX-Scan-d89-09-n800
 OpenBabel11261920463D

 31 31  0  0  0  0  0  0  0  0999 V2000
   -3.7554   -0.4389   -0.1126 C   0  0  0  0  0  0  0  0  0  0  0  0
   -3.5157    0.8454    0.2516 N   0  0  0  0  0  0  0  0  0  0  0  0
   -3.3387    1.9101    0.5660 N   0  0  0  0  0  0  0  0  0  0  0  0
   -2.8251   -1.0834   -0.9663 C   0  0  0  0  0  0  0  0  0  0  0  0
   -3.1094   -2.3839   -1.3376 C   0  0  0  0  0  0  0  0  0  0  0  0
   -4.2797   -3.0202   -0.8849 C   0  0  0  0  0  0  0  0  0  0  0  0
   -5.1828   -2.3611   -0.0266 C   0  0  0  0  0  0  0  0  0  0  0  0
   -4.9353   -1.0625    0.3721 C   0  0  0  0  0  0  0  0  0  0  0  0
   -1.9391   -0.5598   -1.3074 H   0  0  0  0  0  0  0  0  0  0  0  0
   -2.4258   -2.9103   -1.9958 H   0  0  0  0  0  0  0  0  0  0  0  0
   -4.5534   -4.0311   -1.1969 H   0  0  0  0  0  0  0  0  0  0  0  0
   -6.0919   -2.8908    0.2847 H   0  0  0  0  0  0  0  0  0  0  0  0
   -5.6124   -0.5191    1.0226 H   0  0  0  0  0  0  0  0  0  0  0  0
   -9.6197   -6.2877   -0.2445 C   0  0  0  0  0  0  0  0  0  0  0  0
  -10.4488   -7.4070   -0.2076 C   0  0  0  0  0  0  0  0  0  0  0  0
  -10.0885   -8.5978   -0.8552 C   0  0  0  0  0  0  0  0  0  0  0  0
   -8.8693   -8.6349   -1.5439 C   0  0  0  0  0  0  0  0  0  0  0  0
   -8.0310   -7.5201   -1.5882 C   0  0  0  0  0  0  0  0  0  0  0  0
   -8.4084   -6.3461   -0.9373 C   0  0  0  0  0  0  0  0  0  0  0  0
   -9.8942   -5.3727    0.2696 H   0  0  0  0  0  0  0  0  0  0  0  0
  -11.3913   -7.3577    0.3332 H   0  0  0  0  0  0  0  0  0  0  0  0
   -8.5702   -9.5498   -2.0506 H   0  0  0  0  0  0  0  0  0  0  0  0
   -7.0806   -7.5534   -2.1092 H   0  0  0  0  0  0  0  0  0  0  0  0
   -7.3720   -4.8790   -1.0498 S   0  0  0  0  0  0  0  0  0  0  0  0
   -7.5402   -4.1909    0.2730 O   0  0  0  0  0  0  0  0  0  0  0  0
   -7.8559   -4.0724   -2.1956 O   0  0  0  0  0  0  0  0  0  0  0  0
   -5.9795   -5.4051   -1.2447 O   0  0  0  0  0  0  0  0  0  0  0  0
  -10.9806   -9.8155   -0.7847 C   0  0  0  0  0  0  0  0  0  0  0  0
  -10.8442  -10.3564    0.1612 H   0  0  0  0  0  0  0  0  0  0  0  0
  -12.0391   -9.5413   -0.8476 H   0  0  0  0  0  0  0  0  0  0  0  0
  -10.7636  -10.5174   -1.5955 H   0  0  0  0  0  0  0  0  0  0  0  0
  1  2  1  0  0  0  0
  1  8  2  0  0  0  0
  2  3  1  0  0  0  0
  4  1  1  0  0  0  0
  5  4  2  0  0  0  0
  5  6  1  0  0  0  0
  6  7  2  0  0  0  0
  7 12  1  0  0  0  0
  7  8  1  0  0  0  0
  8 13  1  0  0  0  0
  9  4  1  0  0  0  0
 10  5  1  0  0  0  0
 11  6  1  0  0  0  0
 14 15  1  0  0  0  0
 14 20  1  0  0  0  0
 15 21  1  0  0  0  0
 16 28  1  0  0  0  0
 16 15  2  0  0  0  0
 17 16  1  0  0  0  0
 18 17  2  0  0  0  0
 18 19  1  0  0  0  0
 19 14  2  0  0  0  0
 22 17  1  0  0  0  0
 23 18  1  0  0  0  0
 24 19  1  0  0  0  0
 24 25  1  0  0  0  0
 26 24  2  0  0  0  0
 27 24  2  0  0  0  0
 28 29  1  0  0  0  0
 30 28  1  0  0  0  0
 31 28  1  0  0  0  0
M  RAD  3   2   2   3   3  25   2
M  END
