Coordinates from ORCA-job PhN2+~TsO-_B3LYPG-6-31G_dp-NX-Scan-d89-09-n800
 OpenBabel11261920463D

 31 32  0  0  1  0  0  0  0  0999 V2000
   -5.2321   -1.1336   -1.0135 C   0  0  0  0  0  0  0  0  0  0  0  0
   -5.7996   -0.0954   -1.5772 N   0  0  0  0  0  0  0  0  0  0  0  0
   -6.3169    0.7923   -2.0749 N   0  0  0  0  0  0  0  0  0  0  0  0
   -4.4501   -2.0469   -1.8210 C   0  0  0  0  0  0  0  0  0  0  0  0
   -4.0685   -3.2249   -1.2946 C   0  0  0  0  0  0  0  0  0  0  0  0
   -4.5777   -3.6731    0.0344 C   0  0  1  0  0  0  0  0  0  0  0  0
   -5.0477   -2.5649    0.9179 C   0  0  0  0  0  0  0  0  0  0  0  0
   -5.4327   -1.3844    0.3998 C   0  0  0  0  0  0  0  0  0  0  0  0
   -4.1695   -1.7487   -2.8261 H   0  0  0  0  0  0  0  0  0  0  0  0
   -3.4615   -3.9202   -1.8644 H   0  0  0  0  0  0  0  0  0  0  0  0
   -3.8707   -4.3393    0.5344 H   0  0  0  0  0  0  0  0  0  0  0  0
   -5.1711   -2.7792    1.9737 H   0  0  0  0  0  0  0  0  0  0  0  0
   -5.8729   -0.6034    1.0120 H   0  0  0  0  0  0  0  0  0  0  0  0
   -8.6881   -6.1463    0.3259 C   0  0  0  0  0  0  0  0  0  0  0  0
   -9.8396   -6.6371   -0.2815 C   0  0  0  0  0  0  0  0  0  0  0  0
   -9.7666   -7.4892   -1.3952 C   0  0  0  0  0  0  0  0  0  0  0  0
   -8.5028   -7.8444   -1.8848 C   0  0  0  0  0  0  0  0  0  0  0  0
   -7.3373   -7.3630   -1.2905 C   0  0  0  0  0  0  0  0  0  0  0  0
   -7.4435   -6.5123   -0.1913 C   0  0  0  0  0  0  0  0  0  0  0  0
   -8.7427   -5.5011    1.1958 H   0  0  0  0  0  0  0  0  0  0  0  0
  -10.8118   -6.3595    0.1170 H   0  0  0  0  0  0  0  0  0  0  0  0
   -8.4289   -8.5095   -2.7408 H   0  0  0  0  0  0  0  0  0  0  0  0
   -6.3589   -7.6492   -1.6600 H   0  0  0  0  0  0  0  0  0  0  0  0
   -5.9609   -5.8913    0.5775 S   0  0  0  0  0  0  0  0  0  0  0  0
   -6.2393   -5.5383    1.9729 O   0  0  0  0  0  0  0  0  0  0  0  0
   -5.7998   -4.5210   -0.2991 O   0  0  0  0  0  0  0  0  0  0  0  0
   -4.8375   -6.7821    0.2725 O   0  0  0  0  0  0  0  0  0  0  0  0
  -11.0270   -8.0110   -2.0420 C   0  0  0  0  0  0  0  0  0  0  0  0
  -11.6478   -8.5526   -1.3192 H   0  0  0  0  0  0  0  0  0  0  0  0
  -11.6364   -7.1905   -2.4380 H   0  0  0  0  0  0  0  0  0  0  0  0
  -10.8020   -8.6905   -2.8681 H   0  0  0  0  0  0  0  0  0  0  0  0
  1  8  1  0  0  0  0
  2  1  1  0  0  0  0
  3  2  1  0  0  0  0
  4  5  1  0  0  0  0
  4  1  2  0  0  0  0
  5  6  1  0  0  0  0
  6 11  1  1  0  0  0
  6  7  1  0  0  0  0
  7 12  1  0  0  0  0
  8  7  2  0  0  0  0
  8 13  1  0  0  0  0
  9  4  1  0  0  0  0
 10  5  1  0  0  0  0
 14 20  1  0  0  0  0
 15 21  1  0  0  0  0
 15 14  2  0  0  0  0
 16 15  1  0  0  0  0
 17 16  2  0  0  0  0
 17 18  1  0  0  0  0
 18 19  2  0  0  0  0
 19 14  1  0  0  0  0
 19 24  1  0  0  0  0
 22 17  1  0  0  0  0
 23 18  1  0  0  0  0
 24 25  2  0  0  0  0
 26  6  1  0  0  0  0
 26 24  1  0  0  0  0
 27 24  2  0  0  0  0
 28 16  1  0  0  0  0
 28 29  1  0  0  0  0
 30 28  1  0  0  0  0
 31 28  1  0  0  0  0
M  RAD  3   2   2   3   3   5   2
M  END
