Coordinates from ORCA-job PhN2+~TsO-_B3LYPG-6-31G_dp-NX-Scan-d89-09-n800
 OpenBabel11261920463D

 31 32  0  0  1  0  0  0  0  0999 V2000
   -4.6268   -0.6749   -0.8342 C   0  0  0  0  0  0  0  0  0  0  0  0
   -4.3045    0.5881   -1.0258 N   0  0  0  0  0  0  0  0  0  0  0  0
   -4.0138    1.6888   -1.1858 N   0  0  0  0  0  0  0  0  0  0  0  0
   -4.3897   -1.6711   -1.8661 C   0  0  0  0  0  0  0  0  0  0  0  0
   -4.6007   -2.9808   -1.6245 C   0  0  0  0  0  0  0  0  0  0  0  0
   -5.0172   -3.5126   -0.2855 C   0  0  1  0  0  0  0  0  0  0  0  0
   -5.4227   -2.4237    0.6675 C   0  0  0  0  0  0  0  0  0  0  0  0
   -5.2130   -1.1150    0.4225 C   0  0  0  0  0  0  0  0  0  0  0  0
   -4.0338   -1.3388   -2.8365 H   0  0  0  0  0  0  0  0  0  0  0  0
   -4.4161   -3.7137   -2.4028 H   0  0  0  0  0  0  0  0  0  0  0  0
   -4.2131   -4.1297    0.1404 H   0  0  0  0  0  0  0  0  0  0  0  0
   -5.8598   -2.7424    1.6074 H   0  0  0  0  0  0  0  0  0  0  0  0
   -5.4779   -0.3649    1.1614 H   0  0  0  0  0  0  0  0  0  0  0  0
   -8.8579   -6.3047    0.2750 C   0  0  0  0  0  0  0  0  0  0  0  0
   -9.9639   -6.9485   -0.2705 C   0  0  0  0  0  0  0  0  0  0  0  0
   -9.8207   -7.8909   -1.3018 C   0  0  0  0  0  0  0  0  0  0  0  0
   -8.5325   -8.1789   -1.7718 C   0  0  0  0  0  0  0  0  0  0  0  0
   -7.4114   -7.5441   -1.2395 C   0  0  0  0  0  0  0  0  0  0  0  0
   -7.5882   -6.6070   -0.2225 C   0  0  0  0  0  0  0  0  0  0  0  0
   -8.9668   -5.5876    1.0812 H   0  0  0  0  0  0  0  0  0  0  0  0
  -10.9551   -6.7211    0.1126 H   0  0  0  0  0  0  0  0  0  0  0  0
   -8.4037   -8.9134   -2.5622 H   0  0  0  0  0  0  0  0  0  0  0  0
   -6.4132   -7.7762   -1.5933 H   0  0  0  0  0  0  0  0  0  0  0  0
   -6.1637   -5.7921    0.4696 S   0  0  0  0  0  0  0  0  0  0  0  0
   -6.4588   -5.3569    1.8375 O   0  0  0  0  0  0  0  0  0  0  0  0
   -6.1546   -4.4831   -0.5136 O   0  0  0  0  0  0  0  0  0  0  0  0
   -4.9622   -6.5886    0.2082 O   0  0  0  0  0  0  0  0  0  0  0  0
  -11.0330   -8.5753   -1.8856 C   0  0  0  0  0  0  0  0  0  0  0  0
  -11.6270   -9.0629   -1.1048 H   0  0  0  0  0  0  0  0  0  0  0  0
  -11.6895   -7.8538   -2.3863 H   0  0  0  0  0  0  0  0  0  0  0  0
  -10.7504   -9.3350   -2.6190 H   0  0  0  0  0  0  0  0  0  0  0  0
  1  8  1  0  0  0  0
  2  1  1  0  0  0  0
  3  2  1  0  0  0  0
  4  5  1  0  0  0  0
  4  1  2  0  0  0  0
  5  6  1  0  0  0  0
  6 11  1  1  0  0  0
  6  7  1  0  0  0  0
  7 12  1  0  0  0  0
  8  7  2  0  0  0  0
  8 13  1  0  0  0  0
  9  4  1  0  0  0  0
 10  5  1  0  0  0  0
 14 20  1  0  0  0  0
 15 21  1  0  0  0  0
 15 14  2  0  0  0  0
 16 15  1  0  0  0  0
 17 16  2  0  0  0  0
 17 18  1  0  0  0  0
 18 19  2  0  0  0  0
 19 14  1  0  0  0  0
 19 24  1  0  0  0  0
 22 17  1  0  0  0  0
 23 18  1  0  0  0  0
 24 25  2  0  0  0  0
 26  6  1  0  0  0  0
 26 24  1  0  0  0  0
 27 24  2  0  0  0  0
 28 16  1  0  0  0  0
 28 29  1  0  0  0  0
 30 28  1  0  0  0  0
 31 28  1  0  0  0  0
M  RAD  3   2   2   3   3   5   2
M  END
