Coordinates from ORCA-job PhN2+~TsO-_B3LYPG-6-31G_dp-NX-Scan-d89-09-n800
 OpenBabel11261920463D

 31 32  0  0  1  0  0  0  0  0999 V2000
   -5.3594   -1.3194   -0.7900 C   0  0  2  0  0  0  0  0  0  0  0  0
   -6.3899   -0.5509   -1.0353 N   0  0  0  0  0  0  0  0  0  0  0  0
   -7.3264    0.0641   -1.2460 N   0  0  0  0  0  0  0  0  0  0  0  0
   -4.7685   -2.0779   -1.8802 C   0  0  0  0  0  0  0  0  0  0  0  0
   -4.1813   -3.2509   -1.5833 C   0  0  0  0  0  0  0  0  0  0  0  0
   -4.3872   -3.8128   -0.2130 C   0  0  1  0  0  0  0  0  0  0  0  0
   -4.3858   -2.7641    0.8555 C   0  0  0  0  0  0  0  0  0  0  0  0
   -4.9757   -1.5857    0.5874 C   0  0  0  0  0  0  0  0  0  0  0  0
   -4.8015   -1.6732   -2.8873 H   0  0  0  0  0  0  0  0  0  0  0  0
   -3.6738   -3.8455   -2.3346 H   0  0  0  0  0  0  0  0  0  0  0  0
   -3.7349   -4.6573    0.0076 H   0  0  0  0  0  0  0  0  0  0  0  0
   -4.0268   -3.0117    1.8481 H   0  0  0  0  0  0  0  0  0  0  0  0
   -5.1625   -0.8325    1.3465 H   0  0  0  0  0  0  0  0  0  0  0  0
   -8.8376   -5.7502    0.0353 C   0  0  0  0  0  0  0  0  0  0  0  0
   -9.8917   -6.3306   -0.6634 C   0  0  0  0  0  0  0  0  0  0  0  0
   -9.6842   -7.4344   -1.5064 C   0  0  0  0  0  0  0  0  0  0  0  0
   -8.3860   -7.9463   -1.6314 C   0  0  0  0  0  0  0  0  0  0  0  0
   -7.3158   -7.3756   -0.9434 C   0  0  0  0  0  0  0  0  0  0  0  0
   -7.5533   -6.2775   -0.1182 C   0  0  0  0  0  0  0  0  0  0  0  0
   -9.0011   -4.9092    0.7004 H   0  0  0  0  0  0  0  0  0  0  0  0
  -10.8939   -5.9258   -0.5489 H   0  0  0  0  0  0  0  0  0  0  0  0
   -8.2106   -8.8068   -2.2712 H   0  0  0  0  0  0  0  0  0  0  0  0
   -6.3130   -7.7793   -1.0294 H   0  0  0  0  0  0  0  0  0  0  0  0
   -6.1945   -5.5445    0.7757 S   0  0  0  0  0  0  0  0  0  0  0  0
   -6.7072   -4.9374    2.0048 O   0  0  0  0  0  0  0  0  0  0  0  0
   -5.8052   -4.3723   -0.2973 O   0  0  0  0  0  0  0  0  0  0  0  0
   -5.0810   -6.4977    0.8462 O   0  0  0  0  0  0  0  0  0  0  0  0
  -10.8417   -8.0563   -2.2497 C   0  0  0  0  0  0  0  0  0  0  0  0
  -11.5936   -8.4471   -1.5546 H   0  0  0  0  0  0  0  0  0  0  0  0
  -11.3451   -7.3200   -2.8865 H   0  0  0  0  0  0  0  0  0  0  0  0
  -10.5127   -8.8821   -2.8858 H   0  0  0  0  0  0  0  0  0  0  0  0
  1  2  1  1  0  0  0
  1  8  1  0  0  0  0
  3  2  1  0  0  0  0
  4  5  2  0  0  0  0
  4  1  1  0  0  0  0
  5  6  1  0  0  0  0
  6 11  1  1  0  0  0
  6  7  1  0  0  0  0
  7 12  1  0  0  0  0
  8  7  2  0  0  0  0
  8 13  1  0  0  0  0
  9  4  1  0  0  0  0
 10  5  1  0  0  0  0
 14 20  1  0  0  0  0
 15 21  1  0  0  0  0
 15 14  2  0  0  0  0
 16 15  1  0  0  0  0
 17 16  2  0  0  0  0
 17 18  1  0  0  0  0
 18 19  2  0  0  0  0
 19 14  1  0  0  0  0
 19 24  1  0  0  0  0
 22 17  1  0  0  0  0
 23 18  1  0  0  0  0
 24 27  2  0  0  0  0
 24 25  2  0  0  0  0
 26  6  1  0  0  0  0
 26 24  1  0  0  0  0
 28 29  1  0  0  0  0
 28 16  1  0  0  0  0
 30 28  1  0  0  0  0
 31 28  1  0  0  0  0
M  RAD  3   1   2   2   2   3   3
M  END
