Coordinates from ORCA-job PhN2+~TsO-_B3LYPG-6-31G_dp-NX-Scan-d89-09-n800
 OpenBabel11261920463D

 31 32  0  0  1  0  0  0  0  0999 V2000
   -5.2696   -1.1780   -1.0172 C   0  0  0  0  0  0  0  0  0  0  0  0
   -5.9055   -0.1878   -1.5936 N   0  0  0  0  0  0  0  0  0  0  0  0
   -6.4850    0.6537   -2.1022 N   0  0  0  0  0  0  0  0  0  0  0  0
   -4.4608   -2.0714   -1.8211 C   0  0  0  0  0  0  0  0  0  0  0  0
   -4.0406   -3.2313   -1.2843 C   0  0  0  0  0  0  0  0  0  0  0  0
   -4.5471   -3.6810    0.0453 C   0  0  1  0  0  0  0  0  0  0  0  0
   -5.0111   -2.5717    0.9308 C   0  0  0  0  0  0  0  0  0  0  0  0
   -5.4355   -1.4087    0.4043 C   0  0  0  0  0  0  0  0  0  0  0  0
   -4.1938   -1.7726   -2.8298 H   0  0  0  0  0  0  0  0  0  0  0  0
   -3.4110   -3.9127   -1.8464 H   0  0  0  0  0  0  0  0  0  0  0  0
   -3.8437   -4.3528    0.5419 H   0  0  0  0  0  0  0  0  0  0  0  0
   -5.1035   -2.7737    1.9922 H   0  0  0  0  0  0  0  0  0  0  0  0
   -5.8818   -0.6282    1.0128 H   0  0  0  0  0  0  0  0  0  0  0  0
   -8.6821   -6.1246    0.3243 C   0  0  0  0  0  0  0  0  0  0  0  0
   -9.8335   -6.6086   -0.2887 C   0  0  0  0  0  0  0  0  0  0  0  0
   -9.7602   -7.4596   -1.4032 C   0  0  0  0  0  0  0  0  0  0  0  0
   -8.4961   -7.8207   -1.8879 C   0  0  0  0  0  0  0  0  0  0  0  0
   -7.3308   -7.3463   -1.2878 C   0  0  0  0  0  0  0  0  0  0  0  0
   -7.4372   -6.4965   -0.1879 C   0  0  0  0  0  0  0  0  0  0  0  0
   -8.7370   -5.4803    1.1949 H   0  0  0  0  0  0  0  0  0  0  0  0
  -10.8060   -6.3264    0.1059 H   0  0  0  0  0  0  0  0  0  0  0  0
   -8.4221   -8.4850   -2.7445 H   0  0  0  0  0  0  0  0  0  0  0  0
   -6.3524   -7.6373   -1.6535 H   0  0  0  0  0  0  0  0  0  0  0  0
   -5.9547   -5.8846    0.5886 S   0  0  0  0  0  0  0  0  0  0  0  0
   -6.2397   -5.5262    1.9812 O   0  0  0  0  0  0  0  0  0  0  0  0
   -5.7770   -4.5186   -0.2912 O   0  0  0  0  0  0  0  0  0  0  0  0
   -4.8364   -6.7851    0.2936 O   0  0  0  0  0  0  0  0  0  0  0  0
  -11.0206   -7.9747   -2.0554 C   0  0  0  0  0  0  0  0  0  0  0  0
  -11.6422   -8.5221   -1.3376 H   0  0  0  0  0  0  0  0  0  0  0  0
  -11.6291   -7.1505   -2.4447 H   0  0  0  0  0  0  0  0  0  0  0  0
  -10.7956   -8.6474   -2.8871 H   0  0  0  0  0  0  0  0  0  0  0  0
  1  8  2  0  0  0  0
  2  1  1  0  0  0  0
  3  2  1  0  0  0  0
  4  5  2  0  0  0  0
  4  1  1  0  0  0  0
  5  6  1  0  0  0  0
  6 11  1  1  0  0  0
  6  7  1  0  0  0  0
  7 12  1  0  0  0  0
  8  7  1  0  0  0  0
  8 13  1  0  0  0  0
  9  4  1  0  0  0  0
 10  5  1  0  0  0  0
 14 20  1  0  0  0  0
 15 21  1  0  0  0  0
 15 14  2  0  0  0  0
 16 15  1  0  0  0  0
 17 16  2  0  0  0  0
 17 18  1  0  0  0  0
 18 19  2  0  0  0  0
 19 14  1  0  0  0  0
 19 24  1  0  0  0  0
 22 17  1  0  0  0  0
 23 18  1  0  0  0  0
 24 25  2  0  0  0  0
 26  6  1  0  0  0  0
 26 24  1  0  0  0  0
 27 24  2  0  0  0  0
 28 16  1  0  0  0  0
 28 29  1  0  0  0  0
 30 28  1  0  0  0  0
 31 28  1  0  0  0  0
M  RAD  3   2   2   3   3   7   2
M  END
