Coordinates from ORCA-job PhN2+~TsO-_B3LYPG-6-31G_dp-NX-Scan-d89-09-n800
 OpenBabel11261920463D

 31 32  0  0  1  0  0  0  0  0999 V2000
   -5.4921   -1.4160   -0.6419 C   0  0  2  0  0  0  0  0  0  0  0  0
   -6.8033   -1.4357   -0.6428 N   0  0  0  0  0  0  0  0  0  0  0  0
   -7.9351   -1.5599   -0.6362 N   0  0  0  0  0  0  0  0  0  0  0  0
   -4.8586   -1.9759   -1.8546 C   0  0  0  0  0  0  0  0  0  0  0  0
   -4.1686   -3.1154   -1.6969 C   0  0  0  0  0  0  0  0  0  0  0  0
   -4.3152   -3.8004   -0.3663 C   0  0  1  0  0  0  0  0  0  0  0  0
   -4.1661   -2.8253    0.7718 C   0  0  0  0  0  0  0  0  0  0  0  0
   -4.8560   -1.6802    0.6661 C   0  0  0  0  0  0  0  0  0  0  0  0
   -4.9684   -1.4683   -2.8086 H   0  0  0  0  0  0  0  0  0  0  0  0
   -3.6014   -3.5824   -2.4952 H   0  0  0  0  0  0  0  0  0  0  0  0
   -3.6984   -4.6917   -0.2595 H   0  0  0  0  0  0  0  0  0  0  0  0
   -3.6004   -3.0991    1.6563 H   0  0  0  0  0  0  0  0  0  0  0  0
   -4.9713   -0.9705    1.4800 H   0  0  0  0  0  0  0  0  0  0  0  0
   -8.7561   -5.4285   -0.3135 C   0  0  0  0  0  0  0  0  0  0  0  0
   -9.7949   -6.0437   -1.0049 C   0  0  0  0  0  0  0  0  0  0  0  0
   -9.6541   -7.3390   -1.5292 C   0  0  0  0  0  0  0  0  0  0  0  0
   -8.4349   -8.0044   -1.3488 C   0  0  0  0  0  0  0  0  0  0  0  0
   -7.3781   -7.4025   -0.6654 C   0  0  0  0  0  0  0  0  0  0  0  0
   -7.5512   -6.1177   -0.1546 C   0  0  0  0  0  0  0  0  0  0  0  0
   -8.8727   -4.4296    0.0920 H   0  0  0  0  0  0  0  0  0  0  0  0
  -10.7332   -5.5113   -1.1384 H   0  0  0  0  0  0  0  0  0  0  0  0
   -8.3088   -9.0075   -1.7464 H   0  0  0  0  0  0  0  0  0  0  0  0
   -6.4345   -7.9172   -0.5210 H   0  0  0  0  0  0  0  0  0  0  0  0
   -6.2136   -5.3510    0.7420 S   0  0  0  0  0  0  0  0  0  0  0  0
   -6.7576   -4.6405    1.8983 O   0  0  0  0  0  0  0  0  0  0  0  0
   -5.7626   -4.2593   -0.3985 O   0  0  0  0  0  0  0  0  0  0  0  0
   -5.1226   -6.3148    0.9213 O   0  0  0  0  0  0  0  0  0  0  0  0
  -10.8029   -8.0013   -2.2505 C   0  0  0  0  0  0  0  0  0  0  0  0
  -11.5719   -8.3315   -1.5416 H   0  0  0  0  0  0  0  0  0  0  0  0
  -11.2853   -7.3110   -2.9502 H   0  0  0  0  0  0  0  0  0  0  0  0
  -10.4721   -8.8792   -2.8115 H   0  0  0  0  0  0  0  0  0  0  0  0
  1  2  1  1  0  0  0
  1  8  1  0  0  0  0
  2  3  1  0  0  0  0
  4  5  2  0  0  0  0
  4  1  1  0  0  0  0
  5  6  1  0  0  0  0
  6 11  1  1  0  0  0
  6  7  1  0  0  0  0
  7 12  1  0  0  0  0
  8  7  2  0  0  0  0
  8 13  1  0  0  0  0
  9  4  1  0  0  0  0
 10  5  1  0  0  0  0
 14 19  1  0  0  0  0
 14 20  1  0  0  0  0
 15 14  2  0  0  0  0
 16 17  2  0  0  0  0
 16 15  1  0  0  0  0
 17 18  1  0  0  0  0
 18 23  1  0  0  0  0
 18 19  2  0  0  0  0
 19 24  1  0  0  0  0
 21 15  1  0  0  0  0
 22 17  1  0  0  0  0
 24 27  2  0  0  0  0
 24 25  2  0  0  0  0
 26  6  1  0  0  0  0
 26 24  1  0  0  0  0
 28 29  1  0  0  0  0
 28 16  1  0  0  0  0
 30 28  1  0  0  0  0
 31 28  1  0  0  0  0
M  RAD  3   1   2   2   2   3   3
M  END
