Coordinates from ORCA-job PhN2+~TsO-_B3LYPG-6-31G_dp-NX-Scan-d89-09-n800
 OpenBabel11261920463D

 31 32  0  0  1  0  0  0  0  0999 V2000
   -5.3789   -1.3817   -0.6693 C   0  0  2  0  0  0  0  0  0  0  0  0
   -6.6396   -1.0297   -0.7135 N   0  0  0  0  0  0  0  0  0  0  0  0
   -7.7577   -0.8157   -0.7463 N   0  0  0  0  0  0  0  0  0  0  0  0
   -4.8194   -2.0162   -1.8666 C   0  0  0  0  0  0  0  0  0  0  0  0
   -4.1888   -3.1898   -1.6947 C   0  0  0  0  0  0  0  0  0  0  0  0
   -4.3444   -3.8436   -0.3538 C   0  0  1  0  0  0  0  0  0  0  0  0
   -4.1719   -2.8635    0.7713 C   0  0  0  0  0  0  0  0  0  0  0  0
   -4.8031   -1.6849    0.6447 C   0  0  0  0  0  0  0  0  0  0  0  0
   -4.9233   -1.5295   -2.8321 H   0  0  0  0  0  0  0  0  0  0  0  0
   -3.6782   -3.7068   -2.4998 H   0  0  0  0  0  0  0  0  0  0  0  0
   -3.7526   -4.7500   -0.2344 H   0  0  0  0  0  0  0  0  0  0  0  0
   -3.6528   -3.1588    1.6766 H   0  0  0  0  0  0  0  0  0  0  0  0
   -4.9025   -0.9690    1.4552 H   0  0  0  0  0  0  0  0  0  0  0  0
   -8.8572   -5.5402   -0.1719 C   0  0  0  0  0  0  0  0  0  0  0  0
   -9.8762   -6.1740   -0.8760 C   0  0  0  0  0  0  0  0  0  0  0  0
   -9.6572   -7.3989   -1.5270 C   0  0  0  0  0  0  0  0  0  0  0  0
   -8.3825   -7.9755   -1.4559 C   0  0  0  0  0  0  0  0  0  0  0  0
   -7.3463   -7.3528   -0.7604 C   0  0  0  0  0  0  0  0  0  0  0  0
   -7.5949   -6.1367   -0.1265 C   0  0  0  0  0  0  0  0  0  0  0  0
   -9.0328   -4.6022    0.3428 H   0  0  0  0  0  0  0  0  0  0  0  0
  -10.8603   -5.7139   -0.9179 H   0  0  0  0  0  0  0  0  0  0  0  0
   -8.1981   -8.9269   -1.9466 H   0  0  0  0  0  0  0  0  0  0  0  0
   -6.3621   -7.8040   -0.6958 H   0  0  0  0  0  0  0  0  0  0  0  0
   -6.2809   -5.3357    0.7763 S   0  0  0  0  0  0  0  0  0  0  0  0
   -6.8610   -4.6052    1.9026 O   0  0  0  0  0  0  0  0  0  0  0  0
   -5.8070   -4.2693   -0.3745 O   0  0  0  0  0  0  0  0  0  0  0  0
   -5.1893   -6.2892    1.0037 O   0  0  0  0  0  0  0  0  0  0  0  0
  -10.7807   -8.0797   -2.2709 C   0  0  0  0  0  0  0  0  0  0  0  0
  -11.5666   -8.4089   -1.5811 H   0  0  0  0  0  0  0  0  0  0  0  0
  -11.2492   -7.4000   -2.9910 H   0  0  0  0  0  0  0  0  0  0  0  0
  -10.4265   -8.9583   -2.8158 H   0  0  0  0  0  0  0  0  0  0  0  0
  1  2  1  1  0  0  0
  1  8  1  0  0  0  0
  3  2  1  0  0  0  0
  4  5  2  0  0  0  0
  4  1  1  0  0  0  0
  5  6  1  0  0  0  0
  6 11  1  1  0  0  0
  6  7  1  0  0  0  0
  7 12  1  0  0  0  0
  8  7  2  0  0  0  0
  8 13  1  0  0  0  0
  9  4  1  0  0  0  0
 10  5  1  0  0  0  0
 14 19  1  0  0  0  0
 14 20  1  0  0  0  0
 15 14  2  0  0  0  0
 16 17  2  0  0  0  0
 16 15  1  0  0  0  0
 17 18  1  0  0  0  0
 18 23  1  0  0  0  0
 18 19  2  0  0  0  0
 19 24  1  0  0  0  0
 21 15  1  0  0  0  0
 22 17  1  0  0  0  0
 24 27  2  0  0  0  0
 24 25  2  0  0  0  0
 26  6  1  0  0  0  0
 26 24  1  0  0  0  0
 28 29  1  0  0  0  0
 28 16  1  0  0  0  0
 30 28  1  0  0  0  0
 31 28  1  0  0  0  0
M  RAD  3   1   2   2   2   3   3
M  END
