Coordinates from ORCA-job PhN2+~TsO-_B3LYPG-6-31G_dp-NX-Scan-d89-09-n800
 OpenBabel11261920463D

 31 31  0  0  0  0  0  0  0  0999 V2000
   -3.8199   -0.4147   -0.2005 C   0  0  0  0  0  0  0  0  0  0  0  0
   -3.6305    0.8998    0.0748 N   0  0  0  0  0  0  0  0  0  0  0  0
   -3.4945    1.9894    0.3150 N   0  0  0  0  0  0  0  0  0  0  0  0
   -2.8945   -1.0650   -1.0550 C   0  0  0  0  0  0  0  0  0  0  0  0
   -3.1286   -2.3977   -1.3365 C   0  0  0  0  0  0  0  0  0  0  0  0
   -4.2450   -3.0606   -0.7949 C   0  0  0  0  0  0  0  0  0  0  0  0
   -5.1442   -2.3936    0.0617 C   0  0  0  0  0  0  0  0  0  0  0  0
   -4.9464   -1.0627    0.3714 C   0  0  0  0  0  0  0  0  0  0  0  0
   -2.0505   -0.5216   -1.4649 H   0  0  0  0  0  0  0  0  0  0  0  0
   -2.4481   -2.9301   -1.9930 H   0  0  0  0  0  0  0  0  0  0  0  0
   -4.4802   -4.0994   -1.0404 H   0  0  0  0  0  0  0  0  0  0  0  0
   -6.0147   -2.9436    0.4385 H   0  0  0  0  0  0  0  0  0  0  0  0
   -5.6241   -0.5129    1.0157 H   0  0  0  0  0  0  0  0  0  0  0  0
   -9.5685   -6.3070   -0.1788 C   0  0  0  0  0  0  0  0  0  0  0  0
  -10.4357   -7.3974   -0.2040 C   0  0  0  0  0  0  0  0  0  0  0  0
  -10.1099   -8.5670   -0.9063 C   0  0  0  0  0  0  0  0  0  0  0  0
   -8.8858   -8.6124   -1.5858 C   0  0  0  0  0  0  0  0  0  0  0  0
   -8.0095   -7.5266   -1.5683 C   0  0  0  0  0  0  0  0  0  0  0  0
   -8.3531   -6.3736   -0.8634 C   0  0  0  0  0  0  0  0  0  0  0  0
   -9.8159   -5.4094    0.3779 H   0  0  0  0  0  0  0  0  0  0  0  0
  -11.3811   -7.3423    0.3313 H   0  0  0  0  0  0  0  0  0  0  0  0
   -8.6127   -9.5117   -2.1337 H   0  0  0  0  0  0  0  0  0  0  0  0
   -7.0553   -7.5676   -2.0818 H   0  0  0  0  0  0  0  0  0  0  0  0
   -7.2641   -4.9408   -0.8924 S   0  0  0  0  0  0  0  0  0  0  0  0
   -7.4325   -4.3039    0.4553 O   0  0  0  0  0  0  0  0  0  0  0  0
   -7.6976   -4.0655   -2.0091 O   0  0  0  0  0  0  0  0  0  0  0  0
   -5.8875   -5.5058   -1.0898 O   0  0  0  0  0  0  0  0  0  0  0  0
  -11.0433   -9.7553   -0.9026 C   0  0  0  0  0  0  0  0  0  0  0  0
  -10.9425  -10.3388    0.0221 H   0  0  0  0  0  0  0  0  0  0  0  0
  -12.0907   -9.4430   -0.9724 H   0  0  0  0  0  0  0  0  0  0  0  0
  -10.8347  -10.4297   -1.7385 H   0  0  0  0  0  0  0  0  0  0  0  0
  1  2  1  0  0  0  0
  1  8  2  0  0  0  0
  2  3  1  0  0  0  0
  4  1  1  0  0  0  0
  5  4  2  0  0  0  0
  5  6  1  0  0  0  0
  6  7  2  0  0  0  0
  7  8  1  0  0  0  0
  7 12  1  0  0  0  0
  8 13  1  0  0  0  0
  9  4  1  0  0  0  0
 10  5  1  0  0  0  0
 11  6  1  0  0  0  0
 14 20  1  0  0  0  0
 15 14  1  0  0  0  0
 15 21  1  0  0  0  0
 16 28  1  0  0  0  0
 16 15  2  0  0  0  0
 17 18  2  0  0  0  0
 17 16  1  0  0  0  0
 18 19  1  0  0  0  0
 19 14  2  0  0  0  0
 22 17  1  0  0  0  0
 23 18  1  0  0  0  0
 24 19  1  0  0  0  0
 24 25  1  0  0  0  0
 26 24  2  0  0  0  0
 27 24  2  0  0  0  0
 28 29  1  0  0  0  0
 30 28  1  0  0  0  0
 31 28  1  0  0  0  0
M  RAD  3   2   2   3   3  25   2
M  END
