Coordinates from ORCA-job PhN2+~TsO-_B3LYPG-6-31G_dp-NX-Scan-d89-09-n800
 OpenBabel11261920463D

 31 32  0  0  1  0  0  0  0  0999 V2000
   -5.4922   -1.4198   -0.6479 C   0  0  2  0  0  0  0  0  0  0  0  0
   -6.7998   -1.3345   -0.6710 N   0  0  0  0  0  0  0  0  0  0  0  0
   -7.9384   -1.3613   -0.6845 N   0  0  0  0  0  0  0  0  0  0  0  0
   -4.8626   -1.9875   -1.8533 C   0  0  0  0  0  0  0  0  0  0  0  0
   -4.1648   -3.1224   -1.6902 C   0  0  0  0  0  0  0  0  0  0  0  0
   -4.3085   -3.8055   -0.3596 C   0  0  1  0  0  0  0  0  0  0  0  0
   -4.1817   -2.8291    0.7783 C   0  0  0  0  0  0  0  0  0  0  0  0
   -4.8793   -1.6886    0.6652 C   0  0  0  0  0  0  0  0  0  0  0  0
   -4.9770   -1.4871   -2.8105 H   0  0  0  0  0  0  0  0  0  0  0  0
   -3.5997   -3.5904   -2.4892 H   0  0  0  0  0  0  0  0  0  0  0  0
   -3.6807   -4.6886   -0.2478 H   0  0  0  0  0  0  0  0  0  0  0  0
   -3.6313   -3.1002    1.6729 H   0  0  0  0  0  0  0  0  0  0  0  0
   -5.0126   -0.9832    1.4801 H   0  0  0  0  0  0  0  0  0  0  0  0
   -8.7477   -5.4463   -0.2986 C   0  0  0  0  0  0  0  0  0  0  0  0
   -9.7911   -6.0552   -0.9884 C   0  0  0  0  0  0  0  0  0  0  0  0
   -9.6533   -7.3458   -1.5253 C   0  0  0  0  0  0  0  0  0  0  0  0
   -8.4331   -8.0125   -1.3587 C   0  0  0  0  0  0  0  0  0  0  0  0
   -7.3717   -7.4165   -0.6771 C   0  0  0  0  0  0  0  0  0  0  0  0
   -7.5413   -6.1364   -0.1540 C   0  0  0  0  0  0  0  0  0  0  0  0
   -8.8619   -4.4517    0.1184 H   0  0  0  0  0  0  0  0  0  0  0  0
  -10.7305   -5.5221   -1.1105 H   0  0  0  0  0  0  0  0  0  0  0  0
   -8.3099   -9.0123   -1.7655 H   0  0  0  0  0  0  0  0  0  0  0  0
   -6.4272   -7.9325   -0.5431 H   0  0  0  0  0  0  0  0  0  0  0  0
   -6.1983   -5.3753    0.7394 S   0  0  0  0  0  0  0  0  0  0  0  0
   -6.7380   -4.6662    1.8990 O   0  0  0  0  0  0  0  0  0  0  0  0
   -5.7497   -4.2854   -0.4016 O   0  0  0  0  0  0  0  0  0  0  0  0
   -5.1094   -6.3423    0.9147 O   0  0  0  0  0  0  0  0  0  0  0  0
  -10.8066   -8.0005   -2.2466 C   0  0  0  0  0  0  0  0  0  0  0  0
  -11.5885   -8.3044   -1.5403 H   0  0  0  0  0  0  0  0  0  0  0  0
  -11.2695   -7.3139   -2.9631 H   0  0  0  0  0  0  0  0  0  0  0  0
  -10.4856   -8.8932   -2.7895 H   0  0  0  0  0  0  0  0  0  0  0  0
  1  2  1  1  0  0  0
  1  8  1  0  0  0  0
  3  2  1  0  0  0  0
  4  5  2  0  0  0  0
  4  1  1  0  0  0  0
  5  6  1  0  0  0  0
  6 11  1  1  0  0  0
  6  7  1  0  0  0  0
  7 12  1  0  0  0  0
  8  7  2  0  0  0  0
  8 13  1  0  0  0  0
  9  4  1  0  0  0  0
 10  5  1  0  0  0  0
 14 19  1  0  0  0  0
 14 20  1  0  0  0  0
 15 14  2  0  0  0  0
 16 17  2  0  0  0  0
 16 15  1  0  0  0  0
 17 18  1  0  0  0  0
 18 23  1  0  0  0  0
 18 19  2  0  0  0  0
 19 24  1  0  0  0  0
 21 15  1  0  0  0  0
 22 17  1  0  0  0  0
 24 27  2  0  0  0  0
 24 25  2  0  0  0  0
 26  6  1  0  0  0  0
 26 24  1  0  0  0  0
 28 29  1  0  0  0  0
 28 16  1  0  0  0  0
 30 28  1  0  0  0  0
 31 28  1  0  0  0  0
M  RAD  3   1   2   2   2   3   3
M  END
