Coordinates from ORCA-job PhN2+~TsO-_B3LYPG-6-31G_dp-NX-Scan-d89-09-n800
 OpenBabel11261920463D

 31 31  0  0  0  0  0  0  0  0999 V2000
   -3.6683   -0.5586    0.0891 C   0  0  0  0  0  0  0  0  0  0  0  0
   -3.3332    0.6227    0.6652 N   0  0  0  0  0  0  0  0  0  0  0  0
   -3.0780    1.6008    1.1573 N   0  0  0  0  0  0  0  0  0  0  0  0
   -2.7358   -1.1724   -0.7849 C   0  0  0  0  0  0  0  0  0  0  0  0
   -3.1127   -2.3681   -1.3665 C   0  0  0  0  0  0  0  0  0  0  0  0
   -4.3747   -2.9293   -1.0991 C   0  0  0  0  0  0  0  0  0  0  0  0
   -5.2795   -2.3052   -0.2171 C   0  0  0  0  0  0  0  0  0  0  0  0
   -4.9406   -1.1124    0.3904 C   0  0  0  0  0  0  0  0  0  0  0  0
   -1.7770   -0.7054   -0.9801 H   0  0  0  0  0  0  0  0  0  0  0  0
   -2.4289   -2.8679   -2.0449 H   0  0  0  0  0  0  0  0  0  0  0  0
   -4.7152   -3.8585   -1.5617 H   0  0  0  0  0  0  0  0  0  0  0  0
   -6.2538   -2.7821   -0.0432 H   0  0  0  0  0  0  0  0  0  0  0  0
   -5.6112   -0.6003    1.0723 H   0  0  0  0  0  0  0  0  0  0  0  0
   -9.7199   -6.2175   -0.4236 C   0  0  0  0  0  0  0  0  0  0  0  0
  -10.4625   -7.3823   -0.2399 C   0  0  0  0  0  0  0  0  0  0  0  0
  -10.0124   -8.6146   -0.7349 C   0  0  0  0  0  0  0  0  0  0  0  0
   -8.7931   -8.6463   -1.4243 C   0  0  0  0  0  0  0  0  0  0  0  0
   -8.0412   -7.4867   -1.6148 C   0  0  0  0  0  0  0  0  0  0  0  0
   -8.5064   -6.2715   -1.1124 C   0  0  0  0  0  0  0  0  0  0  0  0
  -10.0648   -5.2687   -0.0265 H   0  0  0  0  0  0  0  0  0  0  0  0
  -11.4076   -7.3357    0.2966 H   0  0  0  0  0  0  0  0  0  0  0  0
   -8.4262   -9.5922   -1.8166 H   0  0  0  0  0  0  0  0  0  0  0  0
   -7.0908   -7.5133   -2.1362 H   0  0  0  0  0  0  0  0  0  0  0  0
   -7.5827   -4.7554   -1.4137 S   0  0  0  0  0  0  0  0  0  0  0  0
   -7.7688   -3.9453   -0.1642 O   0  0  0  0  0  0  0  0  0  0  0  0
   -8.1539   -4.1181   -2.6218 O   0  0  0  0  0  0  0  0  0  0  0  0
   -6.1602   -5.2024   -1.5926 O   0  0  0  0  0  0  0  0  0  0  0  0
  -10.8052   -9.8793   -0.5008 C   0  0  0  0  0  0  0  0  0  0  0  0
  -10.5410  -10.3428    0.4590 H   0  0  0  0  0  0  0  0  0  0  0  0
  -11.8815   -9.6798   -0.4767 H   0  0  0  0  0  0  0  0  0  0  0  0
  -10.6148  -10.6219   -1.2821 H   0  0  0  0  0  0  0  0  0  0  0  0
  1  8  1  0  0  0  0
  1  2  1  0  0  0  0
  2  3  1  0  0  0  0
  4  1  2  0  0  0  0
  5  6  2  0  0  0  0
  5  4  1  0  0  0  0
  6  7  1  0  0  0  0
  7 12  1  0  0  0  0
  7  8  2  0  0  0  0
  8 13  1  0  0  0  0
  9  4  1  0  0  0  0
 10  5  1  0  0  0  0
 11  6  1  0  0  0  0
 14 15  1  0  0  0  0
 14 20  1  0  0  0  0
 15 21  1  0  0  0  0
 16 28  1  0  0  0  0
 16 15  2  0  0  0  0
 17 16  1  0  0  0  0
 18 17  2  0  0  0  0
 18 19  1  0  0  0  0
 19 14  2  0  0  0  0
 22 17  1  0  0  0  0
 23 18  1  0  0  0  0
 24 19  1  0  0  0  0
 24 25  1  0  0  0  0
 26 24  2  0  0  0  0
 27 24  2  0  0  0  0
 28 30  1  0  0  0  0
 28 29  1  0  0  0  0
 31 28  1  0  0  0  0
M  RAD  3   2   2   3   3  25   2
M  END
