Coordinates from ORCA-job PhN2+~TsO-_B3LYPG-6-31G_dp-NX-Scan-d89-09-n800
 OpenBabel11261920463D

 31 32  0  0  1  0  0  0  0  0999 V2000
   -4.4856   -0.6297   -0.7860 C   0  0  0  0  0  0  0  0  0  0  0  0
   -4.0275    0.6047   -0.9129 N   0  0  0  0  0  0  0  0  0  0  0  0
   -3.6175    1.6775   -1.0150 N   0  0  0  0  0  0  0  0  0  0  0  0
   -4.4033   -1.5897   -1.8791 C   0  0  0  0  0  0  0  0  0  0  0  0
   -4.7374   -2.8869   -1.7015 C   0  0  0  0  0  0  0  0  0  0  0  0
   -5.1037   -3.4669   -0.3648 C   0  0  1  0  0  0  0  0  0  0  0  0
   -5.4319   -2.3876    0.6334 C   0  0  0  0  0  0  0  0  0  0  0  0
   -5.0999   -1.0910    0.4537 C   0  0  0  0  0  0  0  0  0  0  0  0
   -4.0680   -1.2411   -2.8512 H   0  0  0  0  0  0  0  0  0  0  0  0
   -4.6666   -3.5807   -2.5328 H   0  0  0  0  0  0  0  0  0  0  0  0
   -4.2829   -4.0999    0.0025 H   0  0  0  0  0  0  0  0  0  0  0  0
   -5.8894   -2.7077    1.5631 H   0  0  0  0  0  0  0  0  0  0  0  0
   -5.2940   -0.3641    1.2367 H   0  0  0  0  0  0  0  0  0  0  0  0
   -8.9185   -6.3205    0.2562 C   0  0  0  0  0  0  0  0  0  0  0  0
  -10.0014   -7.0076   -0.2829 C   0  0  0  0  0  0  0  0  0  0  0  0
   -9.8230   -7.9702   -1.2898 C   0  0  0  0  0  0  0  0  0  0  0  0
   -8.5230   -8.2340   -1.7416 C   0  0  0  0  0  0  0  0  0  0  0  0
   -7.4247   -7.5559   -1.2152 C   0  0  0  0  0  0  0  0  0  0  0  0
   -7.6364   -6.5997   -0.2227 C   0  0  0  0  0  0  0  0  0  0  0  0
   -9.0541   -5.5875    1.0439 H   0  0  0  0  0  0  0  0  0  0  0  0
  -11.0019   -6.7987    0.0863 H   0  0  0  0  0  0  0  0  0  0  0  0
   -8.3670   -8.9840   -2.5123 H   0  0  0  0  0  0  0  0  0  0  0  0
   -6.4174   -7.7697   -1.5544 H   0  0  0  0  0  0  0  0  0  0  0  0
   -6.2408   -5.7314    0.4634 S   0  0  0  0  0  0  0  0  0  0  0  0
   -6.5652   -5.2664    1.8145 O   0  0  0  0  0  0  0  0  0  0  0  0
   -6.2514   -4.4520   -0.5565 O   0  0  0  0  0  0  0  0  0  0  0  0
   -5.0173   -6.5058    0.2397 O   0  0  0  0  0  0  0  0  0  0  0  0
  -11.0108   -8.7006   -1.8682 C   0  0  0  0  0  0  0  0  0  0  0  0
  -11.6099   -9.1696   -1.0802 H   0  0  0  0  0  0  0  0  0  0  0  0
  -11.6713   -8.0119   -2.4084 H   0  0  0  0  0  0  0  0  0  0  0  0
  -10.7000   -9.4819   -2.5667 H   0  0  0  0  0  0  0  0  0  0  0  0
  1  8  1  0  0  0  0
  2  1  1  0  0  0  0
  3  2  1  0  0  0  0
  4  5  1  0  0  0  0
  4  1  2  0  0  0  0
  5  6  1  0  0  0  0
  6 11  1  1  0  0  0
  6  7  1  0  0  0  0
  7 12  1  0  0  0  0
  8  7  2  0  0  0  0
  8 13  1  0  0  0  0
  9  4  1  0  0  0  0
 10  5  1  0  0  0  0
 14 20  1  0  0  0  0
 15 21  1  0  0  0  0
 15 14  2  0  0  0  0
 16 15  1  0  0  0  0
 17 16  2  0  0  0  0
 17 18  1  0  0  0  0
 18 19  2  0  0  0  0
 19 14  1  0  0  0  0
 19 24  1  0  0  0  0
 22 17  1  0  0  0  0
 23 18  1  0  0  0  0
 24 25  2  0  0  0  0
 26  6  1  0  0  0  0
 26 24  1  0  0  0  0
 27 24  2  0  0  0  0
 28 16  1  0  0  0  0
 28 29  1  0  0  0  0
 30 28  1  0  0  0  0
 31 28  1  0  0  0  0
M  RAD  3   2   2   3   3   5   2
M  END
