Coordinates from ORCA-job PhN2+~TsO-_B3LYPG-6-31G_dp-NX-Scan-d89-09-n800
 OpenBabel11261920463D

 31 32  0  0  1  0  0  0  0  0999 V2000
   -5.4622   -1.3965   -0.6290 C   0  0  2  0  0  0  0  0  0  0  0  0
   -6.7648   -1.5595   -0.5880 N   0  0  0  0  0  0  0  0  0  0  0  0
   -7.8701   -1.8255   -0.5455 N   0  0  0  0  0  0  0  0  0  0  0  0
   -4.8391   -1.9530   -1.8580 C   0  0  0  0  0  0  0  0  0  0  0  0
   -4.1849   -3.1140   -1.7155 C   0  0  0  0  0  0  0  0  0  0  0  0
   -4.3397   -3.8014   -0.3848 C   0  0  1  0  0  0  0  0  0  0  0  0
   -4.1300   -2.8343    0.7535 C   0  0  0  0  0  0  0  0  0  0  0  0
   -4.7844   -1.6682    0.6652 C   0  0  0  0  0  0  0  0  0  0  0  0
   -4.9343   -1.4289   -2.8048 H   0  0  0  0  0  0  0  0  0  0  0  0
   -3.6293   -3.5896   -2.5173 H   0  0  0  0  0  0  0  0  0  0  0  0
   -3.7556   -4.7156   -0.2907 H   0  0  0  0  0  0  0  0  0  0  0  0
   -3.5408   -3.1261    1.6171 H   0  0  0  0  0  0  0  0  0  0  0  0
   -4.8499   -0.9509    1.4780 H   0  0  0  0  0  0  0  0  0  0  0  0
   -8.8075   -5.4154   -0.3103 C   0  0  0  0  0  0  0  0  0  0  0  0
   -9.8288   -6.0522   -1.0084 C   0  0  0  0  0  0  0  0  0  0  0  0
   -9.6562   -7.3418   -1.5367 C   0  0  0  0  0  0  0  0  0  0  0  0
   -8.4230   -7.9802   -1.3526 C   0  0  0  0  0  0  0  0  0  0  0  0
   -7.3836   -7.3568   -0.6621 C   0  0  0  0  0  0  0  0  0  0  0  0
   -7.5881   -6.0776   -0.1484 C   0  0  0  0  0  0  0  0  0  0  0  0
   -8.9477   -4.4210    0.0980 H   0  0  0  0  0  0  0  0  0  0  0  0
  -10.7785   -5.5410   -1.1441 H   0  0  0  0  0  0  0  0  0  0  0  0
   -8.2723   -8.9790   -1.7522 H   0  0  0  0  0  0  0  0  0  0  0  0
   -6.4301   -7.8517   -0.5137 H   0  0  0  0  0  0  0  0  0  0  0  0
   -6.2713   -5.2843    0.7556 S   0  0  0  0  0  0  0  0  0  0  0  0
   -6.8384   -4.5572    1.8896 O   0  0  0  0  0  0  0  0  0  0  0  0
   -5.8041   -4.2021   -0.3915 O   0  0  0  0  0  0  0  0  0  0  0  0
   -5.1766   -6.2375    0.9665 O   0  0  0  0  0  0  0  0  0  0  0  0
  -10.7862   -8.0280   -2.2653 C   0  0  0  0  0  0  0  0  0  0  0  0
  -11.5452   -8.3880   -1.5601 H   0  0  0  0  0  0  0  0  0  0  0  0
  -11.2882   -7.3436   -2.9569 H   0  0  0  0  0  0  0  0  0  0  0  0
  -10.4312   -8.8899   -2.8362 H   0  0  0  0  0  0  0  0  0  0  0  0
  1  2  1  1  0  0  0
  1  8  1  0  0  0  0
  2  3  1  0  0  0  0
  4  5  2  0  0  0  0
  4  1  1  0  0  0  0
  5  6  1  0  0  0  0
  6 11  1  1  0  0  0
  6  7  1  0  0  0  0
  7 12  1  0  0  0  0
  8  7  2  0  0  0  0
  8 13  1  0  0  0  0
  9  4  1  0  0  0  0
 10  5  1  0  0  0  0
 14 19  1  0  0  0  0
 14 20  1  0  0  0  0
 15 14  2  0  0  0  0
 16 17  2  0  0  0  0
 16 15  1  0  0  0  0
 17 18  1  0  0  0  0
 18 23  1  0  0  0  0
 18 19  2  0  0  0  0
 19 24  1  0  0  0  0
 21 15  1  0  0  0  0
 22 17  1  0  0  0  0
 24 27  2  0  0  0  0
 24 25  2  0  0  0  0
 26  6  1  0  0  0  0
 26 24  1  0  0  0  0
 28 29  1  0  0  0  0
 28 16  1  0  0  0  0
 30 28  1  0  0  0  0
 31 28  1  0  0  0  0
M  RAD  3   1   2   2   2   3   3
M  END
