Coordinates from ORCA-job PhN2+~TsO-_B3LYPG-6-31G_dp-NX-Scan-d89-09-n800
 OpenBabel11261920463D

 31 32  0  0  1  0  0  0  0  0999 V2000
   -5.3554   -1.2854   -1.0087 C   0  0  2  0  0  0  0  0  0  0  0  0
   -6.1614   -0.4257   -1.5800 N   0  0  0  0  0  0  0  0  0  0  0  0
   -6.8946    0.2898   -2.0820 N   0  0  0  0  0  0  0  0  0  0  0  0
   -4.5088   -2.1254   -1.8337 C   0  0  0  0  0  0  0  0  0  0  0  0
   -3.9938   -3.2456   -1.2954 C   0  0  0  0  0  0  0  0  0  0  0  0
   -4.4671   -3.7065    0.0432 C   0  0  1  0  0  0  0  0  0  0  0  0
   -4.8858   -2.5967    0.9515 C   0  0  0  0  0  0  0  0  0  0  0  0
   -5.4064   -1.4715    0.4294 C   0  0  0  0  0  0  0  0  0  0  0  0
   -4.2964   -1.8194   -2.8532 H   0  0  0  0  0  0  0  0  0  0  0  0
   -3.3275   -3.8889   -1.8595 H   0  0  0  0  0  0  0  0  0  0  0  0
   -3.7676   -4.4020    0.5101 H   0  0  0  0  0  0  0  0  0  0  0  0
   -4.8769   -2.7716    2.0215 H   0  0  0  0  0  0  0  0  0  0  0  0
   -5.8467   -0.6934    1.0451 H   0  0  0  0  0  0  0  0  0  0  0  0
   -8.6862   -6.0484    0.3054 C   0  0  0  0  0  0  0  0  0  0  0  0
   -9.8294   -6.5257   -0.3282 C   0  0  0  0  0  0  0  0  0  0  0  0
   -9.7413   -7.3938   -1.4284 C   0  0  0  0  0  0  0  0  0  0  0  0
   -8.4711   -7.7781   -1.8780 C   0  0  0  0  0  0  0  0  0  0  0  0
   -7.3139   -7.3109   -1.2567 C   0  0  0  0  0  0  0  0  0  0  0  0
   -7.4348   -6.4442   -0.1715 C   0  0  0  0  0  0  0  0  0  0  0  0
   -8.7527   -5.3908    1.1652 H   0  0  0  0  0  0  0  0  0  0  0  0
  -10.8071   -6.2248    0.0388 H   0  0  0  0  0  0  0  0  0  0  0  0
   -8.3858   -8.4553   -2.7234 H   0  0  0  0  0  0  0  0  0  0  0  0
   -6.3313   -7.6203   -1.5949 H   0  0  0  0  0  0  0  0  0  0  0  0
   -5.9630   -5.8420    0.6330 S   0  0  0  0  0  0  0  0  0  0  0  0
   -6.2833   -5.4412    2.0061 O   0  0  0  0  0  0  0  0  0  0  0  0
   -5.7276   -4.5072   -0.2800 O   0  0  0  0  0  0  0  0  0  0  0  0
   -4.8562   -6.7740    0.3972 O   0  0  0  0  0  0  0  0  0  0  0  0
  -10.9928   -7.9044   -2.1009 C   0  0  0  0  0  0  0  0  0  0  0  0
  -11.6191   -8.4647   -1.3969 H   0  0  0  0  0  0  0  0  0  0  0  0
  -11.6011   -7.0775   -2.4844 H   0  0  0  0  0  0  0  0  0  0  0  0
  -10.7567   -8.5650   -2.9391 H   0  0  0  0  0  0  0  0  0  0  0  0
  1  2  1  6  0  0  0
  1  8  1  0  0  0  0
  3  2  1  0  0  0  0
  4  5  2  0  0  0  0
  4  1  1  0  0  0  0
  5  6  1  0  0  0  0
  6 11  1  1  0  0  0
  6  7  1  0  0  0  0
  7 12  1  0  0  0  0
  8  7  2  0  0  0  0
  8 13  1  0  0  0  0
  9  4  1  0  0  0  0
 10  5  1  0  0  0  0
 14 20  1  0  0  0  0
 15 21  1  0  0  0  0
 15 14  2  0  0  0  0
 16 15  1  0  0  0  0
 17 16  2  0  0  0  0
 17 18  1  0  0  0  0
 18 19  2  0  0  0  0
 19 14  1  0  0  0  0
 19 24  1  0  0  0  0
 22 17  1  0  0  0  0
 23 18  1  0  0  0  0
 24 25  2  0  0  0  0
 26  6  1  0  0  0  0
 26 24  1  0  0  0  0
 27 24  2  0  0  0  0
 28 16  1  0  0  0  0
 28 29  1  0  0  0  0
 30 28  1  0  0  0  0
 31 28  1  0  0  0  0
M  RAD  3   1   2   2   2   3   3
M  END
