Coordinates from ORCA-job PhN2+~TsO-_B3LYPG-6-31G_dp-NX-Scan-d89-09-n800
 OpenBabel11261920463D

 31 32  0  0  1  0  0  0  0  0999 V2000
   -5.3527   -1.3631   -0.7036 C   0  0  2  0  0  0  0  0  0  0  0  0
   -6.5398   -0.8216   -0.8047 N   0  0  0  0  0  0  0  0  0  0  0  0
   -7.6061   -0.4293   -0.8878 N   0  0  0  0  0  0  0  0  0  0  0  0
   -4.8035   -2.0418   -1.8740 C   0  0  0  0  0  0  0  0  0  0  0  0
   -4.1939   -3.2223   -1.6700 C   0  0  0  0  0  0  0  0  0  0  0  0
   -4.3596   -3.8471   -0.3187 C   0  0  1  0  0  0  0  0  0  0  0  0
   -4.2193   -2.8482    0.7915 C   0  0  0  0  0  0  0  0  0  0  0  0
   -4.8303   -1.6626    0.6272 C   0  0  0  0  0  0  0  0  0  0  0  0
   -4.8924   -1.5788   -2.8523 H   0  0  0  0  0  0  0  0  0  0  0  0
   -3.6980   -3.7681   -2.4649 H   0  0  0  0  0  0  0  0  0  0  0  0
   -3.7581   -4.7436   -0.1741 H   0  0  0  0  0  0  0  0  0  0  0  0
   -3.7442   -3.1353    1.7229 H   0  0  0  0  0  0  0  0  0  0  0  0
   -4.9450   -0.9350    1.4250 H   0  0  0  0  0  0  0  0  0  0  0  0
   -8.8776   -5.6179   -0.0878 C   0  0  0  0  0  0  0  0  0  0  0  0
   -9.9000   -6.2447   -0.7934 C   0  0  0  0  0  0  0  0  0  0  0  0
   -9.6647   -7.4222   -1.5214 C   0  0  0  0  0  0  0  0  0  0  0  0
   -8.3709   -7.9599   -1.5238 C   0  0  0  0  0  0  0  0  0  0  0  0
   -7.3319   -7.3438   -0.8271 C   0  0  0  0  0  0  0  0  0  0  0  0
   -7.5963   -6.1734   -0.1177 C   0  0  0  0  0  0  0  0  0  0  0  0
   -9.0639   -4.7186    0.4887 H   0  0  0  0  0  0  0  0  0  0  0  0
  -10.8994   -5.8174   -0.7752 H   0  0  0  0  0  0  0  0  0  0  0  0
   -8.1744   -8.8764   -2.0730 H   0  0  0  0  0  0  0  0  0  0  0  0
   -6.3334   -7.7672   -0.8176 H   0  0  0  0  0  0  0  0  0  0  0  0
   -6.2781   -5.3806    0.7867 S   0  0  0  0  0  0  0  0  0  0  0  0
   -6.8523   -4.6728    1.9308 O   0  0  0  0  0  0  0  0  0  0  0  0
   -5.8168   -4.2958   -0.3503 O   0  0  0  0  0  0  0  0  0  0  0  0
   -5.1811   -6.3335    0.9906 O   0  0  0  0  0  0  0  0  0  0  0  0
  -10.7894   -8.0931   -2.2725 C   0  0  0  0  0  0  0  0  0  0  0  0
  -11.5841   -8.4134   -1.5893 H   0  0  0  0  0  0  0  0  0  0  0  0
  -11.2452   -7.4089   -2.9972 H   0  0  0  0  0  0  0  0  0  0  0  0
  -10.4393   -8.9744   -2.8155 H   0  0  0  0  0  0  0  0  0  0  0  0
  1  2  1  1  0  0  0
  1  8  1  0  0  0  0
  3  2  1  0  0  0  0
  4  5  2  0  0  0  0
  4  1  1  0  0  0  0
  5  6  1  0  0  0  0
  6 11  1  1  0  0  0
  6  7  1  0  0  0  0
  7 12  1  0  0  0  0
  8  7  2  0  0  0  0
  8 13  1  0  0  0  0
  9  4  1  0  0  0  0
 10  5  1  0  0  0  0
 14 20  1  0  0  0  0
 15 21  1  0  0  0  0
 15 14  2  0  0  0  0
 16 15  1  0  0  0  0
 17 16  2  0  0  0  0
 17 18  1  0  0  0  0
 18 23  1  0  0  0  0
 18 19  2  0  0  0  0
 19 14  1  0  0  0  0
 19 24  1  0  0  0  0
 22 17  1  0  0  0  0
 24 27  2  0  0  0  0
 24 25  2  0  0  0  0
 26  6  1  0  0  0  0
 26 24  1  0  0  0  0
 28 29  1  0  0  0  0
 28 16  1  0  0  0  0
 30 28  1  0  0  0  0
 31 28  1  0  0  0  0
M  RAD  3   1   2   2   2   3   3
M  END
