Coordinates from ORCA-job PhN2+~TsO-_B3LYPG-6-31G_dp-NX-Scan-d89-09-n800
 OpenBabel11261920463D

 31 32  0  0  1  0  0  0  0  0999 V2000
   -5.0563   -0.9533   -0.9826 C   0  0  0  0  0  0  0  0  0  0  0  0
   -5.3242    0.2395   -1.4575 N   0  0  0  0  0  0  0  0  0  0  0  0
   -5.5672    1.2757   -1.8746 N   0  0  0  0  0  0  0  0  0  0  0  0
   -4.4083   -1.9353   -1.8271 C   0  0  0  0  0  0  0  0  0  0  0  0
   -4.2039   -3.1826   -1.3651 C   0  0  0  0  0  0  0  0  0  0  0  0
   -4.7136   -3.6339   -0.0364 C   0  0  1  0  0  0  0  0  0  0  0  0
   -5.1982   -2.5297    0.8461 C   0  0  0  0  0  0  0  0  0  0  0  0
   -5.4042   -1.2825    0.3854 C   0  0  0  0  0  0  0  0  0  0  0  0
   -4.0778   -1.6353   -2.8163 H   0  0  0  0  0  0  0  0  0  0  0  0
   -3.7056   -3.9244   -1.9802 H   0  0  0  0  0  0  0  0  0  0  0  0
   -3.9859   -4.2768    0.4689 H   0  0  0  0  0  0  0  0  0  0  0  0
   -5.4461   -2.7913    1.8689 H   0  0  0  0  0  0  0  0  0  0  0  0
   -5.8103   -0.5020    1.0213 H   0  0  0  0  0  0  0  0  0  0  0  0
   -8.7259   -6.2261    0.3271 C   0  0  0  0  0  0  0  0  0  0  0  0
   -9.8720   -6.7549   -0.2579 C   0  0  0  0  0  0  0  0  0  0  0  0
   -9.7917   -7.6183   -1.3625 C   0  0  0  0  0  0  0  0  0  0  0  0
   -8.5257   -7.9461   -1.8655 C   0  0  0  0  0  0  0  0  0  0  0  0
   -7.3654   -7.4266   -1.2937 C   0  0  0  0  0  0  0  0  0  0  0  0
   -7.4792   -6.5652   -0.2036 C   0  0  0  0  0  0  0  0  0  0  0  0
   -8.7860   -5.5716    1.1896 H   0  0  0  0  0  0  0  0  0  0  0  0
  -10.8457   -6.4983    0.1509 H   0  0  0  0  0  0  0  0  0  0  0  0
   -8.4460   -8.6199   -2.7141 H   0  0  0  0  0  0  0  0  0  0  0  0
   -6.3850   -7.6911   -1.6736 H   0  0  0  0  0  0  0  0  0  0  0  0
   -6.0034   -5.8953    0.5357 S   0  0  0  0  0  0  0  0  0  0  0  0
   -6.2669   -5.5400    1.9334 O   0  0  0  0  0  0  0  0  0  0  0  0
   -5.9019   -4.5246   -0.3510 O   0  0  0  0  0  0  0  0  0  0  0  0
   -4.8586   -6.7523    0.2148 O   0  0  0  0  0  0  0  0  0  0  0  0
  -11.0466   -8.1795   -1.9867 C   0  0  0  0  0  0  0  0  0  0  0  0
  -11.6545   -8.7103   -1.2454 H   0  0  0  0  0  0  0  0  0  0  0  0
  -11.6714   -7.3805   -2.4024 H   0  0  0  0  0  0  0  0  0  0  0  0
  -10.8144   -8.8781   -2.7947 H   0  0  0  0  0  0  0  0  0  0  0  0
  1  8  1  0  0  0  0
  2  1  1  0  0  0  0
  3  2  1  0  0  0  0
  4  5  1  0  0  0  0
  4  1  2  0  0  0  0
  5  6  1  0  0  0  0
  6 11  1  1  0  0  0
  6  7  1  0  0  0  0
  7 12  1  0  0  0  0
  8  7  2  0  0  0  0
  8 13  1  0  0  0  0
  9  4  1  0  0  0  0
 10  5  1  0  0  0  0
 14 20  1  0  0  0  0
 15 21  1  0  0  0  0
 15 14  2  0  0  0  0
 16 15  1  0  0  0  0
 17 16  2  0  0  0  0
 17 18  1  0  0  0  0
 18 19  2  0  0  0  0
 19 14  1  0  0  0  0
 19 24  1  0  0  0  0
 22 17  1  0  0  0  0
 23 18  1  0  0  0  0
 24 25  2  0  0  0  0
 26  6  1  0  0  0  0
 26 24  1  0  0  0  0
 27 24  2  0  0  0  0
 28 16  1  0  0  0  0
 28 29  1  0  0  0  0
 30 28  1  0  0  0  0
 31 28  1  0  0  0  0
M  RAD  3   2   2   3   3   5   2
M  END
