Coordinates from ORCA-job PhN2+~TsO-_B3LYPG-6-31G_dp-NX-Scan-d89-09-n800
 OpenBabel11261920463D

 31 32  0  0  1  0  0  0  0  0999 V2000
   -5.4569   -1.3936   -0.6307 C   0  0  2  0  0  0  0  0  0  0  0  0
   -6.7577   -1.5723   -0.5860 N   0  0  0  0  0  0  0  0  0  0  0  0
   -7.8585   -1.8552   -0.5403 N   0  0  0  0  0  0  0  0  0  0  0  0
   -4.8343   -1.9526   -1.8600 C   0  0  0  0  0  0  0  0  0  0  0  0
   -4.1861   -3.1167   -1.7164 C   0  0  0  0  0  0  0  0  0  0  0  0
   -4.3435   -3.8014   -0.3844 C   0  0  1  0  0  0  0  0  0  0  0  0
   -4.1269   -2.8335    0.7522 C   0  0  0  0  0  0  0  0  0  0  0  0
   -4.7758   -1.6644    0.6629 C   0  0  0  0  0  0  0  0  0  0  0  0
   -4.9262   -1.4282   -2.8070 H   0  0  0  0  0  0  0  0  0  0  0  0
   -3.6318   -3.5955   -2.5172 H   0  0  0  0  0  0  0  0  0  0  0  0
   -3.7641   -4.7185   -0.2897 H   0  0  0  0  0  0  0  0  0  0  0  0
   -3.5364   -3.1264    1.6144 H   0  0  0  0  0  0  0  0  0  0  0  0
   -4.8354   -0.9447    1.4740 H   0  0  0  0  0  0  0  0  0  0  0  0
   -8.8163   -5.4164   -0.3041 C   0  0  0  0  0  0  0  0  0  0  0  0
   -9.8353   -6.0557   -1.0034 C   0  0  0  0  0  0  0  0  0  0  0  0
   -9.6567   -7.3420   -1.5376 C   0  0  0  0  0  0  0  0  0  0  0  0
   -8.4200   -7.9747   -1.3579 C   0  0  0  0  0  0  0  0  0  0  0  0
   -7.3829   -7.3490   -0.6663 C   0  0  0  0  0  0  0  0  0  0  0  0
   -7.5932   -6.0729   -0.1469 C   0  0  0  0  0  0  0  0  0  0  0  0
   -8.9610   -4.4248    0.1090 H   0  0  0  0  0  0  0  0  0  0  0  0
  -10.7878   -5.5488   -1.1355 H   0  0  0  0  0  0  0  0  0  0  0  0
   -8.2647   -8.9712   -1.7618 H   0  0  0  0  0  0  0  0  0  0  0  0
   -6.4268   -7.8398   -0.5209 H   0  0  0  0  0  0  0  0  0  0  0  0
   -6.2791   -5.2768    0.7586 S   0  0  0  0  0  0  0  0  0  0  0  0
   -6.8492   -4.5493    1.8907 O   0  0  0  0  0  0  0  0  0  0  0  0
   -5.8102   -4.1942   -0.3880 O   0  0  0  0  0  0  0  0  0  0  0  0
   -5.1837   -6.2286    0.9721 O   0  0  0  0  0  0  0  0  0  0  0  0
  -10.7842   -8.0309   -2.2676 C   0  0  0  0  0  0  0  0  0  0  0  0
  -11.5405   -8.3976   -1.5629 H   0  0  0  0  0  0  0  0  0  0  0  0
  -11.2906   -7.3462   -2.9557 H   0  0  0  0  0  0  0  0  0  0  0  0
  -10.4257   -8.8887   -2.8424 H   0  0  0  0  0  0  0  0  0  0  0  0
  1  2  1  1  0  0  0
  1  8  1  0  0  0  0
  2  3  1  0  0  0  0
  4  5  2  0  0  0  0
  4  1  1  0  0  0  0
  5  6  1  0  0  0  0
  6 11  1  1  0  0  0
  6  7  1  0  0  0  0
  7 12  1  0  0  0  0
  8  7  2  0  0  0  0
  8 13  1  0  0  0  0
  9  4  1  0  0  0  0
 10  5  1  0  0  0  0
 14 19  1  0  0  0  0
 14 20  1  0  0  0  0
 15 14  2  0  0  0  0
 16 17  2  0  0  0  0
 16 15  1  0  0  0  0
 17 18  1  0  0  0  0
 18 23  1  0  0  0  0
 18 19  2  0  0  0  0
 19 24  1  0  0  0  0
 21 15  1  0  0  0  0
 22 17  1  0  0  0  0
 24 27  2  0  0  0  0
 24 25  2  0  0  0  0
 26  6  1  0  0  0  0
 26 24  1  0  0  0  0
 28 29  1  0  0  0  0
 28 16  1  0  0  0  0
 30 28  1  0  0  0  0
 31 28  1  0  0  0  0
M  RAD  3   1   2   2   2   3   3
M  END
