Coordinates from ORCA-job PhN2+~TsO-_B3LYPG-6-31G_dp-NX-Scan-d89-09-n800
 OpenBabel11261920463D

 31 32  0  0  1  0  0  0  0  0999 V2000
   -5.4273   -1.3791   -0.6439 C   0  0  2  0  0  0  0  0  0  0  0  0
   -6.7158   -1.6374   -0.5797 N   0  0  0  0  0  0  0  0  0  0  0  0
   -7.7867   -2.0125   -0.5163 N   0  0  0  0  0  0  0  0  0  0  0  0
   -4.8071   -1.9546   -1.8727 C   0  0  0  0  0  0  0  0  0  0  0  0
   -4.1925   -3.1350   -1.7201 C   0  0  0  0  0  0  0  0  0  0  0  0
   -4.3646   -3.8024   -0.3800 C   0  0  1  0  0  0  0  0  0  0  0  0
   -4.1115   -2.8282    0.7451 C   0  0  0  0  0  0  0  0  0  0  0  0
   -4.7292   -1.6434    0.6476 C   0  0  0  0  0  0  0  0  0  0  0  0
   -4.8795   -1.4314   -2.8220 H   0  0  0  0  0  0  0  0  0  0  0  0
   -3.6459   -3.6339   -2.5143 H   0  0  0  0  0  0  0  0  0  0  0  0
   -3.8113   -4.7346   -0.2790 H   0  0  0  0  0  0  0  0  0  0  0  0
   -3.5152   -3.1266    1.6018 H   0  0  0  0  0  0  0  0  0  0  0  0
   -4.7569   -0.9095    1.4477 H   0  0  0  0  0  0  0  0  0  0  0  0
   -8.8674   -5.4261   -0.2634 C   0  0  0  0  0  0  0  0  0  0  0  0
   -9.8733   -6.0782   -0.9701 C   0  0  0  0  0  0  0  0  0  0  0  0
   -9.6598   -7.3424   -1.5424 C   0  0  0  0  0  0  0  0  0  0  0  0
   -8.4018   -7.9403   -1.3926 C   0  0  0  0  0  0  0  0  0  0  0  0
   -7.3779   -7.3014   -0.6937 C   0  0  0  0  0  0  0  0  0  0  0  0
   -7.6225   -6.0469   -0.1372 C   0  0  0  0  0  0  0  0  0  0  0  0
   -9.0383   -4.4526    0.1807 H   0  0  0  0  0  0  0  0  0  0  0  0
  -10.8431   -5.5990   -1.0777 H   0  0  0  0  0  0  0  0  0  0  0  0
   -8.2198   -8.9202   -1.8247 H   0  0  0  0  0  0  0  0  0  0  0  0
   -6.4064   -7.7670   -0.5695 H   0  0  0  0  0  0  0  0  0  0  0  0
   -6.3239   -5.2349    0.7767 S   0  0  0  0  0  0  0  0  0  0  0  0
   -6.9113   -4.5051    1.8979 O   0  0  0  0  0  0  0  0  0  0  0  0
   -5.8442   -4.1504   -0.3660 O   0  0  0  0  0  0  0  0  0  0  0  0
   -5.2256   -6.1797    1.0062 O   0  0  0  0  0  0  0  0  0  0  0  0
  -10.7726   -8.0462   -2.2805 C   0  0  0  0  0  0  0  0  0  0  0  0
  -11.5107   -8.4547   -1.5795 H   0  0  0  0  0  0  0  0  0  0  0  0
  -11.3061   -7.3595   -2.9457 H   0  0  0  0  0  0  0  0  0  0  0  0
  -10.3936   -8.8773   -2.8811 H   0  0  0  0  0  0  0  0  0  0  0  0
  1  2  1  1  0  0  0
  1  8  1  0  0  0  0
  2  3  1  0  0  0  0
  4  5  2  0  0  0  0
  4  1  1  0  0  0  0
  5  6  1  0  0  0  0
  6 26  1  0  0  0  0
  6 11  1  1  0  0  0
  6  7  1  0  0  0  0
  7 12  1  0  0  0  0
  8  7  2  0  0  0  0
  8 13  1  0  0  0  0
  9  4  1  0  0  0  0
 10  5  1  0  0  0  0
 14 19  1  0  0  0  0
 14 20  1  0  0  0  0
 15 14  2  0  0  0  0
 16 17  2  0  0  0  0
 16 15  1  0  0  0  0
 17 18  1  0  0  0  0
 18 23  1  0  0  0  0
 18 19  2  0  0  0  0
 19 24  1  0  0  0  0
 21 15  1  0  0  0  0
 22 17  1  0  0  0  0
 24 27  2  0  0  0  0
 24 25  2  0  0  0  0
 26 24  1  0  0  0  0
 28 29  1  0  0  0  0
 28 16  1  0  0  0  0
 30 28  1  0  0  0  0
 31 28  1  0  0  0  0
M  RAD  3   1   2   2   2   3   3
M  END
