Coordinates from ORCA-job PhN2+~TsO-_B3LYPG-6-31G_dp-NX-Scan-d89-09-n800
 OpenBabel11261920463D

 31 32  0  0  1  0  0  0  0  0999 V2000
   -5.4332   -1.3818   -0.6422 C   0  0  2  0  0  0  0  0  0  0  0  0
   -6.7240   -1.6269   -0.5821 N   0  0  0  0  0  0  0  0  0  0  0  0
   -7.8009   -1.9856   -0.5224 N   0  0  0  0  0  0  0  0  0  0  0  0
   -4.8116   -1.9545   -1.8706 C   0  0  0  0  0  0  0  0  0  0  0  0
   -4.1905   -3.1317   -1.7189 C   0  0  0  0  0  0  0  0  0  0  0  0
   -4.3605   -3.8019   -0.3802 C   0  0  1  0  0  0  0  0  0  0  0  0
   -4.1149   -2.8284    0.7469 C   0  0  0  0  0  0  0  0  0  0  0  0
   -4.7386   -1.6466    0.6502 C   0  0  0  0  0  0  0  0  0  0  0  0
   -4.8871   -1.4313   -2.8197 H   0  0  0  0  0  0  0  0  0  0  0  0
   -3.6418   -3.6270   -2.5139 H   0  0  0  0  0  0  0  0  0  0  0  0
   -3.8021   -4.7312   -0.2798 H   0  0  0  0  0  0  0  0  0  0  0  0
   -3.5198   -3.1252    1.6049 H   0  0  0  0  0  0  0  0  0  0  0  0
   -4.7727   -0.9149    1.4520 H   0  0  0  0  0  0  0  0  0  0  0  0
   -8.8579   -5.4244   -0.2702 C   0  0  0  0  0  0  0  0  0  0  0  0
   -9.8665   -6.0739   -0.9755 C   0  0  0  0  0  0  0  0  0  0  0  0
   -9.6595   -7.3421   -1.5414 C   0  0  0  0  0  0  0  0  0  0  0  0
   -8.4052   -7.9465   -1.3868 C   0  0  0  0  0  0  0  0  0  0  0  0
   -7.3786   -7.3103   -0.6894 C   0  0  0  0  0  0  0  0  0  0  0  0
   -7.6168   -6.0520   -0.1390 C   0  0  0  0  0  0  0  0  0  0  0  0
   -9.0240   -4.4477    0.1688 H   0  0  0  0  0  0  0  0  0  0  0  0
  -10.8332   -5.5895   -1.0869 H   0  0  0  0  0  0  0  0  0  0  0  0
   -8.2281   -8.9294   -1.8143 H   0  0  0  0  0  0  0  0  0  0  0  0
   -6.4098   -7.7806   -0.5619 H   0  0  0  0  0  0  0  0  0  0  0  0
   -6.3151   -5.2433    0.7732 S   0  0  0  0  0  0  0  0  0  0  0  0
   -6.8989   -4.5144    1.8971 O   0  0  0  0  0  0  0  0  0  0  0  0
   -5.8376   -4.1586   -0.3700 O   0  0  0  0  0  0  0  0  0  0  0  0
   -5.2172   -6.1895    0.9990 O   0  0  0  0  0  0  0  0  0  0  0  0
  -10.7752   -8.0429   -2.2780 C   0  0  0  0  0  0  0  0  0  0  0  0
  -11.5168   -8.4435   -1.5761 H   0  0  0  0  0  0  0  0  0  0  0  0
  -11.3035   -7.3562   -2.9474 H   0  0  0  0  0  0  0  0  0  0  0  0
  -10.4001   -8.8790   -2.8739 H   0  0  0  0  0  0  0  0  0  0  0  0
  1  2  1  1  0  0  0
  1  8  1  0  0  0  0
  2  3  1  0  0  0  0
  4  5  2  0  0  0  0
  4  1  1  0  0  0  0
  5  6  1  0  0  0  0
  6 26  1  0  0  0  0
  6 11  1  1  0  0  0
  6  7  1  0  0  0  0
  7 12  1  0  0  0  0
  8  7  2  0  0  0  0
  8 13  1  0  0  0  0
  9  4  1  0  0  0  0
 10  5  1  0  0  0  0
 14 19  1  0  0  0  0
 14 20  1  0  0  0  0
 15 14  2  0  0  0  0
 16 17  2  0  0  0  0
 16 15  1  0  0  0  0
 17 18  1  0  0  0  0
 18 23  1  0  0  0  0
 18 19  2  0  0  0  0
 19 24  1  0  0  0  0
 21 15  1  0  0  0  0
 22 17  1  0  0  0  0
 24 27  2  0  0  0  0
 24 25  2  0  0  0  0
 26 24  1  0  0  0  0
 28 29  1  0  0  0  0
 28 16  1  0  0  0  0
 30 28  1  0  0  0  0
 31 28  1  0  0  0  0
M  RAD  3   1   2   2   2   3   3
M  END
