Coordinates from ORCA-job PhN2+~TsO-_B3LYPG-6-31G_dp-NX-Scan-d89-09-n800
 OpenBabel11261920463D

 31 32  0  0  0  0  0  0  0  0999 V2000
   -4.9471   -2.5452   -0.9185 C   0  0  0  0  0  0  0  0  0  0  0  0
   -6.3544   -2.6446   -1.0260 N   0  0  0  0  0  0  0  0  0  0  0  0
   -7.1899   -3.2916   -0.4341 N   0  0  0  0  0  0  0  0  0  0  0  0
   -4.3978   -1.6614   -1.8649 C   0  0  0  0  0  0  0  0  0  0  0  0
   -3.0273   -1.4300   -1.9023 C   0  0  0  0  0  0  0  0  0  0  0  0
   -2.1921   -2.0778   -0.9893 C   0  0  0  0  0  0  0  0  0  0  0  0
   -2.7334   -2.9548   -0.0456 C   0  0  0  0  0  0  0  0  0  0  0  0
   -4.1042   -3.2006    0.0026 C   0  0  0  0  0  0  0  0  0  0  0  0
   -5.0728   -1.1692   -2.5565 H   0  0  0  0  0  0  0  0  0  0  0  0
   -2.6123   -0.7461   -2.6364 H   0  0  0  0  0  0  0  0  0  0  0  0
   -1.1209   -1.8981   -1.0102 H   0  0  0  0  0  0  0  0  0  0  0  0
   -2.0829   -3.4561    0.6646 H   0  0  0  0  0  0  0  0  0  0  0  0
   -4.5134   -3.8773    0.7367 H   0  0  0  0  0  0  0  0  0  0  0  0
   -9.7861   -5.4560   -0.3189 C   0  0  0  0  0  0  0  0  0  0  0  0
  -10.4394   -6.2753   -1.2364 C   0  0  0  0  0  0  0  0  0  0  0  0
   -9.9943   -7.5809   -1.4910 C   0  0  0  0  0  0  0  0  0  0  0  0
   -8.8678   -8.0517   -0.8005 C   0  0  0  0  0  0  0  0  0  0  0  0
   -8.2000   -7.2488    0.1209 C   0  0  0  0  0  0  0  0  0  0  0  0
   -8.6670   -5.9534    0.3508 C   0  0  0  0  0  0  0  0  0  0  0  0
  -10.1339   -4.4503   -0.1153 H   0  0  0  0  0  0  0  0  0  0  0  0
  -11.3120   -5.8957   -1.7609 H   0  0  0  0  0  0  0  0  0  0  0  0
   -8.5116   -9.0613   -0.9845 H   0  0  0  0  0  0  0  0  0  0  0  0
   -7.3373   -7.6178    0.6648 H   0  0  0  0  0  0  0  0  0  0  0  0
   -7.8171   -4.9206    1.5295 S   0  0  0  0  0  0  0  0  0  0  0  0
   -8.7254   -3.8788    1.9919 O   0  0  0  0  0  0  0  0  0  0  0  0
   -6.6114   -4.2158    0.6261 O   0  0  0  0  0  0  0  0  0  0  0  0
   -7.0664   -5.7619    2.4546 O   0  0  0  0  0  0  0  0  0  0  0  0
  -10.7315   -8.4701   -2.4626 C   0  0  0  0  0  0  0  0  0  0  0  0
  -11.5385   -9.0152   -1.9575 H   0  0  0  0  0  0  0  0  0  0  0  0
  -11.1873   -7.8899   -3.2698 H   0  0  0  0  0  0  0  0  0  0  0  0
  -10.0663   -9.2143   -2.9099 H   0  0  0  0  0  0  0  0  0  0  0  0
  1  8  2  0  0  0  0
  2  1  1  0  0  0  0
  2  3  1  0  0  0  0
  3 26  1  0  0  0  0
  4  1  1  0  0  0  0
  5  4  2  0  0  0  0
  5  6  1  0  0  0  0
  6  7  2  0  0  0  0
  7  8  1  0  0  0  0
  7 12  1  0  0  0  0
  8 13  1  0  0  0  0
  9  4  1  0  0  0  0
 10  5  1  0  0  0  0
 11  6  1  0  0  0  0
 14 20  1  0  0  0  0
 14 19  2  0  0  0  0
 15 14  1  0  0  0  0
 16 15  2  0  0  0  0
 16 17  1  0  0  0  0
 17 18  2  0  0  0  0
 18 19  1  0  0  0  0
 18 23  1  0  0  0  0
 19 24  1  0  0  0  0
 21 15  1  0  0  0  0
 22 17  1  0  0  0  0
 24 25  2  0  0  0  0
 24 27  2  0  0  0  0
 26 24  1  0  0  0  0
 28 29  1  0  0  0  0
 28 16  1  0  0  0  0
 30 28  1  0  0  0  0
 31 28  1  0  0  0  0
M  RAD  2   2   2   3   2
M  END
