Coordinates from ORCA-job PhN2+~TsO-_B3LYPG-6-31G_dp-NX-Scan-d89-09-n800
 OpenBabel11261920463D

 31 32  0  0  1  0  0  0  0  0999 V2000
   -5.3499   -1.2782   -1.0103 C   0  0  2  0  0  0  0  0  0  0  0  0
   -6.1442   -0.4090   -1.5840 N   0  0  0  0  0  0  0  0  0  0  0  0
   -6.8667    0.3156   -2.0884 N   0  0  0  0  0  0  0  0  0  0  0  0
   -4.5043   -2.1219   -1.8322 C   0  0  0  0  0  0  0  0  0  0  0  0
   -3.9958   -3.2445   -1.2925 C   0  0  0  0  0  0  0  0  0  0  0  0
   -4.4728   -3.7043    0.0450 C   0  0  1  0  0  0  0  0  0  0  0  0
   -4.8966   -2.5944    0.9508 C   0  0  0  0  0  0  0  0  0  0  0  0
   -5.4107   -1.4671    0.4269 C   0  0  0  0  0  0  0  0  0  0  0  0
   -4.2869   -1.8167   -2.8509 H   0  0  0  0  0  0  0  0  0  0  0  0
   -3.3309   -3.8905   -1.8553 H   0  0  0  0  0  0  0  0  0  0  0  0
   -3.7732   -4.3975    0.5151 H   0  0  0  0  0  0  0  0  0  0  0  0
   -4.8963   -2.7710    2.0206 H   0  0  0  0  0  0  0  0  0  0  0  0
   -5.8528   -0.6888    1.0412 H   0  0  0  0  0  0  0  0  0  0  0  0
   -8.6847   -6.0548    0.3074 C   0  0  0  0  0  0  0  0  0  0  0  0
   -9.8290   -6.5319   -0.3244 C   0  0  0  0  0  0  0  0  0  0  0  0
   -9.7428   -7.3978   -1.4263 C   0  0  0  0  0  0  0  0  0  0  0  0
   -8.4733   -7.7803   -1.8796 C   0  0  0  0  0  0  0  0  0  0  0  0
   -7.3151   -7.3133   -1.2602 C   0  0  0  0  0  0  0  0  0  0  0  0
   -7.4341   -6.4486   -0.1732 C   0  0  0  0  0  0  0  0  0  0  0  0
   -8.7497   -5.3988    1.1686 H   0  0  0  0  0  0  0  0  0  0  0  0
  -10.8060   -6.2324    0.0455 H   0  0  0  0  0  0  0  0  0  0  0  0
   -8.3894   -8.4560   -2.7264 H   0  0  0  0  0  0  0  0  0  0  0  0
   -6.3330   -7.6212   -1.6012 H   0  0  0  0  0  0  0  0  0  0  0  0
   -5.9609   -5.8467    0.6289 S   0  0  0  0  0  0  0  0  0  0  0  0
   -6.2776   -5.4504    2.0041 O   0  0  0  0  0  0  0  0  0  0  0  0
   -5.7304   -4.5084   -0.2804 O   0  0  0  0  0  0  0  0  0  0  0  0
   -4.8534   -6.7761    0.3869 O   0  0  0  0  0  0  0  0  0  0  0  0
  -10.9955   -7.9080   -2.0969 C   0  0  0  0  0  0  0  0  0  0  0  0
  -11.6213   -8.4674   -1.3920 H   0  0  0  0  0  0  0  0  0  0  0  0
  -11.6037   -7.0809   -2.4803 H   0  0  0  0  0  0  0  0  0  0  0  0
  -10.7608   -8.5692   -2.9352 H   0  0  0  0  0  0  0  0  0  0  0  0
  1  2  1  6  0  0  0
  1  8  1  0  0  0  0
  3  2  1  0  0  0  0
  4  5  2  0  0  0  0
  4  1  1  0  0  0  0
  5  6  1  0  0  0  0
  6 11  1  1  0  0  0
  6  7  1  0  0  0  0
  7 12  1  0  0  0  0
  8  7  2  0  0  0  0
  8 13  1  0  0  0  0
  9  4  1  0  0  0  0
 10  5  1  0  0  0  0
 14 20  1  0  0  0  0
 15 21  1  0  0  0  0
 15 14  2  0  0  0  0
 16 15  1  0  0  0  0
 17 16  2  0  0  0  0
 17 18  1  0  0  0  0
 18 19  2  0  0  0  0
 19 14  1  0  0  0  0
 19 24  1  0  0  0  0
 22 17  1  0  0  0  0
 23 18  1  0  0  0  0
 24 25  2  0  0  0  0
 26  6  1  0  0  0  0
 26 24  1  0  0  0  0
 27 24  2  0  0  0  0
 28 16  1  0  0  0  0
 28 29  1  0  0  0  0
 30 28  1  0  0  0  0
 31 28  1  0  0  0  0
M  RAD  3   1   2   2   2   3   3
M  END
