Coordinates from ORCA-job PhN2+~TsO-_B3LYPG-6-31G_dp-NX-Scan-d89-09-n800
 OpenBabel11261920463D

 31 32  0  0  1  0  0  0  0  0999 V2000
   -5.4049   -1.3550   -0.9824 C   0  0  2  0  0  0  0  0  0  0  0  0
   -6.3325   -0.5964   -1.5095 N   0  0  0  0  0  0  0  0  0  0  0  0
   -7.1739    0.0199   -1.9707 N   0  0  0  0  0  0  0  0  0  0  0  0
   -4.5640   -2.1570   -1.8524 C   0  0  0  0  0  0  0  0  0  0  0  0
   -3.9855   -3.2580   -1.3398 C   0  0  0  0  0  0  0  0  0  0  0  0
   -4.4092   -3.7325    0.0115 C   0  0  1  0  0  0  0  0  0  0  0  0
   -4.7586   -2.6234    0.9512 C   0  0  0  0  0  0  0  0  0  0  0  0
   -5.3433   -1.5162    0.4598 C   0  0  0  0  0  0  0  0  0  0  0  0
   -4.4108   -1.8395   -2.8792 H   0  0  0  0  0  0  0  0  0  0  0  0
   -3.3139   -3.8744   -1.9269 H   0  0  0  0  0  0  0  0  0  0  0  0
   -3.7129   -4.4568    0.4360 H   0  0  0  0  0  0  0  0  0  0  0  0
   -4.6522   -2.7846    2.0180 H   0  0  0  0  0  0  0  0  0  0  0  0
   -5.7546   -0.7389    1.0964 H   0  0  0  0  0  0  0  0  0  0  0  0
   -8.7098   -5.9737    0.2756 C   0  0  0  0  0  0  0  0  0  0  0  0
   -9.8378   -6.4588   -0.3793 C   0  0  0  0  0  0  0  0  0  0  0  0
   -9.7246   -7.3575   -1.4520 C   0  0  0  0  0  0  0  0  0  0  0  0
   -8.4448   -7.7643   -1.8524 C   0  0  0  0  0  0  0  0  0  0  0  0
   -7.3028   -7.2898   -1.2093 C   0  0  0  0  0  0  0  0  0  0  0  0
   -7.4483   -6.3927   -0.1521 C   0  0  0  0  0  0  0  0  0  0  0  0
   -8.7960   -5.2918    1.1145 H   0  0  0  0  0  0  0  0  0  0  0  0
  -10.8233   -6.1394   -0.0507 H   0  0  0  0  0  0  0  0  0  0  0  0
   -8.3403   -8.4652   -2.6761 H   0  0  0  0  0  0  0  0  0  0  0  0
   -6.3134   -7.6165   -1.5094 H   0  0  0  0  0  0  0  0  0  0  0  0
   -5.9961   -5.7808    0.6809 S   0  0  0  0  0  0  0  0  0  0  0  0
   -6.3607   -5.3234    2.0246 O   0  0  0  0  0  0  0  0  0  0  0  0
   -5.7057   -4.4890   -0.2777 O   0  0  0  0  0  0  0  0  0  0  0  0
   -4.8961   -6.7372    0.5218 O   0  0  0  0  0  0  0  0  0  0  0  0
  -10.9599   -7.8785   -2.1462 C   0  0  0  0  0  0  0  0  0  0  0  0
  -11.5942   -8.4428   -1.4525 H   0  0  0  0  0  0  0  0  0  0  0  0
  -11.5677   -7.0571   -2.5417 H   0  0  0  0  0  0  0  0  0  0  0  0
  -10.7037   -8.5391   -2.9786 H   0  0  0  0  0  0  0  0  0  0  0  0
  1  2  1  6  0  0  0
  1  8  1  0  0  0  0
  3  2  1  0  0  0  0
  4  5  2  0  0  0  0
  4  1  1  0  0  0  0
  5  6  1  0  0  0  0
  6 11  1  1  0  0  0
  6  7  1  0  0  0  0
  7 12  1  0  0  0  0
  8  7  2  0  0  0  0
  8 13  1  0  0  0  0
  9  4  1  0  0  0  0
 10  5  1  0  0  0  0
 14 20  1  0  0  0  0
 15 21  1  0  0  0  0
 15 14  2  0  0  0  0
 16 15  1  0  0  0  0
 17 16  2  0  0  0  0
 17 18  1  0  0  0  0
 18 19  2  0  0  0  0
 19 14  1  0  0  0  0
 19 24  1  0  0  0  0
 22 17  1  0  0  0  0
 23 18  1  0  0  0  0
 24 25  2  0  0  0  0
 26  6  1  0  0  0  0
 26 24  1  0  0  0  0
 27 24  2  0  0  0  0
 28 29  1  0  0  0  0
 28 16  1  0  0  0  0
 30 28  1  0  0  0  0
 31 28  1  0  0  0  0
M  RAD  3   1   2   2   2   3   3
M  END
