Coordinates from ORCA-job PhN2+~TsO-_B3LYPG-6-31G_dp-NX-Scan-d89-09-n800
 OpenBabel11261920463D

 31 31  0  0  0  0  0  0  0  0999 V2000
   -3.7600   -0.4364   -0.1196 C   0  0  0  0  0  0  0  0  0  0  0  0
   -3.5241    0.8508    0.2371 N   0  0  0  0  0  0  0  0  0  0  0  0
   -3.3504    1.9179    0.5452 N   0  0  0  0  0  0  0  0  0  0  0  0
   -2.8296   -1.0817   -0.9725 C   0  0  0  0  0  0  0  0  0  0  0  0
   -3.1101   -2.3852   -1.3364 C   0  0  0  0  0  0  0  0  0  0  0  0
   -4.2766   -3.0235   -0.8772 C   0  0  0  0  0  0  0  0  0  0  0  0
   -5.1799   -2.3634   -0.0197 C   0  0  0  0  0  0  0  0  0  0  0  0
   -4.9362   -1.0617    0.3716 C   0  0  0  0  0  0  0  0  0  0  0  0
   -1.9465   -0.5566   -1.3188 H   0  0  0  0  0  0  0  0  0  0  0  0
   -2.4264   -2.9124   -1.9938 H   0  0  0  0  0  0  0  0  0  0  0  0
   -4.5475   -4.0369   -1.1837 H   0  0  0  0  0  0  0  0  0  0  0  0
   -6.0864   -2.8946    0.2964 H   0  0  0  0  0  0  0  0  0  0  0  0
   -5.6137   -0.5175    1.0209 H   0  0  0  0  0  0  0  0  0  0  0  0
   -9.6155   -6.2897   -0.2386 C   0  0  0  0  0  0  0  0  0  0  0  0
  -10.4475   -7.4069   -0.2065 C   0  0  0  0  0  0  0  0  0  0  0  0
  -10.0905   -8.5959   -0.8593 C   0  0  0  0  0  0  0  0  0  0  0  0
   -8.8714   -8.6332   -1.5482 C   0  0  0  0  0  0  0  0  0  0  0  0
   -8.0302   -7.5205   -1.5877 C   0  0  0  0  0  0  0  0  0  0  0  0
   -8.4044   -6.3483   -0.9317 C   0  0  0  0  0  0  0  0  0  0  0  0
   -9.8874   -5.3762    0.2795 H   0  0  0  0  0  0  0  0  0  0  0  0
  -11.3899   -7.3575    0.3346 H   0  0  0  0  0  0  0  0  0  0  0  0
   -8.5747   -9.5468   -2.0588 H   0  0  0  0  0  0  0  0  0  0  0  0
   -7.0798   -7.5541   -2.1089 H   0  0  0  0  0  0  0  0  0  0  0  0
   -7.3639   -4.8836   -1.0378 S   0  0  0  0  0  0  0  0  0  0  0  0
   -7.5324   -4.1993    0.2869 O   0  0  0  0  0  0  0  0  0  0  0  0
   -7.8438   -4.0717   -2.1817 O   0  0  0  0  0  0  0  0  0  0  0  0
   -5.9725   -5.4127   -1.2324 O   0  0  0  0  0  0  0  0  0  0  0  0
  -10.9857   -9.8115   -0.7939 C   0  0  0  0  0  0  0  0  0  0  0  0
  -10.8518  -10.3559    0.1503 H   0  0  0  0  0  0  0  0  0  0  0  0
  -12.0434   -9.5344   -0.8571 H   0  0  0  0  0  0  0  0  0  0  0  0
  -10.7696  -10.5112   -1.6069 H   0  0  0  0  0  0  0  0  0  0  0  0
  1  2  1  0  0  0  0
  1  8  2  0  0  0  0
  2  3  1  0  0  0  0
  4  1  1  0  0  0  0
  5  4  2  0  0  0  0
  5  6  1  0  0  0  0
  6  7  2  0  0  0  0
  7 12  1  0  0  0  0
  7  8  1  0  0  0  0
  8 13  1  0  0  0  0
  9  4  1  0  0  0  0
 10  5  1  0  0  0  0
 11  6  1  0  0  0  0
 14 15  1  0  0  0  0
 14 20  1  0  0  0  0
 15 21  1  0  0  0  0
 16 28  1  0  0  0  0
 16 15  2  0  0  0  0
 17 16  1  0  0  0  0
 18 17  2  0  0  0  0
 18 19  1  0  0  0  0
 19 14  2  0  0  0  0
 22 17  1  0  0  0  0
 23 18  1  0  0  0  0
 24 19  1  0  0  0  0
 24 25  1  0  0  0  0
 26 24  2  0  0  0  0
 27 24  2  0  0  0  0
 28 29  1  0  0  0  0
 30 28  1  0  0  0  0
 31 28  1  0  0  0  0
M  RAD  3   2   2   3   3  25   2
M  END
