Coordinates from ORCA-job PhN2+~TsO-_B3LYPG-6-31G_dp-NX-Scan-d89-09-n800
 OpenBabel11261920463D

 31 32  0  0  1  0  0  0  0  0999 V2000
   -4.7824   -0.7485   -0.8911 C   0  0  0  0  0  0  0  0  0  0  0  0
   -4.6484    0.5268   -1.1782 N   0  0  0  0  0  0  0  0  0  0  0  0
   -4.5256    1.6399   -1.4246 N   0  0  0  0  0  0  0  0  0  0  0  0
   -4.3888   -1.7620   -1.8518 C   0  0  0  0  0  0  0  0  0  0  0  0
   -4.4534   -3.0683   -1.5307 C   0  0  0  0  0  0  0  0  0  0  0  0
   -4.9115   -3.5609   -0.1936 C   0  0  1  0  0  0  0  0  0  0  0  0
   -5.3610   -2.4664    0.7268 C   0  0  0  0  0  0  0  0  0  0  0  0
   -5.2977   -1.1615    0.4019 C   0  0  0  0  0  0  0  0  0  0  0  0
   -4.0308   -1.4436   -2.8259 H   0  0  0  0  0  0  0  0  0  0  0  0
   -4.1512   -3.8233   -2.2486 H   0  0  0  0  0  0  0  0  0  0  0  0
   -4.1347   -4.1820    0.2719 H   0  0  0  0  0  0  0  0  0  0  0  0
   -5.7421   -2.7756    1.6938 H   0  0  0  0  0  0  0  0  0  0  0  0
   -5.6197   -0.3956    1.1006 H   0  0  0  0  0  0  0  0  0  0  0  0
   -8.8060   -6.2817    0.2932 C   0  0  0  0  0  0  0  0  0  0  0  0
   -9.9301   -6.8824   -0.2643 C   0  0  0  0  0  0  0  0  0  0  0  0
   -9.8149   -7.7999   -1.3213 C   0  0  0  0  0  0  0  0  0  0  0  0
   -8.5363   -8.1072   -1.8049 C   0  0  0  0  0  0  0  0  0  0  0  0
   -7.3974   -7.5154   -1.2609 C   0  0  0  0  0  0  0  0  0  0  0  0
   -7.5463   -6.6022   -0.2181 C   0  0  0  0  0  0  0  0  0  0  0  0
   -8.8934   -5.5846    1.1193 H   0  0  0  0  0  0  0  0  0  0  0  0
  -10.9137   -6.6405    0.1293 H   0  0  0  0  0  0  0  0  0  0  0  0
   -8.4293   -8.8225   -2.6158 H   0  0  0  0  0  0  0  0  0  0  0  0
   -6.4068   -7.7628   -1.6254 H   0  0  0  0  0  0  0  0  0  0  0  0
   -6.0985   -5.8421    0.4879 S   0  0  0  0  0  0  0  0  0  0  0  0
   -6.3737   -5.4412    1.8705 O   0  0  0  0  0  0  0  0  0  0  0  0
   -6.0616   -4.5040   -0.4545 O   0  0  0  0  0  0  0  0  0  0  0  0
   -4.9186   -6.6600    0.1950 O   0  0  0  0  0  0  0  0  0  0  0  0
  -11.0464   -8.4383   -1.9170 C   0  0  0  0  0  0  0  0  0  0  0  0
  -11.6436   -8.9405   -1.1478 H   0  0  0  0  0  0  0  0  0  0  0  0
  -11.6920   -7.6865   -2.3859 H   0  0  0  0  0  0  0  0  0  0  0  0
  -10.7859   -9.1779   -2.6785 H   0  0  0  0  0  0  0  0  0  0  0  0
  1  8  1  0  0  0  0
  2  1  1  0  0  0  0
  3  2  1  0  0  0  0
  4  5  1  0  0  0  0
  4  1  2  0  0  0  0
  5  6  1  0  0  0  0
  6 11  1  1  0  0  0
  6  7  1  0  0  0  0
  7 12  1  0  0  0  0
  8  7  2  0  0  0  0
  8 13  1  0  0  0  0
  9  4  1  0  0  0  0
 10  5  1  0  0  0  0
 14 20  1  0  0  0  0
 15 21  1  0  0  0  0
 15 14  2  0  0  0  0
 16 15  1  0  0  0  0
 17 16  2  0  0  0  0
 17 18  1  0  0  0  0
 18 19  2  0  0  0  0
 19 14  1  0  0  0  0
 19 24  1  0  0  0  0
 22 17  1  0  0  0  0
 23 18  1  0  0  0  0
 24 25  2  0  0  0  0
 26  6  1  0  0  0  0
 26 24  1  0  0  0  0
 27 24  2  0  0  0  0
 28 16  1  0  0  0  0
 28 29  1  0  0  0  0
 30 28  1  0  0  0  0
 31 28  1  0  0  0  0
M  RAD  3   2   2   3   3   5   2
M  END
