Coordinates from ORCA-job PhN2+~TsO-_B3LYPG-6-31G_dp-NX-Scan-d89-09-n800
 OpenBabel11261920463D

 31 31  0  0  0  0  0  0  0  0999 V2000
   -3.7094   -0.4780   -0.0310 C   0  0  0  0  0  0  0  0  0  0  0  0
   -3.4276    0.7693    0.4214 N   0  0  0  0  0  0  0  0  0  0  0  0
   -3.2167    1.8030    0.8098 N   0  0  0  0  0  0  0  0  0  0  0  0
   -2.7812   -1.1078   -0.8979 C   0  0  0  0  0  0  0  0  0  0  0  0
   -3.1072   -2.3699   -1.3573 C   0  0  0  0  0  0  0  0  0  0  0  0
   -4.3158   -2.9817   -0.9779 C   0  0  0  0  0  0  0  0  0  0  0  0
   -5.2164   -2.3390   -0.1048 C   0  0  0  0  0  0  0  0  0  0  0  0
   -4.9275   -1.0793    0.3817 C   0  0  0  0  0  0  0  0  0  0  0  0
   -1.8649   -0.6025   -1.1815 H   0  0  0  0  0  0  0  0  0  0  0  0
   -2.4258   -2.8837   -2.0276 H   0  0  0  0  0  0  0  0  0  0  0  0
   -4.6200   -3.9618   -1.3529 H   0  0  0  0  0  0  0  0  0  0  0  0
   -6.1532   -2.8507    0.1523 H   0  0  0  0  0  0  0  0  0  0  0  0
   -5.5995   -0.5498    1.0487 H   0  0  0  0  0  0  0  0  0  0  0  0
   -9.6694   -6.2605   -0.3199 C   0  0  0  0  0  0  0  0  0  0  0  0
  -10.4640   -7.4012   -0.2275 C   0  0  0  0  0  0  0  0  0  0  0  0
  -10.0629   -8.6133   -0.8083 C   0  0  0  0  0  0  0  0  0  0  0  0
   -8.8385   -8.6491   -1.4878 C   0  0  0  0  0  0  0  0  0  0  0  0
   -8.0345   -7.5129   -1.5874 C   0  0  0  0  0  0  0  0  0  0  0  0
   -8.4521   -6.3181   -1.0022 C   0  0  0  0  0  0  0  0  0  0  0  0
   -9.9764   -5.3285    0.1429 H   0  0  0  0  0  0  0  0  0  0  0  0
  -11.4116   -7.3521    0.3044 H   0  0  0  0  0  0  0  0  0  0  0  0
   -8.5085   -9.5797   -1.9442 H   0  0  0  0  0  0  0  0  0  0  0  0
   -7.0805   -7.5436   -2.1018 H   0  0  0  0  0  0  0  0  0  0  0  0
   -7.4617   -4.8265   -1.1874 S   0  0  0  0  0  0  0  0  0  0  0  0
   -7.6276   -4.0968    0.1135 O   0  0  0  0  0  0  0  0  0  0  0  0
   -7.9907   -4.0792   -2.3523 O   0  0  0  0  0  0  0  0  0  0  0  0
   -6.0575   -5.3190   -1.3870 O   0  0  0  0  0  0  0  0  0  0  0  0
  -10.9168   -9.8529   -0.6768 C   0  0  0  0  0  0  0  0  0  0  0  0
  -10.7434  -10.3576    0.2830 H   0  0  0  0  0  0  0  0  0  0  0  0
  -11.9840   -9.6118   -0.7244 H   0  0  0  0  0  0  0  0  0  0  0  0
  -10.6968  -10.5759   -1.4683 H   0  0  0  0  0  0  0  0  0  0  0  0
  1  8  1  0  0  0  0
  1  2  1  0  0  0  0
  2  3  1  0  0  0  0
  4  1  2  0  0  0  0
  5  6  2  0  0  0  0
  5  4  1  0  0  0  0
  6  7  1  0  0  0  0
  7 12  1  0  0  0  0
  7  8  2  0  0  0  0
  8 13  1  0  0  0  0
  9  4  1  0  0  0  0
 10  5  1  0  0  0  0
 11  6  1  0  0  0  0
 14 15  1  0  0  0  0
 14 20  1  0  0  0  0
 15 21  1  0  0  0  0
 16 28  1  0  0  0  0
 16 15  2  0  0  0  0
 17 16  1  0  0  0  0
 18 17  2  0  0  0  0
 18 19  1  0  0  0  0
 19 14  2  0  0  0  0
 22 17  1  0  0  0  0
 23 18  1  0  0  0  0
 24 19  1  0  0  0  0
 24 25  1  0  0  0  0
 26 24  2  0  0  0  0
 27 24  2  0  0  0  0
 28 29  1  0  0  0  0
 30 28  1  0  0  0  0
 31 28  1  0  0  0  0
M  RAD  3   2   2   3   3  25   2
M  END
