Coordinates from ORCA-job PhN2+~TsO-_B3LYPG-6-31G_dp-NX-Scan-d89-09-n800
 OpenBabel11261920463D

 31 32  0  0  0  0  0  0  0  0999 V2000
   -5.0500   -2.5774   -0.8671 C   0  0  0  0  0  0  0  0  0  0  0  0
   -6.4781   -2.5995   -0.9053 N   0  0  0  0  0  0  0  0  0  0  0  0
   -7.1552   -3.3421   -0.1006 N   0  0  0  0  0  0  0  0  0  0  0  0
   -4.5155   -1.7810   -1.9001 C   0  0  0  0  0  0  0  0  0  0  0  0
   -3.1447   -1.6074   -2.0471 C   0  0  0  0  0  0  0  0  0  0  0  0
   -2.2629   -2.2238   -1.1546 C   0  0  0  0  0  0  0  0  0  0  0  0
   -2.7747   -3.0094   -0.1228 C   0  0  0  0  0  0  0  0  0  0  0  0
   -4.1513   -3.1945    0.0297 C   0  0  0  0  0  0  0  0  0  0  0  0
   -5.2176   -1.3058   -2.5775 H   0  0  0  0  0  0  0  0  0  0  0  0
   -2.7621   -0.9897   -2.8551 H   0  0  0  0  0  0  0  0  0  0  0  0
   -1.1900   -2.0896   -1.2610 H   0  0  0  0  0  0  0  0  0  0  0  0
   -2.0990   -3.4901    0.5794 H   0  0  0  0  0  0  0  0  0  0  0  0
   -4.5041   -3.8080    0.8459 H   0  0  0  0  0  0  0  0  0  0  0  0
   -9.7784   -5.4260   -0.2544 C   0  0  0  0  0  0  0  0  0  0  0  0
  -10.3401   -6.2031   -1.2633 C   0  0  0  0  0  0  0  0  0  0  0  0
   -9.8696   -7.4972   -1.5336 C   0  0  0  0  0  0  0  0  0  0  0  0
   -8.8061   -8.0033   -0.7684 C   0  0  0  0  0  0  0  0  0  0  0  0
   -8.2212   -7.2467    0.2410 C   0  0  0  0  0  0  0  0  0  0  0  0
   -8.7287   -5.9680    0.4941 C   0  0  0  0  0  0  0  0  0  0  0  0
  -10.1432   -4.4288   -0.0418 H   0  0  0  0  0  0  0  0  0  0  0  0
  -11.1571   -5.7962   -1.8522 H   0  0  0  0  0  0  0  0  0  0  0  0
   -8.4307   -9.0021   -0.9693 H   0  0  0  0  0  0  0  0  0  0  0  0
   -7.3984   -7.6350    0.8312 H   0  0  0  0  0  0  0  0  0  0  0  0
   -7.9581   -4.9702    1.7312 S   0  0  0  0  0  0  0  0  0  0  0  0
   -8.8741   -3.9440    2.2138 O   0  0  0  0  0  0  0  0  0  0  0  0
   -6.6912   -3.9981    0.6363 O   0  0  0  0  0  0  0  0  0  0  0  0
   -7.0679   -5.7492    2.5825 O   0  0  0  0  0  0  0  0  0  0  0  0
  -10.5114   -8.3382   -2.6080 C   0  0  0  0  0  0  0  0  0  0  0  0
  -11.3538   -8.9099   -2.1991 H   0  0  0  0  0  0  0  0  0  0  0  0
  -10.9022   -7.7195   -3.4203 H   0  0  0  0  0  0  0  0  0  0  0  0
   -9.8045   -9.0568   -3.0322 H   0  0  0  0  0  0  0  0  0  0  0  0
  1  8  2  0  0  0  0
  2  1  1  0  0  0  0
  2  3  2  0  0  0  0
  3 26  1  0  0  0  0
  4  1  1  0  0  0  0
  5  4  2  0  0  0  0
  5  6  1  0  0  0  0
  6  7  2  0  0  0  0
  7  8  1  0  0  0  0
  7 12  1  0  0  0  0
  8 13  1  0  0  0  0
  9  4  1  0  0  0  0
 10  5  1  0  0  0  0
 11  6  1  0  0  0  0
 14 20  1  0  0  0  0
 14 19  2  0  0  0  0
 15 14  1  0  0  0  0
 16 15  2  0  0  0  0
 16 17  1  0  0  0  0
 17 18  2  0  0  0  0
 18 19  1  0  0  0  0
 18 23  1  0  0  0  0
 19 24  1  0  0  0  0
 21 15  1  0  0  0  0
 22 17  1  0  0  0  0
 24 25  2  0  0  0  0
 24 27  2  0  0  0  0
 26 24  1  0  0  0  0
 28 29  1  0  0  0  0
 28 16  1  0  0  0  0
 30 28  1  0  0  0  0
 31 28  1  0  0  0  0
M  END
