Coordinates from ORCA-job PhN2+~TsO-_B3LYPG-6-31G_dp-NX-Scan-d89-09-n800
 OpenBabel11261920463D

 31 32  0  0  0  0  0  0  0  0999 V2000
   -4.8726   -2.4991   -0.9679 C   0  0  0  0  0  0  0  0  0  0  0  0
   -6.2688   -2.6462   -1.1018 N   0  0  0  0  0  0  0  0  0  0  0  0
   -7.1349   -3.2899   -0.6010 N   0  0  0  0  0  0  0  0  0  0  0  0
   -4.3208   -1.5466   -1.8407 C   0  0  0  0  0  0  0  0  0  0  0  0
   -2.9551   -1.2873   -1.8104 C   0  0  0  0  0  0  0  0  0  0  0  0
   -2.1401   -1.9769   -0.9091 C   0  0  0  0  0  0  0  0  0  0  0  0
   -2.6918   -2.9248   -0.0424 C   0  0  0  0  0  0  0  0  0  0  0  0
   -4.0570   -3.2002   -0.0588 C   0  0  0  0  0  0  0  0  0  0  0  0
   -4.9812   -1.0254   -2.5251 H   0  0  0  0  0  0  0  0  0  0  0  0
   -2.5281   -0.5500   -2.4828 H   0  0  0  0  0  0  0  0  0  0  0  0
   -1.0733   -1.7745   -0.8798 H   0  0  0  0  0  0  0  0  0  0  0  0
   -2.0543   -3.4573    0.6565 H   0  0  0  0  0  0  0  0  0  0  0  0
   -4.4911   -3.9289    0.6097 H   0  0  0  0  0  0  0  0  0  0  0  0
   -9.7968   -5.4872   -0.3477 C   0  0  0  0  0  0  0  0  0  0  0  0
  -10.4833   -6.3167   -1.2323 C   0  0  0  0  0  0  0  0  0  0  0  0
  -10.0699   -7.6373   -1.4591 C   0  0  0  0  0  0  0  0  0  0  0  0
   -8.9419   -8.1119   -0.7736 C   0  0  0  0  0  0  0  0  0  0  0  0
   -8.2430   -7.2979    0.1146 C   0  0  0  0  0  0  0  0  0  0  0  0
   -8.6764   -5.9865    0.3173 C   0  0  0  0  0  0  0  0  0  0  0  0
  -10.1226   -4.4703   -0.1628 H   0  0  0  0  0  0  0  0  0  0  0  0
  -11.3579   -5.9336   -1.7513 H   0  0  0  0  0  0  0  0  0  0  0  0
   -8.6096   -9.1338   -0.9352 H   0  0  0  0  0  0  0  0  0  0  0  0
   -7.3802   -7.6709    0.6556 H   0  0  0  0  0  0  0  0  0  0  0  0
   -7.7784   -4.9334    1.4478 S   0  0  0  0  0  0  0  0  0  0  0  0
   -8.6564   -3.8398    1.8566 O   0  0  0  0  0  0  0  0  0  0  0  0
   -6.5652   -4.3406    0.5379 O   0  0  0  0  0  0  0  0  0  0  0  0
   -7.1016   -5.7751    2.4329 O   0  0  0  0  0  0  0  0  0  0  0  0
  -10.8414   -8.5377   -2.3936 C   0  0  0  0  0  0  0  0  0  0  0  0
  -11.6447   -9.0601   -1.8594 H   0  0  0  0  0  0  0  0  0  0  0  0
  -11.3065   -7.9695   -3.2042 H   0  0  0  0  0  0  0  0  0  0  0  0
  -10.1967   -9.3014   -2.8383 H   0  0  0  0  0  0  0  0  0  0  0  0
  1  8  2  0  0  0  0
  2  1  1  0  0  0  0
  2  3  1  0  0  0  0
  3 26  1  0  0  0  0
  4  5  2  0  0  0  0
  4  1  1  0  0  0  0
  5  6  1  0  0  0  0
  6 11  1  0  0  0  0
  6  7  2  0  0  0  0
  7 12  1  0  0  0  0
  8  7  1  0  0  0  0
  8 13  1  0  0  0  0
  9  4  1  0  0  0  0
 10  5  1  0  0  0  0
 14 20  1  0  0  0  0
 14 19  2  0  0  0  0
 15 14  1  0  0  0  0
 16 15  2  0  0  0  0
 16 17  1  0  0  0  0
 17 18  2  0  0  0  0
 18 19  1  0  0  0  0
 18 23  1  0  0  0  0
 19 24  1  0  0  0  0
 21 15  1  0  0  0  0
 22 17  1  0  0  0  0
 24 25  2  0  0  0  0
 24 27  2  0  0  0  0
 26 24  1  0  0  0  0
 28 29  1  0  0  0  0
 28 16  1  0  0  0  0
 30 28  1  0  0  0  0
 31 28  1  0  0  0  0
M  RAD  2   2   2   3   2
M  END
