Coordinates from ORCA-job PhN2+~TsO-_B3LYPG-6-31G_dp-NX-Scan-d89-09-n800
 OpenBabel11261920463D

 31 32  0  0  0  0  0  0  0  0999 V2000
   -5.0133   -2.5819   -0.8714 C   0  0  0  0  0  0  0  0  0  0  0  0
   -6.4345   -2.6396   -0.9667 N   0  0  0  0  0  0  0  0  0  0  0  0
   -7.1997   -3.3313   -0.2623 N   0  0  0  0  0  0  0  0  0  0  0  0
   -4.4661   -1.7654   -1.8804 C   0  0  0  0  0  0  0  0  0  0  0  0
   -3.0952   -1.5552   -1.9735 C   0  0  0  0  0  0  0  0  0  0  0  0
   -2.2381   -2.1545   -1.0475 C   0  0  0  0  0  0  0  0  0  0  0  0
   -2.7669   -2.9605   -0.0380 C   0  0  0  0  0  0  0  0  0  0  0  0
   -4.1406   -3.1841    0.0609 C   0  0  0  0  0  0  0  0  0  0  0  0
   -5.1550   -1.3053   -2.5808 H   0  0  0  0  0  0  0  0  0  0  0  0
   -2.6958   -0.9234   -2.7617 H   0  0  0  0  0  0  0  0  0  0  0  0
   -1.1657   -1.9916   -1.1094 H   0  0  0  0  0  0  0  0  0  0  0  0
   -2.1048   -3.4260    0.6864 H   0  0  0  0  0  0  0  0  0  0  0  0
   -4.5170   -3.8105    0.8547 H   0  0  0  0  0  0  0  0  0  0  0  0
   -9.7714   -5.4301   -0.3019 C   0  0  0  0  0  0  0  0  0  0  0  0
  -10.3988   -6.2374   -1.2463 C   0  0  0  0  0  0  0  0  0  0  0  0
   -9.9385   -7.5356   -1.5155 C   0  0  0  0  0  0  0  0  0  0  0  0
   -8.8213   -8.0128   -0.8137 C   0  0  0  0  0  0  0  0  0  0  0  0
   -8.1752   -7.2241    0.1342 C   0  0  0  0  0  0  0  0  0  0  0  0
   -8.6632   -5.9385    0.3798 C   0  0  0  0  0  0  0  0  0  0  0  0
  -10.1269   -4.4289   -0.0913 H   0  0  0  0  0  0  0  0  0  0  0  0
  -11.2611   -5.8530   -1.7835 H   0  0  0  0  0  0  0  0  0  0  0  0
   -8.4536   -9.0153   -1.0115 H   0  0  0  0  0  0  0  0  0  0  0  0
   -7.3160   -7.5945    0.6823 H   0  0  0  0  0  0  0  0  0  0  0  0
   -7.8459   -4.9289    1.5878 S   0  0  0  0  0  0  0  0  0  0  0  0
   -8.7618   -3.9288    2.1112 O   0  0  0  0  0  0  0  0  0  0  0  0
   -6.6588   -4.0800    0.6246 O   0  0  0  0  0  0  0  0  0  0  0  0
   -6.9795   -5.7373    2.4303 O   0  0  0  0  0  0  0  0  0  0  0  0
  -10.6496   -8.4099   -2.5184 C   0  0  0  0  0  0  0  0  0  0  0  0
  -11.4705   -8.9591   -2.0410 H   0  0  0  0  0  0  0  0  0  0  0  0
  -11.0832   -7.8176   -3.3289 H   0  0  0  0  0  0  0  0  0  0  0  0
   -9.9738   -9.1492   -2.9573 H   0  0  0  0  0  0  0  0  0  0  0  0
  1  8  2  0  0  0  0
  2  1  1  0  0  0  0
  2  3  2  0  0  0  0
  3 26  1  0  0  0  0
  4  1  1  0  0  0  0
  5  4  2  0  0  0  0
  5  6  1  0  0  0  0
  6  7  2  0  0  0  0
  7  8  1  0  0  0  0
  7 12  1  0  0  0  0
  8 13  1  0  0  0  0
  9  4  1  0  0  0  0
 10  5  1  0  0  0  0
 11  6  1  0  0  0  0
 14 20  1  0  0  0  0
 14 19  2  0  0  0  0
 15 14  1  0  0  0  0
 16 15  2  0  0  0  0
 16 17  1  0  0  0  0
 17 18  2  0  0  0  0
 18 19  1  0  0  0  0
 18 23  1  0  0  0  0
 19 24  1  0  0  0  0
 21 15  1  0  0  0  0
 22 17  1  0  0  0  0
 24 25  2  0  0  0  0
 24 27  2  0  0  0  0
 26 24  1  0  0  0  0
 28 29  1  0  0  0  0
 28 16  1  0  0  0  0
 30 28  1  0  0  0  0
 31 28  1  0  0  0  0
M  END
