Coordinates from ORCA-job PhN2+~TsO-_B3LYPG-6-31G_dp-NX-Scan-d89-09-n800
 OpenBabel11261920463D

 31 31  0  0  0  0  0  0  0  0999 V2000
   -3.6662   -0.5670    0.1000 C   0  0  0  0  0  0  0  0  0  0  0  0
   -3.3267    0.6077    0.6870 N   0  0  0  0  0  0  0  0  0  0  0  0
   -3.0675    1.5802    1.1882 N   0  0  0  0  0  0  0  0  0  0  0  0
   -2.7331   -1.1797   -0.7740 C   0  0  0  0  0  0  0  0  0  0  0  0
   -3.1141   -2.3690   -1.3661 C   0  0  0  0  0  0  0  0  0  0  0  0
   -4.3806   -2.9247   -1.1089 C   0  0  0  0  0  0  0  0  0  0  0  0
   -5.2861   -2.3019   -0.2267 C   0  0  0  0  0  0  0  0  0  0  0  0
   -4.9432   -1.1155    0.3911 C   0  0  0  0  0  0  0  0  0  0  0  0
   -1.7707   -0.7169   -0.9611 H   0  0  0  0  0  0  0  0  0  0  0  0
   -2.4299   -2.8679   -2.0448 H   0  0  0  0  0  0  0  0  0  0  0  0
   -4.7239   -3.8491   -1.5791 H   0  0  0  0  0  0  0  0  0  0  0  0
   -6.2635   -2.7751   -0.0605 H   0  0  0  0  0  0  0  0  0  0  0  0
   -5.6139   -0.6048    1.0739 H   0  0  0  0  0  0  0  0  0  0  0  0
   -9.7224   -6.2135   -0.4318 C   0  0  0  0  0  0  0  0  0  0  0  0
  -10.4604   -7.3799   -0.2393 C   0  0  0  0  0  0  0  0  0  0  0  0
  -10.0069   -8.6136   -0.7279 C   0  0  0  0  0  0  0  0  0  0  0  0
   -8.7891   -8.6449   -1.4200 C   0  0  0  0  0  0  0  0  0  0  0  0
   -8.0420   -7.4839   -1.6192 C   0  0  0  0  0  0  0  0  0  0  0  0
   -8.5104   -6.2673   -1.1232 C   0  0  0  0  0  0  0  0  0  0  0  0
  -10.0698   -5.2636   -0.0397 H   0  0  0  0  0  0  0  0  0  0  0  0
  -11.4043   -7.3335    0.2992 H   0  0  0  0  0  0  0  0  0  0  0  0
   -8.4197   -9.5919   -1.8075 H   0  0  0  0  0  0  0  0  0  0  0  0
   -7.0927   -7.5103   -2.1427 H   0  0  0  0  0  0  0  0  0  0  0  0
   -7.5929   -4.7498   -1.4360 S   0  0  0  0  0  0  0  0  0  0  0  0
   -7.7821   -3.9310   -0.1926 O   0  0  0  0  0  0  0  0  0  0  0  0
   -8.1667   -4.1243   -2.6489 O   0  0  0  0  0  0  0  0  0  0  0  0
   -6.1686   -5.1925   -1.6116 O   0  0  0  0  0  0  0  0  0  0  0  0
  -10.7944   -9.8797   -0.4841 C   0  0  0  0  0  0  0  0  0  0  0  0
  -10.5224  -10.3390    0.4755 H   0  0  0  0  0  0  0  0  0  0  0  0
  -11.8710   -9.6834   -0.4537 H   0  0  0  0  0  0  0  0  0  0  0  0
  -10.6067  -10.6246   -1.2639 H   0  0  0  0  0  0  0  0  0  0  0  0
  1  8  1  0  0  0  0
  1  2  1  0  0  0  0
  2  3  1  0  0  0  0
  4  1  2  0  0  0  0
  5  6  2  0  0  0  0
  5  4  1  0  0  0  0
  6  7  1  0  0  0  0
  7 12  1  0  0  0  0
  7  8  2  0  0  0  0
  8 13  1  0  0  0  0
  9  4  1  0  0  0  0
 10  5  1  0  0  0  0
 11  6  1  0  0  0  0
 14 15  1  0  0  0  0
 14 20  1  0  0  0  0
 15 21  1  0  0  0  0
 16 28  1  0  0  0  0
 16 15  2  0  0  0  0
 17 16  1  0  0  0  0
 18 17  2  0  0  0  0
 18 19  1  0  0  0  0
 19 14  2  0  0  0  0
 22 17  1  0  0  0  0
 23 18  1  0  0  0  0
 24 19  1  0  0  0  0
 24 25  1  0  0  0  0
 26 24  2  0  0  0  0
 27 24  2  0  0  0  0
 28 30  1  0  0  0  0
 28 29  1  0  0  0  0
 31 28  1  0  0  0  0
M  RAD  3   2   2   3   3  25   2
M  END
