Coordinates from ORCA-job PhN2+~TsO-_B3LYPG-6-31G_dp-NX-Scan-d89-09-n800
 OpenBabel11261920463D

 31 32  0  0  1  0  0  0  0  0999 V2000
   -5.2119   -1.1105   -1.0104 C   0  0  0  0  0  0  0  0  0  0  0  0
   -5.7438   -0.0488   -1.5651 N   0  0  0  0  0  0  0  0  0  0  0  0
   -6.2287    0.8615   -2.0549 N   0  0  0  0  0  0  0  0  0  0  0  0
   -4.4458   -2.0336   -1.8217 C   0  0  0  0  0  0  0  0  0  0  0  0
   -4.0844   -3.2210   -1.3023 C   0  0  0  0  0  0  0  0  0  0  0  0
   -4.5934   -3.6692    0.0269 C   0  0  1  0  0  0  0  0  0  0  0  0
   -5.0646   -2.5616    0.9106 C   0  0  0  0  0  0  0  0  0  0  0  0
   -5.4290   -1.3720    0.3985 C   0  0  0  0  0  0  0  0  0  0  0  0
   -4.1594   -1.7352   -2.8251 H   0  0  0  0  0  0  0  0  0  0  0  0
   -3.4904   -3.9232   -1.8774 H   0  0  0  0  0  0  0  0  0  0  0  0
   -3.8842   -4.3330    0.5273 H   0  0  0  0  0  0  0  0  0  0  0  0
   -5.2028   -2.7825    1.9632 H   0  0  0  0  0  0  0  0  0  0  0  0
   -5.8648   -0.5908    1.0137 H   0  0  0  0  0  0  0  0  0  0  0  0
   -8.6924   -6.1559    0.3256 C   0  0  0  0  0  0  0  0  0  0  0  0
   -9.8434   -6.6510   -0.2792 C   0  0  0  0  0  0  0  0  0  0  0  0
   -9.7698   -7.5051   -1.3914 C   0  0  0  0  0  0  0  0  0  0  0  0
   -8.5057   -7.8578   -1.8821 C   0  0  0  0  0  0  0  0  0  0  0  0
   -7.3407   -7.3721   -1.2905 C   0  0  0  0  0  0  0  0  0  0  0  0
   -7.4476   -6.5195   -0.1928 C   0  0  0  0  0  0  0  0  0  0  0  0
   -8.7476   -5.5092    1.1944 H   0  0  0  0  0  0  0  0  0  0  0  0
  -10.8158   -6.3753    0.1202 H   0  0  0  0  0  0  0  0  0  0  0  0
   -8.4313   -8.5245   -2.7368 H   0  0  0  0  0  0  0  0  0  0  0  0
   -6.3621   -7.6563   -1.6608 H   0  0  0  0  0  0  0  0  0  0  0  0
   -5.9655   -5.8930    0.5725 S   0  0  0  0  0  0  0  0  0  0  0  0
   -6.2416   -5.5413    1.9687 O   0  0  0  0  0  0  0  0  0  0  0  0
   -5.8122   -4.5216   -0.3040 O   0  0  0  0  0  0  0  0  0  0  0  0
   -4.8395   -6.7793    0.2643 O   0  0  0  0  0  0  0  0  0  0  0  0
  -11.0297   -8.0312   -2.0356 C   0  0  0  0  0  0  0  0  0  0  0  0
  -11.6501   -8.5697   -1.3102 H   0  0  0  0  0  0  0  0  0  0  0  0
  -11.6397   -7.2131   -2.4357 H   0  0  0  0  0  0  0  0  0  0  0  0
  -10.8040   -8.7145   -2.8584 H   0  0  0  0  0  0  0  0  0  0  0  0
  1  8  1  0  0  0  0
  2  1  1  0  0  0  0
  3  2  1  0  0  0  0
  4  5  1  0  0  0  0
  4  1  2  0  0  0  0
  5  6  1  0  0  0  0
  6 11  1  1  0  0  0
  6  7  1  0  0  0  0
  7 12  1  0  0  0  0
  8  7  2  0  0  0  0
  8 13  1  0  0  0  0
  9  4  1  0  0  0  0
 10  5  1  0  0  0  0
 14 20  1  0  0  0  0
 15 21  1  0  0  0  0
 15 14  2  0  0  0  0
 16 15  1  0  0  0  0
 17 16  2  0  0  0  0
 17 18  1  0  0  0  0
 18 19  2  0  0  0  0
 19 14  1  0  0  0  0
 19 24  1  0  0  0  0
 22 17  1  0  0  0  0
 23 18  1  0  0  0  0
 24 25  2  0  0  0  0
 26  6  1  0  0  0  0
 26 24  1  0  0  0  0
 27 24  2  0  0  0  0
 28 16  1  0  0  0  0
 28 29  1  0  0  0  0
 30 28  1  0  0  0  0
 31 28  1  0  0  0  0
M  RAD  3   2   2   3   3   5   2
M  END
