Coordinates from ORCA-job PhN2+~TsO-_B3LYPG-6-31G_dp-NX-Scan-d89-09-n800
 OpenBabel11261920463D

 31 32  0  0  1  0  0  0  0  0999 V2000
   -5.3546   -1.3684   -0.6936 C   0  0  2  0  0  0  0  0  0  0  0  0
   -6.5649   -0.8768   -0.7763 N   0  0  0  0  0  0  0  0  0  0  0  0
   -7.6486   -0.5324   -0.8431 N   0  0  0  0  0  0  0  0  0  0  0  0
   -4.8058   -2.0356   -1.8727 C   0  0  0  0  0  0  0  0  0  0  0  0
   -4.1929   -3.2158   -1.6788 C   0  0  0  0  0  0  0  0  0  0  0  0
   -4.3562   -3.8485   -0.3303 C   0  0  1  0  0  0  0  0  0  0  0  0
   -4.2016   -2.8557    0.7841 C   0  0  0  0  0  0  0  0  0  0  0  0
   -4.8157   -1.6704    0.6317 C   0  0  0  0  0  0  0  0  0  0  0  0
   -4.8993   -1.5654   -2.8472 H   0  0  0  0  0  0  0  0  0  0  0  0
   -3.6950   -3.7546   -2.4773 H   0  0  0  0  0  0  0  0  0  0  0  0
   -3.7608   -4.7502   -0.1937 H   0  0  0  0  0  0  0  0  0  0  0  0
   -3.7129   -3.1467    1.7073 H   0  0  0  0  0  0  0  0  0  0  0  0
   -4.9231   -0.9460    1.4334 H   0  0  0  0  0  0  0  0  0  0  0  0
   -8.8782   -5.5975   -0.1075 C   0  0  0  0  0  0  0  0  0  0  0  0
   -9.8977   -6.2286   -0.8134 C   0  0  0  0  0  0  0  0  0  0  0  0
   -9.6624   -7.4171   -1.5233 C   0  0  0  0  0  0  0  0  0  0  0  0
   -8.3714   -7.9612   -1.5076 C   0  0  0  0  0  0  0  0  0  0  0  0
   -7.3351   -7.3409   -0.8104 C   0  0  0  0  0  0  0  0  0  0  0  0
   -7.5996   -6.1598   -0.1189 C   0  0  0  0  0  0  0  0  0  0  0  0
   -9.0650   -4.6894    0.4547 H   0  0  0  0  0  0  0  0  0  0  0  0
  -10.8949   -5.7957   -0.8099 H   0  0  0  0  0  0  0  0  0  0  0  0
   -8.1748   -8.8858   -2.0429 H   0  0  0  0  0  0  0  0  0  0  0  0
   -6.3388   -7.7688   -0.7872 H   0  0  0  0  0  0  0  0  0  0  0  0
   -6.2849   -5.3615    0.7857 S   0  0  0  0  0  0  0  0  0  0  0  0
   -6.8640   -4.6438    1.9211 O   0  0  0  0  0  0  0  0  0  0  0  0
   -5.8169   -4.2851   -0.3570 O   0  0  0  0  0  0  0  0  0  0  0  0
   -5.1899   -6.3138    1.0019 O   0  0  0  0  0  0  0  0  0  0  0  0
  -10.7845   -8.0932   -2.2736 C   0  0  0  0  0  0  0  0  0  0  0  0
  -11.5773   -8.4169   -1.5895 H   0  0  0  0  0  0  0  0  0  0  0  0
  -11.2440   -7.4115   -2.9981 H   0  0  0  0  0  0  0  0  0  0  0  0
  -10.4309   -8.9735   -2.8161 H   0  0  0  0  0  0  0  0  0  0  0  0
  1  2  1  1  0  0  0
  1  8  1  0  0  0  0
  3  2  1  0  0  0  0
  4  5  2  0  0  0  0
  4  1  1  0  0  0  0
  5  6  1  0  0  0  0
  6 11  1  1  0  0  0
  6  7  1  0  0  0  0
  7 12  1  0  0  0  0
  8  7  2  0  0  0  0
  8 13  1  0  0  0  0
  9  4  1  0  0  0  0
 10  5  1  0  0  0  0
 14 20  1  0  0  0  0
 15 21  1  0  0  0  0
 15 14  2  0  0  0  0
 16 17  2  0  0  0  0
 16 15  1  0  0  0  0
 17 18  1  0  0  0  0
 18 23  1  0  0  0  0
 18 19  2  0  0  0  0
 19 14  1  0  0  0  0
 19 24  1  0  0  0  0
 22 17  1  0  0  0  0
 24 27  2  0  0  0  0
 24 25  2  0  0  0  0
 26  6  1  0  0  0  0
 26 24  1  0  0  0  0
 28 29  1  0  0  0  0
 28 16  1  0  0  0  0
 30 28  1  0  0  0  0
 31 28  1  0  0  0  0
M  RAD  3   1   2   2   2   3   3
M  END
