Coordinates from ORCA-job PhN2+~TsO-_B3LYPG-6-31G_dp-NX-Scan-d89-09-n800
 OpenBabel11261920463D

 31 32  0  0  1  0  0  0  0  0999 V2000
   -5.3941   -1.3624   -0.6600 C   0  0  2  0  0  0  0  0  0  0  0  0
   -6.6694   -1.6847   -0.5696 N   0  0  0  0  0  0  0  0  0  0  0  0
   -7.7011   -2.1501   -0.4815 N   0  0  0  0  0  0  0  0  0  0  0  0
   -4.7858   -1.9630   -1.8881 C   0  0  0  0  0  0  0  0  0  0  0  0
   -4.2091   -3.1605   -1.7241 C   0  0  0  0  0  0  0  0  0  0  0  0
   -4.3904   -3.8047   -0.3730 C   0  0  1  0  0  0  0  0  0  0  0  0
   -4.0939   -2.8221    0.7351 C   0  0  0  0  0  0  0  0  0  0  0  0
   -4.6760   -1.6204    0.6269 C   0  0  0  0  0  0  0  0  0  0  0  0
   -4.8415   -1.4461   -2.8419 H   0  0  0  0  0  0  0  0  0  0  0  0
   -3.6778   -3.6845   -2.5128 H   0  0  0  0  0  0  0  0  0  0  0  0
   -3.8652   -4.7519   -0.2643 H   0  0  0  0  0  0  0  0  0  0  0  0
   -3.4912   -3.1253    1.5858 H   0  0  0  0  0  0  0  0  0  0  0  0
   -4.6657   -0.8713    1.4132 H   0  0  0  0  0  0  0  0  0  0  0  0
   -8.9180   -5.4381   -0.2237 C   0  0  0  0  0  0  0  0  0  0  0  0
   -9.9090   -6.1021   -0.9407 C   0  0  0  0  0  0  0  0  0  0  0  0
   -9.6605   -7.3422   -1.5501 C   0  0  0  0  0  0  0  0  0  0  0  0
   -8.3829   -7.9039   -1.4261 C   0  0  0  0  0  0  0  0  0  0  0  0
   -7.3743   -7.2528   -0.7170 C   0  0  0  0  0  0  0  0  0  0  0  0
   -7.6531   -6.0219   -0.1243 C   0  0  0  0  0  0  0  0  0  0  0  0
   -9.1151   -4.4840    0.2503 H   0  0  0  0  0  0  0  0  0  0  0  0
  -10.8944   -5.6515   -1.0269 H   0  0  0  0  0  0  0  0  0  0  0  0
   -8.1738   -8.8656   -1.8861 H   0  0  0  0  0  0  0  0  0  0  0  0
   -6.3886   -7.6924   -0.6112 H   0  0  0  0  0  0  0  0  0  0  0  0
   -6.3723   -5.1944    0.8012 S   0  0  0  0  0  0  0  0  0  0  0  0
   -6.9797   -4.4663    1.9125 O   0  0  0  0  0  0  0  0  0  0  0  0
   -5.8835   -4.1032   -0.3329 O   0  0  0  0  0  0  0  0  0  0  0  0
   -5.2707   -6.1316    1.0459 O   0  0  0  0  0  0  0  0  0  0  0  0
  -10.7564   -8.0615   -2.2983 C   0  0  0  0  0  0  0  0  0  0  0  0
  -11.4581   -8.5381   -1.6026 H   0  0  0  0  0  0  0  0  0  0  0  0
  -11.3364   -7.3699   -2.9177 H   0  0  0  0  0  0  0  0  0  0  0  0
  -10.3537   -8.8443   -2.9466 H   0  0  0  0  0  0  0  0  0  0  0  0
  1  2  1  1  0  0  0
  1  8  1  0  0  0  0
  2  3  1  0  0  0  0
  4  5  2  0  0  0  0
  4  1  1  0  0  0  0
  5  6  1  0  0  0  0
  6 26  1  0  0  0  0
  6 11  1  1  0  0  0
  6  7  1  0  0  0  0
  7 12  1  0  0  0  0
  8  7  2  0  0  0  0
  8 13  1  0  0  0  0
  9  4  1  0  0  0  0
 10  5  1  0  0  0  0
 14 19  1  0  0  0  0
 14 20  1  0  0  0  0
 15 14  2  0  0  0  0
 16 17  2  0  0  0  0
 16 15  1  0  0  0  0
 17 18  1  0  0  0  0
 18 23  1  0  0  0  0
 18 19  2  0  0  0  0
 19 24  1  0  0  0  0
 21 15  1  0  0  0  0
 22 17  1  0  0  0  0
 24 27  2  0  0  0  0
 24 25  2  0  0  0  0
 26 24  1  0  0  0  0
 28 29  1  0  0  0  0
 28 16  1  0  0  0  0
 30 28  1  0  0  0  0
 31 28  1  0  0  0  0
M  RAD  3   1   2   2   2   3   3
M  END
