Coordinates from ORCA-job PhN2+~TsO-_B3LYPG-6-31G_dp-NX-Scan-d89-09-n800
 OpenBabel11261920463D

 31 32  0  0  1  0  0  0  0  0999 V2000
   -5.3660   -1.3570   -0.6954 C   0  0  2  0  0  0  0  0  0  0  0  0
   -6.6337   -1.7156   -0.5937 N   0  0  0  0  0  0  0  0  0  0  0  0
   -7.6283   -2.2512   -0.4892 N   0  0  0  0  0  0  0  0  0  0  0  0
   -4.7574   -1.9923   -1.9084 C   0  0  0  0  0  0  0  0  0  0  0  0
   -4.2069   -3.1978   -1.7146 C   0  0  0  0  0  0  0  0  0  0  0  0
   -4.4039   -3.8067   -0.3493 C   0  0  1  0  0  0  0  0  0  0  0  0
   -4.0897   -2.8042    0.7357 C   0  0  0  0  0  0  0  0  0  0  0  0
   -4.6479   -1.5938    0.5981 C   0  0  0  0  0  0  0  0  0  0  0  0
   -4.7969   -1.4952   -2.8735 H   0  0  0  0  0  0  0  0  0  0  0  0
   -3.6808   -3.7497   -2.4877 H   0  0  0  0  0  0  0  0  0  0  0  0
   -3.8985   -4.7617   -0.2178 H   0  0  0  0  0  0  0  0  0  0  0  0
   -3.4917   -3.0988    1.5929 H   0  0  0  0  0  0  0  0  0  0  0  0
   -4.6215   -0.8258    1.3656 H   0  0  0  0  0  0  0  0  0  0  0  0
   -8.9545   -5.4434   -0.1911 C   0  0  0  0  0  0  0  0  0  0  0  0
   -9.9366   -6.1124   -0.9180 C   0  0  0  0  0  0  0  0  0  0  0  0
   -9.6660   -7.3314   -1.5567 C   0  0  0  0  0  0  0  0  0  0  0  0
   -8.3746   -7.8686   -1.4533 C   0  0  0  0  0  0  0  0  0  0  0  0
   -7.3769   -7.2135   -0.7354 C   0  0  0  0  0  0  0  0  0  0  0  0
   -7.6779   -6.0015   -0.1124 C   0  0  0  0  0  0  0  0  0  0  0  0
   -9.1690   -4.5054    0.3068 H   0  0  0  0  0  0  0  0  0  0  0  0
  -10.9319   -5.6815   -0.9876 H   0  0  0  0  0  0  0  0  0  0  0  0
   -8.1481   -8.8150   -1.9366 H   0  0  0  0  0  0  0  0  0  0  0  0
   -6.3819   -7.6350   -0.6442 H   0  0  0  0  0  0  0  0  0  0  0  0
   -6.4081   -5.1696    0.8249 S   0  0  0  0  0  0  0  0  0  0  0  0
   -7.0284   -4.4442    1.9306 O   0  0  0  0  0  0  0  0  0  0  0  0
   -5.9083   -4.0721   -0.2994 O   0  0  0  0  0  0  0  0  0  0  0  0
   -5.3083   -6.1064    1.0796 O   0  0  0  0  0  0  0  0  0  0  0  0
  -10.7475   -8.0666   -2.3106 C   0  0  0  0  0  0  0  0  0  0  0  0
  -11.2520   -8.7926   -1.6609 H   0  0  0  0  0  0  0  0  0  0  0  0
  -11.5110   -7.3804   -2.6874 H   0  0  0  0  0  0  0  0  0  0  0  0
  -10.3376   -8.6211   -3.1597 H   0  0  0  0  0  0  0  0  0  0  0  0
  1  2  1  1  0  0  0
  1  8  1  0  0  0  0
  2  3  1  0  0  0  0
  4  5  2  0  0  0  0
  4  1  1  0  0  0  0
  5  6  1  0  0  0  0
  6 26  1  0  0  0  0
  6 11  1  1  0  0  0
  6  7  1  0  0  0  0
  7 12  1  0  0  0  0
  8  7  2  0  0  0  0
  8 13  1  0  0  0  0
  9  4  1  0  0  0  0
 10  5  1  0  0  0  0
 14 19  1  0  0  0  0
 14 20  1  0  0  0  0
 15 14  2  0  0  0  0
 16 17  2  0  0  0  0
 16 15  1  0  0  0  0
 17 18  1  0  0  0  0
 18 23  1  0  0  0  0
 18 19  2  0  0  0  0
 19 24  1  0  0  0  0
 21 15  1  0  0  0  0
 22 17  1  0  0  0  0
 24 27  2  0  0  0  0
 24 25  2  0  0  0  0
 26 24  1  0  0  0  0
 28 29  1  0  0  0  0
 28 16  1  0  0  0  0
 30 28  1  0  0  0  0
 31 28  1  0  0  0  0
M  RAD  3   1   2   2   2   3   3
M  END
