Coordinates from ORCA-job PhN2+~TsO-_B3LYPG-6-31G_dp-NX-Scan-d89-09-n800
 OpenBabel11261920463D

 31 32  0  0  0  0  0  0  0  0999 V2000
   -4.7284   -2.4150   -1.0535 C   0  0  0  0  0  0  0  0  0  0  0  0
   -6.0894   -2.6698   -1.2996 N   0  0  0  0  0  0  0  0  0  0  0  0
   -6.9750   -3.3587   -0.9772 N   0  0  0  0  0  0  0  0  0  0  0  0
   -4.1760   -1.3601   -1.7950 C   0  0  0  0  0  0  0  0  0  0  0  0
   -2.8394   -1.0263   -1.6072 C   0  0  0  0  0  0  0  0  0  0  0  0
   -2.0692   -1.7421   -0.6858 C   0  0  0  0  0  0  0  0  0  0  0  0
   -2.6314   -2.7922    0.0471 C   0  0  0  0  0  0  0  0  0  0  0  0
   -3.9665   -3.1471   -0.1252 C   0  0  0  0  0  0  0  0  0  0  0  0
   -4.8030   -0.8221   -2.4975 H   0  0  0  0  0  0  0  0  0  0  0  0
   -2.4005   -0.2108   -2.1724 H   0  0  0  0  0  0  0  0  0  0  0  0
   -1.0262   -1.4797   -0.5366 H   0  0  0  0  0  0  0  0  0  0  0  0
   -2.0263   -3.3416    0.7612 H   0  0  0  0  0  0  0  0  0  0  0  0
   -4.4279   -3.9525    0.4303 H   0  0  0  0  0  0  0  0  0  0  0  0
   -9.7776   -5.5482   -0.4448 C   0  0  0  0  0  0  0  0  0  0  0  0
  -10.5631   -6.3880   -1.2334 C   0  0  0  0  0  0  0  0  0  0  0  0
  -10.2488   -7.7455   -1.3836 C   0  0  0  0  0  0  0  0  0  0  0  0
   -9.1184   -8.2461   -0.7202 C   0  0  0  0  0  0  0  0  0  0  0  0
   -8.3232   -7.4211    0.0714 C   0  0  0  0  0  0  0  0  0  0  0  0
   -8.6573   -6.0716    0.2005 C   0  0  0  0  0  0  0  0  0  0  0  0
  -10.0289   -4.5015   -0.3154 H   0  0  0  0  0  0  0  0  0  0  0  0
  -11.4383   -5.9834   -1.7353 H   0  0  0  0  0  0  0  0  0  0  0  0
   -8.8612   -9.2973   -0.8226 H   0  0  0  0  0  0  0  0  0  0  0  0
   -7.4594   -7.8139    0.5966 H   0  0  0  0  0  0  0  0  0  0  0  0
   -7.6283   -5.0004    1.2010 S   0  0  0  0  0  0  0  0  0  0  0  0
   -8.4155   -3.8104    1.5373 O   0  0  0  0  0  0  0  0  0  0  0  0
   -6.4331   -4.5997    0.2255 O   0  0  0  0  0  0  0  0  0  0  0  0
   -7.0256   -5.8138    2.2610 O   0  0  0  0  0  0  0  0  0  0  0  0
  -11.1250   -8.6564   -2.2100 C   0  0  0  0  0  0  0  0  0  0  0  0
  -11.8904   -9.1361   -1.5873 H   0  0  0  0  0  0  0  0  0  0  0  0
  -11.6455   -8.1048   -2.9981 H   0  0  0  0  0  0  0  0  0  0  0  0
  -10.5431   -9.4548   -2.6799 H   0  0  0  0  0  0  0  0  0  0  0  0
  1  8  2  0  0  0  0
  2  1  1  0  0  0  0
  2  3  1  0  0  0  0
  3 26  1  0  0  0  0
  4  5  2  0  0  0  0
  4  1  1  0  0  0  0
  5  6  1  0  0  0  0
  6 11  1  0  0  0  0
  6  7  2  0  0  0  0
  7 12  1  0  0  0  0
  8  7  1  0  0  0  0
  8 13  1  0  0  0  0
  9  4  1  0  0  0  0
 10  5  1  0  0  0  0
 14 20  1  0  0  0  0
 14 19  2  0  0  0  0
 15 14  1  0  0  0  0
 16 15  2  0  0  0  0
 16 17  1  0  0  0  0
 17 18  2  0  0  0  0
 18 19  1  0  0  0  0
 18 23  1  0  0  0  0
 19 24  1  0  0  0  0
 21 15  1  0  0  0  0
 22 17  1  0  0  0  0
 24 25  2  0  0  0  0
 24 27  2  0  0  0  0
 26 24  1  0  0  0  0
 28 29  1  0  0  0  0
 28 16  1  0  0  0  0
 30 28  1  0  0  0  0
 31 28  1  0  0  0  0
M  RAD  2   2   2   3   2
M  END
