Coordinates from ORCA-job PhN2+~TsO-_B3LYPG-6-31G_dp-NX-Scan-d89-09-n800
 OpenBabel11261920463D

 31 31  0  0  0  0  0  0  0  0999 V2000
   -4.5555   -2.1011   -1.1527 C   0  0  0  0  0  0  0  0  0  0  0  0
   -5.8071   -2.1902   -1.7804 N   0  0  0  0  0  0  0  0  0  0  0  0
   -6.7455   -2.8051   -2.0259 N   0  0  0  0  0  0  0  0  0  0  0  0
   -3.8394   -0.9143   -1.3629 C   0  0  0  0  0  0  0  0  0  0  0  0
   -2.5960   -0.7722   -0.7587 C   0  0  0  0  0  0  0  0  0  0  0  0
   -2.0942   -1.8003    0.0467 C   0  0  0  0  0  0  0  0  0  0  0  0
   -2.8294   -2.9723    0.2509 C   0  0  0  0  0  0  0  0  0  0  0  0
   -4.0738   -3.1466   -0.3482 C   0  0  0  0  0  0  0  0  0  0  0  0
   -4.2625   -0.1346   -1.9868 H   0  0  0  0  0  0  0  0  0  0  0  0
   -2.0219    0.1358   -0.9103 H   0  0  0  0  0  0  0  0  0  0  0  0
   -1.1246   -1.6856    0.5211 H   0  0  0  0  0  0  0  0  0  0  0  0
   -2.4360   -3.7613    0.8834 H   0  0  0  0  0  0  0  0  0  0  0  0
   -4.6635   -4.0433   -0.2001 H   0  0  0  0  0  0  0  0  0  0  0  0
   -9.7938   -5.6698   -0.8929 C   0  0  0  0  0  0  0  0  0  0  0  0
  -10.7469   -6.6366   -1.2057 C   0  0  0  0  0  0  0  0  0  0  0  0
  -10.4801   -8.0021   -1.0290 C   0  0  0  0  0  0  0  0  0  0  0  0
   -9.2253   -8.3761   -0.5287 C   0  0  0  0  0  0  0  0  0  0  0  0
   -8.2609   -7.4209   -0.2110 C   0  0  0  0  0  0  0  0  0  0  0  0
   -8.5514   -6.0697   -0.3983 C   0  0  0  0  0  0  0  0  0  0  0  0
  -10.0078   -4.6134   -1.0155 H   0  0  0  0  0  0  0  0  0  0  0  0
  -11.7155   -6.3266   -1.5896 H   0  0  0  0  0  0  0  0  0  0  0  0
   -9.0015   -9.4299   -0.3809 H   0  0  0  0  0  0  0  0  0  0  0  0
   -7.2959   -7.7096    0.1903 H   0  0  0  0  0  0  0  0  0  0  0  0
   -7.3091   -4.8326   -0.0242 S   0  0  0  0  0  0  0  0  0  0  0  0
   -8.0072   -3.5883    0.3499 O   0  0  0  0  0  0  0  0  0  0  0  0
   -6.5484   -4.6329   -1.3716 O   0  0  0  0  0  0  0  0  0  0  0  0
   -6.3778   -5.4263    0.9544 O   0  0  0  0  0  0  0  0  0  0  0  0
  -11.5322   -9.0412   -1.3367 C   0  0  0  0  0  0  0  0  0  0  0  0
  -12.1844   -9.2108   -0.4704 H   0  0  0  0  0  0  0  0  0  0  0  0
  -12.1728   -8.7298   -2.1678 H   0  0  0  0  0  0  0  0  0  0  0  0
  -11.0814  -10.0030   -1.5971 H   0  0  0  0  0  0  0  0  0  0  0  0
  1  8  1  0  0  0  0
  2  1  1  0  0  0  0
  3  2  2  0  0  0  0
  4  1  2  0  0  0  0
  4  5  1  0  0  0  0
  5  6  2  0  0  0  0
  6  7  1  0  0  0  0
  6 11  1  0  0  0  0
  7 12  1  0  0  0  0
  8 13  1  0  0  0  0
  8  7  2  0  0  0  0
  9  4  1  0  0  0  0
 10  5  1  0  0  0  0
 14 19  2  0  0  0  0
 15 16  2  0  0  0  0
 15 14  1  0  0  0  0
 16 17  1  0  0  0  0
 17 22  1  0  0  0  0
 17 18  2  0  0  0  0
 18 23  1  0  0  0  0
 19 18  1  0  0  0  0
 19 24  1  0  0  0  0
 20 14  1  0  0  0  0
 21 15  1  0  0  0  0
 24 25  2  0  0  0  0
 24 27  1  0  0  0  0
 26 24  2  0  0  0  0
 28 16  1  0  0  0  0
 28 29  1  0  0  0  0
 30 28  1  0  0  0  0
 31 28  1  0  0  0  0
M  RAD  2   3   2  27   2
M  END
