Coordinates from ORCA-job PhN2+~TsO-_B3LYPG-6-31G_dp-NX-Scan-d89-09-n800
 OpenBabel11261920463D

 31 32  0  0  1  0  0  0  0  0999 V2000
   -5.0344   -0.9335   -0.9774 C   0  0  0  0  0  0  0  0  0  0  0  0
   -5.2668    0.2721   -1.4387 N   0  0  0  0  0  0  0  0  0  0  0  0
   -5.4773    1.3206   -1.8435 N   0  0  0  0  0  0  0  0  0  0  0  0
   -4.4041   -1.9216   -1.8283 C   0  0  0  0  0  0  0  0  0  0  0  0
   -4.2216   -3.1758   -1.3758 C   0  0  0  0  0  0  0  0  0  0  0  0
   -4.7303   -3.6285   -0.0469 C   0  0  1  0  0  0  0  0  0  0  0  0
   -5.2156   -2.5248    0.8362 C   0  0  0  0  0  0  0  0  0  0  0  0
   -5.3995   -1.2708    0.3842 C   0  0  0  0  0  0  0  0  0  0  0  0
   -4.0684   -1.6209   -2.8156 H   0  0  0  0  0  0  0  0  0  0  0  0
   -3.7372   -3.9213   -1.9973 H   0  0  0  0  0  0  0  0  0  0  0  0
   -3.9994   -4.2685    0.4581 H   0  0  0  0  0  0  0  0  0  0  0  0
   -5.4773   -2.7910    1.8543 H   0  0  0  0  0  0  0  0  0  0  0  0
   -5.8009   -0.4907    1.0237 H   0  0  0  0  0  0  0  0  0  0  0  0
   -8.7310   -6.2340    0.3265 C   0  0  0  0  0  0  0  0  0  0  0  0
   -9.8761   -6.7679   -0.2559 C   0  0  0  0  0  0  0  0  0  0  0  0
   -9.7943   -7.6336   -1.3586 C   0  0  0  0  0  0  0  0  0  0  0  0
   -8.5279   -7.9584   -1.8624 C   0  0  0  0  0  0  0  0  0  0  0  0
   -7.3686   -7.4338   -1.2932 C   0  0  0  0  0  0  0  0  0  0  0  0
   -7.4839   -6.5703   -0.2049 C   0  0  0  0  0  0  0  0  0  0  0  0
   -8.7923   -5.5777    1.1876 H   0  0  0  0  0  0  0  0  0  0  0  0
  -10.8501   -6.5136    0.1535 H   0  0  0  0  0  0  0  0  0  0  0  0
   -8.4469   -8.6339   -2.7095 H   0  0  0  0  0  0  0  0  0  0  0  0
   -6.3877   -7.6959   -1.6737 H   0  0  0  0  0  0  0  0  0  0  0  0
   -6.0094   -5.8938    0.5309 S   0  0  0  0  0  0  0  0  0  0  0  0
   -6.2722   -5.5365    1.9282 O   0  0  0  0  0  0  0  0  0  0  0  0
   -5.9144   -4.5244   -0.3586 O   0  0  0  0  0  0  0  0  0  0  0  0
   -4.8620   -6.7473    0.2100 O   0  0  0  0  0  0  0  0  0  0  0  0
  -11.0481   -8.2001   -1.9803 C   0  0  0  0  0  0  0  0  0  0  0  0
  -11.6544   -8.7295   -1.2367 H   0  0  0  0  0  0  0  0  0  0  0  0
  -11.6749   -7.4040   -2.3986 H   0  0  0  0  0  0  0  0  0  0  0  0
  -10.8145   -8.9010   -2.7858 H   0  0  0  0  0  0  0  0  0  0  0  0
  1  8  1  0  0  0  0
  2  1  1  0  0  0  0
  3  2  1  0  0  0  0
  4  5  1  0  0  0  0
  4  1  2  0  0  0  0
  5  6  1  0  0  0  0
  6 11  1  1  0  0  0
  6  7  1  0  0  0  0
  7 12  1  0  0  0  0
  8  7  2  0  0  0  0
  8 13  1  0  0  0  0
  9  4  1  0  0  0  0
 10  5  1  0  0  0  0
 14 20  1  0  0  0  0
 15 21  1  0  0  0  0
 15 14  2  0  0  0  0
 16 15  1  0  0  0  0
 17 16  2  0  0  0  0
 17 18  1  0  0  0  0
 18 19  2  0  0  0  0
 19 14  1  0  0  0  0
 19 24  1  0  0  0  0
 22 17  1  0  0  0  0
 23 18  1  0  0  0  0
 24 25  2  0  0  0  0
 26  6  1  0  0  0  0
 26 24  1  0  0  0  0
 27 24  2  0  0  0  0
 28 16  1  0  0  0  0
 28 29  1  0  0  0  0
 30 28  1  0  0  0  0
 31 28  1  0  0  0  0
M  RAD  3   2   2   3   3   5   2
M  END
