Coordinates from ORCA-job PhN2+~TsO-_B3LYPG-6-31G_dp-NX-Scan-d89-09-n800
 OpenBabel11261920463D

 31 31  0  0  0  0  0  0  0  0999 V2000
   -3.6605   -0.6078    0.1505 C   0  0  0  0  0  0  0  0  0  0  0  0
   -3.3017    0.5356    0.7858 N   0  0  0  0  0  0  0  0  0  0  0  0
   -3.0249    1.4815    1.3271 N   0  0  0  0  0  0  0  0  0  0  0  0
   -2.7240   -1.2171   -0.7223 C   0  0  0  0  0  0  0  0  0  0  0  0
   -3.1220   -2.3760   -1.3616 C   0  0  0  0  0  0  0  0  0  0  0  0
   -4.4085   -2.9049   -1.1514 C   0  0  0  0  0  0  0  0  0  0  0  0
   -5.3177   -2.2867   -0.2699 C   0  0  0  0  0  0  0  0  0  0  0  0
   -4.9581   -1.1308    0.3945 C   0  0  0  0  0  0  0  0  0  0  0  0
   -1.7456   -0.7746   -0.8725 H   0  0  0  0  0  0  0  0  0  0  0  0
   -2.4354   -2.8713   -2.0403 H   0  0  0  0  0  0  0  0  0  0  0  0
   -4.7637   -3.8068   -1.6555 H   0  0  0  0  0  0  0  0  0  0  0  0
   -6.3091   -2.7418   -0.1396 H   0  0  0  0  0  0  0  0  0  0  0  0
   -5.6301   -0.6254    1.0801 H   0  0  0  0  0  0  0  0  0  0  0  0
   -9.7289   -6.1947   -0.4657 C   0  0  0  0  0  0  0  0  0  0  0  0
  -10.4453   -7.3671   -0.2317 C   0  0  0  0  0  0  0  0  0  0  0  0
   -9.9795   -8.6059   -0.6944 C   0  0  0  0  0  0  0  0  0  0  0  0
   -8.7712   -8.6366   -1.4034 C   0  0  0  0  0  0  0  0  0  0  0  0
   -8.0458   -7.4699   -1.6440 C   0  0  0  0  0  0  0  0  0  0  0  0
   -8.5265   -6.2478   -1.1734 C   0  0  0  0  0  0  0  0  0  0  0  0
  -10.0857   -5.2401   -0.0941 H   0  0  0  0  0  0  0  0  0  0  0  0
  -11.3822   -7.3211    0.3190 H   0  0  0  0  0  0  0  0  0  0  0  0
   -8.3924   -9.5875   -1.7714 H   0  0  0  0  0  0  0  0  0  0  0  0
   -7.1038   -7.4958   -2.1805 H   0  0  0  0  0  0  0  0  0  0  0  0
   -7.6383   -4.7252   -1.5425 S   0  0  0  0  0  0  0  0  0  0  0  0
   -7.8427   -3.8648   -0.3300 O   0  0  0  0  0  0  0  0  0  0  0  0
   -8.2244   -4.1580   -2.7775 O   0  0  0  0  0  0  0  0  0  0  0  0
   -6.2058   -5.1476   -1.7024 O   0  0  0  0  0  0  0  0  0  0  0  0
  -10.7427   -9.8776   -0.4065 C   0  0  0  0  0  0  0  0  0  0  0  0
  -10.4387  -10.3156    0.5532 H   0  0  0  0  0  0  0  0  0  0  0  0
  -11.8207   -9.6949   -0.3506 H   0  0  0  0  0  0  0  0  0  0  0  0
  -10.5661  -10.6342   -1.1777 H   0  0  0  0  0  0  0  0  0  0  0  0
  1  8  1  0  0  0  0
  1  2  1  0  0  0  0
  2  3  1  0  0  0  0
  4  1  2  0  0  0  0
  5  6  2  0  0  0  0
  5  4  1  0  0  0  0
  6  7  1  0  0  0  0
  7 12  1  0  0  0  0
  7  8  2  0  0  0  0
  8 13  1  0  0  0  0
  9  4  1  0  0  0  0
 10  5  1  0  0  0  0
 11  6  1  0  0  0  0
 14 15  1  0  0  0  0
 14 20  1  0  0  0  0
 15 21  1  0  0  0  0
 16 28  1  0  0  0  0
 16 15  2  0  0  0  0
 17 16  1  0  0  0  0
 18 17  2  0  0  0  0
 18 19  1  0  0  0  0
 19 14  2  0  0  0  0
 22 17  1  0  0  0  0
 23 18  1  0  0  0  0
 24 19  1  0  0  0  0
 24 25  1  0  0  0  0
 26 24  2  0  0  0  0
 27 24  2  0  0  0  0
 28 30  1  0  0  0  0
 28 29  1  0  0  0  0
 31 28  1  0  0  0  0
M  RAD  3   2   2   3   3  25   2
M  END
