Coordinates from ORCA-job PhN2+~TsO-_B3LYPG-6-31G_dp-NX-Scan-d89-09-n800
 OpenBabel11261920463D

 31 32  0  0  1  0  0  0  0  0999 V2000
   -5.3555   -1.3706   -0.6880 C   0  0  2  0  0  0  0  0  0  0  0  0
   -6.5776   -0.9071   -0.7605 N   0  0  0  0  0  0  0  0  0  0  0  0
   -7.6698   -0.5892   -0.8182 N   0  0  0  0  0  0  0  0  0  0  0  0
   -4.8073   -2.0318   -1.8719 C   0  0  0  0  0  0  0  0  0  0  0  0
   -4.1931   -3.2121   -1.6836 C   0  0  0  0  0  0  0  0  0  0  0  0
   -4.3549   -3.8491   -0.3367 C   0  0  1  0  0  0  0  0  0  0  0  0
   -4.1922   -2.8596    0.7800 C   0  0  0  0  0  0  0  0  0  0  0  0
   -4.8076   -1.6742    0.6341 C   0  0  0  0  0  0  0  0  0  0  0  0
   -4.9032   -1.5576   -2.8443 H   0  0  0  0  0  0  0  0  0  0  0  0
   -3.6943   -3.7472   -2.4842 H   0  0  0  0  0  0  0  0  0  0  0  0
   -3.7628   -4.7535   -0.2046 H   0  0  0  0  0  0  0  0  0  0  0  0
   -3.6961   -3.1529    1.6985 H   0  0  0  0  0  0  0  0  0  0  0  0
   -4.9105   -0.9515    1.4380 H   0  0  0  0  0  0  0  0  0  0  0  0
   -8.8783   -5.5863   -0.1189 C   0  0  0  0  0  0  0  0  0  0  0  0
   -9.8962   -6.2197   -0.8250 C   0  0  0  0  0  0  0  0  0  0  0  0
   -9.6611   -7.4145   -1.5244 C   0  0  0  0  0  0  0  0  0  0  0  0
   -8.3719   -7.9622   -1.4982 C   0  0  0  0  0  0  0  0  0  0  0  0
   -7.3371   -7.3397   -0.8008 C   0  0  0  0  0  0  0  0  0  0  0  0
   -7.6014   -6.1526   -0.1196 C   0  0  0  0  0  0  0  0  0  0  0  0
   -9.0652   -4.6731    0.4350 H   0  0  0  0  0  0  0  0  0  0  0  0
  -10.8920   -5.7836   -0.8300 H   0  0  0  0  0  0  0  0  0  0  0  0
   -8.1754   -8.8915   -2.0255 H   0  0  0  0  0  0  0  0  0  0  0  0
   -6.3421   -7.7702   -0.7696 H   0  0  0  0  0  0  0  0  0  0  0  0
   -6.2887   -5.3512    0.7851 S   0  0  0  0  0  0  0  0  0  0  0  0
   -6.8704   -4.6287    1.9160 O   0  0  0  0  0  0  0  0  0  0  0  0
   -5.8174   -4.2790   -0.3605 O   0  0  0  0  0  0  0  0  0  0  0  0
   -5.1945   -6.3031    1.0076 O   0  0  0  0  0  0  0  0  0  0  0  0
  -10.7818   -8.0935   -2.2741 C   0  0  0  0  0  0  0  0  0  0  0  0
  -11.5728   -8.4204   -1.5894 H   0  0  0  0  0  0  0  0  0  0  0  0
  -11.2443   -7.4127   -2.9975 H   0  0  0  0  0  0  0  0  0  0  0  0
  -10.4261   -8.9723   -2.8176 H   0  0  0  0  0  0  0  0  0  0  0  0
  1  2  1  1  0  0  0
  1  8  1  0  0  0  0
  3  2  1  0  0  0  0
  4  5  2  0  0  0  0
  4  1  1  0  0  0  0
  5  6  1  0  0  0  0
  6 11  1  1  0  0  0
  6  7  1  0  0  0  0
  7 12  1  0  0  0  0
  8  7  2  0  0  0  0
  8 13  1  0  0  0  0
  9  4  1  0  0  0  0
 10  5  1  0  0  0  0
 14 20  1  0  0  0  0
 15 14  2  0  0  0  0
 16 17  2  0  0  0  0
 16 15  1  0  0  0  0
 17 18  1  0  0  0  0
 18 23  1  0  0  0  0
 18 19  2  0  0  0  0
 19 14  1  0  0  0  0
 19 24  1  0  0  0  0
 21 15  1  0  0  0  0
 22 17  1  0  0  0  0
 24 27  2  0  0  0  0
 24 25  2  0  0  0  0
 26  6  1  0  0  0  0
 26 24  1  0  0  0  0
 28 29  1  0  0  0  0
 28 16  1  0  0  0  0
 30 28  1  0  0  0  0
 31 28  1  0  0  0  0
M  RAD  3   1   2   2   2   3   3
M  END
