Coordinates from ORCA-job PhN2+~TsO-_B3LYPG-6-31G_dp-NX-Scan-d89-09-n800
 OpenBabel11261920463D

 31 31  0  0  0  0  0  0  0  0999 V2000
   -3.7465   -0.4446   -0.0983 C   0  0  0  0  0  0  0  0  0  0  0  0
   -3.4989    0.8339    0.2813 N   0  0  0  0  0  0  0  0  0  0  0  0
   -3.3157    1.8937    0.6084 N   0  0  0  0  0  0  0  0  0  0  0  0
   -2.8163   -1.0869   -0.9538 C   0  0  0  0  0  0  0  0  0  0  0  0
   -3.1084   -2.3813   -1.3405 C   0  0  0  0  0  0  0  0  0  0  0  0
   -4.2858   -3.0134   -0.9010 C   0  0  0  0  0  0  0  0  0  0  0  0
   -5.1886   -2.3568   -0.0404 C   0  0  0  0  0  0  0  0  0  0  0  0
   -4.9335   -1.0644    0.3736 C   0  0  0  0  0  0  0  0  0  0  0  0
   -1.9247   -0.5664   -1.2847 H   0  0  0  0  0  0  0  0  0  0  0  0
   -2.4251   -2.9057   -2.0005 H   0  0  0  0  0  0  0  0  0  0  0  0
   -4.5653   -4.0193   -1.2240 H   0  0  0  0  0  0  0  0  0  0  0  0
   -6.1030   -2.8833    0.2611 H   0  0  0  0  0  0  0  0  0  0  0  0
   -5.6097   -0.5231    1.0267 H   0  0  0  0  0  0  0  0  0  0  0  0
   -9.6283   -6.2834   -0.2569 C   0  0  0  0  0  0  0  0  0  0  0  0
  -10.4514   -7.4067   -0.2104 C   0  0  0  0  0  0  0  0  0  0  0  0
  -10.0845   -8.6014   -0.8470 C   0  0  0  0  0  0  0  0  0  0  0  0
   -8.8647   -8.6381   -1.5347 C   0  0  0  0  0  0  0  0  0  0  0  0
   -8.0324   -7.5194   -1.5887 C   0  0  0  0  0  0  0  0  0  0  0  0
   -8.4164   -6.3416   -0.9486 C   0  0  0  0  0  0  0  0  0  0  0  0
   -9.9082   -5.3654    0.2487 H   0  0  0  0  0  0  0  0  0  0  0  0
  -11.3945   -7.3576    0.3294 H   0  0  0  0  0  0  0  0  0  0  0  0
   -8.5605   -9.5559   -2.0332 H   0  0  0  0  0  0  0  0  0  0  0  0
   -7.0816   -7.5520   -2.1090 H   0  0  0  0  0  0  0  0  0  0  0  0
   -7.3882   -4.8697   -1.0741 S   0  0  0  0  0  0  0  0  0  0  0  0
   -7.5558   -4.1742    0.2450 O   0  0  0  0  0  0  0  0  0  0  0  0
   -7.8804   -4.0735   -2.2235 O   0  0  0  0  0  0  0  0  0  0  0  0
   -5.9934   -5.3897   -1.2698 O   0  0  0  0  0  0  0  0  0  0  0  0
  -10.9700   -9.8231   -0.7661 C   0  0  0  0  0  0  0  0  0  0  0  0
  -10.8286  -10.3570    0.1831 H   0  0  0  0  0  0  0  0  0  0  0  0
  -12.0300   -9.5549   -0.8283 H   0  0  0  0  0  0  0  0  0  0  0  0
  -10.7513  -10.5295   -1.5726 H   0  0  0  0  0  0  0  0  0  0  0  0
  1  2  1  0  0  0  0
  1  8  2  0  0  0  0
  2  3  1  0  0  0  0
  4  1  1  0  0  0  0
  5  4  2  0  0  0  0
  5  6  1  0  0  0  0
  6  7  2  0  0  0  0
  7 12  1  0  0  0  0
  7  8  1  0  0  0  0
  8 13  1  0  0  0  0
  9  4  1  0  0  0  0
 10  5  1  0  0  0  0
 11  6  1  0  0  0  0
 14 15  1  0  0  0  0
 14 20  1  0  0  0  0
 15 21  1  0  0  0  0
 16 28  1  0  0  0  0
 16 15  2  0  0  0  0
 17 16  1  0  0  0  0
 18 17  2  0  0  0  0
 18 19  1  0  0  0  0
 19 14  2  0  0  0  0
 22 17  1  0  0  0  0
 23 18  1  0  0  0  0
 24 19  1  0  0  0  0
 24 25  1  0  0  0  0
 26 24  2  0  0  0  0
 27 24  2  0  0  0  0
 28 29  1  0  0  0  0
 30 28  1  0  0  0  0
 31 28  1  0  0  0  0
M  RAD  3   2   2   3   3  25   2
M  END
