Coordinates from ORCA-job PhN2+~TsO-_B3LYPG-6-31G_dp-NX-Scan-d89-09-n800
 OpenBabel11261920463D

 31 31  0  0  0  0  0  0  0  0999 V2000
   -3.6630   -0.5841    0.1217 C   0  0  0  0  0  0  0  0  0  0  0  0
   -3.3148    0.5773    0.7298 N   0  0  0  0  0  0  0  0  0  0  0  0
   -3.0479    1.5384    1.2487 N   0  0  0  0  0  0  0  0  0  0  0  0
   -2.7285   -1.1951   -0.7520 C   0  0  0  0  0  0  0  0  0  0  0  0
   -3.1172   -2.3714   -1.3648 C   0  0  0  0  0  0  0  0  0  0  0  0
   -4.3925   -2.9159   -1.1278 C   0  0  0  0  0  0  0  0  0  0  0  0
   -5.2994   -2.2953   -0.2456 C   0  0  0  0  0  0  0  0  0  0  0  0
   -4.9490   -1.1219    0.3926 C   0  0  0  0  0  0  0  0  0  0  0  0
   -1.7591   -0.7409   -0.9233 H   0  0  0  0  0  0  0  0  0  0  0  0
   -2.4321   -2.8686   -2.0437 H   0  0  0  0  0  0  0  0  0  0  0  0
   -4.7412   -3.8306   -1.6128 H   0  0  0  0  0  0  0  0  0  0  0  0
   -6.2830   -2.7609   -0.0948 H   0  0  0  0  0  0  0  0  0  0  0  0
   -5.6202   -0.6137    1.0769 H   0  0  0  0  0  0  0  0  0  0  0  0
   -9.7262   -6.2056   -0.4471 C   0  0  0  0  0  0  0  0  0  0  0  0
  -10.4549   -7.3748   -0.2369 C   0  0  0  0  0  0  0  0  0  0  0  0
   -9.9956   -8.6109   -0.7137 C   0  0  0  0  0  0  0  0  0  0  0  0
   -8.7814   -8.6418   -1.4122 C   0  0  0  0  0  0  0  0  0  0  0  0
   -8.0436   -7.4780   -1.6291 C   0  0  0  0  0  0  0  0  0  0  0  0
   -8.5178   -6.2589   -1.1446 C   0  0  0  0  0  0  0  0  0  0  0  0
  -10.0780   -5.2535   -0.0643 H   0  0  0  0  0  0  0  0  0  0  0  0
  -11.3963   -7.3287    0.3061 H   0  0  0  0  0  0  0  0  0  0  0  0
   -8.4075   -9.5906   -1.7908 H   0  0  0  0  0  0  0  0  0  0  0  0
   -7.0970   -7.5041   -2.1575 H   0  0  0  0  0  0  0  0  0  0  0  0
   -7.6126   -4.7389   -1.4811 S   0  0  0  0  0  0  0  0  0  0  0  0
   -7.8083   -3.9025   -0.2505 O   0  0  0  0  0  0  0  0  0  0  0  0
   -8.1917   -4.1379   -2.7036 O   0  0  0  0  0  0  0  0  0  0  0  0
   -6.1848   -5.1731   -1.6499 O   0  0  0  0  0  0  0  0  0  0  0  0
  -10.7725   -9.8797   -0.4509 C   0  0  0  0  0  0  0  0  0  0  0  0
  -10.4860  -10.3302    0.5086 H   0  0  0  0  0  0  0  0  0  0  0  0
  -11.8498   -9.6894   -0.4088 H   0  0  0  0  0  0  0  0  0  0  0  0
  -10.5900  -10.6294   -1.2274 H   0  0  0  0  0  0  0  0  0  0  0  0
  1  8  1  0  0  0  0
  1  2  1  0  0  0  0
  2  3  1  0  0  0  0
  4  1  2  0  0  0  0
  5  6  2  0  0  0  0
  5  4  1  0  0  0  0
  6  7  1  0  0  0  0
  7 12  1  0  0  0  0
  7  8  2  0  0  0  0
  8 13  1  0  0  0  0
  9  4  1  0  0  0  0
 10  5  1  0  0  0  0
 11  6  1  0  0  0  0
 14 15  1  0  0  0  0
 14 20  1  0  0  0  0
 15 21  1  0  0  0  0
 16 28  1  0  0  0  0
 16 15  2  0  0  0  0
 17 16  1  0  0  0  0
 18 17  2  0  0  0  0
 18 19  1  0  0  0  0
 19 14  2  0  0  0  0
 22 17  1  0  0  0  0
 23 18  1  0  0  0  0
 24 19  1  0  0  0  0
 24 25  1  0  0  0  0
 26 24  2  0  0  0  0
 27 24  2  0  0  0  0
 28 30  1  0  0  0  0
 28 29  1  0  0  0  0
 31 28  1  0  0  0  0
M  RAD  3   2   2   3   3  25   2
M  END
