Coordinates from ORCA-job PhN2+~TsO-_B3LYPG-6-31G_dp-NX-Scan-d89-09-n800
 OpenBabel11261920463D

 31 32  0  0  1  0  0  0  0  0999 V2000
   -5.3890   -1.3321   -0.9937 C   0  0  2  0  0  0  0  0  0  0  0  0
   -6.2743   -0.5370   -1.5399 N   0  0  0  0  0  0  0  0  0  0  0  0
   -7.0782    0.1153   -2.0186 N   0  0  0  0  0  0  0  0  0  0  0  0
   -4.5435   -2.1473   -1.8458 C   0  0  0  0  0  0  0  0  0  0  0  0
   -3.9862   -3.2539   -1.3218 C   0  0  0  0  0  0  0  0  0  0  0  0
   -4.4288   -3.7230    0.0250 C   0  0  1  0  0  0  0  0  0  0  0  0
   -4.8052   -2.6133    0.9528 C   0  0  0  0  0  0  0  0  0  0  0  0
   -5.3685   -1.5009    0.4482 C   0  0  0  0  0  0  0  0  0  0  0  0
   -4.3685   -1.8345   -2.8705 H   0  0  0  0  0  0  0  0  0  0  0  0
   -3.3148   -3.8796   -1.8993 H   0  0  0  0  0  0  0  0  0  0  0  0
   -3.7310   -4.4364    0.4657 H   0  0  0  0  0  0  0  0  0  0  0  0
   -4.7343   -2.7785    2.0220 H   0  0  0  0  0  0  0  0  0  0  0  0
   -5.7918   -0.7233    1.0764 H   0  0  0  0  0  0  0  0  0  0  0  0
   -8.7005   -6.0018    0.2882 C   0  0  0  0  0  0  0  0  0  0  0  0
   -9.8344   -6.4832   -0.3590 C   0  0  0  0  0  0  0  0  0  0  0  0
   -9.7307   -7.3690   -1.4434 C   0  0  0  0  0  0  0  0  0  0  0  0
   -8.4543   -7.7667   -1.8634 C   0  0  0  0  0  0  0  0  0  0  0  0
   -7.3065   -7.2958   -1.2281 C   0  0  0  0  0  0  0  0  0  0  0  0
   -7.4426   -6.4115   -0.1589 C   0  0  0  0  0  0  0  0  0  0  0  0
   -8.7791   -5.3301    1.1360 H   0  0  0  0  0  0  0  0  0  0  0  0
  -10.8170   -6.1712   -0.0152 H   0  0  0  0  0  0  0  0  0  0  0  0
   -8.3570   -8.4576   -2.6964 H   0  0  0  0  0  0  0  0  0  0  0  0
   -6.3195   -7.6156   -1.5432 H   0  0  0  0  0  0  0  0  0  0  0  0
   -5.9828   -5.8045    0.6640 S   0  0  0  0  0  0  0  0  0  0  0  0
   -6.3311   -5.3681    2.0191 O   0  0  0  0  0  0  0  0  0  0  0  0
   -5.7118   -4.4965   -0.2779 O   0  0  0  0  0  0  0  0  0  0  0  0
   -4.8806   -6.7530    0.4764 O   0  0  0  0  0  0  0  0  0  0  0  0
  -10.9722   -7.8854   -2.1298 C   0  0  0  0  0  0  0  0  0  0  0  0
  -11.6026   -8.4502   -1.4330 H   0  0  0  0  0  0  0  0  0  0  0  0
  -11.5812   -7.0615   -2.5185 H   0  0  0  0  0  0  0  0  0  0  0  0
  -10.7237   -8.5440   -2.9660 H   0  0  0  0  0  0  0  0  0  0  0  0
  1  2  1  6  0  0  0
  1  8  1  0  0  0  0
  3  2  1  0  0  0  0
  4  5  2  0  0  0  0
  4  1  1  0  0  0  0
  5  6  1  0  0  0  0
  6 11  1  1  0  0  0
  6  7  1  0  0  0  0
  7 12  1  0  0  0  0
  8  7  2  0  0  0  0
  8 13  1  0  0  0  0
  9  4  1  0  0  0  0
 10  5  1  0  0  0  0
 14 20  1  0  0  0  0
 15 21  1  0  0  0  0
 15 14  2  0  0  0  0
 16 15  1  0  0  0  0
 17 16  2  0  0  0  0
 17 18  1  0  0  0  0
 18 19  2  0  0  0  0
 19 14  1  0  0  0  0
 19 24  1  0  0  0  0
 22 17  1  0  0  0  0
 23 18  1  0  0  0  0
 24 25  2  0  0  0  0
 26  6  1  0  0  0  0
 26 24  1  0  0  0  0
 27 24  2  0  0  0  0
 28 16  1  0  0  0  0
 28 29  1  0  0  0  0
 30 28  1  0  0  0  0
 31 28  1  0  0  0  0
M  RAD  3   1   2   2   2   3   3
M  END
