Coordinates from ORCA-job PhN2+~TsO-_B3LYPG-6-31G_dp-NX-Scan-d89-09-n800
 OpenBabel11261920463D

 31 32  0  0  1  0  0  0  0  0999 V2000
   -5.3552   -1.3698   -0.6902 C   0  0  2  0  0  0  0  0  0  0  0  0
   -6.5727   -0.8951   -0.7668 N   0  0  0  0  0  0  0  0  0  0  0  0
   -7.6616   -0.5666   -0.8282 N   0  0  0  0  0  0  0  0  0  0  0  0
   -4.8067   -2.0334   -1.8722 C   0  0  0  0  0  0  0  0  0  0  0  0
   -4.1929   -3.2136   -1.6817 C   0  0  0  0  0  0  0  0  0  0  0  0
   -4.3553   -3.8489   -0.3342 C   0  0  1  0  0  0  0  0  0  0  0  0
   -4.1960   -2.8580    0.7816 C   0  0  0  0  0  0  0  0  0  0  0  0
   -4.8109   -1.6728    0.6332 C   0  0  0  0  0  0  0  0  0  0  0  0
   -4.9017   -1.5607   -2.8454 H   0  0  0  0  0  0  0  0  0  0  0  0
   -3.6944   -3.7501   -2.4815 H   0  0  0  0  0  0  0  0  0  0  0  0
   -3.7618   -4.7522   -0.2002 H   0  0  0  0  0  0  0  0  0  0  0  0
   -3.7027   -3.1504    1.7020 H   0  0  0  0  0  0  0  0  0  0  0  0
   -4.9157   -0.9494    1.4362 H   0  0  0  0  0  0  0  0  0  0  0  0
   -8.8782   -5.5907   -0.1143 C   0  0  0  0  0  0  0  0  0  0  0  0
   -9.8968   -6.2232   -0.8203 C   0  0  0  0  0  0  0  0  0  0  0  0
   -9.6616   -7.4155   -1.5240 C   0  0  0  0  0  0  0  0  0  0  0  0
   -8.3717   -7.9618   -1.5019 C   0  0  0  0  0  0  0  0  0  0  0  0
   -7.3363   -7.3401   -0.8046 C   0  0  0  0  0  0  0  0  0  0  0  0
   -7.6007   -6.1554   -0.1194 C   0  0  0  0  0  0  0  0  0  0  0  0
   -9.0651   -4.6796    0.4429 H   0  0  0  0  0  0  0  0  0  0  0  0
  -10.8932   -5.7884   -0.8219 H   0  0  0  0  0  0  0  0  0  0  0  0
   -8.1752   -8.8892   -2.0324 H   0  0  0  0  0  0  0  0  0  0  0  0
   -6.3408   -7.7697   -0.7766 H   0  0  0  0  0  0  0  0  0  0  0  0
   -6.2872   -5.3553    0.7854 S   0  0  0  0  0  0  0  0  0  0  0  0
   -6.8678   -4.6346    1.9179 O   0  0  0  0  0  0  0  0  0  0  0  0
   -5.8171   -4.2815   -0.3592 O   0  0  0  0  0  0  0  0  0  0  0  0
   -5.1927   -6.3074    1.0054 O   0  0  0  0  0  0  0  0  0  0  0  0
  -10.7829   -8.0933   -2.2739 C   0  0  0  0  0  0  0  0  0  0  0  0
  -11.5746   -8.4188   -1.5895 H   0  0  0  0  0  0  0  0  0  0  0  0
  -11.2441   -7.4122   -2.9978 H   0  0  0  0  0  0  0  0  0  0  0  0
  -10.4281   -8.9728   -2.8169 H   0  0  0  0  0  0  0  0  0  0  0  0
  1  2  1  1  0  0  0
  1  8  1  0  0  0  0
  3  2  1  0  0  0  0
  4  5  2  0  0  0  0
  4  1  1  0  0  0  0
  5  6  1  0  0  0  0
  6 11  1  1  0  0  0
  6  7  1  0  0  0  0
  7 12  1  0  0  0  0
  8  7  2  0  0  0  0
  8 13  1  0  0  0  0
  9  4  1  0  0  0  0
 10  5  1  0  0  0  0
 14 20  1  0  0  0  0
 15 14  2  0  0  0  0
 16 17  2  0  0  0  0
 16 15  1  0  0  0  0
 17 18  1  0  0  0  0
 18 23  1  0  0  0  0
 18 19  2  0  0  0  0
 19 14  1  0  0  0  0
 19 24  1  0  0  0  0
 21 15  1  0  0  0  0
 22 17  1  0  0  0  0
 24 27  2  0  0  0  0
 24 25  2  0  0  0  0
 26  6  1  0  0  0  0
 26 24  1  0  0  0  0
 28 29  1  0  0  0  0
 28 16  1  0  0  0  0
 30 28  1  0  0  0  0
 31 28  1  0  0  0  0
M  RAD  3   1   2   2   2   3   3
M  END
