Coordinates from ORCA-job PhN2+~TsO-_B3LYPG-6-31G_dp-NX-Scan-d89-09-n800
 OpenBabel11261920463D

 31 31  0  0  0  0  0  0  0  0999 V2000
   -3.6639   -0.5784    0.1145 C   0  0  0  0  0  0  0  0  0  0  0  0
   -3.3186    0.5875    0.7156 N   0  0  0  0  0  0  0  0  0  0  0  0
   -3.0542    1.5524    1.2287 N   0  0  0  0  0  0  0  0  0  0  0  0
   -2.7299   -1.1899   -0.7594 C   0  0  0  0  0  0  0  0  0  0  0  0
   -3.1161   -2.3705   -1.3653 C   0  0  0  0  0  0  0  0  0  0  0  0
   -4.3885   -2.9188   -1.1216 C   0  0  0  0  0  0  0  0  0  0  0  0
   -5.2949   -2.2975   -0.2394 C   0  0  0  0  0  0  0  0  0  0  0  0
   -4.9470   -1.1198    0.3921 C   0  0  0  0  0  0  0  0  0  0  0  0
   -1.7628   -0.7327   -0.9359 H   0  0  0  0  0  0  0  0  0  0  0  0
   -2.4313   -2.8682   -2.0442 H   0  0  0  0  0  0  0  0  0  0  0  0
   -4.7354   -3.8367   -1.6017 H   0  0  0  0  0  0  0  0  0  0  0  0
   -6.2765   -2.7656   -0.0834 H   0  0  0  0  0  0  0  0  0  0  0  0
   -5.6180   -0.6107    1.0759 H   0  0  0  0  0  0  0  0  0  0  0  0
   -9.7251   -6.2082   -0.4421 C   0  0  0  0  0  0  0  0  0  0  0  0
  -10.4569   -7.3766   -0.2379 C   0  0  0  0  0  0  0  0  0  0  0  0
   -9.9994   -8.6119   -0.7184 C   0  0  0  0  0  0  0  0  0  0  0  0
   -8.7839   -8.6429   -1.4147 C   0  0  0  0  0  0  0  0  0  0  0  0
   -8.0430   -7.4800   -1.6257 C   0  0  0  0  0  0  0  0  0  0  0  0
   -8.5154   -6.2617   -1.1374 C   0  0  0  0  0  0  0  0  0  0  0  0
  -10.0755   -5.2569   -0.0563 H   0  0  0  0  0  0  0  0  0  0  0  0
  -11.3992   -7.3304    0.3035 H   0  0  0  0  0  0  0  0  0  0  0  0
   -8.4115   -9.5911   -1.7961 H   0  0  0  0  0  0  0  0  0  0  0  0
   -7.0955   -7.5062   -2.1523 H   0  0  0  0  0  0  0  0  0  0  0  0
   -7.6061   -4.7425   -1.4660 S   0  0  0  0  0  0  0  0  0  0  0  0
   -7.7996   -3.9120   -0.2310 O   0  0  0  0  0  0  0  0  0  0  0  0
   -8.1834   -4.1332   -2.6853 O   0  0  0  0  0  0  0  0  0  0  0  0
   -6.1795   -5.1796   -1.6370 O   0  0  0  0  0  0  0  0  0  0  0  0
  -10.7798   -9.8798   -0.4619 C   0  0  0  0  0  0  0  0  0  0  0  0
  -10.4980  -10.3333    0.4976 H   0  0  0  0  0  0  0  0  0  0  0  0
  -11.8569   -9.6876   -0.4236 H   0  0  0  0  0  0  0  0  0  0  0  0
  -10.5957  -10.6279   -1.2396 H   0  0  0  0  0  0  0  0  0  0  0  0
  1  8  1  0  0  0  0
  1  2  1  0  0  0  0
  2  3  1  0  0  0  0
  4  1  2  0  0  0  0
  5  6  2  0  0  0  0
  5  4  1  0  0  0  0
  6  7  1  0  0  0  0
  7 12  1  0  0  0  0
  7  8  2  0  0  0  0
  8 13  1  0  0  0  0
  9  4  1  0  0  0  0
 10  5  1  0  0  0  0
 11  6  1  0  0  0  0
 14 15  1  0  0  0  0
 14 20  1  0  0  0  0
 15 21  1  0  0  0  0
 16 28  1  0  0  0  0
 16 15  2  0  0  0  0
 17 16  1  0  0  0  0
 18 17  2  0  0  0  0
 18 19  1  0  0  0  0
 19 14  2  0  0  0  0
 22 17  1  0  0  0  0
 23 18  1  0  0  0  0
 24 19  1  0  0  0  0
 24 25  1  0  0  0  0
 26 24  2  0  0  0  0
 27 24  2  0  0  0  0
 28 30  1  0  0  0  0
 28 29  1  0  0  0  0
 31 28  1  0  0  0  0
M  RAD  3   2   2   3   3  25   2
M  END
