Coordinates from ORCA-job PhN2+~TsO-_B3LYPG-6-31G_dp-NX-Scan-d89-09-n800
 OpenBabel11261920463D

 31 32  0  0  1  0  0  0  0  0999 V2000
   -5.3745   -1.3801   -0.6714 C   0  0  2  0  0  0  0  0  0  0  0  0
   -6.6309   -1.0136   -0.7183 N   0  0  0  0  0  0  0  0  0  0  0  0
   -7.7463   -0.7861   -0.7535 N   0  0  0  0  0  0  0  0  0  0  0  0
   -4.8175   -2.0182   -1.8675 C   0  0  0  0  0  0  0  0  0  0  0  0
   -4.1898   -3.1932   -1.6939 C   0  0  0  0  0  0  0  0  0  0  0  0
   -4.3462   -3.8448   -0.3522 C   0  0  1  0  0  0  0  0  0  0  0  0
   -4.1733   -2.8638    0.7718 C   0  0  0  0  0  0  0  0  0  0  0  0
   -4.8016   -1.6838    0.6433 C   0  0  0  0  0  0  0  0  0  0  0  0
   -4.9205   -1.5330   -2.8337 H   0  0  0  0  0  0  0  0  0  0  0  0
   -3.6814   -3.7128   -2.4986 H   0  0  0  0  0  0  0  0  0  0  0  0
   -3.7553   -4.7516   -0.2316 H   0  0  0  0  0  0  0  0  0  0  0  0
   -3.6567   -3.1594    1.6784 H   0  0  0  0  0  0  0  0  0  0  0  0
   -4.9005   -0.9671    1.4530 H   0  0  0  0  0  0  0  0  0  0  0  0
   -8.8614   -5.5462   -0.1646 C   0  0  0  0  0  0  0  0  0  0  0  0
   -9.8798   -6.1805   -0.8691 C   0  0  0  0  0  0  0  0  0  0  0  0
   -9.6576   -7.4012   -1.5268 C   0  0  0  0  0  0  0  0  0  0  0  0
   -8.3805   -7.9733   -1.4616 C   0  0  0  0  0  0  0  0  0  0  0  0
   -7.3450   -7.3501   -0.7657 C   0  0  0  0  0  0  0  0  0  0  0  0
   -7.5967   -6.1380   -0.1253 C   0  0  0  0  0  0  0  0  0  0  0  0
   -9.0392   -4.6116    0.3556 H   0  0  0  0  0  0  0  0  0  0  0  0
  -10.8657   -5.7242   -0.9061 H   0  0  0  0  0  0  0  0  0  0  0  0
   -8.1937   -8.9216   -1.9574 H   0  0  0  0  0  0  0  0  0  0  0  0
   -6.3590   -7.7980   -0.7054 H   0  0  0  0  0  0  0  0  0  0  0  0
   -6.2834   -5.3360    0.7780 S   0  0  0  0  0  0  0  0  0  0  0  0
   -6.8646   -4.6058    1.9039 O   0  0  0  0  0  0  0  0  0  0  0  0
   -5.8093   -4.2695   -0.3725 O   0  0  0  0  0  0  0  0  0  0  0  0
   -5.1915   -6.2891    1.0060 O   0  0  0  0  0  0  0  0  0  0  0  0
  -10.7801   -8.0825   -2.2718 C   0  0  0  0  0  0  0  0  0  0  0  0
  -11.5666   -8.4118   -1.5829 H   0  0  0  0  0  0  0  0  0  0  0  0
  -11.2481   -7.4028   -2.9924 H   0  0  0  0  0  0  0  0  0  0  0  0
  -10.4250   -8.9608   -2.8165 H   0  0  0  0  0  0  0  0  0  0  0  0
  1  2  1  1  0  0  0
  1  8  1  0  0  0  0
  3  2  1  0  0  0  0
  4  5  2  0  0  0  0
  4  1  1  0  0  0  0
  5  6  1  0  0  0  0
  6 11  1  1  0  0  0
  6  7  1  0  0  0  0
  7 12  1  0  0  0  0
  8  7  2  0  0  0  0
  8 13  1  0  0  0  0
  9  4  1  0  0  0  0
 10  5  1  0  0  0  0
 14 19  1  0  0  0  0
 14 20  1  0  0  0  0
 15 14  2  0  0  0  0
 16 17  2  0  0  0  0
 16 15  1  0  0  0  0
 17 18  1  0  0  0  0
 18 23  1  0  0  0  0
 18 19  2  0  0  0  0
 19 24  1  0  0  0  0
 21 15  1  0  0  0  0
 22 17  1  0  0  0  0
 24 27  2  0  0  0  0
 24 25  2  0  0  0  0
 26  6  1  0  0  0  0
 26 24  1  0  0  0  0
 28 29  1  0  0  0  0
 28 16  1  0  0  0  0
 30 28  1  0  0  0  0
 31 28  1  0  0  0  0
M  RAD  3   1   2   2   2   3   3
M  END
