Coordinates from ORCA-job PhN2+~TsO-_B3LYPG-6-31G_dp-NX-Scan-d89-09-n800
 OpenBabel11261920463D

 31 32  0  0  1  0  0  0  0  0999 V2000
   -5.3995   -1.3471   -0.9871 C   0  0  2  0  0  0  0  0  0  0  0  0
   -6.3115   -0.5751   -1.5221 N   0  0  0  0  0  0  0  0  0  0  0  0
   -7.1391    0.0546   -1.9905 N   0  0  0  0  0  0  0  0  0  0  0  0
   -4.5561   -2.1538   -1.8499 C   0  0  0  0  0  0  0  0  0  0  0  0
   -3.9852   -3.2564   -1.3324 C   0  0  0  0  0  0  0  0  0  0  0  0
   -4.4163   -3.7289    0.0170 C   0  0  1  0  0  0  0  0  0  0  0  0
   -4.7766   -2.6195    0.9520 C   0  0  0  0  0  0  0  0  0  0  0  0
   -5.3537   -1.5108    0.4552 C   0  0  0  0  0  0  0  0  0  0  0  0
   -4.3945   -1.8382   -2.8760 H   0  0  0  0  0  0  0  0  0  0  0  0
   -3.3131   -3.8762   -1.9156 H   0  0  0  0  0  0  0  0  0  0  0  0
   -3.7193   -4.4488    0.4480 H   0  0  0  0  0  0  0  0  0  0  0  0
   -4.6837   -2.7819    2.0199 H   0  0  0  0  0  0  0  0  0  0  0  0
   -5.7700   -0.7334    1.0883 H   0  0  0  0  0  0  0  0  0  0  0  0
   -8.7059   -5.9845    0.2808 C   0  0  0  0  0  0  0  0  0  0  0  0
   -9.8363   -6.4679   -0.3712 C   0  0  0  0  0  0  0  0  0  0  0  0
   -9.7269   -7.3614   -1.4487 C   0  0  0  0  0  0  0  0  0  0  0  0
   -8.4484   -7.7645   -1.8569 C   0  0  0  0  0  0  0  0  0  0  0  0
   -7.3041   -7.2917   -1.2168 C   0  0  0  0  0  0  0  0  0  0  0  0
   -7.4459   -6.3998   -0.1546 C   0  0  0  0  0  0  0  0  0  0  0  0
   -8.7891   -5.3067    1.1234 H   0  0  0  0  0  0  0  0  0  0  0  0
  -10.8207   -6.1514   -0.0366 H   0  0  0  0  0  0  0  0  0  0  0  0
   -8.3468   -8.4614   -2.6845 H   0  0  0  0  0  0  0  0  0  0  0  0
   -6.3156   -7.6157   -1.5229 H   0  0  0  0  0  0  0  0  0  0  0  0
   -5.9906   -5.7901    0.6745 S   0  0  0  0  0  0  0  0  0  0  0  0
   -6.3489   -5.3407    2.0227 O   0  0  0  0  0  0  0  0  0  0  0  0
   -5.7074   -4.4922   -0.2778 O   0  0  0  0  0  0  0  0  0  0  0  0
   -4.8899   -6.7438    0.5045 O   0  0  0  0  0  0  0  0  0  0  0  0
  -10.9647   -7.8803   -2.1399 C   0  0  0  0  0  0  0  0  0  0  0  0
  -11.5972   -8.4453   -1.4452 H   0  0  0  0  0  0  0  0  0  0  0  0
  -11.5731   -7.0578   -2.5322 H   0  0  0  0  0  0  0  0  0  0  0  0
  -10.7115   -8.5396   -2.9742 H   0  0  0  0  0  0  0  0  0  0  0  0
  1  2  1  6  0  0  0
  1  8  1  0  0  0  0
  3  2  1  0  0  0  0
  4  5  2  0  0  0  0
  4  1  1  0  0  0  0
  5  6  1  0  0  0  0
  6 11  1  1  0  0  0
  6  7  1  0  0  0  0
  7 12  1  0  0  0  0
  8  7  2  0  0  0  0
  8 13  1  0  0  0  0
  9  4  1  0  0  0  0
 10  5  1  0  0  0  0
 14 20  1  0  0  0  0
 15 21  1  0  0  0  0
 15 14  2  0  0  0  0
 16 15  1  0  0  0  0
 17 16  2  0  0  0  0
 17 18  1  0  0  0  0
 18 19  2  0  0  0  0
 19 14  1  0  0  0  0
 19 24  1  0  0  0  0
 22 17  1  0  0  0  0
 23 18  1  0  0  0  0
 24 25  2  0  0  0  0
 26  6  1  0  0  0  0
 26 24  1  0  0  0  0
 27 24  2  0  0  0  0
 28 16  1  0  0  0  0
 28 29  1  0  0  0  0
 30 28  1  0  0  0  0
 31 28  1  0  0  0  0
M  RAD  3   1   2   2   2   3   3
M  END
