Coordinates from ORCA-job PhN2+~TsO-_B3LYPG-6-31G_dp-NX-Scan-d89-09-n800
 OpenBabel11261920463D

 31 32  0  0  0  0  0  0  0  0999 V2000
   -5.0462   -2.5835   -0.8673 C   0  0  0  0  0  0  0  0  0  0  0  0
   -6.4738   -2.6145   -0.9213 N   0  0  0  0  0  0  0  0  0  0  0  0
   -7.1660   -3.3480   -0.1303 N   0  0  0  0  0  0  0  0  0  0  0  0
   -4.5075   -1.7856   -1.8969 C   0  0  0  0  0  0  0  0  0  0  0  0
   -3.1366   -1.6023   -2.0312 C   0  0  0  0  0  0  0  0  0  0  0  0
   -2.2598   -2.2105   -1.1285 C   0  0  0  0  0  0  0  0  0  0  0  0
   -2.7759   -2.9978   -0.0998 C   0  0  0  0  0  0  0  0  0  0  0  0
   -4.1523   -3.1926    0.0399 C   0  0  0  0  0  0  0  0  0  0  0  0
   -5.2066   -1.3170   -2.5819 H   0  0  0  0  0  0  0  0  0  0  0  0
   -2.7503   -0.9836   -2.8366 H   0  0  0  0  0  0  0  0  0  0  0  0
   -1.1868   -2.0687   -1.2243 H   0  0  0  0  0  0  0  0  0  0  0  0
   -2.1034   -3.4721    0.6098 H   0  0  0  0  0  0  0  0  0  0  0  0
   -4.5091   -3.8071    0.8533 H   0  0  0  0  0  0  0  0  0  0  0  0
   -9.7765   -5.4251   -0.2637 C   0  0  0  0  0  0  0  0  0  0  0  0
  -10.3531   -6.2090   -1.2586 C   0  0  0  0  0  0  0  0  0  0  0  0
   -9.8834   -7.5032   -1.5302 C   0  0  0  0  0  0  0  0  0  0  0  0
   -8.8060   -8.0023   -0.7806 C   0  0  0  0  0  0  0  0  0  0  0  0
   -8.2067   -7.2386    0.2154 C   0  0  0  0  0  0  0  0  0  0  0  0
   -8.7117   -5.9594    0.4687 C   0  0  0  0  0  0  0  0  0  0  0  0
  -10.1398   -4.4274   -0.0506 H   0  0  0  0  0  0  0  0  0  0  0  0
  -11.1813   -5.8076   -1.8355 H   0  0  0  0  0  0  0  0  0  0  0  0
   -8.4313   -9.0012   -0.9823 H   0  0  0  0  0  0  0  0  0  0  0  0
   -7.3739   -7.6220    0.7945 H   0  0  0  0  0  0  0  0  0  0  0  0
   -7.9313   -4.9602    1.6990 S   0  0  0  0  0  0  0  0  0  0  0  0
   -8.8461   -3.9427    2.1973 O   0  0  0  0  0  0  0  0  0  0  0  0
   -6.6916   -4.0067    0.6272 O   0  0  0  0  0  0  0  0  0  0  0  0
   -7.0315   -5.7387    2.5378 O   0  0  0  0  0  0  0  0  0  0  0  0
  -10.5413   -8.3516   -2.5892 C   0  0  0  0  0  0  0  0  0  0  0  0
  -11.3788   -8.9188   -2.1643 H   0  0  0  0  0  0  0  0  0  0  0  0
  -10.9423   -7.7385   -3.4008 H   0  0  0  0  0  0  0  0  0  0  0  0
   -9.8412   -9.0744   -3.0176 H   0  0  0  0  0  0  0  0  0  0  0  0
  1  8  2  0  0  0  0
  2  1  1  0  0  0  0
  2  3  2  0  0  0  0
  3 26  1  0  0  0  0
  4  1  1  0  0  0  0
  5  4  2  0  0  0  0
  5  6  1  0  0  0  0
  6  7  2  0  0  0  0
  7  8  1  0  0  0  0
  7 12  1  0  0  0  0
  8 13  1  0  0  0  0
  9  4  1  0  0  0  0
 10  5  1  0  0  0  0
 11  6  1  0  0  0  0
 14 20  1  0  0  0  0
 14 19  2  0  0  0  0
 15 14  1  0  0  0  0
 16 15  2  0  0  0  0
 16 17  1  0  0  0  0
 17 18  2  0  0  0  0
 18 19  1  0  0  0  0
 18 23  1  0  0  0  0
 19 24  1  0  0  0  0
 21 15  1  0  0  0  0
 22 17  1  0  0  0  0
 24 25  2  0  0  0  0
 24 27  2  0  0  0  0
 26 24  1  0  0  0  0
 28 29  1  0  0  0  0
 28 16  1  0  0  0  0
 30 28  1  0  0  0  0
 31 28  1  0  0  0  0
M  END
