Coordinates from ORCA-job PhN2+~TsO-_B3LYPG-6-31G_dp-NX-Scan-d89-09-n800
 OpenBabel11261920463D

 31 32  0  0  0  0  0  0  0  0999 V2000
   -4.9589   -2.5526   -0.9104 C   0  0  0  0  0  0  0  0  0  0  0  0
   -6.3681   -2.6444   -1.0168 N   0  0  0  0  0  0  0  0  0  0  0  0
   -7.1957   -3.2958   -0.4084 N   0  0  0  0  0  0  0  0  0  0  0  0
   -4.4096   -1.6802   -1.8678 C   0  0  0  0  0  0  0  0  0  0  0  0
   -3.0388   -1.4523   -1.9146 C   0  0  0  0  0  0  0  0  0  0  0  0
   -2.2006   -2.0918   -0.9987 C   0  0  0  0  0  0  0  0  0  0  0  0
   -2.7403   -2.9568   -0.0432 C   0  0  0  0  0  0  0  0  0  0  0  0
   -4.1115   -3.1989    0.0135 C   0  0  0  0  0  0  0  0  0  0  0  0
   -5.0867   -1.1936   -2.5614 H   0  0  0  0  0  0  0  0  0  0  0  0
   -2.6260   -0.7773   -2.6581 H   0  0  0  0  0  0  0  0  0  0  0  0
   -1.1290   -1.9150   -1.0263 H   0  0  0  0  0  0  0  0  0  0  0  0
   -2.0880   -3.4519    0.6697 H   0  0  0  0  0  0  0  0  0  0  0  0
   -4.5159   -3.8669    0.7580 H   0  0  0  0  0  0  0  0  0  0  0  0
   -9.7836   -5.4512   -0.3158 C   0  0  0  0  0  0  0  0  0  0  0  0
  -10.4331   -6.2690   -1.2371 C   0  0  0  0  0  0  0  0  0  0  0  0
   -9.9843   -7.5727   -1.4953 C   0  0  0  0  0  0  0  0  0  0  0  0
   -8.8578   -8.0434   -0.8047 C   0  0  0  0  0  0  0  0  0  0  0  0
   -8.1933   -7.2423    0.1206 C   0  0  0  0  0  0  0  0  0  0  0  0
   -8.6646   -5.9491    0.3540 C   0  0  0  0  0  0  0  0  0  0  0  0
  -10.1336   -4.4467   -0.1100 H   0  0  0  0  0  0  0  0  0  0  0  0
  -11.3053   -5.8895   -1.7622 H   0  0  0  0  0  0  0  0  0  0  0  0
   -8.4988   -9.0514   -0.9918 H   0  0  0  0  0  0  0  0  0  0  0  0
   -7.3302   -7.6108    0.6641 H   0  0  0  0  0  0  0  0  0  0  0  0
   -7.8205   -4.9198    1.5384 S   0  0  0  0  0  0  0  0  0  0  0  0
   -8.7318   -3.8862    2.0113 O   0  0  0  0  0  0  0  0  0  0  0  0
   -6.6175   -4.1943    0.6312 O   0  0  0  0  0  0  0  0  0  0  0  0
   -7.0532   -5.7585    2.4511 O   0  0  0  0  0  0  0  0  0  0  0  0
  -10.7176   -8.4602   -2.4713 C   0  0  0  0  0  0  0  0  0  0  0  0
  -11.5259   -9.0067   -1.9699 H   0  0  0  0  0  0  0  0  0  0  0  0
  -11.1713   -7.8783   -3.2786 H   0  0  0  0  0  0  0  0  0  0  0  0
  -10.0505   -9.2029   -2.9182 H   0  0  0  0  0  0  0  0  0  0  0  0
  1  8  2  0  0  0  0
  2  1  1  0  0  0  0
  2  3  1  0  0  0  0
  3 26  1  0  0  0  0
  4  1  1  0  0  0  0
  5  4  2  0  0  0  0
  5  6  1  0  0  0  0
  6  7  2  0  0  0  0
  7  8  1  0  0  0  0
  7 12  1  0  0  0  0
  8 13  1  0  0  0  0
  9  4  1  0  0  0  0
 10  5  1  0  0  0  0
 11  6  1  0  0  0  0
 14 20  1  0  0  0  0
 14 19  2  0  0  0  0
 15 14  1  0  0  0  0
 16 15  2  0  0  0  0
 16 17  1  0  0  0  0
 17 18  2  0  0  0  0
 18 19  1  0  0  0  0
 18 23  1  0  0  0  0
 19 24  1  0  0  0  0
 21 15  1  0  0  0  0
 22 17  1  0  0  0  0
 24 25  2  0  0  0  0
 24 27  2  0  0  0  0
 26 24  1  0  0  0  0
 28 29  1  0  0  0  0
 28 16  1  0  0  0  0
 30 28  1  0  0  0  0
 31 28  1  0  0  0  0
M  RAD  2   2   2   3   2
M  END
