Coordinates from ORCA-job PhN2+~TsO-_B3LYPG-6-31G_dp-NX-Scan-d89-09-n800
 OpenBabel11261920463D

 31 31  0  0  0  0  0  0  0  0999 V2000
   -3.6669   -0.5642    0.0964 C   0  0  0  0  0  0  0  0  0  0  0  0
   -3.3288    0.6127    0.6797 N   0  0  0  0  0  0  0  0  0  0  0  0
   -3.0709    1.5871    1.1779 N   0  0  0  0  0  0  0  0  0  0  0  0
   -2.7340   -1.1773   -0.7776 C   0  0  0  0  0  0  0  0  0  0  0  0
   -3.1136   -2.3687   -1.3663 C   0  0  0  0  0  0  0  0  0  0  0  0
   -4.3786   -2.9262   -1.1056 C   0  0  0  0  0  0  0  0  0  0  0  0
   -5.2839   -2.3030   -0.2235 C   0  0  0  0  0  0  0  0  0  0  0  0
   -4.9423   -1.1145    0.3909 C   0  0  0  0  0  0  0  0  0  0  0  0
   -1.7728   -0.7131   -0.9675 H   0  0  0  0  0  0  0  0  0  0  0  0
   -2.4296   -2.8678   -2.0449 H   0  0  0  0  0  0  0  0  0  0  0  0
   -4.7210   -3.8522   -1.5733 H   0  0  0  0  0  0  0  0  0  0  0  0
   -6.2602   -2.7774   -0.0548 H   0  0  0  0  0  0  0  0  0  0  0  0
   -5.6130   -0.6033    1.0734 H   0  0  0  0  0  0  0  0  0  0  0  0
   -9.7216   -6.2149   -0.4291 C   0  0  0  0  0  0  0  0  0  0  0  0
  -10.4611   -7.3807   -0.2395 C   0  0  0  0  0  0  0  0  0  0  0  0
  -10.0088   -8.6140   -0.7303 C   0  0  0  0  0  0  0  0  0  0  0  0
   -8.7904   -8.6454   -1.4214 C   0  0  0  0  0  0  0  0  0  0  0  0
   -8.0417   -7.4848   -1.6177 C   0  0  0  0  0  0  0  0  0  0  0  0
   -8.5091   -6.2687   -1.1196 C   0  0  0  0  0  0  0  0  0  0  0  0
  -10.0682   -5.2653   -0.0353 H   0  0  0  0  0  0  0  0  0  0  0  0
  -11.4055   -7.3343    0.2983 H   0  0  0  0  0  0  0  0  0  0  0  0
   -8.4218   -9.5920   -1.8105 H   0  0  0  0  0  0  0  0  0  0  0  0
   -7.0921   -7.5113   -2.1405 H   0  0  0  0  0  0  0  0  0  0  0  0
   -7.5895   -4.7516   -1.4286 S   0  0  0  0  0  0  0  0  0  0  0  0
   -7.7777   -3.9357   -0.1831 O   0  0  0  0  0  0  0  0  0  0  0  0
   -8.1625   -4.1222   -2.6398 O   0  0  0  0  0  0  0  0  0  0  0  0
   -6.1658   -5.1958   -1.6053 O   0  0  0  0  0  0  0  0  0  0  0  0
  -10.7980   -9.8796   -0.4897 C   0  0  0  0  0  0  0  0  0  0  0  0
  -10.5286  -10.3404    0.4700 H   0  0  0  0  0  0  0  0  0  0  0  0
  -11.8745   -9.6823   -0.4613 H   0  0  0  0  0  0  0  0  0  0  0  0
  -10.6094  -10.6238   -1.2700 H   0  0  0  0  0  0  0  0  0  0  0  0
  1  8  1  0  0  0  0
  1  2  1  0  0  0  0
  2  3  1  0  0  0  0
  4  1  2  0  0  0  0
  5  6  2  0  0  0  0
  5  4  1  0  0  0  0
  6  7  1  0  0  0  0
  7 12  1  0  0  0  0
  7  8  2  0  0  0  0
  8 13  1  0  0  0  0
  9  4  1  0  0  0  0
 10  5  1  0  0  0  0
 11  6  1  0  0  0  0
 14 15  1  0  0  0  0
 14 20  1  0  0  0  0
 15 21  1  0  0  0  0
 16 28  1  0  0  0  0
 16 15  2  0  0  0  0
 17 16  1  0  0  0  0
 18 17  2  0  0  0  0
 18 19  1  0  0  0  0
 19 14  2  0  0  0  0
 22 17  1  0  0  0  0
 23 18  1  0  0  0  0
 24 19  1  0  0  0  0
 24 25  1  0  0  0  0
 26 24  2  0  0  0  0
 27 24  2  0  0  0  0
 28 30  1  0  0  0  0
 28 29  1  0  0  0  0
 31 28  1  0  0  0  0
M  RAD  3   2   2   3   3  25   2
M  END
