Coordinates from ORCA-job PhN2+~TsO-_B3LYPG-6-31G_dp-NX-Scan-d89-09-n800
 OpenBabel11261920463D

 31 32  0  0  1  0  0  0  0  0999 V2000
   -5.3511   -1.3504   -0.7269 C   0  0  2  0  0  0  0  0  0  0  0  0
   -6.4890   -0.7199   -0.8678 N   0  0  0  0  0  0  0  0  0  0  0  0
   -7.5163   -0.2414   -0.9863 N   0  0  0  0  0  0  0  0  0  0  0  0
   -4.7977   -2.0544   -1.8770 C   0  0  0  0  0  0  0  0  0  0  0  0
   -4.1955   -3.2346   -1.6488 C   0  0  0  0  0  0  0  0  0  0  0  0
   -4.3679   -3.8409   -0.2911 C   0  0  1  0  0  0  0  0  0  0  0  0
   -4.2608   -2.8277    0.8083 C   0  0  0  0  0  0  0  0  0  0  0  0
   -4.8646   -1.6422    0.6164 C   0  0  0  0  0  0  0  0  0  0  0  0
   -4.8748   -1.6080   -2.8640 H   0  0  0  0  0  0  0  0  0  0  0  0
   -3.7021   -3.7961   -2.4342 H   0  0  0  0  0  0  0  0  0  0  0  0
   -3.7529   -4.7251   -0.1276 H   0  0  0  0  0  0  0  0  0  0  0  0
   -3.8160   -3.1047    1.7575 H   0  0  0  0  0  0  0  0  0  0  0  0
   -4.9957   -0.9069    1.4043 H   0  0  0  0  0  0  0  0  0  0  0  0
   -8.8725   -5.6599   -0.0476 C   0  0  0  0  0  0  0  0  0  0  0  0
   -9.9020   -6.2756   -0.7526 C   0  0  0  0  0  0  0  0  0  0  0  0
   -9.6697   -7.4300   -1.5177 C   0  0  0  0  0  0  0  0  0  0  0  0
   -8.3718   -7.9563   -1.5575 C   0  0  0  0  0  0  0  0  0  0  0  0
   -7.3259   -7.3511   -0.8617 C   0  0  0  0  0  0  0  0  0  0  0  0
   -7.5875   -6.2032   -0.1153 C   0  0  0  0  0  0  0  0  0  0  0  0
   -9.0558   -4.7791    0.5578 H   0  0  0  0  0  0  0  0  0  0  0  0
  -10.9046   -5.8583   -0.7046 H   0  0  0  0  0  0  0  0  0  0  0  0
   -8.1777   -8.8555   -2.1354 H   0  0  0  0  0  0  0  0  0  0  0  0
   -6.3240   -7.7661   -0.8809 H   0  0  0  0  0  0  0  0  0  0  0  0
   -6.2601   -5.4247    0.7882 S   0  0  0  0  0  0  0  0  0  0  0  0
   -6.8209   -4.7422    1.9544 O   0  0  0  0  0  0  0  0  0  0  0  0
   -5.8166   -4.3177   -0.3335 O   0  0  0  0  0  0  0  0  0  0  0  0
   -5.1580   -6.3782    0.9598 O   0  0  0  0  0  0  0  0  0  0  0  0
  -10.8012   -8.0883   -2.2697 C   0  0  0  0  0  0  0  0  0  0  0  0
  -11.5933   -8.4136   -1.5858 H   0  0  0  0  0  0  0  0  0  0  0  0
  -11.2587   -7.3942   -2.9839 H   0  0  0  0  0  0  0  0  0  0  0  0
  -10.4573   -8.9643   -2.8253 H   0  0  0  0  0  0  0  0  0  0  0  0
  1  2  1  1  0  0  0
  1  8  1  0  0  0  0
  3  2  1  0  0  0  0
  4  5  2  0  0  0  0
  4  1  1  0  0  0  0
  5  6  1  0  0  0  0
  6 11  1  1  0  0  0
  6  7  1  0  0  0  0
  7 12  1  0  0  0  0
  8  7  2  0  0  0  0
  8 13  1  0  0  0  0
  9  4  1  0  0  0  0
 10  5  1  0  0  0  0
 14 20  1  0  0  0  0
 15 21  1  0  0  0  0
 15 14  2  0  0  0  0
 16 15  1  0  0  0  0
 17 16  2  0  0  0  0
 17 18  1  0  0  0  0
 18 19  2  0  0  0  0
 19 14  1  0  0  0  0
 19 24  1  0  0  0  0
 22 17  1  0  0  0  0
 23 18  1  0  0  0  0
 24 27  2  0  0  0  0
 24 25  2  0  0  0  0
 26  6  1  0  0  0  0
 26 24  1  0  0  0  0
 28 29  1  0  0  0  0
 28 16  1  0  0  0  0
 30 28  1  0  0  0  0
 31 28  1  0  0  0  0
M  RAD  3   1   2   2   2   3   3
M  END
