Coordinates from ORCA-job PhN2+~TsO-_B3LYPG-6-31G_dp-NX-Scan-d89-09-n800
 OpenBabel11261920463D

 31 32  0  0  1  0  0  0  0  0999 V2000
   -5.4880   -1.4120   -0.6367 C   0  0  2  0  0  0  0  0  0  0  0  0
   -6.7978   -1.4873   -0.6230 N   0  0  0  0  0  0  0  0  0  0  0  0
   -7.9222   -1.6642   -0.6037 N   0  0  0  0  0  0  0  0  0  0  0  0
   -4.8556   -1.9678   -1.8551 C   0  0  0  0  0  0  0  0  0  0  0  0
   -4.1732   -3.1121   -1.7029 C   0  0  0  0  0  0  0  0  0  0  0  0
   -4.3212   -3.7993   -0.3728 C   0  0  1  0  0  0  0  0  0  0  0  0
   -4.1548   -2.8267    0.7661 C   0  0  0  0  0  0  0  0  0  0  0  0
   -4.8369   -1.6767    0.6668 C   0  0  0  0  0  0  0  0  0  0  0  0
   -4.9621   -1.4544   -2.8064 H   0  0  0  0  0  0  0  0  0  0  0  0
   -3.6075   -3.5793   -2.5023 H   0  0  0  0  0  0  0  0  0  0  0  0
   -3.7126   -4.6968   -0.2706 H   0  0  0  0  0  0  0  0  0  0  0  0
   -3.5799   -3.1046    1.6434 H   0  0  0  0  0  0  0  0  0  0  0  0
   -4.9380   -0.9649    1.4808 H   0  0  0  0  0  0  0  0  0  0  0  0
   -8.7671   -5.4207   -0.3182 C   0  0  0  0  0  0  0  0  0  0  0  0
   -9.8014   -6.0416   -1.0112 C   0  0  0  0  0  0  0  0  0  0  0  0
   -9.6544   -7.3377   -1.5315 C   0  0  0  0  0  0  0  0  0  0  0  0
   -8.4336   -7.9985   -1.3453 C   0  0  0  0  0  0  0  0  0  0  0  0
   -7.3812   -7.3910   -0.6601 C   0  0  0  0  0  0  0  0  0  0  0  0
   -7.5604   -6.1053   -0.1535 C   0  0  0  0  0  0  0  0  0  0  0  0
   -8.8881   -4.4208    0.0836 H   0  0  0  0  0  0  0  0  0  0  0  0
  -10.7411   -5.5127   -1.1493 H   0  0  0  0  0  0  0  0  0  0  0  0
   -8.3026   -9.0022   -1.7396 H   0  0  0  0  0  0  0  0  0  0  0  0
   -6.4364   -7.9023   -0.5110 H   0  0  0  0  0  0  0  0  0  0  0  0
   -6.2280   -5.3319    0.7449 S   0  0  0  0  0  0  0  0  0  0  0  0
   -6.7775   -4.6165    1.8954 O   0  0  0  0  0  0  0  0  0  0  0  0
   -5.7730   -4.2428   -0.3978 O   0  0  0  0  0  0  0  0  0  0  0  0
   -5.1360   -6.2929    0.9324 O   0  0  0  0  0  0  0  0  0  0  0  0
  -10.7986   -8.0062   -2.2545 C   0  0  0  0  0  0  0  0  0  0  0  0
  -11.5652   -8.3435   -1.5464 H   0  0  0  0  0  0  0  0  0  0  0  0
  -11.2857   -7.3176   -2.9525 H   0  0  0  0  0  0  0  0  0  0  0  0
  -10.4618   -8.8804   -2.8176 H   0  0  0  0  0  0  0  0  0  0  0  0
  1  2  1  1  0  0  0
  1  8  1  0  0  0  0
  2  3  1  0  0  0  0
  4  5  2  0  0  0  0
  4  1  1  0  0  0  0
  5  6  1  0  0  0  0
  6 11  1  1  0  0  0
  6  7  1  0  0  0  0
  7 12  1  0  0  0  0
  8  7  2  0  0  0  0
  8 13  1  0  0  0  0
  9  4  1  0  0  0  0
 10  5  1  0  0  0  0
 14 19  1  0  0  0  0
 14 20  1  0  0  0  0
 15 14  2  0  0  0  0
 16 17  2  0  0  0  0
 16 15  1  0  0  0  0
 17 18  1  0  0  0  0
 18 23  1  0  0  0  0
 18 19  2  0  0  0  0
 19 24  1  0  0  0  0
 21 15  1  0  0  0  0
 22 17  1  0  0  0  0
 24 27  2  0  0  0  0
 24 25  2  0  0  0  0
 26  6  1  0  0  0  0
 26 24  1  0  0  0  0
 28 29  1  0  0  0  0
 28 16  1  0  0  0  0
 30 28  1  0  0  0  0
 31 28  1  0  0  0  0
M  RAD  3   1   2   2   2   3   3
M  END
