Coordinates from ORCA-job PhN2+~TsO-_B3LYPG-6-31G_dp-NX-Scan-d89-09-n800
 OpenBabel11261920463D

 31 32  0  0  1  0  0  0  0  0999 V2000
   -5.3524   -1.3493   -0.7312 C   0  0  2  0  0  0  0  0  0  0  0  0
   -6.4845   -0.7099   -0.8787 N   0  0  0  0  0  0  0  0  0  0  0  0
   -7.5071   -0.2229   -1.0031 N   0  0  0  0  0  0  0  0  0  0  0  0
   -4.7965   -2.0568   -1.8775 C   0  0  0  0  0  0  0  0  0  0  0  0
   -4.1944   -3.2362   -1.6447 C   0  0  0  0  0  0  0  0  0  0  0  0
   -4.3685   -3.8393   -0.2859 C   0  0  1  0  0  0  0  0  0  0  0  0
   -4.2679   -2.8234    0.8115 C   0  0  0  0  0  0  0  0  0  0  0  0
   -4.8716   -1.6386    0.6144 C   0  0  0  0  0  0  0  0  0  0  0  0
   -4.8713   -1.6133   -2.8660 H   0  0  0  0  0  0  0  0  0  0  0  0
   -3.6999   -3.7998   -2.4279 H   0  0  0  0  0  0  0  0  0  0  0  0
   -3.7510   -4.7211   -0.1187 H   0  0  0  0  0  0  0  0  0  0  0  0
   -3.8277   -3.0980    1.7635 H   0  0  0  0  0  0  0  0  0  0  0  0
   -5.0063   -0.9019    1.4004 H   0  0  0  0  0  0  0  0  0  0  0  0
   -8.8703   -5.6655   -0.0417 C   0  0  0  0  0  0  0  0  0  0  0  0
   -9.9014   -6.2788   -0.7465 C   0  0  0  0  0  0  0  0  0  0  0  0
   -9.6705   -7.4298   -1.5171 C   0  0  0  0  0  0  0  0  0  0  0  0
   -8.3724   -7.9553   -1.5627 C   0  0  0  0  0  0  0  0  0  0  0  0
   -7.3249   -7.3524   -0.8672 C   0  0  0  0  0  0  0  0  0  0  0  0
   -7.5851   -6.2078   -0.1152 C   0  0  0  0  0  0  0  0  0  0  0  0
   -9.0525   -4.7874    0.5679 H   0  0  0  0  0  0  0  0  0  0  0  0
  -10.9041   -5.8623   -0.6940 H   0  0  0  0  0  0  0  0  0  0  0  0
   -8.1794   -8.8520   -2.1449 H   0  0  0  0  0  0  0  0  0  0  0  0
   -6.3229   -7.7667   -0.8908 H   0  0  0  0  0  0  0  0  0  0  0  0
   -6.2558   -5.4325    0.7880 S   0  0  0  0  0  0  0  0  0  0  0  0
   -6.8136   -4.7548    1.9584 O   0  0  0  0  0  0  0  0  0  0  0  0
   -5.8155   -4.3213   -0.3307 O   0  0  0  0  0  0  0  0  0  0  0  0
   -5.1530   -6.3864    0.9532 O   0  0  0  0  0  0  0  0  0  0  0  0
  -10.8037   -8.0856   -2.2689 C   0  0  0  0  0  0  0  0  0  0  0  0
  -11.5944   -8.4129   -1.5845 H   0  0  0  0  0  0  0  0  0  0  0  0
  -11.2623   -7.3891   -2.9800 H   0  0  0  0  0  0  0  0  0  0  0  0
  -10.4610   -8.9599   -2.8280 H   0  0  0  0  0  0  0  0  0  0  0  0
  1  2  1  1  0  0  0
  1  8  1  0  0  0  0
  3  2  1  0  0  0  0
  4  5  2  0  0  0  0
  4  1  1  0  0  0  0
  5  6  1  0  0  0  0
  6 11  1  1  0  0  0
  6  7  1  0  0  0  0
  7 12  1  0  0  0  0
  8  7  2  0  0  0  0
  8 13  1  0  0  0  0
  9  4  1  0  0  0  0
 10  5  1  0  0  0  0
 14 20  1  0  0  0  0
 15 21  1  0  0  0  0
 15 14  2  0  0  0  0
 16 15  1  0  0  0  0
 17 16  2  0  0  0  0
 17 18  1  0  0  0  0
 18 19  2  0  0  0  0
 19 14  1  0  0  0  0
 19 24  1  0  0  0  0
 22 17  1  0  0  0  0
 23 18  1  0  0  0  0
 24 27  2  0  0  0  0
 24 25  2  0  0  0  0
 26  6  1  0  0  0  0
 26 24  1  0  0  0  0
 28 29  1  0  0  0  0
 28 16  1  0  0  0  0
 30 28  1  0  0  0  0
 31 28  1  0  0  0  0
M  RAD  3   1   2   2   2   3   3
M  END
