Coordinates from ORCA-job PhN2+~TsO-_B3LYPG-6-31G_dp-NX-Scan-d89-09-n800
 OpenBabel11261920463D

 31 32  0  0  1  0  0  0  0  0999 V2000
   -5.3602   -1.3530   -0.7076 C   0  0  2  0  0  0  0  0  0  0  0  0
   -6.6243   -1.7265   -0.5949 N   0  0  0  0  0  0  0  0  0  0  0  0
   -7.5986   -2.2953   -0.4775 N   0  0  0  0  0  0  0  0  0  0  0  0
   -4.7575   -2.0031   -1.9166 C   0  0  0  0  0  0  0  0  0  0  0  0
   -4.2152   -3.2108   -1.7123 C   0  0  0  0  0  0  0  0  0  0  0  0
   -4.4109   -3.8046   -0.3405 C   0  0  1  0  0  0  0  0  0  0  0  0
   -4.0860   -2.7934    0.7330 C   0  0  0  0  0  0  0  0  0  0  0  0
   -4.6367   -1.5805    0.5854 C   0  0  0  0  0  0  0  0  0  0  0  0
   -4.7964   -1.5155   -2.8866 H   0  0  0  0  0  0  0  0  0  0  0  0
   -3.6948   -3.7738   -2.4814 H   0  0  0  0  0  0  0  0  0  0  0  0
   -3.9122   -4.7620   -0.2013 H   0  0  0  0  0  0  0  0  0  0  0  0
   -3.4859   -3.0831    1.5904 H   0  0  0  0  0  0  0  0  0  0  0  0
   -4.6018   -0.8051    1.3451 H   0  0  0  0  0  0  0  0  0  0  0  0
   -8.9650   -5.4504   -0.1747 C   0  0  0  0  0  0  0  0  0  0  0  0
   -9.9438   -6.1191   -0.9064 C   0  0  0  0  0  0  0  0  0  0  0  0
   -9.6650   -7.3282   -1.5603 C   0  0  0  0  0  0  0  0  0  0  0  0
   -8.3688   -7.8557   -1.4672 C   0  0  0  0  0  0  0  0  0  0  0  0
   -7.3743   -7.2006   -0.7446 C   0  0  0  0  0  0  0  0  0  0  0  0
   -7.6833   -5.9984   -0.1067 C   0  0  0  0  0  0  0  0  0  0  0  0
   -9.1858   -4.5205    0.3352 H   0  0  0  0  0  0  0  0  0  0  0  0
  -10.9429   -5.6959   -0.9677 H   0  0  0  0  0  0  0  0  0  0  0  0
   -8.1360   -8.7945   -1.9621 H   0  0  0  0  0  0  0  0  0  0  0  0
   -6.3758   -7.6153   -0.6610 H   0  0  0  0  0  0  0  0  0  0  0  0
   -6.4172   -5.1667    0.8362 S   0  0  0  0  0  0  0  0  0  0  0  0
   -7.0415   -4.4508    1.9459 O   0  0  0  0  0  0  0  0  0  0  0  0
   -5.9203   -4.0578   -0.2785 O   0  0  0  0  0  0  0  0  0  0  0  0
   -5.3148   -6.1019    1.0858 O   0  0  0  0  0  0  0  0  0  0  0  0
  -10.7428   -8.0635   -2.3193 C   0  0  0  0  0  0  0  0  0  0  0  0
  -11.2444   -8.7957   -1.6744 H   0  0  0  0  0  0  0  0  0  0  0  0
  -11.5092   -7.3783   -2.6921 H   0  0  0  0  0  0  0  0  0  0  0  0
  -10.3301   -8.6108   -3.1717 H   0  0  0  0  0  0  0  0  0  0  0  0
  1  2  1  1  0  0  0
  1  8  1  0  0  0  0
  2  3  1  0  0  0  0
  4  5  2  0  0  0  0
  4  1  1  0  0  0  0
  5  6  1  0  0  0  0
  6 26  1  0  0  0  0
  6 11  1  1  0  0  0
  6  7  1  0  0  0  0
  7 12  1  0  0  0  0
  8  7  2  0  0  0  0
  8 13  1  0  0  0  0
  9  4  1  0  0  0  0
 10  5  1  0  0  0  0
 14 19  1  0  0  0  0
 14 20  1  0  0  0  0
 15 14  2  0  0  0  0
 16 17  2  0  0  0  0
 16 15  1  0  0  0  0
 17 18  1  0  0  0  0
 18 23  1  0  0  0  0
 18 19  2  0  0  0  0
 19 24  1  0  0  0  0
 21 15  1  0  0  0  0
 22 17  1  0  0  0  0
 24 27  2  0  0  0  0
 24 25  2  0  0  0  0
 26 24  1  0  0  0  0
 28 29  1  0  0  0  0
 28 16  1  0  0  0  0
 30 28  1  0  0  0  0
 31 28  1  0  0  0  0
M  RAD  3   1   2   2   2   3   3
M  END
