Coordinates from ORCA-job PhN2+~TsO-_B3LYPG-6-31G_dp-NX-Scan-d89-09-n800
 OpenBabel11261920463D

 31 32  0  0  1  0  0  0  0  0999 V2000
   -5.3586   -1.3447   -0.7489 C   0  0  2  0  0  0  0  0  0  0  0  0
   -6.4672   -0.6722   -0.9250 N   0  0  0  0  0  0  0  0  0  0  0  0
   -7.4701   -0.1521   -1.0745 N   0  0  0  0  0  0  0  0  0  0  0  0
   -4.7901   -2.0660   -1.8791 C   0  0  0  0  0  0  0  0  0  0  0  0
   -4.1883   -3.2416   -1.6266 C   0  0  0  0  0  0  0  0  0  0  0  0
   -4.3708   -3.8319   -0.2637 C   0  0  1  0  0  0  0  0  0  0  0  0
   -4.2994   -2.8050    0.8250 C   0  0  0  0  0  0  0  0  0  0  0  0
   -4.9032   -1.6239    0.6065 C   0  0  0  0  0  0  0  0  0  0  0  0
   -4.8546   -1.6346   -2.8735 H   0  0  0  0  0  0  0  0  0  0  0  0
   -3.6878   -3.8134   -2.3999 H   0  0  0  0  0  0  0  0  0  0  0  0
   -3.7425   -4.7030   -0.0806 H   0  0  0  0  0  0  0  0  0  0  0  0
   -3.8799   -3.0694    1.7892 H   0  0  0  0  0  0  0  0  0  0  0  0
   -5.0543   -0.8815    1.3842 H   0  0  0  0  0  0  0  0  0  0  0  0
   -8.8594   -5.6881   -0.0185 C   0  0  0  0  0  0  0  0  0  0  0  0
   -9.8976   -6.2909   -0.7219 C   0  0  0  0  0  0  0  0  0  0  0  0
   -9.6740   -7.4285   -1.5144 C   0  0  0  0  0  0  0  0  0  0  0  0
   -8.3759   -7.9512   -1.5835 C   0  0  0  0  0  0  0  0  0  0  0  0
   -7.3214   -7.3587   -0.8898 C   0  0  0  0  0  0  0  0  0  0  0  0
   -7.5746   -6.2273   -0.1157 C   0  0  0  0  0  0  0  0  0  0  0  0
   -9.0358   -4.8208    0.6081 H   0  0  0  0  0  0  0  0  0  0  0  0
  -10.9002   -5.8769   -0.6510 H   0  0  0  0  0  0  0  0  0  0  0  0
   -8.1885   -8.8377   -2.1829 H   0  0  0  0  0  0  0  0  0  0  0  0
   -6.3191   -7.7709   -0.9317 H   0  0  0  0  0  0  0  0  0  0  0  0
   -6.2361   -5.4658    0.7856 S   0  0  0  0  0  0  0  0  0  0  0  0
   -6.7806   -4.8086    1.9740 O   0  0  0  0  0  0  0  0  0  0  0  0
   -5.8099   -4.3366   -0.3201 O   0  0  0  0  0  0  0  0  0  0  0  0
   -5.1305   -6.4209    0.9229 O   0  0  0  0  0  0  0  0  0  0  0  0
  -10.8147   -8.0730   -2.2646 C   0  0  0  0  0  0  0  0  0  0  0  0
  -11.5985   -8.4109   -1.5774 H   0  0  0  0  0  0  0  0  0  0  0  0
  -11.2806   -7.3659   -2.9604 H   0  0  0  0  0  0  0  0  0  0  0  0
  -10.4776   -8.9386   -2.8404 H   0  0  0  0  0  0  0  0  0  0  0  0
  1  2  1  1  0  0  0
  1  8  1  0  0  0  0
  3  2  1  0  0  0  0
  4  5  2  0  0  0  0
  4  1  1  0  0  0  0
  5  6  1  0  0  0  0
  6 11  1  1  0  0  0
  6  7  1  0  0  0  0
  7 12  1  0  0  0  0
  8  7  2  0  0  0  0
  8 13  1  0  0  0  0
  9  4  1  0  0  0  0
 10  5  1  0  0  0  0
 14 20  1  0  0  0  0
 15 21  1  0  0  0  0
 15 14  2  0  0  0  0
 16 15  1  0  0  0  0
 17 16  2  0  0  0  0
 17 18  1  0  0  0  0
 18 19  2  0  0  0  0
 19 14  1  0  0  0  0
 19 24  1  0  0  0  0
 22 17  1  0  0  0  0
 23 18  1  0  0  0  0
 24 27  2  0  0  0  0
 24 25  2  0  0  0  0
 26  6  1  0  0  0  0
 26 24  1  0  0  0  0
 28 29  1  0  0  0  0
 28 16  1  0  0  0  0
 30 28  1  0  0  0  0
 31 28  1  0  0  0  0
M  RAD  3   1   2   2   2   3   3
M  END
