Coordinates from ORCA-job PhN2+~TsO-_B3LYPG-6-31G_dp-NX-Scan-d89-09-n800
 OpenBabel11261920463D

 31 31  0  0  0  0  0  0  0  0999 V2000
   -4.1866   -0.4431   -0.4761 C   0  0  0  0  0  0  0  0  0  0  0  0
   -4.0215    0.8929   -0.3680 N   0  0  0  0  0  0  0  0  0  0  0  0
   -3.8729    2.0063   -0.2692 N   0  0  0  0  0  0  0  0  0  0  0  0
   -3.6938   -1.0932   -1.6402 C   0  0  0  0  0  0  0  0  0  0  0  0
   -3.8140   -2.4643   -1.7055 C   0  0  0  0  0  0  0  0  0  0  0  0
   -4.4086   -3.1902   -0.6511 C   0  0  0  0  0  0  0  0  0  0  0  0
   -4.9263   -2.5167    0.4805 C   0  0  0  0  0  0  0  0  0  0  0  0
   -4.8211   -1.1489    0.5870 C   0  0  0  0  0  0  0  0  0  0  0  0
   -3.2263   -0.5151   -2.4298 H   0  0  0  0  0  0  0  0  0  0  0  0
   -3.4382   -2.9931   -2.5747 H   0  0  0  0  0  0  0  0  0  0  0  0
   -4.4154   -4.2766   -0.6647 H   0  0  0  0  0  0  0  0  0  0  0  0
   -5.4443   -3.1003    1.2380 H   0  0  0  0  0  0  0  0  0  0  0  0
   -5.2020   -0.6079    1.4462 H   0  0  0  0  0  0  0  0  0  0  0  0
   -9.3367   -6.2290   -0.1190 C   0  0  0  0  0  0  0  0  0  0  0  0
  -10.3481   -7.1281   -0.4468 C   0  0  0  0  0  0  0  0  0  0  0  0
  -10.0671   -8.3133   -1.1441 C   0  0  0  0  0  0  0  0  0  0  0  0
   -8.7384   -8.5732   -1.5041 C   0  0  0  0  0  0  0  0  0  0  0  0
   -7.7162   -7.6796   -1.1836 C   0  0  0  0  0  0  0  0  0  0  0  0
   -8.0190   -6.5078   -0.4906 C   0  0  0  0  0  0  0  0  0  0  0  0
   -9.5526   -5.3215    0.4344 H   0  0  0  0  0  0  0  0  0  0  0  0
  -11.3729   -6.9118   -0.1533 H   0  0  0  0  0  0  0  0  0  0  0  0
   -8.5002   -9.4899   -2.0383 H   0  0  0  0  0  0  0  0  0  0  0  0
   -6.6850   -7.8848   -1.4495 H   0  0  0  0  0  0  0  0  0  0  0  0
   -6.7149   -5.3280   -0.1177 S   0  0  0  0  0  0  0  0  0  0  0  0
   -7.0795   -4.7019    1.1836 O   0  0  0  0  0  0  0  0  0  0  0  0
   -6.7452   -4.3415   -1.2615 O   0  0  0  0  0  0  0  0  0  0  0  0
   -5.4390   -6.0974   -0.0991 O   0  0  0  0  0  0  0  0  0  0  0  0
  -11.1692   -9.2935   -1.4718 C   0  0  0  0  0  0  0  0  0  0  0  0
  -11.4749   -9.8604   -0.5834 H   0  0  0  0  0  0  0  0  0  0  0  0
  -12.0617   -8.7822   -1.8479 H   0  0  0  0  0  0  0  0  0  0  0  0
  -10.8500  -10.0164   -2.2283 H   0  0  0  0  0  0  0  0  0  0  0  0
  1  2  1  0  0  0  0
  1  8  2  0  0  0  0
  2  3  1  0  0  0  0
  4  1  1  0  0  0  0
  5  4  2  0  0  0  0
  5  6  1  0  0  0  0
  6  7  2  0  0  0  0
  7  8  1  0  0  0  0
  7 12  1  0  0  0  0
  8 13  1  0  0  0  0
  9  4  1  0  0  0  0
 10  5  1  0  0  0  0
 11  6  1  0  0  0  0
 14 20  1  0  0  0  0
 15 21  1  0  0  0  0
 15 14  1  0  0  0  0
 16 15  2  0  0  0  0
 17 18  2  0  0  0  0
 17 16  1  0  0  0  0
 18 19  1  0  0  0  0
 19 14  2  0  0  0  0
 19 24  1  0  0  0  0
 22 17  1  0  0  0  0
 23 18  1  0  0  0  0
 24 27  2  0  0  0  0
 24 25  1  0  0  0  0
 26 24  2  0  0  0  0
 28 16  1  0  0  0  0
 28 29  1  0  0  0  0
 30 28  1  0  0  0  0
 31 28  1  0  0  0  0
M  RAD  3   2   2   3   3  25   2
M  END
