Coordinates from ORCA-job PhN2+~TsO-_B3LYPG-6-31G_dp-NX-Scan-d89-09-n800
 OpenBabel11261920463D

 31 32  0  0  0  0  0  0  0  0999 V2000
   -4.3540   -2.4869   -0.6617 C   0  0  0  0  0  0  0  0  0  0  0  0
   -5.4723   -3.3626   -0.5380 N   0  0  0  0  0  0  0  0  0  0  0  0
   -6.2837   -3.3628   -1.5455 N   0  0  0  0  0  0  0  0  0  0  0  0
   -3.7110   -2.2249    0.5600 C   0  0  0  0  0  0  0  0  0  0  0  0
   -2.5817   -1.4152    0.6042 C   0  0  0  0  0  0  0  0  0  0  0  0
   -2.0677   -0.8568   -0.5695 C   0  0  0  0  0  0  0  0  0  0  0  0
   -2.6967   -1.1212   -1.7850 C   0  0  0  0  0  0  0  0  0  0  0  0
   -3.8343   -1.9296   -1.8428 C   0  0  0  0  0  0  0  0  0  0  0  0
   -4.1227   -2.6679    1.4604 H   0  0  0  0  0  0  0  0  0  0  0  0
   -2.1015   -1.2190    1.5582 H   0  0  0  0  0  0  0  0  0  0  0  0
   -1.1844   -0.2265   -0.5363 H   0  0  0  0  0  0  0  0  0  0  0  0
   -2.3032   -0.6990   -2.7049 H   0  0  0  0  0  0  0  0  0  0  0  0
   -4.2854   -2.1199   -2.8095 H   0  0  0  0  0  0  0  0  0  0  0  0
   -8.3184   -7.3509   -1.1251 C   0  0  0  0  0  0  0  0  0  0  0  0
   -9.2675   -8.3111   -1.4673 C   0  0  0  0  0  0  0  0  0  0  0  0
  -10.5514   -8.2949   -0.8988 C   0  0  0  0  0  0  0  0  0  0  0  0
  -10.8606   -7.2857    0.0229 C   0  0  0  0  0  0  0  0  0  0  0  0
   -9.9192   -6.3183    0.3770 C   0  0  0  0  0  0  0  0  0  0  0  0
   -8.6568   -6.3546   -0.2074 C   0  0  0  0  0  0  0  0  0  0  0  0
   -7.3317   -7.3690   -1.5793 H   0  0  0  0  0  0  0  0  0  0  0  0
   -9.0119   -9.0841   -2.1881 H   0  0  0  0  0  0  0  0  0  0  0  0
  -11.8508   -7.2577    0.4706 H   0  0  0  0  0  0  0  0  0  0  0  0
  -10.1445   -5.5346    1.0942 H   0  0  0  0  0  0  0  0  0  0  0  0
   -7.4144   -5.1311    0.3227 S   0  0  1  0  0  0  0  0  0  0  0  0
   -7.4729   -4.4051   -1.2143 O   0  0  0  0  0  0  0  0  0  0  0  0
   -6.4067   -2.9584   -2.3851 O   0  0  0  0  0  0  0  0  0  0  0  0
   -8.0972   -4.2714    1.3298 O   0  0  0  0  0  0  0  0  0  0  0  0
  -11.5622   -9.3590   -1.2546 C   0  0  0  0  0  0  0  0  0  0  0  0
  -11.5108   -9.6212   -2.3160 H   0  0  0  0  0  0  0  0  0  0  0  0
  -11.3839  -10.2795   -0.6852 H   0  0  0  0  0  0  0  0  0  0  0  0
  -12.5823   -9.0317   -1.0343 H   0  0  0  0  0  0  0  0  0  0  0  0
  1  2  1  0  0  0  0
  1  4  2  0  0  0  0
  3 25  1  0  0  0  0
  3  2  1  0  0  0  0
  4  5  1  0  0  0  0
  4  9  1  0  0  0  0
  5 10  1  0  0  0  0
  6 11  1  0  0  0  0
  6  5  2  0  0  0  0
  7  6  1  0  0  0  0
  8  7  2  0  0  0  0
  8  1  1  0  0  0  0
 12  7  1  0  0  0  0
 13  8  1  0  0  0  0
 14 19  1  0  0  0  0
 15 14  2  0  0  0  0
 15 16  1  0  0  0  0
 16 17  2  0  0  0  0
 17 18  1  0  0  0  0
 17 22  1  0  0  0  0
 18 23  1  0  0  0  0
 19 24  1  0  0  0  0
 19 18  2  0  0  0  0
 20 14  1  0  0  0  0
 21 15  1  0  0  0  0
 24 25  1  6  0  0  0
 24 27  1  0  0  0  0
 26  3  1  0  0  0  0
 28 31  1  0  0  0  0
 28 16  1  0  0  0  0
 28 30  1  0  0  0  0
 29 28  1  0  0  0  0
M  RAD  3   2   2  26   2  27   2
M  END
