Coordinates from ORCA-job PhN2+~TsO-_B3LYPG-6-31G_dp-NX-Scan-d89-09-n800
 OpenBabel11261920463D

 31 31  0  0  0  0  0  0  0  0999 V2000
   -3.6733   -0.5422    0.0670 C   0  0  0  0  0  0  0  0  0  0  0  0
   -3.3475    0.6522    0.6210 N   0  0  0  0  0  0  0  0  0  0  0  0
   -3.1003    1.6414    1.0947 N   0  0  0  0  0  0  0  0  0  0  0  0
   -2.7420   -1.1582   -0.8066 C   0  0  0  0  0  0  0  0  0  0  0  0
   -3.1104   -2.3668   -1.3666 C   0  0  0  0  0  0  0  0  0  0  0  0
   -4.3630   -2.9386   -1.0786 C   0  0  0  0  0  0  0  0  0  0  0  0
   -5.2666   -2.3119   -0.1972 C   0  0  0  0  0  0  0  0  0  0  0  0
   -4.9361   -1.1061    0.3889 C   0  0  0  0  0  0  0  0  0  0  0  0
   -1.7907   -0.6831   -1.0181 H   0  0  0  0  0  0  0  0  0  0  0  0
   -2.4274   -2.8686   -2.0443 H   0  0  0  0  0  0  0  0  0  0  0  0
   -4.6975   -3.8775   -1.5257 H   0  0  0  0  0  0  0  0  0  0  0  0
   -6.2344   -2.7959   -0.0079 H   0  0  0  0  0  0  0  0  0  0  0  0
   -5.6066   -0.5912    1.0688 H   0  0  0  0  0  0  0  0  0  0  0  0
   -9.7136   -6.2254   -0.4063 C   0  0  0  0  0  0  0  0  0  0  0  0
  -10.4658   -7.3867   -0.2402 C   0  0  0  0  0  0  0  0  0  0  0  0
  -10.0229   -8.6162   -0.7490 C   0  0  0  0  0  0  0  0  0  0  0  0
   -8.8011   -8.6485   -1.4337 C   0  0  0  0  0  0  0  0  0  0  0  0
   -8.0397   -7.4923   -1.6066 C   0  0  0  0  0  0  0  0  0  0  0  0
   -8.4978   -6.2801   -1.0911 C   0  0  0  0  0  0  0  0  0  0  0  0
  -10.0530   -5.2791    0.0014 H   0  0  0  0  0  0  0  0  0  0  0  0
  -11.4125   -7.3397    0.2932 H   0  0  0  0  0  0  0  0  0  0  0  0
   -8.4397   -9.5922   -1.8363 H   0  0  0  0  0  0  0  0  0  0  0  0
   -7.0875   -7.5195   -2.1246 H   0  0  0  0  0  0  0  0  0  0  0  0
   -7.5618   -4.7673   -1.3696 S   0  0  0  0  0  0  0  0  0  0  0  0
   -7.7422   -3.9740   -0.1084 O   0  0  0  0  0  0  0  0  0  0  0  0
   -8.1272   -4.1071   -2.5683 O   0  0  0  0  0  0  0  0  0  0  0  0
   -6.1428   -5.2226   -1.5547 O   0  0  0  0  0  0  0  0  0  0  0  0
  -10.8268   -9.8773   -0.5343 C   0  0  0  0  0  0  0  0  0  0  0  0
  -10.5790  -10.3492    0.4259 H   0  0  0  0  0  0  0  0  0  0  0  0
  -11.9021   -9.6710   -0.5234 H   0  0  0  0  0  0  0  0  0  0  0  0
  -10.6305  -10.6157   -1.3180 H   0  0  0  0  0  0  0  0  0  0  0  0
  1  8  1  0  0  0  0
  1  2  1  0  0  0  0
  2  3  1  0  0  0  0
  4  1  2  0  0  0  0
  5  6  2  0  0  0  0
  5  4  1  0  0  0  0
  6  7  1  0  0  0  0
  7 12  1  0  0  0  0
  7  8  2  0  0  0  0
  8 13  1  0  0  0  0
  9  4  1  0  0  0  0
 10  5  1  0  0  0  0
 11  6  1  0  0  0  0
 14 15  1  0  0  0  0
 14 20  1  0  0  0  0
 15 21  1  0  0  0  0
 16 28  1  0  0  0  0
 16 15  2  0  0  0  0
 17 16  1  0  0  0  0
 18 17  2  0  0  0  0
 18 19  1  0  0  0  0
 19 14  2  0  0  0  0
 22 17  1  0  0  0  0
 23 18  1  0  0  0  0
 24 19  1  0  0  0  0
 24 25  1  0  0  0  0
 26 24  2  0  0  0  0
 27 24  2  0  0  0  0
 28 30  1  0  0  0  0
 28 29  1  0  0  0  0
 31 28  1  0  0  0  0
M  RAD  3   2   2   3   3  25   2
M  END
