Coordinates from ORCA-job PhN2+~TsO-_B3LYPG-6-31G_dp-NX-Scan-d89-09-n800
 OpenBabel11261920463D

 31 32  0  0  1  0  0  0  0  0999 V2000
   -4.9566   -0.8671   -0.9539 C   0  0  0  0  0  0  0  0  0  0  0  0
   -5.0677    0.3749   -1.3625 N   0  0  0  0  0  0  0  0  0  0  0  0
   -5.1673    1.4577   -1.7188 N   0  0  0  0  0  0  0  0  0  0  0  0
   -4.3946   -1.8713   -1.8343 C   0  0  0  0  0  0  0  0  0  0  0  0
   -4.2896   -3.1476   -1.4201 C   0  0  0  0  0  0  0  0  0  0  0  0
   -4.7881   -3.6089   -0.0893 C   0  0  1  0  0  0  0  0  0  0  0  0
   -5.2693   -2.5076    0.8011 C   0  0  0  0  0  0  0  0  0  0  0  0
   -5.3755   -1.2322    0.3854 C   0  0  0  0  0  0  0  0  0  0  0  0
   -4.0463   -1.5666   -2.8160 H   0  0  0  0  0  0  0  0  0  0  0  0
   -3.8585   -3.9025   -2.0689 H   0  0  0  0  0  0  0  0  0  0  0  0
   -4.0441   -4.2409    0.4090 H   0  0  0  0  0  0  0  0  0  0  0  0
   -5.5740   -2.7901    1.8027 H   0  0  0  0  0  0  0  0  0  0  0  0
   -5.7559   -0.4550    1.0408 H   0  0  0  0  0  0  0  0  0  0  0  0
   -8.7517   -6.2540    0.3185 C   0  0  0  0  0  0  0  0  0  0  0  0
   -9.8919   -6.8072   -0.2553 C   0  0  0  0  0  0  0  0  0  0  0  0
   -9.8025   -7.6873   -1.3459 C   0  0  0  0  0  0  0  0  0  0  0  0
   -8.5333   -8.0065   -1.8465 C   0  0  0  0  0  0  0  0  0  0  0  0
   -7.3787   -7.4624   -1.2860 C   0  0  0  0  0  0  0  0  0  0  0  0
   -7.5018   -6.5850   -0.2097 C   0  0  0  0  0  0  0  0  0  0  0  0
   -8.8190   -5.5862    1.1703 H   0  0  0  0  0  0  0  0  0  0  0  0
  -10.8680   -6.5569    0.1516 H   0  0  0  0  0  0  0  0  0  0  0  0
   -8.4464   -8.6932   -2.6840 H   0  0  0  0  0  0  0  0  0  0  0  0
   -6.3956   -7.7198   -1.6639 H   0  0  0  0  0  0  0  0  0  0  0  0
   -6.0336   -5.8840    0.5153 S   0  0  0  0  0  0  0  0  0  0  0  0
   -6.2963   -5.5162    1.9098 O   0  0  0  0  0  0  0  0  0  0  0  0
   -5.9592   -4.5215   -0.3875 O   0  0  0  0  0  0  0  0  0  0  0  0
   -4.8766   -6.7258    0.1982 O   0  0  0  0  0  0  0  0  0  0  0  0
  -11.0510   -8.2744   -1.9587 C   0  0  0  0  0  0  0  0  0  0  0  0
  -11.6543   -8.7950   -1.2066 H   0  0  0  0  0  0  0  0  0  0  0  0
  -11.6833   -7.4906   -2.3919 H   0  0  0  0  0  0  0  0  0  0  0  0
  -10.8111   -8.9877   -2.7515 H   0  0  0  0  0  0  0  0  0  0  0  0
  1  8  1  0  0  0  0
  2  1  1  0  0  0  0
  3  2  1  0  0  0  0
  4  5  1  0  0  0  0
  4  1  2  0  0  0  0
  5  6  1  0  0  0  0
  6 11  1  1  0  0  0
  6  7  1  0  0  0  0
  7 12  1  0  0  0  0
  8  7  2  0  0  0  0
  8 13  1  0  0  0  0
  9  4  1  0  0  0  0
 10  5  1  0  0  0  0
 14 20  1  0  0  0  0
 15 21  1  0  0  0  0
 15 14  2  0  0  0  0
 16 15  1  0  0  0  0
 17 16  2  0  0  0  0
 17 18  1  0  0  0  0
 18 19  2  0  0  0  0
 19 14  1  0  0  0  0
 19 24  1  0  0  0  0
 22 17  1  0  0  0  0
 23 18  1  0  0  0  0
 24 25  2  0  0  0  0
 26  6  1  0  0  0  0
 26 24  1  0  0  0  0
 27 24  2  0  0  0  0
 28 16  1  0  0  0  0
 28 29  1  0  0  0  0
 30 28  1  0  0  0  0
 31 28  1  0  0  0  0
M  RAD  3   2   2   3   3   5   2
M  END
