Coordinates from ORCA-job PhN2+~TsO-_B3LYPG-6-31G_dp-NX-Scan-d89-09-n800
 OpenBabel11261920463D

 31 32  0  0  1  0  0  0  0  0999 V2000
   -5.3610   -1.3536   -0.7058 C   0  0  2  0  0  0  0  0  0  0  0  0
   -6.6255   -1.7251   -0.5950 N   0  0  0  0  0  0  0  0  0  0  0  0
   -7.6029   -2.2893   -0.4797 N   0  0  0  0  0  0  0  0  0  0  0  0
   -4.7570   -2.0013   -1.9153 C   0  0  0  0  0  0  0  0  0  0  0  0
   -4.2136   -3.2087   -1.7126 C   0  0  0  0  0  0  0  0  0  0  0  0
   -4.4098   -3.8049   -0.3418 C   0  0  1  0  0  0  0  0  0  0  0  0
   -4.0867   -2.7951    0.7335 C   0  0  0  0  0  0  0  0  0  0  0  0
   -4.6384   -1.5824    0.5874 C   0  0  0  0  0  0  0  0  0  0  0  0
   -4.7957   -1.5121   -2.8845 H   0  0  0  0  0  0  0  0  0  0  0  0
   -3.6921   -3.7700   -2.4822 H   0  0  0  0  0  0  0  0  0  0  0  0
   -3.9101   -4.7619   -0.2037 H   0  0  0  0  0  0  0  0  0  0  0  0
   -3.4871   -3.0856    1.5910 H   0  0  0  0  0  0  0  0  0  0  0  0
   -4.6049   -0.8082    1.3483 H   0  0  0  0  0  0  0  0  0  0  0  0
   -8.9636   -5.4494   -0.1771 C   0  0  0  0  0  0  0  0  0  0  0  0
   -9.9429   -6.1182   -0.9079 C   0  0  0  0  0  0  0  0  0  0  0  0
   -9.6653   -7.3287   -1.5597 C   0  0  0  0  0  0  0  0  0  0  0  0
   -8.3698   -7.8575   -1.4653 C   0  0  0  0  0  0  0  0  0  0  0  0
   -7.3748   -7.2023   -0.7435 C   0  0  0  0  0  0  0  0  0  0  0  0
   -7.6826   -5.9987   -0.1077 C   0  0  0  0  0  0  0  0  0  0  0  0
   -9.1835   -4.5183    0.3311 H   0  0  0  0  0  0  0  0  0  0  0  0
  -10.9415   -5.6940   -0.9703 H   0  0  0  0  0  0  0  0  0  0  0  0
   -8.1378   -8.7974   -1.9585 H   0  0  0  0  0  0  0  0  0  0  0  0
   -6.3767   -7.6179   -0.6590 H   0  0  0  0  0  0  0  0  0  0  0  0
   -6.4159   -5.1670    0.8343 S   0  0  0  0  0  0  0  0  0  0  0  0
   -7.0396   -4.4494    1.9433 O   0  0  0  0  0  0  0  0  0  0  0  0
   -5.9184   -4.0600   -0.2821 O   0  0  0  0  0  0  0  0  0  0  0  0
   -5.3140   -6.1024    1.0848 O   0  0  0  0  0  0  0  0  0  0  0  0
  -10.7437   -8.0641   -2.3178 C   0  0  0  0  0  0  0  0  0  0  0  0
  -11.2452   -8.7959   -1.6722 H   0  0  0  0  0  0  0  0  0  0  0  0
  -11.5101   -7.3789   -2.6906 H   0  0  0  0  0  0  0  0  0  0  0  0
  -10.3315   -8.6121   -3.1701 H   0  0  0  0  0  0  0  0  0  0  0  0
  1  2  1  1  0  0  0
  1  8  1  0  0  0  0
  2  3  1  0  0  0  0
  4  5  2  0  0  0  0
  4  1  1  0  0  0  0
  5  6  1  0  0  0  0
  6 26  1  0  0  0  0
  6 11  1  1  0  0  0
  6  7  1  0  0  0  0
  7 12  1  0  0  0  0
  8  7  2  0  0  0  0
  8 13  1  0  0  0  0
  9  4  1  0  0  0  0
 10  5  1  0  0  0  0
 14 19  1  0  0  0  0
 14 20  1  0  0  0  0
 15 14  2  0  0  0  0
 16 17  2  0  0  0  0
 16 15  1  0  0  0  0
 17 18  1  0  0  0  0
 18 23  1  0  0  0  0
 18 19  2  0  0  0  0
 19 24  1  0  0  0  0
 21 15  1  0  0  0  0
 22 17  1  0  0  0  0
 24 27  2  0  0  0  0
 24 25  2  0  0  0  0
 26 24  1  0  0  0  0
 28 29  1  0  0  0  0
 28 16  1  0  0  0  0
 30 28  1  0  0  0  0
 31 28  1  0  0  0  0
M  RAD  3   1   2   2   2   3   3
M  END
