Coordinates from ORCA-job PhN2+~TsO-_B3LYPG-6-31G_dp-NX-Scan-d89-09-n800
 OpenBabel11261920463D

 31 32  0  0  0  0  0  0  0  0999 V2000
   -5.0249   -2.5856   -0.8670 C   0  0  0  0  0  0  0  0  0  0  0  0
   -6.4488   -2.6364   -0.9547 N   0  0  0  0  0  0  0  0  0  0  0  0
   -7.1928   -3.3408   -0.2235 N   0  0  0  0  0  0  0  0  0  0  0  0
   -4.4787   -1.7785   -1.8843 C   0  0  0  0  0  0  0  0  0  0  0  0
   -3.1077   -1.5742   -1.9879 C   0  0  0  0  0  0  0  0  0  0  0  0
   -2.2456   -2.1701   -1.0642 C   0  0  0  0  0  0  0  0  0  0  0  0
   -2.7716   -2.9666   -0.0464 C   0  0  0  0  0  0  0  0  0  0  0  0
   -4.1462   -3.1838    0.0626 C   0  0  0  0  0  0  0  0  0  0  0  0
   -5.1702   -1.3203   -2.5836 H   0  0  0  0  0  0  0  0  0  0  0  0
   -2.7116   -0.9493   -2.7834 H   0  0  0  0  0  0  0  0  0  0  0  0
   -1.1729   -2.0118   -1.1345 H   0  0  0  0  0  0  0  0  0  0  0  0
   -2.1071   -3.4301    0.6773 H   0  0  0  0  0  0  0  0  0  0  0  0
   -4.5165   -3.8038    0.8646 H   0  0  0  0  0  0  0  0  0  0  0  0
   -9.7712   -5.4270   -0.2942 C   0  0  0  0  0  0  0  0  0  0  0  0
  -10.3884   -6.2296   -1.2490 C   0  0  0  0  0  0  0  0  0  0  0  0
   -9.9252   -7.5265   -1.5198 C   0  0  0  0  0  0  0  0  0  0  0  0
   -8.8148   -8.0077   -0.8095 C   0  0  0  0  0  0  0  0  0  0  0  0
   -8.1777   -7.2242    0.1482 C   0  0  0  0  0  0  0  0  0  0  0  0
   -8.6705   -5.9406    0.3967 C   0  0  0  0  0  0  0  0  0  0  0  0
  -10.1284   -4.4267   -0.0827 H   0  0  0  0  0  0  0  0  0  0  0  0
  -11.2444   -5.8421   -1.7938 H   0  0  0  0  0  0  0  0  0  0  0  0
   -8.4449   -9.0090   -1.0093 H   0  0  0  0  0  0  0  0  0  0  0  0
   -7.3225   -7.5966    0.7013 H   0  0  0  0  0  0  0  0  0  0  0  0
   -7.8618   -4.9351    1.6101 S   0  0  0  0  0  0  0  0  0  0  0  0
   -8.7768   -3.9360    2.1366 O   0  0  0  0  0  0  0  0  0  0  0  0
   -6.6723   -4.0530    0.6198 O   0  0  0  0  0  0  0  0  0  0  0  0
   -6.9743   -5.7319    2.4408 O   0  0  0  0  0  0  0  0  0  0  0  0
  -10.6257   -8.3954   -2.5345 C   0  0  0  0  0  0  0  0  0  0  0  0
  -11.4507   -8.9476   -2.0677 H   0  0  0  0  0  0  0  0  0  0  0  0
  -11.0522   -7.7987   -3.3455 H   0  0  0  0  0  0  0  0  0  0  0  0
   -9.9453   -9.1318   -2.9710 H   0  0  0  0  0  0  0  0  0  0  0  0
  1  8  2  0  0  0  0
  2  1  1  0  0  0  0
  2  3  2  0  0  0  0
  3 26  1  0  0  0  0
  4  1  1  0  0  0  0
  5  4  2  0  0  0  0
  5  6  1  0  0  0  0
  6  7  2  0  0  0  0
  7  8  1  0  0  0  0
  7 12  1  0  0  0  0
  8 13  1  0  0  0  0
  9  4  1  0  0  0  0
 10  5  1  0  0  0  0
 11  6  1  0  0  0  0
 14 20  1  0  0  0  0
 14 19  2  0  0  0  0
 15 14  1  0  0  0  0
 16 15  2  0  0  0  0
 16 17  1  0  0  0  0
 17 18  2  0  0  0  0
 18 19  1  0  0  0  0
 18 23  1  0  0  0  0
 19 24  1  0  0  0  0
 21 15  1  0  0  0  0
 22 17  1  0  0  0  0
 24 25  2  0  0  0  0
 24 27  2  0  0  0  0
 26 24  1  0  0  0  0
 28 29  1  0  0  0  0
 28 16  1  0  0  0  0
 30 28  1  0  0  0  0
 31 28  1  0  0  0  0
M  END
