Coordinates from ORCA-job PhN2+~TsO-_B3LYPG-6-31G_dp-NX-Scan-d89-09-n800
 OpenBabel11261920463D

 31 31  0  0  0  0  0  0  0  0999 V2000
   -3.6610   -0.6498    0.1972 C   0  0  0  0  0  0  0  0  0  0  0  0
   -3.2868    0.4642    0.8746 N   0  0  0  0  0  0  0  0  0  0  0  0
   -2.9956    1.3852    1.4504 N   0  0  0  0  0  0  0  0  0  0  0  0
   -2.7202   -1.2575   -0.6723 C   0  0  0  0  0  0  0  0  0  0  0  0
   -3.1315   -2.3880   -1.3528 C   0  0  0  0  0  0  0  0  0  0  0  0
   -4.4349   -2.8903   -1.1861 C   0  0  0  0  0  0  0  0  0  0  0  0
   -5.3486   -2.2747   -0.3074 C   0  0  0  0  0  0  0  0  0  0  0  0
   -4.9761   -1.1472    0.3978 C   0  0  0  0  0  0  0  0  0  0  0  0
   -1.7284   -0.8353   -0.7886 H   0  0  0  0  0  0  0  0  0  0  0  0
   -2.4418   -2.8814   -2.0297 H   0  0  0  0  0  0  0  0  0  0  0  0
   -4.7992   -3.7711   -1.7202 H   0  0  0  0  0  0  0  0  0  0  0  0
   -6.3520   -2.7117   -0.2109 H   0  0  0  0  0  0  0  0  0  0  0  0
   -5.6503   -0.6457    1.0840 H   0  0  0  0  0  0  0  0  0  0  0  0
   -9.7284   -6.1753   -0.4931 C   0  0  0  0  0  0  0  0  0  0  0  0
  -10.4241   -7.3516   -0.2189 C   0  0  0  0  0  0  0  0  0  0  0  0
   -9.9499   -8.5943   -0.6621 C   0  0  0  0  0  0  0  0  0  0  0  0
   -8.7541   -8.6250   -1.3920 C   0  0  0  0  0  0  0  0  0  0  0  0
   -8.0495   -7.4546   -1.6726 C   0  0  0  0  0  0  0  0  0  0  0  0
   -8.5387   -6.2283   -1.2217 C   0  0  0  0  0  0  0  0  0  0  0  0
  -10.0915   -5.2170   -0.1374 H   0  0  0  0  0  0  0  0  0  0  0  0
  -11.3517   -7.3054    0.3474 H   0  0  0  0  0  0  0  0  0  0  0  0
   -8.3689   -9.5790   -1.7454 H   0  0  0  0  0  0  0  0  0  0  0  0
   -7.1172   -7.4808   -2.2258 H   0  0  0  0  0  0  0  0  0  0  0  0
   -7.6802   -4.7031   -1.6466 S   0  0  0  0  0  0  0  0  0  0  0  0
   -7.8968   -3.8041   -0.4647 O   0  0  0  0  0  0  0  0  0  0  0  0
   -8.2805   -4.1932   -2.8991 O   0  0  0  0  0  0  0  0  0  0  0  0
   -6.2405   -5.1051   -1.7959 O   0  0  0  0  0  0  0  0  0  0  0  0
  -10.6910   -9.8691   -0.3332 C   0  0  0  0  0  0  0  0  0  0  0  0
  -10.3626  -10.2840    0.6287 H   0  0  0  0  0  0  0  0  0  0  0  0
  -11.7698   -9.6986   -0.2596 H   0  0  0  0  0  0  0  0  0  0  0  0
  -10.5200  -10.6390   -1.0925 H   0  0  0  0  0  0  0  0  0  0  0  0
  1  8  1  0  0  0  0
  1  2  1  0  0  0  0
  2  3  1  0  0  0  0
  4  1  2  0  0  0  0
  5  6  2  0  0  0  0
  5  4  1  0  0  0  0
  6  7  1  0  0  0  0
  7 12  1  0  0  0  0
  7  8  2  0  0  0  0
  8 13  1  0  0  0  0
  9  4  1  0  0  0  0
 10  5  1  0  0  0  0
 11  6  1  0  0  0  0
 14 15  1  0  0  0  0
 14 20  1  0  0  0  0
 15 21  1  0  0  0  0
 16 28  1  0  0  0  0
 16 15  2  0  0  0  0
 17 16  1  0  0  0  0
 18 17  2  0  0  0  0
 18 19  1  0  0  0  0
 19 14  2  0  0  0  0
 22 17  1  0  0  0  0
 23 18  1  0  0  0  0
 24 19  1  0  0  0  0
 24 25  1  0  0  0  0
 26 24  2  0  0  0  0
 27 24  2  0  0  0  0
 28 30  1  0  0  0  0
 28 29  1  0  0  0  0
 31 28  1  0  0  0  0
M  RAD  3   2   2   3   3  25   2
M  END
