Coordinates from ORCA-job PhN2+~TsO-_B3LYPG-6-31G_dp-NX-Scan-d89-09-n800
 OpenBabel11261920463D

 31 31  0  0  0  0  0  0  0  0999 V2000
   -3.6602   -0.6171    0.1612 C   0  0  0  0  0  0  0  0  0  0  0  0
   -3.2975    0.5195    0.8065 N   0  0  0  0  0  0  0  0  0  0  0  0
   -3.0172    1.4596    1.3560 N   0  0  0  0  0  0  0  0  0  0  0  0
   -2.7227   -1.2258   -0.7110 C   0  0  0  0  0  0  0  0  0  0  0  0
   -3.1241   -2.3782   -1.3600 C   0  0  0  0  0  0  0  0  0  0  0  0
   -4.4146   -2.9012   -1.1598 C   0  0  0  0  0  0  0  0  0  0  0  0
   -5.3248   -2.2837   -0.2788 C   0  0  0  0  0  0  0  0  0  0  0  0
   -4.9619   -1.1343    0.3952 C   0  0  0  0  0  0  0  0  0  0  0  0
   -1.7411   -0.7880   -0.8533 H   0  0  0  0  0  0  0  0  0  0  0  0
   -2.4368   -2.8730   -2.0384 H   0  0  0  0  0  0  0  0  0  0  0  0
   -4.7720   -3.7982   -1.6709 H   0  0  0  0  0  0  0  0  0  0  0  0
   -6.3190   -2.7348   -0.1563 H   0  0  0  0  0  0  0  0  0  0  0  0
   -5.6344   -0.6299    1.0811 H   0  0  0  0  0  0  0  0  0  0  0  0
   -9.7293   -6.1905   -0.4723 C   0  0  0  0  0  0  0  0  0  0  0  0
  -10.4410   -7.3639   -0.2291 C   0  0  0  0  0  0  0  0  0  0  0  0
   -9.9730   -8.6037   -0.6871 C   0  0  0  0  0  0  0  0  0  0  0  0
   -8.7673   -8.6343   -1.4004 C   0  0  0  0  0  0  0  0  0  0  0  0
   -8.0466   -7.4666   -1.6501 C   0  0  0  0  0  0  0  0  0  0  0  0
   -8.5295   -6.2435   -1.1843 C   0  0  0  0  0  0  0  0  0  0  0  0
  -10.0876   -5.2349   -0.1045 H   0  0  0  0  0  0  0  0  0  0  0  0
  -11.3760   -7.3178    0.3249 H   0  0  0  0  0  0  0  0  0  0  0  0
   -8.3869   -9.5859   -1.7649 H   0  0  0  0  0  0  0  0  0  0  0  0
   -7.1066   -7.4926   -2.1901 H   0  0  0  0  0  0  0  0  0  0  0  0
   -7.6479   -4.7201   -1.5660 S   0  0  0  0  0  0  0  0  0  0  0  0
   -7.8554   -3.8507   -0.3605 O   0  0  0  0  0  0  0  0  0  0  0  0
   -8.2368   -4.1660   -2.8054 O   0  0  0  0  0  0  0  0  0  0  0  0
   -6.2137   -5.1380   -1.7228 O   0  0  0  0  0  0  0  0  0  0  0  0
  -10.7312   -9.8762   -0.3898 C   0  0  0  0  0  0  0  0  0  0  0  0
  -10.4211  -10.3092    0.5702 H   0  0  0  0  0  0  0  0  0  0  0  0
  -11.8094   -9.6963   -0.3292 H   0  0  0  0  0  0  0  0  0  0  0  0
  -10.5564  -10.6356   -1.1586 H   0  0  0  0  0  0  0  0  0  0  0  0
  1  8  1  0  0  0  0
  1  2  1  0  0  0  0
  2  3  1  0  0  0  0
  4  1  2  0  0  0  0
  5  6  2  0  0  0  0
  5  4  1  0  0  0  0
  6  7  1  0  0  0  0
  7 12  1  0  0  0  0
  7  8  2  0  0  0  0
  8 13  1  0  0  0  0
  9  4  1  0  0  0  0
 10  5  1  0  0  0  0
 11  6  1  0  0  0  0
 14 15  1  0  0  0  0
 14 20  1  0  0  0  0
 15 21  1  0  0  0  0
 16 28  1  0  0  0  0
 16 15  2  0  0  0  0
 17 16  1  0  0  0  0
 18 17  2  0  0  0  0
 18 19  1  0  0  0  0
 19 14  2  0  0  0  0
 22 17  1  0  0  0  0
 23 18  1  0  0  0  0
 24 19  1  0  0  0  0
 24 25  1  0  0  0  0
 26 24  2  0  0  0  0
 27 24  2  0  0  0  0
 28 30  1  0  0  0  0
 28 29  1  0  0  0  0
 31 28  1  0  0  0  0
M  RAD  3   2   2   3   3  25   2
M  END
