Coordinates from ORCA-job PhN2+~TsO-_B3LYPG-6-31G_dp-NX-Scan-d89-09-n800
 OpenBabel11261920463D

 31 32  0  0  1  0  0  0  0  0999 V2000
   -5.4967   -1.4193   -0.6450 C   0  0  2  0  0  0  0  0  0  0  0  0
   -6.8072   -1.3884   -0.6581 N   0  0  0  0  0  0  0  0  0  0  0  0
   -7.9435   -1.4640   -0.6624 N   0  0  0  0  0  0  0  0  0  0  0  0
   -4.8629   -1.9817   -1.8534 C   0  0  0  0  0  0  0  0  0  0  0  0
   -4.1661   -3.1170   -1.6925 C   0  0  0  0  0  0  0  0  0  0  0  0
   -4.3105   -3.8018   -0.3622 C   0  0  1  0  0  0  0  0  0  0  0  0
   -4.1762   -2.8257    0.7760 C   0  0  0  0  0  0  0  0  0  0  0  0
   -4.8729   -1.6847    0.6662 C   0  0  0  0  0  0  0  0  0  0  0  0
   -4.9753   -1.4780   -2.8091 H   0  0  0  0  0  0  0  0  0  0  0  0
   -3.5980   -3.5829   -2.4908 H   0  0  0  0  0  0  0  0  0  0  0  0
   -3.6857   -4.6873   -0.2526 H   0  0  0  0  0  0  0  0  0  0  0  0
   -3.6182   -3.0966    1.6662 H   0  0  0  0  0  0  0  0  0  0  0  0
   -4.9995   -0.9776    1.4807 H   0  0  0  0  0  0  0  0  0  0  0  0
   -8.7460   -5.4354   -0.3105 C   0  0  0  0  0  0  0  0  0  0  0  0
   -9.7886   -6.0457   -1.0004 C   0  0  0  0  0  0  0  0  0  0  0  0
   -9.6534   -7.3407   -1.5270 C   0  0  0  0  0  0  0  0  0  0  0  0
   -8.4362   -8.0107   -1.3505 C   0  0  0  0  0  0  0  0  0  0  0  0
   -7.3757   -7.4135   -0.6686 C   0  0  0  0  0  0  0  0  0  0  0  0
   -7.5430   -6.1290   -0.1555 C   0  0  0  0  0  0  0  0  0  0  0  0
   -8.8583   -4.4368    0.0973 H   0  0  0  0  0  0  0  0  0  0  0  0
  -10.7253   -5.5098   -1.1308 H   0  0  0  0  0  0  0  0  0  0  0  0
   -8.3147   -9.0136   -1.7498 H   0  0  0  0  0  0  0  0  0  0  0  0
   -6.4334   -7.9316   -0.5272 H   0  0  0  0  0  0  0  0  0  0  0  0
   -6.2011   -5.3676    0.7392 S   0  0  0  0  0  0  0  0  0  0  0  0
   -6.7407   -4.6597    1.8994 O   0  0  0  0  0  0  0  0  0  0  0  0
   -5.7532   -4.2752   -0.4007 O   0  0  0  0  0  0  0  0  0  0  0  0
   -5.1112   -6.3336    0.9134 O   0  0  0  0  0  0  0  0  0  0  0  0
  -10.8062   -7.9975   -2.2472 C   0  0  0  0  0  0  0  0  0  0  0  0
  -11.5806   -8.3150   -1.5385 H   0  0  0  0  0  0  0  0  0  0  0  0
  -11.2797   -7.3077   -2.9535 H   0  0  0  0  0  0  0  0  0  0  0  0
  -10.4819   -8.8823   -2.8009 H   0  0  0  0  0  0  0  0  0  0  0  0
  1  2  1  1  0  0  0
  1  8  1  0  0  0  0
  3  2  1  0  0  0  0
  4  5  2  0  0  0  0
  4  1  1  0  0  0  0
  5  6  1  0  0  0  0
  6 11  1  1  0  0  0
  6  7  1  0  0  0  0
  7 12  1  0  0  0  0
  8  7  2  0  0  0  0
  8 13  1  0  0  0  0
  9  4  1  0  0  0  0
 10  5  1  0  0  0  0
 14 19  1  0  0  0  0
 14 20  1  0  0  0  0
 15 14  2  0  0  0  0
 16 17  2  0  0  0  0
 16 15  1  0  0  0  0
 17 18  1  0  0  0  0
 18 23  1  0  0  0  0
 18 19  2  0  0  0  0
 19 24  1  0  0  0  0
 21 15  1  0  0  0  0
 22 17  1  0  0  0  0
 24 27  2  0  0  0  0
 24 25  2  0  0  0  0
 26  6  1  0  0  0  0
 26 24  1  0  0  0  0
 28 29  1  0  0  0  0
 28 16  1  0  0  0  0
 30 28  1  0  0  0  0
 31 28  1  0  0  0  0
M  RAD  3   1   2   2   2   3   3
M  END
