Coordinates from ORCA-job PhN2+~TsO-_B3LYPG-6-31G_dp-NX-Scan-d89-09-n800
 OpenBabel11261920463D

 31 32  0  0  0  0  0  0  0  0999 V2000
   -4.9660   -2.5574   -0.9044 C   0  0  0  0  0  0  0  0  0  0  0  0
   -6.3766   -2.6443   -1.0088 N   0  0  0  0  0  0  0  0  0  0  0  0
   -7.1989   -3.2983   -0.3896 N   0  0  0  0  0  0  0  0  0  0  0  0
   -4.4176   -1.6923   -1.8692 C   0  0  0  0  0  0  0  0  0  0  0  0
   -3.0468   -1.4665   -1.9231 C   0  0  0  0  0  0  0  0  0  0  0  0
   -2.2056   -2.1008   -1.0062 C   0  0  0  0  0  0  0  0  0  0  0  0
   -2.7434   -2.9581   -0.0430 C   0  0  0  0  0  0  0  0  0  0  0  0
   -4.1148   -3.1980    0.0203 C   0  0  0  0  0  0  0  0  0  0  0  0
   -5.0968   -1.2092   -2.5633 H   0  0  0  0  0  0  0  0  0  0  0  0
   -2.6361   -0.7971   -2.6730 H   0  0  0  0  0  0  0  0  0  0  0  0
   -1.1339   -1.9258   -1.0390 H   0  0  0  0  0  0  0  0  0  0  0  0
   -2.0893   -3.4493    0.6711 H   0  0  0  0  0  0  0  0  0  0  0  0
   -4.5152   -3.8606    0.7718 H   0  0  0  0  0  0  0  0  0  0  0  0
   -9.7822   -5.4480   -0.3141 C   0  0  0  0  0  0  0  0  0  0  0  0
  -10.4287   -6.2648   -1.2383 C   0  0  0  0  0  0  0  0  0  0  0  0
   -9.9776   -7.5675   -1.4984 C   0  0  0  0  0  0  0  0  0  0  0  0
   -8.8518   -8.0382   -0.8068 C   0  0  0  0  0  0  0  0  0  0  0  0
   -8.1899   -7.2384    0.1215 C   0  0  0  0  0  0  0  0  0  0  0  0
   -8.6640   -5.9464    0.3567 C   0  0  0  0  0  0  0  0  0  0  0  0
  -10.1337   -4.4443   -0.1073 H   0  0  0  0  0  0  0  0  0  0  0  0
  -11.3003   -5.8853   -1.7645 H   0  0  0  0  0  0  0  0  0  0  0  0
   -8.4910   -9.0453   -0.9955 H   0  0  0  0  0  0  0  0  0  0  0  0
   -7.3270   -7.6066    0.6655 H   0  0  0  0  0  0  0  0  0  0  0  0
   -7.8242   -4.9195    1.5451 S   0  0  0  0  0  0  0  0  0  0  0  0
   -8.7373   -3.8908    2.0238 O   0  0  0  0  0  0  0  0  0  0  0  0
   -6.6221   -4.1809    0.6357 O   0  0  0  0  0  0  0  0  0  0  0  0
   -7.0470   -5.7563    2.4505 O   0  0  0  0  0  0  0  0  0  0  0  0
  -10.7079   -8.4536   -2.4778 C   0  0  0  0  0  0  0  0  0  0  0  0
  -11.5174   -9.0010   -1.9792 H   0  0  0  0  0  0  0  0  0  0  0  0
  -11.1594   -7.8706   -3.2854 H   0  0  0  0  0  0  0  0  0  0  0  0
  -10.0394   -9.1955   -2.9238 H   0  0  0  0  0  0  0  0  0  0  0  0
  1  8  2  0  0  0  0
  2  1  1  0  0  0  0
  2  3  1  0  0  0  0
  3 26  1  0  0  0  0
  4  1  1  0  0  0  0
  5  4  2  0  0  0  0
  5  6  1  0  0  0  0
  6  7  2  0  0  0  0
  7  8  1  0  0  0  0
  7 12  1  0  0  0  0
  8 13  1  0  0  0  0
  9  4  1  0  0  0  0
 10  5  1  0  0  0  0
 11  6  1  0  0  0  0
 14 20  1  0  0  0  0
 14 19  2  0  0  0  0
 15 14  1  0  0  0  0
 16 15  2  0  0  0  0
 16 17  1  0  0  0  0
 17 18  2  0  0  0  0
 18 19  1  0  0  0  0
 18 23  1  0  0  0  0
 19 24  1  0  0  0  0
 21 15  1  0  0  0  0
 22 17  1  0  0  0  0
 24 25  2  0  0  0  0
 24 27  2  0  0  0  0
 26 24  1  0  0  0  0
 28 29  1  0  0  0  0
 28 16  1  0  0  0  0
 30 28  1  0  0  0  0
 31 28  1  0  0  0  0
M  RAD  2   2   2   3   2
M  END
