Coordinates from ORCA-job PhN2+~TsO-_B3LYPG-6-31G_dp-NX-Scan-d89-09-n800
 OpenBabel11261920463D

 31 32  0  0  0  0  0  0  0  0999 V2000
   -4.9358   -2.5366   -0.9264 C   0  0  0  0  0  0  0  0  0  0  0  0
   -6.3415   -2.6415   -1.0340 N   0  0  0  0  0  0  0  0  0  0  0  0
   -7.1846   -3.2838   -0.4586 N   0  0  0  0  0  0  0  0  0  0  0  0
   -4.3861   -1.6403   -1.8602 C   0  0  0  0  0  0  0  0  0  0  0  0
   -3.0157   -1.4071   -1.8887 C   0  0  0  0  0  0  0  0  0  0  0  0
   -2.1837   -2.0659   -0.9805 C   0  0  0  0  0  0  0  0  0  0  0  0
   -2.7272   -2.9559   -0.0501 C   0  0  0  0  0  0  0  0  0  0  0  0
   -4.0976   -3.2038   -0.0102 C   0  0  0  0  0  0  0  0  0  0  0  0
   -5.0589   -1.1402   -2.5485 H   0  0  0  0  0  0  0  0  0  0  0  0
   -2.5983   -0.7135   -2.6121 H   0  0  0  0  0  0  0  0  0  0  0  0
   -1.1127   -1.8848   -0.9950 H   0  0  0  0  0  0  0  0  0  0  0  0
   -2.0786   -3.4656    0.6558 H   0  0  0  0  0  0  0  0  0  0  0  0
   -4.5121   -3.8900    0.7124 H   0  0  0  0  0  0  0  0  0  0  0  0
   -9.7887   -5.4608   -0.3224 C   0  0  0  0  0  0  0  0  0  0  0  0
  -10.4454   -6.2821   -1.2360 C   0  0  0  0  0  0  0  0  0  0  0  0
  -10.0037   -7.5895   -1.4864 C   0  0  0  0  0  0  0  0  0  0  0  0
   -8.8773   -8.0600   -0.7955 C   0  0  0  0  0  0  0  0  0  0  0  0
   -8.2065   -7.2549    0.1219 C   0  0  0  0  0  0  0  0  0  0  0  0
   -8.6697   -5.9574    0.3476 C   0  0  0  0  0  0  0  0  0  0  0  0
  -10.1346   -4.4538   -0.1214 H   0  0  0  0  0  0  0  0  0  0  0  0
  -11.3182   -5.9026   -1.7604 H   0  0  0  0  0  0  0  0  0  0  0  0
   -8.5236   -9.0712   -0.9760 H   0  0  0  0  0  0  0  0  0  0  0  0
   -7.3442   -7.6239    0.6664 H   0  0  0  0  0  0  0  0  0  0  0  0
   -7.8142   -4.9204    1.5201 S   0  0  0  0  0  0  0  0  0  0  0  0
   -8.7197   -3.8703    1.9712 O   0  0  0  0  0  0  0  0  0  0  0  0
   -6.6059   -4.2361    0.6200 O   0  0  0  0  0  0  0  0  0  0  0  0
   -7.0802   -5.7634    2.4582 O   0  0  0  0  0  0  0  0  0  0  0  0
  -10.7442   -8.4811   -2.4535 C   0  0  0  0  0  0  0  0  0  0  0  0
  -11.5502   -9.0243   -1.9448 H   0  0  0  0  0  0  0  0  0  0  0  0
  -11.2018   -7.9028   -3.2612 H   0  0  0  0  0  0  0  0  0  0  0  0
  -10.0807   -9.2269   -2.9006 H   0  0  0  0  0  0  0  0  0  0  0  0
  1  8  2  0  0  0  0
  2  1  1  0  0  0  0
  2  3  1  0  0  0  0
  3 26  1  0  0  0  0
  4  1  1  0  0  0  0
  5  4  2  0  0  0  0
  5  6  1  0  0  0  0
  6  7  2  0  0  0  0
  7  8  1  0  0  0  0
  7 12  1  0  0  0  0
  8 13  1  0  0  0  0
  9  4  1  0  0  0  0
 10  5  1  0  0  0  0
 11  6  1  0  0  0  0
 14 20  1  0  0  0  0
 14 19  2  0  0  0  0
 15 14  1  0  0  0  0
 16 15  2  0  0  0  0
 16 17  1  0  0  0  0
 17 18  2  0  0  0  0
 18 19  1  0  0  0  0
 18 23  1  0  0  0  0
 19 24  1  0  0  0  0
 21 15  1  0  0  0  0
 22 17  1  0  0  0  0
 24 25  2  0  0  0  0
 24 27  2  0  0  0  0
 26 24  1  0  0  0  0
 28 29  1  0  0  0  0
 28 16  1  0  0  0  0
 30 28  1  0  0  0  0
 31 28  1  0  0  0  0
M  RAD  2   2   2   3   2
M  END
