Coordinates from ORCA-job PhN2+~TsO-_B3LYPG-6-31G_dp-NX-Scan-d89-09-n800
 OpenBabel11261920463D

 31 32  0  0  1  0  0  0  0  0999 V2000
   -5.3512   -1.3588   -0.7103 C   0  0  2  0  0  0  0  0  0  0  0  0
   -6.5215   -0.7843   -0.8237 N   0  0  0  0  0  0  0  0  0  0  0  0
   -7.5748   -0.3603   -0.9178 N   0  0  0  0  0  0  0  0  0  0  0  0
   -4.8020   -2.0454   -1.8748 C   0  0  0  0  0  0  0  0  0  0  0  0
   -4.1952   -3.2263   -1.6640 C   0  0  0  0  0  0  0  0  0  0  0  0
   -4.3625   -3.8458   -0.3108 C   0  0  1  0  0  0  0  0  0  0  0  0
   -4.2318   -2.8429    0.7964 C   0  0  0  0  0  0  0  0  0  0  0  0
   -4.8400   -1.6569    0.6241 C   0  0  0  0  0  0  0  0  0  0  0  0
   -4.8876   -1.5872   -2.8557 H   0  0  0  0  0  0  0  0  0  0  0  0
   -3.7011   -3.7771   -2.4566 H   0  0  0  0  0  0  0  0  0  0  0  0
   -3.7570   -4.7387   -0.1610 H   0  0  0  0  0  0  0  0  0  0  0  0
   -3.7662   -3.1276    1.7333 H   0  0  0  0  0  0  0  0  0  0  0  0
   -4.9593   -0.9272    1.4193 H   0  0  0  0  0  0  0  0  0  0  0  0
   -8.8771   -5.6318   -0.0749 C   0  0  0  0  0  0  0  0  0  0  0  0
   -9.9014   -6.2557   -0.7803 C   0  0  0  0  0  0  0  0  0  0  0  0
   -9.6662   -7.4258   -1.5202 C   0  0  0  0  0  0  0  0  0  0  0  0
   -8.3708   -7.9593   -1.5345 C   0  0  0  0  0  0  0  0  0  0  0  0
   -7.3299   -7.3461   -0.8380 C   0  0  0  0  0  0  0  0  0  0  0  0
   -7.5942   -6.1828   -0.1168 C   0  0  0  0  0  0  0  0  0  0  0  0
   -9.0630   -4.7384    0.5108 H   0  0  0  0  0  0  0  0  0  0  0  0
  -10.9021   -5.8320   -0.7526 H   0  0  0  0  0  0  0  0  0  0  0  0
   -8.1745   -8.8703   -2.0928 H   0  0  0  0  0  0  0  0  0  0  0  0
   -6.3301   -7.7664   -0.8375 H   0  0  0  0  0  0  0  0  0  0  0  0
   -6.2736   -5.3937    0.7874 S   0  0  0  0  0  0  0  0  0  0  0  0
   -6.8443   -4.6929    1.9376 O   0  0  0  0  0  0  0  0  0  0  0  0
   -5.8172   -4.3029   -0.3455 O   0  0  0  0  0  0  0  0  0  0  0  0
   -5.1750   -6.3467    0.9825 O   0  0  0  0  0  0  0  0  0  0  0  0
  -10.7927   -8.0932   -2.2718 C   0  0  0  0  0  0  0  0  0  0  0  0
  -11.5878   -8.4131   -1.5888 H   0  0  0  0  0  0  0  0  0  0  0  0
  -11.2474   -7.4069   -2.9951 H   0  0  0  0  0  0  0  0  0  0  0  0
  -10.4446   -8.9742   -2.8167 H   0  0  0  0  0  0  0  0  0  0  0  0
  1  2  1  1  0  0  0
  1  8  1  0  0  0  0
  3  2  1  0  0  0  0
  4  5  2  0  0  0  0
  4  1  1  0  0  0  0
  5  6  1  0  0  0  0
  6 11  1  1  0  0  0
  6  7  1  0  0  0  0
  7 12  1  0  0  0  0
  8  7  2  0  0  0  0
  8 13  1  0  0  0  0
  9  4  1  0  0  0  0
 10  5  1  0  0  0  0
 14 20  1  0  0  0  0
 15 21  1  0  0  0  0
 15 14  2  0  0  0  0
 16 15  1  0  0  0  0
 17 16  2  0  0  0  0
 17 18  1  0  0  0  0
 18 23  1  0  0  0  0
 18 19  2  0  0  0  0
 19 14  1  0  0  0  0
 19 24  1  0  0  0  0
 22 17  1  0  0  0  0
 24 27  2  0  0  0  0
 24 25  2  0  0  0  0
 26  6  1  0  0  0  0
 26 24  1  0  0  0  0
 28 29  1  0  0  0  0
 28 16  1  0  0  0  0
 30 28  1  0  0  0  0
 31 28  1  0  0  0  0
M  RAD  3   1   2   2   2   3   3
M  END
