Coordinates from ORCA-job PhN2+~TsO-_B3LYPG-6-31G_dp-NX-Scan-d89-09-n800
 OpenBabel11261920463D

 31 32  0  0  1  0  0  0  0  0999 V2000
   -5.4133   -1.3938   -0.6575 C   0  0  2  0  0  0  0  0  0  0  0  0
   -6.6997   -1.1475   -0.6875 N   0  0  0  0  0  0  0  0  0  0  0  0
   -7.8323   -1.0300   -0.7077 N   0  0  0  0  0  0  0  0  0  0  0  0
   -4.8318   -2.0030   -1.8613 C   0  0  0  0  0  0  0  0  0  0  0  0
   -4.1798   -3.1654   -1.6972 C   0  0  0  0  0  0  0  0  0  0  0  0
   -4.3315   -3.8325   -0.3612 C   0  0  1  0  0  0  0  0  0  0  0  0
   -4.1671   -2.8567    0.7703 C   0  0  0  0  0  0  0  0  0  0  0  0
   -4.8195   -1.6893    0.6537 C   0  0  0  0  0  0  0  0  0  0  0  0
   -4.9400   -1.5084   -2.8223 H   0  0  0  0  0  0  0  0  0  0  0  0
   -3.6512   -3.6645   -2.5021 H   0  0  0  0  0  0  0  0  0  0  0  0
   -3.7313   -4.7342   -0.2480 H   0  0  0  0  0  0  0  0  0  0  0  0
   -3.6331   -3.1474    1.6685 H   0  0  0  0  0  0  0  0  0  0  0  0
   -4.9262   -0.9785    1.4678 H   0  0  0  0  0  0  0  0  0  0  0  0
   -8.8247   -5.5011   -0.2206 C   0  0  0  0  0  0  0  0  0  0  0  0
   -9.8499   -6.1294   -0.9206 C   0  0  0  0  0  0  0  0  0  0  0  0
   -9.6554   -7.3807   -1.5277 C   0  0  0  0  0  0  0  0  0  0  0  0
   -8.3983   -7.9888   -1.4186 C   0  0  0  0  0  0  0  0  0  0  0  0
   -7.3555   -7.3722   -0.7272 C   0  0  0  0  0  0  0  0  0  0  0  0
   -7.5803   -6.1305   -0.1358 C   0  0  0  0  0  0  0  0  0  0  0  0
   -8.9821   -4.5408    0.2576 H   0  0  0  0  0  0  0  0  0  0  0  0
  -10.8195   -5.6435   -0.9942 H   0  0  0  0  0  0  0  0  0  0  0  0
   -8.2324   -8.9596   -1.8768 H   0  0  0  0  0  0  0  0  0  0  0  0
   -6.3843   -7.8460   -0.6345 H   0  0  0  0  0  0  0  0  0  0  0  0
   -6.2590   -5.3388    0.7641 S   0  0  0  0  0  0  0  0  0  0  0  0
   -6.8295   -4.6093    1.8959 O   0  0  0  0  0  0  0  0  0  0  0  0
   -5.7893   -4.2699   -0.3870 O   0  0  0  0  0  0  0  0  0  0  0  0
   -5.1692   -6.2964    0.9821 O   0  0  0  0  0  0  0  0  0  0  0  0
  -10.7871   -8.0567   -2.2635 C   0  0  0  0  0  0  0  0  0  0  0  0
  -11.5669   -8.3864   -1.5668 H   0  0  0  0  0  0  0  0  0  0  0  0
  -11.2612   -7.3741   -2.9769 H   0  0  0  0  0  0  0  0  0  0  0  0
  -10.4402   -8.9351   -2.8134 H   0  0  0  0  0  0  0  0  0  0  0  0
  1  2  1  1  0  0  0
  1  8  1  0  0  0  0
  3  2  1  0  0  0  0
  4  5  2  0  0  0  0
  4  1  1  0  0  0  0
  5  6  1  0  0  0  0
  6 11  1  1  0  0  0
  6  7  1  0  0  0  0
  7 12  1  0  0  0  0
  8  7  2  0  0  0  0
  8 13  1  0  0  0  0
  9  4  1  0  0  0  0
 10  5  1  0  0  0  0
 14 19  1  0  0  0  0
 14 20  1  0  0  0  0
 15 14  2  0  0  0  0
 16 17  2  0  0  0  0
 16 15  1  0  0  0  0
 17 18  1  0  0  0  0
 18 23  1  0  0  0  0
 18 19  2  0  0  0  0
 19 24  1  0  0  0  0
 21 15  1  0  0  0  0
 22 17  1  0  0  0  0
 24 27  2  0  0  0  0
 24 25  2  0  0  0  0
 26  6  1  0  0  0  0
 26 24  1  0  0  0  0
 28 29  1  0  0  0  0
 28 16  1  0  0  0  0
 30 28  1  0  0  0  0
 31 28  1  0  0  0  0
M  RAD  3   1   2   2   2   3   3
M  END
