Coordinates from ORCA-job PhN2+~TsO-_B3LYPG-6-31G_dp-NX-Scan-d89-09-n800
 OpenBabel11261920463D

 31 31  0  0  0  0  0  0  0  0999 V2000
   -3.7670   -0.4327   -0.1302 C   0  0  0  0  0  0  0  0  0  0  0  0
   -3.5369    0.8586    0.2154 N   0  0  0  0  0  0  0  0  0  0  0  0
   -3.3680    1.9290    0.5143 N   0  0  0  0  0  0  0  0  0  0  0  0
   -2.8365   -1.0794   -0.9821 C   0  0  0  0  0  0  0  0  0  0  0  0
   -3.1113   -2.3872   -1.3347 C   0  0  0  0  0  0  0  0  0  0  0  0
   -4.2722   -3.0285   -0.8656 C   0  0  0  0  0  0  0  0  0  0  0  0
   -5.1755   -2.3667   -0.0095 C   0  0  0  0  0  0  0  0  0  0  0  0
   -4.9376   -1.0608    0.3707 C   0  0  0  0  0  0  0  0  0  0  0  0
   -1.9579   -0.5520   -1.3360 H   0  0  0  0  0  0  0  0  0  0  0  0
   -2.4275   -2.9155   -1.9911 H   0  0  0  0  0  0  0  0  0  0  0  0
   -4.5387   -4.0455   -1.1640 H   0  0  0  0  0  0  0  0  0  0  0  0
   -6.0780   -2.9002    0.3140 H   0  0  0  0  0  0  0  0  0  0  0  0
   -5.6156   -0.5153    1.0184 H   0  0  0  0  0  0  0  0  0  0  0  0
   -9.6092   -6.2926   -0.2298 C   0  0  0  0  0  0  0  0  0  0  0  0
  -10.4457   -7.4067   -0.2049 C   0  0  0  0  0  0  0  0  0  0  0  0
  -10.0933   -8.5929   -0.8653 C   0  0  0  0  0  0  0  0  0  0  0  0
   -8.8744   -8.6306   -1.5545 C   0  0  0  0  0  0  0  0  0  0  0  0
   -8.0287   -7.5210   -1.5868 C   0  0  0  0  0  0  0  0  0  0  0  0
   -8.3984   -6.3516   -0.9233 C   0  0  0  0  0  0  0  0  0  0  0  0
   -9.8774   -5.3814    0.2942 H   0  0  0  0  0  0  0  0  0  0  0  0
  -11.3878   -7.3571    0.3366 H   0  0  0  0  0  0  0  0  0  0  0  0
   -8.5812   -9.5421   -2.0708 H   0  0  0  0  0  0  0  0  0  0  0  0
   -7.0785   -7.5551   -2.1081 H   0  0  0  0  0  0  0  0  0  0  0  0
   -7.3518   -4.8906   -1.0196 S   0  0  0  0  0  0  0  0  0  0  0  0
   -7.5206   -4.2118    0.3078 O   0  0  0  0  0  0  0  0  0  0  0  0
   -7.8255   -4.0709   -2.1607 O   0  0  0  0  0  0  0  0  0  0  0  0
   -5.9621   -5.4242   -1.2139 O   0  0  0  0  0  0  0  0  0  0  0  0
  -10.9933   -9.8053   -0.8077 C   0  0  0  0  0  0  0  0  0  0  0  0
  -10.8629  -10.3552    0.1339 H   0  0  0  0  0  0  0  0  0  0  0  0
  -12.0499   -9.5239   -0.8710 H   0  0  0  0  0  0  0  0  0  0  0  0
  -10.7787  -10.5016   -1.6240 H   0  0  0  0  0  0  0  0  0  0  0  0
  1  2  1  0  0  0  0
  1  8  2  0  0  0  0
  2  3  1  0  0  0  0
  4  1  1  0  0  0  0
  5  4  2  0  0  0  0
  5  6  1  0  0  0  0
  6  7  2  0  0  0  0
  7 12  1  0  0  0  0
  7  8  1  0  0  0  0
  8 13  1  0  0  0  0
  9  4  1  0  0  0  0
 10  5  1  0  0  0  0
 11  6  1  0  0  0  0
 14 15  1  0  0  0  0
 14 20  1  0  0  0  0
 15 21  1  0  0  0  0
 16 28  1  0  0  0  0
 16 15  2  0  0  0  0
 17 16  1  0  0  0  0
 18 17  2  0  0  0  0
 18 19  1  0  0  0  0
 19 14  2  0  0  0  0
 22 17  1  0  0  0  0
 23 18  1  0  0  0  0
 24 19  1  0  0  0  0
 24 25  1  0  0  0  0
 26 24  2  0  0  0  0
 27 24  2  0  0  0  0
 28 29  1  0  0  0  0
 30 28  1  0  0  0  0
 31 28  1  0  0  0  0
M  RAD  3   2   2   3   3  25   2
M  END
