Coordinates from ORCA-job PhN2+~TsO-_B3LYPG-6-31G_dp-NX-Scan-d89-09-n800
 OpenBabel11261920463D

 31 31  0  0  0  0  0  0  0  0999 V2000
   -3.6608   -0.6464    0.1936 C   0  0  0  0  0  0  0  0  0  0  0  0
   -3.2877    0.4699    0.8678 N   0  0  0  0  0  0  0  0  0  0  0  0
   -2.9976    1.3928    1.4410 N   0  0  0  0  0  0  0  0  0  0  0  0
   -2.7203   -1.2541   -0.6762 C   0  0  0  0  0  0  0  0  0  0  0  0
   -3.1307   -2.3868   -1.3536 C   0  0  0  0  0  0  0  0  0  0  0  0
   -4.4329   -2.8913   -1.1836 C   0  0  0  0  0  0  0  0  0  0  0  0
   -5.3462   -2.2755   -0.3047 C   0  0  0  0  0  0  0  0  0  0  0  0
   -4.9746   -1.1458    0.3975 C   0  0  0  0  0  0  0  0  0  0  0  0
   -1.7295   -0.8304   -0.7950 H   0  0  0  0  0  0  0  0  0  0  0  0
   -2.4412   -2.8804   -2.0307 H   0  0  0  0  0  0  0  0  0  0  0  0
   -4.7965   -3.7737   -1.7154 H   0  0  0  0  0  0  0  0  0  0  0  0
   -6.3487   -2.7139   -0.2055 H   0  0  0  0  0  0  0  0  0  0  0  0
   -5.6486   -0.6440    1.0837 H   0  0  0  0  0  0  0  0  0  0  0  0
   -9.7286   -6.1769   -0.4910 C   0  0  0  0  0  0  0  0  0  0  0  0
  -10.4259   -7.3529   -0.2200 C   0  0  0  0  0  0  0  0  0  0  0  0
   -9.9523   -8.5954   -0.6646 C   0  0  0  0  0  0  0  0  0  0  0  0
   -8.7555   -8.6261   -1.3928 C   0  0  0  0  0  0  0  0  0  0  0  0
   -8.0492   -7.4559   -1.6702 C   0  0  0  0  0  0  0  0  0  0  0  0
   -8.5379   -6.2299   -1.2179 C   0  0  0  0  0  0  0  0  0  0  0  0
  -10.0912   -5.2188   -0.1341 H   0  0  0  0  0  0  0  0  0  0  0  0
  -11.3543   -7.3067    0.3451 H   0  0  0  0  0  0  0  0  0  0  0  0
   -8.3708   -9.5798   -1.7473 H   0  0  0  0  0  0  0  0  0  0  0  0
   -7.1161   -7.4820   -2.2221 H   0  0  0  0  0  0  0  0  0  0  0  0
   -7.6769   -4.7048   -1.6384 S   0  0  0  0  0  0  0  0  0  0  0  0
   -7.8928   -3.8087   -0.4542 O   0  0  0  0  0  0  0  0  0  0  0  0
   -8.2759   -4.1905   -2.8898 O   0  0  0  0  0  0  0  0  0  0  0  0
   -6.2377   -5.1084   -1.7882 O   0  0  0  0  0  0  0  0  0  0  0  0
  -10.6951   -9.8700   -0.3390 C   0  0  0  0  0  0  0  0  0  0  0  0
  -10.3684  -10.2868    0.6227 H   0  0  0  0  0  0  0  0  0  0  0  0
  -11.7739   -9.6985   -0.2664 H   0  0  0  0  0  0  0  0  0  0  0  0
  -10.5240  -10.6387   -1.0993 H   0  0  0  0  0  0  0  0  0  0  0  0
  1  8  1  0  0  0  0
  1  2  1  0  0  0  0
  2  3  1  0  0  0  0
  4  1  2  0  0  0  0
  5  6  2  0  0  0  0
  5  4  1  0  0  0  0
  6  7  1  0  0  0  0
  7 12  1  0  0  0  0
  7  8  2  0  0  0  0
  8 13  1  0  0  0  0
  9  4  1  0  0  0  0
 10  5  1  0  0  0  0
 11  6  1  0  0  0  0
 14 15  1  0  0  0  0
 14 20  1  0  0  0  0
 15 21  1  0  0  0  0
 16 28  1  0  0  0  0
 16 15  2  0  0  0  0
 17 16  1  0  0  0  0
 18 17  2  0  0  0  0
 18 19  1  0  0  0  0
 19 14  2  0  0  0  0
 22 17  1  0  0  0  0
 23 18  1  0  0  0  0
 24 19  1  0  0  0  0
 24 25  1  0  0  0  0
 26 24  2  0  0  0  0
 27 24  2  0  0  0  0
 28 30  1  0  0  0  0
 28 29  1  0  0  0  0
 31 28  1  0  0  0  0
M  RAD  3   2   2   3   3  25   2
M  END
