Coordinates from ORCA-job PhN2+~TsO-_B3LYPG-6-31G_dp-NX-Scan-d89-09-n800
 OpenBabel11261920463D

 31 32  0  0  0  0  0  0  0  0999 V2000
   -5.0023   -2.5772   -0.8774 C   0  0  0  0  0  0  0  0  0  0  0  0
   -6.4208   -2.6411   -0.9765 N   0  0  0  0  0  0  0  0  0  0  0  0
   -7.2026   -3.3225   -0.2939 N   0  0  0  0  0  0  0  0  0  0  0  0
   -4.4548   -1.7501   -1.8771 C   0  0  0  0  0  0  0  0  0  0  0  0
   -3.0838   -1.5356   -1.9614 C   0  0  0  0  0  0  0  0  0  0  0  0
   -2.2306   -2.1415   -1.0364 C   0  0  0  0  0  0  0  0  0  0  0  0
   -2.7614   -2.9586   -0.0363 C   0  0  0  0  0  0  0  0  0  0  0  0
   -4.1344   -3.1867    0.0545 C   0  0  0  0  0  0  0  0  0  0  0  0
   -5.1416   -1.2859   -2.5767 H   0  0  0  0  0  0  0  0  0  0  0  0
   -2.6819   -0.8958   -2.7416 H   0  0  0  0  0  0  0  0  0  0  0  0
   -1.1583   -1.9753   -1.0915 H   0  0  0  0  0  0  0  0  0  0  0  0
   -2.1010   -3.4287    0.6865 H   0  0  0  0  0  0  0  0  0  0  0  0
   -4.5162   -3.8208    0.8395 H   0  0  0  0  0  0  0  0  0  0  0  0
   -9.7735   -5.4339   -0.3064 C   0  0  0  0  0  0  0  0  0  0  0  0
  -10.4069   -6.2442   -1.2442 C   0  0  0  0  0  0  0  0  0  0  0  0
   -9.9486   -7.5434   -1.5116 C   0  0  0  0  0  0  0  0  0  0  0  0
   -8.8277   -8.0180   -0.8142 C   0  0  0  0  0  0  0  0  0  0  0  0
   -8.1765   -7.2257    0.1274 C   0  0  0  0  0  0  0  0  0  0  0  0
   -8.6611   -5.9387    0.3706 C   0  0  0  0  0  0  0  0  0  0  0  0
  -10.1280   -4.4321   -0.0966 H   0  0  0  0  0  0  0  0  0  0  0  0
  -11.2728   -5.8618   -1.7772 H   0  0  0  0  0  0  0  0  0  0  0  0
   -8.4614   -9.0215   -1.0101 H   0  0  0  0  0  0  0  0  0  0  0  0
   -7.3154   -7.5950    0.6733 H   0  0  0  0  0  0  0  0  0  0  0  0
   -7.8380   -4.9249    1.5742 S   0  0  0  0  0  0  0  0  0  0  0  0
   -8.7542   -3.9203    2.0895 O   0  0  0  0  0  0  0  0  0  0  0  0
   -6.6485   -4.1042    0.6292 O   0  0  0  0  0  0  0  0  0  0  0  0
   -6.9927   -5.7421    2.4307 O   0  0  0  0  0  0  0  0  0  0  0  0
  -10.6659   -8.4214   -2.5071 C   0  0  0  0  0  0  0  0  0  0  0  0
  -11.4835   -8.9696   -2.0230 H   0  0  0  0  0  0  0  0  0  0  0  0
  -11.1048   -7.8321   -3.3169 H   0  0  0  0  0  0  0  0  0  0  0  0
   -9.9925   -9.1619   -2.9479 H   0  0  0  0  0  0  0  0  0  0  0  0
  1  8  2  0  0  0  0
  2  1  1  0  0  0  0
  2  3  2  0  0  0  0
  3 26  1  0  0  0  0
  4  1  1  0  0  0  0
  5  4  2  0  0  0  0
  5  6  1  0  0  0  0
  6  7  2  0  0  0  0
  7  8  1  0  0  0  0
  7 12  1  0  0  0  0
  8 13  1  0  0  0  0
  9  4  1  0  0  0  0
 10  5  1  0  0  0  0
 11  6  1  0  0  0  0
 14 20  1  0  0  0  0
 14 19  2  0  0  0  0
 15 14  1  0  0  0  0
 16 15  2  0  0  0  0
 16 17  1  0  0  0  0
 17 18  2  0  0  0  0
 18 19  1  0  0  0  0
 18 23  1  0  0  0  0
 19 24  1  0  0  0  0
 21 15  1  0  0  0  0
 22 17  1  0  0  0  0
 24 25  2  0  0  0  0
 24 27  2  0  0  0  0
 26 24  1  0  0  0  0
 28 29  1  0  0  0  0
 28 16  1  0  0  0  0
 30 28  1  0  0  0  0
 31 28  1  0  0  0  0
M  END
