Coordinates from ORCA-job PhN2+~TsO-_B3LYPG-6-31G_dp-NX-Scan-d89-09-n800
 OpenBabel11261920463D

 31 32  0  0  1  0  0  0  0  0999 V2000
   -5.3502   -1.3517   -0.7231 C   0  0  2  0  0  0  0  0  0  0  0  0
   -6.4939   -0.7303   -0.8579 N   0  0  0  0  0  0  0  0  0  0  0  0
   -7.5260   -0.2610   -0.9710 N   0  0  0  0  0  0  0  0  0  0  0  0
   -4.7989   -2.0522   -1.8765 C   0  0  0  0  0  0  0  0  0  0  0  0
   -4.1963   -3.2330   -1.6525 C   0  0  0  0  0  0  0  0  0  0  0  0
   -4.3672   -3.8423   -0.2957 C   0  0  1  0  0  0  0  0  0  0  0  0
   -4.2543   -2.8315    0.8055 C   0  0  0  0  0  0  0  0  0  0  0  0
   -4.8584   -1.6455    0.6181 C   0  0  0  0  0  0  0  0  0  0  0  0
   -4.8779   -1.6031   -2.8621 H   0  0  0  0  0  0  0  0  0  0  0  0
   -3.7035   -3.7925   -2.4398 H   0  0  0  0  0  0  0  0  0  0  0  0
   -3.7544   -4.7285   -0.1355 H   0  0  0  0  0  0  0  0  0  0  0  0
   -3.8050   -3.1106    1.7520 H   0  0  0  0  0  0  0  0  0  0  0  0
   -4.9863   -0.9114    1.4078 H   0  0  0  0  0  0  0  0  0  0  0  0
   -8.8742   -5.6544   -0.0532 C   0  0  0  0  0  0  0  0  0  0  0  0
   -9.9024   -6.2723   -0.7584 C   0  0  0  0  0  0  0  0  0  0  0  0
   -9.6689   -7.4299   -1.5183 C   0  0  0  0  0  0  0  0  0  0  0  0
   -8.3713   -7.9572   -1.5527 C   0  0  0  0  0  0  0  0  0  0  0  0
   -7.3267   -7.3499   -0.8566 C   0  0  0  0  0  0  0  0  0  0  0  0
   -7.5894   -6.1989   -0.1155 C   0  0  0  0  0  0  0  0  0  0  0  0
   -9.0585   -4.7711    0.5481 H   0  0  0  0  0  0  0  0  0  0  0  0
  -10.9048   -5.8540   -0.7147 H   0  0  0  0  0  0  0  0  0  0  0  0
   -8.1763   -8.8589   -2.1265 H   0  0  0  0  0  0  0  0  0  0  0  0
   -6.3251   -7.7657   -0.8716 H   0  0  0  0  0  0  0  0  0  0  0  0
   -6.2639   -5.4176    0.7882 S   0  0  0  0  0  0  0  0  0  0  0  0
   -6.8272   -4.7309    1.9507 O   0  0  0  0  0  0  0  0  0  0  0  0
   -5.8173   -4.3144   -0.3361 O   0  0  0  0  0  0  0  0  0  0  0  0
   -5.1624   -6.3709    0.9655 O   0  0  0  0  0  0  0  0  0  0  0  0
  -10.7991   -8.0905   -2.2703 C   0  0  0  0  0  0  0  0  0  0  0  0
  -11.5922   -8.4141   -1.5868 H   0  0  0  0  0  0  0  0  0  0  0  0
  -11.2555   -7.3984   -2.9871 H   0  0  0  0  0  0  0  0  0  0  0  0
  -10.4541   -8.9679   -2.8229 H   0  0  0  0  0  0  0  0  0  0  0  0
  1  2  1  1  0  0  0
  1  8  1  0  0  0  0
  3  2  1  0  0  0  0
  4  5  2  0  0  0  0
  4  1  1  0  0  0  0
  5  6  1  0  0  0  0
  6 11  1  1  0  0  0
  6  7  1  0  0  0  0
  7 12  1  0  0  0  0
  8  7  2  0  0  0  0
  8 13  1  0  0  0  0
  9  4  1  0  0  0  0
 10  5  1  0  0  0  0
 14 20  1  0  0  0  0
 15 21  1  0  0  0  0
 15 14  2  0  0  0  0
 16 15  1  0  0  0  0
 17 16  2  0  0  0  0
 17 18  1  0  0  0  0
 18 19  2  0  0  0  0
 19 14  1  0  0  0  0
 19 24  1  0  0  0  0
 22 17  1  0  0  0  0
 23 18  1  0  0  0  0
 24 27  2  0  0  0  0
 24 25  2  0  0  0  0
 26  6  1  0  0  0  0
 26 24  1  0  0  0  0
 28 29  1  0  0  0  0
 28 16  1  0  0  0  0
 30 28  1  0  0  0  0
 31 28  1  0  0  0  0
M  RAD  3   1   2   2   2   3   3
M  END
