Coordinates from ORCA-job PhN2+~TsO-_B3LYPG-6-31G_dp-NX-Scan-d89-09-n800
 OpenBabel11261920463D

 31 32  0  0  1  0  0  0  0  0999 V2000
   -5.3905   -1.3612   -0.6645 C   0  0  2  0  0  0  0  0  0  0  0  0
   -6.6640   -1.6917   -0.5717 N   0  0  0  0  0  0  0  0  0  0  0  0
   -7.6891   -2.1706   -0.4807 N   0  0  0  0  0  0  0  0  0  0  0  0
   -4.7823   -1.9661   -1.8910 C   0  0  0  0  0  0  0  0  0  0  0  0
   -4.2096   -3.1651   -1.7232 C   0  0  0  0  0  0  0  0  0  0  0  0
   -4.3929   -3.8043   -0.3699 C   0  0  1  0  0  0  0  0  0  0  0  0
   -4.0929   -2.8191    0.7350 C   0  0  0  0  0  0  0  0  0  0  0  0
   -4.6713   -1.6159    0.6230 C   0  0  0  0  0  0  0  0  0  0  0  0
   -4.8359   -1.4516   -2.8462 H   0  0  0  0  0  0  0  0  0  0  0  0
   -3.6794   -3.6932   -2.5098 H   0  0  0  0  0  0  0  0  0  0  0  0
   -3.8706   -4.7529   -0.2584 H   0  0  0  0  0  0  0  0  0  0  0  0
   -3.4904   -3.1214    1.5862 H   0  0  0  0  0  0  0  0  0  0  0  0
   -4.6582   -0.8640    1.4066 H   0  0  0  0  0  0  0  0  0  0  0  0
   -8.9241   -5.4400   -0.2173 C   0  0  0  0  0  0  0  0  0  0  0  0
   -9.9135   -6.1050   -0.9356 C   0  0  0  0  0  0  0  0  0  0  0  0
   -9.6609   -7.3411   -1.5511 C   0  0  0  0  0  0  0  0  0  0  0  0
   -8.3807   -7.8981   -1.4319 C   0  0  0  0  0  0  0  0  0  0  0  0
   -7.3738   -7.2462   -0.7214 C   0  0  0  0  0  0  0  0  0  0  0  0
   -7.6567   -6.0190   -0.1227 C   0  0  0  0  0  0  0  0  0  0  0  0
   -9.1243   -4.4890    0.2615 H   0  0  0  0  0  0  0  0  0  0  0  0
  -10.9010   -5.6582   -1.0182 H   0  0  0  0  0  0  0  0  0  0  0  0
   -8.1685   -8.8568   -1.8966 H   0  0  0  0  0  0  0  0  0  0  0  0
   -6.3862   -7.6822   -0.6190 H   0  0  0  0  0  0  0  0  0  0  0  0
   -6.3774   -5.1908    0.8045 S   0  0  0  0  0  0  0  0  0  0  0  0
   -6.9865   -4.4641    1.9158 O   0  0  0  0  0  0  0  0  0  0  0  0
   -5.8878   -4.0975   -0.3276 O   0  0  0  0  0  0  0  0  0  0  0  0
   -5.2756   -6.1276    1.0494 O   0  0  0  0  0  0  0  0  0  0  0  0
  -10.7551   -8.0620   -2.3003 C   0  0  0  0  0  0  0  0  0  0  0  0
  -11.4462   -8.5551   -1.6055 H   0  0  0  0  0  0  0  0  0  0  0  0
  -11.3471   -7.3687   -2.9062 H   0  0  0  0  0  0  0  0  0  0  0  0
  -10.3494   -8.8322   -2.9618 H   0  0  0  0  0  0  0  0  0  0  0  0
  1  2  1  1  0  0  0
  1  8  1  0  0  0  0
  2  3  1  0  0  0  0
  4  5  2  0  0  0  0
  4  1  1  0  0  0  0
  5  6  1  0  0  0  0
  6 26  1  0  0  0  0
  6 11  1  1  0  0  0
  6  7  1  0  0  0  0
  7 12  1  0  0  0  0
  8  7  2  0  0  0  0
  8 13  1  0  0  0  0
  9  4  1  0  0  0  0
 10  5  1  0  0  0  0
 14 19  1  0  0  0  0
 14 20  1  0  0  0  0
 15 14  2  0  0  0  0
 16 17  2  0  0  0  0
 16 15  1  0  0  0  0
 17 18  1  0  0  0  0
 18 23  1  0  0  0  0
 18 19  2  0  0  0  0
 19 24  1  0  0  0  0
 21 15  1  0  0  0  0
 22 17  1  0  0  0  0
 24 27  2  0  0  0  0
 24 25  2  0  0  0  0
 26 24  1  0  0  0  0
 28 29  1  0  0  0  0
 28 16  1  0  0  0  0
 30 28  1  0  0  0  0
 31 28  1  0  0  0  0
M  RAD  3   1   2   2   2   3   3
M  END
