Coordinates from ORCA-job PhN2+~TsO-_B3LYPG-6-31G_dp-NX-Scan-d89-09-n800
 OpenBabel11261920463D

 31 31  0  0  0  0  0  0  0  0999 V2000
   -3.6620   -0.6639    0.2116 C   0  0  0  0  0  0  0  0  0  0  0  0
   -3.2833    0.4408    0.9017 N   0  0  0  0  0  0  0  0  0  0  0  0
   -2.9873    1.3539    1.4875 N   0  0  0  0  0  0  0  0  0  0  0  0
   -2.7201   -1.2710   -0.6571 C   0  0  0  0  0  0  0  0  0  0  0  0
   -3.1353   -2.3926   -1.3498 C   0  0  0  0  0  0  0  0  0  0  0  0
   -4.4435   -2.8866   -1.1961 C   0  0  0  0  0  0  0  0  0  0  0  0
   -5.3583   -2.2718   -0.3181 C   0  0  0  0  0  0  0  0  0  0  0  0
   -4.9821   -1.1533    0.3994 C   0  0  0  0  0  0  0  0  0  0  0  0
   -1.7245   -0.8552   -0.7632 H   0  0  0  0  0  0  0  0  0  0  0  0
   -2.4447   -2.8854   -2.0264 H   0  0  0  0  0  0  0  0  0  0  0  0
   -4.8102   -3.7609   -1.7392 H   0  0  0  0  0  0  0  0  0  0  0  0
   -6.3651   -2.7030   -0.2318 H   0  0  0  0  0  0  0  0  0  0  0  0
   -5.6569   -0.6529    1.0859 H   0  0  0  0  0  0  0  0  0  0  0  0
   -9.7280   -6.1686   -0.5020 C   0  0  0  0  0  0  0  0  0  0  0  0
  -10.4169   -7.3459   -0.2152 C   0  0  0  0  0  0  0  0  0  0  0  0
   -9.9398   -8.5898   -0.6520 C   0  0  0  0  0  0  0  0  0  0  0  0
   -8.7479   -8.6206   -1.3883 C   0  0  0  0  0  0  0  0  0  0  0  0
   -8.0501   -7.4493   -1.6815 C   0  0  0  0  0  0  0  0  0  0  0  0
   -8.5423   -6.2218   -1.2371 C   0  0  0  0  0  0  0  0  0  0  0  0
  -10.0934   -5.2092   -0.1516 H   0  0  0  0  0  0  0  0  0  0  0  0
  -11.3415   -7.2995    0.3560 H   0  0  0  0  0  0  0  0  0  0  0  0
   -8.3605   -9.5754   -1.7369 H   0  0  0  0  0  0  0  0  0  0  0  0
   -7.1209   -7.4756   -2.2400 H   0  0  0  0  0  0  0  0  0  0  0  0
   -7.6936   -4.6959   -1.6796 S   0  0  0  0  0  0  0  0  0  0  0  0
   -7.9128   -3.7860   -0.5066 O   0  0  0  0  0  0  0  0  0  0  0  0
   -8.3000   -4.2034   -2.9360 O   0  0  0  0  0  0  0  0  0  0  0  0
   -6.2520   -5.0913   -1.8279 O   0  0  0  0  0  0  0  0  0  0  0  0
  -10.6737   -9.8654   -0.3102 C   0  0  0  0  0  0  0  0  0  0  0  0
  -10.3394  -10.2716    0.6533 H   0  0  0  0  0  0  0  0  0  0  0  0
  -11.7530   -9.6991   -0.2332 H   0  0  0  0  0  0  0  0  0  0  0  0
  -10.5027  -10.6401   -1.0645 H   0  0  0  0  0  0  0  0  0  0  0  0
  1  8  1  0  0  0  0
  1  2  1  0  0  0  0
  2  3  1  0  0  0  0
  4  1  2  0  0  0  0
  5  6  2  0  0  0  0
  5  4  1  0  0  0  0
  6  7  1  0  0  0  0
  7 12  1  0  0  0  0
  7  8  2  0  0  0  0
  8 13  1  0  0  0  0
  9  4  1  0  0  0  0
 10  5  1  0  0  0  0
 11  6  1  0  0  0  0
 14 15  1  0  0  0  0
 14 20  1  0  0  0  0
 15 21  1  0  0  0  0
 16 28  1  0  0  0  0
 16 15  2  0  0  0  0
 17 16  1  0  0  0  0
 18 17  2  0  0  0  0
 18 19  1  0  0  0  0
 19 14  2  0  0  0  0
 22 17  1  0  0  0  0
 23 18  1  0  0  0  0
 24 19  1  0  0  0  0
 24 25  1  0  0  0  0
 26 24  2  0  0  0  0
 27 24  2  0  0  0  0
 28 30  1  0  0  0  0
 28 29  1  0  0  0  0
 31 28  1  0  0  0  0
M  RAD  3   2   2   3   3  25   2
M  END
