Coordinates from ORCA-job PhN2+~TsO-_B3LYPG-6-31G_dp-NX-Scan-d89-09-n800
 OpenBabel11261920463D

 31 32  0  0  1  0  0  0  0  0999 V2000
   -5.3576   -1.3511   -0.7161 C   0  0  2  0  0  0  0  0  0  0  0  0
   -6.6198   -1.7321   -0.5958 N   0  0  0  0  0  0  0  0  0  0  0  0
   -7.5814   -2.3200   -0.4691 N   0  0  0  0  0  0  0  0  0  0  0  0
   -4.7591   -2.0113   -1.9221 C   0  0  0  0  0  0  0  0  0  0  0  0
   -4.2210   -3.2198   -1.7105 C   0  0  0  0  0  0  0  0  0  0  0  0
   -4.4148   -3.8032   -0.3341 C   0  0  1  0  0  0  0  0  0  0  0  0
   -4.0837   -2.7857    0.7311 C   0  0  0  0  0  0  0  0  0  0  0  0
   -4.6304   -1.5716    0.5764 C   0  0  0  0  0  0  0  0  0  0  0  0
   -4.7989   -1.5308   -2.8955 H   0  0  0  0  0  0  0  0  0  0  0  0
   -3.7044   -3.7901   -2.4768 H   0  0  0  0  0  0  0  0  0  0  0  0
   -3.9200   -4.7616   -0.1895 H   0  0  0  0  0  0  0  0  0  0  0  0
   -3.4819   -3.0713    1.5888 H   0  0  0  0  0  0  0  0  0  0  0  0
   -4.5907   -0.7912    1.3307 H   0  0  0  0  0  0  0  0  0  0  0  0
   -8.9704   -5.4550   -0.1645 C   0  0  0  0  0  0  0  0  0  0  0  0
   -9.9473   -6.1228   -0.8994 C   0  0  0  0  0  0  0  0  0  0  0  0
   -9.6640   -7.3256   -1.5629 C   0  0  0  0  0  0  0  0  0  0  0  0
   -8.3652   -7.8477   -1.4758 C   0  0  0  0  0  0  0  0  0  0  0  0
   -7.3725   -7.1933   -0.7501 C   0  0  0  0  0  0  0  0  0  0  0  0
   -7.6860   -5.9973   -0.1028 C   0  0  0  0  0  0  0  0  0  0  0  0
   -9.1947   -4.5300    0.3530 H   0  0  0  0  0  0  0  0  0  0  0  0
  -10.9485   -5.7040   -0.9558 H   0  0  0  0  0  0  0  0  0  0  0  0
   -8.1288   -8.7818   -1.9780 H   0  0  0  0  0  0  0  0  0  0  0  0
   -6.3721   -7.6042   -0.6710 H   0  0  0  0  0  0  0  0  0  0  0  0
   -6.4220   -5.1665    0.8439 S   0  0  0  0  0  0  0  0  0  0  0  0
   -7.0484   -4.4577    1.9569 O   0  0  0  0  0  0  0  0  0  0  0  0
   -5.9274   -4.0495   -0.2640 O   0  0  0  0  0  0  0  0  0  0  0  0
   -5.3178   -6.1008    1.0891 O   0  0  0  0  0  0  0  0  0  0  0  0
  -10.7398   -8.0603   -2.3254 C   0  0  0  0  0  0  0  0  0  0  0  0
  -11.2409   -8.7953   -1.6833 H   0  0  0  0  0  0  0  0  0  0  0  0
  -11.5070   -7.3751   -2.6967 H   0  0  0  0  0  0  0  0  0  0  0  0
  -10.3253   -8.6040   -3.1792 H   0  0  0  0  0  0  0  0  0  0  0  0
  1  2  1  1  0  0  0
  1  8  1  0  0  0  0
  2  3  1  0  0  0  0
  4  5  2  0  0  0  0
  4  1  1  0  0  0  0
  5  6  1  0  0  0  0
  6 26  1  0  0  0  0
  6 11  1  1  0  0  0
  6  7  1  0  0  0  0
  7 12  1  0  0  0  0
  8  7  2  0  0  0  0
  8 13  1  0  0  0  0
  9  4  1  0  0  0  0
 10  5  1  0  0  0  0
 14 19  1  0  0  0  0
 14 20  1  0  0  0  0
 15 14  2  0  0  0  0
 16 17  2  0  0  0  0
 16 15  1  0  0  0  0
 17 18  1  0  0  0  0
 18 23  1  0  0  0  0
 18 19  2  0  0  0  0
 19 24  1  0  0  0  0
 21 15  1  0  0  0  0
 22 17  1  0  0  0  0
 24 27  2  0  0  0  0
 24 25  2  0  0  0  0
 26 24  1  0  0  0  0
 28 29  1  0  0  0  0
 28 16  1  0  0  0  0
 30 28  1  0  0  0  0
 31 28  1  0  0  0  0
M  RAD  3   1   2   2   2   3   3
M  END
