Coordinates from ORCA-job PhN2+~TsO-_B3LYPG-6-31G_dp-NX-Scan-d89-09-n800
 OpenBabel11261920463D

 31 31  0  0  0  0  0  0  0  0999 V2000
   -3.6871   -0.5109    0.0220 C   0  0  0  0  0  0  0  0  0  0  0  0
   -3.3807    0.7088    0.5303 N   0  0  0  0  0  0  0  0  0  0  0  0
   -3.1499    1.7193    0.9656 N   0  0  0  0  0  0  0  0  0  0  0  0
   -2.7577   -1.1323   -0.8498 C   0  0  0  0  0  0  0  0  0  0  0  0
   -3.1077   -2.3663   -1.3647 C   0  0  0  0  0  0  0  0  0  0  0  0
   -4.3405   -2.9580   -1.0345 C   0  0  0  0  0  0  0  0  0  0  0  0
   -5.2421   -2.3248   -0.1556 C   0  0  0  0  0  0  0  0  0  0  0  0
   -4.9297   -1.0935    0.3858 C   0  0  0  0  0  0  0  0  0  0  0  0
   -1.8222   -0.6422   -1.0945 H   0  0  0  0  0  0  0  0  0  0  0  0
   -2.4259   -2.8729   -2.0399 H   0  0  0  0  0  0  0  0  0  0  0  0
   -4.6620   -3.9162   -1.4493 H   0  0  0  0  0  0  0  0  0  0  0  0
   -6.1960   -2.8223    0.0651 H   0  0  0  0  0  0  0  0  0  0  0  0
   -5.6003   -0.5725    1.0608 H   0  0  0  0  0  0  0  0  0  0  0  0
   -9.6965   -6.2415   -0.3683 C   0  0  0  0  0  0  0  0  0  0  0  0
  -10.4681   -7.3943   -0.2370 C   0  0  0  0  0  0  0  0  0  0  0  0
  -10.0426   -8.6169   -0.7767 C   0  0  0  0  0  0  0  0  0  0  0  0
   -8.8178   -8.6509   -1.4558 C   0  0  0  0  0  0  0  0  0  0  0  0
   -8.0369   -7.5029   -1.5941 C   0  0  0  0  0  0  0  0  0  0  0  0
   -8.4782   -6.2977   -1.0487 C   0  0  0  0  0  0  0  0  0  0  0  0
  -10.0225   -5.3010    0.0630 H   0  0  0  0  0  0  0  0  0  0  0  0
  -11.4166   -7.3462    0.2932 H   0  0  0  0  0  0  0  0  0  0  0  0
   -8.4695   -9.5894   -1.8814 H   0  0  0  0  0  0  0  0  0  0  0  0
   -7.0825   -7.5316   -2.1080 H   0  0  0  0  0  0  0  0  0  0  0  0
   -7.5173   -4.7933   -1.2832 S   0  0  0  0  0  0  0  0  0  0  0  0
   -7.6885   -4.0315   -0.0015 O   0  0  0  0  0  0  0  0  0  0  0  0
   -8.0686   -4.0903   -2.4646 O   0  0  0  0  0  0  0  0  0  0  0  0
   -6.1053   -5.2654   -1.4780 O   0  0  0  0  0  0  0  0  0  0  0  0
  -10.8695   -9.8692   -0.6012 C   0  0  0  0  0  0  0  0  0  0  0  0
  -10.6569  -10.3565    0.3598 H   0  0  0  0  0  0  0  0  0  0  0  0
  -11.9418   -9.6479   -0.6189 H   0  0  0  0  0  0  0  0  0  0  0  0
  -10.6607  -10.6003   -1.3885 H   0  0  0  0  0  0  0  0  0  0  0  0
  1  8  1  0  0  0  0
  1  2  1  0  0  0  0
  2  3  1  0  0  0  0
  4  1  2  0  0  0  0
  5  6  2  0  0  0  0
  5  4  1  0  0  0  0
  6  7  1  0  0  0  0
  7 12  1  0  0  0  0
  7  8  2  0  0  0  0
  8 13  1  0  0  0  0
  9  4  1  0  0  0  0
 10  5  1  0  0  0  0
 11  6  1  0  0  0  0
 14 15  1  0  0  0  0
 14 20  1  0  0  0  0
 15 21  1  0  0  0  0
 16 28  1  0  0  0  0
 16 15  2  0  0  0  0
 17 16  1  0  0  0  0
 18 17  2  0  0  0  0
 18 19  1  0  0  0  0
 19 14  2  0  0  0  0
 22 17  1  0  0  0  0
 23 18  1  0  0  0  0
 24 19  1  0  0  0  0
 24 25  1  0  0  0  0
 26 24  2  0  0  0  0
 27 24  2  0  0  0  0
 28 29  1  0  0  0  0
 30 28  1  0  0  0  0
 31 28  1  0  0  0  0
M  RAD  3   2   2   3   3  25   2
M  END
