Coordinates from ORCA-job PhN2+~TsO-_B3LYPG-6-31G_dp-NX-Scan-d89-09-n800
 OpenBabel11261920463D

 31 32  0  0  1  0  0  0  0  0999 V2000
   -5.4043   -1.3676   -0.6513 C   0  0  2  0  0  0  0  0  0  0  0  0
   -6.6838   -1.6707   -0.5692 N   0  0  0  0  0  0  0  0  0  0  0  0
   -7.7294   -2.1066   -0.4896 N   0  0  0  0  0  0  0  0  0  0  0  0
   -4.7926   -1.9568   -1.8815 C   0  0  0  0  0  0  0  0  0  0  0  0
   -4.2038   -3.1494   -1.7244 C   0  0  0  0  0  0  0  0  0  0  0  0
   -4.3820   -3.8043   -0.3783 C   0  0  1  0  0  0  0  0  0  0  0  0
   -4.0982   -2.8270    0.7376 C   0  0  0  0  0  0  0  0  0  0  0  0
   -4.6916   -1.6303    0.6361 C   0  0  0  0  0  0  0  0  0  0  0  0
   -4.8540   -1.4353   -2.8324 H   0  0  0  0  0  0  0  0  0  0  0  0
   -3.6679   -3.6637   -2.5163 H   0  0  0  0  0  0  0  0  0  0  0  0
   -3.8481   -4.7473   -0.2745 H   0  0  0  0  0  0  0  0  0  0  0  0
   -3.4968   -3.1309    1.5890 H   0  0  0  0  0  0  0  0  0  0  0  0
   -4.6930   -0.8876    1.4286 H   0  0  0  0  0  0  0  0  0  0  0  0
   -8.9024   -5.4330   -0.2390 C   0  0  0  0  0  0  0  0  0  0  0  0
   -9.8979   -6.0944   -0.9519 C   0  0  0  0  0  0  0  0  0  0  0  0
   -9.6604   -7.3436   -1.5471 C   0  0  0  0  0  0  0  0  0  0  0  0
   -8.3891   -7.9170   -1.4132 C   0  0  0  0  0  0  0  0  0  0  0  0
   -7.3759   -7.2687   -0.7080 C   0  0  0  0  0  0  0  0  0  0  0  0
   -7.6439   -6.0289   -0.1293 C   0  0  0  0  0  0  0  0  0  0  0  0
   -9.0912   -4.4717    0.2237 H   0  0  0  0  0  0  0  0  0  0  0  0
  -10.8783   -5.6346   -1.0463 H   0  0  0  0  0  0  0  0  0  0  0  0
   -8.1886   -8.8856   -1.8624 H   0  0  0  0  0  0  0  0  0  0  0  0
   -6.3947   -7.7166   -0.5950 H   0  0  0  0  0  0  0  0  0  0  0  0
   -6.3576   -5.2050    0.7917 S   0  0  0  0  0  0  0  0  0  0  0  0
   -6.9590   -4.4742    1.9046 O   0  0  0  0  0  0  0  0  0  0  0  0
   -5.8708   -4.1180   -0.3469 O   0  0  0  0  0  0  0  0  0  0  0  0
   -5.2573   -6.1443    1.0334 O   0  0  0  0  0  0  0  0  0  0  0  0
  -10.7614   -8.0587   -2.2918 C   0  0  0  0  0  0  0  0  0  0  0  0
  -11.4817   -8.5033   -1.5941 H   0  0  0  0  0  0  0  0  0  0  0  0
  -11.3191   -7.3707   -2.9354 H   0  0  0  0  0  0  0  0  0  0  0  0
  -10.3668   -8.8651   -2.9155 H   0  0  0  0  0  0  0  0  0  0  0  0
  1  2  1  1  0  0  0
  1  8  1  0  0  0  0
  2  3  1  0  0  0  0
  4  5  2  0  0  0  0
  4  1  1  0  0  0  0
  5  6  1  0  0  0  0
  6 26  1  0  0  0  0
  6 11  1  1  0  0  0
  6  7  1  0  0  0  0
  7 12  1  0  0  0  0
  8  7  2  0  0  0  0
  8 13  1  0  0  0  0
  9  4  1  0  0  0  0
 10  5  1  0  0  0  0
 14 19  1  0  0  0  0
 14 20  1  0  0  0  0
 15 14  2  0  0  0  0
 16 17  2  0  0  0  0
 16 15  1  0  0  0  0
 17 18  1  0  0  0  0
 18 23  1  0  0  0  0
 18 19  2  0  0  0  0
 19 24  1  0  0  0  0
 21 15  1  0  0  0  0
 22 17  1  0  0  0  0
 24 27  2  0  0  0  0
 24 25  2  0  0  0  0
 26 24  1  0  0  0  0
 28 29  1  0  0  0  0
 28 16  1  0  0  0  0
 30 28  1  0  0  0  0
 31 28  1  0  0  0  0
M  RAD  3   1   2   2   2   3   3
M  END
