Coordinates from ORCA-job PhN2+~TsO-_B3LYPG-6-31G_dp-NX-Scan-d89-09-n800
 OpenBabel11261920463D

 31 32  0  0  1  0  0  0  0  0999 V2000
   -5.3641   -1.3321   -0.7789 C   0  0  2  0  0  0  0  0  0  0  0  0
   -6.4262   -0.6016   -1.0044 N   0  0  0  0  0  0  0  0  0  0  0  0
   -7.3896   -0.0238   -1.1976 N   0  0  0  0  0  0  0  0  0  0  0  0
   -4.7755   -2.0778   -1.8803 C   0  0  0  0  0  0  0  0  0  0  0  0
   -4.1792   -3.2489   -1.5947 C   0  0  0  0  0  0  0  0  0  0  0  0
   -4.3787   -3.8183   -0.2262 C   0  0  1  0  0  0  0  0  0  0  0  0
   -4.3581   -2.7746    0.8475 C   0  0  0  0  0  0  0  0  0  0  0  0
   -4.9568   -1.5979    0.5926 C   0  0  0  0  0  0  0  0  0  0  0  0
   -4.8188   -1.6661   -2.8842 H   0  0  0  0  0  0  0  0  0  0  0  0
   -3.6700   -3.8355   -2.3512 H   0  0  0  0  0  0  0  0  0  0  0  0
   -3.7332   -4.6705   -0.0155 H   0  0  0  0  0  0  0  0  0  0  0  0
   -3.9785   -3.0243    1.8319 H   0  0  0  0  0  0  0  0  0  0  0  0
   -5.1354   -0.8471    1.3562 H   0  0  0  0  0  0  0  0  0  0  0  0
   -8.8417   -5.7291    0.0199 C   0  0  0  0  0  0  0  0  0  0  0  0
   -9.8918   -6.3147   -0.6803 C   0  0  0  0  0  0  0  0  0  0  0  0
   -9.6808   -7.4286   -1.5091 C   0  0  0  0  0  0  0  0  0  0  0  0
   -8.3830   -7.9452   -1.6181 C   0  0  0  0  0  0  0  0  0  0  0  0
   -7.3167   -7.3695   -0.9283 C   0  0  0  0  0  0  0  0  0  0  0  0
   -7.5576   -6.2614   -0.1175 C   0  0  0  0  0  0  0  0  0  0  0  0
   -9.0082   -4.8803    0.6742 H   0  0  0  0  0  0  0  0  0  0  0  0
  -10.8939   -5.9061   -0.5782 H   0  0  0  0  0  0  0  0  0  0  0  0
   -8.2049   -8.8136   -2.2464 H   0  0  0  0  0  0  0  0  0  0  0  0
   -6.3143   -7.7769   -1.0016 H   0  0  0  0  0  0  0  0  0  0  0  0
   -6.2039   -5.5220    0.7789 S   0  0  0  0  0  0  0  0  0  0  0  0
   -6.7251   -4.9007    1.9972 O   0  0  0  0  0  0  0  0  0  0  0  0
   -5.8033   -4.3618   -0.3032 O   0  0  0  0  0  0  0  0  0  0  0  0
   -5.0933   -6.4770    0.8679 O   0  0  0  0  0  0  0  0  0  0  0  0
  -10.8341   -8.0555   -2.2548 C   0  0  0  0  0  0  0  0  0  0  0  0
  -11.5984   -8.4254   -1.5619 H   0  0  0  0  0  0  0  0  0  0  0  0
  -11.3225   -7.3278   -2.9128 H   0  0  0  0  0  0  0  0  0  0  0  0
  -10.5042   -8.8966   -2.8698 H   0  0  0  0  0  0  0  0  0  0  0  0
  1  2  1  1  0  0  0
  1  8  1  0  0  0  0
  3  2  1  0  0  0  0
  4  5  2  0  0  0  0
  4  1  1  0  0  0  0
  5  6  1  0  0  0  0
  6 11  1  1  0  0  0
  6  7  1  0  0  0  0
  7 12  1  0  0  0  0
  8  7  2  0  0  0  0
  8 13  1  0  0  0  0
  9  4  1  0  0  0  0
 10  5  1  0  0  0  0
 14 20  1  0  0  0  0
 15 21  1  0  0  0  0
 15 14  2  0  0  0  0
 16 15  1  0  0  0  0
 17 16  2  0  0  0  0
 17 18  1  0  0  0  0
 18 19  2  0  0  0  0
 19 14  1  0  0  0  0
 19 24  1  0  0  0  0
 22 17  1  0  0  0  0
 23 18  1  0  0  0  0
 24 27  2  0  0  0  0
 24 25  2  0  0  0  0
 26  6  1  0  0  0  0
 26 24  1  0  0  0  0
 28 29  1  0  0  0  0
 28 16  1  0  0  0  0
 30 28  1  0  0  0  0
 31 28  1  0  0  0  0
M  RAD  3   1   2   2   2   3   3
M  END
