Coordinates from ORCA-job PhN2+~TsO-_B3LYPG-6-31G_dp-NX-Scan-d89-09-n800
 OpenBabel11261920463D

 31 32  0  0  1  0  0  0  0  0999 V2000
   -5.3643   -1.3690   -0.8149 C   0  0  2  0  0  0  0  0  0  0  0  0
   -6.6182   -1.7236   -0.5089 N   0  0  0  0  0  0  0  0  0  0  0  0
   -7.4624   -2.4094   -0.1860 N   0  0  0  0  0  0  0  0  0  0  0  0
   -4.9336   -2.1871   -1.9913 C   0  0  0  0  0  0  0  0  0  0  0  0
   -4.4096   -3.3895   -1.7034 C   0  0  0  0  0  0  0  0  0  0  0  0
   -4.4670   -3.8103   -0.2641 C   0  0  1  0  0  0  0  0  0  0  0  0
   -3.9963   -2.7095    0.6419 C   0  0  0  0  0  0  0  0  0  0  0  0
   -4.5206   -1.4936    0.4142 C   0  0  0  0  0  0  0  0  0  0  0  0
   -5.0887   -1.8272   -3.0044 H   0  0  0  0  0  0  0  0  0  0  0  0
   -4.0069   -4.0631   -2.4539 H   0  0  0  0  0  0  0  0  0  0  0  0
   -4.0211   -4.7801   -0.0578 H   0  0  0  0  0  0  0  0  0  0  0  0
   -3.3205   -2.9289    1.4635 H   0  0  0  0  0  0  0  0  0  0  0  0
   -4.3908   -0.6494    1.0852 H   0  0  0  0  0  0  0  0  0  0  0  0
   -8.9923   -5.4834   -0.0777 C   0  0  0  0  0  0  0  0  0  0  0  0
   -9.9326   -6.1224   -0.8820 C   0  0  0  0  0  0  0  0  0  0  0  0
   -9.6009   -7.2691   -1.6192 C   0  0  0  0  0  0  0  0  0  0  0  0
   -8.2920   -7.7639   -1.5321 C   0  0  0  0  0  0  0  0  0  0  0  0
   -7.3351   -7.1366   -0.7368 C   0  0  0  0  0  0  0  0  0  0  0  0
   -7.6950   -5.9959   -0.0186 C   0  0  0  0  0  0  0  0  0  0  0  0
   -9.2548   -4.6031    0.4975 H   0  0  0  0  0  0  0  0  0  0  0  0
  -10.9429   -5.7257   -0.9362 H   0  0  0  0  0  0  0  0  0  0  0  0
   -8.0187   -8.6557   -2.0897 H   0  0  0  0  0  0  0  0  0  0  0  0
   -6.3269   -7.5283   -0.6583 H   0  0  0  0  0  0  0  0  0  0  0  0
   -6.4734   -5.1876    1.0042 S   0  0  0  0  0  0  0  0  0  0  0  0
   -7.1443   -4.5940    2.1569 O   0  0  0  0  0  0  0  0  0  0  0  0
   -6.0134   -3.9453    0.0204 O   0  0  0  0  0  0  0  0  0  0  0  0
   -5.3393   -6.1000    1.1881 O   0  0  0  0  0  0  0  0  0  0  0  0
  -10.6383   -7.9728   -2.4599 C   0  0  0  0  0  0  0  0  0  0  0  0
  -11.1835   -8.7170   -1.8662 H   0  0  0  0  0  0  0  0  0  0  0  0
  -11.3765   -7.2698   -2.8565 H   0  0  0  0  0  0  0  0  0  0  0  0
  -10.1818   -8.4995   -3.3026 H   0  0  0  0  0  0  0  0  0  0  0  0
  1  2  1  1  0  0  0
  1  8  1  0  0  0  0
  2  3  1  0  0  0  0
  4  5  2  0  0  0  0
  4  1  1  0  0  0  0
  5  6  1  0  0  0  0
  6 11  1  1  0  0  0
  6 26  1  0  0  0  0
  6  7  1  0  0  0  0
  7 12  1  0  0  0  0
  8  7  2  0  0  0  0
  8 13  1  0  0  0  0
  9  4  1  0  0  0  0
 10  5  1  0  0  0  0
 14 19  1  0  0  0  0
 14 20  1  0  0  0  0
 15 14  2  0  0  0  0
 16 17  2  0  0  0  0
 16 15  1  0  0  0  0
 17 18  1  0  0  0  0
 18 23  1  0  0  0  0
 18 19  2  0  0  0  0
 19 24  1  0  0  0  0
 21 15  1  0  0  0  0
 22 17  1  0  0  0  0
 24 27  2  0  0  0  0
 24 25  2  0  0  0  0
 26 24  1  0  0  0  0
 28 29  1  0  0  0  0
 28 16  1  0  0  0  0
 30 28  1  0  0  0  0
 31 28  1  0  0  0  0
M  RAD  3   1   2   2   2   3   3
M  END
