Coordinates from ORCA-job PhN2+~TsO-_B3LYPG-6-31G_dp-NX-Scan-d89-09-n800
 OpenBabel11261920463D

 31 32  0  0  1  0  0  0  0  0999 V2000
   -5.4959   -1.4192   -0.6444 C   0  0  2  0  0  0  0  0  0  0  0  0
   -6.8064   -1.3925   -0.6566 N   0  0  0  0  0  0  0  0  0  0  0  0
   -7.9424   -1.4732   -0.6601 N   0  0  0  0  0  0  0  0  0  0  0  0
   -4.8621   -1.9810   -1.8533 C   0  0  0  0  0  0  0  0  0  0  0  0
   -4.1658   -3.1166   -1.6929 C   0  0  0  0  0  0  0  0  0  0  0  0
   -4.3106   -3.8014   -0.3626 C   0  0  1  0  0  0  0  0  0  0  0  0
   -4.1751   -2.8258    0.7759 C   0  0  0  0  0  0  0  0  0  0  0  0
   -4.8712   -1.6844    0.6665 C   0  0  0  0  0  0  0  0  0  0  0  0
   -4.9746   -1.4768   -2.8089 H   0  0  0  0  0  0  0  0  0  0  0  0
   -3.5979   -3.5826   -2.4912 H   0  0  0  0  0  0  0  0  0  0  0  0
   -3.6867   -4.6876   -0.2533 H   0  0  0  0  0  0  0  0  0  0  0  0
   -3.6167   -3.0972    1.6656 H   0  0  0  0  0  0  0  0  0  0  0  0
   -4.9973   -0.9773    1.4810 H   0  0  0  0  0  0  0  0  0  0  0  0
   -8.7472   -5.4346   -0.3111 C   0  0  0  0  0  0  0  0  0  0  0  0
   -9.7894   -6.0456   -1.0010 C   0  0  0  0  0  0  0  0  0  0  0  0
   -9.6537   -7.3407   -1.5271 C   0  0  0  0  0  0  0  0  0  0  0  0
   -8.4362   -8.0101   -1.3502 C   0  0  0  0  0  0  0  0  0  0  0  0
   -7.3760   -7.4122   -0.6684 C   0  0  0  0  0  0  0  0  0  0  0  0
   -7.5439   -6.1277   -0.1557 C   0  0  0  0  0  0  0  0  0  0  0  0
   -8.8599   -4.4359    0.0963 H   0  0  0  0  0  0  0  0  0  0  0  0
  -10.7264   -5.5102   -1.1317 H   0  0  0  0  0  0  0  0  0  0  0  0
   -8.3141   -9.0131   -1.7492 H   0  0  0  0  0  0  0  0  0  0  0  0
   -6.4336   -7.9300   -0.5267 H   0  0  0  0  0  0  0  0  0  0  0  0
   -6.2023   -5.3658    0.7390 S   0  0  0  0  0  0  0  0  0  0  0  0
   -6.7422   -4.6577    1.8990 O   0  0  0  0  0  0  0  0  0  0  0  0
   -5.7540   -4.2733   -0.4008 O   0  0  0  0  0  0  0  0  0  0  0  0
   -5.1124   -6.3318    0.9133 O   0  0  0  0  0  0  0  0  0  0  0  0
  -10.8061   -7.9983   -2.2472 C   0  0  0  0  0  0  0  0  0  0  0  0
  -11.5798   -8.3170   -1.5384 H   0  0  0  0  0  0  0  0  0  0  0  0
  -11.2805   -7.3085   -2.9529 H   0  0  0  0  0  0  0  0  0  0  0  0
  -10.4811   -8.8824   -2.8015 H   0  0  0  0  0  0  0  0  0  0  0  0
  1  2  1  1  0  0  0
  1  8  1  0  0  0  0
  3  2  1  0  0  0  0
  4  5  2  0  0  0  0
  4  1  1  0  0  0  0
  5  6  1  0  0  0  0
  6 11  1  1  0  0  0
  6  7  1  0  0  0  0
  7 12  1  0  0  0  0
  8  7  2  0  0  0  0
  8 13  1  0  0  0  0
  9  4  1  0  0  0  0
 10  5  1  0  0  0  0
 14 19  1  0  0  0  0
 14 20  1  0  0  0  0
 15 14  2  0  0  0  0
 16 17  2  0  0  0  0
 16 15  1  0  0  0  0
 17 18  1  0  0  0  0
 18 23  1  0  0  0  0
 18 19  2  0  0  0  0
 19 24  1  0  0  0  0
 21 15  1  0  0  0  0
 22 17  1  0  0  0  0
 24 27  2  0  0  0  0
 24 25  2  0  0  0  0
 26  6  1  0  0  0  0
 26 24  1  0  0  0  0
 28 29  1  0  0  0  0
 28 16  1  0  0  0  0
 30 28  1  0  0  0  0
 31 28  1  0  0  0  0
M  RAD  3   1   2   2   2   3   3
M  END
