Coordinates from ORCA-job PhN2+~TsO-_B3LYPG-6-31G_dp-NX-Scan-d89-09-n800
 OpenBabel11261920463D

 31 32  0  0  1  0  0  0  0  0999 V2000
   -5.3561   -1.3715   -0.6858 C   0  0  2  0  0  0  0  0  0  0  0  0
   -6.5827   -0.9193   -0.7543 N   0  0  0  0  0  0  0  0  0  0  0  0
   -7.6782   -0.6121   -0.8085 N   0  0  0  0  0  0  0  0  0  0  0  0
   -4.8080   -2.0303   -1.8716 C   0  0  0  0  0  0  0  0  0  0  0  0
   -4.1931   -3.2105   -1.6855 C   0  0  0  0  0  0  0  0  0  0  0  0
   -4.3544   -3.8492   -0.3391 C   0  0  1  0  0  0  0  0  0  0  0  0
   -4.1887   -2.8610    0.7784 C   0  0  0  0  0  0  0  0  0  0  0  0
   -4.8045   -1.6757    0.6351 C   0  0  0  0  0  0  0  0  0  0  0  0
   -4.9047   -1.5545   -2.8431 H   0  0  0  0  0  0  0  0  0  0  0  0
   -3.6940   -3.7441   -2.4868 H   0  0  0  0  0  0  0  0  0  0  0  0
   -3.7634   -4.7547   -0.2087 H   0  0  0  0  0  0  0  0  0  0  0  0
   -3.6897   -3.1551    1.6952 H   0  0  0  0  0  0  0  0  0  0  0  0
   -4.9058   -0.9536    1.4397 H   0  0  0  0  0  0  0  0  0  0  0  0
   -8.8782   -5.5818   -0.1235 C   0  0  0  0  0  0  0  0  0  0  0  0
   -9.8955   -6.2161   -0.8297 C   0  0  0  0  0  0  0  0  0  0  0  0
   -9.6606   -7.4134   -1.5249 C   0  0  0  0  0  0  0  0  0  0  0  0
   -8.3722   -7.9627   -1.4944 C   0  0  0  0  0  0  0  0  0  0  0  0
   -7.3379   -7.3393   -0.7969 C   0  0  0  0  0  0  0  0  0  0  0  0
   -7.6020   -6.1498   -0.1199 C   0  0  0  0  0  0  0  0  0  0  0  0
   -9.0650   -4.6666    0.4270 H   0  0  0  0  0  0  0  0  0  0  0  0
  -10.8907   -5.7786   -0.8381 H   0  0  0  0  0  0  0  0  0  0  0  0
   -8.1758   -8.8938   -2.0184 H   0  0  0  0  0  0  0  0  0  0  0  0
   -6.3436   -7.7711   -0.7625 H   0  0  0  0  0  0  0  0  0  0  0  0
   -6.2900   -5.3474    0.7849 S   0  0  0  0  0  0  0  0  0  0  0  0
   -6.8726   -4.6230    1.9140 O   0  0  0  0  0  0  0  0  0  0  0  0
   -5.8175   -4.2767   -0.3617 O   0  0  0  0  0  0  0  0  0  0  0  0
   -5.1962   -6.2991    1.0096 O   0  0  0  0  0  0  0  0  0  0  0  0
  -10.7808   -8.0934   -2.2743 C   0  0  0  0  0  0  0  0  0  0  0  0
  -11.5709   -8.4218   -1.5893 H   0  0  0  0  0  0  0  0  0  0  0  0
  -11.2448   -7.4129   -2.9970 H   0  0  0  0  0  0  0  0  0  0  0  0
  -10.4243   -8.9716   -2.8184 H   0  0  0  0  0  0  0  0  0  0  0  0
  1  2  1  1  0  0  0
  1  8  1  0  0  0  0
  3  2  1  0  0  0  0
  4  5  2  0  0  0  0
  4  1  1  0  0  0  0
  5  6  1  0  0  0  0
  6 11  1  1  0  0  0
  6  7  1  0  0  0  0
  7 12  1  0  0  0  0
  8  7  2  0  0  0  0
  8 13  1  0  0  0  0
  9  4  1  0  0  0  0
 10  5  1  0  0  0  0
 14 19  1  0  0  0  0
 14 20  1  0  0  0  0
 15 14  2  0  0  0  0
 16 17  2  0  0  0  0
 16 15  1  0  0  0  0
 17 18  1  0  0  0  0
 18 23  1  0  0  0  0
 18 19  2  0  0  0  0
 19 24  1  0  0  0  0
 21 15  1  0  0  0  0
 22 17  1  0  0  0  0
 24 27  2  0  0  0  0
 24 25  2  0  0  0  0
 26  6  1  0  0  0  0
 26 24  1  0  0  0  0
 28 29  1  0  0  0  0
 28 16  1  0  0  0  0
 30 28  1  0  0  0  0
 31 28  1  0  0  0  0
M  RAD  3   1   2   2   2   3   3
M  END
