Coordinates from ORCA-job PhN2+~TsO-_B3LYPG-6-31G_dp-NX-Scan-d89-09-n800
 OpenBabel11261920463D

 31 32  0  0  1  0  0  0  0  0999 V2000
   -5.2834   -1.1950   -1.0179 C   0  0  2  0  0  0  0  0  0  0  0  0
   -5.9456   -0.2242   -1.5975 N   0  0  0  0  0  0  0  0  0  0  0  0
   -6.5489    0.5986   -2.1088 N   0  0  0  0  0  0  0  0  0  0  0  0
   -4.4657   -2.0806   -1.8218 C   0  0  0  0  0  0  0  0  0  0  0  0
   -4.0309   -3.2337   -1.2821 C   0  0  0  0  0  0  0  0  0  0  0  0
   -4.5352   -3.6842    0.0482 C   0  0  1  0  0  0  0  0  0  0  0  0
   -4.9954   -2.5745    0.9352 C   0  0  0  0  0  0  0  0  0  0  0  0
   -5.4346   -1.4179    0.4066 C   0  0  0  0  0  0  0  0  0  0  0  0
   -4.2049   -1.7815   -2.8320 H   0  0  0  0  0  0  0  0  0  0  0  0
   -3.3936   -3.9096   -1.8421 H   0  0  0  0  0  0  0  0  0  0  0  0
   -3.8330   -4.3587    0.5425 H   0  0  0  0  0  0  0  0  0  0  0  0
   -5.0747   -2.7717    1.9986 H   0  0  0  0  0  0  0  0  0  0  0  0
   -5.8822   -0.6376    1.0144 H   0  0  0  0  0  0  0  0  0  0  0  0
   -8.6809   -6.1155    0.3233 C   0  0  0  0  0  0  0  0  0  0  0  0
   -9.8319   -6.5974   -0.2922 C   0  0  0  0  0  0  0  0  0  0  0  0
   -9.7577   -7.4487   -1.4065 C   0  0  0  0  0  0  0  0  0  0  0  0
   -8.4932   -7.8119   -1.8886 C   0  0  0  0  0  0  0  0  0  0  0  0
   -7.3283   -7.3396   -1.2859 C   0  0  0  0  0  0  0  0  0  0  0  0
   -7.4356   -6.4896   -0.1863 C   0  0  0  0  0  0  0  0  0  0  0  0
   -8.7364   -5.4711    1.1937 H   0  0  0  0  0  0  0  0  0  0  0  0
  -10.8047   -6.3135    0.1003 H   0  0  0  0  0  0  0  0  0  0  0  0
   -8.4185   -8.4763   -2.7450 H   0  0  0  0  0  0  0  0  0  0  0  0
   -6.3496   -7.6324   -1.6495 H   0  0  0  0  0  0  0  0  0  0  0  0
   -5.9537   -5.8806    0.5937 S   0  0  0  0  0  0  0  0  0  0  0  0
   -6.2421   -5.5188    1.9847 O   0  0  0  0  0  0  0  0  0  0  0  0
   -5.7687   -4.5172   -0.2884 O   0  0  0  0  0  0  0  0  0  0  0  0
   -4.8372   -6.7852    0.3041 O   0  0  0  0  0  0  0  0  0  0  0  0
  -11.0176   -7.9619   -2.0611 C   0  0  0  0  0  0  0  0  0  0  0  0
  -11.6393   -8.5121   -1.3455 H   0  0  0  0  0  0  0  0  0  0  0  0
  -11.6263   -7.1365   -2.4478 H   0  0  0  0  0  0  0  0  0  0  0  0
  -10.7920   -8.6317   -2.8950 H   0  0  0  0  0  0  0  0  0  0  0  0
  1  2  1  6  0  0  0
  1  8  1  0  0  0  0
  3  2  1  0  0  0  0
  4  5  2  0  0  0  0
  4  1  1  0  0  0  0
  5  6  1  0  0  0  0
  6 11  1  1  0  0  0
  6  7  1  0  0  0  0
  7 12  1  0  0  0  0
  8  7  2  0  0  0  0
  8 13  1  0  0  0  0
  9  4  1  0  0  0  0
 10  5  1  0  0  0  0
 14 20  1  0  0  0  0
 15 21  1  0  0  0  0
 15 14  2  0  0  0  0
 16 15  1  0  0  0  0
 17 16  2  0  0  0  0
 17 18  1  0  0  0  0
 18 19  2  0  0  0  0
 19 14  1  0  0  0  0
 19 24  1  0  0  0  0
 22 17  1  0  0  0  0
 23 18  1  0  0  0  0
 24 25  2  0  0  0  0
 26  6  1  0  0  0  0
 26 24  1  0  0  0  0
 27 24  2  0  0  0  0
 28 16  1  0  0  0  0
 28 29  1  0  0  0  0
 30 28  1  0  0  0  0
 31 28  1  0  0  0  0
M  RAD  3   1   2   2   2   3   3
M  END
