Coordinates from ORCA-job PhN2+~TsO-_B3LYPG-6-31G_dp-NX-Scan-d89-09-n800
 OpenBabel11261920463D

 31 32  0  0  1  0  0  0  0  0999 V2000
   -5.0399   -0.9385   -0.9788 C   0  0  0  0  0  0  0  0  0  0  0  0
   -5.2813    0.2640   -1.4436 N   0  0  0  0  0  0  0  0  0  0  0  0
   -5.4999    1.3095   -1.8516 N   0  0  0  0  0  0  0  0  0  0  0  0
   -4.4051   -1.9251   -1.8280 C   0  0  0  0  0  0  0  0  0  0  0  0
   -4.2171   -3.1776   -1.3730 C   0  0  0  0  0  0  0  0  0  0  0  0
   -4.7261   -3.6299   -0.0442 C   0  0  1  0  0  0  0  0  0  0  0  0
   -5.2112   -2.5260    0.8387 C   0  0  0  0  0  0  0  0  0  0  0  0
   -5.4008   -1.2737    0.3845 C   0  0  0  0  0  0  0  0  0  0  0  0
   -4.0706   -1.6246   -2.8157 H   0  0  0  0  0  0  0  0  0  0  0  0
   -3.7291   -3.9222   -1.9928 H   0  0  0  0  0  0  0  0  0  0  0  0
   -3.9960   -4.2706    0.4610 H   0  0  0  0  0  0  0  0  0  0  0  0
   -5.4696   -2.7911    1.8580 H   0  0  0  0  0  0  0  0  0  0  0  0
   -5.8034   -0.4935    1.0230 H   0  0  0  0  0  0  0  0  0  0  0  0
   -8.7297   -6.2321    0.3268 C   0  0  0  0  0  0  0  0  0  0  0  0
   -9.8751   -6.7647   -0.2564 C   0  0  0  0  0  0  0  0  0  0  0  0
   -9.7937   -7.6297   -1.3596 C   0  0  0  0  0  0  0  0  0  0  0  0
   -8.5274   -7.9552   -1.8633 C   0  0  0  0  0  0  0  0  0  0  0  0
   -7.3678   -7.4319   -1.2934 C   0  0  0  0  0  0  0  0  0  0  0  0
   -7.4827   -6.5691   -0.2046 C   0  0  0  0  0  0  0  0  0  0  0  0
   -8.7907   -5.5763    1.1882 H   0  0  0  0  0  0  0  0  0  0  0  0
  -10.8490   -6.5099    0.1530 H   0  0  0  0  0  0  0  0  0  0  0  0
   -8.4467   -8.6302   -2.7108 H   0  0  0  0  0  0  0  0  0  0  0  0
   -6.3870   -7.6946   -1.6738 H   0  0  0  0  0  0  0  0  0  0  0  0
   -6.0079   -5.8942    0.5321 S   0  0  0  0  0  0  0  0  0  0  0  0
   -6.2708   -5.5375    1.9295 O   0  0  0  0  0  0  0  0  0  0  0  0
   -5.9112   -4.5244   -0.3566 O   0  0  0  0  0  0  0  0  0  0  0  0
   -4.8612   -6.7486    0.2112 O   0  0  0  0  0  0  0  0  0  0  0  0
  -11.0477   -8.1949   -1.9819 C   0  0  0  0  0  0  0  0  0  0  0  0
  -11.6544   -8.7247   -1.2389 H   0  0  0  0  0  0  0  0  0  0  0  0
  -11.6741   -7.3980   -2.3995 H   0  0  0  0  0  0  0  0  0  0  0  0
  -10.8145   -8.8952   -2.7881 H   0  0  0  0  0  0  0  0  0  0  0  0
  1  8  1  0  0  0  0
  2  1  1  0  0  0  0
  3  2  1  0  0  0  0
  4  5  1  0  0  0  0
  4  1  2  0  0  0  0
  5  6  1  0  0  0  0
  6 11  1  1  0  0  0
  6  7  1  0  0  0  0
  7 12  1  0  0  0  0
  8  7  2  0  0  0  0
  8 13  1  0  0  0  0
  9  4  1  0  0  0  0
 10  5  1  0  0  0  0
 14 20  1  0  0  0  0
 15 21  1  0  0  0  0
 15 14  2  0  0  0  0
 16 15  1  0  0  0  0
 17 16  2  0  0  0  0
 17 18  1  0  0  0  0
 18 19  2  0  0  0  0
 19 14  1  0  0  0  0
 19 24  1  0  0  0  0
 22 17  1  0  0  0  0
 23 18  1  0  0  0  0
 24 25  2  0  0  0  0
 26  6  1  0  0  0  0
 26 24  1  0  0  0  0
 27 24  2  0  0  0  0
 28 16  1  0  0  0  0
 28 29  1  0  0  0  0
 30 28  1  0  0  0  0
 31 28  1  0  0  0  0
M  RAD  3   2   2   3   3   5   2
M  END
