Coordinates from ORCA-job PhN2+~TsO-_B3LYPG-6-31G_dp-NX-Scan-d89-09-n800
 OpenBabel11261920463D

 31 32  0  0  1  0  0  0  0  0999 V2000
   -5.3546   -1.3476   -0.7377 C   0  0  2  0  0  0  0  0  0  0  0  0
   -6.4780   -0.6955   -0.8956 N   0  0  0  0  0  0  0  0  0  0  0  0
   -7.4934   -0.1959   -1.0291 N   0  0  0  0  0  0  0  0  0  0  0  0
   -4.7944   -2.0603   -1.8782 C   0  0  0  0  0  0  0  0  0  0  0  0
   -4.1923   -3.2383   -1.6382 C   0  0  0  0  0  0  0  0  0  0  0  0
   -4.3693   -3.8367   -0.2778 C   0  0  1  0  0  0  0  0  0  0  0  0
   -4.2792   -2.8167    0.8164 C   0  0  0  0  0  0  0  0  0  0  0  0
   -4.8830   -1.6332    0.6115 C   0  0  0  0  0  0  0  0  0  0  0  0
   -4.8655   -1.6213   -2.8689 H   0  0  0  0  0  0  0  0  0  0  0  0
   -3.6958   -3.8050   -2.4179 H   0  0  0  0  0  0  0  0  0  0  0  0
   -3.7479   -4.7146   -0.1049 H   0  0  0  0  0  0  0  0  0  0  0  0
   -3.8465   -3.0875    1.7729 H   0  0  0  0  0  0  0  0  0  0  0  0
   -5.0235   -0.8943    1.3945 H   0  0  0  0  0  0  0  0  0  0  0  0
   -8.8665   -5.6739   -0.0330 C   0  0  0  0  0  0  0  0  0  0  0  0
   -9.9001   -6.2834   -0.7374 C   0  0  0  0  0  0  0  0  0  0  0  0
   -9.6717   -7.4294   -1.5162 C   0  0  0  0  0  0  0  0  0  0  0  0
   -8.3736   -7.9538   -1.5704 C   0  0  0  0  0  0  0  0  0  0  0  0
   -7.3236   -7.3546   -0.8755 C   0  0  0  0  0  0  0  0  0  0  0  0
   -7.5814   -6.2149   -0.1153 C   0  0  0  0  0  0  0  0  0  0  0  0
   -9.0467   -4.7998    0.5830 H   0  0  0  0  0  0  0  0  0  0  0  0
  -10.9029   -5.8679   -0.6781 H   0  0  0  0  0  0  0  0  0  0  0  0
   -8.1825   -8.8467   -2.1591 H   0  0  0  0  0  0  0  0  0  0  0  0
   -6.3214   -7.7681   -0.9059 H   0  0  0  0  0  0  0  0  0  0  0  0
   -6.2487   -5.4446    0.7873 S   0  0  0  0  0  0  0  0  0  0  0  0
   -6.8018   -4.7743    1.9643 O   0  0  0  0  0  0  0  0  0  0  0  0
   -5.8135   -4.3269   -0.3267 O   0  0  0  0  0  0  0  0  0  0  0  0
   -5.1449   -6.3990    0.9425 O   0  0  0  0  0  0  0  0  0  0  0  0
  -10.8076   -8.0810   -2.2675 C   0  0  0  0  0  0  0  0  0  0  0  0
  -11.5961   -8.4118   -1.5822 H   0  0  0  0  0  0  0  0  0  0  0  0
  -11.2685   -7.3808   -2.9735 H   0  0  0  0  0  0  0  0  0  0  0  0
  -10.4670   -8.9525   -2.8323 H   0  0  0  0  0  0  0  0  0  0  0  0
  1  2  1  1  0  0  0
  1  8  1  0  0  0  0
  3  2  1  0  0  0  0
  4  5  2  0  0  0  0
  4  1  1  0  0  0  0
  5  6  1  0  0  0  0
  6 11  1  1  0  0  0
  6  7  1  0  0  0  0
  7 12  1  0  0  0  0
  8  7  2  0  0  0  0
  8 13  1  0  0  0  0
  9  4  1  0  0  0  0
 10  5  1  0  0  0  0
 14 20  1  0  0  0  0
 15 21  1  0  0  0  0
 15 14  2  0  0  0  0
 16 15  1  0  0  0  0
 17 16  2  0  0  0  0
 17 18  1  0  0  0  0
 18 19  2  0  0  0  0
 19 14  1  0  0  0  0
 19 24  1  0  0  0  0
 22 17  1  0  0  0  0
 23 18  1  0  0  0  0
 24 27  2  0  0  0  0
 24 25  2  0  0  0  0
 26  6  1  0  0  0  0
 26 24  1  0  0  0  0
 28 29  1  0  0  0  0
 28 16  1  0  0  0  0
 30 28  1  0  0  0  0
 31 28  1  0  0  0  0
M  RAD  3   1   2   2   2   3   3
M  END
