Coordinates from ORCA-job PhN2+~TsO-_B3LYPG-6-31G_dp-NX-Scan-d89-09-n800
 OpenBabel11261920463D

 31 32  0  0  1  0  0  0  0  0999 V2000
   -5.4085   -1.3923   -0.6586 C   0  0  2  0  0  0  0  0  0  0  0  0
   -6.6931   -1.1368   -0.6893 N   0  0  0  0  0  0  0  0  0  0  0  0
   -7.8248   -1.0110   -0.7100 N   0  0  0  0  0  0  0  0  0  0  0  0
   -4.8298   -2.0043   -1.8620 C   0  0  0  0  0  0  0  0  0  0  0  0
   -4.1808   -3.1683   -1.6973 C   0  0  0  0  0  0  0  0  0  0  0  0
   -4.3332   -3.8340   -0.3608 C   0  0  1  0  0  0  0  0  0  0  0  0
   -4.1666   -2.8579    0.7700 C   0  0  0  0  0  0  0  0  0  0  0  0
   -4.8161   -1.6889    0.6527 C   0  0  0  0  0  0  0  0  0  0  0  0
   -4.9375   -1.5103   -2.8234 H   0  0  0  0  0  0  0  0  0  0  0  0
   -3.6544   -3.6695   -2.5024 H   0  0  0  0  0  0  0  0  0  0  0  0
   -3.7347   -4.7368   -0.2472 H   0  0  0  0  0  0  0  0  0  0  0  0
   -3.6337   -3.1494    1.6686 H   0  0  0  0  0  0  0  0  0  0  0  0
   -4.9211   -0.9775    1.4664 H   0  0  0  0  0  0  0  0  0  0  0  0
   -8.8294   -5.5049   -0.2152 C   0  0  0  0  0  0  0  0  0  0  0  0
   -9.8535   -6.1343   -0.9158 C   0  0  0  0  0  0  0  0  0  0  0  0
   -9.6556   -7.3827   -1.5279 C   0  0  0  0  0  0  0  0  0  0  0  0
   -8.3962   -7.9868   -1.4228 C   0  0  0  0  0  0  0  0  0  0  0  0
   -7.3545   -7.3690   -0.7308 C   0  0  0  0  0  0  0  0  0  0  0  0
   -7.5827   -6.1302   -0.1346 C   0  0  0  0  0  0  0  0  0  0  0  0
   -8.9895   -4.5471    0.2671 H   0  0  0  0  0  0  0  0  0  0  0  0
  -10.8250   -5.6516   -0.9861 H   0  0  0  0  0  0  0  0  0  0  0  0
   -8.2276   -8.9555   -1.8846 H   0  0  0  0  0  0  0  0  0  0  0  0
   -6.3817   -7.8399   -0.6410 H   0  0  0  0  0  0  0  0  0  0  0  0
   -6.2627   -5.3368    0.7657 S   0  0  0  0  0  0  0  0  0  0  0  0
   -6.8348   -4.6066    1.8962 O   0  0  0  0  0  0  0  0  0  0  0  0
   -5.7919   -4.2687   -0.3856 O   0  0  0  0  0  0  0  0  0  0  0  0
   -5.1727   -6.2938    0.9858 O   0  0  0  0  0  0  0  0  0  0  0  0
  -10.7859   -8.0598   -2.2645 C   0  0  0  0  0  0  0  0  0  0  0  0
  -11.5654   -8.3915   -1.5684 H   0  0  0  0  0  0  0  0  0  0  0  0
  -11.2610   -7.3773   -2.9774 H   0  0  0  0  0  0  0  0  0  0  0  0
  -10.4374   -8.9370   -2.8154 H   0  0  0  0  0  0  0  0  0  0  0  0
  1  2  1  1  0  0  0
  1  8  1  0  0  0  0
  3  2  1  0  0  0  0
  4  5  2  0  0  0  0
  4  1  1  0  0  0  0
  5  6  1  0  0  0  0
  6 11  1  1  0  0  0
  6  7  1  0  0  0  0
  7 12  1  0  0  0  0
  8  7  2  0  0  0  0
  8 13  1  0  0  0  0
  9  4  1  0  0  0  0
 10  5  1  0  0  0  0
 14 19  1  0  0  0  0
 14 20  1  0  0  0  0
 15 14  2  0  0  0  0
 16 17  2  0  0  0  0
 16 15  1  0  0  0  0
 17 18  1  0  0  0  0
 18 23  1  0  0  0  0
 18 19  2  0  0  0  0
 19 24  1  0  0  0  0
 21 15  1  0  0  0  0
 22 17  1  0  0  0  0
 24 27  2  0  0  0  0
 24 25  2  0  0  0  0
 26  6  1  0  0  0  0
 26 24  1  0  0  0  0
 28 29  1  0  0  0  0
 28 16  1  0  0  0  0
 30 28  1  0  0  0  0
 31 28  1  0  0  0  0
M  RAD  3   1   2   2   2   3   3
M  END
