Coordinates from ORCA-job PhN2+~TsO-_B3LYPG-6-31G_dp-NX-Scan-d89-09-n800
 OpenBabel11261920463D

 31 32  0  0  0  0  0  0  0  0999 V2000
   -5.0534   -2.5615   -0.8610 C   0  0  0  0  0  0  0  0  0  0  0  0
   -6.4821   -2.5644   -0.8698 N   0  0  0  0  0  0  0  0  0  0  0  0
   -7.1386   -3.3218   -0.0520 N   0  0  0  0  0  0  0  0  0  0  0  0
   -4.5266   -1.7661   -1.8987 C   0  0  0  0  0  0  0  0  0  0  0  0
   -3.1562   -1.6122   -2.0694 C   0  0  0  0  0  0  0  0  0  0  0  0
   -2.2669   -2.2472   -1.1975 C   0  0  0  0  0  0  0  0  0  0  0  0
   -2.7713   -3.0314   -0.1613 C   0  0  0  0  0  0  0  0  0  0  0  0
   -4.1478   -3.1968    0.0151 C   0  0  0  0  0  0  0  0  0  0  0  0
   -5.2335   -1.2761   -2.5604 H   0  0  0  0  0  0  0  0  0  0  0  0
   -2.7795   -0.9951   -2.8807 H   0  0  0  0  0  0  0  0  0  0  0  0
   -1.1943   -2.1284   -1.3234 H   0  0  0  0  0  0  0  0  0  0  0  0
   -2.0903   -3.5263    0.5258 H   0  0  0  0  0  0  0  0  0  0  0  0
   -4.4945   -3.8098    0.8348 H   0  0  0  0  0  0  0  0  0  0  0  0
   -9.7807   -5.4278   -0.2460 C   0  0  0  0  0  0  0  0  0  0  0  0
  -10.3208   -6.1969   -1.2728 C   0  0  0  0  0  0  0  0  0  0  0  0
   -9.8497   -7.4915   -1.5386 C   0  0  0  0  0  0  0  0  0  0  0  0
   -8.8073   -8.0067   -0.7501 C   0  0  0  0  0  0  0  0  0  0  0  0
   -8.2437   -7.2583    0.2771 C   0  0  0  0  0  0  0  0  0  0  0  0
   -8.7533   -5.9795    0.5266 C   0  0  0  0  0  0  0  0  0  0  0  0
  -10.1469   -4.4304   -0.0363 H   0  0  0  0  0  0  0  0  0  0  0  0
  -11.1211   -5.7830   -1.8795 H   0  0  0  0  0  0  0  0  0  0  0  0
   -8.4315   -9.0061   -0.9474 H   0  0  0  0  0  0  0  0  0  0  0  0
   -7.4366   -7.6531    0.8845 H   0  0  0  0  0  0  0  0  0  0  0  0
   -7.9982   -4.9825    1.7745 S   0  0  0  0  0  0  0  0  0  0  0  0
   -8.9171   -3.9431    2.2302 O   0  0  0  0  0  0  0  0  0  0  0  0
   -6.6871   -3.9870    0.6544 O   0  0  0  0  0  0  0  0  0  0  0  0
   -7.1323   -5.7666    2.6503 O   0  0  0  0  0  0  0  0  0  0  0  0
  -10.4681   -8.3239   -2.6332 C   0  0  0  0  0  0  0  0  0  0  0  0
  -11.3172   -8.9011   -2.2465 H   0  0  0  0  0  0  0  0  0  0  0  0
  -10.8436   -7.6986   -3.4476 H   0  0  0  0  0  0  0  0  0  0  0  0
   -9.7513   -9.0374   -3.0495 H   0  0  0  0  0  0  0  0  0  0  0  0
  1  8  2  0  0  0  0
  2  1  1  0  0  0  0
  2  3  2  0  0  0  0
  3 26  1  0  0  0  0
  4  1  1  0  0  0  0
  5  4  2  0  0  0  0
  5  6  1  0  0  0  0
  6  7  2  0  0  0  0
  7  8  1  0  0  0  0
  7 12  1  0  0  0  0
  8 13  1  0  0  0  0
  9  4  1  0  0  0  0
 10  5  1  0  0  0  0
 11  6  1  0  0  0  0
 14 20  1  0  0  0  0
 14 19  2  0  0  0  0
 15 14  1  0  0  0  0
 16 15  2  0  0  0  0
 16 17  1  0  0  0  0
 17 18  2  0  0  0  0
 18 19  1  0  0  0  0
 18 23  1  0  0  0  0
 19 24  1  0  0  0  0
 21 15  1  0  0  0  0
 22 17  1  0  0  0  0
 24 25  2  0  0  0  0
 24 27  2  0  0  0  0
 26 24  1  0  0  0  0
 28 29  1  0  0  0  0
 28 16  1  0  0  0  0
 30 28  1  0  0  0  0
 31 28  1  0  0  0  0
M  END
