Coordinates from ORCA-job PhN2+~TsO-_B3LYPG-6-31G_dp-NX-Scan-d89-09-n800
 OpenBabel11261920463D

 31 32  0  0  0  0  0  0  0  0999 V2000
   -4.9401   -2.5397   -0.9233 C   0  0  0  0  0  0  0  0  0  0  0  0
   -6.3465   -2.6421   -1.0301 N   0  0  0  0  0  0  0  0  0  0  0  0
   -7.1871   -3.2855   -0.4485 N   0  0  0  0  0  0  0  0  0  0  0  0
   -4.3908   -1.6482   -1.8621 C   0  0  0  0  0  0  0  0  0  0  0  0
   -3.0203   -1.4161   -1.8944 C   0  0  0  0  0  0  0  0  0  0  0  0
   -2.1869   -2.0712   -0.9848 C   0  0  0  0  0  0  0  0  0  0  0  0
   -2.7295   -2.9562   -0.0492 C   0  0  0  0  0  0  0  0  0  0  0  0
   -4.1001   -3.2029   -0.0056 C   0  0  0  0  0  0  0  0  0  0  0  0
   -5.0644   -1.1508   -2.5513 H   0  0  0  0  0  0  0  0  0  0  0  0
   -2.6037   -0.7262   -2.6219 H   0  0  0  0  0  0  0  0  0  0  0  0
   -1.1158   -1.8909   -1.0021 H   0  0  0  0  0  0  0  0  0  0  0  0
   -2.0800   -3.4631    0.6580 H   0  0  0  0  0  0  0  0  0  0  0  0
   -4.5126   -3.8854    0.7213 H   0  0  0  0  0  0  0  0  0  0  0  0
   -9.7879   -5.4590   -0.3208 C   0  0  0  0  0  0  0  0  0  0  0  0
  -10.4429   -6.2795   -1.2362 C   0  0  0  0  0  0  0  0  0  0  0  0
   -9.9996   -7.5861   -1.4884 C   0  0  0  0  0  0  0  0  0  0  0  0
   -8.8733   -8.0566   -0.7973 C   0  0  0  0  0  0  0  0  0  0  0  0
   -8.2041   -7.2524    0.1220 C   0  0  0  0  0  0  0  0  0  0  0  0
   -8.6690   -5.9558    0.3494 C   0  0  0  0  0  0  0  0  0  0  0  0
  -10.1348   -4.4526   -0.1187 H   0  0  0  0  0  0  0  0  0  0  0  0
  -11.3156   -5.9000   -1.7609 H   0  0  0  0  0  0  0  0  0  0  0  0
   -8.5184   -9.0671   -0.9792 H   0  0  0  0  0  0  0  0  0  0  0  0
   -7.3417   -7.6213    0.6664 H   0  0  0  0  0  0  0  0  0  0  0  0
   -7.8161   -4.9203    1.5247 S   0  0  0  0  0  0  0  0  0  0  0  0
   -8.7231   -3.8736    1.9798 O   0  0  0  0  0  0  0  0  0  0  0  0
   -6.6087   -4.2283    0.6242 O   0  0  0  0  0  0  0  0  0  0  0  0
   -7.0764   -5.7629    2.4583 O   0  0  0  0  0  0  0  0  0  0  0  0
  -10.7384   -8.4767   -2.4575 C   0  0  0  0  0  0  0  0  0  0  0  0
  -11.5448   -9.0210   -1.9506 H   0  0  0  0  0  0  0  0  0  0  0  0
  -11.1952   -7.8977   -3.2651 H   0  0  0  0  0  0  0  0  0  0  0  0
  -10.0739   -9.2217   -2.9047 H   0  0  0  0  0  0  0  0  0  0  0  0
  1  8  2  0  0  0  0
  2  1  1  0  0  0  0
  2  3  1  0  0  0  0
  3 26  1  0  0  0  0
  4  1  1  0  0  0  0
  5  4  2  0  0  0  0
  5  6  1  0  0  0  0
  6  7  2  0  0  0  0
  7  8  1  0  0  0  0
  7 12  1  0  0  0  0
  8 13  1  0  0  0  0
  9  4  1  0  0  0  0
 10  5  1  0  0  0  0
 11  6  1  0  0  0  0
 14 20  1  0  0  0  0
 14 19  2  0  0  0  0
 15 14  1  0  0  0  0
 16 15  2  0  0  0  0
 16 17  1  0  0  0  0
 17 18  2  0  0  0  0
 18 19  1  0  0  0  0
 18 23  1  0  0  0  0
 19 24  1  0  0  0  0
 21 15  1  0  0  0  0
 22 17  1  0  0  0  0
 24 25  2  0  0  0  0
 24 27  2  0  0  0  0
 26 24  1  0  0  0  0
 28 29  1  0  0  0  0
 28 16  1  0  0  0  0
 30 28  1  0  0  0  0
 31 28  1  0  0  0  0
M  RAD  2   2   2   3   2
M  END
