Coordinates from ORCA-job PhN2+~TsO-_B3LYPG-6-31G_dp-NX-Scan-d89-09-n800
 OpenBabel11261920463D

 31 32  0  0  0  0  0  0  0  0999 V2000
   -5.0110   -2.5808   -0.8723 C   0  0  0  0  0  0  0  0  0  0  0  0
   -6.4316   -2.6394   -0.9681 N   0  0  0  0  0  0  0  0  0  0  0  0
   -7.2004   -3.3290   -0.2682 N   0  0  0  0  0  0  0  0  0  0  0  0
   -4.4638   -1.7619   -1.8792 C   0  0  0  0  0  0  0  0  0  0  0  0
   -3.0928   -1.5510   -1.9708 C   0  0  0  0  0  0  0  0  0  0  0  0
   -2.2364   -2.1520   -1.0454 C   0  0  0  0  0  0  0  0  0  0  0  0
   -2.7656   -2.9605   -0.0379 C   0  0  0  0  0  0  0  0  0  0  0  0
   -4.1391   -3.1849    0.0597 C   0  0  0  0  0  0  0  0  0  0  0  0
   -5.1524   -1.3007   -2.5792 H   0  0  0  0  0  0  0  0  0  0  0  0
   -2.6930   -0.9175   -2.7573 H   0  0  0  0  0  0  0  0  0  0  0  0
   -1.1640   -1.9886   -1.1061 H   0  0  0  0  0  0  0  0  0  0  0  0
   -2.1037   -3.4272    0.6859 H   0  0  0  0  0  0  0  0  0  0  0  0
   -4.5165   -3.8130    0.8516 H   0  0  0  0  0  0  0  0  0  0  0  0
   -9.7719   -5.4309   -0.3032 C   0  0  0  0  0  0  0  0  0  0  0  0
  -10.4005   -6.2390   -1.2461 C   0  0  0  0  0  0  0  0  0  0  0  0
   -9.9406   -7.5374   -1.5147 C   0  0  0  0  0  0  0  0  0  0  0  0
   -8.8226   -8.0139   -0.8138 C   0  0  0  0  0  0  0  0  0  0  0  0
   -8.1755   -7.2243    0.1326 C   0  0  0  0  0  0  0  0  0  0  0  0
   -8.6627   -5.9384    0.3776 C   0  0  0  0  0  0  0  0  0  0  0  0
  -10.1272   -4.4295   -0.0930 H   0  0  0  0  0  0  0  0  0  0  0  0
  -11.2636   -5.8551   -1.7824 H   0  0  0  0  0  0  0  0  0  0  0  0
   -8.4551   -9.0166   -1.0110 H   0  0  0  0  0  0  0  0  0  0  0  0
   -7.3158   -7.5943    0.6803 H   0  0  0  0  0  0  0  0  0  0  0  0
   -7.8443   -4.9277    1.5847 S   0  0  0  0  0  0  0  0  0  0  0  0
   -8.7605   -3.9270    2.1065 O   0  0  0  0  0  0  0  0  0  0  0  0
   -6.6570   -4.0846    0.6256 O   0  0  0  0  0  0  0  0  0  0  0  0
   -6.9822   -5.7379    2.4299 O   0  0  0  0  0  0  0  0  0  0  0  0
  -10.6530   -8.4126   -2.5159 C   0  0  0  0  0  0  0  0  0  0  0  0
  -11.4733   -8.9615   -2.0370 H   0  0  0  0  0  0  0  0  0  0  0  0
  -11.0876   -7.8211   -3.3264 H   0  0  0  0  0  0  0  0  0  0  0  0
   -9.9777   -9.1523   -2.9550 H   0  0  0  0  0  0  0  0  0  0  0  0
  1  8  2  0  0  0  0
  2  1  1  0  0  0  0
  2  3  2  0  0  0  0
  3 26  1  0  0  0  0
  4  1  1  0  0  0  0
  5  4  2  0  0  0  0
  5  6  1  0  0  0  0
  6  7  2  0  0  0  0
  7  8  1  0  0  0  0
  7 12  1  0  0  0  0
  8 13  1  0  0  0  0
  9  4  1  0  0  0  0
 10  5  1  0  0  0  0
 11  6  1  0  0  0  0
 14 20  1  0  0  0  0
 14 19  2  0  0  0  0
 15 14  1  0  0  0  0
 16 15  2  0  0  0  0
 16 17  1  0  0  0  0
 17 18  2  0  0  0  0
 18 19  1  0  0  0  0
 18 23  1  0  0  0  0
 19 24  1  0  0  0  0
 21 15  1  0  0  0  0
 22 17  1  0  0  0  0
 24 25  2  0  0  0  0
 24 27  2  0  0  0  0
 26 24  1  0  0  0  0
 28 29  1  0  0  0  0
 28 16  1  0  0  0  0
 30 28  1  0  0  0  0
 31 28  1  0  0  0  0
M  END
