Coordinates from ORCA-job PhN2+~TsO-_B3LYPG-6-31G_dp-NX-Scan-d89-09-n800
 OpenBabel11261920463D

 31 32  0  0  1  0  0  0  0  0999 V2000
   -5.0288   -0.9285   -0.9759 C   0  0  0  0  0  0  0  0  0  0  0  0
   -5.2523    0.2802   -1.4337 N   0  0  0  0  0  0  0  0  0  0  0  0
   -5.4545    1.3316   -1.8352 N   0  0  0  0  0  0  0  0  0  0  0  0
   -4.4031   -1.9180   -1.8286 C   0  0  0  0  0  0  0  0  0  0  0  0
   -4.2263   -3.1740   -1.3787 C   0  0  0  0  0  0  0  0  0  0  0  0
   -4.7346   -3.6271   -0.0497 C   0  0  1  0  0  0  0  0  0  0  0  0
   -5.2198   -2.5235    0.8337 C   0  0  0  0  0  0  0  0  0  0  0  0
   -5.3982   -1.2679    0.3841 C   0  0  0  0  0  0  0  0  0  0  0  0
   -4.0663   -1.6172   -2.8155 H   0  0  0  0  0  0  0  0  0  0  0  0
   -3.7455   -3.9204   -2.0020 H   0  0  0  0  0  0  0  0  0  0  0  0
   -4.0028   -4.2665    0.4551 H   0  0  0  0  0  0  0  0  0  0  0  0
   -5.4850   -2.7910    1.8505 H   0  0  0  0  0  0  0  0  0  0  0  0
   -5.7982   -0.4880    1.0245 H   0  0  0  0  0  0  0  0  0  0  0  0
   -8.7324   -6.2359    0.3263 C   0  0  0  0  0  0  0  0  0  0  0  0
   -9.8772   -6.7711   -0.2556 C   0  0  0  0  0  0  0  0  0  0  0  0
   -9.7950   -7.6375   -1.3577 C   0  0  0  0  0  0  0  0  0  0  0  0
   -8.5284   -7.9617   -1.8615 C   0  0  0  0  0  0  0  0  0  0  0  0
   -7.3693   -7.4358   -1.2930 C   0  0  0  0  0  0  0  0  0  0  0  0
   -7.4851   -6.5716   -0.2052 C   0  0  0  0  0  0  0  0  0  0  0  0
   -8.7940   -5.5790    1.1868 H   0  0  0  0  0  0  0  0  0  0  0  0
  -10.8513   -6.5172    0.1539 H   0  0  0  0  0  0  0  0  0  0  0  0
   -8.4471   -8.6377   -2.7082 H   0  0  0  0  0  0  0  0  0  0  0  0
   -6.3884   -7.6974   -1.6735 H   0  0  0  0  0  0  0  0  0  0  0  0
   -6.0110   -5.8933    0.5298 S   0  0  0  0  0  0  0  0  0  0  0  0
   -6.2737   -5.5354    1.9269 O   0  0  0  0  0  0  0  0  0  0  0  0
   -5.9175   -4.5243   -0.3606 O   0  0  0  0  0  0  0  0  0  0  0  0
   -4.8630   -6.7459    0.2090 O   0  0  0  0  0  0  0  0  0  0  0  0
  -11.0484   -8.2053   -1.9787 C   0  0  0  0  0  0  0  0  0  0  0  0
  -11.6544   -8.7343   -1.2345 H   0  0  0  0  0  0  0  0  0  0  0  0
  -11.6757   -7.4100   -2.3979 H   0  0  0  0  0  0  0  0  0  0  0  0
  -10.8145   -8.9070   -2.7835 H   0  0  0  0  0  0  0  0  0  0  0  0
  1  8  1  0  0  0  0
  2  1  1  0  0  0  0
  3  2  1  0  0  0  0
  4  5  1  0  0  0  0
  4  1  2  0  0  0  0
  5  6  1  0  0  0  0
  6 11  1  1  0  0  0
  6  7  1  0  0  0  0
  7 12  1  0  0  0  0
  8  7  2  0  0  0  0
  8 13  1  0  0  0  0
  9  4  1  0  0  0  0
 10  5  1  0  0  0  0
 14 20  1  0  0  0  0
 15 21  1  0  0  0  0
 15 14  2  0  0  0  0
 16 15  1  0  0  0  0
 17 16  2  0  0  0  0
 17 18  1  0  0  0  0
 18 19  2  0  0  0  0
 19 14  1  0  0  0  0
 19 24  1  0  0  0  0
 22 17  1  0  0  0  0
 23 18  1  0  0  0  0
 24 25  2  0  0  0  0
 26  6  1  0  0  0  0
 26 24  1  0  0  0  0
 27 24  2  0  0  0  0
 28 16  1  0  0  0  0
 28 29  1  0  0  0  0
 30 28  1  0  0  0  0
 31 28  1  0  0  0  0
M  RAD  3   2   2   3   3   5   2
M  END
