Coordinates from ORCA-job PhN2+~TsO-_B3LYPG-6-31G_dp-NX-Scan-d89-09-n800
 OpenBabel11261920463D

 31 32  0  0  1  0  0  0  0  0999 V2000
   -5.3727   -1.3794   -0.6729 C   0  0  2  0  0  0  0  0  0  0  0  0
   -6.6269   -1.0060   -0.7215 N   0  0  0  0  0  0  0  0  0  0  0  0
   -7.7409   -0.7721   -0.7582 N   0  0  0  0  0  0  0  0  0  0  0  0
   -4.8165   -2.0196   -1.8680 C   0  0  0  0  0  0  0  0  0  0  0  0
   -4.1901   -3.1951   -1.6932 C   0  0  0  0  0  0  0  0  0  0  0  0
   -4.3470   -3.8453   -0.3509 C   0  0  1  0  0  0  0  0  0  0  0  0
   -4.1743   -2.8635    0.7723 C   0  0  0  0  0  0  0  0  0  0  0  0
   -4.8015   -1.6830    0.6423 C   0  0  0  0  0  0  0  0  0  0  0  0
   -4.9190   -1.5353   -2.8348 H   0  0  0  0  0  0  0  0  0  0  0  0
   -3.6825   -3.7160   -2.4976 H   0  0  0  0  0  0  0  0  0  0  0  0
   -3.7563   -4.7521   -0.2293 H   0  0  0  0  0  0  0  0  0  0  0  0
   -3.6591   -3.1589    1.6798 H   0  0  0  0  0  0  0  0  0  0  0  0
   -4.9004   -0.9656    1.4515 H   0  0  0  0  0  0  0  0  0  0  0  0
   -8.8632   -5.5494   -0.1605 C   0  0  0  0  0  0  0  0  0  0  0  0
   -9.8814   -6.1837   -0.8653 C   0  0  0  0  0  0  0  0  0  0  0  0
   -9.6578   -7.4022   -1.5267 C   0  0  0  0  0  0  0  0  0  0  0  0
   -8.3796   -7.9720   -1.4648 C   0  0  0  0  0  0  0  0  0  0  0  0
   -7.3442   -7.3487   -0.7686 C   0  0  0  0  0  0  0  0  0  0  0  0
   -7.5973   -6.1388   -0.1246 C   0  0  0  0  0  0  0  0  0  0  0  0
   -9.0420   -4.6167    0.3627 H   0  0  0  0  0  0  0  0  0  0  0  0
  -10.8683   -5.7292   -0.8996 H   0  0  0  0  0  0  0  0  0  0  0  0
   -8.1917   -8.9187   -1.9633 H   0  0  0  0  0  0  0  0  0  0  0  0
   -6.3574   -7.7950   -0.7108 H   0  0  0  0  0  0  0  0  0  0  0  0
   -6.2843   -5.3367    0.7788 S   0  0  0  0  0  0  0  0  0  0  0  0
   -6.8657   -4.6070    1.9050 O   0  0  0  0  0  0  0  0  0  0  0  0
   -5.8102   -4.2698   -0.3713 O   0  0  0  0  0  0  0  0  0  0  0  0
   -5.1922   -6.2896    1.0067 O   0  0  0  0  0  0  0  0  0  0  0  0
  -10.7800   -8.0834   -2.2722 C   0  0  0  0  0  0  0  0  0  0  0  0
  -11.5667   -8.4131   -1.5837 H   0  0  0  0  0  0  0  0  0  0  0  0
  -11.2479   -7.4035   -2.9927 H   0  0  0  0  0  0  0  0  0  0  0  0
  -10.4246   -8.9614   -2.8172 H   0  0  0  0  0  0  0  0  0  0  0  0
  1  2  1  1  0  0  0
  1  8  1  0  0  0  0
  3  2  1  0  0  0  0
  4  5  2  0  0  0  0
  4  1  1  0  0  0  0
  5  6  1  0  0  0  0
  6 11  1  1  0  0  0
  6  7  1  0  0  0  0
  7 12  1  0  0  0  0
  8  7  2  0  0  0  0
  8 13  1  0  0  0  0
  9  4  1  0  0  0  0
 10  5  1  0  0  0  0
 14 19  1  0  0  0  0
 14 20  1  0  0  0  0
 15 14  2  0  0  0  0
 16 17  2  0  0  0  0
 16 15  1  0  0  0  0
 17 18  1  0  0  0  0
 18 23  1  0  0  0  0
 18 19  2  0  0  0  0
 19 24  1  0  0  0  0
 21 15  1  0  0  0  0
 22 17  1  0  0  0  0
 24 27  2  0  0  0  0
 24 25  2  0  0  0  0
 26  6  1  0  0  0  0
 26 24  1  0  0  0  0
 28 29  1  0  0  0  0
 28 16  1  0  0  0  0
 30 28  1  0  0  0  0
 31 28  1  0  0  0  0
M  RAD  3   1   2   2   2   3   3
M  END
