Coordinates from ORCA-job PhN2+~TsO-_B3LYPG-6-31G_dp-NX-Scan-d89-09-n800
 OpenBabel11261920463D

 31 31  0  0  0  0  0  0  0  0999 V2000
   -3.7789   -0.4273   -0.1474 C   0  0  0  0  0  0  0  0  0  0  0  0
   -3.5586    0.8703    0.1804 N   0  0  0  0  0  0  0  0  0  0  0  0
   -3.3975    1.9460    0.4644 N   0  0  0  0  0  0  0  0  0  0  0  0
   -2.8487   -1.0756   -0.9983 C   0  0  0  0  0  0  0  0  0  0  0  0
   -3.1139   -2.3901   -1.3331 C   0  0  0  0  0  0  0  0  0  0  0  0
   -4.2651   -3.0365   -0.8473 C   0  0  0  0  0  0  0  0  0  0  0  0
   -5.1682   -2.3727    0.0074 C   0  0  0  0  0  0  0  0  0  0  0  0
   -4.9398   -1.0601    0.3698 C   0  0  0  0  0  0  0  0  0  0  0  0
   -1.9777   -0.5445   -1.3652 H   0  0  0  0  0  0  0  0  0  0  0  0
   -2.4302   -2.9200   -1.9883 H   0  0  0  0  0  0  0  0  0  0  0  0
   -4.5243   -4.0592   -1.1326 H   0  0  0  0  0  0  0  0  0  0  0  0
   -6.0637   -2.9101    0.3432 H   0  0  0  0  0  0  0  0  0  0  0  0
   -5.6184   -0.5128    1.0155 H   0  0  0  0  0  0  0  0  0  0  0  0
   -9.5991   -6.2969   -0.2163 C   0  0  0  0  0  0  0  0  0  0  0  0
  -10.4429   -7.4058   -0.2032 C   0  0  0  0  0  0  0  0  0  0  0  0
  -10.0977   -8.5875   -0.8753 C   0  0  0  0  0  0  0  0  0  0  0  0
   -8.8785   -8.6262   -1.5638 C   0  0  0  0  0  0  0  0  0  0  0  0
   -8.0256   -7.5219   -1.5843 C   0  0  0  0  0  0  0  0  0  0  0  0
   -8.3882   -6.3569   -0.9093 C   0  0  0  0  0  0  0  0  0  0  0  0
   -9.8617   -5.3893    0.3168 H   0  0  0  0  0  0  0  0  0  0  0  0
  -11.3851   -7.3554    0.3381 H   0  0  0  0  0  0  0  0  0  0  0  0
   -8.5908   -9.5344   -2.0889 H   0  0  0  0  0  0  0  0  0  0  0  0
   -7.0751   -7.5571   -2.1050 H   0  0  0  0  0  0  0  0  0  0  0  0
   -7.3315   -4.9021   -0.9896 S   0  0  0  0  0  0  0  0  0  0  0  0
   -7.5006   -4.2329    0.3426 O   0  0  0  0  0  0  0  0  0  0  0  0
   -7.7953   -4.0694   -2.1255 O   0  0  0  0  0  0  0  0  0  0  0  0
   -5.9447   -5.4432   -1.1837 O   0  0  0  0  0  0  0  0  0  0  0  0
  -11.0056   -9.7946   -0.8303 C   0  0  0  0  0  0  0  0  0  0  0  0
  -10.8811  -10.3531    0.1069 H   0  0  0  0  0  0  0  0  0  0  0  0
  -12.0602   -9.5059   -0.8940 H   0  0  0  0  0  0  0  0  0  0  0  0
  -10.7931  -10.4852   -1.6520 H   0  0  0  0  0  0  0  0  0  0  0  0
  1  2  1  0  0  0  0
  1  8  2  0  0  0  0
  2  3  1  0  0  0  0
  4  1  1  0  0  0  0
  5  4  2  0  0  0  0
  5  6  1  0  0  0  0
  6  7  2  0  0  0  0
  7 12  1  0  0  0  0
  7  8  1  0  0  0  0
  8 13  1  0  0  0  0
  9  4  1  0  0  0  0
 10  5  1  0  0  0  0
 11  6  1  0  0  0  0
 14 15  1  0  0  0  0
 14 20  1  0  0  0  0
 15 21  1  0  0  0  0
 16 28  1  0  0  0  0
 16 15  2  0  0  0  0
 17 16  1  0  0  0  0
 18 17  2  0  0  0  0
 18 19  1  0  0  0  0
 19 14  2  0  0  0  0
 22 17  1  0  0  0  0
 23 18  1  0  0  0  0
 24 19  1  0  0  0  0
 24 25  1  0  0  0  0
 26 24  2  0  0  0  0
 27 24  2  0  0  0  0
 28 29  1  0  0  0  0
 30 28  1  0  0  0  0
 31 28  1  0  0  0  0
M  RAD  3   2   2   3   3  25   2
M  END
