Coordinates from ORCA-job PhN2+~TsO-_B3LYPG-6-31G_dp-NX-Scan-d89-09-n800
 OpenBabel11261920463D

 31 31  0  0  0  0  0  0  0  0999 V2000
   -4.5595   -2.1225   -1.1563 C   0  0  0  0  0  0  0  0  0  0  0  0
   -5.8145   -2.2290   -1.7767 N   0  0  0  0  0  0  0  0  0  0  0  0
   -6.7465   -2.8691   -1.9912 N   0  0  0  0  0  0  0  0  0  0  0  0
   -3.8507   -0.9383   -1.4031 C   0  0  0  0  0  0  0  0  0  0  0  0
   -2.6044   -0.7707   -0.8113 C   0  0  0  0  0  0  0  0  0  0  0  0
   -2.0910   -1.7719    0.0196 C   0  0  0  0  0  0  0  0  0  0  0  0
   -2.8178   -2.9421    0.2611 C   0  0  0  0  0  0  0  0  0  0  0  0
   -4.0646   -3.1412   -0.3251 C   0  0  0  0  0  0  0  0  0  0  0  0
   -4.2826   -0.1792   -2.0461 H   0  0  0  0  0  0  0  0  0  0  0  0
   -2.0373    0.1364   -0.9924 H   0  0  0  0  0  0  0  0  0  0  0  0
   -1.1193   -1.6379    0.4847 H   0  0  0  0  0  0  0  0  0  0  0  0
   -2.4152   -3.7105    0.9129 H   0  0  0  0  0  0  0  0  0  0  0  0
   -4.6452   -4.0383   -0.1483 H   0  0  0  0  0  0  0  0  0  0  0  0
   -9.7898   -5.6635   -0.8614 C   0  0  0  0  0  0  0  0  0  0  0  0
  -10.7420   -6.6218   -1.2025 C   0  0  0  0  0  0  0  0  0  0  0  0
  -10.4802   -7.9910   -1.0493 C   0  0  0  0  0  0  0  0  0  0  0  0
   -9.2316   -8.3779   -0.5430 C   0  0  0  0  0  0  0  0  0  0  0  0
   -8.2684   -7.4316   -0.1970 C   0  0  0  0  0  0  0  0  0  0  0  0
   -8.5537   -6.0762   -0.3620 C   0  0  0  0  0  0  0  0  0  0  0  0
   -9.9994   -4.6044   -0.9663 H   0  0  0  0  0  0  0  0  0  0  0  0
  -11.7057   -6.3020   -1.5904 H   0  0  0  0  0  0  0  0  0  0  0  0
   -9.0119   -9.4349   -0.4133 H   0  0  0  0  0  0  0  0  0  0  0  0
   -7.3085   -7.7308    0.2088 H   0  0  0  0  0  0  0  0  0  0  0  0
   -7.3115   -4.8504    0.0465 S   0  0  0  0  0  0  0  0  0  0  0  0
   -8.0076   -3.6020    0.4065 O   0  0  0  0  0  0  0  0  0  0  0  0
   -6.5166   -4.6523   -1.2861 O   0  0  0  0  0  0  0  0  0  0  0  0
   -6.4033   -5.4553    1.0379 O   0  0  0  0  0  0  0  0  0  0  0  0
  -11.5306   -9.0219   -1.3887 C   0  0  0  0  0  0  0  0  0  0  0  0
  -12.1778   -9.2245   -0.5259 H   0  0  0  0  0  0  0  0  0  0  0  0
  -12.1762   -8.6835   -2.2053 H   0  0  0  0  0  0  0  0  0  0  0  0
  -11.0782   -9.9724   -1.6852 H   0  0  0  0  0  0  0  0  0  0  0  0
  1  8  1  0  0  0  0
  2  1  1  0  0  0  0
  3  2  2  0  0  0  0
  4  1  2  0  0  0  0
  4  5  1  0  0  0  0
  5  6  2  0  0  0  0
  6  7  1  0  0  0  0
  6 11  1  0  0  0  0
  7 12  1  0  0  0  0
  8 13  1  0  0  0  0
  8  7  2  0  0  0  0
  9  4  1  0  0  0  0
 10  5  1  0  0  0  0
 14 19  2  0  0  0  0
 15 16  2  0  0  0  0
 15 14  1  0  0  0  0
 16 17  1  0  0  0  0
 17 22  1  0  0  0  0
 17 18  2  0  0  0  0
 18 23  1  0  0  0  0
 19 18  1  0  0  0  0
 19 24  1  0  0  0  0
 20 14  1  0  0  0  0
 21 15  1  0  0  0  0
 24 25  2  0  0  0  0
 24 27  1  0  0  0  0
 26 24  2  0  0  0  0
 28 16  1  0  0  0  0
 28 29  1  0  0  0  0
 30 28  1  0  0  0  0
 31 28  1  0  0  0  0
M  RAD  2   3   2  27   2
M  END
