Coordinates from ORCA-job PhN2+~TsO-_B3LYPG-6-31G_dp-NX-Scan-d89-09-n800
 OpenBabel11261920463D

 31 32  0  0  1  0  0  0  0  0999 V2000
   -5.3912   -1.3351   -0.9924 C   0  0  2  0  0  0  0  0  0  0  0  0
   -6.2819   -0.5446   -1.5364 N   0  0  0  0  0  0  0  0  0  0  0  0
   -7.0906    0.1032   -2.0130 N   0  0  0  0  0  0  0  0  0  0  0  0
   -4.5460   -2.1486   -1.8466 C   0  0  0  0  0  0  0  0  0  0  0  0
   -3.9860   -3.2544   -1.3239 C   0  0  0  0  0  0  0  0  0  0  0  0
   -4.4262   -3.7242    0.0234 C   0  0  1  0  0  0  0  0  0  0  0  0
   -4.7994   -2.6146    0.9527 C   0  0  0  0  0  0  0  0  0  0  0  0
   -5.3656   -1.5030    0.4497 C   0  0  0  0  0  0  0  0  0  0  0  0
   -4.3737   -1.8353   -2.8716 H   0  0  0  0  0  0  0  0  0  0  0  0
   -3.3144   -3.8789   -1.9025 H   0  0  0  0  0  0  0  0  0  0  0  0
   -3.7286   -4.4389    0.4621 H   0  0  0  0  0  0  0  0  0  0  0  0
   -4.7241   -2.7792    2.0216 H   0  0  0  0  0  0  0  0  0  0  0  0
   -5.7875   -0.7254    1.0789 H   0  0  0  0  0  0  0  0  0  0  0  0
   -8.7016   -5.9983    0.2867 C   0  0  0  0  0  0  0  0  0  0  0  0
   -9.8348   -6.4801   -0.3615 C   0  0  0  0  0  0  0  0  0  0  0  0
   -9.7299   -7.3675   -1.4445 C   0  0  0  0  0  0  0  0  0  0  0  0
   -8.4531   -7.7663   -1.8621 C   0  0  0  0  0  0  0  0  0  0  0  0
   -7.3060   -7.2950   -1.2258 C   0  0  0  0  0  0  0  0  0  0  0  0
   -7.4433   -6.4092   -0.1581 C   0  0  0  0  0  0  0  0  0  0  0  0
   -8.7811   -5.3254    1.1335 H   0  0  0  0  0  0  0  0  0  0  0  0
  -10.8177   -6.1672   -0.0195 H   0  0  0  0  0  0  0  0  0  0  0  0
   -8.3550   -8.4584   -2.6940 H   0  0  0  0  0  0  0  0  0  0  0  0
   -6.3187   -7.6157   -1.5391 H   0  0  0  0  0  0  0  0  0  0  0  0
   -5.9844   -5.8016    0.6661 S   0  0  0  0  0  0  0  0  0  0  0  0
   -6.3347   -5.3626    2.0198 O   0  0  0  0  0  0  0  0  0  0  0  0
   -5.7109   -4.4957   -0.2779 O   0  0  0  0  0  0  0  0  0  0  0  0
   -4.8825   -6.7512    0.4820 O   0  0  0  0  0  0  0  0  0  0  0  0
  -10.9707   -7.8844   -2.1318 C   0  0  0  0  0  0  0  0  0  0  0  0
  -11.6015   -8.4493   -1.4354 H   0  0  0  0  0  0  0  0  0  0  0  0
  -11.5796   -7.0608   -2.5212 H   0  0  0  0  0  0  0  0  0  0  0  0
  -10.7213   -8.5431   -2.9677 H   0  0  0  0  0  0  0  0  0  0  0  0
  1  2  1  6  0  0  0
  1  8  1  0  0  0  0
  3  2  1  0  0  0  0
  4  5  2  0  0  0  0
  4  1  1  0  0  0  0
  5  6  1  0  0  0  0
  6 11  1  1  0  0  0
  6  7  1  0  0  0  0
  7 12  1  0  0  0  0
  8  7  2  0  0  0  0
  8 13  1  0  0  0  0
  9  4  1  0  0  0  0
 10  5  1  0  0  0  0
 14 20  1  0  0  0  0
 15 21  1  0  0  0  0
 15 14  2  0  0  0  0
 16 15  1  0  0  0  0
 17 16  2  0  0  0  0
 17 18  1  0  0  0  0
 18 19  2  0  0  0  0
 19 14  1  0  0  0  0
 19 24  1  0  0  0  0
 22 17  1  0  0  0  0
 23 18  1  0  0  0  0
 24 25  2  0  0  0  0
 26  6  1  0  0  0  0
 26 24  1  0  0  0  0
 27 24  2  0  0  0  0
 28 16  1  0  0  0  0
 28 29  1  0  0  0  0
 30 28  1  0  0  0  0
 31 28  1  0  0  0  0
M  RAD  3   1   2   2   2   3   3
M  END
