Coordinates from ORCA-job PhN2+~TsO-_B3LYPG-6-31G_dp-NX-Scan-d89-09-n800
 OpenBabel11261920463D

 31 32  0  0  1  0  0  0  0  0999 V2000
   -5.4954   -1.4182   -0.6440 C   0  0  2  0  0  0  0  0  0  0  0  0
   -6.8063   -1.4029   -0.6532 N   0  0  0  0  0  0  0  0  0  0  0  0
   -7.9415   -1.4930   -0.6541 N   0  0  0  0  0  0  0  0  0  0  0  0
   -4.8617   -1.9799   -1.8537 C   0  0  0  0  0  0  0  0  0  0  0  0
   -4.1670   -3.1165   -1.6939 C   0  0  0  0  0  0  0  0  0  0  0  0
   -4.3120   -3.8014   -0.3635 C   0  0  1  0  0  0  0  0  0  0  0  0
   -4.1730   -2.8257    0.7746 C   0  0  0  0  0  0  0  0  0  0  0  0
   -4.8676   -1.6834    0.6662 C   0  0  0  0  0  0  0  0  0  0  0  0
   -4.9733   -1.4749   -2.8089 H   0  0  0  0  0  0  0  0  0  0  0  0
   -3.5992   -3.5826   -2.4922 H   0  0  0  0  0  0  0  0  0  0  0  0
   -3.6897   -4.6888   -0.2549 H   0  0  0  0  0  0  0  0  0  0  0  0
   -3.6125   -3.0974    1.6629 H   0  0  0  0  0  0  0  0  0  0  0  0
   -4.9906   -0.9756    1.4806 H   0  0  0  0  0  0  0  0  0  0  0  0
   -8.7489   -5.4332   -0.3117 C   0  0  0  0  0  0  0  0  0  0  0  0
   -9.7903   -6.0449   -1.0021 C   0  0  0  0  0  0  0  0  0  0  0  0
   -9.6535   -7.3401   -1.5277 C   0  0  0  0  0  0  0  0  0  0  0  0
   -8.4359   -8.0089   -1.3497 C   0  0  0  0  0  0  0  0  0  0  0  0
   -7.3765   -7.4103   -0.6673 C   0  0  0  0  0  0  0  0  0  0  0  0
   -7.5454   -6.1256   -0.1552 C   0  0  0  0  0  0  0  0  0  0  0  0
   -8.8624   -4.4344    0.0952 H   0  0  0  0  0  0  0  0  0  0  0  0
  -10.7274   -5.5099   -1.1337 H   0  0  0  0  0  0  0  0  0  0  0  0
   -8.3130   -9.0119   -1.7483 H   0  0  0  0  0  0  0  0  0  0  0  0
   -6.4339   -7.9275   -0.5248 H   0  0  0  0  0  0  0  0  0  0  0  0
   -6.2050   -5.3625    0.7402 S   0  0  0  0  0  0  0  0  0  0  0  0
   -6.7460   -4.6537    1.8990 O   0  0  0  0  0  0  0  0  0  0  0  0
   -5.7560   -4.2705   -0.4000 O   0  0  0  0  0  0  0  0  0  0  0  0
   -5.1147   -6.3278    0.9161 O   0  0  0  0  0  0  0  0  0  0  0  0
  -10.8052   -7.9986   -2.2482 C   0  0  0  0  0  0  0  0  0  0  0  0
  -11.5775   -8.3207   -1.5394 H   0  0  0  0  0  0  0  0  0  0  0  0
  -11.2818   -7.3084   -2.9520 H   0  0  0  0  0  0  0  0  0  0  0  0
  -10.4787   -8.8809   -2.8048 H   0  0  0  0  0  0  0  0  0  0  0  0
  1  2  1  1  0  0  0
  1  8  1  0  0  0  0
  3  2  1  0  0  0  0
  4  5  2  0  0  0  0
  4  1  1  0  0  0  0
  5  6  1  0  0  0  0
  6 11  1  1  0  0  0
  6  7  1  0  0  0  0
  7 12  1  0  0  0  0
  8  7  2  0  0  0  0
  8 13  1  0  0  0  0
  9  4  1  0  0  0  0
 10  5  1  0  0  0  0
 14 19  1  0  0  0  0
 14 20  1  0  0  0  0
 15 14  2  0  0  0  0
 16 17  2  0  0  0  0
 16 15  1  0  0  0  0
 17 18  1  0  0  0  0
 18 23  1  0  0  0  0
 18 19  2  0  0  0  0
 19 24  1  0  0  0  0
 21 15  1  0  0  0  0
 22 17  1  0  0  0  0
 24 27  2  0  0  0  0
 24 25  2  0  0  0  0
 26  6  1  0  0  0  0
 26 24  1  0  0  0  0
 28 29  1  0  0  0  0
 28 16  1  0  0  0  0
 30 28  1  0  0  0  0
 31 28  1  0  0  0  0
M  RAD  3   1   2   2   2   3   3
M  END
