Coordinates from ORCA-job PhN2+~TsO-_B3LYPG-6-31G_dp-NX-Scan-d89-09-n800
 OpenBabel11261920463D

 31 32  0  0  0  0  0  0  0  0999 V2000
   -5.0091   -2.5803   -0.8737 C   0  0  0  0  0  0  0  0  0  0  0  0
   -6.4292   -2.6406   -0.9709 N   0  0  0  0  0  0  0  0  0  0  0  0
   -7.2011   -3.3281   -0.2751 N   0  0  0  0  0  0  0  0  0  0  0  0
   -4.4618   -1.7599   -1.8792 C   0  0  0  0  0  0  0  0  0  0  0  0
   -3.0908   -1.5478   -1.9687 C   0  0  0  0  0  0  0  0  0  0  0  0
   -2.2353   -2.1492   -1.0428 C   0  0  0  0  0  0  0  0  0  0  0  0
   -2.7650   -2.9594   -0.0368 C   0  0  0  0  0  0  0  0  0  0  0  0
   -4.1384   -3.1850    0.0589 C   0  0  0  0  0  0  0  0  0  0  0  0
   -5.1498   -1.2985   -2.5795 H   0  0  0  0  0  0  0  0  0  0  0  0
   -2.6904   -0.9131   -2.7539 H   0  0  0  0  0  0  0  0  0  0  0  0
   -1.1630   -1.9849   -1.1019 H   0  0  0  0  0  0  0  0  0  0  0  0
   -2.1036   -3.4263    0.6873 H   0  0  0  0  0  0  0  0  0  0  0  0
   -4.5169   -3.8141    0.8494 H   0  0  0  0  0  0  0  0  0  0  0  0
   -9.7720   -5.4315   -0.3038 C   0  0  0  0  0  0  0  0  0  0  0  0
  -10.4020   -6.2400   -1.2454 C   0  0  0  0  0  0  0  0  0  0  0  0
   -9.9426   -7.5386   -1.5140 C   0  0  0  0  0  0  0  0  0  0  0  0
   -8.8238   -8.0148   -0.8141 C   0  0  0  0  0  0  0  0  0  0  0  0
   -8.1754   -7.2246    0.1311 C   0  0  0  0  0  0  0  0  0  0  0  0
   -8.6619   -5.9384    0.3758 C   0  0  0  0  0  0  0  0  0  0  0  0
  -10.1270   -4.4300   -0.0935 H   0  0  0  0  0  0  0  0  0  0  0  0
  -11.2658   -5.8564   -1.7808 H   0  0  0  0  0  0  0  0  0  0  0  0
   -8.4566   -9.0177   -1.0112 H   0  0  0  0  0  0  0  0  0  0  0  0
   -7.3153   -7.5946    0.6782 H   0  0  0  0  0  0  0  0  0  0  0  0
   -7.8422   -4.9273    1.5820 S   0  0  0  0  0  0  0  0  0  0  0  0
   -8.7582   -3.9257    2.1027 O   0  0  0  0  0  0  0  0  0  0  0  0
   -6.6544   -4.0895    0.6264 O   0  0  0  0  0  0  0  0  0  0  0  0
   -6.9839   -5.7393    2.4297 O   0  0  0  0  0  0  0  0  0  0  0  0
  -10.6563   -8.4144   -2.5138 C   0  0  0  0  0  0  0  0  0  0  0  0
  -11.4760   -8.9630   -2.0335 H   0  0  0  0  0  0  0  0  0  0  0  0
  -11.0921   -7.8233   -3.3240 H   0  0  0  0  0  0  0  0  0  0  0  0
   -9.9817   -9.1543   -2.9534 H   0  0  0  0  0  0  0  0  0  0  0  0
  1  8  2  0  0  0  0
  2  1  1  0  0  0  0
  2  3  2  0  0  0  0
  3 26  1  0  0  0  0
  4  1  1  0  0  0  0
  5  4  2  0  0  0  0
  5  6  1  0  0  0  0
  6  7  2  0  0  0  0
  7  8  1  0  0  0  0
  7 12  1  0  0  0  0
  8 13  1  0  0  0  0
  9  4  1  0  0  0  0
 10  5  1  0  0  0  0
 11  6  1  0  0  0  0
 14 20  1  0  0  0  0
 14 19  2  0  0  0  0
 15 14  1  0  0  0  0
 16 15  2  0  0  0  0
 16 17  1  0  0  0  0
 17 18  2  0  0  0  0
 18 19  1  0  0  0  0
 18 23  1  0  0  0  0
 19 24  1  0  0  0  0
 21 15  1  0  0  0  0
 22 17  1  0  0  0  0
 24 25  2  0  0  0  0
 24 27  2  0  0  0  0
 26 24  1  0  0  0  0
 28 29  1  0  0  0  0
 28 16  1  0  0  0  0
 30 28  1  0  0  0  0
 31 28  1  0  0  0  0
M  END
