Coordinates from ORCA-job PhN2+~TsO-_B3LYPG-6-31G_dp-NX-Scan-d89-09-n800
 OpenBabel11261920463D

 31 32  0  0  1  0  0  0  0  0999 V2000
   -5.3522   -1.3511   -0.7822 C   0  0  2  0  0  0  0  0  0  0  0  0
   -6.6101   -1.7446   -0.5764 N   0  0  0  0  0  0  0  0  0  0  0  0
   -7.4858   -2.4290   -0.3506 N   0  0  0  0  0  0  0  0  0  0  0  0
   -4.8222   -2.1018   -1.9660 C   0  0  0  0  0  0  0  0  0  0  0  0
   -4.2976   -3.3075   -1.7003 C   0  0  0  0  0  0  0  0  0  0  0  0
   -4.4402   -3.7984   -0.2860 C   0  0  1  0  0  0  0  0  0  0  0  0
   -4.0478   -2.7289    0.6977 C   0  0  0  0  0  0  0  0  0  0  0  0
   -4.5796   -1.5138    0.4915 C   0  0  0  0  0  0  0  0  0  0  0  0
   -4.9060   -1.6904   -2.9679 H   0  0  0  0  0  0  0  0  0  0  0  0
   -3.8291   -3.9366   -2.4513 H   0  0  0  0  0  0  0  0  0  0  0  0
   -3.9737   -4.7632   -0.1001 H   0  0  0  0  0  0  0  0  0  0  0  0
   -3.4177   -2.9740    1.5477 H   0  0  0  0  0  0  0  0  0  0  0  0
   -4.5010   -0.6951    1.2011 H   0  0  0  0  0  0  0  0  0  0  0  0
   -8.9928   -5.4826   -0.0989 C   0  0  0  0  0  0  0  0  0  0  0  0
   -9.9529   -6.1354   -0.8683 C   0  0  0  0  0  0  0  0  0  0  0  0
   -9.6406   -7.2971   -1.5901 C   0  0  0  0  0  0  0  0  0  0  0  0
   -8.3307   -7.7929   -1.5246 C   0  0  0  0  0  0  0  0  0  0  0  0
   -7.3544   -7.1525   -0.7646 C   0  0  0  0  0  0  0  0  0  0  0  0
   -7.6956   -5.9969   -0.0606 C   0  0  0  0  0  0  0  0  0  0  0  0
   -9.2396   -4.5904    0.4644 H   0  0  0  0  0  0  0  0  0  0  0  0
  -10.9635   -5.7375   -0.9065 H   0  0  0  0  0  0  0  0  0  0  0  0
   -8.0722   -8.6959   -2.0710 H   0  0  0  0  0  0  0  0  0  0  0  0
   -6.3453   -7.5449   -0.7021 H   0  0  0  0  0  0  0  0  0  0  0  0
   -6.4504   -5.1787    0.9233 S   0  0  0  0  0  0  0  0  0  0  0  0
   -7.0964   -4.5340    2.0635 O   0  0  0  0  0  0  0  0  0  0  0  0
   -5.9790   -3.9897   -0.1202 O   0  0  0  0  0  0  0  0  0  0  0  0
   -5.3294   -6.1026    1.1288 O   0  0  0  0  0  0  0  0  0  0  0  0
  -10.6987   -8.0161   -2.3913 C   0  0  0  0  0  0  0  0  0  0  0  0
  -11.2166   -8.7612   -1.7747 H   0  0  0  0  0  0  0  0  0  0  0  0
  -11.4560   -7.3228   -2.7681 H   0  0  0  0  0  0  0  0  0  0  0  0
  -10.2650   -8.5448   -3.2447 H   0  0  0  0  0  0  0  0  0  0  0  0
  1  2  1  1  0  0  0
  1  8  1  0  0  0  0
  2  3  1  0  0  0  0
  4  5  2  0  0  0  0
  4  1  1  0  0  0  0
  5  6  1  0  0  0  0
  6 26  1  0  0  0  0
  6 11  1  1  0  0  0
  6  7  1  0  0  0  0
  7 12  1  0  0  0  0
  8  7  2  0  0  0  0
  8 13  1  0  0  0  0
  9  4  1  0  0  0  0
 10  5  1  0  0  0  0
 14 19  1  0  0  0  0
 14 20  1  0  0  0  0
 15 14  2  0  0  0  0
 16 17  2  0  0  0  0
 16 15  1  0  0  0  0
 17 18  1  0  0  0  0
 18 23  1  0  0  0  0
 18 19  2  0  0  0  0
 19 24  1  0  0  0  0
 21 15  1  0  0  0  0
 22 17  1  0  0  0  0
 24 27  2  0  0  0  0
 24 25  2  0  0  0  0
 26 24  1  0  0  0  0
 28 29  1  0  0  0  0
 28 16  1  0  0  0  0
 30 28  1  0  0  0  0
 31 28  1  0  0  0  0
M  RAD  3   1   2   2   2   3   3
M  END
