Coordinates from ORCA-job PhN2+~TsO-_B3LYPG-6-31G_dp-NX-Scan-d89-09-n800
 OpenBabel11261920463D

 31 32  0  0  1  0  0  0  0  0999 V2000
   -5.3769   -1.3918   -0.8363 C   0  0  2  0  0  0  0  0  0  0  0  0
   -6.6242   -1.7018   -0.4445 N   0  0  0  0  0  0  0  0  0  0  0  0
   -7.4340   -2.3872   -0.0400 N   0  0  0  0  0  0  0  0  0  0  0  0
   -5.0387   -2.2598   -2.0023 C   0  0  0  0  0  0  0  0  0  0  0  0
   -4.5085   -3.4590   -1.7048 C   0  0  0  0  0  0  0  0  0  0  0  0
   -4.4824   -3.8264   -0.2548 C   0  0  1  0  0  0  0  0  0  0  0  0
   -3.9484   -2.7080    0.5838 C   0  0  0  0  0  0  0  0  0  0  0  0
   -4.4728   -1.4924    0.3469 C   0  0  0  0  0  0  0  0  0  0  0  0
   -5.2661   -1.9405   -3.0155 H   0  0  0  0  0  0  0  0  0  0  0  0
   -4.1663   -4.1651   -2.4554 H   0  0  0  0  0  0  0  0  0  0  0  0
   -4.0581   -4.8017   -0.0328 H   0  0  0  0  0  0  0  0  0  0  0  0
   -3.2346   -2.9107    1.3767 H   0  0  0  0  0  0  0  0  0  0  0  0
   -4.3048   -0.6330    0.9896 H   0  0  0  0  0  0  0  0  0  0  0  0
   -8.9917   -5.4760   -0.0678 C   0  0  0  0  0  0  0  0  0  0  0  0
   -9.9130   -6.1067   -0.8998 C   0  0  0  0  0  0  0  0  0  0  0  0
   -9.5630   -7.2436   -1.6440 C   0  0  0  0  0  0  0  0  0  0  0  0
   -8.2553   -7.7365   -1.5348 C   0  0  0  0  0  0  0  0  0  0  0  0
   -7.3170   -7.1171   -0.7111 C   0  0  0  0  0  0  0  0  0  0  0  0
   -7.6945   -5.9864    0.0134 C   0  0  0  0  0  0  0  0  0  0  0  0
   -9.2693   -4.6042    0.5136 H   0  0  0  0  0  0  0  0  0  0  0  0
  -10.9230   -5.7117   -0.9704 H   0  0  0  0  0  0  0  0  0  0  0  0
   -7.9679   -8.6209   -2.0972 H   0  0  0  0  0  0  0  0  0  0  0  0
   -6.3100   -7.5080   -0.6154 H   0  0  0  0  0  0  0  0  0  0  0  0
   -6.4975   -5.1844    1.0712 S   0  0  0  0  0  0  0  0  0  0  0  0
   -7.1951   -4.6264    2.2255 O   0  0  0  0  0  0  0  0  0  0  0  0
   -6.0363   -3.9057    0.1377 O   0  0  0  0  0  0  0  0  0  0  0  0
   -5.3566   -6.0893    1.2502 O   0  0  0  0  0  0  0  0  0  0  0  0
  -10.5808   -7.9388   -2.5151 C   0  0  0  0  0  0  0  0  0  0  0  0
  -11.1420   -8.6861   -1.9405 H   0  0  0  0  0  0  0  0  0  0  0  0
  -11.3079   -7.2313   -2.9244 H   0  0  0  0  0  0  0  0  0  0  0  0
  -10.1050   -8.4601   -3.3504 H   0  0  0  0  0  0  0  0  0  0  0  0
  1  2  1  1  0  0  0
  1  8  1  0  0  0  0
  2  3  2  0  0  0  0
  4  5  2  0  0  0  0
  4  1  1  0  0  0  0
  5  6  1  0  0  0  0
  6 11  1  1  0  0  0
  6 26  1  0  0  0  0
  6  7  1  0  0  0  0
  7 12  1  0  0  0  0
  8  7  2  0  0  0  0
  8 13  1  0  0  0  0
  9  4  1  0  0  0  0
 10  5  1  0  0  0  0
 14 19  1  0  0  0  0
 14 20  1  0  0  0  0
 15 14  2  0  0  0  0
 16 17  2  0  0  0  0
 16 15  1  0  0  0  0
 17 18  1  0  0  0  0
 18 23  1  0  0  0  0
 18 19  2  0  0  0  0
 19 24  1  0  0  0  0
 21 15  1  0  0  0  0
 22 17  1  0  0  0  0
 24 27  2  0  0  0  0
 24 25  2  0  0  0  0
 26 24  1  0  0  0  0
 28 29  1  0  0  0  0
 28 16  1  0  0  0  0
 30 28  1  0  0  0  0
 31 28  1  0  0  0  0
M  RAD  2   1   2   3   2
M  END
