Coordinates from ORCA-job PhN2+~TsO-_B3LYPG-6-31G_dp-NX-Scan-d89-09-n800
 OpenBabel11261920463D

 31 32  0  0  1  0  0  0  0  0999 V2000
   -5.4346   -1.3825   -0.6417 C   0  0  2  0  0  0  0  0  0  0  0  0
   -6.7260   -1.6242   -0.5825 N   0  0  0  0  0  0  0  0  0  0  0  0
   -7.8044   -1.9787   -0.5237 N   0  0  0  0  0  0  0  0  0  0  0  0
   -4.8127   -1.9544   -1.8701 C   0  0  0  0  0  0  0  0  0  0  0  0
   -4.1901   -3.1308   -1.7187 C   0  0  0  0  0  0  0  0  0  0  0  0
   -4.3595   -3.8018   -0.3803 C   0  0  1  0  0  0  0  0  0  0  0  0
   -4.1156   -2.8285    0.7473 C   0  0  0  0  0  0  0  0  0  0  0  0
   -4.7409   -1.6475    0.6508 C   0  0  0  0  0  0  0  0  0  0  0  0
   -4.8892   -1.4312   -2.8190 H   0  0  0  0  0  0  0  0  0  0  0  0
   -3.6410   -3.6253   -2.5139 H   0  0  0  0  0  0  0  0  0  0  0  0
   -3.7999   -4.7304   -0.2802 H   0  0  0  0  0  0  0  0  0  0  0  0
   -3.5209   -3.1250    1.6056 H   0  0  0  0  0  0  0  0  0  0  0  0
   -4.7765   -0.9164    1.4532 H   0  0  0  0  0  0  0  0  0  0  0  0
   -8.8556   -5.4240   -0.2720 C   0  0  0  0  0  0  0  0  0  0  0  0
   -9.8647   -6.0728   -0.9769 C   0  0  0  0  0  0  0  0  0  0  0  0
   -9.6593   -7.3420   -1.5412 C   0  0  0  0  0  0  0  0  0  0  0  0
   -8.4060   -7.9481   -1.3853 C   0  0  0  0  0  0  0  0  0  0  0  0
   -7.3788   -7.3125   -0.6882 C   0  0  0  0  0  0  0  0  0  0  0  0
   -7.6155   -6.0532   -0.1395 C   0  0  0  0  0  0  0  0  0  0  0  0
   -9.0204   -4.4464    0.1657 H   0  0  0  0  0  0  0  0  0  0  0  0
  -10.8307   -5.5871   -1.0894 H   0  0  0  0  0  0  0  0  0  0  0  0
   -8.2302   -8.9317   -1.8115 H   0  0  0  0  0  0  0  0  0  0  0  0
   -6.4107   -7.7840   -0.5599 H   0  0  0  0  0  0  0  0  0  0  0  0
   -6.3129   -5.2453    0.7724 S   0  0  0  0  0  0  0  0  0  0  0  0
   -6.8958   -4.5166    1.8968 O   0  0  0  0  0  0  0  0  0  0  0  0
   -5.8360   -4.1607   -0.3710 O   0  0  0  0  0  0  0  0  0  0  0  0
   -5.2152   -6.1918    0.9973 O   0  0  0  0  0  0  0  0  0  0  0  0
  -10.7758   -8.0421   -2.2774 C   0  0  0  0  0  0  0  0  0  0  0  0
  -11.5182   -8.4408   -1.5753 H   0  0  0  0  0  0  0  0  0  0  0  0
  -11.3029   -7.3555   -2.9478 H   0  0  0  0  0  0  0  0  0  0  0  0
  -10.4017   -8.8795   -2.8721 H   0  0  0  0  0  0  0  0  0  0  0  0
  1  2  1  1  0  0  0
  1  8  1  0  0  0  0
  2  3  1  0  0  0  0
  4  5  2  0  0  0  0
  4  1  1  0  0  0  0
  5  6  1  0  0  0  0
  6 26  1  0  0  0  0
  6 11  1  1  0  0  0
  6  7  1  0  0  0  0
  7 12  1  0  0  0  0
  8  7  2  0  0  0  0
  8 13  1  0  0  0  0
  9  4  1  0  0  0  0
 10  5  1  0  0  0  0
 14 19  1  0  0  0  0
 14 20  1  0  0  0  0
 15 14  2  0  0  0  0
 16 17  2  0  0  0  0
 16 15  1  0  0  0  0
 17 18  1  0  0  0  0
 18 23  1  0  0  0  0
 18 19  2  0  0  0  0
 19 24  1  0  0  0  0
 21 15  1  0  0  0  0
 22 17  1  0  0  0  0
 24 27  2  0  0  0  0
 24 25  2  0  0  0  0
 26 24  1  0  0  0  0
 28 29  1  0  0  0  0
 28 16  1  0  0  0  0
 30 28  1  0  0  0  0
 31 28  1  0  0  0  0
M  RAD  3   1   2   2   2   3   3
M  END
