Coordinates from ORCA-job PhN2+~TsO-_B3LYPG-6-31G_dp-NX-Scan-d89-09-n800
 OpenBabel11261920463D

 31 32  0  0  1  0  0  0  0  0999 V2000
   -4.8247   -0.7733   -0.9060 C   0  0  0  0  0  0  0  0  0  0  0  0
   -4.7479    0.4994   -1.2216 N   0  0  0  0  0  0  0  0  0  0  0  0
   -4.6766    1.6103   -1.4936 N   0  0  0  0  0  0  0  0  0  0  0  0
   -4.3895   -1.7872   -1.8473 C   0  0  0  0  0  0  0  0  0  0  0  0
   -4.4131   -3.0889   -1.5042 C   0  0  0  0  0  0  0  0  0  0  0  0
   -4.8817   -3.5733   -0.1685 C   0  0  1  0  0  0  0  0  0  0  0  0
   -5.3403   -2.4776    0.7444 C   0  0  0  0  0  0  0  0  0  0  0  0
   -5.3180   -1.1772    0.3977 C   0  0  0  0  0  0  0  0  0  0  0  0
   -4.0326   -1.4719   -2.8228 H   0  0  0  0  0  0  0  0  0  0  0  0
   -4.0792   -3.8461   -2.2055 H   0  0  0  0  0  0  0  0  0  0  0  0
   -4.1127   -4.1967    0.3058 H   0  0  0  0  0  0  0  0  0  0  0  0
   -5.7039   -2.7822    1.7196 H   0  0  0  0  0  0  0  0  0  0  0  0
   -5.6546   -0.4083    1.0861 H   0  0  0  0  0  0  0  0  0  0  0  0
   -8.7924   -6.2742    0.2978 C   0  0  0  0  0  0  0  0  0  0  0  0
   -9.9209   -6.8634   -0.2631 C   0  0  0  0  0  0  0  0  0  0  0  0
   -9.8126   -7.7738   -1.3269 C   0  0  0  0  0  0  0  0  0  0  0  0
   -8.5365   -8.0860   -1.8139 C   0  0  0  0  0  0  0  0  0  0  0  0
   -7.3932   -7.5059   -1.2664 C   0  0  0  0  0  0  0  0  0  0  0  0
   -7.5352   -6.5994   -0.2168 C   0  0  0  0  0  0  0  0  0  0  0  0
   -8.8744   -5.5828    1.1291 H   0  0  0  0  0  0  0  0  0  0  0  0
  -10.9026   -6.6178    0.1331 H   0  0  0  0  0  0  0  0  0  0  0  0
   -8.4348   -8.7959   -2.6301 H   0  0  0  0  0  0  0  0  0  0  0  0
   -6.4046   -7.7571   -1.6335 H   0  0  0  0  0  0  0  0  0  0  0  0
   -6.0818   -5.8540    0.4932 S   0  0  0  0  0  0  0  0  0  0  0  0
   -6.3527   -5.4617    1.8793 O   0  0  0  0  0  0  0  0  0  0  0  0
   -6.0365   -4.5091   -0.4388 O   0  0  0  0  0  0  0  0  0  0  0  0
   -4.9077   -6.6777    0.1932 O   0  0  0  0  0  0  0  0  0  0  0  0
  -11.0488   -8.3997   -1.9262 C   0  0  0  0  0  0  0  0  0  0  0  0
  -11.6481   -8.9045   -1.1604 H   0  0  0  0  0  0  0  0  0  0  0  0
  -11.6904   -7.6401   -2.3881 H   0  0  0  0  0  0  0  0  0  0  0  0
  -10.7938   -9.1346   -2.6941 H   0  0  0  0  0  0  0  0  0  0  0  0
  1  8  1  0  0  0  0
  2  1  1  0  0  0  0
  3  2  1  0  0  0  0
  4  5  1  0  0  0  0
  4  1  2  0  0  0  0
  5  6  1  0  0  0  0
  6 11  1  1  0  0  0
  6  7  1  0  0  0  0
  7 12  1  0  0  0  0
  8  7  2  0  0  0  0
  8 13  1  0  0  0  0
  9  4  1  0  0  0  0
 10  5  1  0  0  0  0
 14 20  1  0  0  0  0
 15 21  1  0  0  0  0
 15 14  2  0  0  0  0
 16 15  1  0  0  0  0
 17 16  2  0  0  0  0
 17 18  1  0  0  0  0
 18 19  2  0  0  0  0
 19 14  1  0  0  0  0
 19 24  1  0  0  0  0
 22 17  1  0  0  0  0
 23 18  1  0  0  0  0
 24 25  2  0  0  0  0
 26  6  1  0  0  0  0
 26 24  1  0  0  0  0
 27 24  2  0  0  0  0
 28 16  1  0  0  0  0
 28 29  1  0  0  0  0
 30 28  1  0  0  0  0
 31 28  1  0  0  0  0
M  RAD  3   2   2   3   3   5   2
M  END
