Coordinates from ORCA-job PhN2+~TsO-_B3LYPG-6-31G_dp-NX-Scan-d89-09-n800
 OpenBabel11261920463D

 31 32  0  0  1  0  0  0  0  0999 V2000
   -5.3561   -1.3500   -0.7201 C   0  0  2  0  0  0  0  0  0  0  0  0
   -6.6176   -1.7340   -0.5950 N   0  0  0  0  0  0  0  0  0  0  0  0
   -7.5727   -2.3312   -0.4627 N   0  0  0  0  0  0  0  0  0  0  0  0
   -4.7612   -2.0157   -1.9249 C   0  0  0  0  0  0  0  0  0  0  0  0
   -4.2253   -3.2247   -1.7100 C   0  0  0  0  0  0  0  0  0  0  0  0
   -4.4171   -3.8026   -0.3312 C   0  0  1  0  0  0  0  0  0  0  0  0
   -4.0817   -2.7821    0.7294 C   0  0  0  0  0  0  0  0  0  0  0  0
   -4.6265   -1.5675    0.5717 C   0  0  0  0  0  0  0  0  0  0  0  0
   -4.8023   -1.5389   -2.9001 H   0  0  0  0  0  0  0  0  0  0  0  0
   -3.7114   -3.7987   -2.4754 H   0  0  0  0  0  0  0  0  0  0  0  0
   -3.9245   -4.7618   -0.1843 H   0  0  0  0  0  0  0  0  0  0  0  0
   -3.4786   -3.0659    1.5868 H   0  0  0  0  0  0  0  0  0  0  0  0
   -4.5837   -0.7847    1.3234 H   0  0  0  0  0  0  0  0  0  0  0  0
   -8.9730   -5.4571   -0.1598 C   0  0  0  0  0  0  0  0  0  0  0  0
   -9.9487   -6.1244   -0.8966 C   0  0  0  0  0  0  0  0  0  0  0  0
   -9.6630   -7.3243   -1.5644 C   0  0  0  0  0  0  0  0  0  0  0  0
   -8.3631   -7.8439   -1.4796 C   0  0  0  0  0  0  0  0  0  0  0  0
   -7.3716   -7.1899   -0.7519 C   0  0  0  0  0  0  0  0  0  0  0  0
   -7.6873   -5.9968   -0.1004 C   0  0  0  0  0  0  0  0  0  0  0  0
   -9.1991   -4.5345    0.3611 H   0  0  0  0  0  0  0  0  0  0  0  0
  -10.9509   -5.7075   -0.9512 H   0  0  0  0  0  0  0  0  0  0  0  0
   -8.1249   -8.7758   -1.9850 H   0  0  0  0  0  0  0  0  0  0  0  0
   -6.3703   -7.5990   -0.6745 H   0  0  0  0  0  0  0  0  0  0  0  0
   -6.4246   -5.1663    0.8485 S   0  0  0  0  0  0  0  0  0  0  0  0
   -7.0525   -4.4611    1.9630 O   0  0  0  0  0  0  0  0  0  0  0  0
   -5.9314   -4.0448   -0.2557 O   0  0  0  0  0  0  0  0  0  0  0  0
   -5.3193   -6.0998    1.0916 O   0  0  0  0  0  0  0  0  0  0  0  0
  -10.7376   -8.0585   -2.3291 C   0  0  0  0  0  0  0  0  0  0  0  0
  -11.2393   -8.7943   -1.6884 H   0  0  0  0  0  0  0  0  0  0  0  0
  -11.5045   -7.3732   -2.7007 H   0  0  0  0  0  0  0  0  0  0  0  0
  -10.3219   -8.6013   -3.1829 H   0  0  0  0  0  0  0  0  0  0  0  0
  1  2  1  1  0  0  0
  1  8  1  0  0  0  0
  2  3  1  0  0  0  0
  4  5  2  0  0  0  0
  4  1  1  0  0  0  0
  5  6  1  0  0  0  0
  6 26  1  0  0  0  0
  6 11  1  1  0  0  0
  6  7  1  0  0  0  0
  7 12  1  0  0  0  0
  8  7  2  0  0  0  0
  8 13  1  0  0  0  0
  9  4  1  0  0  0  0
 10  5  1  0  0  0  0
 14 19  1  0  0  0  0
 14 20  1  0  0  0  0
 15 14  2  0  0  0  0
 16 17  2  0  0  0  0
 16 15  1  0  0  0  0
 17 18  1  0  0  0  0
 18 23  1  0  0  0  0
 18 19  2  0  0  0  0
 19 24  1  0  0  0  0
 21 15  1  0  0  0  0
 22 17  1  0  0  0  0
 24 27  2  0  0  0  0
 24 25  2  0  0  0  0
 26 24  1  0  0  0  0
 28 29  1  0  0  0  0
 28 16  1  0  0  0  0
 30 28  1  0  0  0  0
 31 28  1  0  0  0  0
M  RAD  3   1   2   2   2   3   3
M  END
