Coordinates from ORCA-job PhN2+~TsO-_B3LYPG-6-31G_dp-NX-Scan-d89-09-n800
 OpenBabel11261920463D

 31 32  0  0  0  0  0  0  0  0999 V2000
   -4.3982   -2.4818   -0.6733 C   0  0  0  0  0  0  0  0  0  0  0  0
   -5.5213   -3.3399   -0.5576 N   0  0  0  0  0  0  0  0  0  0  0  0
   -6.2790   -3.4710   -1.5814 N   0  0  0  0  0  0  0  0  0  0  0  0
   -3.7396   -2.2705    0.5516 C   0  0  0  0  0  0  0  0  0  0  0  0
   -2.6062   -1.4689    0.6173 C   0  0  0  0  0  0  0  0  0  0  0  0
   -2.1030   -0.8673   -0.5397 C   0  0  0  0  0  0  0  0  0  0  0  0
   -2.7493   -1.0771   -1.7574 C   0  0  0  0  0  0  0  0  0  0  0  0
   -3.8923   -1.8751   -1.8377 C   0  0  0  0  0  0  0  0  0  0  0  0
   -4.1445   -2.7467    1.4380 H   0  0  0  0  0  0  0  0  0  0  0  0
   -2.1140   -1.3137    1.5727 H   0  0  0  0  0  0  0  0  0  0  0  0
   -1.2155   -0.2438   -0.4919 H   0  0  0  0  0  0  0  0  0  0  0  0
   -2.3653   -0.6163   -2.6627 H   0  0  0  0  0  0  0  0  0  0  0  0
   -4.3671   -2.0166   -2.7990 H   0  0  0  0  0  0  0  0  0  0  0  0
   -8.2870   -7.3681   -1.1054 C   0  0  0  0  0  0  0  0  0  0  0  0
   -9.2496   -8.3157   -1.4441 C   0  0  0  0  0  0  0  0  0  0  0  0
  -10.5381   -8.2697   -0.8880 C   0  0  0  0  0  0  0  0  0  0  0  0
  -10.8391   -7.2433    0.0178 C   0  0  0  0  0  0  0  0  0  0  0  0
   -9.8856   -6.2872    0.3679 C   0  0  0  0  0  0  0  0  0  0  0  0
   -8.6183   -6.3539   -0.2044 C   0  0  0  0  0  0  0  0  0  0  0  0
   -7.2969   -7.4093   -1.5502 H   0  0  0  0  0  0  0  0  0  0  0  0
   -9.0007   -9.1020   -2.1525 H   0  0  0  0  0  0  0  0  0  0  0  0
  -11.8328   -7.1924    0.4551 H   0  0  0  0  0  0  0  0  0  0  0  0
  -10.1058   -5.4906    1.0721 H   0  0  0  0  0  0  0  0  0  0  0  0
   -7.3582   -5.1532    0.3198 S   0  0  1  0  0  0  0  0  0  0  0  0
   -7.4247   -4.4333   -1.2605 O   0  0  0  0  0  0  0  0  0  0  0  0
   -6.3308   -3.0995   -2.5516 O   0  0  0  0  0  0  0  0  0  0  0  0
   -8.0231   -4.2752    1.3182 O   0  0  0  0  0  0  0  0  0  0  0  0
  -11.5637   -9.3210   -1.2390 C   0  0  0  0  0  0  0  0  0  0  0  0
  -11.4928   -9.6134   -2.2910 H   0  0  0  0  0  0  0  0  0  0  0  0
  -11.4186  -10.2284   -0.6400 H   0  0  0  0  0  0  0  0  0  0  0  0
  -12.5811   -8.9657   -1.0519 H   0  0  0  0  0  0  0  0  0  0  0  0
  1  2  1  0  0  0  0
  1  4  2  0  0  0  0
  3 25  1  0  0  0  0
  3  2  1  0  0  0  0
  4  5  1  0  0  0  0
  4  9  1  0  0  0  0
  5 10  1  0  0  0  0
  6 11  1  0  0  0  0
  6  5  2  0  0  0  0
  7  6  1  0  0  0  0
  8  7  2  0  0  0  0
  8  1  1  0  0  0  0
 12  7  1  0  0  0  0
 13  8  1  0  0  0  0
 14 19  1  0  0  0  0
 15 14  2  0  0  0  0
 15 16  1  0  0  0  0
 16 17  2  0  0  0  0
 17 18  1  0  0  0  0
 17 22  1  0  0  0  0
 18 23  1  0  0  0  0
 19 24  1  0  0  0  0
 19 18  2  0  0  0  0
 20 14  1  0  0  0  0
 21 15  1  0  0  0  0
 24 25  1  6  0  0  0
 24 27  1  0  0  0  0
 26  3  1  0  0  0  0
 28 31  1  0  0  0  0
 28 16  1  0  0  0  0
 28 30  1  0  0  0  0
 29 28  1  0  0  0  0
M  RAD  3   2   2  26   2  27   2
M  END
