Coordinates from ORCA-job PhN2+~TsO-_B3LYPG-6-31G_dp-NX-Scan-d89-09-n800
 OpenBabel11261920463D

 31 31  0  0  0  0  0  0  0  0999 V2000
   -3.8881   -0.4056   -0.2712 C   0  0  0  0  0  0  0  0  0  0  0  0
   -3.7395    0.9256   -0.0583 N   0  0  0  0  0  0  0  0  0  0  0  0
   -3.6354    2.0289    0.1298 N   0  0  0  0  0  0  0  0  0  0  0  0
   -2.9820   -1.0524   -1.1488 C   0  0  0  0  0  0  0  0  0  0  0  0
   -3.1726   -2.4041   -1.3643 C   0  0  0  0  0  0  0  0  0  0  0  0
   -4.2279   -3.0897   -0.7354 C   0  0  0  0  0  0  0  0  0  0  0  0
   -5.1103   -2.4245    0.1401 C   0  0  0  0  0  0  0  0  0  0  0  0
   -4.9546   -1.0748    0.3854 C   0  0  0  0  0  0  0  0  0  0  0  0
   -2.1849   -0.4924   -1.6247 H   0  0  0  0  0  0  0  0  0  0  0  0
   -2.5059   -2.9352   -2.0357 H   0  0  0  0  0  0  0  0  0  0  0  0
   -4.4264   -4.1474   -0.9284 H   0  0  0  0  0  0  0  0  0  0  0  0
   -5.9374   -2.9927    0.5801 H   0  0  0  0  0  0  0  0  0  0  0  0
   -5.6219   -0.5264    1.0416 H   0  0  0  0  0  0  0  0  0  0  0  0
   -9.5222   -6.3134   -0.1369 C   0  0  0  0  0  0  0  0  0  0  0  0
  -10.4255   -7.3712   -0.2184 C   0  0  0  0  0  0  0  0  0  0  0  0
  -10.1221   -8.5290   -0.9499 C   0  0  0  0  0  0  0  0  0  0  0  0
   -8.8831   -8.5963   -1.5999 C   0  0  0  0  0  0  0  0  0  0  0  0
   -7.9708   -7.5428   -1.5262 C   0  0  0  0  0  0  0  0  0  0  0  0
   -8.2928   -6.4010   -0.7937 C   0  0  0  0  0  0  0  0  0  0  0  0
   -9.7529   -5.4257    0.4425 H   0  0  0  0  0  0  0  0  0  0  0  0
  -11.3815   -7.2999    0.2956 H   0  0  0  0  0  0  0  0  0  0  0  0
   -8.6268   -9.4874   -2.1689 H   0  0  0  0  0  0  0  0  0  0  0  0
   -7.0058   -7.6007   -2.0173 H   0  0  0  0  0  0  0  0  0  0  0  0
   -7.1552   -5.0068   -0.7497 S   0  0  0  0  0  0  0  0  0  0  0  0
   -7.3233   -4.4144    0.6177 O   0  0  0  0  0  0  0  0  0  0  0  0
   -7.5425   -4.0734   -1.8375 O   0  0  0  0  0  0  0  0  0  0  0  0
   -5.7954   -5.6079   -0.9528 O   0  0  0  0  0  0  0  0  0  0  0  0
  -11.0960   -9.6828   -1.0082 C   0  0  0  0  0  0  0  0  0  0  0  0
  -11.0497  -10.2908   -0.0950 H   0  0  0  0  0  0  0  0  0  0  0  0
  -12.1286   -9.3319   -1.1077 H   0  0  0  0  0  0  0  0  0  0  0  0
  -10.8809  -10.3446   -1.8525 H   0  0  0  0  0  0  0  0  0  0  0  0
  1  2  1  0  0  0  0
  1  8  2  0  0  0  0
  2  3  1  0  0  0  0
  4  1  1  0  0  0  0
  5  4  2  0  0  0  0
  5  6  1  0  0  0  0
  6  7  2  0  0  0  0
  7  8  1  0  0  0  0
  7 12  1  0  0  0  0
  8 13  1  0  0  0  0
  9  4  1  0  0  0  0
 10  5  1  0  0  0  0
 11  6  1  0  0  0  0
 14 20  1  0  0  0  0
 15 14  1  0  0  0  0
 15 21  1  0  0  0  0
 16 15  2  0  0  0  0
 17 18  2  0  0  0  0
 17 16  1  0  0  0  0
 18 19  1  0  0  0  0
 19 24  1  0  0  0  0
 19 14  2  0  0  0  0
 22 17  1  0  0  0  0
 23 18  1  0  0  0  0
 24 25  1  0  0  0  0
 26 24  2  0  0  0  0
 27 24  2  0  0  0  0
 28 16  1  0  0  0  0
 28 29  1  0  0  0  0
 30 28  1  0  0  0  0
 31 28  1  0  0  0  0
M  RAD  3   2   2   3   3  25   2
M  END
