Coordinates from ORCA-job PhN2+~TsO-_B3LYPG-6-31G_dp-NX-Scan-d89-09-n800
 OpenBabel11261920463D

 31 32  0  0  1  0  0  0  0  0999 V2000
   -5.4980   -1.4205   -0.6465 C   0  0  2  0  0  0  0  0  0  0  0  0
   -6.8075   -1.3683   -0.6647 N   0  0  0  0  0  0  0  0  0  0  0  0
   -7.9450   -1.4241   -0.6738 N   0  0  0  0  0  0  0  0  0  0  0  0
   -4.8642   -1.9843   -1.8531 C   0  0  0  0  0  0  0  0  0  0  0  0
   -4.1650   -3.1181   -1.6907 C   0  0  0  0  0  0  0  0  0  0  0  0
   -4.3087   -3.8023   -0.3603 C   0  0  1  0  0  0  0  0  0  0  0  0
   -4.1803   -2.8258    0.7778 C   0  0  0  0  0  0  0  0  0  0  0  0
   -4.8793   -1.6863    0.6660 C   0  0  0  0  0  0  0  0  0  0  0  0
   -4.9776   -1.4822   -2.8096 H   0  0  0  0  0  0  0  0  0  0  0  0
   -3.5968   -3.5839   -2.4888 H   0  0  0  0  0  0  0  0  0  0  0  0
   -3.6811   -4.6857   -0.2494 H   0  0  0  0  0  0  0  0  0  0  0  0
   -3.6258   -3.0957    1.6703 H   0  0  0  0  0  0  0  0  0  0  0  0
   -5.0105   -0.9801    1.4805 H   0  0  0  0  0  0  0  0  0  0  0  0
   -8.7430   -5.4390   -0.3078 C   0  0  0  0  0  0  0  0  0  0  0  0
   -9.7869   -6.0474   -0.9971 C   0  0  0  0  0  0  0  0  0  0  0  0
   -9.6533   -7.3417   -1.5260 C   0  0  0  0  0  0  0  0  0  0  0  0
   -8.4363   -8.0127   -1.3522 C   0  0  0  0  0  0  0  0  0  0  0  0
   -7.3744   -7.4172   -0.6709 C   0  0  0  0  0  0  0  0  0  0  0  0
   -7.5401   -6.1335   -0.1556 C   0  0  0  0  0  0  0  0  0  0  0  0
   -8.8541   -4.4410    0.1021 H   0  0  0  0  0  0  0  0  0  0  0  0
  -10.7236   -5.5108   -1.1253 H   0  0  0  0  0  0  0  0  0  0  0  0
   -8.3160   -9.0151   -1.7532 H   0  0  0  0  0  0  0  0  0  0  0  0
   -6.4322   -7.9362   -0.5316 H   0  0  0  0  0  0  0  0  0  0  0  0
   -6.1965   -5.3740    0.7383 S   0  0  0  0  0  0  0  0  0  0  0  0
   -6.7345   -4.6672    1.9000 O   0  0  0  0  0  0  0  0  0  0  0  0
   -5.7498   -4.2813   -0.4013 O   0  0  0  0  0  0  0  0  0  0  0  0
   -5.1071   -6.3409    0.9102 O   0  0  0  0  0  0  0  0  0  0  0  0
  -10.8074   -7.9963   -2.2460 C   0  0  0  0  0  0  0  0  0  0  0  0
  -11.5852   -8.3067   -1.5379 H   0  0  0  0  0  0  0  0  0  0  0  0
  -11.2757   -7.3074   -2.9568 H   0  0  0  0  0  0  0  0  0  0  0  0
  -10.4859   -8.8851   -2.7949 H   0  0  0  0  0  0  0  0  0  0  0  0
  1  2  1  1  0  0  0
  1  8  1  0  0  0  0
  3  2  1  0  0  0  0
  4  5  2  0  0  0  0
  4  1  1  0  0  0  0
  5  6  1  0  0  0  0
  6 11  1  1  0  0  0
  6  7  1  0  0  0  0
  7 12  1  0  0  0  0
  8  7  2  0  0  0  0
  8 13  1  0  0  0  0
  9  4  1  0  0  0  0
 10  5  1  0  0  0  0
 14 19  1  0  0  0  0
 14 20  1  0  0  0  0
 15 14  2  0  0  0  0
 16 17  2  0  0  0  0
 16 15  1  0  0  0  0
 17 18  1  0  0  0  0
 18 23  1  0  0  0  0
 18 19  2  0  0  0  0
 19 24  1  0  0  0  0
 21 15  1  0  0  0  0
 22 17  1  0  0  0  0
 24 27  2  0  0  0  0
 24 25  2  0  0  0  0
 26  6  1  0  0  0  0
 26 24  1  0  0  0  0
 28 29  1  0  0  0  0
 28 16  1  0  0  0  0
 30 28  1  0  0  0  0
 31 28  1  0  0  0  0
M  RAD  3   1   2   2   2   3   3
M  END
