Coordinates from ORCA-job PhN2+~TsO-_B3LYPG-6-31G_dp-NX-Scan-d89-09-n800
 OpenBabel11261920463D

 31 32  0  0  1  0  0  0  0  0999 V2000
   -5.3634   -1.3553   -0.7004 C   0  0  2  0  0  0  0  0  0  0  0  0
   -6.6295   -1.7205   -0.5943 N   0  0  0  0  0  0  0  0  0  0  0  0
   -7.6157   -2.2704   -0.4848 N   0  0  0  0  0  0  0  0  0  0  0  0
   -4.7569   -1.9965   -1.9118 C   0  0  0  0  0  0  0  0  0  0  0  0
   -4.2100   -3.2030   -1.7136 C   0  0  0  0  0  0  0  0  0  0  0  0
   -4.4068   -3.8059   -0.3457 C   0  0  1  0  0  0  0  0  0  0  0  0
   -4.0883   -2.7999    0.7347 C   0  0  0  0  0  0  0  0  0  0  0  0
   -4.6431   -1.5883    0.5930 C   0  0  0  0  0  0  0  0  0  0  0  0
   -4.7958   -1.5031   -2.8788 H   0  0  0  0  0  0  0  0  0  0  0  0
   -3.6861   -3.7595   -2.4851 H   0  0  0  0  0  0  0  0  0  0  0  0
   -3.9043   -4.7619   -0.2111 H   0  0  0  0  0  0  0  0  0  0  0  0
   -3.4896   -3.0926    1.5920 H   0  0  0  0  0  0  0  0  0  0  0  0
   -4.6132   -0.8172    1.3573 H   0  0  0  0  0  0  0  0  0  0  0  0
   -8.9592   -5.4463   -0.1842 C   0  0  0  0  0  0  0  0  0  0  0  0
   -9.9399   -6.1154   -0.9129 C   0  0  0  0  0  0  0  0  0  0  0  0
   -9.6658   -7.3302   -1.5581 C   0  0  0  0  0  0  0  0  0  0  0  0
   -8.3722   -7.8631   -1.4592 C   0  0  0  0  0  0  0  0  0  0  0  0
   -7.3758   -7.2078   -0.7395 C   0  0  0  0  0  0  0  0  0  0  0  0
   -7.6803   -6.0000   -0.1102 C   0  0  0  0  0  0  0  0  0  0  0  0
   -9.1764   -4.5117    0.3188 H   0  0  0  0  0  0  0  0  0  0  0  0
  -10.9368   -5.6878   -0.9789 H   0  0  0  0  0  0  0  0  0  0  0  0
   -8.1430   -8.8063   -1.9475 H   0  0  0  0  0  0  0  0  0  0  0  0
   -6.3793   -7.6264   -0.6517 H   0  0  0  0  0  0  0  0  0  0  0  0
   -6.4121   -5.1680    0.8294 S   0  0  0  0  0  0  0  0  0  0  0  0
   -7.0341   -4.4463    1.9366 O   0  0  0  0  0  0  0  0  0  0  0  0
   -5.9133   -4.0661   -0.2912 O   0  0  0  0  0  0  0  0  0  0  0  0
   -5.3113   -6.1042    1.0822 O   0  0  0  0  0  0  0  0  0  0  0  0
  -10.7457   -8.0656   -2.3140 C   0  0  0  0  0  0  0  0  0  0  0  0
  -11.2485   -8.7946   -1.6663 H   0  0  0  0  0  0  0  0  0  0  0  0
  -11.5108   -7.3800   -2.6887 H   0  0  0  0  0  0  0  0  0  0  0  0
  -10.3347   -8.6167   -3.1648 H   0  0  0  0  0  0  0  0  0  0  0  0
  1  2  1  1  0  0  0
  1  8  1  0  0  0  0
  2  3  1  0  0  0  0
  4  5  2  0  0  0  0
  4  1  1  0  0  0  0
  5  6  1  0  0  0  0
  6 26  1  0  0  0  0
  6 11  1  1  0  0  0
  6  7  1  0  0  0  0
  7 12  1  0  0  0  0
  8  7  2  0  0  0  0
  8 13  1  0  0  0  0
  9  4  1  0  0  0  0
 10  5  1  0  0  0  0
 14 19  1  0  0  0  0
 14 20  1  0  0  0  0
 15 14  2  0  0  0  0
 16 17  2  0  0  0  0
 16 15  1  0  0  0  0
 17 18  1  0  0  0  0
 18 23  1  0  0  0  0
 18 19  2  0  0  0  0
 19 24  1  0  0  0  0
 21 15  1  0  0  0  0
 22 17  1  0  0  0  0
 24 27  2  0  0  0  0
 24 25  2  0  0  0  0
 26 24  1  0  0  0  0
 28 29  1  0  0  0  0
 28 16  1  0  0  0  0
 30 28  1  0  0  0  0
 31 28  1  0  0  0  0
M  RAD  3   1   2   2   2   3   3
M  END
