Coordinates from ORCA-job PhN2+~TsO-_B3LYPG-6-31G_dp-NX-Scan-d89-09-n800
 OpenBabel11261920463D

 31 32  0  0  1  0  0  0  0  0999 V2000
   -5.4453   -1.3876   -0.6364 C   0  0  2  0  0  0  0  0  0  0  0  0
   -6.7414   -1.6006   -0.5843 N   0  0  0  0  0  0  0  0  0  0  0  0
   -7.8309   -1.9217   -0.5318 N   0  0  0  0  0  0  0  0  0  0  0  0
   -4.8228   -1.9532   -1.8652 C   0  0  0  0  0  0  0  0  0  0  0  0
   -4.1879   -3.1238   -1.7175 C   0  0  0  0  0  0  0  0  0  0  0  0
   -4.3519   -3.8015   -0.3823 C   0  0  1  0  0  0  0  0  0  0  0  0
   -4.1211   -2.8307    0.7497 C   0  0  0  0  0  0  0  0  0  0  0  0
   -4.7576   -1.6553    0.6567 C   0  0  0  0  0  0  0  0  0  0  0  0
   -4.9064   -1.4294   -2.8132 H   0  0  0  0  0  0  0  0  0  0  0  0
   -3.6361   -3.6108   -2.5153 H   0  0  0  0  0  0  0  0  0  0  0  0
   -3.7828   -4.7247   -0.2847 H   0  0  0  0  0  0  0  0  0  0  0  0
   -3.5282   -3.1254    1.6099 H   0  0  0  0  0  0  0  0  0  0  0  0
   -4.8047   -0.9295    1.4633 H   0  0  0  0  0  0  0  0  0  0  0  0
   -8.8368   -5.4201   -0.2875 C   0  0  0  0  0  0  0  0  0  0  0  0
   -9.8507   -6.0643   -0.9897 C   0  0  0  0  0  0  0  0  0  0  0  0
   -9.6582   -7.3420   -1.5394 C   0  0  0  0  0  0  0  0  0  0  0  0
   -8.4128   -7.9610   -1.3721 C   0  0  0  0  0  0  0  0  0  0  0  0
   -7.3808   -7.3301   -0.6777 C   0  0  0  0  0  0  0  0  0  0  0  0
   -7.6048   -6.0626   -0.1431 C   0  0  0  0  0  0  0  0  0  0  0  0
   -8.9920   -4.4356    0.1384 H   0  0  0  0  0  0  0  0  0  0  0  0
  -10.8103   -5.5683   -1.1116 H   0  0  0  0  0  0  0  0  0  0  0  0
   -8.2468   -8.9510   -1.7876 H   0  0  0  0  0  0  0  0  0  0  0  0
   -6.4184   -7.8111   -0.5412 H   0  0  0  0  0  0  0  0  0  0  0  0
   -6.2966   -5.2604    0.7656 S   0  0  0  0  0  0  0  0  0  0  0  0
   -6.8732   -4.5325    1.8940 O   0  0  0  0  0  0  0  0  0  0  0  0
   -5.8237   -4.1765   -0.3792 O   0  0  0  0  0  0  0  0  0  0  0  0
   -5.1999   -6.2094    0.9847 O   0  0  0  0  0  0  0  0  0  0  0  0
  -10.7800   -8.0367   -2.2726 C   0  0  0  0  0  0  0  0  0  0  0  0
  -11.5293   -8.4198   -1.5692 H   0  0  0  0  0  0  0  0  0  0  0  0
  -11.2970   -7.3509   -2.9517 H   0  0  0  0  0  0  0  0  0  0  0  0
  -10.4134   -8.8841   -2.8577 H   0  0  0  0  0  0  0  0  0  0  0  0
  1  2  1  1  0  0  0
  1  8  1  0  0  0  0
  2  3  1  0  0  0  0
  4  5  2  0  0  0  0
  4  1  1  0  0  0  0
  5  6  1  0  0  0  0
  6 26  1  0  0  0  0
  6 11  1  1  0  0  0
  6  7  1  0  0  0  0
  7 12  1  0  0  0  0
  8  7  2  0  0  0  0
  8 13  1  0  0  0  0
  9  4  1  0  0  0  0
 10  5  1  0  0  0  0
 14 19  1  0  0  0  0
 14 20  1  0  0  0  0
 15 14  2  0  0  0  0
 16 17  2  0  0  0  0
 16 15  1  0  0  0  0
 17 18  1  0  0  0  0
 18 23  1  0  0  0  0
 18 19  2  0  0  0  0
 19 24  1  0  0  0  0
 21 15  1  0  0  0  0
 22 17  1  0  0  0  0
 24 27  2  0  0  0  0
 24 25  2  0  0  0  0
 26 24  1  0  0  0  0
 28 29  1  0  0  0  0
 28 16  1  0  0  0  0
 30 28  1  0  0  0  0
 31 28  1  0  0  0  0
M  RAD  3   1   2   2   2   3   3
M  END
