Coordinates from ORCA-job PhN2+~TsO-_B3LYPG-6-31G_dp-NX-Scan-d89-09-n800
 OpenBabel11261920463D

 31 32  0  0  1  0  0  0  0  0999 V2000
   -5.4677   -1.3995   -0.6284 C   0  0  2  0  0  0  0  0  0  0  0  0
   -6.7720   -1.5468   -0.5916 N   0  0  0  0  0  0  0  0  0  0  0  0
   -7.8815   -1.7962   -0.5527 N   0  0  0  0  0  0  0  0  0  0  0  0
   -4.8435   -1.9543   -1.8566 C   0  0  0  0  0  0  0  0  0  0  0  0
   -4.1834   -3.1121   -1.7140 C   0  0  0  0  0  0  0  0  0  0  0  0
   -4.3359   -3.8011   -0.3842 C   0  0  1  0  0  0  0  0  0  0  0  0
   -4.1337   -2.8342    0.7553 C   0  0  0  0  0  0  0  0  0  0  0  0
   -4.7938   -1.6712    0.6668 C   0  0  0  0  0  0  0  0  0  0  0  0
   -4.9417   -1.4311   -2.8035 H   0  0  0  0  0  0  0  0  0  0  0  0
   -3.6261   -3.5849   -2.5163 H   0  0  0  0  0  0  0  0  0  0  0  0
   -3.7469   -4.7122   -0.2900 H   0  0  0  0  0  0  0  0  0  0  0  0
   -3.5464   -3.1241    1.6207 H   0  0  0  0  0  0  0  0  0  0  0  0
   -4.8657   -0.9558    1.4807 H   0  0  0  0  0  0  0  0  0  0  0  0
   -8.7987   -5.4149   -0.3151 C   0  0  0  0  0  0  0  0  0  0  0  0
   -9.8224   -6.0491   -1.0120 C   0  0  0  0  0  0  0  0  0  0  0  0
   -9.6557   -7.3413   -1.5358 C   0  0  0  0  0  0  0  0  0  0  0  0
   -8.4258   -7.9850   -1.3485 C   0  0  0  0  0  0  0  0  0  0  0  0
   -7.3840   -7.3644   -0.6592 C   0  0  0  0  0  0  0  0  0  0  0  0
   -7.5827   -6.0825   -0.1498 C   0  0  0  0  0  0  0  0  0  0  0  0
   -8.9345   -4.4183    0.0895 H   0  0  0  0  0  0  0  0  0  0  0  0
  -10.7694   -5.5336   -1.1504 H   0  0  0  0  0  0  0  0  0  0  0  0
   -8.2795   -8.9858   -1.7448 H   0  0  0  0  0  0  0  0  0  0  0  0
   -6.4328   -7.8632   -0.5085 H   0  0  0  0  0  0  0  0  0  0  0  0
   -6.2630   -5.2926    0.7529 S   0  0  0  0  0  0  0  0  0  0  0  0
   -6.8268   -4.5666    1.8893 O   0  0  0  0  0  0  0  0  0  0  0  0
   -5.7978   -4.2102   -0.3942 O   0  0  0  0  0  0  0  0  0  0  0  0
   -5.1689   -6.2473    0.9604 O   0  0  0  0  0  0  0  0  0  0  0  0
  -10.7884   -8.0244   -2.2631 C   0  0  0  0  0  0  0  0  0  0  0  0
  -11.5497   -8.3782   -1.5574 H   0  0  0  0  0  0  0  0  0  0  0  0
  -11.2864   -7.3399   -2.9575 H   0  0  0  0  0  0  0  0  0  0  0  0
  -10.4371   -8.8899   -2.8308 H   0  0  0  0  0  0  0  0  0  0  0  0
  1  2  1  1  0  0  0
  1  8  1  0  0  0  0
  2  3  1  0  0  0  0
  4  5  2  0  0  0  0
  4  1  1  0  0  0  0
  5  6  1  0  0  0  0
  6 11  1  1  0  0  0
  6  7  1  0  0  0  0
  7 12  1  0  0  0  0
  8  7  2  0  0  0  0
  8 13  1  0  0  0  0
  9  4  1  0  0  0  0
 10  5  1  0  0  0  0
 14 19  1  0  0  0  0
 14 20  1  0  0  0  0
 15 14  2  0  0  0  0
 16 17  2  0  0  0  0
 16 15  1  0  0  0  0
 17 18  1  0  0  0  0
 18 23  1  0  0  0  0
 18 19  2  0  0  0  0
 19 24  1  0  0  0  0
 21 15  1  0  0  0  0
 22 17  1  0  0  0  0
 24 27  2  0  0  0  0
 24 25  2  0  0  0  0
 26  6  1  0  0  0  0
 26 24  1  0  0  0  0
 28 29  1  0  0  0  0
 28 16  1  0  0  0  0
 30 28  1  0  0  0  0
 31 28  1  0  0  0  0
M  RAD  3   1   2   2   2   3   3
M  END
