Coordinates from ORCA-job PhN2+~TsO-_B3LYPG-6-31G_dp-NX-Scan-d89-09-n800
 OpenBabel11261920463D

 31 31  0  0  0  0  0  0  0  0999 V2000
   -3.6807   -0.5237    0.0409 C   0  0  0  0  0  0  0  0  0  0  0  0
   -3.3661    0.6856    0.5685 N   0  0  0  0  0  0  0  0  0  0  0  0
   -3.1284    1.6874    1.0199 N   0  0  0  0  0  0  0  0  0  0  0  0
   -2.7506   -1.1426   -0.8318 C   0  0  0  0  0  0  0  0  0  0  0  0
   -3.1085   -2.3662   -1.3659 C   0  0  0  0  0  0  0  0  0  0  0  0
   -4.3497   -2.9498   -1.0534 C   0  0  0  0  0  0  0  0  0  0  0  0
   -5.2521   -2.3195   -0.1733 C   0  0  0  0  0  0  0  0  0  0  0  0
   -4.9319   -1.0987    0.3871 C   0  0  0  0  0  0  0  0  0  0  0  0
   -1.8084   -0.6586   -1.0627 H   0  0  0  0  0  0  0  0  0  0  0  0
   -2.4262   -2.8707   -2.0423 H   0  0  0  0  0  0  0  0  0  0  0  0
   -4.6768   -3.9000   -1.4819 H   0  0  0  0  0  0  0  0  0  0  0  0
   -6.2119   -2.8115    0.0343 H   0  0  0  0  0  0  0  0  0  0  0  0
   -5.6024   -0.5804    1.0643 H   0  0  0  0  0  0  0  0  0  0  0  0
   -9.7044   -6.2348   -0.3846 C   0  0  0  0  0  0  0  0  0  0  0  0
  -10.4678   -7.3914   -0.2389 C   0  0  0  0  0  0  0  0  0  0  0  0
  -10.0347   -8.6170   -0.7652 C   0  0  0  0  0  0  0  0  0  0  0  0
   -8.8108   -8.6502   -1.4460 C   0  0  0  0  0  0  0  0  0  0  0  0
   -8.0380   -7.4986   -1.5986 C   0  0  0  0  0  0  0  0  0  0  0  0
   -8.4867   -6.2903   -1.0662 C   0  0  0  0  0  0  0  0  0  0  0  0
  -10.0363   -5.2917    0.0364 H   0  0  0  0  0  0  0  0  0  0  0  0
  -11.4159   -7.3437    0.2921 H   0  0  0  0  0  0  0  0  0  0  0  0
   -8.4567   -9.5911   -1.8616 H   0  0  0  0  0  0  0  0  0  0  0  0
   -7.0843   -7.5266   -2.1138 H   0  0  0  0  0  0  0  0  0  0  0  0
   -7.5363   -4.7821   -1.3189 S   0  0  0  0  0  0  0  0  0  0  0  0
   -7.7108   -4.0076   -0.0452 O   0  0  0  0  0  0  0  0  0  0  0  0
   -8.0939   -4.0964   -2.5071 O   0  0  0  0  0  0  0  0  0  0  0  0
   -6.1214   -5.2472   -1.5102 O   0  0  0  0  0  0  0  0  0  0  0  0
  -10.8519   -9.8733   -0.5734 C   0  0  0  0  0  0  0  0  0  0  0  0
  -10.6243  -10.3543    0.3873 H   0  0  0  0  0  0  0  0  0  0  0  0
  -11.9255   -9.6584   -0.5790 H   0  0  0  0  0  0  0  0  0  0  0  0
  -10.6483  -10.6072   -1.3594 H   0  0  0  0  0  0  0  0  0  0  0  0
  1  8  1  0  0  0  0
  1  2  1  0  0  0  0
  2  3  1  0  0  0  0
  4  1  2  0  0  0  0
  5  6  2  0  0  0  0
  5  4  1  0  0  0  0
  6  7  1  0  0  0  0
  7 12  1  0  0  0  0
  7  8  2  0  0  0  0
  8 13  1  0  0  0  0
  9  4  1  0  0  0  0
 10  5  1  0  0  0  0
 11  6  1  0  0  0  0
 14 15  1  0  0  0  0
 14 20  1  0  0  0  0
 15 21  1  0  0  0  0
 16 28  1  0  0  0  0
 16 15  2  0  0  0  0
 17 16  1  0  0  0  0
 18 17  2  0  0  0  0
 18 19  1  0  0  0  0
 19 14  2  0  0  0  0
 22 17  1  0  0  0  0
 23 18  1  0  0  0  0
 24 19  1  0  0  0  0
 24 25  1  0  0  0  0
 26 24  2  0  0  0  0
 27 24  2  0  0  0  0
 28 29  1  0  0  0  0
 30 28  1  0  0  0  0
 31 28  1  0  0  0  0
M  RAD  3   2   2   3   3  25   2
M  END
