Coordinates from ORCA-job PhN2+~TsO-_B3LYPG-6-31G_dp-NX-Scan-d89-09-n800
 OpenBabel11261920463D

 31 32  0  0  1  0  0  0  0  0999 V2000
   -5.0723   -0.9680   -0.9860 C   0  0  0  0  0  0  0  0  0  0  0  0
   -5.3665    0.2147   -1.4701 N   0  0  0  0  0  0  0  0  0  0  0  0
   -5.6336    1.2413   -1.8958 N   0  0  0  0  0  0  0  0  0  0  0  0
   -4.4119   -1.9451   -1.8264 C   0  0  0  0  0  0  0  0  0  0  0  0
   -4.1913   -3.1872   -1.3579 C   0  0  0  0  0  0  0  0  0  0  0  0
   -4.7014   -3.6379   -0.0292 C   0  0  1  0  0  0  0  0  0  0  0  0
   -5.1849   -2.5335    0.8533 C   0  0  0  0  0  0  0  0  0  0  0  0
   -5.4072   -1.2912    0.3866 C   0  0  0  0  0  0  0  0  0  0  0  0
   -4.0855   -1.6454   -2.8170 H   0  0  0  0  0  0  0  0  0  0  0  0
   -3.6832   -3.9259   -1.9686 H   0  0  0  0  0  0  0  0  0  0  0  0
   -3.9757   -4.2829    0.4759 H   0  0  0  0  0  0  0  0  0  0  0  0
   -5.4224   -2.7916    1.8794 H   0  0  0  0  0  0  0  0  0  0  0  0
   -5.8165   -0.5106    1.0203 H   0  0  0  0  0  0  0  0  0  0  0  0
   -8.7222   -6.2196    0.3271 C   0  0  0  0  0  0  0  0  0  0  0  0
   -9.8691   -6.7448   -0.2599 C   0  0  0  0  0  0  0  0  0  0  0  0
   -9.7897   -7.6072   -1.3653 C   0  0  0  0  0  0  0  0  0  0  0  0
   -8.5240   -7.9377   -1.8672 C   0  0  0  0  0  0  0  0  0  0  0  0
   -7.3630   -7.4218   -1.2935 C   0  0  0  0  0  0  0  0  0  0  0  0
   -7.4759   -6.5614   -0.2025 C   0  0  0  0  0  0  0  0  0  0  0  0
   -8.7817   -5.5659    1.1903 H   0  0  0  0  0  0  0  0  0  0  0  0
  -10.8425   -6.4861    0.1480 H   0  0  0  0  0  0  0  0  0  0  0  0
   -8.4450   -8.6107   -2.7165 H   0  0  0  0  0  0  0  0  0  0  0  0
   -6.3828   -7.6884   -1.6725 H   0  0  0  0  0  0  0  0  0  0  0  0
   -5.9991   -5.8961    0.5392 S   0  0  0  0  0  0  0  0  0  0  0  0
   -6.2634   -5.5420    1.9371 O   0  0  0  0  0  0  0  0  0  0  0  0
   -5.8928   -4.5246   -0.3456 O   0  0  0  0  0  0  0  0  0  0  0  0
   -4.8562   -6.7558    0.2187 O   0  0  0  0  0  0  0  0  0  0  0  0
  -11.0452   -8.1645   -1.9915 C   0  0  0  0  0  0  0  0  0  0  0  0
  -11.6546   -8.6958   -1.2517 H   0  0  0  0  0  0  0  0  0  0  0  0
  -11.6683   -7.3634   -2.4058 H   0  0  0  0  0  0  0  0  0  0  0  0
  -10.8139   -8.8618   -2.8010 H   0  0  0  0  0  0  0  0  0  0  0  0
  1  8  1  0  0  0  0
  2  1  1  0  0  0  0
  3  2  1  0  0  0  0
  4  5  1  0  0  0  0
  4  1  2  0  0  0  0
  5  6  1  0  0  0  0
  6 11  1  1  0  0  0
  6  7  1  0  0  0  0
  7 12  1  0  0  0  0
  8  7  2  0  0  0  0
  8 13  1  0  0  0  0
  9  4  1  0  0  0  0
 10  5  1  0  0  0  0
 14 20  1  0  0  0  0
 15 21  1  0  0  0  0
 15 14  2  0  0  0  0
 16 15  1  0  0  0  0
 17 16  2  0  0  0  0
 17 18  1  0  0  0  0
 18 19  2  0  0  0  0
 19 14  1  0  0  0  0
 19 24  1  0  0  0  0
 22 17  1  0  0  0  0
 23 18  1  0  0  0  0
 24 25  2  0  0  0  0
 26  6  1  0  0  0  0
 26 24  1  0  0  0  0
 27 24  2  0  0  0  0
 28 16  1  0  0  0  0
 28 29  1  0  0  0  0
 30 28  1  0  0  0  0
 31 28  1  0  0  0  0
M  RAD  3   2   2   3   3   5   2
M  END
