Coordinates from ORCA-job PhN2+~TsO-_B3LYPG-6-31G_dp-NX-Scan-d89-09-n800
 OpenBabel11261920463D

 31 32  0  0  0  0  0  0  0  0999 V2000
   -4.3601   -2.4859   -0.6638 C   0  0  0  0  0  0  0  0  0  0  0  0
   -5.4801   -3.3581   -0.5414 N   0  0  0  0  0  0  0  0  0  0  0  0
   -6.2843   -3.3738   -1.5524 N   0  0  0  0  0  0  0  0  0  0  0  0
   -3.7133   -2.2339    0.5582 C   0  0  0  0  0  0  0  0  0  0  0  0
   -2.5825   -1.4267    0.6058 C   0  0  0  0  0  0  0  0  0  0  0  0
   -2.0702   -0.8609   -0.5652 C   0  0  0  0  0  0  0  0  0  0  0  0
   -2.7031   -1.1148   -1.7809 C   0  0  0  0  0  0  0  0  0  0  0  0
   -3.8426   -1.9202   -1.8422 C   0  0  0  0  0  0  0  0  0  0  0  0
   -4.1237   -2.6827    1.4563 H   0  0  0  0  0  0  0  0  0  0  0  0
   -2.0995   -1.2386    1.5600 H   0  0  0  0  0  0  0  0  0  0  0  0
   -1.1856   -0.2326   -0.5296 H   0  0  0  0  0  0  0  0  0  0  0  0
   -2.3113   -0.6862   -2.6986 H   0  0  0  0  0  0  0  0  0  0  0  0
   -4.2977   -2.1009   -2.8086 H   0  0  0  0  0  0  0  0  0  0  0  0
   -8.3142   -7.3516   -1.1213 C   0  0  0  0  0  0  0  0  0  0  0  0
   -9.2637   -8.3118   -1.4625 C   0  0  0  0  0  0  0  0  0  0  0  0
  -10.5487   -8.2926   -0.8967 C   0  0  0  0  0  0  0  0  0  0  0  0
  -10.8588   -7.2803    0.0213 C   0  0  0  0  0  0  0  0  0  0  0  0
   -9.9173   -6.3126    0.3743 C   0  0  0  0  0  0  0  0  0  0  0  0
   -8.6537   -6.3521   -0.2073 C   0  0  0  0  0  0  0  0  0  0  0  0
   -7.3267   -7.3722   -1.5734 H   0  0  0  0  0  0  0  0  0  0  0  0
   -9.0073   -9.0873   -2.1804 H   0  0  0  0  0  0  0  0  0  0  0  0
  -11.8499   -7.2499    0.4668 H   0  0  0  0  0  0  0  0  0  0  0  0
  -10.1435   -5.5266    1.0887 H   0  0  0  0  0  0  0  0  0  0  0  0
   -7.4109   -5.1293    0.3218 S   0  0  1  0  0  0  0  0  0  0  0  0
   -7.4701   -4.4062   -1.2206 O   0  0  0  0  0  0  0  0  0  0  0  0
   -6.3992   -2.9738   -2.4065 O   0  0  0  0  0  0  0  0  0  0  0  0
   -8.0936   -4.2669    1.3262 O   0  0  0  0  0  0  0  0  0  0  0  0
  -11.5599   -9.3567   -1.2515 C   0  0  0  0  0  0  0  0  0  0  0  0
  -11.5072   -9.6212   -2.3122 H   0  0  0  0  0  0  0  0  0  0  0  0
  -11.3829  -10.2760   -0.6798 H   0  0  0  0  0  0  0  0  0  0  0  0
  -12.5800   -9.0282   -1.0332 H   0  0  0  0  0  0  0  0  0  0  0  0
  1  2  1  0  0  0  0
  1  4  2  0  0  0  0
  3 25  1  0  0  0  0
  3  2  1  0  0  0  0
  4  5  1  0  0  0  0
  4  9  1  0  0  0  0
  5 10  1  0  0  0  0
  6 11  1  0  0  0  0
  6  5  2  0  0  0  0
  7  6  1  0  0  0  0
  8  7  2  0  0  0  0
  8  1  1  0  0  0  0
 12  7  1  0  0  0  0
 13  8  1  0  0  0  0
 14 19  1  0  0  0  0
 15 14  2  0  0  0  0
 15 16  1  0  0  0  0
 16 17  2  0  0  0  0
 17 18  1  0  0  0  0
 17 22  1  0  0  0  0
 18 23  1  0  0  0  0
 19 24  1  0  0  0  0
 19 18  2  0  0  0  0
 20 14  1  0  0  0  0
 21 15  1  0  0  0  0
 24 25  1  6  0  0  0
 24 27  1  0  0  0  0
 26  3  1  0  0  0  0
 28 31  1  0  0  0  0
 28 16  1  0  0  0  0
 28 30  1  0  0  0  0
 29 28  1  0  0  0  0
M  RAD  3   2   2  26   2  27   2
M  END
