Coordinates from ORCA-job PhN2+~TsO-_B3LYPG-6-31G_dp-NX-Scan-d89-09-n800
 OpenBabel11261920463D

 31 32  0  0  0  0  0  0  0  0999 V2000
   -5.0306   -2.5871   -0.8661 C   0  0  0  0  0  0  0  0  0  0  0  0
   -6.4557   -2.6342   -0.9482 N   0  0  0  0  0  0  0  0  0  0  0  0
   -7.1879   -3.3451   -0.2027 N   0  0  0  0  0  0  0  0  0  0  0  0
   -4.4855   -1.7829   -1.8865 C   0  0  0  0  0  0  0  0  0  0  0  0
   -3.1145   -1.5821   -1.9961 C   0  0  0  0  0  0  0  0  0  0  0  0
   -2.2493   -2.1788   -1.0754 C   0  0  0  0  0  0  0  0  0  0  0  0
   -2.7735   -2.9724   -0.0548 C   0  0  0  0  0  0  0  0  0  0  0  0
   -4.1485   -3.1857    0.0601 C   0  0  0  0  0  0  0  0  0  0  0  0
   -5.1785   -1.3239   -2.5838 H   0  0  0  0  0  0  0  0  0  0  0  0
   -2.7204   -0.9593   -2.7942 H   0  0  0  0  0  0  0  0  0  0  0  0
   -1.1766   -2.0233   -1.1506 H   0  0  0  0  0  0  0  0  0  0  0  0
   -2.1075   -3.4369    0.6670 H   0  0  0  0  0  0  0  0  0  0  0  0
   -4.5157   -3.8039    0.8651 H   0  0  0  0  0  0  0  0  0  0  0  0
   -9.7719   -5.4257   -0.2887 C   0  0  0  0  0  0  0  0  0  0  0  0
  -10.3818   -6.2251   -1.2507 C   0  0  0  0  0  0  0  0  0  0  0  0
   -9.9169   -7.5213   -1.5221 C   0  0  0  0  0  0  0  0  0  0  0  0
   -8.8117   -8.0054   -0.8051 C   0  0  0  0  0  0  0  0  0  0  0  0
   -8.1812   -7.2253    0.1594 C   0  0  0  0  0  0  0  0  0  0  0  0
   -8.6770   -5.9428    0.4092 C   0  0  0  0  0  0  0  0  0  0  0  0
  -10.1304   -4.4260   -0.0767 H   0  0  0  0  0  0  0  0  0  0  0  0
  -11.2332   -5.8355   -1.8011 H   0  0  0  0  0  0  0  0  0  0  0  0
   -8.4404   -9.0059   -1.0057 H   0  0  0  0  0  0  0  0  0  0  0  0
   -7.3293   -7.5992    0.7166 H   0  0  0  0  0  0  0  0  0  0  0  0
   -7.8739   -4.9389    1.6258 S   0  0  0  0  0  0  0  0  0  0  0  0
   -8.7884   -3.9379    2.1498 O   0  0  0  0  0  0  0  0  0  0  0  0
   -6.6787   -4.0401    0.6188 O   0  0  0  0  0  0  0  0  0  0  0  0
   -6.9787   -5.7299    2.4539 O   0  0  0  0  0  0  0  0  0  0  0  0
  -10.6098   -8.3867   -2.5448 C   0  0  0  0  0  0  0  0  0  0  0  0
  -11.4369   -8.9418   -2.0852 H   0  0  0  0  0  0  0  0  0  0  0  0
  -11.0320   -7.7870   -3.3558 H   0  0  0  0  0  0  0  0  0  0  0  0
   -9.9258   -9.1204   -2.9801 H   0  0  0  0  0  0  0  0  0  0  0  0
  1  8  2  0  0  0  0
  2  1  1  0  0  0  0
  2  3  2  0  0  0  0
  3 26  1  0  0  0  0
  4  1  1  0  0  0  0
  5  4  2  0  0  0  0
  5  6  1  0  0  0  0
  6  7  2  0  0  0  0
  7  8  1  0  0  0  0
  7 12  1  0  0  0  0
  8 13  1  0  0  0  0
  9  4  1  0  0  0  0
 10  5  1  0  0  0  0
 11  6  1  0  0  0  0
 14 20  1  0  0  0  0
 14 19  2  0  0  0  0
 15 14  1  0  0  0  0
 16 15  2  0  0  0  0
 16 17  1  0  0  0  0
 17 18  2  0  0  0  0
 18 19  1  0  0  0  0
 18 23  1  0  0  0  0
 19 24  1  0  0  0  0
 21 15  1  0  0  0  0
 22 17  1  0  0  0  0
 24 25  2  0  0  0  0
 24 27  2  0  0  0  0
 26 24  1  0  0  0  0
 28 29  1  0  0  0  0
 28 16  1  0  0  0  0
 30 28  1  0  0  0  0
 31 28  1  0  0  0  0
M  END
