Coordinates from ORCA-job PhN2+~TsO-_B3LYPG-6-31G_dp-NX-Scan-d89-09-n800
 OpenBabel11261920463D

 31 31  0  0  0  0  0  0  0  0999 V2000
   -4.3098   -0.4917   -0.5411 C   0  0  0  0  0  0  0  0  0  0  0  0
   -4.1785    0.8486   -0.5053 N   0  0  0  0  0  0  0  0  0  0  0  0
   -4.0550    1.9706   -0.4664 N   0  0  0  0  0  0  0  0  0  0  0  0
   -3.9235   -1.1853   -1.7236 C   0  0  0  0  0  0  0  0  0  0  0  0
   -3.9858   -2.5591   -1.7138 C   0  0  0  0  0  0  0  0  0  0  0  0
   -4.4220   -3.2594   -0.5642 C   0  0  0  0  0  0  0  0  0  0  0  0
   -4.8419   -2.5452    0.5867 C   0  0  0  0  0  0  0  0  0  0  0  0
   -4.7919   -1.1730    0.6168 C   0  0  0  0  0  0  0  0  0  0  0  0
   -3.5706   -0.6307   -2.5862 H   0  0  0  0  0  0  0  0  0  0  0  0
   -3.6854   -3.1158   -2.5945 H   0  0  0  0  0  0  0  0  0  0  0  0
   -4.3215   -4.3377   -0.5108 H   0  0  0  0  0  0  0  0  0  0  0  0
   -5.2399   -3.1056    1.4267 H   0  0  0  0  0  0  0  0  0  0  0  0
   -5.0978   -0.6067    1.4895 H   0  0  0  0  0  0  0  0  0  0  0  0
   -9.2717   -6.1902   -0.1049 C   0  0  0  0  0  0  0  0  0  0  0  0
  -10.2989   -7.0493   -0.4868 C   0  0  0  0  0  0  0  0  0  0  0  0
  -10.0311   -8.2291   -1.1982 C   0  0  0  0  0  0  0  0  0  0  0  0
   -8.6994   -8.5253   -1.5172 C   0  0  0  0  0  0  0  0  0  0  0  0
   -7.6611   -7.6724   -1.1428 C   0  0  0  0  0  0  0  0  0  0  0  0
   -7.9518   -6.5054   -0.4367 C   0  0  0  0  0  0  0  0  0  0  0  0
   -9.4775   -5.2873    0.4596 H   0  0  0  0  0  0  0  0  0  0  0  0
  -11.3260   -6.8054   -0.2248 H   0  0  0  0  0  0  0  0  0  0  0  0
   -8.4719   -9.4386   -2.0616 H   0  0  0  0  0  0  0  0  0  0  0  0
   -6.6282   -7.9065   -1.3765 H   0  0  0  0  0  0  0  0  0  0  0  0
   -6.6242   -5.3808    0.0141 S   0  0  0  0  0  0  0  0  0  0  0  0
   -7.0191   -4.7505    1.3004 O   0  0  0  0  0  0  0  0  0  0  0  0
   -6.5832   -4.3801   -1.1285 O   0  0  0  0  0  0  0  0  0  0  0  0
   -5.3750   -6.1872    0.0644 O   0  0  0  0  0  0  0  0  0  0  0  0
  -11.1514   -9.1666   -1.5834 C   0  0  0  0  0  0  0  0  0  0  0  0
  -11.4964   -9.7495   -0.7202 H   0  0  0  0  0  0  0  0  0  0  0  0
  -12.0184   -8.6186   -1.9672 H   0  0  0  0  0  0  0  0  0  0  0  0
  -10.8329   -9.8768   -2.3521 H   0  0  0  0  0  0  0  0  0  0  0  0
  1  2  1  0  0  0  0
  1  8  2  0  0  0  0
  2  3  1  0  0  0  0
  4  5  2  0  0  0  0
  4  1  1  0  0  0  0
  5  6  1  0  0  0  0
  6 11  1  0  0  0  0
  6  7  2  0  0  0  0
  7  8  1  0  0  0  0
  7 12  1  0  0  0  0
  8 13  1  0  0  0  0
  9  4  1  0  0  0  0
 10  5  1  0  0  0  0
 14 20  1  0  0  0  0
 15 21  1  0  0  0  0
 15 14  2  0  0  0  0
 16 15  1  0  0  0  0
 17 16  2  0  0  0  0
 17 18  1  0  0  0  0
 18 19  2  0  0  0  0
 19 14  1  0  0  0  0
 19 24  1  0  0  0  0
 22 17  1  0  0  0  0
 23 18  1  0  0  0  0
 24 27  2  0  0  0  0
 24 25  1  0  0  0  0
 26 24  2  0  0  0  0
 28 16  1  0  0  0  0
 28 29  1  0  0  0  0
 30 28  1  0  0  0  0
 31 28  1  0  0  0  0
M  RAD  3   2   2   3   3  25   2
M  END
