Coordinates from ORCA-job PhN2+~TsO-_B3LYPG-6-31G_dp-NX-Scan-d89-09-n800
 OpenBabel11261920463D

 31 32  0  0  1  0  0  0  0  0999 V2000
   -5.4773   -1.4051   -0.6299 C   0  0  2  0  0  0  0  0  0  0  0  0
   -6.7843   -1.5243   -0.6016 N   0  0  0  0  0  0  0  0  0  0  0  0
   -7.9004   -1.7445   -0.5700 N   0  0  0  0  0  0  0  0  0  0  0  0
   -4.8501   -1.9585   -1.8550 C   0  0  0  0  0  0  0  0  0  0  0  0
   -4.1796   -3.1103   -1.7103 C   0  0  0  0  0  0  0  0  0  0  0  0
   -4.3292   -3.8003   -0.3810 C   0  0  1  0  0  0  0  0  0  0  0  0
   -4.1416   -2.8321    0.7592 C   0  0  0  0  0  0  0  0  0  0  0  0
   -4.8117   -1.6748    0.6680 C   0  0  0  0  0  0  0  0  0  0  0  0
   -4.9527   -1.4382   -2.8031 H   0  0  0  0  0  0  0  0  0  0  0  0
   -3.6188   -3.5794   -2.5122 H   0  0  0  0  0  0  0  0  0  0  0  0
   -3.7316   -4.7057   -0.2849 H   0  0  0  0  0  0  0  0  0  0  0  0
   -3.5585   -3.1176    1.6288 H   0  0  0  0  0  0  0  0  0  0  0  0
   -4.8956   -0.9618    1.4829 H   0  0  0  0  0  0  0  0  0  0  0  0
   -8.7840   -5.4156   -0.3200 C   0  0  0  0  0  0  0  0  0  0  0  0
   -9.8122   -6.0444   -1.0150 C   0  0  0  0  0  0  0  0  0  0  0  0
   -9.6550   -7.3398   -1.5340 C   0  0  0  0  0  0  0  0  0  0  0  0
   -8.4300   -7.9920   -1.3441 C   0  0  0  0  0  0  0  0  0  0  0  0
   -7.3837   -7.3767   -0.6567 C   0  0  0  0  0  0  0  0  0  0  0  0
   -7.5730   -6.0918   -0.1518 C   0  0  0  0  0  0  0  0  0  0  0  0
   -8.9125   -4.4164    0.0807 H   0  0  0  0  0  0  0  0  0  0  0  0
  -10.7552   -5.5223   -1.1557 H   0  0  0  0  0  0  0  0  0  0  0  0
   -8.2910   -8.9952   -1.7372 H   0  0  0  0  0  0  0  0  0  0  0  0
   -6.4360   -7.8817   -0.5045 H   0  0  0  0  0  0  0  0  0  0  0  0
   -6.2479   -5.3085    0.7488 S   0  0  0  0  0  0  0  0  0  0  0  0
   -6.8057   -4.5858    1.8905 O   0  0  0  0  0  0  0  0  0  0  0  0
   -5.7867   -4.2244   -0.3974 O   0  0  0  0  0  0  0  0  0  0  0  0
   -5.1549   -6.2659    0.9488 O   0  0  0  0  0  0  0  0  0  0  0  0
  -10.7926   -8.0169   -2.2593 C   0  0  0  0  0  0  0  0  0  0  0  0
  -11.5572   -8.3617   -1.5526 H   0  0  0  0  0  0  0  0  0  0  0  0
  -11.2847   -7.3314   -2.9569 H   0  0  0  0  0  0  0  0  0  0  0  0
  -10.4478   -8.8876   -2.8231 H   0  0  0  0  0  0  0  0  0  0  0  0
  1  2  1  1  0  0  0
  1  8  1  0  0  0  0
  2  3  1  0  0  0  0
  4  5  2  0  0  0  0
  4  1  1  0  0  0  0
  5  6  1  0  0  0  0
  6 11  1  1  0  0  0
  6  7  1  0  0  0  0
  7 12  1  0  0  0  0
  8  7  2  0  0  0  0
  8 13  1  0  0  0  0
  9  4  1  0  0  0  0
 10  5  1  0  0  0  0
 14 19  1  0  0  0  0
 14 20  1  0  0  0  0
 15 14  2  0  0  0  0
 16 17  2  0  0  0  0
 16 15  1  0  0  0  0
 17 18  1  0  0  0  0
 18 23  1  0  0  0  0
 18 19  2  0  0  0  0
 19 24  1  0  0  0  0
 21 15  1  0  0  0  0
 22 17  1  0  0  0  0
 24 27  2  0  0  0  0
 24 25  2  0  0  0  0
 26  6  1  0  0  0  0
 26 24  1  0  0  0  0
 28 29  1  0  0  0  0
 28 16  1  0  0  0  0
 30 28  1  0  0  0  0
 31 28  1  0  0  0  0
M  RAD  3   1   2   2   2   3   3
M  END
