Coordinates from ORCA-job PhN2+~TsO-_B3LYPG-6-31G_dp-NX-Scan-d89-09-n800
 OpenBabel11261920463D

 31 31  0  0  0  0  0  0  0  0999 V2000
   -3.9661   -0.3860   -0.3296 C   0  0  0  0  0  0  0  0  0  0  0  0
   -3.7045    0.9156   -0.0606 N   0  0  0  0  0  0  0  0  0  0  0  0
   -3.4805    1.9928    0.1765 N   0  0  0  0  0  0  0  0  0  0  0  0
   -3.3281   -0.9801   -1.4491 C   0  0  0  0  0  0  0  0  0  0  0  0
   -3.5812   -2.3163   -1.6862 C   0  0  0  0  0  0  0  0  0  0  0  0
   -4.4423   -3.0481   -0.8452 C   0  0  0  0  0  0  0  0  0  0  0  0
   -5.0843   -2.4282    0.2494 C   0  0  0  0  0  0  0  0  0  0  0  0
   -4.8548   -1.0963    0.5245 C   0  0  0  0  0  0  0  0  0  0  0  0
   -2.6651   -0.3939   -2.0759 H   0  0  0  0  0  0  0  0  0  0  0  0
   -3.1066   -2.8074   -2.5288 H   0  0  0  0  0  0  0  0  0  0  0  0
   -4.6097   -4.1125   -1.0047 H   0  0  0  0  0  0  0  0  0  0  0  0
   -5.7825   -3.0201    0.8455 H   0  0  0  0  0  0  0  0  0  0  0  0
   -5.3280   -0.5904    1.3588 H   0  0  0  0  0  0  0  0  0  0  0  0
   -9.4566   -6.2745   -0.1865 C   0  0  0  0  0  0  0  0  0  0  0  0
  -10.4264   -7.2496   -0.4040 C   0  0  0  0  0  0  0  0  0  0  0  0
  -10.1084   -8.4595   -1.0409 C   0  0  0  0  0  0  0  0  0  0  0  0
   -8.7860   -8.6640   -1.4547 C   0  0  0  0  0  0  0  0  0  0  0  0
   -7.8058   -7.6935   -1.2443 C   0  0  0  0  0  0  0  0  0  0  0  0
   -8.1436   -6.4987   -0.6095 C   0  0  0  0  0  0  0  0  0  0  0  0
   -9.7016   -5.3476    0.3209 H   0  0  0  0  0  0  0  0  0  0  0  0
  -11.4467   -7.0743   -0.0705 H   0  0  0  0  0  0  0  0  0  0  0  0
   -8.5188   -9.5974   -1.9445 H   0  0  0  0  0  0  0  0  0  0  0  0
   -6.7785   -7.8540   -1.5524 H   0  0  0  0  0  0  0  0  0  0  0  0
   -6.8983   -5.2219   -0.3827 S   0  0  0  0  0  0  0  0  0  0  0  0
   -7.1997   -4.5966    0.9409 O   0  0  0  0  0  0  0  0  0  0  0  0
   -7.0670   -4.2626   -1.5227 O   0  0  0  0  0  0  0  0  0  0  0  0
   -5.5776   -5.9166   -0.4362 O   0  0  0  0  0  0  0  0  0  0  0  0
  -11.1632   -9.5215   -1.2470 C   0  0  0  0  0  0  0  0  0  0  0  0
  -11.3850  -10.0495   -0.3110 H   0  0  0  0  0  0  0  0  0  0  0  0
  -12.1047   -9.0885   -1.6010 H   0  0  0  0  0  0  0  0  0  0  0  0
  -10.8401  -10.2696   -1.9770 H   0  0  0  0  0  0  0  0  0  0  0  0
  1  2  1  0  0  0  0
  1  8  2  0  0  0  0
  2  3  1  0  0  0  0
  4  1  1  0  0  0  0
  5  4  2  0  0  0  0
  5  6  1  0  0  0  0
  6  7  2  0  0  0  0
  7  8  1  0  0  0  0
  7 12  1  0  0  0  0
  8 13  1  0  0  0  0
  9  4  1  0  0  0  0
 10  5  1  0  0  0  0
 11  6  1  0  0  0  0
 14 20  1  0  0  0  0
 15 14  1  0  0  0  0
 15 21  1  0  0  0  0
 16 15  2  0  0  0  0
 17 18  2  0  0  0  0
 17 16  1  0  0  0  0
 18 19  1  0  0  0  0
 19 24  1  0  0  0  0
 19 14  2  0  0  0  0
 22 17  1  0  0  0  0
 23 18  1  0  0  0  0
 24 25  1  0  0  0  0
 26 24  2  0  0  0  0
 27 24  2  0  0  0  0
 28 16  1  0  0  0  0
 28 29  1  0  0  0  0
 30 28  1  0  0  0  0
 31 28  1  0  0  0  0
M  RAD  3   2   2   3   3  25   2
M  END
