Coordinates from ORCA-job PhN2+~TsO-_B3LYPG-6-31G_dp-NX-Scan-d89-09-n800
 OpenBabel11261920463D

 31 31  0  0  0  0  0  0  0  0999 V2000
   -3.6622   -0.6674    0.2152 C   0  0  0  0  0  0  0  0  0  0  0  0
   -3.2822    0.4348    0.9086 N   0  0  0  0  0  0  0  0  0  0  0  0
   -2.9845    1.3458    1.4969 N   0  0  0  0  0  0  0  0  0  0  0  0
   -2.7203   -1.2741   -0.6537 C   0  0  0  0  0  0  0  0  0  0  0  0
   -3.1364   -2.3934   -1.3496 C   0  0  0  0  0  0  0  0  0  0  0  0
   -4.4456   -2.8856   -1.1986 C   0  0  0  0  0  0  0  0  0  0  0  0
   -5.3606   -2.2711   -0.3205 C   0  0  0  0  0  0  0  0  0  0  0  0
   -4.9834   -1.1549    0.4000 C   0  0  0  0  0  0  0  0  0  0  0  0
   -1.7238   -0.8598   -0.7576 H   0  0  0  0  0  0  0  0  0  0  0  0
   -2.4458   -2.8859   -2.0263 H   0  0  0  0  0  0  0  0  0  0  0  0
   -4.8129   -3.7583   -1.7438 H   0  0  0  0  0  0  0  0  0  0  0  0
   -6.3682   -2.7009   -0.2366 H   0  0  0  0  0  0  0  0  0  0  0  0
   -5.6582   -0.6550    1.0869 H   0  0  0  0  0  0  0  0  0  0  0  0
   -9.7282   -6.1670   -0.5046 C   0  0  0  0  0  0  0  0  0  0  0  0
  -10.4154   -7.3445   -0.2148 C   0  0  0  0  0  0  0  0  0  0  0  0
   -9.9373   -8.5887   -0.6495 C   0  0  0  0  0  0  0  0  0  0  0  0
   -8.7461   -8.6196   -1.3870 C   0  0  0  0  0  0  0  0  0  0  0  0
   -8.0500   -7.4480   -1.6832 C   0  0  0  0  0  0  0  0  0  0  0  0
   -8.5432   -6.2202   -1.2408 C   0  0  0  0  0  0  0  0  0  0  0  0
  -10.0944   -5.2073   -0.1558 H   0  0  0  0  0  0  0  0  0  0  0  0
  -11.3396   -7.2981    0.3572 H   0  0  0  0  0  0  0  0  0  0  0  0
   -8.3580   -9.5747   -1.7340 H   0  0  0  0  0  0  0  0  0  0  0  0
   -7.1213   -7.4743   -2.2425 H   0  0  0  0  0  0  0  0  0  0  0  0
   -7.6970   -4.6942   -1.6874 S   0  0  0  0  0  0  0  0  0  0  0  0
   -7.9165   -3.7818   -0.5165 O   0  0  0  0  0  0  0  0  0  0  0  0
   -8.3050   -4.2058   -2.9446 O   0  0  0  0  0  0  0  0  0  0  0  0
   -6.2548   -5.0880   -1.8358 O   0  0  0  0  0  0  0  0  0  0  0  0
  -10.6695   -9.8644   -0.3047 C   0  0  0  0  0  0  0  0  0  0  0  0
  -10.3342  -10.2682    0.6595 H   0  0  0  0  0  0  0  0  0  0  0  0
  -11.7490   -9.6992   -0.2274 H   0  0  0  0  0  0  0  0  0  0  0  0
  -10.4980  -10.6405   -1.0574 H   0  0  0  0  0  0  0  0  0  0  0  0
  1  8  1  0  0  0  0
  1  2  1  0  0  0  0
  2  3  1  0  0  0  0
  4  1  2  0  0  0  0
  5  6  2  0  0  0  0
  5  4  1  0  0  0  0
  6  7  1  0  0  0  0
  7 12  1  0  0  0  0
  7  8  2  0  0  0  0
  8 13  1  0  0  0  0
  9  4  1  0  0  0  0
 10  5  1  0  0  0  0
 11  6  1  0  0  0  0
 14 15  1  0  0  0  0
 14 20  1  0  0  0  0
 15 21  1  0  0  0  0
 16 28  1  0  0  0  0
 16 15  2  0  0  0  0
 17 16  1  0  0  0  0
 18 17  2  0  0  0  0
 18 19  1  0  0  0  0
 19 14  2  0  0  0  0
 22 17  1  0  0  0  0
 23 18  1  0  0  0  0
 24 19  1  0  0  0  0
 24 25  1  0  0  0  0
 26 24  2  0  0  0  0
 27 24  2  0  0  0  0
 28 30  1  0  0  0  0
 28 29  1  0  0  0  0
 31 28  1  0  0  0  0
M  RAD  3   2   2   3   3  25   2
M  END
