Coordinates from ORCA-job PhN2+~TsO-_B3LYPG-6-31G_dp-NX-Scan-d89-09-n800
 OpenBabel11261920463D

 31 31  0  0  0  0  0  0  0  0999 V2000
   -3.8013   -0.4195   -0.1776 C   0  0  0  0  0  0  0  0  0  0  0  0
   -3.5984    0.8882    0.1199 N   0  0  0  0  0  0  0  0  0  0  0  0
   -3.4515    1.9722    0.3787 N   0  0  0  0  0  0  0  0  0  0  0  0
   -2.8731   -1.0695   -1.0293 C   0  0  0  0  0  0  0  0  0  0  0  0
   -3.1209   -2.3947   -1.3335 C   0  0  0  0  0  0  0  0  0  0  0  0
   -4.2532   -3.0503   -0.8168 C   0  0  0  0  0  0  0  0  0  0  0  0
   -5.1549   -2.3842    0.0378 C   0  0  0  0  0  0  0  0  0  0  0  0
   -4.9436   -1.0608    0.3699 C   0  0  0  0  0  0  0  0  0  0  0  0
   -2.0168   -0.5315   -1.4200 H   0  0  0  0  0  0  0  0  0  0  0  0
   -2.4384   -2.9264   -1.9885 H   0  0  0  0  0  0  0  0  0  0  0  0
   -4.4991   -4.0824   -1.0794 H   0  0  0  0  0  0  0  0  0  0  0  0
   -6.0368   -2.9286    0.3964 H   0  0  0  0  0  0  0  0  0  0  0  0
   -5.6222   -0.5116    1.0138 H   0  0  0  0  0  0  0  0  0  0  0  0
   -9.5818   -6.3032   -0.1943 C   0  0  0  0  0  0  0  0  0  0  0  0
  -10.4387   -7.4020   -0.2027 C   0  0  0  0  0  0  0  0  0  0  0  0
  -10.1049   -8.5766   -0.8928 C   0  0  0  0  0  0  0  0  0  0  0  0
   -8.8836   -8.6184   -1.5775 C   0  0  0  0  0  0  0  0  0  0  0  0
   -8.0177   -7.5241   -1.5767 C   0  0  0  0  0  0  0  0  0  0  0  0
   -8.3690   -6.3662   -0.8838 C   0  0  0  0  0  0  0  0  0  0  0  0
   -9.8354   -5.4015    0.3529 H   0  0  0  0  0  0  0  0  0  0  0  0
  -11.3822   -7.3495    0.3362 H   0  0  0  0  0  0  0  0  0  0  0  0
   -8.6045   -9.5213   -2.1163 H   0  0  0  0  0  0  0  0  0  0  0  0
   -7.0656   -7.5620   -2.0943 H   0  0  0  0  0  0  0  0  0  0  0  0
   -7.2943   -4.9234   -0.9352 S   0  0  0  0  0  0  0  0  0  0  0  0
   -7.4632   -4.2721    0.4057 O   0  0  0  0  0  0  0  0  0  0  0  0
   -7.7409   -4.0668   -2.0607 O   0  0  0  0  0  0  0  0  0  0  0  0
   -5.9131   -5.4779   -1.1307 O   0  0  0  0  0  0  0  0  0  0  0  0
  -11.0270   -9.7735   -0.8708 C   0  0  0  0  0  0  0  0  0  0  0  0
  -10.9147  -10.3467    0.0590 H   0  0  0  0  0  0  0  0  0  0  0  0
  -12.0777   -9.4718   -0.9368 H   0  0  0  0  0  0  0  0  0  0  0  0
  -10.8174  -10.4546   -1.7011 H   0  0  0  0  0  0  0  0  0  0  0  0
  1  2  1  0  0  0  0
  1  8  2  0  0  0  0
  2  3  1  0  0  0  0
  4  1  1  0  0  0  0
  5  4  2  0  0  0  0
  5  6  1  0  0  0  0
  6  7  2  0  0  0  0
  7  8  1  0  0  0  0
  7 12  1  0  0  0  0
  8 13  1  0  0  0  0
  9  4  1  0  0  0  0
 10  5  1  0  0  0  0
 11  6  1  0  0  0  0
 14 20  1  0  0  0  0
 15 14  1  0  0  0  0
 15 21  1  0  0  0  0
 16 28  1  0  0  0  0
 16 15  2  0  0  0  0
 17 18  2  0  0  0  0
 17 16  1  0  0  0  0
 18 19  1  0  0  0  0
 19 14  2  0  0  0  0
 22 17  1  0  0  0  0
 23 18  1  0  0  0  0
 24 19  1  0  0  0  0
 24 25  1  0  0  0  0
 26 24  2  0  0  0  0
 27 24  2  0  0  0  0
 28 29  1  0  0  0  0
 30 28  1  0  0  0  0
 31 28  1  0  0  0  0
M  RAD  3   2   2   3   3  25   2
M  END
