Coordinates from ORCA-job PhN2+~TsO-_B3LYPG-6-31G_dp-NX-Scan-d89-09-n800
 OpenBabel11261920463D

 31 32  0  0  1  0  0  0  0  0999 V2000
   -5.4701   -1.4125   -0.6483 C   0  0  2  0  0  0  0  0  0  0  0  0
   -6.7745   -1.2881   -0.6710 N   0  0  0  0  0  0  0  0  0  0  0  0
   -7.9134   -1.2801   -0.6843 N   0  0  0  0  0  0  0  0  0  0  0  0
   -4.8540   -1.9899   -1.8548 C   0  0  0  0  0  0  0  0  0  0  0  0
   -4.1687   -3.1329   -1.6936 C   0  0  0  0  0  0  0  0  0  0  0  0
   -4.3142   -3.8134   -0.3623 C   0  0  1  0  0  0  0  0  0  0  0  0
   -4.1750   -2.8384    0.7749 C   0  0  0  0  0  0  0  0  0  0  0  0
   -4.8603   -1.6901    0.6631 C   0  0  0  0  0  0  0  0  0  0  0  0
   -4.9671   -1.4897   -2.8123 H   0  0  0  0  0  0  0  0  0  0  0  0
   -3.6137   -3.6085   -2.4951 H   0  0  0  0  0  0  0  0  0  0  0  0
   -3.6948   -4.7026   -0.2517 H   0  0  0  0  0  0  0  0  0  0  0  0
   -3.6274   -3.1162    1.6692 H   0  0  0  0  0  0  0  0  0  0  0  0
   -4.9849   -0.9841    1.4788 H   0  0  0  0  0  0  0  0  0  0  0  0
   -8.7696   -5.4585   -0.2804 C   0  0  0  0  0  0  0  0  0  0  0  0
   -9.8074   -6.0736   -0.9731 C   0  0  0  0  0  0  0  0  0  0  0  0
   -9.6538   -7.3554   -1.5264 C   0  0  0  0  0  0  0  0  0  0  0  0
   -8.4236   -8.0069   -1.3728 C   0  0  0  0  0  0  0  0  0  0  0  0
   -7.3678   -7.4043   -0.6884 C   0  0  0  0  0  0  0  0  0  0  0  0
   -7.5529   -6.1330   -0.1492 C   0  0  0  0  0  0  0  0  0  0  0  0
   -8.8961   -4.4718    0.1514 H   0  0  0  0  0  0  0  0  0  0  0  0
  -10.7551   -5.5527   -1.0841 H   0  0  0  0  0  0  0  0  0  0  0  0
   -8.2884   -9.0002   -1.7914 H   0  0  0  0  0  0  0  0  0  0  0  0
   -6.4162   -7.9095   -0.5634 H   0  0  0  0  0  0  0  0  0  0  0  0
   -6.2166   -5.3621    0.7460 S   0  0  0  0  0  0  0  0  0  0  0  0
   -6.7661   -4.6450    1.8959 O   0  0  0  0  0  0  0  0  0  0  0  0
   -5.7606   -4.2802   -0.3993 O   0  0  0  0  0  0  0  0  0  0  0  0
   -5.1278   -6.3266    0.9360 O   0  0  0  0  0  0  0  0  0  0  0  0
  -10.8007   -8.0172   -2.2514 C   0  0  0  0  0  0  0  0  0  0  0  0
  -11.5809   -8.3303   -1.5472 H   0  0  0  0  0  0  0  0  0  0  0  0
  -11.2686   -7.3317   -2.9658 H   0  0  0  0  0  0  0  0  0  0  0  0
  -10.4716   -8.9049   -2.7974 H   0  0  0  0  0  0  0  0  0  0  0  0
  1  2  1  1  0  0  0
  1  8  1  0  0  0  0
  3  2  1  0  0  0  0
  4  5  2  0  0  0  0
  4  1  1  0  0  0  0
  5  6  1  0  0  0  0
  6 11  1  1  0  0  0
  6  7  1  0  0  0  0
  7 12  1  0  0  0  0
  8  7  2  0  0  0  0
  8 13  1  0  0  0  0
  9  4  1  0  0  0  0
 10  5  1  0  0  0  0
 14 19  1  0  0  0  0
 14 20  1  0  0  0  0
 15 14  2  0  0  0  0
 16 17  2  0  0  0  0
 16 15  1  0  0  0  0
 17 18  1  0  0  0  0
 18 23  1  0  0  0  0
 18 19  2  0  0  0  0
 19 24  1  0  0  0  0
 21 15  1  0  0  0  0
 22 17  1  0  0  0  0
 24 27  2  0  0  0  0
 24 25  2  0  0  0  0
 26  6  1  0  0  0  0
 26 24  1  0  0  0  0
 28 29  1  0  0  0  0
 28 16  1  0  0  0  0
 30 28  1  0  0  0  0
 31 28  1  0  0  0  0
M  RAD  3   1   2   2   2   3   3
M  END
