Coordinates from ORCA-job PhN2+~TsO-_B3LYPG-6-31G_dp-NX-Scan-d89-09-n800
 OpenBabel11261920463D

 31 32  0  0  1  0  0  0  0  0999 V2000
   -4.7736   -0.7436   -0.8880 C   0  0  0  0  0  0  0  0  0  0  0  0
   -4.6279    0.5318   -1.1694 N   0  0  0  0  0  0  0  0  0  0  0  0
   -4.4946    1.6450   -1.4105 N   0  0  0  0  0  0  0  0  0  0  0  0
   -4.3888   -1.7569   -1.8527 C   0  0  0  0  0  0  0  0  0  0  0  0
   -4.4618   -3.0639   -1.5361 C   0  0  0  0  0  0  0  0  0  0  0  0
   -4.9177   -3.5583   -0.1988 C   0  0  1  0  0  0  0  0  0  0  0  0
   -5.3652   -2.4640    0.7232 C   0  0  0  0  0  0  0  0  0  0  0  0
   -5.2934   -1.1583    0.4028 C   0  0  0  0  0  0  0  0  0  0  0  0
   -4.0305   -1.4378   -2.8265 H   0  0  0  0  0  0  0  0  0  0  0  0
   -4.1662   -3.8183   -2.2574 H   0  0  0  0  0  0  0  0  0  0  0  0
   -4.1392   -4.1789    0.2649 H   0  0  0  0  0  0  0  0  0  0  0  0
   -5.7499   -2.7740    1.6886 H   0  0  0  0  0  0  0  0  0  0  0  0
   -5.6123   -0.3931    1.1037 H   0  0  0  0  0  0  0  0  0  0  0  0
   -8.8089   -6.2833    0.2923 C   0  0  0  0  0  0  0  0  0  0  0  0
   -9.9320   -6.8865   -0.2644 C   0  0  0  0  0  0  0  0  0  0  0  0
   -9.8153   -7.8052   -1.3202 C   0  0  0  0  0  0  0  0  0  0  0  0
   -8.5362   -8.1114   -1.8032 C   0  0  0  0  0  0  0  0  0  0  0  0
   -7.3982   -7.5172   -1.2598 C   0  0  0  0  0  0  0  0  0  0  0  0
   -7.5486   -6.6027   -0.2183 C   0  0  0  0  0  0  0  0  0  0  0  0
   -8.8973   -5.5851    1.1174 H   0  0  0  0  0  0  0  0  0  0  0  0
  -10.9160   -6.6454    0.1287 H   0  0  0  0  0  0  0  0  0  0  0  0
   -8.4280   -8.8277   -2.6130 H   0  0  0  0  0  0  0  0  0  0  0  0
   -6.4072   -7.7636   -1.6239 H   0  0  0  0  0  0  0  0  0  0  0  0
   -6.1021   -5.8395    0.4869 S   0  0  0  0  0  0  0  0  0  0  0  0
   -6.3782   -5.4368    1.8688 O   0  0  0  0  0  0  0  0  0  0  0  0
   -6.0669   -4.5029   -0.4577 O   0  0  0  0  0  0  0  0  0  0  0  0
   -4.9209   -6.6562    0.1956 O   0  0  0  0  0  0  0  0  0  0  0  0
  -11.0458   -8.4462   -1.9151 C   0  0  0  0  0  0  0  0  0  0  0  0
  -11.6425   -8.9479   -1.1453 H   0  0  0  0  0  0  0  0  0  0  0  0
  -11.6923   -7.6960   -2.3855 H   0  0  0  0  0  0  0  0  0  0  0  0
  -10.7842   -9.1867   -2.6754 H   0  0  0  0  0  0  0  0  0  0  0  0
  1  8  1  0  0  0  0
  2  1  1  0  0  0  0
  3  2  1  0  0  0  0
  4  5  1  0  0  0  0
  4  1  2  0  0  0  0
  5  6  1  0  0  0  0
  6 11  1  1  0  0  0
  6  7  1  0  0  0  0
  7 12  1  0  0  0  0
  8  7  2  0  0  0  0
  8 13  1  0  0  0  0
  9  4  1  0  0  0  0
 10  5  1  0  0  0  0
 14 20  1  0  0  0  0
 15 21  1  0  0  0  0
 15 14  2  0  0  0  0
 16 15  1  0  0  0  0
 17 16  2  0  0  0  0
 17 18  1  0  0  0  0
 18 19  2  0  0  0  0
 19 14  1  0  0  0  0
 19 24  1  0  0  0  0
 22 17  1  0  0  0  0
 23 18  1  0  0  0  0
 24 25  2  0  0  0  0
 26  6  1  0  0  0  0
 26 24  1  0  0  0  0
 27 24  2  0  0  0  0
 28 16  1  0  0  0  0
 28 29  1  0  0  0  0
 30 28  1  0  0  0  0
 31 28  1  0  0  0  0
M  RAD  3   2   2   3   3   5   2
M  END
