Coordinates from ORCA-job PhN2+~TsO-_B3LYPG-6-31G_dp-NX-Scan-d89-09-n800
 OpenBabel11261920463D

 31 32  0  0  1  0  0  0  0  0999 V2000
   -5.4608   -1.3957   -0.6295 C   0  0  2  0  0  0  0  0  0  0  0  0
   -6.7630   -1.5627   -0.5875 N   0  0  0  0  0  0  0  0  0  0  0  0
   -7.8672   -1.8329   -0.5442 N   0  0  0  0  0  0  0  0  0  0  0  0
   -4.8379   -1.9529   -1.8586 C   0  0  0  0  0  0  0  0  0  0  0  0
   -4.1853   -3.1148   -1.7157 C   0  0  0  0  0  0  0  0  0  0  0  0
   -4.3407   -3.8014   -0.3847 C   0  0  1  0  0  0  0  0  0  0  0  0
   -4.1292   -2.8341    0.7532 C   0  0  0  0  0  0  0  0  0  0  0  0
   -4.7822   -1.6672    0.6646 C   0  0  0  0  0  0  0  0  0  0  0  0
   -4.9323   -1.4288   -2.8054 H   0  0  0  0  0  0  0  0  0  0  0  0
   -3.6300   -3.5912   -2.5173 H   0  0  0  0  0  0  0  0  0  0  0  0
   -3.7578   -4.7163   -0.2904 H   0  0  0  0  0  0  0  0  0  0  0  0
   -3.5397   -3.1261    1.6164 H   0  0  0  0  0  0  0  0  0  0  0  0
   -4.8462   -0.9492    1.4769 H   0  0  0  0  0  0  0  0  0  0  0  0
   -8.8097   -5.4157   -0.3087 C   0  0  0  0  0  0  0  0  0  0  0  0
   -9.8304   -6.0531   -1.0071 C   0  0  0  0  0  0  0  0  0  0  0  0
   -9.6563   -7.3419   -1.5369 C   0  0  0  0  0  0  0  0  0  0  0  0
   -8.4222   -7.9788   -1.3540 C   0  0  0  0  0  0  0  0  0  0  0  0
   -7.3834   -7.3549   -0.6632 C   0  0  0  0  0  0  0  0  0  0  0  0
   -7.5894   -6.0764   -0.1480 C   0  0  0  0  0  0  0  0  0  0  0  0
   -8.9510   -4.4220    0.1009 H   0  0  0  0  0  0  0  0  0  0  0  0
  -10.7808   -5.5430   -1.1419 H   0  0  0  0  0  0  0  0  0  0  0  0
   -8.2703   -8.9770   -1.7547 H   0  0  0  0  0  0  0  0  0  0  0  0
   -6.4292   -7.8487   -0.5155 H   0  0  0  0  0  0  0  0  0  0  0  0
   -6.2732   -5.2825    0.7564 S   0  0  0  0  0  0  0  0  0  0  0  0
   -6.8411   -4.5553    1.8900 O   0  0  0  0  0  0  0  0  0  0  0  0
   -5.8057   -4.2001   -0.3905 O   0  0  0  0  0  0  0  0  0  0  0  0
   -5.1784   -6.2353    0.9679 O   0  0  0  0  0  0  0  0  0  0  0  0
  -10.7857   -8.0287   -2.2659 C   0  0  0  0  0  0  0  0  0  0  0  0
  -11.5440   -8.3904   -1.5609 H   0  0  0  0  0  0  0  0  0  0  0  0
  -11.2888   -7.3442   -2.9566 H   0  0  0  0  0  0  0  0  0  0  0  0
  -10.4298   -8.8895   -2.8379 H   0  0  0  0  0  0  0  0  0  0  0  0
  1  2  1  1  0  0  0
  1  8  1  0  0  0  0
  2  3  1  0  0  0  0
  4  5  2  0  0  0  0
  4  1  1  0  0  0  0
  5  6  1  0  0  0  0
  6 11  1  1  0  0  0
  6  7  1  0  0  0  0
  7 12  1  0  0  0  0
  8  7  2  0  0  0  0
  8 13  1  0  0  0  0
  9  4  1  0  0  0  0
 10  5  1  0  0  0  0
 14 19  1  0  0  0  0
 14 20  1  0  0  0  0
 15 14  2  0  0  0  0
 16 17  2  0  0  0  0
 16 15  1  0  0  0  0
 17 18  1  0  0  0  0
 18 23  1  0  0  0  0
 18 19  2  0  0  0  0
 19 24  1  0  0  0  0
 21 15  1  0  0  0  0
 22 17  1  0  0  0  0
 24 27  2  0  0  0  0
 24 25  2  0  0  0  0
 26  6  1  0  0  0  0
 26 24  1  0  0  0  0
 28 29  1  0  0  0  0
 28 16  1  0  0  0  0
 30 28  1  0  0  0  0
 31 28  1  0  0  0  0
M  RAD  3   1   2   2   2   3   3
M  END
