Coordinates from ORCA-job PhN2+~TsO-_B3LYPG-6-31G_dp-NX-Scan-d89-09-n800
 OpenBabel11261920463D

 31 32  0  0  1  0  0  0  0  0999 V2000
   -5.3628   -1.3757   -0.6773 C   0  0  2  0  0  0  0  0  0  0  0  0
   -6.6074   -0.9727   -0.7314 N   0  0  0  0  0  0  0  0  0  0  0  0
   -7.7152   -0.7116   -0.7729 N   0  0  0  0  0  0  0  0  0  0  0  0
   -4.8121   -2.0236   -1.8698 C   0  0  0  0  0  0  0  0  0  0  0  0
   -4.1922   -3.2022   -1.6916 C   0  0  0  0  0  0  0  0  0  0  0  0
   -4.3509   -3.8480   -0.3478 C   0  0  1  0  0  0  0  0  0  0  0  0
   -4.1770   -2.8644    0.7733 C   0  0  0  0  0  0  0  0  0  0  0  0
   -4.7977   -1.6808    0.6393 C   0  0  0  0  0  0  0  0  0  0  0  0
   -4.9124   -1.5421   -2.8381 H   0  0  0  0  0  0  0  0  0  0  0  0
   -3.6894   -3.7288   -2.4954 H   0  0  0  0  0  0  0  0  0  0  0  0
   -3.7624   -4.7559   -0.2236 H   0  0  0  0  0  0  0  0  0  0  0  0
   -3.6670   -3.1606    1.6834 H   0  0  0  0  0  0  0  0  0  0  0  0
   -4.8949   -0.9615    1.4470 H   0  0  0  0  0  0  0  0  0  0  0  0
   -8.8728   -5.5622   -0.1449 C   0  0  0  0  0  0  0  0  0  0  0  0
   -9.8893   -6.1981   -0.8508 C   0  0  0  0  0  0  0  0  0  0  0  0
   -9.6587   -7.4073   -1.5264 C   0  0  0  0  0  0  0  0  0  0  0  0
   -8.3752   -7.9667   -1.4771 C   0  0  0  0  0  0  0  0  0  0  0  0
   -7.3417   -7.3418   -0.7798 C   0  0  0  0  0  0  0  0  0  0  0  0
   -7.6016   -6.1407   -0.1221 C   0  0  0  0  0  0  0  0  0  0  0  0
   -9.0568   -4.6371    0.3899 H   0  0  0  0  0  0  0  0  0  0  0  0
  -10.8805   -5.7522   -0.8746 H   0  0  0  0  0  0  0  0  0  0  0  0
   -8.1820   -8.9066   -1.9863 H   0  0  0  0  0  0  0  0  0  0  0  0
   -6.3510   -7.7807   -0.7314 H   0  0  0  0  0  0  0  0  0  0  0  0
   -6.2906   -5.3363    0.7824 S   0  0  0  0  0  0  0  0  0  0  0  0
   -6.8745   -4.6067    1.9073 O   0  0  0  0  0  0  0  0  0  0  0  0
   -5.8153   -4.2698   -0.3674 O   0  0  0  0  0  0  0  0  0  0  0  0
   -5.1980   -6.2881    1.0124 O   0  0  0  0  0  0  0  0  0  0  0  0
  -10.7787   -8.0899   -2.2740 C   0  0  0  0  0  0  0  0  0  0  0  0
  -11.5656   -8.4221   -1.5870 H   0  0  0  0  0  0  0  0  0  0  0  0
  -11.2470   -7.4099   -2.9942 H   0  0  0  0  0  0  0  0  0  0  0  0
  -10.4208   -8.9663   -2.8200 H   0  0  0  0  0  0  0  0  0  0  0  0
  1  2  1  1  0  0  0
  1  8  1  0  0  0  0
  3  2  1  0  0  0  0
  4  5  2  0  0  0  0
  4  1  1  0  0  0  0
  5  6  1  0  0  0  0
  6 11  1  1  0  0  0
  6  7  1  0  0  0  0
  7 12  1  0  0  0  0
  8  7  2  0  0  0  0
  8 13  1  0  0  0  0
  9  4  1  0  0  0  0
 10  5  1  0  0  0  0
 14 19  1  0  0  0  0
 14 20  1  0  0  0  0
 15 14  2  0  0  0  0
 16 17  2  0  0  0  0
 16 15  1  0  0  0  0
 17 18  1  0  0  0  0
 18 23  1  0  0  0  0
 18 19  2  0  0  0  0
 19 24  1  0  0  0  0
 21 15  1  0  0  0  0
 22 17  1  0  0  0  0
 24 27  2  0  0  0  0
 24 25  2  0  0  0  0
 26  6  1  0  0  0  0
 26 24  1  0  0  0  0
 28 29  1  0  0  0  0
 28 16  1  0  0  0  0
 30 28  1  0  0  0  0
 31 28  1  0  0  0  0
M  RAD  3   1   2   2   2   3   3
M  END
