Coordinates from ORCA-job PhN2+~TsO-_B3LYPG-6-31G_dp-NX-Scan-d89-09-n800
 OpenBabel11261920463D

 31 32  0  0  1  0  0  0  0  0999 V2000
   -5.3933   -1.3382   -0.9911 C   0  0  2  0  0  0  0  0  0  0  0  0
   -6.2894   -0.5523   -1.5329 N   0  0  0  0  0  0  0  0  0  0  0  0
   -7.1029    0.0910   -2.0075 N   0  0  0  0  0  0  0  0  0  0  0  0
   -4.5486   -2.1499   -1.8475 C   0  0  0  0  0  0  0  0  0  0  0  0
   -3.9857   -3.2549   -1.3260 C   0  0  0  0  0  0  0  0  0  0  0  0
   -4.4237   -3.7254    0.0218 C   0  0  1  0  0  0  0  0  0  0  0  0
   -4.7937   -2.6158    0.9526 C   0  0  0  0  0  0  0  0  0  0  0  0
   -5.3626   -1.5050    0.4511 C   0  0  0  0  0  0  0  0  0  0  0  0
   -4.3790   -1.8360   -2.8727 H   0  0  0  0  0  0  0  0  0  0  0  0
   -3.3140   -3.8782   -1.9058 H   0  0  0  0  0  0  0  0  0  0  0  0
   -3.7262   -4.4414    0.4586 H   0  0  0  0  0  0  0  0  0  0  0  0
   -4.7139   -2.7799    2.0213 H   0  0  0  0  0  0  0  0  0  0  0  0
   -5.7832   -0.7274    1.0812 H   0  0  0  0  0  0  0  0  0  0  0  0
   -8.7027   -5.9948    0.2852 C   0  0  0  0  0  0  0  0  0  0  0  0
   -9.8351   -6.4770   -0.3639 C   0  0  0  0  0  0  0  0  0  0  0  0
   -9.7291   -7.3659   -1.4455 C   0  0  0  0  0  0  0  0  0  0  0  0
   -8.4520   -7.7658   -1.8608 C   0  0  0  0  0  0  0  0  0  0  0  0
   -7.3055   -7.2942   -1.2236 C   0  0  0  0  0  0  0  0  0  0  0  0
   -7.4439   -6.4068   -0.1572 C   0  0  0  0  0  0  0  0  0  0  0  0
   -8.7831   -5.3207    1.1310 H   0  0  0  0  0  0  0  0  0  0  0  0
  -10.8185   -6.1632   -0.0238 H   0  0  0  0  0  0  0  0  0  0  0  0
   -8.3529   -8.4591   -2.6916 H   0  0  0  0  0  0  0  0  0  0  0  0
   -6.3179   -7.6157   -1.5351 H   0  0  0  0  0  0  0  0  0  0  0  0
   -5.9859   -5.7988    0.6682 S   0  0  0  0  0  0  0  0  0  0  0  0
   -6.3382   -5.3571    2.0205 O   0  0  0  0  0  0  0  0  0  0  0  0
   -5.7100   -4.4949   -0.2779 O   0  0  0  0  0  0  0  0  0  0  0  0
   -4.8843   -6.7494    0.4877 O   0  0  0  0  0  0  0  0  0  0  0  0
  -10.9692   -7.8833   -2.1339 C   0  0  0  0  0  0  0  0  0  0  0  0
  -11.6004   -8.4482   -1.4379 H   0  0  0  0  0  0  0  0  0  0  0  0
  -11.5780   -7.0600   -2.5239 H   0  0  0  0  0  0  0  0  0  0  0  0
  -10.7188   -8.5422   -2.9694 H   0  0  0  0  0  0  0  0  0  0  0  0
  1  2  1  6  0  0  0
  1  8  1  0  0  0  0
  3  2  1  0  0  0  0
  4  5  2  0  0  0  0
  4  1  1  0  0  0  0
  5  6  1  0  0  0  0
  6 11  1  1  0  0  0
  6  7  1  0  0  0  0
  7 12  1  0  0  0  0
  8  7  2  0  0  0  0
  8 13  1  0  0  0  0
  9  4  1  0  0  0  0
 10  5  1  0  0  0  0
 14 20  1  0  0  0  0
 15 21  1  0  0  0  0
 15 14  2  0  0  0  0
 16 15  1  0  0  0  0
 17 16  2  0  0  0  0
 17 18  1  0  0  0  0
 18 19  2  0  0  0  0
 19 14  1  0  0  0  0
 19 24  1  0  0  0  0
 22 17  1  0  0  0  0
 23 18  1  0  0  0  0
 24 25  2  0  0  0  0
 26  6  1  0  0  0  0
 26 24  1  0  0  0  0
 27 24  2  0  0  0  0
 28 16  1  0  0  0  0
 28 29  1  0  0  0  0
 30 28  1  0  0  0  0
 31 28  1  0  0  0  0
M  RAD  3   1   2   2   2   3   3
M  END
