Coordinates from ORCA-job PhN2+~TsO-_B3LYPG-6-31G_dp-NX-Scan-d89-09-n800
 OpenBabel11261920463D

 31 32  0  0  1  0  0  0  0  0999 V2000
   -5.3517   -1.3477   -0.7501 C   0  0  2  0  0  0  0  0  0  0  0  0
   -6.6101   -1.7449   -0.5937 N   0  0  0  0  0  0  0  0  0  0  0  0
   -7.5246   -2.3934   -0.4233 N   0  0  0  0  0  0  0  0  0  0  0  0
   -4.7790   -2.0512   -1.9443 C   0  0  0  0  0  0  0  0  0  0  0  0
   -4.2512   -3.2597   -1.7041 C   0  0  0  0  0  0  0  0  0  0  0  0
   -4.4280   -3.7989   -0.3091 C   0  0  1  0  0  0  0  0  0  0  0  0
   -4.0703   -2.7555    0.7191 C   0  0  0  0  0  0  0  0  0  0  0  0
   -4.6072   -1.5399    0.5372 C   0  0  0  0  0  0  0  0  0  0  0  0
   -4.8325   -1.6028   -2.9323 H   0  0  0  0  0  0  0  0  0  0  0  0
   -3.7537   -3.8588   -2.4612 H   0  0  0  0  0  0  0  0  0  0  0  0
   -3.9473   -4.7608   -0.1432 H   0  0  0  0  0  0  0  0  0  0  0  0
   -3.4585   -3.0221    1.5759 H   0  0  0  0  0  0  0  0  0  0  0  0
   -4.5498   -0.7402    1.2700 H   0  0  0  0  0  0  0  0  0  0  0  0
   -8.9854   -5.4713   -0.1277 C   0  0  0  0  0  0  0  0  0  0  0  0
   -9.9547   -6.1329   -0.8779 C   0  0  0  0  0  0  0  0  0  0  0  0
   -9.6560   -7.3131   -1.5747 C   0  0  0  0  0  0  0  0  0  0  0  0
   -8.3497   -7.8185   -1.5048 C   0  0  0  0  0  0  0  0  0  0  0  0
   -7.3644   -7.1697   -0.7640 C   0  0  0  0  0  0  0  0  0  0  0  0
   -7.6928   -5.9960   -0.0841 C   0  0  0  0  0  0  0  0  0  0  0  0
   -9.2216   -4.5644    0.4160 H   0  0  0  0  0  0  0  0  0  0  0  0
  -10.9621   -5.7273   -0.9203 H   0  0  0  0  0  0  0  0  0  0  0  0
   -8.1015   -8.7354   -2.0323 H   0  0  0  0  0  0  0  0  0  0  0  0
   -6.3583   -7.5689   -0.6978 H   0  0  0  0  0  0  0  0  0  0  0  0
   -6.4371   -5.1706    0.8792 S   0  0  0  0  0  0  0  0  0  0  0  0
   -7.0723   -4.4918    2.0058 O   0  0  0  0  0  0  0  0  0  0  0  0
   -5.9537   -4.0191   -0.1991 O   0  0  0  0  0  0  0  0  0  0  0  0
   -5.3250   -6.1004    1.1052 O   0  0  0  0  0  0  0  0  0  0  0  0
  -10.7237   -8.0416   -2.3542 C   0  0  0  0  0  0  0  0  0  0  0  0
  -11.2298   -8.7834   -1.7239 H   0  0  0  0  0  0  0  0  0  0  0  0
  -11.4887   -7.3537   -2.7254 H   0  0  0  0  0  0  0  0  0  0  0  0
  -10.3010   -8.5761   -3.2097 H   0  0  0  0  0  0  0  0  0  0  0  0
  1  2  1  1  0  0  0
  1  8  1  0  0  0  0
  2  3  1  0  0  0  0
  4  5  2  0  0  0  0
  4  1  1  0  0  0  0
  5  6  1  0  0  0  0
  6 26  1  0  0  0  0
  6 11  1  1  0  0  0
  6  7  1  0  0  0  0
  7 12  1  0  0  0  0
  8  7  2  0  0  0  0
  8 13  1  0  0  0  0
  9  4  1  0  0  0  0
 10  5  1  0  0  0  0
 14 19  1  0  0  0  0
 14 20  1  0  0  0  0
 15 14  2  0  0  0  0
 16 17  2  0  0  0  0
 16 15  1  0  0  0  0
 17 18  1  0  0  0  0
 18 23  1  0  0  0  0
 18 19  2  0  0  0  0
 19 24  1  0  0  0  0
 21 15  1  0  0  0  0
 22 17  1  0  0  0  0
 24 27  2  0  0  0  0
 24 25  2  0  0  0  0
 26 24  1  0  0  0  0
 28 29  1  0  0  0  0
 28 16  1  0  0  0  0
 30 28  1  0  0  0  0
 31 28  1  0  0  0  0
M  RAD  3   1   2   2   2   3   3
M  END
