Coordinates from ORCA-job PhN2+~TsO-_B3LYPG-6-31G_dp-NX-Scan-d89-09-n800
 OpenBabel11261920463D

 31 32  0  0  1  0  0  0  0  0999 V2000
   -5.4932   -1.4164   -0.6427 C   0  0  2  0  0  0  0  0  0  0  0  0
   -6.8044   -1.4269   -0.6456 N   0  0  0  0  0  0  0  0  0  0  0  0
   -7.9374   -1.5411   -0.6409 N   0  0  0  0  0  0  0  0  0  0  0  0
   -4.8597   -1.9772   -1.8544 C   0  0  0  0  0  0  0  0  0  0  0  0
   -4.1685   -3.1159   -1.6962 C   0  0  0  0  0  0  0  0  0  0  0  0
   -4.3146   -3.8009   -0.3656 C   0  0  1  0  0  0  0  0  0  0  0  0
   -4.1681   -2.8254    0.7724 C   0  0  0  0  0  0  0  0  0  0  0  0
   -4.8591   -1.6811    0.6659 C   0  0  0  0  0  0  0  0  0  0  0  0
   -4.9697   -1.4703   -2.8088 H   0  0  0  0  0  0  0  0  0  0  0  0
   -3.6011   -3.5826   -2.4944 H   0  0  0  0  0  0  0  0  0  0  0  0
   -3.6962   -4.6911   -0.2583 H   0  0  0  0  0  0  0  0  0  0  0  0
   -3.6035   -3.0984    1.6578 H   0  0  0  0  0  0  0  0  0  0  0  0
   -4.9760   -0.9717    1.4799 H   0  0  0  0  0  0  0  0  0  0  0  0
   -8.7540   -5.4299   -0.3128 C   0  0  0  0  0  0  0  0  0  0  0  0
   -9.7934   -6.0439   -1.0041 C   0  0  0  0  0  0  0  0  0  0  0  0
   -9.6538   -7.3392   -1.5289 C   0  0  0  0  0  0  0  0  0  0  0  0
   -8.4351   -8.0056   -1.3491 C   0  0  0  0  0  0  0  0  0  0  0  0
   -7.3776   -7.4048   -0.6658 C   0  0  0  0  0  0  0  0  0  0  0  0
   -7.5495   -6.1201   -0.1546 C   0  0  0  0  0  0  0  0  0  0  0  0
   -8.8696   -4.4310    0.0931 H   0  0  0  0  0  0  0  0  0  0  0  0
  -10.7313   -5.5107   -1.1371 H   0  0  0  0  0  0  0  0  0  0  0  0
   -8.3099   -9.0087   -1.7470 H   0  0  0  0  0  0  0  0  0  0  0  0
   -6.4343   -7.9203   -0.5218 H   0  0  0  0  0  0  0  0  0  0  0  0
   -6.2113   -5.3543    0.7419 S   0  0  0  0  0  0  0  0  0  0  0  0
   -6.7547   -4.6441    1.8987 O   0  0  0  0  0  0  0  0  0  0  0  0
   -5.7608   -4.2627   -0.3987 O   0  0  0  0  0  0  0  0  0  0  0  0
   -5.1204   -6.3184    0.9206 O   0  0  0  0  0  0  0  0  0  0  0  0
  -10.8034   -8.0004   -2.2501 C   0  0  0  0  0  0  0  0  0  0  0  0
  -11.5731   -8.3287   -1.5412 H   0  0  0  0  0  0  0  0  0  0  0  0
  -11.2844   -7.3098   -2.9505 H   0  0  0  0  0  0  0  0  0  0  0  0
  -10.4737   -8.8791   -2.8103 H   0  0  0  0  0  0  0  0  0  0  0  0
  1  2  1  1  0  0  0
  1  8  1  0  0  0  0
  2  3  1  0  0  0  0
  4  5  2  0  0  0  0
  4  1  1  0  0  0  0
  5  6  1  0  0  0  0
  6 11  1  1  0  0  0
  6  7  1  0  0  0  0
  7 12  1  0  0  0  0
  8  7  2  0  0  0  0
  8 13  1  0  0  0  0
  9  4  1  0  0  0  0
 10  5  1  0  0  0  0
 14 19  1  0  0  0  0
 14 20  1  0  0  0  0
 15 14  2  0  0  0  0
 16 17  2  0  0  0  0
 16 15  1  0  0  0  0
 17 18  1  0  0  0  0
 18 23  1  0  0  0  0
 18 19  2  0  0  0  0
 19 24  1  0  0  0  0
 21 15  1  0  0  0  0
 22 17  1  0  0  0  0
 24 27  2  0  0  0  0
 24 25  2  0  0  0  0
 26  6  1  0  0  0  0
 26 24  1  0  0  0  0
 28 29  1  0  0  0  0
 28 16  1  0  0  0  0
 30 28  1  0  0  0  0
 31 28  1  0  0  0  0
M  RAD  3   1   2   2   2   3   3
M  END
