Coordinates from ORCA-job PhN2+~TsO-_B3LYPG-6-31G_dp-NX-Scan-d89-09-n800
 OpenBabel11261920463D

 31 32  0  0  1  0  0  0  0  0999 V2000
   -5.3769   -1.3639   -0.6796 C   0  0  2  0  0  0  0  0  0  0  0  0
   -6.6507   -1.6956   -0.5922 N   0  0  0  0  0  0  0  0  0  0  0  0
   -7.6732   -2.1801   -0.5033 N   0  0  0  0  0  0  0  0  0  0  0  0
   -4.7621   -1.9802   -1.8976 C   0  0  0  0  0  0  0  0  0  0  0  0
   -4.1971   -3.1809   -1.7170 C   0  0  0  0  0  0  0  0  0  0  0  0
   -4.3929   -3.8093   -0.3604 C   0  0  1  0  0  0  0  0  0  0  0  0
   -4.0951   -2.8174    0.7392 C   0  0  0  0  0  0  0  0  0  0  0  0
   -4.6665   -1.6121    0.6144 C   0  0  0  0  0  0  0  0  0  0  0  0
   -4.8057   -1.4721   -2.8567 H   0  0  0  0  0  0  0  0  0  0  0  0
   -3.6636   -3.7174   -2.4958 H   0  0  0  0  0  0  0  0  0  0  0  0
   -3.8763   -4.7597   -0.2385 H   0  0  0  0  0  0  0  0  0  0  0  0
   -3.4994   -3.1165    1.5963 H   0  0  0  0  0  0  0  0  0  0  0  0
   -4.6542   -0.8543    1.3923 H   0  0  0  0  0  0  0  0  0  0  0  0
   -8.9358   -5.4338   -0.2149 C   0  0  0  0  0  0  0  0  0  0  0  0
   -9.9233   -6.1014   -0.9359 C   0  0  0  0  0  0  0  0  0  0  0  0
   -9.6664   -7.3349   -1.5522 C   0  0  0  0  0  0  0  0  0  0  0  0
   -8.3832   -7.8881   -1.4328 C   0  0  0  0  0  0  0  0  0  0  0  0
   -7.3800   -7.2347   -0.7206 C   0  0  0  0  0  0  0  0  0  0  0  0
   -7.6677   -6.0085   -0.1197 C   0  0  0  0  0  0  0  0  0  0  0  0
   -9.1397   -4.4841    0.2649 H   0  0  0  0  0  0  0  0  0  0  0  0
  -10.9119   -5.6578   -1.0185 H   0  0  0  0  0  0  0  0  0  0  0  0
   -8.1673   -8.8453   -1.8992 H   0  0  0  0  0  0  0  0  0  0  0  0
   -6.3911   -7.6676   -0.6177 H   0  0  0  0  0  0  0  0  0  0  0  0
   -6.3918   -5.1782    0.8104 S   0  0  0  0  0  0  0  0  0  0  0  0
   -7.0058   -4.4419    1.9125 O   0  0  0  0  0  0  0  0  0  0  0  0
   -5.8901   -4.0943   -0.3255 O   0  0  0  0  0  0  0  0  0  0  0  0
   -5.2953   -6.1176    1.0691 O   0  0  0  0  0  0  0  0  0  0  0  0
  -10.7540   -8.0677   -2.2996 C   0  0  0  0  0  0  0  0  0  0  0  0
  -11.2680   -8.7799   -1.6422 H   0  0  0  0  0  0  0  0  0  0  0  0
  -11.5089   -7.3780   -2.6872 H   0  0  0  0  0  0  0  0  0  0  0  0
  -10.3479   -8.6374   -3.1406 H   0  0  0  0  0  0  0  0  0  0  0  0
  1  2  1  1  0  0  0
  1  8  1  0  0  0  0
  2  3  1  0  0  0  0
  4  5  2  0  0  0  0
  4  1  1  0  0  0  0
  5  6  1  0  0  0  0
  6 26  1  0  0  0  0
  6 11  1  1  0  0  0
  6  7  1  0  0  0  0
  7 12  1  0  0  0  0
  8  7  2  0  0  0  0
  8 13  1  0  0  0  0
  9  4  1  0  0  0  0
 10  5  1  0  0  0  0
 14 19  1  0  0  0  0
 14 20  1  0  0  0  0
 15 14  2  0  0  0  0
 16 17  2  0  0  0  0
 16 15  1  0  0  0  0
 17 18  1  0  0  0  0
 18 23  1  0  0  0  0
 18 19  2  0  0  0  0
 19 24  1  0  0  0  0
 21 15  1  0  0  0  0
 22 17  1  0  0  0  0
 24 27  2  0  0  0  0
 24 25  2  0  0  0  0
 26 24  1  0  0  0  0
 28 29  1  0  0  0  0
 28 16  1  0  0  0  0
 30 28  1  0  0  0  0
 31 28  1  0  0  0  0
M  RAD  3   1   2   2   2   3   3
M  END
