Coordinates from ORCA-job PhN2+~TsO-_B3LYPG-6-31G_dp-NX-Scan-d89-09-n800
 OpenBabel11261920463D

 31 32  0  0  1  0  0  0  0  0999 V2000
   -5.3522   -1.3617   -0.7055 C   0  0  2  0  0  0  0  0  0  0  0  0
   -6.5338   -0.8090   -0.8104 N   0  0  0  0  0  0  0  0  0  0  0  0
   -7.5959   -0.4061   -0.8970 N   0  0  0  0  0  0  0  0  0  0  0  0
   -4.8031   -2.0428   -1.8742 C   0  0  0  0  0  0  0  0  0  0  0  0
   -4.1944   -3.2234   -1.6682 C   0  0  0  0  0  0  0  0  0  0  0  0
   -4.3605   -3.8467   -0.3164 C   0  0  1  0  0  0  0  0  0  0  0  0
   -4.2232   -2.8468    0.7930 C   0  0  0  0  0  0  0  0  0  0  0  0
   -4.8333   -1.6610    0.6264 C   0  0  0  0  0  0  0  0  0  0  0  0
   -4.8910   -1.5811   -2.8532 H   0  0  0  0  0  0  0  0  0  0  0  0
   -3.6992   -3.7707   -2.4626 H   0  0  0  0  0  0  0  0  0  0  0  0
   -3.7577   -4.7421   -0.1703 H   0  0  0  0  0  0  0  0  0  0  0  0
   -3.7511   -3.1333    1.7261 H   0  0  0  0  0  0  0  0  0  0  0  0
   -4.9494   -0.9329    1.4234 H   0  0  0  0  0  0  0  0  0  0  0  0
   -8.8775   -5.6222   -0.0839 C   0  0  0  0  0  0  0  0  0  0  0  0
   -9.9004   -6.2482   -0.7894 C   0  0  0  0  0  0  0  0  0  0  0  0
   -9.6652   -7.4235   -1.5210 C   0  0  0  0  0  0  0  0  0  0  0  0
   -8.3709   -7.9599   -1.5270 C   0  0  0  0  0  0  0  0  0  0  0  0
   -7.3313   -7.3447   -0.8304 C   0  0  0  0  0  0  0  0  0  0  0  0
   -7.5957   -6.1764   -0.1175 C   0  0  0  0  0  0  0  0  0  0  0  0
   -9.0637   -4.7247    0.4953 H   0  0  0  0  0  0  0  0  0  0  0  0
  -10.9003   -5.8220   -0.7683 H   0  0  0  0  0  0  0  0  0  0  0  0
   -8.1744   -8.8748   -2.0790 H   0  0  0  0  0  0  0  0  0  0  0  0
   -6.3324   -7.7671   -0.8237 H   0  0  0  0  0  0  0  0  0  0  0  0
   -6.2768   -5.3847    0.7868 S   0  0  0  0  0  0  0  0  0  0  0  0
   -6.8499   -4.6789    1.9327 O   0  0  0  0  0  0  0  0  0  0  0  0
   -5.8169   -4.2982   -0.3490 O   0  0  0  0  0  0  0  0  0  0  0  0
   -5.1793   -6.3376    0.9882 O   0  0  0  0  0  0  0  0  0  0  0  0
  -10.7904   -8.0934   -2.2722 C   0  0  0  0  0  0  0  0  0  0  0  0
  -11.5855   -8.4131   -1.5892 H   0  0  0  0  0  0  0  0  0  0  0  0
  -11.2455   -7.4087   -2.9969 H   0  0  0  0  0  0  0  0  0  0  0  0
  -10.4410   -8.9749   -2.8154 H   0  0  0  0  0  0  0  0  0  0  0  0
  1  2  1  1  0  0  0
  1  8  1  0  0  0  0
  3  2  1  0  0  0  0
  4  5  2  0  0  0  0
  4  1  1  0  0  0  0
  5  6  1  0  0  0  0
  6 11  1  1  0  0  0
  6  7  1  0  0  0  0
  7 12  1  0  0  0  0
  8  7  2  0  0  0  0
  8 13  1  0  0  0  0
  9  4  1  0  0  0  0
 10  5  1  0  0  0  0
 14 20  1  0  0  0  0
 15 21  1  0  0  0  0
 15 14  2  0  0  0  0
 16 15  1  0  0  0  0
 17 16  2  0  0  0  0
 17 18  1  0  0  0  0
 18 23  1  0  0  0  0
 18 19  2  0  0  0  0
 19 14  1  0  0  0  0
 19 24  1  0  0  0  0
 22 17  1  0  0  0  0
 24 27  2  0  0  0  0
 24 25  2  0  0  0  0
 26  6  1  0  0  0  0
 26 24  1  0  0  0  0
 28 29  1  0  0  0  0
 28 16  1  0  0  0  0
 30 28  1  0  0  0  0
 31 28  1  0  0  0  0
M  RAD  3   1   2   2   2   3   3
M  END
