Coordinates from ORCA-job PhN2+~TsO-_B3LYPG-6-31G_dp-NX-Scan-d89-09-n800
 OpenBabel11261920463D

 31 32  0  0  0  0  0  0  0  0999 V2000
   -5.0192   -2.5836   -0.8685 C   0  0  0  0  0  0  0  0  0  0  0  0
   -6.4418   -2.6372   -0.9599 N   0  0  0  0  0  0  0  0  0  0  0  0
   -7.1968   -3.3352   -0.2424 N   0  0  0  0  0  0  0  0  0  0  0  0
   -4.4725   -1.7718   -1.8817 C   0  0  0  0  0  0  0  0  0  0  0  0
   -3.1015   -1.5649   -1.9804 C   0  0  0  0  0  0  0  0  0  0  0  0
   -2.2418   -2.1627   -1.0557 C   0  0  0  0  0  0  0  0  0  0  0  0
   -2.7693   -2.9638   -0.0419 C   0  0  0  0  0  0  0  0  0  0  0  0
   -4.1434   -3.1839    0.0624 C   0  0  0  0  0  0  0  0  0  0  0  0
   -5.1627   -1.3125   -2.5814 H   0  0  0  0  0  0  0  0  0  0  0  0
   -2.7037   -0.9367   -2.7723 H   0  0  0  0  0  0  0  0  0  0  0  0
   -1.1693   -2.0023   -1.1219 H   0  0  0  0  0  0  0  0  0  0  0  0
   -2.1059   -3.4284    0.6821 H   0  0  0  0  0  0  0  0  0  0  0  0
   -4.5168   -3.8070    0.8603 H   0  0  0  0  0  0  0  0  0  0  0  0
   -9.7712   -5.4284   -0.2988 C   0  0  0  0  0  0  0  0  0  0  0  0
  -10.3938   -6.2337   -1.2478 C   0  0  0  0  0  0  0  0  0  0  0  0
   -9.9321   -7.5313   -1.5176 C   0  0  0  0  0  0  0  0  0  0  0  0
   -8.8179   -8.0102   -0.8120 C   0  0  0  0  0  0  0  0  0  0  0  0
   -8.1759   -7.2237    0.1403 C   0  0  0  0  0  0  0  0  0  0  0  0
   -8.6662   -5.9390    0.3871 C   0  0  0  0  0  0  0  0  0  0  0  0
  -10.1275   -4.4276   -0.0880 H   0  0  0  0  0  0  0  0  0  0  0  0
  -11.2533   -5.8481   -1.7886 H   0  0  0  0  0  0  0  0  0  0  0  0
   -8.4490   -9.0121   -1.0106 H   0  0  0  0  0  0  0  0  0  0  0  0
   -7.3184   -7.5948    0.6906 H   0  0  0  0  0  0  0  0  0  0  0  0
   -7.8531   -4.9313    1.5977 S   0  0  0  0  0  0  0  0  0  0  0  0
   -8.7688   -3.9325    2.1235 O   0  0  0  0  0  0  0  0  0  0  0  0
   -6.6659   -4.0660    0.6222 O   0  0  0  0  0  0  0  0  0  0  0  0
   -6.9758   -5.7340    2.4337 O   0  0  0  0  0  0  0  0  0  0  0  0
  -10.6383   -8.4033   -2.5259 C   0  0  0  0  0  0  0  0  0  0  0  0
  -11.4611   -8.9538   -2.0532 H   0  0  0  0  0  0  0  0  0  0  0  0
  -11.0684   -7.8092   -3.3368 H   0  0  0  0  0  0  0  0  0  0  0  0
   -9.9604   -9.1415   -2.9634 H   0  0  0  0  0  0  0  0  0  0  0  0
  1  8  2  0  0  0  0
  2  1  1  0  0  0  0
  2  3  2  0  0  0  0
  3 26  1  0  0  0  0
  4  1  1  0  0  0  0
  5  4  2  0  0  0  0
  5  6  1  0  0  0  0
  6  7  2  0  0  0  0
  7  8  1  0  0  0  0
  7 12  1  0  0  0  0
  8 13  1  0  0  0  0
  9  4  1  0  0  0  0
 10  5  1  0  0  0  0
 11  6  1  0  0  0  0
 14 20  1  0  0  0  0
 14 19  2  0  0  0  0
 15 14  1  0  0  0  0
 16 15  2  0  0  0  0
 16 17  1  0  0  0  0
 17 18  2  0  0  0  0
 18 19  1  0  0  0  0
 18 23  1  0  0  0  0
 19 24  1  0  0  0  0
 21 15  1  0  0  0  0
 22 17  1  0  0  0  0
 24 25  2  0  0  0  0
 24 27  2  0  0  0  0
 26 24  1  0  0  0  0
 28 29  1  0  0  0  0
 28 16  1  0  0  0  0
 30 28  1  0  0  0  0
 31 28  1  0  0  0  0
M  END
