Coordinates from ORCA-job PhN2+~TsO-_B3LYPG-6-31G_dp-NX-Scan-d89-09-n800
 OpenBabel11261920463D

 31 32  0  0  1  0  0  0  0  0999 V2000
   -5.3518   -1.3498   -0.7291 C   0  0  2  0  0  0  0  0  0  0  0  0
   -6.4868   -0.7149   -0.8734 N   0  0  0  0  0  0  0  0  0  0  0  0
   -7.5118   -0.2322   -0.9949 N   0  0  0  0  0  0  0  0  0  0  0  0
   -4.7971   -2.0557   -1.8773 C   0  0  0  0  0  0  0  0  0  0  0  0
   -4.1949   -3.2354   -1.6467 C   0  0  0  0  0  0  0  0  0  0  0  0
   -4.3682   -3.8401   -0.2884 C   0  0  1  0  0  0  0  0  0  0  0  0
   -4.2644   -2.8255    0.8100 C   0  0  0  0  0  0  0  0  0  0  0  0
   -4.8682   -1.6403    0.6153 C   0  0  0  0  0  0  0  0  0  0  0  0
   -4.8730   -1.6108   -2.8650 H   0  0  0  0  0  0  0  0  0  0  0  0
   -3.7009   -3.7980   -2.4309 H   0  0  0  0  0  0  0  0  0  0  0  0
   -3.7519   -4.7230   -0.1230 H   0  0  0  0  0  0  0  0  0  0  0  0
   -3.8219   -3.1012    1.7606 H   0  0  0  0  0  0  0  0  0  0  0  0
   -5.0011   -0.9042    1.4023 H   0  0  0  0  0  0  0  0  0  0  0  0
   -8.8714   -5.6628   -0.0445 C   0  0  0  0  0  0  0  0  0  0  0  0
   -9.9017   -6.2773   -0.7495 C   0  0  0  0  0  0  0  0  0  0  0  0
   -9.6701   -7.4299   -1.5174 C   0  0  0  0  0  0  0  0  0  0  0  0
   -8.3721   -7.9557   -1.5602 C   0  0  0  0  0  0  0  0  0  0  0  0
   -7.3254   -7.3517   -0.8646 C   0  0  0  0  0  0  0  0  0  0  0  0
   -7.5863   -6.2055   -0.1153 C   0  0  0  0  0  0  0  0  0  0  0  0
   -9.0541   -4.7834    0.5631 H   0  0  0  0  0  0  0  0  0  0  0  0
  -10.9043   -5.8603   -0.6991 H   0  0  0  0  0  0  0  0  0  0  0  0
   -8.1785   -8.8536   -2.1404 H   0  0  0  0  0  0  0  0  0  0  0  0
   -6.3234   -7.7663   -0.8860 H   0  0  0  0  0  0  0  0  0  0  0  0
   -6.2579   -5.4287    0.7881 S   0  0  0  0  0  0  0  0  0  0  0  0
   -6.8172   -4.7487    1.9565 O   0  0  0  0  0  0  0  0  0  0  0  0
   -5.8160   -4.3195   -0.3320 O   0  0  0  0  0  0  0  0  0  0  0  0
   -5.1555   -6.3824    0.9564 O   0  0  0  0  0  0  0  0  0  0  0  0
  -10.8025   -8.0868   -2.2693 C   0  0  0  0  0  0  0  0  0  0  0  0
  -11.5939   -8.4132   -1.5852 H   0  0  0  0  0  0  0  0  0  0  0  0
  -11.2605   -7.3915   -2.9819 H   0  0  0  0  0  0  0  0  0  0  0  0
  -10.4592   -8.9620   -2.8267 H   0  0  0  0  0  0  0  0  0  0  0  0
  1  2  1  1  0  0  0
  1  8  1  0  0  0  0
  3  2  1  0  0  0  0
  4  5  2  0  0  0  0
  4  1  1  0  0  0  0
  5  6  1  0  0  0  0
  6 11  1  1  0  0  0
  6  7  1  0  0  0  0
  7 12  1  0  0  0  0
  8  7  2  0  0  0  0
  8 13  1  0  0  0  0
  9  4  1  0  0  0  0
 10  5  1  0  0  0  0
 14 20  1  0  0  0  0
 15 21  1  0  0  0  0
 15 14  2  0  0  0  0
 16 15  1  0  0  0  0
 17 16  2  0  0  0  0
 17 18  1  0  0  0  0
 18 19  2  0  0  0  0
 19 14  1  0  0  0  0
 19 24  1  0  0  0  0
 22 17  1  0  0  0  0
 23 18  1  0  0  0  0
 24 27  2  0  0  0  0
 24 25  2  0  0  0  0
 26  6  1  0  0  0  0
 26 24  1  0  0  0  0
 28 29  1  0  0  0  0
 28 16  1  0  0  0  0
 30 28  1  0  0  0  0
 31 28  1  0  0  0  0
M  RAD  3   1   2   2   2   3   3
M  END
