Coordinates from ORCA-job PhN2+~TsO-_B3LYPG-6-31G_dp-NX-Scan-d89-09-n800
 OpenBabel11261920463D

 31 32  0  0  0  0  0  0  0  0999 V2000
   -4.7736   -2.4404   -1.0263 C   0  0  0  0  0  0  0  0  0  0  0  0
   -6.1487   -2.6615   -1.2274 N   0  0  0  0  0  0  0  0  0  0  0  0
   -7.0323   -3.3308   -0.8456 N   0  0  0  0  0  0  0  0  0  0  0  0
   -4.2206   -1.4196   -1.8144 C   0  0  0  0  0  0  0  0  0  0  0  0
   -2.8713   -1.1112   -1.6822 C   0  0  0  0  0  0  0  0  0  0  0  0
   -2.0854   -1.8187   -0.7681 C   0  0  0  0  0  0  0  0  0  0  0  0
   -2.6458   -2.8349    0.0121 C   0  0  0  0  0  0  0  0  0  0  0  0
   -3.9939   -3.1629   -0.1046 C   0  0  0  0  0  0  0  0  0  0  0  0
   -4.8594   -0.8870   -2.5104 H   0  0  0  0  0  0  0  0  0  0  0  0
   -2.4345   -0.3218   -2.2852 H   0  0  0  0  0  0  0  0  0  0  0  0
   -1.0322   -1.5765   -0.6615 H   0  0  0  0  0  0  0  0  0  0  0  0
   -2.0291   -3.3789    0.7205 H   0  0  0  0  0  0  0  0  0  0  0  0
   -4.4494   -3.9424    0.4904 H   0  0  0  0  0  0  0  0  0  0  0  0
   -9.7892   -5.5293   -0.4058 C   0  0  0  0  0  0  0  0  0  0  0  0
  -10.5391   -6.3659   -1.2313 C   0  0  0  0  0  0  0  0  0  0  0  0
  -10.1889   -7.7111   -1.4117 C   0  0  0  0  0  0  0  0  0  0  0  0
   -9.0593   -8.2027   -0.7406 C   0  0  0  0  0  0  0  0  0  0  0  0
   -8.2990   -7.3810    0.0880 C   0  0  0  0  0  0  0  0  0  0  0  0
   -8.6688   -6.0441    0.2463 C   0  0  0  0  0  0  0  0  0  0  0  0
  -10.0679   -4.4928   -0.2539 H   0  0  0  0  0  0  0  0  0  0  0  0
  -11.4144   -5.9687   -1.7388 H   0  0  0  0  0  0  0  0  0  0  0  0
   -8.7749   -9.2442   -0.8663 H   0  0  0  0  0  0  0  0  0  0  0  0
   -7.4356   -7.7673    0.6188 H   0  0  0  0  0  0  0  0  0  0  0  0
   -7.6862   -4.9778    1.2961 S   0  0  0  0  0  0  0  0  0  0  0  0
   -8.5062   -3.8182    1.6536 O   0  0  0  0  0  0  0  0  0  0  0  0
   -6.4798   -4.5161    0.3488 O   0  0  0  0  0  0  0  0  0  0  0  0
   -7.0696   -5.8049    2.3359 O   0  0  0  0  0  0  0  0  0  0  0  0
  -11.0277   -8.6190   -2.2792 C   0  0  0  0  0  0  0  0  0  0  0  0
  -11.8117   -9.1105   -1.6898 H   0  0  0  0  0  0  0  0  0  0  0  0
  -11.5237   -8.0623   -3.0796 H   0  0  0  0  0  0  0  0  0  0  0  0
  -10.4232   -9.4079   -2.7364 H   0  0  0  0  0  0  0  0  0  0  0  0
  1  8  2  0  0  0  0
  2  1  1  0  0  0  0
  2  3  1  0  0  0  0
  3 26  1  0  0  0  0
  4  5  2  0  0  0  0
  4  1  1  0  0  0  0
  5  6  1  0  0  0  0
  6 11  1  0  0  0  0
  6  7  2  0  0  0  0
  7 12  1  0  0  0  0
  8  7  1  0  0  0  0
  8 13  1  0  0  0  0
  9  4  1  0  0  0  0
 10  5  1  0  0  0  0
 14 20  1  0  0  0  0
 14 19  2  0  0  0  0
 15 14  1  0  0  0  0
 16 15  2  0  0  0  0
 16 17  1  0  0  0  0
 17 18  2  0  0  0  0
 18 19  1  0  0  0  0
 18 23  1  0  0  0  0
 19 24  1  0  0  0  0
 21 15  1  0  0  0  0
 22 17  1  0  0  0  0
 24 25  2  0  0  0  0
 24 27  2  0  0  0  0
 26 24  1  0  0  0  0
 28 29  1  0  0  0  0
 28 16  1  0  0  0  0
 30 28  1  0  0  0  0
 31 28  1  0  0  0  0
M  RAD  2   2   2   3   2
M  END
