Coordinates from ORCA-job PhN2+~TsO-_B3LYPG-6-31G_dp-NX-Scan-d89-09-n800
 OpenBabel11261920463D

 31 31  0  0  0  0  0  0  0  0999 V2000
   -4.1912   -0.4450   -0.4791 C   0  0  0  0  0  0  0  0  0  0  0  0
   -4.0308    0.8919   -0.3749 N   0  0  0  0  0  0  0  0  0  0  0  0
   -3.8864    2.0061   -0.2787 N   0  0  0  0  0  0  0  0  0  0  0  0
   -3.6970   -1.0967   -1.6417 C   0  0  0  0  0  0  0  0  0  0  0  0
   -3.8137   -2.4683   -1.7034 C   0  0  0  0  0  0  0  0  0  0  0  0
   -4.4064   -3.1928   -0.6470 C   0  0  0  0  0  0  0  0  0  0  0  0
   -4.9247   -2.5179    0.4835 C   0  0  0  0  0  0  0  0  0  0  0  0
   -4.8230   -1.1496    0.5864 C   0  0  0  0  0  0  0  0  0  0  0  0
   -3.2315   -0.5193   -2.4330 H   0  0  0  0  0  0  0  0  0  0  0  0
   -3.4369   -2.9984   -2.5713 H   0  0  0  0  0  0  0  0  0  0  0  0
   -4.4114   -4.2793   -0.6582 H   0  0  0  0  0  0  0  0  0  0  0  0
   -5.4410   -3.1009    1.2426 H   0  0  0  0  0  0  0  0  0  0  0  0
   -5.2049   -0.6073    1.4443 H   0  0  0  0  0  0  0  0  0  0  0  0
   -9.3339   -6.2287   -0.1163 C   0  0  0  0  0  0  0  0  0  0  0  0
  -10.3462   -7.1262   -0.4455 C   0  0  0  0  0  0  0  0  0  0  0  0
  -10.0665   -8.3102   -1.1455 C   0  0  0  0  0  0  0  0  0  0  0  0
   -8.7382   -8.5704   -1.5066 C   0  0  0  0  0  0  0  0  0  0  0  0
   -7.7151   -7.6783   -1.1847 C   0  0  0  0  0  0  0  0  0  0  0  0
   -8.0166   -6.5077   -0.4891 C   0  0  0  0  0  0  0  0  0  0  0  0
   -9.5487   -5.3222    0.4392 H   0  0  0  0  0  0  0  0  0  0  0  0
  -11.3707   -6.9097   -0.1511 H   0  0  0  0  0  0  0  0  0  0  0  0
   -8.5010   -9.4861   -2.0429 H   0  0  0  0  0  0  0  0  0  0  0  0
   -6.6842   -7.8838   -1.4515 H   0  0  0  0  0  0  0  0  0  0  0  0
   -6.7114   -5.3299   -0.1142 S   0  0  0  0  0  0  0  0  0  0  0  0
   -7.0750   -4.7061    1.1885 O   0  0  0  0  0  0  0  0  0  0  0  0
   -6.7412   -4.3408   -1.2560 O   0  0  0  0  0  0  0  0  0  0  0  0
   -5.4361   -6.1004   -0.0978 O   0  0  0  0  0  0  0  0  0  0  0  0
  -11.1696   -9.2888   -1.4747 C   0  0  0  0  0  0  0  0  0  0  0  0
  -11.4751   -9.8575   -0.5875 H   0  0  0  0  0  0  0  0  0  0  0  0
  -12.0619   -8.7759   -1.8491 H   0  0  0  0  0  0  0  0  0  0  0  0
  -10.8514  -10.0102   -2.2331 H   0  0  0  0  0  0  0  0  0  0  0  0
  1  2  1  0  0  0  0
  1  8  2  0  0  0  0
  2  3  1  0  0  0  0
  4  1  1  0  0  0  0
  5  4  2  0  0  0  0
  5  6  1  0  0  0  0
  6  7  2  0  0  0  0
  7  8  1  0  0  0  0
  7 12  1  0  0  0  0
  8 13  1  0  0  0  0
  9  4  1  0  0  0  0
 10  5  1  0  0  0  0
 11  6  1  0  0  0  0
 14 20  1  0  0  0  0
 15 21  1  0  0  0  0
 15 14  1  0  0  0  0
 16 15  2  0  0  0  0
 17 18  2  0  0  0  0
 17 16  1  0  0  0  0
 18 19  1  0  0  0  0
 19 14  2  0  0  0  0
 19 24  1  0  0  0  0
 22 17  1  0  0  0  0
 23 18  1  0  0  0  0
 24 27  2  0  0  0  0
 24 25  1  0  0  0  0
 26 24  2  0  0  0  0
 28 16  1  0  0  0  0
 28 29  1  0  0  0  0
 30 28  1  0  0  0  0
 31 28  1  0  0  0  0
M  RAD  3   2   2   3   3  25   2
M  END
