Coordinates from ORCA-job PhN2+~TsO-_B3LYPG-6-31G_dp-NX-Scan-d89-09-n800
 OpenBabel11261920463D

 31 32  0  0  1  0  0  0  0  0999 V2000
   -5.4911   -1.4150   -0.6412 C   0  0  2  0  0  0  0  0  0  0  0  0
   -6.8022   -1.4503   -0.6385 N   0  0  0  0  0  0  0  0  0  0  0  0
   -7.9322   -1.5890   -0.6286 N   0  0  0  0  0  0  0  0  0  0  0  0
   -4.8576   -1.9743   -1.8550 C   0  0  0  0  0  0  0  0  0  0  0  0
   -4.1695   -3.1149   -1.6982 C   0  0  0  0  0  0  0  0  0  0  0  0
   -4.3168   -3.7999   -0.3674 C   0  0  1  0  0  0  0  0  0  0  0  0
   -4.1634   -2.8250    0.7706 C   0  0  0  0  0  0  0  0  0  0  0  0
   -4.8513   -1.6787    0.6659 C   0  0  0  0  0  0  0  0  0  0  0  0
   -4.9663   -1.4655   -2.8085 H   0  0  0  0  0  0  0  0  0  0  0  0
   -3.6024   -3.5822   -2.4964 H   0  0  0  0  0  0  0  0  0  0  0  0
   -3.7021   -4.6928   -0.2614 H   0  0  0  0  0  0  0  0  0  0  0  0
   -3.5954   -3.0995    1.6534 H   0  0  0  0  0  0  0  0  0  0  0  0
   -4.9631   -0.9681    1.4795 H   0  0  0  0  0  0  0  0  0  0  0  0
   -8.7590   -5.4266   -0.3141 C   0  0  0  0  0  0  0  0  0  0  0  0
   -9.7967   -6.0431   -1.0060 C   0  0  0  0  0  0  0  0  0  0  0  0
   -9.6542   -7.3383   -1.5298 C   0  0  0  0  0  0  0  0  0  0  0  0
   -8.4345   -8.0025   -1.3484 C   0  0  0  0  0  0  0  0  0  0  0  0
   -7.3788   -7.3993   -0.6645 C   0  0  0  0  0  0  0  0  0  0  0  0
   -7.5534   -6.1145   -0.1543 C   0  0  0  0  0  0  0  0  0  0  0  0
   -8.8767   -4.4276    0.0909 H   0  0  0  0  0  0  0  0  0  0  0  0
  -10.7354   -5.5116   -1.1403 H   0  0  0  0  0  0  0  0  0  0  0  0
   -8.3071   -9.0056   -1.7456 H   0  0  0  0  0  0  0  0  0  0  0  0
   -6.4348   -7.9131   -0.5193 H   0  0  0  0  0  0  0  0  0  0  0  0
   -6.2171   -5.3464    0.7429 S   0  0  0  0  0  0  0  0  0  0  0  0
   -6.7624   -4.6351    1.8981 O   0  0  0  0  0  0  0  0  0  0  0  0
   -5.7653   -4.2548   -0.3978 O   0  0  0  0  0  0  0  0  0  0  0  0
   -5.1258   -6.3095    0.9238 O   0  0  0  0  0  0  0  0  0  0  0  0
  -10.8019   -8.0021   -2.2516 C   0  0  0  0  0  0  0  0  0  0  0  0
  -11.5697   -8.3352   -1.5428 H   0  0  0  0  0  0  0  0  0  0  0  0
  -11.2862   -7.3118   -2.9499 H   0  0  0  0  0  0  0  0  0  0  0  0
  -10.4695   -8.8783   -2.8141 H   0  0  0  0  0  0  0  0  0  0  0  0
  1  2  1  1  0  0  0
  1  8  1  0  0  0  0
  2  3  1  0  0  0  0
  4  5  2  0  0  0  0
  4  1  1  0  0  0  0
  5  6  1  0  0  0  0
  6 11  1  1  0  0  0
  6  7  1  0  0  0  0
  7 12  1  0  0  0  0
  8  7  2  0  0  0  0
  8 13  1  0  0  0  0
  9  4  1  0  0  0  0
 10  5  1  0  0  0  0
 14 19  1  0  0  0  0
 14 20  1  0  0  0  0
 15 14  2  0  0  0  0
 16 17  2  0  0  0  0
 16 15  1  0  0  0  0
 17 18  1  0  0  0  0
 18 23  1  0  0  0  0
 18 19  2  0  0  0  0
 19 24  1  0  0  0  0
 21 15  1  0  0  0  0
 22 17  1  0  0  0  0
 24 27  2  0  0  0  0
 24 25  2  0  0  0  0
 26  6  1  0  0  0  0
 26 24  1  0  0  0  0
 28 29  1  0  0  0  0
 28 16  1  0  0  0  0
 30 28  1  0  0  0  0
 31 28  1  0  0  0  0
M  RAD  3   1   2   2   2   3   3
M  END
