Coordinates from ORCA-job PhN2+~TsO-_B3LYPG-6-31G_dp-NX-Scan-d89-09-n800
 OpenBabel11261920463D

 31 31  0  0  0  0  0  0  0  0999 V2000
   -3.6603   -0.6140    0.1576 C   0  0  0  0  0  0  0  0  0  0  0  0
   -3.2988    0.5249    0.7996 N   0  0  0  0  0  0  0  0  0  0  0  0
   -3.0197    1.4669    1.3464 N   0  0  0  0  0  0  0  0  0  0  0  0
   -2.7231   -1.2229   -0.7148 C   0  0  0  0  0  0  0  0  0  0  0  0
   -3.1234   -2.3774   -1.3605 C   0  0  0  0  0  0  0  0  0  0  0  0
   -4.4125   -2.9024   -1.1570 C   0  0  0  0  0  0  0  0  0  0  0  0
   -5.3224   -2.2846   -0.2759 C   0  0  0  0  0  0  0  0  0  0  0  0
   -4.9607   -1.1331    0.3950 C   0  0  0  0  0  0  0  0  0  0  0  0
   -1.7426   -0.7835   -0.8597 H   0  0  0  0  0  0  0  0  0  0  0  0
   -2.4363   -2.8724   -2.0391 H   0  0  0  0  0  0  0  0  0  0  0  0
   -4.7692   -3.8010   -1.6658 H   0  0  0  0  0  0  0  0  0  0  0  0
   -6.3157   -2.7371   -0.1507 H   0  0  0  0  0  0  0  0  0  0  0  0
   -5.6329   -0.6284    1.0808 H   0  0  0  0  0  0  0  0  0  0  0  0
   -9.7292   -6.1919   -0.4701 C   0  0  0  0  0  0  0  0  0  0  0  0
  -10.4425   -7.3650   -0.2300 C   0  0  0  0  0  0  0  0  0  0  0  0
   -9.9752   -8.6044   -0.6895 C   0  0  0  0  0  0  0  0  0  0  0  0
   -8.7686   -8.6351   -1.4014 C   0  0  0  0  0  0  0  0  0  0  0  0
   -8.0463   -7.4677   -1.6480 C   0  0  0  0  0  0  0  0  0  0  0  0
   -8.5285   -6.2449   -1.1806 C   0  0  0  0  0  0  0  0  0  0  0  0
  -10.0870   -5.2366   -0.1011 H   0  0  0  0  0  0  0  0  0  0  0  0
  -11.3781   -7.3189    0.3228 H   0  0  0  0  0  0  0  0  0  0  0  0
   -8.3887   -9.5865   -1.7670 H   0  0  0  0  0  0  0  0  0  0  0  0
   -7.1056   -7.4936   -2.1868 H   0  0  0  0  0  0  0  0  0  0  0  0
   -7.6447   -4.7218   -1.5581 S   0  0  0  0  0  0  0  0  0  0  0  0
   -7.8512   -3.8554   -0.3503 O   0  0  0  0  0  0  0  0  0  0  0  0
   -8.2326   -4.1633   -2.7961 O   0  0  0  0  0  0  0  0  0  0  0  0
   -6.2110   -5.1412   -1.7159 O   0  0  0  0  0  0  0  0  0  0  0  0
  -10.7351   -9.8767   -0.3954 C   0  0  0  0  0  0  0  0  0  0  0  0
  -10.4269  -10.3114    0.5645 H   0  0  0  0  0  0  0  0  0  0  0  0
  -11.8132   -9.6959   -0.3363 H   0  0  0  0  0  0  0  0  0  0  0  0
  -10.5596  -10.6352   -1.1650 H   0  0  0  0  0  0  0  0  0  0  0  0
  1  8  1  0  0  0  0
  1  2  1  0  0  0  0
  2  3  1  0  0  0  0
  4  1  2  0  0  0  0
  5  6  2  0  0  0  0
  5  4  1  0  0  0  0
  6  7  1  0  0  0  0
  7 12  1  0  0  0  0
  7  8  2  0  0  0  0
  8 13  1  0  0  0  0
  9  4  1  0  0  0  0
 10  5  1  0  0  0  0
 11  6  1  0  0  0  0
 14 15  1  0  0  0  0
 14 20  1  0  0  0  0
 15 21  1  0  0  0  0
 16 28  1  0  0  0  0
 16 15  2  0  0  0  0
 17 16  1  0  0  0  0
 18 17  2  0  0  0  0
 18 19  1  0  0  0  0
 19 14  2  0  0  0  0
 22 17  1  0  0  0  0
 23 18  1  0  0  0  0
 24 19  1  0  0  0  0
 24 25  1  0  0  0  0
 26 24  2  0  0  0  0
 27 24  2  0  0  0  0
 28 30  1  0  0  0  0
 28 29  1  0  0  0  0
 31 28  1  0  0  0  0
M  RAD  3   2   2   3   3  25   2
M  END
