Coordinates from ORCA-job PhN2+~TsO-_B3LYPG-6-31G_dp-NX-Scan-d89-09-n800
 OpenBabel11261920463D

 31 31  0  0  0  0  0  0  0  0999 V2000
   -3.8172   -0.4153   -0.1972 C   0  0  0  0  0  0  0  0  0  0  0  0
   -3.6259    0.8983    0.0811 N   0  0  0  0  0  0  0  0  0  0  0  0
   -3.4883    1.9871    0.3239 N   0  0  0  0  0  0  0  0  0  0  0  0
   -2.8913   -1.0656   -1.0513 C   0  0  0  0  0  0  0  0  0  0  0  0
   -3.1273   -2.3973   -1.3359 C   0  0  0  0  0  0  0  0  0  0  0  0
   -4.2461   -3.0591   -0.7979 C   0  0  0  0  0  0  0  0  0  0  0  0
   -5.1457   -2.3923    0.0583 C   0  0  0  0  0  0  0  0  0  0  0  0
   -4.9459   -1.0624    0.3711 C   0  0  0  0  0  0  0  0  0  0  0  0
   -2.0455   -0.5230   -1.4584 H   0  0  0  0  0  0  0  0  0  0  0  0
   -2.4465   -2.9296   -1.9922 H   0  0  0  0  0  0  0  0  0  0  0  0
   -4.4828   -4.0970   -1.0459 H   0  0  0  0  0  0  0  0  0  0  0  0
   -6.0179   -2.9414    0.4324 H   0  0  0  0  0  0  0  0  0  0  0  0
   -5.6238   -0.5126    1.0152 H   0  0  0  0  0  0  0  0  0  0  0  0
   -9.5704   -6.3066   -0.1809 C   0  0  0  0  0  0  0  0  0  0  0  0
  -10.4362   -7.3982   -0.2037 C   0  0  0  0  0  0  0  0  0  0  0  0
  -10.1093   -8.5684   -0.9044 C   0  0  0  0  0  0  0  0  0  0  0  0
   -8.8856   -8.6133   -1.5847 C   0  0  0  0  0  0  0  0  0  0  0  0
   -8.0108   -7.5262   -1.5696 C   0  0  0  0  0  0  0  0  0  0  0  0
   -8.3554   -6.3725   -0.8664 C   0  0  0  0  0  0  0  0  0  0  0  0
   -9.8187   -5.4084    0.3745 H   0  0  0  0  0  0  0  0  0  0  0  0
  -11.3812   -7.3435    0.3321 H   0  0  0  0  0  0  0  0  0  0  0  0
   -8.6116   -9.5131   -2.1314 H   0  0  0  0  0  0  0  0  0  0  0  0
   -7.0570   -7.5667   -2.0838 H   0  0  0  0  0  0  0  0  0  0  0  0
   -7.2685   -4.9383   -0.8986 S   0  0  0  0  0  0  0  0  0  0  0  0
   -7.4370   -4.2993    0.4482 O   0  0  0  0  0  0  0  0  0  0  0  0
   -7.7039   -4.0656   -2.0165 O   0  0  0  0  0  0  0  0  0  0  0  0
   -5.8913   -5.5017   -1.0957 O   0  0  0  0  0  0  0  0  0  0  0  0
  -11.0410   -9.7580   -0.8980 C   0  0  0  0  0  0  0  0  0  0  0  0
  -10.9385  -10.3402    0.0273 H   0  0  0  0  0  0  0  0  0  0  0  0
  -12.0889   -9.4472   -0.9671 H   0  0  0  0  0  0  0  0  0  0  0  0
  -10.8323  -10.4334   -1.7332 H   0  0  0  0  0  0  0  0  0  0  0  0
  1  2  1  0  0  0  0
  1  8  2  0  0  0  0
  2  3  1  0  0  0  0
  4  1  1  0  0  0  0
  5  4  2  0  0  0  0
  5  6  1  0  0  0  0
  6  7  2  0  0  0  0
  7  8  1  0  0  0  0
  7 12  1  0  0  0  0
  8 13  1  0  0  0  0
  9  4  1  0  0  0  0
 10  5  1  0  0  0  0
 11  6  1  0  0  0  0
 14 20  1  0  0  0  0
 15 14  1  0  0  0  0
 15 21  1  0  0  0  0
 16 28  1  0  0  0  0
 16 15  2  0  0  0  0
 17 18  2  0  0  0  0
 17 16  1  0  0  0  0
 18 19  1  0  0  0  0
 19 14  2  0  0  0  0
 22 17  1  0  0  0  0
 23 18  1  0  0  0  0
 24 19  1  0  0  0  0
 24 25  1  0  0  0  0
 26 24  2  0  0  0  0
 27 24  2  0  0  0  0
 28 29  1  0  0  0  0
 30 28  1  0  0  0  0
 31 28  1  0  0  0  0
M  RAD  3   2   2   3   3  25   2
M  END
