Coordinates from ORCA-job PhN2+~TsO-_B3LYPG-6-31G_dp-NX-Scan-d89-09-n800
 OpenBabel11261920463D

 31 32  0  0  1  0  0  0  0  0999 V2000
   -5.3512   -1.3479   -0.7598 C   0  0  2  0  0  0  0  0  0  0  0  0
   -6.6092   -1.7460   -0.5905 N   0  0  0  0  0  0  0  0  0  0  0  0
   -7.5114   -2.4074   -0.4052 N   0  0  0  0  0  0  0  0  0  0  0  0
   -4.7890   -2.0649   -1.9507 C   0  0  0  0  0  0  0  0  0  0  0  0
   -4.2628   -3.2728   -1.7027 C   0  0  0  0  0  0  0  0  0  0  0  0
   -4.4315   -3.7983   -0.3021 C   0  0  1  0  0  0  0  0  0  0  0  0
   -4.0648   -2.7472    0.7140 C   0  0  0  0  0  0  0  0  0  0  0  0
   -4.5998   -1.5316    0.5247 C   0  0  0  0  0  0  0  0  0  0  0  0
   -4.8496   -1.6268   -2.9430 H   0  0  0  0  0  0  0  0  0  0  0  0
   -3.7726   -3.8804   -2.4576 H   0  0  0  0  0  0  0  0  0  0  0  0
   -3.9549   -4.7611   -0.1302 H   0  0  0  0  0  0  0  0  0  0  0  0
   -3.4486   -3.0077    1.5696 H   0  0  0  0  0  0  0  0  0  0  0  0
   -4.5368   -0.7264    1.2509 H   0  0  0  0  0  0  0  0  0  0  0  0
   -8.9882   -5.4752   -0.1185 C   0  0  0  0  0  0  0  0  0  0  0  0
   -9.9551   -6.1345   -0.8738 C   0  0  0  0  0  0  0  0  0  0  0  0
   -9.6523   -7.3088   -1.5788 C   0  0  0  0  0  0  0  0  0  0  0  0
   -8.3447   -7.8107   -1.5115 C   0  0  0  0  0  0  0  0  0  0  0  0
   -7.3618   -7.1642   -0.7655 C   0  0  0  0  0  0  0  0  0  0  0  0
   -7.6939   -5.9962   -0.0778 C   0  0  0  0  0  0  0  0  0  0  0  0
   -9.2275   -4.5730    0.4317 H   0  0  0  0  0  0  0  0  0  0  0  0
  -10.9637   -5.7317   -0.9139 H   0  0  0  0  0  0  0  0  0  0  0  0
   -8.0934   -8.7233   -2.0452 H   0  0  0  0  0  0  0  0  0  0  0  0
   -6.3545   -7.5609   -0.7015 H   0  0  0  0  0  0  0  0  0  0  0  0
   -6.4410   -5.1728    0.8911 S   0  0  0  0  0  0  0  0  0  0  0  0
   -7.0790   -4.5036    2.0218 O   0  0  0  0  0  0  0  0  0  0  0  0
   -5.9612   -4.0106   -0.1777 O   0  0  0  0  0  0  0  0  0  0  0  0
   -5.3264   -6.1010    1.1111 O   0  0  0  0  0  0  0  0  0  0  0  0
  -10.7175   -8.0349   -2.3641 C   0  0  0  0  0  0  0  0  0  0  0  0
  -11.2264   -8.7779   -1.7376 H   0  0  0  0  0  0  0  0  0  0  0  0
  -11.4807   -7.3456   -2.7364 H   0  0  0  0  0  0  0  0  0  0  0  0
  -10.2920   -8.5674   -3.2193 H   0  0  0  0  0  0  0  0  0  0  0  0
  1  2  1  1  0  0  0
  1  8  1  0  0  0  0
  2  3  1  0  0  0  0
  4  5  2  0  0  0  0
  4  1  1  0  0  0  0
  5  6  1  0  0  0  0
  6 26  1  0  0  0  0
  6 11  1  1  0  0  0
  6  7  1  0  0  0  0
  7 12  1  0  0  0  0
  8  7  2  0  0  0  0
  8 13  1  0  0  0  0
  9  4  1  0  0  0  0
 10  5  1  0  0  0  0
 14 19  1  0  0  0  0
 14 20  1  0  0  0  0
 15 14  2  0  0  0  0
 16 17  2  0  0  0  0
 16 15  1  0  0  0  0
 17 18  1  0  0  0  0
 18 23  1  0  0  0  0
 18 19  2  0  0  0  0
 19 24  1  0  0  0  0
 21 15  1  0  0  0  0
 22 17  1  0  0  0  0
 24 27  2  0  0  0  0
 24 25  2  0  0  0  0
 26 24  1  0  0  0  0
 28 29  1  0  0  0  0
 28 16  1  0  0  0  0
 30 28  1  0  0  0  0
 31 28  1  0  0  0  0
M  RAD  3   1   2   2   2   3   3
M  END
