Coordinates from ORCA-job PhN2+~TsO-_B3LYPG-6-31G_dp-NX-Scan-d89-09-n800
 OpenBabel11261920463D

 31 32  0  0  1  0  0  0  0  0999 V2000
   -5.1274   -1.0209   -0.9961 C   0  0  0  0  0  0  0  0  0  0  0  0
   -5.5139    0.1218   -1.5098 N   0  0  0  0  0  0  0  0  0  0  0  0
   -5.8659    1.1100   -1.9624 N   0  0  0  0  0  0  0  0  0  0  0  0
   -4.4258   -1.9791   -1.8246 C   0  0  0  0  0  0  0  0  0  0  0  0
   -4.1496   -3.2019   -1.3354 C   0  0  0  0  0  0  0  0  0  0  0  0
   -4.6587   -3.6511   -0.0064 C   0  0  1  0  0  0  0  0  0  0  0  0
   -5.1370   -2.5459    0.8772 C   0  0  0  0  0  0  0  0  0  0  0  0
   -5.4152   -1.3223    0.3919 C   0  0  0  0  0  0  0  0  0  0  0  0
   -4.1152   -1.6799   -2.8204 H   0  0  0  0  0  0  0  0  0  0  0  0
   -3.6082   -3.9282   -1.9324 H   0  0  0  0  0  0  0  0  0  0  0  0
   -3.9397   -4.3041    0.4965 H   0  0  0  0  0  0  0  0  0  0  0  0
   -5.3358   -2.7912    1.9146 H   0  0  0  0  0  0  0  0  0  0  0  0
   -5.8343   -0.5413    1.0187 H   0  0  0  0  0  0  0  0  0  0  0  0
   -8.7105   -6.1948    0.3257 C   0  0  0  0  0  0  0  0  0  0  0  0
   -9.8592   -6.7079   -0.2683 C   0  0  0  0  0  0  0  0  0  0  0  0
   -9.7823   -7.5682   -1.3755 C   0  0  0  0  0  0  0  0  0  0  0  0
   -8.5172   -7.9087   -1.8722 C   0  0  0  0  0  0  0  0  0  0  0  0
   -7.3543   -7.4048   -1.2915 C   0  0  0  0  0  0  0  0  0  0  0  0
   -7.4647   -6.5464   -0.1988 C   0  0  0  0  0  0  0  0  0  0  0  0
   -8.7682   -5.5430    1.1904 H   0  0  0  0  0  0  0  0  0  0  0  0
  -10.8323   -6.4416    0.1357 H   0  0  0  0  0  0  0  0  0  0  0  0
   -8.4401   -8.5802   -2.7230 H   0  0  0  0  0  0  0  0  0  0  0  0
   -6.3747   -7.6793   -1.6665 H   0  0  0  0  0  0  0  0  0  0  0  0
   -5.9855   -5.8966    0.5521 S   0  0  0  0  0  0  0  0  0  0  0  0
   -6.2537   -5.5451    1.9499 O   0  0  0  0  0  0  0  0  0  0  0  0
   -5.8617   -4.5239   -0.3280 O   0  0  0  0  0  0  0  0  0  0  0  0
   -4.8490   -6.7661    0.2349 O   0  0  0  0  0  0  0  0  0  0  0  0
  -11.0397   -8.1130   -2.0089 C   0  0  0  0  0  0  0  0  0  0  0  0
  -11.6546   -8.6452   -1.2742 H   0  0  0  0  0  0  0  0  0  0  0  0
  -11.6564   -7.3052   -2.4195 H   0  0  0  0  0  0  0  0  0  0  0  0
  -10.8108   -8.8066   -2.8221 H   0  0  0  0  0  0  0  0  0  0  0  0
  1  8  1  0  0  0  0
  2  1  1  0  0  0  0
  3  2  1  0  0  0  0
  4  5  1  0  0  0  0
  4  1  2  0  0  0  0
  5  6  1  0  0  0  0
  6 11  1  1  0  0  0
  6  7  1  0  0  0  0
  7 12  1  0  0  0  0
  8  7  2  0  0  0  0
  8 13  1  0  0  0  0
  9  4  1  0  0  0  0
 10  5  1  0  0  0  0
 14 20  1  0  0  0  0
 15 21  1  0  0  0  0
 15 14  2  0  0  0  0
 16 15  1  0  0  0  0
 17 16  2  0  0  0  0
 17 18  1  0  0  0  0
 18 19  2  0  0  0  0
 19 14  1  0  0  0  0
 19 24  1  0  0  0  0
 22 17  1  0  0  0  0
 23 18  1  0  0  0  0
 24 25  2  0  0  0  0
 26  6  1  0  0  0  0
 26 24  1  0  0  0  0
 27 24  2  0  0  0  0
 28 16  1  0  0  0  0
 28 29  1  0  0  0  0
 30 28  1  0  0  0  0
 31 28  1  0  0  0  0
M  RAD  3   2   2   3   3   5   2
M  END
