Coordinates from ORCA-job PhN2+~TsO-_B3LYPG-6-31G_dp-NX-Scan-d89-09-n800
 OpenBabel11261920463D

 31 32  0  0  1  0  0  0  0  0999 V2000
   -5.3531   -1.3112   -0.7928 C   0  0  2  0  0  0  0  0  0  0  0  0
   -6.3657   -0.5209   -1.0435 N   0  0  0  0  0  0  0  0  0  0  0  0
   -7.2870    0.1156   -1.2578 N   0  0  0  0  0  0  0  0  0  0  0  0
   -4.7661   -2.0756   -1.8805 C   0  0  0  0  0  0  0  0  0  0  0  0
   -4.1860   -3.2517   -1.5816 C   0  0  0  0  0  0  0  0  0  0  0  0
   -4.3929   -3.8119   -0.2109 C   0  0  1  0  0  0  0  0  0  0  0  0
   -4.3951   -2.7625    0.8566 C   0  0  0  0  0  0  0  0  0  0  0  0
   -4.9780   -1.5813    0.5858 C   0  0  0  0  0  0  0  0  0  0  0  0
   -4.7954   -1.6727   -2.8883 H   0  0  0  0  0  0  0  0  0  0  0  0
   -3.6828   -3.8500   -2.3328 H   0  0  0  0  0  0  0  0  0  0  0  0
   -3.7388   -4.6547    0.0116 H   0  0  0  0  0  0  0  0  0  0  0  0
   -4.0440   -3.0114    1.8517 H   0  0  0  0  0  0  0  0  0  0  0  0
   -5.1647   -0.8277    1.3446 H   0  0  0  0  0  0  0  0  0  0  0  0
   -8.8399   -5.7600    0.0413 C   0  0  0  0  0  0  0  0  0  0  0  0
   -9.8941   -6.3405   -0.6572 C   0  0  0  0  0  0  0  0  0  0  0  0
   -9.6856   -7.4401   -1.5055 C   0  0  0  0  0  0  0  0  0  0  0  0
   -8.3862   -7.9477   -1.6360 C   0  0  0  0  0  0  0  0  0  0  0  0
   -7.3160   -7.3770   -0.9482 C   0  0  0  0  0  0  0  0  0  0  0  0
   -7.5546   -6.2830   -0.1177 C   0  0  0  0  0  0  0  0  0  0  0  0
   -9.0040   -4.9223    0.7103 H   0  0  0  0  0  0  0  0  0  0  0  0
  -10.8972   -5.9390   -0.5385 H   0  0  0  0  0  0  0  0  0  0  0  0
   -8.2100   -8.8049   -2.2800 H   0  0  0  0  0  0  0  0  0  0  0  0
   -6.3123   -7.7776   -1.0385 H   0  0  0  0  0  0  0  0  0  0  0  0
   -6.1955   -5.5496    0.7756 S   0  0  0  0  0  0  0  0  0  0  0  0
   -6.7075   -4.9449    2.0062 O   0  0  0  0  0  0  0  0  0  0  0  0
   -5.8089   -4.3756   -0.2963 O   0  0  0  0  0  0  0  0  0  0  0  0
   -5.0808   -6.5015    0.8436 O   0  0  0  0  0  0  0  0  0  0  0  0
  -10.8432   -8.0625   -2.2482 C   0  0  0  0  0  0  0  0  0  0  0  0
  -11.5891   -8.4640   -1.5527 H   0  0  0  0  0  0  0  0  0  0  0  0
  -11.3544   -7.3237   -2.8758 H   0  0  0  0  0  0  0  0  0  0  0  0
  -10.5127   -8.8807   -2.8933 H   0  0  0  0  0  0  0  0  0  0  0  0
  1  2  1  1  0  0  0
  1  8  1  0  0  0  0
  3  2  1  0  0  0  0
  4  5  2  0  0  0  0
  4  1  1  0  0  0  0
  5  6  1  0  0  0  0
  6 11  1  1  0  0  0
  6  7  1  0  0  0  0
  7 12  1  0  0  0  0
  8  7  2  0  0  0  0
  8 13  1  0  0  0  0
  9  4  1  0  0  0  0
 10  5  1  0  0  0  0
 14 20  1  0  0  0  0
 15 21  1  0  0  0  0
 15 14  2  0  0  0  0
 16 15  1  0  0  0  0
 17 16  2  0  0  0  0
 17 18  1  0  0  0  0
 18 19  2  0  0  0  0
 19 14  1  0  0  0  0
 19 24  1  0  0  0  0
 22 17  1  0  0  0  0
 23 18  1  0  0  0  0
 24 27  2  0  0  0  0
 24 25  2  0  0  0  0
 26  6  1  0  0  0  0
 26 24  1  0  0  0  0
 28 29  1  0  0  0  0
 28 16  1  0  0  0  0
 30 28  1  0  0  0  0
 31 28  1  0  0  0  0
M  RAD  3   1   2   2   2   3   3
M  END
