Coordinates from ORCA-job PhN2+~TsO-_B3LYPG-6-31G_dp-NX-Scan-d89-09-n800
 OpenBabel11261920463D

 31 32  0  0  1  0  0  0  0  0999 V2000
   -4.8871   -0.8145   -0.9287 C   0  0  0  0  0  0  0  0  0  0  0  0
   -4.8970    0.4483   -1.2876 N   0  0  0  0  0  0  0  0  0  0  0  0
   -4.9043    1.5503   -1.5989 N   0  0  0  0  0  0  0  0  0  0  0  0
   -4.3912   -1.8260   -1.8410 C   0  0  0  0  0  0  0  0  0  0  0  0
   -4.3542   -3.1179   -1.4644 C   0  0  0  0  0  0  0  0  0  0  0  0
   -4.8376   -3.5907   -0.1310 C   0  0  1  0  0  0  0  0  0  0  0  0
   -5.3082   -2.4926    0.7709 C   0  0  0  0  0  0  0  0  0  0  0  0
   -5.3465   -1.2019    0.3915 C   0  0  0  0  0  0  0  0  0  0  0  0
   -4.0373   -1.5157   -2.8191 H   0  0  0  0  0  0  0  0  0  0  0  0
   -3.9738   -3.8757   -2.1409 H   0  0  0  0  0  0  0  0  0  0  0  0
   -4.0805   -4.2179    0.3554 H   0  0  0  0  0  0  0  0  0  0  0  0
   -5.6449   -2.7881    1.7585 H   0  0  0  0  0  0  0  0  0  0  0  0
   -5.7042   -0.4288    1.0643 H   0  0  0  0  0  0  0  0  0  0  0  0
   -8.7728   -6.2646    0.3068 C   0  0  0  0  0  0  0  0  0  0  0  0
   -9.9072   -6.8367   -0.2598 C   0  0  0  0  0  0  0  0  0  0  0  0
   -9.8084   -7.7339   -1.3356 C   0  0  0  0  0  0  0  0  0  0  0  0
   -8.5357   -8.0507   -1.8287 C   0  0  0  0  0  0  0  0  0  0  0  0
   -7.3867   -7.4877   -1.2755 C   0  0  0  0  0  0  0  0  0  0  0  0
   -7.5192   -6.5937   -0.2140 C   0  0  0  0  0  0  0  0  0  0  0  0
   -8.8474   -5.5834    1.1473 H   0  0  0  0  0  0  0  0  0  0  0  0
  -10.8861   -6.5879    0.1411 H   0  0  0  0  0  0  0  0  0  0  0  0
   -8.4415   -8.7506   -2.6545 H   0  0  0  0  0  0  0  0  0  0  0  0
   -6.4008   -7.7427   -1.6474 H   0  0  0  0  0  0  0  0  0  0  0  0
   -6.0582   -5.8696    0.5027 S   0  0  0  0  0  0  0  0  0  0  0  0
   -6.3243   -5.4895    1.8932 O   0  0  0  0  0  0  0  0  0  0  0  0
   -5.9998   -4.5156   -0.4148 O   0  0  0  0  0  0  0  0  0  0  0  0
   -4.8924   -6.7018    0.1934 O   0  0  0  0  0  0  0  0  0  0  0  0
  -11.0508   -8.3414   -1.9409 C   0  0  0  0  0  0  0  0  0  0  0  0
  -11.6525   -8.8524   -1.1810 H   0  0  0  0  0  0  0  0  0  0  0  0
  -11.6875   -7.5703   -2.3903 H   0  0  0  0  0  0  0  0  0  0  0  0
  -10.8035   -9.0673   -2.7198 H   0  0  0  0  0  0  0  0  0  0  0  0
  1  8  1  0  0  0  0
  2  1  1  0  0  0  0
  3  2  1  0  0  0  0
  4  5  1  0  0  0  0
  4  1  2  0  0  0  0
  5  6  1  0  0  0  0
  6 11  1  1  0  0  0
  6  7  1  0  0  0  0
  7 12  1  0  0  0  0
  8  7  2  0  0  0  0
  8 13  1  0  0  0  0
  9  4  1  0  0  0  0
 10  5  1  0  0  0  0
 14 20  1  0  0  0  0
 15 21  1  0  0  0  0
 15 14  2  0  0  0  0
 16 15  1  0  0  0  0
 17 16  2  0  0  0  0
 17 18  1  0  0  0  0
 18 19  2  0  0  0  0
 19 14  1  0  0  0  0
 19 24  1  0  0  0  0
 22 17  1  0  0  0  0
 23 18  1  0  0  0  0
 24 25  2  0  0  0  0
 26  6  1  0  0  0  0
 26 24  1  0  0  0  0
 27 24  2  0  0  0  0
 28 16  1  0  0  0  0
 28 29  1  0  0  0  0
 30 28  1  0  0  0  0
 31 28  1  0  0  0  0
M  RAD  3   2   2   3   3   5   2
M  END
