Coordinates from ORCA-job PhN2+~TsO-_B3LYPG-6-31G_dp-NX-Scan-d89-09-n800
 OpenBabel11261920463D

 31 31  0  0  0  0  0  0  0  0999 V2000
   -3.9196   -0.4034   -0.2976 C   0  0  0  0  0  0  0  0  0  0  0  0
   -3.7821    0.9320   -0.1037 N   0  0  0  0  0  0  0  0  0  0  0  0
   -3.6854    2.0386    0.0683 N   0  0  0  0  0  0  0  0  0  0  0  0
   -3.0303   -1.0477   -1.1941 C   0  0  0  0  0  0  0  0  0  0  0  0
   -3.2062   -2.4047   -1.3872 C   0  0  0  0  0  0  0  0  0  0  0  0
   -4.2309   -3.0984   -0.7178 C   0  0  0  0  0  0  0  0  0  0  0  0
   -5.0987   -2.4349    0.1737 C   0  0  0  0  0  0  0  0  0  0  0  0
   -4.9567   -1.0800    0.3977 C   0  0  0  0  0  0  0  0  0  0  0  0
   -2.2559   -0.4819   -1.7000 H   0  0  0  0  0  0  0  0  0  0  0  0
   -2.5515   -2.9344   -2.0714 H   0  0  0  0  0  0  0  0  0  0  0  0
   -4.4137   -4.1629   -0.8897 H   0  0  0  0  0  0  0  0  0  0  0  0
   -5.9043   -3.0104    0.6423 H   0  0  0  0  0  0  0  0  0  0  0  0
   -5.6132   -0.5332    1.0659 H   0  0  0  0  0  0  0  0  0  0  0  0
   -9.5007   -6.3126   -0.1255 C   0  0  0  0  0  0  0  0  0  0  0  0
  -10.4204   -7.3538   -0.2311 C   0  0  0  0  0  0  0  0  0  0  0  0
  -10.1249   -8.5101   -0.9683 C   0  0  0  0  0  0  0  0  0  0  0  0
   -8.8769   -8.5931   -1.5987 C   0  0  0  0  0  0  0  0  0  0  0  0
   -7.9480   -7.5561   -1.5009 C   0  0  0  0  0  0  0  0  0  0  0  0
   -8.2625   -6.4155   -0.7634 C   0  0  0  0  0  0  0  0  0  0  0  0
   -9.7255   -5.4263    0.4585 H   0  0  0  0  0  0  0  0  0  0  0  0
  -11.3831   -7.2708    0.2684 H   0  0  0  0  0  0  0  0  0  0  0  0
   -8.6265   -9.4835   -2.1714 H   0  0  0  0  0  0  0  0  0  0  0  0
   -6.9763   -7.6259   -1.9770 H   0  0  0  0  0  0  0  0  0  0  0  0
   -7.1021   -5.0415   -0.6884 S   0  0  0  0  0  0  0  0  0  0  0  0
   -7.2748   -4.4628    0.6841 O   0  0  0  0  0  0  0  0  0  0  0  0
   -7.4641   -4.0873   -1.7680 O   0  0  0  0  0  0  0  0  0  0  0  0
   -5.7502   -5.6604   -0.8880 O   0  0  0  0  0  0  0  0  0  0  0  0
  -11.1176   -9.6462   -1.0533 C   0  0  0  0  0  0  0  0  0  0  0  0
  -11.1028  -10.2585   -0.1420 H   0  0  0  0  0  0  0  0  0  0  0  0
  -12.1413   -9.2766   -1.1744 H   0  0  0  0  0  0  0  0  0  0  0  0
  -10.8955  -10.3083   -1.8955 H   0  0  0  0  0  0  0  0  0  0  0  0
  1  2  1  0  0  0  0
  1  8  2  0  0  0  0
  2  3  1  0  0  0  0
  4  1  1  0  0  0  0
  5  4  2  0  0  0  0
  5  6  1  0  0  0  0
  6  7  2  0  0  0  0
  7  8  1  0  0  0  0
  7 12  1  0  0  0  0
  8 13  1  0  0  0  0
  9  4  1  0  0  0  0
 10  5  1  0  0  0  0
 11  6  1  0  0  0  0
 14 20  1  0  0  0  0
 15 14  1  0  0  0  0
 15 21  1  0  0  0  0
 16 15  2  0  0  0  0
 17 18  2  0  0  0  0
 17 16  1  0  0  0  0
 18 19  1  0  0  0  0
 19 24  1  0  0  0  0
 19 14  2  0  0  0  0
 22 17  1  0  0  0  0
 23 18  1  0  0  0  0
 24 25  1  0  0  0  0
 26 24  2  0  0  0  0
 27 24  2  0  0  0  0
 28 16  1  0  0  0  0
 28 29  1  0  0  0  0
 30 28  1  0  0  0  0
 31 28  1  0  0  0  0
M  RAD  3   2   2   3   3  25   2
M  END
