Coordinates from ORCA-job PhN2+~TsO-_B3LYPG-6-31G_dp-NX-Scan-d89-09-n800
 OpenBabel11261920463D

 31 31  0  0  0  0  0  0  0  0999 V2000
   -4.3906   -0.5231   -0.5834 C   0  0  0  0  0  0  0  0  0  0  0  0
   -4.2808    0.8170   -0.5918 N   0  0  0  0  0  0  0  0  0  0  0  0
   -4.1741    1.9430   -0.5903 N   0  0  0  0  0  0  0  0  0  0  0  0
   -4.0440   -1.2504   -1.7606 C   0  0  0  0  0  0  0  0  0  0  0  0
   -4.0713   -2.6221   -1.7058 C   0  0  0  0  0  0  0  0  0  0  0  0
   -4.4376   -3.2987   -0.5144 C   0  0  0  0  0  0  0  0  0  0  0  0
   -4.8189   -2.5523    0.6332 C   0  0  0  0  0  0  0  0  0  0  0  0
   -4.8025   -1.1810    0.6164 C   0  0  0  0  0  0  0  0  0  0  0  0
   -3.7425   -0.7171   -2.6555 H   0  0  0  0  0  0  0  0  0  0  0  0
   -3.7972   -3.2004   -2.5808 H   0  0  0  0  0  0  0  0  0  0  0  0
   -4.2616   -4.3635   -0.4207 H   0  0  0  0  0  0  0  0  0  0  0  0
   -5.1563   -3.0915    1.5120 H   0  0  0  0  0  0  0  0  0  0  0  0
   -5.0783   -0.5943    1.4857 H   0  0  0  0  0  0  0  0  0  0  0  0
   -9.2229   -6.1740   -0.0813 C   0  0  0  0  0  0  0  0  0  0  0  0
  -10.2619   -7.0037   -0.4946 C   0  0  0  0  0  0  0  0  0  0  0  0
  -10.0083   -8.1731   -1.2282 C   0  0  0  0  0  0  0  0  0  0  0  0
   -8.6789   -8.4890   -1.5378 C   0  0  0  0  0  0  0  0  0  0  0  0
   -7.6285   -7.6657   -1.1322 C   0  0  0  0  0  0  0  0  0  0  0  0
   -7.9058   -6.5089   -0.4043 C   0  0  0  0  0  0  0  0  0  0  0  0
   -9.4178   -5.2797    0.5007 H   0  0  0  0  0  0  0  0  0  0  0  0
  -11.2871   -6.7450   -0.2400 H   0  0  0  0  0  0  0  0  0  0  0  0
   -8.4627   -9.3948   -2.0989 H   0  0  0  0  0  0  0  0  0  0  0  0
   -6.5977   -7.9156   -1.3581 H   0  0  0  0  0  0  0  0  0  0  0  0
   -6.5620   -5.4254    0.0946 S   0  0  0  0  0  0  0  0  0  0  0  0
   -6.9624   -4.8080    1.3829 O   0  0  0  0  0  0  0  0  0  0  0  0
   -6.4900   -4.4003   -1.0335 O   0  0  0  0  0  0  0  0  0  0  0  0
   -5.3287   -6.2531    0.1389 O   0  0  0  0  0  0  0  0  0  0  0  0
  -11.1419   -9.0798   -1.6465 C   0  0  0  0  0  0  0  0  0  0  0  0
  -11.5090   -9.6728   -0.7994 H   0  0  0  0  0  0  0  0  0  0  0  0
  -11.9928   -8.5068   -2.0296 H   0  0  0  0  0  0  0  0  0  0  0  0
  -10.8277   -9.7807   -2.4255 H   0  0  0  0  0  0  0  0  0  0  0  0
  1  8  2  0  0  0  0
  2  3  1  0  0  0  0
  2  1  1  0  0  0  0
  4  5  2  0  0  0  0
  4  1  1  0  0  0  0
  5  6  1  0  0  0  0
  6 11  1  0  0  0  0
  6  7  2  0  0  0  0
  7 12  1  0  0  0  0
  8  7  1  0  0  0  0
  8 13  1  0  0  0  0
  9  4  1  0  0  0  0
 10  5  1  0  0  0  0
 14 20  1  0  0  0  0
 15 21  1  0  0  0  0
 15 14  2  0  0  0  0
 16 15  1  0  0  0  0
 17 16  2  0  0  0  0
 17 18  1  0  0  0  0
 18 19  2  0  0  0  0
 19 14  1  0  0  0  0
 19 24  1  0  0  0  0
 22 17  1  0  0  0  0
 23 18  1  0  0  0  0
 24 27  2  0  0  0  0
 24 25  1  0  0  0  0
 26 24  2  0  0  0  0
 28 16  1  0  0  0  0
 28 29  1  0  0  0  0
 30 28  1  0  0  0  0
 31 28  1  0  0  0  0
M  RAD  3   2   2   3   3  25   2
M  END
