Coordinates from ORCA-job PhN2+~TsO-_B3LYPG-6-31G_dp-NX-Scan-d89-09-n800
 OpenBabel11261920463D

 31 31  0  0  0  0  0  0  0  0999 V2000
   -3.7509   -0.4417   -0.1055 C   0  0  0  0  0  0  0  0  0  0  0  0
   -3.5073    0.8398    0.2664 N   0  0  0  0  0  0  0  0  0  0  0  0
   -3.3272    1.9021    0.5870 N   0  0  0  0  0  0  0  0  0  0  0  0
   -2.8206   -1.0851   -0.9600 C   0  0  0  0  0  0  0  0  0  0  0  0
   -3.1089   -2.3826   -1.3389 C   0  0  0  0  0  0  0  0  0  0  0  0
   -4.2827   -3.0168   -0.8929 C   0  0  0  0  0  0  0  0  0  0  0  0
   -5.1857   -2.3589   -0.0335 C   0  0  0  0  0  0  0  0  0  0  0  0
   -4.9344   -1.0633    0.3728 C   0  0  0  0  0  0  0  0  0  0  0  0
   -1.9318   -0.5631   -1.2960 H   0  0  0  0  0  0  0  0  0  0  0  0
   -2.4254   -2.9081   -1.9980 H   0  0  0  0  0  0  0  0  0  0  0  0
   -4.5593   -4.0253   -1.2103 H   0  0  0  0  0  0  0  0  0  0  0  0
   -6.0975   -2.8870    0.2729 H   0  0  0  0  0  0  0  0  0  0  0  0
   -5.6111   -0.5210    1.0246 H   0  0  0  0  0  0  0  0  0  0  0  0
   -9.6240   -6.2856   -0.2506 C   0  0  0  0  0  0  0  0  0  0  0  0
  -10.4501   -7.4069   -0.2089 C   0  0  0  0  0  0  0  0  0  0  0  0
  -10.0865   -8.5997   -0.8512 C   0  0  0  0  0  0  0  0  0  0  0  0
   -8.8671   -8.6365   -1.5394 C   0  0  0  0  0  0  0  0  0  0  0  0
   -8.0318   -7.5198   -1.5885 C   0  0  0  0  0  0  0  0  0  0  0  0
   -8.4124   -6.3439   -0.9430 C   0  0  0  0  0  0  0  0  0  0  0  0
   -9.9011   -5.3691    0.2593 H   0  0  0  0  0  0  0  0  0  0  0  0
  -11.3928   -7.3577    0.3314 H   0  0  0  0  0  0  0  0  0  0  0  0
   -8.5654   -9.5529   -2.0421 H   0  0  0  0  0  0  0  0  0  0  0  0
   -7.0812   -7.5527   -2.1093 H   0  0  0  0  0  0  0  0  0  0  0  0
   -7.3801   -4.8743   -1.0619 S   0  0  0  0  0  0  0  0  0  0  0  0
   -7.5480   -4.1825    0.2590 O   0  0  0  0  0  0  0  0  0  0  0  0
   -7.8681   -4.0730   -2.2096 O   0  0  0  0  0  0  0  0  0  0  0  0
   -5.9864   -5.3974   -1.2572 O   0  0  0  0  0  0  0  0  0  0  0  0
  -10.9754   -9.8193   -0.7754 C   0  0  0  0  0  0  0  0  0  0  0  0
  -10.8365  -10.3567    0.1721 H   0  0  0  0  0  0  0  0  0  0  0  0
  -12.0346   -9.5481   -0.8380 H   0  0  0  0  0  0  0  0  0  0  0  0
  -10.7575  -10.5235   -1.5841 H   0  0  0  0  0  0  0  0  0  0  0  0
  1  2  1  0  0  0  0
  1  8  2  0  0  0  0
  2  3  1  0  0  0  0
  4  1  1  0  0  0  0
  5  4  2  0  0  0  0
  5  6  1  0  0  0  0
  6  7  2  0  0  0  0
  7 12  1  0  0  0  0
  7  8  1  0  0  0  0
  8 13  1  0  0  0  0
  9  4  1  0  0  0  0
 10  5  1  0  0  0  0
 11  6  1  0  0  0  0
 14 15  1  0  0  0  0
 14 20  1  0  0  0  0
 15 21  1  0  0  0  0
 16 28  1  0  0  0  0
 16 15  2  0  0  0  0
 17 16  1  0  0  0  0
 18 17  2  0  0  0  0
 18 19  1  0  0  0  0
 19 14  2  0  0  0  0
 22 17  1  0  0  0  0
 23 18  1  0  0  0  0
 24 19  1  0  0  0  0
 24 25  1  0  0  0  0
 26 24  2  0  0  0  0
 27 24  2  0  0  0  0
 28 29  1  0  0  0  0
 30 28  1  0  0  0  0
 31 28  1  0  0  0  0
M  RAD  3   2   2   3   3  25   2
M  END
