Coordinates from ORCA-job PhN2+~TsO-_B3LYPG-6-31G_dp-NX-Scan-d89-09-n800
 OpenBabel11261920463D

 31 32  0  0  1  0  0  0  0  0999 V2000
   -4.7090   -0.7106   -0.8651 C   0  0  0  0  0  0  0  0  0  0  0  0
   -4.4811    0.5624   -1.1053 N   0  0  0  0  0  0  0  0  0  0  0  0
   -4.2743    1.6729   -1.3092 N   0  0  0  0  0  0  0  0  0  0  0  0
   -4.3877   -1.7195   -1.8588 C   0  0  0  0  0  0  0  0  0  0  0  0
   -4.5224   -3.0297   -1.5751 C   0  0  0  0  0  0  0  0  0  0  0  0
   -4.9626   -3.5384   -0.2366 C   0  0  1  0  0  0  0  0  0  0  0  0
   -5.3950   -2.4459    0.6969 C   0  0  0  0  0  0  0  0  0  0  0  0
   -5.2616   -1.1369    0.4095 C   0  0  0  0  0  0  0  0  0  0  0  0
   -4.0284   -1.3955   -2.8306 H   0  0  0  0  0  0  0  0  0  0  0  0
   -4.2747   -3.7774   -2.3211 H   0  0  0  0  0  0  0  0  0  0  0  0
   -4.1726   -4.1559    0.2130 H   0  0  0  0  0  0  0  0  0  0  0  0
   -5.8056   -2.7606    1.6501 H   0  0  0  0  0  0  0  0  0  0  0  0
   -5.5584   -0.3772    1.1260 H   0  0  0  0  0  0  0  0  0  0  0  0
   -8.8295   -6.2946    0.2861 C   0  0  0  0  0  0  0  0  0  0  0  0
   -9.9456   -6.9153   -0.2655 C   0  0  0  0  0  0  0  0  0  0  0  0
   -9.8181   -7.8434   -1.3117 C   0  0  0  0  0  0  0  0  0  0  0  0
   -8.5352   -8.1410   -1.7903 C   0  0  0  0  0  0  0  0  0  0  0  0
   -7.4042   -7.5294   -1.2519 C   0  0  0  0  0  0  0  0  0  0  0  0
   -7.5654   -6.6059   -0.2200 C   0  0  0  0  0  0  0  0  0  0  0  0
   -8.9263   -5.5889    1.1038 H   0  0  0  0  0  0  0  0  0  0  0  0
  -10.9325   -6.6806    0.1242 H   0  0  0  0  0  0  0  0  0  0  0  0
   -8.4187   -8.8645   -2.5926 H   0  0  0  0  0  0  0  0  0  0  0  0
   -6.4103   -7.7691   -1.6126 H   0  0  0  0  0  0  0  0  0  0  0  0
   -6.1280   -5.8202    0.4790 S   0  0  0  0  0  0  0  0  0  0  0  0
   -6.4114   -5.4034    1.8551 O   0  0  0  0  0  0  0  0  0  0  0  0
   -6.1050   -4.4951   -0.4822 O   0  0  0  0  0  0  0  0  0  0  0  0
   -4.9380   -6.6280    0.1998 O   0  0  0  0  0  0  0  0  0  0  0  0
  -11.0411   -8.5031   -1.9016 C   0  0  0  0  0  0  0  0  0  0  0  0
  -11.6349   -9.0011   -1.1271 H   0  0  0  0  0  0  0  0  0  0  0  0
  -11.6935   -7.7648   -2.3825 H   0  0  0  0  0  0  0  0  0  0  0  0
  -10.7708   -9.2502   -2.6524 H   0  0  0  0  0  0  0  0  0  0  0  0
  1  8  1  0  0  0  0
  2  1  1  0  0  0  0
  3  2  1  0  0  0  0
  4  5  1  0  0  0  0
  4  1  2  0  0  0  0
  5  6  1  0  0  0  0
  6 11  1  1  0  0  0
  6  7  1  0  0  0  0
  7 12  1  0  0  0  0
  8  7  2  0  0  0  0
  8 13  1  0  0  0  0
  9  4  1  0  0  0  0
 10  5  1  0  0  0  0
 14 20  1  0  0  0  0
 15 21  1  0  0  0  0
 15 14  2  0  0  0  0
 16 15  1  0  0  0  0
 17 16  2  0  0  0  0
 17 18  1  0  0  0  0
 18 19  2  0  0  0  0
 19 14  1  0  0  0  0
 19 24  1  0  0  0  0
 22 17  1  0  0  0  0
 23 18  1  0  0  0  0
 24 25  2  0  0  0  0
 26  6  1  0  0  0  0
 26 24  1  0  0  0  0
 27 24  2  0  0  0  0
 28 16  1  0  0  0  0
 28 29  1  0  0  0  0
 30 28  1  0  0  0  0
 31 28  1  0  0  0  0
M  RAD  3   2   2   3   3   5   2
M  END
