Coordinates from ORCA-job PhN2+~TsO-_B3LYPG-6-31G_dp-NX-Scan-d89-09-n800
 OpenBabel11261920463D

 31 32  0  0  1  0  0  0  0  0999 V2000
   -5.4518   -1.3909   -0.6330 C   0  0  2  0  0  0  0  0  0  0  0  0
   -6.7505   -1.5850   -0.5849 N   0  0  0  0  0  0  0  0  0  0  0  0
   -7.8465   -1.8849   -0.5361 N   0  0  0  0  0  0  0  0  0  0  0  0
   -4.8293   -1.9526   -1.8622 C   0  0  0  0  0  0  0  0  0  0  0  0
   -4.1870   -3.1197   -1.7170 C   0  0  0  0  0  0  0  0  0  0  0  0
   -4.3472   -3.8014   -0.3837 C   0  0  1  0  0  0  0  0  0  0  0  0
   -4.1242   -2.8324    0.7510 C   0  0  0  0  0  0  0  0  0  0  0  0
   -4.7676   -1.6605    0.6603 C   0  0  0  0  0  0  0  0  0  0  0  0
   -4.9176   -1.4284   -2.8096 H   0  0  0  0  0  0  0  0  0  0  0  0
   -3.6338   -3.6020   -2.5166 H   0  0  0  0  0  0  0  0  0  0  0  0
   -3.7724   -4.7213   -0.2878 H   0  0  0  0  0  0  0  0  0  0  0  0
   -3.5325   -3.1262    1.6123 H   0  0  0  0  0  0  0  0  0  0  0  0
   -4.8216   -0.9381    1.4695 H   0  0  0  0  0  0  0  0  0  0  0  0
   -8.8253   -5.4179   -0.2971 C   0  0  0  0  0  0  0  0  0  0  0  0
   -9.8421   -6.0594   -0.9977 C   0  0  0  0  0  0  0  0  0  0  0  0
   -9.6574   -7.3420   -1.5384 C   0  0  0  0  0  0  0  0  0  0  0  0
   -8.4169   -7.9689   -1.3639 C   0  0  0  0  0  0  0  0  0  0  0  0
   -7.3821   -7.3408   -0.6711 C   0  0  0  0  0  0  0  0  0  0  0  0
   -7.5984   -6.0683   -0.1452 C   0  0  0  0  0  0  0  0  0  0  0  0
   -8.9746   -4.4292    0.1214 H   0  0  0  0  0  0  0  0  0  0  0  0
  -10.7977   -5.5572   -1.1254 H   0  0  0  0  0  0  0  0  0  0  0  0
   -8.2569   -8.9626   -1.7727 H   0  0  0  0  0  0  0  0  0  0  0  0
   -6.4232   -7.8273   -0.5294 H   0  0  0  0  0  0  0  0  0  0  0  0
   -6.2869   -5.2694    0.7616 S   0  0  0  0  0  0  0  0  0  0  0  0
   -6.8598   -4.5417    1.8921 O   0  0  0  0  0  0  0  0  0  0  0  0
   -5.8162   -4.1863   -0.3842 O   0  0  0  0  0  0  0  0  0  0  0  0
   -5.1909   -6.2200    0.9776 O   0  0  0  0  0  0  0  0  0  0  0  0
  -10.7824   -8.0335   -2.2698 C   0  0  0  0  0  0  0  0  0  0  0  0
  -11.5356   -8.4073   -1.5656 H   0  0  0  0  0  0  0  0  0  0  0  0
  -11.2933   -7.3484   -2.9541 H   0  0  0  0  0  0  0  0  0  0  0  0
  -10.4202   -8.8869   -2.8490 H   0  0  0  0  0  0  0  0  0  0  0  0
  1  2  1  1  0  0  0
  1  8  1  0  0  0  0
  2  3  1  0  0  0  0
  4  5  2  0  0  0  0
  4  1  1  0  0  0  0
  5  6  1  0  0  0  0
  6 11  1  1  0  0  0
  6  7  1  0  0  0  0
  7 12  1  0  0  0  0
  8  7  2  0  0  0  0
  8 13  1  0  0  0  0
  9  4  1  0  0  0  0
 10  5  1  0  0  0  0
 14 19  1  0  0  0  0
 14 20  1  0  0  0  0
 15 14  2  0  0  0  0
 16 17  2  0  0  0  0
 16 15  1  0  0  0  0
 17 18  1  0  0  0  0
 18 23  1  0  0  0  0
 18 19  2  0  0  0  0
 19 24  1  0  0  0  0
 21 15  1  0  0  0  0
 22 17  1  0  0  0  0
 24 27  2  0  0  0  0
 24 25  2  0  0  0  0
 26  6  1  0  0  0  0
 26 24  1  0  0  0  0
 28 29  1  0  0  0  0
 28 16  1  0  0  0  0
 30 28  1  0  0  0  0
 31 28  1  0  0  0  0
M  RAD  3   1   2   2   2   3   3
M  END
