Coordinates from ORCA-job PhN2+~TsO-_B3LYPG-6-31G_dp-NX-Scan-d89-09-n800
 OpenBabel11261920463D

 31 32  0  0  1  0  0  0  0  0999 V2000
   -5.4117   -1.3651   -0.9756 C   0  0  2  0  0  0  0  0  0  0  0  0
   -6.3598   -0.6240   -1.4908 N   0  0  0  0  0  0  0  0  0  0  0  0
   -7.2193   -0.0249   -1.9411 N   0  0  0  0  0  0  0  0  0  0  0  0
   -4.5754   -2.1611   -1.8560 C   0  0  0  0  0  0  0  0  0  0  0  0
   -3.9871   -3.2601   -1.3506 C   0  0  0  0  0  0  0  0  0  0  0  0
   -4.4001   -3.7376    0.0032 C   0  0  1  0  0  0  0  0  0  0  0  0
   -4.7338   -2.6289    0.9494 C   0  0  0  0  0  0  0  0  0  0  0  0
   -5.3282   -1.5234    0.4663 C   0  0  0  0  0  0  0  0  0  0  0  0
   -4.4340   -1.8409   -2.8837 H   0  0  0  0  0  0  0  0  0  0  0  0
   -3.3170   -3.8724   -1.9437 H   0  0  0  0  0  0  0  0  0  0  0  0
   -3.7047   -4.4680    0.4184 H   0  0  0  0  0  0  0  0  0  0  0  0
   -4.6086   -2.7889    2.0143 H   0  0  0  0  0  0  0  0  0  0  0  0
   -5.7318   -0.7462    1.1077 H   0  0  0  0  0  0  0  0  0  0  0  0
   -8.7155   -5.9589    0.2680 C   0  0  0  0  0  0  0  0  0  0  0  0
   -9.8401   -6.4464   -0.3908 C   0  0  0  0  0  0  0  0  0  0  0  0
   -9.7215   -7.3529   -1.4564 C   0  0  0  0  0  0  0  0  0  0  0  0
   -8.4398   -7.7647   -1.8456 C   0  0  0  0  0  0  0  0  0  0  0  0
   -7.3012   -7.2877   -1.1984 C   0  0  0  0  0  0  0  0  0  0  0  0
   -7.4519   -6.3830   -0.1484 C   0  0  0  0  0  0  0  0  0  0  0  0
   -8.8059   -5.2708    1.1015 H   0  0  0  0  0  0  0  0  0  0  0  0
  -10.8271   -6.1230   -0.0711 H   0  0  0  0  0  0  0  0  0  0  0  0
   -8.3311   -8.4716   -2.6636 H   0  0  0  0  0  0  0  0  0  0  0  0
   -6.3104   -7.6182   -1.4897 H   0  0  0  0  0  0  0  0  0  0  0  0
   -6.0041   -5.7676    0.6898 S   0  0  0  0  0  0  0  0  0  0  0  0
   -6.3775   -5.2992    2.0272 O   0  0  0  0  0  0  0  0  0  0  0  0
   -5.7041   -4.4845   -0.2775 O   0  0  0  0  0  0  0  0  0  0  0  0
   -4.9050   -6.7275    0.5459 O   0  0  0  0  0  0  0  0  0  0  0  0
  -10.9531   -7.8768   -2.1550 C   0  0  0  0  0  0  0  0  0  0  0  0
  -11.5904   -8.4391   -1.4625 H   0  0  0  0  0  0  0  0  0  0  0  0
  -11.5593   -7.0571   -2.5563 H   0  0  0  0  0  0  0  0  0  0  0  0
  -10.6924   -8.5402   -2.9837 H   0  0  0  0  0  0  0  0  0  0  0  0
  1  2  1  6  0  0  0
  1  8  1  0  0  0  0
  3  2  1  0  0  0  0
  4  5  2  0  0  0  0
  4  1  1  0  0  0  0
  5  6  1  0  0  0  0
  6 11  1  1  0  0  0
  6  7  1  0  0  0  0
  7 12  1  0  0  0  0
  8  7  2  0  0  0  0
  8 13  1  0  0  0  0
  9  4  1  0  0  0  0
 10  5  1  0  0  0  0
 14 20  1  0  0  0  0
 15 21  1  0  0  0  0
 15 14  2  0  0  0  0
 16 15  1  0  0  0  0
 17 16  2  0  0  0  0
 17 18  1  0  0  0  0
 18 19  2  0  0  0  0
 19 14  1  0  0  0  0
 19 24  1  0  0  0  0
 22 17  1  0  0  0  0
 23 18  1  0  0  0  0
 24 25  2  0  0  0  0
 26  6  1  0  0  0  0
 26 24  1  0  0  0  0
 27 24  2  0  0  0  0
 28 29  1  0  0  0  0
 28 16  1  0  0  0  0
 30 28  1  0  0  0  0
 31 28  1  0  0  0  0
M  RAD  3   1   2   2   2   3   3
M  END
