Coordinates from ORCA-job PhN2+~TsO-_B3LYPG-6-31G_dp-NX-Scan-d89-09-n800
 OpenBabel11261920463D

 31 31  0  0  0  0  0  0  0  0999 V2000
   -3.6650   -0.5727    0.1073 C   0  0  0  0  0  0  0  0  0  0  0  0
   -3.3226    0.5976    0.7013 N   0  0  0  0  0  0  0  0  0  0  0  0
   -3.0608    1.5664    1.2085 N   0  0  0  0  0  0  0  0  0  0  0  0
   -2.7314   -1.1848   -0.7666 C   0  0  0  0  0  0  0  0  0  0  0  0
   -3.1150   -2.3698   -1.3657 C   0  0  0  0  0  0  0  0  0  0  0  0
   -4.3845   -2.9217   -1.1153 C   0  0  0  0  0  0  0  0  0  0  0  0
   -5.2905   -2.2997   -0.2331 C   0  0  0  0  0  0  0  0  0  0  0  0
   -4.9451   -1.1176    0.3916 C   0  0  0  0  0  0  0  0  0  0  0  0
   -1.7667   -0.7248   -0.9484 H   0  0  0  0  0  0  0  0  0  0  0  0
   -2.4305   -2.8680   -2.0445 H   0  0  0  0  0  0  0  0  0  0  0  0
   -4.7297   -3.8429   -1.5905 H   0  0  0  0  0  0  0  0  0  0  0  0
   -6.2700   -2.7703   -0.0721 H   0  0  0  0  0  0  0  0  0  0  0  0
   -5.6159   -0.6078    1.0749 H   0  0  0  0  0  0  0  0  0  0  0  0
   -9.7238   -6.2109   -0.4370 C   0  0  0  0  0  0  0  0  0  0  0  0
  -10.4587   -7.3783   -0.2386 C   0  0  0  0  0  0  0  0  0  0  0  0
  -10.0032   -8.6128   -0.7232 C   0  0  0  0  0  0  0  0  0  0  0  0
   -8.7865   -8.6439   -1.4174 C   0  0  0  0  0  0  0  0  0  0  0  0
   -8.0425   -7.4819   -1.6224 C   0  0  0  0  0  0  0  0  0  0  0  0
   -8.5130   -6.2645   -1.1303 C   0  0  0  0  0  0  0  0  0  0  0  0
  -10.0728   -5.2602   -0.0481 H   0  0  0  0  0  0  0  0  0  0  0  0
  -11.4018   -7.3320    0.3013 H   0  0  0  0  0  0  0  0  0  0  0  0
   -8.4156   -9.5915   -1.8018 H   0  0  0  0  0  0  0  0  0  0  0  0
   -7.0941   -7.5082   -2.1475 H   0  0  0  0  0  0  0  0  0  0  0  0
   -7.5995   -4.7461   -1.4510 S   0  0  0  0  0  0  0  0  0  0  0  0
   -7.7908   -3.9215   -0.2118 O   0  0  0  0  0  0  0  0  0  0  0  0
   -8.1752   -4.1287   -2.6671 O   0  0  0  0  0  0  0  0  0  0  0  0
   -6.1741   -5.1860   -1.6244 O   0  0  0  0  0  0  0  0  0  0  0  0
  -10.7871   -9.8799   -0.4730 C   0  0  0  0  0  0  0  0  0  0  0  0
  -10.5101  -10.3363    0.4866 H   0  0  0  0  0  0  0  0  0  0  0  0
  -11.8640   -9.6856   -0.4385 H   0  0  0  0  0  0  0  0  0  0  0  0
  -10.6013  -10.6263   -1.2518 H   0  0  0  0  0  0  0  0  0  0  0  0
  1  8  1  0  0  0  0
  1  2  1  0  0  0  0
  2  3  1  0  0  0  0
  4  1  2  0  0  0  0
  5  6  2  0  0  0  0
  5  4  1  0  0  0  0
  6  7  1  0  0  0  0
  7 12  1  0  0  0  0
  7  8  2  0  0  0  0
  8 13  1  0  0  0  0
  9  4  1  0  0  0  0
 10  5  1  0  0  0  0
 11  6  1  0  0  0  0
 14 15  1  0  0  0  0
 14 20  1  0  0  0  0
 15 21  1  0  0  0  0
 16 28  1  0  0  0  0
 16 15  2  0  0  0  0
 17 16  1  0  0  0  0
 18 17  2  0  0  0  0
 18 19  1  0  0  0  0
 19 14  2  0  0  0  0
 22 17  1  0  0  0  0
 23 18  1  0  0  0  0
 24 19  1  0  0  0  0
 24 25  1  0  0  0  0
 26 24  2  0  0  0  0
 27 24  2  0  0  0  0
 28 30  1  0  0  0  0
 28 29  1  0  0  0  0
 31 28  1  0  0  0  0
M  RAD  3   2   2   3   3  25   2
M  END
