Coordinates from ORCA-job PhN2+~TsO-_B3LYPG-6-31G_dp-NX-Scan-d89-09-n800
 OpenBabel11261920463D

 31 32  0  0  0  0  0  0  0  0999 V2000
   -4.3913   -2.4822   -0.6726 C   0  0  0  0  0  0  0  0  0  0  0  0
   -5.5142   -3.3427   -0.5564 N   0  0  0  0  0  0  0  0  0  0  0  0
   -6.2795   -3.4525   -1.5797 N   0  0  0  0  0  0  0  0  0  0  0  0
   -3.7332   -2.2675    0.5518 C   0  0  0  0  0  0  0  0  0  0  0  0
   -2.6000   -1.4655    0.6154 C   0  0  0  0  0  0  0  0  0  0  0  0
   -2.0961   -0.8670   -0.5429 C   0  0  0  0  0  0  0  0  0  0  0  0
   -2.7415   -1.0808   -1.7602 C   0  0  0  0  0  0  0  0  0  0  0  0
   -3.8844   -1.8793   -1.8383 C   0  0  0  0  0  0  0  0  0  0  0  0
   -4.1383   -2.7414    1.4393 H   0  0  0  0  0  0  0  0  0  0  0  0
   -2.1084   -1.3075    1.5708 H   0  0  0  0  0  0  0  0  0  0  0  0
   -1.2088   -0.2432   -0.4963 H   0  0  0  0  0  0  0  0  0  0  0  0
   -2.3569   -0.6232   -2.6669 H   0  0  0  0  0  0  0  0  0  0  0  0
   -4.3564   -2.0240   -2.8009 H   0  0  0  0  0  0  0  0  0  0  0  0
   -8.2916   -7.3660   -1.1065 C   0  0  0  0  0  0  0  0  0  0  0  0
   -9.2512   -8.3168   -1.4447 C   0  0  0  0  0  0  0  0  0  0  0  0
  -10.5399   -8.2746   -0.8885 C   0  0  0  0  0  0  0  0  0  0  0  0
  -10.8438   -7.2487    0.0167 C   0  0  0  0  0  0  0  0  0  0  0  0
   -9.8930   -6.2895    0.3664 C   0  0  0  0  0  0  0  0  0  0  0  0
   -8.6257   -6.3523   -0.2059 C   0  0  0  0  0  0  0  0  0  0  0  0
   -7.3013   -7.4043   -1.5512 H   0  0  0  0  0  0  0  0  0  0  0  0
   -8.9998   -9.1028   -2.1526 H   0  0  0  0  0  0  0  0  0  0  0  0
  -11.8376   -7.2008    0.4543 H   0  0  0  0  0  0  0  0  0  0  0  0
  -10.1153   -5.4934    1.0705 H   0  0  0  0  0  0  0  0  0  0  0  0
   -7.3695   -5.1461    0.3184 S   0  0  1  0  0  0  0  0  0  0  0  0
   -7.4341   -4.4286   -1.2550 O   0  0  0  0  0  0  0  0  0  0  0  0
   -6.3438   -3.0764   -2.5258 O   0  0  0  0  0  0  0  0  0  0  0  0
   -8.0388   -4.2697    1.3161 O   0  0  0  0  0  0  0  0  0  0  0  0
  -11.5622   -9.3291   -1.2393 C   0  0  0  0  0  0  0  0  0  0  0  0
  -11.4979   -9.6132   -2.2942 H   0  0  0  0  0  0  0  0  0  0  0  0
  -11.4073  -10.2403   -0.6486 H   0  0  0  0  0  0  0  0  0  0  0  0
  -12.5800   -8.9812   -1.0418 H   0  0  0  0  0  0  0  0  0  0  0  0
  1  2  1  0  0  0  0
  1  4  2  0  0  0  0
  3 25  1  0  0  0  0
  3  2  1  0  0  0  0
  4  5  1  0  0  0  0
  4  9  1  0  0  0  0
  5 10  1  0  0  0  0
  6 11  1  0  0  0  0
  6  5  2  0  0  0  0
  7  6  1  0  0  0  0
  8  7  2  0  0  0  0
  8  1  1  0  0  0  0
 12  7  1  0  0  0  0
 13  8  1  0  0  0  0
 14 19  1  0  0  0  0
 15 14  2  0  0  0  0
 15 16  1  0  0  0  0
 16 17  2  0  0  0  0
 17 18  1  0  0  0  0
 17 22  1  0  0  0  0
 18 23  1  0  0  0  0
 19 24  1  0  0  0  0
 19 18  2  0  0  0  0
 20 14  1  0  0  0  0
 21 15  1  0  0  0  0
 24 25  1  6  0  0  0
 24 27  1  0  0  0  0
 26  3  1  0  0  0  0
 28 31  1  0  0  0  0
 28 16  1  0  0  0  0
 28 30  1  0  0  0  0
 29 28  1  0  0  0  0
M  RAD  3   2   2  26   2  27   2
M  END
