Coordinates from ORCA-job PhN2+~TsO-_B3LYPG-6-31G_dp-NX-Scan-d89-09-n800
 OpenBabel11261920463D

 31 32  0  0  1  0  0  0  0  0999 V2000
   -5.3678   -1.3776   -0.6749 C   0  0  2  0  0  0  0  0  0  0  0  0
   -6.6174   -0.9894   -0.7260 N   0  0  0  0  0  0  0  0  0  0  0  0
   -7.7284   -0.7420   -0.7650 N   0  0  0  0  0  0  0  0  0  0  0  0
   -4.8145   -2.0214   -1.8688 C   0  0  0  0  0  0  0  0  0  0  0  0
   -4.1912   -3.1985   -1.6925 C   0  0  0  0  0  0  0  0  0  0  0  0
   -4.3489   -3.8467   -0.3496 C   0  0  1  0  0  0  0  0  0  0  0  0
   -4.1755   -2.8641    0.7727 C   0  0  0  0  0  0  0  0  0  0  0  0
   -4.7995   -1.6821    0.6410 C   0  0  0  0  0  0  0  0  0  0  0  0
   -4.9160   -1.5384   -2.8363 H   0  0  0  0  0  0  0  0  0  0  0  0
   -3.6860   -3.7221   -2.4967 H   0  0  0  0  0  0  0  0  0  0  0  0
   -3.7592   -4.7541   -0.2269 H   0  0  0  0  0  0  0  0  0  0  0  0
   -3.6628   -3.1600    1.6814 H   0  0  0  0  0  0  0  0  0  0  0  0
   -4.8976   -0.9639    1.4495 H   0  0  0  0  0  0  0  0  0  0  0  0
   -8.8679   -5.5555   -0.1531 C   0  0  0  0  0  0  0  0  0  0  0  0
   -9.8852   -6.1907   -0.8584 C   0  0  0  0  0  0  0  0  0  0  0  0
   -9.6582   -7.4048   -1.5265 C   0  0  0  0  0  0  0  0  0  0  0  0
   -8.3774   -7.9696   -1.4706 C   0  0  0  0  0  0  0  0  0  0  0  0
   -7.3430   -7.3455   -0.7739 C   0  0  0  0  0  0  0  0  0  0  0  0
   -7.5994   -6.1398   -0.1234 C   0  0  0  0  0  0  0  0  0  0  0  0
   -9.0492   -4.6264    0.3756 H   0  0  0  0  0  0  0  0  0  0  0  0
  -10.8742   -5.7403   -0.8877 H   0  0  0  0  0  0  0  0  0  0  0  0
   -8.1870   -8.9131   -1.9742 H   0  0  0  0  0  0  0  0  0  0  0  0
   -6.3543   -7.7883   -0.7205 H   0  0  0  0  0  0  0  0  0  0  0  0
   -6.2874   -5.3364    0.7805 S   0  0  0  0  0  0  0  0  0  0  0  0
   -6.8702   -4.6066    1.9059 O   0  0  0  0  0  0  0  0  0  0  0  0
   -5.8127   -4.2698   -0.3695 O   0  0  0  0  0  0  0  0  0  0  0  0
   -5.1951   -6.2888    1.0096 O   0  0  0  0  0  0  0  0  0  0  0  0
  -10.7793   -8.0866   -2.2731 C   0  0  0  0  0  0  0  0  0  0  0  0
  -11.5664   -8.4171   -1.5854 H   0  0  0  0  0  0  0  0  0  0  0  0
  -11.2471   -7.4069   -2.9938 H   0  0  0  0  0  0  0  0  0  0  0  0
  -10.4228   -8.9642   -2.8182 H   0  0  0  0  0  0  0  0  0  0  0  0
  1  2  1  1  0  0  0
  1  8  1  0  0  0  0
  3  2  1  0  0  0  0
  4  5  2  0  0  0  0
  4  1  1  0  0  0  0
  5  6  1  0  0  0  0
  6 11  1  1  0  0  0
  6  7  1  0  0  0  0
  7 12  1  0  0  0  0
  8  7  2  0  0  0  0
  8 13  1  0  0  0  0
  9  4  1  0  0  0  0
 10  5  1  0  0  0  0
 14 19  1  0  0  0  0
 14 20  1  0  0  0  0
 15 14  2  0  0  0  0
 16 17  2  0  0  0  0
 16 15  1  0  0  0  0
 17 18  1  0  0  0  0
 18 23  1  0  0  0  0
 18 19  2  0  0  0  0
 19 24  1  0  0  0  0
 21 15  1  0  0  0  0
 22 17  1  0  0  0  0
 24 27  2  0  0  0  0
 24 25  2  0  0  0  0
 26  6  1  0  0  0  0
 26 24  1  0  0  0  0
 28 29  1  0  0  0  0
 28 16  1  0  0  0  0
 30 28  1  0  0  0  0
 31 28  1  0  0  0  0
M  RAD  3   1   2   2   2   3   3
M  END
