Coordinates from ORCA-job PhN2+~TsO-_B3LYPG-6-31G_dp-NX-Scan-d89-09-n800
 OpenBabel11261920463D

 31 31  0  0  0  0  0  0  0  0999 V2000
   -4.1667   -0.4369   -0.4639 C   0  0  0  0  0  0  0  0  0  0  0  0
   -4.0023    0.8986   -0.3416 N   0  0  0  0  0  0  0  0  0  0  0  0
   -3.8564    2.0107   -0.2295 N   0  0  0  0  0  0  0  0  0  0  0  0
   -3.6433   -1.0781   -1.6188 C   0  0  0  0  0  0  0  0  0  0  0  0
   -3.7707   -2.4482   -1.7003 C   0  0  0  0  0  0  0  0  0  0  0  0
   -4.4025   -3.1785   -0.6718 C   0  0  0  0  0  0  0  0  0  0  0  0
   -4.9463   -2.5137    0.4521 C   0  0  0  0  0  0  0  0  0  0  0  0
   -4.8344   -1.1473    0.5751 C   0  0  0  0  0  0  0  0  0  0  0  0
   -3.1504   -0.4953   -2.3892 H   0  0  0  0  0  0  0  0  0  0  0  0
   -3.3731   -2.9714   -2.5631 H   0  0  0  0  0  0  0  0  0  0  0  0
   -4.4293   -4.2649   -0.7012 H   0  0  0  0  0  0  0  0  0  0  0  0
   -5.4890   -3.1020    1.1893 H   0  0  0  0  0  0  0  0  0  0  0  0
   -5.2358   -0.6113    1.4279 H   0  0  0  0  0  0  0  0  0  0  0  0
   -9.3473   -6.2348   -0.1203 C   0  0  0  0  0  0  0  0  0  0  0  0
  -10.3561   -7.1408   -0.4371 C   0  0  0  0  0  0  0  0  0  0  0  0
  -10.0738   -8.3269   -1.1323 C   0  0  0  0  0  0  0  0  0  0  0  0
   -8.7464   -8.5804   -1.5016 C   0  0  0  0  0  0  0  0  0  0  0  0
   -7.7270   -7.6798   -1.1922 C   0  0  0  0  0  0  0  0  0  0  0  0
   -8.0308   -6.5073   -0.5011 C   0  0  0  0  0  0  0  0  0  0  0  0
   -9.5644   -5.3267    0.4316 H   0  0  0  0  0  0  0  0  0  0  0  0
  -11.3798   -6.9291   -0.1365 H   0  0  0  0  0  0  0  0  0  0  0  0
   -8.5071   -9.4977   -2.0344 H   0  0  0  0  0  0  0  0  0  0  0  0
   -6.6967   -7.8798   -1.4655 H   0  0  0  0  0  0  0  0  0  0  0  0
   -6.7308   -5.3183   -0.1430 S   0  0  0  0  0  0  0  0  0  0  0  0
   -7.0821   -4.7027    1.1678 O   0  0  0  0  0  0  0  0  0  0  0  0
   -6.7824   -4.3256   -1.2784 O   0  0  0  0  0  0  0  0  0  0  0  0
   -5.4493   -6.0797   -0.1442 O   0  0  0  0  0  0  0  0  0  0  0  0
  -11.1728   -9.3146   -1.4479 C   0  0  0  0  0  0  0  0  0  0  0  0
  -11.4689   -9.8795   -0.5550 H   0  0  0  0  0  0  0  0  0  0  0  0
  -12.0708   -8.8099   -1.8197 H   0  0  0  0  0  0  0  0  0  0  0  0
  -10.8550  -10.0388   -2.2037 H   0  0  0  0  0  0  0  0  0  0  0  0
  1  2  1  0  0  0  0
  1  8  2  0  0  0  0
  2  3  1  0  0  0  0
  4  1  1  0  0  0  0
  5  4  2  0  0  0  0
  5  6  1  0  0  0  0
  6  7  2  0  0  0  0
  7  8  1  0  0  0  0
  7 12  1  0  0  0  0
  8 13  1  0  0  0  0
  9  4  1  0  0  0  0
 10  5  1  0  0  0  0
 11  6  1  0  0  0  0
 14 20  1  0  0  0  0
 15 21  1  0  0  0  0
 15 14  1  0  0  0  0
 16 15  2  0  0  0  0
 17 18  2  0  0  0  0
 17 16  1  0  0  0  0
 18 19  1  0  0  0  0
 19 24  1  0  0  0  0
 19 14  2  0  0  0  0
 22 17  1  0  0  0  0
 23 18  1  0  0  0  0
 24 25  1  0  0  0  0
 26 24  2  0  0  0  0
 27 24  2  0  0  0  0
 28 16  1  0  0  0  0
 28 29  1  0  0  0  0
 30 28  1  0  0  0  0
 31 28  1  0  0  0  0
M  RAD  3   2   2   3   3  25   2
M  END
