Coordinates from ORCA-job PhN2+~TsO-_B3LYPG-6-31G_dp-NX-Scan-d89-09-n800
 OpenBabel11261920463D

 31 31  0  0  0  0  0  0  0  0999 V2000
   -4.5820   -2.3093   -1.1672 C   0  0  0  0  0  0  0  0  0  0  0  0
   -5.8501   -2.6335   -1.6770 N   0  0  0  0  0  0  0  0  0  0  0  0
   -6.7147   -3.4025   -1.6588 N   0  0  0  0  0  0  0  0  0  0  0  0
   -4.0414   -1.0915   -1.6030 C   0  0  0  0  0  0  0  0  0  0  0  0
   -2.7938   -0.7029   -1.1283 C   0  0  0  0  0  0  0  0  0  0  0  0
   -2.1058   -1.5262   -0.2314 C   0  0  0  0  0  0  0  0  0  0  0  0
   -2.6597   -2.7383    0.1932 C   0  0  0  0  0  0  0  0  0  0  0  0
   -3.9059   -3.1522   -0.2681 C   0  0  0  0  0  0  0  0  0  0  0  0
   -4.6045   -0.4750   -2.2951 H   0  0  0  0  0  0  0  0  0  0  0  0
   -2.3610    0.2371   -1.4530 H   0  0  0  0  0  0  0  0  0  0  0  0
   -1.1323   -1.2212    0.1393 H   0  0  0  0  0  0  0  0  0  0  0  0
   -2.1185   -3.3692    0.8910 H   0  0  0  0  0  0  0  0  0  0  0  0
   -4.3659   -4.0824    0.0399 H   0  0  0  0  0  0  0  0  0  0  0  0
   -9.6959   -5.6197   -0.6906 C   0  0  0  0  0  0  0  0  0  0  0  0
  -10.6425   -6.4819   -1.2423 C   0  0  0  0  0  0  0  0  0  0  0  0
  -10.4672   -7.8719   -1.2033 C   0  0  0  0  0  0  0  0  0  0  0  0
   -9.3110   -8.3812   -0.5938 C   0  0  0  0  0  0  0  0  0  0  0  0
   -8.3557   -7.5332   -0.0378 C   0  0  0  0  0  0  0  0  0  0  0  0
   -8.5532   -6.1525   -0.0938 C   0  0  0  0  0  0  0  0  0  0  0  0
   -9.8393   -4.5446   -0.7068 H   0  0  0  0  0  0  0  0  0  0  0  0
  -11.5346   -6.0688   -1.7064 H   0  0  0  0  0  0  0  0  0  0  0  0
   -9.1598   -9.4573   -0.5502 H   0  0  0  0  0  0  0  0  0  0  0  0
   -7.4702   -7.9294    0.4472 H   0  0  0  0  0  0  0  0  0  0  0  0
   -7.3145   -5.0531    0.5916 S   0  0  0  0  0  0  0  0  0  0  0  0
   -7.9653   -3.7622    0.8623 O   0  0  0  0  0  0  0  0  0  0  0  0
   -6.2633   -4.8828   -0.5717 O   0  0  0  0  0  0  0  0  0  0  0  0
   -6.6415   -5.7667    1.6843 O   0  0  0  0  0  0  0  0  0  0  0  0
  -11.5137   -8.8006   -1.7719 C   0  0  0  0  0  0  0  0  0  0  0  0
  -12.2375   -9.0961   -1.0021 H   0  0  0  0  0  0  0  0  0  0  0  0
  -12.0753   -8.3233   -2.5806 H   0  0  0  0  0  0  0  0  0  0  0  0
  -11.0656   -9.7181   -2.1641 H   0  0  0  0  0  0  0  0  0  0  0  0
  1  8  1  0  0  0  0
  2  3  2  0  0  0  0
  2  1  1  0  0  0  0
  4  1  2  0  0  0  0
  4  5  1  0  0  0  0
  5  6  2  0  0  0  0
  6 11  1  0  0  0  0
  6  7  1  0  0  0  0
  7 12  1  0  0  0  0
  8 13  1  0  0  0  0
  8  7  2  0  0  0  0
  9  4  1  0  0  0  0
 10  5  1  0  0  0  0
 14 19  2  0  0  0  0
 15 16  2  0  0  0  0
 15 14  1  0  0  0  0
 16 17  1  0  0  0  0
 17 22  1  0  0  0  0
 17 18  2  0  0  0  0
 18 23  1  0  0  0  0
 19 18  1  0  0  0  0
 19 24  1  0  0  0  0
 20 14  1  0  0  0  0
 21 15  1  0  0  0  0
 24 25  2  0  0  0  0
 24 27  1  0  0  0  0
 26 24  2  0  0  0  0
 28 16  1  0  0  0  0
 28 29  1  0  0  0  0
 30 28  1  0  0  0  0
 31 28  1  0  0  0  0
M  RAD  2   3   2  27   2
M  END
