Coordinates from ORCA-job PhN2+~TsO-_B3LYPG-6-31G_dp-NX-Scan-d89-09-n800
 OpenBabel11261920463D

 31 31  0  0  0  0  0  0  0  0999 V2000
   -3.6743   -0.5395    0.0633 C   0  0  0  0  0  0  0  0  0  0  0  0
   -3.3500    0.6571    0.6136 N   0  0  0  0  0  0  0  0  0  0  0  0
   -3.1042    1.6481    1.0841 N   0  0  0  0  0  0  0  0  0  0  0  0
   -2.7431   -1.1559   -0.8102 C   0  0  0  0  0  0  0  0  0  0  0  0
   -3.1100   -2.3667   -1.3666 C   0  0  0  0  0  0  0  0  0  0  0  0
   -4.3611   -2.9402   -1.0751 C   0  0  0  0  0  0  0  0  0  0  0  0
   -5.2645   -2.3130   -0.1939 C   0  0  0  0  0  0  0  0  0  0  0  0
   -4.9354   -1.1050    0.3886 C   0  0  0  0  0  0  0  0  0  0  0  0
   -1.7931   -0.6795   -1.0244 H   0  0  0  0  0  0  0  0  0  0  0  0
   -2.4271   -2.8689   -2.0441 H   0  0  0  0  0  0  0  0  0  0  0  0
   -4.6946   -3.8807   -1.5196 H   0  0  0  0  0  0  0  0  0  0  0  0
   -6.2311   -2.7982   -0.0019 H   0  0  0  0  0  0  0  0  0  0  0  0
   -5.6059   -0.5897    1.0682 H   0  0  0  0  0  0  0  0  0  0  0  0
   -9.7125   -6.2268   -0.4033 C   0  0  0  0  0  0  0  0  0  0  0  0
  -10.4662   -7.3874   -0.2401 C   0  0  0  0  0  0  0  0  0  0  0  0
  -10.0247   -8.6164   -0.7513 C   0  0  0  0  0  0  0  0  0  0  0  0
   -8.8025   -8.6488   -1.4354 C   0  0  0  0  0  0  0  0  0  0  0  0
   -8.0395   -7.4932   -1.6054 C   0  0  0  0  0  0  0  0  0  0  0  0
   -8.4963   -6.2815   -1.0875 C   0  0  0  0  0  0  0  0  0  0  0  0
  -10.0508   -5.2809    0.0062 H   0  0  0  0  0  0  0  0  0  0  0  0
  -11.4132   -7.3403    0.2929 H   0  0  0  0  0  0  0  0  0  0  0  0
   -8.4421   -9.5921   -1.8397 H   0  0  0  0  0  0  0  0  0  0  0  0
   -7.0870   -7.5205   -2.1229 H   0  0  0  0  0  0  0  0  0  0  0  0
   -7.5582   -4.7694   -1.3623 S   0  0  0  0  0  0  0  0  0  0  0  0
   -7.7377   -3.9788   -0.0992 O   0  0  0  0  0  0  0  0  0  0  0  0
   -8.1226   -4.1054   -2.5594 O   0  0  0  0  0  0  0  0  0  0  0  0
   -6.1399   -5.2261   -1.5484 O   0  0  0  0  0  0  0  0  0  0  0  0
  -10.8304   -9.8768   -0.5399 C   0  0  0  0  0  0  0  0  0  0  0  0
  -10.5854  -10.3501    0.4203 H   0  0  0  0  0  0  0  0  0  0  0  0
  -11.9055   -9.6694   -0.5313 H   0  0  0  0  0  0  0  0  0  0  0  0
  -10.6331  -10.6146   -1.3240 H   0  0  0  0  0  0  0  0  0  0  0  0
  1  8  1  0  0  0  0
  1  2  1  0  0  0  0
  2  3  1  0  0  0  0
  4  1  2  0  0  0  0
  5  6  2  0  0  0  0
  5  4  1  0  0  0  0
  6  7  1  0  0  0  0
  7 12  1  0  0  0  0
  7  8  2  0  0  0  0
  8 13  1  0  0  0  0
  9  4  1  0  0  0  0
 10  5  1  0  0  0  0
 11  6  1  0  0  0  0
 14 15  1  0  0  0  0
 14 20  1  0  0  0  0
 15 21  1  0  0  0  0
 16 28  1  0  0  0  0
 16 15  2  0  0  0  0
 17 16  1  0  0  0  0
 18 17  2  0  0  0  0
 18 19  1  0  0  0  0
 19 14  2  0  0  0  0
 22 17  1  0  0  0  0
 23 18  1  0  0  0  0
 24 19  1  0  0  0  0
 24 25  1  0  0  0  0
 26 24  2  0  0  0  0
 27 24  2  0  0  0  0
 28 30  1  0  0  0  0
 28 29  1  0  0  0  0
 31 28  1  0  0  0  0
M  RAD  3   2   2   3   3  25   2
M  END
