Coordinates from ORCA-job PhN2+~TsO-_B3LYPG-6-31G_dp-NX-Scan-d89-09-n800
 OpenBabel11261920463D

 31 32  0  0  1  0  0  0  0  0999 V2000
   -5.0455   -0.9434   -0.9801 C   0  0  0  0  0  0  0  0  0  0  0  0
   -5.2957    0.2559   -1.4484 N   0  0  0  0  0  0  0  0  0  0  0  0
   -5.5225    1.2983   -1.8595 N   0  0  0  0  0  0  0  0  0  0  0  0
   -4.4061   -1.9285   -1.8277 C   0  0  0  0  0  0  0  0  0  0  0  0
   -4.2126   -3.1793   -1.3703 C   0  0  0  0  0  0  0  0  0  0  0  0
   -4.7219   -3.6312   -0.0415 C   0  0  1  0  0  0  0  0  0  0  0  0
   -5.2069   -2.5272    0.8412 C   0  0  0  0  0  0  0  0  0  0  0  0
   -5.4020   -1.2767    0.3847 C   0  0  0  0  0  0  0  0  0  0  0  0
   -4.0730   -1.6282   -2.8159 H   0  0  0  0  0  0  0  0  0  0  0  0
   -3.7211   -3.9230   -1.9885 H   0  0  0  0  0  0  0  0  0  0  0  0
   -3.9926   -4.2727    0.4637 H   0  0  0  0  0  0  0  0  0  0  0  0
   -5.4618   -2.7911    1.8616 H   0  0  0  0  0  0  0  0  0  0  0  0
   -5.8058   -0.4963    1.0224 H   0  0  0  0  0  0  0  0  0  0  0  0
   -8.7284   -6.2302    0.3269 C   0  0  0  0  0  0  0  0  0  0  0  0
   -9.8740   -6.7615   -0.2568 C   0  0  0  0  0  0  0  0  0  0  0  0
   -9.7930   -7.6259   -1.3606 C   0  0  0  0  0  0  0  0  0  0  0  0
   -8.5268   -7.9521   -1.8641 C   0  0  0  0  0  0  0  0  0  0  0  0
   -7.3670   -7.4301   -1.2936 C   0  0  0  0  0  0  0  0  0  0  0  0
   -7.4816   -6.5678   -0.2042 C   0  0  0  0  0  0  0  0  0  0  0  0
   -8.7891   -5.5749    1.1888 H   0  0  0  0  0  0  0  0  0  0  0  0
  -10.8479   -6.5061    0.1524 H   0  0  0  0  0  0  0  0  0  0  0  0
   -8.4465   -8.6267   -2.7120 H   0  0  0  0  0  0  0  0  0  0  0  0
   -6.3864   -7.6933   -1.6738 H   0  0  0  0  0  0  0  0  0  0  0  0
   -6.0064   -5.8946    0.5333 S   0  0  0  0  0  0  0  0  0  0  0  0
   -6.2695   -5.5384    1.9308 O   0  0  0  0  0  0  0  0  0  0  0  0
   -5.9081   -4.5245   -0.3547 O   0  0  0  0  0  0  0  0  0  0  0  0
   -4.8603   -6.7498    0.2123 O   0  0  0  0  0  0  0  0  0  0  0  0
  -11.0473   -8.1897   -1.9835 C   0  0  0  0  0  0  0  0  0  0  0  0
  -11.6544   -8.7199   -1.2411 H   0  0  0  0  0  0  0  0  0  0  0  0
  -11.6732   -7.3921   -2.4004 H   0  0  0  0  0  0  0  0  0  0  0  0
  -10.8145   -8.8894   -2.7904 H   0  0  0  0  0  0  0  0  0  0  0  0
  1  8  1  0  0  0  0
  2  1  1  0  0  0  0
  3  2  1  0  0  0  0
  4  5  1  0  0  0  0
  4  1  2  0  0  0  0
  5  6  1  0  0  0  0
  6 11  1  1  0  0  0
  6  7  1  0  0  0  0
  7 12  1  0  0  0  0
  8  7  2  0  0  0  0
  8 13  1  0  0  0  0
  9  4  1  0  0  0  0
 10  5  1  0  0  0  0
 14 20  1  0  0  0  0
 15 21  1  0  0  0  0
 15 14  2  0  0  0  0
 16 15  1  0  0  0  0
 17 16  2  0  0  0  0
 17 18  1  0  0  0  0
 18 19  2  0  0  0  0
 19 14  1  0  0  0  0
 19 24  1  0  0  0  0
 22 17  1  0  0  0  0
 23 18  1  0  0  0  0
 24 25  2  0  0  0  0
 26  6  1  0  0  0  0
 26 24  1  0  0  0  0
 27 24  2  0  0  0  0
 28 16  1  0  0  0  0
 28 29  1  0  0  0  0
 30 28  1  0  0  0  0
 31 28  1  0  0  0  0
M  RAD  3   2   2   3   3   5   2
M  END
