Coordinates from ORCA-job PhN2+~TsO-_B3LYPG-6-31G_dp-NX-Scan-d89-09-n800
 OpenBabel11261920463D

 31 32  0  0  1  0  0  0  0  0999 V2000
   -5.4639   -1.4103   -0.6481 C   0  0  2  0  0  0  0  0  0  0  0  0
   -6.7672   -1.2755   -0.6704 N   0  0  0  0  0  0  0  0  0  0  0  0
   -7.9060   -1.2584   -0.6834 N   0  0  0  0  0  0  0  0  0  0  0  0
   -4.8518   -1.9902   -1.8551 C   0  0  0  0  0  0  0  0  0  0  0  0
   -4.1701   -3.1355   -1.6946 C   0  0  0  0  0  0  0  0  0  0  0  0
   -4.3161   -3.8154   -0.3632 C   0  0  1  0  0  0  0  0  0  0  0  0
   -4.1731   -2.8411    0.7739 C   0  0  0  0  0  0  0  0  0  0  0  0
   -4.8548   -1.6905    0.6628 C   0  0  0  0  0  0  0  0  0  0  0  0
   -4.9646   -1.4898   -2.8125 H   0  0  0  0  0  0  0  0  0  0  0  0
   -3.6180   -3.6131   -2.4969 H   0  0  0  0  0  0  0  0  0  0  0  0
   -3.6991   -4.7063   -0.2532 H   0  0  0  0  0  0  0  0  0  0  0  0
   -3.6262   -3.1209    1.6680 H   0  0  0  0  0  0  0  0  0  0  0  0
   -4.9768   -0.9844    1.4788 H   0  0  0  0  0  0  0  0  0  0  0  0
   -8.7754   -5.4617   -0.2762 C   0  0  0  0  0  0  0  0  0  0  0  0
   -9.8117   -6.0786   -0.9696 C   0  0  0  0  0  0  0  0  0  0  0  0
   -9.6539   -7.3581   -1.5268 C   0  0  0  0  0  0  0  0  0  0  0  0
   -8.4212   -8.0057   -1.3761 C   0  0  0  0  0  0  0  0  0  0  0  0
   -7.3670   -7.4011   -0.6910 C   0  0  0  0  0  0  0  0  0  0  0  0
   -7.5561   -6.1319   -0.1481 C   0  0  0  0  0  0  0  0  0  0  0  0
   -8.9052   -4.4769    0.1590 H   0  0  0  0  0  0  0  0  0  0  0  0
  -10.7614   -5.5609   -1.0780 H   0  0  0  0  0  0  0  0  0  0  0  0
   -8.2828   -8.9973   -1.7975 H   0  0  0  0  0  0  0  0  0  0  0  0
   -6.4136   -7.9034   -0.5681 H   0  0  0  0  0  0  0  0  0  0  0  0
   -6.2216   -5.3585    0.7476 S   0  0  0  0  0  0  0  0  0  0  0  0
   -6.7736   -4.6395    1.8951 O   0  0  0  0  0  0  0  0  0  0  0  0
   -5.7639   -4.2784   -0.3987 O   0  0  0  0  0  0  0  0  0  0  0  0
   -5.1328   -6.3221    0.9413 O   0  0  0  0  0  0  0  0  0  0  0  0
  -10.7991   -8.0220   -2.2526 C   0  0  0  0  0  0  0  0  0  0  0  0
  -11.5789   -8.3372   -1.5490 H   0  0  0  0  0  0  0  0  0  0  0  0
  -11.2681   -7.3371   -2.9669 H   0  0  0  0  0  0  0  0  0  0  0  0
  -10.4678   -8.9087   -2.7990 H   0  0  0  0  0  0  0  0  0  0  0  0
  1  2  1  1  0  0  0
  1  8  1  0  0  0  0
  3  2  1  0  0  0  0
  4  5  2  0  0  0  0
  4  1  1  0  0  0  0
  5  6  1  0  0  0  0
  6 11  1  1  0  0  0
  6  7  1  0  0  0  0
  7 12  1  0  0  0  0
  8  7  2  0  0  0  0
  8 13  1  0  0  0  0
  9  4  1  0  0  0  0
 10  5  1  0  0  0  0
 14 19  1  0  0  0  0
 14 20  1  0  0  0  0
 15 14  2  0  0  0  0
 16 17  2  0  0  0  0
 16 15  1  0  0  0  0
 17 18  1  0  0  0  0
 18 23  1  0  0  0  0
 18 19  2  0  0  0  0
 19 24  1  0  0  0  0
 21 15  1  0  0  0  0
 22 17  1  0  0  0  0
 24 27  2  0  0  0  0
 24 25  2  0  0  0  0
 26  6  1  0  0  0  0
 26 24  1  0  0  0  0
 28 29  1  0  0  0  0
 28 16  1  0  0  0  0
 30 28  1  0  0  0  0
 31 28  1  0  0  0  0
M  RAD  3   1   2   2   2   3   3
M  END
