Coordinates from ORCA-job PhN2+~TsO-_B3LYPG-6-31G_dp-NX-Scan-d89-09-n800
 OpenBabel11261920463D

 31 32  0  0  1  0  0  0  0  0999 V2000
   -5.3951   -1.3877   -0.6629 C   0  0  2  0  0  0  0  0  0  0  0  0
   -6.6710   -1.0935   -0.6983 N   0  0  0  0  0  0  0  0  0  0  0  0
   -7.7982   -0.9325   -0.7233 N   0  0  0  0  0  0  0  0  0  0  0  0
   -4.8249   -2.0092   -1.8641 C   0  0  0  0  0  0  0  0  0  0  0  0
   -4.1841   -3.1777   -1.6966 C   0  0  0  0  0  0  0  0  0  0  0  0
   -4.3381   -3.8383   -0.3582 C   0  0  1  0  0  0  0  0  0  0  0  0
   -4.1677   -2.8607    0.7701 C   0  0  0  0  0  0  0  0  0  0  0  0
   -4.8090   -1.6873    0.6493 C   0  0  0  0  0  0  0  0  0  0  0  0
   -4.9310   -1.5182   -2.8271 H   0  0  0  0  0  0  0  0  0  0  0  0
   -3.6646   -3.6857   -2.5018 H   0  0  0  0  0  0  0  0  0  0  0  0
   -3.7432   -4.7432   -0.2425 H   0  0  0  0  0  0  0  0  0  0  0  0
   -3.6401   -3.1542    1.6711 H   0  0  0  0  0  0  0  0  0  0  0  0
   -4.9109   -0.9740    1.4617 H   0  0  0  0  0  0  0  0  0  0  0  0
   -8.8421   -5.5191   -0.1971 C   0  0  0  0  0  0  0  0  0  0  0  0
   -9.8637   -6.1508   -0.8994 C   0  0  0  0  0  0  0  0  0  0  0  0
   -9.6562   -7.3894   -1.5277 C   0  0  0  0  0  0  0  0  0  0  0  0
   -8.3900   -7.9816   -1.4367 C   0  0  0  0  0  0  0  0  0  0  0  0
   -7.3510   -7.3614   -0.7431 C   0  0  0  0  0  0  0  0  0  0  0  0
   -7.5885   -6.1320   -0.1311 C   0  0  0  0  0  0  0  0  0  0  0  0
   -9.0094   -4.5696    0.2989 H   0  0  0  0  0  0  0  0  0  0  0  0
  -10.8408   -5.6778   -0.9579 H   0  0  0  0  0  0  0  0  0  0  0  0
   -8.2143   -8.9432   -1.9106 H   0  0  0  0  0  0  0  0  0  0  0  0
   -6.3731   -7.8237   -0.6637 H   0  0  0  0  0  0  0  0  0  0  0  0
   -6.2714   -5.3349    0.7705 S   0  0  0  0  0  0  0  0  0  0  0  0
   -6.8474   -4.6041    1.8987 O   0  0  0  0  0  0  0  0  0  0  0  0
   -5.7989   -4.2679   -0.3808 O   0  0  0  0  0  0  0  0  0  0  0  0
   -5.1808   -6.2903    0.9945 O   0  0  0  0  0  0  0  0  0  0  0  0
  -10.7833   -8.0687   -2.2675 C   0  0  0  0  0  0  0  0  0  0  0  0
  -11.5645   -8.4013   -1.5738 H   0  0  0  0  0  0  0  0  0  0  0  0
  -11.2570   -7.3871   -2.9822 H   0  0  0  0  0  0  0  0  0  0  0  0
  -10.4316   -8.9454   -2.8171 H   0  0  0  0  0  0  0  0  0  0  0  0
  1  2  1  1  0  0  0
  1  8  1  0  0  0  0
  3  2  1  0  0  0  0
  4  5  2  0  0  0  0
  4  1  1  0  0  0  0
  5  6  1  0  0  0  0
  6 11  1  1  0  0  0
  6  7  1  0  0  0  0
  7 12  1  0  0  0  0
  8  7  2  0  0  0  0
  8 13  1  0  0  0  0
  9  4  1  0  0  0  0
 10  5  1  0  0  0  0
 14 19  1  0  0  0  0
 14 20  1  0  0  0  0
 15 14  2  0  0  0  0
 16 17  2  0  0  0  0
 16 15  1  0  0  0  0
 17 18  1  0  0  0  0
 18 23  1  0  0  0  0
 18 19  2  0  0  0  0
 19 24  1  0  0  0  0
 21 15  1  0  0  0  0
 22 17  1  0  0  0  0
 24 27  2  0  0  0  0
 24 25  2  0  0  0  0
 26  6  1  0  0  0  0
 26 24  1  0  0  0  0
 28 29  1  0  0  0  0
 28 16  1  0  0  0  0
 30 28  1  0  0  0  0
 31 28  1  0  0  0  0
M  RAD  3   1   2   2   2   3   3
M  END
