Coordinates from ORCA-job PhN2+~TsO-_B3LYPG-6-31G_dp-NX-Scan-d89-09-n800
 OpenBabel11261920463D

 31 32  0  0  1  0  0  0  0  0999 V2000
   -5.4259   -1.3783   -0.6443 C   0  0  2  0  0  0  0  0  0  0  0  0
   -6.7138   -1.6399   -0.5789 N   0  0  0  0  0  0  0  0  0  0  0  0
   -7.7831   -2.0191   -0.5146 N   0  0  0  0  0  0  0  0  0  0  0  0
   -4.8060   -1.9546   -1.8732 C   0  0  0  0  0  0  0  0  0  0  0  0
   -4.1931   -3.1358   -1.7204 C   0  0  0  0  0  0  0  0  0  0  0  0
   -4.3657   -3.8025   -0.3800 C   0  0  1  0  0  0  0  0  0  0  0  0
   -4.1106   -2.8283    0.7446 C   0  0  0  0  0  0  0  0  0  0  0  0
   -4.7268   -1.6427    0.6469 C   0  0  0  0  0  0  0  0  0  0  0  0
   -4.8777   -1.4314   -2.8226 H   0  0  0  0  0  0  0  0  0  0  0  0
   -3.6471   -3.6356   -2.5145 H   0  0  0  0  0  0  0  0  0  0  0  0
   -3.8136   -4.7355   -0.2789 H   0  0  0  0  0  0  0  0  0  0  0  0
   -3.5139   -3.1270    1.6009 H   0  0  0  0  0  0  0  0  0  0  0  0
   -4.7527   -0.9082    1.4466 H   0  0  0  0  0  0  0  0  0  0  0  0
   -8.8698   -5.4265   -0.2618 C   0  0  0  0  0  0  0  0  0  0  0  0
   -9.8750   -6.0792   -0.9689 C   0  0  0  0  0  0  0  0  0  0  0  0
   -9.6599   -7.3425   -1.5427 C   0  0  0  0  0  0  0  0  0  0  0  0
   -8.4009   -7.9388   -1.3939 C   0  0  0  0  0  0  0  0  0  0  0  0
   -7.3778   -7.2992   -0.6947 C   0  0  0  0  0  0  0  0  0  0  0  0
   -7.6240   -6.0457   -0.1367 C   0  0  0  0  0  0  0  0  0  0  0  0
   -9.0419   -4.4538    0.1835 H   0  0  0  0  0  0  0  0  0  0  0  0
  -10.8455   -5.6014   -1.0755 H   0  0  0  0  0  0  0  0  0  0  0  0
   -8.2177   -8.9179   -1.8272 H   0  0  0  0  0  0  0  0  0  0  0  0
   -6.4056   -7.7636   -0.5713 H   0  0  0  0  0  0  0  0  0  0  0  0
   -6.3262   -5.2328    0.7776 S   0  0  0  0  0  0  0  0  0  0  0  0
   -6.9145   -4.5027    1.8981 O   0  0  0  0  0  0  0  0  0  0  0  0
   -5.8459   -4.1483   -0.3650 O   0  0  0  0  0  0  0  0  0  0  0  0
   -5.2278   -6.1772    1.0081 O   0  0  0  0  0  0  0  0  0  0  0  0
  -10.7719   -8.0471   -2.2812 C   0  0  0  0  0  0  0  0  0  0  0  0
  -11.5091   -8.4576   -1.5803 H   0  0  0  0  0  0  0  0  0  0  0  0
  -11.3067   -7.3604   -2.9453 H   0  0  0  0  0  0  0  0  0  0  0  0
  -10.3919   -8.8769   -2.8830 H   0  0  0  0  0  0  0  0  0  0  0  0
  1  2  1  1  0  0  0
  1  8  1  0  0  0  0
  2  3  1  0  0  0  0
  4  5  2  0  0  0  0
  4  1  1  0  0  0  0
  5  6  1  0  0  0  0
  6 26  1  0  0  0  0
  6 11  1  1  0  0  0
  6  7  1  0  0  0  0
  7 12  1  0  0  0  0
  8  7  2  0  0  0  0
  8 13  1  0  0  0  0
  9  4  1  0  0  0  0
 10  5  1  0  0  0  0
 14 19  1  0  0  0  0
 14 20  1  0  0  0  0
 15 14  2  0  0  0  0
 16 17  2  0  0  0  0
 16 15  1  0  0  0  0
 17 18  1  0  0  0  0
 18 23  1  0  0  0  0
 18 19  2  0  0  0  0
 19 24  1  0  0  0  0
 21 15  1  0  0  0  0
 22 17  1  0  0  0  0
 24 27  2  0  0  0  0
 24 25  2  0  0  0  0
 26 24  1  0  0  0  0
 28 29  1  0  0  0  0
 28 16  1  0  0  0  0
 30 28  1  0  0  0  0
 31 28  1  0  0  0  0
M  RAD  3   1   2   2   2   3   3
M  END
