Coordinates from ORCA-job PhN2+~TsO-_B3LYPG-6-31G_dp-NX-Scan-d89-09-n800
 OpenBabel11261920463D

 31 31  0  0  0  0  0  0  0  0999 V2000
   -3.6644   -0.5755    0.1109 C   0  0  0  0  0  0  0  0  0  0  0  0
   -3.3206    0.5926    0.7085 N   0  0  0  0  0  0  0  0  0  0  0  0
   -3.0575    1.5594    1.2186 N   0  0  0  0  0  0  0  0  0  0  0  0
   -2.7307   -1.1873   -0.7630 C   0  0  0  0  0  0  0  0  0  0  0  0
   -3.1155   -2.3701   -1.3655 C   0  0  0  0  0  0  0  0  0  0  0  0
   -4.3865   -2.9202   -1.1185 C   0  0  0  0  0  0  0  0  0  0  0  0
   -5.2927   -2.2986   -0.2363 C   0  0  0  0  0  0  0  0  0  0  0  0
   -4.9460   -1.1187    0.3919 C   0  0  0  0  0  0  0  0  0  0  0  0
   -1.7647   -0.7288   -0.9422 H   0  0  0  0  0  0  0  0  0  0  0  0
   -2.4309   -2.8681   -2.0444 H   0  0  0  0  0  0  0  0  0  0  0  0
   -4.7325   -3.8398   -1.5961 H   0  0  0  0  0  0  0  0  0  0  0  0
   -6.2732   -2.7680   -0.0778 H   0  0  0  0  0  0  0  0  0  0  0  0
   -5.6169   -0.6092    1.0754 H   0  0  0  0  0  0  0  0  0  0  0  0
   -9.7245   -6.2096   -0.4396 C   0  0  0  0  0  0  0  0  0  0  0  0
  -10.4578   -7.3775   -0.2382 C   0  0  0  0  0  0  0  0  0  0  0  0
  -10.0013   -8.6123   -0.7208 C   0  0  0  0  0  0  0  0  0  0  0  0
   -8.7853   -8.6434   -1.4160 C   0  0  0  0  0  0  0  0  0  0  0  0
   -8.0428   -7.4810   -1.6240 C   0  0  0  0  0  0  0  0  0  0  0  0
   -8.5142   -6.2631   -1.1339 C   0  0  0  0  0  0  0  0  0  0  0  0
  -10.0742   -5.2585   -0.0522 H   0  0  0  0  0  0  0  0  0  0  0  0
  -11.4005   -7.3312    0.3024 H   0  0  0  0  0  0  0  0  0  0  0  0
   -8.4135   -9.5913   -1.7989 H   0  0  0  0  0  0  0  0  0  0  0  0
   -7.0948   -7.5072   -2.1499 H   0  0  0  0  0  0  0  0  0  0  0  0
   -7.6028   -4.7443   -1.4585 S   0  0  0  0  0  0  0  0  0  0  0  0
   -7.7952   -3.9167   -0.2214 O   0  0  0  0  0  0  0  0  0  0  0  0
   -8.1793   -4.1309   -2.6762 O   0  0  0  0  0  0  0  0  0  0  0  0
   -6.1768   -5.1828   -1.6307 O   0  0  0  0  0  0  0  0  0  0  0  0
  -10.7835   -9.8799   -0.4675 C   0  0  0  0  0  0  0  0  0  0  0  0
  -10.5041  -10.3348    0.4921 H   0  0  0  0  0  0  0  0  0  0  0  0
  -11.8605   -9.6867   -0.4311 H   0  0  0  0  0  0  0  0  0  0  0  0
  -10.5985  -10.6271   -1.2457 H   0  0  0  0  0  0  0  0  0  0  0  0
  1  8  1  0  0  0  0
  1  2  1  0  0  0  0
  2  3  1  0  0  0  0
  4  1  2  0  0  0  0
  5  6  2  0  0  0  0
  5  4  1  0  0  0  0
  6  7  1  0  0  0  0
  7 12  1  0  0  0  0
  7  8  2  0  0  0  0
  8 13  1  0  0  0  0
  9  4  1  0  0  0  0
 10  5  1  0  0  0  0
 11  6  1  0  0  0  0
 14 15  1  0  0  0  0
 14 20  1  0  0  0  0
 15 21  1  0  0  0  0
 16 28  1  0  0  0  0
 16 15  2  0  0  0  0
 17 16  1  0  0  0  0
 18 17  2  0  0  0  0
 18 19  1  0  0  0  0
 19 14  2  0  0  0  0
 22 17  1  0  0  0  0
 23 18  1  0  0  0  0
 24 19  1  0  0  0  0
 24 25  1  0  0  0  0
 26 24  2  0  0  0  0
 27 24  2  0  0  0  0
 28 30  1  0  0  0  0
 28 29  1  0  0  0  0
 31 28  1  0  0  0  0
M  RAD  3   2   2   3   3  25   2
M  END
