Coordinates from ORCA-job PhN2+~TsO-_B3LYPG-6-31G_dp-NX-Scan-d89-09-n800
 OpenBabel11261920463D

 31 31  0  0  0  0  0  0  0  0999 V2000
   -4.5573   -2.1158   -1.1546 C   0  0  0  0  0  0  0  0  0  0  0  0
   -5.8124   -2.2186   -1.7745 N   0  0  0  0  0  0  0  0  0  0  0  0
   -6.7471   -2.8510   -1.9950 N   0  0  0  0  0  0  0  0  0  0  0  0
   -3.8457   -0.9321   -1.3956 C   0  0  0  0  0  0  0  0  0  0  0  0
   -2.5989   -0.7716   -0.8030 C   0  0  0  0  0  0  0  0  0  0  0  0
   -2.0882   -1.7788    0.0225 C   0  0  0  0  0  0  0  0  0  0  0  0
   -2.8182   -2.9482    0.2580 C   0  0  0  0  0  0  0  0  0  0  0  0
   -4.0656   -3.1406   -0.3289 C   0  0  0  0  0  0  0  0  0  0  0  0
   -4.2754   -0.1684   -2.0346 H   0  0  0  0  0  0  0  0  0  0  0  0
   -2.0291    0.1347   -0.9791 H   0  0  0  0  0  0  0  0  0  0  0  0
   -1.1161   -1.6498    0.4879 H   0  0  0  0  0  0  0  0  0  0  0  0
   -2.4176   -3.7212    0.9058 H   0  0  0  0  0  0  0  0  0  0  0  0
   -4.6503   -4.0362   -0.1572 H   0  0  0  0  0  0  0  0  0  0  0  0
   -9.7935   -5.6656   -0.8668 C   0  0  0  0  0  0  0  0  0  0  0  0
  -10.7447   -6.6266   -1.2033 C   0  0  0  0  0  0  0  0  0  0  0  0
  -10.4805   -7.9948   -1.0461 C   0  0  0  0  0  0  0  0  0  0  0  0
   -9.2304   -8.3780   -0.5405 C   0  0  0  0  0  0  0  0  0  0  0  0
   -8.2682   -7.4290   -0.1991 C   0  0  0  0  0  0  0  0  0  0  0  0
   -8.5560   -6.0746   -0.3680 C   0  0  0  0  0  0  0  0  0  0  0  0
  -10.0050   -4.6071   -0.9746 H   0  0  0  0  0  0  0  0  0  0  0  0
  -11.7096   -6.3096   -1.5907 H   0  0  0  0  0  0  0  0  0  0  0  0
   -9.0088   -9.4342   -0.4077 H   0  0  0  0  0  0  0  0  0  0  0  0
   -7.3072   -7.7253    0.2062 H   0  0  0  0  0  0  0  0  0  0  0  0
   -7.3150   -4.8453    0.0347 S   0  0  0  0  0  0  0  0  0  0  0  0
   -8.0135   -3.5974    0.3933 O   0  0  0  0  0  0  0  0  0  0  0  0
   -6.5232   -4.6492   -1.2984 O   0  0  0  0  0  0  0  0  0  0  0  0
   -6.4053   -5.4457    1.0278 O   0  0  0  0  0  0  0  0  0  0  0  0
  -11.5299   -9.0285   -1.3803 C   0  0  0  0  0  0  0  0  0  0  0  0
  -12.1770   -9.2272   -0.5165 H   0  0  0  0  0  0  0  0  0  0  0  0
  -12.1757   -8.6949   -2.1986 H   0  0  0  0  0  0  0  0  0  0  0  0
  -11.0765   -9.9801   -1.6717 H   0  0  0  0  0  0  0  0  0  0  0  0
  1  8  1  0  0  0  0
  2  1  1  0  0  0  0
  3  2  2  0  0  0  0
  4  1  2  0  0  0  0
  4  5  1  0  0  0  0
  5  6  2  0  0  0  0
  6  7  1  0  0  0  0
  6 11  1  0  0  0  0
  7 12  1  0  0  0  0
  8 13  1  0  0  0  0
  8  7  2  0  0  0  0
  9  4  1  0  0  0  0
 10  5  1  0  0  0  0
 14 19  2  0  0  0  0
 15 16  2  0  0  0  0
 15 14  1  0  0  0  0
 16 17  1  0  0  0  0
 17 22  1  0  0  0  0
 17 18  2  0  0  0  0
 18 23  1  0  0  0  0
 19 18  1  0  0  0  0
 19 24  1  0  0  0  0
 20 14  1  0  0  0  0
 21 15  1  0  0  0  0
 24 25  2  0  0  0  0
 24 27  1  0  0  0  0
 26 24  2  0  0  0  0
 28 16  1  0  0  0  0
 28 29  1  0  0  0  0
 30 28  1  0  0  0  0
 31 28  1  0  0  0  0
M  RAD  2   3   2  27   2
M  END
