Coordinates from ORCA-job PhN2+~TsO-_B3LYPG-6-31G_dp-NX-Scan-d89-09-n800
 OpenBabel11261920463D

 31 32  0  0  1  0  0  0  0  0999 V2000
   -5.3774   -1.3160   -0.9997 C   0  0  2  0  0  0  0  0  0  0  0  0
   -6.2351   -0.4978   -1.5561 N   0  0  0  0  0  0  0  0  0  0  0  0
   -7.0144    0.1772   -2.0440 N   0  0  0  0  0  0  0  0  0  0  0  0
   -4.5308   -2.1401   -1.8416 C   0  0  0  0  0  0  0  0  0  0  0  0
   -3.9882   -3.2512   -1.3117 C   0  0  0  0  0  0  0  0  0  0  0  0
   -4.4420   -3.7171    0.0323 C   0  0  1  0  0  0  0  0  0  0  0  0
   -4.8339   -2.6071    0.9529 C   0  0  0  0  0  0  0  0  0  0  0  0
   -5.3825   -1.4905    0.4413 C   0  0  0  0  0  0  0  0  0  0  0  0
   -4.3423   -1.8300   -2.8647 H   0  0  0  0  0  0  0  0  0  0  0  0
   -3.3181   -3.8832   -1.8839 H   0  0  0  0  0  0  0  0  0  0  0  0
   -3.7436   -4.4240    0.4826 H   0  0  0  0  0  0  0  0  0  0  0  0
   -4.7852   -2.7754    2.0229 H   0  0  0  0  0  0  0  0  0  0  0  0
   -5.8122   -0.7126    1.0647 H   0  0  0  0  0  0  0  0  0  0  0  0
   -8.6953   -6.0191    0.2951 C   0  0  0  0  0  0  0  0  0  0  0  0
   -9.8326   -6.4988   -0.3473 C   0  0  0  0  0  0  0  0  0  0  0  0
   -9.7345   -7.3775   -1.4381 C   0  0  0  0  0  0  0  0  0  0  0  0
   -8.4603   -7.7697   -1.8693 C   0  0  0  0  0  0  0  0  0  0  0  0
   -7.3091   -7.3003   -1.2390 C   0  0  0  0  0  0  0  0  0  0  0  0
   -7.4397   -6.4232   -0.1634 C   0  0  0  0  0  0  0  0  0  0  0  0
   -8.7695   -5.3531    1.1478 H   0  0  0  0  0  0  0  0  0  0  0  0
  -10.8135   -6.1913    0.0054 H   0  0  0  0  0  0  0  0  0  0  0  0
   -8.3673   -8.4551   -2.7074 H   0  0  0  0  0  0  0  0  0  0  0  0
   -6.3236   -7.6160   -1.5629 H   0  0  0  0  0  0  0  0  0  0  0  0
   -5.9755   -5.8183    0.6531 S   0  0  0  0  0  0  0  0  0  0  0  0
   -6.3137   -5.3949    2.0149 O   0  0  0  0  0  0  0  0  0  0  0  0
   -5.7171   -4.5004   -0.2783 O   0  0  0  0  0  0  0  0  0  0  0  0
   -4.8716   -6.7611    0.4480 O   0  0  0  0  0  0  0  0  0  0  0  0
  -10.9797   -7.8916   -2.1195 C   0  0  0  0  0  0  0  0  0  0  0  0
  -11.6082   -8.4555   -1.4204 H   0  0  0  0  0  0  0  0  0  0  0  0
  -11.5888   -7.0665   -2.5055 H   0  0  0  0  0  0  0  0  0  0  0  0
  -10.7357   -8.5501   -2.9571 H   0  0  0  0  0  0  0  0  0  0  0  0
  1  2  1  6  0  0  0
  1  8  1  0  0  0  0
  3  2  1  0  0  0  0
  4  5  2  0  0  0  0
  4  1  1  0  0  0  0
  5  6  1  0  0  0  0
  6 11  1  1  0  0  0
  6  7  1  0  0  0  0
  7 12  1  0  0  0  0
  8  7  2  0  0  0  0
  8 13  1  0  0  0  0
  9  4  1  0  0  0  0
 10  5  1  0  0  0  0
 14 20  1  0  0  0  0
 15 21  1  0  0  0  0
 15 14  2  0  0  0  0
 16 15  1  0  0  0  0
 17 16  2  0  0  0  0
 17 18  1  0  0  0  0
 18 19  2  0  0  0  0
 19 14  1  0  0  0  0
 19 24  1  0  0  0  0
 22 17  1  0  0  0  0
 23 18  1  0  0  0  0
 24 25  2  0  0  0  0
 26  6  1  0  0  0  0
 26 24  1  0  0  0  0
 27 24  2  0  0  0  0
 28 16  1  0  0  0  0
 28 29  1  0  0  0  0
 30 28  1  0  0  0  0
 31 28  1  0  0  0  0
M  RAD  3   1   2   2   2   3   3
M  END
