Coordinates from ORCA-job PhN2+~TsO-_B3LYPG-6-31G_dp-NX-Scan-d89-09-n800
 OpenBabel11261920463D

 31 32  0  0  1  0  0  0  0  0999 V2000
   -5.4479   -1.3889   -0.6350 C   0  0  2  0  0  0  0  0  0  0  0  0
   -6.7451   -1.5944   -0.5845 N   0  0  0  0  0  0  0  0  0  0  0  0
   -7.8372   -1.9070   -0.5335 N   0  0  0  0  0  0  0  0  0  0  0  0
   -4.8254   -1.9529   -1.8640 C   0  0  0  0  0  0  0  0  0  0  0  0
   -4.1876   -3.1221   -1.7173 C   0  0  0  0  0  0  0  0  0  0  0  0
   -4.3500   -3.8014   -0.3828 C   0  0  1  0  0  0  0  0  0  0  0  0
   -4.1223   -2.8314    0.7502 C   0  0  0  0  0  0  0  0  0  0  0  0
   -4.7616   -1.6574    0.6582 C   0  0  0  0  0  0  0  0  0  0  0  0
   -4.9109   -1.4289   -2.8117 H   0  0  0  0  0  0  0  0  0  0  0  0
   -3.6352   -3.6072   -2.5159 H   0  0  0  0  0  0  0  0  0  0  0  0
   -3.7786   -4.7233   -0.2860 H   0  0  0  0  0  0  0  0  0  0  0  0
   -3.5299   -3.1258    1.6108 H   0  0  0  0  0  0  0  0  0  0  0  0
   -4.8114   -0.9330    1.4658 H   0  0  0  0  0  0  0  0  0  0  0  0
   -8.8322   -5.4192   -0.2914 C   0  0  0  0  0  0  0  0  0  0  0  0
   -9.8472   -6.0623   -0.9929 C   0  0  0  0  0  0  0  0  0  0  0  0
   -9.6579   -7.3420   -1.5390 C   0  0  0  0  0  0  0  0  0  0  0  0
   -8.4144   -7.9642   -1.3688 C   0  0  0  0  0  0  0  0  0  0  0  0
   -7.3813   -7.3344   -0.6750 C   0  0  0  0  0  0  0  0  0  0  0  0
   -7.6022   -6.0649   -0.1440 C   0  0  0  0  0  0  0  0  0  0  0  0
   -8.9850   -4.4330    0.1315 H   0  0  0  0  0  0  0  0  0  0  0  0
  -10.8052   -5.5638   -1.1172 H   0  0  0  0  0  0  0  0  0  0  0  0
   -8.2509   -8.9557   -1.7815 H   0  0  0  0  0  0  0  0  0  0  0  0
   -6.4203   -7.8176   -0.5364 H   0  0  0  0  0  0  0  0  0  0  0  0
   -6.2927   -5.2640    0.7640 S   0  0  0  0  0  0  0  0  0  0  0  0
   -6.8679   -4.5362    1.8932 O   0  0  0  0  0  0  0  0  0  0  0  0
   -5.8207   -4.1804   -0.3812 O   0  0  0  0  0  0  0  0  0  0  0  0
   -5.1963   -6.2136    0.9818 O   0  0  0  0  0  0  0  0  0  0  0  0
  -10.7810   -8.0354   -2.2715 C   0  0  0  0  0  0  0  0  0  0  0  0
  -11.5319   -8.4148   -1.5678 H   0  0  0  0  0  0  0  0  0  0  0  0
  -11.2955   -7.3500   -2.9527 H   0  0  0  0  0  0  0  0  0  0  0  0
  -10.4161   -8.8853   -2.8541 H   0  0  0  0  0  0  0  0  0  0  0  0
  1  2  1  1  0  0  0
  1  8  1  0  0  0  0
  2  3  1  0  0  0  0
  4  5  2  0  0  0  0
  4  1  1  0  0  0  0
  5  6  1  0  0  0  0
  6 26  1  0  0  0  0
  6 11  1  1  0  0  0
  6  7  1  0  0  0  0
  7 12  1  0  0  0  0
  8  7  2  0  0  0  0
  8 13  1  0  0  0  0
  9  4  1  0  0  0  0
 10  5  1  0  0  0  0
 14 19  1  0  0  0  0
 14 20  1  0  0  0  0
 15 14  2  0  0  0  0
 16 17  2  0  0  0  0
 16 15  1  0  0  0  0
 17 18  1  0  0  0  0
 18 23  1  0  0  0  0
 18 19  2  0  0  0  0
 19 24  1  0  0  0  0
 21 15  1  0  0  0  0
 22 17  1  0  0  0  0
 24 27  2  0  0  0  0
 24 25  2  0  0  0  0
 26 24  1  0  0  0  0
 28 29  1  0  0  0  0
 28 16  1  0  0  0  0
 30 28  1  0  0  0  0
 31 28  1  0  0  0  0
M  RAD  3   1   2   2   2   3   3
M  END
