Coordinates from ORCA-job PhN2+~TsO-_B3LYPG-6-31G_dp-NX-Scan-d89-09-n800
 OpenBabel11261920463D

 31 32  0  0  1  0  0  0  0  0999 V2000
   -5.3669   -1.3576   -0.6937 C   0  0  2  0  0  0  0  0  0  0  0  0
   -6.6351   -1.7138   -0.5934 N   0  0  0  0  0  0  0  0  0  0  0  0
   -7.6325   -2.2447   -0.4905 N   0  0  0  0  0  0  0  0  0  0  0  0
   -4.7577   -1.9910   -1.9074 C   0  0  0  0  0  0  0  0  0  0  0  0
   -4.2060   -3.1962   -1.7149 C   0  0  0  0  0  0  0  0  0  0  0  0
   -4.4030   -3.8070   -0.3505 C   0  0  1  0  0  0  0  0  0  0  0  0
   -4.0902   -2.8056    0.7361 C   0  0  0  0  0  0  0  0  0  0  0  0
   -4.6494   -1.5956    0.5998 C   0  0  0  0  0  0  0  0  0  0  0  0
   -4.7974   -1.4926   -2.8718 H   0  0  0  0  0  0  0  0  0  0  0  0
   -3.6791   -3.7466   -2.4886 H   0  0  0  0  0  0  0  0  0  0  0  0
   -3.8966   -4.7616   -0.2199 H   0  0  0  0  0  0  0  0  0  0  0  0
   -3.4924   -3.1008    1.5931 H   0  0  0  0  0  0  0  0  0  0  0  0
   -4.6243   -0.8286    1.3683 H   0  0  0  0  0  0  0  0  0  0  0  0
   -8.9529   -5.4424   -0.1934 C   0  0  0  0  0  0  0  0  0  0  0  0
   -9.9355   -6.1114   -0.9197 C   0  0  0  0  0  0  0  0  0  0  0  0
   -9.6661   -7.3318   -1.5562 C   0  0  0  0  0  0  0  0  0  0  0  0
   -8.3754   -7.8705   -1.4513 C   0  0  0  0  0  0  0  0  0  0  0  0
   -7.3772   -7.2154   -0.7340 C   0  0  0  0  0  0  0  0  0  0  0  0
   -7.6770   -6.0020   -0.1131 C   0  0  0  0  0  0  0  0  0  0  0  0
   -9.1665   -4.5033    0.3028 H   0  0  0  0  0  0  0  0  0  0  0  0
  -10.9301   -5.6794   -0.9905 H   0  0  0  0  0  0  0  0  0  0  0  0
   -8.1498   -8.8179   -1.9330 H   0  0  0  0  0  0  0  0  0  0  0  0
   -6.3827   -7.6379   -0.6417 H   0  0  0  0  0  0  0  0  0  0  0  0
   -6.4067   -5.1702    0.8235 S   0  0  0  0  0  0  0  0  0  0  0  0
   -7.0265   -4.4436    1.9288 O   0  0  0  0  0  0  0  0  0  0  0  0
   -5.9067   -4.0741   -0.3020 O   0  0  0  0  0  0  0  0  0  0  0  0
   -5.3073   -6.1072    1.0787 O   0  0  0  0  0  0  0  0  0  0  0  0
  -10.7481   -8.0669   -2.3095 C   0  0  0  0  0  0  0  0  0  0  0  0
  -11.2532   -8.7919   -1.6591 H   0  0  0  0  0  0  0  0  0  0  0  0
  -11.5110   -7.3804   -2.6871 H   0  0  0  0  0  0  0  0  0  0  0  0
  -10.3385   -8.6226   -3.1580 H   0  0  0  0  0  0  0  0  0  0  0  0
  1  2  1  1  0  0  0
  1  8  1  0  0  0  0
  2  3  1  0  0  0  0
  4  5  2  0  0  0  0
  4  1  1  0  0  0  0
  5  6  1  0  0  0  0
  6 26  1  0  0  0  0
  6 11  1  1  0  0  0
  6  7  1  0  0  0  0
  7 12  1  0  0  0  0
  8  7  2  0  0  0  0
  8 13  1  0  0  0  0
  9  4  1  0  0  0  0
 10  5  1  0  0  0  0
 14 19  1  0  0  0  0
 14 20  1  0  0  0  0
 15 14  2  0  0  0  0
 16 17  2  0  0  0  0
 16 15  1  0  0  0  0
 17 18  1  0  0  0  0
 18 23  1  0  0  0  0
 18 19  2  0  0  0  0
 19 24  1  0  0  0  0
 21 15  1  0  0  0  0
 22 17  1  0  0  0  0
 24 27  2  0  0  0  0
 24 25  2  0  0  0  0
 26 24  1  0  0  0  0
 28 29  1  0  0  0  0
 28 16  1  0  0  0  0
 30 28  1  0  0  0  0
 31 28  1  0  0  0  0
M  RAD  3   1   2   2   2   3   3
M  END
