Coordinates from ORCA-job PhN2+~TsO-_B3LYPG-6-31G_dp-NX-Scan-d89-09-n800
 OpenBabel11261920463D

 31 32  0  0  1  0  0  0  0  0999 V2000
   -5.1598   -1.0541   -1.0017 C   0  0  0  0  0  0  0  0  0  0  0  0
   -5.6018    0.0605   -1.5317 N   0  0  0  0  0  0  0  0  0  0  0  0
   -6.0045    1.0217   -1.9991 N   0  0  0  0  0  0  0  0  0  0  0  0
   -4.4339   -1.9998   -1.8236 C   0  0  0  0  0  0  0  0  0  0  0  0
   -4.1248   -3.2098   -1.3227 C   0  0  0  0  0  0  0  0  0  0  0  0
   -4.6335   -3.6584    0.0066 C   0  0  1  0  0  0  0  0  0  0  0  0
   -5.1084   -2.5524    0.8906 C   0  0  0  0  0  0  0  0  0  0  0  0
   -5.4199   -1.3411    0.3948 C   0  0  0  0  0  0  0  0  0  0  0  0
   -4.1329   -1.7008   -2.8224 H   0  0  0  0  0  0  0  0  0  0  0  0
   -3.5637   -3.9276   -1.9115 H   0  0  0  0  0  0  0  0  0  0  0  0
   -3.9183   -4.3160    0.5081 H   0  0  0  0  0  0  0  0  0  0  0  0
   -5.2839   -2.7890    1.9342 H   0  0  0  0  0  0  0  0  0  0  0  0
   -5.8448   -0.5599    1.0175 H   0  0  0  0  0  0  0  0  0  0  0  0
   -8.7038   -6.1798    0.3253 C   0  0  0  0  0  0  0  0  0  0  0  0
   -9.8534   -6.6862   -0.2729 C   0  0  0  0  0  0  0  0  0  0  0  0
   -9.7776   -7.5446   -1.3817 C   0  0  0  0  0  0  0  0  0  0  0  0
   -8.5128   -7.8901   -1.8757 C   0  0  0  0  0  0  0  0  0  0  0  0
   -7.3492   -7.3931   -1.2907 C   0  0  0  0  0  0  0  0  0  0  0  0
   -7.4583   -6.5365   -0.1965 C   0  0  0  0  0  0  0  0  0  0  0  0
   -8.7606   -5.5296    1.1913 H   0  0  0  0  0  0  0  0  0  0  0  0
  -10.8262   -6.4159    0.1290 H   0  0  0  0  0  0  0  0  0  0  0  0
   -8.4367   -8.5602   -2.7276 H   0  0  0  0  0  0  0  0  0  0  0  0
   -6.3699   -7.6716   -1.6636 H   0  0  0  0  0  0  0  0  0  0  0  0
   -5.9780   -5.8956    0.5600 S   0  0  0  0  0  0  0  0  0  0  0  0
   -6.2491   -5.5445    1.9573 O   0  0  0  0  0  0  0  0  0  0  0  0
   -5.8431   -4.5230   -0.3182 O   0  0  0  0  0  0  0  0  0  0  0  0
   -4.8454   -6.7713    0.2458 O   0  0  0  0  0  0  0  0  0  0  0  0
  -11.0360   -8.0823   -2.0192 C   0  0  0  0  0  0  0  0  0  0  0  0
  -11.6535   -8.6160   -1.2878 H   0  0  0  0  0  0  0  0  0  0  0  0
  -11.6496   -7.2706   -2.4268 H   0  0  0  0  0  0  0  0  0  0  0  0
  -10.8083   -8.7727   -2.8354 H   0  0  0  0  0  0  0  0  0  0  0  0
  1  8  1  0  0  0  0
  2  1  1  0  0  0  0
  3  2  1  0  0  0  0
  4  5  1  0  0  0  0
  4  1  2  0  0  0  0
  5  6  1  0  0  0  0
  6 11  1  1  0  0  0
  6  7  1  0  0  0  0
  7 12  1  0  0  0  0
  8  7  2  0  0  0  0
  8 13  1  0  0  0  0
  9  4  1  0  0  0  0
 10  5  1  0  0  0  0
 14 20  1  0  0  0  0
 15 21  1  0  0  0  0
 15 14  2  0  0  0  0
 16 15  1  0  0  0  0
 17 16  2  0  0  0  0
 17 18  1  0  0  0  0
 18 19  2  0  0  0  0
 19 14  1  0  0  0  0
 19 24  1  0  0  0  0
 22 17  1  0  0  0  0
 23 18  1  0  0  0  0
 24 25  2  0  0  0  0
 26  6  1  0  0  0  0
 26 24  1  0  0  0  0
 27 24  2  0  0  0  0
 28 16  1  0  0  0  0
 28 29  1  0  0  0  0
 30 28  1  0  0  0  0
 31 28  1  0  0  0  0
M  RAD  3   2   2   3   3   5   2
M  END
