Coordinates from ORCA-job PhN2+~TsO-_B3LYPG-6-31G_dp-NX-Scan-d89-09-n800
 OpenBabel11261920463D

 31 32  0  0  1  0  0  0  0  0999 V2000
   -5.0002   -0.9035   -0.9681 C   0  0  0  0  0  0  0  0  0  0  0  0
   -5.1782    0.3199   -1.4071 N   0  0  0  0  0  0  0  0  0  0  0  0
   -5.3388    1.3852   -1.7913 N   0  0  0  0  0  0  0  0  0  0  0  0
   -4.3987   -1.8997   -1.8305 C   0  0  0  0  0  0  0  0  0  0  0  0
   -4.2506   -3.1642   -1.3939 C   0  0  0  0  0  0  0  0  0  0  0  0
   -4.7562   -3.6199   -0.0645 C   0  0  1  0  0  0  0  0  0  0  0  0
   -5.2415   -2.5170    0.8205 C   0  0  0  0  0  0  0  0  0  0  0  0
   -5.3910   -1.2532    0.3834 C   0  0  0  0  0  0  0  0  0  0  0  0
   -4.0561   -1.5978   -2.8151 H   0  0  0  0  0  0  0  0  0  0  0  0
   -3.7887   -3.9147   -2.0266 H   0  0  0  0  0  0  0  0  0  0  0  0
   -4.0198   -4.2557    0.4389 H   0  0  0  0  0  0  0  0  0  0  0  0
   -5.5237   -2.7905    1.8311 H   0  0  0  0  0  0  0  0  0  0  0  0
   -5.7842   -0.4741    1.0291 H   0  0  0  0  0  0  0  0  0  0  0  0
   -8.7393   -6.2446    0.3244 C   0  0  0  0  0  0  0  0  0  0  0  0
   -9.8826   -6.7866   -0.2542 C   0  0  0  0  0  0  0  0  0  0  0  0
   -9.7981   -7.6572   -1.3528 C   0  0  0  0  0  0  0  0  0  0  0  0
   -8.5307   -7.9787   -1.8564 C   0  0  0  0  0  0  0  0  0  0  0  0
   -7.3732   -7.4461   -1.2911 C   0  0  0  0  0  0  0  0  0  0  0  0
   -7.4913   -6.5777   -0.2070 C   0  0  0  0  0  0  0  0  0  0  0  0
   -8.8028   -5.5843    1.1822 H   0  0  0  0  0  0  0  0  0  0  0  0
  -10.8573   -6.5347    0.1551 H   0  0  0  0  0  0  0  0  0  0  0  0
   -8.4476   -8.6581   -2.7003 H   0  0  0  0  0  0  0  0  0  0  0  0
   -6.3916   -7.7054   -1.6715 H   0  0  0  0  0  0  0  0  0  0  0  0
   -6.0192   -5.8908    0.5238 S   0  0  0  0  0  0  0  0  0  0  0  0
   -6.2812   -5.5294    1.9201 O   0  0  0  0  0  0  0  0  0  0  0  0
   -5.9338   -4.5240   -0.3711 O   0  0  0  0  0  0  0  0  0  0  0  0
   -4.8677   -6.7389    0.2037 O   0  0  0  0  0  0  0  0  0  0  0  0
  -11.0499   -8.2321   -1.9705 C   0  0  0  0  0  0  0  0  0  0  0  0
  -11.6545   -8.7584   -1.2234 H   0  0  0  0  0  0  0  0  0  0  0  0
  -11.6793   -7.4409   -2.3943 H   0  0  0  0  0  0  0  0  0  0  0  0
  -10.8140   -8.9377   -2.7713 H   0  0  0  0  0  0  0  0  0  0  0  0
  1  8  1  0  0  0  0
  2  1  1  0  0  0  0
  3  2  1  0  0  0  0
  4  5  1  0  0  0  0
  4  1  2  0  0  0  0
  5  6  1  0  0  0  0
  6 11  1  1  0  0  0
  6  7  1  0  0  0  0
  7 12  1  0  0  0  0
  8  7  2  0  0  0  0
  8 13  1  0  0  0  0
  9  4  1  0  0  0  0
 10  5  1  0  0  0  0
 14 20  1  0  0  0  0
 15 21  1  0  0  0  0
 15 14  2  0  0  0  0
 16 15  1  0  0  0  0
 17 16  2  0  0  0  0
 17 18  1  0  0  0  0
 18 19  2  0  0  0  0
 19 14  1  0  0  0  0
 19 24  1  0  0  0  0
 22 17  1  0  0  0  0
 23 18  1  0  0  0  0
 24 25  2  0  0  0  0
 26  6  1  0  0  0  0
 26 24  1  0  0  0  0
 27 24  2  0  0  0  0
 28 16  1  0  0  0  0
 28 29  1  0  0  0  0
 30 28  1  0  0  0  0
 31 28  1  0  0  0  0
M  RAD  3   2   2   3   3   5   2
M  END
