Coordinates from ORCA-job PhN2+~TsO-_B3LYPG-6-31G_dp-NX-Scan-d89-09-n800
 OpenBabel11261920463D

 31 32  0  0  1  0  0  0  0  0999 V2000
   -5.3598   -1.3744   -0.6797 C   0  0  2  0  0  0  0  0  0  0  0  0
   -6.5998   -0.9582   -0.7373 N   0  0  0  0  0  0  0  0  0  0  0  0
   -7.7046   -0.6848   -0.7818 N   0  0  0  0  0  0  0  0  0  0  0  0
   -4.8104   -2.0257   -1.8705 C   0  0  0  0  0  0  0  0  0  0  0  0
   -4.1926   -3.2051   -1.6902 C   0  0  0  0  0  0  0  0  0  0  0  0
   -4.3522   -3.8487   -0.3456 C   0  0  1  0  0  0  0  0  0  0  0  0
   -4.1795   -2.8639    0.7744 C   0  0  0  0  0  0  0  0  0  0  0  0
   -4.7981   -1.6794    0.6380 C   0  0  0  0  0  0  0  0  0  0  0  0
   -4.9097   -1.5456   -2.8397 H   0  0  0  0  0  0  0  0  0  0  0  0
   -3.6912   -3.7339   -2.4934 H   0  0  0  0  0  0  0  0  0  0  0  0
   -3.7637   -4.7564   -0.2198 H   0  0  0  0  0  0  0  0  0  0  0  0
   -3.6722   -3.1598    1.6861 H   0  0  0  0  0  0  0  0  0  0  0  0
   -4.8958   -0.9593    1.4448 H   0  0  0  0  0  0  0  0  0  0  0  0
   -8.8756   -5.5679   -0.1382 C   0  0  0  0  0  0  0  0  0  0  0  0
   -9.8919   -6.2038   -0.8443 C   0  0  0  0  0  0  0  0  0  0  0  0
   -9.6592   -7.4092   -1.5261 C   0  0  0  0  0  0  0  0  0  0  0  0
   -8.3739   -7.9648   -1.4825 C   0  0  0  0  0  0  0  0  0  0  0  0
   -7.3405   -7.3399   -0.7850 C   0  0  0  0  0  0  0  0  0  0  0  0
   -7.6025   -6.1425   -0.1212 C   0  0  0  0  0  0  0  0  0  0  0  0
   -9.0610   -4.6460    0.4016 H   0  0  0  0  0  0  0  0  0  0  0  0
  -10.8846   -5.7610   -0.8635 H   0  0  0  0  0  0  0  0  0  0  0  0
   -8.1791   -8.9019   -1.9963 H   0  0  0  0  0  0  0  0  0  0  0  0
   -6.3485   -7.7761   -0.7407 H   0  0  0  0  0  0  0  0  0  0  0  0
   -6.2917   -5.3380    0.7835 S   0  0  0  0  0  0  0  0  0  0  0  0
   -6.8759   -4.6093    1.9089 O   0  0  0  0  0  0  0  0  0  0  0  0
   -5.8166   -4.2708   -0.3656 O   0  0  0  0  0  0  0  0  0  0  0  0
   -5.1988   -6.2896    1.0131 O   0  0  0  0  0  0  0  0  0  0  0  0
  -10.7788   -8.0915   -2.2744 C   0  0  0  0  0  0  0  0  0  0  0  0
  -11.5661   -8.4240   -1.5880 H   0  0  0  0  0  0  0  0  0  0  0  0
  -11.2468   -7.4113   -2.9946 H   0  0  0  0  0  0  0  0  0  0  0  0
  -10.4206   -8.9677   -2.8206 H   0  0  0  0  0  0  0  0  0  0  0  0
  1  2  1  1  0  0  0
  1  8  1  0  0  0  0
  3  2  1  0  0  0  0
  4  5  2  0  0  0  0
  4  1  1  0  0  0  0
  5  6  1  0  0  0  0
  6 11  1  1  0  0  0
  6  7  1  0  0  0  0
  7 12  1  0  0  0  0
  8  7  2  0  0  0  0
  8 13  1  0  0  0  0
  9  4  1  0  0  0  0
 10  5  1  0  0  0  0
 14 19  1  0  0  0  0
 14 20  1  0  0  0  0
 15 14  2  0  0  0  0
 16 17  2  0  0  0  0
 16 15  1  0  0  0  0
 17 18  1  0  0  0  0
 18 23  1  0  0  0  0
 18 19  2  0  0  0  0
 19 24  1  0  0  0  0
 21 15  1  0  0  0  0
 22 17  1  0  0  0  0
 24 27  2  0  0  0  0
 24 25  2  0  0  0  0
 26  6  1  0  0  0  0
 26 24  1  0  0  0  0
 28 29  1  0  0  0  0
 28 16  1  0  0  0  0
 30 28  1  0  0  0  0
 31 28  1  0  0  0  0
M  RAD  3   1   2   2   2   3   3
M  END
