Coordinates from ORCA-job PhN2+~TsO-_B3LYPG-6-31G_dp-NX-Scan-d89-09-n800
 OpenBabel11261920463D

 31 32  0  0  1  0  0  0  0  0999 V2000
   -5.3545   -1.3679   -0.6948 C   0  0  2  0  0  0  0  0  0  0  0  0
   -6.5623   -0.8709   -0.7797 N   0  0  0  0  0  0  0  0  0  0  0  0
   -7.6443   -0.5211   -0.8484 N   0  0  0  0  0  0  0  0  0  0  0  0
   -4.8055   -2.0365   -1.8729 C   0  0  0  0  0  0  0  0  0  0  0  0
   -4.1929   -3.2166   -1.6777 C   0  0  0  0  0  0  0  0  0  0  0  0
   -4.3565   -3.8484   -0.3289 C   0  0  1  0  0  0  0  0  0  0  0  0
   -4.2037   -2.8548    0.7850 C   0  0  0  0  0  0  0  0  0  0  0  0
   -4.8175   -1.6695    0.6311 C   0  0  0  0  0  0  0  0  0  0  0  0
   -4.8985   -1.5671   -2.8478 H   0  0  0  0  0  0  0  0  0  0  0  0
   -3.6951   -3.7562   -2.4758 H   0  0  0  0  0  0  0  0  0  0  0  0
   -3.7604   -4.7494   -0.1913 H   0  0  0  0  0  0  0  0  0  0  0  0
   -3.7164   -3.1453    1.7092 H   0  0  0  0  0  0  0  0  0  0  0  0
   -4.9258   -0.9447    1.4323 H   0  0  0  0  0  0  0  0  0  0  0  0
   -8.8781   -5.5998   -0.1051 C   0  0  0  0  0  0  0  0  0  0  0  0
   -9.8980   -6.2304   -0.8110 C   0  0  0  0  0  0  0  0  0  0  0  0
   -9.6626   -7.4176   -1.5231 C   0  0  0  0  0  0  0  0  0  0  0  0
   -8.3713   -7.9609   -1.5095 C   0  0  0  0  0  0  0  0  0  0  0  0
   -7.3347   -7.3411   -0.8125 C   0  0  0  0  0  0  0  0  0  0  0  0
   -7.5992   -6.1613   -0.1188 C   0  0  0  0  0  0  0  0  0  0  0  0
   -9.0648   -4.6927    0.4588 H   0  0  0  0  0  0  0  0  0  0  0  0
  -10.8955   -5.7982   -0.8057 H   0  0  0  0  0  0  0  0  0  0  0  0
   -8.1747   -8.8846   -2.0465 H   0  0  0  0  0  0  0  0  0  0  0  0
   -6.3381   -7.7686   -0.7908 H   0  0  0  0  0  0  0  0  0  0  0  0
   -6.2841   -5.3637    0.7858 S   0  0  0  0  0  0  0  0  0  0  0  0
   -6.8626   -4.6472    1.9222 O   0  0  0  0  0  0  0  0  0  0  0  0
   -5.8168   -4.2864   -0.3563 O   0  0  0  0  0  0  0  0  0  0  0  0
   -5.1888   -6.3161    1.0006 O   0  0  0  0  0  0  0  0  0  0  0  0
  -10.7851   -8.0930   -2.2734 C   0  0  0  0  0  0  0  0  0  0  0  0
  -11.5781   -8.4163   -1.5895 H   0  0  0  0  0  0  0  0  0  0  0  0
  -11.2441   -7.4111   -2.9980 H   0  0  0  0  0  0  0  0  0  0  0  0
  -10.4320   -8.9735   -2.8160 H   0  0  0  0  0  0  0  0  0  0  0  0
  1  2  1  1  0  0  0
  1  8  1  0  0  0  0
  3  2  1  0  0  0  0
  4  5  2  0  0  0  0
  4  1  1  0  0  0  0
  5  6  1  0  0  0  0
  6 11  1  1  0  0  0
  6  7  1  0  0  0  0
  7 12  1  0  0  0  0
  8  7  2  0  0  0  0
  8 13  1  0  0  0  0
  9  4  1  0  0  0  0
 10  5  1  0  0  0  0
 14 20  1  0  0  0  0
 15 21  1  0  0  0  0
 15 14  2  0  0  0  0
 16 17  2  0  0  0  0
 16 15  1  0  0  0  0
 17 18  1  0  0  0  0
 18 23  1  0  0  0  0
 18 19  2  0  0  0  0
 19 14  1  0  0  0  0
 19 24  1  0  0  0  0
 22 17  1  0  0  0  0
 24 27  2  0  0  0  0
 24 25  2  0  0  0  0
 26  6  1  0  0  0  0
 26 24  1  0  0  0  0
 28 29  1  0  0  0  0
 28 16  1  0  0  0  0
 30 28  1  0  0  0  0
 31 28  1  0  0  0  0
M  RAD  3   1   2   2   2   3   3
M  END
