Coordinates from ORCA-job PhN2+~TsO-_B3LYPG-6-31G_dp-NX-Scan-d89-09-n800
 OpenBabel11261920463D

 31 32  0  0  1  0  0  0  0  0999 V2000
   -5.3574   -1.3729   -0.6828 C   0  0  2  0  0  0  0  0  0  0  0  0
   -6.5908   -0.9383   -0.7457 N   0  0  0  0  0  0  0  0  0  0  0  0
   -7.6910   -0.6477   -0.7950 N   0  0  0  0  0  0  0  0  0  0  0  0
   -4.8090   -2.0281   -1.8711 C   0  0  0  0  0  0  0  0  0  0  0  0
   -4.1930   -3.2081   -1.6879 C   0  0  0  0  0  0  0  0  0  0  0  0
   -4.3535   -3.8491   -0.3424 C   0  0  1  0  0  0  0  0  0  0  0  0
   -4.1838   -2.8626    0.7763 C   0  0  0  0  0  0  0  0  0  0  0  0
   -4.8008   -1.6776    0.6365 C   0  0  0  0  0  0  0  0  0  0  0  0
   -4.9070   -1.5502   -2.8415 H   0  0  0  0  0  0  0  0  0  0  0  0
   -3.6929   -3.7394   -2.4902 H   0  0  0  0  0  0  0  0  0  0  0  0
   -3.7640   -4.7559   -0.2143 H   0  0  0  0  0  0  0  0  0  0  0  0
   -3.6807   -3.1578    1.6905 H   0  0  0  0  0  0  0  0  0  0  0  0
   -4.9000   -0.9564    1.4422 H   0  0  0  0  0  0  0  0  0  0  0  0
   -8.8774   -5.5751   -0.1304 C   0  0  0  0  0  0  0  0  0  0  0  0
   -9.8941   -6.2103   -0.8366 C   0  0  0  0  0  0  0  0  0  0  0  0
   -9.6599   -7.4114   -1.5255 C   0  0  0  0  0  0  0  0  0  0  0  0
   -8.3728   -7.9635   -1.4888 C   0  0  0  0  0  0  0  0  0  0  0  0
   -7.3392   -7.3391   -0.7912 C   0  0  0  0  0  0  0  0  0  0  0  0
   -7.6026   -6.1460   -0.1204 C   0  0  0  0  0  0  0  0  0  0  0  0
   -9.0638   -4.6568    0.4151 H   0  0  0  0  0  0  0  0  0  0  0  0
  -10.8882   -5.7706   -0.8502 H   0  0  0  0  0  0  0  0  0  0  0  0
   -8.1769   -8.8974   -2.0080 H   0  0  0  0  0  0  0  0  0  0  0  0
   -6.3458   -7.7728   -0.7521 H   0  0  0  0  0  0  0  0  0  0  0  0
   -6.2913   -5.3422    0.7844 S   0  0  0  0  0  0  0  0  0  0  0  0
   -6.8750   -4.6155    1.9114 O   0  0  0  0  0  0  0  0  0  0  0  0
   -5.8174   -4.2735   -0.3636 O   0  0  0  0  0  0  0  0  0  0  0  0
   -5.1980   -6.2939    1.0119 O   0  0  0  0  0  0  0  0  0  0  0  0
  -10.7796   -8.0928   -2.2745 C   0  0  0  0  0  0  0  0  0  0  0  0
  -11.5682   -8.4235   -1.5888 H   0  0  0  0  0  0  0  0  0  0  0  0
  -11.2457   -7.4124   -2.9959 H   0  0  0  0  0  0  0  0  0  0  0  0
  -10.4220   -8.9698   -2.8198 H   0  0  0  0  0  0  0  0  0  0  0  0
  1  2  1  1  0  0  0
  1  8  1  0  0  0  0
  3  2  1  0  0  0  0
  4  5  2  0  0  0  0
  4  1  1  0  0  0  0
  5  6  1  0  0  0  0
  6 11  1  1  0  0  0
  6  7  1  0  0  0  0
  7 12  1  0  0  0  0
  8  7  2  0  0  0  0
  8 13  1  0  0  0  0
  9  4  1  0  0  0  0
 10  5  1  0  0  0  0
 14 19  1  0  0  0  0
 14 20  1  0  0  0  0
 15 14  2  0  0  0  0
 16 17  2  0  0  0  0
 16 15  1  0  0  0  0
 17 18  1  0  0  0  0
 18 23  1  0  0  0  0
 18 19  2  0  0  0  0
 19 24  1  0  0  0  0
 21 15  1  0  0  0  0
 22 17  1  0  0  0  0
 24 27  2  0  0  0  0
 24 25  2  0  0  0  0
 26  6  1  0  0  0  0
 26 24  1  0  0  0  0
 28 29  1  0  0  0  0
 28 16  1  0  0  0  0
 30 28  1  0  0  0  0
 31 28  1  0  0  0  0
M  RAD  3   1   2   2   2   3   3
M  END
