Coordinates from ORCA-job PhN2+~TsO-_B3LYPG-6-31G_dp-NX-Scan-d89-09-n800
 OpenBabel11261920463D

 31 32  0  0  1  0  0  0  0  0999 V2000
   -5.3819   -1.3225   -0.9975 C   0  0  2  0  0  0  0  0  0  0  0  0
   -6.2506   -0.5134   -1.5500 N   0  0  0  0  0  0  0  0  0  0  0  0
   -7.0398    0.1525   -2.0345 N   0  0  0  0  0  0  0  0  0  0  0  0
   -4.5357   -2.1432   -1.8433 C   0  0  0  0  0  0  0  0  0  0  0  0
   -3.9873   -3.2524   -1.3156 C   0  0  0  0  0  0  0  0  0  0  0  0
   -4.4368   -3.7194    0.0295 C   0  0  1  0  0  0  0  0  0  0  0  0
   -4.8224   -2.6094    0.9529 C   0  0  0  0  0  0  0  0  0  0  0  0
   -5.3768   -1.4946    0.4440 C   0  0  0  0  0  0  0  0  0  0  0  0
   -4.3526   -1.8321   -2.8671 H   0  0  0  0  0  0  0  0  0  0  0  0
   -3.3167   -3.8821   -1.8898 H   0  0  0  0  0  0  0  0  0  0  0  0
   -3.7387   -4.4290    0.4761 H   0  0  0  0  0  0  0  0  0  0  0  0
   -4.7648   -2.7764    2.0227 H   0  0  0  0  0  0  0  0  0  0  0  0
   -5.8039   -0.7167    1.0692 H   0  0  0  0  0  0  0  0  0  0  0  0
   -8.6975   -6.0126    0.2927 C   0  0  0  0  0  0  0  0  0  0  0  0
   -9.8334   -6.4930   -0.3516 C   0  0  0  0  0  0  0  0  0  0  0  0
   -9.7330   -7.3741   -1.4402 C   0  0  0  0  0  0  0  0  0  0  0  0
   -8.4579   -7.7681   -1.8673 C   0  0  0  0  0  0  0  0  0  0  0  0
   -7.3080   -7.2981   -1.2349 C   0  0  0  0  0  0  0  0  0  0  0  0
   -7.4410   -6.4185   -0.1615 C   0  0  0  0  0  0  0  0  0  0  0  0
   -8.7735   -5.3446    1.1437 H   0  0  0  0  0  0  0  0  0  0  0  0
  -10.8150   -6.1840   -0.0023 H   0  0  0  0  0  0  0  0  0  0  0  0
   -8.3632   -8.4554   -2.7035 H   0  0  0  0  0  0  0  0  0  0  0  0
   -6.3220   -7.6151   -1.5556 H   0  0  0  0  0  0  0  0  0  0  0  0
   -5.9785   -5.8127    0.6576 S   0  0  0  0  0  0  0  0  0  0  0  0
   -6.3208   -5.3842    2.0167 O   0  0  0  0  0  0  0  0  0  0  0  0
   -5.7151   -4.4987   -0.2780 O   0  0  0  0  0  0  0  0  0  0  0  0
   -4.8753   -6.7578    0.4594 O   0  0  0  0  0  0  0  0  0  0  0  0
  -10.9768   -7.8892   -2.1236 C   0  0  0  0  0  0  0  0  0  0  0  0
  -11.6058   -8.4539   -1.4256 H   0  0  0  0  0  0  0  0  0  0  0  0
  -11.5861   -7.0646   -2.5103 H   0  0  0  0  0  0  0  0  0  0  0  0
  -10.7309   -8.5474   -2.9610 H   0  0  0  0  0  0  0  0  0  0  0  0
  1  2  1  6  0  0  0
  1  8  1  0  0  0  0
  3  2  1  0  0  0  0
  4  5  2  0  0  0  0
  4  1  1  0  0  0  0
  5  6  1  0  0  0  0
  6 11  1  1  0  0  0
  6  7  1  0  0  0  0
  7 12  1  0  0  0  0
  8  7  2  0  0  0  0
  8 13  1  0  0  0  0
  9  4  1  0  0  0  0
 10  5  1  0  0  0  0
 14 20  1  0  0  0  0
 15 21  1  0  0  0  0
 15 14  2  0  0  0  0
 16 15  1  0  0  0  0
 17 16  2  0  0  0  0
 17 18  1  0  0  0  0
 18 19  2  0  0  0  0
 19 14  1  0  0  0  0
 19 24  1  0  0  0  0
 22 17  1  0  0  0  0
 23 18  1  0  0  0  0
 24 25  2  0  0  0  0
 26  6  1  0  0  0  0
 26 24  1  0  0  0  0
 27 24  2  0  0  0  0
 28 16  1  0  0  0  0
 28 29  1  0  0  0  0
 30 28  1  0  0  0  0
 31 28  1  0  0  0  0
M  RAD  3   1   2   2   2   3   3
M  END
