Coordinates from ORCA-job PhN2+~TsO-_B3LYPG-6-31G_dp-NX-Scan-d89-09-n800
 OpenBabel11261920463D

 31 32  0  0  1  0  0  0  0  0999 V2000
   -5.3514   -1.3478   -0.7565 C   0  0  2  0  0  0  0  0  0  0  0  0
   -6.6095   -1.7458   -0.5918 N   0  0  0  0  0  0  0  0  0  0  0  0
   -7.5158   -2.4030   -0.4117 N   0  0  0  0  0  0  0  0  0  0  0  0
   -4.7854   -2.0601   -1.9485 C   0  0  0  0  0  0  0  0  0  0  0  0
   -4.2586   -3.2682   -1.7031 C   0  0  0  0  0  0  0  0  0  0  0  0
   -4.4303   -3.7985   -0.3045 C   0  0  1  0  0  0  0  0  0  0  0  0
   -4.0668   -2.7500    0.7159 C   0  0  0  0  0  0  0  0  0  0  0  0
   -4.6025   -1.5344    0.5290 C   0  0  0  0  0  0  0  0  0  0  0  0
   -4.8433   -1.6185   -2.9394 H   0  0  0  0  0  0  0  0  0  0  0  0
   -3.7658   -3.8729   -2.4587 H   0  0  0  0  0  0  0  0  0  0  0  0
   -3.9523   -4.7609   -0.1346 H   0  0  0  0  0  0  0  0  0  0  0  0
   -3.4523   -3.0126    1.5720 H   0  0  0  0  0  0  0  0  0  0  0  0
   -4.5415   -0.7310    1.2575 H   0  0  0  0  0  0  0  0  0  0  0  0
   -8.9873   -5.4739   -0.1215 C   0  0  0  0  0  0  0  0  0  0  0  0
   -9.9551   -6.1340   -0.8751 C   0  0  0  0  0  0  0  0  0  0  0  0
   -9.6537   -7.3103   -1.5774 C   0  0  0  0  0  0  0  0  0  0  0  0
   -8.3465   -7.8134   -1.5093 C   0  0  0  0  0  0  0  0  0  0  0  0
   -7.3627   -7.1660   -0.7652 C   0  0  0  0  0  0  0  0  0  0  0  0
   -7.6936   -5.9961   -0.0800 C   0  0  0  0  0  0  0  0  0  0  0  0
   -9.2256   -4.5702    0.4265 H   0  0  0  0  0  0  0  0  0  0  0  0
  -10.9632   -5.7303   -0.9158 H   0  0  0  0  0  0  0  0  0  0  0  0
   -8.0962   -8.7273   -2.0410 H   0  0  0  0  0  0  0  0  0  0  0  0
   -6.3558   -7.5635   -0.7005 H   0  0  0  0  0  0  0  0  0  0  0  0
   -6.4397   -5.1720    0.8869 S   0  0  0  0  0  0  0  0  0  0  0  0
   -7.0766   -4.4995    2.0162 O   0  0  0  0  0  0  0  0  0  0  0  0
   -5.9586   -4.0135   -0.1851 O   0  0  0  0  0  0  0  0  0  0  0  0
   -5.3259   -6.1008    1.1090 O   0  0  0  0  0  0  0  0  0  0  0  0
  -10.7198   -8.0372   -2.3606 C   0  0  0  0  0  0  0  0  0  0  0  0
  -11.2276   -8.7799   -1.7328 H   0  0  0  0  0  0  0  0  0  0  0  0
  -11.4836   -7.3484   -2.7324 H   0  0  0  0  0  0  0  0  0  0  0  0
  -10.2952   -8.5704   -3.2160 H   0  0  0  0  0  0  0  0  0  0  0  0
  1  2  1  1  0  0  0
  1  8  1  0  0  0  0
  2  3  1  0  0  0  0
  4  5  2  0  0  0  0
  4  1  1  0  0  0  0
  5  6  1  0  0  0  0
  6 26  1  0  0  0  0
  6 11  1  1  0  0  0
  6  7  1  0  0  0  0
  7 12  1  0  0  0  0
  8  7  2  0  0  0  0
  8 13  1  0  0  0  0
  9  4  1  0  0  0  0
 10  5  1  0  0  0  0
 14 19  1  0  0  0  0
 14 20  1  0  0  0  0
 15 14  2  0  0  0  0
 16 17  2  0  0  0  0
 16 15  1  0  0  0  0
 17 18  1  0  0  0  0
 18 23  1  0  0  0  0
 18 19  2  0  0  0  0
 19 24  1  0  0  0  0
 21 15  1  0  0  0  0
 22 17  1  0  0  0  0
 24 27  2  0  0  0  0
 24 25  2  0  0  0  0
 26 24  1  0  0  0  0
 28 29  1  0  0  0  0
 28 16  1  0  0  0  0
 30 28  1  0  0  0  0
 31 28  1  0  0  0  0
M  RAD  3   1   2   2   2   3   3
M  END
