Coordinates from ORCA-job PhN2+~TsO-_B3LYPG-6-31G_dp-NX-Scan-d89-09-n800
 OpenBabel11261920463D

 31 32  0  0  1  0  0  0  0  0999 V2000
   -5.4546   -1.4071   -0.6490 C   0  0  2  0  0  0  0  0  0  0  0  0
   -6.7559   -1.2541   -0.6718 N   0  0  0  0  0  0  0  0  0  0  0  0
   -7.8943   -1.2206   -0.6853 N   0  0  0  0  0  0  0  0  0  0  0  0
   -4.8481   -1.9918   -1.8559 C   0  0  0  0  0  0  0  0  0  0  0  0
   -4.1719   -3.1403   -1.6955 C   0  0  0  0  0  0  0  0  0  0  0  0
   -4.3188   -3.8186   -0.3636 C   0  0  1  0  0  0  0  0  0  0  0  0
   -4.1712   -2.8444    0.7729 C   0  0  0  0  0  0  0  0  0  0  0  0
   -4.8475   -1.6906    0.6616 C   0  0  0  0  0  0  0  0  0  0  0  0
   -4.9602   -1.4919   -2.8137 H   0  0  0  0  0  0  0  0  0  0  0  0
   -3.6240   -3.6215   -2.4986 H   0  0  0  0  0  0  0  0  0  0  0  0
   -3.7051   -4.7117   -0.2535 H   0  0  0  0  0  0  0  0  0  0  0  0
   -3.6260   -3.1266    1.6673 H   0  0  0  0  0  0  0  0  0  0  0  0
   -4.9664   -0.9840    1.4776 H   0  0  0  0  0  0  0  0  0  0  0  0
   -8.7843   -5.4677   -0.2676 C   0  0  0  0  0  0  0  0  0  0  0  0
   -9.8185   -6.0869   -0.9622 C   0  0  0  0  0  0  0  0  0  0  0  0
   -9.6542   -7.3623   -1.5271 C   0  0  0  0  0  0  0  0  0  0  0  0
   -8.4172   -8.0032   -1.3827 C   0  0  0  0  0  0  0  0  0  0  0  0
   -7.3652   -7.3962   -0.6965 C   0  0  0  0  0  0  0  0  0  0  0  0
   -7.5607   -6.1311   -0.1462 C   0  0  0  0  0  0  0  0  0  0  0  0
   -8.9191   -4.4867    0.1743 H   0  0  0  0  0  0  0  0  0  0  0  0
  -10.7717   -5.5745   -1.0653 H   0  0  0  0  0  0  0  0  0  0  0  0
   -8.2739   -8.9917   -1.8097 H   0  0  0  0  0  0  0  0  0  0  0  0
   -6.4087   -7.8936   -0.5782 H   0  0  0  0  0  0  0  0  0  0  0  0
   -6.2287   -5.3541    0.7503 S   0  0  0  0  0  0  0  0  0  0  0  0
   -6.7843   -4.6328    1.8947 O   0  0  0  0  0  0  0  0  0  0  0  0
   -5.7686   -4.2764   -0.3971 O   0  0  0  0  0  0  0  0  0  0  0  0
   -5.1398   -6.3166    0.9490 O   0  0  0  0  0  0  0  0  0  0  0  0
  -10.7968   -8.0287   -2.2545 C   0  0  0  0  0  0  0  0  0  0  0  0
  -11.5764   -8.3468   -1.5520 H   0  0  0  0  0  0  0  0  0  0  0  0
  -11.2672   -7.3444   -2.9685 H   0  0  0  0  0  0  0  0  0  0  0  0
  -10.4625   -8.9138   -2.8016 H   0  0  0  0  0  0  0  0  0  0  0  0
  1  2  1  1  0  0  0
  1  8  1  0  0  0  0
  3  2  1  0  0  0  0
  4  5  2  0  0  0  0
  4  1  1  0  0  0  0
  5  6  1  0  0  0  0
  6 11  1  1  0  0  0
  6  7  1  0  0  0  0
  7 12  1  0  0  0  0
  8  7  2  0  0  0  0
  8 13  1  0  0  0  0
  9  4  1  0  0  0  0
 10  5  1  0  0  0  0
 14 19  1  0  0  0  0
 14 20  1  0  0  0  0
 15 14  2  0  0  0  0
 16 17  2  0  0  0  0
 16 15  1  0  0  0  0
 17 18  1  0  0  0  0
 18 23  1  0  0  0  0
 18 19  2  0  0  0  0
 19 24  1  0  0  0  0
 21 15  1  0  0  0  0
 22 17  1  0  0  0  0
 24 27  2  0  0  0  0
 24 25  2  0  0  0  0
 26  6  1  0  0  0  0
 26 24  1  0  0  0  0
 28 29  1  0  0  0  0
 28 16  1  0  0  0  0
 30 28  1  0  0  0  0
 31 28  1  0  0  0  0
M  RAD  3   1   2   2   2   3   3
M  END
