Coordinates from ORCA-job PhN2+~TsO-_B3LYPG-6-31G_dp-NX-Scan-d89-09-n800
 OpenBabel11261920463D

 31 32  0  0  1  0  0  0  0  0999 V2000
   -5.4208   -1.3796   -0.9544 C   0  0  2  0  0  0  0  0  0  0  0  0
   -6.4088   -0.6675   -1.4342 N   0  0  0  0  0  0  0  0  0  0  0  0
   -7.3036   -0.0975   -1.8520 N   0  0  0  0  0  0  0  0  0  0  0  0
   -4.6058   -2.1649   -1.8650 C   0  0  0  0  0  0  0  0  0  0  0  0
   -4.0005   -3.2650   -1.3828 C   0  0  0  0  0  0  0  0  0  0  0  0
   -4.3831   -3.7506   -0.0226 C   0  0  1  0  0  0  0  0  0  0  0  0
   -4.6717   -2.6442    0.9418 C   0  0  0  0  0  0  0  0  0  0  0  0
   -5.2830   -1.5373    0.4840 C   0  0  0  0  0  0  0  0  0  0  0  0
   -4.4946   -1.8366   -2.8938 H   0  0  0  0  0  0  0  0  0  0  0  0
   -3.3416   -3.8705   -1.9953 H   0  0  0  0  0  0  0  0  0  0  0  0
   -3.6907   -4.4977    0.3666 H   0  0  0  0  0  0  0  0  0  0  0  0
   -4.5014   -2.8057    2.0002 H   0  0  0  0  0  0  0  0  0  0  0  0
   -5.6617   -0.7603    1.1407 H   0  0  0  0  0  0  0  0  0  0  0  0
   -8.7326   -5.9225    0.2448 C   0  0  0  0  0  0  0  0  0  0  0  0
   -9.8475   -6.4193   -0.4237 C   0  0  0  0  0  0  0  0  0  0  0  0
   -9.7141   -7.3493   -1.4670 C   0  0  0  0  0  0  0  0  0  0  0  0
   -8.4275   -7.7751   -1.8238 C   0  0  0  0  0  0  0  0  0  0  0  0
   -7.2985   -7.2889   -1.1668 C   0  0  0  0  0  0  0  0  0  0  0  0
   -7.4638   -6.3608   -0.1395 C   0  0  0  0  0  0  0  0  0  0  0  0
   -8.8349   -5.2159    1.0613 H   0  0  0  0  0  0  0  0  0  0  0  0
  -10.8385   -6.0845   -0.1290 H   0  0  0  0  0  0  0  0  0  0  0  0
   -8.3075   -8.5003   -2.6241 H   0  0  0  0  0  0  0  0  0  0  0  0
   -6.3043   -7.6298   -1.4331 H   0  0  0  0  0  0  0  0  0  0  0  0
   -6.0284   -5.7331    0.7112 S   0  0  0  0  0  0  0  0  0  0  0  0
   -6.4245   -5.2381    2.0320 O   0  0  0  0  0  0  0  0  0  0  0  0
   -5.7070   -4.4712   -0.2774 O   0  0  0  0  0  0  0  0  0  0  0  0
   -4.9296   -6.6987    0.6053 O   0  0  0  0  0  0  0  0  0  0  0  0
  -10.9352   -7.8830   -2.1764 C   0  0  0  0  0  0  0  0  0  0  0  0
  -11.5851   -8.4319   -1.4847 H   0  0  0  0  0  0  0  0  0  0  0  0
  -11.5330   -7.0693   -2.6019 H   0  0  0  0  0  0  0  0  0  0  0  0
  -10.6625   -8.5615   -2.9889 H   0  0  0  0  0  0  0  0  0  0  0  0
  1  2  1  6  0  0  0
  1  8  1  0  0  0  0
  3  2  1  0  0  0  0
  4  5  2  0  0  0  0
  4  1  1  0  0  0  0
  5  6  1  0  0  0  0
  6 11  1  1  0  0  0
  6  7  1  0  0  0  0
  7 12  1  0  0  0  0
  8  7  2  0  0  0  0
  8 13  1  0  0  0  0
  9  4  1  0  0  0  0
 10  5  1  0  0  0  0
 14 20  1  0  0  0  0
 15 21  1  0  0  0  0
 15 14  2  0  0  0  0
 16 15  1  0  0  0  0
 17 16  2  0  0  0  0
 17 18  1  0  0  0  0
 18 19  2  0  0  0  0
 19 14  1  0  0  0  0
 19 24  1  0  0  0  0
 22 17  1  0  0  0  0
 23 18  1  0  0  0  0
 24 25  2  0  0  0  0
 26  6  1  0  0  0  0
 26 24  1  0  0  0  0
 27 24  2  0  0  0  0
 28 29  1  0  0  0  0
 28 16  1  0  0  0  0
 30 28  1  0  0  0  0
 31 28  1  0  0  0  0
M  RAD  3   1   2   2   2   3   3
M  END
