Coordinates from ORCA-job PhN2+~TsO-_B3LYPG-6-31G_dp-NX-Scan-d89-09-n800
 OpenBabel11261920463D

 31 31  0  0  0  0  0  0  0  0999 V2000
   -4.3412   -0.5039   -0.5572 C   0  0  0  0  0  0  0  0  0  0  0  0
   -4.2180    0.8365   -0.5386 N   0  0  0  0  0  0  0  0  0  0  0  0
   -4.1008    1.9602   -0.5141 N   0  0  0  0  0  0  0  0  0  0  0  0
   -3.9737   -1.2101   -1.7393 C   0  0  0  0  0  0  0  0  0  0  0  0
   -4.0222   -2.5834   -1.7121 C   0  0  0  0  0  0  0  0  0  0  0  0
   -4.4276   -3.2752   -0.5448 C   0  0  0  0  0  0  0  0  0  0  0  0
   -4.8297   -2.5491    0.6063 C   0  0  0  0  0  0  0  0  0  0  0  0
   -4.7929   -1.1769    0.6183 C   0  0  0  0  0  0  0  0  0  0  0  0
   -3.6432   -0.6632   -2.6156 H   0  0  0  0  0  0  0  0  0  0  0  0
   -3.7346   -3.1481   -2.5918 H   0  0  0  0  0  0  0  0  0  0  0  0
   -4.2978   -4.3491   -0.4758 H   0  0  0  0  0  0  0  0  0  0  0  0
   -5.2021   -3.1018    1.4627 H   0  0  0  0  0  0  0  0  0  0  0  0
   -5.0850   -0.6032    1.4909 H   0  0  0  0  0  0  0  0  0  0  0  0
   -9.2533   -6.1826   -0.0977 C   0  0  0  0  0  0  0  0  0  0  0  0
  -10.2849   -7.0307   -0.4921 C   0  0  0  0  0  0  0  0  0  0  0  0
  -10.0221   -8.2074   -1.2104 C   0  0  0  0  0  0  0  0  0  0  0  0
   -8.6909   -8.5120   -1.5236 C   0  0  0  0  0  0  0  0  0  0  0  0
   -7.6481   -7.6703   -1.1367 C   0  0  0  0  0  0  0  0  0  0  0  0
   -7.9341   -6.5062   -0.4239 C   0  0  0  0  0  0  0  0  0  0  0  0
   -9.4554   -5.2823    0.4723 H   0  0  0  0  0  0  0  0  0  0  0  0
  -11.3116   -6.7804   -0.2347 H   0  0  0  0  0  0  0  0  0  0  0  0
   -8.4674   -9.4232   -2.0731 H   0  0  0  0  0  0  0  0  0  0  0  0
   -6.6157   -7.9110   -1.3657 H   0  0  0  0  0  0  0  0  0  0  0  0
   -6.6004   -5.3971    0.0461 S   0  0  0  0  0  0  0  0  0  0  0  0
   -6.9987   -4.7704    1.3321 O   0  0  0  0  0  0  0  0  0  0  0  0
   -6.5458   -4.3881   -1.0920 O   0  0  0  0  0  0  0  0  0  0  0  0
   -5.3576   -6.2121    0.0964 O   0  0  0  0  0  0  0  0  0  0  0  0
  -11.1474   -9.1333   -1.6088 C   0  0  0  0  0  0  0  0  0  0  0  0
  -11.5012   -9.7201   -0.7518 H   0  0  0  0  0  0  0  0  0  0  0  0
  -12.0081   -8.5758   -1.9929 H   0  0  0  0  0  0  0  0  0  0  0  0
  -10.8302   -9.8401   -2.3812 H   0  0  0  0  0  0  0  0  0  0  0  0
  1  2  1  0  0  0  0
  1  8  2  0  0  0  0
  2  3  1  0  0  0  0
  4  5  2  0  0  0  0
  4  1  1  0  0  0  0
  5  6  1  0  0  0  0
  6 11  1  0  0  0  0
  6  7  2  0  0  0  0
  7  8  1  0  0  0  0
  7 12  1  0  0  0  0
  8 13  1  0  0  0  0
  9  4  1  0  0  0  0
 10  5  1  0  0  0  0
 14 20  1  0  0  0  0
 15 21  1  0  0  0  0
 15 14  2  0  0  0  0
 16 15  1  0  0  0  0
 17 16  2  0  0  0  0
 17 18  1  0  0  0  0
 18 19  2  0  0  0  0
 19 14  1  0  0  0  0
 19 24  1  0  0  0  0
 22 17  1  0  0  0  0
 23 18  1  0  0  0  0
 24 27  2  0  0  0  0
 24 25  1  0  0  0  0
 26 24  2  0  0  0  0
 28 16  1  0  0  0  0
 28 29  1  0  0  0  0
 30 28  1  0  0  0  0
 31 28  1  0  0  0  0
M  RAD  3   2   2   3   3  25   2
M  END
