Coordinates from ORCA-job PhN2+~TsO-_B3LYPG-6-31G_dp-NX-Scan-d89-09-n800
 OpenBabel11261920463D

 31 31  0  0  0  0  0  0  0  0999 V2000
   -4.0887   -0.4171   -0.4170 C   0  0  0  0  0  0  0  0  0  0  0  0
   -3.9105    0.9121   -0.2413 N   0  0  0  0  0  0  0  0  0  0  0  0
   -3.7589    2.0168   -0.0831 N   0  0  0  0  0  0  0  0  0  0  0  0
   -3.4882   -1.0321   -1.5466 C   0  0  0  0  0  0  0  0  0  0  0  0
   -3.6570   -2.3936   -1.6919 C   0  0  0  0  0  0  0  0  0  0  0  0
   -4.4043   -3.1333   -0.7532 C   0  0  0  0  0  0  0  0  0  0  0  0
   -5.0108   -2.4943    0.3521 C   0  0  0  0  0  0  0  0  0  0  0  0
   -4.8595   -1.1377    0.5387 C   0  0  0  0  0  0  0  0  0  0  0  0
   -2.9153   -0.4393   -2.2512 H   0  0  0  0  0  0  0  0  0  0  0  0
   -3.2077   -2.8997   -2.5395 H   0  0  0  0  0  0  0  0  0  0  0  0
   -4.5036   -4.2126   -0.8491 H   0  0  0  0  0  0  0  0  0  0  0  0
   -5.6291   -3.0901    1.0240 H   0  0  0  0  0  0  0  0  0  0  0  0
   -5.3107   -0.6175    1.3764 H   0  0  0  0  0  0  0  0  0  0  0  0
   -9.3878   -6.2545   -0.1283 C   0  0  0  0  0  0  0  0  0  0  0  0
  -10.3839   -7.1852   -0.4115 C   0  0  0  0  0  0  0  0  0  0  0  0
  -10.0911   -8.3758   -1.0950 C   0  0  0  0  0  0  0  0  0  0  0  0
   -8.7666   -8.6074   -1.4875 C   0  0  0  0  0  0  0  0  0  0  0  0
   -7.7600   -7.6815   -1.2119 C   0  0  0  0  0  0  0  0  0  0  0  0
   -8.0736   -6.5052   -0.5318 C   0  0  0  0  0  0  0  0  0  0  0  0
   -9.6134   -5.3431    0.4147 H   0  0  0  0  0  0  0  0  0  0  0  0
  -11.4056   -6.9899   -0.0934 H   0  0  0  0  0  0  0  0  0  0  0  0
   -8.5190   -9.5273   -2.0119 H   0  0  0  0  0  0  0  0  0  0  0  0
   -6.7314   -7.8635   -1.5035 H   0  0  0  0  0  0  0  0  0  0  0  0
   -6.7918   -5.2843   -0.2182 S   0  0  0  0  0  0  0  0  0  0  0  0
   -7.1071   -4.6935    1.1152 O   0  0  0  0  0  0  0  0  0  0  0  0
   -6.9055   -4.2785   -1.3318 O   0  0  0  0  0  0  0  0  0  0  0  0
   -5.4930   -6.0165   -0.2716 O   0  0  0  0  0  0  0  0  0  0  0  0
  -11.1757   -9.3902   -1.3737 C   0  0  0  0  0  0  0  0  0  0  0  0
  -11.4481   -9.9418   -0.4651 H   0  0  0  0  0  0  0  0  0  0  0  0
  -12.0885   -8.9103   -1.7423 H   0  0  0  0  0  0  0  0  0  0  0  0
  -10.8552  -10.1238   -2.1193 H   0  0  0  0  0  0  0  0  0  0  0  0
  1  2  1  0  0  0  0
  1  8  2  0  0  0  0
  2  3  1  0  0  0  0
  4  1  1  0  0  0  0
  5  4  2  0  0  0  0
  5  6  1  0  0  0  0
  6  7  2  0  0  0  0
  7  8  1  0  0  0  0
  7 12  1  0  0  0  0
  8 13  1  0  0  0  0
  9  4  1  0  0  0  0
 10  5  1  0  0  0  0
 11  6  1  0  0  0  0
 14 20  1  0  0  0  0
 15 14  1  0  0  0  0
 15 21  1  0  0  0  0
 16 15  2  0  0  0  0
 17 18  2  0  0  0  0
 17 16  1  0  0  0  0
 18 19  1  0  0  0  0
 19 24  1  0  0  0  0
 19 14  2  0  0  0  0
 22 17  1  0  0  0  0
 23 18  1  0  0  0  0
 24 25  1  0  0  0  0
 26 24  2  0  0  0  0
 27 24  2  0  0  0  0
 28 16  1  0  0  0  0
 28 29  1  0  0  0  0
 30 28  1  0  0  0  0
 31 28  1  0  0  0  0
M  RAD  3   2   2   3   3  25   2
M  END
