Coordinates from ORCA-job PhN2+~TsO-_B3LYPG-6-31G_dp-NX-Scan-d89-09-n800
 OpenBabel11261920463D

 31 32  0  0  1  0  0  0  0  0999 V2000
   -5.4025   -1.3664   -0.6525 C   0  0  2  0  0  0  0  0  0  0  0  0
   -6.6814   -1.6723   -0.5688 N   0  0  0  0  0  0  0  0  0  0  0  0
   -7.7252   -2.1119   -0.4876 N   0  0  0  0  0  0  0  0  0  0  0  0
   -4.7917   -1.9578   -1.8826 C   0  0  0  0  0  0  0  0  0  0  0  0
   -4.2052   -3.1513   -1.7246 C   0  0  0  0  0  0  0  0  0  0  0  0
   -4.3837   -3.8045   -0.3776 C   0  0  1  0  0  0  0  0  0  0  0  0
   -4.0974   -2.8265    0.7370 C   0  0  0  0  0  0  0  0  0  0  0  0
   -4.6886   -1.6288    0.6346 C   0  0  0  0  0  0  0  0  0  0  0  0
   -4.8521   -1.4369   -2.8339 H   0  0  0  0  0  0  0  0  0  0  0  0
   -3.6703   -3.6672   -2.5161 H   0  0  0  0  0  0  0  0  0  0  0  0
   -3.8514   -4.7484   -0.2733 H   0  0  0  0  0  0  0  0  0  0  0  0
   -3.4956   -3.1304    1.5880 H   0  0  0  0  0  0  0  0  0  0  0  0
   -4.6873   -0.8851    1.4261 H   0  0  0  0  0  0  0  0  0  0  0  0
   -8.9050   -5.4339   -0.2365 C   0  0  0  0  0  0  0  0  0  0  0  0
   -9.8996   -6.0958   -0.9502 C   0  0  0  0  0  0  0  0  0  0  0  0
   -9.6603   -7.3435   -1.5476 C   0  0  0  0  0  0  0  0  0  0  0  0
   -8.3880   -7.9151   -1.4152 C   0  0  0  0  0  0  0  0  0  0  0  0
   -7.3756   -7.2662   -0.7092 C   0  0  0  0  0  0  0  0  0  0  0  0
   -7.6455   -6.0279   -0.1283 C   0  0  0  0  0  0  0  0  0  0  0  0
   -9.0952   -4.4738    0.2280 H   0  0  0  0  0  0  0  0  0  0  0  0
  -10.8809   -5.6374   -1.0433 H   0  0  0  0  0  0  0  0  0  0  0  0
   -8.1860   -8.8825   -1.8661 H   0  0  0  0  0  0  0  0  0  0  0  0
   -6.3937   -7.7129   -0.5973 H   0  0  0  0  0  0  0  0  0  0  0  0
   -6.3603   -5.2032    0.7935 S   0  0  0  0  0  0  0  0  0  0  0  0
   -6.9629   -4.4727    1.9059 O   0  0  0  0  0  0  0  0  0  0  0  0
   -5.8731   -4.1156   -0.3445 O   0  0  0  0  0  0  0  0  0  0  0  0
   -5.2596   -6.1419    1.0361 O   0  0  0  0  0  0  0  0  0  0  0  0
  -10.7604   -8.0593   -2.2931 C   0  0  0  0  0  0  0  0  0  0  0  0
  -11.4781   -8.5086   -1.5958 H   0  0  0  0  0  0  0  0  0  0  0  0
  -11.3212   -7.3707   -2.9333 H   0  0  0  0  0  0  0  0  0  0  0  0
  -10.3643   -8.8623   -2.9203 H   0  0  0  0  0  0  0  0  0  0  0  0
  1  2  1  1  0  0  0
  1  8  1  0  0  0  0
  2  3  1  0  0  0  0
  4  5  2  0  0  0  0
  4  1  1  0  0  0  0
  5  6  1  0  0  0  0
  6 26  1  0  0  0  0
  6 11  1  1  0  0  0
  6  7  1  0  0  0  0
  7 12  1  0  0  0  0
  8  7  2  0  0  0  0
  8 13  1  0  0  0  0
  9  4  1  0  0  0  0
 10  5  1  0  0  0  0
 14 19  1  0  0  0  0
 14 20  1  0  0  0  0
 15 14  2  0  0  0  0
 16 17  2  0  0  0  0
 16 15  1  0  0  0  0
 17 18  1  0  0  0  0
 18 23  1  0  0  0  0
 18 19  2  0  0  0  0
 19 24  1  0  0  0  0
 21 15  1  0  0  0  0
 22 17  1  0  0  0  0
 24 27  2  0  0  0  0
 24 25  2  0  0  0  0
 26 24  1  0  0  0  0
 28 29  1  0  0  0  0
 28 16  1  0  0  0  0
 30 28  1  0  0  0  0
 31 28  1  0  0  0  0
M  RAD  3   1   2   2   2   3   3
M  END
