Coordinates from ORCA-job PhN2+~TsO-_B3LYPG-6-31G_dp-NX-Scan-d89-09-n800
 OpenBabel11261920463D

 31 32  0  0  1  0  0  0  0  0999 V2000
   -5.4543   -1.3922   -0.6318 C   0  0  2  0  0  0  0  0  0  0  0  0
   -6.7541   -1.5787   -0.5854 N   0  0  0  0  0  0  0  0  0  0  0  0
   -7.8525   -1.8701   -0.5381 N   0  0  0  0  0  0  0  0  0  0  0  0
   -4.8318   -1.9526   -1.8611 C   0  0  0  0  0  0  0  0  0  0  0  0
   -4.1866   -3.1181   -1.7167 C   0  0  0  0  0  0  0  0  0  0  0  0
   -4.3454   -3.8014   -0.3841 C   0  0  1  0  0  0  0  0  0  0  0  0
   -4.1255   -2.8330    0.7516 C   0  0  0  0  0  0  0  0  0  0  0  0
   -4.7717   -1.6625    0.6616 C   0  0  0  0  0  0  0  0  0  0  0  0
   -4.9219   -1.4282   -2.8082 H   0  0  0  0  0  0  0  0  0  0  0  0
   -3.6329   -3.5987   -2.5170 H   0  0  0  0  0  0  0  0  0  0  0  0
   -3.7683   -4.7199   -0.2888 H   0  0  0  0  0  0  0  0  0  0  0  0
   -3.5344   -3.1264    1.6133 H   0  0  0  0  0  0  0  0  0  0  0  0
   -4.8284   -0.9415    1.4718 H   0  0  0  0  0  0  0  0  0  0  0  0
   -8.8208   -5.4171   -0.3007 C   0  0  0  0  0  0  0  0  0  0  0  0
   -9.8387   -6.0575   -1.0006 C   0  0  0  0  0  0  0  0  0  0  0  0
   -9.6571   -7.3420   -1.5380 C   0  0  0  0  0  0  0  0  0  0  0  0
   -8.4185   -7.9718   -1.3608 C   0  0  0  0  0  0  0  0  0  0  0  0
   -7.3825   -7.3449   -0.6686 C   0  0  0  0  0  0  0  0  0  0  0  0
   -7.5958   -6.0706   -0.1460 C   0  0  0  0  0  0  0  0  0  0  0  0
   -8.9677   -4.4269    0.1151 H   0  0  0  0  0  0  0  0  0  0  0  0
  -10.7927   -5.5530   -1.1306 H   0  0  0  0  0  0  0  0  0  0  0  0
   -8.2609   -8.9669   -1.7671 H   0  0  0  0  0  0  0  0  0  0  0  0
   -6.4250   -7.8336   -0.5250 H   0  0  0  0  0  0  0  0  0  0  0  0
   -6.2830   -5.2731    0.7601 S   0  0  0  0  0  0  0  0  0  0  0  0
   -6.8545   -4.5455    1.8914 O   0  0  0  0  0  0  0  0  0  0  0  0
   -5.8132   -4.1902   -0.3861 O   0  0  0  0  0  0  0  0  0  0  0  0
   -5.1873   -6.2242    0.9749 O   0  0  0  0  0  0  0  0  0  0  0  0
  -10.7833   -8.0322   -2.2687 C   0  0  0  0  0  0  0  0  0  0  0  0
  -11.5381   -8.4024   -1.5643 H   0  0  0  0  0  0  0  0  0  0  0  0
  -11.2919   -7.3474   -2.9549 H   0  0  0  0  0  0  0  0  0  0  0  0
  -10.4229   -8.8878   -2.8457 H   0  0  0  0  0  0  0  0  0  0  0  0
  1  2  1  1  0  0  0
  1  8  1  0  0  0  0
  2  3  1  0  0  0  0
  4  5  2  0  0  0  0
  4  1  1  0  0  0  0
  5  6  1  0  0  0  0
  6 11  1  1  0  0  0
  6  7  1  0  0  0  0
  7 12  1  0  0  0  0
  8  7  2  0  0  0  0
  8 13  1  0  0  0  0
  9  4  1  0  0  0  0
 10  5  1  0  0  0  0
 14 19  1  0  0  0  0
 14 20  1  0  0  0  0
 15 14  2  0  0  0  0
 16 17  2  0  0  0  0
 16 15  1  0  0  0  0
 17 18  1  0  0  0  0
 18 23  1  0  0  0  0
 18 19  2  0  0  0  0
 19 24  1  0  0  0  0
 21 15  1  0  0  0  0
 22 17  1  0  0  0  0
 24 27  2  0  0  0  0
 24 25  2  0  0  0  0
 26  6  1  0  0  0  0
 26 24  1  0  0  0  0
 28 29  1  0  0  0  0
 28 16  1  0  0  0  0
 30 28  1  0  0  0  0
 31 28  1  0  0  0  0
M  RAD  3   1   2   2   2   3   3
M  END
