Coordinates from ORCA-job PhN2+~TsO-_B3LYPG-6-31G_dp-NX-Scan-d89-09-n800
 OpenBabel11261920463D

 31 32  0  0  1  0  0  0  0  0999 V2000
   -5.3687   -1.3588   -0.6905 C   0  0  2  0  0  0  0  0  0  0  0  0
   -6.6379   -1.7101   -0.5927 N   0  0  0  0  0  0  0  0  0  0  0  0
   -7.6407   -2.2316   -0.4927 N   0  0  0  0  0  0  0  0  0  0  0  0
   -4.7584   -1.9884   -1.9052 C   0  0  0  0  0  0  0  0  0  0  0  0
   -4.2043   -3.1928   -1.7156 C   0  0  0  0  0  0  0  0  0  0  0  0
   -4.4011   -3.8076   -0.3529 C   0  0  1  0  0  0  0  0  0  0  0  0
   -4.0910   -2.8085    0.7366 C   0  0  0  0  0  0  0  0  0  0  0  0
   -4.6525   -1.5992    0.6030 C   0  0  0  0  0  0  0  0  0  0  0  0
   -4.7988   -1.4877   -2.8684 H   0  0  0  0  0  0  0  0  0  0  0  0
   -3.6762   -3.7403   -2.4905 H   0  0  0  0  0  0  0  0  0  0  0  0
   -3.8928   -4.7615   -0.2244 H   0  0  0  0  0  0  0  0  0  0  0  0
   -3.4936   -3.1048    1.5935 H   0  0  0  0  0  0  0  0  0  0  0  0
   -4.6296   -0.8342    1.3737 H   0  0  0  0  0  0  0  0  0  0  0  0
   -8.9497   -5.4405   -0.1980 C   0  0  0  0  0  0  0  0  0  0  0  0
   -9.9331   -6.1094   -0.9232 C   0  0  0  0  0  0  0  0  0  0  0  0
   -9.6662   -7.3326   -1.5554 C   0  0  0  0  0  0  0  0  0  0  0  0
   -8.3770   -7.8742   -1.4473 C   0  0  0  0  0  0  0  0  0  0  0  0
   -7.3779   -7.2193   -0.7310 C   0  0  0  0  0  0  0  0  0  0  0  0
   -7.6753   -6.0031   -0.1145 C   0  0  0  0  0  0  0  0  0  0  0  0
   -9.1614   -4.4991    0.2945 H   0  0  0  0  0  0  0  0  0  0  0  0
  -10.9266   -5.6750   -0.9967 H   0  0  0  0  0  0  0  0  0  0  0  0
   -8.1533   -8.8238   -1.9256 H   0  0  0  0  0  0  0  0  0  0  0  0
   -6.3845   -7.6439   -0.6364 H   0  0  0  0  0  0  0  0  0  0  0  0
   -6.4040   -5.1713    0.8207 S   0  0  0  0  0  0  0  0  0  0  0  0
   -7.0227   -4.4425    1.9251 O   0  0  0  0  0  0  0  0  0  0  0  0
   -5.9034   -4.0780   -0.3071 O   0  0  0  0  0  0  0  0  0  0  0  0
   -5.3051   -6.1088    1.0770 O   0  0  0  0  0  0  0  0  0  0  0  0
  -10.7492   -8.0675   -2.3074 C   0  0  0  0  0  0  0  0  0  0  0  0
  -11.2558   -8.7901   -1.6557 H   0  0  0  0  0  0  0  0  0  0  0  0
  -11.5107   -7.3805   -2.6868 H   0  0  0  0  0  0  0  0  0  0  0  0
  -10.3403   -8.6257   -3.1546 H   0  0  0  0  0  0  0  0  0  0  0  0
  1  2  1  1  0  0  0
  1  8  1  0  0  0  0
  2  3  1  0  0  0  0
  4  5  2  0  0  0  0
  4  1  1  0  0  0  0
  5  6  1  0  0  0  0
  6 26  1  0  0  0  0
  6 11  1  1  0  0  0
  6  7  1  0  0  0  0
  7 12  1  0  0  0  0
  8  7  2  0  0  0  0
  8 13  1  0  0  0  0
  9  4  1  0  0  0  0
 10  5  1  0  0  0  0
 14 19  1  0  0  0  0
 14 20  1  0  0  0  0
 15 14  2  0  0  0  0
 16 17  2  0  0  0  0
 16 15  1  0  0  0  0
 17 18  1  0  0  0  0
 18 23  1  0  0  0  0
 18 19  2  0  0  0  0
 19 24  1  0  0  0  0
 21 15  1  0  0  0  0
 22 17  1  0  0  0  0
 24 27  2  0  0  0  0
 24 25  2  0  0  0  0
 26 24  1  0  0  0  0
 28 29  1  0  0  0  0
 28 16  1  0  0  0  0
 30 28  1  0  0  0  0
 31 28  1  0  0  0  0
M  RAD  3   1   2   2   2   3   3
M  END
