Coordinates from ORCA-job PhN2+~TsO-_B3LYPG-6-31G_dp-NX-Scan-d89-09-n800
 OpenBabel11261920463D

 31 32  0  0  1  0  0  0  0  0999 V2000
   -5.3538   -1.3481   -0.7355 C   0  0  2  0  0  0  0  0  0  0  0  0
   -6.4801   -0.7003   -0.8899 N   0  0  0  0  0  0  0  0  0  0  0  0
   -7.4980   -0.2047   -1.0202 N   0  0  0  0  0  0  0  0  0  0  0  0
   -4.7951   -2.0591   -1.8780 C   0  0  0  0  0  0  0  0  0  0  0  0
   -4.1931   -3.2376   -1.6404 C   0  0  0  0  0  0  0  0  0  0  0  0
   -4.3691   -3.8376   -0.2806 C   0  0  1  0  0  0  0  0  0  0  0  0
   -4.2753   -2.8190    0.8147 C   0  0  0  0  0  0  0  0  0  0  0  0
   -4.8791   -1.6350    0.6125 C   0  0  0  0  0  0  0  0  0  0  0  0
   -4.8676   -1.6186   -2.8679 H   0  0  0  0  0  0  0  0  0  0  0  0
   -3.6973   -3.8033   -2.4213 H   0  0  0  0  0  0  0  0  0  0  0  0
   -3.7489   -4.7168   -0.1096 H   0  0  0  0  0  0  0  0  0  0  0  0
   -3.8400   -3.0911    1.7697 H   0  0  0  0  0  0  0  0  0  0  0  0
   -5.0176   -0.8969    1.3965 H   0  0  0  0  0  0  0  0  0  0  0  0
   -8.8678   -5.6711   -0.0359 C   0  0  0  0  0  0  0  0  0  0  0  0
   -9.9006   -6.2819   -0.7405 C   0  0  0  0  0  0  0  0  0  0  0  0
   -9.6713   -7.4296   -1.5165 C   0  0  0  0  0  0  0  0  0  0  0  0
   -8.3732   -7.9543   -1.5678 C   0  0  0  0  0  0  0  0  0  0  0  0
   -7.3240   -7.3538   -0.8727 C   0  0  0  0  0  0  0  0  0  0  0  0
   -7.5827   -6.2125   -0.1152 C   0  0  0  0  0  0  0  0  0  0  0  0
   -9.0487   -4.7956    0.5779 H   0  0  0  0  0  0  0  0  0  0  0  0
  -10.9033   -5.8661   -0.6835 H   0  0  0  0  0  0  0  0  0  0  0  0
   -8.1814   -8.8485   -2.1543 H   0  0  0  0  0  0  0  0  0  0  0  0
   -6.3219   -7.7676   -0.9008 H   0  0  0  0  0  0  0  0  0  0  0  0
   -6.2512   -5.4405    0.7876 S   0  0  0  0  0  0  0  0  0  0  0  0
   -6.8059   -4.7677    1.9624 O   0  0  0  0  0  0  0  0  0  0  0  0
   -5.8142   -4.3250   -0.3280 O   0  0  0  0  0  0  0  0  0  0  0  0
   -5.1477   -6.3947    0.9462 O   0  0  0  0  0  0  0  0  0  0  0  0
  -10.8062   -8.0826   -2.2680 C   0  0  0  0  0  0  0  0  0  0  0  0
  -11.5956   -8.4121   -1.5830 H   0  0  0  0  0  0  0  0  0  0  0  0
  -11.2663   -7.3837   -2.9758 H   0  0  0  0  0  0  0  0  0  0  0  0
  -10.4649   -8.9551   -2.8308 H   0  0  0  0  0  0  0  0  0  0  0  0
  1  2  1  1  0  0  0
  1  8  1  0  0  0  0
  3  2  1  0  0  0  0
  4  5  2  0  0  0  0
  4  1  1  0  0  0  0
  5  6  1  0  0  0  0
  6 11  1  1  0  0  0
  6  7  1  0  0  0  0
  7 12  1  0  0  0  0
  8  7  2  0  0  0  0
  8 13  1  0  0  0  0
  9  4  1  0  0  0  0
 10  5  1  0  0  0  0
 14 20  1  0  0  0  0
 15 21  1  0  0  0  0
 15 14  2  0  0  0  0
 16 15  1  0  0  0  0
 17 16  2  0  0  0  0
 17 18  1  0  0  0  0
 18 19  2  0  0  0  0
 19 14  1  0  0  0  0
 19 24  1  0  0  0  0
 22 17  1  0  0  0  0
 23 18  1  0  0  0  0
 24 27  2  0  0  0  0
 24 25  2  0  0  0  0
 26  6  1  0  0  0  0
 26 24  1  0  0  0  0
 28 29  1  0  0  0  0
 28 16  1  0  0  0  0
 30 28  1  0  0  0  0
 31 28  1  0  0  0  0
M  RAD  3   1   2   2   2   3   3
M  END
