Coordinates from ORCA-job PhN2+~TsO-_B3LYPG-6-31G_dp-NX-Scan-d89-09-n800
 OpenBabel11261920463D

 31 31  0  0  0  0  0  0  0  0999 V2000
   -3.9070   -0.4043   -0.2875 C   0  0  0  0  0  0  0  0  0  0  0  0
   -3.7660    0.9297   -0.0868 N   0  0  0  0  0  0  0  0  0  0  0  0
   -3.6672    2.0352    0.0910 N   0  0  0  0  0  0  0  0  0  0  0  0
   -3.0099   -1.0496   -1.1755 C   0  0  0  0  0  0  0  0  0  0  0  0
   -3.1911   -2.4047   -1.3769 C   0  0  0  0  0  0  0  0  0  0  0  0
   -4.2284   -3.0954   -0.7241 C   0  0  0  0  0  0  0  0  0  0  0  0
   -5.1030   -2.4312    0.1602 C   0  0  0  0  0  0  0  0  0  0  0  0
   -4.9561   -1.0782    0.3921 C   0  0  0  0  0  0  0  0  0  0  0  0
   -2.2262   -0.4859   -1.6692 H   0  0  0  0  0  0  0  0  0  0  0  0
   -2.5309   -2.9350   -2.0554 H   0  0  0  0  0  0  0  0  0  0  0  0
   -4.4174   -4.1573   -0.9044 H   0  0  0  0  0  0  0  0  0  0  0  0
   -5.9174   -3.0039    0.6171 H   0  0  0  0  0  0  0  0  0  0  0  0
   -5.6177   -0.5307    1.0547 H   0  0  0  0  0  0  0  0  0  0  0  0
   -9.5094   -6.3132   -0.1293 C   0  0  0  0  0  0  0  0  0  0  0  0
  -10.4225   -7.3613   -0.2253 C   0  0  0  0  0  0  0  0  0  0  0  0
  -10.1240   -8.5178   -0.9609 C   0  0  0  0  0  0  0  0  0  0  0  0
   -8.8798   -8.5938   -1.5998 C   0  0  0  0  0  0  0  0  0  0  0  0
   -7.9577   -7.5501   -1.5117 C   0  0  0  0  0  0  0  0  0  0  0  0
   -8.2750   -6.4094   -0.7754 C   0  0  0  0  0  0  0  0  0  0  0  0
   -9.7365   -5.4267    0.4534 H   0  0  0  0  0  0  0  0  0  0  0  0
  -11.3823   -7.2834    0.2805 H   0  0  0  0  0  0  0  0  0  0  0  0
   -8.6272   -9.4842   -2.1717 H   0  0  0  0  0  0  0  0  0  0  0  0
   -6.9888   -7.6146   -1.9943 H   0  0  0  0  0  0  0  0  0  0  0  0
   -7.1240   -5.0269   -0.7128 S   0  0  0  0  0  0  0  0  0  0  0  0
   -7.2941   -4.4435    0.6581 O   0  0  0  0  0  0  0  0  0  0  0  0
   -7.4969   -4.0805   -1.7951 O   0  0  0  0  0  0  0  0  0  0  0  0
   -5.7688   -5.6384   -0.9148 O   0  0  0  0  0  0  0  0  0  0  0  0
  -11.1090   -9.6612   -1.0353 C   0  0  0  0  0  0  0  0  0  0  0  0
  -11.0810  -10.2724   -0.1236 H   0  0  0  0  0  0  0  0  0  0  0  0
  -12.1365   -9.2992   -1.1471 H   0  0  0  0  0  0  0  0  0  0  0  0
  -10.8900  -10.3226   -1.8789 H   0  0  0  0  0  0  0  0  0  0  0  0
  1  2  1  0  0  0  0
  1  8  2  0  0  0  0
  2  3  1  0  0  0  0
  4  1  1  0  0  0  0
  5  4  2  0  0  0  0
  5  6  1  0  0  0  0
  6  7  2  0  0  0  0
  7  8  1  0  0  0  0
  7 12  1  0  0  0  0
  8 13  1  0  0  0  0
  9  4  1  0  0  0  0
 10  5  1  0  0  0  0
 11  6  1  0  0  0  0
 14 20  1  0  0  0  0
 15 14  1  0  0  0  0
 15 21  1  0  0  0  0
 16 15  2  0  0  0  0
 17 18  2  0  0  0  0
 17 16  1  0  0  0  0
 18 19  1  0  0  0  0
 19 24  1  0  0  0  0
 19 14  2  0  0  0  0
 22 17  1  0  0  0  0
 23 18  1  0  0  0  0
 24 25  1  0  0  0  0
 26 24  2  0  0  0  0
 27 24  2  0  0  0  0
 28 16  1  0  0  0  0
 28 29  1  0  0  0  0
 30 28  1  0  0  0  0
 31 28  1  0  0  0  0
M  RAD  3   2   2   3   3  25   2
M  END
