Coordinates from ORCA-job PhN2+~TsO-_B3LYPG-6-31G_dp-NX-Scan-d89-09-n800
 OpenBabel11261920463D

 31 31  0  0  0  0  0  0  0  0999 V2000
   -3.6618   -0.5929    0.1325 C   0  0  0  0  0  0  0  0  0  0  0  0
   -3.3095    0.5618    0.7510 N   0  0  0  0  0  0  0  0  0  0  0  0
   -3.0389    1.5172    1.2784 N   0  0  0  0  0  0  0  0  0  0  0  0
   -2.7266   -1.2032   -0.7410 C   0  0  0  0  0  0  0  0  0  0  0  0
   -3.1189   -2.3729   -1.3638 C   0  0  0  0  0  0  0  0  0  0  0  0
   -4.3985   -2.9117   -1.1369 C   0  0  0  0  0  0  0  0  0  0  0  0
   -5.3062   -2.2920   -0.2549 C   0  0  0  0  0  0  0  0  0  0  0  0
   -4.9523   -1.1252    0.3933 C   0  0  0  0  0  0  0  0  0  0  0  0
   -1.7538   -0.7533   -0.9042 H   0  0  0  0  0  0  0  0  0  0  0  0
   -2.4333   -2.8694   -2.0427 H   0  0  0  0  0  0  0  0  0  0  0  0
   -4.7497   -3.8215   -1.6291 H   0  0  0  0  0  0  0  0  0  0  0  0
   -6.2928   -2.7537   -0.1117 H   0  0  0  0  0  0  0  0  0  0  0  0
   -5.6237   -0.6180    1.0781 H   0  0  0  0  0  0  0  0  0  0  0  0
   -9.7275   -6.2016   -0.4543 C   0  0  0  0  0  0  0  0  0  0  0  0
  -10.4516   -7.3721   -0.2352 C   0  0  0  0  0  0  0  0  0  0  0  0
   -9.9897   -8.6092   -0.7065 C   0  0  0  0  0  0  0  0  0  0  0  0
   -8.7776   -8.6400   -1.4087 C   0  0  0  0  0  0  0  0  0  0  0  0
   -8.0444   -7.4750   -1.6344 C   0  0  0  0  0  0  0  0  0  0  0  0
   -8.5212   -6.2548   -1.1554 C   0  0  0  0  0  0  0  0  0  0  0  0
  -10.0813   -5.2485   -0.0758 H   0  0  0  0  0  0  0  0  0  0  0  0
  -11.3914   -7.3260    0.3105 H   0  0  0  0  0  0  0  0  0  0  0  0
   -8.4017   -9.5896   -1.7832 H   0  0  0  0  0  0  0  0  0  0  0  0
   -7.0994   -7.5011   -2.1657 H   0  0  0  0  0  0  0  0  0  0  0  0
   -7.6223   -4.7337   -1.5040 S   0  0  0  0  0  0  0  0  0  0  0  0
   -7.8213   -3.8883   -0.2800 O   0  0  0  0  0  0  0  0  0  0  0  0
   -8.2039   -4.1452   -2.7312 O   0  0  0  0  0  0  0  0  0  0  0  0
   -6.1927   -5.1636   -1.6693 O   0  0  0  0  0  0  0  0  0  0  0  0
  -10.7614   -9.8792   -0.4343 C   0  0  0  0  0  0  0  0  0  0  0  0
  -10.4681  -10.3251    0.5253 H   0  0  0  0  0  0  0  0  0  0  0  0
  -11.8390   -9.6918   -0.3867 H   0  0  0  0  0  0  0  0  0  0  0  0
  -10.5813  -10.6314   -1.2089 H   0  0  0  0  0  0  0  0  0  0  0  0
  1  8  1  0  0  0  0
  1  2  1  0  0  0  0
  2  3  1  0  0  0  0
  4  1  2  0  0  0  0
  5  6  2  0  0  0  0
  5  4  1  0  0  0  0
  6  7  1  0  0  0  0
  7 12  1  0  0  0  0
  7  8  2  0  0  0  0
  8 13  1  0  0  0  0
  9  4  1  0  0  0  0
 10  5  1  0  0  0  0
 11  6  1  0  0  0  0
 14 15  1  0  0  0  0
 14 20  1  0  0  0  0
 15 21  1  0  0  0  0
 16 28  1  0  0  0  0
 16 15  2  0  0  0  0
 17 16  1  0  0  0  0
 18 17  2  0  0  0  0
 18 19  1  0  0  0  0
 19 14  2  0  0  0  0
 22 17  1  0  0  0  0
 23 18  1  0  0  0  0
 24 19  1  0  0  0  0
 24 25  1  0  0  0  0
 26 24  2  0  0  0  0
 27 24  2  0  0  0  0
 28 30  1  0  0  0  0
 28 29  1  0  0  0  0
 31 28  1  0  0  0  0
M  RAD  3   2   2   3   3  25   2
M  END
