Coordinates from ORCA-job PhN2+~TsO-_B3LYPG-6-31G_dp-NX-Scan-d89-09-n800
 OpenBabel11261920463D

 31 32  0  0  1  0  0  0  0  0999 V2000
   -4.9434   -0.8566   -0.9492 C   0  0  0  0  0  0  0  0  0  0  0  0
   -5.0349    0.3903   -1.3483 N   0  0  0  0  0  0  0  0  0  0  0  0
   -5.1165    1.4775   -1.6961 N   0  0  0  0  0  0  0  0  0  0  0  0
   -4.3938   -1.8626   -1.8355 C   0  0  0  0  0  0  0  0  0  0  0  0
   -4.3018   -3.1422   -1.4284 C   0  0  0  0  0  0  0  0  0  0  0  0
   -4.7976   -3.6055   -0.0971 C   0  0  1  0  0  0  0  0  0  0  0  0
   -5.2770   -2.5048    0.7953 C   0  0  0  0  0  0  0  0  0  0  0  0
   -5.3703   -1.2262    0.3864 C   0  0  0  0  0  0  0  0  0  0  0  0
   -4.0442   -1.5568   -2.8165 H   0  0  0  0  0  0  0  0  0  0  0  0
   -3.8801   -3.8980   -2.0824 H   0  0  0  0  0  0  0  0  0  0  0  0
   -4.0511   -4.2365    0.3991 H   0  0  0  0  0  0  0  0  0  0  0  0
   -5.5880   -2.7900    1.7943 H   0  0  0  0  0  0  0  0  0  0  0  0
   -5.7465   -0.4497    1.0451 H   0  0  0  0  0  0  0  0  0  0  0  0
   -8.7556   -6.2561    0.3163 C   0  0  0  0  0  0  0  0  0  0  0  0
   -9.8948   -6.8129   -0.2561 C   0  0  0  0  0  0  0  0  0  0  0  0
   -9.8037   -7.6963   -1.3439 C   0  0  0  0  0  0  0  0  0  0  0  0
   -8.5339   -8.0152   -1.8431 C   0  0  0  0  0  0  0  0  0  0  0  0
   -7.3803   -7.4675   -1.2841 C   0  0  0  0  0  0  0  0  0  0  0  0
   -7.5051   -6.5869   -0.2106 C   0  0  0  0  0  0  0  0  0  0  0  0
   -8.8242   -5.5858    1.1660 H   0  0  0  0  0  0  0  0  0  0  0  0
  -10.8714   -6.5628    0.1497 H   0  0  0  0  0  0  0  0  0  0  0  0
   -8.4457   -8.7044   -2.6784 H   0  0  0  0  0  0  0  0  0  0  0  0
   -6.3967   -7.7245   -1.6609 H   0  0  0  0  0  0  0  0  0  0  0  0
   -6.0381   -5.8815    0.5128 S   0  0  0  0  0  0  0  0  0  0  0  0
   -6.3013   -5.5115    1.9066 O   0  0  0  0  0  0  0  0  0  0  0  0
   -5.9669   -4.5205   -0.3927 O   0  0  0  0  0  0  0  0  0  0  0  0
   -4.8795   -6.7214    0.1969 O   0  0  0  0  0  0  0  0  0  0  0  0
  -11.0512   -8.2872   -1.9552 C   0  0  0  0  0  0  0  0  0  0  0  0
  -11.6542   -8.8058   -1.2015 H   0  0  0  0  0  0  0  0  0  0  0  0
  -11.6841   -7.5058   -2.3917 H   0  0  0  0  0  0  0  0  0  0  0  0
  -10.8099   -9.0031   -2.7453 H   0  0  0  0  0  0  0  0  0  0  0  0
  1  8  1  0  0  0  0
  2  1  1  0  0  0  0
  3  2  1  0  0  0  0
  4  5  1  0  0  0  0
  4  1  2  0  0  0  0
  5  6  1  0  0  0  0
  6 11  1  1  0  0  0
  6  7  1  0  0  0  0
  7 12  1  0  0  0  0
  8  7  2  0  0  0  0
  8 13  1  0  0  0  0
  9  4  1  0  0  0  0
 10  5  1  0  0  0  0
 14 20  1  0  0  0  0
 15 21  1  0  0  0  0
 15 14  2  0  0  0  0
 16 15  1  0  0  0  0
 17 16  2  0  0  0  0
 17 18  1  0  0  0  0
 18 19  2  0  0  0  0
 19 14  1  0  0  0  0
 19 24  1  0  0  0  0
 22 17  1  0  0  0  0
 23 18  1  0  0  0  0
 24 25  2  0  0  0  0
 26  6  1  0  0  0  0
 26 24  1  0  0  0  0
 27 24  2  0  0  0  0
 28 16  1  0  0  0  0
 28 29  1  0  0  0  0
 30 28  1  0  0  0  0
 31 28  1  0  0  0  0
M  RAD  3   2   2   3   3   5   2
M  END
