Coordinates from ORCA-job PhN2+~TsO-_B3LYPG-6-31G_dp-NX-Scan-d89-09-n800
 OpenBabel11261920463D

 31 32  0  0  1  0  0  0  0  0999 V2000
   -5.0930   -0.9873   -0.9899 C   0  0  0  0  0  0  0  0  0  0  0  0
   -5.4216    0.1814   -1.4854 N   0  0  0  0  0  0  0  0  0  0  0  0
   -5.7205    1.1946   -1.9215 N   0  0  0  0  0  0  0  0  0  0  0  0
   -4.4171   -1.9577   -1.8256 C   0  0  0  0  0  0  0  0  0  0  0  0
   -4.1756   -3.1929   -1.3493 C   0  0  0  0  0  0  0  0  0  0  0  0
   -4.6854   -3.6430   -0.0205 C   0  0  1  0  0  0  0  0  0  0  0  0
   -5.1672   -2.5384    0.8624 C   0  0  0  0  0  0  0  0  0  0  0  0
   -5.4104   -1.3029    0.3885 C   0  0  0  0  0  0  0  0  0  0  0  0
   -4.0964   -1.6581   -2.8182 H   0  0  0  0  0  0  0  0  0  0  0  0
   -3.6549   -3.9271   -1.9548 H   0  0  0  0  0  0  0  0  0  0  0  0
   -3.9622   -4.2910    0.4838 H   0  0  0  0  0  0  0  0  0  0  0  0
   -5.3904   -2.7920    1.8927 H   0  0  0  0  0  0  0  0  0  0  0  0
   -5.8235   -0.5221    1.0197 H   0  0  0  0  0  0  0  0  0  0  0  0
   -8.7177   -6.2104    0.3265 C   0  0  0  0  0  0  0  0  0  0  0  0
   -9.8653   -6.7309   -0.2631 C   0  0  0  0  0  0  0  0  0  0  0  0
   -9.7870   -7.5927   -1.3691 C   0  0  0  0  0  0  0  0  0  0  0  0
   -8.5215   -7.9271   -1.8690 C   0  0  0  0  0  0  0  0  0  0  0  0
   -7.3597   -7.4159   -1.2927 C   0  0  0  0  0  0  0  0  0  0  0  0
   -7.4716   -6.5560   -0.2011 C   0  0  0  0  0  0  0  0  0  0  0  0
   -8.7764   -5.5573    1.1902 H   0  0  0  0  0  0  0  0  0  0  0  0
  -10.8386   -6.4692    0.1433 H   0  0  0  0  0  0  0  0  0  0  0  0
   -8.4433   -8.5997   -2.7188 H   0  0  0  0  0  0  0  0  0  0  0  0
   -6.3798   -7.6855   -1.6702 H   0  0  0  0  0  0  0  0  0  0  0  0
   -5.9938   -5.8966    0.5439 S   0  0  0  0  0  0  0  0  0  0  0  0
   -6.2594   -5.5437    1.9418 O   0  0  0  0  0  0  0  0  0  0  0  0
   -5.8811   -4.5246   -0.3390 O   0  0  0  0  0  0  0  0  0  0  0  0
   -4.8533   -6.7600    0.2245 O   0  0  0  0  0  0  0  0  0  0  0  0
  -11.0433   -8.1452   -1.9980 C   0  0  0  0  0  0  0  0  0  0  0  0
  -11.6549   -8.6766   -1.2600 H   0  0  0  0  0  0  0  0  0  0  0  0
  -11.6639   -7.3415   -2.4110 H   0  0  0  0  0  0  0  0  0  0  0  0
  -10.8130   -8.8412   -2.8087 H   0  0  0  0  0  0  0  0  0  0  0  0
  1  8  1  0  0  0  0
  2  1  1  0  0  0  0
  3  2  1  0  0  0  0
  4  5  1  0  0  0  0
  4  1  2  0  0  0  0
  5  6  1  0  0  0  0
  6 11  1  1  0  0  0
  6  7  1  0  0  0  0
  7 12  1  0  0  0  0
  8  7  2  0  0  0  0
  8 13  1  0  0  0  0
  9  4  1  0  0  0  0
 10  5  1  0  0  0  0
 14 20  1  0  0  0  0
 15 21  1  0  0  0  0
 15 14  2  0  0  0  0
 16 15  1  0  0  0  0
 17 16  2  0  0  0  0
 17 18  1  0  0  0  0
 18 19  2  0  0  0  0
 19 14  1  0  0  0  0
 19 24  1  0  0  0  0
 22 17  1  0  0  0  0
 23 18  1  0  0  0  0
 24 25  2  0  0  0  0
 26  6  1  0  0  0  0
 26 24  1  0  0  0  0
 27 24  2  0  0  0  0
 28 16  1  0  0  0  0
 28 29  1  0  0  0  0
 30 28  1  0  0  0  0
 31 28  1  0  0  0  0
M  RAD  3   2   2   3   3   5   2
M  END
