Coordinates from ORCA-job PhN2+~TsO-_B3LYPG-6-31G_dp-NX-Scan-d89-09-n800
 OpenBabel11261920463D

 31 31  0  0  0  0  0  0  0  0999 V2000
   -4.5460   -2.0758   -1.1568 C   0  0  0  0  0  0  0  0  0  0  0  0
   -5.7792   -2.1620   -1.8155 N   0  0  0  0  0  0  0  0  0  0  0  0
   -6.7148   -2.7372   -2.1290 N   0  0  0  0  0  0  0  0  0  0  0  0
   -3.8426   -0.8708   -1.2947 C   0  0  0  0  0  0  0  0  0  0  0  0
   -2.6162   -0.7444   -0.6540 C   0  0  0  0  0  0  0  0  0  0  0  0
   -2.1207   -1.8053    0.1127 C   0  0  0  0  0  0  0  0  0  0  0  0
   -2.8451   -2.9943    0.2429 C   0  0  0  0  0  0  0  0  0  0  0  0
   -4.0733   -3.1549   -0.3928 C   0  0  0  0  0  0  0  0  0  0  0  0
   -4.2604   -0.0670   -1.8907 H   0  0  0  0  0  0  0  0  0  0  0  0
   -2.0502    0.1764   -0.7475 H   0  0  0  0  0  0  0  0  0  0  0  0
   -1.1639   -1.7024    0.6148 H   0  0  0  0  0  0  0  0  0  0  0  0
   -2.4568   -3.8082    0.8462 H   0  0  0  0  0  0  0  0  0  0  0  0
   -4.6545   -4.0654   -0.2977 H   0  0  0  0  0  0  0  0  0  0  0  0
   -9.7760   -5.6838   -0.9447 C   0  0  0  0  0  0  0  0  0  0  0  0
  -10.7476   -6.6472   -1.2053 C   0  0  0  0  0  0  0  0  0  0  0  0
  -10.4943   -8.0098   -0.9895 C   0  0  0  0  0  0  0  0  0  0  0  0
   -9.2338   -8.3837   -0.5045 C   0  0  0  0  0  0  0  0  0  0  0  0
   -8.2507   -7.4310   -0.2393 C   0  0  0  0  0  0  0  0  0  0  0  0
   -8.5277   -6.0829   -0.4640 C   0  0  0  0  0  0  0  0  0  0  0  0
   -9.9799   -4.6292   -1.0969 H   0  0  0  0  0  0  0  0  0  0  0  0
  -11.7204   -6.3369   -1.5785 H   0  0  0  0  0  0  0  0  0  0  0  0
   -9.0201   -9.4349   -0.3267 H   0  0  0  0  0  0  0  0  0  0  0  0
   -7.2806   -7.7188    0.1501 H   0  0  0  0  0  0  0  0  0  0  0  0
   -7.2616   -4.8501   -0.1580 S   0  0  0  0  0  0  0  0  0  0  0  0
   -7.9395   -3.5966    0.2322 O   0  0  0  0  0  0  0  0  0  0  0  0
   -6.5541   -4.6703   -1.5259 O   0  0  0  0  0  0  0  0  0  0  0  0
   -6.3055   -5.4364    0.8046 O   0  0  0  0  0  0  0  0  0  0  0  0
  -11.5668   -9.0435   -1.2400 C   0  0  0  0  0  0  0  0  0  0  0  0
  -12.2234   -9.1504   -0.3668 H   0  0  0  0  0  0  0  0  0  0  0  0
  -12.2006   -8.7664   -2.0884 H   0  0  0  0  0  0  0  0  0  0  0  0
  -11.1355  -10.0272   -1.4450 H   0  0  0  0  0  0  0  0  0  0  0  0
  1  8  1  0  0  0  0
  2  1  1  0  0  0  0
  3  2  2  0  0  0  0
  4  1  2  0  0  0  0
  4  5  1  0  0  0  0
  5  6  2  0  0  0  0
  6  7  1  0  0  0  0
  6 11  1  0  0  0  0
  7 12  1  0  0  0  0
  8 13  1  0  0  0  0
  8  7  2  0  0  0  0
  9  4  1  0  0  0  0
 10  5  1  0  0  0  0
 14 19  2  0  0  0  0
 15 16  2  0  0  0  0
 15 14  1  0  0  0  0
 16 17  1  0  0  0  0
 17 22  1  0  0  0  0
 17 18  2  0  0  0  0
 18 23  1  0  0  0  0
 19 18  1  0  0  0  0
 19 24  1  0  0  0  0
 20 14  1  0  0  0  0
 21 15  1  0  0  0  0
 24 25  2  0  0  0  0
 24 27  1  0  0  0  0
 26 24  2  0  0  0  0
 28 16  1  0  0  0  0
 28 29  1  0  0  0  0
 30 28  1  0  0  0  0
 31 28  1  0  0  0  0
M  RAD  2   3   2  27   2
M  END
