Coordinates from ORCA-job PhN2+~TsO-_B3LYPG-6-31G_dp-NX-Scan-d89-09-n800
 OpenBabel11261920463D

 31 32  0  0  1  0  0  0  0  0999 V2000
   -5.3582   -1.3515   -0.7139 C   0  0  2  0  0  0  0  0  0  0  0  0
   -6.6209   -1.7307   -0.5956 N   0  0  0  0  0  0  0  0  0  0  0  0
   -7.5857   -2.3139   -0.4713 N   0  0  0  0  0  0  0  0  0  0  0  0
   -4.7587   -2.0091   -1.9207 C   0  0  0  0  0  0  0  0  0  0  0  0
   -4.2196   -3.2174   -1.7110 C   0  0  0  0  0  0  0  0  0  0  0  0
   -4.4138   -3.8035   -0.3358 C   0  0  1  0  0  0  0  0  0  0  0  0
   -4.0843   -2.7877    0.7315 C   0  0  0  0  0  0  0  0  0  0  0  0
   -4.6321   -1.5739    0.5788 C   0  0  0  0  0  0  0  0  0  0  0  0
   -4.7982   -1.5268   -2.8932 H   0  0  0  0  0  0  0  0  0  0  0  0
   -3.7020   -3.7858   -2.4781 H   0  0  0  0  0  0  0  0  0  0  0  0
   -3.9180   -4.7617   -0.1926 H   0  0  0  0  0  0  0  0  0  0  0  0
   -3.4830   -3.0744    1.5892 H   0  0  0  0  0  0  0  0  0  0  0  0
   -4.5936   -0.7948    1.3345 H   0  0  0  0  0  0  0  0  0  0  0  0
   -8.9690   -5.4538   -0.1671 C   0  0  0  0  0  0  0  0  0  0  0  0
   -9.9464   -6.1219   -0.9012 C   0  0  0  0  0  0  0  0  0  0  0  0
   -9.6642   -7.3263   -1.5622 C   0  0  0  0  0  0  0  0  0  0  0  0
   -8.3661   -7.8497   -1.4736 C   0  0  0  0  0  0  0  0  0  0  0  0
   -7.3730   -7.1952   -0.7487 C   0  0  0  0  0  0  0  0  0  0  0  0
   -7.6853   -5.9976   -0.1038 C   0  0  0  0  0  0  0  0  0  0  0  0
   -9.1924   -4.5276    0.3485 H   0  0  0  0  0  0  0  0  0  0  0  0
  -10.9471   -5.7019   -0.9588 H   0  0  0  0  0  0  0  0  0  0  0  0
   -8.1307   -8.7851   -1.9739 H   0  0  0  0  0  0  0  0  0  0  0  0
   -6.3730   -7.6070   -0.6685 H   0  0  0  0  0  0  0  0  0  0  0  0
   -6.4208   -5.1665    0.8419 S   0  0  0  0  0  0  0  0  0  0  0  0
   -7.0467   -4.4558    1.9540 O   0  0  0  0  0  0  0  0  0  0  0  0
   -5.9256   -4.0516   -0.2677 O   0  0  0  0  0  0  0  0  0  0  0  0
   -5.3170   -6.1010    1.0883 O   0  0  0  0  0  0  0  0  0  0  0  0
  -10.7406   -8.0611   -2.3239 C   0  0  0  0  0  0  0  0  0  0  0  0
  -11.2420   -8.7952   -1.6809 H   0  0  0  0  0  0  0  0  0  0  0  0
  -11.5074   -7.3759   -2.6958 H   0  0  0  0  0  0  0  0  0  0  0  0
  -10.3265   -8.6061   -3.1770 H   0  0  0  0  0  0  0  0  0  0  0  0
  1  2  1  1  0  0  0
  1  8  1  0  0  0  0
  2  3  1  0  0  0  0
  4  5  2  0  0  0  0
  4  1  1  0  0  0  0
  5  6  1  0  0  0  0
  6 26  1  0  0  0  0
  6 11  1  1  0  0  0
  6  7  1  0  0  0  0
  7 12  1  0  0  0  0
  8  7  2  0  0  0  0
  8 13  1  0  0  0  0
  9  4  1  0  0  0  0
 10  5  1  0  0  0  0
 14 19  1  0  0  0  0
 14 20  1  0  0  0  0
 15 14  2  0  0  0  0
 16 17  2  0  0  0  0
 16 15  1  0  0  0  0
 17 18  1  0  0  0  0
 18 23  1  0  0  0  0
 18 19  2  0  0  0  0
 19 24  1  0  0  0  0
 21 15  1  0  0  0  0
 22 17  1  0  0  0  0
 24 27  2  0  0  0  0
 24 25  2  0  0  0  0
 26 24  1  0  0  0  0
 28 29  1  0  0  0  0
 28 16  1  0  0  0  0
 30 28  1  0  0  0  0
 31 28  1  0  0  0  0
M  RAD  3   1   2   2   2   3   3
M  END
