Coordinates from ORCA-job PhN2+~TsO-_B3LYPG-6-31G_dp-NX-Scan-d89-09-n800
 OpenBabel11261920463D

 31 32  0  0  0  0  0  0  0  0999 V2000
   -4.9717   -2.5608   -0.9009 C   0  0  0  0  0  0  0  0  0  0  0  0
   -6.3832   -2.6445   -1.0063 N   0  0  0  0  0  0  0  0  0  0  0  0
   -7.2001   -3.3027   -0.3779 N   0  0  0  0  0  0  0  0  0  0  0  0
   -4.4227   -1.7011   -1.8705 C   0  0  0  0  0  0  0  0  0  0  0  0
   -3.0519   -1.4765   -1.9278 C   0  0  0  0  0  0  0  0  0  0  0  0
   -2.2095   -2.1063   -1.0089 C   0  0  0  0  0  0  0  0  0  0  0  0
   -2.7468   -2.9579   -0.0405 C   0  0  0  0  0  0  0  0  0  0  0  0
   -4.1185   -3.1965    0.0258 C   0  0  0  0  0  0  0  0  0  0  0  0
   -5.1026   -1.2211   -2.5660 H   0  0  0  0  0  0  0  0  0  0  0  0
   -2.6420   -0.8113   -2.6819 H   0  0  0  0  0  0  0  0  0  0  0  0
   -1.1378   -1.9322   -1.0441 H   0  0  0  0  0  0  0  0  0  0  0  0
   -2.0923   -3.4458    0.6755 H   0  0  0  0  0  0  0  0  0  0  0  0
   -4.5166   -3.8550    0.7820 H   0  0  0  0  0  0  0  0  0  0  0  0
   -9.7806   -5.4458   -0.3131 C   0  0  0  0  0  0  0  0  0  0  0  0
  -10.4260   -6.2619   -1.2386 C   0  0  0  0  0  0  0  0  0  0  0  0
   -9.9739   -7.5640   -1.5000 C   0  0  0  0  0  0  0  0  0  0  0  0
   -8.8480   -8.0350   -0.8086 C   0  0  0  0  0  0  0  0  0  0  0  0
   -8.1870   -7.2361    0.1209 C   0  0  0  0  0  0  0  0  0  0  0  0
   -8.6625   -5.9448    0.3575 C   0  0  0  0  0  0  0  0  0  0  0  0
  -10.1325   -4.4424   -0.1058 H   0  0  0  0  0  0  0  0  0  0  0  0
  -11.2973   -5.8822   -1.7650 H   0  0  0  0  0  0  0  0  0  0  0  0
   -8.4864   -9.0415   -0.9986 H   0  0  0  0  0  0  0  0  0  0  0  0
   -7.3238   -7.6043    0.6645 H   0  0  0  0  0  0  0  0  0  0  0  0
   -7.8246   -4.9197    1.5478 S   0  0  0  0  0  0  0  0  0  0  0  0
   -8.7382   -3.8952    2.0330 O   0  0  0  0  0  0  0  0  0  0  0  0
   -6.6250   -4.1692    0.6335 O   0  0  0  0  0  0  0  0  0  0  0  0
   -7.0364   -5.7540    2.4452 O   0  0  0  0  0  0  0  0  0  0  0  0
  -10.7031   -8.4493   -2.4809 C   0  0  0  0  0  0  0  0  0  0  0  0
  -11.5134   -8.9967   -1.9837 H   0  0  0  0  0  0  0  0  0  0  0  0
  -11.1534   -7.8656   -3.2886 H   0  0  0  0  0  0  0  0  0  0  0  0
  -10.0342   -9.1911   -2.9265 H   0  0  0  0  0  0  0  0  0  0  0  0
  1  8  2  0  0  0  0
  2  1  1  0  0  0  0
  2  3  1  0  0  0  0
  3 26  1  0  0  0  0
  4  1  1  0  0  0  0
  5  4  2  0  0  0  0
  5  6  1  0  0  0  0
  6  7  2  0  0  0  0
  7  8  1  0  0  0  0
  7 12  1  0  0  0  0
  8 13  1  0  0  0  0
  9  4  1  0  0  0  0
 10  5  1  0  0  0  0
 11  6  1  0  0  0  0
 14 20  1  0  0  0  0
 14 19  2  0  0  0  0
 15 14  1  0  0  0  0
 16 15  2  0  0  0  0
 16 17  1  0  0  0  0
 17 18  2  0  0  0  0
 18 19  1  0  0  0  0
 18 23  1  0  0  0  0
 19 24  1  0  0  0  0
 21 15  1  0  0  0  0
 22 17  1  0  0  0  0
 24 25  2  0  0  0  0
 24 27  2  0  0  0  0
 26 24  1  0  0  0  0
 28 29  1  0  0  0  0
 28 16  1  0  0  0  0
 30 28  1  0  0  0  0
 31 28  1  0  0  0  0
M  RAD  2   2   2   3   2
M  END
