Coordinates from ORCA-job PhN2+~TsO-_B3LYPG-6-31G_dp-NX-Scan-d89-09-n800
 OpenBabel11261920463D

 31 31  0  0  0  0  0  0  0  0999 V2000
   -3.6844   -0.5159    0.0296 C   0  0  0  0  0  0  0  0  0  0  0  0
   -3.3748    0.6996    0.5456 N   0  0  0  0  0  0  0  0  0  0  0  0
   -3.1412    1.7067    0.9874 N   0  0  0  0  0  0  0  0  0  0  0  0
   -2.7548   -1.1364   -0.8426 C   0  0  0  0  0  0  0  0  0  0  0  0
   -3.1079   -2.3662   -1.3652 C   0  0  0  0  0  0  0  0  0  0  0  0
   -4.3442   -2.9547   -1.0421 C   0  0  0  0  0  0  0  0  0  0  0  0
   -5.2461   -2.3227   -0.1627 C   0  0  0  0  0  0  0  0  0  0  0  0
   -4.9305   -1.0956    0.3863 C   0  0  0  0  0  0  0  0  0  0  0  0
   -1.8166   -0.6486   -1.0818 H   0  0  0  0  0  0  0  0  0  0  0  0
   -2.4260   -2.8719   -2.0410 H   0  0  0  0  0  0  0  0  0  0  0  0
   -4.6679   -3.9097   -1.4624 H   0  0  0  0  0  0  0  0  0  0  0  0
   -6.2023   -2.8181    0.0527 H   0  0  0  0  0  0  0  0  0  0  0  0
   -5.6011   -0.5756    1.0622 H   0  0  0  0  0  0  0  0  0  0  0  0
   -9.6998   -6.2388   -0.3749 C   0  0  0  0  0  0  0  0  0  0  0  0
  -10.4681   -7.3932   -0.2379 C   0  0  0  0  0  0  0  0  0  0  0  0
  -10.0395   -8.6170   -0.7721 C   0  0  0  0  0  0  0  0  0  0  0  0
   -8.8150   -8.6507   -1.4518 C   0  0  0  0  0  0  0  0  0  0  0  0
   -8.0373   -7.5012   -1.5958 C   0  0  0  0  0  0  0  0  0  0  0  0
   -8.4817   -6.2947   -1.0557 C   0  0  0  0  0  0  0  0  0  0  0  0
  -10.0282   -5.2973    0.0522 H   0  0  0  0  0  0  0  0  0  0  0  0
  -11.4165   -7.3453    0.2926 H   0  0  0  0  0  0  0  0  0  0  0  0
   -8.4643   -9.5902   -1.8734 H   0  0  0  0  0  0  0  0  0  0  0  0
   -7.0832   -7.5296   -2.1102 H   0  0  0  0  0  0  0  0  0  0  0  0
   -7.5250   -4.7888   -1.2974 S   0  0  0  0  0  0  0  0  0  0  0  0
   -7.6974   -4.0220   -0.0188 O   0  0  0  0  0  0  0  0  0  0  0  0
   -8.0789   -4.0926   -2.4815 O   0  0  0  0  0  0  0  0  0  0  0  0
   -6.1118   -5.2580   -1.4909 O   0  0  0  0  0  0  0  0  0  0  0  0
  -10.8625   -9.8709   -0.5901 C   0  0  0  0  0  0  0  0  0  0  0  0
  -10.6439  -10.3558    0.3708 H   0  0  0  0  0  0  0  0  0  0  0  0
  -11.9353   -9.6523   -0.6030 H   0  0  0  0  0  0  0  0  0  0  0  0
  -10.6557  -10.6031   -1.3769 H   0  0  0  0  0  0  0  0  0  0  0  0
  1  8  1  0  0  0  0
  1  2  1  0  0  0  0
  2  3  1  0  0  0  0
  4  1  2  0  0  0  0
  5  6  2  0  0  0  0
  5  4  1  0  0  0  0
  6  7  1  0  0  0  0
  7 12  1  0  0  0  0
  7  8  2  0  0  0  0
  8 13  1  0  0  0  0
  9  4  1  0  0  0  0
 10  5  1  0  0  0  0
 11  6  1  0  0  0  0
 14 15  1  0  0  0  0
 14 20  1  0  0  0  0
 15 21  1  0  0  0  0
 16 28  1  0  0  0  0
 16 15  2  0  0  0  0
 17 16  1  0  0  0  0
 18 17  2  0  0  0  0
 18 19  1  0  0  0  0
 19 14  2  0  0  0  0
 22 17  1  0  0  0  0
 23 18  1  0  0  0  0
 24 19  1  0  0  0  0
 24 25  1  0  0  0  0
 26 24  2  0  0  0  0
 27 24  2  0  0  0  0
 28 29  1  0  0  0  0
 30 28  1  0  0  0  0
 31 28  1  0  0  0  0
M  RAD  3   2   2   3   3  25   2
M  END
