Coordinates from ORCA-job PhN2+~TsO-_B3LYPG-6-31G_dp-NX-Scan-d89-09-n800
 OpenBabel11261920463D

 31 32  0  0  1  0  0  0  0  0999 V2000
   -5.3588   -1.3739   -0.6808 C   0  0  2  0  0  0  0  0  0  0  0  0
   -6.5966   -0.9514   -0.7401 N   0  0  0  0  0  0  0  0  0  0  0  0
   -7.6998   -0.6721   -0.7863 N   0  0  0  0  0  0  0  0  0  0  0  0
   -4.8098   -2.0265   -1.8707 C   0  0  0  0  0  0  0  0  0  0  0  0
   -4.1927   -3.2062   -1.6895 C   0  0  0  0  0  0  0  0  0  0  0  0
   -4.3527   -3.8489   -0.3445 C   0  0  1  0  0  0  0  0  0  0  0  0
   -4.1809   -2.8635    0.7750 C   0  0  0  0  0  0  0  0  0  0  0  0
   -4.7988   -1.6788    0.6374 C   0  0  0  0  0  0  0  0  0  0  0  0
   -4.9087   -1.5472   -2.8403 H   0  0  0  0  0  0  0  0  0  0  0  0
   -3.6919   -3.7359   -2.4923 H   0  0  0  0  0  0  0  0  0  0  0  0
   -3.7640   -4.7564   -0.2180 H   0  0  0  0  0  0  0  0  0  0  0  0
   -3.6750   -3.1592    1.6875 H   0  0  0  0  0  0  0  0  0  0  0  0
   -4.8969   -0.9583    1.4439 H   0  0  0  0  0  0  0  0  0  0  0  0
   -8.8764   -5.5704   -0.1354 C   0  0  0  0  0  0  0  0  0  0  0  0
   -9.8928   -6.2061   -0.8416 C   0  0  0  0  0  0  0  0  0  0  0  0
   -9.6594   -7.4100   -1.5259 C   0  0  0  0  0  0  0  0  0  0  0  0
   -8.3734   -7.9642   -1.4847 C   0  0  0  0  0  0  0  0  0  0  0  0
   -7.3401   -7.3394   -0.7872 C   0  0  0  0  0  0  0  0  0  0  0  0
   -7.6027   -6.1436   -0.1209 C   0  0  0  0  0  0  0  0  0  0  0  0
   -9.0623   -4.6499    0.4064 H   0  0  0  0  0  0  0  0  0  0  0  0
  -10.8860   -5.7645   -0.8587 H   0  0  0  0  0  0  0  0  0  0  0  0
   -8.1782   -8.9001   -2.0005 H   0  0  0  0  0  0  0  0  0  0  0  0
   -6.3475   -7.7746   -0.7448 H   0  0  0  0  0  0  0  0  0  0  0  0
   -6.2918   -5.3393    0.7839 S   0  0  0  0  0  0  0  0  0  0  0  0
   -6.8758   -4.6112    1.9098 O   0  0  0  0  0  0  0  0  0  0  0  0
   -5.8170   -4.2716   -0.3649 O   0  0  0  0  0  0  0  0  0  0  0  0
   -5.1987   -6.2909    1.0129 O   0  0  0  0  0  0  0  0  0  0  0  0
  -10.7790   -8.0921   -2.2745 C   0  0  0  0  0  0  0  0  0  0  0  0
  -11.5667   -8.4241   -1.5883 H   0  0  0  0  0  0  0  0  0  0  0  0
  -11.2465   -7.4118   -2.9950 H   0  0  0  0  0  0  0  0  0  0  0  0
  -10.4209   -8.9684   -2.8205 H   0  0  0  0  0  0  0  0  0  0  0  0
  1  2  1  1  0  0  0
  1  8  1  0  0  0  0
  3  2  1  0  0  0  0
  4  5  2  0  0  0  0
  4  1  1  0  0  0  0
  5  6  1  0  0  0  0
  6 11  1  1  0  0  0
  6  7  1  0  0  0  0
  7 12  1  0  0  0  0
  8  7  2  0  0  0  0
  8 13  1  0  0  0  0
  9  4  1  0  0  0  0
 10  5  1  0  0  0  0
 14 19  1  0  0  0  0
 14 20  1  0  0  0  0
 15 14  2  0  0  0  0
 16 17  2  0  0  0  0
 16 15  1  0  0  0  0
 17 18  1  0  0  0  0
 18 23  1  0  0  0  0
 18 19  2  0  0  0  0
 19 24  1  0  0  0  0
 21 15  1  0  0  0  0
 22 17  1  0  0  0  0
 24 27  2  0  0  0  0
 24 25  2  0  0  0  0
 26  6  1  0  0  0  0
 26 24  1  0  0  0  0
 28 29  1  0  0  0  0
 28 16  1  0  0  0  0
 30 28  1  0  0  0  0
 31 28  1  0  0  0  0
M  RAD  3   1   2   2   2   3   3
M  END
