Coordinates from ORCA-job PhN2+~TsO-_B3LYPG-6-31G_dp-NX-Scan-d89-09-n800
 OpenBabel11261920463D

 31 32  0  0  1  0  0  0  0  0999 V2000
   -5.4983   -1.4207   -0.6474 C   0  0  2  0  0  0  0  0  0  0  0  0
   -6.8072   -1.3583   -0.6680 N   0  0  0  0  0  0  0  0  0  0  0  0
   -7.9452   -1.4035   -0.6793 N   0  0  0  0  0  0  0  0  0  0  0  0
   -4.8646   -1.9856   -1.8531 C   0  0  0  0  0  0  0  0  0  0  0  0
   -4.1648   -3.1189   -1.6899 C   0  0  0  0  0  0  0  0  0  0  0  0
   -4.3083   -3.8028   -0.3594 C   0  0  1  0  0  0  0  0  0  0  0  0
   -4.1824   -2.8259    0.7785 C   0  0  0  0  0  0  0  0  0  0  0  0
   -4.8820   -1.6869    0.6657 C   0  0  0  0  0  0  0  0  0  0  0  0
   -4.9782   -1.4844   -2.8101 H   0  0  0  0  0  0  0  0  0  0  0  0
   -3.5967   -3.5849   -2.4880 H   0  0  0  0  0  0  0  0  0  0  0  0
   -3.6792   -4.6851   -0.2478 H   0  0  0  0  0  0  0  0  0  0  0  0
   -3.6295   -3.0953    1.6722 H   0  0  0  0  0  0  0  0  0  0  0  0
   -5.0150   -0.9810    1.4802 H   0  0  0  0  0  0  0  0  0  0  0  0
   -8.7420   -5.4410   -0.3057 C   0  0  0  0  0  0  0  0  0  0  0  0
   -9.7865   -6.0487   -0.9950 C   0  0  0  0  0  0  0  0  0  0  0  0
   -9.6532   -7.3423   -1.5256 C   0  0  0  0  0  0  0  0  0  0  0  0
   -8.4360   -8.0135   -1.3535 C   0  0  0  0  0  0  0  0  0  0  0  0
   -7.3736   -7.4188   -0.6724 C   0  0  0  0  0  0  0  0  0  0  0  0
   -7.5389   -6.1356   -0.1554 C   0  0  0  0  0  0  0  0  0  0  0  0
   -8.8529   -4.4437    0.1056 H   0  0  0  0  0  0  0  0  0  0  0  0
  -10.7233   -5.5120   -1.1216 H   0  0  0  0  0  0  0  0  0  0  0  0
   -8.3161   -9.0154   -1.7558 H   0  0  0  0  0  0  0  0  0  0  0  0
   -6.4313   -7.9379   -0.5345 H   0  0  0  0  0  0  0  0  0  0  0  0
   -6.1947   -5.3769    0.7381 S   0  0  0  0  0  0  0  0  0  0  0  0
   -6.7321   -4.6703    1.9003 O   0  0  0  0  0  0  0  0  0  0  0  0
   -5.7483   -4.2842   -0.4014 O   0  0  0  0  0  0  0  0  0  0  0  0
   -5.1054   -6.3441    0.9095 O   0  0  0  0  0  0  0  0  0  0  0  0
  -10.8078   -7.9959   -2.2457 C   0  0  0  0  0  0  0  0  0  0  0  0
  -11.5873   -8.3029   -1.5380 H   0  0  0  0  0  0  0  0  0  0  0  0
  -11.2735   -7.3076   -2.9587 H   0  0  0  0  0  0  0  0  0  0  0  0
  -10.4876   -8.8867   -2.7922 H   0  0  0  0  0  0  0  0  0  0  0  0
  1  2  1  1  0  0  0
  1  8  1  0  0  0  0
  3  2  1  0  0  0  0
  4  5  2  0  0  0  0
  4  1  1  0  0  0  0
  5  6  1  0  0  0  0
  6 11  1  1  0  0  0
  6  7  1  0  0  0  0
  7 12  1  0  0  0  0
  8  7  2  0  0  0  0
  8 13  1  0  0  0  0
  9  4  1  0  0  0  0
 10  5  1  0  0  0  0
 14 19  1  0  0  0  0
 14 20  1  0  0  0  0
 15 14  2  0  0  0  0
 16 17  2  0  0  0  0
 16 15  1  0  0  0  0
 17 18  1  0  0  0  0
 18 23  1  0  0  0  0
 18 19  2  0  0  0  0
 19 24  1  0  0  0  0
 21 15  1  0  0  0  0
 22 17  1  0  0  0  0
 24 27  2  0  0  0  0
 24 25  2  0  0  0  0
 26  6  1  0  0  0  0
 26 24  1  0  0  0  0
 28 29  1  0  0  0  0
 28 16  1  0  0  0  0
 30 28  1  0  0  0  0
 31 28  1  0  0  0  0
M  RAD  3   1   2   2   2   3   3
M  END
