Coordinates from ORCA-job PhN2+~TsO-_B3LYPG-6-31G_dp-NX-Scan-d89-09-n800
 OpenBabel11261920463D

 31 32  0  0  1  0  0  0  0  0999 V2000
   -5.4317   -1.3811   -0.6427 C   0  0  2  0  0  0  0  0  0  0  0  0
   -6.7220   -1.6296   -0.5816 N   0  0  0  0  0  0  0  0  0  0  0  0
   -7.7974   -1.9925   -0.5210 N   0  0  0  0  0  0  0  0  0  0  0  0
   -4.8104   -1.9545   -1.8712 C   0  0  0  0  0  0  0  0  0  0  0  0
   -4.1909   -3.1325   -1.7192 C   0  0  0  0  0  0  0  0  0  0  0  0
   -4.3615   -3.8020   -0.3801 C   0  0  1  0  0  0  0  0  0  0  0  0
   -4.1141   -2.8283    0.7465 C   0  0  0  0  0  0  0  0  0  0  0  0
   -4.7364   -1.6458    0.6495 C   0  0  0  0  0  0  0  0  0  0  0  0
   -4.8852   -1.4314   -2.8203 H   0  0  0  0  0  0  0  0  0  0  0  0
   -3.6427   -3.6288   -2.5139 H   0  0  0  0  0  0  0  0  0  0  0  0
   -3.8044   -4.7320   -0.2795 H   0  0  0  0  0  0  0  0  0  0  0  0
   -3.5187   -3.1254    1.6042 H   0  0  0  0  0  0  0  0  0  0  0  0
   -4.7689   -0.9135    1.4509 H   0  0  0  0  0  0  0  0  0  0  0  0
   -8.8603   -5.4249   -0.2684 C   0  0  0  0  0  0  0  0  0  0  0  0
   -9.8682   -6.0749   -0.9741 C   0  0  0  0  0  0  0  0  0  0  0  0
   -9.6596   -7.3421   -1.5417 C   0  0  0  0  0  0  0  0  0  0  0  0
   -8.4043   -7.9449   -1.3883 C   0  0  0  0  0  0  0  0  0  0  0  0
   -7.3784   -7.3081   -0.6906 C   0  0  0  0  0  0  0  0  0  0  0  0
   -7.6182   -6.0507   -0.1386 C   0  0  0  0  0  0  0  0  0  0  0  0
   -9.0275   -4.4490    0.1719 H   0  0  0  0  0  0  0  0  0  0  0  0
  -10.8357   -5.5919   -1.0845 H   0  0  0  0  0  0  0  0  0  0  0  0
   -8.2261   -8.9270   -1.8170 H   0  0  0  0  0  0  0  0  0  0  0  0
   -6.4089   -7.7772   -0.5640 H   0  0  0  0  0  0  0  0  0  0  0  0
   -6.3172   -5.2412    0.7741 S   0  0  0  0  0  0  0  0  0  0  0  0
   -6.9019   -4.5121    1.8973 O   0  0  0  0  0  0  0  0  0  0  0  0
   -5.8392   -4.1566   -0.3690 O   0  0  0  0  0  0  0  0  0  0  0  0
   -5.2193   -6.1871    1.0007 O   0  0  0  0  0  0  0  0  0  0  0  0
  -10.7746   -8.0437   -2.2786 C   0  0  0  0  0  0  0  0  0  0  0  0
  -11.5153   -8.4462   -1.5769 H   0  0  0  0  0  0  0  0  0  0  0  0
  -11.3042   -7.3570   -2.9469 H   0  0  0  0  0  0  0  0  0  0  0  0
  -10.3986   -8.8785   -2.8757 H   0  0  0  0  0  0  0  0  0  0  0  0
  1  2  1  1  0  0  0
  1  8  1  0  0  0  0
  2  3  1  0  0  0  0
  4  5  2  0  0  0  0
  4  1  1  0  0  0  0
  5  6  1  0  0  0  0
  6 26  1  0  0  0  0
  6 11  1  1  0  0  0
  6  7  1  0  0  0  0
  7 12  1  0  0  0  0
  8  7  2  0  0  0  0
  8 13  1  0  0  0  0
  9  4  1  0  0  0  0
 10  5  1  0  0  0  0
 14 19  1  0  0  0  0
 14 20  1  0  0  0  0
 15 14  2  0  0  0  0
 16 17  2  0  0  0  0
 16 15  1  0  0  0  0
 17 18  1  0  0  0  0
 18 23  1  0  0  0  0
 18 19  2  0  0  0  0
 19 24  1  0  0  0  0
 21 15  1  0  0  0  0
 22 17  1  0  0  0  0
 24 27  2  0  0  0  0
 24 25  2  0  0  0  0
 26 24  1  0  0  0  0
 28 29  1  0  0  0  0
 28 16  1  0  0  0  0
 30 28  1  0  0  0  0
 31 28  1  0  0  0  0
M  RAD  3   1   2   2   2   3   3
M  END
