Coordinates from ORCA-job PhN2+~TsO-_B3LYPG-6-31G_dp-NX-Scan-d89-09-n800
 OpenBabel11261920463D

 31 32  0  0  1  0  0  0  0  0999 V2000
   -5.3472   -1.2745   -1.0110 C   0  0  2  0  0  0  0  0  0  0  0  0
   -6.1354   -0.4006   -1.5858 N   0  0  0  0  0  0  0  0  0  0  0  0
   -6.8526    0.3286   -2.0912 N   0  0  0  0  0  0  0  0  0  0  0  0
   -4.5021   -2.1201   -1.8314 C   0  0  0  0  0  0  0  0  0  0  0  0
   -3.9969   -3.2440   -1.2913 C   0  0  0  0  0  0  0  0  0  0  0  0
   -4.4757   -3.7032    0.0458 C   0  0  1  0  0  0  0  0  0  0  0  0
   -4.9019   -2.5933    0.9504 C   0  0  0  0  0  0  0  0  0  0  0  0
   -5.4126   -1.4648    0.4257 C   0  0  0  0  0  0  0  0  0  0  0  0
   -4.2823   -1.8153   -2.8497 H   0  0  0  0  0  0  0  0  0  0  0  0
   -3.3328   -3.8913   -1.8535 H   0  0  0  0  0  0  0  0  0  0  0  0
   -3.7760   -4.3953    0.5174 H   0  0  0  0  0  0  0  0  0  0  0  0
   -4.9058   -2.7708    2.0200 H   0  0  0  0  0  0  0  0  0  0  0  0
   -5.8555   -0.6865    1.0394 H   0  0  0  0  0  0  0  0  0  0  0  0
   -8.6841   -6.0579    0.3084 C   0  0  0  0  0  0  0  0  0  0  0  0
   -9.8288   -6.5350   -0.3225 C   0  0  0  0  0  0  0  0  0  0  0  0
   -9.7435   -7.3999   -1.4253 C   0  0  0  0  0  0  0  0  0  0  0  0
   -8.4744   -7.7815   -1.8803 C   0  0  0  0  0  0  0  0  0  0  0  0
   -7.3157   -7.3145   -1.2619 C   0  0  0  0  0  0  0  0  0  0  0  0
   -7.4338   -6.4508   -0.1740 C   0  0  0  0  0  0  0  0  0  0  0  0
   -8.7483   -5.4027    1.1702 H   0  0  0  0  0  0  0  0  0  0  0  0
  -10.8056   -6.2363    0.0488 H   0  0  0  0  0  0  0  0  0  0  0  0
   -8.3912   -8.4564   -2.7278 H   0  0  0  0  0  0  0  0  0  0  0  0
   -6.3338   -7.6217   -1.6043 H   0  0  0  0  0  0  0  0  0  0  0  0
   -5.9600   -5.8489    0.6269 S   0  0  0  0  0  0  0  0  0  0  0  0
   -6.2749   -5.4548    2.0032 O   0  0  0  0  0  0  0  0  0  0  0  0
   -5.7319   -4.5090   -0.2806 O   0  0  0  0  0  0  0  0  0  0  0  0
   -4.8521   -6.7771    0.3819 O   0  0  0  0  0  0  0  0  0  0  0  0
  -10.9968   -7.9099   -2.0950 C   0  0  0  0  0  0  0  0  0  0  0  0
  -11.6224   -8.4689   -1.3895 H   0  0  0  0  0  0  0  0  0  0  0  0
  -11.6049   -7.0827   -2.4783 H   0  0  0  0  0  0  0  0  0  0  0  0
  -10.7628   -8.5714   -2.9332 H   0  0  0  0  0  0  0  0  0  0  0  0
  1  2  1  6  0  0  0
  1  8  1  0  0  0  0
  3  2  1  0  0  0  0
  4  5  2  0  0  0  0
  4  1  1  0  0  0  0
  5  6  1  0  0  0  0
  6 11  1  1  0  0  0
  6  7  1  0  0  0  0
  7 12  1  0  0  0  0
  8  7  2  0  0  0  0
  8 13  1  0  0  0  0
  9  4  1  0  0  0  0
 10  5  1  0  0  0  0
 14 20  1  0  0  0  0
 15 21  1  0  0  0  0
 15 14  2  0  0  0  0
 16 15  1  0  0  0  0
 17 16  2  0  0  0  0
 17 18  1  0  0  0  0
 18 19  2  0  0  0  0
 19 14  1  0  0  0  0
 19 24  1  0  0  0  0
 22 17  1  0  0  0  0
 23 18  1  0  0  0  0
 24 25  2  0  0  0  0
 26  6  1  0  0  0  0
 26 24  1  0  0  0  0
 27 24  2  0  0  0  0
 28 16  1  0  0  0  0
 28 29  1  0  0  0  0
 30 28  1  0  0  0  0
 31 28  1  0  0  0  0
M  RAD  3   1   2   2   2   3   3
M  END
