Coordinates from ORCA-job PhN2+~TsO-_B3LYPG-6-31G_dp-NX-Scan-d89-09-n800
 OpenBabel11261920463D

 31 31  0  0  0  0  0  0  0  0999 V2000
   -4.0279   -0.3980   -0.3773 C   0  0  0  0  0  0  0  0  0  0  0  0
   -3.7955    0.9175   -0.1587 N   0  0  0  0  0  0  0  0  0  0  0  0
   -3.5952    2.0087    0.0336 N   0  0  0  0  0  0  0  0  0  0  0  0
   -3.4330   -1.0044   -1.5144 C   0  0  0  0  0  0  0  0  0  0  0  0
   -3.6454   -2.3556   -1.6968 C   0  0  0  0  0  0  0  0  0  0  0  0
   -4.4261   -3.0934   -0.7848 C   0  0  0  0  0  0  0  0  0  0  0  0
   -5.0325   -2.4611    0.3236 C   0  0  0  0  0  0  0  0  0  0  0  0
   -4.8403   -1.1143    0.5461 C   0  0  0  0  0  0  0  0  0  0  0  0
   -2.8294   -0.4143   -2.1954 H   0  0  0  0  0  0  0  0  0  0  0  0
   -3.1999   -2.8551   -2.5503 H   0  0  0  0  0  0  0  0  0  0  0  0
   -4.5500   -4.1693   -0.8977 H   0  0  0  0  0  0  0  0  0  0  0  0
   -5.6776   -3.0559    0.9715 H   0  0  0  0  0  0  0  0  0  0  0  0
   -5.2866   -0.6006    1.3903 H   0  0  0  0  0  0  0  0  0  0  0  0
   -9.4251   -6.2632   -0.1638 C   0  0  0  0  0  0  0  0  0  0  0  0
  -10.4073   -7.2169   -0.4175 C   0  0  0  0  0  0  0  0  0  0  0  0
  -10.0989   -8.4189   -1.0736 C   0  0  0  0  0  0  0  0  0  0  0  0
   -8.7732   -8.6381   -1.4689 C   0  0  0  0  0  0  0  0  0  0  0  0
   -7.7804   -7.6891   -1.2225 C   0  0  0  0  0  0  0  0  0  0  0  0
   -8.1092   -6.5018   -0.5693 C   0  0  0  0  0  0  0  0  0  0  0  0
   -9.6627   -5.3426    0.3583 H   0  0  0  0  0  0  0  0  0  0  0  0
  -11.4301   -7.0308   -0.0976 H   0  0  0  0  0  0  0  0  0  0  0  0
   -8.5134   -9.5662   -1.9726 H   0  0  0  0  0  0  0  0  0  0  0  0
   -6.7508   -7.8614   -1.5162 H   0  0  0  0  0  0  0  0  0  0  0  0
   -6.8463   -5.2518   -0.2951 S   0  0  0  0  0  0  0  0  0  0  0  0
   -7.1641   -4.6353    1.0269 O   0  0  0  0  0  0  0  0  0  0  0  0
   -6.9788   -4.2778   -1.4314 O   0  0  0  0  0  0  0  0  0  0  0  0
   -5.5367   -5.9667   -0.3342 O   0  0  0  0  0  0  0  0  0  0  0  0
  -11.1683   -9.4576   -1.3201 C   0  0  0  0  0  0  0  0  0  0  0  0
  -11.4271   -9.9898   -0.3961 H   0  0  0  0  0  0  0  0  0  0  0  0
  -12.0905   -9.0022   -1.6960 H   0  0  0  0  0  0  0  0  0  0  0  0
  -10.8396  -10.2049   -2.0483 H   0  0  0  0  0  0  0  0  0  0  0  0
  1  2  1  0  0  0  0
  1  8  2  0  0  0  0
  2  3  1  0  0  0  0
  4  1  1  0  0  0  0
  5  4  2  0  0  0  0
  5  6  1  0  0  0  0
  6  7  2  0  0  0  0
  7  8  1  0  0  0  0
  7 12  1  0  0  0  0
  8 13  1  0  0  0  0
  9  4  1  0  0  0  0
 10  5  1  0  0  0  0
 11  6  1  0  0  0  0
 14 20  1  0  0  0  0
 15 14  1  0  0  0  0
 15 21  1  0  0  0  0
 16 15  2  0  0  0  0
 17 18  2  0  0  0  0
 17 16  1  0  0  0  0
 18 19  1  0  0  0  0
 19 24  1  0  0  0  0
 19 14  2  0  0  0  0
 22 17  1  0  0  0  0
 23 18  1  0  0  0  0
 24 25  1  0  0  0  0
 26 24  2  0  0  0  0
 27 24  2  0  0  0  0
 28 16  1  0  0  0  0
 28 29  1  0  0  0  0
 30 28  1  0  0  0  0
 31 28  1  0  0  0  0
M  RAD  3   2   2   3   3  25   2
M  END
