Coordinates from ORCA-job PhN2+~TsO-_B3LYPG-6-31G_dp-NX-Scan-d89-09-n800
 OpenBabel11261920463D

 31 32  0  0  1  0  0  0  0  0999 V2000
   -5.3558   -1.3710   -0.6869 C   0  0  2  0  0  0  0  0  0  0  0  0
   -6.5801   -0.9131   -0.7574 N   0  0  0  0  0  0  0  0  0  0  0  0
   -7.6740   -0.6006   -0.8133 N   0  0  0  0  0  0  0  0  0  0  0  0
   -4.8076   -2.0310   -1.8717 C   0  0  0  0  0  0  0  0  0  0  0  0
   -4.1931   -3.2113   -1.6846 C   0  0  0  0  0  0  0  0  0  0  0  0
   -4.3547   -3.8491   -0.3379 C   0  0  1  0  0  0  0  0  0  0  0  0
   -4.1904   -2.8603    0.7792 C   0  0  0  0  0  0  0  0  0  0  0  0
   -4.8060   -1.6750    0.6346 C   0  0  0  0  0  0  0  0  0  0  0  0
   -4.9040   -1.5560   -2.8437 H   0  0  0  0  0  0  0  0  0  0  0  0
   -3.6942   -3.7456   -2.4855 H   0  0  0  0  0  0  0  0  0  0  0  0
   -3.7631   -4.7541   -0.2067 H   0  0  0  0  0  0  0  0  0  0  0  0
   -3.6928   -3.1541    1.6968 H   0  0  0  0  0  0  0  0  0  0  0  0
   -4.9081   -0.9526    1.4389 H   0  0  0  0  0  0  0  0  0  0  0  0
   -8.8783   -5.5841   -0.1212 C   0  0  0  0  0  0  0  0  0  0  0  0
   -9.8959   -6.2179   -0.8274 C   0  0  0  0  0  0  0  0  0  0  0  0
   -9.6609   -7.4139   -1.5247 C   0  0  0  0  0  0  0  0  0  0  0  0
   -8.3720   -7.9625   -1.4963 C   0  0  0  0  0  0  0  0  0  0  0  0
   -7.3375   -7.3395   -0.7988 C   0  0  0  0  0  0  0  0  0  0  0  0
   -7.6017   -6.1512   -0.1198 C   0  0  0  0  0  0  0  0  0  0  0  0
   -9.0651   -4.6699    0.4310 H   0  0  0  0  0  0  0  0  0  0  0  0
  -10.8914   -5.7812   -0.8341 H   0  0  0  0  0  0  0  0  0  0  0  0
   -8.1756   -8.8927   -2.0219 H   0  0  0  0  0  0  0  0  0  0  0  0
   -6.3429   -7.7706   -0.7660 H   0  0  0  0  0  0  0  0  0  0  0  0
   -6.2894   -5.3492    0.7850 S   0  0  0  0  0  0  0  0  0  0  0  0
   -6.8715   -4.6258    1.9150 O   0  0  0  0  0  0  0  0  0  0  0  0
   -5.8175   -4.2778   -0.3611 O   0  0  0  0  0  0  0  0  0  0  0  0
   -5.1954   -6.3011    1.0086 O   0  0  0  0  0  0  0  0  0  0  0  0
  -10.7813   -8.0935   -2.2742 C   0  0  0  0  0  0  0  0  0  0  0  0
  -11.5718   -8.4211   -1.5894 H   0  0  0  0  0  0  0  0  0  0  0  0
  -11.2445   -7.4128   -2.9973 H   0  0  0  0  0  0  0  0  0  0  0  0
  -10.4252   -8.9720   -2.8180 H   0  0  0  0  0  0  0  0  0  0  0  0
  1  2  1  1  0  0  0
  1  8  1  0  0  0  0
  3  2  1  0  0  0  0
  4  5  2  0  0  0  0
  4  1  1  0  0  0  0
  5  6  1  0  0  0  0
  6 11  1  1  0  0  0
  6  7  1  0  0  0  0
  7 12  1  0  0  0  0
  8  7  2  0  0  0  0
  8 13  1  0  0  0  0
  9  4  1  0  0  0  0
 10  5  1  0  0  0  0
 14 19  1  0  0  0  0
 14 20  1  0  0  0  0
 15 14  2  0  0  0  0
 16 17  2  0  0  0  0
 16 15  1  0  0  0  0
 17 18  1  0  0  0  0
 18 23  1  0  0  0  0
 18 19  2  0  0  0  0
 19 24  1  0  0  0  0
 21 15  1  0  0  0  0
 22 17  1  0  0  0  0
 24 27  2  0  0  0  0
 24 25  2  0  0  0  0
 26  6  1  0  0  0  0
 26 24  1  0  0  0  0
 28 29  1  0  0  0  0
 28 16  1  0  0  0  0
 30 28  1  0  0  0  0
 31 28  1  0  0  0  0
M  RAD  3   1   2   2   2   3   3
M  END
