Coordinates from ORCA-job PhN2+~TsO-_B3LYPG-6-31G_dp-NX-Scan-d89-09-n800
 OpenBabel11261920463D

 31 31  0  0  0  0  0  0  0  0999 V2000
   -4.3664   -0.5130   -0.5714 C   0  0  0  0  0  0  0  0  0  0  0  0
   -4.2487    0.8271   -0.5672 N   0  0  0  0  0  0  0  0  0  0  0  0
   -4.1358    1.9520   -0.5550 N   0  0  0  0  0  0  0  0  0  0  0  0
   -4.0108   -1.2309   -1.7509 C   0  0  0  0  0  0  0  0  0  0  0  0
   -4.0490   -2.6034   -1.7088 C   0  0  0  0  0  0  0  0  0  0  0  0
   -4.4338   -3.2869   -0.5283 C   0  0  0  0  0  0  0  0  0  0  0  0
   -4.8246   -2.5496    0.6208 C   0  0  0  0  0  0  0  0  0  0  0  0
   -4.7976   -1.1778    0.6172 C   0  0  0  0  0  0  0  0  0  0  0  0
   -3.6952   -0.6916   -2.6373 H   0  0  0  0  0  0  0  0  0  0  0  0
   -3.7691   -3.1756   -2.5861 H   0  0  0  0  0  0  0  0  0  0  0  0
   -4.2795   -4.3562   -0.4456 H   0  0  0  0  0  0  0  0  0  0  0  0
   -5.1790   -3.0949    1.4892 H   0  0  0  0  0  0  0  0  0  0  0  0
   -5.0808   -0.5970    1.4881 H   0  0  0  0  0  0  0  0  0  0  0  0
   -9.2374   -6.1789   -0.0885 C   0  0  0  0  0  0  0  0  0  0  0  0
  -10.2729   -7.0173   -0.4932 C   0  0  0  0  0  0  0  0  0  0  0  0
  -10.0149   -8.1898   -1.2200 C   0  0  0  0  0  0  0  0  0  0  0  0
   -8.6847   -8.5002   -1.5316 C   0  0  0  0  0  0  0  0  0  0  0  0
   -7.6379   -7.6682   -1.1346 C   0  0  0  0  0  0  0  0  0  0  0  0
   -7.9193   -6.5083   -0.4133 C   0  0  0  0  0  0  0  0  0  0  0  0
   -9.4357   -5.2820    0.4882 H   0  0  0  0  0  0  0  0  0  0  0  0
  -11.2988   -6.7628   -0.2370 H   0  0  0  0  0  0  0  0  0  0  0  0
   -8.4651   -9.4083   -2.0876 H   0  0  0  0  0  0  0  0  0  0  0  0
   -6.6063   -7.9136   -1.3622 H   0  0  0  0  0  0  0  0  0  0  0  0
   -6.5802   -5.4127    0.0723 S   0  0  0  0  0  0  0  0  0  0  0  0
   -6.9795   -4.7914    1.3598 O   0  0  0  0  0  0  0  0  0  0  0  0
   -6.5167   -4.3947   -1.0602 O   0  0  0  0  0  0  0  0  0  0  0  0
   -5.3423   -6.2343    0.1190 O   0  0  0  0  0  0  0  0  0  0  0  0
  -11.1447   -9.1056   -1.6292 C   0  0  0  0  0  0  0  0  0  0  0  0
  -11.5052   -9.6963   -0.7776 H   0  0  0  0  0  0  0  0  0  0  0  0
  -12.0005   -8.5398   -2.0122 H   0  0  0  0  0  0  0  0  0  0  0  0
  -10.8292   -9.8088   -2.4056 H   0  0  0  0  0  0  0  0  0  0  0  0
  1  2  1  0  0  0  0
  1  8  2  0  0  0  0
  2  3  1  0  0  0  0
  4  5  2  0  0  0  0
  4  1  1  0  0  0  0
  5  6  1  0  0  0  0
  6 11  1  0  0  0  0
  6  7  2  0  0  0  0
  7 12  1  0  0  0  0
  8  7  1  0  0  0  0
  8 13  1  0  0  0  0
  9  4  1  0  0  0  0
 10  5  1  0  0  0  0
 14 20  1  0  0  0  0
 15 21  1  0  0  0  0
 15 14  2  0  0  0  0
 16 15  1  0  0  0  0
 17 16  2  0  0  0  0
 17 18  1  0  0  0  0
 18 19  2  0  0  0  0
 19 14  1  0  0  0  0
 19 24  1  0  0  0  0
 22 17  1  0  0  0  0
 23 18  1  0  0  0  0
 24 27  2  0  0  0  0
 24 25  1  0  0  0  0
 26 24  2  0  0  0  0
 28 16  1  0  0  0  0
 28 29  1  0  0  0  0
 30 28  1  0  0  0  0
 31 28  1  0  0  0  0
M  RAD  3   2   2   3   3  25   2
M  END
