Coordinates from ORCA-job PhN2+~TsO-_B3LYPG-6-31G_dp-NX-Scan-d89-09-n800
 OpenBabel11261920463D

 31 31  0  0  0  0  0  0  0  0999 V2000
   -4.6296   -2.3516   -1.1213 C   0  0  0  0  0  0  0  0  0  0  0  0
   -5.9424   -2.6586   -1.5187 N   0  0  0  0  0  0  0  0  0  0  0  0
   -6.8184   -3.4068   -1.3660 N   0  0  0  0  0  0  0  0  0  0  0  0
   -4.0850   -1.1883   -1.6843 C   0  0  0  0  0  0  0  0  0  0  0  0
   -2.7952   -0.8078   -1.3310 C   0  0  0  0  0  0  0  0  0  0  0  0
   -2.0665   -1.5855   -0.4259 C   0  0  0  0  0  0  0  0  0  0  0  0
   -2.6226   -2.7437    0.1270 C   0  0  0  0  0  0  0  0  0  0  0  0
   -3.9109   -3.1475   -0.2118 C   0  0  0  0  0  0  0  0  0  0  0  0
   -4.6798   -0.6054   -2.3789 H   0  0  0  0  0  0  0  0  0  0  0  0
   -2.3612    0.0910   -1.7556 H   0  0  0  0  0  0  0  0  0  0  0  0
   -1.0601   -1.2873   -0.1489 H   0  0  0  0  0  0  0  0  0  0  0  0
   -2.0495   -3.3400    0.8297 H   0  0  0  0  0  0  0  0  0  0  0  0
   -4.3713   -4.0360    0.1997 H   0  0  0  0  0  0  0  0  0  0  0  0
   -9.7337   -5.5923   -0.5884 C   0  0  0  0  0  0  0  0  0  0  0  0
  -10.6171   -6.4483   -1.2450 C   0  0  0  0  0  0  0  0  0  0  0  0
  -10.3933   -7.8313   -1.2835 C   0  0  0  0  0  0  0  0  0  0  0  0
   -9.2534   -8.3404   -0.6436 C   0  0  0  0  0  0  0  0  0  0  0  0
   -8.3613   -7.4992    0.0171 C   0  0  0  0  0  0  0  0  0  0  0  0
   -8.6063   -6.1250    0.0367 C   0  0  0  0  0  0  0  0  0  0  0  0
   -9.9149   -4.5239   -0.5451 H   0  0  0  0  0  0  0  0  0  0  0  0
  -11.4978   -6.0359   -1.7310 H   0  0  0  0  0  0  0  0  0  0  0  0
   -9.0652   -9.4114   -0.6598 H   0  0  0  0  0  0  0  0  0  0  0  0
   -7.4894   -7.8968    0.5250 H   0  0  0  0  0  0  0  0  0  0  0  0
   -7.4488   -5.0336    0.8614 S   0  0  0  0  0  0  0  0  0  0  0  0
   -8.1504   -3.7769    1.1527 O   0  0  0  0  0  0  0  0  0  0  0  0
   -6.3234   -4.7778   -0.2249 O   0  0  0  0  0  0  0  0  0  0  0  0
   -6.8178   -5.7891    1.9489 O   0  0  0  0  0  0  0  0  0  0  0  0
  -11.3728   -8.7563   -1.9657 C   0  0  0  0  0  0  0  0  0  0  0  0
  -12.1196   -9.1317   -1.2548 H   0  0  0  0  0  0  0  0  0  0  0  0
  -11.9145   -8.2458   -2.7674 H   0  0  0  0  0  0  0  0  0  0  0  0
  -10.8695   -9.6273   -2.3955 H   0  0  0  0  0  0  0  0  0  0  0  0
  1  8  2  0  0  0  0
  2  3  2  0  0  0  0
  2  1  1  0  0  0  0
  4  5  2  0  0  0  0
  4  1  1  0  0  0  0
  5  6  1  0  0  0  0
  6 11  1  0  0  0  0
  6  7  2  0  0  0  0
  7 12  1  0  0  0  0
  8  7  1  0  0  0  0
  8 13  1  0  0  0  0
  9  4  1  0  0  0  0
 10  5  1  0  0  0  0
 14 20  1  0  0  0  0
 14 19  2  0  0  0  0
 15 14  1  0  0  0  0
 16 15  2  0  0  0  0
 16 17  1  0  0  0  0
 17 18  2  0  0  0  0
 18 19  1  0  0  0  0
 18 23  1  0  0  0  0
 19 24  1  0  0  0  0
 21 15  1  0  0  0  0
 22 17  1  0  0  0  0
 24 25  2  0  0  0  0
 24 27  1  0  0  0  0
 26 24  2  0  0  0  0
 28 16  1  0  0  0  0
 28 29  1  0  0  0  0
 30 28  1  0  0  0  0
 31 28  1  0  0  0  0
M  RAD  2   3   2  27   2
M  END
