Coordinates from ORCA-job PhN2+~TsO-_B3LYPG-6-31G_dp-NX-Scan-d89-09-n800
 OpenBabel11261920463D

 31 31  0  0  0  0  0  0  0  0999 V2000
   -3.7765   -0.4283   -0.1440 C   0  0  0  0  0  0  0  0  0  0  0  0
   -3.5542    0.8681    0.1873 N   0  0  0  0  0  0  0  0  0  0  0  0
   -3.3916    1.9427    0.4742 N   0  0  0  0  0  0  0  0  0  0  0  0
   -2.8462   -1.0764   -0.9950 C   0  0  0  0  0  0  0  0  0  0  0  0
   -3.1133   -2.3896   -1.3333 C   0  0  0  0  0  0  0  0  0  0  0  0
   -4.2665   -3.0349   -0.8509 C   0  0  0  0  0  0  0  0  0  0  0  0
   -5.1697   -2.3715    0.0040 C   0  0  0  0  0  0  0  0  0  0  0  0
   -4.9394   -1.0601    0.3699 C   0  0  0  0  0  0  0  0  0  0  0  0
   -1.9736   -0.5460   -1.3593 H   0  0  0  0  0  0  0  0  0  0  0  0
   -2.4295   -2.9192   -1.9887 H   0  0  0  0  0  0  0  0  0  0  0  0
   -4.5272   -4.0565   -1.1388 H   0  0  0  0  0  0  0  0  0  0  0  0
   -6.0666   -2.9080    0.3373 H   0  0  0  0  0  0  0  0  0  0  0  0
   -5.6179   -0.5132    1.0159 H   0  0  0  0  0  0  0  0  0  0  0  0
   -9.6011   -6.2961   -0.2189 C   0  0  0  0  0  0  0  0  0  0  0  0
  -10.4434   -7.4060   -0.2035 C   0  0  0  0  0  0  0  0  0  0  0  0
  -10.0969   -8.5886   -0.8733 C   0  0  0  0  0  0  0  0  0  0  0  0
   -8.8777   -8.6271   -1.5620 C   0  0  0  0  0  0  0  0  0  0  0  0
   -8.0263   -7.5217   -1.5850 C   0  0  0  0  0  0  0  0  0  0  0  0
   -8.3902   -6.3558   -0.9121 C   0  0  0  0  0  0  0  0  0  0  0  0
   -9.8647   -5.3878    0.3124 H   0  0  0  0  0  0  0  0  0  0  0  0
  -11.3855   -7.3559    0.3380 H   0  0  0  0  0  0  0  0  0  0  0  0
   -8.5890   -9.5359   -2.0855 H   0  0  0  0  0  0  0  0  0  0  0  0
   -7.0759   -7.5566   -2.1059 H   0  0  0  0  0  0  0  0  0  0  0  0
   -7.3356   -4.8998   -0.9956 S   0  0  0  0  0  0  0  0  0  0  0  0
   -7.5047   -4.2287    0.3356 O   0  0  0  0  0  0  0  0  0  0  0  0
   -7.8013   -4.0697   -2.1326 O   0  0  0  0  0  0  0  0  0  0  0  0
   -5.9482   -5.4394   -1.1897 O   0  0  0  0  0  0  0  0  0  0  0  0
  -11.0032   -9.7968   -0.8258 C   0  0  0  0  0  0  0  0  0  0  0  0
  -10.8775  -10.3536    0.1123 H   0  0  0  0  0  0  0  0  0  0  0  0
  -12.0581   -9.5096   -0.8894 H   0  0  0  0  0  0  0  0  0  0  0  0
  -10.7903  -10.4885   -1.6464 H   0  0  0  0  0  0  0  0  0  0  0  0
  1  2  1  0  0  0  0
  1  8  2  0  0  0  0
  2  3  1  0  0  0  0
  4  1  1  0  0  0  0
  5  4  2  0  0  0  0
  5  6  1  0  0  0  0
  6  7  2  0  0  0  0
  7 12  1  0  0  0  0
  7  8  1  0  0  0  0
  8 13  1  0  0  0  0
  9  4  1  0  0  0  0
 10  5  1  0  0  0  0
 11  6  1  0  0  0  0
 14 15  1  0  0  0  0
 14 20  1  0  0  0  0
 15 21  1  0  0  0  0
 16 28  1  0  0  0  0
 16 15  2  0  0  0  0
 17 16  1  0  0  0  0
 18 17  2  0  0  0  0
 18 19  1  0  0  0  0
 19 14  2  0  0  0  0
 22 17  1  0  0  0  0
 23 18  1  0  0  0  0
 24 19  1  0  0  0  0
 24 25  1  0  0  0  0
 26 24  2  0  0  0  0
 27 24  2  0  0  0  0
 28 29  1  0  0  0  0
 30 28  1  0  0  0  0
 31 28  1  0  0  0  0
M  RAD  3   2   2   3   3  25   2
M  END
