Coordinates from ORCA-job PhN2+~TsO-_B3LYPG-6-31G_dp-NX-Scan-d89-09-n800
 OpenBabel11261920463D

 31 32  0  0  1  0  0  0  0  0999 V2000
   -5.3588   -1.3519   -0.7116 C   0  0  2  0  0  0  0  0  0  0  0  0
   -6.6219   -1.7293   -0.5952 N   0  0  0  0  0  0  0  0  0  0  0  0
   -7.5900   -2.3076   -0.4734 N   0  0  0  0  0  0  0  0  0  0  0  0
   -4.7581   -2.0068   -1.9192 C   0  0  0  0  0  0  0  0  0  0  0  0
   -4.2181   -3.2150   -1.7116 C   0  0  0  0  0  0  0  0  0  0  0  0
   -4.4128   -3.8039   -0.3376 C   0  0  1  0  0  0  0  0  0  0  0  0
   -4.0848   -2.7899    0.7320 C   0  0  0  0  0  0  0  0  0  0  0  0
   -4.6335   -1.5763    0.5812 C   0  0  0  0  0  0  0  0  0  0  0  0
   -4.7974   -1.5225   -2.8908 H   0  0  0  0  0  0  0  0  0  0  0  0
   -3.6995   -3.7815   -2.4794 H   0  0  0  0  0  0  0  0  0  0  0  0
   -3.9161   -4.7619   -0.1959 H   0  0  0  0  0  0  0  0  0  0  0  0
   -3.4840   -3.0777    1.5895 H   0  0  0  0  0  0  0  0  0  0  0  0
   -4.5962   -0.7986    1.3384 H   0  0  0  0  0  0  0  0  0  0  0  0
   -8.9677   -5.4526   -0.1699 C   0  0  0  0  0  0  0  0  0  0  0  0
   -9.9456   -6.1209   -0.9031 C   0  0  0  0  0  0  0  0  0  0  0  0
   -9.6645   -7.3271   -1.5616 C   0  0  0  0  0  0  0  0  0  0  0  0
   -8.3671   -7.8518   -1.4713 C   0  0  0  0  0  0  0  0  0  0  0  0
   -7.3735   -7.1970   -0.7472 C   0  0  0  0  0  0  0  0  0  0  0  0
   -7.6847   -5.9978   -0.1048 C   0  0  0  0  0  0  0  0  0  0  0  0
   -9.1903   -4.5250    0.3437 H   0  0  0  0  0  0  0  0  0  0  0  0
  -10.9457   -5.6999   -0.9620 H   0  0  0  0  0  0  0  0  0  0  0  0
   -8.1325   -8.7884   -1.9696 H   0  0  0  0  0  0  0  0  0  0  0  0
   -6.3740   -7.6098   -0.6658 H   0  0  0  0  0  0  0  0  0  0  0  0
   -6.4197   -5.1664    0.8399 S   0  0  0  0  0  0  0  0  0  0  0  0
   -7.0450   -4.4538    1.9510 O   0  0  0  0  0  0  0  0  0  0  0  0
   -5.9238   -4.0536   -0.2716 O   0  0  0  0  0  0  0  0  0  0  0  0
   -5.3164   -6.1011    1.0874 O   0  0  0  0  0  0  0  0  0  0  0  0
  -10.7414   -8.0621   -2.3222 C   0  0  0  0  0  0  0  0  0  0  0  0
  -11.2429   -8.7954   -1.6785 H   0  0  0  0  0  0  0  0  0  0  0  0
  -11.5080   -7.3769   -2.6946 H   0  0  0  0  0  0  0  0  0  0  0  0
  -10.3277   -8.6080   -3.1751 H   0  0  0  0  0  0  0  0  0  0  0  0
  1  2  1  1  0  0  0
  1  8  1  0  0  0  0
  2  3  1  0  0  0  0
  4  5  2  0  0  0  0
  4  1  1  0  0  0  0
  5  6  1  0  0  0  0
  6 26  1  0  0  0  0
  6 11  1  1  0  0  0
  6  7  1  0  0  0  0
  7 12  1  0  0  0  0
  8  7  2  0  0  0  0
  8 13  1  0  0  0  0
  9  4  1  0  0  0  0
 10  5  1  0  0  0  0
 14 19  1  0  0  0  0
 14 20  1  0  0  0  0
 15 14  2  0  0  0  0
 16 17  2  0  0  0  0
 16 15  1  0  0  0  0
 17 18  1  0  0  0  0
 18 23  1  0  0  0  0
 18 19  2  0  0  0  0
 19 24  1  0  0  0  0
 21 15  1  0  0  0  0
 22 17  1  0  0  0  0
 24 27  2  0  0  0  0
 24 25  2  0  0  0  0
 26 24  1  0  0  0  0
 28 29  1  0  0  0  0
 28 16  1  0  0  0  0
 30 28  1  0  0  0  0
 31 28  1  0  0  0  0
M  RAD  3   1   2   2   2   3   3
M  END
