Coordinates from ORCA-job PhN2+~TsO-_B3LYPG-6-31G_dp-NX-Scan-d89-09-n800
 OpenBabel11261920463D

 31 32  0  0  1  0  0  0  0  0999 V2000
   -5.4733   -1.4027   -0.6289 C   0  0  2  0  0  0  0  0  0  0  0  0
   -6.7792   -1.5341   -0.5967 N   0  0  0  0  0  0  0  0  0  0  0  0
   -7.8925   -1.7669   -0.5619 N   0  0  0  0  0  0  0  0  0  0  0  0
   -4.8475   -1.9564   -1.8555 C   0  0  0  0  0  0  0  0  0  0  0  0
   -4.1814   -3.1108   -1.7121 C   0  0  0  0  0  0  0  0  0  0  0  0
   -4.3321   -3.8007   -0.3827 C   0  0  1  0  0  0  0  0  0  0  0  0
   -4.1381   -2.8332    0.7574 C   0  0  0  0  0  0  0  0  0  0  0  0
   -4.8040   -1.6734    0.6677 C   0  0  0  0  0  0  0  0  0  0  0  0
   -4.9484   -1.4347   -2.8030 H   0  0  0  0  0  0  0  0  0  0  0  0
   -3.6221   -3.5813   -2.5143 H   0  0  0  0  0  0  0  0  0  0  0  0
   -3.7381   -4.7085   -0.2876 H   0  0  0  0  0  0  0  0  0  0  0  0
   -3.5530   -3.1207    1.6250 H   0  0  0  0  0  0  0  0  0  0  0  0
   -4.8826   -0.9596    1.4824 H   0  0  0  0  0  0  0  0  0  0  0  0
   -8.7901   -5.4150   -0.3185 C   0  0  0  0  0  0  0  0  0  0  0  0
   -9.8164   -6.0462   -1.0143 C   0  0  0  0  0  0  0  0  0  0  0  0
   -9.6552   -7.3405   -1.5348 C   0  0  0  0  0  0  0  0  0  0  0  0
   -8.4283   -7.9892   -1.3455 C   0  0  0  0  0  0  0  0  0  0  0  0
   -7.3839   -7.3717   -0.6573 C   0  0  0  0  0  0  0  0  0  0  0  0
   -7.5771   -6.0878   -0.1510 C   0  0  0  0  0  0  0  0  0  0  0  0
   -8.9216   -4.4167    0.0834 H   0  0  0  0  0  0  0  0  0  0  0  0
  -10.7609   -5.5267   -1.1545 H   0  0  0  0  0  0  0  0  0  0  0  0
   -8.2864   -8.9916   -1.7395 H   0  0  0  0  0  0  0  0  0  0  0  0
   -6.4349   -7.8741   -0.5053 H   0  0  0  0  0  0  0  0  0  0  0  0
   -6.2543   -5.3016    0.7505 S   0  0  0  0  0  0  0  0  0  0  0  0
   -6.8148   -4.5773    1.8898 O   0  0  0  0  0  0  0  0  0  0  0  0
   -5.7914   -4.2183   -0.3963 O   0  0  0  0  0  0  0  0  0  0  0  0
   -5.1609   -6.2578    0.9538 O   0  0  0  0  0  0  0  0  0  0  0  0
  -10.7908   -8.0202   -2.2609 C   0  0  0  0  0  0  0  0  0  0  0  0
  -11.5541   -8.3685   -1.5546 H   0  0  0  0  0  0  0  0  0  0  0  0
  -11.2852   -7.3353   -2.9574 H   0  0  0  0  0  0  0  0  0  0  0  0
  -10.4432   -8.8889   -2.8261 H   0  0  0  0  0  0  0  0  0  0  0  0
  1  2  1  1  0  0  0
  1  8  1  0  0  0  0
  2  3  1  0  0  0  0
  4  5  2  0  0  0  0
  4  1  1  0  0  0  0
  5  6  1  0  0  0  0
  6 11  1  1  0  0  0
  6  7  1  0  0  0  0
  7 12  1  0  0  0  0
  8  7  2  0  0  0  0
  8 13  1  0  0  0  0
  9  4  1  0  0  0  0
 10  5  1  0  0  0  0
 14 19  1  0  0  0  0
 14 20  1  0  0  0  0
 15 14  2  0  0  0  0
 16 17  2  0  0  0  0
 16 15  1  0  0  0  0
 17 18  1  0  0  0  0
 18 23  1  0  0  0  0
 18 19  2  0  0  0  0
 19 24  1  0  0  0  0
 21 15  1  0  0  0  0
 22 17  1  0  0  0  0
 24 27  2  0  0  0  0
 24 25  2  0  0  0  0
 26  6  1  0  0  0  0
 26 24  1  0  0  0  0
 28 29  1  0  0  0  0
 28 16  1  0  0  0  0
 30 28  1  0  0  0  0
 31 28  1  0  0  0  0
M  RAD  3   1   2   2   2   3   3
M  END
