Coordinates from ORCA-job PhN2+~TsO-_B3LYPG-6-31G_dp-NX-Scan-d89-09-n800
 OpenBabel11261920463D

 31 32  0  0  1  0  0  0  0  0999 V2000
   -5.3541   -1.3487   -0.7300 C   0  0  2  0  0  0  0  0  0  0  0  0
   -6.6142   -1.7388   -0.5954 N   0  0  0  0  0  0  0  0  0  0  0  0
   -7.5553   -2.3550   -0.4516 N   0  0  0  0  0  0  0  0  0  0  0  0
   -4.7653   -2.0265   -1.9313 C   0  0  0  0  0  0  0  0  0  0  0  0
   -4.2327   -3.2356   -1.7080 C   0  0  0  0  0  0  0  0  0  0  0  0
   -4.4209   -3.8012   -0.3239 C   0  0  1  0  0  0  0  0  0  0  0  0
   -4.0785   -2.7733    0.7266 C   0  0  0  0  0  0  0  0  0  0  0  0
   -4.6202   -1.5580    0.5609 C   0  0  0  0  0  0  0  0  0  0  0  0
   -4.8091   -1.5585   -2.9106 H   0  0  0  0  0  0  0  0  0  0  0  0
   -3.7236   -3.8178   -2.4704 H   0  0  0  0  0  0  0  0  0  0  0  0
   -3.9323   -4.7614   -0.1707 H   0  0  0  0  0  0  0  0  0  0  0  0
   -3.4732   -3.0517    1.5842 H   0  0  0  0  0  0  0  0  0  0  0  0
   -4.5726   -0.7696    1.3065 H   0  0  0  0  0  0  0  0  0  0  0  0
   -8.9778   -5.4620   -0.1487 C   0  0  0  0  0  0  0  0  0  0  0  0
   -9.9515   -6.1278   -0.8896 C   0  0  0  0  0  0  0  0  0  0  0  0
   -9.6612   -7.3209   -1.5676 C   0  0  0  0  0  0  0  0  0  0  0  0
   -8.3589   -7.8352   -1.4886 C   0  0  0  0  0  0  0  0  0  0  0  0
   -7.3694   -7.1826   -0.7569 C   0  0  0  0  0  0  0  0  0  0  0  0
   -7.6895   -5.9962   -0.0955 C   0  0  0  0  0  0  0  0  0  0  0  0
   -9.2075   -4.5449    0.3802 H   0  0  0  0  0  0  0  0  0  0  0  0
  -10.9556   -5.7151   -0.9394 H   0  0  0  0  0  0  0  0  0  0  0  0
   -8.1172   -8.7620   -2.0017 H   0  0  0  0  0  0  0  0  0  0  0  0
   -6.3662   -7.5881   -0.6839 H   0  0  0  0  0  0  0  0  0  0  0  0
   -6.4291   -5.1671    0.8579 S   0  0  0  0  0  0  0  0  0  0  0  0
   -7.0593   -4.4703    1.9763 O   0  0  0  0  0  0  0  0  0  0  0  0
   -5.9389   -4.0361   -0.2381 O   0  0  0  0  0  0  0  0  0  0  0  0
   -5.3217   -6.0995    1.0957 O   0  0  0  0  0  0  0  0  0  0  0  0
  -10.7336   -8.0537   -2.3367 C   0  0  0  0  0  0  0  0  0  0  0  0
  -11.2361   -8.7918   -1.6993 H   0  0  0  0  0  0  0  0  0  0  0  0
  -11.5004   -7.3678   -2.7077 H   0  0  0  0  0  0  0  0  0  0  0  0
  -10.3158   -8.5934   -3.1914 H   0  0  0  0  0  0  0  0  0  0  0  0
  1  2  1  1  0  0  0
  1  8  1  0  0  0  0
  2  3  1  0  0  0  0
  4  5  2  0  0  0  0
  4  1  1  0  0  0  0
  5  6  1  0  0  0  0
  6 26  1  0  0  0  0
  6 11  1  1  0  0  0
  6  7  1  0  0  0  0
  7 12  1  0  0  0  0
  8  7  2  0  0  0  0
  8 13  1  0  0  0  0
  9  4  1  0  0  0  0
 10  5  1  0  0  0  0
 14 19  1  0  0  0  0
 14 20  1  0  0  0  0
 15 14  2  0  0  0  0
 16 17  2  0  0  0  0
 16 15  1  0  0  0  0
 17 18  1  0  0  0  0
 18 23  1  0  0  0  0
 18 19  2  0  0  0  0
 19 24  1  0  0  0  0
 21 15  1  0  0  0  0
 22 17  1  0  0  0  0
 24 27  2  0  0  0  0
 24 25  2  0  0  0  0
 26 24  1  0  0  0  0
 28 29  1  0  0  0  0
 28 16  1  0  0  0  0
 30 28  1  0  0  0  0
 31 28  1  0  0  0  0
M  RAD  3   1   2   2   2   3   3
M  END
