Coordinates from ORCA-job PhN2+~TsO-_B3LYPG-6-31G_dp-NX-Scan-d89-09-n800
 OpenBabel11261920463D

 31 32  0  0  0  0  0  0  0  0999 V2000
   -5.0067   -2.5792   -0.8747 C   0  0  0  0  0  0  0  0  0  0  0  0
   -6.4263   -2.6405   -0.9725 N   0  0  0  0  0  0  0  0  0  0  0  0
   -7.2017   -3.3260   -0.2812 N   0  0  0  0  0  0  0  0  0  0  0  0
   -4.4594   -1.7563   -1.8782 C   0  0  0  0  0  0  0  0  0  0  0  0
   -3.0884   -1.5434   -1.9661 C   0  0  0  0  0  0  0  0  0  0  0  0
   -2.2336   -2.1466   -1.0407 C   0  0  0  0  0  0  0  0  0  0  0  0
   -2.7635   -2.9593   -0.0368 C   0  0  0  0  0  0  0  0  0  0  0  0
   -4.1368   -3.1857    0.0574 C   0  0  0  0  0  0  0  0  0  0  0  0
   -5.1470   -1.2938   -2.5781 H   0  0  0  0  0  0  0  0  0  0  0  0
   -2.6875   -0.9069   -2.7495 H   0  0  0  0  0  0  0  0  0  0  0  0
   -1.1612   -1.9817   -1.0986 H   0  0  0  0  0  0  0  0  0  0  0  0
   -2.1024   -3.4275    0.6867 H   0  0  0  0  0  0  0  0  0  0  0  0
   -4.5163   -3.8167    0.8459 H   0  0  0  0  0  0  0  0  0  0  0  0
   -9.7726   -5.4323   -0.3049 C   0  0  0  0  0  0  0  0  0  0  0  0
  -10.4038   -6.2416   -1.2451 C   0  0  0  0  0  0  0  0  0  0  0  0
   -9.9447   -7.5404   -1.5132 C   0  0  0  0  0  0  0  0  0  0  0  0
   -8.8252   -8.0159   -0.8142 C   0  0  0  0  0  0  0  0  0  0  0  0
   -8.1758   -7.2249    0.1298 C   0  0  0  0  0  0  0  0  0  0  0  0
   -8.6617   -5.9384    0.3739 C   0  0  0  0  0  0  0  0  0  0  0  0
  -10.1275   -4.4307   -0.0949 H   0  0  0  0  0  0  0  0  0  0  0  0
  -11.2684   -5.8585   -1.7797 H   0  0  0  0  0  0  0  0  0  0  0  0
   -8.4583   -9.0190   -1.0107 H   0  0  0  0  0  0  0  0  0  0  0  0
   -7.3154   -7.5945    0.6765 H   0  0  0  0  0  0  0  0  0  0  0  0
   -7.8409   -4.9263    1.5792 S   0  0  0  0  0  0  0  0  0  0  0  0
   -8.7571   -3.9238    2.0981 O   0  0  0  0  0  0  0  0  0  0  0  0
   -6.6526   -4.0944    0.6274 O   0  0  0  0  0  0  0  0  0  0  0  0
   -6.9870   -5.7401    2.4298 O   0  0  0  0  0  0  0  0  0  0  0  0
  -10.6597   -8.4170   -2.5114 C   0  0  0  0  0  0  0  0  0  0  0  0
  -11.4786   -8.9655   -2.0298 H   0  0  0  0  0  0  0  0  0  0  0  0
  -11.0965   -7.8266   -3.3216 H   0  0  0  0  0  0  0  0  0  0  0  0
   -9.9855   -9.1572   -2.9513 H   0  0  0  0  0  0  0  0  0  0  0  0
  1  8  2  0  0  0  0
  2  1  1  0  0  0  0
  2  3  2  0  0  0  0
  3 26  1  0  0  0  0
  4  1  1  0  0  0  0
  5  4  2  0  0  0  0
  5  6  1  0  0  0  0
  6  7  2  0  0  0  0
  7  8  1  0  0  0  0
  7 12  1  0  0  0  0
  8 13  1  0  0  0  0
  9  4  1  0  0  0  0
 10  5  1  0  0  0  0
 11  6  1  0  0  0  0
 14 20  1  0  0  0  0
 14 19  2  0  0  0  0
 15 14  1  0  0  0  0
 16 15  2  0  0  0  0
 16 17  1  0  0  0  0
 17 18  2  0  0  0  0
 18 19  1  0  0  0  0
 18 23  1  0  0  0  0
 19 24  1  0  0  0  0
 21 15  1  0  0  0  0
 22 17  1  0  0  0  0
 24 25  2  0  0  0  0
 24 27  2  0  0  0  0
 26 24  1  0  0  0  0
 28 29  1  0  0  0  0
 28 16  1  0  0  0  0
 30 28  1  0  0  0  0
 31 28  1  0  0  0  0
M  END
