Coordinates from ORCA-job PhN2+~TsO-_B3LYPG-6-31G_dp-NX-Scan-d89-09-n800
 OpenBabel11261920463D

 31 32  0  0  1  0  0  0  0  0999 V2000
   -5.4055   -1.3679   -0.6508 C   0  0  2  0  0  0  0  0  0  0  0  0
   -6.6856   -1.6683   -0.5694 N   0  0  0  0  0  0  0  0  0  0  0  0
   -7.7331   -2.0996   -0.4905 N   0  0  0  0  0  0  0  0  0  0  0  0
   -4.7936   -1.9567   -1.8810 C   0  0  0  0  0  0  0  0  0  0  0  0
   -4.2037   -3.1488   -1.7244 C   0  0  0  0  0  0  0  0  0  0  0  0
   -4.3814   -3.8044   -0.3786 C   0  0  1  0  0  0  0  0  0  0  0  0
   -4.0988   -2.8273    0.7378 C   0  0  0  0  0  0  0  0  0  0  0  0
   -4.6933   -1.6311    0.6367 C   0  0  0  0  0  0  0  0  0  0  0  0
   -4.8554   -1.4350   -2.8319 H   0  0  0  0  0  0  0  0  0  0  0  0
   -3.6673   -3.6621   -2.5166 H   0  0  0  0  0  0  0  0  0  0  0  0
   -3.8465   -4.7470   -0.2752 H   0  0  0  0  0  0  0  0  0  0  0  0
   -3.4975   -3.1310    1.5892 H   0  0  0  0  0  0  0  0  0  0  0  0
   -4.6954   -0.8890    1.4296 H   0  0  0  0  0  0  0  0  0  0  0  0
   -8.9005   -5.4328   -0.2402 C   0  0  0  0  0  0  0  0  0  0  0  0
   -9.8965   -6.0936   -0.9529 C   0  0  0  0  0  0  0  0  0  0  0  0
   -9.6602   -7.3436   -1.5469 C   0  0  0  0  0  0  0  0  0  0  0  0
   -8.3897   -7.9184   -1.4120 C   0  0  0  0  0  0  0  0  0  0  0  0
   -7.3759   -7.2706   -0.7070 C   0  0  0  0  0  0  0  0  0  0  0  0
   -7.6427   -6.0300   -0.1295 C   0  0  0  0  0  0  0  0  0  0  0  0
   -9.0883   -4.4708    0.2215 H   0  0  0  0  0  0  0  0  0  0  0  0
  -10.8763   -5.6327   -1.0481 H   0  0  0  0  0  0  0  0  0  0  0  0
   -8.1901   -8.8876   -1.8603 H   0  0  0  0  0  0  0  0  0  0  0  0
   -6.3953   -7.7196   -0.5933 H   0  0  0  0  0  0  0  0  0  0  0  0
   -6.3560   -5.2065    0.7912 S   0  0  0  0  0  0  0  0  0  0  0  0
   -6.9569   -4.4755    1.9042 O   0  0  0  0  0  0  0  0  0  0  0  0
   -5.8695   -4.1200   -0.3479 O   0  0  0  0  0  0  0  0  0  0  0  0
   -5.2557   -6.1460    1.0328 O   0  0  0  0  0  0  0  0  0  0  0  0
  -10.7618   -8.0581   -2.2914 C   0  0  0  0  0  0  0  0  0  0  0  0
  -11.4834   -8.5004   -1.5937 H   0  0  0  0  0  0  0  0  0  0  0  0
  -11.3178   -7.3701   -2.9365 H   0  0  0  0  0  0  0  0  0  0  0  0
  -10.3679   -8.8660   -2.9137 H   0  0  0  0  0  0  0  0  0  0  0  0
  1  2  1  1  0  0  0
  1  8  1  0  0  0  0
  2  3  1  0  0  0  0
  4  5  2  0  0  0  0
  4  1  1  0  0  0  0
  5  6  1  0  0  0  0
  6 26  1  0  0  0  0
  6 11  1  1  0  0  0
  6  7  1  0  0  0  0
  7 12  1  0  0  0  0
  8  7  2  0  0  0  0
  8 13  1  0  0  0  0
  9  4  1  0  0  0  0
 10  5  1  0  0  0  0
 14 19  1  0  0  0  0
 14 20  1  0  0  0  0
 15 14  2  0  0  0  0
 16 17  2  0  0  0  0
 16 15  1  0  0  0  0
 17 18  1  0  0  0  0
 18 23  1  0  0  0  0
 18 19  2  0  0  0  0
 19 24  1  0  0  0  0
 21 15  1  0  0  0  0
 22 17  1  0  0  0  0
 24 27  2  0  0  0  0
 24 25  2  0  0  0  0
 26 24  1  0  0  0  0
 28 29  1  0  0  0  0
 28 16  1  0  0  0  0
 30 28  1  0  0  0  0
 31 28  1  0  0  0  0
M  RAD  3   1   2   2   2   3   3
M  END
