Coordinates from ORCA-job PhN2+~TsO-_B3LYPG-6-31G_dp-NX-Scan-d89-09-n800
 OpenBabel11261920463D

 31 32  0  0  0  0  0  0  0  0999 V2000
   -5.0324   -2.5875   -0.8661 C   0  0  0  0  0  0  0  0  0  0  0  0
   -6.4580   -2.6332   -0.9462 N   0  0  0  0  0  0  0  0  0  0  0  0
   -7.1860   -3.3465   -0.1956 N   0  0  0  0  0  0  0  0  0  0  0  0
   -4.4877   -1.7840   -1.8874 C   0  0  0  0  0  0  0  0  0  0  0  0
   -3.1168   -1.5845   -1.9989 C   0  0  0  0  0  0  0  0  0  0  0  0
   -2.2505   -2.1818   -1.0797 C   0  0  0  0  0  0  0  0  0  0  0  0
   -2.7741   -2.9748   -0.0583 C   0  0  0  0  0  0  0  0  0  0  0  0
   -4.1493   -3.1866    0.0586 C   0  0  0  0  0  0  0  0  0  0  0  0
   -5.1812   -1.3243   -2.5838 H   0  0  0  0  0  0  0  0  0  0  0  0
   -2.7234   -0.9621   -2.7978 H   0  0  0  0  0  0  0  0  0  0  0  0
   -1.1777   -2.0274   -1.1565 H   0  0  0  0  0  0  0  0  0  0  0  0
   -2.1075   -3.4399    0.6627 H   0  0  0  0  0  0  0  0  0  0  0  0
   -4.5154   -3.8044    0.8644 H   0  0  0  0  0  0  0  0  0  0  0  0
   -9.7722   -5.4254   -0.2865 C   0  0  0  0  0  0  0  0  0  0  0  0
  -10.3793   -6.2236   -1.2513 C   0  0  0  0  0  0  0  0  0  0  0  0
   -9.9138   -7.5195   -1.5228 C   0  0  0  0  0  0  0  0  0  0  0  0
   -8.8108   -8.0047   -0.8032 C   0  0  0  0  0  0  0  0  0  0  0  0
   -8.1828   -7.2260    0.1640 C   0  0  0  0  0  0  0  0  0  0  0  0
   -8.6796   -5.9439    0.4142 C   0  0  0  0  0  0  0  0  0  0  0  0
  -10.1312   -4.4259   -0.0744 H   0  0  0  0  0  0  0  0  0  0  0  0
  -11.2289   -5.8330   -1.8039 H   0  0  0  0  0  0  0  0  0  0  0  0
   -8.4391   -9.0050   -1.0040 H   0  0  0  0  0  0  0  0  0  0  0  0
   -7.3324   -7.6006    0.7229 H   0  0  0  0  0  0  0  0  0  0  0  0
   -7.8786   -4.9405    1.6320 S   0  0  0  0  0  0  0  0  0  0  0  0
   -8.7930   -3.9384    2.1545 O   0  0  0  0  0  0  0  0  0  0  0  0
   -6.6808   -4.0358    0.6185 O   0  0  0  0  0  0  0  0  0  0  0  0
   -6.9811   -5.7295    2.4596 O   0  0  0  0  0  0  0  0  0  0  0  0
  -10.6038   -8.3834   -2.5486 C   0  0  0  0  0  0  0  0  0  0  0  0
  -11.4317   -8.9397   -2.0919 H   0  0  0  0  0  0  0  0  0  0  0  0
  -11.0243   -7.7827   -3.3597 H   0  0  0  0  0  0  0  0  0  0  0  0
   -9.9184   -9.1162   -2.9834 H   0  0  0  0  0  0  0  0  0  0  0  0
  1  8  2  0  0  0  0
  2  1  1  0  0  0  0
  2  3  2  0  0  0  0
  3 26  1  0  0  0  0
  4  1  1  0  0  0  0
  5  4  2  0  0  0  0
  5  6  1  0  0  0  0
  6  7  2  0  0  0  0
  7  8  1  0  0  0  0
  7 12  1  0  0  0  0
  8 13  1  0  0  0  0
  9  4  1  0  0  0  0
 10  5  1  0  0  0  0
 11  6  1  0  0  0  0
 14 20  1  0  0  0  0
 14 19  2  0  0  0  0
 15 14  1  0  0  0  0
 16 15  2  0  0  0  0
 16 17  1  0  0  0  0
 17 18  2  0  0  0  0
 18 19  1  0  0  0  0
 18 23  1  0  0  0  0
 19 24  1  0  0  0  0
 21 15  1  0  0  0  0
 22 17  1  0  0  0  0
 24 25  2  0  0  0  0
 24 27  2  0  0  0  0
 26 24  1  0  0  0  0
 28 29  1  0  0  0  0
 28 16  1  0  0  0  0
 30 28  1  0  0  0  0
 31 28  1  0  0  0  0
M  END
