Coordinates from ORCA-job PhN2+~TsO-_B3LYPG-6-31G_dp-NX-Scan-d89-09-n800
 OpenBabel11261920463D

 31 31  0  0  0  0  0  0  0  0999 V2000
   -3.7006   -0.4892   -0.0120 C   0  0  0  0  0  0  0  0  0  0  0  0
   -3.4098    0.7485    0.4607 N   0  0  0  0  0  0  0  0  0  0  0  0
   -3.1916    1.7741    0.8660 N   0  0  0  0  0  0  0  0  0  0  0  0
   -2.7723   -1.1157   -0.8812 C   0  0  0  0  0  0  0  0  0  0  0  0
   -3.1072   -2.3679   -1.3608 C   0  0  0  0  0  0  0  0  0  0  0  0
   -4.3245   -2.9731   -0.9987 C   0  0  0  0  0  0  0  0  0  0  0  0
   -5.2251   -2.3341   -0.1231 C   0  0  0  0  0  0  0  0  0  0  0  0
   -4.9276   -1.0843    0.3834 C   0  0  0  0  0  0  0  0  0  0  0  0
   -1.8491   -0.6155   -1.1511 H   0  0  0  0  0  0  0  0  0  0  0  0
   -2.4259   -2.8790   -2.0332 H   0  0  0  0  0  0  0  0  0  0  0  0
   -4.6351   -3.9455   -1.3882 H   0  0  0  0  0  0  0  0  0  0  0  0
   -6.1681   -2.8409    0.1212 H   0  0  0  0  0  0  0  0  0  0  0  0
   -5.5988   -0.5580    1.0536 H   0  0  0  0  0  0  0  0  0  0  0  0
   -9.6799   -6.2537   -0.3376 C   0  0  0  0  0  0  0  0  0  0  0  0
  -10.4663   -7.3990   -0.2316 C   0  0  0  0  0  0  0  0  0  0  0  0
  -10.0560   -8.6151   -0.7971 C   0  0  0  0  0  0  0  0  0  0  0  0
   -8.8309   -8.6504   -1.4755 C   0  0  0  0  0  0  0  0  0  0  0  0
   -8.0352   -7.5098   -1.5886 C   0  0  0  0  0  0  0  0  0  0  0  0
   -8.4617   -6.3109   -1.0183 C   0  0  0  0  0  0  0  0  0  0  0  0
   -9.9941   -5.3184    0.1135 H   0  0  0  0  0  0  0  0  0  0  0  0
  -11.4146   -7.3501    0.2989 H   0  0  0  0  0  0  0  0  0  0  0  0
   -8.4941   -9.5841   -1.9205 H   0  0  0  0  0  0  0  0  0  0  0  0
   -7.0806   -7.5398   -2.1022 H   0  0  0  0  0  0  0  0  0  0  0  0
   -7.4819   -4.8144   -1.2209 S   0  0  0  0  0  0  0  0  0  0  0  0
   -7.6489   -4.0739    0.0738 O   0  0  0  0  0  0  0  0  0  0  0  0
   -8.0197   -4.0822   -2.3910 O   0  0  0  0  0  0  0  0  0  0  0  0
   -6.0750   -5.2995   -1.4197 O   0  0  0  0  0  0  0  0  0  0  0  0
  -10.9004   -9.8595   -0.6504 C   0  0  0  0  0  0  0  0  0  0  0  0
  -10.7140  -10.3578    0.3105 H   0  0  0  0  0  0  0  0  0  0  0  0
  -11.9695   -9.6257   -0.6886 H   0  0  0  0  0  0  0  0  0  0  0  0
  -10.6834  -10.5856   -1.4399 H   0  0  0  0  0  0  0  0  0  0  0  0
  1  8  1  0  0  0  0
  1  2  1  0  0  0  0
  2  3  1  0  0  0  0
  4  1  2  0  0  0  0
  5  6  2  0  0  0  0
  5  4  1  0  0  0  0
  6  7  1  0  0  0  0
  7 12  1  0  0  0  0
  7  8  2  0  0  0  0
  8 13  1  0  0  0  0
  9  4  1  0  0  0  0
 10  5  1  0  0  0  0
 11  6  1  0  0  0  0
 14 15  1  0  0  0  0
 14 20  1  0  0  0  0
 15 21  1  0  0  0  0
 16 28  1  0  0  0  0
 16 15  2  0  0  0  0
 17 16  1  0  0  0  0
 18 17  2  0  0  0  0
 18 19  1  0  0  0  0
 19 14  2  0  0  0  0
 22 17  1  0  0  0  0
 23 18  1  0  0  0  0
 24 19  1  0  0  0  0
 24 25  1  0  0  0  0
 26 24  2  0  0  0  0
 27 24  2  0  0  0  0
 28 29  1  0  0  0  0
 30 28  1  0  0  0  0
 31 28  1  0  0  0  0
M  RAD  3   2   2   3   3  25   2
M  END
