Coordinates from ORCA-job PhN2+~TsO-_B3LYPG-6-31G_dp-NX-Scan-d89-09-n800
 OpenBabel11261920463D

 31 32  0  0  0  0  0  0  0  0999 V2000
   -4.9931   -2.5731   -0.8837 C   0  0  0  0  0  0  0  0  0  0  0  0
   -6.4094   -2.6430   -0.9853 N   0  0  0  0  0  0  0  0  0  0  0  0
   -7.2033   -3.3164   -0.3201 N   0  0  0  0  0  0  0  0  0  0  0  0
   -4.4454   -1.7368   -1.8752 C   0  0  0  0  0  0  0  0  0  0  0  0
   -3.0745   -1.5187   -1.9518 C   0  0  0  0  0  0  0  0  0  0  0  0
   -2.2244   -2.1305   -1.0280 C   0  0  0  0  0  0  0  0  0  0  0  0
   -2.7569   -2.9573   -0.0364 C   0  0  0  0  0  0  0  0  0  0  0  0
   -4.1294   -3.1892    0.0474 C   0  0  0  0  0  0  0  0  0  0  0  0
   -5.1304   -1.2687   -2.5740 H   0  0  0  0  0  0  0  0  0  0  0  0
   -2.6704   -0.8718   -2.7249 H   0  0  0  0  0  0  0  0  0  0  0  0
   -1.1523   -1.9616   -1.0773 H   0  0  0  0  0  0  0  0  0  0  0  0
   -2.0981   -3.4318    0.6848 H   0  0  0  0  0  0  0  0  0  0  0  0
   -4.5157   -3.8300    0.8245 H   0  0  0  0  0  0  0  0  0  0  0  0
   -9.7754   -5.4372   -0.3088 C   0  0  0  0  0  0  0  0  0  0  0  0
  -10.4129   -6.2494   -1.2425 C   0  0  0  0  0  0  0  0  0  0  0  0
   -9.9564   -7.5494   -1.5084 C   0  0  0  0  0  0  0  0  0  0  0  0
   -8.8335   -8.0227   -0.8134 C   0  0  0  0  0  0  0  0  0  0  0  0
   -8.1789   -7.2282    0.1242 C   0  0  0  0  0  0  0  0  0  0  0  0
   -8.6607   -5.9399    0.3656 C   0  0  0  0  0  0  0  0  0  0  0  0
  -10.1292   -4.4350   -0.0995 H   0  0  0  0  0  0  0  0  0  0  0  0
  -11.2809   -5.8680   -1.7729 H   0  0  0  0  0  0  0  0  0  0  0  0
   -8.4686   -9.0270   -1.0077 H   0  0  0  0  0  0  0  0  0  0  0  0
   -7.3169   -7.5970    0.6691 H   0  0  0  0  0  0  0  0  0  0  0  0
   -7.8330   -4.9229    1.5655 S   0  0  0  0  0  0  0  0  0  0  0  0
   -8.7489   -3.9128    2.0722 O   0  0  0  0  0  0  0  0  0  0  0  0
   -6.6401   -4.1250    0.6325 O   0  0  0  0  0  0  0  0  0  0  0  0
   -7.0060   -5.7467    2.4346 O   0  0  0  0  0  0  0  0  0  0  0  0
  -10.6777   -8.4298   -2.4990 C   0  0  0  0  0  0  0  0  0  0  0  0
  -11.4929   -8.9777   -2.0104 H   0  0  0  0  0  0  0  0  0  0  0  0
  -11.1205   -7.8423   -3.3081 H   0  0  0  0  0  0  0  0  0  0  0  0
  -10.0059   -9.1706   -2.9415 H   0  0  0  0  0  0  0  0  0  0  0  0
  1  8  2  0  0  0  0
  2  1  1  0  0  0  0
  2  3  2  0  0  0  0
  3 26  1  0  0  0  0
  4  1  1  0  0  0  0
  5  4  2  0  0  0  0
  5  6  1  0  0  0  0
  6  7  2  0  0  0  0
  7  8  1  0  0  0  0
  7 12  1  0  0  0  0
  8 13  1  0  0  0  0
  9  4  1  0  0  0  0
 10  5  1  0  0  0  0
 11  6  1  0  0  0  0
 14 20  1  0  0  0  0
 14 19  2  0  0  0  0
 15 14  1  0  0  0  0
 16 15  2  0  0  0  0
 16 17  1  0  0  0  0
 17 18  2  0  0  0  0
 18 19  1  0  0  0  0
 18 23  1  0  0  0  0
 19 24  1  0  0  0  0
 21 15  1  0  0  0  0
 22 17  1  0  0  0  0
 24 25  2  0  0  0  0
 24 27  2  0  0  0  0
 26 24  1  0  0  0  0
 28 29  1  0  0  0  0
 28 16  1  0  0  0  0
 30 28  1  0  0  0  0
 31 28  1  0  0  0  0
M  END
