Coordinates from ORCA-job PhN2+~TsO-_B3LYPG-6-31G_dp-NX-Scan-d89-09-n800
 OpenBabel11261920463D

 31 32  0  0  1  0  0  0  0  0999 V2000
   -4.8488   -0.7886   -0.9148 C   0  0  0  0  0  0  0  0  0  0  0  0
   -4.8051    0.4812   -1.2469 N   0  0  0  0  0  0  0  0  0  0  0  0
   -4.7637    1.5895   -1.5339 N   0  0  0  0  0  0  0  0  0  0  0  0
   -4.3900   -1.8020   -1.8449 C   0  0  0  0  0  0  0  0  0  0  0  0
   -4.3903   -3.1004   -1.4889 C   0  0  0  0  0  0  0  0  0  0  0  0
   -4.8647   -3.5801   -0.1541 C   0  0  1  0  0  0  0  0  0  0  0  0
   -5.3281   -2.4835    0.7546 C   0  0  0  0  0  0  0  0  0  0  0  0
   -5.3291   -1.1865    0.3953 C   0  0  0  0  0  0  0  0  0  0  0  0
   -4.0342   -1.4886   -2.8213 H   0  0  0  0  0  0  0  0  0  0  0  0
   -4.0384   -3.8582   -2.1807 H   0  0  0  0  0  0  0  0  0  0  0  0
   -4.1003   -4.2051    0.3250 H   0  0  0  0  0  0  0  0  0  0  0  0
   -5.6814   -2.7850    1.7346 H   0  0  0  0  0  0  0  0  0  0  0  0
   -5.6739   -0.4159    1.0778 H   0  0  0  0  0  0  0  0  0  0  0  0
   -8.7848   -6.2704    0.3010 C   0  0  0  0  0  0  0  0  0  0  0  0
   -9.9157   -6.8530   -0.2620 C   0  0  0  0  0  0  0  0  0  0  0  0
   -9.8111   -7.7586   -1.3303 C   0  0  0  0  0  0  0  0  0  0  0  0
   -8.5363   -8.0728   -1.8194 C   0  0  0  0  0  0  0  0  0  0  0  0
   -7.3908   -7.4993   -1.2698 C   0  0  0  0  0  0  0  0  0  0  0  0
   -7.5290   -6.5974   -0.2158 C   0  0  0  0  0  0  0  0  0  0  0  0
   -8.8639   -5.5827    1.1358 H   0  0  0  0  0  0  0  0  0  0  0  0
  -10.8963   -6.6060    0.1359 H   0  0  0  0  0  0  0  0  0  0  0  0
   -8.4376   -8.7791   -2.6392 H   0  0  0  0  0  0  0  0  0  0  0  0
   -6.4032   -7.7522   -1.6387 H   0  0  0  0  0  0  0  0  0  0  0  0
   -6.0726   -5.8602    0.4967 S   0  0  0  0  0  0  0  0  0  0  0  0
   -6.3415   -5.4728    1.8846 O   0  0  0  0  0  0  0  0  0  0  0  0
   -6.0223   -4.5117   -0.4295 O   0  0  0  0  0  0  0  0  0  0  0  0
   -4.9018   -6.6872    0.1929 O   0  0  0  0  0  0  0  0  0  0  0  0
  -11.0497   -8.3774   -1.9318 C   0  0  0  0  0  0  0  0  0  0  0  0
  -11.6500   -8.8844   -1.1681 H   0  0  0  0  0  0  0  0  0  0  0  0
  -11.6894   -7.6134   -2.3890 H   0  0  0  0  0  0  0  0  0  0  0  0
  -10.7978   -9.1091   -2.7037 H   0  0  0  0  0  0  0  0  0  0  0  0
  1  8  1  0  0  0  0
  2  1  1  0  0  0  0
  3  2  1  0  0  0  0
  4  5  1  0  0  0  0
  4  1  2  0  0  0  0
  5  6  1  0  0  0  0
  6 11  1  1  0  0  0
  6  7  1  0  0  0  0
  7 12  1  0  0  0  0
  8  7  2  0  0  0  0
  8 13  1  0  0  0  0
  9  4  1  0  0  0  0
 10  5  1  0  0  0  0
 14 20  1  0  0  0  0
 15 21  1  0  0  0  0
 15 14  2  0  0  0  0
 16 15  1  0  0  0  0
 17 16  2  0  0  0  0
 17 18  1  0  0  0  0
 18 19  2  0  0  0  0
 19 14  1  0  0  0  0
 19 24  1  0  0  0  0
 22 17  1  0  0  0  0
 23 18  1  0  0  0  0
 24 25  2  0  0  0  0
 26  6  1  0  0  0  0
 26 24  1  0  0  0  0
 27 24  2  0  0  0  0
 28 16  1  0  0  0  0
 28 29  1  0  0  0  0
 30 28  1  0  0  0  0
 31 28  1  0  0  0  0
M  RAD  3   2   2   3   3   5   2
M  END
