Coordinates from ORCA-job PhN2+~TsO-_B3LYPG-6-31G_dp-NX-Scan-d89-09-n800
 OpenBabel11261920463D

 31 32  0  0  0  0  0  0  0  0999 V2000
   -4.9905   -2.5717   -0.8855 C   0  0  0  0  0  0  0  0  0  0  0  0
   -6.4062   -2.6428   -0.9874 N   0  0  0  0  0  0  0  0  0  0  0  0
   -7.2034   -3.3140   -0.3267 N   0  0  0  0  0  0  0  0  0  0  0  0
   -4.4428   -1.7320   -1.8741 C   0  0  0  0  0  0  0  0  0  0  0  0
   -3.0718   -1.5132   -1.9486 C   0  0  0  0  0  0  0  0  0  0  0  0
   -2.2225   -2.1280   -1.0260 C   0  0  0  0  0  0  0  0  0  0  0  0
   -2.7555   -2.9583   -0.0375 C   0  0  0  0  0  0  0  0  0  0  0  0
   -4.1279   -3.1909    0.0445 C   0  0  0  0  0  0  0  0  0  0  0  0
   -5.1272   -1.2620   -2.5720 H   0  0  0  0  0  0  0  0  0  0  0  0
   -2.6671   -0.8637   -2.7192 H   0  0  0  0  0  0  0  0  0  0  0  0
   -1.1505   -1.9585   -1.0738 H   0  0  0  0  0  0  0  0  0  0  0  0
   -2.0970   -3.4349    0.6827 H   0  0  0  0  0  0  0  0  0  0  0  0
   -4.5155   -3.8342    0.8188 H   0  0  0  0  0  0  0  0  0  0  0  0
   -9.7761   -5.4381   -0.3096 C   0  0  0  0  0  0  0  0  0  0  0  0
  -10.4145   -6.2510   -1.2422 C   0  0  0  0  0  0  0  0  0  0  0  0
   -9.9584   -7.5513   -1.5073 C   0  0  0  0  0  0  0  0  0  0  0  0
   -8.8351   -8.0240   -0.8128 C   0  0  0  0  0  0  0  0  0  0  0  0
   -8.1798   -7.2288    0.1238 C   0  0  0  0  0  0  0  0  0  0  0  0
   -8.6610   -5.9402    0.3644 C   0  0  0  0  0  0  0  0  0  0  0  0
  -10.1298   -4.4358   -0.1007 H   0  0  0  0  0  0  0  0  0  0  0  0
  -11.2829   -5.8701   -1.7722 H   0  0  0  0  0  0  0  0  0  0  0  0
   -8.4704   -9.0286   -1.0063 H   0  0  0  0  0  0  0  0  0  0  0  0
   -7.3177   -7.5973    0.6686 H   0  0  0  0  0  0  0  0  0  0  0  0
   -7.8323   -4.9219    1.5632 S   0  0  0  0  0  0  0  0  0  0  0  0
   -8.7482   -3.9103    2.0672 O   0  0  0  0  0  0  0  0  0  0  0  0
   -6.6386   -4.1300    0.6331 O   0  0  0  0  0  0  0  0  0  0  0  0
   -7.0102   -5.7470    2.4359 O   0  0  0  0  0  0  0  0  0  0  0  0
  -10.6805   -8.4325   -2.4967 C   0  0  0  0  0  0  0  0  0  0  0  0
  -11.4950   -8.9804   -2.0070 H   0  0  0  0  0  0  0  0  0  0  0  0
  -11.1244   -7.8456   -3.3057 H   0  0  0  0  0  0  0  0  0  0  0  0
  -10.0090   -9.1734   -2.9395 H   0  0  0  0  0  0  0  0  0  0  0  0
  1  8  2  0  0  0  0
  2  1  1  0  0  0  0
  2  3  2  0  0  0  0
  3 26  1  0  0  0  0
  4  1  1  0  0  0  0
  5  4  2  0  0  0  0
  5  6  1  0  0  0  0
  6  7  2  0  0  0  0
  7  8  1  0  0  0  0
  7 12  1  0  0  0  0
  8 13  1  0  0  0  0
  9  4  1  0  0  0  0
 10  5  1  0  0  0  0
 11  6  1  0  0  0  0
 14 20  1  0  0  0  0
 14 19  2  0  0  0  0
 15 14  1  0  0  0  0
 16 15  2  0  0  0  0
 16 17  1  0  0  0  0
 17 18  2  0  0  0  0
 18 19  1  0  0  0  0
 18 23  1  0  0  0  0
 19 24  1  0  0  0  0
 21 15  1  0  0  0  0
 22 17  1  0  0  0  0
 24 25  2  0  0  0  0
 24 27  2  0  0  0  0
 26 24  1  0  0  0  0
 28 29  1  0  0  0  0
 28 16  1  0  0  0  0
 30 28  1  0  0  0  0
 31 28  1  0  0  0  0
M  END
