Coordinates from ORCA-job PhN2+~TsO-_B3LYPG-6-31G_dp-NX-Scan-d89-09-n800
 OpenBabel11261920463D

 31 32  0  0  1  0  0  0  0  0999 V2000
   -5.3527   -1.2818   -1.0095 C   0  0  2  0  0  0  0  0  0  0  0  0
   -6.1528   -0.4174   -1.5821 N   0  0  0  0  0  0  0  0  0  0  0  0
   -6.8807    0.3026   -2.0853 N   0  0  0  0  0  0  0  0  0  0  0  0
   -4.5065   -2.1237   -1.8329 C   0  0  0  0  0  0  0  0  0  0  0  0
   -3.9948   -3.2451   -1.2939 C   0  0  0  0  0  0  0  0  0  0  0  0
   -4.4700   -3.7054    0.0442 C   0  0  1  0  0  0  0  0  0  0  0  0
   -4.8913   -2.5955    0.9512 C   0  0  0  0  0  0  0  0  0  0  0  0
   -5.4086   -1.4693    0.4281 C   0  0  0  0  0  0  0  0  0  0  0  0
   -4.2916   -1.8180   -2.8520 H   0  0  0  0  0  0  0  0  0  0  0  0
   -3.3291   -3.8897   -1.8573 H   0  0  0  0  0  0  0  0  0  0  0  0
   -3.7704   -4.3997    0.5127 H   0  0  0  0  0  0  0  0  0  0  0  0
   -4.8867   -2.7713    2.0211 H   0  0  0  0  0  0  0  0  0  0  0  0
   -5.8498   -0.6911    1.0431 H   0  0  0  0  0  0  0  0  0  0  0  0
   -8.6854   -6.0516    0.3064 C   0  0  0  0  0  0  0  0  0  0  0  0
   -9.8292   -6.5288   -0.3263 C   0  0  0  0  0  0  0  0  0  0  0  0
   -9.7421   -7.3958   -1.4273 C   0  0  0  0  0  0  0  0  0  0  0  0
   -8.4722   -7.7792   -1.8788 C   0  0  0  0  0  0  0  0  0  0  0  0
   -7.3145   -7.3121   -1.2585 C   0  0  0  0  0  0  0  0  0  0  0  0
   -7.4344   -6.4464   -0.1724 C   0  0  0  0  0  0  0  0  0  0  0  0
   -8.7511   -5.3948    1.1669 H   0  0  0  0  0  0  0  0  0  0  0  0
  -10.8065   -6.2286    0.0422 H   0  0  0  0  0  0  0  0  0  0  0  0
   -8.3876   -8.4556   -2.7249 H   0  0  0  0  0  0  0  0  0  0  0  0
   -6.3322   -7.6207   -1.5981 H   0  0  0  0  0  0  0  0  0  0  0  0
   -5.9619   -5.8444    0.6309 S   0  0  0  0  0  0  0  0  0  0  0  0
   -6.2804   -5.4459    2.0051 O   0  0  0  0  0  0  0  0  0  0  0  0
   -5.7290   -4.5078   -0.2802 O   0  0  0  0  0  0  0  0  0  0  0  0
   -4.8548   -6.7751    0.3920 O   0  0  0  0  0  0  0  0  0  0  0  0
  -10.9942   -7.9062   -2.0989 C   0  0  0  0  0  0  0  0  0  0  0  0
  -11.6202   -8.4660   -1.3944 H   0  0  0  0  0  0  0  0  0  0  0  0
  -11.6024   -7.0791   -2.4823 H   0  0  0  0  0  0  0  0  0  0  0  0
  -10.7588   -8.5670   -2.9371 H   0  0  0  0  0  0  0  0  0  0  0  0
  1  2  1  6  0  0  0
  1  8  1  0  0  0  0
  3  2  1  0  0  0  0
  4  5  2  0  0  0  0
  4  1  1  0  0  0  0
  5  6  1  0  0  0  0
  6 11  1  1  0  0  0
  6  7  1  0  0  0  0
  7 12  1  0  0  0  0
  8  7  2  0  0  0  0
  8 13  1  0  0  0  0
  9  4  1  0  0  0  0
 10  5  1  0  0  0  0
 14 20  1  0  0  0  0
 15 21  1  0  0  0  0
 15 14  2  0  0  0  0
 16 15  1  0  0  0  0
 17 16  2  0  0  0  0
 17 18  1  0  0  0  0
 18 19  2  0  0  0  0
 19 14  1  0  0  0  0
 19 24  1  0  0  0  0
 22 17  1  0  0  0  0
 23 18  1  0  0  0  0
 24 25  2  0  0  0  0
 26  6  1  0  0  0  0
 26 24  1  0  0  0  0
 27 24  2  0  0  0  0
 28 16  1  0  0  0  0
 28 29  1  0  0  0  0
 30 28  1  0  0  0  0
 31 28  1  0  0  0  0
M  RAD  3   1   2   2   2   3   3
M  END
