Coordinates from ORCA-job PhN2+~TsO-_B3LYPG-6-31G_dp-NX-Scan-d89-09-n800
 OpenBabel11261920463D

 31 31  0  0  0  0  0  0  0  0999 V2000
   -3.8339   -0.4120   -0.2167 C   0  0  0  0  0  0  0  0  0  0  0  0
   -3.6542    0.9070    0.0434 N   0  0  0  0  0  0  0  0  0  0  0  0
   -3.5258    2.0003    0.2709 N   0  0  0  0  0  0  0  0  0  0  0  0
   -2.9113   -1.0619   -1.0744 C   0  0  0  0  0  0  0  0  0  0  0  0
   -3.1355   -2.3995   -1.3402 C   0  0  0  0  0  0  0  0  0  0  0  0
   -4.2396   -3.0676   -0.7801 C   0  0  0  0  0  0  0  0  0  0  0  0
   -5.1365   -2.4006    0.0789 C   0  0  0  0  0  0  0  0  0  0  0  0
   -4.9482   -1.0648    0.3732 C   0  0  0  0  0  0  0  0  0  0  0  0
   -2.0768   -0.5147   -1.4984 H   0  0  0  0  0  0  0  0  0  0  0  0
   -2.4570   -2.9320   -1.9987 H   0  0  0  0  0  0  0  0  0  0  0  0
   -4.4669   -4.1109   -1.0137 H   0  0  0  0  0  0  0  0  0  0  0  0
   -5.9982   -2.9546    0.4692 H   0  0  0  0  0  0  0  0  0  0  0  0
   -5.6247   -0.5148    1.0187 H   0  0  0  0  0  0  0  0  0  0  0  0
   -9.5588   -6.3093   -0.1684 C   0  0  0  0  0  0  0  0  0  0  0  0
  -10.4337   -7.3932   -0.2059 C   0  0  0  0  0  0  0  0  0  0  0  0
  -10.1132   -8.5595   -0.9160 C   0  0  0  0  0  0  0  0  0  0  0  0
   -8.8865   -8.6084   -1.5906 C   0  0  0  0  0  0  0  0  0  0  0  0
   -8.0026   -7.5290   -1.5608 C   0  0  0  0  0  0  0  0  0  0  0  0
   -8.3410   -6.3791   -0.8484 C   0  0  0  0  0  0  0  0  0  0  0  0
   -9.8022   -5.4143    0.3944 H   0  0  0  0  0  0  0  0  0  0  0  0
  -11.3808   -7.3355    0.3259 H   0  0  0  0  0  0  0  0  0  0  0  0
   -8.6174   -9.5054   -2.1443 H   0  0  0  0  0  0  0  0  0  0  0  0
   -7.0466   -7.5727   -2.0707 H   0  0  0  0  0  0  0  0  0  0  0  0
   -7.2417   -4.9540   -0.8614 S   0  0  0  0  0  0  0  0  0  0  0  0
   -7.4095   -4.3275    0.4912 O   0  0  0  0  0  0  0  0  0  0  0  0
   -7.6657   -4.0654   -1.9714 O   0  0  0  0  0  0  0  0  0  0  0  0
   -5.8686   -5.5266   -1.0604 O   0  0  0  0  0  0  0  0  0  0  0  0
  -11.0550   -9.7410   -0.9256 C   0  0  0  0  0  0  0  0  0  0  0  0
  -10.9639  -10.3314   -0.0043 H   0  0  0  0  0  0  0  0  0  0  0  0
  -12.0997   -9.4208   -0.9995 H   0  0  0  0  0  0  0  0  0  0  0  0
  -10.8462  -10.4115   -1.7647 H   0  0  0  0  0  0  0  0  0  0  0  0
  1  2  1  0  0  0  0
  1  8  2  0  0  0  0
  2  3  1  0  0  0  0
  4  1  1  0  0  0  0
  5  4  2  0  0  0  0
  5  6  1  0  0  0  0
  6  7  2  0  0  0  0
  7  8  1  0  0  0  0
  7 12  1  0  0  0  0
  8 13  1  0  0  0  0
  9  4  1  0  0  0  0
 10  5  1  0  0  0  0
 11  6  1  0  0  0  0
 14 20  1  0  0  0  0
 15 14  1  0  0  0  0
 15 21  1  0  0  0  0
 16 15  2  0  0  0  0
 17 18  2  0  0  0  0
 17 16  1  0  0  0  0
 18 19  1  0  0  0  0
 19 14  2  0  0  0  0
 22 17  1  0  0  0  0
 23 18  1  0  0  0  0
 24 19  1  0  0  0  0
 24 25  1  0  0  0  0
 26 24  2  0  0  0  0
 27 24  2  0  0  0  0
 28 16  1  0  0  0  0
 28 29  1  0  0  0  0
 30 28  1  0  0  0  0
 31 28  1  0  0  0  0
M  RAD  3   2   2   3   3  25   2
M  END
