Coordinates from ORCA-job 4-NO2PhN2+~TsO-_B3LYPG-6-31G_dp-NX-Scan-d89-09-n800
 OpenBabel11261920283D

 33 34  0  0  0  0  0  0  0  0999 V2000
   -4.4927   -2.9424    0.3099 C   0  0  0  0  0  0  0  0  0  0  0  0
   -4.9963   -3.9519    1.1870 N   0  0  0  0  0  0  0  0  0  0  0  0
   -5.7020   -4.9064    0.7708 N   0  0  0  0  0  0  0  0  0  0  0  0
   -4.5197   -1.6395    0.8342 C   0  0  0  0  0  0  0  0  0  0  0  0
   -3.9796   -0.5769    0.1216 C   0  0  0  0  0  0  0  0  0  0  0  0
   -3.3749   -0.8368   -1.1075 C   0  0  0  0  0  0  0  0  0  0  0  0
   -2.7909    0.2780   -1.8649 N   0  0  0  0  0  0  0  0  0  0  0  0
   -2.8726    1.4052   -1.3762 O   0  0  0  0  0  0  0  0  0  0  0  0
   -2.2557    0.0192   -2.9429 O   0  0  0  0  0  0  0  0  0  0  0  0
   -3.3012   -2.1257   -1.6345 C   0  0  0  0  0  0  0  0  0  0  0  0
   -3.8679   -3.1803   -0.9280 C   0  0  0  0  0  0  0  0  0  0  0  0
   -4.9706   -1.4828    1.8079 H   0  0  0  0  0  0  0  0  0  0  0  0
   -4.0038    0.4370    0.5011 H   0  0  0  0  0  0  0  0  0  0  0  0
   -2.8138   -2.2822   -2.5883 H   0  0  0  0  0  0  0  0  0  0  0  0
   -3.8188   -4.1823   -1.3350 H   0  0  0  0  0  0  0  0  0  0  0  0
   -8.5653   -6.5264    1.3778 C   0  0  0  0  0  0  0  0  0  0  0  0
   -9.7384   -6.2778    2.0855 C   0  0  0  0  0  0  0  0  0  0  0  0
  -10.8028   -5.5714    1.5055 C   0  0  0  0  0  0  0  0  0  0  0  0
  -10.6707   -5.1175    0.1829 C   0  0  0  0  0  0  0  0  0  0  0  0
   -9.5085   -5.3488   -0.5452 C   0  0  0  0  0  0  0  0  0  0  0  0
   -8.4686   -6.0565    0.0657 C   0  0  0  0  0  0  0  0  0  0  0  0
   -7.7450   -7.0768    1.8229 H   0  0  0  0  0  0  0  0  0  0  0  0
   -9.8297   -6.6415    3.1044 H   0  0  0  0  0  0  0  0  0  0  0  0
  -11.4917   -4.5797   -0.2829 H   0  0  0  0  0  0  0  0  0  0  0  0
   -9.4082   -5.0059   -1.5687 H   0  0  0  0  0  0  0  0  0  0  0  0
   -6.9883   -6.3601   -0.8539 S   0  0  0  0  0  0  0  0  0  0  0  0
   -6.2767   -7.5098   -0.3240 O   0  0  0  0  0  0  0  0  0  0  0  0
   -5.9945   -4.9280   -0.4138 O   0  0  0  0  0  0  0  0  0  0  0  0
   -7.1865   -6.1120   -2.2704 O   0  0  0  0  0  0  0  0  0  0  0  0
  -12.0592   -5.2853    2.2893 C   0  0  0  0  0  0  0  0  0  0  0  0
  -12.1684   -5.9665    3.1366 H   0  0  0  0  0  0  0  0  0  0  0  0
  -12.0415   -4.2635    2.6871 H   0  0  0  0  0  0  0  0  0  0  0  0
  -12.9500   -5.3719    1.6601 H   0  0  0  0  0  0  0  0  0  0  0  0
  1  4  1  0  0  0  0
  1  2  1  0  0  0  0
  3  2  2  0  0  0  0
  4 12  1  0  0  0  0
  5 13  1  0  0  0  0
  5  4  2  0  0  0  0
  6  5  1  0  0  0  0
  7  8  2  0  0  0  0
  7  6  1  0  0  0  0
  9  7  2  0  0  0  0
 10  6  2  0  0  0  0
 10 11  1  0  0  0  0
 11  1  2  0  0  0  0
 14 10  1  0  0  0  0
 15 11  1  0  0  0  0
 16 22  1  0  0  0  0
 16 17  2  0  0  0  0
 17 23  1  0  0  0  0
 18 17  1  0  0  0  0
 18 30  1  0  0  0  0
 19 18  2  0  0  0  0
 20 21  2  0  0  0  0
 20 19  1  0  0  0  0
 21 16  1  0  0  0  0
 24 19  1  0  0  0  0
 25 20  1  0  0  0  0
 26 28  1  0  0  0  0
 26 27  2  0  0  0  0
 26 21  1  0  0  0  0
 28  3  1  0  0  0  0
 29 26  2  0  0  0  0
 30 32  1  0  0  0  0
 30 31  1  0  0  0  0
 33 30  1  0  0  0  0
M  END
