Coordinates from ORCA-job 4-NO2PhN2+~TsO-_B3LYPG-6-31G_dp-NX-Scan-d89-09-n800
 OpenBabel11261920283D

 33 33  0  0  0  0  0  0  0  0999 V2000
   -4.8119   -0.6592    0.7054 C   0  0  0  0  0  0  0  0  0  0  0  0
   -5.4655    0.3476    1.3688 N   0  0  0  0  0  0  0  0  0  0  0  0
   -5.9584    1.1751    1.9418 N   0  0  0  0  0  0  0  0  0  0  0  0
   -3.4023   -0.7169    0.8661 C   0  0  0  0  0  0  0  0  0  0  0  0
   -2.7342   -1.7223    0.2023 C   0  0  0  0  0  0  0  0  0  0  0  0
   -3.4746   -2.6332   -0.5702 C   0  0  0  0  0  0  0  0  0  0  0  0
   -2.7236   -3.7191   -1.2495 N   0  0  0  0  0  0  0  0  0  0  0  0
   -1.5049   -3.7377   -1.0799 O   0  0  0  0  0  0  0  0  0  0  0  0
   -3.3681   -4.5128   -1.9203 O   0  0  0  0  0  0  0  0  0  0  0  0
   -4.8546   -2.5760   -0.7173 C   0  0  0  0  0  0  0  0  0  0  0  0
   -5.5639   -1.5520   -0.0831 C   0  0  0  0  0  0  0  0  0  0  0  0
   -2.8816    0.0011    1.4894 H   0  0  0  0  0  0  0  0  0  0  0  0
   -1.6595   -1.8331    0.2720 H   0  0  0  0  0  0  0  0  0  0  0  0
   -5.4262   -3.2855   -1.3150 H   0  0  0  0  0  0  0  0  0  0  0  0
   -6.6637   -1.5069   -0.1823 H   0  0  0  0  0  0  0  0  0  0  0  0
   -9.7972   -4.5356    0.8588 C   0  0  0  0  0  0  0  0  0  0  0  0
  -10.1567   -5.7101    1.5171 C   0  0  0  0  0  0  0  0  0  0  0  0
   -9.7791   -6.9654    1.0189 C   0  0  0  0  0  0  0  0  0  0  0  0
   -9.0291   -7.0109   -0.1641 C   0  0  0  0  0  0  0  0  0  0  0  0
   -8.6623   -5.8428   -0.8316 C   0  0  0  0  0  0  0  0  0  0  0  0
   -9.0480   -4.6040   -0.3176 C   0  0  0  0  0  0  0  0  0  0  0  0
  -10.0860   -3.5668    1.2519 H   0  0  0  0  0  0  0  0  0  0  0  0
  -10.7396   -5.6530    2.4335 H   0  0  0  0  0  0  0  0  0  0  0  0
   -8.7281   -7.9743   -0.5686 H   0  0  0  0  0  0  0  0  0  0  0  0
   -8.0764   -5.8800   -1.7436 H   0  0  0  0  0  0  0  0  0  0  0  0
   -8.6372   -3.0977   -1.2148 S   0  0  0  0  0  0  0  0  0  0  0  0
   -8.3921   -2.0713   -0.1305 O   0  0  0  0  0  0  0  0  0  0  0  0
   -9.7930   -2.7783   -2.0760 O   0  0  0  0  0  0  0  0  0  0  0  0
   -7.3769   -3.4090   -1.9575 O   0  0  0  0  0  0  0  0  0  0  0  0
  -10.1454   -8.2331    1.7544 C   0  0  0  0  0  0  0  0  0  0  0  0
   -9.3851   -8.4939    2.5020 H   0  0  0  0  0  0  0  0  0  0  0  0
  -11.0972   -8.1278    2.2845 H   0  0  0  0  0  0  0  0  0  0  0  0
  -10.2322   -9.0821    1.0696 H   0  0  0  0  0  0  0  0  0  0  0  0
  1  4  1  0  0  0  0
  1  2  1  0  0  0  0
  2  3  1  0  0  0  0
  4 12  1  0  0  0  0
  5 13  1  0  0  0  0
  5  4  2  0  0  0  0
  6  5  1  0  0  0  0
  7  8  2  0  0  0  0
  7  6  1  0  0  0  0
  9  7  2  0  0  0  0
 10  6  2  0  0  0  0
 10 11  1  0  0  0  0
 11  1  2  0  0  0  0
 14 10  1  0  0  0  0
 15 11  1  0  0  0  0
 16 22  1  0  0  0  0
 16 17  2  0  0  0  0
 17 23  1  0  0  0  0
 18 17  1  0  0  0  0
 18 30  1  0  0  0  0
 19 18  2  0  0  0  0
 20 21  2  0  0  0  0
 20 19  1  0  0  0  0
 21 16  1  0  0  0  0
 24 19  1  0  0  0  0
 25 20  1  0  0  0  0
 26 21  1  0  0  0  0
 26 27  1  0  0  0  0
 28 26  2  0  0  0  0
 29 26  2  0  0  0  0
 30 32  1  0  0  0  0
 30 31  1  0  0  0  0
 33 30  1  0  0  0  0
M  RAD  3   2   2   3   3  27   2
M  END
