Coordinates from ORCA-job 4-NO2PhN2+~TsO-_B3LYPG-6-31G_dp-NX-Scan-d89-09-n800
 OpenBabel11261920283D

 33 33  0  0  0  0  0  0  0  0999 V2000
   -4.5548   -2.4472    0.5545 C   0  0  0  0  0  0  0  0  0  0  0  0
   -5.3884   -3.0504    1.5304 N   0  0  0  0  0  0  0  0  0  0  0  0
   -5.6060   -3.3715    2.5853 N   0  0  0  0  0  0  0  0  0  0  0  0
   -3.8427   -1.3188    0.9901 C   0  0  0  0  0  0  0  0  0  0  0  0
   -2.9635   -0.7276    0.0935 C   0  0  0  0  0  0  0  0  0  0  0  0
   -2.8229   -1.2932   -1.1736 C   0  0  0  0  0  0  0  0  0  0  0  0
   -1.8701   -0.6622   -2.1178 N   0  0  0  0  0  0  0  0  0  0  0  0
   -1.2736    0.3371   -1.7255 O   0  0  0  0  0  0  0  0  0  0  0  0
   -1.7430   -1.1850   -3.2193 O   0  0  0  0  0  0  0  0  0  0  0  0
   -3.5351   -2.4154   -1.5897 C   0  0  0  0  0  0  0  0  0  0  0  0
   -4.4419   -3.0109   -0.7166 C   0  0  0  0  0  0  0  0  0  0  0  0
   -3.9828   -0.9205    1.9882 H   0  0  0  0  0  0  0  0  0  0  0  0
   -2.3897    0.1515    0.3574 H   0  0  0  0  0  0  0  0  0  0  0  0
   -3.3932   -2.8016   -2.5909 H   0  0  0  0  0  0  0  0  0  0  0  0
   -5.0652   -3.8603   -1.0093 H   0  0  0  0  0  0  0  0  0  0  0  0
   -9.7102   -4.4242    0.9775 C   0  0  0  0  0  0  0  0  0  0  0  0
  -10.6476   -5.2014    1.6575 C   0  0  0  0  0  0  0  0  0  0  0  0
  -10.8063   -6.5637    1.3698 C   0  0  0  0  0  0  0  0  0  0  0  0
   -9.9872   -7.1339    0.3843 C   0  0  0  0  0  0  0  0  0  0  0  0
   -9.0454   -6.3697   -0.3018 C   0  0  0  0  0  0  0  0  0  0  0  0
   -8.9098   -5.0128   -0.0021 C   0  0  0  0  0  0  0  0  0  0  0  0
   -9.5856   -3.3724    1.2108 H   0  0  0  0  0  0  0  0  0  0  0  0
  -11.2658   -4.7424    2.4254 H   0  0  0  0  0  0  0  0  0  0  0  0
  -10.0878   -8.1915    0.1522 H   0  0  0  0  0  0  0  0  0  0  0  0
   -8.4042   -6.8158   -1.0546 H   0  0  0  0  0  0  0  0  0  0  0  0
   -7.7471   -4.0133   -0.9396 S   0  0  0  0  0  0  0  0  0  0  0  0
   -7.2326   -2.9793    0.0734 O   0  0  0  0  0  0  0  0  0  0  0  0
   -8.4935   -3.3912   -2.0555 O   0  0  0  0  0  0  0  0  0  0  0  0
   -6.6468   -4.9397   -1.3353 O   0  0  0  0  0  0  0  0  0  0  0  0
  -11.8448   -7.3950    2.0863 C   0  0  0  0  0  0  0  0  0  0  0  0
  -12.1644   -6.9205    3.0182 H   0  0  0  0  0  0  0  0  0  0  0  0
  -12.7383   -7.5319    1.4646 H   0  0  0  0  0  0  0  0  0  0  0  0
  -11.4644   -8.3926    2.3269 H   0  0  0  0  0  0  0  0  0  0  0  0
  1  4  1  0  0  0  0
  1  2  1  0  0  0  0
  2  3  2  0  0  0  0
  4 12  1  0  0  0  0
  5 13  1  0  0  0  0
  5  4  2  0  0  0  0
  6  5  1  0  0  0  0
  7  8  2  0  0  0  0
  7  6  1  0  0  0  0
  9  7  2  0  0  0  0
 10  6  2  0  0  0  0
 10 11  1  0  0  0  0
 11  1  2  0  0  0  0
 14 10  1  0  0  0  0
 15 11  1  0  0  0  0
 16 22  1  0  0  0  0
 16 17  2  0  0  0  0
 17 23  1  0  0  0  0
 18 17  1  0  0  0  0
 18 30  1  0  0  0  0
 19 18  2  0  0  0  0
 20 21  2  0  0  0  0
 20 19  1  0  0  0  0
 21 16  1  0  0  0  0
 24 19  1  0  0  0  0
 25 20  1  0  0  0  0
 26 21  1  0  0  0  0
 26 27  1  0  0  0  0
 28 26  2  0  0  0  0
 29 26  2  0  0  0  0
 30 33  1  0  0  0  0
 30 31  1  0  0  0  0
 32 30  1  0  0  0  0
M  RAD  2   3   2  27   2
M  END
