Coordinates from ORCA-job 4-NO2PhN2+~TsO-_B3LYPG-6-31G_dp-NX-Scan-d89-09-n800
 OpenBabel11261920283D

 33 33  0  0  0  0  0  0  0  0999 V2000
   -4.8469   -2.7410    0.1259 C   0  0  0  0  0  0  0  0  0  0  0  0
   -5.9034   -3.4815    0.7433 N   0  0  0  0  0  0  0  0  0  0  0  0
   -6.2026   -4.1443    1.6061 N   0  0  0  0  0  0  0  0  0  0  0  0
   -4.0296   -2.0019    0.9874 C   0  0  0  0  0  0  0  0  0  0  0  0
   -2.9656   -1.3005    0.4316 C   0  0  0  0  0  0  0  0  0  0  0  0
   -2.7581   -1.3837   -0.9436 C   0  0  0  0  0  0  0  0  0  0  0  0
   -1.6171   -0.6424   -1.5271 N   0  0  0  0  0  0  0  0  0  0  0  0
   -0.9223    0.0147   -0.7561 O   0  0  0  0  0  0  0  0  0  0  0  0
   -1.4442   -0.7387   -2.7378 O   0  0  0  0  0  0  0  0  0  0  0  0
   -3.5741   -2.1326   -1.7896 C   0  0  0  0  0  0  0  0  0  0  0  0
   -4.6579   -2.8217   -1.2531 C   0  0  0  0  0  0  0  0  0  0  0  0
   -4.2293   -1.9705    2.0526 H   0  0  0  0  0  0  0  0  0  0  0  0
   -2.3010   -0.7010    1.0404 H   0  0  0  0  0  0  0  0  0  0  0  0
   -3.3621   -2.1616   -2.8509 H   0  0  0  0  0  0  0  0  0  0  0  0
   -5.3352   -3.4201   -1.8563 H   0  0  0  0  0  0  0  0  0  0  0  0
  -10.1984   -4.3233    0.3825 C   0  0  0  0  0  0  0  0  0  0  0  0
  -10.9365   -5.0934    1.2748 C   0  0  0  0  0  0  0  0  0  0  0  0
  -10.5389   -6.3987    1.6116 C   0  0  0  0  0  0  0  0  0  0  0  0
   -9.3768   -6.9114    1.0250 C   0  0  0  0  0  0  0  0  0  0  0  0
   -8.6236   -6.1499    0.1283 C   0  0  0  0  0  0  0  0  0  0  0  0
   -9.0363   -4.8560   -0.1860 C   0  0  0  0  0  0  0  0  0  0  0  0
  -10.5204   -3.3226    0.1154 H   0  0  0  0  0  0  0  0  0  0  0  0
  -11.8406   -4.6805    1.7149 H   0  0  0  0  0  0  0  0  0  0  0  0
   -9.0579   -7.9217    1.2665 H   0  0  0  0  0  0  0  0  0  0  0  0
   -7.7330   -6.5528   -0.3408 H   0  0  0  0  0  0  0  0  0  0  0  0
   -8.0737   -3.8541   -1.3211 S   0  0  0  0  0  0  0  0  0  0  0  0
   -7.4322   -2.7581   -0.4292 O   0  0  0  0  0  0  0  0  0  0  0  0
   -9.0054   -3.2238   -2.2623 O   0  0  0  0  0  0  0  0  0  0  0  0
   -7.0107   -4.7373   -1.8603 O   0  0  0  0  0  0  0  0  0  0  0  0
  -11.3633   -7.2273    2.5681 C   0  0  0  0  0  0  0  0  0  0  0  0
  -11.5895   -6.6716    3.4843 H   0  0  0  0  0  0  0  0  0  0  0  0
  -12.3227   -7.5104    2.1198 H   0  0  0  0  0  0  0  0  0  0  0  0
  -10.8452   -8.1473    2.8502 H   0  0  0  0  0  0  0  0  0  0  0  0
  1  2  1  0  0  0  0
  1  4  2  0  0  0  0
  2  3  2  0  0  0  0
  4 12  1  0  0  0  0
  5  4  1  0  0  0  0
  5 13  1  0  0  0  0
  6  5  2  0  0  0  0
  7  6  1  0  0  0  0
  7  8  2  0  0  0  0
  9  7  2  0  0  0  0
 10 11  2  0  0  0  0
 10  6  1  0  0  0  0
 11  1  1  0  0  0  0
 14 10  1  0  0  0  0
 15 11  1  0  0  0  0
 16 17  2  0  0  0  0
 17 18  1  0  0  0  0
 17 23  1  0  0  0  0
 18 30  1  0  0  0  0
 19 24  1  0  0  0  0
 19 18  2  0  0  0  0
 20 19  1  0  0  0  0
 21 20  2  0  0  0  0
 21 16  1  0  0  0  0
 22 16  1  0  0  0  0
 25 20  1  0  0  0  0
 26 27  1  0  0  0  0
 26 21  1  0  0  0  0
 28 26  2  0  0  0  0
 29 26  2  0  0  0  0
 30 33  1  0  0  0  0
 30 31  1  0  0  0  0
 32 30  1  0  0  0  0
M  RAD  2   3   2  27   2
M  END
