Coordinates from ORCA-job 4-NO2PhN2+~TsO-_B3LYPG-6-31G_dp-NX-Scan-d89-09-n800
 OpenBabel11261920283D

 33 33  0  0  0  0  0  0  0  0999 V2000
   -5.8270   -2.2823   -0.0284 C   0  0  0  0  0  0  0  0  0  0  0  0
   -7.2384   -2.2347    0.2088 N   0  0  0  0  0  0  0  0  0  0  0  0
   -8.0288   -2.0923    1.0039 N   0  0  0  0  0  0  0  0  0  0  0  0
   -5.0247   -1.8923    1.0553 C   0  0  0  0  0  0  0  0  0  0  0  0
   -3.6460   -1.9354    0.9035 C   0  0  0  0  0  0  0  0  0  0  0  0
   -3.1225   -2.3712   -0.3139 C   0  0  0  0  0  0  0  0  0  0  0  0
   -1.6497   -2.4189   -0.4688 N   0  0  0  0  0  0  0  0  0  0  0  0
   -0.9741   -2.0697    0.4953 O   0  0  0  0  0  0  0  0  0  0  0  0
   -1.2106   -2.8049   -1.5469 O   0  0  0  0  0  0  0  0  0  0  0  0
   -3.9224   -2.7626   -1.3829 C   0  0  0  0  0  0  0  0  0  0  0  0
   -5.3094   -2.7172   -1.2480 C   0  0  0  0  0  0  0  0  0  0  0  0
   -5.4768   -1.5639    1.9839 H   0  0  0  0  0  0  0  0  0  0  0  0
   -2.9772   -1.6414    1.7020 H   0  0  0  0  0  0  0  0  0  0  0  0
   -3.4623   -3.0933   -2.3053 H   0  0  0  0  0  0  0  0  0  0  0  0
   -5.9810   -2.9966   -2.0505 H   0  0  0  0  0  0  0  0  0  0  0  0
  -10.1034   -4.2656    0.2163 C   0  0  0  0  0  0  0  0  0  0  0  0
  -10.2495   -5.0582    1.3552 C   0  0  0  0  0  0  0  0  0  0  0  0
   -9.3797   -6.1278    1.6117 C   0  0  0  0  0  0  0  0  0  0  0  0
   -8.3530   -6.3869    0.6909 C   0  0  0  0  0  0  0  0  0  0  0  0
   -8.1932   -5.6023   -0.4508 C   0  0  0  0  0  0  0  0  0  0  0  0
   -9.0673   -4.5374   -0.6810 C   0  0  0  0  0  0  0  0  0  0  0  0
  -10.7913   -3.4539    0.0064 H   0  0  0  0  0  0  0  0  0  0  0  0
  -11.0564   -4.8480    2.0527 H   0  0  0  0  0  0  0  0  0  0  0  0
   -7.6784   -7.2214    0.8655 H   0  0  0  0  0  0  0  0  0  0  0  0
   -7.4173   -5.8202   -1.1775 H   0  0  0  0  0  0  0  0  0  0  0  0
   -8.8501   -3.4911   -2.1272 S   0  0  0  0  0  0  0  0  0  0  0  0
   -7.9734   -2.2903   -1.6388 O   0  0  0  0  0  0  0  0  0  0  0  0
  -10.1791   -2.9808   -2.4736 O   0  0  0  0  0  0  0  0  0  0  0  0
   -8.0825   -4.2851   -3.1037 O   0  0  0  0  0  0  0  0  0  0  0  0
   -9.5668   -7.0037    2.8278 C   0  0  0  0  0  0  0  0  0  0  0  0
  -10.0322   -6.4534    3.6508 H   0  0  0  0  0  0  0  0  0  0  0  0
  -10.2165   -7.8576    2.5996 H   0  0  0  0  0  0  0  0  0  0  0  0
   -8.6138   -7.4070    3.1824 H   0  0  0  0  0  0  0  0  0  0  0  0
  1  2  1  0  0  0  0
  1  4  2  0  0  0  0
  2  3  2  0  0  0  0
  4 12  1  0  0  0  0
  5  4  1  0  0  0  0
  5 13  1  0  0  0  0
  6  5  2  0  0  0  0
  7  6  1  0  0  0  0
  7  8  2  0  0  0  0
  9  7  2  0  0  0  0
 10 11  2  0  0  0  0
 10  6  1  0  0  0  0
 11  1  1  0  0  0  0
 14 10  1  0  0  0  0
 15 11  1  0  0  0  0
 16 17  2  0  0  0  0
 17 18  1  0  0  0  0
 17 23  1  0  0  0  0
 18 30  1  0  0  0  0
 19 24  1  0  0  0  0
 19 18  2  0  0  0  0
 20 19  1  0  0  0  0
 21 20  2  0  0  0  0
 21 16  1  0  0  0  0
 22 16  1  0  0  0  0
 25 20  1  0  0  0  0
 26 27  1  0  0  0  0
 26 21  1  0  0  0  0
 28 26  2  0  0  0  0
 29 26  2  0  0  0  0
 30 33  1  0  0  0  0
 30 31  1  0  0  0  0
 32 30  1  0  0  0  0
M  RAD  2   3   2  27   2
M  END
