Coordinates from ORCA-job 4-NO2PhN2+~TsO-_B3LYPG-6-31G_dp-NX-Scan-d89-09-n800
 OpenBabel11261920283D

 33 33  0  0  0  0  0  0  0  0999 V2000
   -4.8115   -0.6485    0.7348 C   0  0  0  0  0  0  0  0  0  0  0  0
   -5.4226    0.3801    1.4040 N   0  0  0  0  0  0  0  0  0  0  0  0
   -5.8768    1.2275    1.9810 N   0  0  0  0  0  0  0  0  0  0  0  0
   -3.4072   -0.7698    0.9083 C   0  0  0  0  0  0  0  0  0  0  0  0
   -2.7751   -1.7932    0.2373 C   0  0  0  0  0  0  0  0  0  0  0  0
   -3.5450   -2.6616   -0.5550 C   0  0  0  0  0  0  0  0  0  0  0  0
   -2.8329   -3.7699   -1.2398 N   0  0  0  0  0  0  0  0  0  0  0  0
   -1.6185   -3.8443   -1.0541 O   0  0  0  0  0  0  0  0  0  0  0  0
   -3.5022   -4.5257   -1.9296 O   0  0  0  0  0  0  0  0  0  0  0  0
   -4.9198   -2.5442   -0.7154 C   0  0  0  0  0  0  0  0  0  0  0  0
   -5.5918   -1.4993   -0.0743 C   0  0  0  0  0  0  0  0  0  0  0  0
   -2.8632   -0.0836    1.5473 H   0  0  0  0  0  0  0  0  0  0  0  0
   -1.7070   -1.9508    0.3169 H   0  0  0  0  0  0  0  0  0  0  0  0
   -5.5168   -3.2221   -1.3279 H   0  0  0  0  0  0  0  0  0  0  0  0
   -6.6866   -1.4154   -0.1859 H   0  0  0  0  0  0  0  0  0  0  0  0
   -9.7890   -4.5250    0.8212 C   0  0  0  0  0  0  0  0  0  0  0  0
  -10.1256   -5.6956    1.4980 C   0  0  0  0  0  0  0  0  0  0  0  0
   -9.7221   -6.9511    1.0204 C   0  0  0  0  0  0  0  0  0  0  0  0
   -8.9696   -7.0003   -0.1607 C   0  0  0  0  0  0  0  0  0  0  0  0
   -8.6256   -5.8358   -0.8467 C   0  0  0  0  0  0  0  0  0  0  0  0
   -9.0367   -4.5971   -0.3532 C   0  0  0  0  0  0  0  0  0  0  0  0
  -10.0981   -3.5562    1.1986 H   0  0  0  0  0  0  0  0  0  0  0  0
  -10.7110   -5.6356    2.4127 H   0  0  0  0  0  0  0  0  0  0  0  0
   -8.6488   -7.9638   -0.5495 H   0  0  0  0  0  0  0  0  0  0  0  0
   -8.0380   -5.8756   -1.7575 H   0  0  0  0  0  0  0  0  0  0  0  0
   -8.6551   -3.0965   -1.2728 S   0  0  0  0  0  0  0  0  0  0  0  0
   -8.4117   -2.0550   -0.2034 O   0  0  0  0  0  0  0  0  0  0  0  0
   -9.8250   -2.8026   -2.1247 O   0  0  0  0  0  0  0  0  0  0  0  0
   -7.4004   -3.4021   -2.0275 O   0  0  0  0  0  0  0  0  0  0  0  0
  -10.0650   -8.2136    1.7758 C   0  0  0  0  0  0  0  0  0  0  0  0
   -9.3140   -8.4345    2.5451 H   0  0  0  0  0  0  0  0  0  0  0  0
  -11.0310   -8.1268    2.2830 H   0  0  0  0  0  0  0  0  0  0  0  0
  -10.1106   -9.0793    1.1081 H   0  0  0  0  0  0  0  0  0  0  0  0
  1  4  1  0  0  0  0
  1  2  1  0  0  0  0
  2  3  1  0  0  0  0
  4 12  1  0  0  0  0
  5 13  1  0  0  0  0
  5  4  2  0  0  0  0
  6  5  1  0  0  0  0
  7  8  2  0  0  0  0
  7  6  1  0  0  0  0
  9  7  2  0  0  0  0
 10  6  2  0  0  0  0
 10 11  1  0  0  0  0
 11  1  2  0  0  0  0
 14 10  1  0  0  0  0
 15 11  1  0  0  0  0
 16 22  1  0  0  0  0
 16 17  2  0  0  0  0
 17 23  1  0  0  0  0
 18 17  1  0  0  0  0
 18 30  1  0  0  0  0
 19 18  2  0  0  0  0
 20 21  2  0  0  0  0
 20 19  1  0  0  0  0
 21 16  1  0  0  0  0
 24 19  1  0  0  0  0
 25 20  1  0  0  0  0
 26 21  1  0  0  0  0
 26 27  1  0  0  0  0
 28 26  2  0  0  0  0
 29 26  2  0  0  0  0
 30 32  1  0  0  0  0
 30 31  1  0  0  0  0
 33 30  1  0  0  0  0
M  RAD  3   2   2   3   3  27   2
M  END
