Coordinates from ORCA-job 4-NO2PhN2+~TsO-_B3LYPG-6-31G_dp-NX-Scan-d89-09-n800
 OpenBabel11261920283D

 33 33  0  0  0  0  0  0  0  0999 V2000
   -4.7786   -0.6997    0.6346 C   0  0  0  0  0  0  0  0  0  0  0  0
   -5.5888    0.1853    1.3035 N   0  0  0  0  0  0  0  0  0  0  0  0
   -6.2486    0.8933    1.8647 N   0  0  0  0  0  0  0  0  0  0  0  0
   -3.3759   -0.5160    0.7196 C   0  0  0  0  0  0  0  0  0  0  0  0
   -2.5891   -1.4232    0.0421 C   0  0  0  0  0  0  0  0  0  0  0  0
   -3.2089   -2.4645   -0.6711 C   0  0  0  0  0  0  0  0  0  0  0  0
   -2.3258   -3.4293   -1.3749 N   0  0  0  0  0  0  0  0  0  0  0  0
   -1.1138   -3.2441   -1.2773 O   0  0  0  0  0  0  0  0  0  0  0  0
   -2.8668   -4.3355   -1.9932 O   0  0  0  0  0  0  0  0  0  0  0  0
   -4.5852   -2.6368   -0.7446 C   0  0  0  0  0  0  0  0  0  0  0  0
   -5.4133   -1.7252   -0.0866 C   0  0  0  0  0  0  0  0  0  0  0  0
   -2.9474    0.2986    1.2921 H   0  0  0  0  0  0  0  0  0  0  0  0
   -1.5084   -1.3566    0.0518 H   0  0  0  0  0  0  0  0  0  0  0  0
   -5.0581   -3.4387   -1.3038 H   0  0  0  0  0  0  0  0  0  0  0  0
   -6.5149   -1.8256   -0.1102 H   0  0  0  0  0  0  0  0  0  0  0  0
   -9.8552   -4.5980    0.9717 C   0  0  0  0  0  0  0  0  0  0  0  0
  -10.3339   -5.7653    1.5634 C   0  0  0  0  0  0  0  0  0  0  0  0
  -10.0370   -7.0258    1.0251 C   0  0  0  0  0  0  0  0  0  0  0  0
   -9.2447   -7.0838   -0.1295 C   0  0  0  0  0  0  0  0  0  0  0  0
   -8.7590   -5.9232   -0.7303 C   0  0  0  0  0  0  0  0  0  0  0  0
   -9.0664   -4.6792   -0.1777 C   0  0  0  0  0  0  0  0  0  0  0  0
  -10.0817   -3.6259    1.3960 H   0  0  0  0  0  0  0  0  0  0  0  0
  -10.9473   -5.6986    2.4590 H   0  0  0  0  0  0  0  0  0  0  0  0
   -9.0046   -8.0513   -0.5641 H   0  0  0  0  0  0  0  0  0  0  0  0
   -8.1403   -5.9700   -1.6201 H   0  0  0  0  0  0  0  0  0  0  0  0
   -8.5012   -3.1769   -0.9924 S   0  0  0  0  0  0  0  0  0  0  0  0
   -8.2201   -2.2152    0.1437 O   0  0  0  0  0  0  0  0  0  0  0  0
   -9.5904   -2.7245   -1.8795 O   0  0  0  0  0  0  0  0  0  0  0  0
   -7.2370   -3.5560   -1.6953 O   0  0  0  0  0  0  0  0  0  0  0  0
  -10.5328   -8.2884    1.6901 C   0  0  0  0  0  0  0  0  0  0  0  0
   -9.8243   -8.6433    2.4498 H   0  0  0  0  0  0  0  0  0  0  0  0
  -11.4913   -8.1263    2.1928 H   0  0  0  0  0  0  0  0  0  0  0  0
  -10.6640   -9.0975    0.9650 H   0  0  0  0  0  0  0  0  0  0  0  0
  1  4  1  0  0  0  0
  1  2  1  0  0  0  0
  2  3  1  0  0  0  0
  4 12  1  0  0  0  0
  5 13  1  0  0  0  0
  5  4  2  0  0  0  0
  6  5  1  0  0  0  0
  7  8  2  0  0  0  0
  7  6  1  0  0  0  0
  9  7  2  0  0  0  0
 10  6  2  0  0  0  0
 10 11  1  0  0  0  0
 11  1  2  0  0  0  0
 14 10  1  0  0  0  0
 15 11  1  0  0  0  0
 16 22  1  0  0  0  0
 16 17  2  0  0  0  0
 17 23  1  0  0  0  0
 18 17  1  0  0  0  0
 18 30  1  0  0  0  0
 19 18  2  0  0  0  0
 20 21  2  0  0  0  0
 20 19  1  0  0  0  0
 21 16  1  0  0  0  0
 24 19  1  0  0  0  0
 25 20  1  0  0  0  0
 26 21  1  0  0  0  0
 26 27  1  0  0  0  0
 28 26  2  0  0  0  0
 29 26  2  0  0  0  0
 30 32  1  0  0  0  0
 30 31  1  0  0  0  0
 33 30  1  0  0  0  0
M  RAD  3   2   2   3   3  27   2
M  END
