Coordinates from ORCA-job 4-NO2PhN2+~TsO-_B3LYPG-6-31G_dp-NX-Scan-d89-09-n800
 OpenBabel11261920283D

 33 34  0  0  0  0  0  0  0  0999 V2000
   -4.3739   -2.5472    0.3463 C   0  0  0  0  0  0  0  0  0  0  0  0
   -5.0019   -3.4402    1.2402 N   0  0  0  0  0  0  0  0  0  0  0  0
   -5.7553   -4.3378    1.2433 N   0  0  0  0  0  0  0  0  0  0  0  0
   -3.5224   -1.6128    0.9550 C   0  0  0  0  0  0  0  0  0  0  0  0
   -2.8494   -0.6851    0.1705 C   0  0  0  0  0  0  0  0  0  0  0  0
   -3.0470   -0.7217   -1.2083 C   0  0  0  0  0  0  0  0  0  0  0  0
   -2.3369    0.2669   -2.0507 N   0  0  0  0  0  0  0  0  0  0  0  0
   -1.5999    1.0663   -1.4794 O   0  0  0  0  0  0  0  0  0  0  0  0
   -2.5342    0.2202   -3.2614 O   0  0  0  0  0  0  0  0  0  0  0  0
   -3.8849   -1.6480   -1.8262 C   0  0  0  0  0  0  0  0  0  0  0  0
   -4.5652   -2.5784   -1.0468 C   0  0  0  0  0  0  0  0  0  0  0  0
   -3.4006   -1.6299    2.0323 H   0  0  0  0  0  0  0  0  0  0  0  0
   -2.1847    0.0537    0.5993 H   0  0  0  0  0  0  0  0  0  0  0  0
   -3.9984   -1.6295   -2.9031 H   0  0  0  0  0  0  0  0  0  0  0  0
   -5.2246   -3.3146   -1.4851 H   0  0  0  0  0  0  0  0  0  0  0  0
   -8.7133   -6.4093    1.5840 C   0  0  0  0  0  0  0  0  0  0  0  0
   -9.9840   -6.3118    2.1488 C   0  0  0  0  0  0  0  0  0  0  0  0
  -11.0870   -5.8989    1.3879 C   0  0  0  0  0  0  0  0  0  0  0  0
  -10.8874   -5.5945    0.0332 C   0  0  0  0  0  0  0  0  0  0  0  0
   -9.6248   -5.6862   -0.5479 C   0  0  0  0  0  0  0  0  0  0  0  0
   -8.5428   -6.0885    0.2369 C   0  0  0  0  0  0  0  0  0  0  0  0
   -7.8640   -6.7469    2.1675 H   0  0  0  0  0  0  0  0  0  0  0  0
  -10.1236   -6.5705    3.1952 H   0  0  0  0  0  0  0  0  0  0  0  0
  -11.7340   -5.2895   -0.5764 H   0  0  0  0  0  0  0  0  0  0  0  0
   -9.4757   -5.4705   -1.6003 H   0  0  0  0  0  0  0  0  0  0  0  0
   -6.9158   -6.1963   -0.4988 S   0  0  0  0  0  0  0  0  0  0  0  0
   -6.0952   -7.0746    0.3358 O   0  0  0  0  0  0  0  0  0  0  0  0
   -6.3590   -4.6917   -0.4054 O   0  0  0  0  0  0  0  0  0  0  0  0
   -7.0749   -6.4539   -1.9311 O   0  0  0  0  0  0  0  0  0  0  0  0
  -12.4543   -5.7679    2.0147 C   0  0  0  0  0  0  0  0  0  0  0  0
  -12.5877   -6.4752    2.8384 H   0  0  0  0  0  0  0  0  0  0  0  0
  -12.6035   -4.7605    2.4231 H   0  0  0  0  0  0  0  0  0  0  0  0
  -13.2485   -5.9423    1.2831 H   0  0  0  0  0  0  0  0  0  0  0  0
  1  4  1  0  0  0  0
  1  2  1  0  0  0  0
  2  3  1  0  0  0  0
  4 12  1  0  0  0  0
  5 13  1  0  0  0  0
  5  4  2  0  0  0  0
  6  5  1  0  0  0  0
  7  8  2  0  0  0  0
  7  6  1  0  0  0  0
  9  7  2  0  0  0  0
 10  6  2  0  0  0  0
 10 11  1  0  0  0  0
 11  1  2  0  0  0  0
 14 10  1  0  0  0  0
 15 11  1  0  0  0  0
 16 17  1  0  0  0  0
 16 22  1  0  0  0  0
 17 23  1  0  0  0  0
 18 30  1  0  0  0  0
 18 17  2  0  0  0  0
 19 18  1  0  0  0  0
 20 19  2  0  0  0  0
 20 21  1  0  0  0  0
 21 16  2  0  0  0  0
 24 19  1  0  0  0  0
 25 20  1  0  0  0  0
 26 28  1  0  0  0  0
 26 21  1  0  0  0  0
 26 27  2  0  0  0  0
 28  3  1  0  0  0  0
 29 26  2  0  0  0  0
 30 32  1  0  0  0  0
 30 31  1  0  0  0  0
 33 30  1  0  0  0  0
M  RAD  2   2   2   3   2
M  END
