Coordinates from ORCA-job 4-NO2PhN2+~TsO-_B3LYPG-6-31G_dp-NX-Scan-d89-09-n800
 OpenBabel11261920283D

 33 34  0  0  0  0  0  0  0  0999 V2000
   -4.4821   -2.8279    0.3086 C   0  0  0  0  0  0  0  0  0  0  0  0
   -5.0316   -3.7959    1.1927 N   0  0  0  0  0  0  0  0  0  0  0  0
   -5.7265   -4.7634    0.9627 N   0  0  0  0  0  0  0  0  0  0  0  0
   -4.2495   -1.5817    0.9125 C   0  0  0  0  0  0  0  0  0  0  0  0
   -3.6716   -0.5477    0.1868 C   0  0  0  0  0  0  0  0  0  0  0  0
   -3.2916   -0.7970   -1.1300 C   0  0  0  0  0  0  0  0  0  0  0  0
   -2.6615    0.2882   -1.9051 N   0  0  0  0  0  0  0  0  0  0  0  0
   -2.5136    1.3725   -1.3443 O   0  0  0  0  0  0  0  0  0  0  0  0
   -2.3258    0.0392   -3.0608 O   0  0  0  0  0  0  0  0  0  0  0  0
   -3.4772   -2.0375   -1.7373 C   0  0  0  0  0  0  0  0  0  0  0  0
   -4.0860   -3.0622   -1.0201 C   0  0  0  0  0  0  0  0  0  0  0  0
   -4.5332   -1.4448    1.9498 H   0  0  0  0  0  0  0  0  0  0  0  0
   -3.4950    0.4283    0.6202 H   0  0  0  0  0  0  0  0  0  0  0  0
   -3.1550   -2.1829   -2.7604 H   0  0  0  0  0  0  0  0  0  0  0  0
   -4.2485   -4.0259   -1.4802 H   0  0  0  0  0  0  0  0  0  0  0  0
   -8.5933   -6.5082    1.4344 C   0  0  0  0  0  0  0  0  0  0  0  0
   -9.7976   -6.2963    2.1024 C   0  0  0  0  0  0  0  0  0  0  0  0
  -10.8734   -5.6519    1.4749 C   0  0  0  0  0  0  0  0  0  0  0  0
  -10.7190   -5.2274    0.1459 C   0  0  0  0  0  0  0  0  0  0  0  0
   -9.5246   -5.4276   -0.5403 C   0  0  0  0  0  0  0  0  0  0  0  0
   -8.4697   -6.0654    0.1168 C   0  0  0  0  0  0  0  0  0  0  0  0
   -7.7658   -7.0171    1.9150 H   0  0  0  0  0  0  0  0  0  0  0  0
   -9.9057   -6.6433    3.1259 H   0  0  0  0  0  0  0  0  0  0  0  0
  -11.5485   -4.7406   -0.3599 H   0  0  0  0  0  0  0  0  0  0  0  0
   -9.4105   -5.1141   -1.5719 H   0  0  0  0  0  0  0  0  0  0  0  0
   -6.9414   -6.3338   -0.7558 S   0  0  0  0  0  0  0  0  0  0  0  0
   -6.2067   -7.4199   -0.1226 O   0  0  0  0  0  0  0  0  0  0  0  0
   -6.0960   -4.9058   -0.4952 O   0  0  0  0  0  0  0  0  0  0  0  0
   -7.1797   -6.2840   -2.1921 O   0  0  0  0  0  0  0  0  0  0  0  0
  -12.1651   -5.4035    2.2145 C   0  0  0  0  0  0  0  0  0  0  0  0
  -12.2831   -6.0889    3.0577 H   0  0  0  0  0  0  0  0  0  0  0  0
  -12.1949   -4.3824    2.6138 H   0  0  0  0  0  0  0  0  0  0  0  0
  -13.0311   -5.5182    1.5555 H   0  0  0  0  0  0  0  0  0  0  0  0
  1  4  1  0  0  0  0
  1  2  1  0  0  0  0
  3  2  1  0  0  0  0
  4 12  1  0  0  0  0
  5 13  1  0  0  0  0
  5  4  2  0  0  0  0
  6  5  1  0  0  0  0
  7  8  2  0  0  0  0
  7  6  1  0  0  0  0
  9  7  2  0  0  0  0
 10  6  2  0  0  0  0
 10 11  1  0  0  0  0
 11  1  2  0  0  0  0
 14 10  1  0  0  0  0
 15 11  1  0  0  0  0
 16 22  1  0  0  0  0
 16 17  2  0  0  0  0
 17 23  1  0  0  0  0
 18 17  1  0  0  0  0
 18 30  1  0  0  0  0
 19 18  2  0  0  0  0
 20 21  2  0  0  0  0
 20 19  1  0  0  0  0
 21 16  1  0  0  0  0
 24 19  1  0  0  0  0
 25 20  1  0  0  0  0
 26 28  1  0  0  0  0
 26 27  2  0  0  0  0
 26 21  1  0  0  0  0
 28  3  1  0  0  0  0
 29 26  2  0  0  0  0
 30 32  1  0  0  0  0
 30 31  1  0  0  0  0
 33 30  1  0  0  0  0
M  RAD  2   2   2   3   2
M  END
