Coordinates from ORCA-job 4-NO2PhN2+~TsO-_B3LYPG-6-31G_dp-NX-Scan-d89-09-n800
 OpenBabel11261920283D

 33 33  0  0  0  0  0  0  0  0999 V2000
   -4.8132   -0.6526    0.7207 C   0  0  0  0  0  0  0  0  0  0  0  0
   -5.4419    0.3690    1.3846 N   0  0  0  0  0  0  0  0  0  0  0  0
   -5.9132    1.2095    1.9574 N   0  0  0  0  0  0  0  0  0  0  0  0
   -3.4067   -0.7494    0.8914 C   0  0  0  0  0  0  0  0  0  0  0  0
   -2.7602   -1.7677    0.2262 C   0  0  0  0  0  0  0  0  0  0  0  0
   -3.5182   -2.6539   -0.5579 C   0  0  0  0  0  0  0  0  0  0  0  0
   -2.7905   -3.7552   -1.2376 N   0  0  0  0  0  0  0  0  0  0  0  0
   -1.5743   -3.8078   -1.0569 O   0  0  0  0  0  0  0  0  0  0  0  0
   -3.4493   -4.5241   -1.9231 O   0  0  0  0  0  0  0  0  0  0  0  0
   -4.8951   -2.5595   -0.7154 C   0  0  0  0  0  0  0  0  0  0  0  0
   -5.5821   -1.5210   -0.0799 C   0  0  0  0  0  0  0  0  0  0  0  0
   -2.8721   -0.0498    1.5237 H   0  0  0  0  0  0  0  0  0  0  0  0
   -1.6895   -1.9076    0.3038 H   0  0  0  0  0  0  0  0  0  0  0  0
   -5.4821   -3.2501   -1.3220 H   0  0  0  0  0  0  0  0  0  0  0  0
   -6.6790   -1.4519   -0.1872 H   0  0  0  0  0  0  0  0  0  0  0  0
   -9.7892   -4.5281    0.8382 C   0  0  0  0  0  0  0  0  0  0  0  0
  -10.1335   -5.7010    1.5073 C   0  0  0  0  0  0  0  0  0  0  0  0
   -9.7420   -6.9561    1.0190 C   0  0  0  0  0  0  0  0  0  0  0  0
   -8.9938   -7.0027   -0.1649 C   0  0  0  0  0  0  0  0  0  0  0  0
   -8.6422   -5.8360   -0.8432 C   0  0  0  0  0  0  0  0  0  0  0  0
   -9.0414   -4.5976   -0.3391 C   0  0  0  0  0  0  0  0  0  0  0  0
  -10.0889   -3.5595    1.2237 H   0  0  0  0  0  0  0  0  0  0  0  0
  -10.7154   -5.6429    2.4243 H   0  0  0  0  0  0  0  0  0  0  0  0
   -8.6822   -7.9659   -0.5619 H   0  0  0  0  0  0  0  0  0  0  0  0
   -8.0577   -5.8740   -1.7561 H   0  0  0  0  0  0  0  0  0  0  0  0
   -8.6500   -3.0939   -1.2492 S   0  0  0  0  0  0  0  0  0  0  0  0
   -8.4056   -2.0588   -0.1735 O   0  0  0  0  0  0  0  0  0  0  0  0
   -9.8153   -2.7898   -2.1036 O   0  0  0  0  0  0  0  0  0  0  0  0
   -7.3936   -3.4005   -2.0006 O   0  0  0  0  0  0  0  0  0  0  0  0
  -10.0926   -8.2214    1.7660 C   0  0  0  0  0  0  0  0  0  0  0  0
   -9.3344   -8.4606    2.5230 H   0  0  0  0  0  0  0  0  0  0  0  0
  -11.0505   -8.1267    2.2869 H   0  0  0  0  0  0  0  0  0  0  0  0
  -10.1588   -9.0795    1.0903 H   0  0  0  0  0  0  0  0  0  0  0  0
  1  4  1  0  0  0  0
  1  2  1  0  0  0  0
  2  3  1  0  0  0  0
  4 12  1  0  0  0  0
  5 13  1  0  0  0  0
  5  4  2  0  0  0  0
  6  5  1  0  0  0  0
  7  8  2  0  0  0  0
  7  6  1  0  0  0  0
  9  7  2  0  0  0  0
 10  6  2  0  0  0  0
 10 11  1  0  0  0  0
 11  1  2  0  0  0  0
 14 10  1  0  0  0  0
 15 11  1  0  0  0  0
 16 22  1  0  0  0  0
 16 17  2  0  0  0  0
 17 23  1  0  0  0  0
 18 17  1  0  0  0  0
 18 30  1  0  0  0  0
 19 18  2  0  0  0  0
 20 21  2  0  0  0  0
 20 19  1  0  0  0  0
 21 16  1  0  0  0  0
 24 19  1  0  0  0  0
 25 20  1  0  0  0  0
 26 21  1  0  0  0  0
 26 27  1  0  0  0  0
 28 26  2  0  0  0  0
 29 26  2  0  0  0  0
 30 32  1  0  0  0  0
 30 31  1  0  0  0  0
 33 30  1  0  0  0  0
M  RAD  3   2   2   3   3  27   2
M  END
