Coordinates from ORCA-job 4-NO2PhN2+~TsO-_B3LYPG-6-31G_dp-NX-Scan-d89-09-n800
 OpenBabel11261920283D

 33 33  0  0  0  0  0  0  0  0999 V2000
   -4.6383   -0.8449    1.0206 C   0  0  0  0  0  0  0  0  0  0  0  0
   -5.2638   -0.1928    2.0555 N   0  0  0  0  0  0  0  0  0  0  0  0
   -5.7092    0.3525    2.9269 N   0  0  0  0  0  0  0  0  0  0  0  0
   -3.2372   -0.6384    0.9172 C   0  0  0  0  0  0  0  0  0  0  0  0
   -2.5786   -1.2879   -0.1038 C   0  0  0  0  0  0  0  0  0  0  0  0
   -3.3158   -2.1180   -0.9637 C   0  0  0  0  0  0  0  0  0  0  0  0
   -2.5644   -2.8128   -2.0436 N   0  0  0  0  0  0  0  0  0  0  0  0
   -1.3504   -2.6135   -2.0848 O   0  0  0  0  0  0  0  0  0  0  0  0
   -3.2042   -3.5231   -2.8035 O   0  0  0  0  0  0  0  0  0  0  0  0
   -4.6855   -2.3232   -0.8558 C   0  0  0  0  0  0  0  0  0  0  0  0
   -5.3926   -1.6617    0.1546 C   0  0  0  0  0  0  0  0  0  0  0  0
   -2.7145    0.0032    1.6175 H   0  0  0  0  0  0  0  0  0  0  0  0
   -1.5118   -1.1792   -0.2522 H   0  0  0  0  0  0  0  0  0  0  0  0
   -5.2555   -2.9952   -1.5069 H   0  0  0  0  0  0  0  0  0  0  0  0
   -6.4878   -1.8228    0.2138 H   0  0  0  0  0  0  0  0  0  0  0  0
  -10.0555   -4.6494    0.5398 C   0  0  0  0  0  0  0  0  0  0  0  0
  -10.6571   -5.6888    1.2451 C   0  0  0  0  0  0  0  0  0  0  0  0
  -10.1775   -7.0037    1.1482 C   0  0  0  0  0  0  0  0  0  0  0  0
   -9.0726   -7.2480    0.3194 C   0  0  0  0  0  0  0  0  0  0  0  0
   -8.4620   -6.2159   -0.3910 C   0  0  0  0  0  0  0  0  0  0  0  0
   -8.9554   -4.9142   -0.2811 C   0  0  0  0  0  0  0  0  0  0  0  0
  -10.4282   -3.6337    0.6225 H   0  0  0  0  0  0  0  0  0  0  0  0
  -11.5159   -5.4802    1.8789 H   0  0  0  0  0  0  0  0  0  0  0  0
   -8.6882   -8.2614    0.2278 H   0  0  0  0  0  0  0  0  0  0  0  0
   -7.6062   -6.4007   -1.0310 H   0  0  0  0  0  0  0  0  0  0  0  0
   -8.2236   -3.5831   -1.2483 S   0  0  0  0  0  0  0  0  0  0  0  0
   -8.1263   -2.4344   -0.2671 O   0  0  0  0  0  0  0  0  0  0  0  0
   -9.1452   -3.3233   -2.3731 O   0  0  0  0  0  0  0  0  0  0  0  0
   -6.8715   -4.0876   -1.6403 O   0  0  0  0  0  0  0  0  0  0  0  0
  -10.8166   -8.1238    1.9347 C   0  0  0  0  0  0  0  0  0  0  0  0
  -10.2684   -8.3208    2.8647 H   0  0  0  0  0  0  0  0  0  0  0  0
  -11.8473   -7.8826    2.2097 H   0  0  0  0  0  0  0  0  0  0  0  0
  -10.8274   -9.0579    1.3639 H   0  0  0  0  0  0  0  0  0  0  0  0
  1  2  1  0  0  0  0
  2  3  1  0  0  0  0
  4  1  1  0  0  0  0
  4 12  1  0  0  0  0
  5  4  2  0  0  0  0
  6 10  2  0  0  0  0
  6  5  1  0  0  0  0
  7  6  1  0  0  0  0
  8  7  2  0  0  0  0
  9  7  2  0  0  0  0
 10 11  1  0  0  0  0
 11 15  1  0  0  0  0
 11  1  2  0  0  0  0
 13  5  1  0  0  0  0
 14 10  1  0  0  0  0
 16 22  1  0  0  0  0
 16 17  2  0  0  0  0
 17 23  1  0  0  0  0
 18 17  1  0  0  0  0
 18 30  1  0  0  0  0
 19 18  2  0  0  0  0
 20 21  2  0  0  0  0
 20 19  1  0  0  0  0
 21 16  1  0  0  0  0
 24 19  1  0  0  0  0
 25 20  1  0  0  0  0
 26 21  1  0  0  0  0
 26 27  1  0  0  0  0
 28 26  2  0  0  0  0
 29 26  2  0  0  0  0
 30 32  1  0  0  0  0
 30 31  1  0  0  0  0
 33 30  1  0  0  0  0
M  RAD  3   2   2   3   3  27   2
M  END
