Coordinates from ORCA-job 4-NO2PhN2+~TsO-_B3LYPG-6-31G_dp-NX-Scan-d89-09-n800
 OpenBabel11261920283D

 33 33  0  0  0  0  0  0  0  0999 V2000
   -5.7779   -2.2903    0.0021 C   0  0  0  0  0  0  0  0  0  0  0  0
   -7.1791   -2.2871    0.2915 N   0  0  0  0  0  0  0  0  0  0  0  0
   -7.9541   -2.2069    1.1102 N   0  0  0  0  0  0  0  0  0  0  0  0
   -4.9464   -1.8645    1.0491 C   0  0  0  0  0  0  0  0  0  0  0  0
   -3.5740   -1.8662    0.8426 C   0  0  0  0  0  0  0  0  0  0  0  0
   -3.0865   -2.3020   -0.3896 C   0  0  0  0  0  0  0  0  0  0  0  0
   -1.6206   -2.3055   -0.6038 N   0  0  0  0  0  0  0  0  0  0  0  0
   -0.9180   -1.9210    0.3272 O   0  0  0  0  0  0  0  0  0  0  0  0
   -1.2130   -2.6931   -1.6936 O   0  0  0  0  0  0  0  0  0  0  0  0
   -3.9158   -2.7330   -1.4204 C   0  0  0  0  0  0  0  0  0  0  0  0
   -5.2975   -2.7258   -1.2328 C   0  0  0  0  0  0  0  0  0  0  0  0
   -5.3721   -1.5382    1.9909 H   0  0  0  0  0  0  0  0  0  0  0  0
   -2.8833   -1.5405    1.6095 H   0  0  0  0  0  0  0  0  0  0  0  0
   -3.4825   -3.0637   -2.3557 H   0  0  0  0  0  0  0  0  0  0  0  0
   -5.9829   -3.0446   -2.0101 H   0  0  0  0  0  0  0  0  0  0  0  0
  -10.1071   -4.2750    0.2181 C   0  0  0  0  0  0  0  0  0  0  0  0
  -10.3220   -5.0815    1.3353 C   0  0  0  0  0  0  0  0  0  0  0  0
   -9.4839   -6.1703    1.6170 C   0  0  0  0  0  0  0  0  0  0  0  0
   -8.4176   -6.4332    0.7442 C   0  0  0  0  0  0  0  0  0  0  0  0
   -8.1880   -5.6336   -0.3752 C   0  0  0  0  0  0  0  0  0  0  0  0
   -9.0319   -4.5510   -0.6312 C   0  0  0  0  0  0  0  0  0  0  0  0
  -10.7717   -3.4488   -0.0101 H   0  0  0  0  0  0  0  0  0  0  0  0
  -11.1584   -4.8680    1.9959 H   0  0  0  0  0  0  0  0  0  0  0  0
   -7.7655   -7.2812    0.9383 H   0  0  0  0  0  0  0  0  0  0  0  0
   -7.3794   -5.8516   -1.0652 H   0  0  0  0  0  0  0  0  0  0  0  0
   -8.7376   -3.4929   -2.0549 S   0  0  0  0  0  0  0  0  0  0  0  0
   -7.9986   -2.2328   -1.5047 O   0  0  0  0  0  0  0  0  0  0  0  0
  -10.0544   -3.0610   -2.5248 O   0  0  0  0  0  0  0  0  0  0  0  0
   -7.8314   -4.2429   -2.9472 O   0  0  0  0  0  0  0  0  0  0  0  0
   -9.7458   -7.0608    2.8083 C   0  0  0  0  0  0  0  0  0  0  0  0
  -10.2444   -6.5154    3.6150 H   0  0  0  0  0  0  0  0  0  0  0  0
  -10.3952   -7.9013    2.5341 H   0  0  0  0  0  0  0  0  0  0  0  0
   -8.8179   -7.4836    3.2044 H   0  0  0  0  0  0  0  0  0  0  0  0
  1  2  1  0  0  0  0
  1  4  2  0  0  0  0
  2  3  2  0  0  0  0
  4 12  1  0  0  0  0
  5  4  1  0  0  0  0
  5 13  1  0  0  0  0
  6  5  2  0  0  0  0
  7  6  1  0  0  0  0
  7  8  2  0  0  0  0
  9  7  2  0  0  0  0
 10 11  2  0  0  0  0
 10  6  1  0  0  0  0
 11  1  1  0  0  0  0
 14 10  1  0  0  0  0
 15 11  1  0  0  0  0
 16 17  2  0  0  0  0
 17 18  1  0  0  0  0
 17 23  1  0  0  0  0
 18 30  1  0  0  0  0
 19 24  1  0  0  0  0
 19 18  2  0  0  0  0
 20 19  1  0  0  0  0
 21 20  2  0  0  0  0
 21 16  1  0  0  0  0
 22 16  1  0  0  0  0
 25 20  1  0  0  0  0
 26 27  1  0  0  0  0
 26 21  1  0  0  0  0
 28 26  2  0  0  0  0
 29 26  2  0  0  0  0
 30 33  1  0  0  0  0
 30 31  1  0  0  0  0
 32 30  1  0  0  0  0
M  RAD  2   3   2  27   2
M  END
