Coordinates from ORCA-job 4-NO2PhN2+~TsO-_B3LYPG-6-31G_dp-NX-Scan-d89-09-n800
 OpenBabel11261920283D

 33 33  0  0  0  0  0  0  0  0999 V2000
   -4.5101   -1.7559    0.4752 C   0  0  0  0  0  0  0  0  0  0  0  0
   -5.3525   -1.5951    1.5729 N   0  0  0  0  0  0  0  0  0  0  0  0
   -5.9634   -1.3243    2.4696 N   0  0  0  0  0  0  0  0  0  0  0  0
   -3.1307   -1.6644    0.7202 C   0  0  0  0  0  0  0  0  0  0  0  0
   -2.2704   -1.7888   -0.3608 C   0  0  0  0  0  0  0  0  0  0  0  0
   -2.8197   -1.9811   -1.6289 C   0  0  0  0  0  0  0  0  0  0  0  0
   -1.8937   -2.1024   -2.7803 N   0  0  0  0  0  0  0  0  0  0  0  0
   -0.6914   -2.0288   -2.5412 O   0  0  0  0  0  0  0  0  0  0  0  0
   -2.3939   -2.2586   -3.8888 O   0  0  0  0  0  0  0  0  0  0  0  0
   -4.1905   -2.0623   -1.8632 C   0  0  0  0  0  0  0  0  0  0  0  0
   -5.0738   -1.9636   -0.7923 C   0  0  0  0  0  0  0  0  0  0  0  0
   -2.7551   -1.5070    1.7247 H   0  0  0  0  0  0  0  0  0  0  0  0
   -1.1958   -1.7351   -0.2422 H   0  0  0  0  0  0  0  0  0  0  0  0
   -4.5536   -2.2174   -2.8712 H   0  0  0  0  0  0  0  0  0  0  0  0
   -6.1549   -2.0499   -0.9096 H   0  0  0  0  0  0  0  0  0  0  0  0
   -9.2911   -5.2416    2.0926 C   0  0  0  0  0  0  0  0  0  0  0  0
  -10.1383   -6.3460    2.1090 C   0  0  0  0  0  0  0  0  0  0  0  0
  -10.7199   -6.8319    0.9278 C   0  0  0  0  0  0  0  0  0  0  0  0
  -10.4278   -6.1776   -0.2759 C   0  0  0  0  0  0  0  0  0  0  0  0
   -9.5818   -5.0692   -0.3075 C   0  0  0  0  0  0  0  0  0  0  0  0
   -9.0130   -4.6071    0.8790 C   0  0  0  0  0  0  0  0  0  0  0  0
   -8.8571   -4.8591    3.0099 H   0  0  0  0  0  0  0  0  0  0  0  0
  -10.3569   -6.8381    3.0536 H   0  0  0  0  0  0  0  0  0  0  0  0
  -10.8721   -6.5374   -1.2003 H   0  0  0  0  0  0  0  0  0  0  0  0
   -9.3666   -4.5523   -1.2362 H   0  0  0  0  0  0  0  0  0  0  0  0
   -7.8825   -3.2191    0.8453 S   0  0  0  0  0  0  0  0  0  0  0  0
   -6.4866   -3.7813    0.8795 O   0  0  0  0  0  0  0  0  0  0  0  0
   -8.1562   -2.4219    2.0856 O   0  0  0  0  0  0  0  0  0  0  0  0
   -8.1438   -2.4821   -0.4237 O   0  0  0  0  0  0  0  0  0  0  0  0
  -11.6628   -8.0112    0.9632 C   0  0  0  0  0  0  0  0  0  0  0  0
  -11.3184   -8.7781    1.6645 H   0  0  0  0  0  0  0  0  0  0  0  0
  -12.6657   -7.7056    1.2870 H   0  0  0  0  0  0  0  0  0  0  0  0
  -11.7645   -8.4728   -0.0230 H   0  0  0  0  0  0  0  0  0  0  0  0
  1  4  1  0  0  0  0
  1  2  1  0  0  0  0
  2  3  1  0  0  0  0
  4 12  1  0  0  0  0
  5 13  1  0  0  0  0
  5  4  2  0  0  0  0
  6  5  1  0  0  0  0
  7  8  2  0  0  0  0
  7  6  1  0  0  0  0
  9  7  2  0  0  0  0
 10  6  2  0  0  0  0
 10 11  1  0  0  0  0
 11  1  2  0  0  0  0
 14 10  1  0  0  0  0
 15 11  1  0  0  0  0
 16 17  1  0  0  0  0
 16 22  1  0  0  0  0
 17 23  1  0  0  0  0
 18 30  1  0  0  0  0
 18 17  2  0  0  0  0
 19 18  1  0  0  0  0
 20 19  2  0  0  0  0
 20 21  1  0  0  0  0
 21 16  2  0  0  0  0
 24 19  1  0  0  0  0
 25 20  1  0  0  0  0
 26 21  1  0  0  0  0
 26 27  2  0  0  0  0
 26 28  1  0  0  0  0
 29 26  2  0  0  0  0
 30 32  1  0  0  0  0
 30 31  1  0  0  0  0
 33 30  1  0  0  0  0
M  RAD  3   2   2   3   3  28   2
M  END
