Coordinates from ORCA-job 4-NO2PhN2+~TsO-_B3LYPG-6-31G_dp-NX-Scan-d89-09-n800
 OpenBabel11261920283D

 33 33  0  0  0  0  0  0  0  0999 V2000
   -4.5410   -2.4417    0.5812 C   0  0  0  0  0  0  0  0  0  0  0  0
   -5.3610   -3.0337    1.5727 N   0  0  0  0  0  0  0  0  0  0  0  0
   -5.5813   -3.3474    2.6290 N   0  0  0  0  0  0  0  0  0  0  0  0
   -3.8373   -1.2975    0.9896 C   0  0  0  0  0  0  0  0  0  0  0  0
   -2.9700   -0.7166    0.0753 C   0  0  0  0  0  0  0  0  0  0  0  0
   -2.8330   -1.3060   -1.1816 C   0  0  0  0  0  0  0  0  0  0  0  0
   -1.8924   -0.6848   -2.1445 N   0  0  0  0  0  0  0  0  0  0  0  0
   -1.3025    0.3271   -1.7754 O   0  0  0  0  0  0  0  0  0  0  0  0
   -1.7676   -1.2279   -3.2363 O   0  0  0  0  0  0  0  0  0  0  0  0
   -3.5378   -2.4424   -1.5708 C   0  0  0  0  0  0  0  0  0  0  0  0
   -4.4322   -3.0296   -0.6794 C   0  0  0  0  0  0  0  0  0  0  0  0
   -3.9748   -0.8804    1.9804 H   0  0  0  0  0  0  0  0  0  0  0  0
   -2.4026    0.1728    0.3174 H   0  0  0  0  0  0  0  0  0  0  0  0
   -3.4010   -2.8461   -2.5658 H   0  0  0  0  0  0  0  0  0  0  0  0
   -5.0527   -3.8879   -0.9533 H   0  0  0  0  0  0  0  0  0  0  0  0
   -9.7059   -4.4251    0.9903 C   0  0  0  0  0  0  0  0  0  0  0  0
  -10.6445   -5.2088    1.6611 C   0  0  0  0  0  0  0  0  0  0  0  0
  -10.8070   -6.5667    1.3556 C   0  0  0  0  0  0  0  0  0  0  0  0
   -9.9906   -7.1257    0.3614 C   0  0  0  0  0  0  0  0  0  0  0  0
   -9.0478   -6.3548   -0.3156 C   0  0  0  0  0  0  0  0  0  0  0  0
   -8.9082   -5.0022    0.0019 C   0  0  0  0  0  0  0  0  0  0  0  0
   -9.5782   -3.3767    1.2372 H   0  0  0  0  0  0  0  0  0  0  0  0
  -11.2608   -4.7585    2.4357 H   0  0  0  0  0  0  0  0  0  0  0  0
  -10.0942   -8.1799    0.1153 H   0  0  0  0  0  0  0  0  0  0  0  0
   -8.4088   -6.7924   -1.0752 H   0  0  0  0  0  0  0  0  0  0  0  0
   -7.7438   -3.9928   -0.9235 S   0  0  0  0  0  0  0  0  0  0  0  0
   -7.2281   -2.9731    0.1007 O   0  0  0  0  0  0  0  0  0  0  0  0
   -8.4898   -3.3610   -2.0340 O   0  0  0  0  0  0  0  0  0  0  0  0
   -6.6453   -4.9173   -1.3306 O   0  0  0  0  0  0  0  0  0  0  0  0
  -11.8456   -7.4057    2.0630 C   0  0  0  0  0  0  0  0  0  0  0  0
  -12.1819   -6.9303    2.9884 H   0  0  0  0  0  0  0  0  0  0  0  0
  -12.7294   -7.5560    1.4307 H   0  0  0  0  0  0  0  0  0  0  0  0
  -11.4574   -8.3980    2.3137 H   0  0  0  0  0  0  0  0  0  0  0  0
  1  4  1  0  0  0  0
  1  2  1  0  0  0  0
  2  3  2  0  0  0  0
  4 12  1  0  0  0  0
  5 13  1  0  0  0  0
  5  4  2  0  0  0  0
  6  5  1  0  0  0  0
  7  8  2  0  0  0  0
  7  6  1  0  0  0  0
  9  7  2  0  0  0  0
 10  6  2  0  0  0  0
 10 11  1  0  0  0  0
 11  1  2  0  0  0  0
 14 10  1  0  0  0  0
 15 11  1  0  0  0  0
 16 22  1  0  0  0  0
 16 17  2  0  0  0  0
 17 23  1  0  0  0  0
 18 17  1  0  0  0  0
 18 30  1  0  0  0  0
 19 18  2  0  0  0  0
 20 21  2  0  0  0  0
 20 19  1  0  0  0  0
 21 16  1  0  0  0  0
 24 19  1  0  0  0  0
 25 20  1  0  0  0  0
 26 21  1  0  0  0  0
 26 27  1  0  0  0  0
 28 26  2  0  0  0  0
 29 26  2  0  0  0  0
 30 33  1  0  0  0  0
 30 31  1  0  0  0  0
 32 30  1  0  0  0  0
M  RAD  2   3   2  27   2
M  END
