Coordinates from ORCA-job 4-NO2PhN2+~TsO-_B3LYPG-6-31G_dp-NX-Scan-d89-09-n800
 OpenBabel11261920283D

 33 33  0  0  0  0  0  0  0  0999 V2000
   -4.4652   -2.1195    0.4231 C   0  0  0  0  0  0  0  0  0  0  0  0
   -5.3187   -2.2391    1.5496 N   0  0  0  0  0  0  0  0  0  0  0  0
   -5.6286   -1.9820    2.5977 N   0  0  0  0  0  0  0  0  0  0  0  0
   -3.0967   -2.0011    0.7000 C   0  0  0  0  0  0  0  0  0  0  0  0
   -2.2266   -1.8325   -0.3692 C   0  0  0  0  0  0  0  0  0  0  0  0
   -2.7589   -1.7732   -1.6563 C   0  0  0  0  0  0  0  0  0  0  0  0
   -1.8265   -1.5872   -2.7927 N   0  0  0  0  0  0  0  0  0  0  0  0
   -0.6310   -1.4941   -2.5271 O   0  0  0  0  0  0  0  0  0  0  0  0
   -2.3139   -1.5376   -3.9171 O   0  0  0  0  0  0  0  0  0  0  0  0
   -4.1225   -1.8804   -1.9198 C   0  0  0  0  0  0  0  0  0  0  0  0
   -5.0086   -2.0734   -0.8630 C   0  0  0  0  0  0  0  0  0  0  0  0
   -2.7325   -2.0470    1.7199 H   0  0  0  0  0  0  0  0  0  0  0  0
   -1.1578   -1.7423   -0.2236 H   0  0  0  0  0  0  0  0  0  0  0  0
   -4.4768   -1.8241   -2.9412 H   0  0  0  0  0  0  0  0  0  0  0  0
   -6.0798   -2.1817   -1.0173 H   0  0  0  0  0  0  0  0  0  0  0  0
   -9.5031   -5.0180    2.0833 C   0  0  0  0  0  0  0  0  0  0  0  0
  -10.3419   -6.1268    2.1829 C   0  0  0  0  0  0  0  0  0  0  0  0
  -10.7727   -6.8149    1.0405 C   0  0  0  0  0  0  0  0  0  0  0  0
  -10.3396   -6.3617   -0.2148 C   0  0  0  0  0  0  0  0  0  0  0  0
   -9.5030   -5.2546   -0.3310 C   0  0  0  0  0  0  0  0  0  0  0  0
   -9.0857   -4.5884    0.8232 C   0  0  0  0  0  0  0  0  0  0  0  0
   -9.1837   -4.4753    2.9662 H   0  0  0  0  0  0  0  0  0  0  0  0
  -10.6719   -6.4609    3.1631 H   0  0  0  0  0  0  0  0  0  0  0  0
  -10.6674   -6.8803   -1.1122 H   0  0  0  0  0  0  0  0  0  0  0  0
   -9.1832   -4.8940   -1.3024 H   0  0  0  0  0  0  0  0  0  0  0  0
   -7.9802   -3.1873    0.6896 S   0  0  0  0  0  0  0  0  0  0  0  0
   -6.5753   -3.8087    0.7014 O   0  0  0  0  0  0  0  0  0  0  0  0
   -8.1701   -2.3389    1.8904 O   0  0  0  0  0  0  0  0  0  0  0  0
   -8.2435   -2.5401   -0.6183 O   0  0  0  0  0  0  0  0  0  0  0  0
  -11.7082   -7.9949    1.1522 C   0  0  0  0  0  0  0  0  0  0  0  0
  -11.6707   -8.4434    2.1491 H   0  0  0  0  0  0  0  0  0  0  0  0
  -12.7471   -7.6928    0.9682 H   0  0  0  0  0  0  0  0  0  0  0  0
  -11.4636   -8.7708    0.4198 H   0  0  0  0  0  0  0  0  0  0  0  0
  1  4  1  0  0  0  0
  1  2  1  0  0  0  0
  2  3  2  0  0  0  0
  4 12  1  0  0  0  0
  5 13  1  0  0  0  0
  5  4  2  0  0  0  0
  6  5  1  0  0  0  0
  7  8  2  0  0  0  0
  7  6  1  0  0  0  0
  9  7  2  0  0  0  0
 10  6  2  0  0  0  0
 10 11  1  0  0  0  0
 11  1  2  0  0  0  0
 14 10  1  0  0  0  0
 15 11  1  0  0  0  0
 16 17  1  0  0  0  0
 16 22  1  0  0  0  0
 17 23  1  0  0  0  0
 18 30  1  0  0  0  0
 18 17  2  0  0  0  0
 19 18  1  0  0  0  0
 20 19  2  0  0  0  0
 20 21  1  0  0  0  0
 21 16  2  0  0  0  0
 24 19  1  0  0  0  0
 25 20  1  0  0  0  0
 26 27  2  0  0  0  0
 26 21  1  0  0  0  0
 26 28  1  0  0  0  0
 29 26  2  0  0  0  0
 30 31  1  0  0  0  0
 32 30  1  0  0  0  0
 33 30  1  0  0  0  0
M  RAD  2   3   2  28   2
M  END
