Coordinates from ORCA-job 4-NO2PhN2+~TsO-_B3LYPG-6-31G_dp-NX-Scan-d89-09-n800
 OpenBabel11261920283D

 33 33  0  0  0  0  0  0  0  0999 V2000
   -4.6015   -1.5354    0.3708 C   0  0  0  0  0  0  0  0  0  0  0  0
   -5.5934   -1.2690    1.3068 N   0  0  0  0  0  0  0  0  0  0  0  0
   -6.4911   -1.1110    1.9696 N   0  0  0  0  0  0  0  0  0  0  0  0
   -3.2801   -1.2463    0.7492 C   0  0  0  0  0  0  0  0  0  0  0  0
   -2.2683   -1.4858   -0.1680 C   0  0  0  0  0  0  0  0  0  0  0  0
   -2.6159   -1.9843   -1.4243 C   0  0  0  0  0  0  0  0  0  0  0  0
   -1.5306   -2.2291   -2.4038 N   0  0  0  0  0  0  0  0  0  0  0  0
   -0.3835   -1.9822   -2.0413 O   0  0  0  0  0  0  0  0  0  0  0  0
   -1.8547   -2.6583   -3.5059 O   0  0  0  0  0  0  0  0  0  0  0  0
   -3.9285   -2.2586   -1.7993 C   0  0  0  0  0  0  0  0  0  0  0  0
   -4.9590   -2.0438   -0.8884 C   0  0  0  0  0  0  0  0  0  0  0  0
   -3.0650   -0.8530    1.7358 H   0  0  0  0  0  0  0  0  0  0  0  0
   -1.2295   -1.2908    0.0645 H   0  0  0  0  0  0  0  0  0  0  0  0
   -4.1338   -2.6482   -2.7879 H   0  0  0  0  0  0  0  0  0  0  0  0
   -5.9982   -2.2667   -1.1280 H   0  0  0  0  0  0  0  0  0  0  0  0
   -8.6720   -5.8292    1.5079 C   0  0  0  0  0  0  0  0  0  0  0  0
   -9.5996   -6.8576    1.6785 C   0  0  0  0  0  0  0  0  0  0  0  0
  -10.8416   -6.8282    1.0314 C   0  0  0  0  0  0  0  0  0  0  0  0
  -11.1319   -5.7398    0.1935 C   0  0  0  0  0  0  0  0  0  0  0  0
  -10.2158   -4.7076    0.0106 C   0  0  0  0  0  0  0  0  0  0  0  0
   -8.9870   -4.7580    0.6734 C   0  0  0  0  0  0  0  0  0  0  0  0
   -7.7046   -5.8581    1.9967 H   0  0  0  0  0  0  0  0  0  0  0  0
   -9.3520   -7.6991    2.3209 H   0  0  0  0  0  0  0  0  0  0  0  0
  -12.0865   -5.7051   -0.3256 H   0  0  0  0  0  0  0  0  0  0  0  0
  -10.4347   -3.8762   -0.6510 H   0  0  0  0  0  0  0  0  0  0  0  0
   -7.8195   -3.4164    0.4770 S   0  0  0  0  0  0  0  0  0  0  0  0
   -6.4616   -3.9506    0.7776 O   0  0  0  0  0  0  0  0  0  0  0  0
   -8.2220   -2.3741    1.5096 O   0  0  0  0  0  0  0  0  0  0  0  0
   -7.9710   -2.9084   -0.9135 O   0  0  0  0  0  0  0  0  0  0  0  0
  -11.8521   -7.9334    1.2302 C   0  0  0  0  0  0  0  0  0  0  0  0
  -11.4181   -8.7822    1.7654 H   0  0  0  0  0  0  0  0  0  0  0  0
  -12.7142   -7.5813    1.8096 H   0  0  0  0  0  0  0  0  0  0  0  0
  -12.2372   -8.2992    0.2725 H   0  0  0  0  0  0  0  0  0  0  0  0
  1  4  1  0  0  0  0
  1  2  1  0  0  0  0
  2  3  1  0  0  0  0
  4 12  1  0  0  0  0
  5 13  1  0  0  0  0
  5  4  2  0  0  0  0
  6  5  1  0  0  0  0
  7  8  2  0  0  0  0
  7  6  1  0  0  0  0
  9  7  2  0  0  0  0
 10  6  2  0  0  0  0
 10 11  1  0  0  0  0
 11  1  2  0  0  0  0
 14 10  1  0  0  0  0
 15 11  1  0  0  0  0
 16 17  1  0  0  0  0
 16 22  1  0  0  0  0
 17 23  1  0  0  0  0
 18 30  1  0  0  0  0
 18 17  2  0  0  0  0
 19 18  1  0  0  0  0
 20 19  2  0  0  0  0
 20 21  1  0  0  0  0
 21 16  2  0  0  0  0
 24 19  1  0  0  0  0
 25 20  1  0  0  0  0
 26 21  1  0  0  0  0
 26 27  2  0  0  0  0
 26 28  1  0  0  0  0
 29 26  2  0  0  0  0
 30 31  1  0  0  0  0
 30 32  1  0  0  0  0
 33 30  1  0  0  0  0
M  RAD  3   2   2   3   3  28   2
M  END
