Coordinates from ORCA-job 4-NO2PhN2+~TsO-_B3LYPG-6-31G_dp-NX-Scan-d89-09-n800
 OpenBabel11261920283D

 33 33  0  0  0  0  0  0  0  0999 V2000
   -4.6650   -0.8439    1.2126 C   0  0  0  0  0  0  0  0  0  0  0  0
   -5.1259   -0.1347    2.2939 N   0  0  0  0  0  0  0  0  0  0  0  0
   -5.3975    0.4620    3.2062 N   0  0  0  0  0  0  0  0  0  0  0  0
   -3.2509   -0.8689    1.0757 C   0  0  0  0  0  0  0  0  0  0  0  0
   -2.7263   -1.5730    0.0142 C   0  0  0  0  0  0  0  0  0  0  0  0
   -3.6046   -2.2152   -0.8701 C   0  0  0  0  0  0  0  0  0  0  0  0
   -2.9934   -2.9494   -2.0084 N   0  0  0  0  0  0  0  0  0  0  0  0
   -1.7860   -3.1796   -1.9243 O   0  0  0  0  0  0  0  0  0  0  0  0
   -3.7279   -3.2586   -2.9318 O   0  0  0  0  0  0  0  0  0  0  0  0
   -4.9907   -2.1997   -0.7410 C   0  0  0  0  0  0  0  0  0  0  0  0
   -5.5545   -1.4952    0.3259 C   0  0  0  0  0  0  0  0  0  0  0  0
   -2.6174   -0.3525    1.7877 H   0  0  0  0  0  0  0  0  0  0  0  0
   -1.6580   -1.6459   -0.1468 H   0  0  0  0  0  0  0  0  0  0  0  0
   -5.6548   -2.7658   -1.4166 H   0  0  0  0  0  0  0  0  0  0  0  0
   -6.6434   -1.5015    0.4164 H   0  0  0  0  0  0  0  0  0  0  0  0
  -10.0120   -4.6337    0.2806 C   0  0  0  0  0  0  0  0  0  0  0  0
  -10.5477   -5.6287    1.0950 C   0  0  0  0  0  0  0  0  0  0  0  0
   -9.9717   -6.9067    1.1524 C   0  0  0  0  0  0  0  0  0  0  0  0
   -8.8377   -7.1603    0.3655 C   0  0  0  0  0  0  0  0  0  0  0  0
   -8.2932   -6.1728   -0.4528 C   0  0  0  0  0  0  0  0  0  0  0  0
   -8.8818   -4.9064   -0.4965 C   0  0  0  0  0  0  0  0  0  0  0  0
  -10.4600   -3.6461    0.2433 H   0  0  0  0  0  0  0  0  0  0  0  0
  -11.4300   -5.4153    1.6939 H   0  0  0  0  0  0  0  0  0  0  0  0
   -8.3786   -8.1463    0.3932 H   0  0  0  0  0  0  0  0  0  0  0  0
   -7.4160   -6.3630   -1.0615 H   0  0  0  0  0  0  0  0  0  0  0  0
   -8.2288   -3.6361   -1.5952 S   0  0  0  0  0  0  0  0  0  0  0  0
   -8.1866   -2.3962   -0.7390 O   0  0  0  0  0  0  0  0  0  0  0  0
   -9.1655   -3.5650   -2.7386 O   0  0  0  0  0  0  0  0  0  0  0  0
   -6.8475   -4.1020   -1.9453 O   0  0  0  0  0  0  0  0  0  0  0  0
  -10.5411   -7.9783    2.0514 C   0  0  0  0  0  0  0  0  0  0  0  0
   -9.9359   -8.1010    2.9585 H   0  0  0  0  0  0  0  0  0  0  0  0
  -11.5594   -7.7365    2.3677 H   0  0  0  0  0  0  0  0  0  0  0  0
  -10.5646   -8.9509    1.5485 H   0  0  0  0  0  0  0  0  0  0  0  0
  1  2  1  0  0  0  0
  2  3  1  0  0  0  0
  4  1  1  0  0  0  0
  4 12  1  0  0  0  0
  5  4  2  0  0  0  0
  6 10  2  0  0  0  0
  6  5  1  0  0  0  0
  7  8  2  0  0  0  0
  7  6  1  0  0  0  0
  9  7  2  0  0  0  0
 10 11  1  0  0  0  0
 11 15  1  0  0  0  0
 11  1  2  0  0  0  0
 13  5  1  0  0  0  0
 14 10  1  0  0  0  0
 16 17  2  0  0  0  0
 17 18  1  0  0  0  0
 17 23  1  0  0  0  0
 18 30  1  0  0  0  0
 19 24  1  0  0  0  0
 19 18  2  0  0  0  0
 20 19  1  0  0  0  0
 21 20  2  0  0  0  0
 21 16  1  0  0  0  0
 22 16  1  0  0  0  0
 25 20  1  0  0  0  0
 26 27  1  0  0  0  0
 26 21  1  0  0  0  0
 28 26  2  0  0  0  0
 29 26  2  0  0  0  0
 30 32  1  0  0  0  0
 30 31  1  0  0  0  0
 33 30  1  0  0  0  0
M  RAD  3   2   2   3   3  27   2
M  END
