Coordinates from ORCA-job 4-NO2PhN2+~TsO-_B3LYPG-6-31G_dp-NX-Scan-d89-09-n800
 OpenBabel11261920283D

 33 33  0  0  0  0  0  0  0  0999 V2000
   -4.8131   -0.6427    0.7782 C   0  0  0  0  0  0  0  0  0  0  0  0
   -5.3677    0.4077    1.4611 N   0  0  0  0  0  0  0  0  0  0  0  0
   -5.7634    1.2750    2.0528 N   0  0  0  0  0  0  0  0  0  0  0  0
   -3.4189   -0.8424    0.9646 C   0  0  0  0  0  0  0  0  0  0  0  0
   -2.8313   -1.8822    0.2788 C   0  0  0  0  0  0  0  0  0  0  0  0
   -3.6345   -2.6929   -0.5404 C   0  0  0  0  0  0  0  0  0  0  0  0
   -2.9712   -3.8233   -1.2380 N   0  0  0  0  0  0  0  0  0  0  0  0
   -1.7628   -3.9579   -1.0457 O   0  0  0  0  0  0  0  0  0  0  0  0
   -3.6701   -4.5338   -1.9460 O   0  0  0  0  0  0  0  0  0  0  0  0
   -4.9995   -2.5013   -0.7147 C   0  0  0  0  0  0  0  0  0  0  0  0
   -5.6248   -1.4364   -0.0596 C   0  0  0  0  0  0  0  0  0  0  0  0
   -2.8489   -0.1997    1.6257 H   0  0  0  0  0  0  0  0  0  0  0  0
   -1.7739   -2.0963    0.3680 H   0  0  0  0  0  0  0  0  0  0  0  0
   -5.6234   -3.1392   -1.3477 H   0  0  0  0  0  0  0  0  0  0  0  0
   -6.7094   -1.3014   -0.1894 H   0  0  0  0  0  0  0  0  0  0  0  0
   -9.7847   -4.5116    0.7670 C   0  0  0  0  0  0  0  0  0  0  0  0
  -10.0943   -5.6746    1.4691 C   0  0  0  0  0  0  0  0  0  0  0  0
   -9.6519   -6.9294    1.0250 C   0  0  0  0  0  0  0  0  0  0  0  0
   -8.8880   -6.9856   -0.1481 C   0  0  0  0  0  0  0  0  0  0  0  0
   -8.5709   -5.8284   -0.8597 C   0  0  0  0  0  0  0  0  0  0  0  0
   -9.0207   -4.5904   -0.3996 C   0  0  0  0  0  0  0  0  0  0  0  0
  -10.1244   -3.5432    1.1186 H   0  0  0  0  0  0  0  0  0  0  0  0
  -10.6893   -5.6092    2.3772 H   0  0  0  0  0  0  0  0  0  0  0  0
   -8.5372   -7.9486   -0.5112 H   0  0  0  0  0  0  0  0  0  0  0  0
   -7.9751   -5.8732   -1.7649 H   0  0  0  0  0  0  0  0  0  0  0  0
   -8.6747   -3.1010   -1.3510 S   0  0  0  0  0  0  0  0  0  0  0  0
   -8.4378   -2.0365   -0.3042 O   0  0  0  0  0  0  0  0  0  0  0  0
   -9.8591   -2.8458   -2.1961 O   0  0  0  0  0  0  0  0  0  0  0  0
   -7.4239   -3.4005   -2.1152 O   0  0  0  0  0  0  0  0  0  0  0  0
   -9.9675   -8.1826    1.8073 C   0  0  0  0  0  0  0  0  0  0  0  0
   -9.2231   -8.3605    2.5941 H   0  0  0  0  0  0  0  0  0  0  0  0
  -10.9441   -8.1135    2.2967 H   0  0  0  0  0  0  0  0  0  0  0  0
   -9.9751   -9.0658    1.1616 H   0  0  0  0  0  0  0  0  0  0  0  0
  1  4  1  0  0  0  0
  1  2  1  0  0  0  0
  2  3  1  0  0  0  0
  4 12  1  0  0  0  0
  5 13  1  0  0  0  0
  5  4  2  0  0  0  0
  6  5  1  0  0  0  0
  7  8  2  0  0  0  0
  7  6  1  0  0  0  0
  9  7  2  0  0  0  0
 10  6  2  0  0  0  0
 10 11  1  0  0  0  0
 11  1  2  0  0  0  0
 14 10  1  0  0  0  0
 15 11  1  0  0  0  0
 16 22  1  0  0  0  0
 16 17  2  0  0  0  0
 17 23  1  0  0  0  0
 18 17  1  0  0  0  0
 18 30  1  0  0  0  0
 19 18  2  0  0  0  0
 20 21  2  0  0  0  0
 20 19  1  0  0  0  0
 21 16  1  0  0  0  0
 24 19  1  0  0  0  0
 25 20  1  0  0  0  0
 26 21  1  0  0  0  0
 26 27  1  0  0  0  0
 28 26  2  0  0  0  0
 29 26  2  0  0  0  0
 30 32  1  0  0  0  0
 30 31  1  0  0  0  0
 33 30  1  0  0  0  0
M  RAD  3   2   2   3   3  27   2
M  END
