Coordinates from ORCA-job 4-NO2PhN2+~TsO-_B3LYPG-6-31G_dp-NX-Scan-d89-09-n800
 OpenBabel11261920283D

 33 33  0  0  0  0  0  0  0  0999 V2000
   -4.6406   -0.8393    1.0555 C   0  0  0  0  0  0  0  0  0  0  0  0
   -5.2396   -0.1746    2.0974 N   0  0  0  0  0  0  0  0  0  0  0  0
   -5.6587    0.3827    2.9748 N   0  0  0  0  0  0  0  0  0  0  0  0
   -3.2351   -0.6691    0.9429 C   0  0  0  0  0  0  0  0  0  0  0  0
   -2.6001   -1.3319   -0.0844 C   0  0  0  0  0  0  0  0  0  0  0  0
   -3.3636   -2.1387   -0.9433 C   0  0  0  0  0  0  0  0  0  0  0  0
   -2.6357   -2.8478   -2.0300 N   0  0  0  0  0  0  0  0  0  0  0  0
   -1.4168   -2.6808   -2.0752 O   0  0  0  0  0  0  0  0  0  0  0  0
   -3.2982   -3.5324   -2.7936 O   0  0  0  0  0  0  0  0  0  0  0  0
   -4.7380   -2.3083   -0.8293 C   0  0  0  0  0  0  0  0  0  0  0  0
   -5.4198   -1.6339    0.1897 C   0  0  0  0  0  0  0  0  0  0  0  0
   -2.6916   -0.0436    1.6420 H   0  0  0  0  0  0  0  0  0  0  0  0
   -1.5316   -1.2508   -0.2386 H   0  0  0  0  0  0  0  0  0  0  0  0
   -5.3288   -2.9664   -1.4801 H   0  0  0  0  0  0  0  0  0  0  0  0
   -6.5149   -1.7718    0.2519 H   0  0  0  0  0  0  0  0  0  0  0  0
  -10.0457   -4.6440    0.4984 C   0  0  0  0  0  0  0  0  0  0  0  0
  -10.6352   -5.6774    1.2223 C   0  0  0  0  0  0  0  0  0  0  0  0
  -10.1423   -6.9890    1.1463 C   0  0  0  0  0  0  0  0  0  0  0  0
   -9.0367   -7.2359    0.3192 C   0  0  0  0  0  0  0  0  0  0  0  0
   -8.4381   -6.2097   -0.4097 C   0  0  0  0  0  0  0  0  0  0  0  0
   -8.9444   -4.9112   -0.3206 C   0  0  0  0  0  0  0  0  0  0  0  0
  -10.4286   -3.6309    0.5646 H   0  0  0  0  0  0  0  0  0  0  0  0
  -11.4950   -5.4672    1.8543 H   0  0  0  0  0  0  0  0  0  0  0  0
   -8.6423   -8.2469    0.2436 H   0  0  0  0  0  0  0  0  0  0  0  0
   -7.5819   -6.3962   -1.0487 H   0  0  0  0  0  0  0  0  0  0  0  0
   -8.2283   -3.5881   -1.3105 S   0  0  0  0  0  0  0  0  0  0  0  0
   -8.1348   -2.4258   -0.3472 O   0  0  0  0  0  0  0  0  0  0  0  0
   -9.1578   -3.3548   -2.4347 O   0  0  0  0  0  0  0  0  0  0  0  0
   -6.8747   -4.0903   -1.7031 O   0  0  0  0  0  0  0  0  0  0  0  0
  -10.7683   -8.1022    1.9526 C   0  0  0  0  0  0  0  0  0  0  0  0
  -10.2142   -8.2802    2.8830 H   0  0  0  0  0  0  0  0  0  0  0  0
  -11.7998   -7.8656    2.2287 H   0  0  0  0  0  0  0  0  0  0  0  0
  -10.7735   -9.0450    1.3963 H   0  0  0  0  0  0  0  0  0  0  0  0
  1  2  1  0  0  0  0
  2  3  1  0  0  0  0
  4  1  1  0  0  0  0
  4 12  1  0  0  0  0
  5  4  2  0  0  0  0
  6 10  2  0  0  0  0
  6  5  1  0  0  0  0
  7  6  1  0  0  0  0
  8  7  2  0  0  0  0
  9  7  2  0  0  0  0
 10 11  1  0  0  0  0
 11 15  1  0  0  0  0
 11  1  2  0  0  0  0
 13  5  1  0  0  0  0
 14 10  1  0  0  0  0
 16 22  1  0  0  0  0
 16 17  2  0  0  0  0
 17 23  1  0  0  0  0
 18 17  1  0  0  0  0
 18 30  1  0  0  0  0
 19 18  2  0  0  0  0
 20 21  2  0  0  0  0
 20 19  1  0  0  0  0
 21 16  1  0  0  0  0
 24 19  1  0  0  0  0
 25 20  1  0  0  0  0
 26 27  1  0  0  0  0
 26 21  1  0  0  0  0
 28 26  2  0  0  0  0
 29 26  2  0  0  0  0
 30 32  1  0  0  0  0
 30 31  1  0  0  0  0
 33 30  1  0  0  0  0
M  RAD  3   2   2   3   3  27   2
M  END
