Coordinates from ORCA-job 4-NO2PhN2+~TsO-_B3LYPG-6-31G_dp-NX-Scan-d89-09-n800
 OpenBabel11261920283D

 33 34  0  0  0  0  0  0  0  0999 V2000
   -4.5152   -2.9187    0.3018 C   0  0  0  0  0  0  0  0  0  0  0  0
   -5.0331   -3.9182    1.1790 N   0  0  0  0  0  0  0  0  0  0  0  0
   -5.7197   -4.8942    0.7288 N   0  0  0  0  0  0  0  0  0  0  0  0
   -4.4328   -1.6383    0.8795 C   0  0  0  0  0  0  0  0  0  0  0  0
   -3.8776   -0.5728    0.1850 C   0  0  0  0  0  0  0  0  0  0  0  0
   -3.3698   -0.8016   -1.0939 C   0  0  0  0  0  0  0  0  0  0  0  0
   -2.7747    0.3148   -1.8367 N   0  0  0  0  0  0  0  0  0  0  0  0
   -2.7539    1.4189   -1.2910 O   0  0  0  0  0  0  0  0  0  0  0  0
   -2.3323    0.0834   -2.9626 O   0  0  0  0  0  0  0  0  0  0  0  0
   -3.4069   -2.0648   -1.6822 C   0  0  0  0  0  0  0  0  0  0  0  0
   -3.9855   -3.1221   -0.9884 C   0  0  0  0  0  0  0  0  0  0  0  0
   -4.8144   -1.5063    1.8860 H   0  0  0  0  0  0  0  0  0  0  0  0
   -3.8197    0.4205    0.6126 H   0  0  0  0  0  0  0  0  0  0  0  0
   -2.9920   -2.2007   -2.6727 H   0  0  0  0  0  0  0  0  0  0  0  0
   -4.0145   -4.1002   -1.4505 H   0  0  0  0  0  0  0  0  0  0  0  0
   -8.5670   -6.5336    1.4050 C   0  0  0  0  0  0  0  0  0  0  0  0
   -9.7391   -6.2478    2.0996 C   0  0  0  0  0  0  0  0  0  0  0  0
  -10.8017   -5.5671    1.4862 C   0  0  0  0  0  0  0  0  0  0  0  0
  -10.6690   -5.1763    0.1431 C   0  0  0  0  0  0  0  0  0  0  0  0
   -9.5084   -5.4442   -0.5736 C   0  0  0  0  0  0  0  0  0  0  0  0
   -8.4724   -6.1298    0.0701 C   0  0  0  0  0  0  0  0  0  0  0  0
   -7.7480   -7.0641    1.8758 H   0  0  0  0  0  0  0  0  0  0  0  0
   -9.8308   -6.5611    3.1350 H   0  0  0  0  0  0  0  0  0  0  0  0
  -11.4886   -4.6584   -0.3471 H   0  0  0  0  0  0  0  0  0  0  0  0
   -9.4062   -5.1476   -1.6114 H   0  0  0  0  0  0  0  0  0  0  0  0
   -6.9876   -6.4655   -0.8238 S   0  0  0  0  0  0  0  0  0  0  0  0
   -6.2619   -7.5786   -0.2352 O   0  0  0  0  0  0  0  0  0  0  0  0
   -5.9724   -4.9605   -0.3811 O   0  0  0  0  0  0  0  0  0  0  0  0
   -7.1550   -6.2569   -2.2517 O   0  0  0  0  0  0  0  0  0  0  0  0
  -12.0563   -5.2405    2.2562 C   0  0  0  0  0  0  0  0  0  0  0  0
  -12.1758   -5.8925    3.1246 H   0  0  0  0  0  0  0  0  0  0  0  0
  -12.0259   -4.2067    2.6208 H   0  0  0  0  0  0  0  0  0  0  0  0
  -12.9464   -5.3358    1.6272 H   0  0  0  0  0  0  0  0  0  0  0  0
  1  4  1  0  0  0  0
  1  2  1  0  0  0  0
  3  2  2  0  0  0  0
  4 12  1  0  0  0  0
  5 13  1  0  0  0  0
  5  4  2  0  0  0  0
  6  5  1  0  0  0  0
  7  8  2  0  0  0  0
  7  6  1  0  0  0  0
  9  7  2  0  0  0  0
 10  6  2  0  0  0  0
 10 11  1  0  0  0  0
 11  1  2  0  0  0  0
 14 10  1  0  0  0  0
 15 11  1  0  0  0  0
 16 22  1  0  0  0  0
 16 17  2  0  0  0  0
 17 23  1  0  0  0  0
 18 17  1  0  0  0  0
 18 30  1  0  0  0  0
 19 18  2  0  0  0  0
 20 21  2  0  0  0  0
 20 19  1  0  0  0  0
 21 16  1  0  0  0  0
 24 19  1  0  0  0  0
 25 20  1  0  0  0  0
 26 28  1  0  0  0  0
 26 27  2  0  0  0  0
 26 21  1  0  0  0  0
 28  3  1  0  0  0  0
 29 26  2  0  0  0  0
 30 32  1  0  0  0  0
 30 31  1  0  0  0  0
 33 30  1  0  0  0  0
M  END
