Coordinates from ORCA-job 4-NO2PhN2+~TsO-_B3LYPG-6-31G_dp-NX-Scan-d89-09-n800
 OpenBabel11261920283D

 33 33  0  0  0  0  0  0  0  0999 V2000
   -4.8116   -0.6495    0.7342 C   0  0  0  0  0  0  0  0  0  0  0  0
   -5.4254    0.3784    1.4018 N   0  0  0  0  0  0  0  0  0  0  0  0
   -5.8830    1.2249    1.9771 N   0  0  0  0  0  0  0  0  0  0  0  0
   -3.4073   -0.7693    0.9083 C   0  0  0  0  0  0  0  0  0  0  0  0
   -2.7742   -1.7928    0.2381 C   0  0  0  0  0  0  0  0  0  0  0  0
   -3.5432   -2.6624   -0.5538 C   0  0  0  0  0  0  0  0  0  0  0  0
   -2.8301   -3.7706   -1.2376 N   0  0  0  0  0  0  0  0  0  0  0  0
   -1.6140   -3.8372   -1.0605 O   0  0  0  0  0  0  0  0  0  0  0  0
   -3.4969   -4.5207   -1.9360 O   0  0  0  0  0  0  0  0  0  0  0  0
   -4.9181   -2.5460   -0.7147 C   0  0  0  0  0  0  0  0  0  0  0  0
   -5.5907   -1.5012   -0.0745 C   0  0  0  0  0  0  0  0  0  0  0  0
   -2.8641   -0.0823    1.5471 H   0  0  0  0  0  0  0  0  0  0  0  0
   -1.7061   -1.9495    0.3181 H   0  0  0  0  0  0  0  0  0  0  0  0
   -5.5149   -3.2245   -1.3270 H   0  0  0  0  0  0  0  0  0  0  0  0
   -6.6854   -1.4176   -0.1856 H   0  0  0  0  0  0  0  0  0  0  0  0
   -9.7888   -4.5249    0.8224 C   0  0  0  0  0  0  0  0  0  0  0  0
  -10.1263   -5.6955    1.4987 C   0  0  0  0  0  0  0  0  0  0  0  0
   -9.7236   -6.9511    1.0206 C   0  0  0  0  0  0  0  0  0  0  0  0
   -8.9712   -7.0005   -0.1604 C   0  0  0  0  0  0  0  0  0  0  0  0
   -8.6264   -5.8359   -0.8460 C   0  0  0  0  0  0  0  0  0  0  0  0
   -9.0366   -4.5971   -0.3521 C   0  0  0  0  0  0  0  0  0  0  0  0
  -10.0972   -3.5560    1.2001 H   0  0  0  0  0  0  0  0  0  0  0  0
  -10.7116   -5.6354    2.4134 H   0  0  0  0  0  0  0  0  0  0  0  0
   -8.6511   -7.9640   -0.5495 H   0  0  0  0  0  0  0  0  0  0  0  0
   -8.0388   -5.8759   -1.7569 H   0  0  0  0  0  0  0  0  0  0  0  0
   -8.6540   -3.0965   -1.2712 S   0  0  0  0  0  0  0  0  0  0  0  0
   -8.4103   -2.0555   -0.2017 O   0  0  0  0  0  0  0  0  0  0  0  0
   -9.8234   -2.8012   -2.1230 O   0  0  0  0  0  0  0  0  0  0  0  0
   -7.3994   -3.4028   -2.0259 O   0  0  0  0  0  0  0  0  0  0  0  0
  -10.0675   -8.2136    1.7756 C   0  0  0  0  0  0  0  0  0  0  0  0
   -9.3164   -8.4355    2.5447 H   0  0  0  0  0  0  0  0  0  0  0  0
  -11.0333   -8.1263    2.2831 H   0  0  0  0  0  0  0  0  0  0  0  0
  -10.1139   -9.0790    1.1076 H   0  0  0  0  0  0  0  0  0  0  0  0
  1  4  1  0  0  0  0
  1  2  1  0  0  0  0
  2  3  1  0  0  0  0
  4 12  1  0  0  0  0
  5 13  1  0  0  0  0
  5  4  2  0  0  0  0
  6  5  1  0  0  0  0
  7  8  2  0  0  0  0
  7  6  1  0  0  0  0
  9  7  2  0  0  0  0
 10  6  2  0  0  0  0
 10 11  1  0  0  0  0
 11  1  2  0  0  0  0
 14 10  1  0  0  0  0
 15 11  1  0  0  0  0
 16 22  1  0  0  0  0
 16 17  2  0  0  0  0
 17 23  1  0  0  0  0
 18 17  1  0  0  0  0
 18 30  1  0  0  0  0
 19 18  2  0  0  0  0
 20 21  2  0  0  0  0
 20 19  1  0  0  0  0
 21 16  1  0  0  0  0
 24 19  1  0  0  0  0
 25 20  1  0  0  0  0
 26 21  1  0  0  0  0
 26 27  1  0  0  0  0
 28 26  2  0  0  0  0
 29 26  2  0  0  0  0
 30 32  1  0  0  0  0
 30 31  1  0  0  0  0
 33 30  1  0  0  0  0
M  RAD  3   2   2   3   3  27   2
M  END
