Coordinates from ORCA-job 4-NO2PhN2+~TsO-_B3LYPG-6-31G_dp-NX-Scan-d89-09-n800
 OpenBabel11261920283D

 33 33  0  0  0  0  0  0  0  0999 V2000
   -4.6617   -0.8391    1.1782 C   0  0  0  0  0  0  0  0  0  0  0  0
   -5.1516   -0.1331    2.2489 N   0  0  0  0  0  0  0  0  0  0  0  0
   -5.4489    0.4612    3.1539 N   0  0  0  0  0  0  0  0  0  0  0  0
   -3.2468   -0.8230    1.0484 C   0  0  0  0  0  0  0  0  0  0  0  0
   -2.6972   -1.5241   -0.0024 C   0  0  0  0  0  0  0  0  0  0  0  0
   -3.5520   -2.2094   -0.8779 C   0  0  0  0  0  0  0  0  0  0  0  0
   -2.9136   -2.9505   -1.9985 N   0  0  0  0  0  0  0  0  0  0  0  0
   -1.6864   -3.0501   -1.9604 O   0  0  0  0  0  0  0  0  0  0  0  0
   -3.6487   -3.3943   -2.8651 O   0  0  0  0  0  0  0  0  0  0  0  0
   -4.9380   -2.2326   -0.7545 C   0  0  0  0  0  0  0  0  0  0  0  0
   -5.5283   -1.5250    0.2968 C   0  0  0  0  0  0  0  0  0  0  0  0
   -2.6321   -0.2791    1.7563 H   0  0  0  0  0  0  0  0  0  0  0  0
   -1.6269   -1.5632   -0.1616 H   0  0  0  0  0  0  0  0  0  0  0  0
   -5.5869   -2.8236   -1.4240 H   0  0  0  0  0  0  0  0  0  0  0  0
   -6.6197   -1.5572    0.3758 H   0  0  0  0  0  0  0  0  0  0  0  0
  -10.0219   -4.6313    0.3299 C   0  0  0  0  0  0  0  0  0  0  0  0
  -10.5629   -5.6384    1.1255 C   0  0  0  0  0  0  0  0  0  0  0  0
  -10.0022   -6.9244    1.1480 C   0  0  0  0  0  0  0  0  0  0  0  0
   -8.8783   -7.1733    0.3455 C   0  0  0  0  0  0  0  0  0  0  0  0
   -8.3285   -6.1735   -0.4544 C   0  0  0  0  0  0  0  0  0  0  0  0
   -8.9018   -4.8995   -0.4633 C   0  0  0  0  0  0  0  0  0  0  0  0
  -10.4580   -3.6377    0.3194 H   0  0  0  0  0  0  0  0  0  0  0  0
  -11.4375   -5.4283    1.7367 H   0  0  0  0  0  0  0  0  0  0  0  0
   -8.4315   -8.1652    0.3460 H   0  0  0  0  0  0  0  0  0  0  0  0
   -7.4592   -6.3603   -1.0753 H   0  0  0  0  0  0  0  0  0  0  0  0
   -8.2441   -3.6130   -1.5396 S   0  0  0  0  0  0  0  0  0  0  0  0
   -8.1847   -2.3917   -0.6567 O   0  0  0  0  0  0  0  0  0  0  0  0
   -9.1881   -3.5044   -2.6731 O   0  0  0  0  0  0  0  0  0  0  0  0
   -6.8713   -4.0863   -1.9103 O   0  0  0  0  0  0  0  0  0  0  0  0
  -10.5763   -8.0086    2.0287 C   0  0  0  0  0  0  0  0  0  0  0  0
   -9.9850   -8.1327    2.9448 H   0  0  0  0  0  0  0  0  0  0  0  0
  -11.6017   -7.7782    2.3309 H   0  0  0  0  0  0  0  0  0  0  0  0
  -10.5829   -8.9771    1.5178 H   0  0  0  0  0  0  0  0  0  0  0  0
  1  2  1  0  0  0  0
  2  3  1  0  0  0  0
  4  1  1  0  0  0  0
  4 12  1  0  0  0  0
  5  4  2  0  0  0  0
  6 10  2  0  0  0  0
  6  5  1  0  0  0  0
  7  8  2  0  0  0  0
  7  6  1  0  0  0  0
  9  7  2  0  0  0  0
 10 11  1  0  0  0  0
 11 15  1  0  0  0  0
 11  1  2  0  0  0  0
 13  5  1  0  0  0  0
 14 10  1  0  0  0  0
 16 17  2  0  0  0  0
 17 18  1  0  0  0  0
 17 23  1  0  0  0  0
 18 30  1  0  0  0  0
 19 24  1  0  0  0  0
 19 18  2  0  0  0  0
 20 19  1  0  0  0  0
 21 20  2  0  0  0  0
 21 16  1  0  0  0  0
 22 16  1  0  0  0  0
 25 20  1  0  0  0  0
 26 27  1  0  0  0  0
 26 21  1  0  0  0  0
 28 26  2  0  0  0  0
 29 26  2  0  0  0  0
 30 32  1  0  0  0  0
 30 31  1  0  0  0  0
 33 30  1  0  0  0  0
M  RAD  3   2   2   3   3  27   2
M  END
