Coordinates from ORCA-job 4-NO2PhN2+~TsO-_B3LYPG-6-31G_dp-NX-Scan-d89-09-n800
 OpenBabel11261920283D

 33 33  0  0  0  0  0  0  0  0999 V2000
   -4.4741   -2.0363    0.4435 C   0  0  0  0  0  0  0  0  0  0  0  0
   -5.3220   -2.0877    1.5703 N   0  0  0  0  0  0  0  0  0  0  0  0
   -5.7125   -1.8106    2.5836 N   0  0  0  0  0  0  0  0  0  0  0  0
   -3.1000   -1.9536    0.7067 C   0  0  0  0  0  0  0  0  0  0  0  0
   -2.2348   -1.8523   -0.3748 C   0  0  0  0  0  0  0  0  0  0  0  0
   -2.7767   -1.8220   -1.6588 C   0  0  0  0  0  0  0  0  0  0  0  0
   -1.8487   -1.7068   -2.8083 N   0  0  0  0  0  0  0  0  0  0  0  0
   -0.6486   -1.6439   -2.5550 O   0  0  0  0  0  0  0  0  0  0  0  0
   -2.3441   -1.6802   -3.9299 O   0  0  0  0  0  0  0  0  0  0  0  0
   -4.1454   -1.8953   -1.9089 C   0  0  0  0  0  0  0  0  0  0  0  0
   -5.0285   -2.0217   -0.8403 C   0  0  0  0  0  0  0  0  0  0  0  0
   -2.7285   -1.9745    1.7249 H   0  0  0  0  0  0  0  0  0  0  0  0
   -1.1623   -1.7918   -0.2412 H   0  0  0  0  0  0  0  0  0  0  0  0
   -4.5057   -1.8669   -2.9294 H   0  0  0  0  0  0  0  0  0  0  0  0
   -6.1044   -2.1079   -0.9807 H   0  0  0  0  0  0  0  0  0  0  0  0
   -9.4721   -5.0561    2.0930 C   0  0  0  0  0  0  0  0  0  0  0  0
  -10.3090   -6.1681    2.1714 C   0  0  0  0  0  0  0  0  0  0  0  0
  -10.7543   -6.8231    1.0152 C   0  0  0  0  0  0  0  0  0  0  0  0
  -10.3376   -6.3329   -0.2316 C   0  0  0  0  0  0  0  0  0  0  0  0
   -9.5032   -5.2220   -0.3262 C   0  0  0  0  0  0  0  0  0  0  0  0
   -9.0706   -4.5890    0.8410 C   0  0  0  0  0  0  0  0  0  0  0  0
   -9.1419   -4.5391    2.9873 H   0  0  0  0  0  0  0  0  0  0  0  0
  -10.6260   -6.5309    3.1457 H   0  0  0  0  0  0  0  0  0  0  0  0
  -10.6769   -6.8253   -1.1396 H   0  0  0  0  0  0  0  0  0  0  0  0
   -9.1963   -4.8327   -1.2907 H   0  0  0  0  0  0  0  0  0  0  0  0
   -7.9631   -3.1870    0.7343 S   0  0  0  0  0  0  0  0  0  0  0  0
   -6.5587   -3.7874    0.7351 O   0  0  0  0  0  0  0  0  0  0  0  0
   -8.1659   -2.3606    1.9536 O   0  0  0  0  0  0  0  0  0  0  0  0
   -8.2390   -2.5078   -0.5568 O   0  0  0  0  0  0  0  0  0  0  0  0
  -11.6874   -8.0069    1.1044 C   0  0  0  0  0  0  0  0  0  0  0  0
  -11.6391   -8.4820    2.0886 H   0  0  0  0  0  0  0  0  0  0  0  0
  -12.7285   -7.7018    0.9389 H   0  0  0  0  0  0  0  0  0  0  0  0
  -11.4489   -8.7626    0.3492 H   0  0  0  0  0  0  0  0  0  0  0  0
  1  4  1  0  0  0  0
  1  2  1  0  0  0  0
  2  3  1  0  0  0  0
  4 12  1  0  0  0  0
  5 13  1  0  0  0  0
  5  4  2  0  0  0  0
  6  5  1  0  0  0  0
  7  8  2  0  0  0  0
  7  6  1  0  0  0  0
  9  7  2  0  0  0  0
 10  6  2  0  0  0  0
 10 11  1  0  0  0  0
 11  1  2  0  0  0  0
 14 10  1  0  0  0  0
 15 11  1  0  0  0  0
 16 17  1  0  0  0  0
 16 22  1  0  0  0  0
 17 23  1  0  0  0  0
 18 30  1  0  0  0  0
 18 17  2  0  0  0  0
 19 18  1  0  0  0  0
 20 19  2  0  0  0  0
 20 21  1  0  0  0  0
 21 16  2  0  0  0  0
 24 19  1  0  0  0  0
 25 20  1  0  0  0  0
 26 27  2  0  0  0  0
 26 21  1  0  0  0  0
 26 28  1  0  0  0  0
 29 26  2  0  0  0  0
 30 31  1  0  0  0  0
 32 30  1  0  0  0  0
 33 30  1  0  0  0  0
M  RAD  3   2   2   3   3  28   2
M  END
