Coordinates from ORCA-job 4-NO2PhN2+~TsO-_B3LYPG-6-31G_dp-NX-Scan-d89-09-n800
 OpenBabel11261920283D

 33 34  0  0  0  0  0  0  0  0999 V2000
   -4.4888   -2.9357    0.3123 C   0  0  0  0  0  0  0  0  0  0  0  0
   -4.9954   -3.9404    1.1926 N   0  0  0  0  0  0  0  0  0  0  0  0
   -5.7025   -4.8942    0.8032 N   0  0  0  0  0  0  0  0  0  0  0  0
   -4.5116   -1.6320    0.8335 C   0  0  0  0  0  0  0  0  0  0  0  0
   -3.9706   -0.5738    0.1146 C   0  0  0  0  0  0  0  0  0  0  0  0
   -3.3674   -0.8418   -1.1133 C   0  0  0  0  0  0  0  0  0  0  0  0
   -2.7799    0.2687   -1.8762 N   0  0  0  0  0  0  0  0  0  0  0  0
   -2.8596    1.3979   -1.3925 O   0  0  0  0  0  0  0  0  0  0  0  0
   -2.2451    0.0029   -2.9522 O   0  0  0  0  0  0  0  0  0  0  0  0
   -3.2966   -2.1330   -1.6349 C   0  0  0  0  0  0  0  0  0  0  0  0
   -3.8663   -3.1832   -0.9241 C   0  0  0  0  0  0  0  0  0  0  0  0
   -4.9600   -1.4701    1.8074 H   0  0  0  0  0  0  0  0  0  0  0  0
   -3.9916    0.4419    0.4894 H   0  0  0  0  0  0  0  0  0  0  0  0
   -2.8102   -2.2949   -2.5881 H   0  0  0  0  0  0  0  0  0  0  0  0
   -3.8227   -4.1874   -1.3257 H   0  0  0  0  0  0  0  0  0  0  0  0
   -8.5666   -6.5220    1.3771 C   0  0  0  0  0  0  0  0  0  0  0  0
   -9.7435   -6.2868    2.0834 C   0  0  0  0  0  0  0  0  0  0  0  0
  -10.8100   -5.5813    1.5064 C   0  0  0  0  0  0  0  0  0  0  0  0
  -10.6757   -5.1150    0.1886 C   0  0  0  0  0  0  0  0  0  0  0  0
   -9.5096   -5.3337   -0.5375 C   0  0  0  0  0  0  0  0  0  0  0  0
   -8.4668   -6.0391    0.0704 C   0  0  0  0  0  0  0  0  0  0  0  0
   -7.7449   -7.0725    1.8197 H   0  0  0  0  0  0  0  0  0  0  0  0
   -9.8363   -6.6609    3.0984 H   0  0  0  0  0  0  0  0  0  0  0  0
  -11.4984   -4.5783   -0.2756 H   0  0  0  0  0  0  0  0  0  0  0  0
   -9.4084   -4.9828   -1.5582 H   0  0  0  0  0  0  0  0  0  0  0  0
   -6.9823   -6.3310   -0.8505 S   0  0  0  0  0  0  0  0  0  0  0  0
   -6.2724   -7.4842   -0.3255 O   0  0  0  0  0  0  0  0  0  0  0  0
   -6.0078   -4.9151   -0.4298 O   0  0  0  0  0  0  0  0  0  0  0  0
   -7.1932   -6.0923   -2.2671 O   0  0  0  0  0  0  0  0  0  0  0  0
  -12.0709   -5.3097    2.2885 C   0  0  0  0  0  0  0  0  0  0  0  0
  -12.1775   -5.9973    3.1309 H   0  0  0  0  0  0  0  0  0  0  0  0
  -12.0629   -4.2905    2.6931 H   0  0  0  0  0  0  0  0  0  0  0  0
  -12.9593   -5.3993    1.6561 H   0  0  0  0  0  0  0  0  0  0  0  0
  1  4  1  0  0  0  0
  1  2  1  0  0  0  0
  3  2  2  0  0  0  0
  4 12  1  0  0  0  0
  5 13  1  0  0  0  0
  5  4  2  0  0  0  0
  6  5  1  0  0  0  0
  7  8  2  0  0  0  0
  7  6  1  0  0  0  0
  9  7  2  0  0  0  0
 10  6  2  0  0  0  0
 10 11  1  0  0  0  0
 11  1  2  0  0  0  0
 14 10  1  0  0  0  0
 15 11  1  0  0  0  0
 16 22  1  0  0  0  0
 16 17  2  0  0  0  0
 17 23  1  0  0  0  0
 18 17  1  0  0  0  0
 18 30  1  0  0  0  0
 19 18  2  0  0  0  0
 20 21  2  0  0  0  0
 20 19  1  0  0  0  0
 21 16  1  0  0  0  0
 24 19  1  0  0  0  0
 25 20  1  0  0  0  0
 26 28  1  0  0  0  0
 26 27  2  0  0  0  0
 26 21  1  0  0  0  0
 28  3  1  0  0  0  0
 29 26  2  0  0  0  0
 30 32  1  0  0  0  0
 30 31  1  0  0  0  0
 33 30  1  0  0  0  0
M  END
