Coordinates from ORCA-job 4-NO2PhN2+~TsO-_B3LYPG-6-31G_dp-NX-Scan-d89-09-n800
 OpenBabel11261920283D

 33 33  0  0  0  0  0  0  0  0999 V2000
   -4.1188   -2.9543    0.3185 C   0  0  0  0  0  0  0  0  0  0  0  0
   -4.6190   -3.8632    1.3037 N   0  0  0  0  0  0  0  0  0  0  0  0
   -4.4482   -4.2802    2.3375 N   0  0  0  0  0  0  0  0  0  0  0  0
   -3.2531   -1.9636    0.8078 C   0  0  0  0  0  0  0  0  0  0  0  0
   -2.6973   -1.0733   -0.0987 C   0  0  0  0  0  0  0  0  0  0  0  0
   -3.0145   -1.2121   -1.4505 C   0  0  0  0  0  0  0  0  0  0  0  0
   -2.4113   -0.2627   -2.4145 N   0  0  0  0  0  0  0  0  0  0  0  0
   -1.6705    0.6039   -1.9578 O   0  0  0  0  0  0  0  0  0  0  0  0
   -2.6901   -0.4117   -3.5995 O   0  0  0  0  0  0  0  0  0  0  0  0
   -3.8703   -2.1986   -1.9283 C   0  0  0  0  0  0  0  0  0  0  0  0
   -4.4437   -3.0948   -1.0280 C   0  0  0  0  0  0  0  0  0  0  0  0
   -3.0365   -1.8952    1.8675 H   0  0  0  0  0  0  0  0  0  0  0  0
   -2.0304   -0.2818    0.2188 H   0  0  0  0  0  0  0  0  0  0  0  0
   -4.0922   -2.2538   -2.9864 H   0  0  0  0  0  0  0  0  0  0  0  0
   -5.1424   -3.8569   -1.3465 H   0  0  0  0  0  0  0  0  0  0  0  0
   -9.3865   -4.7760    1.8186 C   0  0  0  0  0  0  0  0  0  0  0  0
  -10.4740   -5.5800    2.1547 C   0  0  0  0  0  0  0  0  0  0  0  0
  -11.0501   -6.4493    1.2175 C   0  0  0  0  0  0  0  0  0  0  0  0
  -10.5059   -6.4937   -0.0746 C   0  0  0  0  0  0  0  0  0  0  0  0
   -9.4203   -5.6953   -0.4271 C   0  0  0  0  0  0  0  0  0  0  0  0
   -8.8651   -4.8403    0.5262 C   0  0  0  0  0  0  0  0  0  0  0  0
   -8.9517   -4.0917    2.5392 H   0  0  0  0  0  0  0  0  0  0  0  0
  -10.8862   -5.5289    3.1592 H   0  0  0  0  0  0  0  0  0  0  0  0
  -10.9421   -7.1590   -0.8155 H   0  0  0  0  0  0  0  0  0  0  0  0
   -9.0102   -5.7173   -1.4308 H   0  0  0  0  0  0  0  0  0  0  0  0
   -7.4538   -3.8265    0.0895 S   0  0  0  0  0  0  0  0  0  0  0  0
   -6.2519   -4.7645    0.4098 O   0  0  0  0  0  0  0  0  0  0  0  0
   -7.4352   -2.6494    0.9813 O   0  0  0  0  0  0  0  0  0  0  0  0
   -7.5215   -3.5737   -1.3650 O   0  0  0  0  0  0  0  0  0  0  0  0
  -12.2498   -7.2927    1.5782 C   0  0  0  0  0  0  0  0  0  0  0  0
  -12.2926   -7.4909    2.6530 H   0  0  0  0  0  0  0  0  0  0  0  0
  -13.1832   -6.7865    1.3014 H   0  0  0  0  0  0  0  0  0  0  0  0
  -12.2361   -8.2531    1.0551 H   0  0  0  0  0  0  0  0  0  0  0  0
  1  4  1  0  0  0  0
  1  2  1  0  0  0  0
  2  3  2  0  0  0  0
  4 12  1  0  0  0  0
  5 13  1  0  0  0  0
  5  4  2  0  0  0  0
  6  5  1  0  0  0  0
  7  8  2  0  0  0  0
  7  6  1  0  0  0  0
  9  7  2  0  0  0  0
 10  6  2  0  0  0  0
 10 11  1  0  0  0  0
 11  1  2  0  0  0  0
 14 10  1  0  0  0  0
 15 11  1  0  0  0  0
 16 17  1  0  0  0  0
 16 22  1  0  0  0  0
 17 23  1  0  0  0  0
 18 30  1  0  0  0  0
 18 17  2  0  0  0  0
 19 18  1  0  0  0  0
 20 19  2  0  0  0  0
 20 21  1  0  0  0  0
 21 16  2  0  0  0  0
 24 19  1  0  0  0  0
 25 20  1  0  0  0  0
 26 27  2  0  0  0  0
 26 21  1  0  0  0  0
 26 28  1  0  0  0  0
 29 26  2  0  0  0  0
 30 31  1  0  0  0  0
 32 30  1  0  0  0  0
 33 30  1  0  0  0  0
M  RAD  2   3   2  28   2
M  END
