Coordinates from ORCA-job 4-NO2PhN2+~TsO-_B3LYPG-6-31G_dp-NX-Scan-d89-09-n800
 OpenBabel11261920283D

 33 34  0  0  0  0  0  0  0  0999 V2000
   -4.5030   -2.9360    0.3064 C   0  0  0  0  0  0  0  0  0  0  0  0
   -5.0112   -3.9439    1.1817 N   0  0  0  0  0  0  0  0  0  0  0  0
   -5.7089   -4.9066    0.7413 N   0  0  0  0  0  0  0  0  0  0  0  0
   -4.4917   -1.6407    0.8524 C   0  0  0  0  0  0  0  0  0  0  0  0
   -3.9464   -0.5751    0.1491 C   0  0  0  0  0  0  0  0  0  0  0  0
   -3.3763   -0.8214   -1.0996 C   0  0  0  0  0  0  0  0  0  0  0  0
   -2.7897    0.2957   -1.8495 N   0  0  0  0  0  0  0  0  0  0  0  0
   -2.8355    1.4148   -1.3373 O   0  0  0  0  0  0  0  0  0  0  0  0
   -2.2882    0.0488   -2.9467 O   0  0  0  0  0  0  0  0  0  0  0  0
   -3.3416   -2.1012   -1.6521 C   0  0  0  0  0  0  0  0  0  0  0  0
   -3.9117   -3.1584   -0.9520 C   0  0  0  0  0  0  0  0  0  0  0  0
   -4.9184   -1.4943    1.8386 H   0  0  0  0  0  0  0  0  0  0  0  0
   -3.9419    0.4313    0.5488 H   0  0  0  0  0  0  0  0  0  0  0  0
   -2.8802   -2.2488   -2.6200 H   0  0  0  0  0  0  0  0  0  0  0  0
   -3.8889   -4.1516   -1.3820 H   0  0  0  0  0  0  0  0  0  0  0  0
   -8.5654   -6.5320    1.3875 C   0  0  0  0  0  0  0  0  0  0  0  0
   -9.7361   -6.2633    2.0915 C   0  0  0  0  0  0  0  0  0  0  0  0
  -10.7988   -5.5653    1.4980 C   0  0  0  0  0  0  0  0  0  0  0  0
  -10.6676   -5.1398    0.1656 C   0  0  0  0  0  0  0  0  0  0  0  0
   -9.5081   -5.3906   -0.5596 C   0  0  0  0  0  0  0  0  0  0  0  0
   -8.4711   -6.0920    0.0645 C   0  0  0  0  0  0  0  0  0  0  0  0
   -7.7463   -7.0757    1.8429 H   0  0  0  0  0  0  0  0  0  0  0  0
   -9.8268   -6.6040    3.1183 H   0  0  0  0  0  0  0  0  0  0  0  0
  -11.4873   -4.6085   -0.3097 H   0  0  0  0  0  0  0  0  0  0  0  0
   -9.4077   -5.0682   -1.5898 H   0  0  0  0  0  0  0  0  0  0  0  0
   -6.9912   -6.4129   -0.8453 S   0  0  0  0  0  0  0  0  0  0  0  0
   -6.2729   -7.5470   -0.2903 O   0  0  0  0  0  0  0  0  0  0  0  0
   -5.9812   -4.9456   -0.3962 O   0  0  0  0  0  0  0  0  0  0  0  0
   -7.1728   -6.1767   -2.2663 O   0  0  0  0  0  0  0  0  0  0  0  0
  -12.0521   -5.2574    2.2780 C   0  0  0  0  0  0  0  0  0  0  0  0
  -12.1659   -5.9246    3.1356 H   0  0  0  0  0  0  0  0  0  0  0  0
  -12.0254   -4.2298    2.6601 H   0  0  0  0  0  0  0  0  0  0  0  0
  -12.9440   -5.3461    1.6506 H   0  0  0  0  0  0  0  0  0  0  0  0
  1  4  1  0  0  0  0
  1  2  1  0  0  0  0
  3  2  2  0  0  0  0
  4 12  1  0  0  0  0
  5 13  1  0  0  0  0
  5  4  2  0  0  0  0
  6  5  1  0  0  0  0
  7  8  2  0  0  0  0
  7  6  1  0  0  0  0
  9  7  2  0  0  0  0
 10  6  2  0  0  0  0
 10 11  1  0  0  0  0
 11  1  2  0  0  0  0
 14 10  1  0  0  0  0
 15 11  1  0  0  0  0
 16 22  1  0  0  0  0
 16 17  2  0  0  0  0
 17 23  1  0  0  0  0
 18 17  1  0  0  0  0
 18 30  1  0  0  0  0
 19 18  2  0  0  0  0
 20 21  2  0  0  0  0
 20 19  1  0  0  0  0
 21 16  1  0  0  0  0
 24 19  1  0  0  0  0
 25 20  1  0  0  0  0
 26 28  1  0  0  0  0
 26 27  2  0  0  0  0
 26 21  1  0  0  0  0
 28  3  1  0  0  0  0
 29 26  2  0  0  0  0
 30 32  1  0  0  0  0
 30 31  1  0  0  0  0
 33 30  1  0  0  0  0
M  END
