Coordinates from ORCA-job 4-NO2PhN2+~TsO-_B3LYPG-6-31G_dp-NX-Scan-d89-09-n800
 OpenBabel11261920283D

 33 33  0  0  0  0  0  0  0  0999 V2000
   -5.0121   -2.6915    0.0790 C   0  0  0  0  0  0  0  0  0  0  0  0
   -6.1462   -3.3709    0.6222 N   0  0  0  0  0  0  0  0  0  0  0  0
   -6.5499   -3.9811    1.4823 N   0  0  0  0  0  0  0  0  0  0  0  0
   -4.2302   -1.9719    0.9890 C   0  0  0  0  0  0  0  0  0  0  0  0
   -3.0976   -1.3266    0.5062 C   0  0  0  0  0  0  0  0  0  0  0  0
   -2.7903   -1.4434   -0.8479 C   0  0  0  0  0  0  0  0  0  0  0  0
   -1.5776   -0.7608   -1.3533 N   0  0  0  0  0  0  0  0  0  0  0  0
   -0.9145   -0.1213   -0.5408 O   0  0  0  0  0  0  0  0  0  0  0  0
   -1.3192   -0.8836   -2.5463 O   0  0  0  0  0  0  0  0  0  0  0  0
   -3.5708   -2.1735   -1.7422 C   0  0  0  0  0  0  0  0  0  0  0  0
   -4.7209   -2.8068   -1.2798 C   0  0  0  0  0  0  0  0  0  0  0  0
   -4.5087   -1.9129    2.0349 H   0  0  0  0  0  0  0  0  0  0  0  0
   -2.4556   -0.7445    1.1548 H   0  0  0  0  0  0  0  0  0  0  0  0
   -3.2793   -2.2322   -2.7832 H   0  0  0  0  0  0  0  0  0  0  0  0
   -5.3721   -3.3898   -1.9240 H   0  0  0  0  0  0  0  0  0  0  0  0
  -10.0386   -4.2701    0.4561 C   0  0  0  0  0  0  0  0  0  0  0  0
  -10.7263   -5.0173    1.4060 C   0  0  0  0  0  0  0  0  0  0  0  0
  -10.4012   -6.3631    1.6476 C   0  0  0  0  0  0  0  0  0  0  0  0
   -9.3615   -6.9388    0.9086 C   0  0  0  0  0  0  0  0  0  0  0  0
   -8.6607   -6.2014   -0.0482 C   0  0  0  0  0  0  0  0  0  0  0  0
   -9.0005   -4.8672   -0.2686 C   0  0  0  0  0  0  0  0  0  0  0  0
  -10.3021   -3.2341    0.2704 H   0  0  0  0  0  0  0  0  0  0  0  0
  -11.5322   -4.5533    1.9692 H   0  0  0  0  0  0  0  0  0  0  0  0
   -9.0962   -7.9785    1.0809 H   0  0  0  0  0  0  0  0  0  0  0  0
   -7.8590   -6.6473   -0.6266 H   0  0  0  0  0  0  0  0  0  0  0  0
   -8.1288   -3.9086   -1.5104 S   0  0  0  0  0  0  0  0  0  0  0  0
   -7.5375   -2.7115   -0.7206 O   0  0  0  0  0  0  0  0  0  0  0  0
   -9.1173   -3.4046   -2.4660 O   0  0  0  0  0  0  0  0  0  0  0  0
   -7.0316   -4.7716   -2.0099 O   0  0  0  0  0  0  0  0  0  0  0  0
  -11.1723   -7.1655    2.6686 C   0  0  0  0  0  0  0  0  0  0  0  0
  -11.2712   -6.6203    3.6133 H   0  0  0  0  0  0  0  0  0  0  0  0
  -12.1871   -7.3818    2.3145 H   0  0  0  0  0  0  0  0  0  0  0  0
  -10.6854   -8.1213    2.8786 H   0  0  0  0  0  0  0  0  0  0  0  0
  1  2  1  0  0  0  0
  1  4  2  0  0  0  0
  2  3  2  0  0  0  0
  4 12  1  0  0  0  0
  5  4  1  0  0  0  0
  5 13  1  0  0  0  0
  6  5  2  0  0  0  0
  7  6  1  0  0  0  0
  7  8  2  0  0  0  0
  9  7  2  0  0  0  0
 10 11  2  0  0  0  0
 10  6  1  0  0  0  0
 11  1  1  0  0  0  0
 14 10  1  0  0  0  0
 15 11  1  0  0  0  0
 16 17  2  0  0  0  0
 17 18  1  0  0  0  0
 17 23  1  0  0  0  0
 18 30  1  0  0  0  0
 19 24  1  0  0  0  0
 19 18  2  0  0  0  0
 20 19  1  0  0  0  0
 21 20  2  0  0  0  0
 21 16  1  0  0  0  0
 22 16  1  0  0  0  0
 25 20  1  0  0  0  0
 26 27  1  0  0  0  0
 26 21  1  0  0  0  0
 28 26  2  0  0  0  0
 29 26  2  0  0  0  0
 30 33  1  0  0  0  0
 30 31  1  0  0  0  0
 32 30  1  0  0  0  0
M  RAD  2   3   2  27   2
M  END
