Coordinates from ORCA-job 4-NO2PhN2+~TsO-_B3LYPG-6-31G_dp-NX-Scan-d89-09-n800
 OpenBabel11261920283D

 33 33  0  0  0  0  0  0  0  0999 V2000
   -4.4241   -1.9554    0.4897 C   0  0  0  0  0  0  0  0  0  0  0  0
   -5.3054   -2.3132    1.5262 N   0  0  0  0  0  0  0  0  0  0  0  0
   -6.3236   -2.7597    1.8194 N   0  0  0  0  0  0  0  0  0  0  0  0
   -3.1771   -1.4575    0.8907 C   0  0  0  0  0  0  0  0  0  0  0  0
   -2.2572   -1.0894   -0.0822 C   0  0  0  0  0  0  0  0  0  0  0  0
   -2.6198   -1.2316   -1.4206 C   0  0  0  0  0  0  0  0  0  0  0  0
   -1.6412   -0.8350   -2.4604 N   0  0  0  0  0  0  0  0  0  0  0  0
   -0.5553   -0.4097   -2.0752 O   0  0  0  0  0  0  0  0  0  0  0  0
   -1.9850   -0.9564   -3.6315 O   0  0  0  0  0  0  0  0  0  0  0  0
   -3.8586   -1.7265   -1.8236 C   0  0  0  0  0  0  0  0  0  0  0  0
   -4.7894   -2.0986   -0.8584 C   0  0  0  0  0  0  0  0  0  0  0  0
   -2.9458   -1.3692    1.9462 H   0  0  0  0  0  0  0  0  0  0  0  0
   -1.2799   -0.7009    0.1715 H   0  0  0  0  0  0  0  0  0  0  0  0
   -4.0819   -1.8192   -2.8793 H   0  0  0  0  0  0  0  0  0  0  0  0
   -5.7638   -2.4919   -1.1209 H   0  0  0  0  0  0  0  0  0  0  0  0
   -8.8434   -6.0229    1.6686 C   0  0  0  0  0  0  0  0  0  0  0  0
  -10.0494   -6.5761    2.0949 C   0  0  0  0  0  0  0  0  0  0  0  0
  -11.1905   -6.5433    1.2802 C   0  0  0  0  0  0  0  0  0  0  0  0
  -11.0884   -5.9502    0.0137 C   0  0  0  0  0  0  0  0  0  0  0  0
   -9.8896   -5.3939   -0.4284 C   0  0  0  0  0  0  0  0  0  0  0  0
   -8.7729   -5.4293    0.4078 C   0  0  0  0  0  0  0  0  0  0  0  0
   -7.9563   -6.0648    2.2911 H   0  0  0  0  0  0  0  0  0  0  0  0
  -10.1038   -7.0467    3.0732 H   0  0  0  0  0  0  0  0  0  0  0  0
  -11.9583   -5.9299   -0.6381 H   0  0  0  0  0  0  0  0  0  0  0  0
   -9.8091   -4.9533   -1.4159 H   0  0  0  0  0  0  0  0  0  0  0  0
   -7.2376   -4.6884   -0.1397 S   0  0  0  0  0  0  0  0  0  0  0  0
   -6.1426   -5.2681    0.6619 O   0  0  0  0  0  0  0  0  0  0  0  0
   -7.3850   -3.1666    0.2088 O   0  0  0  0  0  0  0  0  0  0  0  0
   -7.1781   -4.8093   -1.6050 O   0  0  0  0  0  0  0  0  0  0  0  0
  -12.5006   -7.1182    1.7638 C   0  0  0  0  0  0  0  0  0  0  0  0
  -12.3433   -8.0044    2.3863 H   0  0  0  0  0  0  0  0  0  0  0  0
  -13.0501   -6.3878    2.3716 H   0  0  0  0  0  0  0  0  0  0  0  0
  -13.1475   -7.3999    0.9280 H   0  0  0  0  0  0  0  0  0  0  0  0
  1  4  1  0  0  0  0
  1  2  1  0  0  0  0
  2  3  2  0  0  0  0
  4 12  1  0  0  0  0
  5 13  1  0  0  0  0
  5  4  2  0  0  0  0
  6  5  1  0  0  0  0
  7  8  2  0  0  0  0
  7  6  1  0  0  0  0
  9  7  2  0  0  0  0
 10  6  2  0  0  0  0
 10 11  1  0  0  0  0
 11  1  2  0  0  0  0
 14 10  1  0  0  0  0
 15 11  1  0  0  0  0
 16 17  1  0  0  0  0
 16 22  1  0  0  0  0
 17 23  1  0  0  0  0
 18 30  1  0  0  0  0
 18 17  2  0  0  0  0
 19 18  1  0  0  0  0
 20 19  2  0  0  0  0
 20 21  1  0  0  0  0
 21 16  2  0  0  0  0
 24 19  1  0  0  0  0
 25 20  1  0  0  0  0
 26 28  2  0  0  0  0
 26 21  1  0  0  0  0
 26 27  1  0  0  0  0
 29 26  2  0  0  0  0
 30 32  1  0  0  0  0
 30 31  1  0  0  0  0
 33 30  1  0  0  0  0
M  RAD  2   3   2  27   2
M  END
