Coordinates from ORCA-job 4-NO2PhN2+~TsO-_B3LYPG-6-31G_dp-NX-Scan-d89-09-n800
 OpenBabel11261920283D

 33 33  0  0  0  0  0  0  0  0999 V2000
   -4.4712   -3.3727   -0.0706 C   0  0  0  0  0  0  0  0  0  0  0  0
   -5.0881   -4.5866    0.3699 N   0  0  0  0  0  0  0  0  0  0  0  0
   -5.1037   -5.3572    1.1965 N   0  0  0  0  0  0  0  0  0  0  0  0
   -3.9014   -2.5827    0.9371 C   0  0  0  0  0  0  0  0  0  0  0  0
   -3.2527   -1.4134    0.5642 C   0  0  0  0  0  0  0  0  0  0  0  0
   -3.1855   -1.0911   -0.7910 C   0  0  0  0  0  0  0  0  0  0  0  0
   -2.4838    0.1528   -1.1828 N   0  0  0  0  0  0  0  0  0  0  0  0
   -2.0070    0.8350   -0.2795 O   0  0  0  0  0  0  0  0  0  0  0  0
   -2.4231    0.4105   -2.3804 O   0  0  0  0  0  0  0  0  0  0  0  0
   -3.7463   -1.8855   -1.7868 C   0  0  0  0  0  0  0  0  0  0  0  0
   -4.4166   -3.0506   -1.4242 C   0  0  0  0  0  0  0  0  0  0  0  0
   -3.9761   -2.8764    1.9777 H   0  0  0  0  0  0  0  0  0  0  0  0
   -2.8017   -0.7559    1.2960 H   0  0  0  0  0  0  0  0  0  0  0  0
   -3.6683   -1.5825   -2.8230 H   0  0  0  0  0  0  0  0  0  0  0  0
   -4.8906   -3.7010   -2.1456 H   0  0  0  0  0  0  0  0  0  0  0  0
   -9.2177   -4.2429    0.9632 C   0  0  0  0  0  0  0  0  0  0  0  0
  -10.1187   -4.8352    1.8502 C   0  0  0  0  0  0  0  0  0  0  0  0
  -10.6346   -6.1144    1.6120 C   0  0  0  0  0  0  0  0  0  0  0  0
  -10.2224   -6.7946    0.4545 C   0  0  0  0  0  0  0  0  0  0  0  0
   -9.3268   -6.2168   -0.4400 C   0  0  0  0  0  0  0  0  0  0  0  0
   -8.8232   -4.9396   -0.1772 C   0  0  0  0  0  0  0  0  0  0  0  0
   -8.8291   -3.2458    1.1379 H   0  0  0  0  0  0  0  0  0  0  0  0
  -10.4296   -4.2906    2.7383 H   0  0  0  0  0  0  0  0  0  0  0  0
  -10.6140   -7.7878    0.2507 H   0  0  0  0  0  0  0  0  0  0  0  0
   -9.0249   -6.7427   -1.3396 H   0  0  0  0  0  0  0  0  0  0  0  0
   -7.6653   -4.1936   -1.3276 S   0  0  0  0  0  0  0  0  0  0  0  0
   -6.3731   -5.0526   -1.1764 O   0  0  0  0  0  0  0  0  0  0  0  0
   -7.4145   -2.8143   -0.8590 O   0  0  0  0  0  0  0  0  0  0  0  0
   -8.1999   -4.3856   -2.6821 O   0  0  0  0  0  0  0  0  0  0  0  0
  -11.6344   -6.7397    2.5553 C   0  0  0  0  0  0  0  0  0  0  0  0
  -11.6105   -6.2638    3.5393 H   0  0  0  0  0  0  0  0  0  0  0  0
  -12.6562   -6.6406    2.1674 H   0  0  0  0  0  0  0  0  0  0  0  0
  -11.4438   -7.8093    2.6899 H   0  0  0  0  0  0  0  0  0  0  0  0
  1  2  1  0  0  0  0
  1  4  2  0  0  0  0
  2  3  2  0  0  0  0
  4 12  1  0  0  0  0
  5  4  1  0  0  0  0
  5 13  1  0  0  0  0
  6  5  2  0  0  0  0
  7  6  1  0  0  0  0
  7  8  2  0  0  0  0
  9  7  2  0  0  0  0
 10 11  2  0  0  0  0
 10  6  1  0  0  0  0
 11  1  1  0  0  0  0
 14 10  1  0  0  0  0
 15 11  1  0  0  0  0
 16 22  1  0  0  0  0
 16 17  2  0  0  0  0
 17 23  1  0  0  0  0
 18 17  1  0  0  0  0
 18 30  1  0  0  0  0
 19 18  2  0  0  0  0
 20 21  2  0  0  0  0
 20 19  1  0  0  0  0
 21 16  1  0  0  0  0
 24 19  1  0  0  0  0
 25 20  1  0  0  0  0
 26 27  2  0  0  0  0
 26 28  1  0  0  0  0
 26 21  1  0  0  0  0
 29 26  2  0  0  0  0
 30 33  1  0  0  0  0
 30 31  1  0  0  0  0
 32 30  1  0  0  0  0
M  RAD  2   3   2  28   2
M  END
