Coordinates from ORCA-job 4-NO2PhN2+~TsO-_B3LYPG-6-31G_dp-NX-Scan-d89-09-n800
 OpenBabel11261920283D

 33 33  0  0  0  0  0  0  0  0999 V2000
   -4.5297   -2.4413    0.5952 C   0  0  0  0  0  0  0  0  0  0  0  0
   -5.3362   -3.0327    1.5951 N   0  0  0  0  0  0  0  0  0  0  0  0
   -5.5619   -3.3506    2.6484 N   0  0  0  0  0  0  0  0  0  0  0  0
   -3.8273   -1.2924    0.9943 C   0  0  0  0  0  0  0  0  0  0  0  0
   -2.9701   -0.7109    0.0710 C   0  0  0  0  0  0  0  0  0  0  0  0
   -2.8412   -1.3040   -1.1851 C   0  0  0  0  0  0  0  0  0  0  0  0
   -1.9107   -0.6819   -2.1574 N   0  0  0  0  0  0  0  0  0  0  0  0
   -1.3228    0.3340   -1.7963 O   0  0  0  0  0  0  0  0  0  0  0  0
   -1.7919   -1.2283   -3.2482 O   0  0  0  0  0  0  0  0  0  0  0  0
   -3.5446   -2.4443   -1.5652 C   0  0  0  0  0  0  0  0  0  0  0  0
   -4.4290   -3.0329   -0.6649 C   0  0  0  0  0  0  0  0  0  0  0  0
   -3.9583   -0.8727    1.9849 H   0  0  0  0  0  0  0  0  0  0  0  0
   -2.4044    0.1815    0.3055 H   0  0  0  0  0  0  0  0  0  0  0  0
   -3.4151   -2.8501   -2.5603 H   0  0  0  0  0  0  0  0  0  0  0  0
   -5.0505   -3.8928   -0.9328 H   0  0  0  0  0  0  0  0  0  0  0  0
   -9.7009   -4.4275    0.9910 C   0  0  0  0  0  0  0  0  0  0  0  0
  -10.6440   -5.2089    1.6584 C   0  0  0  0  0  0  0  0  0  0  0  0
  -10.8114   -6.5653    1.3496 C   0  0  0  0  0  0  0  0  0  0  0  0
   -9.9955   -7.1253    0.3555 C   0  0  0  0  0  0  0  0  0  0  0  0
   -9.0485   -6.3567   -0.3181 C   0  0  0  0  0  0  0  0  0  0  0  0
   -8.9038   -5.0054    0.0026 C   0  0  0  0  0  0  0  0  0  0  0  0
   -9.5693   -3.3802    1.2404 H   0  0  0  0  0  0  0  0  0  0  0  0
  -11.2598   -4.7578    2.4329 H   0  0  0  0  0  0  0  0  0  0  0  0
  -10.1030   -8.1785    0.1067 H   0  0  0  0  0  0  0  0  0  0  0  0
   -8.4099   -6.7952   -1.0774 H   0  0  0  0  0  0  0  0  0  0  0  0
   -7.7335   -3.9983   -0.9181 S   0  0  0  0  0  0  0  0  0  0  0  0
   -7.2219   -2.9783    0.1056 O   0  0  0  0  0  0  0  0  0  0  0  0
   -8.4735   -3.3712   -2.0363 O   0  0  0  0  0  0  0  0  0  0  0  0
   -6.6335   -4.9259   -1.3174 O   0  0  0  0  0  0  0  0  0  0  0  0
  -11.8543   -7.4020    2.0535 C   0  0  0  0  0  0  0  0  0  0  0  0
  -12.1950   -6.9241    2.9760 H   0  0  0  0  0  0  0  0  0  0  0  0
  -12.7349   -7.5533    1.4169 H   0  0  0  0  0  0  0  0  0  0  0  0
  -11.4682   -8.3940    2.3085 H   0  0  0  0  0  0  0  0  0  0  0  0
  1  4  1  0  0  0  0
  1  2  1  0  0  0  0
  2  3  2  0  0  0  0
  4 12  1  0  0  0  0
  5 13  1  0  0  0  0
  5  4  2  0  0  0  0
  6  5  1  0  0  0  0
  7  8  2  0  0  0  0
  7  6  1  0  0  0  0
  9  7  2  0  0  0  0
 10  6  2  0  0  0  0
 10 11  1  0  0  0  0
 11  1  2  0  0  0  0
 14 10  1  0  0  0  0
 15 11  1  0  0  0  0
 16 22  1  0  0  0  0
 16 17  2  0  0  0  0
 17 23  1  0  0  0  0
 18 17  1  0  0  0  0
 18 30  1  0  0  0  0
 19 18  2  0  0  0  0
 20 21  2  0  0  0  0
 20 19  1  0  0  0  0
 21 16  1  0  0  0  0
 24 19  1  0  0  0  0
 25 20  1  0  0  0  0
 26 21  1  0  0  0  0
 26 27  1  0  0  0  0
 28 26  2  0  0  0  0
 29 26  2  0  0  0  0
 30 33  1  0  0  0  0
 30 31  1  0  0  0  0
 32 30  1  0  0  0  0
M  RAD  2   3   2  27   2
M  END
