Coordinates from ORCA-job 4-NO2PhN2+~TsO-_B3LYPG-6-31G_dp-NX-Scan-d89-09-n800
 OpenBabel11261920283D

 33 33  0  0  0  0  0  0  0  0999 V2000
   -4.6633   -0.8372    1.1641 C   0  0  0  0  0  0  0  0  0  0  0  0
   -5.1678   -0.1322    2.2282 N   0  0  0  0  0  0  0  0  0  0  0  0
   -5.4871    0.4603    3.1265 N   0  0  0  0  0  0  0  0  0  0  0  0
   -3.2482   -0.8106    1.0399 C   0  0  0  0  0  0  0  0  0  0  0  0
   -2.6899   -1.5128   -0.0055 C   0  0  0  0  0  0  0  0  0  0  0  0
   -3.5365   -2.2093   -0.8807 C   0  0  0  0  0  0  0  0  0  0  0  0
   -2.8886   -2.9521   -1.9949 N   0  0  0  0  0  0  0  0  0  0  0  0
   -1.6597   -3.0290   -1.9606 O   0  0  0  0  0  0  0  0  0  0  0  0
   -3.6186   -3.4201   -2.8531 O   0  0  0  0  0  0  0  0  0  0  0  0
   -4.9224   -2.2417   -0.7623 C   0  0  0  0  0  0  0  0  0  0  0  0
   -5.5217   -1.5332    0.2835 C   0  0  0  0  0  0  0  0  0  0  0  0
   -2.6401   -0.2585    1.7473 H   0  0  0  0  0  0  0  0  0  0  0  0
   -1.6188   -1.5442   -0.1613 H   0  0  0  0  0  0  0  0  0  0  0  0
   -5.5684   -2.8372   -1.4301 H   0  0  0  0  0  0  0  0  0  0  0  0
   -6.6140   -1.5747    0.3581 H   0  0  0  0  0  0  0  0  0  0  0  0
  -10.0187   -4.6285    0.3510 C   0  0  0  0  0  0  0  0  0  0  0  0
  -10.5623   -5.6396    1.1396 C   0  0  0  0  0  0  0  0  0  0  0  0
  -10.0099   -6.9295    1.1471 C   0  0  0  0  0  0  0  0  0  0  0  0
   -8.8920   -7.1780    0.3364 C   0  0  0  0  0  0  0  0  0  0  0  0
   -8.3395   -6.1742   -0.4568 C   0  0  0  0  0  0  0  0  0  0  0  0
   -8.9045   -4.8965   -0.4505 C   0  0  0  0  0  0  0  0  0  0  0  0
  -10.4482   -3.6320    0.3522 H   0  0  0  0  0  0  0  0  0  0  0  0
  -11.4323   -5.4297    1.7574 H   0  0  0  0  0  0  0  0  0  0  0  0
   -8.4518   -8.1728    0.3251 H   0  0  0  0  0  0  0  0  0  0  0  0
   -7.4746   -6.3609   -1.0839 H   0  0  0  0  0  0  0  0  0  0  0  0
   -8.2440   -3.6045   -1.5183 S   0  0  0  0  0  0  0  0  0  0  0  0
   -8.1742   -2.3914   -0.6241 O   0  0  0  0  0  0  0  0  0  0  0  0
   -9.1923   -3.4771   -2.6456 O   0  0  0  0  0  0  0  0  0  0  0  0
   -6.8762   -4.0831   -1.9000 O   0  0  0  0  0  0  0  0  0  0  0  0
  -10.5865   -8.0179    2.0209 C   0  0  0  0  0  0  0  0  0  0  0  0
   -9.9974   -8.1468    2.9377 H   0  0  0  0  0  0  0  0  0  0  0  0
  -11.6125   -7.7885    2.3220 H   0  0  0  0  0  0  0  0  0  0  0  0
  -10.5925   -8.9837    1.5051 H   0  0  0  0  0  0  0  0  0  0  0  0
  1  2  1  0  0  0  0
  2  3  1  0  0  0  0
  4  1  1  0  0  0  0
  4 12  1  0  0  0  0
  5  4  2  0  0  0  0
  6 10  2  0  0  0  0
  6  5  1  0  0  0  0
  7  8  2  0  0  0  0
  7  6  1  0  0  0  0
  9  7  2  0  0  0  0
 10 11  1  0  0  0  0
 11 15  1  0  0  0  0
 11  1  2  0  0  0  0
 13  5  1  0  0  0  0
 14 10  1  0  0  0  0
 16 22  1  0  0  0  0
 16 17  2  0  0  0  0
 17 18  1  0  0  0  0
 17 23  1  0  0  0  0
 18 30  1  0  0  0  0
 19 18  2  0  0  0  0
 20 21  2  0  0  0  0
 20 19  1  0  0  0  0
 21 16  1  0  0  0  0
 24 19  1  0  0  0  0
 25 20  1  0  0  0  0
 26 27  1  0  0  0  0
 26 21  1  0  0  0  0
 28 26  2  0  0  0  0
 29 26  2  0  0  0  0
 30 32  1  0  0  0  0
 30 31  1  0  0  0  0
 33 30  1  0  0  0  0
M  RAD  3   2   2   3   3  27   2
M  END
