Coordinates from ORCA-job 4-NO2PhN2+~TsO-_B3LYPG-6-31G_dp-NX-Scan-d89-09-n800
 OpenBabel11261920283D

 33 33  0  0  0  0  0  0  0  0999 V2000
   -4.6640   -0.8378    1.1526 C   0  0  0  0  0  0  0  0  0  0  0  0
   -5.1798   -0.1354    2.2132 N   0  0  0  0  0  0  0  0  0  0  0  0
   -5.5118    0.4546    3.1083 N   0  0  0  0  0  0  0  0  0  0  0  0
   -3.2489   -0.7991    1.0325 C   0  0  0  0  0  0  0  0  0  0  0  0
   -2.6821   -1.4990   -0.0099 C   0  0  0  0  0  0  0  0  0  0  0  0
   -3.5204   -2.2057   -0.8851 C   0  0  0  0  0  0  0  0  0  0  0  0
   -2.8634   -2.9472   -1.9949 N   0  0  0  0  0  0  0  0  0  0  0  0
   -1.6332   -3.0007   -1.9658 O   0  0  0  0  0  0  0  0  0  0  0  0
   -3.5885   -3.4433   -2.8416 O   0  0  0  0  0  0  0  0  0  0  0  0
   -4.9061   -2.2494   -0.7701 C   0  0  0  0  0  0  0  0  0  0  0  0
   -5.5144   -1.5426    0.2718 C   0  0  0  0  0  0  0  0  0  0  0  0
   -2.6473   -0.2404    1.7402 H   0  0  0  0  0  0  0  0  0  0  0  0
   -1.6105   -1.5208   -0.1636 H   0  0  0  0  0  0  0  0  0  0  0  0
   -5.5473   -2.8504   -1.4373 H   0  0  0  0  0  0  0  0  0  0  0  0
   -6.6076   -1.5927    0.3426 H   0  0  0  0  0  0  0  0  0  0  0  0
  -10.0188   -4.6274    0.3679 C   0  0  0  0  0  0  0  0  0  0  0  0
  -10.5649   -5.6415    1.1508 C   0  0  0  0  0  0  0  0  0  0  0  0
  -10.0190   -6.9341    1.1469 C   0  0  0  0  0  0  0  0  0  0  0  0
   -8.9051   -7.1823    0.3306 C   0  0  0  0  0  0  0  0  0  0  0  0
   -8.3503   -6.1754   -0.4570 C   0  0  0  0  0  0  0  0  0  0  0  0
   -8.9087   -4.8950   -0.4393 C   0  0  0  0  0  0  0  0  0  0  0  0
  -10.4433   -3.6287    0.3779 H   0  0  0  0  0  0  0  0  0  0  0  0
  -11.4318   -5.4317    1.7731 H   0  0  0  0  0  0  0  0  0  0  0  0
   -8.4701   -8.1791    0.3105 H   0  0  0  0  0  0  0  0  0  0  0  0
   -7.4884   -6.3619   -1.0883 H   0  0  0  0  0  0  0  0  0  0  0  0
   -8.2456   -3.5987   -1.5002 S   0  0  0  0  0  0  0  0  0  0  0  0
   -8.1718   -2.3911   -0.5984 O   0  0  0  0  0  0  0  0  0  0  0  0
   -9.1948   -3.4598   -2.6251 O   0  0  0  0  0  0  0  0  0  0  0  0
   -6.8802   -4.0795   -1.8866 O   0  0  0  0  0  0  0  0  0  0  0  0
  -10.5980   -8.0257    2.0152 C   0  0  0  0  0  0  0  0  0  0  0  0
  -10.0119   -8.1573    2.9336 H   0  0  0  0  0  0  0  0  0  0  0  0
  -11.6250   -7.7978    2.3138 H   0  0  0  0  0  0  0  0  0  0  0  0
  -10.6017   -8.9898    1.4962 H   0  0  0  0  0  0  0  0  0  0  0  0
  1  2  1  0  0  0  0
  2  3  1  0  0  0  0
  4  1  1  0  0  0  0
  4 12  1  0  0  0  0
  5  4  2  0  0  0  0
  6 10  2  0  0  0  0
  6  5  1  0  0  0  0
  7  8  2  0  0  0  0
  7  6  1  0  0  0  0
  9  7  2  0  0  0  0
 10 11  1  0  0  0  0
 11 15  1  0  0  0  0
 11  1  2  0  0  0  0
 13  5  1  0  0  0  0
 14 10  1  0  0  0  0
 16 22  1  0  0  0  0
 16 17  2  0  0  0  0
 17 23  1  0  0  0  0
 18 17  1  0  0  0  0
 18 30  1  0  0  0  0
 19 18  2  0  0  0  0
 20 21  2  0  0  0  0
 20 19  1  0  0  0  0
 21 16  1  0  0  0  0
 24 19  1  0  0  0  0
 25 20  1  0  0  0  0
 26 27  1  0  0  0  0
 26 21  1  0  0  0  0
 28 26  2  0  0  0  0
 29 26  2  0  0  0  0
 30 32  1  0  0  0  0
 30 31  1  0  0  0  0
 33 30  1  0  0  0  0
M  RAD  3   2   2   3   3  27   2
M  END
