Coordinates from ORCA-job 4-NO2PhN2+~TsO-_B3LYPG-6-31G_dp-NX-Scan-d89-09-n800
 OpenBabel11261920283D

 33 33  0  0  0  0  0  0  0  0999 V2000
   -4.8117   -0.6447    0.7684 C   0  0  0  0  0  0  0  0  0  0  0  0
   -5.3827    0.3985    1.4489 N   0  0  0  0  0  0  0  0  0  0  0  0
   -5.7958    1.2600    2.0367 N   0  0  0  0  0  0  0  0  0  0  0  0
   -3.4141   -0.8230    0.9505 C   0  0  0  0  0  0  0  0  0  0  0  0
   -2.8146   -1.8574    0.2666 C   0  0  0  0  0  0  0  0  0  0  0  0
   -3.6094   -2.6829   -0.5462 C   0  0  0  0  0  0  0  0  0  0  0  0
   -2.9329   -3.8064   -1.2424 N   0  0  0  0  0  0  0  0  0  0  0  0
   -1.7222   -3.9238   -1.0537 O   0  0  0  0  0  0  0  0  0  0  0  0
   -3.6240   -4.5276   -1.9472 O   0  0  0  0  0  0  0  0  0  0  0  0
   -4.9777   -2.5115   -0.7156 C   0  0  0  0  0  0  0  0  0  0  0  0
   -5.6152   -1.4529   -0.0623 C   0  0  0  0  0  0  0  0  0  0  0  0
   -2.8507   -0.1693    1.6064 H   0  0  0  0  0  0  0  0  0  0  0  0
   -1.7539   -2.0560    0.3523 H   0  0  0  0  0  0  0  0  0  0  0  0
   -5.5955   -3.1593   -1.3435 H   0  0  0  0  0  0  0  0  0  0  0  0
   -6.7028   -1.3319   -0.1861 H   0  0  0  0  0  0  0  0  0  0  0  0
   -9.7874   -4.5155    0.7804 C   0  0  0  0  0  0  0  0  0  0  0  0
  -10.1051   -5.6801    1.4760 C   0  0  0  0  0  0  0  0  0  0  0  0
   -9.6723   -6.9356    1.0245 C   0  0  0  0  0  0  0  0  0  0  0  0
   -8.9097   -6.9907   -0.1496 C   0  0  0  0  0  0  0  0  0  0  0  0
   -8.5846   -5.8319   -0.8547 C   0  0  0  0  0  0  0  0  0  0  0  0
   -9.0248   -4.5933   -0.3872 C   0  0  0  0  0  0  0  0  0  0  0  0
  -10.1196   -3.5466    1.1378 H   0  0  0  0  0  0  0  0  0  0  0  0
  -10.6989   -5.6155    2.3851 H   0  0  0  0  0  0  0  0  0  0  0  0
   -8.5663   -7.9543   -0.5183 H   0  0  0  0  0  0  0  0  0  0  0  0
   -7.9896   -5.8760   -1.7605 H   0  0  0  0  0  0  0  0  0  0  0  0
   -8.6681   -3.1012   -1.3304 S   0  0  0  0  0  0  0  0  0  0  0  0
   -8.4292   -2.0428   -0.2779 O   0  0  0  0  0  0  0  0  0  0  0  0
   -9.8481   -2.8347   -2.1776 O   0  0  0  0  0  0  0  0  0  0  0  0
   -7.4163   -3.4036   -2.0918 O   0  0  0  0  0  0  0  0  0  0  0  0
   -9.9963   -8.1908    1.8001 C   0  0  0  0  0  0  0  0  0  0  0  0
   -9.2537   -8.3771    2.5866 H   0  0  0  0  0  0  0  0  0  0  0  0
  -10.9729   -8.1184    2.2890 H   0  0  0  0  0  0  0  0  0  0  0  0
  -10.0085   -9.0707    1.1499 H   0  0  0  0  0  0  0  0  0  0  0  0
  1  4  1  0  0  0  0
  1  2  1  0  0  0  0
  2  3  1  0  0  0  0
  4 12  1  0  0  0  0
  5 13  1  0  0  0  0
  5  4  2  0  0  0  0
  6  5  1  0  0  0  0
  7  8  2  0  0  0  0
  7  6  1  0  0  0  0
  9  7  2  0  0  0  0
 10  6  2  0  0  0  0
 10 11  1  0  0  0  0
 11  1  2  0  0  0  0
 14 10  1  0  0  0  0
 15 11  1  0  0  0  0
 16 22  1  0  0  0  0
 16 17  2  0  0  0  0
 17 23  1  0  0  0  0
 18 17  1  0  0  0  0
 18 30  1  0  0  0  0
 19 18  2  0  0  0  0
 20 21  2  0  0  0  0
 20 19  1  0  0  0  0
 21 16  1  0  0  0  0
 24 19  1  0  0  0  0
 25 20  1  0  0  0  0
 26 21  1  0  0  0  0
 26 27  1  0  0  0  0
 28 26  2  0  0  0  0
 29 26  2  0  0  0  0
 30 32  1  0  0  0  0
 30 31  1  0  0  0  0
 33 30  1  0  0  0  0
M  RAD  3   2   2   3   3  27   2
M  END
