Coordinates from ORCA-job 4-NO2PhN2+~TsO-_B3LYPG-6-31G_dp-NX-Scan-d89-09-n800
 OpenBabel11261920283D

 33 33  0  0  0  0  0  0  0  0999 V2000
   -4.5129   -2.4431    0.6213 C   0  0  0  0  0  0  0  0  0  0  0  0
   -5.3003   -3.0302    1.6352 N   0  0  0  0  0  0  0  0  0  0  0  0
   -5.5302   -3.3517    2.6858 N   0  0  0  0  0  0  0  0  0  0  0  0
   -3.8221   -1.2789    0.9969 C   0  0  0  0  0  0  0  0  0  0  0  0
   -2.9810   -0.7009    0.0571 C   0  0  0  0  0  0  0  0  0  0  0  0
   -2.8565   -1.3109   -1.1915 C   0  0  0  0  0  0  0  0  0  0  0  0
   -1.9425   -0.6918   -2.1813 N   0  0  0  0  0  0  0  0  0  0  0  0
   -1.3643    0.3366   -1.8403 O   0  0  0  0  0  0  0  0  0  0  0  0
   -1.8262   -1.2531   -3.2647 O   0  0  0  0  0  0  0  0  0  0  0  0
   -3.5496   -2.4649   -1.5488 C   0  0  0  0  0  0  0  0  0  0  0  0
   -4.4174   -3.0519   -0.6316 C   0  0  0  0  0  0  0  0  0  0  0  0
   -3.9493   -0.8459    1.9823 H   0  0  0  0  0  0  0  0  0  0  0  0
   -2.4241    0.2018    0.2728 H   0  0  0  0  0  0  0  0  0  0  0  0
   -3.4264   -2.8826   -2.5398 H   0  0  0  0  0  0  0  0  0  0  0  0
   -5.0348   -3.9197   -0.8837 H   0  0  0  0  0  0  0  0  0  0  0  0
   -9.6904   -4.4280    1.0008 C   0  0  0  0  0  0  0  0  0  0  0  0
  -10.6379   -5.2111    1.6603 C   0  0  0  0  0  0  0  0  0  0  0  0
  -10.8139   -6.5627    1.3366 C   0  0  0  0  0  0  0  0  0  0  0  0
  -10.0025   -7.1165    0.3350 C   0  0  0  0  0  0  0  0  0  0  0  0
   -9.0514   -6.3462   -0.3306 C   0  0  0  0  0  0  0  0  0  0  0  0
   -8.8979   -4.9993    0.0052 C   0  0  0  0  0  0  0  0  0  0  0  0
   -9.5522   -3.3844    1.2613 H   0  0  0  0  0  0  0  0  0  0  0  0
  -11.2505   -4.7650    2.4402 H   0  0  0  0  0  0  0  0  0  0  0  0
  -10.1170   -8.1660    0.0742 H   0  0  0  0  0  0  0  0  0  0  0  0
   -8.4165   -6.7800   -1.0957 H   0  0  0  0  0  0  0  0  0  0  0  0
   -7.7221   -3.9887   -0.9053 S   0  0  0  0  0  0  0  0  0  0  0  0
   -7.2121   -2.9773    0.1245 O   0  0  0  0  0  0  0  0  0  0  0  0
   -8.4576   -3.3577   -2.0245 O   0  0  0  0  0  0  0  0  0  0  0  0
   -6.6232   -4.9179   -1.3070 O   0  0  0  0  0  0  0  0  0  0  0  0
  -11.8591   -7.4024    2.0335 C   0  0  0  0  0  0  0  0  0  0  0  0
  -12.2306   -6.9106    2.9365 H   0  0  0  0  0  0  0  0  0  0  0  0
  -12.7205   -7.5848    1.3791 H   0  0  0  0  0  0  0  0  0  0  0  0
  -11.4617   -8.3813    2.3206 H   0  0  0  0  0  0  0  0  0  0  0  0
  1  4  1  0  0  0  0
  1  2  1  0  0  0  0
  2  3  2  0  0  0  0
  4 12  1  0  0  0  0
  5 13  1  0  0  0  0
  5  4  2  0  0  0  0
  6  5  1  0  0  0  0
  7  8  2  0  0  0  0
  7  6  1  0  0  0  0
  9  7  2  0  0  0  0
 10  6  2  0  0  0  0
 10 11  1  0  0  0  0
 11  1  2  0  0  0  0
 14 10  1  0  0  0  0
 15 11  1  0  0  0  0
 16 22  1  0  0  0  0
 16 17  2  0  0  0  0
 17 23  1  0  0  0  0
 18 17  1  0  0  0  0
 18 30  1  0  0  0  0
 19 18  2  0  0  0  0
 20 21  2  0  0  0  0
 20 19  1  0  0  0  0
 21 16  1  0  0  0  0
 24 19  1  0  0  0  0
 25 20  1  0  0  0  0
 26 21  1  0  0  0  0
 26 27  1  0  0  0  0
 28 26  2  0  0  0  0
 29 26  2  0  0  0  0
 30 33  1  0  0  0  0
 30 31  1  0  0  0  0
 32 30  1  0  0  0  0
M  RAD  2   3   2  27   2
M  END
