Coordinates from ORCA-job 4-NO2PhN2+~TsO-_B3LYPG-6-31G_dp-NX-Scan-d89-09-n800
 OpenBabel11261920283D

 33 33  0  0  0  0  0  0  0  0999 V2000
   -4.5093   -0.6905    1.2870 C   0  0  0  0  0  0  0  0  0  0  0  0
   -4.8553    0.0687    2.3783 N   0  0  0  0  0  0  0  0  0  0  0  0
   -5.0013    0.7052    3.2960 N   0  0  0  0  0  0  0  0  0  0  0  0
   -3.1226   -0.6763    0.9813 C   0  0  0  0  0  0  0  0  0  0  0  0
   -2.6950   -1.4327   -0.0882 C   0  0  0  0  0  0  0  0  0  0  0  0
   -3.6315   -2.1995   -0.7927 C   0  0  0  0  0  0  0  0  0  0  0  0
   -3.1038   -3.0348   -1.9014 N   0  0  0  0  0  0  0  0  0  0  0  0
   -1.9957   -2.7197   -2.3397 O   0  0  0  0  0  0  0  0  0  0  0  0
   -3.7968   -3.9647   -2.2769 O   0  0  0  0  0  0  0  0  0  0  0  0
   -4.9979   -2.2223   -0.5073 C   0  0  0  0  0  0  0  0  0  0  0  0
   -5.4641   -1.4306    0.5441 C   0  0  0  0  0  0  0  0  0  0  0  0
   -2.4333   -0.0885    1.5763 H   0  0  0  0  0  0  0  0  0  0  0  0
   -1.6551   -1.4524   -0.3893 H   0  0  0  0  0  0  0  0  0  0  0  0
   -5.7033   -2.8548   -1.0839 H   0  0  0  0  0  0  0  0  0  0  0  0
   -6.5312   -1.4116    0.7530 H   0  0  0  0  0  0  0  0  0  0  0  0
  -10.0524   -4.6873    0.2108 C   0  0  0  0  0  0  0  0  0  0  0  0
  -10.6050   -5.6760    1.0219 C   0  0  0  0  0  0  0  0  0  0  0  0
  -10.0385   -6.9576    1.0899 C   0  0  0  0  0  0  0  0  0  0  0  0
   -8.8946   -7.2216    0.3183 C   0  0  0  0  0  0  0  0  0  0  0  0
   -8.3349   -6.2419   -0.4967 C   0  0  0  0  0  0  0  0  0  0  0  0
   -8.9163   -4.9707   -0.5539 C   0  0  0  0  0  0  0  0  0  0  0  0
  -10.4880   -3.6945    0.1659 H   0  0  0  0  0  0  0  0  0  0  0  0
  -11.4919   -5.4545    1.6108 H   0  0  0  0  0  0  0  0  0  0  0  0
   -8.4409   -8.2096    0.3579 H   0  0  0  0  0  0  0  0  0  0  0  0
   -7.4482   -6.4392   -1.0894 H   0  0  0  0  0  0  0  0  0  0  0  0
   -8.2458   -3.7150   -1.6589 S   0  0  0  0  0  0  0  0  0  0  0  0
   -8.3456   -2.4374   -0.8785 O   0  0  0  0  0  0  0  0  0  0  0  0
   -9.0794   -3.7851   -2.8843 O   0  0  0  0  0  0  0  0  0  0  0  0
   -6.8128   -4.1154   -1.8619 O   0  0  0  0  0  0  0  0  0  0  0  0
  -10.6281   -8.0256    1.9793 C   0  0  0  0  0  0  0  0  0  0  0  0
   -9.9823   -8.2265    2.8434 H   0  0  0  0  0  0  0  0  0  0  0  0
  -11.6091   -7.7318    2.3617 H   0  0  0  0  0  0  0  0  0  0  0  0
  -10.7446   -8.9730    1.4418 H   0  0  0  0  0  0  0  0  0  0  0  0
  1  2  1  0  0  0  0
  2  3  1  0  0  0  0
  4  1  1  0  0  0  0
  4 12  1  0  0  0  0
  5  4  2  0  0  0  0
  6 10  2  0  0  0  0
  6  5  1  0  0  0  0
  7  6  1  0  0  0  0
  8  7  2  0  0  0  0
  9  7  2  0  0  0  0
 10 11  1  0  0  0  0
 11 15  1  0  0  0  0
 11  1  2  0  0  0  0
 13  5  1  0  0  0  0
 14 10  1  0  0  0  0
 16 17  2  0  0  0  0
 17 18  1  0  0  0  0
 17 23  1  0  0  0  0
 18 30  1  0  0  0  0
 19 24  1  0  0  0  0
 19 18  2  0  0  0  0
 20 19  1  0  0  0  0
 21 20  2  0  0  0  0
 21 16  1  0  0  0  0
 22 16  1  0  0  0  0
 25 20  1  0  0  0  0
 26 27  1  0  0  0  0
 26 21  1  0  0  0  0
 28 26  2  0  0  0  0
 29 26  2  0  0  0  0
 30 32  1  0  0  0  0
 30 31  1  0  0  0  0
 33 30  1  0  0  0  0
M  RAD  3   2   2   3   3  27   2
M  END
