Coordinates from ORCA-job 4-NO2PhN2+~TsO-_B3LYPG-6-31G_dp-NX-Scan-d89-09-n800
 OpenBabel11261920283D

 33 33  0  0  0  0  0  0  0  0999 V2000
   -4.1533   -2.9034    0.3287 C   0  0  0  0  0  0  0  0  0  0  0  0
   -4.6945   -3.7626    1.3364 N   0  0  0  0  0  0  0  0  0  0  0  0
   -4.5812   -4.1115    2.4024 N   0  0  0  0  0  0  0  0  0  0  0  0
   -3.2941   -1.8990    0.8019 C   0  0  0  0  0  0  0  0  0  0  0  0
   -2.7041   -1.0517   -0.1239 C   0  0  0  0  0  0  0  0  0  0  0  0
   -2.9826   -1.2445   -1.4777 C   0  0  0  0  0  0  0  0  0  0  0  0
   -2.3428   -0.3412   -2.4621 N   0  0  0  0  0  0  0  0  0  0  0  0
   -1.6104    0.5400   -2.0201 O   0  0  0  0  0  0  0  0  0  0  0  0
   -2.5910   -0.5353   -3.6474 O   0  0  0  0  0  0  0  0  0  0  0  0
   -3.8328   -2.2435   -1.9393 C   0  0  0  0  0  0  0  0  0  0  0  0
   -4.4403   -3.0968   -1.0200 C   0  0  0  0  0  0  0  0  0  0  0  0
   -3.1091   -1.7872    1.8639 H   0  0  0  0  0  0  0  0  0  0  0  0
   -2.0402   -0.2525    0.1802 H   0  0  0  0  0  0  0  0  0  0  0  0
   -4.0229   -2.3412   -3.0005 H   0  0  0  0  0  0  0  0  0  0  0  0
   -5.1342   -3.8695   -1.3221 H   0  0  0  0  0  0  0  0  0  0  0  0
   -9.3458   -4.8548    1.8624 C   0  0  0  0  0  0  0  0  0  0  0  0
  -10.4277   -5.6734    2.1808 C   0  0  0  0  0  0  0  0  0  0  0  0
  -11.0445   -6.4715    1.2067 C   0  0  0  0  0  0  0  0  0  0  0  0
  -10.5466   -6.4292   -0.1039 C   0  0  0  0  0  0  0  0  0  0  0  0
   -9.4669   -5.6151   -0.4389 C   0  0  0  0  0  0  0  0  0  0  0  0
   -8.8708   -4.8321    0.5507 C   0  0  0  0  0  0  0  0  0  0  0  0
   -8.8803   -4.2255    2.6131 H   0  0  0  0  0  0  0  0  0  0  0  0
  -10.8038   -5.6894    3.2006 H   0  0  0  0  0  0  0  0  0  0  0  0
  -11.0147   -7.0383   -0.8731 H   0  0  0  0  0  0  0  0  0  0  0  0
   -9.0923   -5.5699   -1.4556 H   0  0  0  0  0  0  0  0  0  0  0  0
   -7.4671   -3.7994    0.1344 S   0  0  0  0  0  0  0  0  0  0  0  0
   -6.2562   -4.7454    0.3884 O   0  0  0  0  0  0  0  0  0  0  0  0
   -7.4277   -2.6677    1.0842 O   0  0  0  0  0  0  0  0  0  0  0  0
   -7.5637   -3.4747   -1.3031 O   0  0  0  0  0  0  0  0  0  0  0  0
  -12.2386   -7.3296    1.5509 C   0  0  0  0  0  0  0  0  0  0  0  0
  -12.2439   -7.6040    2.6096 H   0  0  0  0  0  0  0  0  0  0  0  0
  -13.1763   -6.7973    1.3466 H   0  0  0  0  0  0  0  0  0  0  0  0
  -12.2541   -8.2501    0.9604 H   0  0  0  0  0  0  0  0  0  0  0  0
  1  4  1  0  0  0  0
  1  2  1  0  0  0  0
  2  3  2  0  0  0  0
  4 12  1  0  0  0  0
  5 13  1  0  0  0  0
  5  4  2  0  0  0  0
  6  5  1  0  0  0  0
  7  8  2  0  0  0  0
  7  6  1  0  0  0  0
  9  7  2  0  0  0  0
 10  6  2  0  0  0  0
 10 11  1  0  0  0  0
 11  1  2  0  0  0  0
 14 10  1  0  0  0  0
 15 11  1  0  0  0  0
 16 17  1  0  0  0  0
 16 22  1  0  0  0  0
 17 23  1  0  0  0  0
 18 30  1  0  0  0  0
 18 17  2  0  0  0  0
 19 18  1  0  0  0  0
 20 19  2  0  0  0  0
 20 21  1  0  0  0  0
 21 16  2  0  0  0  0
 24 19  1  0  0  0  0
 25 20  1  0  0  0  0
 26 27  2  0  0  0  0
 26 21  1  0  0  0  0
 26 28  1  0  0  0  0
 29 26  2  0  0  0  0
 30 31  1  0  0  0  0
 32 30  1  0  0  0  0
 33 30  1  0  0  0  0
M  RAD  2   3   2  28   2
M  END
