Coordinates from ORCA-job 4-NO2PhN2+~TsO-_B3LYPG-6-31G_dp-NX-Scan-d89-09-n800
 OpenBabel11261920283D

 33 33  0  0  0  0  0  0  0  0999 V2000
   -4.6109   -1.5263    0.3541 C   0  0  0  0  0  0  0  0  0  0  0  0
   -5.6012   -1.2371    1.2841 N   0  0  0  0  0  0  0  0  0  0  0  0
   -6.4635   -1.0357    1.9773 N   0  0  0  0  0  0  0  0  0  0  0  0
   -3.2896   -1.2210    0.7211 C   0  0  0  0  0  0  0  0  0  0  0  0
   -2.2803   -1.4847   -0.1921 C   0  0  0  0  0  0  0  0  0  0  0  0
   -2.6304   -2.0216   -1.4319 C   0  0  0  0  0  0  0  0  0  0  0  0
   -1.5470   -2.2921   -2.4070 N   0  0  0  0  0  0  0  0  0  0  0  0
   -0.3999   -2.0300   -2.0555 O   0  0  0  0  0  0  0  0  0  0  0  0
   -1.8729   -2.7556   -3.4946 O   0  0  0  0  0  0  0  0  0  0  0  0
   -3.9431   -2.3111   -1.7949 C   0  0  0  0  0  0  0  0  0  0  0  0
   -4.9720   -2.0738   -0.8875 C   0  0  0  0  0  0  0  0  0  0  0  0
   -3.0725   -0.7983    1.6950 H   0  0  0  0  0  0  0  0  0  0  0  0
   -1.2414   -1.2798    0.0311 H   0  0  0  0  0  0  0  0  0  0  0  0
   -4.1494   -2.7299   -2.7713 H   0  0  0  0  0  0  0  0  0  0  0  0
   -6.0131   -2.3045   -1.1134 H   0  0  0  0  0  0  0  0  0  0  0  0
   -8.6717   -5.8115    1.5298 C   0  0  0  0  0  0  0  0  0  0  0  0
   -9.5859   -6.8566    1.6668 C   0  0  0  0  0  0  0  0  0  0  0  0
  -10.8196   -6.8321    1.0037 C   0  0  0  0  0  0  0  0  0  0  0  0
  -11.1150   -5.7310    0.1846 C   0  0  0  0  0  0  0  0  0  0  0  0
  -10.2121   -4.6818    0.0355 C   0  0  0  0  0  0  0  0  0  0  0  0
   -8.9913   -4.7276    0.7134 C   0  0  0  0  0  0  0  0  0  0  0  0
   -7.7105   -5.8366    2.0308 H   0  0  0  0  0  0  0  0  0  0  0  0
   -9.3343   -7.7076    2.2951 H   0  0  0  0  0  0  0  0  0  0  0  0
  -12.0631   -5.6996   -0.3465 H   0  0  0  0  0  0  0  0  0  0  0  0
  -10.4345   -3.8398   -0.6115 H   0  0  0  0  0  0  0  0  0  0  0  0
   -7.8420   -3.3647    0.5611 S   0  0  0  0  0  0  0  0  0  0  0  0
   -6.4760   -3.8962    0.8381 O   0  0  0  0  0  0  0  0  0  0  0  0
   -8.2496   -2.3599    1.6213 O   0  0  0  0  0  0  0  0  0  0  0  0
   -7.9963   -2.8192   -0.8166 O   0  0  0  0  0  0  0  0  0  0  0  0
  -11.8159   -7.9559    1.1663 C   0  0  0  0  0  0  0  0  0  0  0  0
  -11.3740   -8.8120    1.6832 H   0  0  0  0  0  0  0  0  0  0  0  0
  -12.6870   -7.6309    1.7481 H   0  0  0  0  0  0  0  0  0  0  0  0
  -12.1890   -8.3024    0.1969 H   0  0  0  0  0  0  0  0  0  0  0  0
  1  4  1  0  0  0  0
  1  2  1  0  0  0  0
  2  3  1  0  0  0  0
  4 12  1  0  0  0  0
  5 13  1  0  0  0  0
  5  4  2  0  0  0  0
  6  5  1  0  0  0  0
  7  8  2  0  0  0  0
  7  6  1  0  0  0  0
  9  7  2  0  0  0  0
 10  6  2  0  0  0  0
 10 11  1  0  0  0  0
 11  1  2  0  0  0  0
 14 10  1  0  0  0  0
 15 11  1  0  0  0  0
 16 17  1  0  0  0  0
 16 22  1  0  0  0  0
 17 23  1  0  0  0  0
 18 30  1  0  0  0  0
 18 17  2  0  0  0  0
 19 18  1  0  0  0  0
 20 19  2  0  0  0  0
 20 21  1  0  0  0  0
 21 16  2  0  0  0  0
 24 19  1  0  0  0  0
 25 20  1  0  0  0  0
 26 21  1  0  0  0  0
 26 27  2  0  0  0  0
 26 28  1  0  0  0  0
 29 26  2  0  0  0  0
 30 31  1  0  0  0  0
 30 32  1  0  0  0  0
 33 30  1  0  0  0  0
M  RAD  3   2   2   3   3  28   2
M  END
