Coordinates from ORCA-job 4-NO2PhN2+~TsO-_B3LYPG-6-31G_dp-NX-Scan-d89-09-n800
 OpenBabel11261920283D

 33 33  0  0  0  0  0  0  0  0999 V2000
   -4.7443   -0.6794    0.5999 C   0  0  0  0  0  0  0  0  0  0  0  0
   -5.5941    0.1808    1.2533 N   0  0  0  0  0  0  0  0  0  0  0  0
   -6.3014    0.8591    1.7917 N   0  0  0  0  0  0  0  0  0  0  0  0
   -3.3556   -0.4013    0.6078 C   0  0  0  0  0  0  0  0  0  0  0  0
   -2.5438   -1.2927   -0.0620 C   0  0  0  0  0  0  0  0  0  0  0  0
   -3.1264   -2.4058   -0.6945 C   0  0  0  0  0  0  0  0  0  0  0  0
   -2.2153   -3.3457   -1.3962 N   0  0  0  0  0  0  0  0  0  0  0  0
   -1.0159   -3.0753   -1.3750 O   0  0  0  0  0  0  0  0  0  0  0  0
   -2.7232   -4.3184   -1.9372 O   0  0  0  0  0  0  0  0  0  0  0  0
   -4.4905   -2.6677   -0.6944 C   0  0  0  0  0  0  0  0  0  0  0  0
   -5.3424   -1.7791   -0.0367 C   0  0  0  0  0  0  0  0  0  0  0  0
   -2.9555    0.4688    1.1152 H   0  0  0  0  0  0  0  0  0  0  0  0
   -1.4707   -1.1578   -0.1101 H   0  0  0  0  0  0  0  0  0  0  0  0
   -4.9343   -3.5188   -1.2010 H   0  0  0  0  0  0  0  0  0  0  0  0
   -6.4370   -1.9320    0.0024 H   0  0  0  0  0  0  0  0  0  0  0  0
   -9.8772   -4.6402    1.0228 C   0  0  0  0  0  0  0  0  0  0  0  0
  -10.4067   -5.8057    1.5725 C   0  0  0  0  0  0  0  0  0  0  0  0
  -10.1395   -7.0611    1.0068 C   0  0  0  0  0  0  0  0  0  0  0  0
   -9.3246   -7.1153   -0.1319 C   0  0  0  0  0  0  0  0  0  0  0  0
   -8.7881   -5.9559   -0.6912 C   0  0  0  0  0  0  0  0  0  0  0  0
   -9.0667   -4.7177   -0.1118 C   0  0  0  0  0  0  0  0  0  0  0  0
  -10.0801   -3.6726    1.4688 H   0  0  0  0  0  0  0  0  0  0  0  0
  -11.0368   -5.7419    2.4568 H   0  0  0  0  0  0  0  0  0  0  0  0
   -9.1066   -8.0786   -0.5869 H   0  0  0  0  0  0  0  0  0  0  0  0
   -8.1515   -6.0001   -1.5684 H   0  0  0  0  0  0  0  0  0  0  0  0
   -8.4339   -3.2139   -0.8715 S   0  0  0  0  0  0  0  0  0  0  0  0
   -8.1321   -2.2992    0.2970 O   0  0  0  0  0  0  0  0  0  0  0  0
   -9.4917   -2.6892   -1.7567 O   0  0  0  0  0  0  0  0  0  0  0  0
   -7.1750   -3.6183   -1.5706 O   0  0  0  0  0  0  0  0  0  0  0  0
  -10.6917   -8.3229    1.6280 C   0  0  0  0  0  0  0  0  0  0  0  0
  -10.0317   -8.6984    2.4207 H   0  0  0  0  0  0  0  0  0  0  0  0
  -11.6731   -8.1499    2.0801 H   0  0  0  0  0  0  0  0  0  0  0  0
  -10.7970   -9.1209    0.8867 H   0  0  0  0  0  0  0  0  0  0  0  0
  1  4  1  0  0  0  0
  1  2  1  0  0  0  0
  2  3  1  0  0  0  0
  4 12  1  0  0  0  0
  5  4  2  0  0  0  0
  6 10  2  0  0  0  0
  6  5  1  0  0  0  0
  7  8  2  0  0  0  0
  7  6  1  0  0  0  0
  9  7  2  0  0  0  0
 10 11  1  0  0  0  0
 11 15  1  0  0  0  0
 11  1  2  0  0  0  0
 13  5  1  0  0  0  0
 14 10  1  0  0  0  0
 16 22  1  0  0  0  0
 16 17  1  0  0  0  0
 17 23  1  0  0  0  0
 18 17  2  0  0  0  0
 18 30  1  0  0  0  0
 19 18  1  0  0  0  0
 20 19  2  0  0  0  0
 20 21  1  0  0  0  0
 21 16  2  0  0  0  0
 24 19  1  0  0  0  0
 25 20  1  0  0  0  0
 26 21  1  0  0  0  0
 26 27  1  0  0  0  0
 28 26  2  0  0  0  0
 29 26  2  0  0  0  0
 30 32  1  0  0  0  0
 30 31  1  0  0  0  0
 33 30  1  0  0  0  0
M  RAD  3   2   2   3   3  27   2
M  END
