Coordinates from ORCA-job 4-NO2PhN2+~TsO-_B3LYPG-6-31G_dp-NX-Scan-d89-09-n800
 OpenBabel11261920283D

 33 33  0  0  0  0  0  0  0  0999 V2000
   -4.6636   -0.8377    1.1472 C   0  0  0  0  0  0  0  0  0  0  0  0
   -5.1854   -0.1369    2.2056 N   0  0  0  0  0  0  0  0  0  0  0  0
   -5.5271    0.4512    3.0980 N   0  0  0  0  0  0  0  0  0  0  0  0
   -3.2486   -0.7940    1.0288 C   0  0  0  0  0  0  0  0  0  0  0  0
   -2.6783   -1.4935   -0.0121 C   0  0  0  0  0  0  0  0  0  0  0  0
   -3.5134   -2.2046   -0.8872 C   0  0  0  0  0  0  0  0  0  0  0  0
   -2.8528   -2.9456   -1.9952 N   0  0  0  0  0  0  0  0  0  0  0  0
   -1.6221   -2.9888   -1.9689 O   0  0  0  0  0  0  0  0  0  0  0  0
   -3.5754   -3.4464   -2.8413 O   0  0  0  0  0  0  0  0  0  0  0  0
   -4.8989   -2.2526   -0.7735 C   0  0  0  0  0  0  0  0  0  0  0  0
   -5.5107   -1.5465    0.2669 C   0  0  0  0  0  0  0  0  0  0  0  0
   -2.6496   -0.2321    1.7362 H   0  0  0  0  0  0  0  0  0  0  0  0
   -1.6065   -1.5118   -0.1648 H   0  0  0  0  0  0  0  0  0  0  0  0
   -5.5391   -2.8552   -1.4399 H   0  0  0  0  0  0  0  0  0  0  0  0
   -6.6041   -1.6010    0.3365 H   0  0  0  0  0  0  0  0  0  0  0  0
  -10.0190   -4.6273    0.3750 C   0  0  0  0  0  0  0  0  0  0  0  0
  -10.5668   -5.6426    1.1551 C   0  0  0  0  0  0  0  0  0  0  0  0
  -10.0236   -6.9364    1.1469 C   0  0  0  0  0  0  0  0  0  0  0  0
   -8.9107   -7.1844    0.3293 C   0  0  0  0  0  0  0  0  0  0  0  0
   -8.3540   -6.1762   -0.4555 C   0  0  0  0  0  0  0  0  0  0  0  0
   -8.9098   -4.8948   -0.4335 C   0  0  0  0  0  0  0  0  0  0  0  0
  -10.4413   -3.6277    0.3883 H   0  0  0  0  0  0  0  0  0  0  0  0
  -11.4329   -5.4329    1.7784 H   0  0  0  0  0  0  0  0  0  0  0  0
   -8.4777   -8.1821    0.3058 H   0  0  0  0  0  0  0  0  0  0  0  0
   -7.4929   -6.3626   -1.0878 H   0  0  0  0  0  0  0  0  0  0  0  0
   -8.2445   -3.5966   -1.4906 S   0  0  0  0  0  0  0  0  0  0  0  0
   -8.1665   -2.3924   -0.5842 O   0  0  0  0  0  0  0  0  0  0  0  0
   -9.1946   -3.4497   -2.6134 O   0  0  0  0  0  0  0  0  0  0  0  0
   -6.8810   -4.0798   -1.8807 O   0  0  0  0  0  0  0  0  0  0  0  0
  -10.6044   -8.0294    2.0123 C   0  0  0  0  0  0  0  0  0  0  0  0
  -10.0197   -8.1629    2.9313 H   0  0  0  0  0  0  0  0  0  0  0  0
  -11.6317   -7.8015    2.3098 H   0  0  0  0  0  0  0  0  0  0  0  0
  -10.6079   -8.9925    1.4915 H   0  0  0  0  0  0  0  0  0  0  0  0
  1  2  1  0  0  0  0
  2  3  1  0  0  0  0
  4  1  1  0  0  0  0
  4 12  1  0  0  0  0
  5  4  2  0  0  0  0
  6 10  2  0  0  0  0
  6  5  1  0  0  0  0
  7  8  2  0  0  0  0
  7  6  1  0  0  0  0
  9  7  2  0  0  0  0
 10 11  1  0  0  0  0
 11 15  1  0  0  0  0
 11  1  2  0  0  0  0
 13  5  1  0  0  0  0
 14 10  1  0  0  0  0
 16 22  1  0  0  0  0
 16 17  2  0  0  0  0
 17 23  1  0  0  0  0
 18 17  1  0  0  0  0
 18 30  1  0  0  0  0
 19 18  2  0  0  0  0
 20 21  2  0  0  0  0
 20 19  1  0  0  0  0
 21 16  1  0  0  0  0
 24 19  1  0  0  0  0
 25 20  1  0  0  0  0
 26 27  1  0  0  0  0
 26 21  1  0  0  0  0
 28 26  2  0  0  0  0
 29 26  2  0  0  0  0
 30 32  1  0  0  0  0
 30 31  1  0  0  0  0
 33 30  1  0  0  0  0
M  RAD  3   2   2   3   3  27   2
M  END
