Coordinates from ORCA-job 4-NO2PhN2+~TsO-_B3LYPG-6-31G_dp-NX-Scan-d89-09-n800
 OpenBabel11261920283D

 33 33  0  0  0  0  0  0  0  0999 V2000
   -5.7715   -2.2915    0.0043 C   0  0  0  0  0  0  0  0  0  0  0  0
   -7.1720   -2.2943    0.2978 N   0  0  0  0  0  0  0  0  0  0  0  0
   -7.9441   -2.2193    1.1197 N   0  0  0  0  0  0  0  0  0  0  0  0
   -4.9386   -1.8628    1.0490 C   0  0  0  0  0  0  0  0  0  0  0  0
   -3.5668   -1.8594    0.8385 C   0  0  0  0  0  0  0  0  0  0  0  0
   -3.0812   -2.2932   -0.3951 C   0  0  0  0  0  0  0  0  0  0  0  0
   -1.6160   -2.2914   -0.6135 N   0  0  0  0  0  0  0  0  0  0  0  0
   -0.9121   -1.9042    0.3155 O   0  0  0  0  0  0  0  0  0  0  0  0
   -1.2100   -2.6774   -1.7045 O   0  0  0  0  0  0  0  0  0  0  0  0
   -3.9119   -2.7271   -1.4236 C   0  0  0  0  0  0  0  0  0  0  0  0
   -5.2931   -2.7248   -1.2320 C   0  0  0  0  0  0  0  0  0  0  0  0
   -5.3628   -1.5384    1.9921 H   0  0  0  0  0  0  0  0  0  0  0  0
   -2.8751   -1.5313    1.6035 H   0  0  0  0  0  0  0  0  0  0  0  0
   -3.4801   -3.0561   -2.3602 H   0  0  0  0  0  0  0  0  0  0  0  0
   -5.9796   -3.0462   -2.0074 H   0  0  0  0  0  0  0  0  0  0  0  0
  -10.1074   -4.2750    0.2194 C   0  0  0  0  0  0  0  0  0  0  0  0
  -10.3273   -5.0815    1.3356 C   0  0  0  0  0  0  0  0  0  0  0  0
   -9.4942   -6.1740    1.6176 C   0  0  0  0  0  0  0  0  0  0  0  0
   -8.4275   -6.4405    0.7463 C   0  0  0  0  0  0  0  0  0  0  0  0
   -8.1929   -5.6409   -0.3721 C   0  0  0  0  0  0  0  0  0  0  0  0
   -9.0321   -4.5547   -0.6284 C   0  0  0  0  0  0  0  0  0  0  0  0
  -10.7684   -3.4458   -0.0090 H   0  0  0  0  0  0  0  0  0  0  0  0
  -11.1638   -4.8651    1.9952 H   0  0  0  0  0  0  0  0  0  0  0  0
   -7.7792   -7.2912    0.9407 H   0  0  0  0  0  0  0  0  0  0  0  0
   -7.3840   -5.8614   -1.0609 H   0  0  0  0  0  0  0  0  0  0  0  0
   -8.7312   -3.4966   -2.0505 S   0  0  0  0  0  0  0  0  0  0  0  0
   -7.9972   -2.2360   -1.4954 O   0  0  0  0  0  0  0  0  0  0  0  0
  -10.0454   -3.0662   -2.5283 O   0  0  0  0  0  0  0  0  0  0  0  0
   -7.8192   -4.2451   -2.9383 O   0  0  0  0  0  0  0  0  0  0  0  0
   -9.7615   -7.0644    2.8078 C   0  0  0  0  0  0  0  0  0  0  0  0
  -10.2614   -6.5184    3.6132 H   0  0  0  0  0  0  0  0  0  0  0  0
  -10.4116   -7.9036    2.5312 H   0  0  0  0  0  0  0  0  0  0  0  0
   -8.8356   -7.4892    3.2065 H   0  0  0  0  0  0  0  0  0  0  0  0
  1  2  1  0  0  0  0
  1  4  2  0  0  0  0
  2  3  2  0  0  0  0
  4 12  1  0  0  0  0
  5  4  1  0  0  0  0
  5 13  1  0  0  0  0
  6  5  2  0  0  0  0
  7  6  1  0  0  0  0
  7  8  2  0  0  0  0
  9  7  2  0  0  0  0
 10 11  2  0  0  0  0
 10  6  1  0  0  0  0
 11  1  1  0  0  0  0
 14 10  1  0  0  0  0
 15 11  1  0  0  0  0
 16 17  2  0  0  0  0
 17 18  1  0  0  0  0
 17 23  1  0  0  0  0
 18 30  1  0  0  0  0
 19 24  1  0  0  0  0
 19 18  2  0  0  0  0
 20 19  1  0  0  0  0
 21 20  2  0  0  0  0
 21 16  1  0  0  0  0
 22 16  1  0  0  0  0
 25 20  1  0  0  0  0
 26 27  1  0  0  0  0
 26 21  1  0  0  0  0
 28 26  2  0  0  0  0
 29 26  2  0  0  0  0
 30 33  1  0  0  0  0
 30 31  1  0  0  0  0
 32 30  1  0  0  0  0
M  RAD  2   3   2  27   2
M  END
