Coordinates from ORCA-job 4-NO2PhN2+~TsO-_B3LYPG-6-31G_dp-NX-Scan-d89-09-n800
 OpenBabel11261920283D

 33 34  0  0  0  0  0  0  0  0999 V2000
   -4.4919   -2.9394    0.3108 C   0  0  0  0  0  0  0  0  0  0  0  0
   -4.9981   -3.9465    1.1891 N   0  0  0  0  0  0  0  0  0  0  0  0
   -5.7045   -4.9002    0.7830 N   0  0  0  0  0  0  0  0  0  0  0  0
   -4.5210   -1.6353    0.8311 C   0  0  0  0  0  0  0  0  0  0  0  0
   -3.9795   -0.5751    0.1158 C   0  0  0  0  0  0  0  0  0  0  0  0
   -3.3706   -0.8398   -1.1101 C   0  0  0  0  0  0  0  0  0  0  0  0
   -2.7840    0.2726   -1.8699 N   0  0  0  0  0  0  0  0  0  0  0  0
   -2.8683    1.4014   -1.3857 O   0  0  0  0  0  0  0  0  0  0  0  0
   -2.2446    0.0096   -2.9445 O   0  0  0  0  0  0  0  0  0  0  0  0
   -3.2943   -2.1306   -1.6321 C   0  0  0  0  0  0  0  0  0  0  0  0
   -3.8633   -3.1828   -0.9238 C   0  0  0  0  0  0  0  0  0  0  0  0
   -4.9746   -1.4751    1.8030 H   0  0  0  0  0  0  0  0  0  0  0  0
   -4.0052    0.4402    0.4913 H   0  0  0  0  0  0  0  0  0  0  0  0
   -2.8037   -2.2905   -2.5836 H   0  0  0  0  0  0  0  0  0  0  0  0
   -3.8136   -4.1865   -1.3263 H   0  0  0  0  0  0  0  0  0  0  0  0
   -8.5657   -6.5249    1.3762 C   0  0  0  0  0  0  0  0  0  0  0  0
   -9.7400   -6.2830    2.0843 C   0  0  0  0  0  0  0  0  0  0  0  0
  -10.8057   -5.5762    1.5071 C   0  0  0  0  0  0  0  0  0  0  0  0
  -10.6734   -5.1154    0.1870 C   0  0  0  0  0  0  0  0  0  0  0  0
   -9.5100   -5.3403   -0.5412 C   0  0  0  0  0  0  0  0  0  0  0  0
   -8.4684   -6.0478    0.0669 C   0  0  0  0  0  0  0  0  0  0  0  0
   -7.7444   -7.0758    1.8191 H   0  0  0  0  0  0  0  0  0  0  0  0
   -9.8313   -6.6523    3.1011 H   0  0  0  0  0  0  0  0  0  0  0  0
  -11.4954   -4.5775   -0.2769 H   0  0  0  0  0  0  0  0  0  0  0  0
   -9.4099   -4.9927   -1.5631 H   0  0  0  0  0  0  0  0  0  0  0  0
   -6.9871   -6.3453   -0.8546 S   0  0  0  0  0  0  0  0  0  0  0  0
   -6.2758   -7.4972   -0.3290 O   0  0  0  0  0  0  0  0  0  0  0  0
   -6.0010   -4.9207   -0.4213 O   0  0  0  0  0  0  0  0  0  0  0  0
   -7.1913   -6.0988   -2.2705 O   0  0  0  0  0  0  0  0  0  0  0  0
  -12.0635   -5.2974    2.2913 C   0  0  0  0  0  0  0  0  0  0  0  0
  -12.1710   -5.9822    3.1359 H   0  0  0  0  0  0  0  0  0  0  0  0
  -12.0499   -4.2770    2.6930 H   0  0  0  0  0  0  0  0  0  0  0  0
  -12.9537   -5.3848    1.6611 H   0  0  0  0  0  0  0  0  0  0  0  0
  1  4  1  0  0  0  0
  1  2  1  0  0  0  0
  3  2  2  0  0  0  0
  4 12  1  0  0  0  0
  5 13  1  0  0  0  0
  5  4  2  0  0  0  0
  6  5  1  0  0  0  0
  7  8  2  0  0  0  0
  7  6  1  0  0  0  0
  9  7  2  0  0  0  0
 10  6  2  0  0  0  0
 10 11  1  0  0  0  0
 11  1  2  0  0  0  0
 14 10  1  0  0  0  0
 15 11  1  0  0  0  0
 16 22  1  0  0  0  0
 16 17  2  0  0  0  0
 17 23  1  0  0  0  0
 18 17  1  0  0  0  0
 18 30  1  0  0  0  0
 19 18  2  0  0  0  0
 20 21  2  0  0  0  0
 20 19  1  0  0  0  0
 21 16  1  0  0  0  0
 24 19  1  0  0  0  0
 25 20  1  0  0  0  0
 26 28  1  0  0  0  0
 26 27  2  0  0  0  0
 26 21  1  0  0  0  0
 28  3  1  0  0  0  0
 29 26  2  0  0  0  0
 30 32  1  0  0  0  0
 30 31  1  0  0  0  0
 33 30  1  0  0  0  0
M  END
