Coordinates from ORCA-job 4-NO2PhN2+~TsO-_B3LYPG-6-31G_dp-NX-Scan-d89-09-n800
 OpenBabel11261920283D

 33 33  0  0  0  0  0  0  0  0999 V2000
   -4.8128   -0.6497    0.7464 C   0  0  0  0  0  0  0  0  0  0  0  0
   -5.4124    0.3823    1.4200 N   0  0  0  0  0  0  0  0  0  0  0  0
   -5.8541    1.2335    2.0013 N   0  0  0  0  0  0  0  0  0  0  0  0
   -3.4103   -0.7881    0.9230 C   0  0  0  0  0  0  0  0  0  0  0  0
   -2.7875   -1.8140    0.2470 C   0  0  0  0  0  0  0  0  0  0  0  0
   -3.5645   -2.6687   -0.5530 C   0  0  0  0  0  0  0  0  0  0  0  0
   -2.8627   -3.7807   -1.2424 N   0  0  0  0  0  0  0  0  0  0  0  0
   -1.6493   -3.8678   -1.0557 O   0  0  0  0  0  0  0  0  0  0  0  0
   -3.5382   -4.5249   -1.9386 O   0  0  0  0  0  0  0  0  0  0  0  0
   -4.9376   -2.5350   -0.7165 C   0  0  0  0  0  0  0  0  0  0  0  0
   -5.5997   -1.4868   -0.0707 C   0  0  0  0  0  0  0  0  0  0  0  0
   -2.8608   -0.1124    1.5683 H   0  0  0  0  0  0  0  0  0  0  0  0
   -1.7214   -1.9838    0.3287 H   0  0  0  0  0  0  0  0  0  0  0  0
   -5.5410   -3.2031   -1.3346 H   0  0  0  0  0  0  0  0  0  0  0  0
   -6.6923   -1.3918   -0.1864 H   0  0  0  0  0  0  0  0  0  0  0  0
   -9.7884   -4.5208    0.8081 C   0  0  0  0  0  0  0  0  0  0  0  0
  -10.1187   -5.6894    1.4913 C   0  0  0  0  0  0  0  0  0  0  0  0
   -9.7058   -6.9451    1.0223 C   0  0  0  0  0  0  0  0  0  0  0  0
   -8.9506   -6.9966   -0.1567 C   0  0  0  0  0  0  0  0  0  0  0  0
   -8.6129   -5.8340   -0.8494 C   0  0  0  0  0  0  0  0  0  0  0  0
   -9.0333   -4.5951   -0.3644 C   0  0  0  0  0  0  0  0  0  0  0  0
  -10.1048   -3.5517    1.1788 H   0  0  0  0  0  0  0  0  0  0  0  0
  -10.7064   -5.6275    2.4044 H   0  0  0  0  0  0  0  0  0  0  0  0
   -8.6226   -7.9603   -0.5389 H   0  0  0  0  0  0  0  0  0  0  0  0
   -8.0232   -5.8755   -1.7588 H   0  0  0  0  0  0  0  0  0  0  0  0
   -8.6600   -3.0974   -1.2922 S   0  0  0  0  0  0  0  0  0  0  0  0
   -8.4194   -2.0497   -0.2287 O   0  0  0  0  0  0  0  0  0  0  0  0
   -9.8327   -2.8135   -2.1436 O   0  0  0  0  0  0  0  0  0  0  0  0
   -7.4055   -3.4017   -2.0481 O   0  0  0  0  0  0  0  0  0  0  0  0
  -10.0425   -8.2051    1.7847 C   0  0  0  0  0  0  0  0  0  0  0  0
   -9.2953   -8.4131    2.5614 H   0  0  0  0  0  0  0  0  0  0  0  0
  -11.0130   -8.1237    2.2840 H   0  0  0  0  0  0  0  0  0  0  0  0
  -10.0749   -9.0761    1.1234 H   0  0  0  0  0  0  0  0  0  0  0  0
  1  4  1  0  0  0  0
  1  2  1  0  0  0  0
  2  3  1  0  0  0  0
  4 12  1  0  0  0  0
  5 13  1  0  0  0  0
  5  4  2  0  0  0  0
  6  5  1  0  0  0  0
  7  8  2  0  0  0  0
  7  6  1  0  0  0  0
  9  7  2  0  0  0  0
 10  6  2  0  0  0  0
 10 11  1  0  0  0  0
 11  1  2  0  0  0  0
 14 10  1  0  0  0  0
 15 11  1  0  0  0  0
 16 22  1  0  0  0  0
 16 17  2  0  0  0  0
 17 23  1  0  0  0  0
 18 17  1  0  0  0  0
 18 30  1  0  0  0  0
 19 18  2  0  0  0  0
 20 21  2  0  0  0  0
 20 19  1  0  0  0  0
 21 16  1  0  0  0  0
 24 19  1  0  0  0  0
 25 20  1  0  0  0  0
 26 21  1  0  0  0  0
 26 27  1  0  0  0  0
 28 26  2  0  0  0  0
 29 26  2  0  0  0  0
 30 32  1  0  0  0  0
 30 31  1  0  0  0  0
 33 30  1  0  0  0  0
M  RAD  3   2   2   3   3  27   2
M  END
