Coordinates from ORCA-job 4-NO2PhN2+~TsO-_B3LYPG-6-31G_dp-NX-Scan-d89-09-n800
 OpenBabel11261920283D

 33 33  0  0  0  0  0  0  0  0999 V2000
   -4.7396   -0.6734    0.5908 C   0  0  0  0  0  0  0  0  0  0  0  0
   -5.5941    0.1859    1.2395 N   0  0  0  0  0  0  0  0  0  0  0  0
   -6.3076    0.8614    1.7732 N   0  0  0  0  0  0  0  0  0  0  0  0
   -3.3530   -0.3857    0.5905 C   0  0  0  0  0  0  0  0  0  0  0  0
   -2.5381   -1.2774   -0.0752 C   0  0  0  0  0  0  0  0  0  0  0  0
   -3.1159   -2.3995   -0.6962 C   0  0  0  0  0  0  0  0  0  0  0  0
   -2.2016   -3.3389   -1.3943 N   0  0  0  0  0  0  0  0  0  0  0  0
   -1.0041   -3.0597   -1.3817 O   0  0  0  0  0  0  0  0  0  0  0  0
   -2.7054   -4.3187   -1.9263 O   0  0  0  0  0  0  0  0  0  0  0  0
   -4.4782   -2.6703   -0.6884 C   0  0  0  0  0  0  0  0  0  0  0  0
   -5.3330   -1.7823   -0.0338 C   0  0  0  0  0  0  0  0  0  0  0  0
   -2.9566    0.4914    1.0887 H   0  0  0  0  0  0  0  0  0  0  0  0
   -1.4661   -1.1359   -0.1290 H   0  0  0  0  0  0  0  0  0  0  0  0
   -4.9178   -3.5281   -1.1874 H   0  0  0  0  0  0  0  0  0  0  0  0
   -6.4263   -1.9405    0.0126 H   0  0  0  0  0  0  0  0  0  0  0  0
   -9.8805   -4.6473    1.0320 C   0  0  0  0  0  0  0  0  0  0  0  0
  -10.4162   -5.8133    1.5745 C   0  0  0  0  0  0  0  0  0  0  0  0
  -10.1525   -7.0670    1.0034 C   0  0  0  0  0  0  0  0  0  0  0  0
   -9.3347   -7.1189   -0.1333 C   0  0  0  0  0  0  0  0  0  0  0  0
   -8.7920   -5.9590   -0.6854 C   0  0  0  0  0  0  0  0  0  0  0  0
   -9.0671   -4.7226   -0.1006 C   0  0  0  0  0  0  0  0  0  0  0  0
  -10.0806   -3.6811    1.4825 H   0  0  0  0  0  0  0  0  0  0  0  0
  -11.0485   -5.7512    2.4574 H   0  0  0  0  0  0  0  0  0  0  0  0
   -9.1193   -8.0808   -0.5924 H   0  0  0  0  0  0  0  0  0  0  0  0
   -8.1530   -6.0013   -1.5610 H   0  0  0  0  0  0  0  0  0  0  0  0
   -8.4257   -3.2176   -0.8505 S   0  0  0  0  0  0  0  0  0  0  0  0
   -8.1168   -2.3129    0.3240 O   0  0  0  0  0  0  0  0  0  0  0  0
   -9.4812   -2.6793   -1.7304 O   0  0  0  0  0  0  0  0  0  0  0  0
   -7.1702   -3.6244   -1.5542 O   0  0  0  0  0  0  0  0  0  0  0  0
  -10.7116   -8.3294    1.6170 C   0  0  0  0  0  0  0  0  0  0  0  0
  -10.0581   -8.7084    2.4133 H   0  0  0  0  0  0  0  0  0  0  0  0
  -11.6960   -8.1558    2.0626 H   0  0  0  0  0  0  0  0  0  0  0  0
  -10.8132   -9.1251    0.8727 H   0  0  0  0  0  0  0  0  0  0  0  0
  1  2  1  0  0  0  0
  2  3  1  0  0  0  0
  4  1  1  0  0  0  0
  4 12  1  0  0  0  0
  5  4  2  0  0  0  0
  6 10  2  0  0  0  0
  6  5  1  0  0  0  0
  7  8  2  0  0  0  0
  7  6  1  0  0  0  0
  9  7  2  0  0  0  0
 10 11  1  0  0  0  0
 11 15  1  0  0  0  0
 11  1  2  0  0  0  0
 13  5  1  0  0  0  0
 14 10  1  0  0  0  0
 16 22  1  0  0  0  0
 16 17  1  0  0  0  0
 17 23  1  0  0  0  0
 18 17  2  0  0  0  0
 18 30  1  0  0  0  0
 19 18  1  0  0  0  0
 20 19  2  0  0  0  0
 20 21  1  0  0  0  0
 21 16  2  0  0  0  0
 24 19  1  0  0  0  0
 25 20  1  0  0  0  0
 26 21  1  0  0  0  0
 26 27  1  0  0  0  0
 28 26  2  0  0  0  0
 29 26  2  0  0  0  0
 30 32  1  0  0  0  0
 30 31  1  0  0  0  0
 33 30  1  0  0  0  0
M  RAD  3   2   2   3   3  27   2
M  END
