Coordinates from ORCA-job 4-NO2PhN2+~TsO-_B3LYPG-6-31G_dp-NX-Scan-d89-09-n800
 OpenBabel11261920283D

 33 33  0  0  0  0  0  0  0  0999 V2000
   -4.2062   -2.7884    0.3337 C   0  0  0  0  0  0  0  0  0  0  0  0
   -4.8352   -3.5470    1.3694 N   0  0  0  0  0  0  0  0  0  0  0  0
   -4.8298   -3.7857    2.4701 N   0  0  0  0  0  0  0  0  0  0  0  0
   -3.2889   -1.8231    0.7802 C   0  0  0  0  0  0  0  0  0  0  0  0
   -2.6234   -1.0623   -0.1689 C   0  0  0  0  0  0  0  0  0  0  0  0
   -2.8901   -1.2963   -1.5186 C   0  0  0  0  0  0  0  0  0  0  0  0
   -2.1703   -0.4850   -2.5279 N   0  0  0  0  0  0  0  0  0  0  0  0
   -1.3817    0.3582   -2.1092 O   0  0  0  0  0  0  0  0  0  0  0  0
   -2.4096   -0.7151   -3.7086 O   0  0  0  0  0  0  0  0  0  0  0  0
   -3.7995   -2.2539   -1.9540 C   0  0  0  0  0  0  0  0  0  0  0  0
   -4.4808   -3.0221   -1.0114 C   0  0  0  0  0  0  0  0  0  0  0  0
   -3.1168   -1.6751    1.8400 H   0  0  0  0  0  0  0  0  0  0  0  0
   -1.9102   -0.2984    0.1139 H   0  0  0  0  0  0  0  0  0  0  0  0
   -3.9751   -2.3869   -3.0139 H   0  0  0  0  0  0  0  0  0  0  0  0
   -5.2172   -3.7644   -1.2892 H   0  0  0  0  0  0  0  0  0  0  0  0
   -9.3337   -4.9553    1.9142 C   0  0  0  0  0  0  0  0  0  0  0  0
  -10.3881   -5.8176    2.2076 C   0  0  0  0  0  0  0  0  0  0  0  0
  -11.0381   -6.5391    1.1959 C   0  0  0  0  0  0  0  0  0  0  0  0
  -10.6015   -6.3746   -0.1266 C   0  0  0  0  0  0  0  0  0  0  0  0
   -9.5493   -5.5151   -0.4367 C   0  0  0  0  0  0  0  0  0  0  0  0
   -8.9195   -4.8103    0.5896 C   0  0  0  0  0  0  0  0  0  0  0  0
   -8.8433   -4.3855    2.6960 H   0  0  0  0  0  0  0  0  0  0  0  0
  -10.7164   -5.9289    3.2379 H   0  0  0  0  0  0  0  0  0  0  0  0
  -11.0954   -6.9229   -0.9246 H   0  0  0  0  0  0  0  0  0  0  0  0
   -9.2221   -5.3751   -1.4611 H   0  0  0  0  0  0  0  0  0  0  0  0
   -7.5503   -3.7211    0.2036 S   0  0  0  0  0  0  0  0  0  0  0  0
   -6.3095   -4.6437    0.3690 O   0  0  0  0  0  0  0  0  0  0  0  0
   -7.5080   -2.6532    1.2259 O   0  0  0  0  0  0  0  0  0  0  0  0
   -7.6931   -3.3053   -1.2057 O   0  0  0  0  0  0  0  0  0  0  0  0
  -12.2037   -7.4437    1.5181 C   0  0  0  0  0  0  0  0  0  0  0  0
  -12.1412   -7.8296    2.5397 H   0  0  0  0  0  0  0  0  0  0  0  0
  -13.1552   -6.9038    1.4315 H   0  0  0  0  0  0  0  0  0  0  0  0
  -12.2515   -8.2965    0.8346 H   0  0  0  0  0  0  0  0  0  0  0  0
  1  4  1  0  0  0  0
  1  2  1  0  0  0  0
  2  3  2  0  0  0  0
  4 12  1  0  0  0  0
  5 13  1  0  0  0  0
  5  4  2  0  0  0  0
  6  5  1  0  0  0  0
  7  8  2  0  0  0  0
  7  6  1  0  0  0  0
  9  7  2  0  0  0  0
 10  6  2  0  0  0  0
 10 11  1  0  0  0  0
 11  1  2  0  0  0  0
 14 10  1  0  0  0  0
 15 11  1  0  0  0  0
 16 17  1  0  0  0  0
 16 22  1  0  0  0  0
 17 23  1  0  0  0  0
 18 30  1  0  0  0  0
 18 17  2  0  0  0  0
 19 18  1  0  0  0  0
 20 19  2  0  0  0  0
 20 21  1  0  0  0  0
 21 16  2  0  0  0  0
 24 19  1  0  0  0  0
 25 20  1  0  0  0  0
 26 27  2  0  0  0  0
 26 21  1  0  0  0  0
 26 28  1  0  0  0  0
 29 26  2  0  0  0  0
 30 31  1  0  0  0  0
 32 30  1  0  0  0  0
 33 30  1  0  0  0  0
M  RAD  2   3   2  28   2
M  END
