Coordinates from ORCA-job 4-NO2PhN2+~TsO-_B3LYPG-6-31G_dp-NX-Scan-d89-09-n800
 OpenBabel11261920283D

 33 33  0  0  0  0  0  0  0  0999 V2000
   -4.4603   -2.1504    0.4197 C   0  0  0  0  0  0  0  0  0  0  0  0
   -5.3104   -2.2957    1.5500 N   0  0  0  0  0  0  0  0  0  0  0  0
   -5.5779   -2.0490    2.6131 N   0  0  0  0  0  0  0  0  0  0  0  0
   -3.0938   -2.0129    0.6977 C   0  0  0  0  0  0  0  0  0  0  0  0
   -2.2261   -1.8205   -0.3694 C   0  0  0  0  0  0  0  0  0  0  0  0
   -2.7586   -1.7576   -1.6562 C   0  0  0  0  0  0  0  0  0  0  0  0
   -1.8291   -1.5470   -2.7904 N   0  0  0  0  0  0  0  0  0  0  0  0
   -0.6354   -1.4362   -2.5236 O   0  0  0  0  0  0  0  0  0  0  0  0
   -2.3167   -1.4963   -3.9147 O   0  0  0  0  0  0  0  0  0  0  0  0
   -4.1204   -1.8832   -1.9206 C   0  0  0  0  0  0  0  0  0  0  0  0
   -5.0036   -2.0992   -0.8655 C   0  0  0  0  0  0  0  0  0  0  0  0
   -2.7291   -2.0628    1.7173 H   0  0  0  0  0  0  0  0  0  0  0  0
   -1.1588   -1.7150   -0.2223 H   0  0  0  0  0  0  0  0  0  0  0  0
   -4.4758   -1.8219   -2.9413 H   0  0  0  0  0  0  0  0  0  0  0  0
   -6.0730   -2.2188   -1.0226 H   0  0  0  0  0  0  0  0  0  0  0  0
   -9.5160   -5.0021    2.0790 C   0  0  0  0  0  0  0  0  0  0  0  0
  -10.3563   -6.1093    2.1842 C   0  0  0  0  0  0  0  0  0  0  0  0
  -10.7784   -6.8098    1.0460 C   0  0  0  0  0  0  0  0  0  0  0  0
  -10.3350   -6.3710   -0.2107 C   0  0  0  0  0  0  0  0  0  0  0  0
   -9.4967   -5.2658   -0.3328 C   0  0  0  0  0  0  0  0  0  0  0  0
   -9.0886   -4.5871    0.8174 C   0  0  0  0  0  0  0  0  0  0  0  0
   -9.2033   -4.4499    2.9584 H   0  0  0  0  0  0  0  0  0  0  0  0
  -10.6943   -6.4323    3.1654 H   0  0  0  0  0  0  0  0  0  0  0  0
  -10.6560   -6.8994   -1.1049 H   0  0  0  0  0  0  0  0  0  0  0  0
   -9.1687   -4.9162   -1.3054 H   0  0  0  0  0  0  0  0  0  0  0  0
   -7.9834   -3.1865    0.6773 S   0  0  0  0  0  0  0  0  0  0  0  0
   -6.5784   -3.8167    0.7097 O   0  0  0  0  0  0  0  0  0  0  0  0
   -8.1806   -2.3238    1.8641 O   0  0  0  0  0  0  0  0  0  0  0  0
   -8.2292   -2.5590   -0.6431 O   0  0  0  0  0  0  0  0  0  0  0  0
  -11.7156   -7.9878    1.1635 C   0  0  0  0  0  0  0  0  0  0  0  0
  -11.6843   -8.4269    2.1648 H   0  0  0  0  0  0  0  0  0  0  0  0
  -12.7531   -7.6863    0.9708 H   0  0  0  0  0  0  0  0  0  0  0  0
  -11.4677   -8.7707    0.4399 H   0  0  0  0  0  0  0  0  0  0  0  0
  1  4  1  0  0  0  0
  1  2  1  0  0  0  0
  2  3  2  0  0  0  0
  4 12  1  0  0  0  0
  5 13  1  0  0  0  0
  5  4  2  0  0  0  0
  6  5  1  0  0  0  0
  7  8  2  0  0  0  0
  7  6  1  0  0  0  0
  9  7  2  0  0  0  0
 10  6  2  0  0  0  0
 10 11  1  0  0  0  0
 11  1  2  0  0  0  0
 14 10  1  0  0  0  0
 15 11  1  0  0  0  0
 16 17  1  0  0  0  0
 16 22  1  0  0  0  0
 17 23  1  0  0  0  0
 18 30  1  0  0  0  0
 18 17  2  0  0  0  0
 19 18  1  0  0  0  0
 20 19  2  0  0  0  0
 20 21  1  0  0  0  0
 21 16  2  0  0  0  0
 24 19  1  0  0  0  0
 25 20  1  0  0  0  0
 26 27  2  0  0  0  0
 26 21  1  0  0  0  0
 26 28  1  0  0  0  0
 29 26  2  0  0  0  0
 30 31  1  0  0  0  0
 32 30  1  0  0  0  0
 33 30  1  0  0  0  0
M  RAD  2   3   2  28   2
M  END
