Coordinates from ORCA-job 4-NO2PhN2+~TsO-_B3LYPG-6-31G_dp-NX-Scan-d89-09-n800
 OpenBabel11261920283D

 33 33  0  0  0  0  0  0  0  0999 V2000
   -4.8118   -0.6432    0.7730 C   0  0  0  0  0  0  0  0  0  0  0  0
   -5.3748    0.4031    1.4555 N   0  0  0  0  0  0  0  0  0  0  0  0
   -5.7789    1.2674    2.0457 N   0  0  0  0  0  0  0  0  0  0  0  0
   -3.4155   -0.8307    0.9563 C   0  0  0  0  0  0  0  0  0  0  0  0
   -2.8212   -1.8671    0.2711 C   0  0  0  0  0  0  0  0  0  0  0  0
   -3.6198   -2.6862   -0.5442 C   0  0  0  0  0  0  0  0  0  0  0  0
   -2.9492   -3.8125   -1.2415 N   0  0  0  0  0  0  0  0  0  0  0  0
   -1.7395   -3.9376   -1.0512 O   0  0  0  0  0  0  0  0  0  0  0  0
   -3.6439   -4.5296   -1.9469 O   0  0  0  0  0  0  0  0  0  0  0  0
   -4.9868   -2.5063   -0.7152 C   0  0  0  0  0  0  0  0  0  0  0  0
   -5.6193   -1.4452   -0.0607 C   0  0  0  0  0  0  0  0  0  0  0  0
   -2.8491   -0.1818    1.6143 H   0  0  0  0  0  0  0  0  0  0  0  0
   -1.7619   -2.0722    0.3579 H   0  0  0  0  0  0  0  0  0  0  0  0
   -5.6072   -3.1501   -1.3451 H   0  0  0  0  0  0  0  0  0  0  0  0
   -6.7058   -1.3188   -0.1870 H   0  0  0  0  0  0  0  0  0  0  0  0
   -9.7871   -4.5143    0.7742 C   0  0  0  0  0  0  0  0  0  0  0  0
  -10.1016   -5.6782    1.4726 C   0  0  0  0  0  0  0  0  0  0  0  0
   -9.6643   -6.9334    1.0248 C   0  0  0  0  0  0  0  0  0  0  0  0
   -8.9006   -6.9892   -0.1485 C   0  0  0  0  0  0  0  0  0  0  0  0
   -8.5786   -5.8312   -0.8564 C   0  0  0  0  0  0  0  0  0  0  0  0
   -9.0232   -4.5928   -0.3926 C   0  0  0  0  0  0  0  0  0  0  0  0
  -10.1227   -3.5457    1.1287 H   0  0  0  0  0  0  0  0  0  0  0  0
  -10.6964   -5.6131    2.3810 H   0  0  0  0  0  0  0  0  0  0  0  0
   -8.5537   -7.9526   -0.5144 H   0  0  0  0  0  0  0  0  0  0  0  0
   -7.9828   -5.8757   -1.7616 H   0  0  0  0  0  0  0  0  0  0  0  0
   -8.6707   -3.1020   -1.3394 S   0  0  0  0  0  0  0  0  0  0  0  0
   -8.4329   -2.0408   -0.2892 O   0  0  0  0  0  0  0  0  0  0  0  0
   -9.8524   -2.8405   -2.1862 O   0  0  0  0  0  0  0  0  0  0  0  0
   -7.4191   -3.4032   -2.1015 O   0  0  0  0  0  0  0  0  0  0  0  0
   -9.9851   -8.1877    1.8034 C   0  0  0  0  0  0  0  0  0  0  0  0
   -9.2422   -8.3699    2.5906 H   0  0  0  0  0  0  0  0  0  0  0  0
  -10.9620   -8.1168    2.2917 H   0  0  0  0  0  0  0  0  0  0  0  0
   -9.9946   -9.0692    1.1553 H   0  0  0  0  0  0  0  0  0  0  0  0
  1  4  1  0  0  0  0
  1  2  1  0  0  0  0
  2  3  1  0  0  0  0
  4 12  1  0  0  0  0
  5 13  1  0  0  0  0
  5  4  2  0  0  0  0
  6  5  1  0  0  0  0
  7  8  2  0  0  0  0
  7  6  1  0  0  0  0
  9  7  2  0  0  0  0
 10  6  2  0  0  0  0
 10 11  1  0  0  0  0
 11  1  2  0  0  0  0
 14 10  1  0  0  0  0
 15 11  1  0  0  0  0
 16 22  1  0  0  0  0
 16 17  2  0  0  0  0
 17 23  1  0  0  0  0
 18 17  1  0  0  0  0
 18 30  1  0  0  0  0
 19 18  2  0  0  0  0
 20 21  2  0  0  0  0
 20 19  1  0  0  0  0
 21 16  1  0  0  0  0
 24 19  1  0  0  0  0
 25 20  1  0  0  0  0
 26 21  1  0  0  0  0
 26 27  1  0  0  0  0
 28 26  2  0  0  0  0
 29 26  2  0  0  0  0
 30 32  1  0  0  0  0
 30 31  1  0  0  0  0
 33 30  1  0  0  0  0
M  RAD  3   2   2   3   3  27   2
M  END
