Coordinates from ORCA-job 4-NO2PhN2+~TsO-_B3LYPG-6-31G_dp-NX-Scan-d89-09-n800
 OpenBabel11261920283D

 33 34  0  0  0  0  0  0  0  0999 V2000
   -4.4604   -2.6844    0.3119 C   0  0  0  0  0  0  0  0  0  0  0  0
   -5.0524   -3.6146    1.1978 N   0  0  0  0  0  0  0  0  0  0  0  0
   -5.7511   -4.5743    1.0992 N   0  0  0  0  0  0  0  0  0  0  0  0
   -3.8238   -1.6172    0.9675 C   0  0  0  0  0  0  0  0  0  0  0  0
   -3.1882   -0.6254    0.2320 C   0  0  0  0  0  0  0  0  0  0  0  0
   -3.1907   -0.7333   -1.1567 C   0  0  0  0  0  0  0  0  0  0  0  0
   -2.5156    0.3153   -1.9505 N   0  0  0  0  0  0  0  0  0  0  0  0
   -1.9805    1.2329   -1.3325 O   0  0  0  0  0  0  0  0  0  0  0  0
   -2.5354    0.1996   -3.1729 O   0  0  0  0  0  0  0  0  0  0  0  0
   -3.8028   -1.7910   -1.8259 C   0  0  0  0  0  0  0  0  0  0  0  0
   -4.4510   -2.7802   -1.0928 C   0  0  0  0  0  0  0  0  0  0  0  0
   -3.8415   -1.5855    2.0512 H   0  0  0  0  0  0  0  0  0  0  0  0
   -2.6944    0.2132    0.7055 H   0  0  0  0  0  0  0  0  0  0  0  0
   -3.7702   -1.8266   -2.9079 H   0  0  0  0  0  0  0  0  0  0  0  0
   -4.9367   -3.6084   -1.5863 H   0  0  0  0  0  0  0  0  0  0  0  0
   -8.6384   -6.4600    1.5377 C   0  0  0  0  0  0  0  0  0  0  0  0
   -9.8824   -6.2699    2.1370 C   0  0  0  0  0  0  0  0  0  0  0  0
  -10.9657   -5.7513    1.4136 C   0  0  0  0  0  0  0  0  0  0  0  0
  -10.7760   -5.4338    0.0599 C   0  0  0  0  0  0  0  0  0  0  0  0
   -9.5411   -5.6159   -0.5570 C   0  0  0  0  0  0  0  0  0  0  0  0
   -8.4785   -6.1246    0.1929 C   0  0  0  0  0  0  0  0  0  0  0  0
   -7.8052   -6.8758    2.0929 H   0  0  0  0  0  0  0  0  0  0  0  0
  -10.0165   -6.5375    3.1815 H   0  0  0  0  0  0  0  0  0  0  0  0
  -11.6095   -5.0468   -0.5204 H   0  0  0  0  0  0  0  0  0  0  0  0
   -9.4001   -5.3880   -1.6078 H   0  0  0  0  0  0  0  0  0  0  0  0
   -6.8912   -6.3601   -0.5891 S   0  0  0  0  0  0  0  0  0  0  0  0
   -6.1239   -7.3263    0.1901 O   0  0  0  0  0  0  0  0  0  0  0  0
   -6.1830   -4.8876   -0.4631 O   0  0  0  0  0  0  0  0  0  0  0  0
   -7.0890   -6.5173   -2.0278 O   0  0  0  0  0  0  0  0  0  0  0  0
  -12.3022   -5.5238    2.0773 C   0  0  0  0  0  0  0  0  0  0  0  0
  -12.4393   -6.1826    2.9388 H   0  0  0  0  0  0  0  0  0  0  0  0
  -12.3891   -4.4912    2.4372 H   0  0  0  0  0  0  0  0  0  0  0  0
  -13.1287   -5.6945    1.3810 H   0  0  0  0  0  0  0  0  0  0  0  0
  1  4  1  0  0  0  0
  1  2  1  0  0  0  0
  3  2  1  0  0  0  0
  4 12  1  0  0  0  0
  5 13  1  0  0  0  0
  5  4  2  0  0  0  0
  6  5  1  0  0  0  0
  7  8  2  0  0  0  0
  7  6  1  0  0  0  0
  9  7  2  0  0  0  0
 10  6  2  0  0  0  0
 10 11  1  0  0  0  0
 11  1  2  0  0  0  0
 14 10  1  0  0  0  0
 15 11  1  0  0  0  0
 16 22  1  0  0  0  0
 16 17  1  0  0  0  0
 17 23  1  0  0  0  0
 18 30  1  0  0  0  0
 18 17  2  0  0  0  0
 19 18  1  0  0  0  0
 20 19  2  0  0  0  0
 20 21  1  0  0  0  0
 21 16  2  0  0  0  0
 24 19  1  0  0  0  0
 25 20  1  0  0  0  0
 26 28  1  0  0  0  0
 26 27  2  0  0  0  0
 26 21  1  0  0  0  0
 28  3  1  0  0  0  0
 29 26  2  0  0  0  0
 30 32  1  0  0  0  0
 30 31  1  0  0  0  0
 33 30  1  0  0  0  0
M  RAD  2   2   2   3   2
M  END
