Coordinates from ORCA-job 4-NO2PhN2+~TsO-_B3LYPG-6-31G_dp-NX-Scan-d89-09-n800
 OpenBabel11261920283D

 33 33  0  0  0  0  0  0  0  0999 V2000
   -4.1616   -2.8871    0.3303 C   0  0  0  0  0  0  0  0  0  0  0  0
   -4.7145   -3.7322    1.3433 N   0  0  0  0  0  0  0  0  0  0  0  0
   -4.6167   -4.0641    2.4161 N   0  0  0  0  0  0  0  0  0  0  0  0
   -3.3002   -1.8824    0.7989 C   0  0  0  0  0  0  0  0  0  0  0  0
   -2.6998   -1.0474   -0.1314 C   0  0  0  0  0  0  0  0  0  0  0  0
   -2.9709   -1.2521   -1.4849 C   0  0  0  0  0  0  0  0  0  0  0  0
   -2.3202   -0.3619   -2.4742 N   0  0  0  0  0  0  0  0  0  0  0  0
   -1.5827    0.5173   -2.0364 O   0  0  0  0  0  0  0  0  0  0  0  0
   -2.5599   -0.5681   -3.6592 O   0  0  0  0  0  0  0  0  0  0  0  0
   -3.8235   -2.2511   -1.9421 C   0  0  0  0  0  0  0  0  0  0  0  0
   -4.4411   -3.0922   -1.0183 C   0  0  0  0  0  0  0  0  0  0  0  0
   -3.1214   -1.7609    1.8609 H   0  0  0  0  0  0  0  0  0  0  0  0
   -2.0336   -0.2488    0.1690 H   0  0  0  0  0  0  0  0  0  0  0  0
   -4.0073   -2.3583   -3.0035 H   0  0  0  0  0  0  0  0  0  0  0  0
   -5.1367   -3.8650   -1.3162 H   0  0  0  0  0  0  0  0  0  0  0  0
   -9.3396   -4.8747    1.8727 C   0  0  0  0  0  0  0  0  0  0  0  0
  -10.4186   -5.6987    2.1865 C   0  0  0  0  0  0  0  0  0  0  0  0
  -11.0441   -6.4801    1.2044 C   0  0  0  0  0  0  0  0  0  0  0  0
  -10.5577   -6.4153   -0.1096 C   0  0  0  0  0  0  0  0  0  0  0  0
   -9.4808   -5.5955   -0.4400 C   0  0  0  0  0  0  0  0  0  0  0  0
   -8.8760   -4.8295    0.5575 C   0  0  0  0  0  0  0  0  0  0  0  0
   -8.8676   -4.2583    2.6301 H   0  0  0  0  0  0  0  0  0  0  0  0
  -10.7857   -5.7322    3.2092 H   0  0  0  0  0  0  0  0  0  0  0  0
  -11.0324   -7.0112   -0.8849 H   0  0  0  0  0  0  0  0  0  0  0  0
   -9.1150   -5.5329   -1.4590 H   0  0  0  0  0  0  0  0  0  0  0  0
   -7.4757   -3.7900    0.1467 S   0  0  0  0  0  0  0  0  0  0  0  0
   -6.2615   -4.7346    0.3854 O   0  0  0  0  0  0  0  0  0  0  0  0
   -7.4328   -2.6696    1.1098 O   0  0  0  0  0  0  0  0  0  0  0  0
   -7.5793   -3.4485   -1.2864 O   0  0  0  0  0  0  0  0  0  0  0  0
  -12.2353   -7.3438    1.5445 C   0  0  0  0  0  0  0  0  0  0  0  0
  -12.2285   -7.6402    2.5972 H   0  0  0  0  0  0  0  0  0  0  0  0
  -13.1746   -6.8061    1.3627 H   0  0  0  0  0  0  0  0  0  0  0  0
  -12.2591   -8.2518    0.9351 H   0  0  0  0  0  0  0  0  0  0  0  0
  1  4  1  0  0  0  0
  1  2  1  0  0  0  0
  2  3  2  0  0  0  0
  4 12  1  0  0  0  0
  5 13  1  0  0  0  0
  5  4  2  0  0  0  0
  6  5  1  0  0  0  0
  7  8  2  0  0  0  0
  7  6  1  0  0  0  0
  9  7  2  0  0  0  0
 10  6  2  0  0  0  0
 10 11  1  0  0  0  0
 11  1  2  0  0  0  0
 14 10  1  0  0  0  0
 15 11  1  0  0  0  0
 16 17  1  0  0  0  0
 16 22  1  0  0  0  0
 17 23  1  0  0  0  0
 18 30  1  0  0  0  0
 18 17  2  0  0  0  0
 19 18  1  0  0  0  0
 20 19  2  0  0  0  0
 20 21  1  0  0  0  0
 21 16  2  0  0  0  0
 24 19  1  0  0  0  0
 25 20  1  0  0  0  0
 26 27  2  0  0  0  0
 26 21  1  0  0  0  0
 26 28  1  0  0  0  0
 29 26  2  0  0  0  0
 30 31  1  0  0  0  0
 32 30  1  0  0  0  0
 33 30  1  0  0  0  0
M  RAD  2   3   2  28   2
M  END
