Coordinates from ORCA-job 4-NO2PhN2+~TsO-_B3LYPG-6-31G_dp-NX-Scan-d89-09-n800
 OpenBabel11261920283D

 33 33  0  0  0  0  0  0  0  0999 V2000
   -4.8013   -0.6515    0.6830 C   0  0  0  0  0  0  0  0  0  0  0  0
   -5.4804    0.3441    1.3379 N   0  0  0  0  0  0  0  0  0  0  0  0
   -6.0069    1.1586    1.8987 N   0  0  0  0  0  0  0  0  0  0  0  0
   -3.3898   -0.6719    0.8303 C   0  0  0  0  0  0  0  0  0  0  0  0
   -2.7051   -1.6709    0.1735 C   0  0  0  0  0  0  0  0  0  0  0  0
   -3.4313   -2.6098   -0.5792 C   0  0  0  0  0  0  0  0  0  0  0  0
   -2.6611   -3.6862   -1.2522 N   0  0  0  0  0  0  0  0  0  0  0  0
   -1.4405   -3.6725   -1.0968 O   0  0  0  0  0  0  0  0  0  0  0  0
   -3.2933   -4.5046   -1.9049 O   0  0  0  0  0  0  0  0  0  0  0  0
   -4.8136   -2.5876   -0.7134 C   0  0  0  0  0  0  0  0  0  0  0  0
   -5.5400   -1.5723   -0.0848 C   0  0  0  0  0  0  0  0  0  0  0  0
   -2.8797    0.0673    1.4374 H   0  0  0  0  0  0  0  0  0  0  0  0
   -1.6274   -1.7558    0.2331 H   0  0  0  0  0  0  0  0  0  0  0  0
   -5.3735   -3.3158   -1.2981 H   0  0  0  0  0  0  0  0  0  0  0  0
   -6.6426   -1.5491   -0.1661 H   0  0  0  0  0  0  0  0  0  0  0  0
   -9.8036   -4.5508    0.8853 C   0  0  0  0  0  0  0  0  0  0  0  0
  -10.1827   -5.7278    1.5277 C   0  0  0  0  0  0  0  0  0  0  0  0
   -9.8224   -6.9824    1.0149 C   0  0  0  0  0  0  0  0  0  0  0  0
   -9.0696   -7.0244   -0.1665 C   0  0  0  0  0  0  0  0  0  0  0  0
   -8.6834   -5.8536   -0.8181 C   0  0  0  0  0  0  0  0  0  0  0  0
   -9.0520   -4.6158   -0.2897 C   0  0  0  0  0  0  0  0  0  0  0  0
  -10.0790   -3.5827    1.2897 H   0  0  0  0  0  0  0  0  0  0  0  0
  -10.7672   -5.6735    2.4433 H   0  0  0  0  0  0  0  0  0  0  0  0
   -8.7818   -7.9870   -0.5822 H   0  0  0  0  0  0  0  0  0  0  0  0
   -8.0953   -5.8881   -1.7289 H   0  0  0  0  0  0  0  0  0  0  0  0
   -8.6163   -3.1051   -1.1672 S   0  0  0  0  0  0  0  0  0  0  0  0
   -8.3592   -2.0953   -0.0696 O   0  0  0  0  0  0  0  0  0  0  0  0
   -9.7648   -2.7560   -2.0265 O   0  0  0  0  0  0  0  0  0  0  0  0
   -7.3585   -3.4251   -1.9102 O   0  0  0  0  0  0  0  0  0  0  0  0
  -10.2095   -8.2535    1.7336 C   0  0  0  0  0  0  0  0  0  0  0  0
   -9.4533   -8.5367    2.4772 H   0  0  0  0  0  0  0  0  0  0  0  0
  -11.1591   -8.1396    2.2656 H   0  0  0  0  0  0  0  0  0  0  0  0
  -10.3104   -9.0918    1.0375 H   0  0  0  0  0  0  0  0  0  0  0  0
  1  4  1  0  0  0  0
  1  2  1  0  0  0  0
  2  3  1  0  0  0  0
  4 12  1  0  0  0  0
  5 13  1  0  0  0  0
  5  4  2  0  0  0  0
  6  5  1  0  0  0  0
  7  8  2  0  0  0  0
  7  6  1  0  0  0  0
  9  7  2  0  0  0  0
 10  6  2  0  0  0  0
 10 11  1  0  0  0  0
 11  1  2  0  0  0  0
 14 10  1  0  0  0  0
 15 11  1  0  0  0  0
 16 22  1  0  0  0  0
 16 17  2  0  0  0  0
 17 23  1  0  0  0  0
 18 17  1  0  0  0  0
 18 30  1  0  0  0  0
 19 18  2  0  0  0  0
 20 21  2  0  0  0  0
 20 19  1  0  0  0  0
 21 16  1  0  0  0  0
 24 19  1  0  0  0  0
 25 20  1  0  0  0  0
 26 21  1  0  0  0  0
 26 27  1  0  0  0  0
 28 26  2  0  0  0  0
 29 26  2  0  0  0  0
 30 32  1  0  0  0  0
 30 31  1  0  0  0  0
 33 30  1  0  0  0  0
M  RAD  3   2   2   3   3  27   2
M  END
