Coordinates from ORCA-job 4-NO2PhN2+~TsO-_B3LYPG-6-31G_dp-NX-Scan-d89-09-n800
 OpenBabel11261920283D

 33 33  0  0  0  0  0  0  0  0999 V2000
   -4.2083   -2.7826    0.3337 C   0  0  0  0  0  0  0  0  0  0  0  0
   -4.8415   -3.5361    1.3705 N   0  0  0  0  0  0  0  0  0  0  0  0
   -4.8407   -3.7699    2.4723 N   0  0  0  0  0  0  0  0  0  0  0  0
   -3.2860   -1.8214    0.7790 C   0  0  0  0  0  0  0  0  0  0  0  0
   -2.6169   -1.0650   -0.1710 C   0  0  0  0  0  0  0  0  0  0  0  0
   -2.8852   -1.2989   -1.5204 C   0  0  0  0  0  0  0  0  0  0  0  0
   -2.1616   -0.4922   -2.5307 N   0  0  0  0  0  0  0  0  0  0  0  0
   -1.3688    0.3475   -2.1130 O   0  0  0  0  0  0  0  0  0  0  0  0
   -2.4023   -0.7222   -3.7111 O   0  0  0  0  0  0  0  0  0  0  0  0
   -3.7996   -2.2523   -1.9546 C   0  0  0  0  0  0  0  0  0  0  0  0
   -4.4845   -3.0162   -1.0112 C   0  0  0  0  0  0  0  0  0  0  0  0
   -3.1129   -1.6733    1.8386 H   0  0  0  0  0  0  0  0  0  0  0  0
   -1.8997   -0.3045    0.1108 H   0  0  0  0  0  0  0  0  0  0  0  0
   -3.9761   -2.3853   -3.0144 H   0  0  0  0  0  0  0  0  0  0  0  0
   -5.2245   -3.7553   -1.2879 H   0  0  0  0  0  0  0  0  0  0  0  0
   -9.3350   -4.9584    1.9163 C   0  0  0  0  0  0  0  0  0  0  0  0
  -10.3875   -5.8233    2.2084 C   0  0  0  0  0  0  0  0  0  0  0  0
  -11.0376   -6.5430    1.1954 C   0  0  0  0  0  0  0  0  0  0  0  0
  -10.6030   -6.3738   -0.1270 C   0  0  0  0  0  0  0  0  0  0  0  0
   -9.5525   -5.5117   -0.4360 C   0  0  0  0  0  0  0  0  0  0  0  0
   -8.9226   -4.8089    0.5916 C   0  0  0  0  0  0  0  0  0  0  0  0
   -8.8445   -4.3902    2.6991 H   0  0  0  0  0  0  0  0  0  0  0  0
  -10.7144   -5.9382    3.2389 H   0  0  0  0  0  0  0  0  0  0  0  0
  -11.0970   -6.9206   -0.9261 H   0  0  0  0  0  0  0  0  0  0  0  0
   -9.2268   -5.3682   -1.4604 H   0  0  0  0  0  0  0  0  0  0  0  0
   -7.5558   -3.7162    0.2071 S   0  0  0  0  0  0  0  0  0  0  0  0
   -6.3130   -4.6368    0.3692 O   0  0  0  0  0  0  0  0  0  0  0  0
   -7.5146   -2.6508    1.2320 O   0  0  0  0  0  0  0  0  0  0  0  0
   -7.7004   -3.2972   -1.2010 O   0  0  0  0  0  0  0  0  0  0  0  0
  -12.2014   -7.4503    1.5164 C   0  0  0  0  0  0  0  0  0  0  0  0
  -12.1374   -7.8384    2.5371 H   0  0  0  0  0  0  0  0  0  0  0  0
  -13.1539   -6.9119    1.4319 H   0  0  0  0  0  0  0  0  0  0  0  0
  -12.2484   -8.3016    0.8311 H   0  0  0  0  0  0  0  0  0  0  0  0
  1  4  1  0  0  0  0
  1  2  1  0  0  0  0
  2  3  2  0  0  0  0
  4 12  1  0  0  0  0
  5 13  1  0  0  0  0
  5  4  2  0  0  0  0
  6  5  1  0  0  0  0
  7  8  2  0  0  0  0
  7  6  1  0  0  0  0
  9  7  2  0  0  0  0
 10  6  2  0  0  0  0
 10 11  1  0  0  0  0
 11  1  2  0  0  0  0
 14 10  1  0  0  0  0
 15 11  1  0  0  0  0
 16 17  1  0  0  0  0
 16 22  1  0  0  0  0
 17 23  1  0  0  0  0
 18 30  1  0  0  0  0
 18 17  2  0  0  0  0
 19 18  1  0  0  0  0
 20 19  2  0  0  0  0
 20 21  1  0  0  0  0
 21 16  2  0  0  0  0
 24 19  1  0  0  0  0
 25 20  1  0  0  0  0
 26 27  2  0  0  0  0
 26 21  1  0  0  0  0
 26 28  1  0  0  0  0
 29 26  2  0  0  0  0
 30 31  1  0  0  0  0
 32 30  1  0  0  0  0
 33 30  1  0  0  0  0
M  RAD  2   3   2  28   2
M  END
