Coordinates from ORCA-job 4-NO2PhN2+~TsO-_B3LYPG-6-31G_dp-NX-Scan-d89-09-n800
 OpenBabel11261920283D

 33 33  0  0  0  0  0  0  0  0999 V2000
   -4.5044   -1.6814    0.4710 C   0  0  0  0  0  0  0  0  0  0  0  0
   -5.3664   -1.5031    1.5456 N   0  0  0  0  0  0  0  0  0  0  0  0
   -6.0903   -1.3184    2.3815 N   0  0  0  0  0  0  0  0  0  0  0  0
   -3.1306   -1.5427    0.7294 C   0  0  0  0  0  0  0  0  0  0  0  0
   -2.2503   -1.6949   -0.3310 C   0  0  0  0  0  0  0  0  0  0  0  0
   -2.7746   -1.9598   -1.5970 C   0  0  0  0  0  0  0  0  0  0  0  0
   -1.8278   -2.1095   -2.7280 N   0  0  0  0  0  0  0  0  0  0  0  0
   -0.6313   -1.9992   -2.4741 O   0  0  0  0  0  0  0  0  0  0  0  0
   -2.3063   -2.3297   -3.8353 O   0  0  0  0  0  0  0  0  0  0  0  0
   -4.1387   -2.0866   -1.8474 C   0  0  0  0  0  0  0  0  0  0  0  0
   -5.0418   -1.9591   -0.7960 C   0  0  0  0  0  0  0  0  0  0  0  0
   -2.7756   -1.3289    1.7309 H   0  0  0  0  0  0  0  0  0  0  0  0
   -1.1794   -1.6078   -0.1997 H   0  0  0  0  0  0  0  0  0  0  0  0
   -4.4819   -2.2976   -2.8522 H   0  0  0  0  0  0  0  0  0  0  0  0
   -6.1178   -2.0758   -0.9311 H   0  0  0  0  0  0  0  0  0  0  0  0
   -9.1893   -5.3481    2.0460 C   0  0  0  0  0  0  0  0  0  0  0  0
  -10.0693   -6.4250    2.0889 C   0  0  0  0  0  0  0  0  0  0  0  0
  -10.7722   -6.8343    0.9441 C   0  0  0  0  0  0  0  0  0  0  0  0
  -10.5672   -6.1309   -0.2491 C   0  0  0  0  0  0  0  0  0  0  0  0
   -9.6888   -5.0482   -0.3072 C   0  0  0  0  0  0  0  0  0  0  0  0
   -8.9999   -4.6636    0.8419 C   0  0  0  0  0  0  0  0  0  0  0  0
   -8.6603   -5.0283    2.9371 H   0  0  0  0  0  0  0  0  0  0  0  0
  -10.2180   -6.9568    3.0257 H   0  0  0  0  0  0  0  0  0  0  0  0
  -11.1040   -6.4320   -1.1450 H   0  0  0  0  0  0  0  0  0  0  0  0
   -9.5363   -4.4946   -1.2271 H   0  0  0  0  0  0  0  0  0  0  0  0
   -7.8313   -3.3085    0.7682 S   0  0  0  0  0  0  0  0  0  0  0  0
   -6.4515   -3.8861    0.8225 O   0  0  0  0  0  0  0  0  0  0  0  0
   -8.1016   -2.4750    1.9967 O   0  0  0  0  0  0  0  0  0  0  0  0
   -8.0907   -2.5836   -0.5078 O   0  0  0  0  0  0  0  0  0  0  0  0
  -11.7444   -7.9882    1.0114 C   0  0  0  0  0  0  0  0  0  0  0  0
  -11.3327   -8.8253    1.5847 H   0  0  0  0  0  0  0  0  0  0  0  0
  -12.6787   -7.6900    1.5030 H   0  0  0  0  0  0  0  0  0  0  0  0
  -12.0012   -8.3542    0.0139 H   0  0  0  0  0  0  0  0  0  0  0  0
  1  4  1  0  0  0  0
  1  2  1  0  0  0  0
  2  3  1  0  0  0  0
  4 12  1  0  0  0  0
  5 13  1  0  0  0  0
  5  4  2  0  0  0  0
  6  5  1  0  0  0  0
  7  8  2  0  0  0  0
  7  6  1  0  0  0  0
  9  7  2  0  0  0  0
 10  6  2  0  0  0  0
 10 11  1  0  0  0  0
 11  1  2  0  0  0  0
 14 10  1  0  0  0  0
 15 11  1  0  0  0  0
 16 17  1  0  0  0  0
 16 22  1  0  0  0  0
 17 23  1  0  0  0  0
 18 30  1  0  0  0  0
 18 17  2  0  0  0  0
 19 18  1  0  0  0  0
 20 19  2  0  0  0  0
 20 21  1  0  0  0  0
 21 16  2  0  0  0  0
 24 19  1  0  0  0  0
 25 20  1  0  0  0  0
 26 27  2  0  0  0  0
 26 21  1  0  0  0  0
 26 28  1  0  0  0  0
 29 26  2  0  0  0  0
 30 32  1  0  0  0  0
 30 31  1  0  0  0  0
 33 30  1  0  0  0  0
M  RAD  3   2   2   3   3  28   2
M  END
