Coordinates from ORCA-job 4-NO2PhN2+~TsO-_B3LYPG-6-31G_dp-NX-Scan-d89-09-n800
 OpenBabel11261920283D

 33 33  0  0  0  0  0  0  0  0999 V2000
   -4.7393   -0.7674    0.6163 C   0  0  0  0  0  0  0  0  0  0  0  0
   -5.6376    0.0046    1.3164 N   0  0  0  0  0  0  0  0  0  0  0  0
   -6.3865    0.6051    1.8883 N   0  0  0  0  0  0  0  0  0  0  0  0
   -3.3727   -0.3993    0.6132 C   0  0  0  0  0  0  0  0  0  0  0  0
   -2.5181   -1.2099   -0.1053 C   0  0  0  0  0  0  0  0  0  0  0  0
   -3.0392   -2.3325   -0.7735 C   0  0  0  0  0  0  0  0  0  0  0  0
   -2.0833   -3.1810   -1.5302 N   0  0  0  0  0  0  0  0  0  0  0  0
   -0.9044   -2.8322   -1.5216 O   0  0  0  0  0  0  0  0  0  0  0  0
   -2.5386   -4.1611   -2.1039 O   0  0  0  0  0  0  0  0  0  0  0  0
   -4.3837   -2.6819   -0.7620 C   0  0  0  0  0  0  0  0  0  0  0  0
   -5.2760   -1.8778   -0.0529 C   0  0  0  0  0  0  0  0  0  0  0  0
   -3.0195    0.4753    1.1471 H   0  0  0  0  0  0  0  0  0  0  0  0
   -1.4572   -1.0033   -0.1661 H   0  0  0  0  0  0  0  0  0  0  0  0
   -4.7774   -3.5397   -1.2965 H   0  0  0  0  0  0  0  0  0  0  0  0
   -6.3588   -2.0863   -0.0056 H   0  0  0  0  0  0  0  0  0  0  0  0
   -9.9177   -4.6376    1.0364 C   0  0  0  0  0  0  0  0  0  0  0  0
  -10.4768   -5.7898    1.5814 C   0  0  0  0  0  0  0  0  0  0  0  0
  -10.2083   -7.0552    1.0354 C   0  0  0  0  0  0  0  0  0  0  0  0
   -9.3581   -7.1309   -0.0741 C   0  0  0  0  0  0  0  0  0  0  0  0
   -8.7909   -5.9827   -0.6295 C   0  0  0  0  0  0  0  0  0  0  0  0
   -9.0734   -4.7364   -0.0732 C   0  0  0  0  0  0  0  0  0  0  0  0
  -10.1201   -3.6634    1.4683 H   0  0  0  0  0  0  0  0  0  0  0  0
  -11.1302   -5.7094    2.4474 H   0  0  0  0  0  0  0  0  0  0  0  0
   -9.1346   -8.1017   -0.5095 H   0  0  0  0  0  0  0  0  0  0  0  0
   -8.1255   -6.0432   -1.4841 H   0  0  0  0  0  0  0  0  0  0  0  0
   -8.3970   -3.2464   -0.8227 S   0  0  0  0  0  0  0  0  0  0  0  0
   -8.0643   -2.3508    0.3537 O   0  0  0  0  0  0  0  0  0  0  0  0
   -9.4428   -2.6830   -1.6984 O   0  0  0  0  0  0  0  0  0  0  0  0
   -7.1516   -3.6803   -1.5276 O   0  0  0  0  0  0  0  0  0  0  0  0
  -10.8200   -8.2977    1.6395 C   0  0  0  0  0  0  0  0  0  0  0  0
  -10.4974   -8.4385    2.6779 H   0  0  0  0  0  0  0  0  0  0  0  0
  -11.9148   -8.2387    1.6502 H   0  0  0  0  0  0  0  0  0  0  0  0
  -10.5387   -9.1937    1.0795 H   0  0  0  0  0  0  0  0  0  0  0  0
  1  2  1  0  0  0  0
  2  3  1  0  0  0  0
  4  1  1  0  0  0  0
  4 12  1  0  0  0  0
  5  4  2  0  0  0  0
  6 10  2  0  0  0  0
  6  5  1  0  0  0  0
  7  8  2  0  0  0  0
  7  6  1  0  0  0  0
  9  7  2  0  0  0  0
 10 11  1  0  0  0  0
 11 15  1  0  0  0  0
 11  1  2  0  0  0  0
 13  5  1  0  0  0  0
 14 10  1  0  0  0  0
 16 22  1  0  0  0  0
 16 17  1  0  0  0  0
 17 23  1  0  0  0  0
 18 17  2  0  0  0  0
 18 30  1  0  0  0  0
 19 18  1  0  0  0  0
 20 19  2  0  0  0  0
 20 21  1  0  0  0  0
 21 16  2  0  0  0  0
 24 19  1  0  0  0  0
 25 20  1  0  0  0  0
 26 21  1  0  0  0  0
 26 27  1  0  0  0  0
 28 26  2  0  0  0  0
 29 26  2  0  0  0  0
 30 32  1  0  0  0  0
 30 31  1  0  0  0  0
 33 30  1  0  0  0  0
M  RAD  3   2   2   3   3  27   2
M  END
