Coordinates from ORCA-job 4-NO2PhN2+~TsO-_B3LYPG-6-31G_dp-NX-Scan-d89-09-n800
 OpenBabel11261920283D

 33 33  0  0  0  0  0  0  0  0999 V2000
   -4.1633   -2.8839    0.3309 C   0  0  0  0  0  0  0  0  0  0  0  0
   -4.7187   -3.7260    1.3450 N   0  0  0  0  0  0  0  0  0  0  0  0
   -4.6243   -4.0544    2.4192 N   0  0  0  0  0  0  0  0  0  0  0  0
   -3.3012   -1.8793    0.7984 C   0  0  0  0  0  0  0  0  0  0  0  0
   -2.6988   -1.0469   -0.1329 C   0  0  0  0  0  0  0  0  0  0  0  0
   -2.9687   -1.2540   -1.4863 C   0  0  0  0  0  0  0  0  0  0  0  0
   -2.3156   -0.3667   -2.4766 N   0  0  0  0  0  0  0  0  0  0  0  0
   -1.5784    0.5131   -2.0398 O   0  0  0  0  0  0  0  0  0  0  0  0
   -2.5552   -0.5742   -3.6614 O   0  0  0  0  0  0  0  0  0  0  0  0
   -3.8219   -2.2529   -1.9424 C   0  0  0  0  0  0  0  0  0  0  0  0
   -4.4416   -3.0914   -1.0176 C   0  0  0  0  0  0  0  0  0  0  0  0
   -3.1235   -1.7558    1.8604 H   0  0  0  0  0  0  0  0  0  0  0  0
   -2.0320   -0.2485    0.1667 H   0  0  0  0  0  0  0  0  0  0  0  0
   -4.0046   -2.3621   -3.0038 H   0  0  0  0  0  0  0  0  0  0  0  0
   -5.1377   -3.8642   -1.3145 H   0  0  0  0  0  0  0  0  0  0  0  0
   -9.3381   -4.8785    1.8746 C   0  0  0  0  0  0  0  0  0  0  0  0
  -10.4166   -5.7036    2.1875 C   0  0  0  0  0  0  0  0  0  0  0  0
  -11.0438   -6.4816    1.2038 C   0  0  0  0  0  0  0  0  0  0  0  0
  -10.5596   -6.4125   -0.1108 C   0  0  0  0  0  0  0  0  0  0  0  0
   -9.4833   -5.5915   -0.4403 C   0  0  0  0  0  0  0  0  0  0  0  0
   -8.8767   -4.8289    0.5587 C   0  0  0  0  0  0  0  0  0  0  0  0
   -8.8648   -4.2647    2.6333 H   0  0  0  0  0  0  0  0  0  0  0  0
  -10.7820   -5.7405    3.2106 H   0  0  0  0  0  0  0  0  0  0  0  0
  -11.0357   -7.0058   -0.8873 H   0  0  0  0  0  0  0  0  0  0  0  0
   -9.1192   -5.5256   -1.4597 H   0  0  0  0  0  0  0  0  0  0  0  0
   -7.4772   -3.7880    0.1490 S   0  0  0  0  0  0  0  0  0  0  0  0
   -6.2623   -4.7326    0.3848 O   0  0  0  0  0  0  0  0  0  0  0  0
   -7.4340   -2.6697    1.1147 O   0  0  0  0  0  0  0  0  0  0  0  0
   -7.5821   -3.4433   -1.2831 O   0  0  0  0  0  0  0  0  0  0  0  0
  -12.2345   -7.3464    1.5430 C   0  0  0  0  0  0  0  0  0  0  0  0
  -12.2252   -7.6474    2.5945 H   0  0  0  0  0  0  0  0  0  0  0  0
  -13.1740   -6.8075    1.3660 H   0  0  0  0  0  0  0  0  0  0  0  0
  -12.2601   -8.2518    0.9299 H   0  0  0  0  0  0  0  0  0  0  0  0
  1  4  1  0  0  0  0
  1  2  1  0  0  0  0
  2  3  2  0  0  0  0
  4 12  1  0  0  0  0
  5 13  1  0  0  0  0
  5  4  2  0  0  0  0
  6  5  1  0  0  0  0
  7  8  2  0  0  0  0
  7  6  1  0  0  0  0
  9  7  2  0  0  0  0
 10  6  2  0  0  0  0
 10 11  1  0  0  0  0
 11  1  2  0  0  0  0
 14 10  1  0  0  0  0
 15 11  1  0  0  0  0
 16 17  1  0  0  0  0
 16 22  1  0  0  0  0
 17 23  1  0  0  0  0
 18 30  1  0  0  0  0
 18 17  2  0  0  0  0
 19 18  1  0  0  0  0
 20 19  2  0  0  0  0
 20 21  1  0  0  0  0
 21 16  2  0  0  0  0
 24 19  1  0  0  0  0
 25 20  1  0  0  0  0
 26 27  2  0  0  0  0
 26 21  1  0  0  0  0
 26 28  1  0  0  0  0
 29 26  2  0  0  0  0
 30 31  1  0  0  0  0
 32 30  1  0  0  0  0
 33 30  1  0  0  0  0
M  RAD  2   3   2  28   2
M  END
