Coordinates from ORCA-job 4-NO2PhN2+~TsO-_B3LYPG-6-31G_dp-NX-Scan-d89-09-n800
 OpenBabel11261920283D

 33 33  0  0  0  0  0  0  0  0999 V2000
   -4.6520   -0.8370    1.1057 C   0  0  0  0  0  0  0  0  0  0  0  0
   -5.2087   -0.1509    2.1564 N   0  0  0  0  0  0  0  0  0  0  0  0
   -5.5837    0.4253    3.0424 N   0  0  0  0  0  0  0  0  0  0  0  0
   -3.2402   -0.7324    0.9879 C   0  0  0  0  0  0  0  0  0  0  0  0
   -2.6399   -1.4164   -0.0464 C   0  0  0  0  0  0  0  0  0  0  0  0
   -3.4427   -2.1773   -0.9104 C   0  0  0  0  0  0  0  0  0  0  0  0
   -2.7505   -2.9082   -2.0062 N   0  0  0  0  0  0  0  0  0  0  0  0
   -1.5221   -2.8261   -2.0308 O   0  0  0  0  0  0  0  0  0  0  0  0
   -3.4480   -3.5276   -2.7934 O   0  0  0  0  0  0  0  0  0  0  0  0
   -4.8241   -2.2836   -0.7948 C   0  0  0  0  0  0  0  0  0  0  0  0
   -5.4684   -1.5887    0.2341 C   0  0  0  0  0  0  0  0  0  0  0  0
   -2.6663   -0.1381    1.6897 H   0  0  0  0  0  0  0  0  0  0  0  0
   -1.5689   -1.3857   -0.2021 H   0  0  0  0  0  0  0  0  0  0  0  0
   -5.4430   -2.9146   -1.4517 H   0  0  0  0  0  0  0  0  0  0  0  0
   -6.5632   -1.6834    0.2979 H   0  0  0  0  0  0  0  0  0  0  0  0
  -10.0335   -4.6338    0.4319 C   0  0  0  0  0  0  0  0  0  0  0  0
  -10.5986   -5.6591    1.1861 C   0  0  0  0  0  0  0  0  0  0  0  0
  -10.0777   -6.9614    1.1449 C   0  0  0  0  0  0  0  0  0  0  0  0
   -8.9694   -7.2075    0.3207 C   0  0  0  0  0  0  0  0  0  0  0  0
   -8.3953   -6.1894   -0.4384 C   0  0  0  0  0  0  0  0  0  0  0  0
   -8.9290   -4.8998   -0.3835 C   0  0  0  0  0  0  0  0  0  0  0  0
  -10.4383   -3.6278    0.4710 H   0  0  0  0  0  0  0  0  0  0  0  0
  -11.4610   -5.4502    1.8149 H   0  0  0  0  0  0  0  0  0  0  0  0
   -8.5537   -8.2116    0.2718 H   0  0  0  0  0  0  0  0  0  0  0  0
   -7.5375   -6.3748   -1.0755 H   0  0  0  0  0  0  0  0  0  0  0  0
   -8.2430   -3.5877   -1.4092 S   0  0  0  0  0  0  0  0  0  0  0  0
   -8.1550   -2.4047   -0.4736 O   0  0  0  0  0  0  0  0  0  0  0  0
   -9.1872   -3.3979   -2.5298 O   0  0  0  0  0  0  0  0  0  0  0  0
   -6.8855   -4.0798   -1.8057 O   0  0  0  0  0  0  0  0  0  0  0  0
  -10.6768   -8.0651    1.9838 C   0  0  0  0  0  0  0  0  0  0  0  0
  -10.1098   -8.2126    2.9117 H   0  0  0  0  0  0  0  0  0  0  0  0
  -11.7090   -7.8386    2.2658 H   0  0  0  0  0  0  0  0  0  0  0  0
  -10.6729   -9.0207    1.4495 H   0  0  0  0  0  0  0  0  0  0  0  0
  1  2  1  0  0  0  0
  2  3  1  0  0  0  0
  4  1  1  0  0  0  0
  4 12  1  0  0  0  0
  5  4  2  0  0  0  0
  6 10  2  0  0  0  0
  6  5  1  0  0  0  0
  7  6  1  0  0  0  0
  8  7  2  0  0  0  0
  9  7  2  0  0  0  0
 10 11  1  0  0  0  0
 11 15  1  0  0  0  0
 11  1  2  0  0  0  0
 13  5  1  0  0  0  0
 14 10  1  0  0  0  0
 16 22  1  0  0  0  0
 16 17  2  0  0  0  0
 17 23  1  0  0  0  0
 18 17  1  0  0  0  0
 18 30  1  0  0  0  0
 19 18  2  0  0  0  0
 20 21  2  0  0  0  0
 20 19  1  0  0  0  0
 21 16  1  0  0  0  0
 24 19  1  0  0  0  0
 25 20  1  0  0  0  0
 26 27  1  0  0  0  0
 26 21  1  0  0  0  0
 28 26  2  0  0  0  0
 29 26  2  0  0  0  0
 30 32  1  0  0  0  0
 30 31  1  0  0  0  0
 33 30  1  0  0  0  0
M  RAD  3   2   2   3   3  27   2
M  END
