Coordinates from ORCA-job 4-NO2PhN2+~TsO-_B3LYPG-6-31G_dp-NX-Scan-d89-09-n800
 OpenBabel11261920283D

 33 33  0  0  0  0  0  0  0  0999 V2000
   -4.5931   -2.4615    0.4955 C   0  0  0  0  0  0  0  0  0  0  0  0
   -5.4653   -3.0807    1.4321 N   0  0  0  0  0  0  0  0  0  0  0  0
   -5.6906   -3.4196    2.4806 N   0  0  0  0  0  0  0  0  0  0  0  0
   -3.8769   -1.3572    0.9800 C   0  0  0  0  0  0  0  0  0  0  0  0
   -2.9673   -0.7529    0.1225 C   0  0  0  0  0  0  0  0  0  0  0  0
   -2.8021   -1.2840   -1.1562 C   0  0  0  0  0  0  0  0  0  0  0  0
   -1.8186   -0.6402   -2.0588 N   0  0  0  0  0  0  0  0  0  0  0  0
   -1.2176    0.3386   -1.6243 O   0  0  0  0  0  0  0  0  0  0  0  0
   -1.6724   -1.1331   -3.1719 O   0  0  0  0  0  0  0  0  0  0  0  0
   -3.5175   -2.3851   -1.6206 C   0  0  0  0  0  0  0  0  0  0  0  0
   -4.4538   -2.9912   -0.7868 C   0  0  0  0  0  0  0  0  0  0  0  0
   -4.0371   -0.9852    1.9851 H   0  0  0  0  0  0  0  0  0  0  0  0
   -2.3891    0.1104    0.4260 H   0  0  0  0  0  0  0  0  0  0  0  0
   -3.3528   -2.7467   -2.6273 H   0  0  0  0  0  0  0  0  0  0  0  0
   -5.0748   -3.8295   -1.1117 H   0  0  0  0  0  0  0  0  0  0  0  0
   -9.7165   -4.4161    0.9647 C   0  0  0  0  0  0  0  0  0  0  0  0
  -10.6446   -5.1889    1.6617 C   0  0  0  0  0  0  0  0  0  0  0  0
  -10.7933   -6.5574    1.3981 C   0  0  0  0  0  0  0  0  0  0  0  0
   -9.9733   -7.1380    0.4196 C   0  0  0  0  0  0  0  0  0  0  0  0
   -9.0402   -6.3784   -0.2834 C   0  0  0  0  0  0  0  0  0  0  0  0
   -8.9148   -5.0156   -0.0075 C   0  0  0  0  0  0  0  0  0  0  0  0
   -9.6001   -3.3593    1.1794 H   0  0  0  0  0  0  0  0  0  0  0  0
  -11.2635   -4.7217    2.4240 H   0  0  0  0  0  0  0  0  0  0  0  0
  -10.0661   -8.2003    0.2062 H   0  0  0  0  0  0  0  0  0  0  0  0
   -8.3983   -6.8324   -1.0307 H   0  0  0  0  0  0  0  0  0  0  0  0
   -7.7643   -4.0241   -0.9674 S   0  0  0  0  0  0  0  0  0  0  0  0
   -7.2489   -2.9699    0.0290 O   0  0  0  0  0  0  0  0  0  0  0  0
   -8.5183   -3.4096   -2.0794 O   0  0  0  0  0  0  0  0  0  0  0  0
   -6.6619   -4.9481   -1.3572 O   0  0  0  0  0  0  0  0  0  0  0  0
  -11.8236   -7.3835    2.1322 C   0  0  0  0  0  0  0  0  0  0  0  0
  -12.1204   -6.9109    3.0725 H   0  0  0  0  0  0  0  0  0  0  0  0
  -12.7308   -7.5096    1.5282 H   0  0  0  0  0  0  0  0  0  0  0  0
  -11.4466   -8.3853    2.3602 H   0  0  0  0  0  0  0  0  0  0  0  0
  1  4  1  0  0  0  0
  1  2  1  0  0  0  0
  2  3  2  0  0  0  0
  4 12  1  0  0  0  0
  5 13  1  0  0  0  0
  5  4  2  0  0  0  0
  6  5  1  0  0  0  0
  7  8  2  0  0  0  0
  7  6  1  0  0  0  0
  9  7  2  0  0  0  0
 10  6  2  0  0  0  0
 10 11  1  0  0  0  0
 11  1  2  0  0  0  0
 14 10  1  0  0  0  0
 15 11  1  0  0  0  0
 16 22  1  0  0  0  0
 16 17  2  0  0  0  0
 17 23  1  0  0  0  0
 18 17  1  0  0  0  0
 18 30  1  0  0  0  0
 19 18  2  0  0  0  0
 20 21  2  0  0  0  0
 20 19  1  0  0  0  0
 21 16  1  0  0  0  0
 24 19  1  0  0  0  0
 25 20  1  0  0  0  0
 26 21  1  0  0  0  0
 26 27  1  0  0  0  0
 28 26  2  0  0  0  0
 29 26  2  0  0  0  0
 30 33  1  0  0  0  0
 30 31  1  0  0  0  0
 32 30  1  0  0  0  0
M  RAD  2   3   2  27   2
M  END
