Coordinates from ORCA-job 4-NO2PhN2+~TsO-_B3LYPG-6-31G_dp-NX-Scan-d89-09-n800
 OpenBabel11261920283D

 33 33  0  0  0  0  0  0  0  0999 V2000
   -4.6608   -0.8451    1.2049 C   0  0  0  0  0  0  0  0  0  0  0  0
   -5.1256   -0.1380    2.2863 N   0  0  0  0  0  0  0  0  0  0  0  0
   -5.3942    0.4576    3.2001 N   0  0  0  0  0  0  0  0  0  0  0  0
   -3.2463   -0.8601    1.0694 C   0  0  0  0  0  0  0  0  0  0  0  0
   -2.7156   -1.5607    0.0087 C   0  0  0  0  0  0  0  0  0  0  0  0
   -3.5884   -2.2112   -0.8750 C   0  0  0  0  0  0  0  0  0  0  0  0
   -2.9708   -2.9445   -2.0109 N   0  0  0  0  0  0  0  0  0  0  0  0
   -1.7560   -3.1373   -1.9410 O   0  0  0  0  0  0  0  0  0  0  0  0
   -3.7074   -3.2868   -2.9210 O   0  0  0  0  0  0  0  0  0  0  0  0
   -4.9745   -2.2055   -0.7470 C   0  0  0  0  0  0  0  0  0  0  0  0
   -5.5451   -1.5026    0.3178 C   0  0  0  0  0  0  0  0  0  0  0  0
   -2.6174   -0.3389    1.7818 H   0  0  0  0  0  0  0  0  0  0  0  0
   -1.6466   -1.6246   -0.1521 H   0  0  0  0  0  0  0  0  0  0  0  0
   -5.6329   -2.7780   -1.4230 H   0  0  0  0  0  0  0  0  0  0  0  0
   -6.6349   -1.5145    0.4034 H   0  0  0  0  0  0  0  0  0  0  0  0
  -10.0257   -4.6375    0.2856 C   0  0  0  0  0  0  0  0  0  0  0  0
  -10.5620   -5.6360    1.0952 C   0  0  0  0  0  0  0  0  0  0  0  0
   -9.9823   -6.9125    1.1522 C   0  0  0  0  0  0  0  0  0  0  0  0
   -8.8441   -7.1607    0.3697 C   0  0  0  0  0  0  0  0  0  0  0  0
   -8.2989   -6.1696   -0.4438 C   0  0  0  0  0  0  0  0  0  0  0  0
   -8.8911   -4.9049   -0.4872 C   0  0  0  0  0  0  0  0  0  0  0  0
  -10.4769   -3.6513    0.2485 H   0  0  0  0  0  0  0  0  0  0  0  0
  -11.4477   -5.4267    1.6904 H   0  0  0  0  0  0  0  0  0  0  0  0
   -8.3823   -8.1454    0.3970 H   0  0  0  0  0  0  0  0  0  0  0  0
   -7.4188   -6.3557   -1.0495 H   0  0  0  0  0  0  0  0  0  0  0  0
   -8.2372   -3.6296   -1.5793 S   0  0  0  0  0  0  0  0  0  0  0  0
   -8.1936   -2.3943   -0.7163 O   0  0  0  0  0  0  0  0  0  0  0  0
   -9.1747   -3.5515   -2.7216 O   0  0  0  0  0  0  0  0  0  0  0  0
   -6.8569   -4.0954   -1.9325 O   0  0  0  0  0  0  0  0  0  0  0  0
  -10.5522   -7.9875    2.0466 C   0  0  0  0  0  0  0  0  0  0  0  0
   -9.9557   -8.1036    2.9604 H   0  0  0  0  0  0  0  0  0  0  0  0
  -11.5758   -7.7538    2.3518 H   0  0  0  0  0  0  0  0  0  0  0  0
  -10.5621   -8.9610    1.5450 H   0  0  0  0  0  0  0  0  0  0  0  0
  1  2  1  0  0  0  0
  2  3  1  0  0  0  0
  4  1  1  0  0  0  0
  4 12  1  0  0  0  0
  5  4  2  0  0  0  0
  6 10  2  0  0  0  0
  6  5  1  0  0  0  0
  7  8  2  0  0  0  0
  7  6  1  0  0  0  0
  9  7  2  0  0  0  0
 10 11  1  0  0  0  0
 11 15  1  0  0  0  0
 11  1  2  0  0  0  0
 13  5  1  0  0  0  0
 14 10  1  0  0  0  0
 16 17  2  0  0  0  0
 17 18  1  0  0  0  0
 17 23  1  0  0  0  0
 18 30  1  0  0  0  0
 19 24  1  0  0  0  0
 19 18  2  0  0  0  0
 20 19  1  0  0  0  0
 21 20  2  0  0  0  0
 21 16  1  0  0  0  0
 22 16  1  0  0  0  0
 25 20  1  0  0  0  0
 26 27  1  0  0  0  0
 26 21  1  0  0  0  0
 28 26  2  0  0  0  0
 29 26  2  0  0  0  0
 30 32  1  0  0  0  0
 30 31  1  0  0  0  0
 33 30  1  0  0  0  0
M  RAD  3   2   2   3   3  27   2
M  END
