Coordinates from ORCA-job 4-NO2PhN2+~TsO-_B3LYPG-6-31G_dp-NX-Scan-d89-09-n800
 OpenBabel11261920283D

 33 33  0  0  0  0  0  0  0  0999 V2000
   -4.7189   -2.5526    0.3321 C   0  0  0  0  0  0  0  0  0  0  0  0
   -5.6867   -3.2315    1.1323 N   0  0  0  0  0  0  0  0  0  0  0  0
   -5.9506   -3.6827    2.1302 N   0  0  0  0  0  0  0  0  0  0  0  0
   -4.0026   -1.5358    0.9754 C   0  0  0  0  0  0  0  0  0  0  0  0
   -3.0159   -0.8806    0.2483 C   0  0  0  0  0  0  0  0  0  0  0  0
   -2.7801   -1.2793   -1.0663 C   0  0  0  0  0  0  0  0  0  0  0  0
   -1.7173   -0.5844   -1.8290 N   0  0  0  0  0  0  0  0  0  0  0  0
   -1.1126    0.3168   -1.2541 O   0  0  0  0  0  0  0  0  0  0  0  0
   -1.5140   -0.9611   -2.9785 O   0  0  0  0  0  0  0  0  0  0  0  0
   -3.4964   -2.2987   -1.6905 C   0  0  0  0  0  0  0  0  0  0  0  0
   -4.5057   -2.9502   -0.9869 C   0  0  0  0  0  0  0  0  0  0  0  0
   -4.2197   -1.2643    2.0016 H   0  0  0  0  0  0  0  0  0  0  0  0
   -2.4319   -0.0782    0.6804 H   0  0  0  0  0  0  0  0  0  0  0  0
   -3.2704   -2.5629   -2.7153 H   0  0  0  0  0  0  0  0  0  0  0  0
   -5.1169   -3.7403   -1.4228 H   0  0  0  0  0  0  0  0  0  0  0  0
   -9.7426   -4.3557    0.8591 C   0  0  0  0  0  0  0  0  0  0  0  0
  -10.6191   -5.1090    1.6384 C   0  0  0  0  0  0  0  0  0  0  0  0
  -10.7055   -6.5010    1.4941 C   0  0  0  0  0  0  0  0  0  0  0  0
   -9.8763   -7.1240    0.5504 C   0  0  0  0  0  0  0  0  0  0  0  0
   -8.9935   -6.3844   -0.2348 C   0  0  0  0  0  0  0  0  0  0  0  0
   -8.9295   -4.9989   -0.0766 C   0  0  0  0  0  0  0  0  0  0  0  0
   -9.6759   -3.2797    0.9810 H   0  0  0  0  0  0  0  0  0  0  0  0
  -11.2462   -4.6080    2.3718 H   0  0  0  0  0  0  0  0  0  0  0  0
   -9.9212   -8.2039    0.4298 H   0  0  0  0  0  0  0  0  0  0  0  0
   -8.3446   -6.8695   -0.9558 H   0  0  0  0  0  0  0  0  0  0  0  0
   -7.8432   -4.0394   -1.1361 S   0  0  0  0  0  0  0  0  0  0  0  0
   -7.3214   -2.9109   -0.2175 O   0  0  0  0  0  0  0  0  0  0  0  0
   -8.6447   -3.4787   -2.2369 O   0  0  0  0  0  0  0  0  0  0  0  0
   -6.7302   -4.9512   -1.5109 O   0  0  0  0  0  0  0  0  0  0  0  0
  -11.6832   -7.3071    2.3168 C   0  0  0  0  0  0  0  0  0  0  0  0
  -11.9273   -6.8044    3.2569 H   0  0  0  0  0  0  0  0  0  0  0  0
  -12.6242   -7.4568    1.7730 H   0  0  0  0  0  0  0  0  0  0  0  0
  -11.2864   -8.2985    2.5545 H   0  0  0  0  0  0  0  0  0  0  0  0
  1  4  1  0  0  0  0
  1  2  1  0  0  0  0
  2  3  2  0  0  0  0
  4 12  1  0  0  0  0
  5 13  1  0  0  0  0
  5  4  2  0  0  0  0
  6  5  1  0  0  0  0
  7  8  2  0  0  0  0
  7  6  1  0  0  0  0
  9  7  2  0  0  0  0
 10  6  2  0  0  0  0
 10 11  1  0  0  0  0
 11  1  2  0  0  0  0
 14 10  1  0  0  0  0
 15 11  1  0  0  0  0
 16 22  1  0  0  0  0
 16 17  2  0  0  0  0
 17 23  1  0  0  0  0
 18 17  1  0  0  0  0
 18 30  1  0  0  0  0
 19 18  2  0  0  0  0
 20 21  2  0  0  0  0
 20 19  1  0  0  0  0
 21 16  1  0  0  0  0
 24 19  1  0  0  0  0
 25 20  1  0  0  0  0
 26 27  1  0  0  0  0
 26 21  1  0  0  0  0
 28 26  2  0  0  0  0
 29 26  2  0  0  0  0
 30 33  1  0  0  0  0
 30 31  1  0  0  0  0
 32 30  1  0  0  0  0
M  RAD  2   3   2  27   2
M  END
