Coordinates from ORCA-job 4-NO2PhN2+~TsO-_B3LYPG-6-31G_dp-NX-Scan-d89-09-n800
 OpenBabel11261920283D

 33 33  0  0  0  0  0  0  0  0999 V2000
   -4.6062   -1.5288    0.3658 C   0  0  0  0  0  0  0  0  0  0  0  0
   -5.5968   -1.2504    1.2993 N   0  0  0  0  0  0  0  0  0  0  0  0
   -6.4794   -1.0735    1.9754 N   0  0  0  0  0  0  0  0  0  0  0  0
   -3.2834   -1.2410    0.7407 C   0  0  0  0  0  0  0  0  0  0  0  0
   -2.2739   -1.4944   -0.1753 C   0  0  0  0  0  0  0  0  0  0  0  0
   -2.6252   -2.0043   -1.4260 C   0  0  0  0  0  0  0  0  0  0  0  0
   -1.5418   -2.2639   -2.4040 N   0  0  0  0  0  0  0  0  0  0  0  0
   -0.3934   -2.0171   -2.0454 O   0  0  0  0  0  0  0  0  0  0  0  0
   -1.8687   -2.7038   -3.5010 O   0  0  0  0  0  0  0  0  0  0  0  0
   -3.9392   -2.2769   -1.7971 C   0  0  0  0  0  0  0  0  0  0  0  0
   -4.9679   -2.0488   -0.8874 C   0  0  0  0  0  0  0  0  0  0  0  0
   -3.0654   -0.8389    1.7231 H   0  0  0  0  0  0  0  0  0  0  0  0
   -1.2340   -1.3017    0.0540 H   0  0  0  0  0  0  0  0  0  0  0  0
   -4.1470   -2.6756   -2.7816 H   0  0  0  0  0  0  0  0  0  0  0  0
   -6.0093   -2.2688   -1.1214 H   0  0  0  0  0  0  0  0  0  0  0  0
   -8.6697   -5.8173    1.5156 C   0  0  0  0  0  0  0  0  0  0  0  0
   -9.5896   -6.8547    1.6729 C   0  0  0  0  0  0  0  0  0  0  0  0
  -10.8282   -6.8305    1.0192 C   0  0  0  0  0  0  0  0  0  0  0  0
  -11.1229   -5.7380    0.1883 C   0  0  0  0  0  0  0  0  0  0  0  0
  -10.2144   -4.6968    0.0187 C   0  0  0  0  0  0  0  0  0  0  0  0
   -8.9888   -4.7420    0.6878 C   0  0  0  0  0  0  0  0  0  0  0  0
   -7.7048   -5.8422    2.0095 H   0  0  0  0  0  0  0  0  0  0  0  0
   -9.3385   -7.6992    2.3100 H   0  0  0  0  0  0  0  0  0  0  0  0
  -12.0748   -5.7071   -0.3359 H   0  0  0  0  0  0  0  0  0  0  0  0
  -10.4365   -3.8619   -0.6375 H   0  0  0  0  0  0  0  0  0  0  0  0
   -7.8319   -3.3886    0.5093 S   0  0  0  0  0  0  0  0  0  0  0  0
   -6.4695   -3.9189    0.8007 O   0  0  0  0  0  0  0  0  0  0  0  0
   -8.2389   -2.3623    1.5524 O   0  0  0  0  0  0  0  0  0  0  0  0
   -7.9852   -2.8671   -0.8768 O   0  0  0  0  0  0  0  0  0  0  0  0
  -11.8306   -7.9455    1.2037 C   0  0  0  0  0  0  0  0  0  0  0  0
  -11.3915   -8.7962    1.7318 H   0  0  0  0  0  0  0  0  0  0  0  0
  -12.6971   -7.6061    1.7841 H   0  0  0  0  0  0  0  0  0  0  0  0
  -12.2100   -8.3048    0.2413 H   0  0  0  0  0  0  0  0  0  0  0  0
  1  4  1  0  0  0  0
  1  2  1  0  0  0  0
  2  3  1  0  0  0  0
  4 12  1  0  0  0  0
  5 13  1  0  0  0  0
  5  4  2  0  0  0  0
  6  5  1  0  0  0  0
  7  8  2  0  0  0  0
  7  6  1  0  0  0  0
  9  7  2  0  0  0  0
 10  6  2  0  0  0  0
 10 11  1  0  0  0  0
 11  1  2  0  0  0  0
 14 10  1  0  0  0  0
 15 11  1  0  0  0  0
 16 17  1  0  0  0  0
 16 22  1  0  0  0  0
 17 23  1  0  0  0  0
 18 30  1  0  0  0  0
 18 17  2  0  0  0  0
 19 18  1  0  0  0  0
 20 19  2  0  0  0  0
 20 21  1  0  0  0  0
 21 16  2  0  0  0  0
 24 19  1  0  0  0  0
 25 20  1  0  0  0  0
 26 21  1  0  0  0  0
 26 27  2  0  0  0  0
 26 28  1  0  0  0  0
 29 26  2  0  0  0  0
 30 31  1  0  0  0  0
 30 32  1  0  0  0  0
 33 30  1  0  0  0  0
M  RAD  3   2   2   3   3  28   2
M  END
