Coordinates from ORCA-job 4-NO2PhN2+~TsO-_B3LYPG-6-31G_dp-NX-Scan-d89-09-n800
 OpenBabel11261920283D

 33 33  0  0  0  0  0  0  0  0999 V2000
   -4.8010   -0.6593    0.6766 C   0  0  0  0  0  0  0  0  0  0  0  0
   -5.4975    0.3239    1.3324 N   0  0  0  0  0  0  0  0  0  0  0  0
   -6.0402    1.1270    1.8938 N   0  0  0  0  0  0  0  0  0  0  0  0
   -3.3889   -0.6544    0.8171 C   0  0  0  0  0  0  0  0  0  0  0  0
   -2.6907   -1.6433    0.1589 C   0  0  0  0  0  0  0  0  0  0  0  0
   -3.4044   -2.5961   -0.5885 C   0  0  0  0  0  0  0  0  0  0  0  0
   -2.6191   -3.6600   -1.2640 N   0  0  0  0  0  0  0  0  0  0  0  0
   -1.3978   -3.6219   -1.1196 O   0  0  0  0  0  0  0  0  0  0  0  0
   -3.2409   -4.4929   -1.9085 O   0  0  0  0  0  0  0  0  0  0  0  0
   -4.7875   -2.5977   -0.7160 C   0  0  0  0  0  0  0  0  0  0  0  0
   -5.5274   -1.5940   -0.0851 C   0  0  0  0  0  0  0  0  0  0  0  0
   -2.8885    0.0949    1.4199 H   0  0  0  0  0  0  0  0  0  0  0  0
   -1.6113   -1.7094    0.2129 H   0  0  0  0  0  0  0  0  0  0  0  0
   -5.3375   -3.3355   -1.2972 H   0  0  0  0  0  0  0  0  0  0  0  0
   -6.6309   -1.5853   -0.1603 H   0  0  0  0  0  0  0  0  0  0  0  0
   -9.8079   -4.5543    0.8968 C   0  0  0  0  0  0  0  0  0  0  0  0
  -10.1970   -5.7313    1.5336 C   0  0  0  0  0  0  0  0  0  0  0  0
   -9.8453   -6.9863    1.0161 C   0  0  0  0  0  0  0  0  0  0  0  0
   -9.0908   -7.0289   -0.1642 C   0  0  0  0  0  0  0  0  0  0  0  0
   -8.6945   -5.8585   -0.8101 C   0  0  0  0  0  0  0  0  0  0  0  0
   -9.0548   -4.6201   -0.2772 C   0  0  0  0  0  0  0  0  0  0  0  0
  -10.0768   -3.5859    1.3047 H   0  0  0  0  0  0  0  0  0  0  0  0
  -10.7828   -5.6764    2.4483 H   0  0  0  0  0  0  0  0  0  0  0  0
   -8.8095   -7.9920   -0.5834 H   0  0  0  0  0  0  0  0  0  0  0  0
   -8.1051   -5.8936   -1.7200 H   0  0  0  0  0  0  0  0  0  0  0  0
   -8.6065   -3.1093   -1.1480 S   0  0  0  0  0  0  0  0  0  0  0  0
   -8.3500   -2.1034   -0.0468 O   0  0  0  0  0  0  0  0  0  0  0  0
   -9.7481   -2.7515   -2.0126 O   0  0  0  0  0  0  0  0  0  0  0  0
   -7.3459   -3.4338   -1.8843 O   0  0  0  0  0  0  0  0  0  0  0  0
  -10.2432   -8.2575    1.7286 C   0  0  0  0  0  0  0  0  0  0  0  0
   -9.4888   -8.5513    2.4700 H   0  0  0  0  0  0  0  0  0  0  0  0
  -11.1913   -8.1377    2.2622 H   0  0  0  0  0  0  0  0  0  0  0  0
  -10.3524   -9.0913    1.0284 H   0  0  0  0  0  0  0  0  0  0  0  0
  1  4  1  0  0  0  0
  1  2  1  0  0  0  0
  2  3  1  0  0  0  0
  4 12  1  0  0  0  0
  5 13  1  0  0  0  0
  5  4  2  0  0  0  0
  6  5  1  0  0  0  0
  7  8  2  0  0  0  0
  7  6  1  0  0  0  0
  9  7  2  0  0  0  0
 10  6  2  0  0  0  0
 10 11  1  0  0  0  0
 11  1  2  0  0  0  0
 14 10  1  0  0  0  0
 15 11  1  0  0  0  0
 16 22  1  0  0  0  0
 16 17  2  0  0  0  0
 17 23  1  0  0  0  0
 18 17  1  0  0  0  0
 18 30  1  0  0  0  0
 19 18  2  0  0  0  0
 20 21  2  0  0  0  0
 20 19  1  0  0  0  0
 21 16  1  0  0  0  0
 24 19  1  0  0  0  0
 25 20  1  0  0  0  0
 26 21  1  0  0  0  0
 26 27  1  0  0  0  0
 28 26  2  0  0  0  0
 29 26  2  0  0  0  0
 30 32  1  0  0  0  0
 30 31  1  0  0  0  0
 33 30  1  0  0  0  0
M  RAD  3   2   2   3   3  27   2
M  END
