Coordinates from ORCA-job 4-NO2PhN2+~TsO-_B3LYPG-6-31G_dp-NX-Scan-d89-09-n800
 OpenBabel11261920283D

 33 33  0  0  0  0  0  0  0  0999 V2000
   -4.8050   -0.6542    0.6891 C   0  0  0  0  0  0  0  0  0  0  0  0
   -5.4776    0.3452    1.3448 N   0  0  0  0  0  0  0  0  0  0  0  0
   -5.9965    1.1636    1.9072 N   0  0  0  0  0  0  0  0  0  0  0  0
   -3.3942   -0.6872    0.8423 C   0  0  0  0  0  0  0  0  0  0  0  0
   -2.7151   -1.6893    0.1845 C   0  0  0  0  0  0  0  0  0  0  0  0
   -3.4458   -2.6191   -0.5751 C   0  0  0  0  0  0  0  0  0  0  0  0
   -2.6818   -3.6993   -1.2490 N   0  0  0  0  0  0  0  0  0  0  0  0
   -1.4619   -3.6965   -1.0881 O   0  0  0  0  0  0  0  0  0  0  0  0
   -3.3176   -4.5078   -1.9105 O   0  0  0  0  0  0  0  0  0  0  0  0
   -4.8273   -2.5847   -0.7150 C   0  0  0  0  0  0  0  0  0  0  0  0
   -5.5478   -1.5659   -0.0855 C   0  0  0  0  0  0  0  0  0  0  0  0
   -2.8808    0.0451    1.4548 H   0  0  0  0  0  0  0  0  0  0  0  0
   -1.6384   -1.7834    0.2485 H   0  0  0  0  0  0  0  0  0  0  0  0
   -5.3915   -3.3063   -1.3044 H   0  0  0  0  0  0  0  0  0  0  0  0
   -6.6495   -1.5345   -0.1723 H   0  0  0  0  0  0  0  0  0  0  0  0
   -9.8004   -4.5453    0.8776 C   0  0  0  0  0  0  0  0  0  0  0  0
  -10.1726   -5.7219    1.5250 C   0  0  0  0  0  0  0  0  0  0  0  0
   -9.8071   -6.9765    1.0160 C   0  0  0  0  0  0  0  0  0  0  0  0
   -9.0562   -7.0190   -0.1665 C   0  0  0  0  0  0  0  0  0  0  0  0
   -8.6768   -5.8488   -0.8231 C   0  0  0  0  0  0  0  0  0  0  0  0
   -9.0505   -4.6108   -0.2985 C   0  0  0  0  0  0  0  0  0  0  0  0
  -10.0799   -3.5772    1.2791 H   0  0  0  0  0  0  0  0  0  0  0  0
  -10.7559   -5.6671    2.4413 H   0  0  0  0  0  0  0  0  0  0  0  0
   -8.7645   -7.9818   -0.5793 H   0  0  0  0  0  0  0  0  0  0  0  0
   -8.0902   -5.8837   -1.7348 H   0  0  0  0  0  0  0  0  0  0  0  0
   -8.6236   -3.1011   -1.1819 S   0  0  0  0  0  0  0  0  0  0  0  0
   -8.3690   -2.0866   -0.0885 O   0  0  0  0  0  0  0  0  0  0  0  0
   -9.7753   -2.7602   -2.0401 O   0  0  0  0  0  0  0  0  0  0  0  0
   -7.3659   -3.4183   -1.9264 O   0  0  0  0  0  0  0  0  0  0  0  0
  -10.1868   -8.2469    1.7399 C   0  0  0  0  0  0  0  0  0  0  0  0
   -9.4284   -8.5234    2.4838 H   0  0  0  0  0  0  0  0  0  0  0  0
  -11.1365   -8.1359    2.2725 H   0  0  0  0  0  0  0  0  0  0  0  0
  -10.2842   -9.0883    1.0471 H   0  0  0  0  0  0  0  0  0  0  0  0
  1  4  1  0  0  0  0
  1  2  1  0  0  0  0
  2  3  1  0  0  0  0
  4 12  1  0  0  0  0
  5 13  1  0  0  0  0
  5  4  2  0  0  0  0
  6  5  1  0  0  0  0
  7  8  2  0  0  0  0
  7  6  1  0  0  0  0
  9  7  2  0  0  0  0
 10  6  2  0  0  0  0
 10 11  1  0  0  0  0
 11  1  2  0  0  0  0
 14 10  1  0  0  0  0
 15 11  1  0  0  0  0
 16 22  1  0  0  0  0
 16 17  2  0  0  0  0
 17 23  1  0  0  0  0
 18 17  1  0  0  0  0
 18 30  1  0  0  0  0
 19 18  2  0  0  0  0
 20 21  2  0  0  0  0
 20 19  1  0  0  0  0
 21 16  1  0  0  0  0
 24 19  1  0  0  0  0
 25 20  1  0  0  0  0
 26 21  1  0  0  0  0
 26 27  1  0  0  0  0
 28 26  2  0  0  0  0
 29 26  2  0  0  0  0
 30 32  1  0  0  0  0
 30 31  1  0  0  0  0
 33 30  1  0  0  0  0
M  RAD  3   2   2   3   3  27   2
M  END
