Coordinates from ORCA-job 4-NO2PhN2+~TsO-_B3LYPG-6-31G_dp-NX-Scan-d89-09-n800
 OpenBabel11261920283D

 33 33  0  0  0  0  0  0  0  0999 V2000
   -4.4657   -2.1226    0.4235 C   0  0  0  0  0  0  0  0  0  0  0  0
   -5.3183   -2.2442    1.5516 N   0  0  0  0  0  0  0  0  0  0  0  0
   -5.6208   -1.9862    2.6018 N   0  0  0  0  0  0  0  0  0  0  0  0
   -3.0973   -2.0022    0.6998 C   0  0  0  0  0  0  0  0  0  0  0  0
   -2.2279   -1.8320   -0.3698 C   0  0  0  0  0  0  0  0  0  0  0  0
   -2.7607   -1.7732   -1.6566 C   0  0  0  0  0  0  0  0  0  0  0  0
   -1.8291   -1.5857   -2.7933 N   0  0  0  0  0  0  0  0  0  0  0  0
   -0.6337   -1.4908   -2.5283 O   0  0  0  0  0  0  0  0  0  0  0  0
   -2.3170   -1.5368   -3.9175 O   0  0  0  0  0  0  0  0  0  0  0  0
   -4.1243   -1.8824   -1.9194 C   0  0  0  0  0  0  0  0  0  0  0  0
   -5.0096   -2.0769   -0.8622 C   0  0  0  0  0  0  0  0  0  0  0  0
   -2.7325   -2.0476    1.7195 H   0  0  0  0  0  0  0  0  0  0  0  0
   -1.1591   -1.7402   -0.2245 H   0  0  0  0  0  0  0  0  0  0  0  0
   -4.4792   -1.8262   -2.9406 H   0  0  0  0  0  0  0  0  0  0  0  0
   -6.0807   -2.1861   -1.0166 H   0  0  0  0  0  0  0  0  0  0  0  0
   -9.5041   -5.0160    2.0830 C   0  0  0  0  0  0  0  0  0  0  0  0
  -10.3429   -6.1249    2.1824 C   0  0  0  0  0  0  0  0  0  0  0  0
  -10.7720   -6.8139    1.0399 C   0  0  0  0  0  0  0  0  0  0  0  0
  -10.3373   -6.3617   -0.2151 C   0  0  0  0  0  0  0  0  0  0  0  0
   -9.5006   -5.2546   -0.3312 C   0  0  0  0  0  0  0  0  0  0  0  0
   -9.0851   -4.5874    0.8231 C   0  0  0  0  0  0  0  0  0  0  0  0
   -9.1860   -4.4726    2.9660 H   0  0  0  0  0  0  0  0  0  0  0  0
  -10.6742   -6.4582    3.1624 H   0  0  0  0  0  0  0  0  0  0  0  0
  -10.6638   -6.8811   -1.1126 H   0  0  0  0  0  0  0  0  0  0  0  0
   -9.1796   -4.8946   -1.3024 H   0  0  0  0  0  0  0  0  0  0  0  0
   -7.9801   -3.1859    0.6902 S   0  0  0  0  0  0  0  0  0  0  0  0
   -6.5751   -3.8075    0.7085 O   0  0  0  0  0  0  0  0  0  0  0  0
   -8.1723   -2.3347    1.8883 O   0  0  0  0  0  0  0  0  0  0  0  0
   -8.2393   -2.5426   -0.6204 O   0  0  0  0  0  0  0  0  0  0  0  0
  -11.7075   -7.9940    1.1513 C   0  0  0  0  0  0  0  0  0  0  0  0
  -11.6711   -8.4418    2.1485 H   0  0  0  0  0  0  0  0  0  0  0  0
  -12.7462   -7.6921    0.9658 H   0  0  0  0  0  0  0  0  0  0  0  0
  -11.4619   -8.7703    0.4197 H   0  0  0  0  0  0  0  0  0  0  0  0
  1  4  1  0  0  0  0
  1  2  1  0  0  0  0
  2  3  2  0  0  0  0
  4 12  1  0  0  0  0
  5 13  1  0  0  0  0
  5  4  2  0  0  0  0
  6  5  1  0  0  0  0
  7  8  2  0  0  0  0
  7  6  1  0  0  0  0
  9  7  2  0  0  0  0
 10  6  2  0  0  0  0
 10 11  1  0  0  0  0
 11  1  2  0  0  0  0
 14 10  1  0  0  0  0
 15 11  1  0  0  0  0
 16 17  1  0  0  0  0
 16 22  1  0  0  0  0
 17 23  1  0  0  0  0
 18 30  1  0  0  0  0
 18 17  2  0  0  0  0
 19 18  1  0  0  0  0
 20 19  2  0  0  0  0
 20 21  1  0  0  0  0
 21 16  2  0  0  0  0
 24 19  1  0  0  0  0
 25 20  1  0  0  0  0
 26 27  2  0  0  0  0
 26 21  1  0  0  0  0
 26 28  1  0  0  0  0
 29 26  2  0  0  0  0
 30 31  1  0  0  0  0
 32 30  1  0  0  0  0
 33 30  1  0  0  0  0
M  RAD  2   3   2  28   2
M  END
