Coordinates from ORCA-job 4-NO2PhN2+~TsO-_B3LYPG-6-31G_dp-NX-Scan-d89-09-n800
 OpenBabel11261920283D

 33 34  0  0  0  0  0  0  0  0999 V2000
   -4.4806   -2.8700    0.3139 C   0  0  0  0  0  0  0  0  0  0  0  0
   -5.0103   -3.8504    1.2001 N   0  0  0  0  0  0  0  0  0  0  0  0
   -5.7086   -4.8158    0.9256 N   0  0  0  0  0  0  0  0  0  0  0  0
   -4.3428   -1.5971    0.8901 C   0  0  0  0  0  0  0  0  0  0  0  0
   -3.7843   -0.5537    0.1626 C   0  0  0  0  0  0  0  0  0  0  0  0
   -3.3239   -0.8168   -1.1257 C   0  0  0  0  0  0  0  0  0  0  0  0
   -2.7131    0.2783   -1.8999 N   0  0  0  0  0  0  0  0  0  0  0  0
   -2.6477    1.3837   -1.3647 O   0  0  0  0  0  0  0  0  0  0  0  0
   -2.3082    0.0177   -3.0311 O   0  0  0  0  0  0  0  0  0  0  0  0
   -3.4123   -2.0823   -1.7029 C   0  0  0  0  0  0  0  0  0  0  0  0
   -4.0030   -3.1168   -0.9851 C   0  0  0  0  0  0  0  0  0  0  0  0
   -4.6833   -1.4468    1.9083 H   0  0  0  0  0  0  0  0  0  0  0  0
   -3.6817    0.4419    0.5753 H   0  0  0  0  0  0  0  0  0  0  0  0
   -3.0310   -2.2387   -2.7037 H   0  0  0  0  0  0  0  0  0  0  0  0
   -4.0890   -4.1003   -1.4248 H   0  0  0  0  0  0  0  0  0  0  0  0
   -8.5825   -6.5110    1.4120 C   0  0  0  0  0  0  0  0  0  0  0  0
   -9.7784   -6.2945    2.0930 C   0  0  0  0  0  0  0  0  0  0  0  0
  -10.8506   -5.6256    1.4850 C   0  0  0  0  0  0  0  0  0  0  0  0
  -10.7015   -5.1796    0.1624 C   0  0  0  0  0  0  0  0  0  0  0  0
   -9.5156   -5.3829   -0.5371 C   0  0  0  0  0  0  0  0  0  0  0  0
   -8.4649   -6.0469    0.1010 C   0  0  0  0  0  0  0  0  0  0  0  0
   -7.7575   -7.0374    1.8778 H   0  0  0  0  0  0  0  0  0  0  0  0
   -9.8826   -6.6568    3.1115 H   0  0  0  0  0  0  0  0  0  0  0  0
  -11.5284   -4.6730   -0.3278 H   0  0  0  0  0  0  0  0  0  0  0  0
   -9.4049   -5.0517   -1.5634 H   0  0  0  0  0  0  0  0  0  0  0  0
   -6.9506   -6.3216   -0.7894 S   0  0  0  0  0  0  0  0  0  0  0  0
   -6.2290   -7.4384   -0.1986 O   0  0  0  0  0  0  0  0  0  0  0  0
   -6.0636   -4.9069   -0.4780 O   0  0  0  0  0  0  0  0  0  0  0  0
   -7.1855   -6.2047   -2.2208 O   0  0  0  0  0  0  0  0  0  0  0  0
  -12.1333   -5.3734    2.2388 C   0  0  0  0  0  0  0  0  0  0  0  0
  -12.2463   -6.0612    3.0805 H   0  0  0  0  0  0  0  0  0  0  0  0
  -12.1532   -4.3535    2.6417 H   0  0  0  0  0  0  0  0  0  0  0  0
  -13.0063   -5.4808    1.5880 H   0  0  0  0  0  0  0  0  0  0  0  0
  1  4  1  0  0  0  0
  1  2  1  0  0  0  0
  3  2  1  0  0  0  0
  4 12  1  0  0  0  0
  5 13  1  0  0  0  0
  5  4  2  0  0  0  0
  6  5  1  0  0  0  0
  7  8  2  0  0  0  0
  7  6  1  0  0  0  0
  9  7  2  0  0  0  0
 10  6  2  0  0  0  0
 10 11  1  0  0  0  0
 11  1  2  0  0  0  0
 14 10  1  0  0  0  0
 15 11  1  0  0  0  0
 16 22  1  0  0  0  0
 16 17  2  0  0  0  0
 17 23  1  0  0  0  0
 18 17  1  0  0  0  0
 18 30  1  0  0  0  0
 19 18  2  0  0  0  0
 20 21  2  0  0  0  0
 20 19  1  0  0  0  0
 21 16  1  0  0  0  0
 24 19  1  0  0  0  0
 25 20  1  0  0  0  0
 26 28  1  0  0  0  0
 26 27  2  0  0  0  0
 26 21  1  0  0  0  0
 28  3  1  0  0  0  0
 29 26  2  0  0  0  0
 30 32  1  0  0  0  0
 30 31  1  0  0  0  0
 33 30  1  0  0  0  0
M  RAD  2   2   2   3   2
M  END
