Coordinates from ORCA-job 4-NO2PhN2+~TsO-_B3LYPG-6-31G_dp-NX-Scan-d89-09-n800
 OpenBabel11261920283D

 33 33  0  0  0  0  0  0  0  0999 V2000
   -5.3109   -2.5291    0.0483 C   0  0  0  0  0  0  0  0  0  0  0  0
   -6.5920   -2.9699    0.5033 N   0  0  0  0  0  0  0  0  0  0  0  0
   -7.1864   -3.3615    1.3817 N   0  0  0  0  0  0  0  0  0  0  0  0
   -4.4872   -1.9283    1.0084 C   0  0  0  0  0  0  0  0  0  0  0  0
   -3.2189   -1.5172    0.6175 C   0  0  0  0  0  0  0  0  0  0  0  0
   -2.8240   -1.7388   -0.7012 C   0  0  0  0  0  0  0  0  0  0  0  0
   -1.4686   -1.3046   -1.1105 N   0  0  0  0  0  0  0  0  0  0  0  0
   -0.7708   -0.7648   -0.2558 O   0  0  0  0  0  0  0  0  0  0  0  0
   -1.1376   -1.5159   -2.2727 O   0  0  0  0  0  0  0  0  0  0  0  0
   -3.6457   -2.3501   -1.6454 C   0  0  0  0  0  0  0  0  0  0  0  0
   -4.9277   -2.7497   -1.2746 C   0  0  0  0  0  0  0  0  0  0  0  0
   -4.8383   -1.7812    2.0231 H   0  0  0  0  0  0  0  0  0  0  0  0
   -2.5389   -1.0360    1.3086 H   0  0  0  0  0  0  0  0  0  0  0  0
   -3.2829   -2.5010   -2.6539 H   0  0  0  0  0  0  0  0  0  0  0  0
   -5.6105   -3.2303   -1.9685 H   0  0  0  0  0  0  0  0  0  0  0  0
  -10.1349   -4.2879    0.3246 C   0  0  0  0  0  0  0  0  0  0  0  0
  -10.6548   -5.0737    1.3482 C   0  0  0  0  0  0  0  0  0  0  0  0
  -10.0925   -6.3212    1.6639 C   0  0  0  0  0  0  0  0  0  0  0  0
   -8.9881   -6.7603    0.9230 C   0  0  0  0  0  0  0  0  0  0  0  0
   -8.4531   -5.9822   -0.1045 C   0  0  0  0  0  0  0  0  0  0  0  0
   -9.0262   -4.7443   -0.3965 C   0  0  0  0  0  0  0  0  0  0  0  0
  -10.5863   -3.3344    0.0719 H   0  0  0  0  0  0  0  0  0  0  0  0
  -11.5168   -4.7193    1.9079 H   0  0  0  0  0  0  0  0  0  0  0  0
   -8.5445   -7.7265    1.1476 H   0  0  0  0  0  0  0  0  0  0  0  0
   -7.6076   -6.3278   -0.6901 H   0  0  0  0  0  0  0  0  0  0  0  0
   -8.3737   -3.7331   -1.7299 S   0  0  0  0  0  0  0  0  0  0  0  0
   -7.7313   -2.4907   -1.0511 O   0  0  0  0  0  0  0  0  0  0  0  0
   -9.5311   -3.2632   -2.4866 O   0  0  0  0  0  0  0  0  0  0  0  0
   -7.3282   -4.5392   -2.3970 O   0  0  0  0  0  0  0  0  0  0  0  0
  -10.6882   -7.1768    2.7556 C   0  0  0  0  0  0  0  0  0  0  0  0
  -10.9637   -6.5771    3.6289 H   0  0  0  0  0  0  0  0  0  0  0  0
  -11.6007   -7.6763    2.4079 H   0  0  0  0  0  0  0  0  0  0  0  0
   -9.9925   -7.9547    3.0824 H   0  0  0  0  0  0  0  0  0  0  0  0
  1  2  1  0  0  0  0
  1  4  2  0  0  0  0
  2  3  2  0  0  0  0
  4 12  1  0  0  0  0
  5  4  1  0  0  0  0
  5 13  1  0  0  0  0
  6  5  2  0  0  0  0
  7  6  1  0  0  0  0
  7  8  2  0  0  0  0
  9  7  2  0  0  0  0
 10 11  2  0  0  0  0
 10  6  1  0  0  0  0
 11  1  1  0  0  0  0
 14 10  1  0  0  0  0
 15 11  1  0  0  0  0
 16 17  2  0  0  0  0
 17 18  1  0  0  0  0
 17 23  1  0  0  0  0
 18 30  1  0  0  0  0
 19 24  1  0  0  0  0
 19 18  2  0  0  0  0
 20 19  1  0  0  0  0
 21 20  2  0  0  0  0
 21 16  1  0  0  0  0
 22 16  1  0  0  0  0
 25 20  1  0  0  0  0
 26 27  1  0  0  0  0
 26 21  1  0  0  0  0
 28 26  2  0  0  0  0
 29 26  2  0  0  0  0
 30 33  1  0  0  0  0
 30 31  1  0  0  0  0
 32 30  1  0  0  0  0
M  RAD  2   3   2  27   2
M  END
