Coordinates from ORCA-job 4-NO2PhN2+~TsO-_B3LYPG-6-31G_dp-NX-Scan-d89-09-n800
 OpenBabel11261920283D

 33 33  0  0  0  0  0  0  0  0999 V2000
   -4.6634   -0.8377    1.1749 C   0  0  0  0  0  0  0  0  0  0  0  0
   -5.1573   -0.1311    2.2432 N   0  0  0  0  0  0  0  0  0  0  0  0
   -5.4631    0.4631    3.1452 N   0  0  0  0  0  0  0  0  0  0  0  0
   -3.2485   -0.8199    1.0466 C   0  0  0  0  0  0  0  0  0  0  0  0
   -2.6970   -1.5226   -0.0021 C   0  0  0  0  0  0  0  0  0  0  0  0
   -3.5501   -2.2108   -0.8772 C   0  0  0  0  0  0  0  0  0  0  0  0
   -2.9096   -2.9534   -1.9956 N   0  0  0  0  0  0  0  0  0  0  0  0
   -1.6823   -3.0510   -1.9563 O   0  0  0  0  0  0  0  0  0  0  0  0
   -3.6433   -3.4004   -2.8618 O   0  0  0  0  0  0  0  0  0  0  0  0
   -4.9361   -2.2352   -0.7553 C   0  0  0  0  0  0  0  0  0  0  0  0
   -5.5283   -1.5264    0.2942 C   0  0  0  0  0  0  0  0  0  0  0  0
   -2.6351   -0.2737    1.7540 H   0  0  0  0  0  0  0  0  0  0  0  0
   -1.6264   -1.5607   -0.1602 H   0  0  0  0  0  0  0  0  0  0  0  0
   -5.5850   -2.8269   -1.4240 H   0  0  0  0  0  0  0  0  0  0  0  0
   -6.6199   -1.5612    0.3721 H   0  0  0  0  0  0  0  0  0  0  0  0
  -10.0174   -4.6292    0.3367 C   0  0  0  0  0  0  0  0  0  0  0  0
  -10.5591   -5.6371    1.1308 C   0  0  0  0  0  0  0  0  0  0  0  0
  -10.0024   -6.9249    1.1476 C   0  0  0  0  0  0  0  0  0  0  0  0
   -8.8820   -7.1749    0.3405 C   0  0  0  0  0  0  0  0  0  0  0  0
   -8.3316   -6.1744   -0.4580 C   0  0  0  0  0  0  0  0  0  0  0  0
   -8.9009   -4.8986   -0.4611 C   0  0  0  0  0  0  0  0  0  0  0  0
  -10.4503   -3.6342    0.3307 H   0  0  0  0  0  0  0  0  0  0  0  0
  -11.4309   -5.4261    1.7457 H   0  0  0  0  0  0  0  0  0  0  0  0
   -8.4383   -8.1682    0.3366 H   0  0  0  0  0  0  0  0  0  0  0  0
   -7.4648   -6.3621   -1.0823 H   0  0  0  0  0  0  0  0  0  0  0  0
   -8.2426   -3.6112   -1.5359 S   0  0  0  0  0  0  0  0  0  0  0  0
   -8.1789   -2.3919   -0.6502 O   0  0  0  0  0  0  0  0  0  0  0  0
   -9.1887   -3.4968   -2.6670 O   0  0  0  0  0  0  0  0  0  0  0  0
   -6.8718   -4.0868   -1.9108 O   0  0  0  0  0  0  0  0  0  0  0  0
  -10.5771   -8.0100    2.0268 C   0  0  0  0  0  0  0  0  0  0  0  0
   -9.9839   -8.1379    2.9412 H   0  0  0  0  0  0  0  0  0  0  0  0
  -11.6012   -7.7779    2.3320 H   0  0  0  0  0  0  0  0  0  0  0  0
  -10.5872   -8.9771    1.5135 H   0  0  0  0  0  0  0  0  0  0  0  0
  1  2  1  0  0  0  0
  2  3  1  0  0  0  0
  4  1  1  0  0  0  0
  4 12  1  0  0  0  0
  5  4  2  0  0  0  0
  6 10  2  0  0  0  0
  6  5  1  0  0  0  0
  7  8  2  0  0  0  0
  7  6  1  0  0  0  0
  9  7  2  0  0  0  0
 10 11  1  0  0  0  0
 11 15  1  0  0  0  0
 11  1  2  0  0  0  0
 13  5  1  0  0  0  0
 14 10  1  0  0  0  0
 16 17  2  0  0  0  0
 17 18  1  0  0  0  0
 17 23  1  0  0  0  0
 18 30  1  0  0  0  0
 19 18  2  0  0  0  0
 20 19  1  0  0  0  0
 21 20  2  0  0  0  0
 21 16  1  0  0  0  0
 22 16  1  0  0  0  0
 24 19  1  0  0  0  0
 25 20  1  0  0  0  0
 26 27  1  0  0  0  0
 26 21  1  0  0  0  0
 28 26  2  0  0  0  0
 29 26  2  0  0  0  0
 30 32  1  0  0  0  0
 30 31  1  0  0  0  0
 33 30  1  0  0  0  0
M  RAD  3   2   2   3   3  27   2
M  END
