Coordinates from ORCA-job 4-NO2PhN2+~TsO-_B3LYPG-6-31G_dp-NX-Scan-d89-09-n800
 OpenBabel11261920283D

 33 33  0  0  0  0  0  0  0  0999 V2000
   -4.4850   -0.6895    1.3028 C   0  0  0  0  0  0  0  0  0  0  0  0
   -4.8216    0.0587    2.4045 N   0  0  0  0  0  0  0  0  0  0  0  0
   -4.9591    0.6877    3.3289 N   0  0  0  0  0  0  0  0  0  0  0  0
   -3.1039   -0.6596    0.9746 C   0  0  0  0  0  0  0  0  0  0  0  0
   -2.6865   -1.4051   -0.1066 C   0  0  0  0  0  0  0  0  0  0  0  0
   -3.6262   -2.1778   -0.7999 C   0  0  0  0  0  0  0  0  0  0  0  0
   -3.1081   -3.0021   -1.9208 N   0  0  0  0  0  0  0  0  0  0  0  0
   -2.0192   -2.6619   -2.3878 O   0  0  0  0  0  0  0  0  0  0  0  0
   -3.7947   -3.9411   -2.2854 O   0  0  0  0  0  0  0  0  0  0  0  0
   -4.9879   -2.2164   -0.4927 C   0  0  0  0  0  0  0  0  0  0  0  0
   -5.4440   -1.4349    0.5703 C   0  0  0  0  0  0  0  0  0  0  0  0
   -2.4109   -0.0685    1.5619 H   0  0  0  0  0  0  0  0  0  0  0  0
   -1.6515   -1.4121   -0.4250 H   0  0  0  0  0  0  0  0  0  0  0  0
   -5.6937   -2.8537   -1.0636 H   0  0  0  0  0  0  0  0  0  0  0  0
   -6.5069   -1.4242    0.7981 H   0  0  0  0  0  0  0  0  0  0  0  0
  -10.0664   -4.7002    0.1911 C   0  0  0  0  0  0  0  0  0  0  0  0
  -10.6266   -5.6833    1.0038 C   0  0  0  0  0  0  0  0  0  0  0  0
  -10.0576   -6.9627    1.0904 C   0  0  0  0  0  0  0  0  0  0  0  0
   -8.9031   -7.2303    0.3358 C   0  0  0  0  0  0  0  0  0  0  0  0
   -8.3359   -6.2563   -0.4807 C   0  0  0  0  0  0  0  0  0  0  0  0
   -8.9199   -4.9872   -0.5566 C   0  0  0  0  0  0  0  0  0  0  0  0
  -10.5037   -3.7089    0.1320 H   0  0  0  0  0  0  0  0  0  0  0  0
  -11.5216   -5.4590    1.5793 H   0  0  0  0  0  0  0  0  0  0  0  0
   -8.4472   -8.2166    0.3901 H   0  0  0  0  0  0  0  0  0  0  0  0
   -7.4409   -6.4565   -1.0599 H   0  0  0  0  0  0  0  0  0  0  0  0
   -8.2390   -3.7393   -1.6639 S   0  0  0  0  0  0  0  0  0  0  0  0
   -8.3669   -2.4530   -0.9041 O   0  0  0  0  0  0  0  0  0  0  0  0
   -9.0472   -3.8355   -2.9050 O   0  0  0  0  0  0  0  0  0  0  0  0
   -6.7986   -4.1296   -1.8325 O   0  0  0  0  0  0  0  0  0  0  0  0
  -10.6556   -8.0246    1.9813 C   0  0  0  0  0  0  0  0  0  0  0  0
  -10.0171   -8.2211    2.8518 H   0  0  0  0  0  0  0  0  0  0  0  0
  -11.6394   -7.7276    2.3538 H   0  0  0  0  0  0  0  0  0  0  0  0
  -10.7687   -8.9751    1.4486 H   0  0  0  0  0  0  0  0  0  0  0  0
  1  2  1  0  0  0  0
  2  3  1  0  0  0  0
  4  1  1  0  0  0  0
  4 12  1  0  0  0  0
  5  4  2  0  0  0  0
  6 10  2  0  0  0  0
  6  5  1  0  0  0  0
  7  6  1  0  0  0  0
  8  7  2  0  0  0  0
  9  7  2  0  0  0  0
 10 11  1  0  0  0  0
 11 15  1  0  0  0  0
 11  1  2  0  0  0  0
 13  5  1  0  0  0  0
 14 10  1  0  0  0  0
 16 17  2  0  0  0  0
 17 18  1  0  0  0  0
 17 23  1  0  0  0  0
 18 30  1  0  0  0  0
 19 24  1  0  0  0  0
 19 18  2  0  0  0  0
 20 19  1  0  0  0  0
 21 20  2  0  0  0  0
 21 16  1  0  0  0  0
 22 16  1  0  0  0  0
 25 20  1  0  0  0  0
 26 27  1  0  0  0  0
 26 21  1  0  0  0  0
 28 26  2  0  0  0  0
 29 26  2  0  0  0  0
 30 32  1  0  0  0  0
 30 31  1  0  0  0  0
 33 30  1  0  0  0  0
M  RAD  3   2   2   3   3  27   2
M  END
