Coordinates from ORCA-job 4-NO2PhN2+~TsO-_B3LYPG-6-31G_dp-NX-Scan-d89-09-n800
 OpenBabel11261920283D

 33 33  0  0  0  0  0  0  0  0999 V2000
   -4.7393   -0.7645    0.6362 C   0  0  0  0  0  0  0  0  0  0  0  0
   -5.6229    0.0152    1.3460 N   0  0  0  0  0  0  0  0  0  0  0  0
   -6.3551    0.6275    1.9273 N   0  0  0  0  0  0  0  0  0  0  0  0
   -3.3685   -0.4108    0.6307 C   0  0  0  0  0  0  0  0  0  0  0  0
   -2.5247   -1.2249   -0.0962 C   0  0  0  0  0  0  0  0  0  0  0  0
   -3.0598   -2.3377   -0.7694 C   0  0  0  0  0  0  0  0  0  0  0  0
   -2.1151   -3.1915   -1.5344 N   0  0  0  0  0  0  0  0  0  0  0  0
   -0.9339   -2.8498   -1.5344 O   0  0  0  0  0  0  0  0  0  0  0  0
   -2.5832   -4.1591   -2.1187 O   0  0  0  0  0  0  0  0  0  0  0  0
   -4.4076   -2.6736   -0.7552 C   0  0  0  0  0  0  0  0  0  0  0  0
   -5.2903   -1.8648   -0.0385 C   0  0  0  0  0  0  0  0  0  0  0  0
   -3.0047    0.4564    1.1696 H   0  0  0  0  0  0  0  0  0  0  0  0
   -1.4620   -1.0286   -0.1595 H   0  0  0  0  0  0  0  0  0  0  0  0
   -4.8133   -3.5241   -1.2928 H   0  0  0  0  0  0  0  0  0  0  0  0
   -6.3756   -2.0667    0.0080 H   0  0  0  0  0  0  0  0  0  0  0  0
   -9.9105   -4.6333    1.0198 C   0  0  0  0  0  0  0  0  0  0  0  0
  -10.4663   -5.7828    1.5739 C   0  0  0  0  0  0  0  0  0  0  0  0
  -10.1954   -7.0516    1.0369 C   0  0  0  0  0  0  0  0  0  0  0  0
   -9.3459   -7.1334   -0.0728 C   0  0  0  0  0  0  0  0  0  0  0  0
   -8.7820   -5.9881   -0.6371 C   0  0  0  0  0  0  0  0  0  0  0  0
   -9.0671   -4.7381   -0.0898 C   0  0  0  0  0  0  0  0  0  0  0  0
  -10.1147   -3.6562    1.4444 H   0  0  0  0  0  0  0  0  0  0  0  0
  -11.1192   -5.6977    2.4400 H   0  0  0  0  0  0  0  0  0  0  0  0
   -9.1205   -8.1069   -0.5011 H   0  0  0  0  0  0  0  0  0  0  0  0
   -8.1169   -6.0537   -1.4915 H   0  0  0  0  0  0  0  0  0  0  0  0
   -8.3957   -3.2526   -0.8529 S   0  0  0  0  0  0  0  0  0  0  0  0
   -8.0866   -2.3368    0.3141 O   0  0  0  0  0  0  0  0  0  0  0  0
   -9.4355   -2.7135   -1.7505 O   0  0  0  0  0  0  0  0  0  0  0  0
   -7.1376   -3.6861   -1.5351 O   0  0  0  0  0  0  0  0  0  0  0  0
  -10.8040   -8.2910    1.6503 C   0  0  0  0  0  0  0  0  0  0  0  0
  -10.4823   -8.4226    2.6901 H   0  0  0  0  0  0  0  0  0  0  0  0
  -11.8990   -8.2353    1.6592 H   0  0  0  0  0  0  0  0  0  0  0  0
  -10.5193   -9.1906    1.0978 H   0  0  0  0  0  0  0  0  0  0  0  0
  1  2  1  0  0  0  0
  2  3  1  0  0  0  0
  4  1  1  0  0  0  0
  4 12  1  0  0  0  0
  5  4  2  0  0  0  0
  6 10  2  0  0  0  0
  6  5  1  0  0  0  0
  7  6  1  0  0  0  0
  8  7  2  0  0  0  0
  9  7  2  0  0  0  0
 10 11  1  0  0  0  0
 11 15  1  0  0  0  0
 11  1  2  0  0  0  0
 13  5  1  0  0  0  0
 14 10  1  0  0  0  0
 16 22  1  0  0  0  0
 16 17  2  0  0  0  0
 17 23  1  0  0  0  0
 18 17  1  0  0  0  0
 18 30  1  0  0  0  0
 19 18  2  0  0  0  0
 20 21  2  0  0  0  0
 20 19  1  0  0  0  0
 21 16  1  0  0  0  0
 24 19  1  0  0  0  0
 25 20  1  0  0  0  0
 26 21  1  0  0  0  0
 26 27  1  0  0  0  0
 28 26  2  0  0  0  0
 29 26  2  0  0  0  0
 30 32  1  0  0  0  0
 30 31  1  0  0  0  0
 33 30  1  0  0  0  0
M  RAD  3   2   2   3   3  27   2
M  END
