Coordinates from ORCA-job 4-NO2PhN2+~TsO-_B3LYPG-6-31G_dp-NX-Scan-d89-09-n800
 OpenBabel11261920283D

 33 33  0  0  0  0  0  0  0  0999 V2000
   -4.8121   -0.6490    0.7421 C   0  0  0  0  0  0  0  0  0  0  0  0
   -5.4161    0.3817    1.4138 N   0  0  0  0  0  0  0  0  0  0  0  0
   -5.8632    1.2314    1.9930 N   0  0  0  0  0  0  0  0  0  0  0  0
   -3.4089   -0.7814    0.9177 C   0  0  0  0  0  0  0  0  0  0  0  0
   -2.7828   -1.8066    0.2435 C   0  0  0  0  0  0  0  0  0  0  0  0
   -3.5575   -2.6661   -0.5536 C   0  0  0  0  0  0  0  0  0  0  0  0
   -2.8522   -3.7770   -1.2413 N   0  0  0  0  0  0  0  0  0  0  0  0
   -1.6384   -3.8595   -1.0554 O   0  0  0  0  0  0  0  0  0  0  0  0
   -3.5255   -4.5246   -1.9360 O   0  0  0  0  0  0  0  0  0  0  0  0
   -4.9312   -2.5380   -0.7160 C   0  0  0  0  0  0  0  0  0  0  0  0
   -5.5967   -1.4909   -0.0720 C   0  0  0  0  0  0  0  0  0  0  0  0
   -2.8613   -0.1020    1.5607 H   0  0  0  0  0  0  0  0  0  0  0  0
   -1.7161   -1.9721    0.3245 H   0  0  0  0  0  0  0  0  0  0  0  0
   -5.5324   -3.2097   -1.3320 H   0  0  0  0  0  0  0  0  0  0  0  0
   -6.6900   -1.3997   -0.1860 H   0  0  0  0  0  0  0  0  0  0  0  0
   -9.7887   -4.5224    0.8129 C   0  0  0  0  0  0  0  0  0  0  0  0
  -10.1214   -5.6918    1.4937 C   0  0  0  0  0  0  0  0  0  0  0  0
   -9.7118   -6.9474    1.0216 C   0  0  0  0  0  0  0  0  0  0  0  0
   -8.9574   -6.9981   -0.1581 C   0  0  0  0  0  0  0  0  0  0  0  0
   -8.6173   -5.8347   -0.8482 C   0  0  0  0  0  0  0  0  0  0  0  0
   -9.0343   -4.5959   -0.3602 C   0  0  0  0  0  0  0  0  0  0  0  0
  -10.1024   -3.5534    1.1860 H   0  0  0  0  0  0  0  0  0  0  0  0
  -10.7084   -5.6306    2.4073 H   0  0  0  0  0  0  0  0  0  0  0  0
   -8.6320   -7.9617   -0.5426 H   0  0  0  0  0  0  0  0  0  0  0  0
   -8.0283   -5.8756   -1.7581 H   0  0  0  0  0  0  0  0  0  0  0  0
   -8.6579   -3.0972   -1.2849 S   0  0  0  0  0  0  0  0  0  0  0  0
   -8.4158   -2.0520   -0.2192 O   0  0  0  0  0  0  0  0  0  0  0  0
   -9.8297   -2.8090   -2.1360 O   0  0  0  0  0  0  0  0  0  0  0  0
   -7.4036   -3.4021   -2.0408 O   0  0  0  0  0  0  0  0  0  0  0  0
  -10.0509   -8.2083    1.7814 C   0  0  0  0  0  0  0  0  0  0  0  0
   -9.3026   -8.4208    2.5558 H   0  0  0  0  0  0  0  0  0  0  0  0
  -11.0201   -8.1251    2.2831 H   0  0  0  0  0  0  0  0  0  0  0  0
  -10.0876   -9.0775    1.1178 H   0  0  0  0  0  0  0  0  0  0  0  0
  1  4  1  0  0  0  0
  1  2  1  0  0  0  0
  2  3  1  0  0  0  0
  4 12  1  0  0  0  0
  5 13  1  0  0  0  0
  5  4  2  0  0  0  0
  6  5  1  0  0  0  0
  7  8  2  0  0  0  0
  7  6  1  0  0  0  0
  9  7  2  0  0  0  0
 10  6  2  0  0  0  0
 10 11  1  0  0  0  0
 11  1  2  0  0  0  0
 14 10  1  0  0  0  0
 15 11  1  0  0  0  0
 16 22  1  0  0  0  0
 16 17  2  0  0  0  0
 17 23  1  0  0  0  0
 18 17  1  0  0  0  0
 18 30  1  0  0  0  0
 19 18  2  0  0  0  0
 20 21  2  0  0  0  0
 20 19  1  0  0  0  0
 21 16  1  0  0  0  0
 24 19  1  0  0  0  0
 25 20  1  0  0  0  0
 26 21  1  0  0  0  0
 26 27  1  0  0  0  0
 28 26  2  0  0  0  0
 29 26  2  0  0  0  0
 30 32  1  0  0  0  0
 30 31  1  0  0  0  0
 33 30  1  0  0  0  0
M  RAD  3   2   2   3   3  27   2
M  END
