Coordinates from ORCA-job 4-NO2PhN2+~TsO-_B3LYPG-6-31G_dp-NX-Scan-d89-09-n800
 OpenBabel11261920283D

 33 33  0  0  0  0  0  0  0  0999 V2000
   -4.8119   -0.6595    0.7042 C   0  0  0  0  0  0  0  0  0  0  0  0
   -5.4677    0.3468    1.3660 N   0  0  0  0  0  0  0  0  0  0  0  0
   -5.9640    1.1735    1.9371 N   0  0  0  0  0  0  0  0  0  0  0  0
   -3.4025   -0.7163    0.8655 C   0  0  0  0  0  0  0  0  0  0  0  0
   -2.7338   -1.7220    0.2026 C   0  0  0  0  0  0  0  0  0  0  0  0
   -3.4737   -2.6339   -0.5696 C   0  0  0  0  0  0  0  0  0  0  0  0
   -2.7219   -3.7198   -1.2480 N   0  0  0  0  0  0  0  0  0  0  0  0
   -1.5030   -3.7364   -1.0798 O   0  0  0  0  0  0  0  0  0  0  0  0
   -3.3656   -4.5126   -1.9206 O   0  0  0  0  0  0  0  0  0  0  0  0
   -4.8537   -2.5773   -0.7172 C   0  0  0  0  0  0  0  0  0  0  0  0
   -5.5632   -1.5531   -0.0837 C   0  0  0  0  0  0  0  0  0  0  0  0
   -2.8822    0.0023    1.4884 H   0  0  0  0  0  0  0  0  0  0  0  0
   -1.6591   -1.8325    0.2727 H   0  0  0  0  0  0  0  0  0  0  0  0
   -5.4253   -3.2868   -1.3149 H   0  0  0  0  0  0  0  0  0  0  0  0
   -6.6629   -1.5079   -0.1821 H   0  0  0  0  0  0  0  0  0  0  0  0
   -9.7964   -4.5355    0.8601 C   0  0  0  0  0  0  0  0  0  0  0  0
  -10.1562   -5.7102    1.5179 C   0  0  0  0  0  0  0  0  0  0  0  0
   -9.7795   -6.9655    1.0187 C   0  0  0  0  0  0  0  0  0  0  0  0
   -9.0301   -7.0106   -0.1647 C   0  0  0  0  0  0  0  0  0  0  0  0
   -8.6631   -5.8422   -0.8316 C   0  0  0  0  0  0  0  0  0  0  0  0
   -9.0478   -4.6036   -0.3167 C   0  0  0  0  0  0  0  0  0  0  0  0
  -10.0845   -3.5668    1.2540 H   0  0  0  0  0  0  0  0  0  0  0  0
  -10.7386   -5.6534    2.4347 H   0  0  0  0  0  0  0  0  0  0  0  0
   -8.7299   -7.9739   -0.5700 H   0  0  0  0  0  0  0  0  0  0  0  0
   -8.0777   -5.8791   -1.7440 H   0  0  0  0  0  0  0  0  0  0  0  0
   -8.6367   -3.0969   -1.2131 S   0  0  0  0  0  0  0  0  0  0  0  0
   -8.3907   -2.0713   -0.1285 O   0  0  0  0  0  0  0  0  0  0  0  0
   -9.7927   -2.7759   -2.0734 O   0  0  0  0  0  0  0  0  0  0  0  0
   -7.3770   -3.4086   -1.9567 O   0  0  0  0  0  0  0  0  0  0  0  0
  -10.1461   -8.2333    1.7537 C   0  0  0  0  0  0  0  0  0  0  0  0
   -9.3855   -8.4951    2.5006 H   0  0  0  0  0  0  0  0  0  0  0  0
  -11.0974   -8.1278    2.2844 H   0  0  0  0  0  0  0  0  0  0  0  0
  -10.2338   -9.0819    1.0683 H   0  0  0  0  0  0  0  0  0  0  0  0
  1  4  1  0  0  0  0
  1  2  1  0  0  0  0
  2  3  1  0  0  0  0
  4 12  1  0  0  0  0
  5 13  1  0  0  0  0
  5  4  2  0  0  0  0
  6  5  1  0  0  0  0
  7  8  2  0  0  0  0
  7  6  1  0  0  0  0
  9  7  2  0  0  0  0
 10  6  2  0  0  0  0
 10 11  1  0  0  0  0
 11  1  2  0  0  0  0
 14 10  1  0  0  0  0
 15 11  1  0  0  0  0
 16 22  1  0  0  0  0
 16 17  2  0  0  0  0
 17 23  1  0  0  0  0
 18 17  1  0  0  0  0
 18 30  1  0  0  0  0
 19 18  2  0  0  0  0
 20 21  2  0  0  0  0
 20 19  1  0  0  0  0
 21 16  1  0  0  0  0
 24 19  1  0  0  0  0
 25 20  1  0  0  0  0
 26 21  1  0  0  0  0
 26 27  1  0  0  0  0
 28 26  2  0  0  0  0
 29 26  2  0  0  0  0
 30 32  1  0  0  0  0
 30 31  1  0  0  0  0
 33 30  1  0  0  0  0
M  RAD  3   2   2   3   3  27   2
M  END
