Coordinates from ORCA-job 4-NO2PhN2+~TsO-_B3LYPG-6-31G_dp-NX-Scan-d89-09-n800
 OpenBabel11261920283D

 33 33  0  0  0  0  0  0  0  0999 V2000
   -4.1286   -2.9422    0.3207 C   0  0  0  0  0  0  0  0  0  0  0  0
   -4.6393   -3.8390    1.3116 N   0  0  0  0  0  0  0  0  0  0  0  0
   -4.4833   -4.2380    2.3547 N   0  0  0  0  0  0  0  0  0  0  0  0
   -3.2673   -1.9461    0.8069 C   0  0  0  0  0  0  0  0  0  0  0  0
   -2.7027   -1.0661   -0.1043 C   0  0  0  0  0  0  0  0  0  0  0  0
   -3.0071   -1.2201   -1.4574 C   0  0  0  0  0  0  0  0  0  0  0  0
   -2.3946   -0.2819   -2.4264 N   0  0  0  0  0  0  0  0  0  0  0  0
   -1.6584    0.5901   -1.9726 O   0  0  0  0  0  0  0  0  0  0  0  0
   -2.6621   -0.4444   -3.6122 O   0  0  0  0  0  0  0  0  0  0  0  0
   -3.8586   -2.2119   -1.9322 C   0  0  0  0  0  0  0  0  0  0  0  0
   -4.4408   -3.0977   -1.0272 C   0  0  0  0  0  0  0  0  0  0  0  0
   -3.0610   -1.8654    1.8678 H   0  0  0  0  0  0  0  0  0  0  0  0
   -2.0388   -0.2711    0.2106 H   0  0  0  0  0  0  0  0  0  0  0  0
   -4.0702   -2.2790   -2.9917 H   0  0  0  0  0  0  0  0  0  0  0  0
   -5.1361   -3.8642   -1.3423 H   0  0  0  0  0  0  0  0  0  0  0  0
   -9.3740   -4.7970    1.8308 C   0  0  0  0  0  0  0  0  0  0  0  0
  -10.4606   -5.6041    2.1626 C   0  0  0  0  0  0  0  0  0  0  0  0
  -11.0485   -6.4541    1.2151 C   0  0  0  0  0  0  0  0  0  0  0  0
  -10.5171   -6.4759   -0.0829 C   0  0  0  0  0  0  0  0  0  0  0  0
   -9.4326   -5.6741   -0.4312 C   0  0  0  0  0  0  0  0  0  0  0  0
   -8.8655   -4.8386    0.5323 C   0  0  0  0  0  0  0  0  0  0  0  0
   -8.9302   -4.1276    2.5598 H   0  0  0  0  0  0  0  0  0  0  0  0
  -10.8628   -5.5705    3.1720 H   0  0  0  0  0  0  0  0  0  0  0  0
  -10.9627   -7.1259   -0.8317 H   0  0  0  0  0  0  0  0  0  0  0  0
   -9.0324   -5.6785   -1.4390 H   0  0  0  0  0  0  0  0  0  0  0  0
   -7.4556   -3.8208    0.1005 S   0  0  0  0  0  0  0  0  0  0  0  0
   -6.2516   -4.7627    0.4004 O   0  0  0  0  0  0  0  0  0  0  0  0
   -7.4287   -2.6569    1.0096 O   0  0  0  0  0  0  0  0  0  0  0  0
   -7.5324   -3.5468   -1.3494 O   0  0  0  0  0  0  0  0  0  0  0  0
  -12.2472   -7.3006    1.5718 C   0  0  0  0  0  0  0  0  0  0  0  0
  -12.2806   -7.5182    2.6432 H   0  0  0  0  0  0  0  0  0  0  0  0
  -13.1817   -6.7867    1.3132 H   0  0  0  0  0  0  0  0  0  0  0  0
  -12.2413   -8.2513    1.0312 H   0  0  0  0  0  0  0  0  0  0  0  0
  1  4  1  0  0  0  0
  1  2  1  0  0  0  0
  2  3  2  0  0  0  0
  4 12  1  0  0  0  0
  5 13  1  0  0  0  0
  5  4  2  0  0  0  0
  6  5  1  0  0  0  0
  7  8  2  0  0  0  0
  7  6  1  0  0  0  0
  9  7  2  0  0  0  0
 10  6  2  0  0  0  0
 10 11  1  0  0  0  0
 11  1  2  0  0  0  0
 14 10  1  0  0  0  0
 15 11  1  0  0  0  0
 16 17  1  0  0  0  0
 16 22  1  0  0  0  0
 17 23  1  0  0  0  0
 18 30  1  0  0  0  0
 18 17  2  0  0  0  0
 19 18  1  0  0  0  0
 20 19  2  0  0  0  0
 20 21  1  0  0  0  0
 21 16  2  0  0  0  0
 24 19  1  0  0  0  0
 25 20  1  0  0  0  0
 26 27  2  0  0  0  0
 26 21  1  0  0  0  0
 26 28  1  0  0  0  0
 29 26  2  0  0  0  0
 30 31  1  0  0  0  0
 32 30  1  0  0  0  0
 33 30  1  0  0  0  0
M  RAD  2   3   2  28   2
M  END
