Coordinates from ORCA-job 4-NO2PhN2+~TsO-_B3LYPG-6-31G_dp-NX-Scan-d89-09-n800
 OpenBabel11261920283D

 33 33  0  0  0  0  0  0  0  0999 V2000
   -4.7751   -0.6502    0.6267 C   0  0  0  0  0  0  0  0  0  0  0  0
   -5.5395    0.2930    1.2673 N   0  0  0  0  0  0  0  0  0  0  0  0
   -6.1590    1.0532    1.8067 N   0  0  0  0  0  0  0  0  0  0  0  0
   -3.3649   -0.5324    0.7155 C   0  0  0  0  0  0  0  0  0  0  0  0
   -2.6185   -1.4932    0.0675 C   0  0  0  0  0  0  0  0  0  0  0  0
   -3.2839   -2.5230   -0.6211 C   0  0  0  0  0  0  0  0  0  0  0  0
   -2.4443   -3.5487   -1.2905 N   0  0  0  0  0  0  0  0  0  0  0  0
   -1.2252   -3.4149   -1.1949 O   0  0  0  0  0  0  0  0  0  0  0  0
   -3.0242   -4.4477   -1.8835 O   0  0  0  0  0  0  0  0  0  0  0  0
   -4.6663   -2.6313   -0.6991 C   0  0  0  0  0  0  0  0  0  0  0  0
   -5.4547   -1.6634   -0.0725 C   0  0  0  0  0  0  0  0  0  0  0  0
   -2.9013    0.2754    1.2701 H   0  0  0  0  0  0  0  0  0  0  0  0
   -1.5360   -1.4780    0.0826 H   0  0  0  0  0  0  0  0  0  0  0  0
   -5.1767   -3.4234   -1.2407 H   0  0  0  0  0  0  0  0  0  0  0  0
   -6.5595   -1.7213   -0.0990 H   0  0  0  0  0  0  0  0  0  0  0  0
   -9.8285   -4.5960    0.9643 C   0  0  0  0  0  0  0  0  0  0  0  0
  -10.2755   -5.7743    1.5591 C   0  0  0  0  0  0  0  0  0  0  0  0
   -9.9698   -7.0267    1.0073 C   0  0  0  0  0  0  0  0  0  0  0  0
   -9.2013   -7.0654   -0.1642 C   0  0  0  0  0  0  0  0  0  0  0  0
   -8.7472   -5.8937   -0.7682 C   0  0  0  0  0  0  0  0  0  0  0  0
   -9.0629   -4.6580   -0.2016 C   0  0  0  0  0  0  0  0  0  0  0  0
  -10.0617   -3.6300    1.3989 H   0  0  0  0  0  0  0  0  0  0  0  0
  -10.8709   -5.7226    2.4679 H   0  0  0  0  0  0  0  0  0  0  0  0
   -8.9547   -8.0263   -0.6094 H   0  0  0  0  0  0  0  0  0  0  0  0
   -8.1468   -5.9259   -1.6710 H   0  0  0  0  0  0  0  0  0  0  0  0
   -8.5398   -3.1425   -1.0202 S   0  0  0  0  0  0  0  0  0  0  0  0
   -8.2621   -2.1784    0.1133 O   0  0  0  0  0  0  0  0  0  0  0  0
   -9.6500   -2.7106   -1.8912 O   0  0  0  0  0  0  0  0  0  0  0  0
   -7.2795   -3.4953   -1.7440 O   0  0  0  0  0  0  0  0  0  0  0  0
  -10.4306   -8.3012    1.6748 C   0  0  0  0  0  0  0  0  0  0  0  0
   -9.6963   -8.6529    2.4112 H   0  0  0  0  0  0  0  0  0  0  0  0
  -11.3766   -8.1558    2.2057 H   0  0  0  0  0  0  0  0  0  0  0  0
  -10.5716   -9.1058    0.9467 H   0  0  0  0  0  0  0  0  0  0  0  0
  1  4  1  0  0  0  0
  1  2  1  0  0  0  0
  2  3  1  0  0  0  0
  4 12  1  0  0  0  0
  5 13  1  0  0  0  0
  5  4  2  0  0  0  0
  6  5  1  0  0  0  0
  7  8  2  0  0  0  0
  7  6  1  0  0  0  0
  9  7  2  0  0  0  0
 10  6  2  0  0  0  0
 10 11  1  0  0  0  0
 11  1  2  0  0  0  0
 14 10  1  0  0  0  0
 15 11  1  0  0  0  0
 16 22  1  0  0  0  0
 16 17  2  0  0  0  0
 17 23  1  0  0  0  0
 18 17  1  0  0  0  0
 18 30  1  0  0  0  0
 19 18  2  0  0  0  0
 20 21  2  0  0  0  0
 20 19  1  0  0  0  0
 21 16  1  0  0  0  0
 24 19  1  0  0  0  0
 25 20  1  0  0  0  0
 26 21  1  0  0  0  0
 26 27  1  0  0  0  0
 28 26  2  0  0  0  0
 29 26  2  0  0  0  0
 30 32  1  0  0  0  0
 30 31  1  0  0  0  0
 33 30  1  0  0  0  0
M  RAD  3   2   2   3   3  27   2
M  END
