Coordinates from ORCA-job 4-NO2PhN2+~TsO-_B3LYPG-6-31G_dp-NX-Scan-d89-09-n800
 OpenBabel11261920283D

 33 33  0  0  0  0  0  0  0  0999 V2000
   -4.4826   -0.6921    1.3062 C   0  0  0  0  0  0  0  0  0  0  0  0
   -4.8169    0.0535    2.4105 N   0  0  0  0  0  0  0  0  0  0  0  0
   -4.9518    0.6807    3.3367 N   0  0  0  0  0  0  0  0  0  0  0  0
   -3.1026   -0.6585    0.9736 C   0  0  0  0  0  0  0  0  0  0  0  0
   -2.6870   -1.4009   -0.1103 C   0  0  0  0  0  0  0  0  0  0  0  0
   -3.6273   -2.1741   -0.8024 C   0  0  0  0  0  0  0  0  0  0  0  0
   -3.1109   -2.9947   -1.9268 N   0  0  0  0  0  0  0  0  0  0  0  0
   -2.0213   -2.6548   -2.3922 O   0  0  0  0  0  0  0  0  0  0  0  0
   -3.7927   -3.9392   -2.2861 O   0  0  0  0  0  0  0  0  0  0  0  0
   -4.9880   -2.2163   -0.4911 C   0  0  0  0  0  0  0  0  0  0  0  0
   -5.4424   -1.4381    0.5752 C   0  0  0  0  0  0  0  0  0  0  0  0
   -2.4090   -0.0672    1.5600 H   0  0  0  0  0  0  0  0  0  0  0  0
   -1.6531   -1.4050   -0.4320 H   0  0  0  0  0  0  0  0  0  0  0  0
   -5.6935   -2.8540   -1.0617 H   0  0  0  0  0  0  0  0  0  0  0  0
   -6.5045   -1.4302    0.8066 H   0  0  0  0  0  0  0  0  0  0  0  0
  -10.0688   -4.7016    0.1865 C   0  0  0  0  0  0  0  0  0  0  0  0
  -10.6298   -5.6835    0.9999 C   0  0  0  0  0  0  0  0  0  0  0  0
  -10.0593   -6.9620    1.0908 C   0  0  0  0  0  0  0  0  0  0  0  0
   -8.9026   -7.2298    0.3398 C   0  0  0  0  0  0  0  0  0  0  0  0
   -8.3346   -6.2570   -0.4776 C   0  0  0  0  0  0  0  0  0  0  0  0
   -8.9200   -4.9887   -0.5577 C   0  0  0  0  0  0  0  0  0  0  0  0
  -10.5071   -3.7109    0.1241 H   0  0  0  0  0  0  0  0  0  0  0  0
  -11.5265   -5.4591    1.5728 H   0  0  0  0  0  0  0  0  0  0  0  0
   -8.4456   -8.2154    0.3974 H   0  0  0  0  0  0  0  0  0  0  0  0
   -7.4380   -6.4573   -1.0541 H   0  0  0  0  0  0  0  0  0  0  0  0
   -8.2379   -3.7424   -1.6661 S   0  0  0  0  0  0  0  0  0  0  0  0
   -8.3698   -2.4546   -0.9096 O   0  0  0  0  0  0  0  0  0  0  0  0
   -9.0428   -3.8428   -2.9092 O   0  0  0  0  0  0  0  0  0  0  0  0
   -6.7965   -4.1311   -1.8300 O   0  0  0  0  0  0  0  0  0  0  0  0
  -10.6582   -8.0227    1.9826 C   0  0  0  0  0  0  0  0  0  0  0  0
  -10.0214   -8.2167    2.8549 H   0  0  0  0  0  0  0  0  0  0  0  0
  -11.6431   -7.7259    2.3524 H   0  0  0  0  0  0  0  0  0  0  0  0
  -10.7692   -8.9744    1.4516 H   0  0  0  0  0  0  0  0  0  0  0  0
  1  2  1  0  0  0  0
  2  3  1  0  0  0  0
  4  1  1  0  0  0  0
  4 12  1  0  0  0  0
  5  4  2  0  0  0  0
  6 10  2  0  0  0  0
  6  5  1  0  0  0  0
  7  6  1  0  0  0  0
  8  7  2  0  0  0  0
  9  7  2  0  0  0  0
 10 11  1  0  0  0  0
 11 15  1  0  0  0  0
 11  1  2  0  0  0  0
 13  5  1  0  0  0  0
 14 10  1  0  0  0  0
 16 17  2  0  0  0  0
 17 18  1  0  0  0  0
 17 23  1  0  0  0  0
 18 30  1  0  0  0  0
 19 24  1  0  0  0  0
 19 18  2  0  0  0  0
 20 19  1  0  0  0  0
 21 20  2  0  0  0  0
 21 16  1  0  0  0  0
 22 16  1  0  0  0  0
 25 20  1  0  0  0  0
 26 27  1  0  0  0  0
 26 21  1  0  0  0  0
 28 26  2  0  0  0  0
 29 26  2  0  0  0  0
 30 32  1  0  0  0  0
 30 31  1  0  0  0  0
 33 30  1  0  0  0  0
M  RAD  3   2   2   3   3  27   2
M  END
