Coordinates from ORCA-job 4-NO2PhN2+~TsO-_B3LYPG-6-31G_dp-NX-Scan-d89-09-n800
 OpenBabel11261920283D

 33 34  0  0  0  0  0  0  0  0999 V2000
   -4.4214   -2.6334    0.3289 C   0  0  0  0  0  0  0  0  0  0  0  0
   -5.0205   -3.5562    1.2145 N   0  0  0  0  0  0  0  0  0  0  0  0
   -5.7344   -4.4956    1.1646 N   0  0  0  0  0  0  0  0  0  0  0  0
   -3.6798   -1.6272    0.9683 C   0  0  0  0  0  0  0  0  0  0  0  0
   -3.0363   -0.6556    0.2128 C   0  0  0  0  0  0  0  0  0  0  0  0
   -3.1457   -0.7215   -1.1745 C   0  0  0  0  0  0  0  0  0  0  0  0
   -2.4657    0.3101   -1.9880 N   0  0  0  0  0  0  0  0  0  0  0  0
   -1.8348    1.1757   -1.3865 O   0  0  0  0  0  0  0  0  0  0  0  0
   -2.5790    0.2316   -3.2081 O   0  0  0  0  0  0  0  0  0  0  0  0
   -3.8691   -1.7186   -1.8258 C   0  0  0  0  0  0  0  0  0  0  0  0
   -4.5217   -2.6905   -1.0737 C   0  0  0  0  0  0  0  0  0  0  0  0
   -3.6210   -1.6248    2.0511 H   0  0  0  0  0  0  0  0  0  0  0  0
   -2.4592    0.1378    0.6699 H   0  0  0  0  0  0  0  0  0  0  0  0
   -3.9174   -1.7215   -2.9077 H   0  0  0  0  0  0  0  0  0  0  0  0
   -5.0927   -3.4768   -1.5455 H   0  0  0  0  0  0  0  0  0  0  0  0
   -8.6668   -6.4409    1.5604 C   0  0  0  0  0  0  0  0  0  0  0  0
   -9.9234   -6.2768    2.1412 C   0  0  0  0  0  0  0  0  0  0  0  0
  -11.0112   -5.8002    1.3961 C   0  0  0  0  0  0  0  0  0  0  0  0
  -10.8122   -5.4991    0.0402 C   0  0  0  0  0  0  0  0  0  0  0  0
   -9.5642   -5.6563   -0.5575 C   0  0  0  0  0  0  0  0  0  0  0  0
   -8.4969   -6.1223    0.2128 C   0  0  0  0  0  0  0  0  0  0  0  0
   -7.8300   -6.8262    2.1322 H   0  0  0  0  0  0  0  0  0  0  0  0
  -10.0640   -6.5326    3.1880 H   0  0  0  0  0  0  0  0  0  0  0  0
  -11.6483   -5.1450   -0.5571 H   0  0  0  0  0  0  0  0  0  0  0  0
   -9.4161   -5.4423   -1.6103 H   0  0  0  0  0  0  0  0  0  0  0  0
   -6.8903   -6.3204   -0.5445 S   0  0  0  0  0  0  0  0  0  0  0  0
   -6.1078   -7.2486    0.2687 O   0  0  0  0  0  0  0  0  0  0  0  0
   -6.2398   -4.8381   -0.4445 O   0  0  0  0  0  0  0  0  0  0  0  0
   -7.0735   -6.5352   -1.9793 O   0  0  0  0  0  0  0  0  0  0  0  0
  -12.3621   -5.5994    2.0394 C   0  0  0  0  0  0  0  0  0  0  0  0
  -12.5022   -6.2666    2.8943 H   0  0  0  0  0  0  0  0  0  0  0  0
  -12.4725   -4.5712    2.4056 H   0  0  0  0  0  0  0  0  0  0  0  0
  -13.1744   -5.7792    1.3289 H   0  0  0  0  0  0  0  0  0  0  0  0
  1  4  1  0  0  0  0
  1  2  1  0  0  0  0
  3  2  1  0  0  0  0
  4 12  1  0  0  0  0
  5 13  1  0  0  0  0
  5  4  2  0  0  0  0
  6  5  1  0  0  0  0
  7  8  2  0  0  0  0
  7  6  1  0  0  0  0
  9  7  2  0  0  0  0
 10  6  2  0  0  0  0
 10 11  1  0  0  0  0
 11  1  2  0  0  0  0
 14 10  1  0  0  0  0
 15 11  1  0  0  0  0
 16 22  1  0  0  0  0
 16 17  1  0  0  0  0
 17 23  1  0  0  0  0
 18 30  1  0  0  0  0
 18 17  2  0  0  0  0
 19 18  1  0  0  0  0
 20 19  2  0  0  0  0
 20 21  1  0  0  0  0
 21 16  2  0  0  0  0
 24 19  1  0  0  0  0
 25 20  1  0  0  0  0
 26 28  1  0  0  0  0
 26 21  1  0  0  0  0
 26 27  2  0  0  0  0
 28  3  1  0  0  0  0
 29 26  2  0  0  0  0
 30 32  1  0  0  0  0
 30 31  1  0  0  0  0
 33 30  1  0  0  0  0
M  RAD  2   2   2   3   2
M  END
