Coordinates from ORCA-job 4-NO2PhN2+~TsO-_B3LYPG-6-31G_dp-NX-Scan-d89-09-n800
 OpenBabel11261920283D

 33 33  0  0  0  0  0  0  0  0999 V2000
   -4.1565   -2.8968    0.3291 C   0  0  0  0  0  0  0  0  0  0  0  0
   -4.7023   -3.7505    1.3389 N   0  0  0  0  0  0  0  0  0  0  0  0
   -4.5949   -4.0929    2.4075 N   0  0  0  0  0  0  0  0  0  0  0  0
   -3.2968   -1.8921    0.8006 C   0  0  0  0  0  0  0  0  0  0  0  0
   -2.7027   -1.0495   -0.1269 C   0  0  0  0  0  0  0  0  0  0  0  0
   -2.9778   -1.2472   -1.4807 C   0  0  0  0  0  0  0  0  0  0  0  0
   -2.3336   -0.3491   -2.4669 N   0  0  0  0  0  0  0  0  0  0  0  0
   -1.5988    0.5310   -2.0266 O   0  0  0  0  0  0  0  0  0  0  0  0
   -2.5772   -0.5488   -3.6523 O   0  0  0  0  0  0  0  0  0  0  0  0
   -3.8285   -2.2465   -1.9407 C   0  0  0  0  0  0  0  0  0  0  0  0
   -4.4401   -3.0951   -1.0196 C   0  0  0  0  0  0  0  0  0  0  0  0
   -3.1146   -1.7762    1.8627 H   0  0  0  0  0  0  0  0  0  0  0  0
   -2.0381   -0.2504    0.1758 H   0  0  0  0  0  0  0  0  0  0  0  0
   -4.0158   -2.3482   -3.0021 H   0  0  0  0  0  0  0  0  0  0  0  0
   -5.1344   -3.8680   -1.3202 H   0  0  0  0  0  0  0  0  0  0  0  0
   -9.3435   -4.8630    1.8668 C   0  0  0  0  0  0  0  0  0  0  0  0
  -10.4242   -5.6838    2.1833 C   0  0  0  0  0  0  0  0  0  0  0  0
  -11.0446   -6.4750    1.2059 C   0  0  0  0  0  0  0  0  0  0  0  0
  -10.5514   -6.4236   -0.1061 C   0  0  0  0  0  0  0  0  0  0  0  0
   -9.4728   -5.6071   -0.4393 C   0  0  0  0  0  0  0  0  0  0  0  0
   -8.8731   -4.8311    0.5536 C   0  0  0  0  0  0  0  0  0  0  0  0
   -8.8753   -4.2389    2.6203 H   0  0  0  0  0  0  0  0  0  0  0  0
  -10.7966   -5.7069    3.2043 H   0  0  0  0  0  0  0  0  0  0  0  0
  -11.0222   -7.0273   -0.8779 H   0  0  0  0  0  0  0  0  0  0  0  0
   -9.1018   -5.5548   -1.4570 H   0  0  0  0  0  0  0  0  0  0  0  0
   -7.4708   -3.7957    0.1396 S   0  0  0  0  0  0  0  0  0  0  0  0
   -6.2586   -4.7410    0.3871 O   0  0  0  0  0  0  0  0  0  0  0  0
   -7.4296   -2.6687    1.0949 O   0  0  0  0  0  0  0  0  0  0  0  0
   -7.5704   -3.4639   -1.2962 O   0  0  0  0  0  0  0  0  0  0  0  0
  -12.2375   -7.3355    1.5484 C   0  0  0  0  0  0  0  0  0  0  0  0
  -12.2381   -7.6185    2.6048 H   0  0  0  0  0  0  0  0  0  0  0  0
  -13.1759   -6.8010    1.3529 H   0  0  0  0  0  0  0  0  0  0  0  0
  -12.2561   -8.2511    0.9505 H   0  0  0  0  0  0  0  0  0  0  0  0
  1  4  1  0  0  0  0
  1  2  1  0  0  0  0
  2  3  2  0  0  0  0
  4 12  1  0  0  0  0
  5 13  1  0  0  0  0
  5  4  2  0  0  0  0
  6  5  1  0  0  0  0
  7  8  2  0  0  0  0
  7  6  1  0  0  0  0
  9  7  2  0  0  0  0
 10  6  2  0  0  0  0
 10 11  1  0  0  0  0
 11  1  2  0  0  0  0
 14 10  1  0  0  0  0
 15 11  1  0  0  0  0
 16 17  1  0  0  0  0
 16 22  1  0  0  0  0
 17 23  1  0  0  0  0
 18 30  1  0  0  0  0
 18 17  2  0  0  0  0
 19 18  1  0  0  0  0
 20 19  2  0  0  0  0
 20 21  1  0  0  0  0
 21 16  2  0  0  0  0
 24 19  1  0  0  0  0
 25 20  1  0  0  0  0
 26 27  2  0  0  0  0
 26 21  1  0  0  0  0
 26 28  1  0  0  0  0
 29 26  2  0  0  0  0
 30 31  1  0  0  0  0
 32 30  1  0  0  0  0
 33 30  1  0  0  0  0
M  RAD  2   3   2  28   2
M  END
