Coordinates from ORCA-job 4-NO2PhN2+~TsO-_B3LYPG-6-31G_dp-NX-Scan-d89-09-n800
 OpenBabel11261920283D

 33 33  0  0  0  0  0  0  0  0999 V2000
   -4.5431   -0.6957    1.2666 C   0  0  0  0  0  0  0  0  0  0  0  0
   -4.9024    0.0785    2.3431 N   0  0  0  0  0  0  0  0  0  0  0  0
   -5.0592    0.7254    3.2512 N   0  0  0  0  0  0  0  0  0  0  0  0
   -3.1489   -0.7068    0.9958 C   0  0  0  0  0  0  0  0  0  0  0  0
   -2.7075   -1.4777   -0.0573 C   0  0  0  0  0  0  0  0  0  0  0  0
   -3.6394   -2.2316   -0.7818 C   0  0  0  0  0  0  0  0  0  0  0  0
   -3.0991   -3.0804   -1.8748 N   0  0  0  0  0  0  0  0  0  0  0  0
   -1.9639   -2.8038   -2.2678 O   0  0  0  0  0  0  0  0  0  0  0  0
   -3.8101   -3.9819   -2.2842 O   0  0  0  0  0  0  0  0  0  0  0  0
   -5.0121   -2.2297   -0.5298 C   0  0  0  0  0  0  0  0  0  0  0  0
   -5.4918   -1.4253    0.5062 C   0  0  0  0  0  0  0  0  0  0  0  0
   -2.4650   -0.1263    1.6040 H   0  0  0  0  0  0  0  0  0  0  0  0
   -1.6607   -1.5180   -0.3314 H   0  0  0  0  0  0  0  0  0  0  0  0
   -5.7174   -2.8518   -1.1169 H   0  0  0  0  0  0  0  0  0  0  0  0
   -6.5643   -1.3938    0.6870 H   0  0  0  0  0  0  0  0  0  0  0  0
  -10.0359   -4.6700    0.2333 C   0  0  0  0  0  0  0  0  0  0  0  0
  -10.5757   -5.6660    1.0439 C   0  0  0  0  0  0  0  0  0  0  0  0
  -10.0088   -6.9485    1.0906 C   0  0  0  0  0  0  0  0  0  0  0  0
   -8.8781   -7.2056    0.2980 C   0  0  0  0  0  0  0  0  0  0  0  0
   -8.3310   -6.2183   -0.5169 C   0  0  0  0  0  0  0  0  0  0  0  0
   -8.9126   -4.9467   -0.5524 C   0  0  0  0  0  0  0  0  0  0  0  0
  -10.4724   -3.6769    0.2048 H   0  0  0  0  0  0  0  0  0  0  0  0
  -11.4529   -5.4499    1.6492 H   0  0  0  0  0  0  0  0  0  0  0  0
   -8.4246   -8.1943    0.3205 H   0  0  0  0  0  0  0  0  0  0  0  0
   -7.4547   -6.4102   -1.1265 H   0  0  0  0  0  0  0  0  0  0  0  0
   -8.2591   -3.6806   -1.6558 S   0  0  0  0  0  0  0  0  0  0  0  0
   -8.3219   -2.4149   -0.8498 O   0  0  0  0  0  0  0  0  0  0  0  0
   -9.1274   -3.7178   -2.8576 O   0  0  0  0  0  0  0  0  0  0  0  0
   -6.8371   -4.0917   -1.9068 O   0  0  0  0  0  0  0  0  0  0  0  0
  -10.5842   -8.0241    1.9802 C   0  0  0  0  0  0  0  0  0  0  0  0
   -9.9304   -8.2240    2.8385 H   0  0  0  0  0  0  0  0  0  0  0  0
  -11.5642   -7.7385    2.3715 H   0  0  0  0  0  0  0  0  0  0  0  0
  -10.6987   -8.9701    1.4399 H   0  0  0  0  0  0  0  0  0  0  0  0
  1  2  1  0  0  0  0
  2  3  1  0  0  0  0
  4  1  1  0  0  0  0
  4 12  1  0  0  0  0
  5  4  2  0  0  0  0
  6 10  2  0  0  0  0
  6  5  1  0  0  0  0
  7  6  1  0  0  0  0
  8  7  2  0  0  0  0
  9  7  2  0  0  0  0
 10 11  1  0  0  0  0
 11 15  1  0  0  0  0
 11  1  2  0  0  0  0
 13  5  1  0  0  0  0
 14 10  1  0  0  0  0
 16 17  2  0  0  0  0
 17 18  1  0  0  0  0
 17 23  1  0  0  0  0
 18 30  1  0  0  0  0
 19 24  1  0  0  0  0
 19 18  2  0  0  0  0
 20 19  1  0  0  0  0
 21 20  2  0  0  0  0
 21 16  1  0  0  0  0
 22 16  1  0  0  0  0
 25 20  1  0  0  0  0
 26 27  1  0  0  0  0
 26 21  1  0  0  0  0
 28 26  2  0  0  0  0
 29 26  2  0  0  0  0
 30 32  1  0  0  0  0
 30 31  1  0  0  0  0
 33 30  1  0  0  0  0
M  RAD  3   2   2   3   3  27   2
M  END
