Coordinates from ORCA-job 4-NO2PhN2+~TsO-_B3LYPG-6-31G_dp-NX-Scan-d89-09-n800
 OpenBabel11261920283D

 33 33  0  0  0  0  0  0  0  0999 V2000
   -4.7829   -0.6555    0.6403 C   0  0  0  0  0  0  0  0  0  0  0  0
   -5.5315    0.2960    1.2869 N   0  0  0  0  0  0  0  0  0  0  0  0
   -6.1319    1.0661    1.8343 N   0  0  0  0  0  0  0  0  0  0  0  0
   -3.3713   -0.5638    0.7428 C   0  0  0  0  0  0  0  0  0  0  0  0
   -2.6353   -1.5295    0.0907 C   0  0  0  0  0  0  0  0  0  0  0  0
   -3.3118   -2.5403   -0.6146 C   0  0  0  0  0  0  0  0  0  0  0  0
   -2.4839   -3.5735   -1.2870 N   0  0  0  0  0  0  0  0  0  0  0  0
   -1.2636   -3.4616   -1.1789 O   0  0  0  0  0  0  0  0  0  0  0  0
   -3.0736   -4.4586   -1.8911 O   0  0  0  0  0  0  0  0  0  0  0  0
   -4.6952   -2.6240   -0.7057 C   0  0  0  0  0  0  0  0  0  0  0  0
   -5.4735   -1.6491   -0.0768 C   0  0  0  0  0  0  0  0  0  0  0  0
   -2.8993    0.2294    1.3113 H   0  0  0  0  0  0  0  0  0  0  0  0
   -1.5528   -1.5328    0.1159 H   0  0  0  0  0  0  0  0  0  0  0  0
   -5.2145   -3.4028   -1.2585 H   0  0  0  0  0  0  0  0  0  0  0  0
   -6.5785   -1.6920   -0.1168 H   0  0  0  0  0  0  0  0  0  0  0  0
   -9.8236   -4.5843    0.9471 C   0  0  0  0  0  0  0  0  0  0  0  0
  -10.2561   -5.7622    1.5532 C   0  0  0  0  0  0  0  0  0  0  0  0
   -9.9394   -7.0158    1.0105 C   0  0  0  0  0  0  0  0  0  0  0  0
   -9.1748   -7.0562   -0.1634 C   0  0  0  0  0  0  0  0  0  0  0  0
   -8.7352   -5.8848   -0.7788 C   0  0  0  0  0  0  0  0  0  0  0  0
   -9.0616   -4.6478   -0.2212 C   0  0  0  0  0  0  0  0  0  0  0  0
  -10.0653   -3.6171    1.3745 H   0  0  0  0  0  0  0  0  0  0  0  0
  -10.8487   -5.7092    2.4637 H   0  0  0  0  0  0  0  0  0  0  0  0
   -8.9199   -8.0182   -0.6017 H   0  0  0  0  0  0  0  0  0  0  0  0
   -8.1379   -5.9183   -1.6836 H   0  0  0  0  0  0  0  0  0  0  0  0
   -8.5574   -3.1337   -1.0542 S   0  0  0  0  0  0  0  0  0  0  0  0
   -8.2870   -2.1572    0.0704 O   0  0  0  0  0  0  0  0  0  0  0  0
   -9.6750   -2.7227   -1.9260 O   0  0  0  0  0  0  0  0  0  0  0  0
   -7.2955   -3.4791   -1.7787 O   0  0  0  0  0  0  0  0  0  0  0  0
  -10.3844   -8.2895    1.6903 C   0  0  0  0  0  0  0  0  0  0  0  0
   -9.6444   -8.6267    2.4278 H   0  0  0  0  0  0  0  0  0  0  0  0
  -11.3306   -8.1501    2.2222 H   0  0  0  0  0  0  0  0  0  0  0  0
  -10.5181   -9.1020    0.9695 H   0  0  0  0  0  0  0  0  0  0  0  0
  1  4  1  0  0  0  0
  1  2  1  0  0  0  0
  2  3  1  0  0  0  0
  4 12  1  0  0  0  0
  5 13  1  0  0  0  0
  5  4  2  0  0  0  0
  6  5  1  0  0  0  0
  7  8  2  0  0  0  0
  7  6  1  0  0  0  0
  9  7  2  0  0  0  0
 10  6  2  0  0  0  0
 10 11  1  0  0  0  0
 11  1  2  0  0  0  0
 14 10  1  0  0  0  0
 15 11  1  0  0  0  0
 16 22  1  0  0  0  0
 16 17  2  0  0  0  0
 17 23  1  0  0  0  0
 18 17  1  0  0  0  0
 18 30  1  0  0  0  0
 19 18  2  0  0  0  0
 20 21  2  0  0  0  0
 20 19  1  0  0  0  0
 21 16  1  0  0  0  0
 24 19  1  0  0  0  0
 25 20  1  0  0  0  0
 26 21  1  0  0  0  0
 26 27  1  0  0  0  0
 28 26  2  0  0  0  0
 29 26  2  0  0  0  0
 30 32  1  0  0  0  0
 30 31  1  0  0  0  0
 33 30  1  0  0  0  0
M  RAD  3   2   2   3   3  27   2
M  END
