Coordinates from ORCA-job 4-NO2PhN2+~TsO-_B3LYPG-6-31G_dp-NX-Scan-d89-09-n800
 OpenBabel11261920283D

 33 33  0  0  0  0  0  0  0  0999 V2000
   -5.6903   -2.3195    0.0326 C   0  0  0  0  0  0  0  0  0  0  0  0
   -7.0785   -2.3900    0.3693 N   0  0  0  0  0  0  0  0  0  0  0  0
   -7.8307   -2.3796    1.2127 N   0  0  0  0  0  0  0  0  0  0  0  0
   -4.8502   -1.8102    1.0338 C   0  0  0  0  0  0  0  0  0  0  0  0
   -3.4878   -1.7405    0.7768 C   0  0  0  0  0  0  0  0  0  0  0  0
   -3.0190   -2.1932   -0.4562 C   0  0  0  0  0  0  0  0  0  0  0  0
   -1.5640   -2.1204   -0.7246 N   0  0  0  0  0  0  0  0  0  0  0  0
   -0.8530   -1.6590    0.1642 O   0  0  0  0  0  0  0  0  0  0  0  0
   -1.1726   -2.5265   -1.8138 O   0  0  0  0  0  0  0  0  0  0  0  0
   -3.8571   -2.7094   -1.4403 C   0  0  0  0  0  0  0  0  0  0  0  0
   -5.2296   -2.7720   -1.2039 C   0  0  0  0  0  0  0  0  0  0  0  0
   -5.2617   -1.4738    1.9782 H   0  0  0  0  0  0  0  0  0  0  0  0
   -2.7911   -1.3474    1.5058 H   0  0  0  0  0  0  0  0  0  0  0  0
   -3.4373   -3.0498   -2.3782 H   0  0  0  0  0  0  0  0  0  0  0  0
   -5.9191   -3.1606   -1.9465 H   0  0  0  0  0  0  0  0  0  0  0  0
  -10.1195   -4.2770    0.2411 C   0  0  0  0  0  0  0  0  0  0  0  0
  -10.3971   -5.0954    1.3346 C   0  0  0  0  0  0  0  0  0  0  0  0
   -9.6111   -6.2227    1.6164 C   0  0  0  0  0  0  0  0  0  0  0  0
   -8.5318   -6.5106    0.7688 C   0  0  0  0  0  0  0  0  0  0  0  0
   -8.2395   -5.6993   -0.3275 C   0  0  0  0  0  0  0  0  0  0  0  0
   -9.0325   -4.5797   -0.5844 C   0  0  0  0  0  0  0  0  0  0  0  0
  -10.7449   -3.4205    0.0131 H   0  0  0  0  0  0  0  0  0  0  0  0
  -11.2428   -4.8613    1.9764 H   0  0  0  0  0  0  0  0  0  0  0  0
   -7.9187   -7.3869    0.9632 H   0  0  0  0  0  0  0  0  0  0  0  0
   -7.4203   -5.9349   -0.9988 H   0  0  0  0  0  0  0  0  0  0  0  0
   -8.6657   -3.5135   -1.9845 S   0  0  0  0  0  0  0  0  0  0  0  0
   -7.9510   -2.2593   -1.3957 O   0  0  0  0  0  0  0  0  0  0  0  0
   -9.9566   -3.0723   -2.5120 O   0  0  0  0  0  0  0  0  0  0  0  0
   -7.7230   -4.2634   -2.8399 O   0  0  0  0  0  0  0  0  0  0  0  0
   -9.9445   -7.1239    2.7814 C   0  0  0  0  0  0  0  0  0  0  0  0
  -10.3663   -6.5586    3.6179 H   0  0  0  0  0  0  0  0  0  0  0  0
  -10.6872   -7.8782    2.4930 H   0  0  0  0  0  0  0  0  0  0  0  0
   -9.0605   -7.6579    3.1416 H   0  0  0  0  0  0  0  0  0  0  0  0
  1  2  1  0  0  0  0
  1  4  2  0  0  0  0
  2  3  2  0  0  0  0
  4 12  1  0  0  0  0
  5  4  1  0  0  0  0
  5 13  1  0  0  0  0
  6  5  2  0  0  0  0
  7  6  1  0  0  0  0
  7  8  2  0  0  0  0
  9  7  2  0  0  0  0
 10 11  2  0  0  0  0
 10  6  1  0  0  0  0
 11  1  1  0  0  0  0
 14 10  1  0  0  0  0
 15 11  1  0  0  0  0
 16 17  2  0  0  0  0
 17 18  1  0  0  0  0
 17 23  1  0  0  0  0
 18 30  1  0  0  0  0
 19 24  1  0  0  0  0
 19 18  2  0  0  0  0
 20 19  1  0  0  0  0
 21 20  2  0  0  0  0
 21 16  1  0  0  0  0
 22 16  1  0  0  0  0
 25 20  1  0  0  0  0
 26 27  1  0  0  0  0
 26 21  1  0  0  0  0
 28 26  2  0  0  0  0
 29 26  2  0  0  0  0
 30 33  1  0  0  0  0
 30 31  1  0  0  0  0
 32 30  1  0  0  0  0
M  RAD  2   3   2  27   2
M  END
