Coordinates from ORCA-job 4-NO2PhN2+~TsO-_B3LYPG-6-31G_dp-NX-Scan-d89-09-n800
 OpenBabel11261920283D

 33 34  0  0  0  0  0  0  0  0999 V2000
   -4.3073   -2.4655   -0.4128 C   0  0  0  0  0  0  0  0  0  0  0  0
   -5.3337   -3.3878   -0.0895 N   0  0  0  0  0  0  0  0  0  0  0  0
   -6.1430   -3.6506   -1.0859 N   0  0  0  0  0  0  0  0  0  0  0  0
   -3.5144   -2.1295    0.7051 C   0  0  0  0  0  0  0  0  0  0  0  0
   -2.4535   -1.2475    0.5907 C   0  0  0  0  0  0  0  0  0  0  0  0
   -2.1721   -0.6903   -0.6586 C   0  0  0  0  0  0  0  0  0  0  0  0
   -1.0520    0.2457   -0.7920 N   0  0  0  0  0  0  0  0  0  0  0  0
   -0.3996    0.5018    0.2203 O   0  0  0  0  0  0  0  0  0  0  0  0
   -0.8316    0.7197   -1.9071 O   0  0  0  0  0  0  0  0  0  0  0  0
   -2.9309   -1.0048   -1.7815 C   0  0  0  0  0  0  0  0  0  0  0  0
   -3.9988   -1.8904   -1.6639 C   0  0  0  0  0  0  0  0  0  0  0  0
   -3.7616   -2.5843    1.6574 H   0  0  0  0  0  0  0  0  0  0  0  0
   -1.8411   -0.9822    1.4432 H   0  0  0  0  0  0  0  0  0  0  0  0
   -2.6790   -0.5560   -2.7339 H   0  0  0  0  0  0  0  0  0  0  0  0
   -4.5628   -2.1179   -2.5597 H   0  0  0  0  0  0  0  0  0  0  0  0
   -9.9833   -4.7556    0.7237 C   0  0  0  0  0  0  0  0  0  0  0  0
  -10.9135   -5.1413    1.6850 C   0  0  0  0  0  0  0  0  0  0  0  0
  -11.3258   -6.4790    1.8011 C   0  0  0  0  0  0  0  0  0  0  0  0
  -10.7748   -7.4258    0.9280 C   0  0  0  0  0  0  0  0  0  0  0  0
   -9.8439   -7.0566   -0.0438 C   0  0  0  0  0  0  0  0  0  0  0  0
   -9.4536   -5.7241   -0.1304 C   0  0  0  0  0  0  0  0  0  0  0  0
   -9.6584   -3.7218    0.6569 H   0  0  0  0  0  0  0  0  0  0  0  0
  -11.3232   -4.3951    2.3607 H   0  0  0  0  0  0  0  0  0  0  0  0
  -11.0782   -8.4663    1.0080 H   0  0  0  0  0  0  0  0  0  0  0  0
   -9.4116   -7.7812   -0.7265 H   0  0  0  0  0  0  0  0  0  0  0  0
   -8.3094   -5.2643   -1.4597 S   0  0  1  0  0  0  0  0  0  0  0  0
   -7.1479   -4.7382   -0.3566 O   0  0  0  0  0  0  0  0  0  0  0  0
   -6.2992   -3.4347   -1.9455 O   0  0  0  0  0  0  0  0  0  0  0  0
   -7.8866   -6.5271   -2.1326 O   0  0  0  0  0  0  0  0  0  0  0  0
  -12.3581   -6.8778    2.8283 C   0  0  0  0  0  0  0  0  0  0  0  0
  -12.2241   -6.3285    3.7650 H   0  0  0  0  0  0  0  0  0  0  0  0
  -13.3728   -6.6630    2.4700 H   0  0  0  0  0  0  0  0  0  0  0  0
  -12.3088   -7.9472    3.0513 H   0  0  0  0  0  0  0  0  0  0  0  0
  1  2  1  0  0  0  0
  1  4  2  0  0  0  0
  3 27  1  0  0  0  0
  3  2  1  0  0  0  0
  4 12  1  0  0  0  0
  5  4  1  0  0  0  0
  5 13  1  0  0  0  0
  6  5  2  0  0  0  0
  7  6  1  0  0  0  0
  7  8  2  0  0  0  0
  9  7  2  0  0  0  0
 10 11  2  0  0  0  0
 10  6  1  0  0  0  0
 11  1  1  0  0  0  0
 14 10  1  0  0  0  0
 15 11  1  0  0  0  0
 16 17  2  0  0  0  0
 17 18  1  0  0  0  0
 17 23  1  0  0  0  0
 18 30  1  0  0  0  0
 19 24  1  0  0  0  0
 19 18  2  0  0  0  0
 20 19  1  0  0  0  0
 21 20  2  0  0  0  0
 21 16  1  0  0  0  0
 22 16  1  0  0  0  0
 25 20  1  0  0  0  0
 26 29  1  1  0  0  0
 26 27  1  0  0  0  0
 26 21  1  0  0  0  0
 28  3  1  0  0  0  0
 30 33  1  0  0  0  0
 30 31  1  0  0  0  0
 32 30  1  0  0  0  0
M  RAD  3   2   2  28   2  29   2
M  END
