Coordinates from ORCA-job 4-NO2PhN2+~TsO-_B3LYPG-6-31G_dp-NX-Scan-d89-09-n800
 OpenBabel11261920283D

 33 33  0  0  0  0  0  0  0  0999 V2000
   -4.8041   -0.6534    0.6872 C   0  0  0  0  0  0  0  0  0  0  0  0
   -5.4789    0.3450    1.3421 N   0  0  0  0  0  0  0  0  0  0  0  0
   -6.0006    1.1623    1.9035 N   0  0  0  0  0  0  0  0  0  0  0  0
   -3.3932   -0.6835    0.8392 C   0  0  0  0  0  0  0  0  0  0  0  0
   -2.7128   -1.6852    0.1820 C   0  0  0  0  0  0  0  0  0  0  0  0
   -3.4424   -2.6173   -0.5760 C   0  0  0  0  0  0  0  0  0  0  0  0
   -2.6768   -3.6965   -1.2494 N   0  0  0  0  0  0  0  0  0  0  0  0
   -1.4569   -3.6919   -1.0885 O   0  0  0  0  0  0  0  0  0  0  0  0
   -3.3118   -4.5082   -1.9078 O   0  0  0  0  0  0  0  0  0  0  0  0
   -4.8241   -2.5857   -0.7148 C   0  0  0  0  0  0  0  0  0  0  0  0
   -5.5459   -1.5676   -0.0856 C   0  0  0  0  0  0  0  0  0  0  0  0
   -2.8806    0.0505    1.4503 H   0  0  0  0  0  0  0  0  0  0  0  0
   -1.6360   -1.7771    0.2452 H   0  0  0  0  0  0  0  0  0  0  0  0
   -5.3874   -3.3086   -1.3032 H   0  0  0  0  0  0  0  0  0  0  0  0
   -6.6478   -1.5379   -0.1709 H   0  0  0  0  0  0  0  0  0  0  0  0
   -9.8008   -4.5465    0.8799 C   0  0  0  0  0  0  0  0  0  0  0  0
  -10.1744   -5.7234    1.5259 C   0  0  0  0  0  0  0  0  0  0  0  0
   -9.8104   -6.9778    1.0156 C   0  0  0  0  0  0  0  0  0  0  0  0
   -9.0595   -7.0200   -0.1669 C   0  0  0  0  0  0  0  0  0  0  0  0
   -8.6786   -5.8495   -0.8222 C   0  0  0  0  0  0  0  0  0  0  0  0
   -9.0509   -4.6117   -0.2962 C   0  0  0  0  0  0  0  0  0  0  0  0
  -10.0791   -3.5785    1.2824 H   0  0  0  0  0  0  0  0  0  0  0  0
  -10.7577   -5.6689    2.4423 H   0  0  0  0  0  0  0  0  0  0  0  0
   -8.7689   -7.9827   -0.5807 H   0  0  0  0  0  0  0  0  0  0  0  0
   -8.0920   -5.8841   -1.7339 H   0  0  0  0  0  0  0  0  0  0  0  0
   -8.6220   -3.1015   -1.1779 S   0  0  0  0  0  0  0  0  0  0  0  0
   -8.3665   -2.0884   -0.0835 O   0  0  0  0  0  0  0  0  0  0  0  0
   -9.7732   -2.7582   -2.0359 O   0  0  0  0  0  0  0  0  0  0  0  0
   -7.3646   -3.4194   -1.9226 O   0  0  0  0  0  0  0  0  0  0  0  0
  -10.1917   -8.2486    1.7381 C   0  0  0  0  0  0  0  0  0  0  0  0
   -9.4336   -8.5269    2.4816 H   0  0  0  0  0  0  0  0  0  0  0  0
  -11.1412   -8.1369    2.2709 H   0  0  0  0  0  0  0  0  0  0  0  0
  -10.2902   -9.0890    1.0443 H   0  0  0  0  0  0  0  0  0  0  0  0
  1  4  1  0  0  0  0
  1  2  1  0  0  0  0
  2  3  1  0  0  0  0
  4 12  1  0  0  0  0
  5 13  1  0  0  0  0
  5  4  2  0  0  0  0
  6  5  1  0  0  0  0
  7  8  2  0  0  0  0
  7  6  1  0  0  0  0
  9  7  2  0  0  0  0
 10  6  2  0  0  0  0
 10 11  1  0  0  0  0
 11  1  2  0  0  0  0
 14 10  1  0  0  0  0
 15 11  1  0  0  0  0
 16 22  1  0  0  0  0
 16 17  2  0  0  0  0
 17 23  1  0  0  0  0
 18 17  1  0  0  0  0
 18 30  1  0  0  0  0
 19 18  2  0  0  0  0
 20 21  2  0  0  0  0
 20 19  1  0  0  0  0
 21 16  1  0  0  0  0
 24 19  1  0  0  0  0
 25 20  1  0  0  0  0
 26 21  1  0  0  0  0
 26 27  1  0  0  0  0
 28 26  2  0  0  0  0
 29 26  2  0  0  0  0
 30 32  1  0  0  0  0
 30 31  1  0  0  0  0
 33 30  1  0  0  0  0
M  RAD  3   2   2   3   3  27   2
M  END
