Coordinates from ORCA-job 4-NO2PhN2+~TsO-_B3LYPG-6-31G_dp-NX-Scan-d89-09-n800
 OpenBabel11261920283D

 33 33  0  0  0  0  0  0  0  0999 V2000
   -4.7435   -0.7761    0.6087 C   0  0  0  0  0  0  0  0  0  0  0  0
   -5.6518   -0.0118    1.3050 N   0  0  0  0  0  0  0  0  0  0  0  0
   -6.4110    0.5796    1.8726 N   0  0  0  0  0  0  0  0  0  0  0  0
   -3.3788   -0.4022    0.6146 C   0  0  0  0  0  0  0  0  0  0  0  0
   -2.5169   -1.2080   -0.1010 C   0  0  0  0  0  0  0  0  0  0  0  0
   -3.0295   -2.3310   -0.7750 C   0  0  0  0  0  0  0  0  0  0  0  0
   -2.0659   -3.1735   -1.5287 N   0  0  0  0  0  0  0  0  0  0  0  0
   -0.8883   -2.8208   -1.5116 O   0  0  0  0  0  0  0  0  0  0  0  0
   -2.5138   -4.1545   -2.1067 O   0  0  0  0  0  0  0  0  0  0  0  0
   -4.3726   -2.6860   -0.7722 C   0  0  0  0  0  0  0  0  0  0  0  0
   -5.2714   -1.8869   -0.0662 C   0  0  0  0  0  0  0  0  0  0  0  0
   -3.0320    0.4724    1.1526 H   0  0  0  0  0  0  0  0  0  0  0  0
   -1.4565   -0.9971   -0.1552 H   0  0  0  0  0  0  0  0  0  0  0  0
   -4.7592   -3.5444   -1.3108 H   0  0  0  0  0  0  0  0  0  0  0  0
   -6.3534   -2.0968   -0.0235 H   0  0  0  0  0  0  0  0  0  0  0  0
   -9.9174   -4.6359    1.0432 C   0  0  0  0  0  0  0  0  0  0  0  0
  -10.4761   -5.7886    1.5873 C   0  0  0  0  0  0  0  0  0  0  0  0
  -10.2107   -7.0532    1.0377 C   0  0  0  0  0  0  0  0  0  0  0  0
   -9.3639   -7.1273   -0.0745 C   0  0  0  0  0  0  0  0  0  0  0  0
   -8.7971   -5.9786   -0.6291 C   0  0  0  0  0  0  0  0  0  0  0  0
   -9.0765   -4.7332   -0.0692 C   0  0  0  0  0  0  0  0  0  0  0  0
  -10.1176   -3.6624    1.4778 H   0  0  0  0  0  0  0  0  0  0  0  0
  -11.1269   -5.7095    2.4554 H   0  0  0  0  0  0  0  0  0  0  0  0
   -9.1428   -8.0975   -0.5127 H   0  0  0  0  0  0  0  0  0  0  0  0
   -8.1344   -6.0378   -1.4859 H   0  0  0  0  0  0  0  0  0  0  0  0
   -8.4003   -3.2422   -0.8170 S   0  0  0  0  0  0  0  0  0  0  0  0
   -8.0565   -2.3526    0.3609 O   0  0  0  0  0  0  0  0  0  0  0  0
   -9.4505   -2.6711   -1.6825 O   0  0  0  0  0  0  0  0  0  0  0  0
   -7.1612   -3.6769   -1.5322 O   0  0  0  0  0  0  0  0  0  0  0  0
  -10.8219   -8.2963    1.6410 C   0  0  0  0  0  0  0  0  0  0  0  0
  -10.4961   -8.4398    2.6780 H   0  0  0  0  0  0  0  0  0  0  0  0
  -11.9166   -8.2360    1.6554 H   0  0  0  0  0  0  0  0  0  0  0  0
  -10.5435   -9.1913    1.0782 H   0  0  0  0  0  0  0  0  0  0  0  0
  1  4  1  0  0  0  0
  1  2  1  0  0  0  0
  2  3  1  0  0  0  0
  4 12  1  0  0  0  0
  5  4  2  0  0  0  0
  6 10  2  0  0  0  0
  6  5  1  0  0  0  0
  7  8  2  0  0  0  0
  7  6  1  0  0  0  0
  9  7  2  0  0  0  0
 10 11  1  0  0  0  0
 11 15  1  0  0  0  0
 11  1  2  0  0  0  0
 13  5  1  0  0  0  0
 14 10  1  0  0  0  0
 16 22  1  0  0  0  0
 16 17  1  0  0  0  0
 17 23  1  0  0  0  0
 18 17  2  0  0  0  0
 18 30  1  0  0  0  0
 19 18  1  0  0  0  0
 20 19  2  0  0  0  0
 20 21  1  0  0  0  0
 21 16  2  0  0  0  0
 24 19  1  0  0  0  0
 25 20  1  0  0  0  0
 26 21  1  0  0  0  0
 26 27  1  0  0  0  0
 28 26  2  0  0  0  0
 29 26  2  0  0  0  0
 30 32  1  0  0  0  0
 30 31  1  0  0  0  0
 33 30  1  0  0  0  0
M  RAD  3   2   2   3   3  27   2
M  END
