Coordinates from ORCA-job 4-NO2PhN2+~TsO-_B3LYPG-6-31G_dp-NX-Scan-d89-09-n800
 OpenBabel11261920283D

 33 33  0  0  0  0  0  0  0  0999 V2000
   -4.3956   -3.2161    0.0251 C   0  0  0  0  0  0  0  0  0  0  0  0
   -5.0346   -4.3517    0.6217 N   0  0  0  0  0  0  0  0  0  0  0  0
   -5.0429   -5.0127    1.5379 N   0  0  0  0  0  0  0  0  0  0  0  0
   -3.7551   -2.3469    0.9178 C   0  0  0  0  0  0  0  0  0  0  0  0
   -3.0745   -1.2555    0.3950 C   0  0  0  0  0  0  0  0  0  0  0  0
   -3.0461   -1.0868   -0.9888 C   0  0  0  0  0  0  0  0  0  0  0  0
   -2.3087    0.0727   -1.5407 N   0  0  0  0  0  0  0  0  0  0  0  0
   -1.7720    0.8296   -0.7360 O   0  0  0  0  0  0  0  0  0  0  0  0
   -2.2830    0.1930   -2.7612 O   0  0  0  0  0  0  0  0  0  0  0  0
   -3.6785   -1.9592   -1.8697 C   0  0  0  0  0  0  0  0  0  0  0  0
   -4.3796   -3.0473   -1.3570 C   0  0  0  0  0  0  0  0  0  0  0  0
   -3.8023   -2.5199    1.9868 H   0  0  0  0  0  0  0  0  0  0  0  0
   -2.5698   -0.5421    1.0338 H   0  0  0  0  0  0  0  0  0  0  0  0
   -3.6288   -1.7761   -2.9355 H   0  0  0  0  0  0  0  0  0  0  0  0
   -4.9111   -3.7485   -1.9861 H   0  0  0  0  0  0  0  0  0  0  0  0
   -9.2804   -4.3819    1.2227 C   0  0  0  0  0  0  0  0  0  0  0  0
  -10.2341   -5.0612    1.9829 C   0  0  0  0  0  0  0  0  0  0  0  0
  -10.7915   -6.2657    1.5378 C   0  0  0  0  0  0  0  0  0  0  0  0
  -10.3697   -6.7788    0.3002 C   0  0  0  0  0  0  0  0  0  0  0  0
   -9.4222   -6.1121   -0.4704 C   0  0  0  0  0  0  0  0  0  0  0  0
   -8.8763   -4.9145    0.0002 C   0  0  0  0  0  0  0  0  0  0  0  0
   -8.8599   -3.4409    1.5586 H   0  0  0  0  0  0  0  0  0  0  0  0
  -10.5525   -4.6459    2.9354 H   0  0  0  0  0  0  0  0  0  0  0  0
  -10.7932   -7.7113   -0.0638 H   0  0  0  0  0  0  0  0  0  0  0  0
   -9.1124   -6.5053   -1.4325 H   0  0  0  0  0  0  0  0  0  0  0  0
   -7.6354   -4.0653   -0.9774 S   0  0  0  0  0  0  0  0  0  0  0  0
   -6.3615   -4.9541   -0.8246 O   0  0  0  0  0  0  0  0  0  0  0  0
   -7.4017   -2.7488   -0.3465 O   0  0  0  0  0  0  0  0  0  0  0  0
   -8.0742   -4.0998   -2.3793 O   0  0  0  0  0  0  0  0  0  0  0  0
  -11.8409   -6.9861    2.3503 C   0  0  0  0  0  0  0  0  0  0  0  0
  -11.8715   -6.6202    3.3801 H   0  0  0  0  0  0  0  0  0  0  0  0
  -12.8398   -6.8428    1.9196 H   0  0  0  0  0  0  0  0  0  0  0  0
  -11.6545   -8.0650    2.3780 H   0  0  0  0  0  0  0  0  0  0  0  0
  1  2  1  0  0  0  0
  1  4  2  0  0  0  0
  2  3  2  0  0  0  0
  4 12  1  0  0  0  0
  5  4  1  0  0  0  0
  5 13  1  0  0  0  0
  6  5  2  0  0  0  0
  7  6  1  0  0  0  0
  7  8  2  0  0  0  0
  9  7  2  0  0  0  0
 10 11  2  0  0  0  0
 10  6  1  0  0  0  0
 11  1  1  0  0  0  0
 14 10  1  0  0  0  0
 15 11  1  0  0  0  0
 16 22  1  0  0  0  0
 16 17  2  0  0  0  0
 17 23  1  0  0  0  0
 18 17  1  0  0  0  0
 18 30  1  0  0  0  0
 19 18  2  0  0  0  0
 20 21  2  0  0  0  0
 20 19  1  0  0  0  0
 21 16  1  0  0  0  0
 24 19  1  0  0  0  0
 25 20  1  0  0  0  0
 26 27  2  0  0  0  0
 26 28  1  0  0  0  0
 26 21  1  0  0  0  0
 29 26  2  0  0  0  0
 30 33  1  0  0  0  0
 30 31  1  0  0  0  0
 32 30  1  0  0  0  0
M  RAD  2   3   2  28   2
M  END
