Coordinates from ORCA-job 4-NO2PhN2+~TsO-_B3LYPG-6-31G_dp-NX-Scan-d89-09-n800
 OpenBabel11261920283D

 33 33  0  0  0  0  0  0  0  0999 V2000
   -5.0039   -2.6921    0.0829 C   0  0  0  0  0  0  0  0  0  0  0  0
   -6.1346   -3.3736    0.6313 N   0  0  0  0  0  0  0  0  0  0  0  0
   -6.5322   -3.9841    1.4938 N   0  0  0  0  0  0  0  0  0  0  0  0
   -4.2199   -1.9705    0.9895 C   0  0  0  0  0  0  0  0  0  0  0  0
   -3.0905   -1.3233    0.5020 C   0  0  0  0  0  0  0  0  0  0  0  0
   -2.7882   -1.4402   -0.8532 C   0  0  0  0  0  0  0  0  0  0  0  0
   -1.5787   -0.7557   -1.3637 N   0  0  0  0  0  0  0  0  0  0  0  0
   -0.9136   -0.1144   -0.5541 O   0  0  0  0  0  0  0  0  0  0  0  0
   -1.3245   -0.8789   -2.5575 O   0  0  0  0  0  0  0  0  0  0  0  0
   -3.5707   -2.1724   -1.7441 C   0  0  0  0  0  0  0  0  0  0  0  0
   -4.7178   -2.8076   -1.2769 C   0  0  0  0  0  0  0  0  0  0  0  0
   -4.4945   -1.9115    2.0364 H   0  0  0  0  0  0  0  0  0  0  0  0
   -2.4471   -0.7395    1.1478 H   0  0  0  0  0  0  0  0  0  0  0  0
   -3.2832   -2.2310   -2.7862 H   0  0  0  0  0  0  0  0  0  0  0  0
   -5.3705   -3.3922   -1.9184 H   0  0  0  0  0  0  0  0  0  0  0  0
  -10.0461   -4.2727    0.4539 C   0  0  0  0  0  0  0  0  0  0  0  0
  -10.7366   -5.0213    1.4008 C   0  0  0  0  0  0  0  0  0  0  0  0
  -10.4087   -6.3659    1.6452 C   0  0  0  0  0  0  0  0  0  0  0  0
   -9.3635   -6.9391    0.9122 C   0  0  0  0  0  0  0  0  0  0  0  0
   -8.6597   -6.2003   -0.0415 C   0  0  0  0  0  0  0  0  0  0  0  0
   -9.0023   -4.8674   -0.2647 C   0  0  0  0  0  0  0  0  0  0  0  0
  -10.3119   -3.2378    0.2658 H   0  0  0  0  0  0  0  0  0  0  0  0
  -11.5469   -4.5592    1.9592 H   0  0  0  0  0  0  0  0  0  0  0  0
   -9.0961   -7.9779    1.0866 H   0  0  0  0  0  0  0  0  0  0  0  0
   -7.8540   -6.6444   -0.6155 H   0  0  0  0  0  0  0  0  0  0  0  0
   -8.1256   -3.9066   -1.5013 S   0  0  0  0  0  0  0  0  0  0  0  0
   -7.5326   -2.7139   -0.7058 O   0  0  0  0  0  0  0  0  0  0  0  0
   -9.1108   -3.3965   -2.4576 O   0  0  0  0  0  0  0  0  0  0  0  0
   -7.0296   -4.7704   -2.0017 O   0  0  0  0  0  0  0  0  0  0  0  0
  -11.1828   -7.1697    2.6628 C   0  0  0  0  0  0  0  0  0  0  0  0
  -11.2863   -6.6249    3.6073 H   0  0  0  0  0  0  0  0  0  0  0  0
  -12.1959   -7.3873    2.3047 H   0  0  0  0  0  0  0  0  0  0  0  0
  -10.6954   -8.1248    2.8746 H   0  0  0  0  0  0  0  0  0  0  0  0
  1  2  1  0  0  0  0
  1  4  2  0  0  0  0
  2  3  2  0  0  0  0
  4 12  1  0  0  0  0
  5  4  1  0  0  0  0
  5 13  1  0  0  0  0
  6  5  2  0  0  0  0
  7  6  1  0  0  0  0
  7  8  2  0  0  0  0
  9  7  2  0  0  0  0
 10 11  2  0  0  0  0
 10  6  1  0  0  0  0
 11  1  1  0  0  0  0
 14 10  1  0  0  0  0
 15 11  1  0  0  0  0
 16 17  2  0  0  0  0
 17 18  1  0  0  0  0
 17 23  1  0  0  0  0
 18 30  1  0  0  0  0
 19 24  1  0  0  0  0
 19 18  2  0  0  0  0
 20 19  1  0  0  0  0
 21 20  2  0  0  0  0
 21 16  1  0  0  0  0
 22 16  1  0  0  0  0
 25 20  1  0  0  0  0
 26 27  1  0  0  0  0
 26 21  1  0  0  0  0
 28 26  2  0  0  0  0
 29 26  2  0  0  0  0
 30 33  1  0  0  0  0
 30 31  1  0  0  0  0
 32 30  1  0  0  0  0
M  RAD  2   3   2  27   2
M  END
