Coordinates from ORCA-job 4-NO2PhN2+~TsO-_B3LYPG-6-31G_dp-NX-Scan-d89-09-n800
 OpenBabel11261920283D

 33 33  0  0  0  0  0  0  0  0999 V2000
   -4.6464   -0.8343    1.0850 C   0  0  0  0  0  0  0  0  0  0  0  0
   -5.2207   -0.1553    2.1308 N   0  0  0  0  0  0  0  0  0  0  0  0
   -5.6175    0.4139    3.0113 N   0  0  0  0  0  0  0  0  0  0  0  0
   -3.2369   -0.7037    0.9682 C   0  0  0  0  0  0  0  0  0  0  0  0
   -2.6234   -1.3817   -0.0623 C   0  0  0  0  0  0  0  0  0  0  0  0
   -3.4114   -2.1630   -0.9222 C   0  0  0  0  0  0  0  0  0  0  0  0
   -2.7055   -2.8882   -2.0131 N   0  0  0  0  0  0  0  0  0  0  0  0
   -1.4806   -2.7686   -2.0495 O   0  0  0  0  0  0  0  0  0  0  0  0
   -3.3896   -3.5411   -2.7850 O   0  0  0  0  0  0  0  0  0  0  0  0
   -4.7903   -2.2941   -0.8062 C   0  0  0  0  0  0  0  0  0  0  0  0
   -5.4487   -1.6049    0.2177 C   0  0  0  0  0  0  0  0  0  0  0  0
   -2.6744   -0.0952    1.6671 H   0  0  0  0  0  0  0  0  0  0  0  0
   -1.5532   -1.3312   -0.2185 H   0  0  0  0  0  0  0  0  0  0  0  0
   -5.3998   -2.9363   -1.4590 H   0  0  0  0  0  0  0  0  0  0  0  0
   -6.5436   -1.7177    0.2816 H   0  0  0  0  0  0  0  0  0  0  0  0
  -10.0365   -4.6376    0.4608 C   0  0  0  0  0  0  0  0  0  0  0  0
  -10.6117   -5.6668    1.2020 C   0  0  0  0  0  0  0  0  0  0  0  0
  -10.1036   -6.9735    1.1442 C   0  0  0  0  0  0  0  0  0  0  0  0
   -8.9976   -7.2200    0.3172 C   0  0  0  0  0  0  0  0  0  0  0  0
   -8.4135   -6.1980   -0.4291 C   0  0  0  0  0  0  0  0  0  0  0  0
   -8.9346   -4.9042   -0.3579 C   0  0  0  0  0  0  0  0  0  0  0  0
  -10.4313   -3.6283    0.5127 H   0  0  0  0  0  0  0  0  0  0  0  0
  -11.4720   -5.4573    1.8334 H   0  0  0  0  0  0  0  0  0  0  0  0
   -8.5917   -8.2273    0.2555 H   0  0  0  0  0  0  0  0  0  0  0  0
   -7.5573   -6.3840   -1.0682 H   0  0  0  0  0  0  0  0  0  0  0  0
   -8.2365   -3.5870   -1.3685 S   0  0  0  0  0  0  0  0  0  0  0  0
   -8.1433   -2.4138   -0.4199 O   0  0  0  0  0  0  0  0  0  0  0  0
   -9.1765   -3.3763   -2.4885 O   0  0  0  0  0  0  0  0  0  0  0  0
   -6.8819   -4.0845   -1.7666 O   0  0  0  0  0  0  0  0  0  0  0  0
  -10.7137   -8.0817    1.9692 C   0  0  0  0  0  0  0  0  0  0  0  0
  -10.1516   -8.2426    2.8979 H   0  0  0  0  0  0  0  0  0  0  0  0
  -11.7455   -7.8510    2.2494 H   0  0  0  0  0  0  0  0  0  0  0  0
  -10.7141   -9.0317    1.4251 H   0  0  0  0  0  0  0  0  0  0  0  0
  1  2  1  0  0  0  0
  2  3  1  0  0  0  0
  4  1  1  0  0  0  0
  4 12  1  0  0  0  0
  5  4  2  0  0  0  0
  6 10  2  0  0  0  0
  6  5  1  0  0  0  0
  7  6  1  0  0  0  0
  8  7  2  0  0  0  0
  9  7  2  0  0  0  0
 10 11  1  0  0  0  0
 11 15  1  0  0  0  0
 11  1  2  0  0  0  0
 13  5  1  0  0  0  0
 14 10  1  0  0  0  0
 16 22  1  0  0  0  0
 16 17  2  0  0  0  0
 17 23  1  0  0  0  0
 18 17  1  0  0  0  0
 18 30  1  0  0  0  0
 19 18  2  0  0  0  0
 20 21  2  0  0  0  0
 20 19  1  0  0  0  0
 21 16  1  0  0  0  0
 24 19  1  0  0  0  0
 25 20  1  0  0  0  0
 26 27  1  0  0  0  0
 26 21  1  0  0  0  0
 28 26  2  0  0  0  0
 29 26  2  0  0  0  0
 30 32  1  0  0  0  0
 30 31  1  0  0  0  0
 33 30  1  0  0  0  0
M  RAD  3   2   2   3   3  27   2
M  END
