Coordinates from ORCA-job 4-NO2PhN2+~TsO-_B3LYPG-6-31G_dp-NX-Scan-d89-09-n800
 OpenBabel11261920283D

 33 33  0  0  0  0  0  0  0  0999 V2000
   -4.4545   -3.3286   -0.0472 C   0  0  0  0  0  0  0  0  0  0  0  0
   -5.0836   -4.5218    0.4335 N   0  0  0  0  0  0  0  0  0  0  0  0
   -5.1013   -5.2637    1.2864 N   0  0  0  0  0  0  0  0  0  0  0  0
   -3.8632   -2.5199    0.9326 C   0  0  0  0  0  0  0  0  0  0  0  0
   -3.1993   -1.3720    0.5215 C   0  0  0  0  0  0  0  0  0  0  0  0
   -3.1389   -1.0887   -0.8426 C   0  0  0  0  0  0  0  0  0  0  0  0
   -2.4205    0.1318   -1.2753 N   0  0  0  0  0  0  0  0  0  0  0  0
   -1.9304    0.8349   -0.3955 O   0  0  0  0  0  0  0  0  0  0  0  0
   -2.3724    0.3582   -2.4799 O   0  0  0  0  0  0  0  0  0  0  0  0
   -3.7217   -1.9014   -1.8106 C   0  0  0  0  0  0  0  0  0  0  0  0
   -4.4066   -3.0453   -1.4097 C   0  0  0  0  0  0  0  0  0  0  0  0
   -3.9334   -2.7828    1.9818 H   0  0  0  0  0  0  0  0  0  0  0  0
   -2.7316   -0.7017    1.2310 H   0  0  0  0  0  0  0  0  0  0  0  0
   -3.6481   -1.6291   -2.8556 H   0  0  0  0  0  0  0  0  0  0  0  0
   -4.8976   -3.7078   -2.1088 H   0  0  0  0  0  0  0  0  0  0  0  0
   -9.2425   -4.2743    1.0279 C   0  0  0  0  0  0  0  0  0  0  0  0
  -10.1560   -4.8918    1.8844 C   0  0  0  0  0  0  0  0  0  0  0  0
  -10.6773   -6.1584    1.5958 C   0  0  0  0  0  0  0  0  0  0  0  0
  -10.2585   -6.7997    0.4187 C   0  0  0  0  0  0  0  0  0  0  0  0
   -9.3506   -6.1965   -0.4460 C   0  0  0  0  0  0  0  0  0  0  0  0
   -8.8413   -4.9330   -0.1326 C   0  0  0  0  0  0  0  0  0  0  0  0
   -8.8496   -3.2866    1.2416 H   0  0  0  0  0  0  0  0  0  0  0  0
  -10.4722   -4.3776    2.7885 H   0  0  0  0  0  0  0  0  0  0  0  0
  -10.6543   -7.7825    0.1762 H   0  0  0  0  0  0  0  0  0  0  0  0
   -9.0431   -6.6915   -1.3610 H   0  0  0  0  0  0  0  0  0  0  0  0
   -7.6643   -4.1562   -1.2419 S   0  0  0  0  0  0  0  0  0  0  0  0
   -6.3748   -5.0211   -1.0926 O   0  0  0  0  0  0  0  0  0  0  0  0
   -7.4185   -2.7911   -0.7310 O   0  0  0  0  0  0  0  0  0  0  0  0
   -8.1763   -4.3091   -2.6102 O   0  0  0  0  0  0  0  0  0  0  0  0
  -11.6891   -6.8109    2.5074 C   0  0  0  0  0  0  0  0  0  0  0  0
  -11.6780   -6.3638    3.5051 H   0  0  0  0  0  0  0  0  0  0  0  0
  -12.7058   -6.7009    2.1093 H   0  0  0  0  0  0  0  0  0  0  0  0
  -11.4995   -7.8840    2.6133 H   0  0  0  0  0  0  0  0  0  0  0  0
  1  2  1  0  0  0  0
  1  4  2  0  0  0  0
  2  3  2  0  0  0  0
  4 12  1  0  0  0  0
  5  4  1  0  0  0  0
  5 13  1  0  0  0  0
  6  5  2  0  0  0  0
  7  6  1  0  0  0  0
  7  8  2  0  0  0  0
  9  7  2  0  0  0  0
 10 11  2  0  0  0  0
 10  6  1  0  0  0  0
 11  1  1  0  0  0  0
 14 10  1  0  0  0  0
 15 11  1  0  0  0  0
 16 22  1  0  0  0  0
 16 17  2  0  0  0  0
 17 23  1  0  0  0  0
 18 17  1  0  0  0  0
 18 30  1  0  0  0  0
 19 18  2  0  0  0  0
 20 21  2  0  0  0  0
 20 19  1  0  0  0  0
 21 16  1  0  0  0  0
 24 19  1  0  0  0  0
 25 20  1  0  0  0  0
 26 27  2  0  0  0  0
 26 28  1  0  0  0  0
 26 21  1  0  0  0  0
 29 26  2  0  0  0  0
 30 33  1  0  0  0  0
 30 31  1  0  0  0  0
 32 30  1  0  0  0  0
M  RAD  2   3   2  28   2
M  END
