Coordinates from ORCA-job 4-NO2PhN2+~TsO-_B3LYPG-6-31G_dp-NX-Scan-d89-09-n800
 OpenBabel11261920283D

 33 33  0  0  0  0  0  0  0  0999 V2000
   -4.1270   -2.9444    0.3203 C   0  0  0  0  0  0  0  0  0  0  0  0
   -4.6359   -3.8433    1.3103 N   0  0  0  0  0  0  0  0  0  0  0  0
   -4.4774   -4.2454    2.3519 N   0  0  0  0  0  0  0  0  0  0  0  0
   -3.2652   -1.9490    0.8071 C   0  0  0  0  0  0  0  0  0  0  0  0
   -2.7022   -1.0672   -0.1033 C   0  0  0  0  0  0  0  0  0  0  0  0
   -3.0087   -1.2188   -1.4562 C   0  0  0  0  0  0  0  0  0  0  0  0
   -2.3978   -0.2786   -2.4243 N   0  0  0  0  0  0  0  0  0  0  0  0
   -1.6607    0.5925   -1.9700 O   0  0  0  0  0  0  0  0  0  0  0  0
   -2.6668   -0.4391   -3.6101 O   0  0  0  0  0  0  0  0  0  0  0  0
   -3.8607   -2.2098   -1.9315 C   0  0  0  0  0  0  0  0  0  0  0  0
   -4.4413   -3.0974   -1.0273 C   0  0  0  0  0  0  0  0  0  0  0  0
   -3.0572   -1.8704    1.8679 H   0  0  0  0  0  0  0  0  0  0  0  0
   -2.0379   -0.2727    0.2121 H   0  0  0  0  0  0  0  0  0  0  0  0
   -4.0739   -2.2749   -2.9908 H   0  0  0  0  0  0  0  0  0  0  0  0
   -5.1371   -3.8633   -1.3430 H   0  0  0  0  0  0  0  0  0  0  0  0
   -9.3759   -4.7934    1.8288 C   0  0  0  0  0  0  0  0  0  0  0  0
  -10.4627   -5.5999    2.1613 C   0  0  0  0  0  0  0  0  0  0  0  0
  -11.0487   -6.4531    1.2155 C   0  0  0  0  0  0  0  0  0  0  0  0
  -10.5152   -6.4788   -0.0816 C   0  0  0  0  0  0  0  0  0  0  0  0
   -9.4304   -5.6776   -0.4306 C   0  0  0  0  0  0  0  0  0  0  0  0
   -8.8652   -4.8389    0.5312 C   0  0  0  0  0  0  0  0  0  0  0  0
   -8.9335   -4.1215    2.5563 H   0  0  0  0  0  0  0  0  0  0  0  0
  -10.8665   -5.5633    3.1699 H   0  0  0  0  0  0  0  0  0  0  0  0
  -10.9593   -7.1313   -0.8291 H   0  0  0  0  0  0  0  0  0  0  0  0
   -9.0286   -5.6850   -1.4378 H   0  0  0  0  0  0  0  0  0  0  0  0
   -7.4550   -3.8219    0.0986 S   0  0  0  0  0  0  0  0  0  0  0  0
   -6.2515   -4.7633    0.4018 O   0  0  0  0  0  0  0  0  0  0  0  0
   -7.4295   -2.6557    1.0048 O   0  0  0  0  0  0  0  0  0  0  0  0
   -7.5304   -3.5514   -1.3521 O   0  0  0  0  0  0  0  0  0  0  0  0
  -12.2476   -7.2991    1.5729 C   0  0  0  0  0  0  0  0  0  0  0  0
  -12.2825   -7.5134    2.6449 H   0  0  0  0  0  0  0  0  0  0  0  0
  -13.1819   -6.7863    1.3113 H   0  0  0  0  0  0  0  0  0  0  0  0
  -12.2404   -8.2514    1.0352 H   0  0  0  0  0  0  0  0  0  0  0  0
  1  4  1  0  0  0  0
  1  2  1  0  0  0  0
  2  3  2  0  0  0  0
  4 12  1  0  0  0  0
  5 13  1  0  0  0  0
  5  4  2  0  0  0  0
  6  5  1  0  0  0  0
  7  8  2  0  0  0  0
  7  6  1  0  0  0  0
  9  7  2  0  0  0  0
 10  6  2  0  0  0  0
 10 11  1  0  0  0  0
 11  1  2  0  0  0  0
 14 10  1  0  0  0  0
 15 11  1  0  0  0  0
 16 17  1  0  0  0  0
 16 22  1  0  0  0  0
 17 23  1  0  0  0  0
 18 30  1  0  0  0  0
 18 17  2  0  0  0  0
 19 18  1  0  0  0  0
 20 19  2  0  0  0  0
 20 21  1  0  0  0  0
 21 16  2  0  0  0  0
 24 19  1  0  0  0  0
 25 20  1  0  0  0  0
 26 27  2  0  0  0  0
 26 21  1  0  0  0  0
 26 28  1  0  0  0  0
 29 26  2  0  0  0  0
 30 31  1  0  0  0  0
 32 30  1  0  0  0  0
 33 30  1  0  0  0  0
M  RAD  2   3   2  28   2
M  END
