Coordinates from ORCA-job 4-NO2PhN2+~TsO-_B3LYPG-6-31G_dp-NX-Scan-d89-09-n800
 OpenBabel11261920283D

 33 33  0  0  0  0  0  0  0  0999 V2000
   -4.7790   -2.7575    0.1468 C   0  0  0  0  0  0  0  0  0  0  0  0
   -5.7994   -3.5220    0.7948 N   0  0  0  0  0  0  0  0  0  0  0  0
   -6.0570   -4.1996    1.6593 N   0  0  0  0  0  0  0  0  0  0  0  0
   -3.9476   -2.0083    0.9859 C   0  0  0  0  0  0  0  0  0  0  0  0
   -2.9153   -1.2845    0.3996 C   0  0  0  0  0  0  0  0  0  0  0  0
   -2.7517   -1.3562   -0.9822 C   0  0  0  0  0  0  0  0  0  0  0  0
   -1.6439   -0.5912   -1.5981 N   0  0  0  0  0  0  0  0  0  0  0  0
   -0.9373    0.0757   -0.8464 O   0  0  0  0  0  0  0  0  0  0  0  0
   -1.5081   -0.6790   -2.8141 O   0  0  0  0  0  0  0  0  0  0  0  0
   -3.5816   -2.1151   -1.8055 C   0  0  0  0  0  0  0  0  0  0  0  0
   -4.6346   -2.8268   -1.2381 C   0  0  0  0  0  0  0  0  0  0  0  0
   -4.1125   -1.9864    2.0572 H   0  0  0  0  0  0  0  0  0  0  0  0
   -2.2421   -0.6763    0.9901 H   0  0  0  0  0  0  0  0  0  0  0  0
   -3.4046   -2.1340   -2.8735 H   0  0  0  0  0  0  0  0  0  0  0  0
   -5.3216   -3.4334   -1.8224 H   0  0  0  0  0  0  0  0  0  0  0  0
  -10.2388   -4.3419    0.3608 C   0  0  0  0  0  0  0  0  0  0  0  0
  -11.0015   -5.1180    1.2273 C   0  0  0  0  0  0  0  0  0  0  0  0
  -10.5949   -6.4119    1.5945 C   0  0  0  0  0  0  0  0  0  0  0  0
   -9.3984   -6.9076    1.0648 C   0  0  0  0  0  0  0  0  0  0  0  0
   -8.6207   -6.1401    0.1949 C   0  0  0  0  0  0  0  0  0  0  0  0
   -9.0432   -4.8572   -0.1500 C   0  0  0  0  0  0  0  0  0  0  0  0
  -10.5674   -3.3506    0.0681 H   0  0  0  0  0  0  0  0  0  0  0  0
  -11.9322   -4.7186    1.6222 H   0  0  0  0  0  0  0  0  0  0  0  0
   -9.0724   -7.9100    1.3291 H   0  0  0  0  0  0  0  0  0  0  0  0
   -7.7045   -6.5320   -0.2324 H   0  0  0  0  0  0  0  0  0  0  0  0
   -8.0438   -3.8437   -1.2420 S   0  0  0  0  0  0  0  0  0  0  0  0
   -7.3857   -2.7904   -0.3119 O   0  0  0  0  0  0  0  0  0  0  0  0
   -8.9508   -3.1674   -2.1771 O   0  0  0  0  0  0  0  0  0  0  0  0
   -6.9940   -4.7347   -1.7956 O   0  0  0  0  0  0  0  0  0  0  0  0
  -11.4455   -7.2484    2.5208 C   0  0  0  0  0  0  0  0  0  0  0  0
  -11.7244   -6.6893    3.4203 H   0  0  0  0  0  0  0  0  0  0  0  0
  -12.3776   -7.5552    2.0322 H   0  0  0  0  0  0  0  0  0  0  0  0
  -10.9224   -8.1551    2.8352 H   0  0  0  0  0  0  0  0  0  0  0  0
  1  2  1  0  0  0  0
  1  4  2  0  0  0  0
  2  3  2  0  0  0  0
  4 12  1  0  0  0  0
  5  4  1  0  0  0  0
  5 13  1  0  0  0  0
  6  5  2  0  0  0  0
  7  6  1  0  0  0  0
  7  8  2  0  0  0  0
  9  7  2  0  0  0  0
 10 11  2  0  0  0  0
 10  6  1  0  0  0  0
 11  1  1  0  0  0  0
 14 10  1  0  0  0  0
 15 11  1  0  0  0  0
 16 17  2  0  0  0  0
 17 18  1  0  0  0  0
 17 23  1  0  0  0  0
 18 30  1  0  0  0  0
 19 24  1  0  0  0  0
 19 18  2  0  0  0  0
 20 19  1  0  0  0  0
 21 20  2  0  0  0  0
 21 16  1  0  0  0  0
 22 16  1  0  0  0  0
 25 20  1  0  0  0  0
 26 27  1  0  0  0  0
 26 21  1  0  0  0  0
 28 26  2  0  0  0  0
 29 26  2  0  0  0  0
 30 33  1  0  0  0  0
 30 31  1  0  0  0  0
 32 30  1  0  0  0  0
M  RAD  2   3   2  27   2
M  END
