Coordinates from ORCA-job 4-NO2PhN2+~TsO-_B3LYPG-6-31G_dp-NX-Scan-d89-09-n800
 OpenBabel11261920283D

 33 33  0  0  0  0  0  0  0  0999 V2000
   -4.6377   -0.8244    1.2574 C   0  0  0  0  0  0  0  0  0  0  0  0
   -5.0470   -0.1059    2.3539 N   0  0  0  0  0  0  0  0  0  0  0  0
   -5.2590    0.4990    3.2777 N   0  0  0  0  0  0  0  0  0  0  0  0
   -3.2278   -0.8853    1.0894 C   0  0  0  0  0  0  0  0  0  0  0  0
   -2.7419   -1.5946    0.0127 C   0  0  0  0  0  0  0  0  0  0  0  0
   -3.6534   -2.2041   -0.8596 C   0  0  0  0  0  0  0  0  0  0  0  0
   -3.0845   -2.9353   -2.0198 N   0  0  0  0  0  0  0  0  0  0  0  0
   -1.8993   -3.2601   -1.9307 O   0  0  0  0  0  0  0  0  0  0  0  0
   -3.8260   -3.1419   -2.9658 O   0  0  0  0  0  0  0  0  0  0  0  0
   -5.0367   -2.1571   -0.7008 C   0  0  0  0  0  0  0  0  0  0  0  0
   -5.5602   -1.4499    0.3837 C   0  0  0  0  0  0  0  0  0  0  0  0
   -2.5671   -0.3901    1.7915 H   0  0  0  0  0  0  0  0  0  0  0  0
   -1.6789   -1.6950   -0.1683 H   0  0  0  0  0  0  0  0  0  0  0  0
   -5.7179   -2.7077   -1.3708 H   0  0  0  0  0  0  0  0  0  0  0  0
   -6.6436   -1.4268    0.5020 H   0  0  0  0  0  0  0  0  0  0  0  0
  -10.0181   -4.6555    0.2176 C   0  0  0  0  0  0  0  0  0  0  0  0
  -10.5556   -5.6360    1.0484 C   0  0  0  0  0  0  0  0  0  0  0  0
   -9.9637   -6.9039    1.1502 C   0  0  0  0  0  0  0  0  0  0  0  0
   -8.8111   -7.1622    0.3916 C   0  0  0  0  0  0  0  0  0  0  0  0
   -8.2650   -6.1892   -0.4424 C   0  0  0  0  0  0  0  0  0  0  0  0
   -8.8700   -4.9325   -0.5311 C   0  0  0  0  0  0  0  0  0  0  0  0
  -10.4779   -3.6751    0.1463 H   0  0  0  0  0  0  0  0  0  0  0  0
  -11.4515   -5.4191    1.6252 H   0  0  0  0  0  0  0  0  0  0  0  0
   -8.3389   -8.1403    0.4545 H   0  0  0  0  0  0  0  0  0  0  0  0
   -7.3734   -6.3828   -1.0286 H   0  0  0  0  0  0  0  0  0  0  0  0
   -8.2130   -3.6828   -1.6509 S   0  0  0  0  0  0  0  0  0  0  0  0
   -8.2171   -2.4170   -0.8348 O   0  0  0  0  0  0  0  0  0  0  0  0
   -9.1210   -3.6757   -2.8215 O   0  0  0  0  0  0  0  0  0  0  0  0
   -6.8124   -4.1279   -1.9483 O   0  0  0  0  0  0  0  0  0  0  0  0
  -10.5364   -7.9611    2.0638 C   0  0  0  0  0  0  0  0  0  0  0  0
   -9.9205   -8.0877    2.9631 H   0  0  0  0  0  0  0  0  0  0  0  0
  -11.5468   -7.7025    2.3917 H   0  0  0  0  0  0  0  0  0  0  0  0
  -10.5810   -8.9364    1.5674 H   0  0  0  0  0  0  0  0  0  0  0  0
  1  2  1  0  0  0  0
  2  3  1  0  0  0  0
  4  1  1  0  0  0  0
  4 12  1  0  0  0  0
  5  4  2  0  0  0  0
  6 10  2  0  0  0  0
  6  5  1  0  0  0  0
  7  8  2  0  0  0  0
  7  6  1  0  0  0  0
  9  7  2  0  0  0  0
 10 11  1  0  0  0  0
 11 15  1  0  0  0  0
 11  1  2  0  0  0  0
 13  5  1  0  0  0  0
 14 10  1  0  0  0  0
 16 17  2  0  0  0  0
 17 18  1  0  0  0  0
 17 23  1  0  0  0  0
 18 30  1  0  0  0  0
 19 24  1  0  0  0  0
 19 18  2  0  0  0  0
 20 19  1  0  0  0  0
 21 20  2  0  0  0  0
 21 16  1  0  0  0  0
 22 16  1  0  0  0  0
 25 20  1  0  0  0  0
 26 27  1  0  0  0  0
 26 21  1  0  0  0  0
 28 26  2  0  0  0  0
 29 26  2  0  0  0  0
 30 32  1  0  0  0  0
 30 31  1  0  0  0  0
 33 30  1  0  0  0  0
M  RAD  3   2   2   3   3  27   2
M  END
