Coordinates from ORCA-job 4-NO2PhN2+~TsO-_B3LYPG-6-31G_dp-NX-Scan-d89-09-n800
 OpenBabel11261920283D

 33 34  0  0  0  0  0  0  0  0999 V2000
   -4.4821   -2.8429    0.3108 C   0  0  0  0  0  0  0  0  0  0  0  0
   -5.0240   -3.8150    1.1961 N   0  0  0  0  0  0  0  0  0  0  0  0
   -5.7188   -4.7832    0.9517 N   0  0  0  0  0  0  0  0  0  0  0  0
   -4.2794   -1.5878    0.9067 C   0  0  0  0  0  0  0  0  0  0  0  0
   -3.7090   -0.5500    0.1805 C   0  0  0  0  0  0  0  0  0  0  0  0
   -3.3047   -0.8034   -1.1283 C   0  0  0  0  0  0  0  0  0  0  0  0
   -2.6820    0.2858   -1.9031 N   0  0  0  0  0  0  0  0  0  0  0  0
   -2.5598    1.3770   -1.3494 O   0  0  0  0  0  0  0  0  0  0  0  0
   -2.3258    0.0334   -3.0522 O   0  0  0  0  0  0  0  0  0  0  0  0
   -3.4594   -2.0523   -1.7271 C   0  0  0  0  0  0  0  0  0  0  0  0
   -4.0613   -3.0808   -1.0097 C   0  0  0  0  0  0  0  0  0  0  0  0
   -4.5800   -1.4469    1.9388 H   0  0  0  0  0  0  0  0  0  0  0  0
   -3.5558    0.4326    0.6081 H   0  0  0  0  0  0  0  0  0  0  0  0
   -3.1194   -2.2008   -2.7439 H   0  0  0  0  0  0  0  0  0  0  0  0
   -4.1994   -4.0511   -1.4642 H   0  0  0  0  0  0  0  0  0  0  0  0
   -8.5893   -6.5095    1.4274 C   0  0  0  0  0  0  0  0  0  0  0  0
   -9.7909   -6.2948    2.0991 C   0  0  0  0  0  0  0  0  0  0  0  0
  -10.8648   -5.6416    1.4774 C   0  0  0  0  0  0  0  0  0  0  0  0
  -10.7112   -5.2105    0.1504 C   0  0  0  0  0  0  0  0  0  0  0  0
   -9.5195   -5.4129   -0.5396 C   0  0  0  0  0  0  0  0  0  0  0  0
   -8.4667   -6.0601    0.1118 C   0  0  0  0  0  0  0  0  0  0  0  0
   -7.7631   -7.0247    1.9036 H   0  0  0  0  0  0  0  0  0  0  0  0
   -9.8984   -6.6466    3.1210 H   0  0  0  0  0  0  0  0  0  0  0  0
  -11.5393   -4.7166   -0.3508 H   0  0  0  0  0  0  0  0  0  0  0  0
   -9.4059   -5.0940   -1.5696 H   0  0  0  0  0  0  0  0  0  0  0  0
   -6.9429   -6.3322   -0.7659 S   0  0  0  0  0  0  0  0  0  0  0  0
   -6.2138   -7.4294   -0.1464 O   0  0  0  0  0  0  0  0  0  0  0  0
   -6.0825   -4.9094   -0.4884 O   0  0  0  0  0  0  0  0  0  0  0  0
   -7.1795   -6.2598   -2.2010 O   0  0  0  0  0  0  0  0  0  0  0  0
  -12.1537   -5.3907    2.2210 C   0  0  0  0  0  0  0  0  0  0  0  0
  -12.2708   -6.0765    3.0639 H   0  0  0  0  0  0  0  0  0  0  0  0
  -12.1795   -4.3699    2.6212 H   0  0  0  0  0  0  0  0  0  0  0  0
  -13.0218   -5.5026    1.5644 H   0  0  0  0  0  0  0  0  0  0  0  0
  1  4  1  0  0  0  0
  1  2  1  0  0  0  0
  3  2  1  0  0  0  0
  4 12  1  0  0  0  0
  5 13  1  0  0  0  0
  5  4  2  0  0  0  0
  6  5  1  0  0  0  0
  7  8  2  0  0  0  0
  7  6  1  0  0  0  0
  9  7  2  0  0  0  0
 10  6  2  0  0  0  0
 10 11  1  0  0  0  0
 11  1  2  0  0  0  0
 14 10  1  0  0  0  0
 15 11  1  0  0  0  0
 16 22  1  0  0  0  0
 16 17  2  0  0  0  0
 17 23  1  0  0  0  0
 18 17  1  0  0  0  0
 18 30  1  0  0  0  0
 19 18  2  0  0  0  0
 20 21  2  0  0  0  0
 20 19  1  0  0  0  0
 21 16  1  0  0  0  0
 24 19  1  0  0  0  0
 25 20  1  0  0  0  0
 26 28  1  0  0  0  0
 26 27  2  0  0  0  0
 26 21  1  0  0  0  0
 28  3  1  0  0  0  0
 29 26  2  0  0  0  0
 30 32  1  0  0  0  0
 30 31  1  0  0  0  0
 33 30  1  0  0  0  0
M  RAD  2   2   2   3   2
M  END
