Coordinates from ORCA-job 4-NO2PhN2+~TsO-_B3LYPG-6-31G_dp-NX-Scan-d89-09-n800
 OpenBabel11261920283D

 33 33  0  0  0  0  0  0  0  0999 V2000
   -4.9662   -0.9191    1.0702 C   0  0  0  0  0  0  0  0  0  0  0  0
   -4.9042    0.3792    1.4950 N   0  0  0  0  0  0  0  0  0  0  0  0
   -4.7971    1.4360    1.8658 N   0  0  0  0  0  0  0  0  0  0  0  0
   -4.1838   -1.8605    1.7874 C   0  0  0  0  0  0  0  0  0  0  0  0
   -4.2139   -3.1717    1.3588 C   0  0  0  0  0  0  0  0  0  0  0  0
   -4.9955   -3.5078    0.2452 C   0  0  0  0  0  0  0  0  0  0  0  0
   -4.9820   -4.9203   -0.1903 N   0  0  0  0  0  0  0  0  0  0  0  0
   -4.5561   -5.7459    0.6208 O   0  0  0  0  0  0  0  0  0  0  0  0
   -5.3748   -5.1546   -1.3241 O   0  0  0  0  0  0  0  0  0  0  0  0
   -5.7673   -2.5868   -0.4665 C   0  0  0  0  0  0  0  0  0  0  0  0
   -5.7660   -1.2621   -0.0453 C   0  0  0  0  0  0  0  0  0  0  0  0
   -3.5887   -1.5510    2.6388 H   0  0  0  0  0  0  0  0  0  0  0  0
   -3.6527   -3.9457    1.8668 H   0  0  0  0  0  0  0  0  0  0  0  0
   -6.3901   -2.8513   -1.3377 H   0  0  0  0  0  0  0  0  0  0  0  0
   -6.3681   -0.5294   -0.5727 H   0  0  0  0  0  0  0  0  0  0  0  0
   -9.0736   -4.0038    0.2980 C   0  0  0  0  0  0  0  0  0  0  0  0
   -8.7999   -5.0269    1.2055 C   0  0  0  0  0  0  0  0  0  0  0  0
   -8.3915   -6.2991    0.7667 C   0  0  0  0  0  0  0  0  0  0  0  0
   -8.2893   -6.5248   -0.6150 C   0  0  0  0  0  0  0  0  0  0  0  0
   -8.5512   -5.5088   -1.5285 C   0  0  0  0  0  0  0  0  0  0  0  0
   -8.9307   -4.2346   -1.0717 C   0  0  0  0  0  0  0  0  0  0  0  0
   -9.4072   -3.0250    0.6268 H   0  0  0  0  0  0  0  0  0  0  0  0
   -8.9115   -4.8456    2.2727 H   0  0  0  0  0  0  0  0  0  0  0  0
   -7.9903   -7.5059   -0.9749 H   0  0  0  0  0  0  0  0  0  0  0  0
   -8.4743   -5.6841   -2.5965 H   0  0  0  0  0  0  0  0  0  0  0  0
   -9.1279   -2.8847   -2.2564 S   0  0  0  0  0  0  0  0  0  0  0  0
   -9.7692   -1.7897   -1.4915 O   0  0  0  0  0  0  0  0  0  0  0  0
   -9.9022   -3.4712   -3.3756 O   0  0  0  0  0  0  0  0  0  0  0  0
   -7.6963   -2.5712   -2.6259 O   0  0  0  0  0  0  0  0  0  0  0  0
   -8.0357   -7.3853    1.7507 C   0  0  0  0  0  0  0  0  0  0  0  0
   -6.9462   -7.4583    1.8677 H   0  0  0  0  0  0  0  0  0  0  0  0
   -8.4634   -7.1925    2.7386 H   0  0  0  0  0  0  0  0  0  0  0  0
   -8.3876   -8.3648    1.4116 H   0  0  0  0  0  0  0  0  0  0  0  0
  1  2  1  0  0  0  0
  1  4  2  0  0  0  0
  2  3  1  0  0  0  0
  4 12  1  0  0  0  0
  5  4  1  0  0  0  0
  5 13  1  0  0  0  0
  6  5  2  0  0  0  0
  7  6  1  0  0  0  0
  7  8  2  0  0  0  0
  9  7  2  0  0  0  0
 10 11  2  0  0  0  0
 10  6  1  0  0  0  0
 11  1  1  0  0  0  0
 14 10  1  0  0  0  0
 15 11  1  0  0  0  0
 16 22  1  0  0  0  0
 16 17  2  0  0  0  0
 17 23  1  0  0  0  0
 18 17  1  0  0  0  0
 18 30  1  0  0  0  0
 19 18  2  0  0  0  0
 20 21  2  0  0  0  0
 20 19  1  0  0  0  0
 21 16  1  0  0  0  0
 24 19  1  0  0  0  0
 25 20  1  0  0  0  0
 26 27  1  0  0  0  0
 26 21  1  0  0  0  0
 28 26  2  0  0  0  0
 29 26  2  0  0  0  0
 30 31  1  0  0  0  0
 30 32  1  0  0  0  0
 33 30  1  0  0  0  0
M  RAD  3   2   2   3   3  27   2
M  END
