Coordinates from ORCA-job 4-NO2PhN2+~TsO-_B3LYPG-6-31G_dp-NX-Scan-d89-09-n800
 OpenBabel11261920283D

 33 33  0  0  0  0  0  0  0  0999 V2000
   -4.6211   -0.8160    1.2759 C   0  0  0  0  0  0  0  0  0  0  0  0
   -5.0117   -0.0951    2.3777 N   0  0  0  0  0  0  0  0  0  0  0  0
   -5.2049    0.5120    3.3047 N   0  0  0  0  0  0  0  0  0  0  0  0
   -3.2139   -0.8920    1.0938 C   0  0  0  0  0  0  0  0  0  0  0  0
   -2.7463   -1.6030    0.0100 C   0  0  0  0  0  0  0  0  0  0  0  0
   -3.6721   -2.1980   -0.8567 C   0  0  0  0  0  0  0  0  0  0  0  0
   -3.1221   -2.9265   -2.0268 N   0  0  0  0  0  0  0  0  0  0  0  0
   -1.9480   -3.2898   -1.9385 O   0  0  0  0  0  0  0  0  0  0  0  0
   -3.8656   -3.0910   -2.9793 O   0  0  0  0  0  0  0  0  0  0  0  0
   -5.0539   -2.1377   -0.6843 C   0  0  0  0  0  0  0  0  0  0  0  0
   -5.5582   -1.4304    0.4085 C   0  0  0  0  0  0  0  0  0  0  0  0
   -2.5411   -0.4063    1.7910 H   0  0  0  0  0  0  0  0  0  0  0  0
   -1.6861   -1.7149   -0.1808 H   0  0  0  0  0  0  0  0  0  0  0  0
   -5.7432   -2.6811   -1.3514 H   0  0  0  0  0  0  0  0  0  0  0  0
   -6.6385   -1.3934    0.5425 H   0  0  0  0  0  0  0  0  0  0  0  0
  -10.0239   -4.6669    0.1901 C   0  0  0  0  0  0  0  0  0  0  0  0
  -10.5626   -5.6418    1.0267 C   0  0  0  0  0  0  0  0  0  0  0  0
   -9.9626   -6.9040    1.1492 C   0  0  0  0  0  0  0  0  0  0  0  0
   -8.8002   -7.1624    0.4054 C   0  0  0  0  0  0  0  0  0  0  0  0
   -8.2529   -6.1952   -0.4341 C   0  0  0  0  0  0  0  0  0  0  0  0
   -8.8660   -4.9439   -0.5438 C   0  0  0  0  0  0  0  0  0  0  0  0
  -10.4898   -3.6907    0.1029 H   0  0  0  0  0  0  0  0  0  0  0  0
  -11.4659   -5.4248    1.5919 H   0  0  0  0  0  0  0  0  0  0  0  0
   -8.3214   -8.1361    0.4847 H   0  0  0  0  0  0  0  0  0  0  0  0
   -7.3536   -6.3887   -1.0086 H   0  0  0  0  0  0  0  0  0  0  0  0
   -8.2068   -3.7020   -1.6711 S   0  0  0  0  0  0  0  0  0  0  0  0
   -8.2369   -2.4253   -0.8748 O   0  0  0  0  0  0  0  0  0  0  0  0
   -9.0983   -3.7253   -2.8550 O   0  0  0  0  0  0  0  0  0  0  0  0
   -6.7968   -4.1352   -1.9413 O   0  0  0  0  0  0  0  0  0  0  0  0
  -10.5374   -7.9555    2.0679 C   0  0  0  0  0  0  0  0  0  0  0  0
   -9.9196   -8.0818    2.9660 H   0  0  0  0  0  0  0  0  0  0  0  0
  -11.5459   -7.6919    2.3972 H   0  0  0  0  0  0  0  0  0  0  0  0
  -10.5871   -8.9324    1.5750 H   0  0  0  0  0  0  0  0  0  0  0  0
  1  2  1  0  0  0  0
  2  3  1  0  0  0  0
  4  1  1  0  0  0  0
  4 12  1  0  0  0  0
  5  4  2  0  0  0  0
  6 10  2  0  0  0  0
  6  5  1  0  0  0  0
  7  8  2  0  0  0  0
  7  6  1  0  0  0  0
  9  7  2  0  0  0  0
 10 11  1  0  0  0  0
 11 15  1  0  0  0  0
 11  1  2  0  0  0  0
 13  5  1  0  0  0  0
 14 10  1  0  0  0  0
 16 17  2  0  0  0  0
 17 18  1  0  0  0  0
 17 23  1  0  0  0  0
 18 30  1  0  0  0  0
 19 24  1  0  0  0  0
 19 18  2  0  0  0  0
 20 19  1  0  0  0  0
 21 20  2  0  0  0  0
 21 16  1  0  0  0  0
 22 16  1  0  0  0  0
 25 20  1  0  0  0  0
 26 27  1  0  0  0  0
 26 21  1  0  0  0  0
 28 26  2  0  0  0  0
 29 26  2  0  0  0  0
 30 32  1  0  0  0  0
 30 31  1  0  0  0  0
 33 30  1  0  0  0  0
M  RAD  3   2   2   3   3  27   2
M  END
