Coordinates from ORCA-job 4-NO2PhN2+~TsO-_B3LYPG-6-31G_dp-NX-Scan-d89-09-n800
 OpenBabel11261920283D

 33 34  0  0  0  0  0  0  0  0999 V2000
   -4.4850   -2.9280    0.3140 C   0  0  0  0  0  0  0  0  0  0  0  0
   -4.9931   -3.9290    1.1966 N   0  0  0  0  0  0  0  0  0  0  0  0
   -5.6997   -4.8844    0.8308 N   0  0  0  0  0  0  0  0  0  0  0  0
   -4.4878   -1.6272    0.8423 C   0  0  0  0  0  0  0  0  0  0  0  0
   -3.9468   -0.5713    0.1199 C   0  0  0  0  0  0  0  0  0  0  0  0
   -3.3625   -0.8410   -1.1165 C   0  0  0  0  0  0  0  0  0  0  0  0
   -2.7735    0.2673   -1.8830 N   0  0  0  0  0  0  0  0  0  0  0  0
   -2.8363    1.3949   -1.3937 O   0  0  0  0  0  0  0  0  0  0  0  0
   -2.2551    0.0000   -2.9663 O   0  0  0  0  0  0  0  0  0  0  0  0
   -3.3108   -2.1304   -1.6443 C   0  0  0  0  0  0  0  0  0  0  0  0
   -3.8820   -3.1783   -0.9311 C   0  0  0  0  0  0  0  0  0  0  0  0
   -4.9208   -1.4653    1.8231 H   0  0  0  0  0  0  0  0  0  0  0  0
   -3.9526    0.4431    0.4987 H   0  0  0  0  0  0  0  0  0  0  0  0
   -2.8384   -2.2932   -2.6044 H   0  0  0  0  0  0  0  0  0  0  0  0
   -3.8552   -4.1811   -1.3367 H   0  0  0  0  0  0  0  0  0  0  0  0
   -8.5684   -6.5183    1.3813 C   0  0  0  0  0  0  0  0  0  0  0  0
   -9.7491   -6.2892    2.0835 C   0  0  0  0  0  0  0  0  0  0  0  0
  -10.8166   -5.5881    1.5034 C   0  0  0  0  0  0  0  0  0  0  0  0
  -10.6791   -5.1204    0.1865 C   0  0  0  0  0  0  0  0  0  0  0  0
   -9.5090   -5.3336   -0.5352 C   0  0  0  0  0  0  0  0  0  0  0  0
   -8.4647   -6.0335    0.0759 C   0  0  0  0  0  0  0  0  0  0  0  0
   -7.7462   -7.0663    1.8263 H   0  0  0  0  0  0  0  0  0  0  0  0
   -9.8443   -6.6653    3.0977 H   0  0  0  0  0  0  0  0  0  0  0  0
  -11.5025   -4.5873   -0.2807 H   0  0  0  0  0  0  0  0  0  0  0  0
   -9.4059   -4.9825   -1.5556 H   0  0  0  0  0  0  0  0  0  0  0  0
   -6.9750   -6.3204   -0.8413 S   0  0  0  0  0  0  0  0  0  0  0  0
   -6.2656   -7.4716   -0.3102 O   0  0  0  0  0  0  0  0  0  0  0  0
   -6.0168   -4.9109   -0.4405 O   0  0  0  0  0  0  0  0  0  0  0  0
   -7.1930   -6.0990   -2.2602 O   0  0  0  0  0  0  0  0  0  0  0  0
  -12.0819   -5.3233    2.2807 C   0  0  0  0  0  0  0  0  0  0  0  0
  -12.1884   -6.0121    3.1222 H   0  0  0  0  0  0  0  0  0  0  0  0
  -12.0810   -4.3043    2.6863 H   0  0  0  0  0  0  0  0  0  0  0  0
  -12.9675   -5.4171    1.6449 H   0  0  0  0  0  0  0  0  0  0  0  0
  1  4  1  0  0  0  0
  1  2  1  0  0  0  0
  3  2  2  0  0  0  0
  4 12  1  0  0  0  0
  5 13  1  0  0  0  0
  5  4  2  0  0  0  0
  6  5  1  0  0  0  0
  7  8  2  0  0  0  0
  7  6  1  0  0  0  0
  9  7  2  0  0  0  0
 10  6  2  0  0  0  0
 10 11  1  0  0  0  0
 11  1  2  0  0  0  0
 14 10  1  0  0  0  0
 15 11  1  0  0  0  0
 16 22  1  0  0  0  0
 16 17  2  0  0  0  0
 17 23  1  0  0  0  0
 18 17  1  0  0  0  0
 18 30  1  0  0  0  0
 19 18  2  0  0  0  0
 20 21  2  0  0  0  0
 20 19  1  0  0  0  0
 21 16  1  0  0  0  0
 24 19  1  0  0  0  0
 25 20  1  0  0  0  0
 26 28  1  0  0  0  0
 26 27  2  0  0  0  0
 26 21  1  0  0  0  0
 28  3  1  0  0  0  0
 29 26  2  0  0  0  0
 30 32  1  0  0  0  0
 30 31  1  0  0  0  0
 33 30  1  0  0  0  0
M  END
