Coordinates from ORCA-job 4-NO2PhN2+~TsO-_B3LYPG-6-31G_dp-NX-Scan-d89-09-n800
 OpenBabel11261920283D

 33 33  0  0  0  0  0  0  0  0999 V2000
   -4.5161   -1.7553    0.4773 C   0  0  0  0  0  0  0  0  0  0  0  0
   -5.3546   -1.5840    1.5773 N   0  0  0  0  0  0  0  0  0  0  0  0
   -5.9547   -1.2935    2.4748 N   0  0  0  0  0  0  0  0  0  0  0  0
   -3.1356   -1.6756    0.7198 C   0  0  0  0  0  0  0  0  0  0  0  0
   -2.2786   -1.8081   -0.3630 C   0  0  0  0  0  0  0  0  0  0  0  0
   -2.8320   -1.9965   -1.6298 C   0  0  0  0  0  0  0  0  0  0  0  0
   -1.9095   -2.1265   -2.7829 N   0  0  0  0  0  0  0  0  0  0  0  0
   -0.7060   -2.0653   -2.5460 O   0  0  0  0  0  0  0  0  0  0  0  0
   -2.4132   -2.2819   -3.8900 O   0  0  0  0  0  0  0  0  0  0  0  0
   -4.2040   -2.0663   -1.8612 C   0  0  0  0  0  0  0  0  0  0  0  0
   -5.0843   -1.9597   -0.7886 C   0  0  0  0  0  0  0  0  0  0  0  0
   -2.7567   -1.5207    1.7234 H   0  0  0  0  0  0  0  0  0  0  0  0
   -1.2033   -1.7638   -0.2464 H   0  0  0  0  0  0  0  0  0  0  0  0
   -4.5705   -2.2193   -2.8683 H   0  0  0  0  0  0  0  0  0  0  0  0
   -6.1665   -2.0383   -0.9032 H   0  0  0  0  0  0  0  0  0  0  0  0
   -9.2912   -5.2347    2.0954 C   0  0  0  0  0  0  0  0  0  0  0  0
  -10.1310   -6.3447    2.1054 C   0  0  0  0  0  0  0  0  0  0  0  0
  -10.7046   -6.8312    0.9204 C   0  0  0  0  0  0  0  0  0  0  0  0
  -10.4119   -6.1716   -0.2803 C   0  0  0  0  0  0  0  0  0  0  0  0
   -9.5731   -5.0577   -0.3054 C   0  0  0  0  0  0  0  0  0  0  0  0
   -9.0122   -4.5950    0.8847 C   0  0  0  0  0  0  0  0  0  0  0  0
   -8.8635   -4.8520    3.0156 H   0  0  0  0  0  0  0  0  0  0  0  0
  -10.3502   -6.8410    3.0477 H   0  0  0  0  0  0  0  0  0  0  0  0
  -10.8501   -6.5318   -1.2075 H   0  0  0  0  0  0  0  0  0  0  0  0
   -9.3573   -4.5367   -1.2317 H   0  0  0  0  0  0  0  0  0  0  0  0
   -7.8919   -3.1986    0.8606 S   0  0  0  0  0  0  0  0  0  0  0  0
   -6.4925   -3.7551    0.9014 O   0  0  0  0  0  0  0  0  0  0  0  0
   -8.1760   -2.4047    2.0987 O   0  0  0  0  0  0  0  0  0  0  0  0
   -8.1486   -2.4636   -0.4106 O   0  0  0  0  0  0  0  0  0  0  0  0
  -11.6401   -8.0166    0.9485 C   0  0  0  0  0  0  0  0  0  0  0  0
  -11.2968   -8.7808    1.6532 H   0  0  0  0  0  0  0  0  0  0  0  0
  -12.6477   -7.7172    1.2634 H   0  0  0  0  0  0  0  0  0  0  0  0
  -11.7304   -8.4794   -0.0382 H   0  0  0  0  0  0  0  0  0  0  0  0
  1  4  1  0  0  0  0
  1  2  1  0  0  0  0
  2  3  1  0  0  0  0
  4 12  1  0  0  0  0
  5 13  1  0  0  0  0
  5  4  2  0  0  0  0
  6  5  1  0  0  0  0
  7  8  2  0  0  0  0
  7  6  1  0  0  0  0
  9  7  2  0  0  0  0
 10  6  2  0  0  0  0
 10 11  1  0  0  0  0
 11  1  2  0  0  0  0
 14 10  1  0  0  0  0
 15 11  1  0  0  0  0
 16 17  1  0  0  0  0
 16 22  1  0  0  0  0
 17 23  1  0  0  0  0
 18 30  1  0  0  0  0
 18 17  2  0  0  0  0
 19 18  1  0  0  0  0
 20 19  2  0  0  0  0
 20 21  1  0  0  0  0
 21 16  2  0  0  0  0
 24 19  1  0  0  0  0
 25 20  1  0  0  0  0
 26 21  1  0  0  0  0
 26 27  2  0  0  0  0
 26 28  1  0  0  0  0
 29 26  2  0  0  0  0
 30 32  1  0  0  0  0
 30 31  1  0  0  0  0
 33 30  1  0  0  0  0
M  RAD  3   2   2   3   3  28   2
M  END
