Coordinates from ORCA-job 4-NO2PhN2+~TsO-_B3LYPG-6-31G_dp-NX-Scan-d89-09-n800
 OpenBabel11261920283D

 33 33  0  0  0  0  0  0  0  0999 V2000
   -4.7512   -2.5874    0.2891 C   0  0  0  0  0  0  0  0  0  0  0  0
   -5.7393   -3.2844    1.0495 N   0  0  0  0  0  0  0  0  0  0  0  0
   -6.0143   -3.7760    2.0253 N   0  0  0  0  0  0  0  0  0  0  0  0
   -4.0400   -1.5958    0.9749 C   0  0  0  0  0  0  0  0  0  0  0  0
   -3.0376   -0.9242    0.2848 C   0  0  0  0  0  0  0  0  0  0  0  0
   -2.7825   -1.2827   -1.0375 C   0  0  0  0  0  0  0  0  0  0  0  0
   -1.7039   -0.5706   -1.7608 N   0  0  0  0  0  0  0  0  0  0  0  0
   -1.1044    0.3093   -1.1485 O   0  0  0  0  0  0  0  0  0  0  0  0
   -1.4837   -0.9121   -2.9182 O   0  0  0  0  0  0  0  0  0  0  0  0
   -3.4940   -2.2782   -1.7048 C   0  0  0  0  0  0  0  0  0  0  0  0
   -4.5181   -2.9450   -1.0381 C   0  0  0  0  0  0  0  0  0  0  0  0
   -4.2728   -1.3549    2.0054 H   0  0  0  0  0  0  0  0  0  0  0  0
   -2.4562   -0.1394    0.7513 H   0  0  0  0  0  0  0  0  0  0  0  0
   -3.2520   -2.5122   -2.7334 H   0  0  0  0  0  0  0  0  0  0  0  0
   -5.1242   -3.7196   -1.5056 H   0  0  0  0  0  0  0  0  0  0  0  0
   -9.7538   -4.3349    0.8218 C   0  0  0  0  0  0  0  0  0  0  0  0
  -10.6137   -5.0816    1.6250 C   0  0  0  0  0  0  0  0  0  0  0  0
  -10.6751   -6.4787    1.5201 C   0  0  0  0  0  0  0  0  0  0  0  0
   -9.8380   -7.1128    0.5911 C   0  0  0  0  0  0  0  0  0  0  0  0
   -8.9714   -6.3797   -0.2181 C   0  0  0  0  0  0  0  0  0  0  0  0
   -8.9321   -4.9895   -0.0989 C   0  0  0  0  0  0  0  0  0  0  0  0
   -9.7069   -3.2546    0.9129 H   0  0  0  0  0  0  0  0  0  0  0  0
  -11.2475   -4.5717    2.3463 H   0  0  0  0  0  0  0  0  0  0  0  0
   -9.8636   -8.1964    0.5012 H   0  0  0  0  0  0  0  0  0  0  0  0
   -8.3167   -6.8727   -0.9284 H   0  0  0  0  0  0  0  0  0  0  0  0
   -7.8667   -4.0395   -1.1872 S   0  0  0  0  0  0  0  0  0  0  0  0
   -7.3398   -2.8941   -0.2908 O   0  0  0  0  0  0  0  0  0  0  0  0
   -8.6850   -3.4932   -2.2811 O   0  0  0  0  0  0  0  0  0  0  0  0
   -6.7526   -4.9484   -1.5631 O   0  0  0  0  0  0  0  0  0  0  0  0
  -11.6356   -7.2783    2.3689 C   0  0  0  0  0  0  0  0  0  0  0  0
  -11.8627   -6.7670    3.3088 H   0  0  0  0  0  0  0  0  0  0  0  0
  -12.5866   -7.4340    1.8446 H   0  0  0  0  0  0  0  0  0  0  0  0
  -11.2328   -8.2668    2.6083 H   0  0  0  0  0  0  0  0  0  0  0  0
  1  4  2  0  0  0  0
  1  2  1  0  0  0  0
  2  3  2  0  0  0  0
  4 12  1  0  0  0  0
  5 13  1  0  0  0  0
  5  4  1  0  0  0  0
  6  5  2  0  0  0  0
  7  8  2  0  0  0  0
  7  6  1  0  0  0  0
  9  7  2  0  0  0  0
 10 11  2  0  0  0  0
 10  6  1  0  0  0  0
 11  1  1  0  0  0  0
 14 10  1  0  0  0  0
 15 11  1  0  0  0  0
 16 22  1  0  0  0  0
 16 17  2  0  0  0  0
 17 23  1  0  0  0  0
 18 17  1  0  0  0  0
 18 30  1  0  0  0  0
 19 18  2  0  0  0  0
 20 21  2  0  0  0  0
 20 19  1  0  0  0  0
 21 16  1  0  0  0  0
 24 19  1  0  0  0  0
 25 20  1  0  0  0  0
 26 27  1  0  0  0  0
 26 21  1  0  0  0  0
 28 26  2  0  0  0  0
 29 26  2  0  0  0  0
 30 33  1  0  0  0  0
 30 31  1  0  0  0  0
 32 30  1  0  0  0  0
M  RAD  2   3   2  27   2
M  END
