Coordinates from ORCA-job 4-NO2PhN2+~TsO-_B3LYPG-6-31G_dp-NX-Scan-d89-09-n800
 OpenBabel11261920283D

 33 33  0  0  0  0  0  0  0  0999 V2000
   -4.6403   -0.8392    1.0498 C   0  0  0  0  0  0  0  0  0  0  0  0
   -5.2456   -0.1764    2.0891 N   0  0  0  0  0  0  0  0  0  0  0  0
   -5.6740    0.3782    2.9635 N   0  0  0  0  0  0  0  0  0  0  0  0
   -3.2354   -0.6641    0.9392 C   0  0  0  0  0  0  0  0  0  0  0  0
   -2.5971   -1.3260   -0.0868 C   0  0  0  0  0  0  0  0  0  0  0  0
   -3.3569   -2.1362   -0.9459 C   0  0  0  0  0  0  0  0  0  0  0  0
   -2.6254   -2.8439   -2.0312 N   0  0  0  0  0  0  0  0  0  0  0  0
   -1.4068   -2.6750   -2.0737 O   0  0  0  0  0  0  0  0  0  0  0  0
   -3.2846   -3.5333   -2.7934 O   0  0  0  0  0  0  0  0  0  0  0  0
   -4.7308   -2.3104   -0.8332 C   0  0  0  0  0  0  0  0  0  0  0  0
   -5.4158   -1.6371    0.1843 C   0  0  0  0  0  0  0  0  0  0  0  0
   -2.6949   -0.0362    1.6383 H   0  0  0  0  0  0  0  0  0  0  0  0
   -1.5287   -1.2415   -0.2400 H   0  0  0  0  0  0  0  0  0  0  0  0
   -5.3198   -2.9698   -1.4837 H   0  0  0  0  0  0  0  0  0  0  0  0
   -6.5107   -1.7783    0.2471 H   0  0  0  0  0  0  0  0  0  0  0  0
  -10.0450   -4.6442    0.5063 C   0  0  0  0  0  0  0  0  0  0  0  0
  -10.6363   -5.6786    1.2273 C   0  0  0  0  0  0  0  0  0  0  0  0
  -10.1467   -6.9910    1.1465 C   0  0  0  0  0  0  0  0  0  0  0  0
   -9.0426   -7.2378    0.3174 C   0  0  0  0  0  0  0  0  0  0  0  0
   -8.4423   -6.2107   -0.4087 C   0  0  0  0  0  0  0  0  0  0  0  0
   -8.9453   -4.9114   -0.3147 C   0  0  0  0  0  0  0  0  0  0  0  0
  -10.4254   -3.6304    0.5763 H   0  0  0  0  0  0  0  0  0  0  0  0
  -11.4949   -5.4684    1.8609 H   0  0  0  0  0  0  0  0  0  0  0  0
   -8.6507   -8.2495    0.2381 H   0  0  0  0  0  0  0  0  0  0  0  0
   -7.5871   -6.3972   -1.0491 H   0  0  0  0  0  0  0  0  0  0  0  0
   -8.2270   -3.5868   -1.3012 S   0  0  0  0  0  0  0  0  0  0  0  0
   -8.1311   -2.4273   -0.3347 O   0  0  0  0  0  0  0  0  0  0  0  0
   -9.1563   -3.3473   -2.4239 O   0  0  0  0  0  0  0  0  0  0  0  0
   -6.8745   -4.0903   -1.6958 O   0  0  0  0  0  0  0  0  0  0  0  0
  -10.7746   -8.1054    1.9497 C   0  0  0  0  0  0  0  0  0  0  0  0
  -10.2203   -8.2877    2.8791 H   0  0  0  0  0  0  0  0  0  0  0  0
  -11.8054   -7.8674    2.2273 H   0  0  0  0  0  0  0  0  0  0  0  0
  -10.7824   -9.0464    1.3904 H   0  0  0  0  0  0  0  0  0  0  0  0
  1  2  1  0  0  0  0
  2  3  1  0  0  0  0
  4  1  1  0  0  0  0
  4 12  1  0  0  0  0
  5  4  2  0  0  0  0
  6 10  2  0  0  0  0
  6  5  1  0  0  0  0
  7  6  1  0  0  0  0
  8  7  2  0  0  0  0
  9  7  2  0  0  0  0
 10 11  1  0  0  0  0
 11 15  1  0  0  0  0
 11  1  2  0  0  0  0
 13  5  1  0  0  0  0
 14 10  1  0  0  0  0
 16 22  1  0  0  0  0
 16 17  2  0  0  0  0
 17 23  1  0  0  0  0
 18 17  1  0  0  0  0
 18 30  1  0  0  0  0
 19 18  2  0  0  0  0
 20 21  2  0  0  0  0
 20 19  1  0  0  0  0
 21 16  1  0  0  0  0
 24 19  1  0  0  0  0
 25 20  1  0  0  0  0
 26 27  1  0  0  0  0
 26 21  1  0  0  0  0
 28 26  2  0  0  0  0
 29 26  2  0  0  0  0
 30 32  1  0  0  0  0
 30 31  1  0  0  0  0
 33 30  1  0  0  0  0
M  RAD  3   2   2   3   3  27   2
M  END
