Coordinates from ORCA-job 4-NO2PhN2+~TsO-_B3LYPG-6-31G_dp-NX-Scan-d89-09-n800
 OpenBabel11261920283D

 33 33  0  0  0  0  0  0  0  0999 V2000
   -4.5045   -1.6791    0.4695 C   0  0  0  0  0  0  0  0  0  0  0  0
   -5.3692   -1.5011    1.5419 N   0  0  0  0  0  0  0  0  0  0  0  0
   -6.0996   -1.3210    2.3735 N   0  0  0  0  0  0  0  0  0  0  0  0
   -3.1317   -1.5354    0.7303 C   0  0  0  0  0  0  0  0  0  0  0  0
   -2.2485   -1.6871   -0.3278 C   0  0  0  0  0  0  0  0  0  0  0  0
   -2.7692   -1.9567   -1.5943 C   0  0  0  0  0  0  0  0  0  0  0  0
   -1.8196   -2.1059   -2.7229 N   0  0  0  0  0  0  0  0  0  0  0  0
   -0.6240   -1.9907   -2.4668 O   0  0  0  0  0  0  0  0  0  0  0  0
   -2.2950   -2.3300   -3.8308 O   0  0  0  0  0  0  0  0  0  0  0  0
   -4.1323   -2.0883   -1.8474 C   0  0  0  0  0  0  0  0  0  0  0  0
   -5.0381   -1.9613   -0.7982 C   0  0  0  0  0  0  0  0  0  0  0  0
   -2.7796   -1.3179    1.7320 H   0  0  0  0  0  0  0  0  0  0  0  0
   -1.1783   -1.5962   -0.1943 H   0  0  0  0  0  0  0  0  0  0  0  0
   -4.4728   -2.3028   -2.8523 H   0  0  0  0  0  0  0  0  0  0  0  0
   -6.1133   -2.0816   -0.9359 H   0  0  0  0  0  0  0  0  0  0  0  0
   -9.1807   -5.3569    2.0411 C   0  0  0  0  0  0  0  0  0  0  0  0
  -10.0633   -6.4315    2.0872 C   0  0  0  0  0  0  0  0  0  0  0  0
  -10.7771   -6.8342    0.9468 C   0  0  0  0  0  0  0  0  0  0  0  0
  -10.5804   -6.1266   -0.2453 C   0  0  0  0  0  0  0  0  0  0  0  0
   -9.6994   -5.0460   -0.3065 C   0  0  0  0  0  0  0  0  0  0  0  0
   -8.9997   -4.6680    0.8382 C   0  0  0  0  0  0  0  0  0  0  0  0
   -8.6430   -5.0425    2.9290 H   0  0  0  0  0  0  0  0  0  0  0  0
  -10.2053   -6.9668    3.0230 H   0  0  0  0  0  0  0  0  0  0  0  0
  -11.1255   -6.4227   -1.1378 H   0  0  0  0  0  0  0  0  0  0  0  0
   -9.5528   -4.4893   -1.2255 H   0  0  0  0  0  0  0  0  0  0  0  0
   -7.8287   -3.3153    0.7601 S   0  0  0  0  0  0  0  0  0  0  0  0
   -6.4501   -3.8943    0.8176 O   0  0  0  0  0  0  0  0  0  0  0  0
   -8.0989   -2.4772    1.9864 O   0  0  0  0  0  0  0  0  0  0  0  0
   -8.0871   -2.5933   -0.5176 O   0  0  0  0  0  0  0  0  0  0  0  0
  -11.7515   -7.9860    1.0177 C   0  0  0  0  0  0  0  0  0  0  0  0
  -11.3348   -8.8285    1.5795 H   0  0  0  0  0  0  0  0  0  0  0  0
  -12.6787   -7.6893    1.5233 H   0  0  0  0  0  0  0  0  0  0  0  0
  -12.0217   -8.3439    0.0208 H   0  0  0  0  0  0  0  0  0  0  0  0
  1  4  1  0  0  0  0
  1  2  1  0  0  0  0
  2  3  1  0  0  0  0
  4 12  1  0  0  0  0
  5 13  1  0  0  0  0
  5  4  2  0  0  0  0
  6  5  1  0  0  0  0
  7  8  2  0  0  0  0
  7  6  1  0  0  0  0
  9  7  2  0  0  0  0
 10  6  2  0  0  0  0
 10 11  1  0  0  0  0
 11  1  2  0  0  0  0
 14 10  1  0  0  0  0
 15 11  1  0  0  0  0
 16 17  1  0  0  0  0
 16 22  1  0  0  0  0
 17 23  1  0  0  0  0
 18 30  1  0  0  0  0
 18 17  2  0  0  0  0
 19 18  1  0  0  0  0
 20 19  2  0  0  0  0
 20 21  1  0  0  0  0
 21 16  2  0  0  0  0
 24 19  1  0  0  0  0
 25 20  1  0  0  0  0
 26 27  2  0  0  0  0
 26 21  1  0  0  0  0
 26 28  1  0  0  0  0
 29 26  2  0  0  0  0
 30 32  1  0  0  0  0
 30 31  1  0  0  0  0
 33 30  1  0  0  0  0
M  RAD  3   2   2   3   3  28   2
M  END
