Coordinates from ORCA-job 4-NO2PhN2+~TsO-_B3LYPG-6-31G_dp-NX-Scan-d89-09-n800
 OpenBabel11261920283D

 33 33  0  0  0  0  0  0  0  0999 V2000
   -4.5039   -1.6919    0.4767 C   0  0  0  0  0  0  0  0  0  0  0  0
   -5.3559   -1.5116    1.5595 N   0  0  0  0  0  0  0  0  0  0  0  0
   -6.0555   -1.3083    2.4103 N   0  0  0  0  0  0  0  0  0  0  0  0
   -3.1269   -1.5698    0.7260 C   0  0  0  0  0  0  0  0  0  0  0  0
   -2.2567   -1.7228   -0.3427 C   0  0  0  0  0  0  0  0  0  0  0  0
   -2.7939   -1.9721   -1.6065 C   0  0  0  0  0  0  0  0  0  0  0  0
   -1.8575   -2.1229   -2.7461 N   0  0  0  0  0  0  0  0  0  0  0  0
   -0.6580   -2.0276   -2.5006 O   0  0  0  0  0  0  0  0  0  0  0  0
   -2.3470   -2.3289   -3.8513 O   0  0  0  0  0  0  0  0  0  0  0  0
   -4.1612   -2.0826   -1.8472 C   0  0  0  0  0  0  0  0  0  0  0  0
   -5.0546   -1.9543   -0.7876 C   0  0  0  0  0  0  0  0  0  0  0  0
   -2.7617   -1.3679    1.7263 H   0  0  0  0  0  0  0  0  0  0  0  0
   -1.1840   -1.6483   -0.2191 H   0  0  0  0  0  0  0  0  0  0  0  0
   -4.5145   -2.2821   -2.8508 H   0  0  0  0  0  0  0  0  0  0  0  0
   -6.1331   -2.0599   -0.9133 H   0  0  0  0  0  0  0  0  0  0  0  0
   -9.2199   -5.3167    2.0622 C   0  0  0  0  0  0  0  0  0  0  0  0
  -10.0901   -6.4022    2.0937 C   0  0  0  0  0  0  0  0  0  0  0  0
  -10.7539   -6.8342    0.9344 C   0  0  0  0  0  0  0  0  0  0  0  0
  -10.5201   -6.1449   -0.2619 C   0  0  0  0  0  0  0  0  0  0  0  0
   -9.6514   -5.0542   -0.3086 C   0  0  0  0  0  0  0  0  0  0  0  0
   -9.0011   -4.6465    0.8552 C   0  0  0  0  0  0  0  0  0  0  0  0
   -8.7217   -4.9780    2.9640 H   0  0  0  0  0  0  0  0  0  0  0  0
  -10.2619   -6.9224    3.0330 H   0  0  0  0  0  0  0  0  0  0  0  0
  -11.0272   -6.4634   -1.1690 H   0  0  0  0  0  0  0  0  0  0  0  0
   -9.4783   -4.5109   -1.2310 H   0  0  0  0  0  0  0  0  0  0  0  0
   -7.8427   -3.2820    0.7973 S   0  0  0  0  0  0  0  0  0  0  0  0
   -6.4583   -3.8537    0.8429 O   0  0  0  0  0  0  0  0  0  0  0  0
   -8.1155   -2.4634    2.0322 O   0  0  0  0  0  0  0  0  0  0  0  0
   -8.1040   -2.5488   -0.4740 O   0  0  0  0  0  0  0  0  0  0  0  0
  -11.7175   -7.9960    0.9886 C   0  0  0  0  0  0  0  0  0  0  0  0
  -11.3241   -8.8140    1.6010 H   0  0  0  0  0  0  0  0  0  0  0  0
  -12.6754   -7.6950    1.4306 H   0  0  0  0  0  0  0  0  0  0  0  0
  -11.9269   -8.3897   -0.0096 H   0  0  0  0  0  0  0  0  0  0  0  0
  1  4  1  0  0  0  0
  1  2  1  0  0  0  0
  2  3  1  0  0  0  0
  4 12  1  0  0  0  0
  5 13  1  0  0  0  0
  5  4  2  0  0  0  0
  6  5  1  0  0  0  0
  7  8  2  0  0  0  0
  7  6  1  0  0  0  0
  9  7  2  0  0  0  0
 10  6  2  0  0  0  0
 10 11  1  0  0  0  0
 11  1  2  0  0  0  0
 14 10  1  0  0  0  0
 15 11  1  0  0  0  0
 16 17  1  0  0  0  0
 16 22  1  0  0  0  0
 17 23  1  0  0  0  0
 18 30  1  0  0  0  0
 18 17  2  0  0  0  0
 19 18  1  0  0  0  0
 20 19  2  0  0  0  0
 20 21  1  0  0  0  0
 21 16  2  0  0  0  0
 24 19  1  0  0  0  0
 25 20  1  0  0  0  0
 26 27  2  0  0  0  0
 26 21  1  0  0  0  0
 26 28  1  0  0  0  0
 29 26  2  0  0  0  0
 30 32  1  0  0  0  0
 30 31  1  0  0  0  0
 33 30  1  0  0  0  0
M  RAD  3   2   2   3   3  28   2
M  END
