Coordinates from ORCA-job 4-NO2PhN2+~TsO-_B3LYPG-6-31G_dp-NX-Scan-d89-09-n800
 OpenBabel11261920283D

 33 33  0  0  0  0  0  0  0  0999 V2000
   -4.7413   -0.6754    0.5947 C   0  0  0  0  0  0  0  0  0  0  0  0
   -5.5929    0.1846    1.2460 N   0  0  0  0  0  0  0  0  0  0  0  0
   -6.3027    0.8619    1.7824 N   0  0  0  0  0  0  0  0  0  0  0  0
   -3.3538   -0.3918    0.5975 C   0  0  0  0  0  0  0  0  0  0  0  0
   -2.5403   -1.2833   -0.0703 C   0  0  0  0  0  0  0  0  0  0  0  0
   -3.1203   -2.4015   -0.6960 C   0  0  0  0  0  0  0  0  0  0  0  0
   -2.2077   -3.3412   -1.3958 N   0  0  0  0  0  0  0  0  0  0  0  0
   -1.0091   -3.0666   -1.3786 O   0  0  0  0  0  0  0  0  0  0  0  0
   -2.7133   -4.3187   -1.9304 O   0  0  0  0  0  0  0  0  0  0  0  0
   -4.4834   -2.6686   -0.6910 C   0  0  0  0  0  0  0  0  0  0  0  0
   -5.3370   -1.7803   -0.0349 C   0  0  0  0  0  0  0  0  0  0  0  0
   -2.9556    0.4823    1.0996 H   0  0  0  0  0  0  0  0  0  0  0  0
   -1.4678   -1.1445   -0.1220 H   0  0  0  0  0  0  0  0  0  0  0  0
   -4.9245   -3.5238   -1.1929 H   0  0  0  0  0  0  0  0  0  0  0  0
   -6.4309   -1.9366    0.0082 H   0  0  0  0  0  0  0  0  0  0  0  0
   -9.8796   -4.6447    1.0279 C   0  0  0  0  0  0  0  0  0  0  0  0
  -10.4129   -5.8104    1.5734 C   0  0  0  0  0  0  0  0  0  0  0  0
  -10.1475   -7.0649    1.0048 C   0  0  0  0  0  0  0  0  0  0  0  0
   -9.3305   -7.1179   -0.1325 C   0  0  0  0  0  0  0  0  0  0  0  0
   -8.7902   -5.9582   -0.6875 C   0  0  0  0  0  0  0  0  0  0  0  0
   -9.0670   -4.7210   -0.1052 C   0  0  0  0  0  0  0  0  0  0  0  0
  -10.0810   -3.6778    1.4764 H   0  0  0  0  0  0  0  0  0  0  0  0
  -11.0446   -5.7475    2.4566 H   0  0  0  0  0  0  0  0  0  0  0  0
   -9.1138   -8.0804   -0.5897 H   0  0  0  0  0  0  0  0  0  0  0  0
   -8.1519   -6.0014   -1.5635 H   0  0  0  0  0  0  0  0  0  0  0  0
   -8.4290   -3.2166   -0.8592 S   0  0  0  0  0  0  0  0  0  0  0  0
   -8.1230   -2.3077    0.3130 O   0  0  0  0  0  0  0  0  0  0  0  0
   -9.4854   -2.6840   -1.7415 O   0  0  0  0  0  0  0  0  0  0  0  0
   -7.1720   -3.6223   -1.5609 O   0  0  0  0  0  0  0  0  0  0  0  0
  -10.7039   -8.3270    1.6215 C   0  0  0  0  0  0  0  0  0  0  0  0
  -10.0480   -8.7044    2.4166 H   0  0  0  0  0  0  0  0  0  0  0  0
  -11.6872   -8.1536    2.0693 H   0  0  0  0  0  0  0  0  0  0  0  0
  -10.8067   -9.1238    0.8785 H   0  0  0  0  0  0  0  0  0  0  0  0
  1  4  1  0  0  0  0
  1  2  1  0  0  0  0
  2  3  1  0  0  0  0
  4 12  1  0  0  0  0
  5  4  2  0  0  0  0
  6 10  2  0  0  0  0
  6  5  1  0  0  0  0
  7  8  2  0  0  0  0
  7  6  1  0  0  0  0
  9  7  2  0  0  0  0
 10 11  1  0  0  0  0
 11 15  1  0  0  0  0
 11  1  2  0  0  0  0
 13  5  1  0  0  0  0
 14 10  1  0  0  0  0
 16 22  1  0  0  0  0
 16 17  1  0  0  0  0
 17 23  1  0  0  0  0
 18 17  2  0  0  0  0
 18 30  1  0  0  0  0
 19 18  1  0  0  0  0
 20 19  2  0  0  0  0
 20 21  1  0  0  0  0
 21 16  2  0  0  0  0
 24 19  1  0  0  0  0
 25 20  1  0  0  0  0
 26 21  1  0  0  0  0
 26 27  1  0  0  0  0
 28 26  2  0  0  0  0
 29 26  2  0  0  0  0
 30 32  1  0  0  0  0
 30 31  1  0  0  0  0
 33 30  1  0  0  0  0
M  RAD  3   2   2   3   3  27   2
M  END
