Coordinates from ORCA-job 4-NO2PhN2+~TsO-_B3LYPG-6-31G_dp-NX-Scan-d89-09-n800
 OpenBabel11261920283D

 33 33  0  0  0  0  0  0  0  0999 V2000
   -4.6514   -0.8313    1.2408 C   0  0  0  0  0  0  0  0  0  0  0  0
   -5.0798   -0.1144    2.3309 N   0  0  0  0  0  0  0  0  0  0  0  0
   -5.3124    0.4891    3.2502 N   0  0  0  0  0  0  0  0  0  0  0  0
   -3.2396   -0.8809    1.0865 C   0  0  0  0  0  0  0  0  0  0  0  0
   -2.7386   -1.5898    0.0166 C   0  0  0  0  0  0  0  0  0  0  0  0
   -3.6373   -2.2109   -0.8611 C   0  0  0  0  0  0  0  0  0  0  0  0
   -3.0517   -2.9452   -2.0117 N   0  0  0  0  0  0  0  0  0  0  0  0
   -1.8579   -3.2365   -1.9218 O   0  0  0  0  0  0  0  0  0  0  0  0
   -3.7899   -3.1883   -2.9516 O   0  0  0  0  0  0  0  0  0  0  0  0
   -5.0220   -2.1738   -0.7156 C   0  0  0  0  0  0  0  0  0  0  0  0
   -5.5613   -1.4660    0.3610 C   0  0  0  0  0  0  0  0  0  0  0  0
   -2.5894   -0.3781    1.7931 H   0  0  0  0  0  0  0  0  0  0  0  0
   -1.6733   -1.6815   -0.1552 H   0  0  0  0  0  0  0  0  0  0  0  0
   -5.6960   -2.7306   -1.3887 H   0  0  0  0  0  0  0  0  0  0  0  0
   -6.6470   -1.4518    0.4677 H   0  0  0  0  0  0  0  0  0  0  0  0
  -10.0113   -4.6445    0.2441 C   0  0  0  0  0  0  0  0  0  0  0  0
  -10.5469   -5.6304    1.0698 C   0  0  0  0  0  0  0  0  0  0  0  0
   -9.9634   -6.9036    1.1510 C   0  0  0  0  0  0  0  0  0  0  0  0
   -8.8214   -7.1619    0.3768 C   0  0  0  0  0  0  0  0  0  0  0  0
   -8.2772   -6.1836   -0.4524 C   0  0  0  0  0  0  0  0  0  0  0  0
   -8.8736   -4.9217   -0.5203 C   0  0  0  0  0  0  0  0  0  0  0  0
  -10.4646   -3.6601    0.1886 H   0  0  0  0  0  0  0  0  0  0  0  0
  -11.4349   -5.4134    1.6589 H   0  0  0  0  0  0  0  0  0  0  0  0
   -8.3560   -8.1441    0.4235 H   0  0  0  0  0  0  0  0  0  0  0  0
   -7.3936   -6.3773   -1.0508 H   0  0  0  0  0  0  0  0  0  0  0  0
   -8.2203   -3.6646   -1.6340 S   0  0  0  0  0  0  0  0  0  0  0  0
   -8.2084   -2.4072   -0.8046 O   0  0  0  0  0  0  0  0  0  0  0  0
   -9.1392   -3.6369   -2.7951 O   0  0  0  0  0  0  0  0  0  0  0  0
   -6.8261   -4.1165   -1.9509 O   0  0  0  0  0  0  0  0  0  0  0  0
  -10.5334   -7.9660    2.0603 C   0  0  0  0  0  0  0  0  0  0  0  0
   -9.9184   -8.0930    2.9602 H   0  0  0  0  0  0  0  0  0  0  0  0
  -11.5452   -7.7123    2.3877 H   0  0  0  0  0  0  0  0  0  0  0  0
  -10.5736   -8.9399    1.5607 H   0  0  0  0  0  0  0  0  0  0  0  0
  1  2  1  0  0  0  0
  2  3  1  0  0  0  0
  4  1  1  0  0  0  0
  4 12  1  0  0  0  0
  5  4  2  0  0  0  0
  6 10  2  0  0  0  0
  6  5  1  0  0  0  0
  7  8  2  0  0  0  0
  7  6  1  0  0  0  0
  9  7  2  0  0  0  0
 10 11  1  0  0  0  0
 11 15  1  0  0  0  0
 11  1  2  0  0  0  0
 13  5  1  0  0  0  0
 14 10  1  0  0  0  0
 16 17  2  0  0  0  0
 17 18  1  0  0  0  0
 17 23  1  0  0  0  0
 18 30  1  0  0  0  0
 19 24  1  0  0  0  0
 19 18  2  0  0  0  0
 20 19  1  0  0  0  0
 21 20  2  0  0  0  0
 21 16  1  0  0  0  0
 22 16  1  0  0  0  0
 25 20  1  0  0  0  0
 26 27  1  0  0  0  0
 26 21  1  0  0  0  0
 28 26  2  0  0  0  0
 29 26  2  0  0  0  0
 30 32  1  0  0  0  0
 30 31  1  0  0  0  0
 33 30  1  0  0  0  0
M  RAD  3   2   2   3   3  27   2
M  END
