Coordinates from ORCA-job 4-NO2PhN2+~TsO-_B3LYPG-6-31G_dp-NX-Scan-d89-09-n800
 OpenBabel11261920283D

 33 34  0  0  0  0  0  0  0  0999 V2000
   -4.4951   -2.9411    0.3095 C   0  0  0  0  0  0  0  0  0  0  0  0
   -5.0008   -3.9498    1.1861 N   0  0  0  0  0  0  0  0  0  0  0  0
   -5.7053   -4.9052    0.7643 N   0  0  0  0  0  0  0  0  0  0  0  0
   -4.5198   -1.6383    0.8346 C   0  0  0  0  0  0  0  0  0  0  0  0
   -3.9778   -0.5758    0.1233 C   0  0  0  0  0  0  0  0  0  0  0  0
   -3.3739   -0.8352   -1.1064 C   0  0  0  0  0  0  0  0  0  0  0  0
   -2.7884    0.2793   -1.8627 N   0  0  0  0  0  0  0  0  0  0  0  0
   -2.8678    1.4062   -1.3728 O   0  0  0  0  0  0  0  0  0  0  0  0
   -2.2545    0.0210   -2.9415 O   0  0  0  0  0  0  0  0  0  0  0  0
   -3.3027   -2.1236   -1.6348 C   0  0  0  0  0  0  0  0  0  0  0  0
   -3.8709   -3.1780   -0.9291 C   0  0  0  0  0  0  0  0  0  0  0  0
   -4.9706   -1.4818    1.8084 H   0  0  0  0  0  0  0  0  0  0  0  0
   -4.0003    0.4377    0.5040 H   0  0  0  0  0  0  0  0  0  0  0  0
   -2.8159   -2.2800   -2.5889 H   0  0  0  0  0  0  0  0  0  0  0  0
   -3.8230   -4.1795   -1.3376 H   0  0  0  0  0  0  0  0  0  0  0  0
   -8.5653   -6.5279    1.3780 C   0  0  0  0  0  0  0  0  0  0  0  0
   -9.7375   -6.2770    2.0861 C   0  0  0  0  0  0  0  0  0  0  0  0
  -10.8021   -5.5712    1.5055 C   0  0  0  0  0  0  0  0  0  0  0  0
  -10.6709   -5.1201    0.1818 C   0  0  0  0  0  0  0  0  0  0  0  0
   -9.5097   -5.3536   -0.5470 C   0  0  0  0  0  0  0  0  0  0  0  0
   -8.4699   -6.0612    0.0646 C   0  0  0  0  0  0  0  0  0  0  0  0
   -7.7448   -7.0777    1.8235 H   0  0  0  0  0  0  0  0  0  0  0  0
   -9.8281   -6.6382    3.1059 H   0  0  0  0  0  0  0  0  0  0  0  0
  -11.4920   -4.5828   -0.2844 H   0  0  0  0  0  0  0  0  0  0  0  0
   -9.4100   -5.0127   -1.5712 H   0  0  0  0  0  0  0  0  0  0  0  0
   -6.9903   -6.3663   -0.8548 S   0  0  0  0  0  0  0  0  0  0  0  0
   -6.2771   -7.5142   -0.3231 O   0  0  0  0  0  0  0  0  0  0  0  0
   -5.9933   -4.9289   -0.4111 O   0  0  0  0  0  0  0  0  0  0  0  0
   -7.1862   -6.1174   -2.2715 O   0  0  0  0  0  0  0  0  0  0  0  0
  -12.0574   -5.2825    2.2899 C   0  0  0  0  0  0  0  0  0  0  0  0
  -12.1667   -5.9624    3.1382 H   0  0  0  0  0  0  0  0  0  0  0  0
  -12.0381   -4.2602    2.6863 H   0  0  0  0  0  0  0  0  0  0  0  0
  -12.9488   -5.3689    1.6614 H   0  0  0  0  0  0  0  0  0  0  0  0
  1  4  1  0  0  0  0
  1  2  1  0  0  0  0
  3  2  2  0  0  0  0
  4 12  1  0  0  0  0
  5 13  1  0  0  0  0
  5  4  2  0  0  0  0
  6  5  1  0  0  0  0
  7  8  2  0  0  0  0
  7  6  1  0  0  0  0
  9  7  2  0  0  0  0
 10  6  2  0  0  0  0
 10 11  1  0  0  0  0
 11  1  2  0  0  0  0
 14 10  1  0  0  0  0
 15 11  1  0  0  0  0
 16 22  1  0  0  0  0
 16 17  2  0  0  0  0
 17 23  1  0  0  0  0
 18 17  1  0  0  0  0
 18 30  1  0  0  0  0
 19 18  2  0  0  0  0
 20 21  2  0  0  0  0
 20 19  1  0  0  0  0
 21 16  1  0  0  0  0
 24 19  1  0  0  0  0
 25 20  1  0  0  0  0
 26 28  1  0  0  0  0
 26 27  2  0  0  0  0
 26 21  1  0  0  0  0
 28  3  1  0  0  0  0
 29 26  2  0  0  0  0
 30 32  1  0  0  0  0
 30 31  1  0  0  0  0
 33 30  1  0  0  0  0
M  END
