Coordinates from ORCA-job 4-NO2PhN2+~TsO-_B3LYPG-6-31G_dp-NX-Scan-d89-09-n800
 OpenBabel11261920283D

 33 33  0  0  0  0  0  0  0  0999 V2000
   -4.9396   -0.9121    1.0855 C   0  0  0  0  0  0  0  0  0  0  0  0
   -4.8620    0.3825    1.5179 N   0  0  0  0  0  0  0  0  0  0  0  0
   -4.7423    1.4363    1.8940 N   0  0  0  0  0  0  0  0  0  0  0  0
   -4.1610   -1.8661    1.7900 C   0  0  0  0  0  0  0  0  0  0  0  0
   -4.2077   -3.1741    1.3530 C   0  0  0  0  0  0  0  0  0  0  0  0
   -5.0029   -3.4957    0.2448 C   0  0  0  0  0  0  0  0  0  0  0  0
   -5.0051   -4.9050   -0.2003 N   0  0  0  0  0  0  0  0  0  0  0  0
   -4.5829   -5.7403    0.6029 O   0  0  0  0  0  0  0  0  0  0  0  0
   -5.4048   -5.1272   -1.3341 O   0  0  0  0  0  0  0  0  0  0  0  0
   -5.7724   -2.5627   -0.4542 C   0  0  0  0  0  0  0  0  0  0  0  0
   -5.7520   -1.2407   -0.0257 C   0  0  0  0  0  0  0  0  0  0  0  0
   -3.5557   -1.5682    2.6384 H   0  0  0  0  0  0  0  0  0  0  0  0
   -3.6496   -3.9568    1.8509 H   0  0  0  0  0  0  0  0  0  0  0  0
   -6.4061   -2.8182   -1.3207 H   0  0  0  0  0  0  0  0  0  0  0  0
   -6.3479   -0.4969   -0.5445 H   0  0  0  0  0  0  0  0  0  0  0  0
   -9.0892   -4.0124    0.2844 C   0  0  0  0  0  0  0  0  0  0  0  0
   -8.8103   -5.0279    1.1985 C   0  0  0  0  0  0  0  0  0  0  0  0
   -8.3922   -6.3002    0.7684 C   0  0  0  0  0  0  0  0  0  0  0  0
   -8.2850   -6.5336   -0.6114 C   0  0  0  0  0  0  0  0  0  0  0  0
   -8.5511   -5.5247   -1.5317 C   0  0  0  0  0  0  0  0  0  0  0  0
   -8.9407   -4.2505   -1.0837 C   0  0  0  0  0  0  0  0  0  0  0  0
   -9.4324   -3.0349    0.6068 H   0  0  0  0  0  0  0  0  0  0  0  0
   -8.9262   -4.8412    2.2643 H   0  0  0  0  0  0  0  0  0  0  0  0
   -7.9789   -7.5150   -0.9646 H   0  0  0  0  0  0  0  0  0  0  0  0
   -8.4717   -5.7053   -2.5986 H   0  0  0  0  0  0  0  0  0  0  0  0
   -9.1460   -2.9084   -2.2757 S   0  0  0  0  0  0  0  0  0  0  0  0
   -9.8467   -1.8357   -1.5325 O   0  0  0  0  0  0  0  0  0  0  0  0
   -9.8658   -3.5211   -3.4169 O   0  0  0  0  0  0  0  0  0  0  0  0
   -7.7149   -2.5471   -2.6026 O   0  0  0  0  0  0  0  0  0  0  0  0
   -8.0315   -7.3778    1.7600 C   0  0  0  0  0  0  0  0  0  0  0  0
   -6.9419   -7.4393    1.8833 H   0  0  0  0  0  0  0  0  0  0  0  0
   -8.4665   -7.1841    2.7446 H   0  0  0  0  0  0  0  0  0  0  0  0
   -8.3718   -8.3624    1.4240 H   0  0  0  0  0  0  0  0  0  0  0  0
  1  2  1  0  0  0  0
  1  4  2  0  0  0  0
  2  3  1  0  0  0  0
  4 12  1  0  0  0  0
  5  4  1  0  0  0  0
  5 13  1  0  0  0  0
  6  5  2  0  0  0  0
  7  6  1  0  0  0  0
  7  8  2  0  0  0  0
  9  7  2  0  0  0  0
 10 11  2  0  0  0  0
 10  6  1  0  0  0  0
 11  1  1  0  0  0  0
 14 10  1  0  0  0  0
 15 11  1  0  0  0  0
 16 22  1  0  0  0  0
 16 17  2  0  0  0  0
 17 23  1  0  0  0  0
 18 17  1  0  0  0  0
 18 30  1  0  0  0  0
 19 18  2  0  0  0  0
 20 21  2  0  0  0  0
 20 19  1  0  0  0  0
 21 16  1  0  0  0  0
 24 19  1  0  0  0  0
 25 20  1  0  0  0  0
 26 27  1  0  0  0  0
 26 21  1  0  0  0  0
 28 26  2  0  0  0  0
 29 26  2  0  0  0  0
 30 31  1  0  0  0  0
 30 32  1  0  0  0  0
 33 30  1  0  0  0  0
M  RAD  3   2   2   3   3  27   2
M  END
