Coordinates from ORCA-job 4-NO2PhN2+~TsO-_B3LYPG-6-31G_dp-NX-Scan-d89-09-n800
 OpenBabel11261920283D

 33 33  0  0  0  0  0  0  0  0999 V2000
   -4.3986   -3.2241    0.0211 C   0  0  0  0  0  0  0  0  0  0  0  0
   -5.0358   -4.3644    0.6101 N   0  0  0  0  0  0  0  0  0  0  0  0
   -5.0422   -5.0322    1.5215 N   0  0  0  0  0  0  0  0  0  0  0  0
   -3.7605   -2.3589    0.9195 C   0  0  0  0  0  0  0  0  0  0  0  0
   -3.0815   -1.2631    0.4038 C   0  0  0  0  0  0  0  0  0  0  0  0
   -3.0522   -1.0862   -0.9790 C   0  0  0  0  0  0  0  0  0  0  0  0
   -2.3164    0.0779   -1.5233 N   0  0  0  0  0  0  0  0  0  0  0  0
   -1.7822    0.8313   -0.7137 O   0  0  0  0  0  0  0  0  0  0  0  0
   -2.2896    0.2054   -2.7431 O   0  0  0  0  0  0  0  0  0  0  0  0
   -3.6820   -1.9546   -1.8657 C   0  0  0  0  0  0  0  0  0  0  0  0
   -4.3816   -3.0469   -1.3600 C   0  0  0  0  0  0  0  0  0  0  0  0
   -3.8082   -2.5385    1.9873 H   0  0  0  0  0  0  0  0  0  0  0  0
   -2.5788   -0.5525    1.0472 H   0  0  0  0  0  0  0  0  0  0  0  0
   -3.6315   -1.7651   -2.9303 H   0  0  0  0  0  0  0  0  0  0  0  0
   -4.9109   -3.7457   -1.9936 H   0  0  0  0  0  0  0  0  0  0  0  0
   -9.2785   -4.3740    1.2094 C   0  0  0  0  0  0  0  0  0  0  0  0
  -10.2295   -5.0494    1.9764 C   0  0  0  0  0  0  0  0  0  0  0  0
  -10.7847   -6.2587    1.5417 C   0  0  0  0  0  0  0  0  0  0  0  0
  -10.3635   -6.7808    0.3078 C   0  0  0  0  0  0  0  0  0  0  0  0
   -9.4186   -6.1182   -0.4695 C   0  0  0  0  0  0  0  0  0  0  0  0
   -8.8748   -4.9156   -0.0093 C   0  0  0  0  0  0  0  0  0  0  0  0
   -8.8597   -3.4293    1.5371 H   0  0  0  0  0  0  0  0  0  0  0  0
  -10.5476   -4.6272    2.9260 H   0  0  0  0  0  0  0  0  0  0  0  0
  -10.7853   -7.7171   -0.0481 H   0  0  0  0  0  0  0  0  0  0  0  0
   -9.1090   -6.5184   -1.4287 H   0  0  0  0  0  0  0  0  0  0  0  0
   -7.6376   -4.0712   -0.9958 S   0  0  0  0  0  0  0  0  0  0  0  0
   -6.3622   -4.9581   -0.8402 O   0  0  0  0  0  0  0  0  0  0  0  0
   -7.4051   -2.7496   -0.3752 O   0  0  0  0  0  0  0  0  0  0  0  0
   -8.0789   -4.1164   -2.3966 O   0  0  0  0  0  0  0  0  0  0  0  0
  -11.8316   -6.9748    2.3613 C   0  0  0  0  0  0  0  0  0  0  0  0
  -11.8598   -6.6026    3.3890 H   0  0  0  0  0  0  0  0  0  0  0  0
  -12.8317   -6.8347    1.9324 H   0  0  0  0  0  0  0  0  0  0  0  0
  -11.6445   -8.0533    2.3951 H   0  0  0  0  0  0  0  0  0  0  0  0
  1  2  1  0  0  0  0
  1  4  2  0  0  0  0
  2  3  2  0  0  0  0
  4 12  1  0  0  0  0
  5  4  1  0  0  0  0
  5 13  1  0  0  0  0
  6  5  2  0  0  0  0
  7  6  1  0  0  0  0
  7  8  2  0  0  0  0
  9  7  2  0  0  0  0
 10 11  2  0  0  0  0
 10  6  1  0  0  0  0
 11  1  1  0  0  0  0
 14 10  1  0  0  0  0
 15 11  1  0  0  0  0
 16 22  1  0  0  0  0
 16 17  2  0  0  0  0
 17 23  1  0  0  0  0
 18 17  1  0  0  0  0
 18 30  1  0  0  0  0
 19 18  2  0  0  0  0
 20 21  2  0  0  0  0
 20 19  1  0  0  0  0
 21 16  1  0  0  0  0
 24 19  1  0  0  0  0
 25 20  1  0  0  0  0
 26 27  2  0  0  0  0
 26 28  1  0  0  0  0
 26 21  1  0  0  0  0
 29 26  2  0  0  0  0
 30 33  1  0  0  0  0
 30 31  1  0  0  0  0
 32 30  1  0  0  0  0
M  RAD  2   3   2  28   2
M  END
