Coordinates from ORCA-job 4-NO2PhN2+~TsO-_B3LYPG-6-31G_dp-NX-Scan-d89-09-n800
 OpenBabel11261920283D

 33 33  0  0  0  0  0  0  0  0999 V2000
   -4.8127   -0.6526    0.7244 C   0  0  0  0  0  0  0  0  0  0  0  0
   -5.4375    0.3689    1.3920 N   0  0  0  0  0  0  0  0  0  0  0  0
   -5.9022    1.2103    1.9689 N   0  0  0  0  0  0  0  0  0  0  0  0
   -3.4060   -0.7514    0.8936 C   0  0  0  0  0  0  0  0  0  0  0  0
   -2.7605   -1.7683    0.2254 C   0  0  0  0  0  0  0  0  0  0  0  0
   -3.5202   -2.6520   -0.5599 C   0  0  0  0  0  0  0  0  0  0  0  0
   -2.7945   -3.7529   -1.2424 N   0  0  0  0  0  0  0  0  0  0  0  0
   -1.5785   -3.8080   -1.0618 O   0  0  0  0  0  0  0  0  0  0  0  0
   -3.4552   -4.5211   -1.9270 O   0  0  0  0  0  0  0  0  0  0  0  0
   -4.8972   -2.5557   -0.7154 C   0  0  0  0  0  0  0  0  0  0  0  0
   -5.5830   -1.5180   -0.0776 C   0  0  0  0  0  0  0  0  0  0  0  0
   -2.8705   -0.0537    1.5274 H   0  0  0  0  0  0  0  0  0  0  0  0
   -1.6898   -1.9092    0.3018 H   0  0  0  0  0  0  0  0  0  0  0  0
   -5.4847   -3.2460   -1.3221 H   0  0  0  0  0  0  0  0  0  0  0  0
   -6.6794   -1.4484   -0.1866 H   0  0  0  0  0  0  0  0  0  0  0  0
   -9.7916   -4.5284    0.8344 C   0  0  0  0  0  0  0  0  0  0  0  0
  -10.1358   -5.7004    1.5049 C   0  0  0  0  0  0  0  0  0  0  0  0
   -9.7416   -6.9559    1.0198 C   0  0  0  0  0  0  0  0  0  0  0  0
   -8.9908   -7.0039   -0.1624 C   0  0  0  0  0  0  0  0  0  0  0  0
   -8.6393   -5.8380   -0.8421 C   0  0  0  0  0  0  0  0  0  0  0  0
   -9.0412   -4.5992   -0.3412 C   0  0  0  0  0  0  0  0  0  0  0  0
  -10.0933   -3.5594    1.2175 H   0  0  0  0  0  0  0  0  0  0  0  0
  -10.7197   -5.6414    2.4206 H   0  0  0  0  0  0  0  0  0  0  0  0
   -8.6772   -7.9674   -0.5569 H   0  0  0  0  0  0  0  0  0  0  0  0
   -8.0528   -5.8769   -1.7537 H   0  0  0  0  0  0  0  0  0  0  0  0
   -8.6499   -3.0967   -1.2534 S   0  0  0  0  0  0  0  0  0  0  0  0
   -8.4080   -2.0596   -0.1790 O   0  0  0  0  0  0  0  0  0  0  0  0
   -9.8144   -2.7957   -2.1100 O   0  0  0  0  0  0  0  0  0  0  0  0
   -7.3921   -3.4031   -2.0024 O   0  0  0  0  0  0  0  0  0  0  0  0
  -10.0922   -8.2203    1.7685 C   0  0  0  0  0  0  0  0  0  0  0  0
   -9.3363   -8.4561    2.5288 H   0  0  0  0  0  0  0  0  0  0  0  0
  -11.0522   -8.1264    2.2857 H   0  0  0  0  0  0  0  0  0  0  0  0
  -10.1542   -9.0801    1.0946 H   0  0  0  0  0  0  0  0  0  0  0  0
  1  4  1  0  0  0  0
  1  2  1  0  0  0  0
  2  3  1  0  0  0  0
  4 12  1  0  0  0  0
  5 13  1  0  0  0  0
  5  4  2  0  0  0  0
  6  5  1  0  0  0  0
  7  8  2  0  0  0  0
  7  6  1  0  0  0  0
  9  7  2  0  0  0  0
 10  6  2  0  0  0  0
 10 11  1  0  0  0  0
 11  1  2  0  0  0  0
 14 10  1  0  0  0  0
 15 11  1  0  0  0  0
 16 22  1  0  0  0  0
 16 17  2  0  0  0  0
 17 23  1  0  0  0  0
 18 17  1  0  0  0  0
 18 30  1  0  0  0  0
 19 18  2  0  0  0  0
 20 21  2  0  0  0  0
 20 19  1  0  0  0  0
 21 16  1  0  0  0  0
 24 19  1  0  0  0  0
 25 20  1  0  0  0  0
 26 21  1  0  0  0  0
 26 27  1  0  0  0  0
 28 26  2  0  0  0  0
 29 26  2  0  0  0  0
 30 32  1  0  0  0  0
 30 31  1  0  0  0  0
 33 30  1  0  0  0  0
M  RAD  3   2   2   3   3  27   2
M  END
