Coordinates from ORCA-job 4-NO2PhN2+~TsO-_B3LYPG-6-31G_dp-NX-Scan-d89-09-n800
 OpenBabel11261920283D

 33 33  0  0  0  0  0  0  0  0999 V2000
   -4.5687   -2.4463    0.5401 C   0  0  0  0  0  0  0  0  0  0  0  0
   -5.4171   -3.0473    1.5053 N   0  0  0  0  0  0  0  0  0  0  0  0
   -5.6460   -3.3691    2.5576 N   0  0  0  0  0  0  0  0  0  0  0  0
   -3.8575   -1.3207    0.9832 C   0  0  0  0  0  0  0  0  0  0  0  0
   -2.9670   -0.7324    0.0957 C   0  0  0  0  0  0  0  0  0  0  0  0
   -2.8152   -1.2982   -1.1700 C   0  0  0  0  0  0  0  0  0  0  0  0
   -1.8510   -0.6701   -2.1044 N   0  0  0  0  0  0  0  0  0  0  0  0
   -1.2548    0.3268   -1.7058 O   0  0  0  0  0  0  0  0  0  0  0  0
   -1.7148   -1.1929   -3.2049 O   0  0  0  0  0  0  0  0  0  0  0  0
   -3.5263   -2.4185   -1.5933 C   0  0  0  0  0  0  0  0  0  0  0  0
   -4.4436   -3.0109   -0.7292 C   0  0  0  0  0  0  0  0  0  0  0  0
   -4.0071   -0.9218    1.9797 H   0  0  0  0  0  0  0  0  0  0  0  0
   -2.3932    0.1448    0.3656 H   0  0  0  0  0  0  0  0  0  0  0  0
   -3.3747   -2.8054   -2.5927 H   0  0  0  0  0  0  0  0  0  0  0  0
   -5.0659   -3.8599   -1.0251 H   0  0  0  0  0  0  0  0  0  0  0  0
   -9.7105   -4.4221    0.9822 C   0  0  0  0  0  0  0  0  0  0  0  0
  -10.6429   -5.2027    1.6649 C   0  0  0  0  0  0  0  0  0  0  0  0
  -10.7994   -6.5650    1.3756 C   0  0  0  0  0  0  0  0  0  0  0  0
   -9.9831   -7.1315    0.3858 C   0  0  0  0  0  0  0  0  0  0  0  0
   -9.0461   -6.3639   -0.3031 C   0  0  0  0  0  0  0  0  0  0  0  0
   -8.9127   -5.0071   -0.0018 C   0  0  0  0  0  0  0  0  0  0  0  0
   -9.5878   -3.3703    1.2165 H   0  0  0  0  0  0  0  0  0  0  0  0
  -11.2590   -4.7465    2.4361 H   0  0  0  0  0  0  0  0  0  0  0  0
  -10.0819   -8.1890    0.1523 H   0  0  0  0  0  0  0  0  0  0  0  0
   -8.4071   -6.8072   -1.0593 H   0  0  0  0  0  0  0  0  0  0  0  0
   -7.7565   -4.0035   -0.9428 S   0  0  0  0  0  0  0  0  0  0  0  0
   -7.2400   -2.9696    0.0704 O   0  0  0  0  0  0  0  0  0  0  0  0
   -8.5080   -3.3774   -2.0517 O   0  0  0  0  0  0  0  0  0  0  0  0
   -6.6565   -4.9266   -1.3457 O   0  0  0  0  0  0  0  0  0  0  0  0
  -11.8329   -7.4000    2.0951 C   0  0  0  0  0  0  0  0  0  0  0  0
  -12.1474   -6.9296    3.0306 H   0  0  0  0  0  0  0  0  0  0  0  0
  -12.7299   -7.5353    1.4780 H   0  0  0  0  0  0  0  0  0  0  0  0
  -11.4502   -8.3982    2.3295 H   0  0  0  0  0  0  0  0  0  0  0  0
  1  4  1  0  0  0  0
  1  2  1  0  0  0  0
  2  3  2  0  0  0  0
  4 12  1  0  0  0  0
  5 13  1  0  0  0  0
  5  4  2  0  0  0  0
  6  5  1  0  0  0  0
  7  8  2  0  0  0  0
  7  6  1  0  0  0  0
  9  7  2  0  0  0  0
 10  6  2  0  0  0  0
 10 11  1  0  0  0  0
 11  1  2  0  0  0  0
 14 10  1  0  0  0  0
 15 11  1  0  0  0  0
 16 22  1  0  0  0  0
 16 17  2  0  0  0  0
 17 23  1  0  0  0  0
 18 17  1  0  0  0  0
 18 30  1  0  0  0  0
 19 18  2  0  0  0  0
 20 21  2  0  0  0  0
 20 19  1  0  0  0  0
 21 16  1  0  0  0  0
 24 19  1  0  0  0  0
 25 20  1  0  0  0  0
 26 21  1  0  0  0  0
 26 27  1  0  0  0  0
 28 26  2  0  0  0  0
 29 26  2  0  0  0  0
 30 33  1  0  0  0  0
 30 31  1  0  0  0  0
 32 30  1  0  0  0  0
M  RAD  2   3   2  27   2
M  END
