Coordinates from ORCA-job 4-NO2PhN2+~TsO-_B3LYPG-6-31G_dp-NX-Scan-d89-09-n800
 OpenBabel11261920283D

 33 33  0  0  0  0  0  0  0  0999 V2000
   -4.1126   -2.9609    0.3169 C   0  0  0  0  0  0  0  0  0  0  0  0
   -4.6070   -3.8770    1.2984 N   0  0  0  0  0  0  0  0  0  0  0  0
   -4.4270   -4.3054    2.3260 N   0  0  0  0  0  0  0  0  0  0  0  0
   -3.2416   -1.9757    0.8079 C   0  0  0  0  0  0  0  0  0  0  0  0
   -2.6906   -1.0793   -0.0956 C   0  0  0  0  0  0  0  0  0  0  0  0
   -3.0177   -1.2068   -1.4461 C   0  0  0  0  0  0  0  0  0  0  0  0
   -2.4196   -0.2510   -2.4068 N   0  0  0  0  0  0  0  0  0  0  0  0
   -1.6735    0.6103   -1.9487 O   0  0  0  0  0  0  0  0  0  0  0  0
   -2.7076   -0.3897   -3.5909 O   0  0  0  0  0  0  0  0  0  0  0  0
   -3.8787   -2.1881   -1.9255 C   0  0  0  0  0  0  0  0  0  0  0  0
   -4.4473   -3.0904   -1.0283 C   0  0  0  0  0  0  0  0  0  0  0  0
   -3.0172   -1.9161    1.8665 H   0  0  0  0  0  0  0  0  0  0  0  0
   -2.0199   -0.2916    0.2233 H   0  0  0  0  0  0  0  0  0  0  0  0
   -4.1084   -2.2345   -2.9823 H   0  0  0  0  0  0  0  0  0  0  0  0
   -5.1499   -3.8482   -1.3489 H   0  0  0  0  0  0  0  0  0  0  0  0
   -9.3963   -4.7620    1.8103 C   0  0  0  0  0  0  0  0  0  0  0  0
  -10.4839   -5.5647    2.1492 C   0  0  0  0  0  0  0  0  0  0  0  0
  -11.0513   -6.4473    1.2192 C   0  0  0  0  0  0  0  0  0  0  0  0
  -10.4983   -6.5065   -0.0686 C   0  0  0  0  0  0  0  0  0  0  0  0
   -9.4125   -5.7097   -0.4239 C   0  0  0  0  0  0  0  0  0  0  0  0
   -8.8661   -4.8411    0.5223 C   0  0  0  0  0  0  0  0  0  0  0  0
   -8.9680   -4.0675    2.5250 H   0  0  0  0  0  0  0  0  0  0  0  0
  -10.9029   -5.5022    3.1502 H   0  0  0  0  0  0  0  0  0  0  0  0
  -10.9278   -7.1824   -0.8039 H   0  0  0  0  0  0  0  0  0  0  0  0
   -8.9957   -5.7432   -1.4244 H   0  0  0  0  0  0  0  0  0  0  0  0
   -7.4546   -3.8291    0.0824 S   0  0  0  0  0  0  0  0  0  0  0  0
   -6.2535   -4.7634    0.4166 O   0  0  0  0  0  0  0  0  0  0  0  0
   -7.4424   -2.6432    0.9621 O   0  0  0  0  0  0  0  0  0  0  0  0
   -7.5161   -3.5908   -1.3751 O   0  0  0  0  0  0  0  0  0  0  0  0
  -12.2511   -7.2895    1.5826 C   0  0  0  0  0  0  0  0  0  0  0  0
  -12.3004   -7.4743    2.6595 H   0  0  0  0  0  0  0  0  0  0  0  0
  -13.1840   -6.7894    1.2934 H   0  0  0  0  0  0  0  0  0  0  0  0
  -12.2314   -8.2563    1.0717 H   0  0  0  0  0  0  0  0  0  0  0  0
  1  4  1  0  0  0  0
  1  2  1  0  0  0  0
  2  3  2  0  0  0  0
  4 12  1  0  0  0  0
  5 13  1  0  0  0  0
  5  4  2  0  0  0  0
  6  5  1  0  0  0  0
  7  8  2  0  0  0  0
  7  6  1  0  0  0  0
  9  7  2  0  0  0  0
 10  6  2  0  0  0  0
 10 11  1  0  0  0  0
 11  1  2  0  0  0  0
 14 10  1  0  0  0  0
 15 11  1  0  0  0  0
 16 17  1  0  0  0  0
 16 22  1  0  0  0  0
 17 23  1  0  0  0  0
 18 30  1  0  0  0  0
 18 17  2  0  0  0  0
 19 18  1  0  0  0  0
 20 19  2  0  0  0  0
 20 21  1  0  0  0  0
 21 16  2  0  0  0  0
 24 19  1  0  0  0  0
 25 20  1  0  0  0  0
 26 27  2  0  0  0  0
 26 21  1  0  0  0  0
 26 28  1  0  0  0  0
 29 26  2  0  0  0  0
 30 31  1  0  0  0  0
 32 30  1  0  0  0  0
 33 30  1  0  0  0  0
M  RAD  2   3   2  28   2
M  END
