Coordinates from ORCA-job 4-NO2PhN2+~TsO-_B3LYPG-6-31G_dp-NX-Scan-d89-09-n800
 OpenBabel11261920283D

 33 33  0  0  0  0  0  0  0  0999 V2000
   -4.7810   -0.6538    0.6379 C   0  0  0  0  0  0  0  0  0  0  0  0
   -5.5311    0.2962    1.2849 N   0  0  0  0  0  0  0  0  0  0  0  0
   -6.1331    1.0649    1.8322 N   0  0  0  0  0  0  0  0  0  0  0  0
   -3.3695   -0.5567    0.7369 C   0  0  0  0  0  0  0  0  0  0  0  0
   -2.6314   -1.5209    0.0849 C   0  0  0  0  0  0  0  0  0  0  0  0
   -3.3060   -2.5355   -0.6167 C   0  0  0  0  0  0  0  0  0  0  0  0
   -2.4761   -3.5673   -1.2889 N   0  0  0  0  0  0  0  0  0  0  0  0
   -1.2560   -3.4512   -1.1837 O   0  0  0  0  0  0  0  0  0  0  0  0
   -3.0642   -4.4551   -1.8905 O   0  0  0  0  0  0  0  0  0  0  0  0
   -4.6893   -2.6243   -0.7041 C   0  0  0  0  0  0  0  0  0  0  0  0
   -5.4698   -1.6510   -0.0756 C   0  0  0  0  0  0  0  0  0  0  0  0
   -2.8991    0.2394    1.3026 H   0  0  0  0  0  0  0  0  0  0  0  0
   -1.5489   -1.5203    0.1075 H   0  0  0  0  0  0  0  0  0  0  0  0
   -5.2062   -3.4066   -1.2541 H   0  0  0  0  0  0  0  0  0  0  0  0
   -6.5748   -1.6977   -0.1133 H   0  0  0  0  0  0  0  0  0  0  0  0
   -9.8256   -4.5872    0.9499 C   0  0  0  0  0  0  0  0  0  0  0  0
  -10.2616   -5.7651    1.5538 C   0  0  0  0  0  0  0  0  0  0  0  0
   -9.9466   -7.0186    1.0099 C   0  0  0  0  0  0  0  0  0  0  0  0
   -9.1801   -7.0590   -0.1628 C   0  0  0  0  0  0  0  0  0  0  0  0
   -8.7370   -5.8878   -0.7758 C   0  0  0  0  0  0  0  0  0  0  0  0
   -9.0618   -4.6509   -0.2171 C   0  0  0  0  0  0  0  0  0  0  0  0
  -10.0660   -3.6202    1.3783 H   0  0  0  0  0  0  0  0  0  0  0  0
  -10.8556   -5.7120    2.4633 H   0  0  0  0  0  0  0  0  0  0  0  0
   -8.9265   -8.0210   -0.6019 H   0  0  0  0  0  0  0  0  0  0  0  0
   -8.1382   -5.9213   -1.6796 H   0  0  0  0  0  0  0  0  0  0  0  0
   -8.5531   -3.1368   -1.0473 S   0  0  0  0  0  0  0  0  0  0  0  0
   -8.2817   -2.1625    0.0792 O   0  0  0  0  0  0  0  0  0  0  0  0
   -9.6689   -2.7219   -1.9199 O   0  0  0  0  0  0  0  0  0  0  0  0
   -7.2911   -3.4836   -1.7710 O   0  0  0  0  0  0  0  0  0  0  0  0
  -10.3954   -8.2923    1.6872 C   0  0  0  0  0  0  0  0  0  0  0  0
   -9.6572   -8.6322    2.4253 H   0  0  0  0  0  0  0  0  0  0  0  0
  -11.3420   -8.1515    2.2180 H   0  0  0  0  0  0  0  0  0  0  0  0
  -10.5300   -9.1034    0.9651 H   0  0  0  0  0  0  0  0  0  0  0  0
  1  4  1  0  0  0  0
  1  2  1  0  0  0  0
  2  3  1  0  0  0  0
  4 12  1  0  0  0  0
  5 13  1  0  0  0  0
  5  4  2  0  0  0  0
  6  5  1  0  0  0  0
  7  8  2  0  0  0  0
  7  6  1  0  0  0  0
  9  7  2  0  0  0  0
 10  6  2  0  0  0  0
 10 11  1  0  0  0  0
 11  1  2  0  0  0  0
 14 10  1  0  0  0  0
 15 11  1  0  0  0  0
 16 22  1  0  0  0  0
 16 17  2  0  0  0  0
 17 23  1  0  0  0  0
 18 17  1  0  0  0  0
 18 30  1  0  0  0  0
 19 18  2  0  0  0  0
 20 21  2  0  0  0  0
 20 19  1  0  0  0  0
 21 16  1  0  0  0  0
 24 19  1  0  0  0  0
 25 20  1  0  0  0  0
 26 21  1  0  0  0  0
 26 27  1  0  0  0  0
 28 26  2  0  0  0  0
 29 26  2  0  0  0  0
 30 32  1  0  0  0  0
 30 31  1  0  0  0  0
 33 30  1  0  0  0  0
M  RAD  3   2   2   3   3  27   2
M  END
