Coordinates from ORCA-job 4-NO2PhN2+~TsO-_B3LYPG-6-31G_dp-NX-Scan-d89-09-n800
 OpenBabel11261920283D

 33 34  0  0  0  0  0  0  0  0999 V2000
   -4.4877   -2.7893    0.3009 C   0  0  0  0  0  0  0  0  0  0  0  0
   -5.0552   -3.7437    1.1853 N   0  0  0  0  0  0  0  0  0  0  0  0
   -5.7475   -4.7143    0.9872 N   0  0  0  0  0  0  0  0  0  0  0  0
   -4.1553   -1.5780    0.9298 C   0  0  0  0  0  0  0  0  0  0  0  0
   -3.5565   -0.5533    0.2084 C   0  0  0  0  0  0  0  0  0  0  0  0
   -3.2618   -0.7777   -1.1344 C   0  0  0  0  0  0  0  0  0  0  0  0
   -2.6120    0.2981   -1.9081 N   0  0  0  0  0  0  0  0  0  0  0  0
   -2.3724    1.3513   -1.3210 O   0  0  0  0  0  0  0  0  0  0  0  0
   -2.3534    0.0714   -3.0878 O   0  0  0  0  0  0  0  0  0  0  0  0
   -3.5512   -1.9830   -1.7709 C   0  0  0  0  0  0  0  0  0  0  0  0
   -4.1778   -2.9986   -1.0557 C   0  0  0  0  0  0  0  0  0  0  0  0
   -4.3798   -1.4614    1.9841 H   0  0  0  0  0  0  0  0  0  0  0  0
   -3.3022    0.3958    0.6623 H   0  0  0  0  0  0  0  0  0  0  0  0
   -3.2924   -2.1093   -2.8144 H   0  0  0  0  0  0  0  0  0  0  0  0
   -4.4195   -3.9348   -1.5361 H   0  0  0  0  0  0  0  0  0  0  0  0
   -8.6029   -6.5022    1.4608 C   0  0  0  0  0  0  0  0  0  0  0  0
   -9.8160   -6.2930    2.1137 C   0  0  0  0  0  0  0  0  0  0  0  0
  -10.8945   -5.6765    1.4633 C   0  0  0  0  0  0  0  0  0  0  0  0
  -10.7334   -5.2780    0.1272 C   0  0  0  0  0  0  0  0  0  0  0  0
   -9.5301   -5.4765   -0.5438 C   0  0  0  0  0  0  0  0  0  0  0  0
   -8.4723   -6.0855    0.1355 C   0  0  0  0  0  0  0  0  0  0  0  0
   -7.7732   -6.9902    1.9591 H   0  0  0  0  0  0  0  0  0  0  0  0
   -9.9291   -6.6207    3.1430 H   0  0  0  0  0  0  0  0  0  0  0  0
  -11.5647   -4.8135   -0.3963 H   0  0  0  0  0  0  0  0  0  0  0  0
   -9.4109   -5.1839   -1.5810 H   0  0  0  0  0  0  0  0  0  0  0  0
   -6.9307   -6.3500   -0.7167 S   0  0  0  0  0  0  0  0  0  0  0  0
   -6.1850   -7.4057   -0.0446 O   0  0  0  0  0  0  0  0  0  0  0  0
   -6.1184   -4.9074   -0.4958 O   0  0  0  0  0  0  0  0  0  0  0  0
   -7.1623   -6.3551   -2.1558 O   0  0  0  0  0  0  0  0  0  0  0  0
  -12.1961   -5.4303    2.1864 C   0  0  0  0  0  0  0  0  0  0  0  0
  -12.3185   -6.1087    3.0346 H   0  0  0  0  0  0  0  0  0  0  0  0
  -12.2375   -4.4059    2.5762 H   0  0  0  0  0  0  0  0  0  0  0  0
  -13.0540   -5.5572    1.5193 H   0  0  0  0  0  0  0  0  0  0  0  0
  1  4  1  0  0  0  0
  1  2  1  0  0  0  0
  3  2  1  0  0  0  0
  4 12  1  0  0  0  0
  5 13  1  0  0  0  0
  5  4  2  0  0  0  0
  6  5  1  0  0  0  0
  7  8  2  0  0  0  0
  7  6  1  0  0  0  0
  9  7  2  0  0  0  0
 10  6  2  0  0  0  0
 10 11  1  0  0  0  0
 11  1  2  0  0  0  0
 14 10  1  0  0  0  0
 15 11  1  0  0  0  0
 16 22  1  0  0  0  0
 16 17  1  0  0  0  0
 17 23  1  0  0  0  0
 18 17  2  0  0  0  0
 18 30  1  0  0  0  0
 19 18  1  0  0  0  0
 20 19  2  0  0  0  0
 20 21  1  0  0  0  0
 21 16  2  0  0  0  0
 24 19  1  0  0  0  0
 25 20  1  0  0  0  0
 26 28  1  0  0  0  0
 26 27  2  0  0  0  0
 26 21  1  0  0  0  0
 28  3  1  0  0  0  0
 29 26  2  0  0  0  0
 30 32  1  0  0  0  0
 30 31  1  0  0  0  0
 33 30  1  0  0  0  0
M  RAD  2   2   2   3   2
M  END
