Coordinates from ORCA-job 4-NO2PhN2+~TsO-_B3LYPG-6-31G_dp-NX-Scan-d89-09-n800
 OpenBabel11261920283D

 33 33  0  0  0  0  0  0  0  0999 V2000
   -4.6138   -1.5244    0.3535 C   0  0  0  0  0  0  0  0  0  0  0  0
   -5.6027   -1.2291    1.2830 N   0  0  0  0  0  0  0  0  0  0  0  0
   -6.4574   -1.0136    1.9804 N   0  0  0  0  0  0  0  0  0  0  0  0
   -3.2909   -1.2252    0.7196 C   0  0  0  0  0  0  0  0  0  0  0  0
   -2.2837   -1.4958   -0.1938 C   0  0  0  0  0  0  0  0  0  0  0  0
   -2.6375   -2.0334   -1.4323 C   0  0  0  0  0  0  0  0  0  0  0  0
   -1.5560   -2.3117   -2.4075 N   0  0  0  0  0  0  0  0  0  0  0  0
   -0.4074   -2.0542   -2.0573 O   0  0  0  0  0  0  0  0  0  0  0  0
   -1.8848   -2.7761   -3.4937 O   0  0  0  0  0  0  0  0  0  0  0  0
   -3.9518   -2.3170   -1.7939 C   0  0  0  0  0  0  0  0  0  0  0  0
   -4.9789   -2.0728   -0.8864 C   0  0  0  0  0  0  0  0  0  0  0  0
   -3.0709   -0.8019    1.6927 H   0  0  0  0  0  0  0  0  0  0  0  0
   -1.2436   -1.2959    0.0283 H   0  0  0  0  0  0  0  0  0  0  0  0
   -4.1608   -2.7367   -2.7695 H   0  0  0  0  0  0  0  0  0  0  0  0
   -6.0218   -2.2982   -1.1101 H   0  0  0  0  0  0  0  0  0  0  0  0
   -8.6697   -5.8018    1.5342 C   0  0  0  0  0  0  0  0  0  0  0  0
   -9.5786   -6.8523    1.6652 C   0  0  0  0  0  0  0  0  0  0  0  0
  -10.8100   -6.8330    0.9975 C   0  0  0  0  0  0  0  0  0  0  0  0
  -11.1083   -5.7314    0.1801 C   0  0  0  0  0  0  0  0  0  0  0  0
  -10.2106   -4.6769    0.0369 C   0  0  0  0  0  0  0  0  0  0  0  0
   -8.9921   -4.7176    0.7193 C   0  0  0  0  0  0  0  0  0  0  0  0
   -7.7103   -5.8230    2.0388 H   0  0  0  0  0  0  0  0  0  0  0  0
   -9.3247   -7.7035    2.2923 H   0  0  0  0  0  0  0  0  0  0  0  0
  -12.0546   -5.7039   -0.3545 H   0  0  0  0  0  0  0  0  0  0  0  0
  -10.4351   -3.8345   -0.6087 H   0  0  0  0  0  0  0  0  0  0  0  0
   -7.8500   -3.3476    0.5752 S   0  0  0  0  0  0  0  0  0  0  0  0
   -6.4814   -3.8747    0.8510 O   0  0  0  0  0  0  0  0  0  0  0  0
   -8.2628   -2.3491    1.6373 O   0  0  0  0  0  0  0  0  0  0  0  0
   -8.0036   -2.7992   -0.8018 O   0  0  0  0  0  0  0  0  0  0  0  0
  -11.8007   -7.9626    1.1536 C   0  0  0  0  0  0  0  0  0  0  0  0
  -11.3556   -8.8182    1.6684 H   0  0  0  0  0  0  0  0  0  0  0  0
  -12.6749   -7.6444    1.7346 H   0  0  0  0  0  0  0  0  0  0  0  0
  -12.1698   -8.3076    0.1821 H   0  0  0  0  0  0  0  0  0  0  0  0
  1  4  1  0  0  0  0
  1  2  1  0  0  0  0
  2  3  1  0  0  0  0
  4 12  1  0  0  0  0
  5 13  1  0  0  0  0
  5  4  2  0  0  0  0
  6  5  1  0  0  0  0
  7  8  2  0  0  0  0
  7  6  1  0  0  0  0
  9  7  2  0  0  0  0
 10  6  2  0  0  0  0
 10 11  1  0  0  0  0
 11  1  2  0  0  0  0
 14 10  1  0  0  0  0
 15 11  1  0  0  0  0
 16 17  1  0  0  0  0
 16 22  1  0  0  0  0
 17 23  1  0  0  0  0
 18 30  1  0  0  0  0
 18 17  2  0  0  0  0
 19 18  1  0  0  0  0
 20 19  2  0  0  0  0
 20 21  1  0  0  0  0
 21 16  2  0  0  0  0
 24 19  1  0  0  0  0
 25 20  1  0  0  0  0
 26 21  1  0  0  0  0
 26 27  2  0  0  0  0
 26 28  1  0  0  0  0
 29 26  2  0  0  0  0
 30 31  1  0  0  0  0
 30 32  1  0  0  0  0
 33 30  1  0  0  0  0
M  RAD  3   2   2   3   3  28   2
M  END
