Coordinates from ORCA-job 4-NO2PhN2+~TsO-_B3LYPG-6-31G_dp-NX-Scan-d89-09-n800
 OpenBabel11261920283D

 33 34  0  0  0  0  0  0  0  0999 V2000
   -4.3316   -2.4656   -0.4159 C   0  0  0  0  0  0  0  0  0  0  0  0
   -5.3722   -3.3723   -0.1020 N   0  0  0  0  0  0  0  0  0  0  0  0
   -6.1691   -3.6553   -1.0904 N   0  0  0  0  0  0  0  0  0  0  0  0
   -3.5494   -2.1325    0.7103 C   0  0  0  0  0  0  0  0  0  0  0  0
   -2.4777   -1.2622    0.6056 C   0  0  0  0  0  0  0  0  0  0  0  0
   -2.1755   -0.7149   -0.6430 C   0  0  0  0  0  0  0  0  0  0  0  0
   -1.0437    0.2090   -0.7668 N   0  0  0  0  0  0  0  0  0  0  0  0
   -0.4017    0.4639    0.2523 O   0  0  0  0  0  0  0  0  0  0  0  0
   -0.8040    0.6745   -1.8815 O   0  0  0  0  0  0  0  0  0  0  0  0
   -2.9236   -1.0269   -1.7740 C   0  0  0  0  0  0  0  0  0  0  0  0
   -4.0023   -1.9003   -1.6662 C   0  0  0  0  0  0  0  0  0  0  0  0
   -3.8136   -2.5801    1.6616 H   0  0  0  0  0  0  0  0  0  0  0  0
   -1.8730   -0.9989    1.4642 H   0  0  0  0  0  0  0  0  0  0  0  0
   -2.6551   -0.5849   -2.7251 H   0  0  0  0  0  0  0  0  0  0  0  0
   -4.5608   -2.1268   -2.5647 H   0  0  0  0  0  0  0  0  0  0  0  0
  -10.0225   -4.7297    0.6860 C   0  0  0  0  0  0  0  0  0  0  0  0
  -10.9316   -5.1268    1.6626 C   0  0  0  0  0  0  0  0  0  0  0  0
  -11.2980   -6.4749    1.8086 C   0  0  0  0  0  0  0  0  0  0  0  0
  -10.7231   -7.4204    0.9494 C   0  0  0  0  0  0  0  0  0  0  0  0
   -9.8123   -7.0405   -0.0370 C   0  0  0  0  0  0  0  0  0  0  0  0
   -9.4670   -5.6976   -0.1526 C   0  0  0  0  0  0  0  0  0  0  0  0
   -9.7344   -3.6868    0.5947 H   0  0  0  0  0  0  0  0  0  0  0  0
  -11.3612   -4.3812    2.3264 H   0  0  0  0  0  0  0  0  0  0  0  0
  -10.9919   -8.4684    1.0521 H   0  0  0  0  0  0  0  0  0  0  0  0
   -9.3628   -7.7639   -0.7098 H   0  0  0  0  0  0  0  0  0  0  0  0
   -8.3510   -5.2237   -1.4994 S   0  0  1  0  0  0  0  0  0  0  0  0
   -7.1772   -4.6946   -0.3844 O   0  0  0  0  0  0  0  0  0  0  0  0
   -6.3037   -3.4397   -1.9954 O   0  0  0  0  0  0  0  0  0  0  0  0
   -7.9171   -6.4802   -2.1737 O   0  0  0  0  0  0  0  0  0  0  0  0
  -12.3082   -6.8871    2.8521 C   0  0  0  0  0  0  0  0  0  0  0  0
  -12.1872   -6.3129    3.7756 H   0  0  0  0  0  0  0  0  0  0  0  0
  -13.3323   -6.7163    2.4969 H   0  0  0  0  0  0  0  0  0  0  0  0
  -12.2196   -7.9489    3.0977 H   0  0  0  0  0  0  0  0  0  0  0  0
  1  2  1  0  0  0  0
  1  4  2  0  0  0  0
  3 27  1  0  0  0  0
  3  2  1  0  0  0  0
  4 12  1  0  0  0  0
  5  4  1  0  0  0  0
  5 13  1  0  0  0  0
  6  5  2  0  0  0  0
  7  6  1  0  0  0  0
  7  8  2  0  0  0  0
  9  7  2  0  0  0  0
 10 11  2  0  0  0  0
 10  6  1  0  0  0  0
 11  1  1  0  0  0  0
 14 10  1  0  0  0  0
 15 11  1  0  0  0  0
 16 17  2  0  0  0  0
 17 18  1  0  0  0  0
 17 23  1  0  0  0  0
 18 30  1  0  0  0  0
 19 24  1  0  0  0  0
 19 18  2  0  0  0  0
 20 19  1  0  0  0  0
 21 20  2  0  0  0  0
 21 16  1  0  0  0  0
 22 16  1  0  0  0  0
 25 20  1  0  0  0  0
 26 29  1  1  0  0  0
 26 27  1  0  0  0  0
 26 21  1  0  0  0  0
 28  3  1  0  0  0  0
 30 33  1  0  0  0  0
 30 31  1  0  0  0  0
 32 30  1  0  0  0  0
M  RAD  3   2   2  28   2  29   2
M  END
