Coordinates from ORCA-job 4-NO2PhN2+~TsO-_B3LYPG-6-31G_dp-NX-Scan-d89-09-n800
 OpenBabel11261920283D

 33 33  0  0  0  0  0  0  0  0999 V2000
   -4.1900   -2.8283    0.3337 C   0  0  0  0  0  0  0  0  0  0  0  0
   -4.7882   -3.6217    1.3619 N   0  0  0  0  0  0  0  0  0  0  0  0
   -4.7481   -3.8957    2.4539 N   0  0  0  0  0  0  0  0  0  0  0  0
   -3.3031   -1.8388    0.7880 C   0  0  0  0  0  0  0  0  0  0  0  0
   -2.6638   -1.0485   -0.1551 C   0  0  0  0  0  0  0  0  0  0  0  0
   -2.9243   -1.2794   -1.5066 C   0  0  0  0  0  0  0  0  0  0  0  0
   -2.2320   -0.4369   -2.5094 N   0  0  0  0  0  0  0  0  0  0  0  0
   -1.4701    0.4275   -2.0843 O   0  0  0  0  0  0  0  0  0  0  0  0
   -2.4650   -0.6644   -3.6918 O   0  0  0  0  0  0  0  0  0  0  0  0
   -3.8031   -2.2618   -1.9495 C   0  0  0  0  0  0  0  0  0  0  0  0
   -4.4589   -3.0589   -1.0130 C   0  0  0  0  0  0  0  0  0  0  0  0
   -3.1344   -1.6950    1.8489 H   0  0  0  0  0  0  0  0  0  0  0  0
   -1.9755   -0.2644    0.1337 H   0  0  0  0  0  0  0  0  0  0  0  0
   -3.9760   -2.3909   -3.0104 H   0  0  0  0  0  0  0  0  0  0  0  0
   -5.1733   -3.8198   -1.2974 H   0  0  0  0  0  0  0  0  0  0  0  0
   -9.3296   -4.9299    1.9003 C   0  0  0  0  0  0  0  0  0  0  0  0
  -10.3954   -5.7755    2.2008 C   0  0  0  0  0  0  0  0  0  0  0  0
  -11.0407   -6.5137    1.1981 C   0  0  0  0  0  0  0  0  0  0  0  0
  -10.5876   -6.3831   -0.1226 C   0  0  0  0  0  0  0  0  0  0  0  0
   -9.5239   -5.5408   -0.4399 C   0  0  0  0  0  0  0  0  0  0  0  0
   -8.8990   -4.8189    0.5776 C   0  0  0  0  0  0  0  0  0  0  0  0
   -8.8425   -4.3472    2.6746 H   0  0  0  0  0  0  0  0  0  0  0  0
  -10.7366   -5.8603    3.2295 H   0  0  0  0  0  0  0  0  0  0  0  0
  -11.0777   -6.9448   -0.9137 H   0  0  0  0  0  0  0  0  0  0  0  0
   -9.1837   -5.4272   -1.4633 H   0  0  0  0  0  0  0  0  0  0  0  0
   -7.5150   -3.7517    0.1829 S   0  0  0  0  0  0  0  0  0  0  0  0
   -6.2864   -4.6866    0.3732 O   0  0  0  0  0  0  0  0  0  0  0  0
   -7.4678   -2.6661    1.1859 O   0  0  0  0  0  0  0  0  0  0  0  0
   -7.6433   -3.3599   -1.2348 O   0  0  0  0  0  0  0  0  0  0  0  0
  -12.2184   -7.4001    1.5268 C   0  0  0  0  0  0  0  0  0  0  0  0
  -12.1717   -7.7630    2.5576 H   0  0  0  0  0  0  0  0  0  0  0  0
  -13.1637   -6.8538    1.4164 H   0  0  0  0  0  0  0  0  0  0  0  0
  -12.2658   -8.2677    0.8624 H   0  0  0  0  0  0  0  0  0  0  0  0
  1  4  1  0  0  0  0
  1  2  1  0  0  0  0
  2  3  2  0  0  0  0
  4 12  1  0  0  0  0
  5 13  1  0  0  0  0
  5  4  2  0  0  0  0
  6  5  1  0  0  0  0
  7  8  2  0  0  0  0
  7  6  1  0  0  0  0
  9  7  2  0  0  0  0
 10  6  2  0  0  0  0
 10 11  1  0  0  0  0
 11  1  2  0  0  0  0
 14 10  1  0  0  0  0
 15 11  1  0  0  0  0
 16 17  1  0  0  0  0
 16 22  1  0  0  0  0
 17 23  1  0  0  0  0
 18 30  1  0  0  0  0
 18 17  2  0  0  0  0
 19 18  1  0  0  0  0
 20 19  2  0  0  0  0
 20 21  1  0  0  0  0
 21 16  2  0  0  0  0
 24 19  1  0  0  0  0
 25 20  1  0  0  0  0
 26 27  2  0  0  0  0
 26 21  1  0  0  0  0
 26 28  1  0  0  0  0
 29 26  2  0  0  0  0
 30 31  1  0  0  0  0
 32 30  1  0  0  0  0
 33 30  1  0  0  0  0
M  RAD  2   3   2  28   2
M  END
