Coordinates from ORCA-job 4-NO2PhN2+~TsO-_B3LYPG-6-31G_dp-NX-Scan-d89-09-n800
 OpenBabel11261920283D

 33 33  0  0  0  0  0  0  0  0999 V2000
   -4.7777   -0.6713    0.6348 C   0  0  0  0  0  0  0  0  0  0  0  0
   -5.5567    0.2508    1.2892 N   0  0  0  0  0  0  0  0  0  0  0  0
   -6.1850    0.9948    1.8405 N   0  0  0  0  0  0  0  0  0  0  0  0
   -3.3698   -0.5227    0.7124 C   0  0  0  0  0  0  0  0  0  0  0  0
   -2.6081   -1.4624    0.0512 C   0  0  0  0  0  0  0  0  0  0  0  0
   -3.2565   -2.5018   -0.6387 C   0  0  0  0  0  0  0  0  0  0  0  0
   -2.4005   -3.5041   -1.3229 N   0  0  0  0  0  0  0  0  0  0  0  0
   -1.1839   -3.3444   -1.2373 O   0  0  0  0  0  0  0  0  0  0  0  0
   -2.9659   -4.4133   -1.9144 O   0  0  0  0  0  0  0  0  0  0  0  0
   -4.6368   -2.6401   -0.7054 C   0  0  0  0  0  0  0  0  0  0  0  0
   -5.4409   -1.6941   -0.0654 C   0  0  0  0  0  0  0  0  0  0  0  0
   -2.9191    0.2916    1.2681 H   0  0  0  0  0  0  0  0  0  0  0  0
   -1.5260   -1.4231    0.0567 H   0  0  0  0  0  0  0  0  0  0  0  0
   -5.1339   -3.4394   -1.2481 H   0  0  0  0  0  0  0  0  0  0  0  0
   -6.5448   -1.7724   -0.0874 H   0  0  0  0  0  0  0  0  0  0  0  0
   -9.8374   -4.5953    0.9645 C   0  0  0  0  0  0  0  0  0  0  0  0
  -10.2963   -5.7691    1.5593 C   0  0  0  0  0  0  0  0  0  0  0  0
   -9.9947   -7.0248    1.0129 C   0  0  0  0  0  0  0  0  0  0  0  0
   -9.2182   -7.0716   -0.1530 C   0  0  0  0  0  0  0  0  0  0  0  0
   -8.7524   -5.9045   -0.7569 C   0  0  0  0  0  0  0  0  0  0  0  0
   -9.0642   -4.6652   -0.1959 C   0  0  0  0  0  0  0  0  0  0  0  0
  -10.0674   -3.6265    1.3948 H   0  0  0  0  0  0  0  0  0  0  0  0
  -10.8977   -5.7111    2.4636 H   0  0  0  0  0  0  0  0  0  0  0  0
   -8.9747   -8.0354   -0.5939 H   0  0  0  0  0  0  0  0  0  0  0  0
   -8.1458   -5.9430   -1.6553 H   0  0  0  0  0  0  0  0  0  0  0  0
   -8.5256   -3.1554   -1.0149 S   0  0  0  0  0  0  0  0  0  0  0  0
   -8.2558   -2.1877    0.1180 O   0  0  0  0  0  0  0  0  0  0  0  0
   -9.6243   -2.7234   -1.9005 O   0  0  0  0  0  0  0  0  0  0  0  0
   -7.2582   -3.5163   -1.7225 O   0  0  0  0  0  0  0  0  0  0  0  0
  -10.4684   -8.2946    1.6805 C   0  0  0  0  0  0  0  0  0  0  0  0
   -9.7401   -8.6510    2.4206 H   0  0  0  0  0  0  0  0  0  0  0  0
  -11.4155   -8.1410    2.2069 H   0  0  0  0  0  0  0  0  0  0  0  0
  -10.6125   -9.0993    0.9530 H   0  0  0  0  0  0  0  0  0  0  0  0
  1  4  1  0  0  0  0
  1  2  1  0  0  0  0
  2  3  1  0  0  0  0
  4 12  1  0  0  0  0
  5 13  1  0  0  0  0
  5  4  2  0  0  0  0
  6  5  1  0  0  0  0
  7  8  2  0  0  0  0
  7  6  1  0  0  0  0
  9  7  2  0  0  0  0
 10  6  2  0  0  0  0
 10 11  1  0  0  0  0
 11  1  2  0  0  0  0
 14 10  1  0  0  0  0
 15 11  1  0  0  0  0
 16 22  1  0  0  0  0
 16 17  2  0  0  0  0
 17 23  1  0  0  0  0
 18 17  1  0  0  0  0
 18 30  1  0  0  0  0
 19 18  2  0  0  0  0
 20 21  2  0  0  0  0
 20 19  1  0  0  0  0
 21 16  1  0  0  0  0
 24 19  1  0  0  0  0
 25 20  1  0  0  0  0
 26 21  1  0  0  0  0
 26 27  1  0  0  0  0
 28 26  2  0  0  0  0
 29 26  2  0  0  0  0
 30 32  1  0  0  0  0
 30 31  1  0  0  0  0
 33 30  1  0  0  0  0
M  RAD  3   2   2   3   3  27   2
M  END
