Coordinates from ORCA-job 4-NO2PhN2+~TsO-_B3LYPG-6-31G_dp-NX-Scan-d89-09-n800
 OpenBabel11261920283D

 33 33  0  0  0  0  0  0  0  0999 V2000
   -4.1977   -2.8096    0.3337 C   0  0  0  0  0  0  0  0  0  0  0  0
   -4.8104   -3.5869    1.3655 N   0  0  0  0  0  0  0  0  0  0  0  0
   -4.7872   -3.8443    2.4619 N   0  0  0  0  0  0  0  0  0  0  0  0
   -3.2979   -1.8301    0.7843 C   0  0  0  0  0  0  0  0  0  0  0  0
   -2.6462   -1.0536   -0.1617 C   0  0  0  0  0  0  0  0  0  0  0  0
   -2.9081   -1.2874   -1.5124 C   0  0  0  0  0  0  0  0  0  0  0  0
   -2.2028   -0.4595   -2.5184 N   0  0  0  0  0  0  0  0  0  0  0  0
   -1.4293    0.3960   -2.0963 O   0  0  0  0  0  0  0  0  0  0  0  0
   -2.4376   -0.6893   -3.7000 O   0  0  0  0  0  0  0  0  0  0  0  0
   -3.8000   -2.2596   -1.9518 C   0  0  0  0  0  0  0  0  0  0  0  0
   -4.4678   -3.0432   -1.0124 C   0  0  0  0  0  0  0  0  0  0  0  0
   -3.1288   -1.6832    1.8447 H   0  0  0  0  0  0  0  0  0  0  0  0
   -1.9472   -0.2779    0.1242 H   0  0  0  0  0  0  0  0  0  0  0  0
   -3.9730   -2.3915   -3.0123 H   0  0  0  0  0  0  0  0  0  0  0  0
   -5.1916   -3.7965   -1.2935 H   0  0  0  0  0  0  0  0  0  0  0  0
   -9.3308   -4.9428    1.9072 C   0  0  0  0  0  0  0  0  0  0  0  0
  -10.3914   -5.7961    2.2043 C   0  0  0  0  0  0  0  0  0  0  0  0
  -11.0396   -6.5255    1.1971 C   0  0  0  0  0  0  0  0  0  0  0  0
  -10.5949   -6.3780   -0.1247 C   0  0  0  0  0  0  0  0  0  0  0  0
   -9.5364   -5.5277   -0.4386 C   0  0  0  0  0  0  0  0  0  0  0  0
   -8.9085   -4.8149    0.5834 C   0  0  0  0  0  0  0  0  0  0  0  0
   -8.8416   -4.3669    2.6853 H   0  0  0  0  0  0  0  0  0  0  0  0
  -10.7261   -5.8941    3.2339 H   0  0  0  0  0  0  0  0  0  0  0  0
  -11.0874   -6.9327   -0.9193 H   0  0  0  0  0  0  0  0  0  0  0  0
   -9.2028   -5.4010   -1.4626 H   0  0  0  0  0  0  0  0  0  0  0  0
   -7.5312   -3.7375    0.1928 S   0  0  0  0  0  0  0  0  0  0  0  0
   -6.2971   -4.6673    0.3701 O   0  0  0  0  0  0  0  0  0  0  0  0
   -7.4854   -2.6610    1.2058 O   0  0  0  0  0  0  0  0  0  0  0  0
   -7.6668   -3.3332   -1.2206 O   0  0  0  0  0  0  0  0  0  0  0  0
  -12.2118   -7.4203    1.5227 C   0  0  0  0  0  0  0  0  0  0  0  0
  -12.1566   -7.7959    2.5486 H   0  0  0  0  0  0  0  0  0  0  0  0
  -13.1599   -6.8761    1.4257 H   0  0  0  0  0  0  0  0  0  0  0  0
  -12.2608   -8.2798    0.8479 H   0  0  0  0  0  0  0  0  0  0  0  0
  1  4  1  0  0  0  0
  1  2  1  0  0  0  0
  2  3  2  0  0  0  0
  4 12  1  0  0  0  0
  5 13  1  0  0  0  0
  5  4  2  0  0  0  0
  6  5  1  0  0  0  0
  7  8  2  0  0  0  0
  7  6  1  0  0  0  0
  9  7  2  0  0  0  0
 10  6  2  0  0  0  0
 10 11  1  0  0  0  0
 11  1  2  0  0  0  0
 14 10  1  0  0  0  0
 15 11  1  0  0  0  0
 16 17  1  0  0  0  0
 16 22  1  0  0  0  0
 17 23  1  0  0  0  0
 18 30  1  0  0  0  0
 18 17  2  0  0  0  0
 19 18  1  0  0  0  0
 20 19  2  0  0  0  0
 20 21  1  0  0  0  0
 21 16  2  0  0  0  0
 24 19  1  0  0  0  0
 25 20  1  0  0  0  0
 26 27  2  0  0  0  0
 26 21  1  0  0  0  0
 26 28  1  0  0  0  0
 29 26  2  0  0  0  0
 30 31  1  0  0  0  0
 32 30  1  0  0  0  0
 33 30  1  0  0  0  0
M  RAD  2   3   2  28   2
M  END
