Coordinates from ORCA-job 4-NO2PhN2+~TsO-_B3LYPG-6-31G_dp-NX-Scan-d89-09-n800
 OpenBabel11261920283D

 33 33  0  0  0  0  0  0  0  0999 V2000
   -4.6258   -0.8183    1.2727 C   0  0  0  0  0  0  0  0  0  0  0  0
   -5.0208   -0.0984    2.3735 N   0  0  0  0  0  0  0  0  0  0  0  0
   -5.2207    0.5078    3.2996 N   0  0  0  0  0  0  0  0  0  0  0  0
   -3.2181   -0.8913    1.0934 C   0  0  0  0  0  0  0  0  0  0  0  0
   -2.7471   -1.6020    0.0109 C   0  0  0  0  0  0  0  0  0  0  0  0
   -3.6702   -2.1995   -0.8571 C   0  0  0  0  0  0  0  0  0  0  0  0
   -3.1165   -2.9281   -2.0255 N   0  0  0  0  0  0  0  0  0  0  0  0
   -1.9413   -3.2874   -1.9355 O   0  0  0  0  0  0  0  0  0  0  0  0
   -3.8585   -3.0972   -2.9783 O   0  0  0  0  0  0  0  0  0  0  0  0
   -5.0523   -2.1416   -0.6875 C   0  0  0  0  0  0  0  0  0  0  0  0
   -5.5601   -1.4348    0.4040 C   0  0  0  0  0  0  0  0  0  0  0  0
   -2.5475   -0.4039    1.7916 H   0  0  0  0  0  0  0  0  0  0  0  0
   -1.6864   -1.7120   -0.1779 H   0  0  0  0  0  0  0  0  0  0  0  0
   -5.7407   -2.6858   -1.3550 H   0  0  0  0  0  0  0  0  0  0  0  0
   -6.6410   -1.4008    0.5359 H   0  0  0  0  0  0  0  0  0  0  0  0
  -10.0193   -4.6632    0.1965 C   0  0  0  0  0  0  0  0  0  0  0  0
  -10.5582   -5.6386    1.0324 C   0  0  0  0  0  0  0  0  0  0  0  0
   -9.9617   -6.9029    1.1497 C   0  0  0  0  0  0  0  0  0  0  0  0
   -8.8025   -7.1629    0.4014 C   0  0  0  0  0  0  0  0  0  0  0  0
   -8.2551   -6.1952   -0.4375 C   0  0  0  0  0  0  0  0  0  0  0  0
   -8.8648   -4.9418   -0.5419 C   0  0  0  0  0  0  0  0  0  0  0  0
  -10.4825   -3.6854    0.1134 H   0  0  0  0  0  0  0  0  0  0  0  0
  -11.4590   -5.4203    1.6012 H   0  0  0  0  0  0  0  0  0  0  0  0
   -8.3264   -8.1382    0.4766 H   0  0  0  0  0  0  0  0  0  0  0  0
   -7.3582   -6.3899   -1.0154 H   0  0  0  0  0  0  0  0  0  0  0  0
   -8.2056   -3.6992   -1.6685 S   0  0  0  0  0  0  0  0  0  0  0  0
   -8.2304   -2.4240   -0.8693 O   0  0  0  0  0  0  0  0  0  0  0  0
   -9.1001   -3.7169   -2.8501 O   0  0  0  0  0  0  0  0  0  0  0  0
   -6.7975   -4.1355   -1.9436 O   0  0  0  0  0  0  0  0  0  0  0  0
  -10.5365   -7.9550    2.0677 C   0  0  0  0  0  0  0  0  0  0  0  0
   -9.9171   -8.0840    2.9643 H   0  0  0  0  0  0  0  0  0  0  0  0
  -11.5438   -7.6900    2.3995 H   0  0  0  0  0  0  0  0  0  0  0  0
  -10.5891   -8.9309    1.5732 H   0  0  0  0  0  0  0  0  0  0  0  0
  1  2  1  0  0  0  0
  2  3  1  0  0  0  0
  4  1  1  0  0  0  0
  4 12  1  0  0  0  0
  5  4  2  0  0  0  0
  6 10  2  0  0  0  0
  6  5  1  0  0  0  0
  7  8  2  0  0  0  0
  7  6  1  0  0  0  0
  9  7  2  0  0  0  0
 10 11  1  0  0  0  0
 11 15  1  0  0  0  0
 11  1  2  0  0  0  0
 13  5  1  0  0  0  0
 14 10  1  0  0  0  0
 16 17  2  0  0  0  0
 17 18  1  0  0  0  0
 17 23  1  0  0  0  0
 18 30  1  0  0  0  0
 19 24  1  0  0  0  0
 19 18  2  0  0  0  0
 20 19  1  0  0  0  0
 21 20  2  0  0  0  0
 21 16  1  0  0  0  0
 22 16  1  0  0  0  0
 25 20  1  0  0  0  0
 26 27  1  0  0  0  0
 26 21  1  0  0  0  0
 28 26  2  0  0  0  0
 29 26  2  0  0  0  0
 30 32  1  0  0  0  0
 30 31  1  0  0  0  0
 33 30  1  0  0  0  0
M  RAD  3   2   2   3   3  27   2
M  END
