Coordinates from ORCA-job 4-NO2PhN2+~TsO-_B3LYPG-6-31G_dp-NX-Scan-d89-09-n800
 OpenBabel11261920283D

 33 34  0  0  0  0  0  0  0  0999 V2000
   -4.4860   -2.9301    0.3135 C   0  0  0  0  0  0  0  0  0  0  0  0
   -4.9937   -3.9321    1.1956 N   0  0  0  0  0  0  0  0  0  0  0  0
   -5.7007   -4.8870    0.8236 N   0  0  0  0  0  0  0  0  0  0  0  0
   -4.4953   -1.6284    0.8393 C   0  0  0  0  0  0  0  0  0  0  0  0
   -3.9543   -0.5719    0.1177 C   0  0  0  0  0  0  0  0  0  0  0  0
   -3.3637   -0.8416   -1.1158 C   0  0  0  0  0  0  0  0  0  0  0  0
   -2.7750    0.2673   -1.8814 N   0  0  0  0  0  0  0  0  0  0  0  0
   -2.8436    1.3955   -1.3943 O   0  0  0  0  0  0  0  0  0  0  0  0
   -2.2512    0.0000   -2.9622 O   0  0  0  0  0  0  0  0  0  0  0  0
   -3.3057   -2.1317   -1.6412 C   0  0  0  0  0  0  0  0  0  0  0  0
   -3.8765   -3.1801   -0.9285 C   0  0  0  0  0  0  0  0  0  0  0  0
   -4.9334   -1.4661    1.8178 H   0  0  0  0  0  0  0  0  0  0  0  0
   -3.9651    0.4430    0.4948 H   0  0  0  0  0  0  0  0  0  0  0  0
   -2.8285   -2.2945   -2.5989 H   0  0  0  0  0  0  0  0  0  0  0  0
   -3.8443   -4.1836   -1.3325 H   0  0  0  0  0  0  0  0  0  0  0  0
   -8.5679   -6.5194    1.3799 C   0  0  0  0  0  0  0  0  0  0  0  0
   -9.7476   -6.2891    2.0833 C   0  0  0  0  0  0  0  0  0  0  0  0
  -10.8148   -5.5864    1.5045 C   0  0  0  0  0  0  0  0  0  0  0  0
  -10.6782   -5.1183    0.1876 C   0  0  0  0  0  0  0  0  0  0  0  0
   -9.5092   -5.3326   -0.5354 C   0  0  0  0  0  0  0  0  0  0  0  0
   -8.4653   -6.0343    0.0744 C   0  0  0  0  0  0  0  0  0  0  0  0
   -7.7459   -7.0684    1.8238 H   0  0  0  0  0  0  0  0  0  0  0  0
   -9.8422   -6.6653    3.0975 H   0  0  0  0  0  0  0  0  0  0  0  0
  -11.5014   -4.5839   -0.2784 H   0  0  0  0  0  0  0  0  0  0  0  0
   -9.4066   -4.9810   -1.5557 H   0  0  0  0  0  0  0  0  0  0  0  0
   -6.9771   -6.3223   -0.8441 S   0  0  0  0  0  0  0  0  0  0  0  0
   -6.2676   -7.4743   -0.3152 O   0  0  0  0  0  0  0  0  0  0  0  0
   -6.0147   -4.9115   -0.4381 O   0  0  0  0  0  0  0  0  0  0  0  0
   -7.1936   -6.0959   -2.2623 O   0  0  0  0  0  0  0  0  0  0  0  0
  -12.0790   -5.3202    2.2833 C   0  0  0  0  0  0  0  0  0  0  0  0
  -12.1854   -6.0091    3.1247 H   0  0  0  0  0  0  0  0  0  0  0  0
  -12.0761   -4.3013    2.6890 H   0  0  0  0  0  0  0  0  0  0  0  0
  -12.9653   -5.4126    1.6483 H   0  0  0  0  0  0  0  0  0  0  0  0
  1  4  1  0  0  0  0
  1  2  1  0  0  0  0
  3  2  2  0  0  0  0
  4 12  1  0  0  0  0
  5 13  1  0  0  0  0
  5  4  2  0  0  0  0
  6  5  1  0  0  0  0
  7  8  2  0  0  0  0
  7  6  1  0  0  0  0
  9  7  2  0  0  0  0
 10  6  2  0  0  0  0
 10 11  1  0  0  0  0
 11  1  2  0  0  0  0
 14 10  1  0  0  0  0
 15 11  1  0  0  0  0
 16 22  1  0  0  0  0
 16 17  2  0  0  0  0
 17 23  1  0  0  0  0
 18 17  1  0  0  0  0
 18 30  1  0  0  0  0
 19 18  2  0  0  0  0
 20 21  2  0  0  0  0
 20 19  1  0  0  0  0
 21 16  1  0  0  0  0
 24 19  1  0  0  0  0
 25 20  1  0  0  0  0
 26 28  1  0  0  0  0
 26 27  2  0  0  0  0
 26 21  1  0  0  0  0
 28  3  1  0  0  0  0
 29 26  2  0  0  0  0
 30 32  1  0  0  0  0
 30 31  1  0  0  0  0
 33 30  1  0  0  0  0
M  END
