Coordinates from ORCA-job 4-NO2PhN2+~TsO-_B3LYPG-6-31G_dp-NX-Scan-d89-09-n800
 OpenBabel11261920283D

 33 33  0  0  0  0  0  0  0  0999 V2000
   -4.6636   -0.8375    1.1732 C   0  0  0  0  0  0  0  0  0  0  0  0
   -5.1596   -0.1310    2.2405 N   0  0  0  0  0  0  0  0  0  0  0  0
   -5.4689    0.4631    3.1415 N   0  0  0  0  0  0  0  0  0  0  0  0
   -3.2487   -0.8187    1.0457 C   0  0  0  0  0  0  0  0  0  0  0  0
   -2.6964   -1.5218   -0.0024 C   0  0  0  0  0  0  0  0  0  0  0  0
   -3.5486   -2.2111   -0.8775 C   0  0  0  0  0  0  0  0  0  0  0  0
   -2.9072   -2.9540   -1.9952 N   0  0  0  0  0  0  0  0  0  0  0  0
   -1.6797   -3.0501   -1.9557 O   0  0  0  0  0  0  0  0  0  0  0  0
   -3.6403   -3.4026   -2.8610 O   0  0  0  0  0  0  0  0  0  0  0  0
   -4.9346   -2.2362   -0.7562 C   0  0  0  0  0  0  0  0  0  0  0  0
   -5.5277   -1.5272    0.2926 C   0  0  0  0  0  0  0  0  0  0  0  0
   -2.6360   -0.2717    1.7530 H   0  0  0  0  0  0  0  0  0  0  0  0
   -1.6258   -1.5593   -0.1601 H   0  0  0  0  0  0  0  0  0  0  0  0
   -5.5837   -2.8281   -1.4247 H   0  0  0  0  0  0  0  0  0  0  0  0
   -6.6194   -1.5630    0.3703 H   0  0  0  0  0  0  0  0  0  0  0  0
  -10.0168   -4.6288    0.3391 C   0  0  0  0  0  0  0  0  0  0  0  0
  -10.5588   -5.6372    1.1324 C   0  0  0  0  0  0  0  0  0  0  0  0
  -10.0030   -6.9254    1.1474 C   0  0  0  0  0  0  0  0  0  0  0  0
   -8.8832   -7.1753    0.3396 C   0  0  0  0  0  0  0  0  0  0  0  0
   -8.3325   -6.1743   -0.4582 C   0  0  0  0  0  0  0  0  0  0  0  0
   -8.9009   -4.8981   -0.4595 C   0  0  0  0  0  0  0  0  0  0  0  0
  -10.4490   -3.6334    0.3344 H   0  0  0  0  0  0  0  0  0  0  0  0
  -11.4302   -5.4263    1.7479 H   0  0  0  0  0  0  0  0  0  0  0  0
   -8.4403   -8.1689    0.3343 H   0  0  0  0  0  0  0  0  0  0  0  0
   -7.4662   -6.3620   -1.0831 H   0  0  0  0  0  0  0  0  0  0  0  0
   -8.2422   -3.6100   -1.5333 S   0  0  0  0  0  0  0  0  0  0  0  0
   -8.1767   -2.3918   -0.6461 O   0  0  0  0  0  0  0  0  0  0  0  0
   -9.1891   -3.4927   -2.6633 O   0  0  0  0  0  0  0  0  0  0  0  0
   -6.8722   -4.0865   -1.9099 O   0  0  0  0  0  0  0  0  0  0  0  0
  -10.5780   -8.0110    2.0258 C   0  0  0  0  0  0  0  0  0  0  0  0
   -9.9850   -8.1397    2.9402 H   0  0  0  0  0  0  0  0  0  0  0  0
  -11.6021   -7.7789    2.3311 H   0  0  0  0  0  0  0  0  0  0  0  0
  -10.5884   -8.9777    1.5118 H   0  0  0  0  0  0  0  0  0  0  0  0
  1  2  1  0  0  0  0
  2  3  1  0  0  0  0
  4  1  1  0  0  0  0
  4 12  1  0  0  0  0
  5  4  2  0  0  0  0
  6 10  2  0  0  0  0
  6  5  1  0  0  0  0
  7  8  2  0  0  0  0
  7  6  1  0  0  0  0
  9  7  2  0  0  0  0
 10 11  1  0  0  0  0
 11 15  1  0  0  0  0
 11  1  2  0  0  0  0
 13  5  1  0  0  0  0
 14 10  1  0  0  0  0
 16 17  2  0  0  0  0
 17 18  1  0  0  0  0
 17 23  1  0  0  0  0
 18 30  1  0  0  0  0
 19 18  2  0  0  0  0
 20 19  1  0  0  0  0
 21 20  2  0  0  0  0
 21 16  1  0  0  0  0
 22 16  1  0  0  0  0
 24 19  1  0  0  0  0
 25 20  1  0  0  0  0
 26 27  1  0  0  0  0
 26 21  1  0  0  0  0
 28 26  2  0  0  0  0
 29 26  2  0  0  0  0
 30 32  1  0  0  0  0
 30 31  1  0  0  0  0
 33 30  1  0  0  0  0
M  RAD  3   2   2   3   3  27   2
M  END
