Coordinates from ORCA-job 4-NO2PhN2+~TsO-_B3LYPG-6-31G_dp-NX-Scan-d89-09-n800
 OpenBabel11261920283D

 33 33  0  0  0  0  0  0  0  0999 V2000
   -4.7953   -0.6605    0.6664 C   0  0  0  0  0  0  0  0  0  0  0  0
   -5.5098    0.3100    1.3226 N   0  0  0  0  0  0  0  0  0  0  0  0
   -6.0694    1.1014    1.8834 N   0  0  0  0  0  0  0  0  0  0  0  0
   -3.3825   -0.6236    0.7931 C   0  0  0  0  0  0  0  0  0  0  0  0
   -2.6698   -1.6018    0.1344 C   0  0  0  0  0  0  0  0  0  0  0  0
   -3.3701   -2.5747   -0.6000 C   0  0  0  0  0  0  0  0  0  0  0  0
   -2.5686   -3.6255   -1.2769 N   0  0  0  0  0  0  0  0  0  0  0  0
   -1.3469   -3.5580   -1.1484 O   0  0  0  0  0  0  0  0  0  0  0  0
   -3.1790   -4.4791   -1.9050 O   0  0  0  0  0  0  0  0  0  0  0  0
   -4.7539   -2.6068   -0.7140 C   0  0  0  0  0  0  0  0  0  0  0  0
   -5.5088   -1.6152   -0.0818 C   0  0  0  0  0  0  0  0  0  0  0  0
   -2.8926    0.1406    1.3857 H   0  0  0  0  0  0  0  0  0  0  0  0
   -1.5888   -1.6441    0.1776 H   0  0  0  0  0  0  0  0  0  0  0  0
   -5.2927   -3.3592   -1.2860 H   0  0  0  0  0  0  0  0  0  0  0  0
   -6.6132   -1.6261   -0.1465 H   0  0  0  0  0  0  0  0  0  0  0  0
   -9.8155   -4.5641    0.9125 C   0  0  0  0  0  0  0  0  0  0  0  0
  -10.2202   -5.7410    1.5396 C   0  0  0  0  0  0  0  0  0  0  0  0
   -9.8798   -6.9962    1.0153 C   0  0  0  0  0  0  0  0  0  0  0  0
   -9.1203   -7.0393   -0.1618 C   0  0  0  0  0  0  0  0  0  0  0  0
   -8.7085   -5.8690   -0.7981 C   0  0  0  0  0  0  0  0  0  0  0  0
   -9.0579   -4.6303   -0.2586 C   0  0  0  0  0  0  0  0  0  0  0  0
  -10.0756   -3.5955    1.3256 H   0  0  0  0  0  0  0  0  0  0  0  0
  -10.8095   -5.6858    2.4521 H   0  0  0  0  0  0  0  0  0  0  0  0
   -8.8475   -8.0026   -0.5861 H   0  0  0  0  0  0  0  0  0  0  0  0
   -8.1152   -5.9045   -1.7055 H   0  0  0  0  0  0  0  0  0  0  0  0
   -8.5896   -3.1190   -1.1177 S   0  0  0  0  0  0  0  0  0  0  0  0
   -8.3311   -2.1213   -0.0095 O   0  0  0  0  0  0  0  0  0  0  0  0
   -9.7217   -2.7455   -1.9881 O   0  0  0  0  0  0  0  0  0  0  0  0
   -7.3266   -3.4509   -1.8468 O   0  0  0  0  0  0  0  0  0  0  0  0
  -10.2945   -8.2678    1.7176 C   0  0  0  0  0  0  0  0  0  0  0  0
   -9.5456   -8.5758    2.4588 H   0  0  0  0  0  0  0  0  0  0  0  0
  -11.2425   -8.1407    2.2495 H   0  0  0  0  0  0  0  0  0  0  0  0
  -10.4116   -9.0952    1.0110 H   0  0  0  0  0  0  0  0  0  0  0  0
  1  4  1  0  0  0  0
  1  2  1  0  0  0  0
  2  3  1  0  0  0  0
  4 12  1  0  0  0  0
  5 13  1  0  0  0  0
  5  4  2  0  0  0  0
  6  5  1  0  0  0  0
  7  8  2  0  0  0  0
  7  6  1  0  0  0  0
  9  7  2  0  0  0  0
 10  6  2  0  0  0  0
 10 11  1  0  0  0  0
 11  1  2  0  0  0  0
 14 10  1  0  0  0  0
 15 11  1  0  0  0  0
 16 22  1  0  0  0  0
 16 17  2  0  0  0  0
 17 23  1  0  0  0  0
 18 17  1  0  0  0  0
 18 30  1  0  0  0  0
 19 18  2  0  0  0  0
 20 21  2  0  0  0  0
 20 19  1  0  0  0  0
 21 16  1  0  0  0  0
 24 19  1  0  0  0  0
 25 20  1  0  0  0  0
 26 21  1  0  0  0  0
 26 27  1  0  0  0  0
 28 26  2  0  0  0  0
 29 26  2  0  0  0  0
 30 32  1  0  0  0  0
 30 31  1  0  0  0  0
 33 30  1  0  0  0  0
M  RAD  3   2   2   3   3  27   2
M  END
