Coordinates from ORCA-job 4-NO2PhN2+~TsO-_B3LYPG-6-31G_dp-NX-Scan-d89-09-n800
 OpenBabel11261920283D

 33 33  0  0  0  0  0  0  0  0999 V2000
   -4.4397   -2.2105    0.4314 C   0  0  0  0  0  0  0  0  0  0  0  0
   -5.2617   -2.3992    1.5856 N   0  0  0  0  0  0  0  0  0  0  0  0
   -5.4066   -2.1832    2.6813 N   0  0  0  0  0  0  0  0  0  0  0  0
   -3.0758   -2.0179    0.6928 C   0  0  0  0  0  0  0  0  0  0  0  0
   -2.2286   -1.7856   -0.3822 C   0  0  0  0  0  0  0  0  0  0  0  0
   -2.7776   -1.7392   -1.6630 C   0  0  0  0  0  0  0  0  0  0  0  0
   -1.8708   -1.4864   -2.8066 N   0  0  0  0  0  0  0  0  0  0  0  0
   -0.6802   -1.3239   -2.5525 O   0  0  0  0  0  0  0  0  0  0  0  0
   -2.3719   -1.4560   -3.9257 O   0  0  0  0  0  0  0  0  0  0  0  0
   -4.1357   -1.9181   -1.9109 C   0  0  0  0  0  0  0  0  0  0  0  0
   -4.9980   -2.1725   -0.8458 C   0  0  0  0  0  0  0  0  0  0  0  0
   -2.6974   -2.0572    1.7078 H   0  0  0  0  0  0  0  0  0  0  0  0
   -1.1651   -1.6373   -0.2459 H   0  0  0  0  0  0  0  0  0  0  0  0
   -4.5066   -1.8653   -2.9266 H   0  0  0  0  0  0  0  0  0  0  0  0
   -6.0646   -2.3247   -0.9967 H   0  0  0  0  0  0  0  0  0  0  0  0
   -9.5533   -4.9647    2.0712 C   0  0  0  0  0  0  0  0  0  0  0  0
  -10.3957   -6.0700    2.1761 C   0  0  0  0  0  0  0  0  0  0  0  0
  -10.7853   -6.7952    1.0414 C   0  0  0  0  0  0  0  0  0  0  0  0
  -10.3065   -6.3834   -0.2114 C   0  0  0  0  0  0  0  0  0  0  0  0
   -9.4647   -5.2807   -0.3336 C   0  0  0  0  0  0  0  0  0  0  0  0
   -9.0911   -4.5771    0.8130 C   0  0  0  0  0  0  0  0  0  0  0  0
   -9.2661   -4.3937    2.9474 H   0  0  0  0  0  0  0  0  0  0  0  0
  -10.7613   -6.3721    3.1539 H   0  0  0  0  0  0  0  0  0  0  0  0
  -10.6018   -6.9312   -1.1027 H   0  0  0  0  0  0  0  0  0  0  0  0
   -9.1081   -4.9519   -1.3033 H   0  0  0  0  0  0  0  0  0  0  0  0
   -7.9890   -3.1735    0.6753 S   0  0  0  0  0  0  0  0  0  0  0  0
   -6.5869   -3.8181    0.8065 O   0  0  0  0  0  0  0  0  0  0  0  0
   -8.2473   -2.2651    1.8094 O   0  0  0  0  0  0  0  0  0  0  0  0
   -8.1566   -2.6099   -0.6853 O   0  0  0  0  0  0  0  0  0  0  0  0
  -11.7251   -7.9712    1.1578 C   0  0  0  0  0  0  0  0  0  0  0  0
  -11.7278   -8.3838    2.1706 H   0  0  0  0  0  0  0  0  0  0  0  0
  -12.7554   -7.6763    0.9215 H   0  0  0  0  0  0  0  0  0  0  0  0
  -11.4521   -8.7723    0.4638 H   0  0  0  0  0  0  0  0  0  0  0  0
  1  4  1  0  0  0  0
  1  2  1  0  0  0  0
  2  3  2  0  0  0  0
  4 12  1  0  0  0  0
  5 13  1  0  0  0  0
  5  4  2  0  0  0  0
  6  5  1  0  0  0  0
  7  8  2  0  0  0  0
  7  6  1  0  0  0  0
  9  7  2  0  0  0  0
 10  6  2  0  0  0  0
 10 11  1  0  0  0  0
 11  1  2  0  0  0  0
 14 10  1  0  0  0  0
 15 11  1  0  0  0  0
 16 17  1  0  0  0  0
 16 22  1  0  0  0  0
 17 23  1  0  0  0  0
 18 30  1  0  0  0  0
 18 17  2  0  0  0  0
 19 18  1  0  0  0  0
 20 19  2  0  0  0  0
 20 21  1  0  0  0  0
 21 16  2  0  0  0  0
 24 19  1  0  0  0  0
 25 20  1  0  0  0  0
 26 27  2  0  0  0  0
 26 21  1  0  0  0  0
 26 28  1  0  0  0  0
 29 26  2  0  0  0  0
 30 31  1  0  0  0  0
 32 30  1  0  0  0  0
 33 30  1  0  0  0  0
M  RAD  2   3   2  28   2
M  END
