Coordinates from ORCA-job 4-NO2PhN2+~TsO-_B3LYPG-6-31G_dp-NX-Scan-d89-09-n800
 OpenBabel11261920283D

 33 33  0  0  0  0  0  0  0  0999 V2000
   -5.8185   -2.2839   -0.0270 C   0  0  0  0  0  0  0  0  0  0  0  0
   -7.2295   -2.2440    0.2148 N   0  0  0  0  0  0  0  0  0  0  0  0
   -8.0171   -2.1085    1.0140 N   0  0  0  0  0  0  0  0  0  0  0  0
   -5.0145   -1.8929    1.0551 C   0  0  0  0  0  0  0  0  0  0  0  0
   -3.6362   -1.9290    0.8987 C   0  0  0  0  0  0  0  0  0  0  0  0
   -3.1146   -2.3591   -0.3216 C   0  0  0  0  0  0  0  0  0  0  0  0
   -1.6422   -2.3994   -0.4815 N   0  0  0  0  0  0  0  0  0  0  0  0
   -0.9650   -2.0494    0.4813 O   0  0  0  0  0  0  0  0  0  0  0  0
   -1.2047   -2.7805   -1.5620 O   0  0  0  0  0  0  0  0  0  0  0  0
   -3.9161   -2.7516   -1.3890 C   0  0  0  0  0  0  0  0  0  0  0  0
   -5.3029   -2.7131   -1.2494 C   0  0  0  0  0  0  0  0  0  0  0  0
   -5.4651   -1.5691    1.9861 H   0  0  0  0  0  0  0  0  0  0  0  0
   -2.9661   -1.6339    1.6958 H   0  0  0  0  0  0  0  0  0  0  0  0
   -3.4576   -3.0778   -2.3137 H   0  0  0  0  0  0  0  0  0  0  0  0
   -5.9757   -2.9934   -2.0506 H   0  0  0  0  0  0  0  0  0  0  0  0
  -10.1043   -4.2659    0.2181 C   0  0  0  0  0  0  0  0  0  0  0  0
  -10.2575   -5.0588    1.3558 C   0  0  0  0  0  0  0  0  0  0  0  0
   -9.3939   -6.1330    1.6136 C   0  0  0  0  0  0  0  0  0  0  0  0
   -8.3659   -6.3965    0.6956 C   0  0  0  0  0  0  0  0  0  0  0  0
   -8.1989   -5.6116   -0.4449 C   0  0  0  0  0  0  0  0  0  0  0  0
   -9.0671   -4.5422   -0.6765 C   0  0  0  0  0  0  0  0  0  0  0  0
  -10.7877   -3.4507    0.0071 H   0  0  0  0  0  0  0  0  0  0  0  0
  -11.0654   -4.8453    2.0512 H   0  0  0  0  0  0  0  0  0  0  0  0
   -7.6959   -7.2344    0.8714 H   0  0  0  0  0  0  0  0  0  0  0  0
   -7.4219   -5.8325   -1.1695 H   0  0  0  0  0  0  0  0  0  0  0  0
   -8.8415   -3.4966   -2.1217 S   0  0  0  0  0  0  0  0  0  0  0  0
   -7.9705   -2.2937   -1.6285 O   0  0  0  0  0  0  0  0  0  0  0  0
  -10.1685   -2.9877   -2.4773 O   0  0  0  0  0  0  0  0  0  0  0  0
   -8.0663   -4.2899   -3.0928 O   0  0  0  0  0  0  0  0  0  0  0  0
   -9.5889   -7.0091    2.8284 C   0  0  0  0  0  0  0  0  0  0  0  0
  -10.0519   -6.4566    3.6514 H   0  0  0  0  0  0  0  0  0  0  0  0
  -10.2439   -7.8584    2.5982 H   0  0  0  0  0  0  0  0  0  0  0  0
   -8.6391   -7.4190    3.1841 H   0  0  0  0  0  0  0  0  0  0  0  0
  1  2  1  0  0  0  0
  1  4  2  0  0  0  0
  2  3  2  0  0  0  0
  4 12  1  0  0  0  0
  5  4  1  0  0  0  0
  5 13  1  0  0  0  0
  6  5  2  0  0  0  0
  7  6  1  0  0  0  0
  7  8  2  0  0  0  0
  9  7  2  0  0  0  0
 10 11  2  0  0  0  0
 10  6  1  0  0  0  0
 11  1  1  0  0  0  0
 14 10  1  0  0  0  0
 15 11  1  0  0  0  0
 16 17  2  0  0  0  0
 17 18  1  0  0  0  0
 17 23  1  0  0  0  0
 18 30  1  0  0  0  0
 19 24  1  0  0  0  0
 19 18  2  0  0  0  0
 20 19  1  0  0  0  0
 21 20  2  0  0  0  0
 21 16  1  0  0  0  0
 22 16  1  0  0  0  0
 25 20  1  0  0  0  0
 26 27  1  0  0  0  0
 26 21  1  0  0  0  0
 28 26  2  0  0  0  0
 29 26  2  0  0  0  0
 30 33  1  0  0  0  0
 30 31  1  0  0  0  0
 32 30  1  0  0  0  0
M  RAD  2   3   2  27   2
M  END
