Coordinates from ORCA-job 4-NO2PhN2+~TsO-_B3LYPG-6-31G_dp-NX-Scan-d89-09-n800
 OpenBabel11261920283D

 33 33  0  0  0  0  0  0  0  0999 V2000
   -4.6419   -0.8370    1.0758 C   0  0  0  0  0  0  0  0  0  0  0  0
   -5.2220   -0.1648    2.1234 N   0  0  0  0  0  0  0  0  0  0  0  0
   -5.6195    0.4003    3.0063 N   0  0  0  0  0  0  0  0  0  0  0  0
   -3.2340   -0.6898    0.9582 C   0  0  0  0  0  0  0  0  0  0  0  0
   -2.6131   -1.3592   -0.0734 C   0  0  0  0  0  0  0  0  0  0  0  0
   -3.3925   -2.1504   -0.9324 C   0  0  0  0  0  0  0  0  0  0  0  0
   -2.6793   -2.8675   -2.0237 N   0  0  0  0  0  0  0  0  0  0  0  0
   -1.4569   -2.7269   -2.0664 O   0  0  0  0  0  0  0  0  0  0  0  0
   -3.3555   -3.5360   -2.7894 O   0  0  0  0  0  0  0  0  0  0  0  0
   -4.7694   -2.2979   -0.8147 C   0  0  0  0  0  0  0  0  0  0  0  0
   -5.4362   -1.6163    0.2093 C   0  0  0  0  0  0  0  0  0  0  0  0
   -2.6783   -0.0755    1.6574 H   0  0  0  0  0  0  0  0  0  0  0  0
   -1.5439   -1.2952   -0.2306 H   0  0  0  0  0  0  0  0  0  0  0  0
   -5.3709   -2.9476   -1.4664 H   0  0  0  0  0  0  0  0  0  0  0  0
   -6.5312   -1.7392    0.2715 H   0  0  0  0  0  0  0  0  0  0  0  0
  -10.0442   -4.6420    0.4710 C   0  0  0  0  0  0  0  0  0  0  0  0
  -10.6256   -5.6723    1.2057 C   0  0  0  0  0  0  0  0  0  0  0  0
  -10.1210   -6.9802    1.1452 C   0  0  0  0  0  0  0  0  0  0  0  0
   -9.0121   -7.2267    0.3222 C   0  0  0  0  0  0  0  0  0  0  0  0
   -8.4217   -6.2036   -0.4175 C   0  0  0  0  0  0  0  0  0  0  0  0
   -8.9395   -4.9086   -0.3437 C   0  0  0  0  0  0  0  0  0  0  0  0
  -10.4364   -3.6317    0.5251 H   0  0  0  0  0  0  0  0  0  0  0  0
  -11.4882   -5.4628    1.8341 H   0  0  0  0  0  0  0  0  0  0  0  0
   -8.6088   -8.2350    0.2586 H   0  0  0  0  0  0  0  0  0  0  0  0
   -7.5632   -6.3895   -1.0535 H   0  0  0  0  0  0  0  0  0  0  0  0
   -8.2334   -3.5897   -1.3466 S   0  0  0  0  0  0  0  0  0  0  0  0
   -8.1432   -2.4194   -0.3938 O   0  0  0  0  0  0  0  0  0  0  0  0
   -9.1671   -3.3736   -2.4708 O   0  0  0  0  0  0  0  0  0  0  0  0
   -6.8778   -4.0883   -1.7388 O   0  0  0  0  0  0  0  0  0  0  0  0
  -10.7381   -8.0898    1.9633 C   0  0  0  0  0  0  0  0  0  0  0  0
  -10.1821   -8.2541    2.8950 H   0  0  0  0  0  0  0  0  0  0  0  0
  -11.7712   -7.8583    2.2376 H   0  0  0  0  0  0  0  0  0  0  0  0
  -10.7365   -9.0383    1.4166 H   0  0  0  0  0  0  0  0  0  0  0  0
  1  2  1  0  0  0  0
  2  3  1  0  0  0  0
  4  1  1  0  0  0  0
  4 12  1  0  0  0  0
  5  4  2  0  0  0  0
  6 10  2  0  0  0  0
  6  5  1  0  0  0  0
  7  6  1  0  0  0  0
  8  7  2  0  0  0  0
  9  7  2  0  0  0  0
 10 11  1  0  0  0  0
 11 15  1  0  0  0  0
 11  1  2  0  0  0  0
 13  5  1  0  0  0  0
 14 10  1  0  0  0  0
 16 22  1  0  0  0  0
 16 17  2  0  0  0  0
 17 23  1  0  0  0  0
 18 17  1  0  0  0  0
 18 30  1  0  0  0  0
 19 18  2  0  0  0  0
 20 21  2  0  0  0  0
 20 19  1  0  0  0  0
 21 16  1  0  0  0  0
 24 19  1  0  0  0  0
 25 20  1  0  0  0  0
 26 27  1  0  0  0  0
 26 21  1  0  0  0  0
 28 26  2  0  0  0  0
 29 26  2  0  0  0  0
 30 32  1  0  0  0  0
 30 31  1  0  0  0  0
 33 30  1  0  0  0  0
M  RAD  3   2   2   3   3  27   2
M  END
