Coordinates from ORCA-job 4-NO2PhN2+~TsO-_B3LYPG-6-31G_dp-NX-Scan-d89-09-n800
 OpenBabel11261920283D

 33 33  0  0  0  0  0  0  0  0999 V2000
   -4.7562   -2.6026    0.2613 C   0  0  0  0  0  0  0  0  0  0  0  0
   -5.7491   -3.3140    1.0045 N   0  0  0  0  0  0  0  0  0  0  0  0
   -6.0137   -3.8289    1.9717 N   0  0  0  0  0  0  0  0  0  0  0  0
   -4.0310   -1.6423    0.9763 C   0  0  0  0  0  0  0  0  0  0  0  0
   -3.0243   -0.9582    0.3049 C   0  0  0  0  0  0  0  0  0  0  0  0
   -2.7781   -1.2747   -1.0297 C   0  0  0  0  0  0  0  0  0  0  0  0
   -1.6954   -0.5500   -1.7336 N   0  0  0  0  0  0  0  0  0  0  0  0
   -1.0850    0.3036   -1.0954 O   0  0  0  0  0  0  0  0  0  0  0  0
   -1.4826   -0.8555   -2.9024 O   0  0  0  0  0  0  0  0  0  0  0  0
   -3.5029   -2.2400   -1.7264 C   0  0  0  0  0  0  0  0  0  0  0  0
   -4.5317   -2.9176   -1.0778 C   0  0  0  0  0  0  0  0  0  0  0  0
   -4.2568   -1.4338    2.0155 H   0  0  0  0  0  0  0  0  0  0  0  0
   -2.4327   -0.1958    0.7952 H   0  0  0  0  0  0  0  0  0  0  0  0
   -3.2670   -2.4430   -2.7630 H   0  0  0  0  0  0  0  0  0  0  0  0
   -5.1442   -3.6715   -1.5688 H   0  0  0  0  0  0  0  0  0  0  0  0
   -9.7914   -4.3286    0.7827 C   0  0  0  0  0  0  0  0  0  0  0  0
  -10.6481   -5.0699    1.5931 C   0  0  0  0  0  0  0  0  0  0  0  0
  -10.6738   -6.4714    1.5325 C   0  0  0  0  0  0  0  0  0  0  0  0
   -9.8046   -7.1139    0.6404 C   0  0  0  0  0  0  0  0  0  0  0  0
   -8.9401   -6.3858   -0.1766 C   0  0  0  0  0  0  0  0  0  0  0  0
   -8.9364   -4.9925   -0.1012 C   0  0  0  0  0  0  0  0  0  0  0  0
   -9.7724   -3.2451    0.8400 H   0  0  0  0  0  0  0  0  0  0  0  0
  -11.3079   -4.5529    2.2856 H   0  0  0  0  0  0  0  0  0  0  0  0
   -9.8026   -8.2002    0.5852 H   0  0  0  0  0  0  0  0  0  0  0  0
   -8.2609   -6.8843   -0.8594 H   0  0  0  0  0  0  0  0  0  0  0  0
   -7.8725   -4.0502   -1.1972 S   0  0  0  0  0  0  0  0  0  0  0  0
   -7.3445   -2.8970   -0.3091 O   0  0  0  0  0  0  0  0  0  0  0  0
   -8.6922   -3.5082   -2.2916 O   0  0  0  0  0  0  0  0  0  0  0  0
   -6.7566   -4.9587   -1.5664 O   0  0  0  0  0  0  0  0  0  0  0  0
  -11.6314   -7.2647    2.3902 C   0  0  0  0  0  0  0  0  0  0  0  0
  -11.8166   -6.7705    3.3486 H   0  0  0  0  0  0  0  0  0  0  0  0
  -12.6019   -7.3799    1.8915 H   0  0  0  0  0  0  0  0  0  0  0  0
  -11.2498   -8.2692    2.5941 H   0  0  0  0  0  0  0  0  0  0  0  0
  1  4  2  0  0  0  0
  1  2  1  0  0  0  0
  2  3  2  0  0  0  0
  4 12  1  0  0  0  0
  5 13  1  0  0  0  0
  5  4  1  0  0  0  0
  6  5  2  0  0  0  0
  7  8  2  0  0  0  0
  7  6  1  0  0  0  0
  9  7  2  0  0  0  0
 10 11  2  0  0  0  0
 10  6  1  0  0  0  0
 11  1  1  0  0  0  0
 14 10  1  0  0  0  0
 15 11  1  0  0  0  0
 16 22  1  0  0  0  0
 16 17  2  0  0  0  0
 17 23  1  0  0  0  0
 18 17  1  0  0  0  0
 18 30  1  0  0  0  0
 19 18  2  0  0  0  0
 20 21  2  0  0  0  0
 20 19  1  0  0  0  0
 21 16  1  0  0  0  0
 24 19  1  0  0  0  0
 25 20  1  0  0  0  0
 26 27  1  0  0  0  0
 26 21  1  0  0  0  0
 28 26  2  0  0  0  0
 29 26  2  0  0  0  0
 30 33  1  0  0  0  0
 30 31  1  0  0  0  0
 32 30  1  0  0  0  0
M  RAD  2   3   2  27   2
M  END
