Coordinates from ORCA-job 4-NO2PhN2+~TsO-_B3LYPG-6-31G_dp-NX-Scan-d89-09-n800
 OpenBabel11261920283D

 33 33  0  0  0  0  0  0  0  0999 V2000
   -5.4425   -2.4354    0.0563 C   0  0  0  0  0  0  0  0  0  0  0  0
   -6.7719   -2.7356    0.4893 N   0  0  0  0  0  0  0  0  0  0  0  0
   -7.4273   -2.9759    1.3786 N   0  0  0  0  0  0  0  0  0  0  0  0
   -4.5963   -1.8728    1.0216 C   0  0  0  0  0  0  0  0  0  0  0  0
   -3.2837   -1.5963    0.6619 C   0  0  0  0  0  0  0  0  0  0  0  0
   -2.8687   -1.9071   -0.6328 C   0  0  0  0  0  0  0  0  0  0  0  0
   -1.4661   -1.6162   -1.0098 N   0  0  0  0  0  0  0  0  0  0  0  0
   -0.7476   -1.1131   -0.1499 O   0  0  0  0  0  0  0  0  0  0  0  0
   -1.1211   -1.8992   -2.1523 O   0  0  0  0  0  0  0  0  0  0  0  0
   -3.7129   -2.4784   -1.5815 C   0  0  0  0  0  0  0  0  0  0  0  0
   -5.0381   -2.7452   -1.2421 C   0  0  0  0  0  0  0  0  0  0  0  0
   -4.9648   -1.6527    2.0167 H   0  0  0  0  0  0  0  0  0  0  0  0
   -2.5847   -1.1519    1.3585 H   0  0  0  0  0  0  0  0  0  0  0  0
   -3.3341   -2.7028   -2.5702 H   0  0  0  0  0  0  0  0  0  0  0  0
   -5.7355   -3.1892   -1.9463 H   0  0  0  0  0  0  0  0  0  0  0  0
  -10.1741   -4.3045    0.2715 C   0  0  0  0  0  0  0  0  0  0  0  0
  -10.6112   -5.1139    1.3167 C   0  0  0  0  0  0  0  0  0  0  0  0
   -9.9380   -6.2998    1.6474 C   0  0  0  0  0  0  0  0  0  0  0  0
   -8.8075   -6.6548    0.8991 C   0  0  0  0  0  0  0  0  0  0  0  0
   -8.3562   -5.8534   -0.1494 C   0  0  0  0  0  0  0  0  0  0  0  0
   -9.0394   -4.6761   -0.4561 C   0  0  0  0  0  0  0  0  0  0  0  0
  -10.7116   -3.4004    0.0056 H   0  0  0  0  0  0  0  0  0  0  0  0
  -11.4945   -4.8259    1.8810 H   0  0  0  0  0  0  0  0  0  0  0  0
   -8.2783   -7.5747    1.1338 H   0  0  0  0  0  0  0  0  0  0  0  0
   -7.4932   -6.1373   -0.7428 H   0  0  0  0  0  0  0  0  0  0  0  0
   -8.4846   -3.6312   -1.8080 S   0  0  0  0  0  0  0  0  0  0  0  0
   -7.8228   -2.3854   -1.1503 O   0  0  0  0  0  0  0  0  0  0  0  0
   -9.6933   -3.1680   -2.4865 O   0  0  0  0  0  0  0  0  0  0  0  0
   -7.4667   -4.4080   -2.5473 O   0  0  0  0  0  0  0  0  0  0  0  0
  -10.4428   -7.1877    2.7590 C   0  0  0  0  0  0  0  0  0  0  0  0
  -10.8723   -6.6014    3.5770 H   0  0  0  0  0  0  0  0  0  0  0  0
  -11.2294   -7.8616    2.3966 H   0  0  0  0  0  0  0  0  0  0  0  0
   -9.6433   -7.8113    3.1693 H   0  0  0  0  0  0  0  0  0  0  0  0
  1  2  1  0  0  0  0
  1  4  2  0  0  0  0
  2  3  2  0  0  0  0
  4 12  1  0  0  0  0
  5  4  1  0  0  0  0
  5 13  1  0  0  0  0
  6  5  2  0  0  0  0
  7  6  1  0  0  0  0
  7  8  2  0  0  0  0
  9  7  2  0  0  0  0
 10 11  2  0  0  0  0
 10  6  1  0  0  0  0
 11  1  1  0  0  0  0
 14 10  1  0  0  0  0
 15 11  1  0  0  0  0
 16 17  2  0  0  0  0
 17 18  1  0  0  0  0
 17 23  1  0  0  0  0
 18 30  1  0  0  0  0
 19 24  1  0  0  0  0
 19 18  2  0  0  0  0
 20 19  1  0  0  0  0
 21 20  2  0  0  0  0
 21 16  1  0  0  0  0
 22 16  1  0  0  0  0
 25 20  1  0  0  0  0
 26 27  1  0  0  0  0
 26 21  1  0  0  0  0
 28 26  2  0  0  0  0
 29 26  2  0  0  0  0
 30 33  1  0  0  0  0
 30 31  1  0  0  0  0
 32 30  1  0  0  0  0
M  RAD  2   3   2  27   2
M  END
