Coordinates from ORCA-job 4-NO2PhN2+~TsO-_B3LYPG-6-31G_dp-NX-Scan-d89-09-n800
 OpenBabel11261920283D

 33 34  0  0  0  0  0  0  0  0999 V2000
   -4.4928   -2.9403    0.3104 C   0  0  0  0  0  0  0  0  0  0  0  0
   -4.9986   -3.9481    1.1882 N   0  0  0  0  0  0  0  0  0  0  0  0
   -5.7046   -4.9021    0.7767 N   0  0  0  0  0  0  0  0  0  0  0  0
   -4.5218   -1.6364    0.8317 C   0  0  0  0  0  0  0  0  0  0  0  0
   -3.9802   -0.5755    0.1176 C   0  0  0  0  0  0  0  0  0  0  0  0
   -3.3718   -0.8386   -1.1090 C   0  0  0  0  0  0  0  0  0  0  0  0
   -2.7857    0.2745   -1.8677 N   0  0  0  0  0  0  0  0  0  0  0  0
   -2.8696    1.4028   -1.3823 O   0  0  0  0  0  0  0  0  0  0  0  0
   -2.2471    0.0128   -2.9431 O   0  0  0  0  0  0  0  0  0  0  0  0
   -3.2959   -2.1289   -1.6324 C   0  0  0  0  0  0  0  0  0  0  0  0
   -3.8645   -3.1818   -0.9248 C   0  0  0  0  0  0  0  0  0  0  0  0
   -4.9753   -1.4773    1.8038 H   0  0  0  0  0  0  0  0  0  0  0  0
   -4.0058    0.4394    0.4942 H   0  0  0  0  0  0  0  0  0  0  0  0
   -2.8057   -2.2877   -2.5843 H   0  0  0  0  0  0  0  0  0  0  0  0
   -3.8144   -4.1850   -1.3287 H   0  0  0  0  0  0  0  0  0  0  0  0
   -8.5655   -6.5258    1.3765 C   0  0  0  0  0  0  0  0  0  0  0  0
   -9.7391   -6.2812    2.0848 C   0  0  0  0  0  0  0  0  0  0  0  0
  -10.8044   -5.5745    1.5068 C   0  0  0  0  0  0  0  0  0  0  0  0
  -10.6726   -5.1163    0.1857 C   0  0  0  0  0  0  0  0  0  0  0  0
   -9.5099   -5.3438   -0.5429 C   0  0  0  0  0  0  0  0  0  0  0  0
   -8.4689   -6.0516    0.0660 C   0  0  0  0  0  0  0  0  0  0  0  0
   -7.7445   -7.0766    1.8200 H   0  0  0  0  0  0  0  0  0  0  0  0
   -9.8301   -6.6483    3.1025 H   0  0  0  0  0  0  0  0  0  0  0  0
  -11.4943   -4.5784   -0.2787 H   0  0  0  0  0  0  0  0  0  0  0  0
   -9.4100   -4.9980   -1.5654 H   0  0  0  0  0  0  0  0  0  0  0  0
   -6.9883   -6.3514   -0.8551 S   0  0  0  0  0  0  0  0  0  0  0  0
   -6.2765   -7.5024   -0.3282 O   0  0  0  0  0  0  0  0  0  0  0  0
   -5.9985   -4.9232   -0.4179 O   0  0  0  0  0  0  0  0  0  0  0  0
   -7.1898   -6.1033   -2.2711 O   0  0  0  0  0  0  0  0  0  0  0  0
  -12.0614   -5.2927    2.2912 C   0  0  0  0  0  0  0  0  0  0  0  0
  -12.1694   -5.9762    3.1368 H   0  0  0  0  0  0  0  0  0  0  0  0
  -12.0459   -4.2719    2.6916 H   0  0  0  0  0  0  0  0  0  0  0  0
  -12.9520   -5.3795    1.6617 H   0  0  0  0  0  0  0  0  0  0  0  0
  1  4  1  0  0  0  0
  1  2  1  0  0  0  0
  3  2  2  0  0  0  0
  4 12  1  0  0  0  0
  5 13  1  0  0  0  0
  5  4  2  0  0  0  0
  6  5  1  0  0  0  0
  7  8  2  0  0  0  0
  7  6  1  0  0  0  0
  9  7  2  0  0  0  0
 10  6  2  0  0  0  0
 10 11  1  0  0  0  0
 11  1  2  0  0  0  0
 14 10  1  0  0  0  0
 15 11  1  0  0  0  0
 16 22  1  0  0  0  0
 16 17  2  0  0  0  0
 17 23  1  0  0  0  0
 18 17  1  0  0  0  0
 18 30  1  0  0  0  0
 19 18  2  0  0  0  0
 20 21  2  0  0  0  0
 20 19  1  0  0  0  0
 21 16  1  0  0  0  0
 24 19  1  0  0  0  0
 25 20  1  0  0  0  0
 26 28  1  0  0  0  0
 26 27  2  0  0  0  0
 26 21  1  0  0  0  0
 28  3  1  0  0  0  0
 29 26  2  0  0  0  0
 30 32  1  0  0  0  0
 30 31  1  0  0  0  0
 33 30  1  0  0  0  0
M  END
