Coordinates from ORCA-job 4-NO2PhN2+~TsO-_B3LYPG-6-31G_dp-NX-Scan-d89-09-n800
 OpenBabel11261920283D

 33 33  0  0  0  0  0  0  0  0999 V2000
   -4.1956   -2.8151    0.3340 C   0  0  0  0  0  0  0  0  0  0  0  0
   -4.8044   -3.5968    1.3648 N   0  0  0  0  0  0  0  0  0  0  0  0
   -4.7769   -3.8586    2.4601 N   0  0  0  0  0  0  0  0  0  0  0  0
   -3.2999   -1.8322    0.7855 C   0  0  0  0  0  0  0  0  0  0  0  0
   -2.6518   -1.0519   -0.1599 C   0  0  0  0  0  0  0  0  0  0  0  0
   -2.9128   -1.2855   -1.5108 C   0  0  0  0  0  0  0  0  0  0  0  0
   -2.2111   -0.4537   -2.5160 N   0  0  0  0  0  0  0  0  0  0  0  0
   -1.4424    0.4057   -2.0932 O   0  0  0  0  0  0  0  0  0  0  0  0
   -2.4462   -0.6824   -3.6978 O   0  0  0  0  0  0  0  0  0  0  0  0
   -3.8006   -2.2611   -1.9510 C   0  0  0  0  0  0  0  0  0  0  0  0
   -4.4650   -3.0484   -1.0123 C   0  0  0  0  0  0  0  0  0  0  0  0
   -3.1313   -1.6857    1.8460 H   0  0  0  0  0  0  0  0  0  0  0  0
   -1.9562   -0.2734    0.1267 H   0  0  0  0  0  0  0  0  0  0  0  0
   -3.9732   -2.3928   -3.0116 H   0  0  0  0  0  0  0  0  0  0  0  0
   -5.1858   -3.8042   -1.2941 H   0  0  0  0  0  0  0  0  0  0  0  0
   -9.3298   -4.9395    1.9053 C   0  0  0  0  0  0  0  0  0  0  0  0
  -10.3920   -5.7905    2.2033 C   0  0  0  0  0  0  0  0  0  0  0  0
  -11.0398   -6.5219    1.1972 C   0  0  0  0  0  0  0  0  0  0  0  0
  -10.5929   -6.3788   -0.1243 C   0  0  0  0  0  0  0  0  0  0  0  0
   -9.5328   -5.5309   -0.4391 C   0  0  0  0  0  0  0  0  0  0  0  0
   -8.9054   -4.8160    0.5817 C   0  0  0  0  0  0  0  0  0  0  0  0
   -8.8409   -4.3621    2.6824 H   0  0  0  0  0  0  0  0  0  0  0  0
  -10.7283   -5.8850    3.2327 H   0  0  0  0  0  0  0  0  0  0  0  0
  -11.0850   -6.9351   -0.9180 H   0  0  0  0  0  0  0  0  0  0  0  0
   -9.1975   -5.4077   -1.4630 H   0  0  0  0  0  0  0  0  0  0  0  0
   -7.5261   -3.7416    0.1900 S   0  0  0  0  0  0  0  0  0  0  0  0
   -6.2936   -4.6732    0.3705 O   0  0  0  0  0  0  0  0  0  0  0  0
   -7.4799   -2.6628    1.2004 O   0  0  0  0  0  0  0  0  0  0  0  0
   -7.6598   -3.3404   -1.2245 O   0  0  0  0  0  0  0  0  0  0  0  0
  -12.2136   -7.4141    1.5237 C   0  0  0  0  0  0  0  0  0  0  0  0
  -12.1605   -7.7867    2.5508 H   0  0  0  0  0  0  0  0  0  0  0  0
  -13.1608   -6.8691    1.4235 H   0  0  0  0  0  0  0  0  0  0  0  0
  -12.2626   -8.2756    0.8514 H   0  0  0  0  0  0  0  0  0  0  0  0
  1  4  1  0  0  0  0
  1  2  1  0  0  0  0
  2  3  2  0  0  0  0
  4 12  1  0  0  0  0
  5 13  1  0  0  0  0
  5  4  2  0  0  0  0
  6  5  1  0  0  0  0
  7  8  2  0  0  0  0
  7  6  1  0  0  0  0
  9  7  2  0  0  0  0
 10  6  2  0  0  0  0
 10 11  1  0  0  0  0
 11  1  2  0  0  0  0
 14 10  1  0  0  0  0
 15 11  1  0  0  0  0
 16 17  1  0  0  0  0
 16 22  1  0  0  0  0
 17 23  1  0  0  0  0
 18 30  1  0  0  0  0
 18 17  2  0  0  0  0
 19 18  1  0  0  0  0
 20 19  2  0  0  0  0
 20 21  1  0  0  0  0
 21 16  2  0  0  0  0
 24 19  1  0  0  0  0
 25 20  1  0  0  0  0
 26 27  2  0  0  0  0
 26 21  1  0  0  0  0
 26 28  1  0  0  0  0
 29 26  2  0  0  0  0
 30 31  1  0  0  0  0
 32 30  1  0  0  0  0
 33 30  1  0  0  0  0
M  RAD  2   3   2  28   2
M  END
