Coordinates from ORCA-job 4-NO2PhN2+~TsO-_B3LYPG-6-31G_dp-NX-Scan-d89-09-n800
 OpenBabel11261920283D

 33 33  0  0  0  0  0  0  0  0999 V2000
   -4.4681   -2.0925    0.4285 C   0  0  0  0  0  0  0  0  0  0  0  0
   -5.3221   -2.1907    1.5534 N   0  0  0  0  0  0  0  0  0  0  0  0
   -5.6649   -1.9278    2.5890 N   0  0  0  0  0  0  0  0  0  0  0  0
   -3.0980   -1.9864    0.7028 C   0  0  0  0  0  0  0  0  0  0  0  0
   -2.2278   -1.8386   -0.3694 C   0  0  0  0  0  0  0  0  0  0  0  0
   -2.7612   -1.7871   -1.6563 C   0  0  0  0  0  0  0  0  0  0  0  0
   -1.8284   -1.6230   -2.7957 N   0  0  0  0  0  0  0  0  0  0  0  0
   -0.6316   -1.5406   -2.5325 O   0  0  0  0  0  0  0  0  0  0  0  0
   -2.3167   -1.5793   -3.9199 O   0  0  0  0  0  0  0  0  0  0  0  0
   -4.1264   -1.8826   -1.9174 C   0  0  0  0  0  0  0  0  0  0  0  0
   -5.0131   -2.0550   -0.8579 C   0  0  0  0  0  0  0  0  0  0  0  0
   -2.7329   -2.0253    1.7227 H   0  0  0  0  0  0  0  0  0  0  0  0
   -1.1578   -1.7584   -0.2262 H   0  0  0  0  0  0  0  0  0  0  0  0
   -4.4811   -1.8340   -2.9390 H   0  0  0  0  0  0  0  0  0  0  0  0
   -6.0856   -2.1557   -1.0091 H   0  0  0  0  0  0  0  0  0  0  0  0
   -9.4909   -5.0321    2.0859 C   0  0  0  0  0  0  0  0  0  0  0  0
  -10.3293   -6.1418    2.1804 C   0  0  0  0  0  0  0  0  0  0  0  0
  -10.7682   -6.8184    1.0343 C   0  0  0  0  0  0  0  0  0  0  0  0
  -10.3437   -6.3527   -0.2193 C   0  0  0  0  0  0  0  0  0  0  0  0
   -9.5077   -5.2445   -0.3303 C   0  0  0  0  0  0  0  0  0  0  0  0
   -9.0820   -4.5898    0.8274 C   0  0  0  0  0  0  0  0  0  0  0  0
   -9.1653   -4.4983    2.9720 H   0  0  0  0  0  0  0  0  0  0  0  0
  -10.6526   -6.4855    3.1596 H   0  0  0  0  0  0  0  0  0  0  0  0
  -10.6779   -6.8622   -1.1196 H   0  0  0  0  0  0  0  0  0  0  0  0
   -9.1949   -4.8742   -1.3003 H   0  0  0  0  0  0  0  0  0  0  0  0
   -7.9753   -3.1890    0.7001 S   0  0  0  0  0  0  0  0  0  0  0  0
   -6.5711   -3.8024    0.7016 O   0  0  0  0  0  0  0  0  0  0  0  0
   -8.1623   -2.3496    1.9100 O   0  0  0  0  0  0  0  0  0  0  0  0
   -8.2495   -2.5286   -0.5995 O   0  0  0  0  0  0  0  0  0  0  0  0
  -11.7031   -7.9994    1.1407 C   0  0  0  0  0  0  0  0  0  0  0  0
  -11.6604   -8.4564    2.1335 H   0  0  0  0  0  0  0  0  0  0  0  0
  -12.7429   -7.6960    0.9645 H   0  0  0  0  0  0  0  0  0  0  0  0
  -11.4619   -8.7690    0.4005 H   0  0  0  0  0  0  0  0  0  0  0  0
  1  4  1  0  0  0  0
  1  2  1  0  0  0  0
  2  3  2  0  0  0  0
  4 12  1  0  0  0  0
  5 13  1  0  0  0  0
  5  4  2  0  0  0  0
  6  5  1  0  0  0  0
  7  8  2  0  0  0  0
  7  6  1  0  0  0  0
  9  7  2  0  0  0  0
 10  6  2  0  0  0  0
 10 11  1  0  0  0  0
 11  1  2  0  0  0  0
 14 10  1  0  0  0  0
 15 11  1  0  0  0  0
 16 17  1  0  0  0  0
 16 22  1  0  0  0  0
 17 23  1  0  0  0  0
 18 30  1  0  0  0  0
 18 17  2  0  0  0  0
 19 18  1  0  0  0  0
 20 19  2  0  0  0  0
 20 21  1  0  0  0  0
 21 16  2  0  0  0  0
 24 19  1  0  0  0  0
 25 20  1  0  0  0  0
 26 27  2  0  0  0  0
 26 21  1  0  0  0  0
 26 28  1  0  0  0  0
 29 26  2  0  0  0  0
 30 31  1  0  0  0  0
 32 30  1  0  0  0  0
 33 30  1  0  0  0  0
M  RAD  2   3   2  28   2
M  END
