Coordinates from ORCA-job 4-NO2PhN2+~TsO-_B3LYPG-6-31G_dp-NX-Scan-d89-09-n800
 OpenBabel11261920283D

 33 33  0  0  0  0  0  0  0  0999 V2000
   -4.6602   -0.8393    1.1427 C   0  0  0  0  0  0  0  0  0  0  0  0
   -5.1839   -0.1415    2.2026 N   0  0  0  0  0  0  0  0  0  0  0  0
   -5.5219    0.4452    3.0974 N   0  0  0  0  0  0  0  0  0  0  0  0
   -3.2455   -0.7856    1.0230 C   0  0  0  0  0  0  0  0  0  0  0  0
   -2.6710   -1.4804   -0.0186 C   0  0  0  0  0  0  0  0  0  0  0  0
   -3.5016   -2.1985   -0.8922 C   0  0  0  0  0  0  0  0  0  0  0  0
   -2.8369   -2.9365   -1.9998 N   0  0  0  0  0  0  0  0  0  0  0  0
   -1.6055   -2.9575   -1.9834 O   0  0  0  0  0  0  0  0  0  0  0  0
   -3.5572   -3.4575   -2.8357 O   0  0  0  0  0  0  0  0  0  0  0  0
   -4.8866   -2.2565   -0.7768 C   0  0  0  0  0  0  0  0  0  0  0  0
   -5.5032   -1.5536    0.2631 C   0  0  0  0  0  0  0  0  0  0  0  0
   -2.6500   -0.2198    1.7302 H   0  0  0  0  0  0  0  0  0  0  0  0
   -1.5993   -1.4899   -0.1727 H   0  0  0  0  0  0  0  0  0  0  0  0
   -5.5221   -2.8646   -1.4423 H   0  0  0  0  0  0  0  0  0  0  0  0
   -6.5970   -1.6139    0.3305 H   0  0  0  0  0  0  0  0  0  0  0  0
  -10.0269   -4.6302    0.3789 C   0  0  0  0  0  0  0  0  0  0  0  0
  -10.5768   -5.6470    1.1556 C   0  0  0  0  0  0  0  0  0  0  0  0
  -10.0333   -6.9406    1.1469 C   0  0  0  0  0  0  0  0  0  0  0  0
   -8.9179   -7.1869    0.3323 C   0  0  0  0  0  0  0  0  0  0  0  0
   -8.3590   -6.1773   -0.4491 C   0  0  0  0  0  0  0  0  0  0  0  0
   -8.9151   -4.8960   -0.4266 C   0  0  0  0  0  0  0  0  0  0  0  0
  -10.4495   -3.6308    0.3927 H   0  0  0  0  0  0  0  0  0  0  0  0
  -11.4450   -5.4385    1.7765 H   0  0  0  0  0  0  0  0  0  0  0  0
   -8.4846   -8.1845    0.3084 H   0  0  0  0  0  0  0  0  0  0  0  0
   -7.4960   -6.3624   -1.0791 H   0  0  0  0  0  0  0  0  0  0  0  0
   -8.2469   -3.5956   -1.4792 S   0  0  0  0  0  0  0  0  0  0  0  0
   -8.1709   -2.3937   -0.5696 O   0  0  0  0  0  0  0  0  0  0  0  0
   -9.1947   -3.4459   -2.6037 O   0  0  0  0  0  0  0  0  0  0  0  0
   -6.8829   -4.0784   -1.8672 O   0  0  0  0  0  0  0  0  0  0  0  0
  -10.6163   -8.0349    2.0090 C   0  0  0  0  0  0  0  0  0  0  0  0
  -10.0384   -8.1648    2.9329 H   0  0  0  0  0  0  0  0  0  0  0  0
  -11.6469   -7.8109    2.2984 H   0  0  0  0  0  0  0  0  0  0  0  0
  -10.6117   -8.9987    1.4895 H   0  0  0  0  0  0  0  0  0  0  0  0
  1  2  1  0  0  0  0
  2  3  1  0  0  0  0
  4  1  1  0  0  0  0
  4 12  1  0  0  0  0
  5  4  2  0  0  0  0
  6 10  2  0  0  0  0
  6  5  1  0  0  0  0
  7  8  2  0  0  0  0
  7  6  1  0  0  0  0
  9  7  2  0  0  0  0
 10 11  1  0  0  0  0
 11 15  1  0  0  0  0
 11  1  2  0  0  0  0
 13  5  1  0  0  0  0
 14 10  1  0  0  0  0
 16 22  1  0  0  0  0
 16 17  2  0  0  0  0
 17 23  1  0  0  0  0
 18 17  1  0  0  0  0
 18 30  1  0  0  0  0
 19 18  2  0  0  0  0
 20 21  2  0  0  0  0
 20 19  1  0  0  0  0
 21 16  1  0  0  0  0
 24 19  1  0  0  0  0
 25 20  1  0  0  0  0
 26 27  1  0  0  0  0
 26 21  1  0  0  0  0
 28 26  2  0  0  0  0
 29 26  2  0  0  0  0
 30 32  1  0  0  0  0
 30 31  1  0  0  0  0
 33 30  1  0  0  0  0
M  RAD  3   2   2   3   3  27   2
M  END
