Coordinates from ORCA-job 4-NO2PhN2+~TsO-_B3LYPG-6-31G_dp-NX-Scan-d89-09-n800
 OpenBabel11261920283D

 33 34  0  0  0  0  0  0  0  0999 V2000
   -4.4823   -2.9204    0.3150 C   0  0  0  0  0  0  0  0  0  0  0  0
   -4.9915   -3.9185    1.1992 N   0  0  0  0  0  0  0  0  0  0  0  0
   -5.6971   -4.8759    0.8519 N   0  0  0  0  0  0  0  0  0  0  0  0
   -4.4631   -1.6234    0.8518 C   0  0  0  0  0  0  0  0  0  0  0  0
   -3.9218   -0.5689    0.1274 C   0  0  0  0  0  0  0  0  0  0  0  0
   -3.3585   -0.8383   -1.1186 C   0  0  0  0  0  0  0  0  0  0  0  0
   -2.7681    0.2685   -1.8874 N   0  0  0  0  0  0  0  0  0  0  0  0
   -2.8116    1.3934   -1.3904 O   0  0  0  0  0  0  0  0  0  0  0  0
   -2.2682    0.0016   -2.9793 O   0  0  0  0  0  0  0  0  0  0  0  0
   -3.3281   -2.1249   -1.6547 C   0  0  0  0  0  0  0  0  0  0  0  0
   -3.9005   -3.1711   -0.9399 C   0  0  0  0  0  0  0  0  0  0  0  0
   -4.8797   -1.4630    1.8399 H   0  0  0  0  0  0  0  0  0  0  0  0
   -3.9109    0.4432    0.5119 H   0  0  0  0  0  0  0  0  0  0  0  0
   -2.8711   -2.2870   -2.6224 H   0  0  0  0  0  0  0  0  0  0  0  0
   -3.8915   -4.1716   -1.3514 H   0  0  0  0  0  0  0  0  0  0  0  0
   -8.5704   -6.5159    1.3863 C   0  0  0  0  0  0  0  0  0  0  0  0
   -9.7542   -6.2899    2.0845 C   0  0  0  0  0  0  0  0  0  0  0  0
  -10.8222   -5.5934    1.4998 C   0  0  0  0  0  0  0  0  0  0  0  0
  -10.6818   -5.1276    0.1827 C   0  0  0  0  0  0  0  0  0  0  0  0
   -9.5084   -5.3382   -0.5347 C   0  0  0  0  0  0  0  0  0  0  0  0
   -8.4632   -6.0327    0.0807 C   0  0  0  0  0  0  0  0  0  0  0  0
   -7.7480   -7.0610    1.8346 H   0  0  0  0  0  0  0  0  0  0  0  0
   -9.8517   -6.6651    3.0988 H   0  0  0  0  0  0  0  0  0  0  0  0
  -11.5055   -4.5984   -0.2884 H   0  0  0  0  0  0  0  0  0  0  0  0
   -9.4034   -4.9894   -1.5557 H   0  0  0  0  0  0  0  0  0  0  0  0
   -6.9689   -6.3172   -0.8319 S   0  0  0  0  0  0  0  0  0  0  0  0
   -6.2592   -7.4646   -0.2921 O   0  0  0  0  0  0  0  0  0  0  0  0
   -6.0237   -4.9100   -0.4478 O   0  0  0  0  0  0  0  0  0  0  0  0
   -7.1911   -6.1130   -2.2532 O   0  0  0  0  0  0  0  0  0  0  0  0
  -12.0912   -5.3319    2.2725 C   0  0  0  0  0  0  0  0  0  0  0  0
  -12.1986   -6.0208    3.1140 H   0  0  0  0  0  0  0  0  0  0  0  0
  -12.0950   -4.3128    2.6777 H   0  0  0  0  0  0  0  0  0  0  0  0
  -12.9742   -5.4289    1.6336 H   0  0  0  0  0  0  0  0  0  0  0  0
  1  4  1  0  0  0  0
  1  2  1  0  0  0  0
  3  2  2  0  0  0  0
  4 12  1  0  0  0  0
  5 13  1  0  0  0  0
  5  4  2  0  0  0  0
  6  5  1  0  0  0  0
  7  8  2  0  0  0  0
  7  6  1  0  0  0  0
  9  7  2  0  0  0  0
 10  6  2  0  0  0  0
 10 11  1  0  0  0  0
 11  1  2  0  0  0  0
 14 10  1  0  0  0  0
 15 11  1  0  0  0  0
 16 22  1  0  0  0  0
 16 17  2  0  0  0  0
 17 23  1  0  0  0  0
 18 17  1  0  0  0  0
 18 30  1  0  0  0  0
 19 18  2  0  0  0  0
 20 21  2  0  0  0  0
 20 19  1  0  0  0  0
 21 16  1  0  0  0  0
 24 19  1  0  0  0  0
 25 20  1  0  0  0  0
 26 28  1  0  0  0  0
 26 27  2  0  0  0  0
 26 21  1  0  0  0  0
 28  3  1  0  0  0  0
 29 26  2  0  0  0  0
 30 32  1  0  0  0  0
 30 31  1  0  0  0  0
 33 30  1  0  0  0  0
M  END
