Coordinates from ORCA-job 4-NO2PhN2+~TsO-_B3LYPG-6-31G_dp-NX-Scan-d89-09-n800
 OpenBabel11261920283D

 33 34  0  0  0  0  0  0  0  0999 V2000
   -4.5454   -2.8769    0.2919 C   0  0  0  0  0  0  0  0  0  0  0  0
   -5.0861   -3.8572    1.1714 N   0  0  0  0  0  0  0  0  0  0  0  0
   -5.7443   -4.8642    0.7032 N   0  0  0  0  0  0  0  0  0  0  0  0
   -4.2775   -1.6533    0.9407 C   0  0  0  0  0  0  0  0  0  0  0  0
   -3.6989   -0.5884    0.2680 C   0  0  0  0  0  0  0  0  0  0  0  0
   -3.3585   -0.7530   -1.0756 C   0  0  0  0  0  0  0  0  0  0  0  0
   -2.7440    0.3629   -1.8007 N   0  0  0  0  0  0  0  0  0  0  0  0
   -2.5562    1.4127   -1.1836 O   0  0  0  0  0  0  0  0  0  0  0  0
   -2.4519    0.1874   -2.9847 O   0  0  0  0  0  0  0  0  0  0  0  0
   -3.5851   -1.9543   -1.7433 C   0  0  0  0  0  0  0  0  0  0  0  0
   -4.1827   -3.0132   -1.0663 C   0  0  0  0  0  0  0  0  0  0  0  0
   -4.5402   -1.5710    1.9897 H   0  0  0  0  0  0  0  0  0  0  0  0
   -3.4997    0.3568    0.7572 H   0  0  0  0  0  0  0  0  0  0  0  0
   -3.2963   -2.0447   -2.7829 H   0  0  0  0  0  0  0  0  0  0  0  0
   -4.3508   -3.9381   -1.5998 H   0  0  0  0  0  0  0  0  0  0  0  0
   -8.5666   -6.5296    1.4472 C   0  0  0  0  0  0  0  0  0  0  0  0
   -9.7404   -6.1961    2.1169 C   0  0  0  0  0  0  0  0  0  0  0  0
  -10.8043   -5.5670    1.4528 C   0  0  0  0  0  0  0  0  0  0  0  0
  -10.6712   -5.2770    0.0838 C   0  0  0  0  0  0  0  0  0  0  0  0
   -9.5090   -5.5929   -0.6097 C   0  0  0  0  0  0  0  0  0  0  0  0
   -8.4736   -6.2301    0.0840 C   0  0  0  0  0  0  0  0  0  0  0  0
   -7.7468   -7.0211    1.9573 H   0  0  0  0  0  0  0  0  0  0  0  0
   -9.8322   -6.4307    3.1730 H   0  0  0  0  0  0  0  0  0  0  0  0
  -11.4919   -4.7998   -0.4441 H   0  0  0  0  0  0  0  0  0  0  0  0
   -9.4055   -5.3716   -1.6661 H   0  0  0  0  0  0  0  0  0  0  0  0
   -6.9758   -6.6031   -0.7688 S   0  0  0  0  0  0  0  0  0  0  0  0
   -6.2326   -7.6557   -0.0902 O   0  0  0  0  0  0  0  0  0  0  0  0
   -5.9510   -4.9931   -0.3594 O   0  0  0  0  0  0  0  0  0  0  0  0
   -7.1184   -6.4867   -2.2130 O   0  0  0  0  0  0  0  0  0  0  0  0
  -12.0598   -5.1868    2.1958 C   0  0  0  0  0  0  0  0  0  0  0  0
  -12.1969   -5.7973    3.0913 H   0  0  0  0  0  0  0  0  0  0  0  0
  -12.0149   -4.1385    2.5149 H   0  0  0  0  0  0  0  0  0  0  0  0
  -12.9461   -5.2956    1.5637 H   0  0  0  0  0  0  0  0  0  0  0  0
  1  4  1  0  0  0  0
  1  2  1  0  0  0  0
  3  2  2  0  0  0  0
  4 12  1  0  0  0  0
  5 13  1  0  0  0  0
  5  4  2  0  0  0  0
  6  5  1  0  0  0  0
  7  8  2  0  0  0  0
  7  6  1  0  0  0  0
  9  7  2  0  0  0  0
 10  6  2  0  0  0  0
 10 11  1  0  0  0  0
 11  1  2  0  0  0  0
 14 10  1  0  0  0  0
 15 11  1  0  0  0  0
 16 22  1  0  0  0  0
 16 17  1  0  0  0  0
 17 23  1  0  0  0  0
 18 17  2  0  0  0  0
 18 30  1  0  0  0  0
 19 18  1  0  0  0  0
 20 19  2  0  0  0  0
 20 21  1  0  0  0  0
 21 16  2  0  0  0  0
 24 19  1  0  0  0  0
 25 20  1  0  0  0  0
 26 28  1  0  0  0  0
 26 27  2  0  0  0  0
 26 21  1  0  0  0  0
 28  3  1  0  0  0  0
 29 26  2  0  0  0  0
 30 32  1  0  0  0  0
 30 31  1  0  0  0  0
 33 30  1  0  0  0  0
M  END
