Coordinates from ORCA-job 4-NO2PhN2+~TsO-_B3LYPG-6-31G_dp-NX-Scan-d89-09-n800
 OpenBabel11261920283D

 33 33  0  0  0  0  0  0  0  0999 V2000
   -4.5048   -1.6758    0.4678 C   0  0  0  0  0  0  0  0  0  0  0  0
   -5.3725   -1.4977    1.5378 N   0  0  0  0  0  0  0  0  0  0  0  0
   -6.1101   -1.3225    2.3644 N   0  0  0  0  0  0  0  0  0  0  0  0
   -3.1332   -1.5259    0.7313 C   0  0  0  0  0  0  0  0  0  0  0  0
   -2.2467   -1.6777   -0.3241 C   0  0  0  0  0  0  0  0  0  0  0  0
   -2.7633   -1.9534   -1.5910 C   0  0  0  0  0  0  0  0  0  0  0  0
   -1.8103   -2.1025   -2.7168 N   0  0  0  0  0  0  0  0  0  0  0  0
   -0.6158   -1.9820   -2.4582 O   0  0  0  0  0  0  0  0  0  0  0  0
   -2.2821   -2.3327   -3.8250 O   0  0  0  0  0  0  0  0  0  0  0  0
   -4.1252   -2.0912   -1.8469 C   0  0  0  0  0  0  0  0  0  0  0  0
   -5.0341   -1.9640   -0.8003 C   0  0  0  0  0  0  0  0  0  0  0  0
   -2.7844   -1.3038    1.7331 H   0  0  0  0  0  0  0  0  0  0  0  0
   -1.1771   -1.5821   -0.1883 H   0  0  0  0  0  0  0  0  0  0  0  0
   -4.4624   -2.3102   -2.8519 H   0  0  0  0  0  0  0  0  0  0  0  0
   -6.1084   -2.0887   -0.9410 H   0  0  0  0  0  0  0  0  0  0  0  0
   -9.1699   -5.3678    2.0349 C   0  0  0  0  0  0  0  0  0  0  0  0
  -10.0555   -6.4397    2.0846 C   0  0  0  0  0  0  0  0  0  0  0  0
  -10.7826   -6.8340    0.9496 C   0  0  0  0  0  0  0  0  0  0  0  0
  -10.5960   -6.1208   -0.2406 C   0  0  0  0  0  0  0  0  0  0  0  0
   -9.7122   -5.0428   -0.3055 C   0  0  0  0  0  0  0  0  0  0  0  0
   -8.9994   -4.6731    0.8337 C   0  0  0  0  0  0  0  0  0  0  0  0
   -8.6216   -5.0604    2.9188 H   0  0  0  0  0  0  0  0  0  0  0  0
  -10.1893   -6.9796    3.0191 H   0  0  0  0  0  0  0  0  0  0  0  0
  -11.1513   -6.4106   -1.1290 H   0  0  0  0  0  0  0  0  0  0  0  0
   -9.5728   -4.4820   -1.2232 H   0  0  0  0  0  0  0  0  0  0  0  0
   -7.8259   -3.3229    0.7509 S   0  0  0  0  0  0  0  0  0  0  0  0
   -6.4484   -3.9031    0.8128 O   0  0  0  0  0  0  0  0  0  0  0  0
   -8.0967   -2.4794    1.9741 O   0  0  0  0  0  0  0  0  0  0  0  0
   -8.0827   -2.6047   -0.5292 O   0  0  0  0  0  0  0  0  0  0  0  0
  -11.7594   -7.9835    1.0247 C   0  0  0  0  0  0  0  0  0  0  0  0
  -11.3369   -8.8325    1.5721 H   0  0  0  0  0  0  0  0  0  0  0  0
  -12.6779   -7.6887    1.5472 H   0  0  0  0  0  0  0  0  0  0  0  0
  -12.0458   -8.3313    0.0287 H   0  0  0  0  0  0  0  0  0  0  0  0
  1  4  1  0  0  0  0
  1  2  1  0  0  0  0
  2  3  1  0  0  0  0
  4 12  1  0  0  0  0
  5 13  1  0  0  0  0
  5  4  2  0  0  0  0
  6  5  1  0  0  0  0
  7  8  2  0  0  0  0
  7  6  1  0  0  0  0
  9  7  2  0  0  0  0
 10  6  2  0  0  0  0
 10 11  1  0  0  0  0
 11  1  2  0  0  0  0
 14 10  1  0  0  0  0
 15 11  1  0  0  0  0
 16 17  1  0  0  0  0
 16 22  1  0  0  0  0
 17 23  1  0  0  0  0
 18 30  1  0  0  0  0
 18 17  2  0  0  0  0
 19 18  1  0  0  0  0
 20 19  2  0  0  0  0
 20 21  1  0  0  0  0
 21 16  2  0  0  0  0
 24 19  1  0  0  0  0
 25 20  1  0  0  0  0
 26 27  2  0  0  0  0
 26 21  1  0  0  0  0
 26 28  1  0  0  0  0
 29 26  2  0  0  0  0
 30 32  1  0  0  0  0
 30 31  1  0  0  0  0
 33 30  1  0  0  0  0
M  RAD  3   2   2   3   3  28   2
M  END
