Coordinates from ORCA-job 4-NO2PhN2+~TsO-_B3LYPG-6-31G_dp-NX-Scan-d89-09-n800
 OpenBabel11261920283D

 33 33  0  0  0  0  0  0  0  0999 V2000
   -4.4674   -2.0945    0.4309 C   0  0  0  0  0  0  0  0  0  0  0  0
   -5.3185   -2.1933    1.5584 N   0  0  0  0  0  0  0  0  0  0  0  0
   -5.6535   -1.9295    2.5963 N   0  0  0  0  0  0  0  0  0  0  0  0
   -3.0966   -1.9897    0.7024 C   0  0  0  0  0  0  0  0  0  0  0  0
   -2.2285   -1.8419   -0.3715 C   0  0  0  0  0  0  0  0  0  0  0  0
   -2.7646   -1.7892   -1.6572 C   0  0  0  0  0  0  0  0  0  0  0  0
   -1.8340   -1.6254   -2.7986 N   0  0  0  0  0  0  0  0  0  0  0  0
   -0.6366   -1.5441   -2.5379 O   0  0  0  0  0  0  0  0  0  0  0  0
   -2.3246   -1.5808   -3.9217 O   0  0  0  0  0  0  0  0  0  0  0  0
   -4.1303   -1.8834   -1.9154 C   0  0  0  0  0  0  0  0  0  0  0  0
   -5.0151   -2.0557   -0.8542 C   0  0  0  0  0  0  0  0  0  0  0  0
   -2.7293   -2.0295    1.7214 H   0  0  0  0  0  0  0  0  0  0  0  0
   -1.1581   -1.7628   -0.2306 H   0  0  0  0  0  0  0  0  0  0  0  0
   -4.4872   -1.8340   -2.9363 H   0  0  0  0  0  0  0  0  0  0  0  0
   -6.0879   -2.1553   -1.0035 H   0  0  0  0  0  0  0  0  0  0  0  0
   -9.4956   -5.0274    2.0858 C   0  0  0  0  0  0  0  0  0  0  0  0
  -10.3325   -6.1383    2.1791 C   0  0  0  0  0  0  0  0  0  0  0  0
  -10.7657   -6.8179    1.0325 C   0  0  0  0  0  0  0  0  0  0  0  0
  -10.3369   -6.3539   -0.2202 C   0  0  0  0  0  0  0  0  0  0  0  0
   -9.5023   -5.2446   -0.3300 C   0  0  0  0  0  0  0  0  0  0  0  0
   -9.0824   -4.5869    0.8281 C   0  0  0  0  0  0  0  0  0  0  0  0
   -9.1744   -4.4913    2.9721 H   0  0  0  0  0  0  0  0  0  0  0  0
  -10.6591   -6.4807    3.1576 H   0  0  0  0  0  0  0  0  0  0  0  0
  -10.6667   -6.8657   -1.1209 H   0  0  0  0  0  0  0  0  0  0  0  0
   -9.1862   -4.8756   -1.2994 H   0  0  0  0  0  0  0  0  0  0  0  0
   -7.9781   -3.1839    0.7026 S   0  0  0  0  0  0  0  0  0  0  0  0
   -6.5728   -3.7967    0.7087 O   0  0  0  0  0  0  0  0  0  0  0  0
   -8.1713   -2.3435    1.9102 O   0  0  0  0  0  0  0  0  0  0  0  0
   -8.2479   -2.5264   -0.5994 O   0  0  0  0  0  0  0  0  0  0  0  0
  -11.6990   -8.0003    1.1375 C   0  0  0  0  0  0  0  0  0  0  0  0
  -11.6594   -8.4553    2.1313 H   0  0  0  0  0  0  0  0  0  0  0  0
  -12.7386   -7.6989    0.9566 H   0  0  0  0  0  0  0  0  0  0  0  0
  -11.4537   -8.7708    0.3997 H   0  0  0  0  0  0  0  0  0  0  0  0
  1  4  1  0  0  0  0
  1  2  1  0  0  0  0
  2  3  2  0  0  0  0
  4 12  1  0  0  0  0
  5 13  1  0  0  0  0
  5  4  2  0  0  0  0
  6  5  1  0  0  0  0
  7  8  2  0  0  0  0
  7  6  1  0  0  0  0
  9  7  2  0  0  0  0
 10  6  2  0  0  0  0
 10 11  1  0  0  0  0
 11  1  2  0  0  0  0
 14 10  1  0  0  0  0
 15 11  1  0  0  0  0
 16 17  1  0  0  0  0
 16 22  1  0  0  0  0
 17 23  1  0  0  0  0
 18 30  1  0  0  0  0
 18 17  2  0  0  0  0
 19 18  1  0  0  0  0
 20 19  2  0  0  0  0
 20 21  1  0  0  0  0
 21 16  2  0  0  0  0
 24 19  1  0  0  0  0
 25 20  1  0  0  0  0
 26 27  2  0  0  0  0
 26 21  1  0  0  0  0
 26 28  1  0  0  0  0
 29 26  2  0  0  0  0
 30 31  1  0  0  0  0
 32 30  1  0  0  0  0
 33 30  1  0  0  0  0
M  RAD  2   3   2  28   2
M  END
