Coordinates from ORCA-job 4-NO2PhN2+~TsO-_B3LYPG-6-31G_dp-NX-Scan-d89-09-n800
 OpenBabel11261920283D

 33 33  0  0  0  0  0  0  0  0999 V2000
   -4.6401   -0.8455    1.0265 C   0  0  0  0  0  0  0  0  0  0  0  0
   -5.2632   -0.1922    2.0618 N   0  0  0  0  0  0  0  0  0  0  0  0
   -5.7062    0.3542    2.9337 N   0  0  0  0  0  0  0  0  0  0  0  0
   -3.2381   -0.6452    0.9230 C   0  0  0  0  0  0  0  0  0  0  0  0
   -2.5828   -1.2965   -0.0991 C   0  0  0  0  0  0  0  0  0  0  0  0
   -3.3240   -2.1219   -0.9602 C   0  0  0  0  0  0  0  0  0  0  0  0
   -2.5758   -2.8184   -2.0413 N   0  0  0  0  0  0  0  0  0  0  0  0
   -1.3606   -2.6264   -2.0807 O   0  0  0  0  0  0  0  0  0  0  0  0
   -3.2187   -3.5258   -2.8012 O   0  0  0  0  0  0  0  0  0  0  0  0
   -4.6947   -2.3210   -0.8523 C   0  0  0  0  0  0  0  0  0  0  0  0
   -5.3977   -1.6578    0.1595 C   0  0  0  0  0  0  0  0  0  0  0  0
   -2.7123   -0.0071    1.6241 H   0  0  0  0  0  0  0  0  0  0  0  0
   -1.5155   -1.1925   -0.2477 H   0  0  0  0  0  0  0  0  0  0  0  0
   -5.2683   -2.9899   -1.5041 H   0  0  0  0  0  0  0  0  0  0  0  0
   -6.4927   -1.8143    0.2190 H   0  0  0  0  0  0  0  0  0  0  0  0
  -10.0524   -4.6473    0.5337 C   0  0  0  0  0  0  0  0  0  0  0  0
  -10.6513   -5.6856    1.2428 C   0  0  0  0  0  0  0  0  0  0  0  0
  -10.1701   -7.0002    1.1485 C   0  0  0  0  0  0  0  0  0  0  0  0
   -9.0665   -7.2452    0.3183 C   0  0  0  0  0  0  0  0  0  0  0  0
   -8.4586   -6.2142   -0.3960 C   0  0  0  0  0  0  0  0  0  0  0  0
   -8.9534   -4.9128   -0.2886 C   0  0  0  0  0  0  0  0  0  0  0  0
  -10.4263   -3.6319    0.6144 H   0  0  0  0  0  0  0  0  0  0  0  0
  -11.5092   -5.4765    1.8776 H   0  0  0  0  0  0  0  0  0  0  0  0
   -8.6809   -8.2584    0.2286 H   0  0  0  0  0  0  0  0  0  0  0  0
   -7.6037   -6.3995   -1.0371 H   0  0  0  0  0  0  0  0  0  0  0  0
   -8.2253   -3.5831   -1.2606 S   0  0  0  0  0  0  0  0  0  0  0  0
   -8.1292   -2.4315   -0.2836 O   0  0  0  0  0  0  0  0  0  0  0  0
   -9.1484   -3.3286   -2.3850 O   0  0  0  0  0  0  0  0  0  0  0  0
   -6.8728   -4.0871   -1.6527 O   0  0  0  0  0  0  0  0  0  0  0  0
  -10.8062   -8.1190    1.9390 C   0  0  0  0  0  0  0  0  0  0  0  0
  -10.2557   -8.3135    2.8682 H   0  0  0  0  0  0  0  0  0  0  0  0
  -11.8365   -7.8782    2.2160 H   0  0  0  0  0  0  0  0  0  0  0  0
  -10.8176   -9.0544    1.3704 H   0  0  0  0  0  0  0  0  0  0  0  0
  1  2  1  0  0  0  0
  2  3  1  0  0  0  0
  4  1  1  0  0  0  0
  4 12  1  0  0  0  0
  5  4  2  0  0  0  0
  6 10  2  0  0  0  0
  6  5  1  0  0  0  0
  7  6  1  0  0  0  0
  8  7  2  0  0  0  0
  9  7  2  0  0  0  0
 10 11  1  0  0  0  0
 11 15  1  0  0  0  0
 11  1  2  0  0  0  0
 13  5  1  0  0  0  0
 14 10  1  0  0  0  0
 16 22  1  0  0  0  0
 16 17  2  0  0  0  0
 17 23  1  0  0  0  0
 18 17  1  0  0  0  0
 18 30  1  0  0  0  0
 19 18  2  0  0  0  0
 20 21  2  0  0  0  0
 20 19  1  0  0  0  0
 21 16  1  0  0  0  0
 24 19  1  0  0  0  0
 25 20  1  0  0  0  0
 26 21  1  0  0  0  0
 26 27  1  0  0  0  0
 28 26  2  0  0  0  0
 29 26  2  0  0  0  0
 30 32  1  0  0  0  0
 30 31  1  0  0  0  0
 33 30  1  0  0  0  0
M  RAD  3   2   2   3   3  27   2
M  END
