Coordinates from ORCA-job 4-NO2PhN2+~TsO-_B3LYPG-6-31G_dp-NX-Scan-d89-09-n800
 OpenBabel11261920283D

 33 33  0  0  0  0  0  0  0  0999 V2000
   -5.0960   -2.6843    0.0337 C   0  0  0  0  0  0  0  0  0  0  0  0
   -6.2693   -3.3361    0.5194 N   0  0  0  0  0  0  0  0  0  0  0  0
   -6.7392   -3.9417    1.3485 N   0  0  0  0  0  0  0  0  0  0  0  0
   -4.3306   -1.9960    0.9809 C   0  0  0  0  0  0  0  0  0  0  0  0
   -3.1639   -1.3754    0.5495 C   0  0  0  0  0  0  0  0  0  0  0  0
   -2.8088   -1.4843   -0.7936 C   0  0  0  0  0  0  0  0  0  0  0  0
   -1.5610   -0.8275   -1.2446 N   0  0  0  0  0  0  0  0  0  0  0  0
   -0.9119   -0.2165   -0.3995 O   0  0  0  0  0  0  0  0  0  0  0  0
   -1.2617   -0.9415   -2.4289 O   0  0  0  0  0  0  0  0  0  0  0  0
   -3.5731   -2.1838   -1.7259 C   0  0  0  0  0  0  0  0  0  0  0  0
   -4.7555   -2.7924   -1.3146 C   0  0  0  0  0  0  0  0  0  0  0  0
   -4.6473   -1.9417    2.0161 H   0  0  0  0  0  0  0  0  0  0  0  0
   -2.5320   -0.8182    1.2289 H   0  0  0  0  0  0  0  0  0  0  0  0
   -3.2434   -2.2386   -2.7555 H   0  0  0  0  0  0  0  0  0  0  0  0
   -5.3948   -3.3531   -1.9891 H   0  0  0  0  0  0  0  0  0  0  0  0
   -9.9855   -4.2472    0.4647 C   0  0  0  0  0  0  0  0  0  0  0  0
  -10.6403   -4.9857    1.4444 C   0  0  0  0  0  0  0  0  0  0  0  0
  -10.3206   -6.3349    1.6732 C   0  0  0  0  0  0  0  0  0  0  0  0
   -9.3195   -6.9231    0.8912 C   0  0  0  0  0  0  0  0  0  0  0  0
   -8.6517   -6.1945   -0.0949 C   0  0  0  0  0  0  0  0  0  0  0  0
   -8.9847   -4.8561   -0.3019 C   0  0  0  0  0  0  0  0  0  0  0  0
  -10.2436   -3.2079    0.2899 H   0  0  0  0  0  0  0  0  0  0  0  0
  -11.4156   -4.5120    2.0416 H   0  0  0  0  0  0  0  0  0  0  0  0
   -9.0583   -7.9653    1.0540 H   0  0  0  0  0  0  0  0  0  0  0  0
   -7.8782   -6.6489   -0.7044 H   0  0  0  0  0  0  0  0  0  0  0  0
   -8.1708   -3.9147   -1.5957 S   0  0  0  0  0  0  0  0  0  0  0  0
   -7.5868   -2.6746   -0.8716 O   0  0  0  0  0  0  0  0  0  0  0  0
   -9.2077   -3.4657   -2.5213 O   0  0  0  0  0  0  0  0  0  0  0  0
   -7.0704   -4.7676   -2.1030 O   0  0  0  0  0  0  0  0  0  0  0  0
  -11.0578   -7.1291    2.7249 C   0  0  0  0  0  0  0  0  0  0  0  0
  -11.1447   -6.5684    3.6615 H   0  0  0  0  0  0  0  0  0  0  0  0
  -12.0765   -7.3659    2.3959 H   0  0  0  0  0  0  0  0  0  0  0  0
  -10.5535   -8.0746    2.9407 H   0  0  0  0  0  0  0  0  0  0  0  0
  1  2  1  0  0  0  0
  1  4  2  0  0  0  0
  2  3  2  0  0  0  0
  4 12  1  0  0  0  0
  5  4  1  0  0  0  0
  5 13  1  0  0  0  0
  6  5  2  0  0  0  0
  7  6  1  0  0  0  0
  7  8  2  0  0  0  0
  9  7  2  0  0  0  0
 10 11  2  0  0  0  0
 10  6  1  0  0  0  0
 11  1  1  0  0  0  0
 14 10  1  0  0  0  0
 15 11  1  0  0  0  0
 16 17  2  0  0  0  0
 17 18  1  0  0  0  0
 17 23  1  0  0  0  0
 18 30  1  0  0  0  0
 19 24  1  0  0  0  0
 19 18  2  0  0  0  0
 20 19  1  0  0  0  0
 21 20  2  0  0  0  0
 21 16  1  0  0  0  0
 22 16  1  0  0  0  0
 25 20  1  0  0  0  0
 26 27  1  0  0  0  0
 26 21  1  0  0  0  0
 28 26  2  0  0  0  0
 29 26  2  0  0  0  0
 30 33  1  0  0  0  0
 30 31  1  0  0  0  0
 32 30  1  0  0  0  0
M  RAD  2   3   2  27   2
M  END
