Coordinates from ORCA-job 4-NO2PhN2+~TsO-_B3LYPG-6-31G_dp-NX-Scan-d89-09-n800
 OpenBabel11261920283D

 33 33  0  0  0  0  0  0  0  0999 V2000
   -4.6888   -2.5341    0.3583 C   0  0  0  0  0  0  0  0  0  0  0  0
   -5.6371   -3.2070    1.1863 N   0  0  0  0  0  0  0  0  0  0  0  0
   -5.8830   -3.6368    2.1979 N   0  0  0  0  0  0  0  0  0  0  0  0
   -3.9675   -1.5044    0.9755 C   0  0  0  0  0  0  0  0  0  0  0  0
   -2.9965   -0.8545    0.2235 C   0  0  0  0  0  0  0  0  0  0  0  0
   -2.7797   -1.2710   -1.0890 C   0  0  0  0  0  0  0  0  0  0  0  0
   -1.7328   -0.5817   -1.8787 N   0  0  0  0  0  0  0  0  0  0  0  0
   -1.1238    0.3307   -1.3265 O   0  0  0  0  0  0  0  0  0  0  0  0
   -1.5462   -0.9738   -3.0257 O   0  0  0  0  0  0  0  0  0  0  0  0
   -3.5006   -2.3026   -1.6869 C   0  0  0  0  0  0  0  0  0  0  0  0
   -4.4952   -2.9492   -0.9582 C   0  0  0  0  0  0  0  0  0  0  0  0
   -4.1694   -1.2197    2.0013 H   0  0  0  0  0  0  0  0  0  0  0  0
   -2.4101   -0.0428    0.6346 H   0  0  0  0  0  0  0  0  0  0  0  0
   -3.2900   -2.5800   -2.7115 H   0  0  0  0  0  0  0  0  0  0  0  0
   -5.1099   -3.7468   -1.3758 H   0  0  0  0  0  0  0  0  0  0  0  0
   -9.7439   -4.3703    0.8796 C   0  0  0  0  0  0  0  0  0  0  0  0
  -10.6355   -5.1257    1.6395 C   0  0  0  0  0  0  0  0  0  0  0  0
  -10.7330   -6.5148    1.4760 C   0  0  0  0  0  0  0  0  0  0  0  0
   -9.8991   -7.1330    0.5333 C   0  0  0  0  0  0  0  0  0  0  0  0
   -9.0012   -6.3912   -0.2325 C   0  0  0  0  0  0  0  0  0  0  0  0
   -8.9266   -5.0086   -0.0556 C   0  0  0  0  0  0  0  0  0  0  0  0
   -9.6683   -3.2968    1.0167 H   0  0  0  0  0  0  0  0  0  0  0  0
  -11.2661   -4.6286    2.3726 H   0  0  0  0  0  0  0  0  0  0  0  0
   -9.9524   -8.2108    0.3978 H   0  0  0  0  0  0  0  0  0  0  0  0
   -8.3487   -6.8729   -0.9527 H   0  0  0  0  0  0  0  0  0  0  0  0
   -7.8214   -4.0458   -1.0922 S   0  0  0  0  0  0  0  0  0  0  0  0
   -7.3031   -2.9294   -0.1577 O   0  0  0  0  0  0  0  0  0  0  0  0
   -8.6077   -3.4738   -2.1991 O   0  0  0  0  0  0  0  0  0  0  0  0
   -6.7095   -4.9612   -1.4630 O   0  0  0  0  0  0  0  0  0  0  0  0
  -11.7268   -7.3227    2.2774 C   0  0  0  0  0  0  0  0  0  0  0  0
  -11.9832   -6.8259    3.2173 H   0  0  0  0  0  0  0  0  0  0  0  0
  -12.6598   -7.4646    1.7180 H   0  0  0  0  0  0  0  0  0  0  0  0
  -11.3377   -8.3175    2.5141 H   0  0  0  0  0  0  0  0  0  0  0  0
  1  4  1  0  0  0  0
  1  2  1  0  0  0  0
  2  3  2  0  0  0  0
  4 12  1  0  0  0  0
  5 13  1  0  0  0  0
  5  4  2  0  0  0  0
  6  5  1  0  0  0  0
  7  8  2  0  0  0  0
  7  6  1  0  0  0  0
  9  7  2  0  0  0  0
 10  6  2  0  0  0  0
 10 11  1  0  0  0  0
 11  1  2  0  0  0  0
 14 10  1  0  0  0  0
 15 11  1  0  0  0  0
 16 22  1  0  0  0  0
 16 17  2  0  0  0  0
 17 23  1  0  0  0  0
 18 17  1  0  0  0  0
 18 30  1  0  0  0  0
 19 18  2  0  0  0  0
 20 21  2  0  0  0  0
 20 19  1  0  0  0  0
 21 16  1  0  0  0  0
 24 19  1  0  0  0  0
 25 20  1  0  0  0  0
 26 27  1  0  0  0  0
 26 21  1  0  0  0  0
 28 26  2  0  0  0  0
 29 26  2  0  0  0  0
 30 33  1  0  0  0  0
 30 31  1  0  0  0  0
 32 30  1  0  0  0  0
M  RAD  2   3   2  27   2
M  END
