Coordinates from ORCA-job 4-NO2PhN2+~TsO-_B3LYPG-6-31G_dp-NX-Scan-d89-09-n800
 OpenBabel11261920283D

 33 33  0  0  0  0  0  0  0  0999 V2000
   -4.7387   -0.7629    0.6333 C   0  0  0  0  0  0  0  0  0  0  0  0
   -5.6230    0.0171    1.3418 N   0  0  0  0  0  0  0  0  0  0  0  0
   -6.3564    0.6290    1.9220 N   0  0  0  0  0  0  0  0  0  0  0  0
   -3.3684   -0.4075    0.6259 C   0  0  0  0  0  0  0  0  0  0  0  0
   -2.5241   -1.2221   -0.0999 C   0  0  0  0  0  0  0  0  0  0  0  0
   -3.0585   -2.3369   -0.7706 C   0  0  0  0  0  0  0  0  0  0  0  0
   -2.1133   -3.1910   -1.5347 N   0  0  0  0  0  0  0  0  0  0  0  0
   -0.9310   -2.8536   -1.5279 O   0  0  0  0  0  0  0  0  0  0  0  0
   -2.5792   -4.1659   -2.1085 O   0  0  0  0  0  0  0  0  0  0  0  0
   -4.4058   -2.6743   -0.7547 C   0  0  0  0  0  0  0  0  0  0  0  0
   -5.2888   -1.8653   -0.0389 C   0  0  0  0  0  0  0  0  0  0  0  0
   -3.0052    0.4612    1.1627 H   0  0  0  0  0  0  0  0  0  0  0  0
   -1.4617   -1.0248   -0.1644 H   0  0  0  0  0  0  0  0  0  0  0  0
   -4.8108   -3.5262   -1.2908 H   0  0  0  0  0  0  0  0  0  0  0  0
   -6.3739   -2.0681    0.0092 H   0  0  0  0  0  0  0  0  0  0  0  0
   -9.9112   -4.6345    1.0225 C   0  0  0  0  0  0  0  0  0  0  0  0
  -10.4671   -5.7848    1.5749 C   0  0  0  0  0  0  0  0  0  0  0  0
  -10.1966   -7.0527    1.0358 C   0  0  0  0  0  0  0  0  0  0  0  0
   -9.3474   -7.1329   -0.0742 C   0  0  0  0  0  0  0  0  0  0  0  0
   -8.7833   -5.9869   -0.6368 C   0  0  0  0  0  0  0  0  0  0  0  0
   -9.0680   -4.7378   -0.0875 C   0  0  0  0  0  0  0  0  0  0  0  0
  -10.1150   -3.6581    1.4487 H   0  0  0  0  0  0  0  0  0  0  0  0
  -11.1197   -5.7009    2.4412 H   0  0  0  0  0  0  0  0  0  0  0  0
   -9.1223   -8.1058   -0.5042 H   0  0  0  0  0  0  0  0  0  0  0  0
   -8.1185   -6.0512   -1.4916 H   0  0  0  0  0  0  0  0  0  0  0  0
   -8.3963   -3.2511   -0.8480 S   0  0  0  0  0  0  0  0  0  0  0  0
   -8.0843   -2.3384    0.3207 O   0  0  0  0  0  0  0  0  0  0  0  0
   -9.4370   -2.7087   -1.7428 O   0  0  0  0  0  0  0  0  0  0  0  0
   -7.1397   -3.6840   -1.5334 O   0  0  0  0  0  0  0  0  0  0  0  0
  -10.8052   -8.2930    1.6474 C   0  0  0  0  0  0  0  0  0  0  0  0
  -10.4829   -8.4264    2.6868 H   0  0  0  0  0  0  0  0  0  0  0  0
  -11.9002   -8.2370    1.6570 H   0  0  0  0  0  0  0  0  0  0  0  0
  -10.5212   -9.1917    1.0932 H   0  0  0  0  0  0  0  0  0  0  0  0
  1  2  1  0  0  0  0
  2  3  1  0  0  0  0
  4  1  1  0  0  0  0
  4 12  1  0  0  0  0
  5  4  2  0  0  0  0
  6 10  2  0  0  0  0
  6  5  1  0  0  0  0
  7  8  2  0  0  0  0
  7  6  1  0  0  0  0
  9  7  2  0  0  0  0
 10 11  1  0  0  0  0
 11 15  1  0  0  0  0
 11  1  2  0  0  0  0
 13  5  1  0  0  0  0
 14 10  1  0  0  0  0
 16 22  1  0  0  0  0
 16 17  2  0  0  0  0
 17 23  1  0  0  0  0
 18 17  1  0  0  0  0
 18 30  1  0  0  0  0
 19 18  2  0  0  0  0
 20 21  2  0  0  0  0
 20 19  1  0  0  0  0
 21 16  1  0  0  0  0
 24 19  1  0  0  0  0
 25 20  1  0  0  0  0
 26 21  1  0  0  0  0
 26 27  1  0  0  0  0
 28 26  2  0  0  0  0
 29 26  2  0  0  0  0
 30 32  1  0  0  0  0
 30 31  1  0  0  0  0
 33 30  1  0  0  0  0
M  RAD  3   2   2   3   3  27   2
M  END
