Coordinates from ORCA-job 4-NO2PhN2+~TsO-_B3LYPG-6-31G_dp-NX-Scan-d89-09-n800
 OpenBabel11261920283D

 33 33  0  0  0  0  0  0  0  0999 V2000
   -4.4352   -2.2160    0.4395 C   0  0  0  0  0  0  0  0  0  0  0  0
   -5.2470   -2.4070    1.6022 N   0  0  0  0  0  0  0  0  0  0  0  0
   -5.3612   -2.1993    2.7036 N   0  0  0  0  0  0  0  0  0  0  0  0
   -3.0691   -2.0237    0.6910 C   0  0  0  0  0  0  0  0  0  0  0  0
   -2.2296   -1.7914   -0.3898 C   0  0  0  0  0  0  0  0  0  0  0  0
   -2.7875   -1.7445   -1.6668 C   0  0  0  0  0  0  0  0  0  0  0  0
   -1.8888   -1.4918   -2.8167 N   0  0  0  0  0  0  0  0  0  0  0  0
   -0.6966   -1.3283   -2.5708 O   0  0  0  0  0  0  0  0  0  0  0  0
   -2.3979   -1.4607   -3.9322 O   0  0  0  0  0  0  0  0  0  0  0  0
   -4.1473   -1.9232   -1.9047 C   0  0  0  0  0  0  0  0  0  0  0  0
   -5.0023   -2.1774   -0.8334 C   0  0  0  0  0  0  0  0  0  0  0  0
   -2.6834   -2.0632    1.7033 H   0  0  0  0  0  0  0  0  0  0  0  0
   -1.1650   -1.6432   -0.2609 H   0  0  0  0  0  0  0  0  0  0  0  0
   -4.5257   -1.8702   -2.9177 H   0  0  0  0  0  0  0  0  0  0  0  0
   -6.0702   -2.3287   -0.9782 H   0  0  0  0  0  0  0  0  0  0  0  0
   -9.5678   -4.9521    2.0702 C   0  0  0  0  0  0  0  0  0  0  0  0
  -10.4065   -6.0606    2.1710 C   0  0  0  0  0  0  0  0  0  0  0  0
  -10.7799   -6.7931    1.0356 C   0  0  0  0  0  0  0  0  0  0  0  0
  -10.2886   -6.3855   -0.2137 C   0  0  0  0  0  0  0  0  0  0  0  0
   -9.4500   -5.2799   -0.3318 C   0  0  0  0  0  0  0  0  0  0  0  0
   -9.0929   -4.5689    0.8155 C   0  0  0  0  0  0  0  0  0  0  0  0
   -9.2932   -4.3755    2.9468 H   0  0  0  0  0  0  0  0  0  0  0  0
  -10.7821   -6.3594    3.1460 H   0  0  0  0  0  0  0  0  0  0  0  0
  -10.5713   -6.9390   -1.1056 H   0  0  0  0  0  0  0  0  0  0  0  0
   -9.0836   -4.9545   -1.2989 H   0  0  0  0  0  0  0  0  0  0  0  0
   -7.9966   -3.1601    0.6838 S   0  0  0  0  0  0  0  0  0  0  0  0
   -6.5943   -3.8026    0.8409 O   0  0  0  0  0  0  0  0  0  0  0  0
   -8.2783   -2.2442    1.8050 O   0  0  0  0  0  0  0  0  0  0  0  0
   -8.1440   -2.6095   -0.6846 O   0  0  0  0  0  0  0  0  0  0  0  0
  -11.7156   -7.9729    1.1470 C   0  0  0  0  0  0  0  0  0  0  0  0
  -11.7346   -8.3751    2.1638 H   0  0  0  0  0  0  0  0  0  0  0  0
  -12.7428   -7.6860    0.8887 H   0  0  0  0  0  0  0  0  0  0  0  0
  -11.4258   -8.7795    0.4664 H   0  0  0  0  0  0  0  0  0  0  0  0
  1  4  1  0  0  0  0
  1  2  1  0  0  0  0
  2  3  2  0  0  0  0
  4 12  1  0  0  0  0
  5 13  1  0  0  0  0
  5  4  2  0  0  0  0
  6  5  1  0  0  0  0
  7  8  2  0  0  0  0
  7  6  1  0  0  0  0
  9  7  2  0  0  0  0
 10  6  2  0  0  0  0
 10 11  1  0  0  0  0
 11  1  2  0  0  0  0
 14 10  1  0  0  0  0
 15 11  1  0  0  0  0
 16 17  1  0  0  0  0
 16 22  1  0  0  0  0
 17 23  1  0  0  0  0
 18 30  1  0  0  0  0
 18 17  2  0  0  0  0
 19 18  1  0  0  0  0
 20 19  2  0  0  0  0
 20 21  1  0  0  0  0
 21 16  2  0  0  0  0
 24 19  1  0  0  0  0
 25 20  1  0  0  0  0
 26 21  1  0  0  0  0
 26 27  2  0  0  0  0
 26 28  1  0  0  0  0
 29 26  2  0  0  0  0
 30 31  1  0  0  0  0
 32 30  1  0  0  0  0
 33 30  1  0  0  0  0
M  RAD  2   3   2  28   2
M  END
