Coordinates from ORCA-job 4-NO2PhN2+~TsO-_B3LYPG-6-31G_dp-NX-Scan-d89-09-n800
 OpenBabel11261920283D

 33 33  0  0  0  0  0  0  0  0999 V2000
   -4.1223   -2.9506    0.3192 C   0  0  0  0  0  0  0  0  0  0  0  0
   -4.6258   -3.8557    1.3062 N   0  0  0  0  0  0  0  0  0  0  0  0
   -4.4598   -4.2670    2.3430 N   0  0  0  0  0  0  0  0  0  0  0  0
   -3.2583   -1.9579    0.8076 C   0  0  0  0  0  0  0  0  0  0  0  0
   -2.6997   -1.0709   -0.1005 C   0  0  0  0  0  0  0  0  0  0  0  0
   -3.0125   -1.2148   -1.4528 C   0  0  0  0  0  0  0  0  0  0  0  0
   -2.4063   -0.2691   -2.4184 N   0  0  0  0  0  0  0  0  0  0  0  0
   -1.6665    0.5989   -1.9627 O   0  0  0  0  0  0  0  0  0  0  0  0
   -2.6805   -0.4232   -3.6038 O   0  0  0  0  0  0  0  0  0  0  0  0
   -3.8667   -2.2032   -1.9296 C   0  0  0  0  0  0  0  0  0  0  0  0
   -4.4430   -3.0961   -1.0278 C   0  0  0  0  0  0  0  0  0  0  0  0
   -3.0452   -1.8854    1.8677 H   0  0  0  0  0  0  0  0  0  0  0  0
   -2.0340   -0.2781    0.2162 H   0  0  0  0  0  0  0  0  0  0  0  0
   -4.0851   -2.2624   -2.9882 H   0  0  0  0  0  0  0  0  0  0  0  0
   -5.1406   -3.8596   -1.3452 H   0  0  0  0  0  0  0  0  0  0  0  0
   -9.3823   -4.7827    1.8228 C   0  0  0  0  0  0  0  0  0  0  0  0
  -10.4695   -5.5877    2.1574 C   0  0  0  0  0  0  0  0  0  0  0  0
  -11.0493   -6.4507    1.2166 C   0  0  0  0  0  0  0  0  0  0  0  0
  -10.5092   -6.4876   -0.0775 C   0  0  0  0  0  0  0  0  0  0  0  0
   -9.4240   -5.6880   -0.4285 C   0  0  0  0  0  0  0  0  0  0  0  0
   -8.8650   -4.8394    0.5283 C   0  0  0  0  0  0  0  0  0  0  0  0
   -8.9444   -4.1033    2.5462 H   0  0  0  0  0  0  0  0  0  0  0  0
  -10.8784   -5.5424    3.1635 H   0  0  0  0  0  0  0  0  0  0  0  0
  -10.9484   -7.1479   -0.8211 H   0  0  0  0  0  0  0  0  0  0  0  0
   -9.0171   -5.7042   -1.4335 H   0  0  0  0  0  0  0  0  0  0  0  0
   -7.4541   -3.8244    0.0934 S   0  0  0  0  0  0  0  0  0  0  0  0
   -6.2516   -4.7638    0.4067 O   0  0  0  0  0  0  0  0  0  0  0  0
   -7.4329   -2.6519    0.9913 O   0  0  0  0  0  0  0  0  0  0  0  0
   -7.5254   -3.5642   -1.3595 O   0  0  0  0  0  0  0  0  0  0  0  0
  -12.2486   -7.2952    1.5759 C   0  0  0  0  0  0  0  0  0  0  0  0
  -12.2884   -7.4998    2.6496 H   0  0  0  0  0  0  0  0  0  0  0  0
  -13.1824   -6.7864    1.3051 H   0  0  0  0  0  0  0  0  0  0  0  0
  -12.2374   -8.2524    1.0470 H   0  0  0  0  0  0  0  0  0  0  0  0
  1  4  1  0  0  0  0
  1  2  1  0  0  0  0
  2  3  2  0  0  0  0
  4 12  1  0  0  0  0
  5 13  1  0  0  0  0
  5  4  2  0  0  0  0
  6  5  1  0  0  0  0
  7  8  2  0  0  0  0
  7  6  1  0  0  0  0
  9  7  2  0  0  0  0
 10  6  2  0  0  0  0
 10 11  1  0  0  0  0
 11  1  2  0  0  0  0
 14 10  1  0  0  0  0
 15 11  1  0  0  0  0
 16 17  1  0  0  0  0
 16 22  1  0  0  0  0
 17 23  1  0  0  0  0
 18 30  1  0  0  0  0
 18 17  2  0  0  0  0
 19 18  1  0  0  0  0
 20 19  2  0  0  0  0
 20 21  1  0  0  0  0
 21 16  2  0  0  0  0
 24 19  1  0  0  0  0
 25 20  1  0  0  0  0
 26 27  2  0  0  0  0
 26 21  1  0  0  0  0
 26 28  1  0  0  0  0
 29 26  2  0  0  0  0
 30 31  1  0  0  0  0
 32 30  1  0  0  0  0
 33 30  1  0  0  0  0
M  RAD  2   3   2  28   2
M  END
