Coordinates from ORCA-job 4-NO2PhN2+~TsO-_B3LYPG-6-31G_dp-NX-Scan-d89-09-n800
 OpenBabel11261920283D

 33 33  0  0  0  0  0  0  0  0999 V2000
   -4.6124   -1.5253    0.3538 C   0  0  0  0  0  0  0  0  0  0  0  0
   -5.6020   -1.2330    1.2836 N   0  0  0  0  0  0  0  0  0  0  0  0
   -6.4605   -1.0246    1.9790 N   0  0  0  0  0  0  0  0  0  0  0  0
   -3.2902   -1.2229    0.7203 C   0  0  0  0  0  0  0  0  0  0  0  0
   -2.2820   -1.4901   -0.1931 C   0  0  0  0  0  0  0  0  0  0  0  0
   -2.6340   -2.0275   -1.4322 C   0  0  0  0  0  0  0  0  0  0  0  0
   -1.5516   -2.3019   -2.4073 N   0  0  0  0  0  0  0  0  0  0  0  0
   -0.4037   -2.0423   -2.0564 O   0  0  0  0  0  0  0  0  0  0  0  0
   -1.8789   -2.7662   -3.4940 O   0  0  0  0  0  0  0  0  0  0  0  0
   -3.9475   -2.3141   -1.7943 C   0  0  0  0  0  0  0  0  0  0  0  0
   -4.9755   -2.0733   -0.8869 C   0  0  0  0  0  0  0  0  0  0  0  0
   -3.0716   -0.7998    1.6937 H   0  0  0  0  0  0  0  0  0  0  0  0
   -1.2425   -1.2876    0.0296 H   0  0  0  0  0  0  0  0  0  0  0  0
   -4.1552   -2.7335   -2.7703 H   0  0  0  0  0  0  0  0  0  0  0  0
   -6.0175   -2.3014   -1.1116 H   0  0  0  0  0  0  0  0  0  0  0  0
   -8.6707   -5.8067    1.5320 C   0  0  0  0  0  0  0  0  0  0  0  0
   -9.5822   -6.8545    1.6659 C   0  0  0  0  0  0  0  0  0  0  0  0
  -10.8148   -6.8326    1.0005 C   0  0  0  0  0  0  0  0  0  0  0  0
  -11.1116   -5.7312    0.1823 C   0  0  0  0  0  0  0  0  0  0  0  0
  -10.2113   -4.6793    0.0362 C   0  0  0  0  0  0  0  0  0  0  0  0
   -8.9917   -4.7226    0.7164 C   0  0  0  0  0  0  0  0  0  0  0  0
   -7.7103   -5.8298    2.0348 H   0  0  0  0  0  0  0  0  0  0  0  0
   -9.3295   -7.7056    2.2936 H   0  0  0  0  0  0  0  0  0  0  0  0
  -12.0589   -5.7017   -0.3505 H   0  0  0  0  0  0  0  0  0  0  0  0
  -10.4347   -3.8371   -0.6101 H   0  0  0  0  0  0  0  0  0  0  0  0
   -7.8459   -3.3561    0.5682 S   0  0  0  0  0  0  0  0  0  0  0  0
   -6.4786   -3.8855    0.8446 O   0  0  0  0  0  0  0  0  0  0  0  0
   -8.2561   -2.3546    1.6294 O   0  0  0  0  0  0  0  0  0  0  0  0
   -7.9999   -2.8091   -0.8091 O   0  0  0  0  0  0  0  0  0  0  0  0
  -11.8083   -7.9592    1.1599 C   0  0  0  0  0  0  0  0  0  0  0  0
  -11.3648   -8.8151    1.6757 H   0  0  0  0  0  0  0  0  0  0  0  0
  -12.6810   -7.6376    1.7413 H   0  0  0  0  0  0  0  0  0  0  0  0
  -12.1794   -8.3050    0.1894 H   0  0  0  0  0  0  0  0  0  0  0  0
  1  4  1  0  0  0  0
  1  2  1  0  0  0  0
  2  3  1  0  0  0  0
  4 12  1  0  0  0  0
  5 13  1  0  0  0  0
  5  4  2  0  0  0  0
  6  5  1  0  0  0  0
  7  8  2  0  0  0  0
  7  6  1  0  0  0  0
  9  7  2  0  0  0  0
 10  6  2  0  0  0  0
 10 11  1  0  0  0  0
 11  1  2  0  0  0  0
 14 10  1  0  0  0  0
 15 11  1  0  0  0  0
 16 17  1  0  0  0  0
 16 22  1  0  0  0  0
 17 23  1  0  0  0  0
 18 30  1  0  0  0  0
 18 17  2  0  0  0  0
 19 18  1  0  0  0  0
 20 19  2  0  0  0  0
 20 21  1  0  0  0  0
 21 16  2  0  0  0  0
 24 19  1  0  0  0  0
 25 20  1  0  0  0  0
 26 21  1  0  0  0  0
 26 27  2  0  0  0  0
 26 28  1  0  0  0  0
 29 26  2  0  0  0  0
 30 31  1  0  0  0  0
 30 32  1  0  0  0  0
 33 30  1  0  0  0  0
M  RAD  3   2   2   3   3  28   2
M  END
