Coordinates from ORCA-job 4-NO2PhN2+~TsO-_B3LYPG-6-31G_dp-NX-Scan-d89-09-n800
 OpenBabel11261920283D

 33 33  0  0  0  0  0  0  0  0999 V2000
   -5.6252   -2.3418    0.0467 C   0  0  0  0  0  0  0  0  0  0  0  0
   -7.0010   -2.4693    0.4167 N   0  0  0  0  0  0  0  0  0  0  0  0
   -7.7280   -2.5172    1.2809 N   0  0  0  0  0  0  0  0  0  0  0  0
   -4.7792   -1.8107    1.0312 C   0  0  0  0  0  0  0  0  0  0  0  0
   -3.4271   -1.6902    0.7405 C   0  0  0  0  0  0  0  0  0  0  0  0
   -2.9739   -2.1169   -0.5077 C   0  0  0  0  0  0  0  0  0  0  0  0
   -1.5297   -1.9907   -0.8116 N   0  0  0  0  0  0  0  0  0  0  0  0
   -0.8130   -1.5114    0.0630 O   0  0  0  0  0  0  0  0  0  0  0  0
   -1.1518   -2.3746   -1.9135 O   0  0  0  0  0  0  0  0  0  0  0  0
   -3.8179   -2.6551   -1.4749 C   0  0  0  0  0  0  0  0  0  0  0  0
   -5.1811   -2.7677   -1.2050 C   0  0  0  0  0  0  0  0  0  0  0  0
   -5.1783   -1.4963    1.9884 H   0  0  0  0  0  0  0  0  0  0  0  0
   -2.7264   -1.2781    1.4551 H   0  0  0  0  0  0  0  0  0  0  0  0
   -3.4101   -2.9736   -2.4256 H   0  0  0  0  0  0  0  0  0  0  0  0
   -5.8754   -3.1768   -1.9327 H   0  0  0  0  0  0  0  0  0  0  0  0
  -10.1373   -4.2869    0.2473 C   0  0  0  0  0  0  0  0  0  0  0  0
  -10.4595   -5.1062    1.3273 C   0  0  0  0  0  0  0  0  0  0  0  0
   -9.7030   -6.2501    1.6225 C   0  0  0  0  0  0  0  0  0  0  0  0
   -8.6072   -6.5536    0.8023 C   0  0  0  0  0  0  0  0  0  0  0  0
   -8.2704   -5.7418   -0.2806 C   0  0  0  0  0  0  0  0  0  0  0  0
   -9.0350   -4.6060   -0.5513 C   0  0  0  0  0  0  0  0  0  0  0  0
  -10.7399   -3.4167    0.0094 H   0  0  0  0  0  0  0  0  0  0  0  0
  -11.3173   -4.8594    1.9479 H   0  0  0  0  0  0  0  0  0  0  0  0
   -8.0154   -7.4420    1.0078 H   0  0  0  0  0  0  0  0  0  0  0  0
   -7.4370   -5.9878   -0.9303 H   0  0  0  0  0  0  0  0  0  0  0  0
   -8.6135   -3.5412   -1.9361 S   0  0  0  0  0  0  0  0  0  0  0  0
   -7.9259   -2.2869   -1.3189 O   0  0  0  0  0  0  0  0  0  0  0  0
   -9.8811   -3.1005   -2.5168 O   0  0  0  0  0  0  0  0  0  0  0  0
   -7.6381   -4.2911   -2.7550 O   0  0  0  0  0  0  0  0  0  0  0  0
  -10.0843   -7.1511    2.7728 C   0  0  0  0  0  0  0  0  0  0  0  0
  -10.5074   -6.5809    3.6054 H   0  0  0  0  0  0  0  0  0  0  0  0
  -10.8413   -7.8826    2.4636 H   0  0  0  0  0  0  0  0  0  0  0  0
   -9.2226   -7.7118    3.1461 H   0  0  0  0  0  0  0  0  0  0  0  0
  1  2  1  0  0  0  0
  1  4  2  0  0  0  0
  2  3  2  0  0  0  0
  4 12  1  0  0  0  0
  5  4  1  0  0  0  0
  5 13  1  0  0  0  0
  6  5  2  0  0  0  0
  7  6  1  0  0  0  0
  7  8  2  0  0  0  0
  9  7  2  0  0  0  0
 10 11  2  0  0  0  0
 10  6  1  0  0  0  0
 11  1  1  0  0  0  0
 14 10  1  0  0  0  0
 15 11  1  0  0  0  0
 16 17  2  0  0  0  0
 17 18  1  0  0  0  0
 17 23  1  0  0  0  0
 18 30  1  0  0  0  0
 19 24  1  0  0  0  0
 19 18  2  0  0  0  0
 20 19  1  0  0  0  0
 21 20  2  0  0  0  0
 21 16  1  0  0  0  0
 22 16  1  0  0  0  0
 25 20  1  0  0  0  0
 26 27  1  0  0  0  0
 26 21  1  0  0  0  0
 28 26  2  0  0  0  0
 29 26  2  0  0  0  0
 30 33  1  0  0  0  0
 30 31  1  0  0  0  0
 32 30  1  0  0  0  0
M  RAD  2   3   2  27   2
M  END
