Coordinates from ORCA-job 4-NO2PhN2+~TsO-_B3LYPG-6-31G_dp-NX-Scan-d89-09-n800
 OpenBabel11261920283D

 33 33  0  0  0  0  0  0  0  0999 V2000
   -4.8116   -0.6486    0.7368 C   0  0  0  0  0  0  0  0  0  0  0  0
   -5.4204    0.3803    1.4074 N   0  0  0  0  0  0  0  0  0  0  0  0
   -5.8716    1.2282    1.9859 N   0  0  0  0  0  0  0  0  0  0  0  0
   -3.4074   -0.7720    0.9103 C   0  0  0  0  0  0  0  0  0  0  0  0
   -2.7763   -1.7954    0.2381 C   0  0  0  0  0  0  0  0  0  0  0  0
   -3.5473   -2.6618   -0.5551 C   0  0  0  0  0  0  0  0  0  0  0  0
   -2.8367   -3.7704   -1.2410 N   0  0  0  0  0  0  0  0  0  0  0  0
   -1.6223   -3.8460   -1.0562 O   0  0  0  0  0  0  0  0  0  0  0  0
   -3.5069   -4.5239   -1.9325 O   0  0  0  0  0  0  0  0  0  0  0  0
   -4.9220   -2.5423   -0.7154 C   0  0  0  0  0  0  0  0  0  0  0  0
   -5.5928   -1.4972   -0.0735 C   0  0  0  0  0  0  0  0  0  0  0  0
   -2.8627   -0.0874    1.5503 H   0  0  0  0  0  0  0  0  0  0  0  0
   -1.7084   -1.9544    0.3177 H   0  0  0  0  0  0  0  0  0  0  0  0
   -5.5196   -3.2194   -1.3284 H   0  0  0  0  0  0  0  0  0  0  0  0
   -6.6873   -1.4123   -0.1859 H   0  0  0  0  0  0  0  0  0  0  0  0
   -9.7896   -4.5247    0.8190 C   0  0  0  0  0  0  0  0  0  0  0  0
  -10.1257   -5.6949    1.4967 C   0  0  0  0  0  0  0  0  0  0  0  0
   -9.7206   -6.9505    1.0208 C   0  0  0  0  0  0  0  0  0  0  0  0
   -8.9671   -7.0004   -0.1595 C   0  0  0  0  0  0  0  0  0  0  0  0
   -8.6236   -5.8362   -0.8465 C   0  0  0  0  0  0  0  0  0  0  0  0
   -9.0363   -4.5974   -0.3548 C   0  0  0  0  0  0  0  0  0  0  0  0
  -10.0999   -3.5558    1.1950 H   0  0  0  0  0  0  0  0  0  0  0  0
  -10.7119   -5.6344    2.4109 H   0  0  0  0  0  0  0  0  0  0  0  0
   -8.6450   -7.9639   -0.5470 H   0  0  0  0  0  0  0  0  0  0  0  0
   -8.0352   -5.8765   -1.7568 H   0  0  0  0  0  0  0  0  0  0  0  0
   -8.6554   -3.0975   -1.2757 S   0  0  0  0  0  0  0  0  0  0  0  0
   -8.4129   -2.0549   -0.2071 O   0  0  0  0  0  0  0  0  0  0  0  0
   -9.8254   -2.8053   -2.1281 O   0  0  0  0  0  0  0  0  0  0  0  0
   -7.4004   -3.4029   -2.0299 O   0  0  0  0  0  0  0  0  0  0  0  0
  -10.0630   -8.2125    1.7773 C   0  0  0  0  0  0  0  0  0  0  0  0
   -9.3129   -8.4314    2.5482 H   0  0  0  0  0  0  0  0  0  0  0  0
  -11.0300   -8.1264    2.2829 H   0  0  0  0  0  0  0  0  0  0  0  0
  -10.1064   -9.0791    1.1107 H   0  0  0  0  0  0  0  0  0  0  0  0
  1  4  1  0  0  0  0
  1  2  1  0  0  0  0
  2  3  1  0  0  0  0
  4 12  1  0  0  0  0
  5 13  1  0  0  0  0
  5  4  2  0  0  0  0
  6  5  1  0  0  0  0
  7  8  2  0  0  0  0
  7  6  1  0  0  0  0
  9  7  2  0  0  0  0
 10  6  2  0  0  0  0
 10 11  1  0  0  0  0
 11  1  2  0  0  0  0
 14 10  1  0  0  0  0
 15 11  1  0  0  0  0
 16 22  1  0  0  0  0
 16 17  2  0  0  0  0
 17 23  1  0  0  0  0
 18 17  1  0  0  0  0
 18 30  1  0  0  0  0
 19 18  2  0  0  0  0
 20 21  2  0  0  0  0
 20 19  1  0  0  0  0
 21 16  1  0  0  0  0
 24 19  1  0  0  0  0
 25 20  1  0  0  0  0
 26 21  1  0  0  0  0
 26 27  1  0  0  0  0
 28 26  2  0  0  0  0
 29 26  2  0  0  0  0
 30 32  1  0  0  0  0
 30 31  1  0  0  0  0
 33 30  1  0  0  0  0
M  RAD  3   2   2   3   3  27   2
M  END
