Coordinates from ORCA-job 4-NO2PhN2+~TsO-_B3LYPG-6-31G_dp-NX-Scan-d89-09-n800
 OpenBabel11261920283D

 33 33  0  0  0  0  0  0  0  0999 V2000
   -4.2151   -2.7641    0.3335 C   0  0  0  0  0  0  0  0  0  0  0  0
   -4.8619   -3.5011    1.3736 N   0  0  0  0  0  0  0  0  0  0  0  0
   -4.8751   -3.7194    2.4784 N   0  0  0  0  0  0  0  0  0  0  0  0
   -3.2762   -1.8172    0.7752 C   0  0  0  0  0  0  0  0  0  0  0  0
   -2.5954   -1.0746   -0.1775 C   0  0  0  0  0  0  0  0  0  0  0  0
   -2.8696   -1.3071   -1.5260 C   0  0  0  0  0  0  0  0  0  0  0  0
   -2.1339   -0.5150   -2.5391 N   0  0  0  0  0  0  0  0  0  0  0  0
   -1.3271    0.3127   -2.1244 O   0  0  0  0  0  0  0  0  0  0  0  0
   -2.3795   -0.7442   -3.7186 O   0  0  0  0  0  0  0  0  0  0  0  0
   -3.8006   -2.2459   -1.9566 C   0  0  0  0  0  0  0  0  0  0  0  0
   -4.4969   -2.9961   -1.0105 C   0  0  0  0  0  0  0  0  0  0  0  0
   -3.0992   -1.6695    1.8342 H   0  0  0  0  0  0  0  0  0  0  0  0
   -1.8649   -0.3259    0.1016 H   0  0  0  0  0  0  0  0  0  0  0  0
   -3.9807   -2.3786   -3.0158 H   0  0  0  0  0  0  0  0  0  0  0  0
   -5.2490   -3.7240   -1.2844 H   0  0  0  0  0  0  0  0  0  0  0  0
   -9.3394   -4.9676    1.9226 C   0  0  0  0  0  0  0  0  0  0  0  0
  -10.3860   -5.8409    2.2110 C   0  0  0  0  0  0  0  0  0  0  0  0
  -11.0360   -6.5552    1.1942 C   0  0  0  0  0  0  0  0  0  0  0  0
  -10.6073   -6.3720   -0.1284 C   0  0  0  0  0  0  0  0  0  0  0  0
   -9.5628   -5.5015   -0.4336 C   0  0  0  0  0  0  0  0  0  0  0  0
   -8.9328   -4.8042    0.5977 C   0  0  0  0  0  0  0  0  0  0  0  0
   -8.8492   -4.4035    2.7085 H   0  0  0  0  0  0  0  0  0  0  0  0
  -10.7083   -5.9666    3.2416 H   0  0  0  0  0  0  0  0  0  0  0  0
  -11.1013   -6.9145   -0.9304 H   0  0  0  0  0  0  0  0  0  0  0  0
   -9.2418   -5.3472   -1.4579 H   0  0  0  0  0  0  0  0  0  0  0  0
   -7.5737   -3.7004    0.2178 S   0  0  0  0  0  0  0  0  0  0  0  0
   -6.3248   -4.6140    0.3700 O   0  0  0  0  0  0  0  0  0  0  0  0
   -7.5367   -2.6424    1.2505 O   0  0  0  0  0  0  0  0  0  0  0  0
   -7.7244   -3.2718   -1.1868 O   0  0  0  0  0  0  0  0  0  0  0  0
  -12.1936   -7.4717    1.5115 C   0  0  0  0  0  0  0  0  0  0  0  0
  -12.1254   -7.8657    2.5297 H   0  0  0  0  0  0  0  0  0  0  0  0
  -13.1496   -6.9388    1.4319 H   0  0  0  0  0  0  0  0  0  0  0  0
  -12.2365   -8.3192    0.8211 H   0  0  0  0  0  0  0  0  0  0  0  0
  1  4  1  0  0  0  0
  1  2  1  0  0  0  0
  2  3  2  0  0  0  0
  4 12  1  0  0  0  0
  5 13  1  0  0  0  0
  5  4  2  0  0  0  0
  6  5  1  0  0  0  0
  7  8  2  0  0  0  0
  7  6  1  0  0  0  0
  9  7  2  0  0  0  0
 10  6  2  0  0  0  0
 10 11  1  0  0  0  0
 11  1  2  0  0  0  0
 14 10  1  0  0  0  0
 15 11  1  0  0  0  0
 16 17  1  0  0  0  0
 16 22  1  0  0  0  0
 17 23  1  0  0  0  0
 18 30  1  0  0  0  0
 18 17  2  0  0  0  0
 19 18  1  0  0  0  0
 20 19  2  0  0  0  0
 20 21  1  0  0  0  0
 21 16  2  0  0  0  0
 24 19  1  0  0  0  0
 25 20  1  0  0  0  0
 26 27  2  0  0  0  0
 26 21  1  0  0  0  0
 26 28  1  0  0  0  0
 29 26  2  0  0  0  0
 30 31  1  0  0  0  0
 32 30  1  0  0  0  0
 33 30  1  0  0  0  0
M  RAD  2   3   2  28   2
M  END
