Coordinates from ORCA-job 4-NO2PhN2+~TsO-_B3LYPG-6-31G_dp-NX-Scan-d89-09-n800
 OpenBabel11261920283D

 33 33  0  0  0  0  0  0  0  0999 V2000
   -4.1791   -2.8518    0.3332 C   0  0  0  0  0  0  0  0  0  0  0  0
   -4.7591   -3.6656    1.3561 N   0  0  0  0  0  0  0  0  0  0  0  0
   -4.6963   -3.9617    2.4415 N   0  0  0  0  0  0  0  0  0  0  0  0
   -3.3050   -1.8535    0.7925 C   0  0  0  0  0  0  0  0  0  0  0  0
   -2.6814   -1.0456   -0.1463 C   0  0  0  0  0  0  0  0  0  0  0  0
   -2.9436   -1.2690   -1.4986 C   0  0  0  0  0  0  0  0  0  0  0  0
   -2.2680   -0.4078   -2.4968 N   0  0  0  0  0  0  0  0  0  0  0  0
   -1.5181    0.4649   -2.0673 O   0  0  0  0  0  0  0  0  0  0  0  0
   -2.5015   -0.6294   -3.6803 O   0  0  0  0  0  0  0  0  0  0  0  0
   -3.8093   -2.2608   -1.9466 C   0  0  0  0  0  0  0  0  0  0  0  0
   -4.4498   -3.0752   -1.0144 C   0  0  0  0  0  0  0  0  0  0  0  0
   -3.1342   -1.7163    1.8539 H   0  0  0  0  0  0  0  0  0  0  0  0
   -2.0040   -0.2536    0.1467 H   0  0  0  0  0  0  0  0  0  0  0  0
   -3.9846   -2.3834   -3.0078 H   0  0  0  0  0  0  0  0  0  0  0  0
   -5.1547   -3.8429   -1.3036 H   0  0  0  0  0  0  0  0  0  0  0  0
   -9.3313   -4.9105    1.8906 C   0  0  0  0  0  0  0  0  0  0  0  0
  -10.4028   -5.7472    2.1959 C   0  0  0  0  0  0  0  0  0  0  0  0
  -11.0421   -6.4997    1.2001 C   0  0  0  0  0  0  0  0  0  0  0  0
  -10.5770   -6.3929   -0.1187 C   0  0  0  0  0  0  0  0  0  0  0  0
   -9.5075   -5.5598   -0.4407 C   0  0  0  0  0  0  0  0  0  0  0  0
   -8.8888   -4.8232    0.5700 C   0  0  0  0  0  0  0  0  0  0  0  0
   -8.8488   -4.3166    2.6592 H   0  0  0  0  0  0  0  0  0  0  0  0
  -10.7533   -5.8135    3.2228 H   0  0  0  0  0  0  0  0  0  0  0  0
  -11.0624   -6.9661   -0.9045 H   0  0  0  0  0  0  0  0  0  0  0  0
   -9.1581   -5.4647   -1.4629 H   0  0  0  0  0  0  0  0  0  0  0  0
   -7.4977   -3.7676    0.1695 S   0  0  0  0  0  0  0  0  0  0  0  0
   -6.2753   -4.7075    0.3781 O   0  0  0  0  0  0  0  0  0  0  0  0
   -7.4514   -2.6689    1.1578 O   0  0  0  0  0  0  0  0  0  0  0  0
   -7.6160   -3.3943   -1.2542 O   0  0  0  0  0  0  0  0  0  0  0  0
  -12.2257   -7.3766    1.5329 C   0  0  0  0  0  0  0  0  0  0  0  0
  -12.1929   -7.7173    2.5717 H   0  0  0  0  0  0  0  0  0  0  0  0
  -13.1684   -6.8310    1.3984 H   0  0  0  0  0  0  0  0  0  0  0  0
  -12.2664   -8.2581    0.8866 H   0  0  0  0  0  0  0  0  0  0  0  0
  1  4  1  0  0  0  0
  1  2  1  0  0  0  0
  2  3  2  0  0  0  0
  4 12  1  0  0  0  0
  5 13  1  0  0  0  0
  5  4  2  0  0  0  0
  6  5  1  0  0  0  0
  7  8  2  0  0  0  0
  7  6  1  0  0  0  0
  9  7  2  0  0  0  0
 10  6  2  0  0  0  0
 10 11  1  0  0  0  0
 11  1  2  0  0  0  0
 14 10  1  0  0  0  0
 15 11  1  0  0  0  0
 16 17  1  0  0  0  0
 16 22  1  0  0  0  0
 17 23  1  0  0  0  0
 18 30  1  0  0  0  0
 18 17  2  0  0  0  0
 19 18  1  0  0  0  0
 20 19  2  0  0  0  0
 20 21  1  0  0  0  0
 21 16  2  0  0  0  0
 24 19  1  0  0  0  0
 25 20  1  0  0  0  0
 26 27  2  0  0  0  0
 26 21  1  0  0  0  0
 26 28  1  0  0  0  0
 29 26  2  0  0  0  0
 30 31  1  0  0  0  0
 32 30  1  0  0  0  0
 33 30  1  0  0  0  0
M  RAD  2   3   2  28   2
M  END
