Coordinates from ORCA-job 4-NO2PhN2+~TsO-_B3LYPG-6-31G_dp-NX-Scan-d89-09-n800
 OpenBabel11261920283D

 33 33  0  0  0  0  0  0  0  0999 V2000
   -4.1418   -2.9229    0.3244 C   0  0  0  0  0  0  0  0  0  0  0  0
   -4.6680   -3.8010    1.3238 N   0  0  0  0  0  0  0  0  0  0  0  0
   -4.5335   -4.1742    2.3793 N   0  0  0  0  0  0  0  0  0  0  0  0
   -3.2831   -1.9215    0.8045 C   0  0  0  0  0  0  0  0  0  0  0  0
   -2.7056   -1.0577   -0.1139 C   0  0  0  0  0  0  0  0  0  0  0  0
   -2.9951   -1.2322   -1.4678 C   0  0  0  0  0  0  0  0  0  0  0  0
   -2.3688   -0.3112   -2.4445 N   0  0  0  0  0  0  0  0  0  0  0  0
   -1.6348    0.5655   -1.9963 O   0  0  0  0  0  0  0  0  0  0  0  0
   -2.6234   -0.4917   -3.6306 O   0  0  0  0  0  0  0  0  0  0  0  0
   -3.8443   -2.2287   -1.9365 C   0  0  0  0  0  0  0  0  0  0  0  0
   -4.4394   -3.0984   -1.0244 C   0  0  0  0  0  0  0  0  0  0  0  0
   -3.0889   -1.8245    1.8664 H   0  0  0  0  0  0  0  0  0  0  0  0
   -2.0429   -0.2598    0.1960 H   0  0  0  0  0  0  0  0  0  0  0  0
   -4.0437   -2.3120   -2.9973 H   0  0  0  0  0  0  0  0  0  0  0  0
   -5.1328   -3.8690   -1.3333 H   0  0  0  0  0  0  0  0  0  0  0  0
   -9.3587   -4.8269    1.8477 C   0  0  0  0  0  0  0  0  0  0  0  0
  -10.4431   -5.6396    2.1728 C   0  0  0  0  0  0  0  0  0  0  0  0
  -11.0465   -6.4625    1.2111 C   0  0  0  0  0  0  0  0  0  0  0  0
  -10.5327   -6.4513   -0.0940 C   0  0  0  0  0  0  0  0  0  0  0  0
   -9.4504   -5.6435   -0.4356 C   0  0  0  0  0  0  0  0  0  0  0  0
   -8.8677   -4.8354    0.5418 C   0  0  0  0  0  0  0  0  0  0  0  0
   -8.9032   -4.1784    2.5883 H   0  0  0  0  0  0  0  0  0  0  0  0
  -10.8316   -5.6315    3.1880 H   0  0  0  0  0  0  0  0  0  0  0  0
  -10.9903   -7.0800   -0.8537 H   0  0  0  0  0  0  0  0  0  0  0  0
   -9.0637   -5.6224   -1.4486 H   0  0  0  0  0  0  0  0  0  0  0  0
   -7.4607   -3.8105    0.1178 S   0  0  0  0  0  0  0  0  0  0  0  0
   -6.2534   -4.7555    0.3920 O   0  0  0  0  0  0  0  0  0  0  0  0
   -7.4256   -2.6641    1.0492 O   0  0  0  0  0  0  0  0  0  0  0  0
   -7.5487   -3.5088   -1.3256 O   0  0  0  0  0  0  0  0  0  0  0  0
  -12.2430   -7.3147    1.5614 C   0  0  0  0  0  0  0  0  0  0  0  0
  -12.2627   -7.5605    2.6270 H   0  0  0  0  0  0  0  0  0  0  0  0
  -13.1792   -6.7912    1.3294 H   0  0  0  0  0  0  0  0  0  0  0  0
  -12.2475   -8.2508    0.9959 H   0  0  0  0  0  0  0  0  0  0  0  0
  1  4  1  0  0  0  0
  1  2  1  0  0  0  0
  2  3  2  0  0  0  0
  4 12  1  0  0  0  0
  5 13  1  0  0  0  0
  5  4  2  0  0  0  0
  6  5  1  0  0  0  0
  7  8  2  0  0  0  0
  7  6  1  0  0  0  0
  9  7  2  0  0  0  0
 10  6  2  0  0  0  0
 10 11  1  0  0  0  0
 11  1  2  0  0  0  0
 14 10  1  0  0  0  0
 15 11  1  0  0  0  0
 16 17  1  0  0  0  0
 16 22  1  0  0  0  0
 17 23  1  0  0  0  0
 18 30  1  0  0  0  0
 18 17  2  0  0  0  0
 19 18  1  0  0  0  0
 20 19  2  0  0  0  0
 20 21  1  0  0  0  0
 21 16  2  0  0  0  0
 24 19  1  0  0  0  0
 25 20  1  0  0  0  0
 26 27  2  0  0  0  0
 26 21  1  0  0  0  0
 26 28  1  0  0  0  0
 29 26  2  0  0  0  0
 30 31  1  0  0  0  0
 32 30  1  0  0  0  0
 33 30  1  0  0  0  0
M  RAD  2   3   2  28   2
M  END
