Coordinates from ORCA-job 4-NO2PhN2+~TsO-_B3LYPG-6-31G_dp-NX-Scan-d89-09-n800
 OpenBabel11261920283D

 33 34  0  0  0  0  0  0  0  0999 V2000
   -4.5056   -2.9321    0.3059 C   0  0  0  0  0  0  0  0  0  0  0  0
   -5.0161   -3.9382    1.1815 N   0  0  0  0  0  0  0  0  0  0  0  0
   -5.7114   -4.9037    0.7366 N   0  0  0  0  0  0  0  0  0  0  0  0
   -4.4801   -1.6393    0.8582 C   0  0  0  0  0  0  0  0  0  0  0  0
   -3.9325   -0.5738    0.1567 C   0  0  0  0  0  0  0  0  0  0  0  0
   -3.3747   -0.8170   -1.0982 C   0  0  0  0  0  0  0  0  0  0  0  0
   -2.7863    0.2999   -1.8467 N   0  0  0  0  0  0  0  0  0  0  0  0
   -2.8187    1.4163   -1.3277 O   0  0  0  0  0  0  0  0  0  0  0  0
   -2.2963    0.0557   -2.9498 O   0  0  0  0  0  0  0  0  0  0  0  0
   -3.3544   -2.0938   -1.6581 C   0  0  0  0  0  0  0  0  0  0  0  0
   -3.9263   -3.1509   -0.9591 C   0  0  0  0  0  0  0  0  0  0  0  0
   -4.8980   -1.4954    1.8485 H   0  0  0  0  0  0  0  0  0  0  0  0
   -3.9174    0.4302    0.5621 H   0  0  0  0  0  0  0  0  0  0  0  0
   -2.9021   -2.2393   -2.6306 H   0  0  0  0  0  0  0  0  0  0  0  0
   -3.9135   -4.1414   -1.3956 H   0  0  0  0  0  0  0  0  0  0  0  0
   -8.5660   -6.5331    1.3907 C   0  0  0  0  0  0  0  0  0  0  0  0
   -9.7366   -6.2602    2.0931 C   0  0  0  0  0  0  0  0  0  0  0  0
  -10.7993   -5.5657    1.4957 C   0  0  0  0  0  0  0  0  0  0  0  0
  -10.6683   -5.1477    0.1608 C   0  0  0  0  0  0  0  0  0  0  0  0
   -9.5090   -5.4026   -0.5631 C   0  0  0  0  0  0  0  0  0  0  0  0
   -8.4722   -6.1011    0.0648 C   0  0  0  0  0  0  0  0  0  0  0  0
   -7.7468   -7.0742    1.8491 H   0  0  0  0  0  0  0  0  0  0  0  0
   -9.8271   -6.5949    3.1219 H   0  0  0  0  0  0  0  0  0  0  0  0
  -11.4880   -4.6189   -0.3173 H   0  0  0  0  0  0  0  0  0  0  0  0
   -9.4085   -5.0858   -1.5950 H   0  0  0  0  0  0  0  0  0  0  0  0
   -6.9915   -6.4253   -0.8418 S   0  0  0  0  0  0  0  0  0  0  0  0
   -6.2713   -7.5549   -0.2799 O   0  0  0  0  0  0  0  0  0  0  0  0
   -5.9791   -4.9486   -0.3915 O   0  0  0  0  0  0  0  0  0  0  0  0
   -7.1694   -6.1935   -2.2643 O   0  0  0  0  0  0  0  0  0  0  0  0
  -12.0524   -5.2533    2.2742 C   0  0  0  0  0  0  0  0  0  0  0  0
  -12.1671   -5.9169    3.1344 H   0  0  0  0  0  0  0  0  0  0  0  0
  -12.0245   -4.2242    2.6521 H   0  0  0  0  0  0  0  0  0  0  0  0
  -12.9443   -5.3434    1.6469 H   0  0  0  0  0  0  0  0  0  0  0  0
  1  4  1  0  0  0  0
  1  2  1  0  0  0  0
  3  2  2  0  0  0  0
  4 12  1  0  0  0  0
  5 13  1  0  0  0  0
  5  4  2  0  0  0  0
  6  5  1  0  0  0  0
  7  8  2  0  0  0  0
  7  6  1  0  0  0  0
  9  7  2  0  0  0  0
 10  6  2  0  0  0  0
 10 11  1  0  0  0  0
 11  1  2  0  0  0  0
 14 10  1  0  0  0  0
 15 11  1  0  0  0  0
 16 22  1  0  0  0  0
 16 17  2  0  0  0  0
 17 23  1  0  0  0  0
 18 17  1  0  0  0  0
 18 30  1  0  0  0  0
 19 18  2  0  0  0  0
 20 21  2  0  0  0  0
 20 19  1  0  0  0  0
 21 16  1  0  0  0  0
 24 19  1  0  0  0  0
 25 20  1  0  0  0  0
 26 28  1  0  0  0  0
 26 27  2  0  0  0  0
 26 21  1  0  0  0  0
 28  3  1  0  0  0  0
 29 26  2  0  0  0  0
 30 32  1  0  0  0  0
 30 31  1  0  0  0  0
 33 30  1  0  0  0  0
M  END
