Coordinates from ORCA-job 4-NO2PhN2+~TsO-_B3LYPG-6-31G_dp-NX-Scan-d89-09-n800
 OpenBabel11261920283D

 33 33  0  0  0  0  0  0  0  0999 V2000
   -4.6153   -1.5236    0.3534 C   0  0  0  0  0  0  0  0  0  0  0  0
   -5.6035   -1.2254    1.2827 N   0  0  0  0  0  0  0  0  0  0  0  0
   -6.4542   -1.0029    1.9820 N   0  0  0  0  0  0  0  0  0  0  0  0
   -3.2915   -1.2276    0.7191 C   0  0  0  0  0  0  0  0  0  0  0  0
   -2.2854   -1.5015   -0.1945 C   0  0  0  0  0  0  0  0  0  0  0  0
   -2.6410   -2.0392   -1.4325 C   0  0  0  0  0  0  0  0  0  0  0  0
   -1.5605   -2.3210   -2.4078 N   0  0  0  0  0  0  0  0  0  0  0  0
   -0.4112   -2.0663   -2.0581 O   0  0  0  0  0  0  0  0  0  0  0  0
   -1.8909   -2.7860   -3.4933 O   0  0  0  0  0  0  0  0  0  0  0  0
   -3.9562   -2.3197   -1.7935 C   0  0  0  0  0  0  0  0  0  0  0  0
   -4.9823   -2.0722   -0.8858 C   0  0  0  0  0  0  0  0  0  0  0  0
   -3.0700   -0.8042    1.6918 H   0  0  0  0  0  0  0  0  0  0  0  0
   -1.2447   -1.3041    0.0271 H   0  0  0  0  0  0  0  0  0  0  0  0
   -4.1665   -2.7396   -2.7687 H   0  0  0  0  0  0  0  0  0  0  0  0
   -6.0262   -2.2948   -1.1084 H   0  0  0  0  0  0  0  0  0  0  0  0
   -8.6688   -5.7969    1.5364 C   0  0  0  0  0  0  0  0  0  0  0  0
   -9.5750   -6.8500    1.6645 C   0  0  0  0  0  0  0  0  0  0  0  0
  -10.8051   -6.8333    0.9945 C   0  0  0  0  0  0  0  0  0  0  0  0
  -11.1049   -5.7317    0.1777 C   0  0  0  0  0  0  0  0  0  0  0  0
  -10.2098   -4.6746    0.0374 C   0  0  0  0  0  0  0  0  0  0  0  0
   -8.9925   -4.7126    0.7220 C   0  0  0  0  0  0  0  0  0  0  0  0
   -7.7102   -5.8160    2.0428 H   0  0  0  0  0  0  0  0  0  0  0  0
   -9.3200   -7.7012    2.2912 H   0  0  0  0  0  0  0  0  0  0  0  0
  -12.0503   -5.7062   -0.3586 H   0  0  0  0  0  0  0  0  0  0  0  0
  -10.4354   -3.8321   -0.6078 H   0  0  0  0  0  0  0  0  0  0  0  0
   -7.8541   -3.3391    0.5818 S   0  0  0  0  0  0  0  0  0  0  0  0
   -6.4841   -3.8640    0.8572 O   0  0  0  0  0  0  0  0  0  0  0  0
   -8.2694   -2.3437    1.6448 O   0  0  0  0  0  0  0  0  0  0  0  0
   -8.0072   -2.7894   -0.7948 O   0  0  0  0  0  0  0  0  0  0  0  0
  -11.7931   -7.9658    1.1476 C   0  0  0  0  0  0  0  0  0  0  0  0
  -11.3464   -8.8210    1.6616 H   0  0  0  0  0  0  0  0  0  0  0  0
  -12.6689   -7.6508    1.7279 H   0  0  0  0  0  0  0  0  0  0  0  0
  -12.1600   -8.3102    0.1750 H   0  0  0  0  0  0  0  0  0  0  0  0
  1  4  1  0  0  0  0
  1  2  1  0  0  0  0
  2  3  1  0  0  0  0
  4 12  1  0  0  0  0
  5 13  1  0  0  0  0
  5  4  2  0  0  0  0
  6  5  1  0  0  0  0
  7  8  2  0  0  0  0
  7  6  1  0  0  0  0
  9  7  2  0  0  0  0
 10  6  2  0  0  0  0
 10 11  1  0  0  0  0
 11  1  2  0  0  0  0
 14 10  1  0  0  0  0
 15 11  1  0  0  0  0
 16 17  1  0  0  0  0
 16 22  1  0  0  0  0
 17 23  1  0  0  0  0
 18 30  1  0  0  0  0
 18 17  2  0  0  0  0
 19 18  1  0  0  0  0
 20 19  2  0  0  0  0
 20 21  1  0  0  0  0
 21 16  2  0  0  0  0
 24 19  1  0  0  0  0
 25 20  1  0  0  0  0
 26 21  1  0  0  0  0
 26 27  2  0  0  0  0
 26 28  1  0  0  0  0
 29 26  2  0  0  0  0
 30 31  1  0  0  0  0
 30 32  1  0  0  0  0
 33 30  1  0  0  0  0
M  RAD  3   2   2   3   3  28   2
M  END
