Coordinates from ORCA-job 4-NO2PhN2+~TsO-_B3LYPG-6-31G_dp-NX-Scan-d89-09-n800
 OpenBabel11261920283D

 33 33  0  0  0  0  0  0  0  0999 V2000
   -4.6635   -0.8369    1.1487 C   0  0  0  0  0  0  0  0  0  0  0  0
   -5.1829   -0.1352    2.2077 N   0  0  0  0  0  0  0  0  0  0  0  0
   -5.5215    0.4537    3.1009 N   0  0  0  0  0  0  0  0  0  0  0  0
   -3.2485   -0.7946    1.0296 C   0  0  0  0  0  0  0  0  0  0  0  0
   -2.6792   -1.4944   -0.0115 C   0  0  0  0  0  0  0  0  0  0  0  0
   -3.5151   -2.2046   -0.8862 C   0  0  0  0  0  0  0  0  0  0  0  0
   -2.8556   -2.9462   -1.9946 N   0  0  0  0  0  0  0  0  0  0  0  0
   -1.6250   -2.9915   -1.9680 O   0  0  0  0  0  0  0  0  0  0  0  0
   -3.5789   -3.4447   -2.8414 O   0  0  0  0  0  0  0  0  0  0  0  0
   -4.9007   -2.2515   -0.7721 C   0  0  0  0  0  0  0  0  0  0  0  0
   -5.5117   -1.5449    0.2685 C   0  0  0  0  0  0  0  0  0  0  0  0
   -2.6488   -0.2332    1.7368 H   0  0  0  0  0  0  0  0  0  0  0  0
   -1.6074   -1.5137   -0.1646 H   0  0  0  0  0  0  0  0  0  0  0  0
   -5.5410   -2.8538   -1.4385 H   0  0  0  0  0  0  0  0  0  0  0  0
   -6.6051   -1.5988    0.3380 H   0  0  0  0  0  0  0  0  0  0  0  0
  -10.0185   -4.6275    0.3735 C   0  0  0  0  0  0  0  0  0  0  0  0
  -10.5661   -5.6424    1.1543 C   0  0  0  0  0  0  0  0  0  0  0  0
  -10.0228   -6.9362    1.1468 C   0  0  0  0  0  0  0  0  0  0  0  0
   -8.9101   -7.1845    0.3291 C   0  0  0  0  0  0  0  0  0  0  0  0
   -8.3537   -6.1769   -0.4564 C   0  0  0  0  0  0  0  0  0  0  0  0
   -8.9095   -4.8955   -0.4351 C   0  0  0  0  0  0  0  0  0  0  0  0
  -10.4409   -3.6280    0.3862 H   0  0  0  0  0  0  0  0  0  0  0  0
  -11.4321   -5.4324    1.7777 H   0  0  0  0  0  0  0  0  0  0  0  0
   -8.4770   -8.1822    0.3062 H   0  0  0  0  0  0  0  0  0  0  0  0
   -7.4926   -6.3636   -1.0888 H   0  0  0  0  0  0  0  0  0  0  0  0
   -8.2446   -3.5980   -1.4933 S   0  0  0  0  0  0  0  0  0  0  0  0
   -8.1672   -2.3929   -0.5879 O   0  0  0  0  0  0  0  0  0  0  0  0
   -9.1946   -3.4530   -2.6167 O   0  0  0  0  0  0  0  0  0  0  0  0
   -6.8806   -4.0806   -1.8825 O   0  0  0  0  0  0  0  0  0  0  0  0
  -10.6033   -8.0287    2.0129 C   0  0  0  0  0  0  0  0  0  0  0  0
  -10.0180   -8.1621    2.9315 H   0  0  0  0  0  0  0  0  0  0  0  0
  -11.6304   -7.8003    2.3112 H   0  0  0  0  0  0  0  0  0  0  0  0
  -10.6076   -8.9919    1.4924 H   0  0  0  0  0  0  0  0  0  0  0  0
  1  2  1  0  0  0  0
  2  3  1  0  0  0  0
  4  1  1  0  0  0  0
  4 12  1  0  0  0  0
  5  4  2  0  0  0  0
  6 10  2  0  0  0  0
  6  5  1  0  0  0  0
  7  8  2  0  0  0  0
  7  6  1  0  0  0  0
  9  7  2  0  0  0  0
 10 11  1  0  0  0  0
 11 15  1  0  0  0  0
 11  1  2  0  0  0  0
 13  5  1  0  0  0  0
 14 10  1  0  0  0  0
 16 22  1  0  0  0  0
 16 17  2  0  0  0  0
 17 23  1  0  0  0  0
 18 17  1  0  0  0  0
 18 30  1  0  0  0  0
 19 18  2  0  0  0  0
 20 21  2  0  0  0  0
 20 19  1  0  0  0  0
 21 16  1  0  0  0  0
 24 19  1  0  0  0  0
 25 20  1  0  0  0  0
 26 27  1  0  0  0  0
 26 21  1  0  0  0  0
 28 26  2  0  0  0  0
 29 26  2  0  0  0  0
 30 32  1  0  0  0  0
 30 31  1  0  0  0  0
 33 30  1  0  0  0  0
M  RAD  3   2   2   3   3  27   2
M  END
