Coordinates from ORCA-job 4-NO2PhN2+~TsO-_B3LYPG-6-31G_dp-NX-Scan-d89-09-n800
 OpenBabel11261920283D

 33 33  0  0  0  0  0  0  0  0999 V2000
   -4.7383   -0.6713    0.5882 C   0  0  0  0  0  0  0  0  0  0  0  0
   -5.5937    0.1880    1.2357 N   0  0  0  0  0  0  0  0  0  0  0  0
   -6.3084    0.8632    1.7682 N   0  0  0  0  0  0  0  0  0  0  0  0
   -3.3523   -0.3810    0.5851 C   0  0  0  0  0  0  0  0  0  0  0  0
   -2.5367   -1.2730   -0.0794 C   0  0  0  0  0  0  0  0  0  0  0  0
   -3.1132   -2.3976   -0.6968 C   0  0  0  0  0  0  0  0  0  0  0  0
   -2.1980   -3.3370   -1.3938 N   0  0  0  0  0  0  0  0  0  0  0  0
   -1.0009   -3.0560   -1.3828 O   0  0  0  0  0  0  0  0  0  0  0  0
   -2.7006   -4.3197   -1.9217 O   0  0  0  0  0  0  0  0  0  0  0  0
   -4.4750   -2.6711   -0.6865 C   0  0  0  0  0  0  0  0  0  0  0  0
   -5.3305   -1.7831   -0.0328 C   0  0  0  0  0  0  0  0  0  0  0  0
   -2.9568    0.4982    1.0804 H   0  0  0  0  0  0  0  0  0  0  0  0
   -1.4651   -1.1296   -0.1350 H   0  0  0  0  0  0  0  0  0  0  0  0
   -4.9132   -3.5308   -1.1831 H   0  0  0  0  0  0  0  0  0  0  0  0
   -6.4235   -1.9431    0.0160 H   0  0  0  0  0  0  0  0  0  0  0  0
   -9.8813   -4.6494    1.0347 C   0  0  0  0  0  0  0  0  0  0  0  0
  -10.4188   -5.8155    1.5751 C   0  0  0  0  0  0  0  0  0  0  0  0
  -10.1562   -7.0687    1.0022 C   0  0  0  0  0  0  0  0  0  0  0  0
   -9.3376   -7.1199   -0.1339 C   0  0  0  0  0  0  0  0  0  0  0  0
   -8.7931   -5.9598   -0.6839 C   0  0  0  0  0  0  0  0  0  0  0  0
   -9.0671   -4.7240   -0.0975 C   0  0  0  0  0  0  0  0  0  0  0  0
  -10.0805   -3.6837    1.4865 H   0  0  0  0  0  0  0  0  0  0  0  0
  -11.0516   -5.7541    2.4576 H   0  0  0  0  0  0  0  0  0  0  0  0
   -9.1230   -8.0814   -0.5943 H   0  0  0  0  0  0  0  0  0  0  0  0
   -8.1536   -6.0016   -1.5591 H   0  0  0  0  0  0  0  0  0  0  0  0
   -8.4234   -3.2186   -0.8445 S   0  0  0  0  0  0  0  0  0  0  0  0
   -8.1124   -2.3169    0.3319 O   0  0  0  0  0  0  0  0  0  0  0  0
   -9.4782   -2.6766   -1.7230 O   0  0  0  0  0  0  0  0  0  0  0  0
   -7.1688   -3.6260   -1.5494 O   0  0  0  0  0  0  0  0  0  0  0  0
  -10.7172   -8.3314    1.6136 C   0  0  0  0  0  0  0  0  0  0  0  0
  -10.0655   -8.7115    2.4109 H   0  0  0  0  0  0  0  0  0  0  0  0
  -11.7023   -8.1576    2.0574 H   0  0  0  0  0  0  0  0  0  0  0  0
  -10.8178   -9.1264    0.8684 H   0  0  0  0  0  0  0  0  0  0  0  0
  1  2  1  0  0  0  0
  2  3  1  0  0  0  0
  4  1  1  0  0  0  0
  4 12  1  0  0  0  0
  5  4  2  0  0  0  0
  6 10  2  0  0  0  0
  6  5  1  0  0  0  0
  7  8  2  0  0  0  0
  7  6  1  0  0  0  0
  9  7  2  0  0  0  0
 10 11  1  0  0  0  0
 11 15  1  0  0  0  0
 11  1  2  0  0  0  0
 13  5  1  0  0  0  0
 14 10  1  0  0  0  0
 16 22  1  0  0  0  0
 16 17  1  0  0  0  0
 17 23  1  0  0  0  0
 18 17  2  0  0  0  0
 18 30  1  0  0  0  0
 19 18  1  0  0  0  0
 20 19  2  0  0  0  0
 20 21  1  0  0  0  0
 21 16  2  0  0  0  0
 24 19  1  0  0  0  0
 25 20  1  0  0  0  0
 26 21  1  0  0  0  0
 26 27  1  0  0  0  0
 28 26  2  0  0  0  0
 29 26  2  0  0  0  0
 30 32  1  0  0  0  0
 30 31  1  0  0  0  0
 33 30  1  0  0  0  0
M  RAD  3   2   2   3   3  27   2
M  END
