Coordinates from ORCA-job 4-NO2PhN2+~TsO-_B3LYPG-6-31G_dp-NX-Scan-d89-09-n800
 OpenBabel11261920283D

 33 33  0  0  0  0  0  0  0  0999 V2000
   -4.5131   -1.7201    0.4738 C   0  0  0  0  0  0  0  0  0  0  0  0
   -5.3568   -1.5378    1.5650 N   0  0  0  0  0  0  0  0  0  0  0  0
   -5.9920   -1.2829    2.4497 N   0  0  0  0  0  0  0  0  0  0  0  0
   -3.1339   -1.6136    0.7164 C   0  0  0  0  0  0  0  0  0  0  0  0
   -2.2728   -1.7636   -0.3604 C   0  0  0  0  0  0  0  0  0  0  0  0
   -2.8209   -1.9949   -1.6229 C   0  0  0  0  0  0  0  0  0  0  0  0
   -1.8935   -2.1430   -2.7701 N   0  0  0  0  0  0  0  0  0  0  0  0
   -0.6916   -2.0608   -2.5319 O   0  0  0  0  0  0  0  0  0  0  0  0
   -2.3923   -2.3338   -3.8739 O   0  0  0  0  0  0  0  0  0  0  0  0
   -4.1909   -2.0902   -1.8553 C   0  0  0  0  0  0  0  0  0  0  0  0
   -5.0755   -1.9656   -0.7881 C   0  0  0  0  0  0  0  0  0  0  0  0
   -2.7598   -1.4256    1.7161 H   0  0  0  0  0  0  0  0  0  0  0  0
   -1.1986   -1.7007   -0.2434 H   0  0  0  0  0  0  0  0  0  0  0  0
   -4.5526   -2.2758   -2.8587 H   0  0  0  0  0  0  0  0  0  0  0  0
   -6.1565   -2.0598   -0.9030 H   0  0  0  0  0  0  0  0  0  0  0  0
   -9.2619   -5.2736    2.0884 C   0  0  0  0  0  0  0  0  0  0  0  0
  -10.1145   -6.3736    2.0986 C   0  0  0  0  0  0  0  0  0  0  0  0
  -10.7225   -6.8316    0.9192 C   0  0  0  0  0  0  0  0  0  0  0  0
  -10.4509   -6.1535   -0.2759 C   0  0  0  0  0  0  0  0  0  0  0  0
   -9.5994   -5.0489   -0.3012 C   0  0  0  0  0  0  0  0  0  0  0  0
   -9.0046   -4.6150    0.8829 C   0  0  0  0  0  0  0  0  0  0  0  0
   -8.8075   -4.9136    3.0050 H   0  0  0  0  0  0  0  0  0  0  0  0
  -10.3167   -6.8847    3.0369 H   0  0  0  0  0  0  0  0  0  0  0  0
  -10.9154   -6.4915   -1.1985 H   0  0  0  0  0  0  0  0  0  0  0  0
   -9.3990   -4.5137   -1.2228 H   0  0  0  0  0  0  0  0  0  0  0  0
   -7.8681   -3.2314    0.8559 S   0  0  0  0  0  0  0  0  0  0  0  0
   -6.4746   -3.7928    0.8942 O   0  0  0  0  0  0  0  0  0  0  0  0
   -8.1497   -2.4366    2.0980 O   0  0  0  0  0  0  0  0  0  0  0  0
   -8.1261   -2.4878   -0.4106 O   0  0  0  0  0  0  0  0  0  0  0  0
  -11.6699   -8.0074    0.9489 C   0  0  0  0  0  0  0  0  0  0  0  0
  -11.3041   -8.7997    1.6101 H   0  0  0  0  0  0  0  0  0  0  0  0
  -12.6584   -7.7091    1.3201 H   0  0  0  0  0  0  0  0  0  0  0  0
  -11.8103   -8.4343   -0.0480 H   0  0  0  0  0  0  0  0  0  0  0  0
  1  4  1  0  0  0  0
  1  2  1  0  0  0  0
  2  3  1  0  0  0  0
  4 12  1  0  0  0  0
  5 13  1  0  0  0  0
  5  4  2  0  0  0  0
  6  5  1  0  0  0  0
  7  8  2  0  0  0  0
  7  6  1  0  0  0  0
  9  7  2  0  0  0  0
 10  6  2  0  0  0  0
 10 11  1  0  0  0  0
 11  1  2  0  0  0  0
 14 10  1  0  0  0  0
 15 11  1  0  0  0  0
 16 17  1  0  0  0  0
 16 22  1  0  0  0  0
 17 23  1  0  0  0  0
 18 30  1  0  0  0  0
 18 17  2  0  0  0  0
 19 18  1  0  0  0  0
 20 19  2  0  0  0  0
 20 21  1  0  0  0  0
 21 16  2  0  0  0  0
 24 19  1  0  0  0  0
 25 20  1  0  0  0  0
 26 21  1  0  0  0  0
 26 27  2  0  0  0  0
 26 28  1  0  0  0  0
 29 26  2  0  0  0  0
 30 32  1  0  0  0  0
 30 31  1  0  0  0  0
 33 30  1  0  0  0  0
M  RAD  3   2   2   3   3  28   2
M  END
