Coordinates from ORCA-job 4-NO2PhN2+~TsO-_B3LYPG-6-31G_dp-NX-Scan-d89-09-n800
 OpenBabel11261920283D

 33 33  0  0  0  0  0  0  0  0999 V2000
   -4.4592   -2.1565    0.4201 C   0  0  0  0  0  0  0  0  0  0  0  0
   -5.3074   -2.3061    1.5524 N   0  0  0  0  0  0  0  0  0  0  0  0
   -5.5633   -2.0601    2.6188 N   0  0  0  0  0  0  0  0  0  0  0  0
   -3.0930   -2.0140    0.6971 C   0  0  0  0  0  0  0  0  0  0  0  0
   -2.2267   -1.8176   -0.3704 C   0  0  0  0  0  0  0  0  0  0  0  0
   -2.7603   -1.7558   -1.6568 C   0  0  0  0  0  0  0  0  0  0  0  0
   -1.8325   -1.5410   -2.7915 N   0  0  0  0  0  0  0  0  0  0  0  0
   -0.6390   -1.4255   -2.5255 O   0  0  0  0  0  0  0  0  0  0  0  0
   -2.3209   -1.4919   -3.9155 O   0  0  0  0  0  0  0  0  0  0  0  0
   -4.1217   -1.8863   -1.9202 C   0  0  0  0  0  0  0  0  0  0  0  0
   -5.0034   -2.1062   -0.8645 C   0  0  0  0  0  0  0  0  0  0  0  0
   -2.7274   -2.0632    1.7164 H   0  0  0  0  0  0  0  0  0  0  0  0
   -1.1598   -1.7081   -0.2239 H   0  0  0  0  0  0  0  0  0  0  0  0
   -4.4782   -1.8255   -2.9406 H   0  0  0  0  0  0  0  0  0  0  0  0
   -6.0727   -2.2288   -1.0214 H   0  0  0  0  0  0  0  0  0  0  0  0
   -9.5192   -4.9987    2.0785 C   0  0  0  0  0  0  0  0  0  0  0  0
  -10.3596   -6.1057    2.1837 C   0  0  0  0  0  0  0  0  0  0  0  0
  -10.7789   -6.8084    1.0457 C   0  0  0  0  0  0  0  0  0  0  0  0
  -10.3322   -6.3720   -0.2107 C   0  0  0  0  0  0  0  0  0  0  0  0
   -9.4935   -5.2671   -0.3327 C   0  0  0  0  0  0  0  0  0  0  0  0
   -9.0886   -4.5862    0.8172 C   0  0  0  0  0  0  0  0  0  0  0  0
   -9.2087   -4.4448    2.9578 H   0  0  0  0  0  0  0  0  0  0  0  0
  -10.7002   -6.4267    3.1646 H   0  0  0  0  0  0  0  0  0  0  0  0
  -10.6509   -6.9022   -1.1047 H   0  0  0  0  0  0  0  0  0  0  0  0
   -9.1629   -4.9194   -1.3052 H   0  0  0  0  0  0  0  0  0  0  0  0
   -7.9836   -3.1853    0.6774 S   0  0  0  0  0  0  0  0  0  0  0  0
   -6.5786   -3.8174    0.7184 O   0  0  0  0  0  0  0  0  0  0  0  0
   -8.1857   -2.3186    1.8597 O   0  0  0  0  0  0  0  0  0  0  0  0
   -8.2222   -2.5635   -0.6469 O   0  0  0  0  0  0  0  0  0  0  0  0
  -11.7164   -7.9861    1.1631 C   0  0  0  0  0  0  0  0  0  0  0  0
  -11.6874   -8.4235    2.1652 H   0  0  0  0  0  0  0  0  0  0  0  0
  -12.7534   -7.6848    0.9675 H   0  0  0  0  0  0  0  0  0  0  0  0
  -11.4670   -8.7702    0.4414 H   0  0  0  0  0  0  0  0  0  0  0  0
  1  4  1  0  0  0  0
  1  2  1  0  0  0  0
  2  3  2  0  0  0  0
  4 12  1  0  0  0  0
  5 13  1  0  0  0  0
  5  4  2  0  0  0  0
  6  5  1  0  0  0  0
  7  8  2  0  0  0  0
  7  6  1  0  0  0  0
  9  7  2  0  0  0  0
 10  6  2  0  0  0  0
 10 11  1  0  0  0  0
 11  1  2  0  0  0  0
 14 10  1  0  0  0  0
 15 11  1  0  0  0  0
 16 17  1  0  0  0  0
 16 22  1  0  0  0  0
 17 23  1  0  0  0  0
 18 30  1  0  0  0  0
 18 17  2  0  0  0  0
 19 18  1  0  0  0  0
 20 19  2  0  0  0  0
 20 21  1  0  0  0  0
 21 16  2  0  0  0  0
 24 19  1  0  0  0  0
 25 20  1  0  0  0  0
 26 27  2  0  0  0  0
 26 21  1  0  0  0  0
 26 28  1  0  0  0  0
 29 26  2  0  0  0  0
 30 31  1  0  0  0  0
 32 30  1  0  0  0  0
 33 30  1  0  0  0  0
M  RAD  2   3   2  28   2
M  END
