Coordinates from ORCA-job 4-NO2PhN2+~TsO-_B3LYPG-6-31G_dp-NX-Scan-d89-09-n800
 OpenBabel11261920283D

 33 33  0  0  0  0  0  0  0  0999 V2000
   -4.8086   -0.6435    0.7549 C   0  0  0  0  0  0  0  0  0  0  0  0
   -5.3969    0.3929    1.4313 N   0  0  0  0  0  0  0  0  0  0  0  0
   -5.8297    1.2481    2.0136 N   0  0  0  0  0  0  0  0  0  0  0  0
   -3.4077   -0.7979    0.9317 C   0  0  0  0  0  0  0  0  0  0  0  0
   -2.7954   -1.8275    0.2519 C   0  0  0  0  0  0  0  0  0  0  0  0
   -3.5810   -2.6710   -0.5517 C   0  0  0  0  0  0  0  0  0  0  0  0
   -2.8902   -3.7879   -1.2443 N   0  0  0  0  0  0  0  0  0  0  0  0
   -1.6776   -3.8873   -1.0582 O   0  0  0  0  0  0  0  0  0  0  0  0
   -3.5731   -4.5235   -1.9424 O   0  0  0  0  0  0  0  0  0  0  0  0
   -4.9525   -2.5223   -0.7156 C   0  0  0  0  0  0  0  0  0  0  0  0
   -5.6035   -1.4695   -0.0660 C   0  0  0  0  0  0  0  0  0  0  0  0
   -2.8514   -0.1307    1.5802 H   0  0  0  0  0  0  0  0  0  0  0  0
   -1.7313   -2.0090    0.3336 H   0  0  0  0  0  0  0  0  0  0  0  0
   -5.5632   -3.1823   -1.3364 H   0  0  0  0  0  0  0  0  0  0  0  0
   -6.6945   -1.3644   -0.1825 H   0  0  0  0  0  0  0  0  0  0  0  0
   -9.7903   -4.5215    0.7970 C   0  0  0  0  0  0  0  0  0  0  0  0
  -10.1178   -5.6885    1.4842 C   0  0  0  0  0  0  0  0  0  0  0  0
   -9.6966   -6.9444    1.0229 C   0  0  0  0  0  0  0  0  0  0  0  0
   -8.9358   -6.9975   -0.1525 C   0  0  0  0  0  0  0  0  0  0  0  0
   -8.6009   -5.8364   -0.8491 C   0  0  0  0  0  0  0  0  0  0  0  0
   -9.0295   -4.5974   -0.3718 C   0  0  0  0  0  0  0  0  0  0  0  0
  -10.1132   -3.5525    1.1621 H   0  0  0  0  0  0  0  0  0  0  0  0
  -10.7099   -5.6254    2.3944 H   0  0  0  0  0  0  0  0  0  0  0  0
   -8.6013   -7.9613   -0.5288 H   0  0  0  0  0  0  0  0  0  0  0  0
   -8.0071   -5.8790   -1.7558 H   0  0  0  0  0  0  0  0  0  0  0  0
   -8.6597   -3.1018   -1.3042 S   0  0  0  0  0  0  0  0  0  0  0  0
   -8.4166   -2.0518   -0.2439 O   0  0  0  0  0  0  0  0  0  0  0  0
   -9.8353   -2.8203   -2.1524 O   0  0  0  0  0  0  0  0  0  0  0  0
   -7.4078   -3.4077   -2.0638 O   0  0  0  0  0  0  0  0  0  0  0  0
  -10.0306   -8.2024    1.7896 C   0  0  0  0  0  0  0  0  0  0  0  0
   -9.2882   -8.4011    2.5733 H   0  0  0  0  0  0  0  0  0  0  0  0
  -11.0056   -8.1249    2.2807 H   0  0  0  0  0  0  0  0  0  0  0  0
  -10.0518   -9.0773    1.1328 H   0  0  0  0  0  0  0  0  0  0  0  0
  1  4  1  0  0  0  0
  1  2  1  0  0  0  0
  2  3  1  0  0  0  0
  4 12  1  0  0  0  0
  5 13  1  0  0  0  0
  5  4  2  0  0  0  0
  6  5  1  0  0  0  0
  7  8  2  0  0  0  0
  7  6  1  0  0  0  0
  9  7  2  0  0  0  0
 10  6  2  0  0  0  0
 10 11  1  0  0  0  0
 11  1  2  0  0  0  0
 14 10  1  0  0  0  0
 15 11  1  0  0  0  0
 16 22  1  0  0  0  0
 16 17  2  0  0  0  0
 17 23  1  0  0  0  0
 18 17  1  0  0  0  0
 18 30  1  0  0  0  0
 19 18  2  0  0  0  0
 20 21  2  0  0  0  0
 20 19  1  0  0  0  0
 21 16  1  0  0  0  0
 24 19  1  0  0  0  0
 25 20  1  0  0  0  0
 26 21  1  0  0  0  0
 26 27  1  0  0  0  0
 28 26  2  0  0  0  0
 29 26  2  0  0  0  0
 30 32  1  0  0  0  0
 30 31  1  0  0  0  0
 33 30  1  0  0  0  0
M  RAD  3   2   2   3   3  27   2
M  END
