Coordinates from ORCA-job 4-NO2PhN2+~TsO-_B3LYPG-6-31G_dp-NX-Scan-d89-09-n800
 OpenBabel11261920283D

 33 33  0  0  0  0  0  0  0  0999 V2000
   -4.9861   -0.9232    1.0591 C   0  0  0  0  0  0  0  0  0  0  0  0
   -4.9367    0.3771    1.4805 N   0  0  0  0  0  0  0  0  0  0  0  0
   -4.8387    1.4351    1.8497 N   0  0  0  0  0  0  0  0  0  0  0  0
   -4.1978   -1.8548    1.7829 C   0  0  0  0  0  0  0  0  0  0  0  0
   -4.2139   -3.1677    1.3587 C   0  0  0  0  0  0  0  0  0  0  0  0
   -4.9865   -3.5142    0.2421 C   0  0  0  0  0  0  0  0  0  0  0  0
   -4.9598   -4.9285   -0.1881 N   0  0  0  0  0  0  0  0  0  0  0  0
   -4.5272   -5.7468    0.6266 O   0  0  0  0  0  0  0  0  0  0  0  0
   -5.3504   -5.1712   -1.3208 O   0  0  0  0  0  0  0  0  0  0  0  0
   -5.7627   -2.6026   -0.4764 C   0  0  0  0  0  0  0  0  0  0  0  0
   -5.7778   -1.2767   -0.0586 C   0  0  0  0  0  0  0  0  0  0  0  0
   -3.6095   -1.5368    2.6358 H   0  0  0  0  0  0  0  0  0  0  0  0
   -3.6483   -3.9348    1.8723 H   0  0  0  0  0  0  0  0  0  0  0  0
   -6.3772   -2.8746   -1.3509 H   0  0  0  0  0  0  0  0  0  0  0  0
   -6.3873   -0.5528   -0.5899 H   0  0  0  0  0  0  0  0  0  0  0  0
   -9.0646   -3.9989    0.3087 C   0  0  0  0  0  0  0  0  0  0  0  0
   -8.7972   -5.0279    1.2116 C   0  0  0  0  0  0  0  0  0  0  0  0
   -8.3947   -6.2997    0.7672 C   0  0  0  0  0  0  0  0  0  0  0  0
   -8.2918   -6.5191   -0.6157 C   0  0  0  0  0  0  0  0  0  0  0  0
   -8.5481   -5.4978   -1.5245 C   0  0  0  0  0  0  0  0  0  0  0  0
   -8.9219   -4.2239   -1.0619 C   0  0  0  0  0  0  0  0  0  0  0  0
   -9.3917   -3.0194    0.6416 H   0  0  0  0  0  0  0  0  0  0  0  0
   -8.9087   -4.8510    2.2796 H   0  0  0  0  0  0  0  0  0  0  0  0
   -7.9967   -7.4999   -0.9800 H   0  0  0  0  0  0  0  0  0  0  0  0
   -8.4696   -5.6688   -2.5931 H   0  0  0  0  0  0  0  0  0  0  0  0
   -9.1123   -2.8685   -2.2416 S   0  0  0  0  0  0  0  0  0  0  0  0
   -9.7047   -1.7566   -1.4607 O   0  0  0  0  0  0  0  0  0  0  0  0
   -9.9293   -3.4328   -3.3415 O   0  0  0  0  0  0  0  0  0  0  0  0
   -7.6822   -2.5931   -2.6451 O   0  0  0  0  0  0  0  0  0  0  0  0
   -8.0462   -7.3929    1.7462 C   0  0  0  0  0  0  0  0  0  0  0  0
   -6.9573   -7.4735    1.8640 H   0  0  0  0  0  0  0  0  0  0  0  0
   -8.4735   -7.2023    2.7347 H   0  0  0  0  0  0  0  0  0  0  0  0
   -8.4040   -8.3685    1.4020 H   0  0  0  0  0  0  0  0  0  0  0  0
  1  2  1  0  0  0  0
  1  4  2  0  0  0  0
  2  3  1  0  0  0  0
  4 12  1  0  0  0  0
  5  4  1  0  0  0  0
  5 13  1  0  0  0  0
  6  5  2  0  0  0  0
  7  6  1  0  0  0  0
  7  8  2  0  0  0  0
  9  7  2  0  0  0  0
 10 11  2  0  0  0  0
 10  6  1  0  0  0  0
 11  1  1  0  0  0  0
 14 10  1  0  0  0  0
 15 11  1  0  0  0  0
 16 22  1  0  0  0  0
 16 17  2  0  0  0  0
 17 23  1  0  0  0  0
 18 17  1  0  0  0  0
 18 30  1  0  0  0  0
 19 18  2  0  0  0  0
 20 21  2  0  0  0  0
 20 19  1  0  0  0  0
 21 16  1  0  0  0  0
 24 19  1  0  0  0  0
 25 20  1  0  0  0  0
 26 27  1  0  0  0  0
 26 21  1  0  0  0  0
 28 26  2  0  0  0  0
 29 26  2  0  0  0  0
 30 31  1  0  0  0  0
 30 32  1  0  0  0  0
 33 30  1  0  0  0  0
M  RAD  3   2   2   3   3  27   2
M  END
