Coordinates from ORCA-job 4-NO2PhN2+~TsO-_B3LYPG-6-31G_dp-NX-Scan-d89-09-n800
 OpenBabel11261920283D

 33 33  0  0  0  0  0  0  0  0999 V2000
   -4.7737   -0.6657    0.6264 C   0  0  0  0  0  0  0  0  0  0  0  0
   -5.5590    0.2556    1.2747 N   0  0  0  0  0  0  0  0  0  0  0  0
   -6.1975    0.9960    1.8190 N   0  0  0  0  0  0  0  0  0  0  0  0
   -3.3665   -0.5115    0.7018 C   0  0  0  0  0  0  0  0  0  0  0  0
   -2.6026   -1.4526    0.0451 C   0  0  0  0  0  0  0  0  0  0  0  0
   -3.2483   -2.4978   -0.6389 C   0  0  0  0  0  0  0  0  0  0  0  0
   -2.3896   -3.5004   -1.3192 N   0  0  0  0  0  0  0  0  0  0  0  0
   -1.1735   -3.3370   -1.2342 O   0  0  0  0  0  0  0  0  0  0  0  0
   -2.9526   -4.4124   -1.9088 O   0  0  0  0  0  0  0  0  0  0  0  0
   -4.6283   -2.6411   -0.7038 C   0  0  0  0  0  0  0  0  0  0  0  0
   -5.4341   -1.6948   -0.0670 C   0  0  0  0  0  0  0  0  0  0  0  0
   -2.9181    0.3076    1.2522 H   0  0  0  0  0  0  0  0  0  0  0  0
   -1.5207   -1.4099    0.0493 H   0  0  0  0  0  0  0  0  0  0  0  0
   -5.1226   -3.4444   -1.2428 H   0  0  0  0  0  0  0  0  0  0  0  0
   -6.5378   -1.7749   -0.0841 H   0  0  0  0  0  0  0  0  0  0  0  0
   -9.8380   -4.6005    0.9730 C   0  0  0  0  0  0  0  0  0  0  0  0
  -10.3011   -5.7753    1.5625 C   0  0  0  0  0  0  0  0  0  0  0  0
  -10.0038   -7.0297    1.0108 C   0  0  0  0  0  0  0  0  0  0  0  0
   -9.2270   -7.0742   -0.1550 C   0  0  0  0  0  0  0  0  0  0  0  0
   -8.7569   -5.9062   -0.7537 C   0  0  0  0  0  0  0  0  0  0  0  0
   -9.0646   -4.6682   -0.1874 C   0  0  0  0  0  0  0  0  0  0  0  0
  -10.0647   -3.6329    1.4074 H   0  0  0  0  0  0  0  0  0  0  0  0
  -10.9026   -5.7191    2.4669 H   0  0  0  0  0  0  0  0  0  0  0  0
   -8.9867   -8.0369   -0.5999 H   0  0  0  0  0  0  0  0  0  0  0  0
   -8.1501   -5.9429   -1.6520 H   0  0  0  0  0  0  0  0  0  0  0  0
   -8.5203   -3.1567   -0.9995 S   0  0  0  0  0  0  0  0  0  0  0  0
   -8.2438   -2.1962    0.1376 O   0  0  0  0  0  0  0  0  0  0  0  0
   -9.6183   -2.7136   -1.8801 O   0  0  0  0  0  0  0  0  0  0  0  0
   -7.2561   -3.5202   -1.7115 O   0  0  0  0  0  0  0  0  0  0  0  0
  -10.4823   -8.3007    1.6728 C   0  0  0  0  0  0  0  0  0  0  0  0
   -9.7555   -8.6629    2.4116 H   0  0  0  0  0  0  0  0  0  0  0  0
  -11.4289   -8.1459    2.1996 H   0  0  0  0  0  0  0  0  0  0  0  0
  -10.6290   -9.1017    0.9418 H   0  0  0  0  0  0  0  0  0  0  0  0
  1  4  1  0  0  0  0
  1  2  1  0  0  0  0
  2  3  1  0  0  0  0
  4 12  1  0  0  0  0
  5 13  1  0  0  0  0
  5  4  2  0  0  0  0
  6  5  1  0  0  0  0
  7  8  2  0  0  0  0
  7  6  1  0  0  0  0
  9  7  2  0  0  0  0
 10  6  2  0  0  0  0
 10 11  1  0  0  0  0
 11  1  2  0  0  0  0
 14 10  1  0  0  0  0
 15 11  1  0  0  0  0
 16 22  1  0  0  0  0
 16 17  2  0  0  0  0
 17 23  1  0  0  0  0
 18 17  1  0  0  0  0
 18 30  1  0  0  0  0
 19 18  2  0  0  0  0
 20 21  2  0  0  0  0
 20 19  1  0  0  0  0
 21 16  1  0  0  0  0
 24 19  1  0  0  0  0
 25 20  1  0  0  0  0
 26 21  1  0  0  0  0
 26 27  1  0  0  0  0
 28 26  2  0  0  0  0
 29 26  2  0  0  0  0
 30 32  1  0  0  0  0
 30 31  1  0  0  0  0
 33 30  1  0  0  0  0
M  RAD  3   2   2   3   3  27   2
M  END
