Coordinates from ORCA-job 4-NO2PhN2+~TsO-_B3LYPG-6-31G_dp-NX-Scan-d89-09-n800
 OpenBabel11261920283D

 33 33  0  0  0  0  0  0  0  0999 V2000
   -4.4514   -2.1847    0.4232 C   0  0  0  0  0  0  0  0  0  0  0  0
   -5.2892   -2.3542    1.5649 N   0  0  0  0  0  0  0  0  0  0  0  0
   -5.4923   -2.1183    2.6461 N   0  0  0  0  0  0  0  0  0  0  0  0
   -3.0867   -2.0171    0.6948 C   0  0  0  0  0  0  0  0  0  0  0  0
   -2.2280   -1.8019   -0.3750 C   0  0  0  0  0  0  0  0  0  0  0  0
   -2.7672   -1.7468   -1.6594 C   0  0  0  0  0  0  0  0  0  0  0  0
   -1.8479   -1.5120   -2.7970 N   0  0  0  0  0  0  0  0  0  0  0  0
   -0.6561   -1.3727   -2.5349 O   0  0  0  0  0  0  0  0  0  0  0  0
   -2.3409   -1.4716   -3.9193 O   0  0  0  0  0  0  0  0  0  0  0  0
   -4.1269   -1.9013   -1.9174 C   0  0  0  0  0  0  0  0  0  0  0  0
   -5.0007   -2.1395   -0.8586 C   0  0  0  0  0  0  0  0  0  0  0  0
   -2.7163   -2.0622    1.7126 H   0  0  0  0  0  0  0  0  0  0  0  0
   -1.1628   -1.6729   -0.2318 H   0  0  0  0  0  0  0  0  0  0  0  0
   -4.4889   -1.8436   -2.9360 H   0  0  0  0  0  0  0  0  0  0  0  0
   -6.0684   -2.2767   -1.0139 H   0  0  0  0  0  0  0  0  0  0  0  0
   -9.5346   -4.9827    2.0755 C   0  0  0  0  0  0  0  0  0  0  0  0
  -10.3762   -6.0887    2.1811 C   0  0  0  0  0  0  0  0  0  0  0  0
  -10.7823   -6.8019    1.0448 C   0  0  0  0  0  0  0  0  0  0  0  0
  -10.3211   -6.3774   -0.2104 C   0  0  0  0  0  0  0  0  0  0  0  0
   -9.4807   -5.2737   -0.3331 C   0  0  0  0  0  0  0  0  0  0  0  0
   -9.0897   -4.5822    0.8152 C   0  0  0  0  0  0  0  0  0  0  0  0
   -9.2344   -4.4207    2.9532 H   0  0  0  0  0  0  0  0  0  0  0  0
  -10.7281   -6.4006    3.1609 H   0  0  0  0  0  0  0  0  0  0  0  0
  -10.6293   -6.9159   -1.1030 H   0  0  0  0  0  0  0  0  0  0  0  0
   -9.1383   -4.9351   -1.3046 H   0  0  0  0  0  0  0  0  0  0  0  0
   -7.9860   -3.1803    0.6757 S   0  0  0  0  0  0  0  0  0  0  0  0
   -6.5816   -3.8198    0.7557 O   0  0  0  0  0  0  0  0  0  0  0  0
   -8.2114   -2.2948    1.8371 O   0  0  0  0  0  0  0  0  0  0  0  0
   -8.1929   -2.5846   -0.6657 O   0  0  0  0  0  0  0  0  0  0  0  0
  -11.7213   -7.9785    1.1624 C   0  0  0  0  0  0  0  0  0  0  0  0
  -11.7043   -8.4061    2.1689 H   0  0  0  0  0  0  0  0  0  0  0  0
  -12.7557   -7.6790    0.9513 H   0  0  0  0  0  0  0  0  0  0  0  0
  -11.4632   -8.7696    0.4513 H   0  0  0  0  0  0  0  0  0  0  0  0
  1  4  1  0  0  0  0
  1  2  1  0  0  0  0
  2  3  2  0  0  0  0
  4 12  1  0  0  0  0
  5 13  1  0  0  0  0
  5  4  2  0  0  0  0
  6  5  1  0  0  0  0
  7  8  2  0  0  0  0
  7  6  1  0  0  0  0
  9  7  2  0  0  0  0
 10  6  2  0  0  0  0
 10 11  1  0  0  0  0
 11  1  2  0  0  0  0
 14 10  1  0  0  0  0
 15 11  1  0  0  0  0
 16 17  1  0  0  0  0
 16 22  1  0  0  0  0
 17 23  1  0  0  0  0
 18 30  1  0  0  0  0
 18 17  2  0  0  0  0
 19 18  1  0  0  0  0
 20 19  2  0  0  0  0
 20 21  1  0  0  0  0
 21 16  2  0  0  0  0
 24 19  1  0  0  0  0
 25 20  1  0  0  0  0
 26 27  2  0  0  0  0
 26 21  1  0  0  0  0
 26 28  1  0  0  0  0
 29 26  2  0  0  0  0
 30 31  1  0  0  0  0
 32 30  1  0  0  0  0
 33 30  1  0  0  0  0
M  RAD  2   3   2  28   2
M  END
