Coordinates from ORCA-job 4-NO2PhN2+~TsO-_B3LYPG-6-31G_dp-NX-Scan-d89-09-n800
 OpenBabel11261920283D

 33 33  0  0  0  0  0  0  0  0999 V2000
   -4.2219   -2.7454    0.3328 C   0  0  0  0  0  0  0  0  0  0  0  0
   -4.8823   -3.4661    1.3757 N   0  0  0  0  0  0  0  0  0  0  0  0
   -4.9088   -3.6692    2.4831 N   0  0  0  0  0  0  0  0  0  0  0  0
   -3.2673   -1.8127    0.7712 C   0  0  0  0  0  0  0  0  0  0  0  0
   -2.5749   -1.0842   -0.1838 C   0  0  0  0  0  0  0  0  0  0  0  0
   -2.8540   -1.3155   -1.5315 C   0  0  0  0  0  0  0  0  0  0  0  0
   -2.1061   -0.5383   -2.5473 N   0  0  0  0  0  0  0  0  0  0  0  0
   -1.2852    0.2768   -2.1353 O   0  0  0  0  0  0  0  0  0  0  0  0
   -2.3548   -0.7681   -3.7260 O   0  0  0  0  0  0  0  0  0  0  0  0
   -3.8009   -2.2397   -1.9589 C   0  0  0  0  0  0  0  0  0  0  0  0
   -4.5087   -2.9761   -1.0104 C   0  0  0  0  0  0  0  0  0  0  0  0
   -3.0871   -1.6651    1.8297 H   0  0  0  0  0  0  0  0  0  0  0  0
   -1.8316   -0.3472    0.0927 H   0  0  0  0  0  0  0  0  0  0  0  0
   -3.9839   -2.3722   -3.0177 H   0  0  0  0  0  0  0  0  0  0  0  0
   -5.2726   -3.6927   -1.2820 H   0  0  0  0  0  0  0  0  0  0  0  0
   -9.3437   -4.9768    1.9291 C   0  0  0  0  0  0  0  0  0  0  0  0
  -10.3843   -5.8586    2.2137 C   0  0  0  0  0  0  0  0  0  0  0  0
  -11.0342   -6.5674    1.1930 C   0  0  0  0  0  0  0  0  0  0  0  0
  -10.6118   -6.3698   -0.1295 C   0  0  0  0  0  0  0  0  0  0  0  0
   -9.5734   -5.4906   -0.4309 C   0  0  0  0  0  0  0  0  0  0  0  0
   -8.9434   -4.7991    0.6042 C   0  0  0  0  0  0  0  0  0  0  0  0
   -8.8537   -4.4170    2.7182 H   0  0  0  0  0  0  0  0  0  0  0  0
  -10.7017   -5.9956    3.2444 H   0  0  0  0  0  0  0  0  0  0  0  0
  -11.1058   -6.9078   -0.9345 H   0  0  0  0  0  0  0  0  0  0  0  0
   -9.2575   -5.3250   -1.4550 H   0  0  0  0  0  0  0  0  0  0  0  0
   -7.5923   -3.6839    0.2292 S   0  0  0  0  0  0  0  0  0  0  0  0
   -6.3372   -4.5901    0.3707 O   0  0  0  0  0  0  0  0  0  0  0  0
   -7.5589   -2.6341    1.2704 O   0  0  0  0  0  0  0  0  0  0  0  0
   -7.7501   -3.2453   -1.1715 O   0  0  0  0  0  0  0  0  0  0  0  0
  -12.1852   -7.4935    1.5065 C   0  0  0  0  0  0  0  0  0  0  0  0
  -12.1130   -7.8930    2.5222 H   0  0  0  0  0  0  0  0  0  0  0  0
  -13.1448   -6.9665    1.4312 H   0  0  0  0  0  0  0  0  0  0  0  0
  -12.2235   -8.3372    0.8111 H   0  0  0  0  0  0  0  0  0  0  0  0
  1  4  1  0  0  0  0
  1  2  1  0  0  0  0
  2  3  2  0  0  0  0
  4 12  1  0  0  0  0
  5 13  1  0  0  0  0
  5  4  2  0  0  0  0
  6  5  1  0  0  0  0
  7  8  2  0  0  0  0
  7  6  1  0  0  0  0
  9  7  2  0  0  0  0
 10  6  2  0  0  0  0
 10 11  1  0  0  0  0
 11  1  2  0  0  0  0
 14 10  1  0  0  0  0
 15 11  1  0  0  0  0
 16 17  1  0  0  0  0
 16 22  1  0  0  0  0
 17 23  1  0  0  0  0
 18 30  1  0  0  0  0
 18 17  2  0  0  0  0
 19 18  1  0  0  0  0
 20 19  2  0  0  0  0
 20 21  1  0  0  0  0
 21 16  2  0  0  0  0
 24 19  1  0  0  0  0
 25 20  1  0  0  0  0
 26 27  2  0  0  0  0
 26 21  1  0  0  0  0
 26 28  1  0  0  0  0
 29 26  2  0  0  0  0
 30 31  1  0  0  0  0
 32 30  1  0  0  0  0
 33 30  1  0  0  0  0
M  RAD  2   3   2  28   2
M  END
