Coordinates from ORCA-job 4-NO2PhN2+~TsO-_B3LYPG-6-31G_dp-NX-Scan-d89-09-n800
 OpenBabel11261920283D

 33 33  0  0  0  0  0  0  0  0999 V2000
   -4.4153   -1.9362    0.5071 C   0  0  0  0  0  0  0  0  0  0  0  0
   -5.2857   -2.2695    1.5603 N   0  0  0  0  0  0  0  0  0  0  0  0
   -6.3014   -2.6974    1.8838 N   0  0  0  0  0  0  0  0  0  0  0  0
   -3.1548   -1.4531    0.8827 C   0  0  0  0  0  0  0  0  0  0  0  0
   -2.2456   -1.1101   -0.1092 C   0  0  0  0  0  0  0  0  0  0  0  0
   -2.6325   -1.2617   -1.4398 C   0  0  0  0  0  0  0  0  0  0  0  0
   -1.6650   -0.8919   -2.4999 N   0  0  0  0  0  0  0  0  0  0  0  0
   -0.5670   -0.4780   -2.1372 O   0  0  0  0  0  0  0  0  0  0  0  0
   -2.0295   -1.0218   -3.6638 O   0  0  0  0  0  0  0  0  0  0  0  0
   -3.8849   -1.7420   -1.8171 C   0  0  0  0  0  0  0  0  0  0  0  0
   -4.8054   -2.0888   -0.8329 C   0  0  0  0  0  0  0  0  0  0  0  0
   -2.9048   -1.3564    1.9332 H   0  0  0  0  0  0  0  0  0  0  0  0
   -1.2585   -0.7337    0.1239 H   0  0  0  0  0  0  0  0  0  0  0  0
   -4.1269   -1.8437   -2.8678 H   0  0  0  0  0  0  0  0  0  0  0  0
   -5.7893   -2.4703   -1.0768 H   0  0  0  0  0  0  0  0  0  0  0  0
   -8.8514   -6.0117    1.6855 C   0  0  0  0  0  0  0  0  0  0  0  0
  -10.0553   -6.5883    2.0859 C   0  0  0  0  0  0  0  0  0  0  0  0
  -11.1848   -6.5598    1.2552 C   0  0  0  0  0  0  0  0  0  0  0  0
  -11.0730   -5.9467   -0.0009 C   0  0  0  0  0  0  0  0  0  0  0  0
   -9.8761   -5.3668   -0.4173 C   0  0  0  0  0  0  0  0  0  0  0  0
   -8.7712   -5.3988    0.4346 C   0  0  0  0  0  0  0  0  0  0  0  0
   -7.9728   -6.0501    2.3202 H   0  0  0  0  0  0  0  0  0  0  0  0
  -10.1169   -7.0740    3.0564 H   0  0  0  0  0  0  0  0  0  0  0  0
  -11.9336   -5.9289   -0.6651 H   0  0  0  0  0  0  0  0  0  0  0  0
   -9.7876   -4.9107   -1.3970 H   0  0  0  0  0  0  0  0  0  0  0  0
   -7.2389   -4.6276   -0.0789 S   0  0  0  0  0  0  0  0  0  0  0  0
   -6.1454   -5.2101    0.7234 O   0  0  0  0  0  0  0  0  0  0  0  0
   -7.4099   -3.1168    0.2960 O   0  0  0  0  0  0  0  0  0  0  0  0
   -7.1589   -4.7229   -1.5461 O   0  0  0  0  0  0  0  0  0  0  0  0
  -12.4934   -7.1603    1.7109 C   0  0  0  0  0  0  0  0  0  0  0  0
  -12.3323   -8.0479    2.3304 H   0  0  0  0  0  0  0  0  0  0  0  0
  -13.0664   -6.4435    2.3132 H   0  0  0  0  0  0  0  0  0  0  0  0
  -13.1200   -7.4475    0.8617 H   0  0  0  0  0  0  0  0  0  0  0  0
  1  4  1  0  0  0  0
  1  2  1  0  0  0  0
  2  3  2  0  0  0  0
  4 12  1  0  0  0  0
  5 13  1  0  0  0  0
  5  4  2  0  0  0  0
  6  5  1  0  0  0  0
  7  8  2  0  0  0  0
  7  6  1  0  0  0  0
  9  7  2  0  0  0  0
 10  6  2  0  0  0  0
 10 11  1  0  0  0  0
 11  1  2  0  0  0  0
 14 10  1  0  0  0  0
 15 11  1  0  0  0  0
 16 17  1  0  0  0  0
 16 22  1  0  0  0  0
 17 23  1  0  0  0  0
 18 30  1  0  0  0  0
 18 17  2  0  0  0  0
 19 18  1  0  0  0  0
 20 19  2  0  0  0  0
 20 21  1  0  0  0  0
 21 16  2  0  0  0  0
 24 19  1  0  0  0  0
 25 20  1  0  0  0  0
 26 28  2  0  0  0  0
 26 21  1  0  0  0  0
 26 27  1  0  0  0  0
 29 26  2  0  0  0  0
 30 32  1  0  0  0  0
 30 31  1  0  0  0  0
 33 30  1  0  0  0  0
M  RAD  2   3   2  27   2
M  END
