Coordinates from ORCA-job 4-NO2PhN2+~TsO-_B3LYPG-6-31G_dp-NX-Scan-d89-09-n800
 OpenBabel11261920283D

 33 33  0  0  0  0  0  0  0  0999 V2000
   -4.6388   -0.8408    1.0419 C   0  0  0  0  0  0  0  0  0  0  0  0
   -5.2492   -0.1817    2.0808 N   0  0  0  0  0  0  0  0  0  0  0  0
   -5.6817    0.3698    2.9550 N   0  0  0  0  0  0  0  0  0  0  0  0
   -3.2350   -0.6561    0.9325 C   0  0  0  0  0  0  0  0  0  0  0  0
   -2.5913   -1.3138   -0.0927 C   0  0  0  0  0  0  0  0  0  0  0  0
   -3.3449   -2.1296   -0.9520 C   0  0  0  0  0  0  0  0  0  0  0  0
   -2.6081   -2.8329   -2.0365 N   0  0  0  0  0  0  0  0  0  0  0  0
   -1.3907   -2.6550   -2.0792 O   0  0  0  0  0  0  0  0  0  0  0  0
   -3.2619   -3.5285   -2.7978 O   0  0  0  0  0  0  0  0  0  0  0  0
   -4.7175   -2.3133   -0.8399 C   0  0  0  0  0  0  0  0  0  0  0  0
   -5.4085   -1.6441    0.1763 C   0  0  0  0  0  0  0  0  0  0  0  0
   -2.6994   -0.0242    1.6318 H   0  0  0  0  0  0  0  0  0  0  0  0
   -1.5234   -1.2219   -0.2452 H   0  0  0  0  0  0  0  0  0  0  0  0
   -5.3012   -2.9764   -1.4904 H   0  0  0  0  0  0  0  0  0  0  0  0
   -6.5036   -1.7916    0.2384 H   0  0  0  0  0  0  0  0  0  0  0  0
  -10.0490   -4.6464    0.5148 C   0  0  0  0  0  0  0  0  0  0  0  0
  -10.6439   -5.6820    1.2311 C   0  0  0  0  0  0  0  0  0  0  0  0
  -10.1568   -6.9951    1.1470 C   0  0  0  0  0  0  0  0  0  0  0  0
   -9.0513   -7.2413    0.3195 C   0  0  0  0  0  0  0  0  0  0  0  0
   -8.4473   -6.2130   -0.4018 C   0  0  0  0  0  0  0  0  0  0  0  0
   -8.9480   -4.9130   -0.3046 C   0  0  0  0  0  0  0  0  0  0  0  0
  -10.4276   -3.6320    0.5875 H   0  0  0  0  0  0  0  0  0  0  0  0
  -11.5035   -5.4721    1.8636 H   0  0  0  0  0  0  0  0  0  0  0  0
   -8.6612   -8.2535    0.2377 H   0  0  0  0  0  0  0  0  0  0  0  0
   -7.5911   -6.3991   -1.0409 H   0  0  0  0  0  0  0  0  0  0  0  0
   -8.2249   -3.5868   -1.2851 S   0  0  0  0  0  0  0  0  0  0  0  0
   -8.1289   -2.4304   -0.3142 O   0  0  0  0  0  0  0  0  0  0  0  0
   -9.1513   -3.3413   -2.4091 O   0  0  0  0  0  0  0  0  0  0  0  0
   -6.8724   -4.0910   -1.6781 O   0  0  0  0  0  0  0  0  0  0  0  0
  -10.7886   -8.1109    1.9452 C   0  0  0  0  0  0  0  0  0  0  0  0
  -10.2372   -8.2969    2.8755 H   0  0  0  0  0  0  0  0  0  0  0  0
  -11.8198   -7.8720    2.2207 H   0  0  0  0  0  0  0  0  0  0  0  0
  -10.7964   -9.0502    1.3830 H   0  0  0  0  0  0  0  0  0  0  0  0
  1  2  1  0  0  0  0
  2  3  1  0  0  0  0
  4  1  1  0  0  0  0
  4 12  1  0  0  0  0
  5  4  2  0  0  0  0
  6 10  2  0  0  0  0
  6  5  1  0  0  0  0
  7  6  1  0  0  0  0
  8  7  2  0  0  0  0
  9  7  2  0  0  0  0
 10 11  1  0  0  0  0
 11 15  1  0  0  0  0
 11  1  2  0  0  0  0
 13  5  1  0  0  0  0
 14 10  1  0  0  0  0
 16 22  1  0  0  0  0
 16 17  2  0  0  0  0
 17 23  1  0  0  0  0
 18 17  1  0  0  0  0
 18 30  1  0  0  0  0
 19 18  2  0  0  0  0
 20 21  2  0  0  0  0
 20 19  1  0  0  0  0
 21 16  1  0  0  0  0
 24 19  1  0  0  0  0
 25 20  1  0  0  0  0
 26 27  1  0  0  0  0
 26 21  1  0  0  0  0
 28 26  2  0  0  0  0
 29 26  2  0  0  0  0
 30 32  1  0  0  0  0
 30 31  1  0  0  0  0
 33 30  1  0  0  0  0
M  RAD  3   2   2   3   3  27   2
M  END
