Coordinates from ORCA-job 4-NO2PhN2+~TsO-_B3LYPG-6-31G_dp-NX-Scan-d89-09-n800
 OpenBabel11261920283D

 33 33  0  0  0  0  0  0  0  0999 V2000
   -4.7442   -0.7774    0.6068 C   0  0  0  0  0  0  0  0  0  0  0  0
   -5.6542   -0.0141    1.3021 N   0  0  0  0  0  0  0  0  0  0  0  0
   -6.4153    0.5758    1.8686 N   0  0  0  0  0  0  0  0  0  0  0  0
   -3.3799   -0.4022    0.6141 C   0  0  0  0  0  0  0  0  0  0  0  0
   -2.5166   -1.2073   -0.1006 C   0  0  0  0  0  0  0  0  0  0  0  0
   -3.0274   -2.3308   -0.7752 C   0  0  0  0  0  0  0  0  0  0  0  0
   -2.0622   -3.1723   -1.5280 N   0  0  0  0  0  0  0  0  0  0  0  0
   -0.8848   -2.8189   -1.5091 O   0  0  0  0  0  0  0  0  0  0  0  0
   -2.5086   -4.1541   -2.1059 O   0  0  0  0  0  0  0  0  0  0  0  0
   -4.3701   -2.6870   -0.7738 C   0  0  0  0  0  0  0  0  0  0  0  0
   -5.2703   -1.8888   -0.0686 C   0  0  0  0  0  0  0  0  0  0  0  0
   -3.0343    0.4727    1.1524 H   0  0  0  0  0  0  0  0  0  0  0  0
   -1.4563   -0.9955   -0.1538 H   0  0  0  0  0  0  0  0  0  0  0  0
   -4.7553   -3.5457   -1.3129 H   0  0  0  0  0  0  0  0  0  0  0  0
   -6.3522   -2.0992   -0.0267 H   0  0  0  0  0  0  0  0  0  0  0  0
   -9.9175   -4.6358    1.0449 C   0  0  0  0  0  0  0  0  0  0  0  0
  -10.4761   -5.7888    1.5886 C   0  0  0  0  0  0  0  0  0  0  0  0
  -10.2113   -7.0530    1.0380 C   0  0  0  0  0  0  0  0  0  0  0  0
   -9.3653   -7.1266   -0.0749 C   0  0  0  0  0  0  0  0  0  0  0  0
   -8.7986   -5.9776   -0.6291 C   0  0  0  0  0  0  0  0  0  0  0  0
   -9.0774   -4.7325   -0.0681 C   0  0  0  0  0  0  0  0  0  0  0  0
  -10.1172   -3.6626    1.4803 H   0  0  0  0  0  0  0  0  0  0  0  0
  -11.1263   -5.7101    2.4572 H   0  0  0  0  0  0  0  0  0  0  0  0
   -9.1448   -8.0965   -0.5139 H   0  0  0  0  0  0  0  0  0  0  0  0
   -8.1366   -6.0363   -1.4864 H   0  0  0  0  0  0  0  0  0  0  0  0
   -8.4013   -3.2412   -0.8153 S   0  0  0  0  0  0  0  0  0  0  0  0
   -8.0548   -2.3532    0.3632 O   0  0  0  0  0  0  0  0  0  0  0  0
   -9.4524   -2.6683   -1.6785 O   0  0  0  0  0  0  0  0  0  0  0  0
   -7.1635   -3.6758   -1.5328 O   0  0  0  0  0  0  0  0  0  0  0  0
  -10.8223   -8.2964    1.6409 C   0  0  0  0  0  0  0  0  0  0  0  0
  -10.4959   -8.4406    2.6776 H   0  0  0  0  0  0  0  0  0  0  0  0
  -11.9170   -8.2360    1.6560 H   0  0  0  0  0  0  0  0  0  0  0  0
  -10.5444   -9.1912    1.0773 H   0  0  0  0  0  0  0  0  0  0  0  0
  1  4  1  0  0  0  0
  1  2  1  0  0  0  0
  2  3  1  0  0  0  0
  4 12  1  0  0  0  0
  5  4  2  0  0  0  0
  6 10  2  0  0  0  0
  6  5  1  0  0  0  0
  7  8  2  0  0  0  0
  7  6  1  0  0  0  0
  9  7  2  0  0  0  0
 10 11  1  0  0  0  0
 11 15  1  0  0  0  0
 11  1  2  0  0  0  0
 13  5  1  0  0  0  0
 14 10  1  0  0  0  0
 16 22  1  0  0  0  0
 16 17  1  0  0  0  0
 17 23  1  0  0  0  0
 18 17  2  0  0  0  0
 18 30  1  0  0  0  0
 19 18  1  0  0  0  0
 20 19  2  0  0  0  0
 20 21  1  0  0  0  0
 21 16  2  0  0  0  0
 24 19  1  0  0  0  0
 25 20  1  0  0  0  0
 26 21  1  0  0  0  0
 26 27  1  0  0  0  0
 28 26  2  0  0  0  0
 29 26  2  0  0  0  0
 30 32  1  0  0  0  0
 30 31  1  0  0  0  0
 33 30  1  0  0  0  0
M  RAD  3   2   2   3   3  27   2
M  END
