Coordinates from ORCA-job 4-NO2PhN2+~TsO-_B3LYPG-6-31G_dp-NX-Scan-d89-09-n800
 OpenBabel11261920283D

 33 33  0  0  0  0  0  0  0  0999 V2000
   -4.7409   -0.7691    0.6128 C   0  0  0  0  0  0  0  0  0  0  0  0
   -5.6427    0.0016    1.3101 N   0  0  0  0  0  0  0  0  0  0  0  0
   -6.3955    0.5997    1.8793 N   0  0  0  0  0  0  0  0  0  0  0  0
   -3.3750   -0.3991    0.6114 C   0  0  0  0  0  0  0  0  0  0  0  0
   -2.5184   -1.2096   -0.1051 C   0  0  0  0  0  0  0  0  0  0  0  0
   -3.0372   -2.3336   -0.7729 C   0  0  0  0  0  0  0  0  0  0  0  0
   -2.0792   -3.1815   -1.5276 N   0  0  0  0  0  0  0  0  0  0  0  0
   -0.9004   -2.8324   -1.5160 O   0  0  0  0  0  0  0  0  0  0  0  0
   -2.5321   -4.1639   -2.0992 O   0  0  0  0  0  0  0  0  0  0  0  0
   -4.3812   -2.6848   -0.7630 C   0  0  0  0  0  0  0  0  0  0  0  0
   -5.2751   -1.8809   -0.0559 C   0  0  0  0  0  0  0  0  0  0  0  0
   -3.0235    0.4765    1.1447 H   0  0  0  0  0  0  0  0  0  0  0  0
   -1.4577   -1.0018   -0.1647 H   0  0  0  0  0  0  0  0  0  0  0  0
   -4.7731   -3.5437   -1.2971 H   0  0  0  0  0  0  0  0  0  0  0  0
   -6.3577   -2.0892   -0.0087 H   0  0  0  0  0  0  0  0  0  0  0  0
   -9.9163   -4.6372    1.0398 C   0  0  0  0  0  0  0  0  0  0  0  0
  -10.4749   -5.7900    1.5839 C   0  0  0  0  0  0  0  0  0  0  0  0
  -10.2080   -7.0546    1.0352 C   0  0  0  0  0  0  0  0  0  0  0  0
   -9.3599   -7.1288   -0.0760 C   0  0  0  0  0  0  0  0  0  0  0  0
   -8.7932   -5.9799   -0.6305 C   0  0  0  0  0  0  0  0  0  0  0  0
   -9.0741   -4.7344   -0.0715 C   0  0  0  0  0  0  0  0  0  0  0  0
  -10.1176   -3.6636    1.4738 H   0  0  0  0  0  0  0  0  0  0  0  0
  -11.1267   -5.7109    2.4512 H   0  0  0  0  0  0  0  0  0  0  0  0
   -9.1376   -8.0989   -0.5135 H   0  0  0  0  0  0  0  0  0  0  0  0
   -8.1295   -6.0392   -1.4864 H   0  0  0  0  0  0  0  0  0  0  0  0
   -8.3983   -3.2434   -0.8196 S   0  0  0  0  0  0  0  0  0  0  0  0
   -8.0616   -2.3506    0.3577 O   0  0  0  0  0  0  0  0  0  0  0  0
   -9.4458   -2.6767   -1.6911 O   0  0  0  0  0  0  0  0  0  0  0  0
   -7.1551   -3.6770   -1.5285 O   0  0  0  0  0  0  0  0  0  0  0  0
  -10.8190   -8.2979    1.6384 C   0  0  0  0  0  0  0  0  0  0  0  0
  -10.4944   -8.4406    2.6758 H   0  0  0  0  0  0  0  0  0  0  0  0
  -11.9138   -8.2384    1.6514 H   0  0  0  0  0  0  0  0  0  0  0  0
  -10.5393   -9.1930    1.0763 H   0  0  0  0  0  0  0  0  0  0  0  0
  1  2  1  0  0  0  0
  2  3  1  0  0  0  0
  4  1  1  0  0  0  0
  4 12  1  0  0  0  0
  5  4  2  0  0  0  0
  6 10  2  0  0  0  0
  6  5  1  0  0  0  0
  7  8  2  0  0  0  0
  7  6  1  0  0  0  0
  9  7  2  0  0  0  0
 10 11  1  0  0  0  0
 11 15  1  0  0  0  0
 11  1  2  0  0  0  0
 13  5  1  0  0  0  0
 14 10  1  0  0  0  0
 16 22  1  0  0  0  0
 16 17  1  0  0  0  0
 17 23  1  0  0  0  0
 18 17  2  0  0  0  0
 18 30  1  0  0  0  0
 19 18  1  0  0  0  0
 20 19  2  0  0  0  0
 20 21  1  0  0  0  0
 21 16  2  0  0  0  0
 24 19  1  0  0  0  0
 25 20  1  0  0  0  0
 26 21  1  0  0  0  0
 26 27  1  0  0  0  0
 28 26  2  0  0  0  0
 29 26  2  0  0  0  0
 30 32  1  0  0  0  0
 30 31  1  0  0  0  0
 33 30  1  0  0  0  0
M  RAD  3   2   2   3   3  27   2
M  END
