Coordinates from ORCA-job 4-NO2PhN2+~TsO-_B3LYPG-6-31G_dp-NX-Scan-d89-09-n800
 OpenBabel11261920283D

 33 33  0  0  0  0  0  0  0  0999 V2000
   -4.7934   -0.6587    0.6612 C   0  0  0  0  0  0  0  0  0  0  0  0
   -5.5137    0.3102    1.3135 N   0  0  0  0  0  0  0  0  0  0  0  0
   -6.0821    1.0987    1.8694 N   0  0  0  0  0  0  0  0  0  0  0  0
   -3.3809   -0.6158    0.7863 C   0  0  0  0  0  0  0  0  0  0  0  0
   -2.6656   -1.5942    0.1304 C   0  0  0  0  0  0  0  0  0  0  0  0
   -3.3632   -2.5721   -0.6000 C   0  0  0  0  0  0  0  0  0  0  0  0
   -2.5586   -3.6222   -1.2744 N   0  0  0  0  0  0  0  0  0  0  0  0
   -1.3369   -3.5488   -1.1490 O   0  0  0  0  0  0  0  0  0  0  0  0
   -3.1664   -4.4778   -1.9023 O   0  0  0  0  0  0  0  0  0  0  0  0
   -4.7470   -2.6096   -0.7127 C   0  0  0  0  0  0  0  0  0  0  0  0
   -5.5042   -1.6187   -0.0825 C   0  0  0  0  0  0  0  0  0  0  0  0
   -2.8929    0.1523    1.3753 H   0  0  0  0  0  0  0  0  0  0  0  0
   -1.5844   -1.6327    0.1725 H   0  0  0  0  0  0  0  0  0  0  0  0
   -5.2840   -3.3648   -1.2825 H   0  0  0  0  0  0  0  0  0  0  0  0
   -6.6089   -1.6324   -0.1430 H   0  0  0  0  0  0  0  0  0  0  0  0
   -9.8151   -4.5667    0.9184 C   0  0  0  0  0  0  0  0  0  0  0  0
  -10.2230   -5.7442    1.5423 C   0  0  0  0  0  0  0  0  0  0  0  0
   -9.8864   -6.9990    1.0142 C   0  0  0  0  0  0  0  0  0  0  0  0
   -9.1275   -7.0408   -0.1633 C   0  0  0  0  0  0  0  0  0  0  0  0
   -8.7126   -5.8699   -0.7964 C   0  0  0  0  0  0  0  0  0  0  0  0
   -9.0581   -4.6317   -0.2531 C   0  0  0  0  0  0  0  0  0  0  0  0
  -10.0723   -3.5986    1.3345 H   0  0  0  0  0  0  0  0  0  0  0  0
  -10.8117   -5.6900    2.4552 H   0  0  0  0  0  0  0  0  0  0  0  0
   -8.8577   -8.0037   -0.5906 H   0  0  0  0  0  0  0  0  0  0  0  0
   -8.1197   -5.9044   -1.7041 H   0  0  0  0  0  0  0  0  0  0  0  0
   -8.5858   -3.1194   -1.1081 S   0  0  0  0  0  0  0  0  0  0  0  0
   -8.3239   -2.1256    0.0028 O   0  0  0  0  0  0  0  0  0  0  0  0
   -9.7170   -2.7393   -1.9765 O   0  0  0  0  0  0  0  0  0  0  0  0
   -7.3241   -3.4529   -1.8387 O   0  0  0  0  0  0  0  0  0  0  0  0
  -10.3046   -8.2714    1.7130 C   0  0  0  0  0  0  0  0  0  0  0  0
   -9.5562   -8.5838    2.4528 H   0  0  0  0  0  0  0  0  0  0  0  0
  -11.2519   -8.1430    2.2459 H   0  0  0  0  0  0  0  0  0  0  0  0
  -10.4246   -9.0963    1.0040 H   0  0  0  0  0  0  0  0  0  0  0  0
  1  4  1  0  0  0  0
  1  2  1  0  0  0  0
  2  3  1  0  0  0  0
  4 12  1  0  0  0  0
  5 13  1  0  0  0  0
  5  4  2  0  0  0  0
  6  5  1  0  0  0  0
  7  8  2  0  0  0  0
  7  6  1  0  0  0  0
  9  7  2  0  0  0  0
 10  6  2  0  0  0  0
 10 11  1  0  0  0  0
 11  1  2  0  0  0  0
 14 10  1  0  0  0  0
 15 11  1  0  0  0  0
 16 22  1  0  0  0  0
 16 17  2  0  0  0  0
 17 23  1  0  0  0  0
 18 17  1  0  0  0  0
 18 30  1  0  0  0  0
 19 18  2  0  0  0  0
 20 21  2  0  0  0  0
 20 19  1  0  0  0  0
 21 16  1  0  0  0  0
 24 19  1  0  0  0  0
 25 20  1  0  0  0  0
 26 21  1  0  0  0  0
 26 27  1  0  0  0  0
 28 26  2  0  0  0  0
 29 26  2  0  0  0  0
 30 32  1  0  0  0  0
 30 31  1  0  0  0  0
 33 30  1  0  0  0  0
M  RAD  3   2   2   3   3  27   2
M  END
