Coordinates from ORCA-job 4-NO2PhN2+~TsO-_B3LYPG-6-31G_dp-NX-Scan-d89-09-n800
 OpenBabel11261920283D

 33 33  0  0  0  0  0  0  0  0999 V2000
   -4.4438   -2.2033    0.4272 C   0  0  0  0  0  0  0  0  0  0  0  0
   -5.2722   -2.3871    1.5763 N   0  0  0  0  0  0  0  0  0  0  0  0
   -5.4379   -2.1645    2.6674 N   0  0  0  0  0  0  0  0  0  0  0  0
   -3.0800   -2.0181    0.6936 C   0  0  0  0  0  0  0  0  0  0  0  0
   -2.2281   -1.7898   -0.3787 C   0  0  0  0  0  0  0  0  0  0  0  0
   -2.7727   -1.7397   -1.6612 C   0  0  0  0  0  0  0  0  0  0  0  0
   -1.8608   -1.4911   -2.8017 N   0  0  0  0  0  0  0  0  0  0  0  0
   -0.6701   -1.3354   -2.5437 O   0  0  0  0  0  0  0  0  0  0  0  0
   -2.3582   -1.4569   -3.9224 O   0  0  0  0  0  0  0  0  0  0  0  0
   -4.1310   -1.9113   -1.9139 C   0  0  0  0  0  0  0  0  0  0  0  0
   -4.9980   -2.1621   -0.8520 C   0  0  0  0  0  0  0  0  0  0  0  0
   -2.7052   -2.0600    1.7098 H   0  0  0  0  0  0  0  0  0  0  0  0
   -1.1642   -1.6472   -0.2390 H   0  0  0  0  0  0  0  0  0  0  0  0
   -4.4980   -1.8562   -2.9309 H   0  0  0  0  0  0  0  0  0  0  0  0
   -6.0647   -2.3099   -1.0053 H   0  0  0  0  0  0  0  0  0  0  0  0
   -9.5462   -4.9710    2.0723 C   0  0  0  0  0  0  0  0  0  0  0  0
  -10.3889   -6.0761    2.1786 C   0  0  0  0  0  0  0  0  0  0  0  0
  -10.7855   -6.7974    1.0439 C   0  0  0  0  0  0  0  0  0  0  0  0
  -10.3134   -6.3821   -0.2103 C   0  0  0  0  0  0  0  0  0  0  0  0
   -9.4715   -5.2797   -0.3338 C   0  0  0  0  0  0  0  0  0  0  0  0
   -9.0906   -4.5799    0.8129 C   0  0  0  0  0  0  0  0  0  0  0  0
   -9.2536   -4.4030    2.9486 H   0  0  0  0  0  0  0  0  0  0  0  0
  -10.7493   -6.3809    3.1575 H   0  0  0  0  0  0  0  0  0  0  0  0
  -10.6141   -6.9270   -1.1016 H   0  0  0  0  0  0  0  0  0  0  0  0
   -9.1203   -4.9481   -1.3045 H   0  0  0  0  0  0  0  0  0  0  0  0
   -7.9872   -3.1777    0.6730 S   0  0  0  0  0  0  0  0  0  0  0  0
   -6.5842   -3.8217    0.7841 O   0  0  0  0  0  0  0  0  0  0  0  0
   -8.2318   -2.2772    1.8172 O   0  0  0  0  0  0  0  0  0  0  0  0
   -8.1699   -2.6026   -0.6808 O   0  0  0  0  0  0  0  0  0  0  0  0
  -11.7257   -7.9730    1.1619 C   0  0  0  0  0  0  0  0  0  0  0  0
  -11.7203   -8.3909    2.1726 H   0  0  0  0  0  0  0  0  0  0  0  0
  -12.7576   -7.6756    0.9360 H   0  0  0  0  0  0  0  0  0  0  0  0
  -11.4595   -8.7707    0.4614 H   0  0  0  0  0  0  0  0  0  0  0  0
  1  4  1  0  0  0  0
  1  2  1  0  0  0  0
  2  3  2  0  0  0  0
  4 12  1  0  0  0  0
  5 13  1  0  0  0  0
  5  4  2  0  0  0  0
  6  5  1  0  0  0  0
  7  8  2  0  0  0  0
  7  6  1  0  0  0  0
  9  7  2  0  0  0  0
 10  6  2  0  0  0  0
 10 11  1  0  0  0  0
 11  1  2  0  0  0  0
 14 10  1  0  0  0  0
 15 11  1  0  0  0  0
 16 17  1  0  0  0  0
 16 22  1  0  0  0  0
 17 23  1  0  0  0  0
 18 30  1  0  0  0  0
 18 17  2  0  0  0  0
 19 18  1  0  0  0  0
 20 19  2  0  0  0  0
 20 21  1  0  0  0  0
 21 16  2  0  0  0  0
 24 19  1  0  0  0  0
 25 20  1  0  0  0  0
 26 27  2  0  0  0  0
 26 21  1  0  0  0  0
 26 28  1  0  0  0  0
 29 26  2  0  0  0  0
 30 31  1  0  0  0  0
 32 30  1  0  0  0  0
 33 30  1  0  0  0  0
M  RAD  2   3   2  28   2
M  END
