Coordinates from ORCA-job 4-NO2PhN2+~TsO-_B3LYPG-6-31G_dp-NX-Scan-d89-09-n800
 OpenBabel11261920283D

 33 33  0  0  0  0  0  0  0  0999 V2000
   -4.6603   -0.8362    1.1670 C   0  0  0  0  0  0  0  0  0  0  0  0
   -5.1595   -0.1312    2.2339 N   0  0  0  0  0  0  0  0  0  0  0  0
   -5.4700    0.4619    3.1350 N   0  0  0  0  0  0  0  0  0  0  0  0
   -3.2454   -0.8106    1.0398 C   0  0  0  0  0  0  0  0  0  0  0  0
   -2.6893   -1.5118   -0.0075 C   0  0  0  0  0  0  0  0  0  0  0  0
   -3.5380   -2.2071   -0.8815 C   0  0  0  0  0  0  0  0  0  0  0  0
   -2.8929   -2.9493   -1.9976 N   0  0  0  0  0  0  0  0  0  0  0  0
   -1.6641   -3.0282   -1.9649 O   0  0  0  0  0  0  0  0  0  0  0  0
   -3.6248   -3.4149   -2.8555 O   0  0  0  0  0  0  0  0  0  0  0  0
   -4.9237   -2.2388   -0.7601 C   0  0  0  0  0  0  0  0  0  0  0  0
   -5.5209   -1.5307    0.2873 C   0  0  0  0  0  0  0  0  0  0  0  0
   -2.6356   -0.2599    1.7467 H   0  0  0  0  0  0  0  0  0  0  0  0
   -1.6185   -1.5435   -0.1654 H   0  0  0  0  0  0  0  0  0  0  0  0
   -5.5698   -2.8348   -1.4275 H   0  0  0  0  0  0  0  0  0  0  0  0
   -6.6131   -1.5712    0.3622 H   0  0  0  0  0  0  0  0  0  0  0  0
  -10.0233   -4.6314    0.3448 C   0  0  0  0  0  0  0  0  0  0  0  0
  -10.5672   -5.6419    1.1340 C   0  0  0  0  0  0  0  0  0  0  0  0
  -10.0114   -6.9303    1.1468 C   0  0  0  0  0  0  0  0  0  0  0  0
   -8.8897   -7.1779    0.3410 C   0  0  0  0  0  0  0  0  0  0  0  0
   -8.3370   -6.1747   -0.4526 C   0  0  0  0  0  0  0  0  0  0  0  0
   -8.9053   -4.8985   -0.4517 C   0  0  0  0  0  0  0  0  0  0  0  0
  -10.4556   -3.6361    0.3418 H   0  0  0  0  0  0  0  0  0  0  0  0
  -11.4401   -5.4327    1.7479 H   0  0  0  0  0  0  0  0  0  0  0  0
   -8.4468   -8.1716    0.3340 H   0  0  0  0  0  0  0  0  0  0  0  0
   -7.4693   -6.3606   -1.0761 H   0  0  0  0  0  0  0  0  0  0  0  0
   -8.2440   -3.6072   -1.5200 S   0  0  0  0  0  0  0  0  0  0  0  0
   -8.1772   -2.3929   -0.6274 O   0  0  0  0  0  0  0  0  0  0  0  0
   -9.1905   -3.4833   -2.6494 O   0  0  0  0  0  0  0  0  0  0  0  0
   -6.8749   -4.0845   -1.8983 O   0  0  0  0  0  0  0  0  0  0  0  0
  -10.5884   -8.0180    2.0212 C   0  0  0  0  0  0  0  0  0  0  0  0
  -10.0020   -8.1436    2.9403 H   0  0  0  0  0  0  0  0  0  0  0  0
  -11.6158   -7.7903    2.3186 H   0  0  0  0  0  0  0  0  0  0  0  0
  -10.5905   -8.9850    1.5076 H   0  0  0  0  0  0  0  0  0  0  0  0
  1  2  1  0  0  0  0
  2  3  1  0  0  0  0
  4  1  1  0  0  0  0
  4 12  1  0  0  0  0
  5  4  2  0  0  0  0
  6 10  2  0  0  0  0
  6  5  1  0  0  0  0
  7  8  2  0  0  0  0
  7  6  1  0  0  0  0
  9  7  2  0  0  0  0
 10 11  1  0  0  0  0
 11 15  1  0  0  0  0
 11  1  2  0  0  0  0
 13  5  1  0  0  0  0
 14 10  1  0  0  0  0
 16 17  2  0  0  0  0
 17 18  1  0  0  0  0
 17 23  1  0  0  0  0
 18 30  1  0  0  0  0
 19 18  2  0  0  0  0
 20 21  2  0  0  0  0
 20 19  1  0  0  0  0
 21 16  1  0  0  0  0
 22 16  1  0  0  0  0
 24 19  1  0  0  0  0
 25 20  1  0  0  0  0
 26 27  1  0  0  0  0
 26 21  1  0  0  0  0
 28 26  2  0  0  0  0
 29 26  2  0  0  0  0
 30 32  1  0  0  0  0
 30 31  1  0  0  0  0
 33 30  1  0  0  0  0
M  RAD  3   2   2   3   3  27   2
M  END
