Coordinates from ORCA-job 4-NO2PhN2+~TsO-_B3LYPG-6-31G_dp-NX-Scan-d89-09-n800
 OpenBabel11261920283D

 33 33  0  0  0  0  0  0  0  0999 V2000
   -4.7559   -2.5930    0.2823 C   0  0  0  0  0  0  0  0  0  0  0  0
   -5.7470   -3.2928    1.0364 N   0  0  0  0  0  0  0  0  0  0  0  0
   -6.0239   -3.7912    2.0083 N   0  0  0  0  0  0  0  0  0  0  0  0
   -4.0454   -1.6056    0.9748 C   0  0  0  0  0  0  0  0  0  0  0  0
   -3.0408   -0.9314    0.2904 C   0  0  0  0  0  0  0  0  0  0  0  0
   -2.7830   -1.2832   -1.0331 C   0  0  0  0  0  0  0  0  0  0  0  0
   -1.7023   -0.5683   -1.7503 N   0  0  0  0  0  0  0  0  0  0  0  0
   -1.1034    0.3080   -1.1322 O   0  0  0  0  0  0  0  0  0  0  0  0
   -1.4796   -0.9041   -2.9089 O   0  0  0  0  0  0  0  0  0  0  0  0
   -3.4939   -2.2747   -1.7071 C   0  0  0  0  0  0  0  0  0  0  0  0
   -4.5200   -2.9440   -1.0461 C   0  0  0  0  0  0  0  0  0  0  0  0
   -4.2804   -1.3697    2.0060 H   0  0  0  0  0  0  0  0  0  0  0  0
   -2.4598   -0.1495    0.7623 H   0  0  0  0  0  0  0  0  0  0  0  0
   -3.2496   -2.5038   -2.7363 H   0  0  0  0  0  0  0  0  0  0  0  0
   -5.1254   -3.7160   -1.5186 H   0  0  0  0  0  0  0  0  0  0  0  0
   -9.7561   -4.3316    0.8157 C   0  0  0  0  0  0  0  0  0  0  0  0
  -10.6135   -5.0773    1.6225 C   0  0  0  0  0  0  0  0  0  0  0  0
  -10.6704   -6.4751    1.5241 C   0  0  0  0  0  0  0  0  0  0  0  0
   -9.8315   -7.1109    0.5978 C   0  0  0  0  0  0  0  0  0  0  0  0
   -8.9674   -6.3788   -0.2150 C   0  0  0  0  0  0  0  0  0  0  0  0
   -8.9325   -4.9880   -0.1022 C   0  0  0  0  0  0  0  0  0  0  0  0
   -9.7127   -3.2508    0.9018 H   0  0  0  0  0  0  0  0  0  0  0  0
  -11.2488   -4.5660    2.3415 H   0  0  0  0  0  0  0  0  0  0  0  0
   -9.8537   -8.1950    0.5130 H   0  0  0  0  0  0  0  0  0  0  0  0
   -8.3114   -6.8730   -0.9232 H   0  0  0  0  0  0  0  0  0  0  0  0
   -7.8702   -4.0395   -1.1948 S   0  0  0  0  0  0  0  0  0  0  0  0
   -7.3423   -2.8917   -0.3017 O   0  0  0  0  0  0  0  0  0  0  0  0
   -8.6912   -3.4952   -2.2876 O   0  0  0  0  0  0  0  0  0  0  0  0
   -6.7561   -4.9480   -1.5709 O   0  0  0  0  0  0  0  0  0  0  0  0
  -11.6283   -7.2737    2.3768 C   0  0  0  0  0  0  0  0  0  0  0  0
  -11.8530   -6.7610    3.3165 H   0  0  0  0  0  0  0  0  0  0  0  0
  -12.5807   -7.4304    1.8554 H   0  0  0  0  0  0  0  0  0  0  0  0
  -11.2245   -8.2617    2.6166 H   0  0  0  0  0  0  0  0  0  0  0  0
  1  4  2  0  0  0  0
  1  2  1  0  0  0  0
  2  3  2  0  0  0  0
  4 12  1  0  0  0  0
  5 13  1  0  0  0  0
  5  4  1  0  0  0  0
  6  5  2  0  0  0  0
  7  8  2  0  0  0  0
  7  6  1  0  0  0  0
  9  7  2  0  0  0  0
 10 11  2  0  0  0  0
 10  6  1  0  0  0  0
 11  1  1  0  0  0  0
 14 10  1  0  0  0  0
 15 11  1  0  0  0  0
 16 22  1  0  0  0  0
 16 17  2  0  0  0  0
 17 23  1  0  0  0  0
 18 17  1  0  0  0  0
 18 30  1  0  0  0  0
 19 18  2  0  0  0  0
 20 21  2  0  0  0  0
 20 19  1  0  0  0  0
 21 16  1  0  0  0  0
 24 19  1  0  0  0  0
 25 20  1  0  0  0  0
 26 27  1  0  0  0  0
 26 21  1  0  0  0  0
 28 26  2  0  0  0  0
 29 26  2  0  0  0  0
 30 33  1  0  0  0  0
 30 31  1  0  0  0  0
 32 30  1  0  0  0  0
M  RAD  2   3   2  27   2
M  END
