Coordinates from ORCA-job 4-NO2PhN2+~TsO-_B3LYPG-6-31G_dp-NX-Scan-d89-09-n800
 OpenBabel11261920283D

 33 33  0  0  0  0  0  0  0  0999 V2000
   -4.5973   -1.5492    0.3908 C   0  0  0  0  0  0  0  0  0  0  0  0
   -5.5900   -1.3174    1.3381 N   0  0  0  0  0  0  0  0  0  0  0  0
   -6.5422   -1.2580    1.9496 N   0  0  0  0  0  0  0  0  0  0  0  0
   -3.2786   -1.2693    0.7837 C   0  0  0  0  0  0  0  0  0  0  0  0
   -2.2591   -1.4684   -0.1352 C   0  0  0  0  0  0  0  0  0  0  0  0
   -2.5966   -1.9177   -1.4120 C   0  0  0  0  0  0  0  0  0  0  0  0
   -1.5057   -2.1185   -2.3946 N   0  0  0  0  0  0  0  0  0  0  0  0
   -0.3609   -1.8855   -2.0157 O   0  0  0  0  0  0  0  0  0  0  0  0
   -1.8224   -2.5007   -3.5162 O   0  0  0  0  0  0  0  0  0  0  0  0
   -3.9064   -2.1819   -1.8043 C   0  0  0  0  0  0  0  0  0  0  0  0
   -4.9420   -2.0061   -0.8912 C   0  0  0  0  0  0  0  0  0  0  0  0
   -3.0716   -0.9126    1.7858 H   0  0  0  0  0  0  0  0  0  0  0  0
   -1.2228   -1.2779    0.1115 H   0  0  0  0  0  0  0  0  0  0  0  0
   -4.1055   -2.5335   -2.8084 H   0  0  0  0  0  0  0  0  0  0  0  0
   -5.9748   -2.2263   -1.1546 H   0  0  0  0  0  0  0  0  0  0  0  0
   -8.6708   -5.8721    1.4788 C   0  0  0  0  0  0  0  0  0  0  0  0
   -9.6276   -6.8634    1.6999 C   0  0  0  0  0  0  0  0  0  0  0  0
  -10.8803   -6.8143    1.0751 C   0  0  0  0  0  0  0  0  0  0  0  0
  -11.1519   -5.7448    0.2070 C   0  0  0  0  0  0  0  0  0  0  0  0
  -10.2072   -4.7496   -0.0271 C   0  0  0  0  0  0  0  0  0  0  0  0
   -8.9684   -4.8195    0.6150 C   0  0  0  0  0  0  0  0  0  0  0  0
   -7.6955   -5.9166    1.9502 H   0  0  0  0  0  0  0  0  0  0  0  0
   -9.3944   -7.6915    2.3647 H   0  0  0  0  0  0  0  0  0  0  0  0
  -12.1146   -5.6961   -0.2957 H   0  0  0  0  0  0  0  0  0  0  0  0
  -10.4123   -3.9340   -0.7123 H   0  0  0  0  0  0  0  0  0  0  0  0
   -7.7599   -3.5280    0.3478 S   0  0  0  0  0  0  0  0  0  0  0  0
   -6.4199   -4.0755    0.6822 O   0  0  0  0  0  0  0  0  0  0  0  0
   -8.1422   -2.4241    1.3403 O   0  0  0  0  0  0  0  0  0  0  0  0
   -7.9107   -3.0698   -1.0567 O   0  0  0  0  0  0  0  0  0  0  0  0
  -11.9215   -7.8788    1.3293 C   0  0  0  0  0  0  0  0  0  0  0  0
  -11.5023   -8.7273    1.8765 H   0  0  0  0  0  0  0  0  0  0  0  0
  -12.7561   -7.4821    1.9203 H   0  0  0  0  0  0  0  0  0  0  0  0
  -12.3433   -8.2564    0.3919 H   0  0  0  0  0  0  0  0  0  0  0  0
  1  4  1  0  0  0  0
  1  2  1  0  0  0  0
  2  3  1  0  0  0  0
  4 12  1  0  0  0  0
  5 13  1  0  0  0  0
  5  4  2  0  0  0  0
  6  5  1  0  0  0  0
  7  8  2  0  0  0  0
  7  6  1  0  0  0  0
  9  7  2  0  0  0  0
 10  6  2  0  0  0  0
 10 11  1  0  0  0  0
 11  1  2  0  0  0  0
 14 10  1  0  0  0  0
 15 11  1  0  0  0  0
 16 17  1  0  0  0  0
 16 22  1  0  0  0  0
 17 23  1  0  0  0  0
 18 30  1  0  0  0  0
 18 17  2  0  0  0  0
 19 18  1  0  0  0  0
 20 19  2  0  0  0  0
 20 21  1  0  0  0  0
 21 16  2  0  0  0  0
 24 19  1  0  0  0  0
 25 20  1  0  0  0  0
 26 21  1  0  0  0  0
 26 27  2  0  0  0  0
 26 28  1  0  0  0  0
 29 26  2  0  0  0  0
 30 31  1  0  0  0  0
 30 32  1  0  0  0  0
 33 30  1  0  0  0  0
M  RAD  3   2   2   3   3  28   2
M  END
