Coordinates from ORCA-job 4-NO2PhN2+~TsO-_B3LYPG-6-31G_dp-NX-Scan-d89-09-n800
 OpenBabel11261920283D

 33 33  0  0  0  0  0  0  0  0999 V2000
   -4.6412   -0.8263    1.2539 C   0  0  0  0  0  0  0  0  0  0  0  0
   -5.0556   -0.1081    2.3485 N   0  0  0  0  0  0  0  0  0  0  0  0
   -5.2744    0.4964    3.2709 N   0  0  0  0  0  0  0  0  0  0  0  0
   -3.2310   -0.8861    1.0894 C   0  0  0  0  0  0  0  0  0  0  0  0
   -2.7424   -1.5959    0.0143 C   0  0  0  0  0  0  0  0  0  0  0  0
   -3.6514   -2.2067   -0.8597 C   0  0  0  0  0  0  0  0  0  0  0  0
   -3.0792   -2.9388   -2.0179 N   0  0  0  0  0  0  0  0  0  0  0  0
   -1.8930   -3.2593   -1.9273 O   0  0  0  0  0  0  0  0  0  0  0  0
   -3.8194   -3.1502   -2.9639 O   0  0  0  0  0  0  0  0  0  0  0  0
   -5.0351   -2.1604   -0.7043 C   0  0  0  0  0  0  0  0  0  0  0  0
   -5.5614   -1.4529    0.3786 C   0  0  0  0  0  0  0  0  0  0  0  0
   -2.5722   -0.3899    1.7927 H   0  0  0  0  0  0  0  0  0  0  0  0
   -1.6789   -1.6956   -0.1644 H   0  0  0  0  0  0  0  0  0  0  0  0
   -5.7155   -2.7114   -1.3750 H   0  0  0  0  0  0  0  0  0  0  0  0
   -6.6451   -1.4305    0.4953 H   0  0  0  0  0  0  0  0  0  0  0  0
  -10.0155   -4.6524    0.2232 C   0  0  0  0  0  0  0  0  0  0  0  0
  -10.5523   -5.6341    1.0531 C   0  0  0  0  0  0  0  0  0  0  0  0
   -9.9622   -6.9031    1.1505 C   0  0  0  0  0  0  0  0  0  0  0  0
   -8.8120   -7.1614    0.3884 C   0  0  0  0  0  0  0  0  0  0  0  0
   -8.2665   -6.1874   -0.4448 C   0  0  0  0  0  0  0  0  0  0  0  0
   -8.8697   -4.9295   -0.5291 C   0  0  0  0  0  0  0  0  0  0  0  0
  -10.4740   -3.6712    0.1553 H   0  0  0  0  0  0  0  0  0  0  0  0
  -11.4465   -5.4171    1.6327 H   0  0  0  0  0  0  0  0  0  0  0  0
   -8.3411   -8.1404    0.4478 H   0  0  0  0  0  0  0  0  0  0  0  0
   -7.3766   -6.3809   -1.0338 H   0  0  0  0  0  0  0  0  0  0  0  0
   -8.2139   -3.6782   -1.6478 S   0  0  0  0  0  0  0  0  0  0  0  0
   -8.2149   -2.4140   -0.8294 O   0  0  0  0  0  0  0  0  0  0  0  0
   -9.1241   -3.6671   -2.8164 O   0  0  0  0  0  0  0  0  0  0  0  0
   -6.8145   -4.1248   -1.9494 O   0  0  0  0  0  0  0  0  0  0  0  0
  -10.5341   -7.9614    2.0632 C   0  0  0  0  0  0  0  0  0  0  0  0
   -9.9173   -8.0893    2.9617 H   0  0  0  0  0  0  0  0  0  0  0  0
  -11.5441   -7.7031    2.3926 H   0  0  0  0  0  0  0  0  0  0  0  0
  -10.5795   -8.9360    1.5656 H   0  0  0  0  0  0  0  0  0  0  0  0
  1  2  1  0  0  0  0
  2  3  1  0  0  0  0
  4  1  1  0  0  0  0
  4 12  1  0  0  0  0
  5  4  2  0  0  0  0
  6 10  2  0  0  0  0
  6  5  1  0  0  0  0
  7  8  2  0  0  0  0
  7  6  1  0  0  0  0
  9  7  2  0  0  0  0
 10 11  1  0  0  0  0
 11 15  1  0  0  0  0
 11  1  2  0  0  0  0
 13  5  1  0  0  0  0
 14 10  1  0  0  0  0
 16 17  2  0  0  0  0
 17 18  1  0  0  0  0
 17 23  1  0  0  0  0
 18 30  1  0  0  0  0
 19 24  1  0  0  0  0
 19 18  2  0  0  0  0
 20 19  1  0  0  0  0
 21 20  2  0  0  0  0
 21 16  1  0  0  0  0
 22 16  1  0  0  0  0
 25 20  1  0  0  0  0
 26 27  1  0  0  0  0
 26 21  1  0  0  0  0
 28 26  2  0  0  0  0
 29 26  2  0  0  0  0
 30 32  1  0  0  0  0
 30 31  1  0  0  0  0
 33 30  1  0  0  0  0
M  RAD  3   2   2   3   3  27   2
M  END
