Coordinates from ORCA-job 4-NO2PhN2+~TsO-_B3LYPG-6-31G_dp-NX-Scan-d89-09-n800
 OpenBabel11261920283D

 33 33  0  0  0  0  0  0  0  0999 V2000
   -4.4914   -1.8759    0.4785 C   0  0  0  0  0  0  0  0  0  0  0  0
   -5.3208   -1.7972    1.6034 N   0  0  0  0  0  0  0  0  0  0  0  0
   -5.8305   -1.5054    2.5551 N   0  0  0  0  0  0  0  0  0  0  0  0
   -3.1101   -1.8134    0.7162 C   0  0  0  0  0  0  0  0  0  0  0  0
   -2.2605   -1.8462   -0.3807 C   0  0  0  0  0  0  0  0  0  0  0  0
   -2.8225   -1.9239   -1.6546 C   0  0  0  0  0  0  0  0  0  0  0  0
   -1.9090   -1.9499   -2.8217 N   0  0  0  0  0  0  0  0  0  0  0  0
   -0.7040   -1.9005   -2.5901 O   0  0  0  0  0  0  0  0  0  0  0  0
   -2.4209   -2.0163   -3.9339 O   0  0  0  0  0  0  0  0  0  0  0  0
   -4.1964   -1.9777   -1.8802 C   0  0  0  0  0  0  0  0  0  0  0  0
   -5.0677   -1.9700   -0.7951 C   0  0  0  0  0  0  0  0  0  0  0  0
   -2.7235   -1.7468    1.7267 H   0  0  0  0  0  0  0  0  0  0  0  0
   -1.1845   -1.8081   -0.2681 H   0  0  0  0  0  0  0  0  0  0  0  0
   -4.5707   -2.0410   -2.8941 H   0  0  0  0  0  0  0  0  0  0  0  0
   -6.1495   -2.0411   -0.9103 H   0  0  0  0  0  0  0  0  0  0  0  0
   -9.3903   -5.1434    2.1053 C   0  0  0  0  0  0  0  0  0  0  0  0
  -10.2270   -6.2573    2.1382 C   0  0  0  0  0  0  0  0  0  0  0  0
  -10.7190   -6.8296    0.9568 C   0  0  0  0  0  0  0  0  0  0  0  0
  -10.3487   -6.2537   -0.2671 C   0  0  0  0  0  0  0  0  0  0  0  0
   -9.5141   -5.1392   -0.3156 C   0  0  0  0  0  0  0  0  0  0  0  0
   -9.0343   -4.5894    0.8745 C   0  0  0  0  0  0  0  0  0  0  0  0
   -9.0251   -4.6919    3.0211 H   0  0  0  0  0  0  0  0  0  0  0  0
  -10.5071   -6.6875    3.0965 H   0  0  0  0  0  0  0  0  0  0  0  0
  -10.7240   -6.6812   -1.1936 H   0  0  0  0  0  0  0  0  0  0  0  0
   -9.2415   -4.6832   -1.2609 H   0  0  0  0  0  0  0  0  0  0  0  0
   -7.9197   -3.1893    0.8243 S   0  0  0  0  0  0  0  0  0  0  0  0
   -6.5176   -3.7603    0.8465 O   0  0  0  0  0  0  0  0  0  0  0  0
   -8.1733   -2.3870    2.0580 O   0  0  0  0  0  0  0  0  0  0  0  0
   -8.1846   -2.4720   -0.4530 O   0  0  0  0  0  0  0  0  0  0  0  0
  -11.6528   -8.0155    1.0003 C   0  0  0  0  0  0  0  0  0  0  0  0
  -11.5332   -8.5854    1.9266 H   0  0  0  0  0  0  0  0  0  0  0  0
  -12.7011   -7.6948    0.9471 H   0  0  0  0  0  0  0  0  0  0  0  0
  -11.4791   -8.6930    0.1582 H   0  0  0  0  0  0  0  0  0  0  0  0
  1  4  1  0  0  0  0
  1  2  1  0  0  0  0
  2  3  1  0  0  0  0
  4 12  1  0  0  0  0
  5 13  1  0  0  0  0
  5  4  2  0  0  0  0
  6  5  1  0  0  0  0
  7  8  2  0  0  0  0
  7  6  1  0  0  0  0
  9  7  2  0  0  0  0
 10  6  2  0  0  0  0
 10 11  1  0  0  0  0
 11  1  2  0  0  0  0
 14 10  1  0  0  0  0
 15 11  1  0  0  0  0
 16 17  1  0  0  0  0
 16 22  1  0  0  0  0
 17 23  1  0  0  0  0
 18 30  1  0  0  0  0
 18 17  2  0  0  0  0
 19 18  1  0  0  0  0
 20 19  2  0  0  0  0
 20 21  1  0  0  0  0
 21 16  2  0  0  0  0
 24 19  1  0  0  0  0
 25 20  1  0  0  0  0
 26 27  2  0  0  0  0
 26 21  1  0  0  0  0
 26 28  1  0  0  0  0
 29 26  2  0  0  0  0
 30 31  1  0  0  0  0
 32 30  1  0  0  0  0
 33 30  1  0  0  0  0
M  RAD  3   2   2   3   3  28   2
M  END
