Coordinates from ORCA-job 4-NO2PhN2+~TsO-_B3LYPG-6-31G_dp-NX-Scan-d89-09-n800
 OpenBabel11261920283D

 33 33  0  0  0  0  0  0  0  0999 V2000
   -4.4568   -2.1666    0.4216 C   0  0  0  0  0  0  0  0  0  0  0  0
   -5.3009   -2.3217    1.5581 N   0  0  0  0  0  0  0  0  0  0  0  0
   -5.5356   -2.0757    2.6300 N   0  0  0  0  0  0  0  0  0  0  0  0
   -3.0911   -2.0140    0.6960 C   0  0  0  0  0  0  0  0  0  0  0  0
   -2.2279   -1.8121   -0.3729 C   0  0  0  0  0  0  0  0  0  0  0  0
   -2.7640   -1.7548   -1.6585 C   0  0  0  0  0  0  0  0  0  0  0  0
   -1.8396   -1.5341   -2.7949 N   0  0  0  0  0  0  0  0  0  0  0  0
   -0.6466   -1.4090   -2.5308 O   0  0  0  0  0  0  0  0  0  0  0  0
   -2.3301   -1.4902   -3.9182 O   0  0  0  0  0  0  0  0  0  0  0  0
   -4.1248   -1.8948   -1.9193 C   0  0  0  0  0  0  0  0  0  0  0  0
   -5.0033   -2.1202   -0.8618 C   0  0  0  0  0  0  0  0  0  0  0  0
   -2.7234   -2.0601    1.7147 H   0  0  0  0  0  0  0  0  0  0  0  0
   -1.1615   -1.6950   -0.2281 H   0  0  0  0  0  0  0  0  0  0  0  0
   -4.4837   -1.8367   -2.9390 H   0  0  0  0  0  0  0  0  0  0  0  0
   -6.0721   -2.2482   -1.0175 H   0  0  0  0  0  0  0  0  0  0  0  0
   -9.5251   -4.9930    2.0785 C   0  0  0  0  0  0  0  0  0  0  0  0
  -10.3654   -6.1002    2.1822 C   0  0  0  0  0  0  0  0  0  0  0  0
  -10.7788   -6.8059    1.0439 C   0  0  0  0  0  0  0  0  0  0  0  0
  -10.3265   -6.3723   -0.2114 C   0  0  0  0  0  0  0  0  0  0  0  0
   -9.4877   -5.2672   -0.3322 C   0  0  0  0  0  0  0  0  0  0  0  0
   -9.0890   -4.5833    0.8181 C   0  0  0  0  0  0  0  0  0  0  0  0
   -9.2192   -4.4369    2.9579 H   0  0  0  0  0  0  0  0  0  0  0  0
  -10.7104   -6.4192    3.1623 H   0  0  0  0  0  0  0  0  0  0  0  0
  -10.6406   -6.9048   -1.1056 H   0  0  0  0  0  0  0  0  0  0  0  0
   -9.1526   -4.9217   -1.3037 H   0  0  0  0  0  0  0  0  0  0  0  0
   -7.9854   -3.1811    0.6805 S   0  0  0  0  0  0  0  0  0  0  0  0
   -6.5803   -3.8156    0.7370 O   0  0  0  0  0  0  0  0  0  0  0  0
   -8.1979   -2.3083    1.8554 O   0  0  0  0  0  0  0  0  0  0  0  0
   -8.2111   -2.5686   -0.6503 O   0  0  0  0  0  0  0  0  0  0  0  0
  -11.7163   -7.9839    1.1598 C   0  0  0  0  0  0  0  0  0  0  0  0
  -11.6915   -8.4190    2.1629 H   0  0  0  0  0  0  0  0  0  0  0  0
  -12.7525   -7.6835    0.9588 H   0  0  0  0  0  0  0  0  0  0  0  0
  -11.4631   -8.7695    0.4409 H   0  0  0  0  0  0  0  0  0  0  0  0
  1  4  1  0  0  0  0
  1  2  1  0  0  0  0
  2  3  2  0  0  0  0
  4 12  1  0  0  0  0
  5 13  1  0  0  0  0
  5  4  2  0  0  0  0
  6  5  1  0  0  0  0
  7  8  2  0  0  0  0
  7  6  1  0  0  0  0
  9  7  2  0  0  0  0
 10  6  2  0  0  0  0
 10 11  1  0  0  0  0
 11  1  2  0  0  0  0
 14 10  1  0  0  0  0
 15 11  1  0  0  0  0
 16 17  1  0  0  0  0
 16 22  1  0  0  0  0
 17 23  1  0  0  0  0
 18 30  1  0  0  0  0
 18 17  2  0  0  0  0
 19 18  1  0  0  0  0
 20 19  2  0  0  0  0
 20 21  1  0  0  0  0
 21 16  2  0  0  0  0
 24 19  1  0  0  0  0
 25 20  1  0  0  0  0
 26 27  2  0  0  0  0
 26 21  1  0  0  0  0
 26 28  1  0  0  0  0
 29 26  2  0  0  0  0
 30 31  1  0  0  0  0
 32 30  1  0  0  0  0
 33 30  1  0  0  0  0
M  RAD  2   3   2  28   2
M  END
