Coordinates from ORCA-job 4-NO2PhN2+~TsO-_B3LYPG-6-31G_dp-NX-Scan-d89-09-n800
 OpenBabel11261920283D

 33 33  0  0  0  0  0  0  0  0999 V2000
   -5.1215   -2.6756    0.0223 C   0  0  0  0  0  0  0  0  0  0  0  0
   -6.3090   -3.3111    0.4938 N   0  0  0  0  0  0  0  0  0  0  0  0
   -6.7996   -3.9066    1.3185 N   0  0  0  0  0  0  0  0  0  0  0  0
   -4.3553   -2.0010    0.9787 C   0  0  0  0  0  0  0  0  0  0  0  0
   -3.1759   -1.3957    0.5605 C   0  0  0  0  0  0  0  0  0  0  0  0
   -2.8096   -1.5053   -0.7796 C   0  0  0  0  0  0  0  0  0  0  0  0
   -1.5486   -0.8645   -1.2168 N   0  0  0  0  0  0  0  0  0  0  0  0
   -0.8991   -0.2652   -0.3637 O   0  0  0  0  0  0  0  0  0  0  0  0
   -1.2401   -0.9785   -2.3987 O   0  0  0  0  0  0  0  0  0  0  0  0
   -3.5748   -2.1913   -1.7212 C   0  0  0  0  0  0  0  0  0  0  0  0
   -4.7693   -2.7846   -1.3230 C   0  0  0  0  0  0  0  0  0  0  0  0
   -4.6812   -1.9455    2.0110 H   0  0  0  0  0  0  0  0  0  0  0  0
   -2.5426   -0.8495    1.2476 H   0  0  0  0  0  0  0  0  0  0  0  0
   -3.2360   -2.2476   -2.7478 H   0  0  0  0  0  0  0  0  0  0  0  0
   -5.4090   -3.3346   -2.0057 H   0  0  0  0  0  0  0  0  0  0  0  0
   -9.9916   -4.2458    0.4561 C   0  0  0  0  0  0  0  0  0  0  0  0
  -10.6331   -4.9865    1.4429 C   0  0  0  0  0  0  0  0  0  0  0  0
  -10.2951   -6.3300    1.6788 C   0  0  0  0  0  0  0  0  0  0  0  0
   -9.2896   -6.9103    0.8965 C   0  0  0  0  0  0  0  0  0  0  0  0
   -8.6346   -6.1792   -0.0961 C   0  0  0  0  0  0  0  0  0  0  0  0
   -8.9851   -4.8462   -0.3096 C   0  0  0  0  0  0  0  0  0  0  0  0
  -10.2646   -3.2115    0.2748 H   0  0  0  0  0  0  0  0  0  0  0  0
  -11.4126   -4.5193    2.0397 H   0  0  0  0  0  0  0  0  0  0  0  0
   -9.0151   -7.9483    1.0643 H   0  0  0  0  0  0  0  0  0  0  0  0
   -7.8579   -6.6275   -0.7062 H   0  0  0  0  0  0  0  0  0  0  0  0
   -8.1914   -3.9034   -1.6152 S   0  0  0  0  0  0  0  0  0  0  0  0
   -7.6025   -2.6547   -0.9098 O   0  0  0  0  0  0  0  0  0  0  0  0
   -9.2485   -3.4618   -2.5197 O   0  0  0  0  0  0  0  0  0  0  0  0
   -7.0953   -4.7525   -2.1368 O   0  0  0  0  0  0  0  0  0  0  0  0
  -11.0187   -7.1273    2.7375 C   0  0  0  0  0  0  0  0  0  0  0  0
  -11.1156   -6.5599    3.6690 H   0  0  0  0  0  0  0  0  0  0  0  0
  -12.0331   -7.3843    2.4103 H   0  0  0  0  0  0  0  0  0  0  0  0
  -10.4986   -8.0622    2.9617 H   0  0  0  0  0  0  0  0  0  0  0  0
  1  2  1  0  0  0  0
  1  4  2  0  0  0  0
  2  3  2  0  0  0  0
  4 12  1  0  0  0  0
  5  4  1  0  0  0  0
  5 13  1  0  0  0  0
  6  5  2  0  0  0  0
  7  6  1  0  0  0  0
  7  8  2  0  0  0  0
  9  7  2  0  0  0  0
 10 11  2  0  0  0  0
 10  6  1  0  0  0  0
 11  1  1  0  0  0  0
 14 10  1  0  0  0  0
 15 11  1  0  0  0  0
 16 17  2  0  0  0  0
 17 18  1  0  0  0  0
 17 23  1  0  0  0  0
 18 30  1  0  0  0  0
 19 24  1  0  0  0  0
 19 18  2  0  0  0  0
 20 19  1  0  0  0  0
 21 20  2  0  0  0  0
 21 16  1  0  0  0  0
 22 16  1  0  0  0  0
 25 20  1  0  0  0  0
 26 27  1  0  0  0  0
 26 21  1  0  0  0  0
 28 26  2  0  0  0  0
 29 26  2  0  0  0  0
 30 33  1  0  0  0  0
 30 31  1  0  0  0  0
 32 30  1  0  0  0  0
M  RAD  2   3   2  27   2
M  END
