Coordinates from ORCA-job 4-NO2PhN2+~TsO-_B3LYPG-6-31G_dp-NX-Scan-d89-09-n800
 OpenBabel11261920283D

 33 33  0  0  0  0  0  0  0  0999 V2000
   -4.8111   -0.6486    0.7319 C   0  0  0  0  0  0  0  0  0  0  0  0
   -5.4268    0.3785    1.3988 N   0  0  0  0  0  0  0  0  0  0  0  0
   -5.8873    1.2242    1.9731 N   0  0  0  0  0  0  0  0  0  0  0  0
   -3.4065   -0.7659    0.9052 C   0  0  0  0  0  0  0  0  0  0  0  0
   -2.7724   -1.7891    0.2355 C   0  0  0  0  0  0  0  0  0  0  0  0
   -3.5406   -2.6605   -0.5552 C   0  0  0  0  0  0  0  0  0  0  0  0
   -2.8261   -3.7681   -1.2387 N   0  0  0  0  0  0  0  0  0  0  0  0
   -1.6114   -3.8387   -1.0543 O   0  0  0  0  0  0  0  0  0  0  0  0
   -3.4938   -4.5257   -1.9282 O   0  0  0  0  0  0  0  0  0  0  0  0
   -4.9157   -2.5466   -0.7152 C   0  0  0  0  0  0  0  0  0  0  0  0
   -5.5895   -1.5023   -0.0753 C   0  0  0  0  0  0  0  0  0  0  0  0
   -2.8639   -0.0774    1.5428 H   0  0  0  0  0  0  0  0  0  0  0  0
   -1.7039   -1.9441    0.3148 H   0  0  0  0  0  0  0  0  0  0  0  0
   -5.5120   -3.2261   -1.3267 H   0  0  0  0  0  0  0  0  0  0  0  0
   -6.6844   -1.4200   -0.1850 H   0  0  0  0  0  0  0  0  0  0  0  0
   -9.7884   -4.5257    0.8248 C   0  0  0  0  0  0  0  0  0  0  0  0
  -10.1267   -5.6969    1.4998 C   0  0  0  0  0  0  0  0  0  0  0  0
   -9.7256   -6.9522    1.0199 C   0  0  0  0  0  0  0  0  0  0  0  0
   -8.9739   -7.0009   -0.1617 C   0  0  0  0  0  0  0  0  0  0  0  0
   -8.6283   -5.8358   -0.8460 C   0  0  0  0  0  0  0  0  0  0  0  0
   -9.0370   -4.5972   -0.3503 C   0  0  0  0  0  0  0  0  0  0  0  0
  -10.0956   -3.5569    1.2039 H   0  0  0  0  0  0  0  0  0  0  0  0
  -10.7114   -5.6373    2.4150 H   0  0  0  0  0  0  0  0  0  0  0  0
   -8.6550   -7.9642   -0.5522 H   0  0  0  0  0  0  0  0  0  0  0  0
   -8.0413   -5.8751   -1.7572 H   0  0  0  0  0  0  0  0  0  0  0  0
   -8.6533   -3.0958   -1.2676 S   0  0  0  0  0  0  0  0  0  0  0  0
   -8.4083   -2.0563   -0.1970 O   0  0  0  0  0  0  0  0  0  0  0  0
   -9.8227   -2.7982   -2.1186 O   0  0  0  0  0  0  0  0  0  0  0  0
   -7.3992   -3.4023   -2.0231 O   0  0  0  0  0  0  0  0  0  0  0  0
  -10.0702   -8.2153    1.7735 C   0  0  0  0  0  0  0  0  0  0  0  0
   -9.3186   -8.4392    2.5415 H   0  0  0  0  0  0  0  0  0  0  0  0
  -11.0353   -8.1275    2.2821 H   0  0  0  0  0  0  0  0  0  0  0  0
  -10.1184   -9.0798    1.1043 H   0  0  0  0  0  0  0  0  0  0  0  0
  1  4  1  0  0  0  0
  1  2  1  0  0  0  0
  2  3  1  0  0  0  0
  4 12  1  0  0  0  0
  5 13  1  0  0  0  0
  5  4  2  0  0  0  0
  6  5  1  0  0  0  0
  7  8  2  0  0  0  0
  7  6  1  0  0  0  0
  9  7  2  0  0  0  0
 10  6  2  0  0  0  0
 10 11  1  0  0  0  0
 11  1  2  0  0  0  0
 14 10  1  0  0  0  0
 15 11  1  0  0  0  0
 16 22  1  0  0  0  0
 16 17  2  0  0  0  0
 17 23  1  0  0  0  0
 18 17  1  0  0  0  0
 18 30  1  0  0  0  0
 19 18  2  0  0  0  0
 20 21  2  0  0  0  0
 20 19  1  0  0  0  0
 21 16  1  0  0  0  0
 24 19  1  0  0  0  0
 25 20  1  0  0  0  0
 26 21  1  0  0  0  0
 26 27  1  0  0  0  0
 28 26  2  0  0  0  0
 29 26  2  0  0  0  0
 30 32  1  0  0  0  0
 30 31  1  0  0  0  0
 33 30  1  0  0  0  0
M  RAD  3   2   2   3   3  27   2
M  END
