Coordinates from ORCA-job 4-NO2PhN2+~TsO-_B3LYPG-6-31G_dp-NX-Scan-d89-09-n800
 OpenBabel11261920283D

 33 33  0  0  0  0  0  0  0  0999 V2000
   -4.4786   -3.3973   -0.0822 C   0  0  0  0  0  0  0  0  0  0  0  0
   -5.0867   -4.6226    0.3370 N   0  0  0  0  0  0  0  0  0  0  0  0
   -5.0969   -5.4088    1.1489 N   0  0  0  0  0  0  0  0  0  0  0  0
   -3.9196   -2.6174    0.9395 C   0  0  0  0  0  0  0  0  0  0  0  0
   -3.2805   -1.4368    0.5866 C   0  0  0  0  0  0  0  0  0  0  0  0
   -3.2116   -1.0935   -0.7634 C   0  0  0  0  0  0  0  0  0  0  0  0
   -2.5199    0.1626   -1.1338 N   0  0  0  0  0  0  0  0  0  0  0  0
   -2.0543    0.8363   -0.2184 O   0  0  0  0  0  0  0  0  0  0  0  0
   -2.4578    0.4392   -2.3271 O   0  0  0  0  0  0  0  0  0  0  0  0
   -3.7613   -1.8778   -1.7732 C   0  0  0  0  0  0  0  0  0  0  0  0
   -4.4225   -3.0541   -1.4306 C   0  0  0  0  0  0  0  0  0  0  0  0
   -3.9950   -2.9277    1.9753 H   0  0  0  0  0  0  0  0  0  0  0  0
   -2.8380   -0.7862    1.3298 H   0  0  0  0  0  0  0  0  0  0  0  0
   -3.6825   -1.5585   -2.8044 H   0  0  0  0  0  0  0  0  0  0  0  0
   -4.8881   -3.6981   -2.1632 H   0  0  0  0  0  0  0  0  0  0  0  0
   -9.2046   -4.2260    0.9284 C   0  0  0  0  0  0  0  0  0  0  0  0
  -10.0988   -4.8046    1.8312 C   0  0  0  0  0  0  0  0  0  0  0  0
  -10.6118   -6.0897    1.6195 C   0  0  0  0  0  0  0  0  0  0  0  0
  -10.2032   -6.7900    0.4728 C   0  0  0  0  0  0  0  0  0  0  0  0
   -9.3142   -6.2261   -0.4370 C   0  0  0  0  0  0  0  0  0  0  0  0
   -8.8136   -4.9425   -0.2009 C   0  0  0  0  0  0  0  0  0  0  0  0
   -8.8184   -3.2246    1.0824 H   0  0  0  0  0  0  0  0  0  0  0  0
  -10.4068   -4.2444    2.7105 H   0  0  0  0  0  0  0  0  0  0  0  0
  -10.5926   -7.7881    0.2896 H   0  0  0  0  0  0  0  0  0  0  0  0
   -9.0153   -6.7680   -1.3282 H   0  0  0  0  0  0  0  0  0  0  0  0
   -7.6653   -4.2139   -1.3719 S   0  0  0  0  0  0  0  0  0  0  0  0
   -6.3712   -5.0695   -1.2163 O   0  0  0  0  0  0  0  0  0  0  0  0
   -7.4144   -2.8264   -0.9282 O   0  0  0  0  0  0  0  0  0  0  0  0
   -8.2085   -4.4291   -2.7195 O   0  0  0  0  0  0  0  0  0  0  0  0
  -11.6051   -6.7002    2.5793 C   0  0  0  0  0  0  0  0  0  0  0  0
  -11.5734   -6.2099    3.5561 H   0  0  0  0  0  0  0  0  0  0  0  0
  -12.6297   -6.6056    2.1977 H   0  0  0  0  0  0  0  0  0  0  0  0
  -11.4145   -7.7679    2.7281 H   0  0  0  0  0  0  0  0  0  0  0  0
  1  2  1  0  0  0  0
  1  4  2  0  0  0  0
  2  3  2  0  0  0  0
  4 12  1  0  0  0  0
  5  4  1  0  0  0  0
  5 13  1  0  0  0  0
  6  5  2  0  0  0  0
  7  6  1  0  0  0  0
  7  8  2  0  0  0  0
  9  7  2  0  0  0  0
 10 11  2  0  0  0  0
 10  6  1  0  0  0  0
 11  1  1  0  0  0  0
 14 10  1  0  0  0  0
 15 11  1  0  0  0  0
 16 22  1  0  0  0  0
 16 17  2  0  0  0  0
 17 23  1  0  0  0  0
 18 17  1  0  0  0  0
 18 30  1  0  0  0  0
 19 18  2  0  0  0  0
 20 21  2  0  0  0  0
 20 19  1  0  0  0  0
 21 16  1  0  0  0  0
 24 19  1  0  0  0  0
 25 20  1  0  0  0  0
 26 27  2  0  0  0  0
 26 28  1  0  0  0  0
 26 21  1  0  0  0  0
 29 26  2  0  0  0  0
 30 33  1  0  0  0  0
 30 31  1  0  0  0  0
 32 30  1  0  0  0  0
M  RAD  2   3   2  28   2
M  END
