Coordinates from ORCA-job 4-NO2PhN2+~TsO-_B3LYPG-6-31G_dp-NX-Scan-d89-09-n800
 OpenBabel11261920283D

 33 34  0  0  0  0  0  0  0  0999 V2000
   -4.4800   -2.8870    0.3151 C   0  0  0  0  0  0  0  0  0  0  0  0
   -5.0023   -3.8731    1.2014 N   0  0  0  0  0  0  0  0  0  0  0  0
   -5.7032   -4.8361    0.9057 N   0  0  0  0  0  0  0  0  0  0  0  0
   -4.3824   -1.6049    0.8784 C   0  0  0  0  0  0  0  0  0  0  0  0
   -3.8306   -0.5579    0.1510 C   0  0  0  0  0  0  0  0  0  0  0  0
   -3.3357   -0.8248   -1.1239 C   0  0  0  0  0  0  0  0  0  0  0  0
   -2.7322    0.2741   -1.8971 N   0  0  0  0  0  0  0  0  0  0  0  0
   -2.7036    1.3873   -1.3745 O   0  0  0  0  0  0  0  0  0  0  0  0
   -2.2958    0.0098   -3.0159 O   0  0  0  0  0  0  0  0  0  0  0  0
   -3.3835   -2.0989   -1.6872 C   0  0  0  0  0  0  0  0  0  0  0  0
   -3.9675   -3.1371   -0.9697 C   0  0  0  0  0  0  0  0  0  0  0  0
   -4.7478   -1.4500    1.8873 H   0  0  0  0  0  0  0  0  0  0  0  0
   -3.7592    0.4444    0.5541 H   0  0  0  0  0  0  0  0  0  0  0  0
   -2.9768   -2.2585   -2.6774 H   0  0  0  0  0  0  0  0  0  0  0  0
   -4.0215   -4.1275   -1.3999 H   0  0  0  0  0  0  0  0  0  0  0  0
   -8.5783   -6.5118    1.4030 C   0  0  0  0  0  0  0  0  0  0  0  0
   -9.7705   -6.2935    2.0897 C   0  0  0  0  0  0  0  0  0  0  0  0
  -10.8416   -5.6153    1.4899 C   0  0  0  0  0  0  0  0  0  0  0  0
  -10.6953   -5.1613    0.1695 C   0  0  0  0  0  0  0  0  0  0  0  0
   -9.5132   -5.3657   -0.5357 C   0  0  0  0  0  0  0  0  0  0  0  0
   -8.4639   -6.0398    0.0944 C   0  0  0  0  0  0  0  0  0  0  0  0
   -7.7541   -7.0447    1.8626 H   0  0  0  0  0  0  0  0  0  0  0  0
   -9.8726   -6.6613    3.1064 H   0  0  0  0  0  0  0  0  0  0  0  0
  -11.5213   -4.6470   -0.3140 H   0  0  0  0  0  0  0  0  0  0  0  0
   -9.4043   -5.0277   -1.5600 H   0  0  0  0  0  0  0  0  0  0  0  0
   -6.9559   -6.3167   -0.8037 S   0  0  0  0  0  0  0  0  0  0  0  0
   -6.2387   -7.4448   -0.2306 O   0  0  0  0  0  0  0  0  0  0  0  0
   -6.0511   -4.9061   -0.4699 O   0  0  0  0  0  0  0  0  0  0  0  0
   -7.1883   -6.1713   -2.2321 O   0  0  0  0  0  0  0  0  0  0  0  0
  -12.1202   -5.3615    2.2498 C   0  0  0  0  0  0  0  0  0  0  0  0
  -12.2309   -6.0501    3.0911 H   0  0  0  0  0  0  0  0  0  0  0  0
  -12.1359   -4.3421    2.6539 H   0  0  0  0  0  0  0  0  0  0  0  0
  -12.9964   -5.4661    1.6027 H   0  0  0  0  0  0  0  0  0  0  0  0
  1  4  1  0  0  0  0
  1  2  1  0  0  0  0
  3  2  1  0  0  0  0
  4 12  1  0  0  0  0
  5 13  1  0  0  0  0
  5  4  2  0  0  0  0
  6  5  1  0  0  0  0
  7  8  2  0  0  0  0
  7  6  1  0  0  0  0
  9  7  2  0  0  0  0
 10  6  2  0  0  0  0
 10 11  1  0  0  0  0
 11  1  2  0  0  0  0
 14 10  1  0  0  0  0
 15 11  1  0  0  0  0
 16 22  1  0  0  0  0
 16 17  2  0  0  0  0
 17 23  1  0  0  0  0
 18 17  1  0  0  0  0
 18 30  1  0  0  0  0
 19 18  2  0  0  0  0
 20 21  2  0  0  0  0
 20 19  1  0  0  0  0
 21 16  1  0  0  0  0
 24 19  1  0  0  0  0
 25 20  1  0  0  0  0
 26 28  1  0  0  0  0
 26 27  2  0  0  0  0
 26 21  1  0  0  0  0
 28  3  1  0  0  0  0
 29 26  2  0  0  0  0
 30 32  1  0  0  0  0
 30 31  1  0  0  0  0
 33 30  1  0  0  0  0
M  RAD  2   2   2   3   2
M  END
