Coordinates from ORCA-job 4-NO2PhN2+~TsO-_B3LYPG-6-31G_dp-NX-Scan-d89-09-n800
 OpenBabel11261920283D

 33 33  0  0  0  0  0  0  0  0999 V2000
   -4.7920   -2.6158    0.2348 C   0  0  0  0  0  0  0  0  0  0  0  0
   -5.8048   -3.3277    0.9493 N   0  0  0  0  0  0  0  0  0  0  0  0
   -6.0921   -3.8598    1.9007 N   0  0  0  0  0  0  0  0  0  0  0  0
   -4.0647   -1.6787    0.9777 C   0  0  0  0  0  0  0  0  0  0  0  0
   -3.0401   -0.9950    0.3335 C   0  0  0  0  0  0  0  0  0  0  0  0
   -2.7796   -1.2890   -1.0035 C   0  0  0  0  0  0  0  0  0  0  0  0
   -1.6786   -0.5648   -1.6788 N   0  0  0  0  0  0  0  0  0  0  0  0
   -1.0662    0.2684   -1.0159 O   0  0  0  0  0  0  0  0  0  0  0  0
   -1.4540   -0.8500   -2.8505 O   0  0  0  0  0  0  0  0  0  0  0  0
   -3.5067   -2.2317   -1.7284 C   0  0  0  0  0  0  0  0  0  0  0  0
   -4.5525   -2.9084   -1.1070 C   0  0  0  0  0  0  0  0  0  0  0  0
   -4.3024   -1.4871    2.0175 H   0  0  0  0  0  0  0  0  0  0  0  0
   -2.4457   -0.2498    0.8463 H   0  0  0  0  0  0  0  0  0  0  0  0
   -3.2586   -2.4179   -2.7654 H   0  0  0  0  0  0  0  0  0  0  0  0
   -5.1672   -3.6459   -1.6188 H   0  0  0  0  0  0  0  0  0  0  0  0
   -9.7973   -4.3147    0.7546 C   0  0  0  0  0  0  0  0  0  0  0  0
  -10.6356   -5.0539    1.5858 C   0  0  0  0  0  0  0  0  0  0  0  0
  -10.6402   -6.4566    1.5507 C   0  0  0  0  0  0  0  0  0  0  0  0
   -9.7692   -7.1021    0.6625 C   0  0  0  0  0  0  0  0  0  0  0  0
   -8.9230   -6.3760   -0.1752 C   0  0  0  0  0  0  0  0  0  0  0  0
   -8.9398   -4.9817   -0.1250 C   0  0  0  0  0  0  0  0  0  0  0  0
   -9.7948   -3.2301    0.7917 H   0  0  0  0  0  0  0  0  0  0  0  0
  -11.2973   -4.5344    2.2745 H   0  0  0  0  0  0  0  0  0  0  0  0
   -9.7510   -8.1890    0.6272 H   0  0  0  0  0  0  0  0  0  0  0  0
   -8.2425   -6.8764   -0.8553 H   0  0  0  0  0  0  0  0  0  0  0  0
   -7.8994   -4.0427   -1.2461 S   0  0  0  0  0  0  0  0  0  0  0  0
   -7.3710   -2.8751   -0.3773 O   0  0  0  0  0  0  0  0  0  0  0  0
   -8.7375   -3.5187   -2.3345 O   0  0  0  0  0  0  0  0  0  0  0  0
   -6.7799   -4.9451   -1.6189 O   0  0  0  0  0  0  0  0  0  0  0  0
  -11.5780   -7.2483    2.4315 C   0  0  0  0  0  0  0  0  0  0  0  0
  -11.7503   -6.7465    3.3884 H   0  0  0  0  0  0  0  0  0  0  0  0
  -12.5560   -7.3740    1.9504 H   0  0  0  0  0  0  0  0  0  0  0  0
  -11.1865   -8.2484    2.6378 H   0  0  0  0  0  0  0  0  0  0  0  0
  1  2  1  0  0  0  0
  1  4  2  0  0  0  0
  2  3  2  0  0  0  0
  4 12  1  0  0  0  0
  5 13  1  0  0  0  0
  5  4  1  0  0  0  0
  6  5  2  0  0  0  0
  7  8  2  0  0  0  0
  7  6  1  0  0  0  0
  9  7  2  0  0  0  0
 10 11  2  0  0  0  0
 10  6  1  0  0  0  0
 11  1  1  0  0  0  0
 14 10  1  0  0  0  0
 15 11  1  0  0  0  0
 16 22  1  0  0  0  0
 16 17  2  0  0  0  0
 17 23  1  0  0  0  0
 18 17  1  0  0  0  0
 18 30  1  0  0  0  0
 19 18  2  0  0  0  0
 20 21  2  0  0  0  0
 20 19  1  0  0  0  0
 21 16  1  0  0  0  0
 24 19  1  0  0  0  0
 25 20  1  0  0  0  0
 26 27  1  0  0  0  0
 26 21  1  0  0  0  0
 28 26  2  0  0  0  0
 29 26  2  0  0  0  0
 30 33  1  0  0  0  0
 30 31  1  0  0  0  0
 32 30  1  0  0  0  0
M  RAD  2   3   2  27   2
M  END
