Coordinates from ORCA-job 4-NO2PhN2+~TsO-_B3LYPG-6-31G_dp-NX-Scan-d89-09-n800
 OpenBabel11261920283D

 33 33  0  0  0  0  0  0  0  0999 V2000
   -4.6620   -0.8381    1.1357 C   0  0  0  0  0  0  0  0  0  0  0  0
   -5.1943   -0.1407    2.1911 N   0  0  0  0  0  0  0  0  0  0  0  0
   -5.5476    0.4443    3.0808 N   0  0  0  0  0  0  0  0  0  0  0  0
   -3.2474   -0.7798    1.0194 C   0  0  0  0  0  0  0  0  0  0  0  0
   -2.6686   -1.4759   -0.0191 C   0  0  0  0  0  0  0  0  0  0  0  0
   -3.4951   -2.1992   -0.8925 C   0  0  0  0  0  0  0  0  0  0  0  0
   -2.8255   -2.9383   -1.9966 N   0  0  0  0  0  0  0  0  0  0  0  0
   -1.5941   -2.9518   -1.9801 O   0  0  0  0  0  0  0  0  0  0  0  0
   -3.5425   -3.4674   -2.8303 O   0  0  0  0  0  0  0  0  0  0  0  0
   -4.8799   -2.2612   -0.7801 C   0  0  0  0  0  0  0  0  0  0  0  0
   -5.5008   -1.5575    0.2567 C   0  0  0  0  0  0  0  0  0  0  0  0
   -2.6552   -0.2097    1.7260 H   0  0  0  0  0  0  0  0  0  0  0  0
   -1.5966   -1.4825   -0.1712 H   0  0  0  0  0  0  0  0  0  0  0  0
   -5.5149   -2.8704   -1.4447 H   0  0  0  0  0  0  0  0  0  0  0  0
   -6.5949   -1.6224    0.3236 H   0  0  0  0  0  0  0  0  0  0  0  0
  -10.0220   -4.6278    0.3907 C   0  0  0  0  0  0  0  0  0  0  0  0
  -10.5733   -5.6462    1.1645 C   0  0  0  0  0  0  0  0  0  0  0  0
  -10.0358   -6.9422    1.1466 C   0  0  0  0  0  0  0  0  0  0  0  0
   -8.9252   -7.1894    0.3257 C   0  0  0  0  0  0  0  0  0  0  0  0
   -8.3651   -6.1783   -0.4528 C   0  0  0  0  0  0  0  0  0  0  0  0
   -8.9151   -4.8947   -0.4211 C   0  0  0  0  0  0  0  0  0  0  0  0
  -10.4398   -3.6266    0.4116 H   0  0  0  0  0  0  0  0  0  0  0  0
  -11.4376   -5.4369    1.7904 H   0  0  0  0  0  0  0  0  0  0  0  0
   -8.4967   -8.1889    0.2947 H   0  0  0  0  0  0  0  0  0  0  0  0
   -7.5056   -6.3643   -1.0875 H   0  0  0  0  0  0  0  0  0  0  0  0
   -8.2456   -3.5923   -1.4702 S   0  0  0  0  0  0  0  0  0  0  0  0
   -8.1631   -2.3943   -0.5552 O   0  0  0  0  0  0  0  0  0  0  0  0
   -9.1961   -3.4325   -2.5908 O   0  0  0  0  0  0  0  0  0  0  0  0
   -6.8845   -4.0780   -1.8646 O   0  0  0  0  0  0  0  0  0  0  0  0
  -10.6201   -8.0383    2.0057 C   0  0  0  0  0  0  0  0  0  0  0  0
  -10.0399   -8.1741    2.9272 H   0  0  0  0  0  0  0  0  0  0  0  0
  -11.6491   -7.8119    2.2990 H   0  0  0  0  0  0  0  0  0  0  0  0
  -10.6204   -8.9998    1.4819 H   0  0  0  0  0  0  0  0  0  0  0  0
  1  2  1  0  0  0  0
  2  3  1  0  0  0  0
  4  1  1  0  0  0  0
  4 12  1  0  0  0  0
  5  4  2  0  0  0  0
  6 10  2  0  0  0  0
  6  5  1  0  0  0  0
  7  8  2  0  0  0  0
  7  6  1  0  0  0  0
  9  7  2  0  0  0  0
 10 11  1  0  0  0  0
 11 15  1  0  0  0  0
 11  1  2  0  0  0  0
 13  5  1  0  0  0  0
 14 10  1  0  0  0  0
 16 22  1  0  0  0  0
 16 17  2  0  0  0  0
 17 23  1  0  0  0  0
 18 17  1  0  0  0  0
 18 30  1  0  0  0  0
 19 18  2  0  0  0  0
 20 21  2  0  0  0  0
 20 19  1  0  0  0  0
 21 16  1  0  0  0  0
 24 19  1  0  0  0  0
 25 20  1  0  0  0  0
 26 27  1  0  0  0  0
 26 21  1  0  0  0  0
 28 26  2  0  0  0  0
 29 26  2  0  0  0  0
 30 32  1  0  0  0  0
 30 31  1  0  0  0  0
 33 30  1  0  0  0  0
M  RAD  3   2   2   3   3  27   2
M  END
