Coordinates from ORCA-job 4-NO2PhN2+~TsO-_B3LYPG-6-31G_dp-NX-Scan-d89-09-n800
 OpenBabel11261920283D

 33 33  0  0  0  0  0  0  0  0999 V2000
   -4.8110   -0.6440    0.7664 C   0  0  0  0  0  0  0  0  0  0  0  0
   -5.3843    0.3984    1.4461 N   0  0  0  0  0  0  0  0  0  0  0  0
   -5.8005    1.2593    2.0327 N   0  0  0  0  0  0  0  0  0  0  0  0
   -3.4131   -0.8194    0.9478 C   0  0  0  0  0  0  0  0  0  0  0  0
   -2.8121   -1.8534    0.2647 C   0  0  0  0  0  0  0  0  0  0  0  0
   -3.6057   -2.6814   -0.5467 C   0  0  0  0  0  0  0  0  0  0  0  0
   -2.9275   -3.8042   -1.2422 N   0  0  0  0  0  0  0  0  0  0  0  0
   -1.7167   -3.9198   -1.0532 O   0  0  0  0  0  0  0  0  0  0  0  0
   -3.6177   -4.5279   -1.9454 O   0  0  0  0  0  0  0  0  0  0  0  0
   -4.9744   -2.5129   -0.7156 C   0  0  0  0  0  0  0  0  0  0  0  0
   -5.6137   -1.4548   -0.0629 C   0  0  0  0  0  0  0  0  0  0  0  0
   -2.8504   -0.1638    1.6025 H   0  0  0  0  0  0  0  0  0  0  0  0
   -1.7510   -2.0499    0.3500 H   0  0  0  0  0  0  0  0  0  0  0  0
   -5.5915   -3.1621   -1.3425 H   0  0  0  0  0  0  0  0  0  0  0  0
   -6.7019   -1.3358   -0.1855 H   0  0  0  0  0  0  0  0  0  0  0  0
   -9.7876   -4.5164    0.7828 C   0  0  0  0  0  0  0  0  0  0  0  0
  -10.1065   -5.6814    1.4772 C   0  0  0  0  0  0  0  0  0  0  0  0
   -9.6754   -6.9369    1.0241 C   0  0  0  0  0  0  0  0  0  0  0  0
   -8.9134   -6.9917   -0.1503 C   0  0  0  0  0  0  0  0  0  0  0  0
   -8.5869   -5.8325   -0.8542 C   0  0  0  0  0  0  0  0  0  0  0  0
   -9.0254   -4.5939   -0.3851 C   0  0  0  0  0  0  0  0  0  0  0  0
  -10.1183   -3.5475    1.1414 H   0  0  0  0  0  0  0  0  0  0  0  0
  -10.6999   -5.6171    2.3865 H   0  0  0  0  0  0  0  0  0  0  0  0
   -8.5713   -7.9552   -0.5203 H   0  0  0  0  0  0  0  0  0  0  0  0
   -7.9923   -5.8763   -1.7602 H   0  0  0  0  0  0  0  0  0  0  0  0
   -8.6670   -3.1012   -1.3267 S   0  0  0  0  0  0  0  0  0  0  0  0
   -8.4270   -2.0441   -0.2730 O   0  0  0  0  0  0  0  0  0  0  0  0
   -9.8467   -2.8322   -2.1736 O   0  0  0  0  0  0  0  0  0  0  0  0
   -7.4155   -3.4042   -2.0883 O   0  0  0  0  0  0  0  0  0  0  0  0
  -10.0007   -8.1926    1.7984 C   0  0  0  0  0  0  0  0  0  0  0  0
   -9.2581   -8.3806    2.5845 H   0  0  0  0  0  0  0  0  0  0  0  0
  -10.9770   -8.1196    2.2877 H   0  0  0  0  0  0  0  0  0  0  0  0
  -10.0143   -9.0718    1.1472 H   0  0  0  0  0  0  0  0  0  0  0  0
  1  4  1  0  0  0  0
  1  2  1  0  0  0  0
  2  3  1  0  0  0  0
  4 12  1  0  0  0  0
  5 13  1  0  0  0  0
  5  4  2  0  0  0  0
  6  5  1  0  0  0  0
  7  8  2  0  0  0  0
  7  6  1  0  0  0  0
  9  7  2  0  0  0  0
 10  6  2  0  0  0  0
 10 11  1  0  0  0  0
 11  1  2  0  0  0  0
 14 10  1  0  0  0  0
 15 11  1  0  0  0  0
 16 22  1  0  0  0  0
 16 17  2  0  0  0  0
 17 23  1  0  0  0  0
 18 17  1  0  0  0  0
 18 30  1  0  0  0  0
 19 18  2  0  0  0  0
 20 21  2  0  0  0  0
 20 19  1  0  0  0  0
 21 16  1  0  0  0  0
 24 19  1  0  0  0  0
 25 20  1  0  0  0  0
 26 21  1  0  0  0  0
 26 27  1  0  0  0  0
 28 26  2  0  0  0  0
 29 26  2  0  0  0  0
 30 32  1  0  0  0  0
 30 31  1  0  0  0  0
 33 30  1  0  0  0  0
M  RAD  3   2   2   3   3  27   2
M  END
