Coordinates from ORCA-job 4-NO2PhN2+~TsO-_B3LYPG-6-31G_dp-NX-Scan-d89-09-n800
 OpenBabel11261920283D

 33 33  0  0  0  0  0  0  0  0999 V2000
   -4.2242   -2.7392    0.3333 C   0  0  0  0  0  0  0  0  0  0  0  0
   -4.8890   -3.4538    1.3775 N   0  0  0  0  0  0  0  0  0  0  0  0
   -4.9206   -3.6512    2.4857 N   0  0  0  0  0  0  0  0  0  0  0  0
   -3.2630   -1.8126    0.7701 C   0  0  0  0  0  0  0  0  0  0  0  0
   -2.5670   -1.0890   -0.1861 C   0  0  0  0  0  0  0  0  0  0  0  0
   -2.8494   -1.3188   -1.5334 C   0  0  0  0  0  0  0  0  0  0  0  0
   -2.0979   -0.5467   -2.5503 N   0  0  0  0  0  0  0  0  0  0  0  0
   -1.2723    0.2644   -2.1396 O   0  0  0  0  0  0  0  0  0  0  0  0
   -2.3503   -0.7745   -3.7287 O   0  0  0  0  0  0  0  0  0  0  0  0
   -3.8029   -2.2370   -1.9592 C   0  0  0  0  0  0  0  0  0  0  0  0
   -4.5142   -2.9685   -1.0095 C   0  0  0  0  0  0  0  0  0  0  0  0
   -3.0803   -1.6658    1.8283 H   0  0  0  0  0  0  0  0  0  0  0  0
   -1.8185   -0.3568    0.0892 H   0  0  0  0  0  0  0  0  0  0  0  0
   -3.9881   -2.3686   -3.0177 H   0  0  0  0  0  0  0  0  0  0  0  0
   -5.2827   -3.6806   -1.2796 H   0  0  0  0  0  0  0  0  0  0  0  0
   -9.3454   -4.9791    1.9310 C   0  0  0  0  0  0  0  0  0  0  0  0
  -10.3840   -5.8637    2.2142 C   0  0  0  0  0  0  0  0  0  0  0  0
  -11.0332   -6.5714    1.1922 C   0  0  0  0  0  0  0  0  0  0  0  0
  -10.6121   -6.3698   -0.1301 C   0  0  0  0  0  0  0  0  0  0  0  0
   -9.5757   -5.4878   -0.4301 C   0  0  0  0  0  0  0  0  0  0  0  0
   -8.9463   -4.7975    0.6062 C   0  0  0  0  0  0  0  0  0  0  0  0
   -8.8560   -4.4202    2.7211 H   0  0  0  0  0  0  0  0  0  0  0  0
  -10.7005   -6.0037    3.2447 H   0  0  0  0  0  0  0  0  0  0  0  0
  -11.1056   -6.9068   -0.9360 H   0  0  0  0  0  0  0  0  0  0  0  0
   -9.2607   -5.3192   -1.4540 H   0  0  0  0  0  0  0  0  0  0  0  0
   -7.5978   -3.6785    0.2330 S   0  0  0  0  0  0  0  0  0  0  0  0
   -6.3407   -4.5824    0.3716 O   0  0  0  0  0  0  0  0  0  0  0  0
   -7.5663   -2.6309    1.2764 O   0  0  0  0  0  0  0  0  0  0  0  0
   -7.7568   -3.2369   -1.1667 O   0  0  0  0  0  0  0  0  0  0  0  0
  -12.1822   -7.5004    1.5043 C   0  0  0  0  0  0  0  0  0  0  0  0
  -12.1095   -7.9008    2.5196 H   0  0  0  0  0  0  0  0  0  0  0  0
  -13.1431   -6.9757    1.4291 H   0  0  0  0  0  0  0  0  0  0  0  0
  -12.2182   -8.3436    0.8080 H   0  0  0  0  0  0  0  0  0  0  0  0
  1  4  1  0  0  0  0
  1  2  1  0  0  0  0
  2  3  2  0  0  0  0
  4 12  1  0  0  0  0
  5 13  1  0  0  0  0
  5  4  2  0  0  0  0
  6  5  1  0  0  0  0
  7  8  2  0  0  0  0
  7  6  1  0  0  0  0
  9  7  2  0  0  0  0
 10  6  2  0  0  0  0
 10 11  1  0  0  0  0
 11  1  2  0  0  0  0
 14 10  1  0  0  0  0
 15 11  1  0  0  0  0
 16 17  1  0  0  0  0
 16 22  1  0  0  0  0
 17 23  1  0  0  0  0
 18 30  1  0  0  0  0
 18 17  2  0  0  0  0
 19 18  1  0  0  0  0
 20 19  2  0  0  0  0
 20 21  1  0  0  0  0
 21 16  2  0  0  0  0
 24 19  1  0  0  0  0
 25 20  1  0  0  0  0
 26 27  2  0  0  0  0
 26 21  1  0  0  0  0
 26 28  1  0  0  0  0
 29 26  2  0  0  0  0
 30 31  1  0  0  0  0
 32 30  1  0  0  0  0
 33 30  1  0  0  0  0
M  RAD  2   3   2  28   2
M  END
