Coordinates from ORCA-job 4-NO2PhN2+~TsO-_B3LYPG-6-31G_dp-NX-Scan-d89-09-n800
 OpenBabel11261920283D

 33 33  0  0  0  0  0  0  0  0999 V2000
   -4.7970   -0.6556    0.6691 C   0  0  0  0  0  0  0  0  0  0  0  0
   -5.5016    0.3245    1.3210 N   0  0  0  0  0  0  0  0  0  0  0  0
   -6.0553    1.1235    1.8773 N   0  0  0  0  0  0  0  0  0  0  0  0
   -3.3847   -0.6396    0.8048 C   0  0  0  0  0  0  0  0  0  0  0  0
   -2.6821   -1.6274    0.1495 C   0  0  0  0  0  0  0  0  0  0  0  0
   -3.3917   -2.5891   -0.5906 C   0  0  0  0  0  0  0  0  0  0  0  0
   -2.6011   -3.6506   -1.2636 N   0  0  0  0  0  0  0  0  0  0  0  0
   -1.3796   -3.6029   -1.1240 O   0  0  0  0  0  0  0  0  0  0  0  0
   -3.2192   -4.4912   -1.9016 O   0  0  0  0  0  0  0  0  0  0  0  0
   -4.7751   -2.6011   -0.7137 C   0  0  0  0  0  0  0  0  0  0  0  0
   -5.5194   -1.5994   -0.0848 C   0  0  0  0  0  0  0  0  0  0  0  0
   -2.8874    0.1165    1.4016 H   0  0  0  0  0  0  0  0  0  0  0  0
   -1.6022   -1.6858    0.1999 H   0  0  0  0  0  0  0  0  0  0  0  0
   -5.3220   -3.3446   -1.2902 H   0  0  0  0  0  0  0  0  0  0  0  0
   -6.6234   -1.5969   -0.1536 H   0  0  0  0  0  0  0  0  0  0  0  0
   -9.8092   -4.5596    0.9057 C   0  0  0  0  0  0  0  0  0  0  0  0
  -10.2046   -5.7374    1.5371 C   0  0  0  0  0  0  0  0  0  0  0  0
   -9.8587   -6.9918    1.0144 C   0  0  0  0  0  0  0  0  0  0  0  0
   -9.1036   -7.0332   -0.1656 C   0  0  0  0  0  0  0  0  0  0  0  0
   -8.7011   -5.8619   -0.8062 C   0  0  0  0  0  0  0  0  0  0  0  0
   -9.0556   -4.6240   -0.2681 C   0  0  0  0  0  0  0  0  0  0  0  0
  -10.0735   -3.5917    1.3176 H   0  0  0  0  0  0  0  0  0  0  0  0
  -10.7906   -5.6836    2.4517 H   0  0  0  0  0  0  0  0  0  0  0  0
   -8.8268   -7.9958   -0.5888 H   0  0  0  0  0  0  0  0  0  0  0  0
   -8.1112   -5.8959   -1.7158 H   0  0  0  0  0  0  0  0  0  0  0  0
   -8.5994   -3.1118   -1.1321 S   0  0  0  0  0  0  0  0  0  0  0  0
   -8.3386   -2.1118   -0.0268 O   0  0  0  0  0  0  0  0  0  0  0  0
   -9.7385   -2.7439   -1.9955 O   0  0  0  0  0  0  0  0  0  0  0  0
   -7.3399   -3.4394   -1.8692 O   0  0  0  0  0  0  0  0  0  0  0  0
  -10.2633   -8.2642    1.7212 C   0  0  0  0  0  0  0  0  0  0  0  0
   -9.5107   -8.5651    2.4615 H   0  0  0  0  0  0  0  0  0  0  0  0
  -11.2109   -8.1419    2.2549 H   0  0  0  0  0  0  0  0  0  0  0  0
  -10.3765   -9.0943    1.0172 H   0  0  0  0  0  0  0  0  0  0  0  0
  1  4  1  0  0  0  0
  1  2  1  0  0  0  0
  2  3  1  0  0  0  0
  4 12  1  0  0  0  0
  5 13  1  0  0  0  0
  5  4  2  0  0  0  0
  6  5  1  0  0  0  0
  7  8  2  0  0  0  0
  7  6  1  0  0  0  0
  9  7  2  0  0  0  0
 10  6  2  0  0  0  0
 10 11  1  0  0  0  0
 11  1  2  0  0  0  0
 14 10  1  0  0  0  0
 15 11  1  0  0  0  0
 16 22  1  0  0  0  0
 16 17  2  0  0  0  0
 17 23  1  0  0  0  0
 18 17  1  0  0  0  0
 18 30  1  0  0  0  0
 19 18  2  0  0  0  0
 20 21  2  0  0  0  0
 20 19  1  0  0  0  0
 21 16  1  0  0  0  0
 24 19  1  0  0  0  0
 25 20  1  0  0  0  0
 26 21  1  0  0  0  0
 26 27  1  0  0  0  0
 28 26  2  0  0  0  0
 29 26  2  0  0  0  0
 30 32  1  0  0  0  0
 30 31  1  0  0  0  0
 33 30  1  0  0  0  0
M  RAD  3   2   2   3   3  27   2
M  END
