Coordinates from ORCA-job 4-NO2PhN2+~TsO-_B3LYPG-6-31G_dp-NX-Scan-d89-09-n800
 OpenBabel11261920283D

 33 33  0  0  0  0  0  0  0  0999 V2000
   -4.7768   -0.6969    0.6289 C   0  0  0  0  0  0  0  0  0  0  0  0
   -5.5919    0.1874    1.2931 N   0  0  0  0  0  0  0  0  0  0  0  0
   -6.2592    0.8925    1.8488 N   0  0  0  0  0  0  0  0  0  0  0  0
   -3.3748   -0.5083    0.7122 C   0  0  0  0  0  0  0  0  0  0  0  0
   -2.5861   -1.4164    0.0380 C   0  0  0  0  0  0  0  0  0  0  0  0
   -3.2035   -2.4625   -0.6706 C   0  0  0  0  0  0  0  0  0  0  0  0
   -2.3181   -3.4273   -1.3714 N   0  0  0  0  0  0  0  0  0  0  0  0
   -1.1066   -3.2374   -1.2766 O   0  0  0  0  0  0  0  0  0  0  0  0
   -2.8569   -4.3380   -1.9850 O   0  0  0  0  0  0  0  0  0  0  0  0
   -4.5793   -2.6390   -0.7426 C   0  0  0  0  0  0  0  0  0  0  0  0
   -5.4090   -1.7273   -0.0869 C   0  0  0  0  0  0  0  0  0  0  0  0
   -2.9481    0.3102    1.2805 H   0  0  0  0  0  0  0  0  0  0  0  0
   -1.5056   -1.3469    0.0464 H   0  0  0  0  0  0  0  0  0  0  0  0
   -5.0509   -3.4438   -1.2987 H   0  0  0  0  0  0  0  0  0  0  0  0
   -6.5104   -1.8294   -0.1063 H   0  0  0  0  0  0  0  0  0  0  0  0
   -9.8536   -4.6010    0.9783 C   0  0  0  0  0  0  0  0  0  0  0  0
  -10.3349   -5.7689    1.5665 C   0  0  0  0  0  0  0  0  0  0  0  0
  -10.0424   -7.0284    1.0235 C   0  0  0  0  0  0  0  0  0  0  0  0
   -9.2518   -7.0848   -0.1323 C   0  0  0  0  0  0  0  0  0  0  0  0
   -8.7634   -5.9235   -0.7297 C   0  0  0  0  0  0  0  0  0  0  0  0
   -9.0665   -4.6806   -0.1724 C   0  0  0  0  0  0  0  0  0  0  0  0
  -10.0766   -3.6296    1.4061 H   0  0  0  0  0  0  0  0  0  0  0  0
  -10.9470   -5.7035    2.4632 H   0  0  0  0  0  0  0  0  0  0  0  0
   -9.0151   -8.0515   -0.5705 H   0  0  0  0  0  0  0  0  0  0  0  0
   -8.1459   -5.9691   -1.6204 H   0  0  0  0  0  0  0  0  0  0  0  0
   -8.4977   -3.1772   -0.9827 S   0  0  0  0  0  0  0  0  0  0  0  0
   -8.2123   -2.2203    0.1562 O   0  0  0  0  0  0  0  0  0  0  0  0
   -9.5864   -2.7174   -1.8663 O   0  0  0  0  0  0  0  0  0  0  0  0
   -7.2356   -3.5579   -1.6886 O   0  0  0  0  0  0  0  0  0  0  0  0
  -10.5412   -8.2919    1.6848 C   0  0  0  0  0  0  0  0  0  0  0  0
   -9.8332   -8.6507    2.4432 H   0  0  0  0  0  0  0  0  0  0  0  0
  -11.4991   -8.1289    2.1884 H   0  0  0  0  0  0  0  0  0  0  0  0
  -10.6746   -9.0984    0.9573 H   0  0  0  0  0  0  0  0  0  0  0  0
  1  4  1  0  0  0  0
  1  2  1  0  0  0  0
  2  3  1  0  0  0  0
  4 12  1  0  0  0  0
  5 13  1  0  0  0  0
  5  4  2  0  0  0  0
  6  5  1  0  0  0  0
  7  8  2  0  0  0  0
  7  6  1  0  0  0  0
  9  7  2  0  0  0  0
 10  6  2  0  0  0  0
 10 11  1  0  0  0  0
 11  1  2  0  0  0  0
 14 10  1  0  0  0  0
 15 11  1  0  0  0  0
 16 22  1  0  0  0  0
 16 17  2  0  0  0  0
 17 23  1  0  0  0  0
 18 17  1  0  0  0  0
 18 30  1  0  0  0  0
 19 18  2  0  0  0  0
 20 21  2  0  0  0  0
 20 19  1  0  0  0  0
 21 16  1  0  0  0  0
 24 19  1  0  0  0  0
 25 20  1  0  0  0  0
 26 21  1  0  0  0  0
 26 27  1  0  0  0  0
 28 26  2  0  0  0  0
 29 26  2  0  0  0  0
 30 32  1  0  0  0  0
 30 31  1  0  0  0  0
 33 30  1  0  0  0  0
M  RAD  3   2   2   3   3  27   2
M  END
