Coordinates from ORCA-job 4-NO2PhN2+~TsO-_B3LYPG-6-31G_dp-NX-Scan-d89-09-n800
 OpenBabel11261920283D

 33 33  0  0  0  0  0  0  0  0999 V2000
   -4.8117   -0.6517    0.7151 C   0  0  0  0  0  0  0  0  0  0  0  0
   -5.4471    0.3674    1.3764 N   0  0  0  0  0  0  0  0  0  0  0  0
   -5.9269    1.2052    1.9460 N   0  0  0  0  0  0  0  0  0  0  0  0
   -3.4047   -0.7405    0.8841 C   0  0  0  0  0  0  0  0  0  0  0  0
   -2.7541   -1.7576    0.2209 C   0  0  0  0  0  0  0  0  0  0  0  0
   -3.5090   -2.6499   -0.5596 C   0  0  0  0  0  0  0  0  0  0  0  0
   -2.7768   -3.7494   -1.2375 N   0  0  0  0  0  0  0  0  0  0  0  0
   -1.5605   -3.7969   -1.0566 O   0  0  0  0  0  0  0  0  0  0  0  0
   -3.4330   -4.5241   -1.9189 O   0  0  0  0  0  0  0  0  0  0  0  0
   -4.8865   -2.5628   -0.7151 C   0  0  0  0  0  0  0  0  0  0  0  0
   -5.5774   -1.5260   -0.0814 C   0  0  0  0  0  0  0  0  0  0  0  0
   -2.8726   -0.0362    1.5134 H   0  0  0  0  0  0  0  0  0  0  0  0
   -1.6826   -1.8920    0.2971 H   0  0  0  0  0  0  0  0  0  0  0  0
   -5.4710   -3.2577   -1.3190 H   0  0  0  0  0  0  0  0  0  0  0  0
   -6.6750   -1.4613   -0.1855 H   0  0  0  0  0  0  0  0  0  0  0  0
   -9.7899   -4.5305    0.8445 C   0  0  0  0  0  0  0  0  0  0  0  0
  -10.1377   -5.7043    1.5101 C   0  0  0  0  0  0  0  0  0  0  0  0
   -9.7502   -6.9592    1.0181 C   0  0  0  0  0  0  0  0  0  0  0  0
   -9.0023   -7.0047   -0.1661 C   0  0  0  0  0  0  0  0  0  0  0  0
   -8.6471   -5.8371   -0.8410 C   0  0  0  0  0  0  0  0  0  0  0  0
   -9.0424   -4.5990   -0.3331 C   0  0  0  0  0  0  0  0  0  0  0  0
  -10.0864   -3.5621    1.2329 H   0  0  0  0  0  0  0  0  0  0  0  0
  -10.7192   -5.6472    2.4274 H   0  0  0  0  0  0  0  0  0  0  0  0
   -8.6938   -7.9677   -0.5660 H   0  0  0  0  0  0  0  0  0  0  0  0
   -8.0629   -5.8742   -1.7541 H   0  0  0  0  0  0  0  0  0  0  0  0
   -8.6465   -3.0939   -1.2390 S   0  0  0  0  0  0  0  0  0  0  0  0
   -8.3994   -2.0624   -0.1604 O   0  0  0  0  0  0  0  0  0  0  0  0
   -9.8106   -2.7834   -2.0923 O   0  0  0  0  0  0  0  0  0  0  0  0
   -7.3908   -3.4018   -1.9909 O   0  0  0  0  0  0  0  0  0  0  0  0
  -10.1044   -8.2257    1.7614 C   0  0  0  0  0  0  0  0  0  0  0  0
   -9.3454   -8.4707    2.5157 H   0  0  0  0  0  0  0  0  0  0  0  0
  -11.0606   -8.1287    2.2850 H   0  0  0  0  0  0  0  0  0  0  0  0
  -10.1760   -9.0811    1.0828 H   0  0  0  0  0  0  0  0  0  0  0  0
  1  4  1  0  0  0  0
  1  2  1  0  0  0  0
  2  3  1  0  0  0  0
  4 12  1  0  0  0  0
  5 13  1  0  0  0  0
  5  4  2  0  0  0  0
  6  5  1  0  0  0  0
  7  8  2  0  0  0  0
  7  6  1  0  0  0  0
  9  7  2  0  0  0  0
 10  6  2  0  0  0  0
 10 11  1  0  0  0  0
 11  1  2  0  0  0  0
 14 10  1  0  0  0  0
 15 11  1  0  0  0  0
 16 22  1  0  0  0  0
 16 17  2  0  0  0  0
 17 23  1  0  0  0  0
 18 17  1  0  0  0  0
 18 30  1  0  0  0  0
 19 18  2  0  0  0  0
 20 21  2  0  0  0  0
 20 19  1  0  0  0  0
 21 16  1  0  0  0  0
 24 19  1  0  0  0  0
 25 20  1  0  0  0  0
 26 21  1  0  0  0  0
 26 27  1  0  0  0  0
 28 26  2  0  0  0  0
 29 26  2  0  0  0  0
 30 32  1  0  0  0  0
 30 31  1  0  0  0  0
 33 30  1  0  0  0  0
M  RAD  3   2   2   3   3  27   2
M  END
