Coordinates from ORCA-job 4-NO2PhN2+~TsO-_B3LYPG-6-31G_dp-NX-Scan-d89-09-n800
 OpenBabel11261920283D

 33 33  0  0  0  0  0  0  0  0999 V2000
   -4.6247   -2.4792    0.4511 C   0  0  0  0  0  0  0  0  0  0  0  0
   -5.5250   -3.1128    1.3541 N   0  0  0  0  0  0  0  0  0  0  0  0
   -5.7590   -3.4743    2.3936 N   0  0  0  0  0  0  0  0  0  0  0  0
   -3.9079   -1.3945    0.9751 C   0  0  0  0  0  0  0  0  0  0  0  0
   -2.9760   -0.7784    0.1500 C   0  0  0  0  0  0  0  0  0  0  0  0
   -2.7908   -1.2799   -1.1377 C   0  0  0  0  0  0  0  0  0  0  0  0
   -1.7845   -0.6245   -2.0058 N   0  0  0  0  0  0  0  0  0  0  0  0
   -1.1812    0.3367   -1.5365 O   0  0  0  0  0  0  0  0  0  0  0  0
   -1.6233   -1.0910   -3.1283 O   0  0  0  0  0  0  0  0  0  0  0  0
   -3.5068   -2.3633   -1.6416 C   0  0  0  0  0  0  0  0  0  0  0  0
   -4.4643   -2.9795   -0.8402 C   0  0  0  0  0  0  0  0  0  0  0  0
   -4.0843   -1.0451    1.9856 H   0  0  0  0  0  0  0  0  0  0  0  0
   -2.3958    0.0717    0.4855 H   0  0  0  0  0  0  0  0  0  0  0  0
   -3.3243   -2.7033   -2.6527 H   0  0  0  0  0  0  0  0  0  0  0  0
   -5.0824   -3.8082   -1.1914 H   0  0  0  0  0  0  0  0  0  0  0  0
   -9.7213   -4.4045    0.9471 C   0  0  0  0  0  0  0  0  0  0  0  0
  -10.6391   -5.1736    1.6615 C   0  0  0  0  0  0  0  0  0  0  0  0
  -10.7767   -6.5478    1.4218 C   0  0  0  0  0  0  0  0  0  0  0  0
   -9.9561   -7.1378    0.4496 C   0  0  0  0  0  0  0  0  0  0  0  0
   -9.0330   -6.3822   -0.2707 C   0  0  0  0  0  0  0  0  0  0  0  0
   -8.9186   -5.0139   -0.0184 C   0  0  0  0  0  0  0  0  0  0  0  0
   -9.6139   -3.3431    1.1431 H   0  0  0  0  0  0  0  0  0  0  0  0
  -11.2586   -4.6989    2.4186 H   0  0  0  0  0  0  0  0  0  0  0  0
  -10.0405   -8.2044    0.2548 H   0  0  0  0  0  0  0  0  0  0  0  0
   -8.3907   -6.8432   -1.0133 H   0  0  0  0  0  0  0  0  0  0  0  0
   -7.7816   -4.0295   -1.0004 S   0  0  0  0  0  0  0  0  0  0  0  0
   -7.2655   -2.9565   -0.0209 O   0  0  0  0  0  0  0  0  0  0  0  0
   -8.5450   -3.4248   -2.1095 O   0  0  0  0  0  0  0  0  0  0  0  0
   -6.6765   -4.9503   -1.3858 O   0  0  0  0  0  0  0  0  0  0  0  0
  -11.7969   -7.3698    2.1744 C   0  0  0  0  0  0  0  0  0  0  0  0
  -12.0798   -6.8930    3.1169 H   0  0  0  0  0  0  0  0  0  0  0  0
  -12.7129   -7.4970    1.5841 H   0  0  0  0  0  0  0  0  0  0  0  0
  -11.4177   -8.3710    2.4009 H   0  0  0  0  0  0  0  0  0  0  0  0
  1  4  1  0  0  0  0
  1  2  1  0  0  0  0
  2  3  2  0  0  0  0
  4 12  1  0  0  0  0
  5 13  1  0  0  0  0
  5  4  2  0  0  0  0
  6  5  1  0  0  0  0
  7  8  2  0  0  0  0
  7  6  1  0  0  0  0
  9  7  2  0  0  0  0
 10  6  2  0  0  0  0
 10 11  1  0  0  0  0
 11  1  2  0  0  0  0
 14 10  1  0  0  0  0
 15 11  1  0  0  0  0
 16 22  1  0  0  0  0
 16 17  2  0  0  0  0
 17 23  1  0  0  0  0
 18 17  1  0  0  0  0
 18 30  1  0  0  0  0
 19 18  2  0  0  0  0
 20 21  2  0  0  0  0
 20 19  1  0  0  0  0
 21 16  1  0  0  0  0
 24 19  1  0  0  0  0
 25 20  1  0  0  0  0
 26 27  1  0  0  0  0
 26 21  1  0  0  0  0
 28 26  2  0  0  0  0
 29 26  2  0  0  0  0
 30 33  1  0  0  0  0
 30 31  1  0  0  0  0
 32 30  1  0  0  0  0
M  RAD  2   3   2  27   2
M  END
