Coordinates from ORCA-job 4-NO2PhN2+~TsO-_B3LYPG-6-31G_dp-NX-Scan-d89-09-n800
 OpenBabel11261920283D

 33 33  0  0  0  0  0  0  0  0999 V2000
   -4.4674   -3.3596   -0.0641 C   0  0  0  0  0  0  0  0  0  0  0  0
   -5.0888   -4.5671    0.3878 N   0  0  0  0  0  0  0  0  0  0  0  0
   -5.1066   -5.3293    1.2222 N   0  0  0  0  0  0  0  0  0  0  0  0
   -3.8914   -2.5642    0.9358 C   0  0  0  0  0  0  0  0  0  0  0  0
   -3.2375   -1.4014    0.5520 C   0  0  0  0  0  0  0  0  0  0  0  0
   -3.1715   -1.0904   -0.8059 C   0  0  0  0  0  0  0  0  0  0  0  0
   -2.4640    0.1465   -1.2093 N   0  0  0  0  0  0  0  0  0  0  0  0
   -1.9822    0.8339   -0.3127 O   0  0  0  0  0  0  0  0  0  0  0  0
   -2.4054    0.3945   -2.4092 O   0  0  0  0  0  0  0  0  0  0  0  0
   -3.7385   -1.8901   -1.7939 C   0  0  0  0  0  0  0  0  0  0  0  0
   -4.4138   -3.0488   -1.4204 C   0  0  0  0  0  0  0  0  0  0  0  0
   -3.9655   -2.8489    1.9790 H   0  0  0  0  0  0  0  0  0  0  0  0
   -2.7817   -0.7402    1.2776 H   0  0  0  0  0  0  0  0  0  0  0  0
   -3.6611   -1.5961   -2.8327 H   0  0  0  0  0  0  0  0  0  0  0  0
   -4.8926   -3.7027   -2.1356 H   0  0  0  0  0  0  0  0  0  0  0  0
   -9.2255   -4.2515    0.9817 C   0  0  0  0  0  0  0  0  0  0  0  0
  -10.1299   -4.8514    1.8601 C   0  0  0  0  0  0  0  0  0  0  0  0
  -10.6466   -6.1276    1.6077 C   0  0  0  0  0  0  0  0  0  0  0  0
  -10.2319   -6.7968    0.4447 C   0  0  0  0  0  0  0  0  0  0  0  0
   -9.3330   -6.2113   -0.4414 C   0  0  0  0  0  0  0  0  0  0  0  0
   -8.8285   -4.9374   -0.1644 C   0  0  0  0  0  0  0  0  0  0  0  0
   -8.8362   -3.2567    1.1674 H   0  0  0  0  0  0  0  0  0  0  0  0
  -10.4427   -4.3154    2.7527 H   0  0  0  0  0  0  0  0  0  0  0  0
  -10.6241   -7.7875    0.2300 H   0  0  0  0  0  0  0  0  0  0  0  0
   -9.0291   -6.7286   -1.3453 H   0  0  0  0  0  0  0  0  0  0  0  0
   -7.6657   -4.1819   -1.3034 S   0  0  0  0  0  0  0  0  0  0  0  0
   -6.3743   -5.0427   -1.1542 O   0  0  0  0  0  0  0  0  0  0  0  0
   -7.4157   -2.8070   -0.8217 O   0  0  0  0  0  0  0  0  0  0  0  0
   -8.1949   -4.3617   -2.6617 O   0  0  0  0  0  0  0  0  0  0  0  0
  -11.6496   -6.7611    2.5420 C   0  0  0  0  0  0  0  0  0  0  0  0
  -11.6297   -6.2933    3.5300 H   0  0  0  0  0  0  0  0  0  0  0  0
  -12.6700   -6.6595    2.1511 H   0  0  0  0  0  0  0  0  0  0  0  0
  -11.4588   -7.8317    2.6686 H   0  0  0  0  0  0  0  0  0  0  0  0
  1  2  1  0  0  0  0
  1  4  2  0  0  0  0
  2  3  2  0  0  0  0
  4 12  1  0  0  0  0
  5  4  1  0  0  0  0
  5 13  1  0  0  0  0
  6  5  2  0  0  0  0
  7  6  1  0  0  0  0
  7  8  2  0  0  0  0
  9  7  2  0  0  0  0
 10 11  2  0  0  0  0
 10  6  1  0  0  0  0
 11  1  1  0  0  0  0
 14 10  1  0  0  0  0
 15 11  1  0  0  0  0
 16 22  1  0  0  0  0
 16 17  2  0  0  0  0
 17 23  1  0  0  0  0
 18 17  1  0  0  0  0
 18 30  1  0  0  0  0
 19 18  2  0  0  0  0
 20 21  2  0  0  0  0
 20 19  1  0  0  0  0
 21 16  1  0  0  0  0
 24 19  1  0  0  0  0
 25 20  1  0  0  0  0
 26 27  2  0  0  0  0
 26 28  1  0  0  0  0
 26 21  1  0  0  0  0
 29 26  2  0  0  0  0
 30 33  1  0  0  0  0
 30 31  1  0  0  0  0
 32 30  1  0  0  0  0
M  RAD  2   3   2  28   2
M  END
