Coordinates from ORCA-job 4-NO2PhN2+~TsO-_B3LYPG-6-31G_dp-NX-Scan-d89-09-n800
 OpenBabel11261920283D

 33 33  0  0  0  0  0  0  0  0999 V2000
   -4.6401   -0.8458    1.0326 C   0  0  0  0  0  0  0  0  0  0  0  0
   -5.2572   -0.1912    2.0707 N   0  0  0  0  0  0  0  0  0  0  0  0
   -5.6920    0.3573    2.9456 N   0  0  0  0  0  0  0  0  0  0  0  0
   -3.2374   -0.6502    0.9273 C   0  0  0  0  0  0  0  0  0  0  0  0
   -2.5854   -1.3017   -0.0967 C   0  0  0  0  0  0  0  0  0  0  0  0
   -3.3303   -2.1233   -0.9580 C   0  0  0  0  0  0  0  0  0  0  0  0
   -2.5856   -2.8206   -2.0409 N   0  0  0  0  0  0  0  0  0  0  0  0
   -1.3701   -2.6308   -2.0827 O   0  0  0  0  0  0  0  0  0  0  0  0
   -3.2318   -3.5231   -2.8025 O   0  0  0  0  0  0  0  0  0  0  0  0
   -4.7016   -2.3182   -0.8489 C   0  0  0  0  0  0  0  0  0  0  0  0
   -5.4015   -1.6543    0.1648 C   0  0  0  0  0  0  0  0  0  0  0  0
   -2.7087   -0.0149    1.6288 H   0  0  0  0  0  0  0  0  0  0  0  0
   -1.5180   -1.2009   -0.2463 H   0  0  0  0  0  0  0  0  0  0  0  0
   -5.2771   -2.9853   -1.5012 H   0  0  0  0  0  0  0  0  0  0  0  0
   -6.4967   -1.8081    0.2237 H   0  0  0  0  0  0  0  0  0  0  0  0
  -10.0526   -4.6472    0.5257 C   0  0  0  0  0  0  0  0  0  0  0  0
  -10.6501   -5.6842    1.2380 C   0  0  0  0  0  0  0  0  0  0  0  0
  -10.1662   -6.9982    1.1487 C   0  0  0  0  0  0  0  0  0  0  0  0
   -9.0614   -7.2439    0.3203 C   0  0  0  0  0  0  0  0  0  0  0  0
   -8.4549   -6.2142   -0.3971 C   0  0  0  0  0  0  0  0  0  0  0  0
   -8.9524   -4.9134   -0.2947 C   0  0  0  0  0  0  0  0  0  0  0  0
  -10.4286   -3.6323    0.6026 H   0  0  0  0  0  0  0  0  0  0  0  0
  -11.5090   -5.4747    1.8714 H   0  0  0  0  0  0  0  0  0  0  0  0
   -8.6737   -8.2566    0.2344 H   0  0  0  0  0  0  0  0  0  0  0  0
   -7.5991   -6.4000   -1.0368 H   0  0  0  0  0  0  0  0  0  0  0  0
   -8.2261   -3.5855   -1.2706 S   0  0  0  0  0  0  0  0  0  0  0  0
   -8.1324   -2.4307   -0.2971 O   0  0  0  0  0  0  0  0  0  0  0  0
   -9.1492   -3.3372   -2.3966 O   0  0  0  0  0  0  0  0  0  0  0  0
   -6.8725   -4.0884   -1.6603 O   0  0  0  0  0  0  0  0  0  0  0  0
  -10.8008   -8.1155    1.9426 C   0  0  0  0  0  0  0  0  0  0  0  0
  -10.2503   -8.3060    2.8726 H   0  0  0  0  0  0  0  0  0  0  0  0
  -11.8316   -7.8755    2.2184 H   0  0  0  0  0  0  0  0  0  0  0  0
  -10.8103   -9.0528    1.3770 H   0  0  0  0  0  0  0  0  0  0  0  0
  1  2  1  0  0  0  0
  2  3  1  0  0  0  0
  4  1  1  0  0  0  0
  4 12  1  0  0  0  0
  5  4  2  0  0  0  0
  6 10  2  0  0  0  0
  6  5  1  0  0  0  0
  7  6  1  0  0  0  0
  8  7  2  0  0  0  0
  9  7  2  0  0  0  0
 10 11  1  0  0  0  0
 11 15  1  0  0  0  0
 11  1  2  0  0  0  0
 13  5  1  0  0  0  0
 14 10  1  0  0  0  0
 16 22  1  0  0  0  0
 16 17  2  0  0  0  0
 17 23  1  0  0  0  0
 18 17  1  0  0  0  0
 18 30  1  0  0  0  0
 19 18  2  0  0  0  0
 20 21  2  0  0  0  0
 20 19  1  0  0  0  0
 21 16  1  0  0  0  0
 24 19  1  0  0  0  0
 25 20  1  0  0  0  0
 26 27  1  0  0  0  0
 26 21  1  0  0  0  0
 28 26  2  0  0  0  0
 29 26  2  0  0  0  0
 30 32  1  0  0  0  0
 30 31  1  0  0  0  0
 33 30  1  0  0  0  0
M  RAD  3   2   2   3   3  27   2
M  END
