Coordinates from ORCA-job 4-NO2PhN2+~TsO-_B3LYPG-6-31G_dp-NX-Scan-d89-09-n800
 OpenBabel11261920283D

 33 33  0  0  0  0  0  0  0  0999 V2000
   -4.7413   -2.5764    0.3025 C   0  0  0  0  0  0  0  0  0  0  0  0
   -5.7233   -3.2677    1.0756 N   0  0  0  0  0  0  0  0  0  0  0  0
   -5.9942   -3.7463    2.0589 N   0  0  0  0  0  0  0  0  0  0  0  0
   -4.0282   -1.5770    0.9753 C   0  0  0  0  0  0  0  0  0  0  0  0
   -3.0305   -0.9106    0.2736 C   0  0  0  0  0  0  0  0  0  0  0  0
   -2.7814   -1.2816   -1.0465 C   0  0  0  0  0  0  0  0  0  0  0  0
   -1.7075   -0.5749   -1.7821 N   0  0  0  0  0  0  0  0  0  0  0  0
   -1.1061    0.3115   -1.1813 O   0  0  0  0  0  0  0  0  0  0  0  0
   -1.4926   -0.9274   -2.9371 O   0  0  0  0  0  0  0  0  0  0  0  0
   -3.4949   -2.2844   -1.7005 C   0  0  0  0  0  0  0  0  0  0  0  0
   -4.5146   -2.9464   -1.0222 C   0  0  0  0  0  0  0  0  0  0  0  0
   -4.2560   -1.3265    2.0046 H   0  0  0  0  0  0  0  0  0  0  0  0
   -2.4480   -0.1203    0.7295 H   0  0  0  0  0  0  0  0  0  0  0  0
   -3.2579   -2.5279   -2.7280 H   0  0  0  0  0  0  0  0  0  0  0  0
   -5.1223   -3.7257   -1.4801 H   0  0  0  0  0  0  0  0  0  0  0  0
   -9.7505   -4.3413    0.8331 C   0  0  0  0  0  0  0  0  0  0  0  0
  -10.6155   -5.0901    1.6290 C   0  0  0  0  0  0  0  0  0  0  0  0
  -10.6846   -6.4858    1.5121 C   0  0  0  0  0  0  0  0  0  0  0  0
   -9.8500   -7.1166    0.5785 C   0  0  0  0  0  0  0  0  0  0  0  0
   -8.9785   -6.3814   -0.2234 C   0  0  0  0  0  0  0  0  0  0  0  0
   -8.9316   -4.9925   -0.0923 C   0  0  0  0  0  0  0  0  0  0  0  0
   -9.6976   -3.2622    0.9336 H   0  0  0  0  0  0  0  0  0  0  0  0
  -11.2473   -4.5829    2.3541 H   0  0  0  0  0  0  0  0  0  0  0  0
   -9.8815   -8.1992    0.4792 H   0  0  0  0  0  0  0  0  0  0  0  0
   -8.3256   -6.8721   -0.9370 H   0  0  0  0  0  0  0  0  0  0  0  0
   -7.8597   -4.0395   -1.1717 S   0  0  0  0  0  0  0  0  0  0  0  0
   -7.3343   -2.8993   -0.2682 O   0  0  0  0  0  0  0  0  0  0  0  0
   -8.6728   -3.4886   -2.2677 O   0  0  0  0  0  0  0  0  0  0  0  0
   -6.7459   -4.9492   -1.5473 O   0  0  0  0  0  0  0  0  0  0  0  0
  -11.6503   -7.2875    2.3529 C   0  0  0  0  0  0  0  0  0  0  0  0
  -11.8825   -6.7790    3.2930 H   0  0  0  0  0  0  0  0  0  0  0  0
  -12.5984   -7.4413    1.8227 H   0  0  0  0  0  0  0  0  0  0  0  0
  -11.2494   -8.2770    2.5917 H   0  0  0  0  0  0  0  0  0  0  0  0
  1  4  1  0  0  0  0
  1  2  1  0  0  0  0
  2  3  2  0  0  0  0
  4 12  1  0  0  0  0
  5 13  1  0  0  0  0
  5  4  2  0  0  0  0
  6  5  1  0  0  0  0
  7  8  2  0  0  0  0
  7  6  1  0  0  0  0
  9  7  2  0  0  0  0
 10  6  2  0  0  0  0
 10 11  1  0  0  0  0
 11  1  2  0  0  0  0
 14 10  1  0  0  0  0
 15 11  1  0  0  0  0
 16 22  1  0  0  0  0
 16 17  2  0  0  0  0
 17 23  1  0  0  0  0
 18 17  1  0  0  0  0
 18 30  1  0  0  0  0
 19 18  2  0  0  0  0
 20 21  2  0  0  0  0
 20 19  1  0  0  0  0
 21 16  1  0  0  0  0
 24 19  1  0  0  0  0
 25 20  1  0  0  0  0
 26 27  1  0  0  0  0
 26 21  1  0  0  0  0
 28 26  2  0  0  0  0
 29 26  2  0  0  0  0
 30 33  1  0  0  0  0
 30 31  1  0  0  0  0
 32 30  1  0  0  0  0
M  RAD  2   3   2  27   2
M  END
