Coordinates from ORCA-job 4-NO2PhN2+~TsO-_B3LYPG-6-31G_dp-NX-Scan-d89-09-n800
 OpenBabel11261920283D

 33 33  0  0  0  0  0  0  0  0999 V2000
   -5.7101   -2.3138    0.0274 C   0  0  0  0  0  0  0  0  0  0  0  0
   -7.1016   -2.3668    0.3535 N   0  0  0  0  0  0  0  0  0  0  0  0
   -7.8604   -2.3394    1.1907 N   0  0  0  0  0  0  0  0  0  0  0  0
   -4.8722   -1.8118    1.0343 C   0  0  0  0  0  0  0  0  0  0  0  0
   -3.5071   -1.7576    0.7883 C   0  0  0  0  0  0  0  0  0  0  0  0
   -3.0334   -2.2176   -0.4402 C   0  0  0  0  0  0  0  0  0  0  0  0
   -1.5756   -2.1611   -0.6970 N   0  0  0  0  0  0  0  0  0  0  0  0
   -0.8667   -1.7063    0.1969 O   0  0  0  0  0  0  0  0  0  0  0  0
   -1.1800   -2.5733   -1.7823 O   0  0  0  0  0  0  0  0  0  0  0  0
   -3.8692   -2.7264   -1.4300 C   0  0  0  0  0  0  0  0  0  0  0  0
   -5.2442   -2.7737   -1.2044 C   0  0  0  0  0  0  0  0  0  0  0  0
   -5.2875   -1.4692    1.9749 H   0  0  0  0  0  0  0  0  0  0  0  0
   -2.8120   -1.3709    1.5222 H   0  0  0  0  0  0  0  0  0  0  0  0
   -3.4457   -3.0728   -2.3640 H   0  0  0  0  0  0  0  0  0  0  0  0
   -5.9316   -3.1555   -1.9523 H   0  0  0  0  0  0  0  0  0  0  0  0
  -10.1158   -4.2749    0.2382 C   0  0  0  0  0  0  0  0  0  0  0  0
  -10.3792   -5.0930    1.3357 C   0  0  0  0  0  0  0  0  0  0  0  0
   -9.5822   -6.2132    1.6145 C   0  0  0  0  0  0  0  0  0  0  0  0
   -8.5067   -6.4946    0.7597 C   0  0  0  0  0  0  0  0  0  0  0  0
   -8.2287   -5.6835   -0.3405 C   0  0  0  0  0  0  0  0  0  0  0  0
   -9.0323   -4.5707   -0.5943 C   0  0  0  0  0  0  0  0  0  0  0  0
  -10.7496   -3.4240    0.0123 H   0  0  0  0  0  0  0  0  0  0  0  0
  -11.2221   -4.8642    1.9829 H   0  0  0  0  0  0  0  0  0  0  0  0
   -7.8855   -7.3658    0.9517 H   0  0  0  0  0  0  0  0  0  0  0  0
   -7.4129   -5.9148   -1.0174 H   0  0  0  0  0  0  0  0  0  0  0  0
   -8.6831   -3.5041   -1.9989 S   0  0  0  0  0  0  0  0  0  0  0  0
   -7.9573   -2.2510   -1.4199 O   0  0  0  0  0  0  0  0  0  0  0  0
   -9.9811   -3.0612   -2.5081 O   0  0  0  0  0  0  0  0  0  0  0  0
   -7.7529   -4.2550   -2.8667 O   0  0  0  0  0  0  0  0  0  0  0  0
   -9.8999   -7.1145    2.7839 C   0  0  0  0  0  0  0  0  0  0  0  0
  -10.3236   -6.5511    3.6208 H   0  0  0  0  0  0  0  0  0  0  0  0
  -10.6358   -7.8775    2.5015 H   0  0  0  0  0  0  0  0  0  0  0  0
   -9.0084   -7.6378    3.1412 H   0  0  0  0  0  0  0  0  0  0  0  0
  1  2  1  0  0  0  0
  1  4  2  0  0  0  0
  2  3  2  0  0  0  0
  4 12  1  0  0  0  0
  5  4  1  0  0  0  0
  5 13  1  0  0  0  0
  6  5  2  0  0  0  0
  7  6  1  0  0  0  0
  7  8  2  0  0  0  0
  9  7  2  0  0  0  0
 10 11  2  0  0  0  0
 10  6  1  0  0  0  0
 11  1  1  0  0  0  0
 14 10  1  0  0  0  0
 15 11  1  0  0  0  0
 16 17  2  0  0  0  0
 17 18  1  0  0  0  0
 17 23  1  0  0  0  0
 18 30  1  0  0  0  0
 19 24  1  0  0  0  0
 19 18  2  0  0  0  0
 20 19  1  0  0  0  0
 21 20  2  0  0  0  0
 21 16  1  0  0  0  0
 22 16  1  0  0  0  0
 25 20  1  0  0  0  0
 26 27  1  0  0  0  0
 26 21  1  0  0  0  0
 28 26  2  0  0  0  0
 29 26  2  0  0  0  0
 30 33  1  0  0  0  0
 30 31  1  0  0  0  0
 32 30  1  0  0  0  0
M  RAD  2   3   2  27   2
M  END
