Coordinates from ORCA-job 4-NO2PhN2+~TsO-_B3LYPG-6-31G_dp-NX-Scan-d89-09-n800
 OpenBabel11261920283D

 33 33  0  0  0  0  0  0  0  0999 V2000
   -4.7663   -2.6039    0.2552 C   0  0  0  0  0  0  0  0  0  0  0  0
   -5.7644   -3.3146    0.9914 N   0  0  0  0  0  0  0  0  0  0  0  0
   -6.0365   -3.8332    1.9546 N   0  0  0  0  0  0  0  0  0  0  0  0
   -4.0407   -1.6487    0.9765 C   0  0  0  0  0  0  0  0  0  0  0  0
   -3.0287   -0.9660    0.3117 C   0  0  0  0  0  0  0  0  0  0  0  0
   -2.7781   -1.2788   -1.0230 C   0  0  0  0  0  0  0  0  0  0  0  0
   -1.6899   -0.5556   -1.7200 N   0  0  0  0  0  0  0  0  0  0  0  0
   -1.0790    0.2935   -1.0761 O   0  0  0  0  0  0  0  0  0  0  0  0
   -1.4735   -0.8577   -2.8889 O   0  0  0  0  0  0  0  0  0  0  0  0
   -3.5035   -2.2390   -1.7261 C   0  0  0  0  0  0  0  0  0  0  0  0
   -4.5373   -2.9151   -1.0842 C   0  0  0  0  0  0  0  0  0  0  0  0
   -4.2701   -1.4430    2.0154 H   0  0  0  0  0  0  0  0  0  0  0  0
   -2.4363   -0.2075    0.8070 H   0  0  0  0  0  0  0  0  0  0  0  0
   -3.2640   -2.4391   -2.7625 H   0  0  0  0  0  0  0  0  0  0  0  0
   -5.1512   -3.6650   -1.5794 H   0  0  0  0  0  0  0  0  0  0  0  0
   -9.7906   -4.3256    0.7775 C   0  0  0  0  0  0  0  0  0  0  0  0
  -10.6427   -5.0665    1.5932 C   0  0  0  0  0  0  0  0  0  0  0  0
  -10.6649   -6.4683    1.5369 C   0  0  0  0  0  0  0  0  0  0  0  0
   -9.7972   -7.1113    0.6437 C   0  0  0  0  0  0  0  0  0  0  0  0
   -8.9374   -6.3835   -0.1784 C   0  0  0  0  0  0  0  0  0  0  0  0
   -8.9370   -4.9900   -0.1074 C   0  0  0  0  0  0  0  0  0  0  0  0
   -9.7742   -3.2418    0.8314 H   0  0  0  0  0  0  0  0  0  0  0  0
  -11.3014   -4.5491    2.2863 H   0  0  0  0  0  0  0  0  0  0  0  0
   -9.7926   -8.1977    0.5920 H   0  0  0  0  0  0  0  0  0  0  0  0
   -8.2593   -6.8825   -0.8620 H   0  0  0  0  0  0  0  0  0  0  0  0
   -7.8793   -4.0484   -1.2099 S   0  0  0  0  0  0  0  0  0  0  0  0
   -7.3528   -2.8903   -0.3274 O   0  0  0  0  0  0  0  0  0  0  0  0
   -8.7037   -3.5132   -2.3041 O   0  0  0  0  0  0  0  0  0  0  0  0
   -6.7614   -4.9546   -1.5787 O   0  0  0  0  0  0  0  0  0  0  0  0
  -11.6176   -7.2613    2.4004 C   0  0  0  0  0  0  0  0  0  0  0  0
  -11.7979   -6.7663    3.3593 H   0  0  0  0  0  0  0  0  0  0  0  0
  -12.5906   -7.3775    1.9070 H   0  0  0  0  0  0  0  0  0  0  0  0
  -11.2344   -8.2655    2.6031 H   0  0  0  0  0  0  0  0  0  0  0  0
  1  4  2  0  0  0  0
  1  2  1  0  0  0  0
  2  3  2  0  0  0  0
  4 12  1  0  0  0  0
  5 13  1  0  0  0  0
  5  4  1  0  0  0  0
  6  5  2  0  0  0  0
  7  8  2  0  0  0  0
  7  6  1  0  0  0  0
  9  7  2  0  0  0  0
 10 11  2  0  0  0  0
 10  6  1  0  0  0  0
 11  1  1  0  0  0  0
 14 10  1  0  0  0  0
 15 11  1  0  0  0  0
 16 22  1  0  0  0  0
 16 17  2  0  0  0  0
 17 23  1  0  0  0  0
 18 17  1  0  0  0  0
 18 30  1  0  0  0  0
 19 18  2  0  0  0  0
 20 21  2  0  0  0  0
 20 19  1  0  0  0  0
 21 16  1  0  0  0  0
 24 19  1  0  0  0  0
 25 20  1  0  0  0  0
 26 27  1  0  0  0  0
 26 21  1  0  0  0  0
 28 26  2  0  0  0  0
 29 26  2  0  0  0  0
 30 33  1  0  0  0  0
 30 31  1  0  0  0  0
 32 30  1  0  0  0  0
M  RAD  2   3   2  27   2
M  END
