Coordinates from ORCA-job 4-NO2PhN2+~TsO-_B3LYPG-6-31G_dp-NX-Scan-d89-09-n800
 OpenBabel11261920283D

 33 33  0  0  0  0  0  0  0  0999 V2000
   -4.6179   -1.5222    0.3540 C   0  0  0  0  0  0  0  0  0  0  0  0
   -5.6044   -1.2181    1.2831 N   0  0  0  0  0  0  0  0  0  0  0  0
   -6.4478   -0.9821    1.9860 N   0  0  0  0  0  0  0  0  0  0  0  0
   -3.2924   -1.2324    0.7185 C   0  0  0  0  0  0  0  0  0  0  0  0
   -2.2888   -1.5131   -0.1959 C   0  0  0  0  0  0  0  0  0  0  0  0
   -2.6486   -2.0510   -1.4326 C   0  0  0  0  0  0  0  0  0  0  0  0
   -1.5704   -2.3402   -2.4084 N   0  0  0  0  0  0  0  0  0  0  0  0
   -0.4195   -2.0904   -2.0604 O   0  0  0  0  0  0  0  0  0  0  0  0
   -1.9041   -2.8057   -3.4926 O   0  0  0  0  0  0  0  0  0  0  0  0
   -3.9655   -2.3253   -1.7921 C   0  0  0  0  0  0  0  0  0  0  0  0
   -4.9894   -2.0710   -0.8837 C   0  0  0  0  0  0  0  0  0  0  0  0
   -3.0677   -0.8090    1.6904 H   0  0  0  0  0  0  0  0  0  0  0  0
   -1.2468   -1.3209    0.0243 H   0  0  0  0  0  0  0  0  0  0  0  0
   -4.1789   -2.7457   -2.7663 H   0  0  0  0  0  0  0  0  0  0  0  0
   -6.0351   -2.2882   -1.1036 H   0  0  0  0  0  0  0  0  0  0  0  0
   -8.6666   -5.7868    1.5403 C   0  0  0  0  0  0  0  0  0  0  0  0
   -9.5675   -6.8452    1.6629 C   0  0  0  0  0  0  0  0  0  0  0  0
  -10.7952   -6.8339    0.9884 C   0  0  0  0  0  0  0  0  0  0  0  0
  -11.0980   -5.7323    0.1727 C   0  0  0  0  0  0  0  0  0  0  0  0
  -10.2081   -4.6700    0.0378 C   0  0  0  0  0  0  0  0  0  0  0  0
   -8.9932   -4.7026    0.7269 C   0  0  0  0  0  0  0  0  0  0  0  0
   -7.7099   -5.8017    2.0502 H   0  0  0  0  0  0  0  0  0  0  0  0
   -9.3102   -7.6962    2.2889 H   0  0  0  0  0  0  0  0  0  0  0  0
  -12.0416   -5.7108   -0.3670 H   0  0  0  0  0  0  0  0  0  0  0  0
  -10.4359   -3.8275   -0.6065 H   0  0  0  0  0  0  0  0  0  0  0  0
   -7.8621   -3.3221    0.5941 S   0  0  0  0  0  0  0  0  0  0  0  0
   -6.4896   -3.8423    0.8693 O   0  0  0  0  0  0  0  0  0  0  0  0
   -8.2829   -2.3323    1.6582 O   0  0  0  0  0  0  0  0  0  0  0  0
   -8.0142   -2.7706   -0.7823 O   0  0  0  0  0  0  0  0  0  0  0  0
  -11.7776   -7.9720    1.1356 C   0  0  0  0  0  0  0  0  0  0  0  0
  -11.3277   -8.8263    1.6486 H   0  0  0  0  0  0  0  0  0  0  0  0
  -12.6566   -7.6634    1.7144 H   0  0  0  0  0  0  0  0  0  0  0  0
  -12.1400   -8.3158    0.1611 H   0  0  0  0  0  0  0  0  0  0  0  0
  1  4  1  0  0  0  0
  1  2  1  0  0  0  0
  2  3  1  0  0  0  0
  4 12  1  0  0  0  0
  5 13  1  0  0  0  0
  5  4  2  0  0  0  0
  6  5  1  0  0  0  0
  7  8  2  0  0  0  0
  7  6  1  0  0  0  0
  9  7  2  0  0  0  0
 10  6  2  0  0  0  0
 10 11  1  0  0  0  0
 11  1  2  0  0  0  0
 14 10  1  0  0  0  0
 15 11  1  0  0  0  0
 16 17  1  0  0  0  0
 16 22  1  0  0  0  0
 17 23  1  0  0  0  0
 18 30  1  0  0  0  0
 18 17  2  0  0  0  0
 19 18  1  0  0  0  0
 20 19  2  0  0  0  0
 20 21  1  0  0  0  0
 21 16  2  0  0  0  0
 24 19  1  0  0  0  0
 25 20  1  0  0  0  0
 26 21  1  0  0  0  0
 26 27  2  0  0  0  0
 26 28  1  0  0  0  0
 29 26  2  0  0  0  0
 30 31  1  0  0  0  0
 30 32  1  0  0  0  0
 33 30  1  0  0  0  0
M  RAD  3   2   2   3   3  28   2
M  END
