Coordinates from ORCA-job 4-NO2PhN2+~TsO-_B3LYPG-6-31G_dp-NX-Scan-d89-09-n800
 OpenBabel11261920283D

 33 33  0  0  0  0  0  0  0  0999 V2000
   -4.6457   -0.8362    1.0930 C   0  0  0  0  0  0  0  0  0  0  0  0
   -5.2115   -0.1564    2.1432 N   0  0  0  0  0  0  0  0  0  0  0  0
   -5.5945    0.4151    3.0286 N   0  0  0  0  0  0  0  0  0  0  0  0
   -3.2356   -0.7122    0.9736 C   0  0  0  0  0  0  0  0  0  0  0  0
   -2.6270   -1.3895   -0.0601 C   0  0  0  0  0  0  0  0  0  0  0  0
   -3.4201   -2.1645   -0.9209 C   0  0  0  0  0  0  0  0  0  0  0  0
   -2.7195   -2.8893   -2.0153 N   0  0  0  0  0  0  0  0  0  0  0  0
   -1.4938   -2.7773   -2.0517 O   0  0  0  0  0  0  0  0  0  0  0  0
   -3.4081   -3.5341   -2.7899 O   0  0  0  0  0  0  0  0  0  0  0  0
   -4.7995   -2.2896   -0.8028 C   0  0  0  0  0  0  0  0  0  0  0  0
   -5.4530   -1.6006    0.2246 C   0  0  0  0  0  0  0  0  0  0  0  0
   -2.6692   -0.1086    1.6736 H   0  0  0  0  0  0  0  0  0  0  0  0
   -1.5568   -1.3434   -0.2178 H   0  0  0  0  0  0  0  0  0  0  0  0
   -5.4110   -2.9295   -1.4566 H   0  0  0  0  0  0  0  0  0  0  0  0
   -6.5479   -1.7083    0.2879 H   0  0  0  0  0  0  0  0  0  0  0  0
  -10.0406   -4.6386    0.4475 C   0  0  0  0  0  0  0  0  0  0  0  0
  -10.6134   -5.6662    1.1925 C   0  0  0  0  0  0  0  0  0  0  0  0
  -10.0984   -6.9706    1.1446 C   0  0  0  0  0  0  0  0  0  0  0  0
   -8.9879   -7.2164    0.3233 C   0  0  0  0  0  0  0  0  0  0  0  0
   -8.4061   -6.1958   -0.4266 C   0  0  0  0  0  0  0  0  0  0  0  0
   -8.9341   -4.9043   -0.3652 C   0  0  0  0  0  0  0  0  0  0  0  0
  -10.4409   -3.6310    0.4919 H   0  0  0  0  0  0  0  0  0  0  0  0
  -11.4774   -5.4575    1.8193 H   0  0  0  0  0  0  0  0  0  0  0  0
   -8.5767   -8.2220    0.2692 H   0  0  0  0  0  0  0  0  0  0  0  0
   -7.5465   -6.3810   -1.0614 H   0  0  0  0  0  0  0  0  0  0  0  0
   -8.2383   -3.5888   -1.3800 S   0  0  0  0  0  0  0  0  0  0  0  0
   -8.1496   -2.4119   -0.4364 O   0  0  0  0  0  0  0  0  0  0  0  0
   -9.1774   -3.3870   -2.5025 O   0  0  0  0  0  0  0  0  0  0  0  0
   -6.8817   -4.0842   -1.7742 O   0  0  0  0  0  0  0  0  0  0  0  0
  -10.7061   -8.0771    1.9737 C   0  0  0  0  0  0  0  0  0  0  0  0
  -10.1462   -8.2303    2.9050 H   0  0  0  0  0  0  0  0  0  0  0  0
  -11.7397   -7.8496    2.2494 H   0  0  0  0  0  0  0  0  0  0  0  0
  -10.7004   -9.0301    1.4349 H   0  0  0  0  0  0  0  0  0  0  0  0
  1  2  1  0  0  0  0
  2  3  1  0  0  0  0
  4  1  1  0  0  0  0
  4 12  1  0  0  0  0
  5  4  2  0  0  0  0
  6 10  2  0  0  0  0
  6  5  1  0  0  0  0
  7  6  1  0  0  0  0
  8  7  2  0  0  0  0
  9  7  2  0  0  0  0
 10 11  1  0  0  0  0
 11 15  1  0  0  0  0
 11  1  2  0  0  0  0
 13  5  1  0  0  0  0
 14 10  1  0  0  0  0
 16 22  1  0  0  0  0
 16 17  2  0  0  0  0
 17 23  1  0  0  0  0
 18 17  1  0  0  0  0
 18 30  1  0  0  0  0
 19 18  2  0  0  0  0
 20 21  2  0  0  0  0
 20 19  1  0  0  0  0
 21 16  1  0  0  0  0
 24 19  1  0  0  0  0
 25 20  1  0  0  0  0
 26 27  1  0  0  0  0
 26 21  1  0  0  0  0
 28 26  2  0  0  0  0
 29 26  2  0  0  0  0
 30 32  1  0  0  0  0
 30 31  1  0  0  0  0
 33 30  1  0  0  0  0
M  RAD  3   2   2   3   3  27   2
M  END
