Coordinates from ORCA-job 4-NO2PhN2+~TsO-_B3LYPG-6-31G_dp-NX-Scan-d89-09-n800
 OpenBabel11261920283D

 33 33  0  0  0  0  0  0  0  0999 V2000
   -4.1466   -2.9145    0.3258 C   0  0  0  0  0  0  0  0  0  0  0  0
   -4.6790   -3.7849    1.3286 N   0  0  0  0  0  0  0  0  0  0  0  0
   -4.5532   -4.1482    2.3885 N   0  0  0  0  0  0  0  0  0  0  0  0
   -3.2882   -1.9116    0.8033 C   0  0  0  0  0  0  0  0  0  0  0  0
   -2.7053   -1.0546   -0.1181 C   0  0  0  0  0  0  0  0  0  0  0  0
   -2.9896   -1.2369   -1.4721 C   0  0  0  0  0  0  0  0  0  0  0  0
   -2.3576   -0.3232   -2.4519 N   0  0  0  0  0  0  0  0  0  0  0  0
   -1.6235    0.5548   -2.0061 O   0  0  0  0  0  0  0  0  0  0  0  0
   -2.6075   -0.5106   -3.6379 O   0  0  0  0  0  0  0  0  0  0  0  0
   -3.8387   -2.2348   -1.9381 C   0  0  0  0  0  0  0  0  0  0  0  0
   -4.4390   -3.0978   -1.0231 C   0  0  0  0  0  0  0  0  0  0  0  0
   -3.0983   -1.8082    1.8653 H   0  0  0  0  0  0  0  0  0  0  0  0
   -2.0425   -0.2559    0.1896 H   0  0  0  0  0  0  0  0  0  0  0  0
   -4.0337   -2.3243   -2.9992 H   0  0  0  0  0  0  0  0  0  0  0  0
   -5.1323   -3.8695   -1.3295 H   0  0  0  0  0  0  0  0  0  0  0  0
   -9.3535   -4.8390    1.8543 C   0  0  0  0  0  0  0  0  0  0  0  0
  -10.4368   -5.6542    2.1765 C   0  0  0  0  0  0  0  0  0  0  0  0
  -11.0460   -6.4665    1.2095 C   0  0  0  0  0  0  0  0  0  0  0  0
  -10.5390   -6.4420   -0.0981 C   0  0  0  0  0  0  0  0  0  0  0  0
   -9.4578   -5.6315   -0.4369 C   0  0  0  0  0  0  0  0  0  0  0  0
   -8.8694   -4.8341    0.5458 C   0  0  0  0  0  0  0  0  0  0  0  0
   -8.8937   -4.1986    2.5993 H   0  0  0  0  0  0  0  0  0  0  0  0
  -10.8200   -5.6564    3.1938 H   0  0  0  0  0  0  0  0  0  0  0  0
  -11.0011   -7.0623   -0.8620 H   0  0  0  0  0  0  0  0  0  0  0  0
   -9.0763   -5.6001   -1.4516 H   0  0  0  0  0  0  0  0  0  0  0  0
   -7.4638   -3.8059    0.1251 S   0  0  0  0  0  0  0  0  0  0  0  0
   -6.2549   -4.7512    0.3901 O   0  0  0  0  0  0  0  0  0  0  0  0
   -7.4261   -2.6661    1.0648 O   0  0  0  0  0  0  0  0  0  0  0  0
   -7.5558   -3.4939   -1.3158 O   0  0  0  0  0  0  0  0  0  0  0  0
  -12.2415   -7.3212    1.5572 C   0  0  0  0  0  0  0  0  0  0  0  0
  -12.2553   -7.5788    2.6200 H   0  0  0  0  0  0  0  0  0  0  0  0
  -13.1783   -6.7941    1.3364 H   0  0  0  0  0  0  0  0  0  0  0  0
  -12.2503   -8.2510    0.9813 H   0  0  0  0  0  0  0  0  0  0  0  0
  1  4  1  0  0  0  0
  1  2  1  0  0  0  0
  2  3  2  0  0  0  0
  4 12  1  0  0  0  0
  5 13  1  0  0  0  0
  5  4  2  0  0  0  0
  6  5  1  0  0  0  0
  7  8  2  0  0  0  0
  7  6  1  0  0  0  0
  9  7  2  0  0  0  0
 10  6  2  0  0  0  0
 10 11  1  0  0  0  0
 11  1  2  0  0  0  0
 14 10  1  0  0  0  0
 15 11  1  0  0  0  0
 16 17  1  0  0  0  0
 16 22  1  0  0  0  0
 17 23  1  0  0  0  0
 18 30  1  0  0  0  0
 18 17  2  0  0  0  0
 19 18  1  0  0  0  0
 20 19  2  0  0  0  0
 20 21  1  0  0  0  0
 21 16  2  0  0  0  0
 24 19  1  0  0  0  0
 25 20  1  0  0  0  0
 26 27  2  0  0  0  0
 26 21  1  0  0  0  0
 26 28  1  0  0  0  0
 29 26  2  0  0  0  0
 30 31  1  0  0  0  0
 32 30  1  0  0  0  0
 33 30  1  0  0  0  0
M  RAD  2   3   2  28   2
M  END
