Coordinates from ORCA-job 4-NO2PhN2+~TsO-_B3LYPG-6-31G_dp-NX-Scan-d89-09-n800
 OpenBabel11261920283D

 33 33  0  0  0  0  0  0  0  0999 V2000
   -4.7709   -0.6889    0.6193 C   0  0  0  0  0  0  0  0  0  0  0  0
   -5.5910    0.1947    1.2783 N   0  0  0  0  0  0  0  0  0  0  0  0
   -6.2660    0.8972    1.8280 N   0  0  0  0  0  0  0  0  0  0  0  0
   -3.3701   -0.4896    0.6943 C   0  0  0  0  0  0  0  0  0  0  0  0
   -2.5784   -1.3984    0.0245 C   0  0  0  0  0  0  0  0  0  0  0  0
   -3.1920   -2.4548   -0.6720 C   0  0  0  0  0  0  0  0  0  0  0  0
   -2.3032   -3.4196   -1.3687 N   0  0  0  0  0  0  0  0  0  0  0  0
   -1.0926   -3.2212   -1.2809 O   0  0  0  0  0  0  0  0  0  0  0  0
   -2.8387   -4.3390   -1.9722 O   0  0  0  0  0  0  0  0  0  0  0  0
   -4.5668   -2.6415   -0.7362 C   0  0  0  0  0  0  0  0  0  0  0  0
   -5.3995   -1.7300   -0.0842 C   0  0  0  0  0  0  0  0  0  0  0  0
   -2.9464    0.3370    1.2529 H   0  0  0  0  0  0  0  0  0  0  0  0
   -1.4984   -1.3216    0.0270 H   0  0  0  0  0  0  0  0  0  0  0  0
   -5.0345   -3.4539   -1.2843 H   0  0  0  0  0  0  0  0  0  0  0  0
   -6.5004   -1.8381   -0.0955 H   0  0  0  0  0  0  0  0  0  0  0  0
   -9.8555   -4.6091    0.9887 C   0  0  0  0  0  0  0  0  0  0  0  0
  -10.3440   -5.7777    1.5695 C   0  0  0  0  0  0  0  0  0  0  0  0
  -10.0571   -7.0357    1.0200 C   0  0  0  0  0  0  0  0  0  0  0  0
   -9.2647   -7.0898   -0.1347 C   0  0  0  0  0  0  0  0  0  0  0  0
   -8.7693   -5.9277   -0.7248 C   0  0  0  0  0  0  0  0  0  0  0  0
   -9.0669   -4.6865   -0.1610 C   0  0  0  0  0  0  0  0  0  0  0  0
  -10.0742   -3.6390    1.4217 H   0  0  0  0  0  0  0  0  0  0  0  0
  -10.9573   -5.7141    2.4656 H   0  0  0  0  0  0  0  0  0  0  0  0
   -9.0322   -8.0553   -0.5778 H   0  0  0  0  0  0  0  0  0  0  0  0
   -8.1504   -5.9716   -1.6146 H   0  0  0  0  0  0  0  0  0  0  0  0
   -8.4887   -3.1816   -0.9617 S   0  0  0  0  0  0  0  0  0  0  0  0
   -8.1965   -2.2340    0.1835 O   0  0  0  0  0  0  0  0  0  0  0  0
   -9.5749   -2.7082   -1.8414 O   0  0  0  0  0  0  0  0  0  0  0  0
   -7.2296   -3.5652   -1.6710 O   0  0  0  0  0  0  0  0  0  0  0  0
  -10.5637   -8.3002    1.6735 C   0  0  0  0  0  0  0  0  0  0  0  0
   -9.8599   -8.6658    2.4325 H   0  0  0  0  0  0  0  0  0  0  0  0
  -11.5225   -8.1354    2.1747 H   0  0  0  0  0  0  0  0  0  0  0  0
  -10.6982   -9.1025    0.9416 H   0  0  0  0  0  0  0  0  0  0  0  0
  1  4  1  0  0  0  0
  1  2  1  0  0  0  0
  2  3  1  0  0  0  0
  4 12  1  0  0  0  0
  5 13  1  0  0  0  0
  5  4  2  0  0  0  0
  6  5  1  0  0  0  0
  7  8  2  0  0  0  0
  7  6  1  0  0  0  0
  9  7  2  0  0  0  0
 10  6  2  0  0  0  0
 10 11  1  0  0  0  0
 11  1  2  0  0  0  0
 14 10  1  0  0  0  0
 15 11  1  0  0  0  0
 16 22  1  0  0  0  0
 16 17  2  0  0  0  0
 17 23  1  0  0  0  0
 18 17  1  0  0  0  0
 18 30  1  0  0  0  0
 19 18  2  0  0  0  0
 20 21  2  0  0  0  0
 20 19  1  0  0  0  0
 21 16  1  0  0  0  0
 24 19  1  0  0  0  0
 25 20  1  0  0  0  0
 26 21  1  0  0  0  0
 26 27  1  0  0  0  0
 28 26  2  0  0  0  0
 29 26  2  0  0  0  0
 30 32  1  0  0  0  0
 30 31  1  0  0  0  0
 33 30  1  0  0  0  0
M  RAD  3   2   2   3   3  27   2
M  END
