Coordinates from ORCA-job 4-NO2PhN2+~TsO-_B3LYPG-6-31G_dp-NX-Scan-d89-09-n800
 OpenBabel11261920283D

 33 33  0  0  0  0  0  0  0  0999 V2000
   -4.5980   -1.5417    0.3761 C   0  0  0  0  0  0  0  0  0  0  0  0
   -5.5907   -1.2864    1.3149 N   0  0  0  0  0  0  0  0  0  0  0  0
   -6.5037   -1.1486    1.9634 N   0  0  0  0  0  0  0  0  0  0  0  0
   -3.2776   -1.2538    0.7586 C   0  0  0  0  0  0  0  0  0  0  0  0
   -2.2636   -1.4802   -0.1597 C   0  0  0  0  0  0  0  0  0  0  0  0
   -2.6081   -1.9649   -1.4220 C   0  0  0  0  0  0  0  0  0  0  0  0
   -1.5212   -2.1955   -2.4030 N   0  0  0  0  0  0  0  0  0  0  0  0
   -0.3750   -1.9505   -2.0361 O   0  0  0  0  0  0  0  0  0  0  0  0
   -1.8429   -2.6119   -3.5107 O   0  0  0  0  0  0  0  0  0  0  0  0
   -3.9196   -2.2382   -1.8016 C   0  0  0  0  0  0  0  0  0  0  0  0
   -4.9517   -2.0364   -0.8896 C   0  0  0  0  0  0  0  0  0  0  0  0
   -3.0650   -0.8709    1.7499 H   0  0  0  0  0  0  0  0  0  0  0  0
   -1.2257   -1.2850    0.0766 H   0  0  0  0  0  0  0  0  0  0  0  0
   -4.1229   -2.6175   -2.7947 H   0  0  0  0  0  0  0  0  0  0  0  0
   -5.9890   -2.2606   -1.1352 H   0  0  0  0  0  0  0  0  0  0  0  0
   -8.6735   -5.8403    1.5005 C   0  0  0  0  0  0  0  0  0  0  0  0
   -9.6087   -6.8594    1.6847 C   0  0  0  0  0  0  0  0  0  0  0  0
  -10.8537   -6.8253    1.0438 C   0  0  0  0  0  0  0  0  0  0  0  0
  -11.1394   -5.7420    0.1978 C   0  0  0  0  0  0  0  0  0  0  0  0
  -10.2159   -4.7190    0.0010 C   0  0  0  0  0  0  0  0  0  0  0  0
   -8.9842   -4.7740    0.6582 C   0  0  0  0  0  0  0  0  0  0  0  0
   -7.7039   -5.8728    1.9845 H   0  0  0  0  0  0  0  0  0  0  0  0
   -9.3646   -7.6973    2.3331 H   0  0  0  0  0  0  0  0  0  0  0  0
  -12.0963   -5.7040   -0.3168 H   0  0  0  0  0  0  0  0  0  0  0  0
  -10.4314   -3.8918   -0.6668 H   0  0  0  0  0  0  0  0  0  0  0  0
   -7.8063   -3.4445    0.4433 S   0  0  0  0  0  0  0  0  0  0  0  0
   -6.4531   -3.9820    0.7538 O   0  0  0  0  0  0  0  0  0  0  0  0
   -8.2045   -2.3858    1.4646 O   0  0  0  0  0  0  0  0  0  0  0  0
   -7.9562   -2.9509   -0.9517 O   0  0  0  0  0  0  0  0  0  0  0  0
  -11.8722   -7.9204    1.2573 C   0  0  0  0  0  0  0  0  0  0  0  0
  -11.4427   -8.7675    1.7989 H   0  0  0  0  0  0  0  0  0  0  0  0
  -12.7291   -7.5558    1.8367 H   0  0  0  0  0  0  0  0  0  0  0  0
  -12.2641   -8.2923    0.3047 H   0  0  0  0  0  0  0  0  0  0  0  0
  1  4  1  0  0  0  0
  1  2  1  0  0  0  0
  2  3  1  0  0  0  0
  4 12  1  0  0  0  0
  5 13  1  0  0  0  0
  5  4  2  0  0  0  0
  6  5  1  0  0  0  0
  7  8  2  0  0  0  0
  7  6  1  0  0  0  0
  9  7  2  0  0  0  0
 10  6  2  0  0  0  0
 10 11  1  0  0  0  0
 11  1  2  0  0  0  0
 14 10  1  0  0  0  0
 15 11  1  0  0  0  0
 16 17  1  0  0  0  0
 16 22  1  0  0  0  0
 17 23  1  0  0  0  0
 18 30  1  0  0  0  0
 18 17  2  0  0  0  0
 19 18  1  0  0  0  0
 20 19  2  0  0  0  0
 20 21  1  0  0  0  0
 21 16  2  0  0  0  0
 24 19  1  0  0  0  0
 25 20  1  0  0  0  0
 26 21  1  0  0  0  0
 26 27  2  0  0  0  0
 26 28  1  0  0  0  0
 29 26  2  0  0  0  0
 30 31  1  0  0  0  0
 30 32  1  0  0  0  0
 33 30  1  0  0  0  0
M  RAD  3   2   2   3   3  28   2
M  END
