Coordinates from ORCA-job 4-NO2PhN2+~TsO-_B3LYPG-6-31G_dp-NX-Scan-d89-09-n800
 OpenBabel11261920283D

 33 33  0  0  0  0  0  0  0  0999 V2000
   -4.4055   -3.2476    0.0089 C   0  0  0  0  0  0  0  0  0  0  0  0
   -5.0368   -4.4019    0.5761 N   0  0  0  0  0  0  0  0  0  0  0  0
   -5.0416   -5.0876    1.4743 N   0  0  0  0  0  0  0  0  0  0  0  0
   -3.7782   -2.3920    0.9240 C   0  0  0  0  0  0  0  0  0  0  0  0
   -3.1061   -1.2825    0.4291 C   0  0  0  0  0  0  0  0  0  0  0  0
   -3.0729   -1.0828   -0.9505 C   0  0  0  0  0  0  0  0  0  0  0  0
   -2.3446    0.0960   -1.4728 N   0  0  0  0  0  0  0  0  0  0  0  0
   -1.8213    0.8413   -0.6487 O   0  0  0  0  0  0  0  0  0  0  0  0
   -2.3150    0.2442   -2.6901 O   0  0  0  0  0  0  0  0  0  0  0  0
   -3.6920   -1.9418   -1.8539 C   0  0  0  0  0  0  0  0  0  0  0  0
   -4.3848   -3.0477   -1.3690 C   0  0  0  0  0  0  0  0  0  0  0  0
   -3.8285   -2.5896    1.9886 H   0  0  0  0  0  0  0  0  0  0  0  0
   -2.6117   -0.5786    1.0861 H   0  0  0  0  0  0  0  0  0  0  0  0
   -3.6388   -1.7345   -2.9150 H   0  0  0  0  0  0  0  0  0  0  0  0
   -4.9049   -3.7406   -2.0163 H   0  0  0  0  0  0  0  0  0  0  0  0
   -9.2645   -4.3565    1.1732 C   0  0  0  0  0  0  0  0  0  0  0  0
  -10.2101   -5.0175    1.9592 C   0  0  0  0  0  0  0  0  0  0  0  0
  -10.7656   -6.2364    1.5525 C   0  0  0  0  0  0  0  0  0  0  0  0
  -10.3499   -6.7834    0.3275 C   0  0  0  0  0  0  0  0  0  0  0  0
   -9.4104   -6.1354   -0.4683 C   0  0  0  0  0  0  0  0  0  0  0  0
   -8.8664   -4.9226   -0.0362 C   0  0  0  0  0  0  0  0  0  0  0  0
   -8.8457   -3.4044    1.4788 H   0  0  0  0  0  0  0  0  0  0  0  0
  -10.5242   -4.5763    2.9016 H   0  0  0  0  0  0  0  0  0  0  0  0
  -10.7722   -7.7275   -0.0065 H   0  0  0  0  0  0  0  0  0  0  0  0
   -9.1051   -6.5549   -1.4208 H   0  0  0  0  0  0  0  0  0  0  0  0
   -7.6373   -4.0962   -1.0482 S   0  0  0  0  0  0  0  0  0  0  0  0
   -6.3600   -4.9782   -0.8867 O   0  0  0  0  0  0  0  0  0  0  0  0
   -7.4024   -2.7629   -0.4543 O   0  0  0  0  0  0  0  0  0  0  0  0
   -8.0901   -4.1689   -2.4441 O   0  0  0  0  0  0  0  0  0  0  0  0
  -11.8075   -6.9366    2.3919 C   0  0  0  0  0  0  0  0  0  0  0  0
  -11.8253   -6.5496    3.4142 H   0  0  0  0  0  0  0  0  0  0  0  0
  -12.8109   -6.7989    1.9699 H   0  0  0  0  0  0  0  0  0  0  0  0
  -11.6241   -8.0152    2.4396 H   0  0  0  0  0  0  0  0  0  0  0  0
  1  2  1  0  0  0  0
  1  4  2  0  0  0  0
  2  3  2  0  0  0  0
  4 12  1  0  0  0  0
  5  4  1  0  0  0  0
  5 13  1  0  0  0  0
  6  5  2  0  0  0  0
  7  6  1  0  0  0  0
  7  8  2  0  0  0  0
  9  7  2  0  0  0  0
 10 11  2  0  0  0  0
 10  6  1  0  0  0  0
 11  1  1  0  0  0  0
 14 10  1  0  0  0  0
 15 11  1  0  0  0  0
 16 22  1  0  0  0  0
 16 17  2  0  0  0  0
 17 23  1  0  0  0  0
 18 17  1  0  0  0  0
 18 30  1  0  0  0  0
 19 18  2  0  0  0  0
 20 21  2  0  0  0  0
 20 19  1  0  0  0  0
 21 16  1  0  0  0  0
 24 19  1  0  0  0  0
 25 20  1  0  0  0  0
 26 27  2  0  0  0  0
 26 28  1  0  0  0  0
 26 21  1  0  0  0  0
 29 26  2  0  0  0  0
 30 33  1  0  0  0  0
 30 31  1  0  0  0  0
 32 30  1  0  0  0  0
M  RAD  2   3   2  28   2
M  END
