Coordinates from ORCA-job 4-NO2PhN2+~TsO-_B3LYPG-6-31G_dp-NX-Scan-d89-09-n800
 OpenBabel11261920283D

 33 33  0  0  0  0  0  0  0  0999 V2000
   -4.7990   -0.6574    0.6728 C   0  0  0  0  0  0  0  0  0  0  0  0
   -5.4996    0.3243    1.3267 N   0  0  0  0  0  0  0  0  0  0  0  0
   -6.0478    1.1254    1.8855 N   0  0  0  0  0  0  0  0  0  0  0  0
   -3.3868   -0.6471    0.8109 C   0  0  0  0  0  0  0  0  0  0  0  0
   -2.6865   -1.6355    0.1542 C   0  0  0  0  0  0  0  0  0  0  0  0
   -3.3983   -2.5926   -0.5897 C   0  0  0  0  0  0  0  0  0  0  0  0
   -2.6104   -3.6553   -1.2641 N   0  0  0  0  0  0  0  0  0  0  0  0
   -1.3892   -3.6138   -1.1202 O   0  0  0  0  0  0  0  0  0  0  0  0
   -3.2306   -4.4930   -1.9038 O   0  0  0  0  0  0  0  0  0  0  0  0
   -4.7815   -2.5993   -0.7151 C   0  0  0  0  0  0  0  0  0  0  0  0
   -5.5236   -1.5965   -0.0852 C   0  0  0  0  0  0  0  0  0  0  0  0
   -2.8879    0.1055    1.4108 H   0  0  0  0  0  0  0  0  0  0  0  0
   -1.6069   -1.6979    0.2064 H   0  0  0  0  0  0  0  0  0  0  0  0
   -5.3300   -3.3398   -1.2941 H   0  0  0  0  0  0  0  0  0  0  0  0
   -6.6273   -1.5908   -0.1571 H   0  0  0  0  0  0  0  0  0  0  0  0
   -9.8084   -4.5569    0.9013 C   0  0  0  0  0  0  0  0  0  0  0  0
  -10.2005   -5.7343    1.5354 C   0  0  0  0  0  0  0  0  0  0  0  0
   -9.8517   -6.9890    1.0152 C   0  0  0  0  0  0  0  0  0  0  0  0
   -9.0970   -7.0309   -0.1650 C   0  0  0  0  0  0  0  0  0  0  0  0
   -8.6978   -5.8600   -0.8083 C   0  0  0  0  0  0  0  0  0  0  0  0
   -9.0552   -4.6219   -0.2727 C   0  0  0  0  0  0  0  0  0  0  0  0
  -10.0750   -3.5888    1.3113 H   0  0  0  0  0  0  0  0  0  0  0  0
  -10.7863   -5.6800    2.4501 H   0  0  0  0  0  0  0  0  0  0  0  0
   -8.8180   -7.9938   -0.5863 H   0  0  0  0  0  0  0  0  0  0  0  0
   -8.1083   -5.8945   -1.7181 H   0  0  0  0  0  0  0  0  0  0  0  0
   -8.6032   -3.1103   -1.1401 S   0  0  0  0  0  0  0  0  0  0  0  0
   -8.3444   -2.1074   -0.0368 O   0  0  0  0  0  0  0  0  0  0  0  0
   -9.7437   -2.7475   -2.0039 O   0  0  0  0  0  0  0  0  0  0  0  0
   -7.3433   -3.4363   -1.8770 O   0  0  0  0  0  0  0  0  0  0  0  0
  -10.2528   -8.2609    1.7249 C   0  0  0  0  0  0  0  0  0  0  0  0
   -9.4991   -8.5582    2.4656 H   0  0  0  0  0  0  0  0  0  0  0  0
  -11.2005   -8.1399    2.2587 H   0  0  0  0  0  0  0  0  0  0  0  0
  -10.3640   -9.0928    1.0227 H   0  0  0  0  0  0  0  0  0  0  0  0
  1  4  1  0  0  0  0
  1  2  1  0  0  0  0
  2  3  1  0  0  0  0
  4 12  1  0  0  0  0
  5 13  1  0  0  0  0
  5  4  2  0  0  0  0
  6  5  1  0  0  0  0
  7  8  2  0  0  0  0
  7  6  1  0  0  0  0
  9  7  2  0  0  0  0
 10  6  2  0  0  0  0
 10 11  1  0  0  0  0
 11  1  2  0  0  0  0
 14 10  1  0  0  0  0
 15 11  1  0  0  0  0
 16 22  1  0  0  0  0
 16 17  2  0  0  0  0
 17 23  1  0  0  0  0
 18 17  1  0  0  0  0
 18 30  1  0  0  0  0
 19 18  2  0  0  0  0
 20 21  2  0  0  0  0
 20 19  1  0  0  0  0
 21 16  1  0  0  0  0
 24 19  1  0  0  0  0
 25 20  1  0  0  0  0
 26 21  1  0  0  0  0
 26 27  1  0  0  0  0
 28 26  2  0  0  0  0
 29 26  2  0  0  0  0
 30 32  1  0  0  0  0
 30 31  1  0  0  0  0
 33 30  1  0  0  0  0
M  RAD  3   2   2   3   3  27   2
M  END
