Coordinates from ORCA-job 4-NO2PhN2+~TsO-_B3LYPG-6-31G_dp-NX-Scan-d89-09-n800
 OpenBabel11261920283D

 33 33  0  0  0  0  0  0  0  0999 V2000
   -4.5041   -1.6838    0.4748 C   0  0  0  0  0  0  0  0  0  0  0  0
   -5.3607   -1.5027    1.5535 N   0  0  0  0  0  0  0  0  0  0  0  0
   -6.0747   -1.3109    2.3956 N   0  0  0  0  0  0  0  0  0  0  0  0
   -3.1285   -1.5533    0.7280 C   0  0  0  0  0  0  0  0  0  0  0  0
   -2.2536   -1.7081   -0.3366 C   0  0  0  0  0  0  0  0  0  0  0  0
   -2.7849   -1.9676   -1.6009 C   0  0  0  0  0  0  0  0  0  0  0  0
   -1.8437   -2.1203   -2.7362 N   0  0  0  0  0  0  0  0  0  0  0  0
   -0.6456   -2.0174   -2.4870 O   0  0  0  0  0  0  0  0  0  0  0  0
   -2.3281   -2.3352   -3.8419 O   0  0  0  0  0  0  0  0  0  0  0  0
   -4.1507   -2.0862   -1.8458 C   0  0  0  0  0  0  0  0  0  0  0  0
   -5.0487   -1.9559   -0.7903 C   0  0  0  0  0  0  0  0  0  0  0  0
   -2.7681   -1.3436    1.7283 H   0  0  0  0  0  0  0  0  0  0  0  0
   -1.1817   -1.6274   -0.2096 H   0  0  0  0  0  0  0  0  0  0  0  0
   -4.4995   -2.2933   -2.8495 H   0  0  0  0  0  0  0  0  0  0  0  0
   -6.1260   -2.0672   -0.9201 H   0  0  0  0  0  0  0  0  0  0  0  0
   -9.2021   -5.3340    2.0530 C   0  0  0  0  0  0  0  0  0  0  0  0
  -10.0772   -6.4152    2.0901 C   0  0  0  0  0  0  0  0  0  0  0  0
  -10.7626   -6.8343    0.9385 C   0  0  0  0  0  0  0  0  0  0  0  0
  -10.5452   -6.1364   -0.2558 C   0  0  0  0  0  0  0  0  0  0  0  0
   -9.6716   -5.0496   -0.3082 C   0  0  0  0  0  0  0  0  0  0  0  0
   -9.0000   -4.6550    0.8479 C   0  0  0  0  0  0  0  0  0  0  0  0
   -8.6869   -5.0059    2.9492 H   0  0  0  0  0  0  0  0  0  0  0  0
  -10.2358   -6.9425    3.0278 H   0  0  0  0  0  0  0  0  0  0  0  0
  -11.0688   -6.4450   -1.1570 H   0  0  0  0  0  0  0  0  0  0  0  0
   -9.5103   -4.5000   -1.2289 H   0  0  0  0  0  0  0  0  0  0  0  0
   -7.8366   -3.2951    0.7820 S   0  0  0  0  0  0  0  0  0  0  0  0
   -6.4544   -3.8693    0.8325 O   0  0  0  0  0  0  0  0  0  0  0  0
   -8.1090   -2.4690    2.0136 O   0  0  0  0  0  0  0  0  0  0  0  0
   -8.0970   -2.5662   -0.4917 O   0  0  0  0  0  0  0  0  0  0  0  0
  -11.7304   -7.9922    0.9993 C   0  0  0  0  0  0  0  0  0  0  0  0
  -11.3262   -8.8211    1.5896 H   0  0  0  0  0  0  0  0  0  0  0  0
  -12.6757   -7.6934    1.4692 H   0  0  0  0  0  0  0  0  0  0  0  0
  -11.9661   -8.3702    0.0009 H   0  0  0  0  0  0  0  0  0  0  0  0
  1  4  1  0  0  0  0
  1  2  1  0  0  0  0
  2  3  1  0  0  0  0
  4 12  1  0  0  0  0
  5 13  1  0  0  0  0
  5  4  2  0  0  0  0
  6  5  1  0  0  0  0
  7  8  2  0  0  0  0
  7  6  1  0  0  0  0
  9  7  2  0  0  0  0
 10  6  2  0  0  0  0
 10 11  1  0  0  0  0
 11  1  2  0  0  0  0
 14 10  1  0  0  0  0
 15 11  1  0  0  0  0
 16 17  1  0  0  0  0
 16 22  1  0  0  0  0
 17 23  1  0  0  0  0
 18 30  1  0  0  0  0
 18 17  2  0  0  0  0
 19 18  1  0  0  0  0
 20 19  2  0  0  0  0
 20 21  1  0  0  0  0
 21 16  2  0  0  0  0
 24 19  1  0  0  0  0
 25 20  1  0  0  0  0
 26 27  2  0  0  0  0
 26 21  1  0  0  0  0
 26 28  1  0  0  0  0
 29 26  2  0  0  0  0
 30 32  1  0  0  0  0
 30 31  1  0  0  0  0
 33 30  1  0  0  0  0
M  RAD  3   2   2   3   3  28   2
M  END
