Coordinates from ORCA-job 4-NO2PhN2+~TsO-_B3LYPG-6-31G_dp-NX-Scan-d89-09-n800
 OpenBabel11261920283D

 33 33  0  0  0  0  0  0  0  0999 V2000
   -4.6399   -0.8450    1.0301 C   0  0  0  0  0  0  0  0  0  0  0  0
   -5.2588   -0.1903    2.0672 N   0  0  0  0  0  0  0  0  0  0  0  0
   -5.6962    0.3578    2.9410 N   0  0  0  0  0  0  0  0  0  0  0  0
   -3.2374   -0.6476    0.9253 C   0  0  0  0  0  0  0  0  0  0  0  0
   -2.5842   -1.2992   -0.0978 C   0  0  0  0  0  0  0  0  0  0  0  0
   -3.3276   -2.1226   -0.9587 C   0  0  0  0  0  0  0  0  0  0  0  0
   -2.5816   -2.8199   -2.0406 N   0  0  0  0  0  0  0  0  0  0  0  0
   -1.3663   -2.6289   -2.0819 O   0  0  0  0  0  0  0  0  0  0  0  0
   -3.2266   -3.5240   -2.8018 O   0  0  0  0  0  0  0  0  0  0  0  0
   -4.6987   -2.3192   -0.8499 C   0  0  0  0  0  0  0  0  0  0  0  0
   -5.4000   -1.6553    0.1628 C   0  0  0  0  0  0  0  0  0  0  0  0
   -2.7098   -0.0111    1.6265 H   0  0  0  0  0  0  0  0  0  0  0  0
   -1.5168   -1.1972   -0.2470 H   0  0  0  0  0  0  0  0  0  0  0  0
   -5.2733   -2.9872   -1.5019 H   0  0  0  0  0  0  0  0  0  0  0  0
   -6.4952   -1.8105    0.2218 H   0  0  0  0  0  0  0  0  0  0  0  0
  -10.0524   -4.6475    0.5291 C   0  0  0  0  0  0  0  0  0  0  0  0
  -10.6506   -5.6850    1.2401 C   0  0  0  0  0  0  0  0  0  0  0  0
  -10.1681   -6.9993    1.1485 C   0  0  0  0  0  0  0  0  0  0  0  0
   -9.0639   -7.2448    0.3191 C   0  0  0  0  0  0  0  0  0  0  0  0
   -8.4568   -6.2146   -0.3969 C   0  0  0  0  0  0  0  0  0  0  0  0
   -8.9529   -4.9136   -0.2923 C   0  0  0  0  0  0  0  0  0  0  0  0
  -10.4273   -3.6323    0.6077 H   0  0  0  0  0  0  0  0  0  0  0  0
  -11.5090   -5.4756    1.8742 H   0  0  0  0  0  0  0  0  0  0  0  0
   -8.6773   -8.2579    0.2316 H   0  0  0  0  0  0  0  0  0  0  0  0
   -7.6015   -6.4004   -1.0373 H   0  0  0  0  0  0  0  0  0  0  0  0
   -8.2257   -3.5850   -1.2666 S   0  0  0  0  0  0  0  0  0  0  0  0
   -8.1310   -2.4314   -0.2916 O   0  0  0  0  0  0  0  0  0  0  0  0
   -9.1488   -3.3342   -2.3921 O   0  0  0  0  0  0  0  0  0  0  0  0
   -6.8726   -4.0883   -1.6571 O   0  0  0  0  0  0  0  0  0  0  0  0
  -10.8034   -8.1172    1.9410 C   0  0  0  0  0  0  0  0  0  0  0  0
  -10.2528   -8.3096    2.8705 H   0  0  0  0  0  0  0  0  0  0  0  0
  -11.8339   -7.8767    2.2175 H   0  0  0  0  0  0  0  0  0  0  0  0
  -10.8140   -9.0537    1.3741 H   0  0  0  0  0  0  0  0  0  0  0  0
  1  2  1  0  0  0  0
  2  3  1  0  0  0  0
  4  1  1  0  0  0  0
  4 12  1  0  0  0  0
  5  4  2  0  0  0  0
  6 10  2  0  0  0  0
  6  5  1  0  0  0  0
  7  6  1  0  0  0  0
  8  7  2  0  0  0  0
  9  7  2  0  0  0  0
 10 11  1  0  0  0  0
 11 15  1  0  0  0  0
 11  1  2  0  0  0  0
 13  5  1  0  0  0  0
 14 10  1  0  0  0  0
 16 22  1  0  0  0  0
 16 17  2  0  0  0  0
 17 23  1  0  0  0  0
 18 17  1  0  0  0  0
 18 30  1  0  0  0  0
 19 18  2  0  0  0  0
 20 21  2  0  0  0  0
 20 19  1  0  0  0  0
 21 16  1  0  0  0  0
 24 19  1  0  0  0  0
 25 20  1  0  0  0  0
 26 21  1  0  0  0  0
 26 27  1  0  0  0  0
 28 26  2  0  0  0  0
 29 26  2  0  0  0  0
 30 32  1  0  0  0  0
 30 31  1  0  0  0  0
 33 30  1  0  0  0  0
M  RAD  3   2   2   3   3  27   2
M  END
