Coordinates from ORCA-job 4-NO2PhN2+~TsO-_B3LYPG-6-31G_dp-NX-Scan-d89-09-n800
 OpenBabel11261920283D

 33 33  0  0  0  0  0  0  0  0999 V2000
   -4.6377   -0.8443    1.0181 C   0  0  0  0  0  0  0  0  0  0  0  0
   -5.2657   -0.1914    2.0513 N   0  0  0  0  0  0  0  0  0  0  0  0
   -5.7135    0.3545    2.9213 N   0  0  0  0  0  0  0  0  0  0  0  0
   -3.2368   -0.6365    0.9157 C   0  0  0  0  0  0  0  0  0  0  0  0
   -2.5769   -1.2861   -0.1044 C   0  0  0  0  0  0  0  0  0  0  0  0
   -3.3125   -2.1178   -0.9642 C   0  0  0  0  0  0  0  0  0  0  0  0
   -2.5595   -2.8125   -2.0429 N   0  0  0  0  0  0  0  0  0  0  0  0
   -1.3462   -2.6093   -2.0853 O   0  0  0  0  0  0  0  0  0  0  0  0
   -3.1981   -3.5225   -2.8041 O   0  0  0  0  0  0  0  0  0  0  0  0
   -4.6820   -2.3246   -0.8571 C   0  0  0  0  0  0  0  0  0  0  0  0
   -5.3904   -1.6629    0.1523 C   0  0  0  0  0  0  0  0  0  0  0  0
   -2.7152    0.0059    1.6161 H   0  0  0  0  0  0  0  0  0  0  0  0
   -1.5101   -1.1763   -0.2521 H   0  0  0  0  0  0  0  0  0  0  0  0
   -5.2510   -2.9972   -1.5082 H   0  0  0  0  0  0  0  0  0  0  0  0
   -6.4856   -1.8248    0.2118 H   0  0  0  0  0  0  0  0  0  0  0  0
  -10.0562   -4.6500    0.5429 C   0  0  0  0  0  0  0  0  0  0  0  0
  -10.6582   -5.6900    1.2470 C   0  0  0  0  0  0  0  0  0  0  0  0
  -10.1795   -7.0051    1.1482 C   0  0  0  0  0  0  0  0  0  0  0  0
   -9.0752   -7.2489    0.3187 C   0  0  0  0  0  0  0  0  0  0  0  0
   -8.4642   -6.2162   -0.3906 C   0  0  0  0  0  0  0  0  0  0  0  0
   -8.9565   -4.9144   -0.2786 C   0  0  0  0  0  0  0  0  0  0  0  0
  -10.4282   -3.6342    0.6272 H   0  0  0  0  0  0  0  0  0  0  0  0
  -11.5167   -5.4817    1.8814 H   0  0  0  0  0  0  0  0  0  0  0  0
   -8.6915   -8.2625    0.2255 H   0  0  0  0  0  0  0  0  0  0  0  0
   -7.6087   -6.4007   -1.0311 H   0  0  0  0  0  0  0  0  0  0  0  0
   -8.2241   -3.5823   -1.2442 S   0  0  0  0  0  0  0  0  0  0  0  0
   -8.1261   -2.4346   -0.2620 O   0  0  0  0  0  0  0  0  0  0  0  0
   -9.1454   -3.3199   -2.3685 O   0  0  0  0  0  0  0  0  0  0  0  0
   -6.8724   -4.0870   -1.6369 O   0  0  0  0  0  0  0  0  0  0  0  0
  -10.8191   -8.1258    1.9333 C   0  0  0  0  0  0  0  0  0  0  0  0
  -10.2710   -8.3244    2.8630 H   0  0  0  0  0  0  0  0  0  0  0  0
  -11.8497   -7.8844    2.2089 H   0  0  0  0  0  0  0  0  0  0  0  0
  -10.8306   -9.0592    1.3614 H   0  0  0  0  0  0  0  0  0  0  0  0
  1  2  1  0  0  0  0
  2  3  1  0  0  0  0
  4  1  1  0  0  0  0
  4 12  1  0  0  0  0
  5  4  2  0  0  0  0
  6 10  2  0  0  0  0
  6  5  1  0  0  0  0
  7  6  1  0  0  0  0
  8  7  2  0  0  0  0
  9  7  2  0  0  0  0
 10 11  1  0  0  0  0
 11 15  1  0  0  0  0
 11  1  2  0  0  0  0
 13  5  1  0  0  0  0
 14 10  1  0  0  0  0
 16 22  1  0  0  0  0
 16 17  2  0  0  0  0
 17 23  1  0  0  0  0
 18 17  1  0  0  0  0
 18 30  1  0  0  0  0
 19 18  2  0  0  0  0
 20 21  2  0  0  0  0
 20 19  1  0  0  0  0
 21 16  1  0  0  0  0
 24 19  1  0  0  0  0
 25 20  1  0  0  0  0
 26 21  1  0  0  0  0
 26 27  1  0  0  0  0
 28 26  2  0  0  0  0
 29 26  2  0  0  0  0
 30 32  1  0  0  0  0
 30 31  1  0  0  0  0
 33 30  1  0  0  0  0
M  RAD  3   2   2   3   3  27   2
M  END
