Coordinates from ORCA-job 4-NO2PhN2+~TsO-_B3LYPG-6-31G_dp-NX-Scan-d89-09-n800
 OpenBabel11261920283D

 33 33  0  0  0  0  0  0  0  0999 V2000
   -4.6113   -2.4797    0.4603 C   0  0  0  0  0  0  0  0  0  0  0  0
   -5.5004   -3.1163    1.3723 N   0  0  0  0  0  0  0  0  0  0  0  0
   -5.7233   -3.4765    2.4146 N   0  0  0  0  0  0  0  0  0  0  0  0
   -3.8953   -1.3911    0.9774 C   0  0  0  0  0  0  0  0  0  0  0  0
   -2.9727   -0.7718    0.1442 C   0  0  0  0  0  0  0  0  0  0  0  0
   -2.7953   -1.2742   -1.1442 C   0  0  0  0  0  0  0  0  0  0  0  0
   -1.7986   -0.6155   -2.0209 N   0  0  0  0  0  0  0  0  0  0  0  0
   -1.1961    0.3491   -1.5575 O   0  0  0  0  0  0  0  0  0  0  0  0
   -1.6433   -1.0833   -3.1437 O   0  0  0  0  0  0  0  0  0  0  0  0
   -3.5106   -2.3612   -1.6412 C   0  0  0  0  0  0  0  0  0  0  0  0
   -4.4593   -2.9806   -0.8318 C   0  0  0  0  0  0  0  0  0  0  0  0
   -4.0651   -1.0412    1.9888 H   0  0  0  0  0  0  0  0  0  0  0  0
   -2.3937    0.0813    0.4741 H   0  0  0  0  0  0  0  0  0  0  0  0
   -3.3349   -2.7015   -2.6534 H   0  0  0  0  0  0  0  0  0  0  0  0
   -5.0771   -3.8113   -1.1789 H   0  0  0  0  0  0  0  0  0  0  0  0
   -9.7224   -4.4077    0.9482 C   0  0  0  0  0  0  0  0  0  0  0  0
  -10.6463   -5.1746    1.6569 C   0  0  0  0  0  0  0  0  0  0  0  0
  -10.7862   -6.5483    1.4160 C   0  0  0  0  0  0  0  0  0  0  0  0
   -9.9615   -7.1402    0.4484 C   0  0  0  0  0  0  0  0  0  0  0  0
   -9.0322   -6.3868   -0.2664 C   0  0  0  0  0  0  0  0  0  0  0  0
   -8.9158   -5.0188   -0.0130 C   0  0  0  0  0  0  0  0  0  0  0  0
   -9.6132   -3.3467    1.1453 H   0  0  0  0  0  0  0  0  0  0  0  0
  -11.2689   -4.6985    2.4107 H   0  0  0  0  0  0  0  0  0  0  0  0
  -10.0475   -8.2065    0.2528 H   0  0  0  0  0  0  0  0  0  0  0  0
   -8.3868   -6.8491   -1.0054 H   0  0  0  0  0  0  0  0  0  0  0  0
   -7.7708   -4.0369   -0.9881 S   0  0  0  0  0  0  0  0  0  0  0  0
   -7.2549   -2.9678   -0.0046 O   0  0  0  0  0  0  0  0  0  0  0  0
   -8.5280   -3.4293   -2.1005 O   0  0  0  0  0  0  0  0  0  0  0  0
   -6.6673   -4.9610   -1.3702 O   0  0  0  0  0  0  0  0  0  0  0  0
  -11.8127   -7.3679    2.1625 C   0  0  0  0  0  0  0  0  0  0  0  0
  -12.1005   -6.8900    3.1031 H   0  0  0  0  0  0  0  0  0  0  0  0
  -12.7253   -7.4936    1.5666 H   0  0  0  0  0  0  0  0  0  0  0  0
  -11.4371   -8.3698    2.3919 H   0  0  0  0  0  0  0  0  0  0  0  0
  1  4  1  0  0  0  0
  1  2  1  0  0  0  0
  2  3  2  0  0  0  0
  4 12  1  0  0  0  0
  5 13  1  0  0  0  0
  5  4  2  0  0  0  0
  6  5  1  0  0  0  0
  7  8  2  0  0  0  0
  7  6  1  0  0  0  0
  9  7  2  0  0  0  0
 10  6  2  0  0  0  0
 10 11  1  0  0  0  0
 11  1  2  0  0  0  0
 14 10  1  0  0  0  0
 15 11  1  0  0  0  0
 16 22  1  0  0  0  0
 16 17  2  0  0  0  0
 17 23  1  0  0  0  0
 18 17  1  0  0  0  0
 18 30  1  0  0  0  0
 19 18  2  0  0  0  0
 20 21  2  0  0  0  0
 20 19  1  0  0  0  0
 21 16  1  0  0  0  0
 24 19  1  0  0  0  0
 25 20  1  0  0  0  0
 26 21  1  0  0  0  0
 26 27  1  0  0  0  0
 28 26  2  0  0  0  0
 29 26  2  0  0  0  0
 30 33  1  0  0  0  0
 30 31  1  0  0  0  0
 32 30  1  0  0  0  0
M  RAD  2   3   2  27   2
M  END
