Coordinates from ORCA-job 4-NO2PhN2+~TsO-_B3LYPG-6-31G_dp-NX-Scan-d89-09-n800
 OpenBabel11261920283D

 33 33  0  0  0  0  0  0  0  0999 V2000
   -5.0393   -2.6872    0.0673 C   0  0  0  0  0  0  0  0  0  0  0  0
   -6.1854   -3.3583    0.5944 N   0  0  0  0  0  0  0  0  0  0  0  0
   -6.6077   -3.9646    1.4482 N   0  0  0  0  0  0  0  0  0  0  0  0
   -4.2625   -1.9759    0.9880 C   0  0  0  0  0  0  0  0  0  0  0  0
   -3.1193   -1.3383    0.5201 C   0  0  0  0  0  0  0  0  0  0  0  0
   -2.7972   -1.4543   -0.8307 C   0  0  0  0  0  0  0  0  0  0  0  0
   -1.5735   -0.7798   -1.3203 N   0  0  0  0  0  0  0  0  0  0  0  0
   -0.9143   -0.1483   -0.4984 O   0  0  0  0  0  0  0  0  0  0  0  0
   -1.3020   -0.9020   -2.5104 O   0  0  0  0  0  0  0  0  0  0  0  0
   -3.5726   -2.1764   -1.7359 C   0  0  0  0  0  0  0  0  0  0  0  0
   -4.7329   -2.8019   -1.2883 C   0  0  0  0  0  0  0  0  0  0  0  0
   -4.5527   -1.9173    2.0306 H   0  0  0  0  0  0  0  0  0  0  0  0
   -2.4804   -0.7628    1.1775 H   0  0  0  0  0  0  0  0  0  0  0  0
   -3.2694   -2.2351   -2.7734 H   0  0  0  0  0  0  0  0  0  0  0  0
   -5.3806   -3.3787   -1.9413 H   0  0  0  0  0  0  0  0  0  0  0  0
  -10.0150   -4.2622    0.4621 C   0  0  0  0  0  0  0  0  0  0  0  0
  -10.6933   -5.0054    1.4220 C   0  0  0  0  0  0  0  0  0  0  0  0
  -10.3764   -6.3545    1.6550 C   0  0  0  0  0  0  0  0  0  0  0  0
   -9.3542   -6.9378    0.8974 C   0  0  0  0  0  0  0  0  0  0  0  0
   -8.6631   -6.2046   -0.0694 C   0  0  0  0  0  0  0  0  0  0  0  0
   -8.9945   -4.8668   -0.2812 C   0  0  0  0  0  0  0  0  0  0  0  0
  -10.2713   -3.2231    0.2840 H   0  0  0  0  0  0  0  0  0  0  0  0
  -11.4850   -4.5352    2.0002 H   0  0  0  0  0  0  0  0  0  0  0  0
   -9.0949   -7.9800    1.0636 H   0  0  0  0  0  0  0  0  0  0  0  0
   -7.8742   -6.6559   -0.6611 H   0  0  0  0  0  0  0  0  0  0  0  0
   -8.1396   -3.9155   -1.5404 S   0  0  0  0  0  0  0  0  0  0  0  0
   -7.5540   -2.7037   -0.7694 O   0  0  0  0  0  0  0  0  0  0  0  0
   -9.1400   -3.4314   -2.4929 O   0  0  0  0  0  0  0  0  0  0  0  0
   -7.0389   -4.7750   -2.0374 O   0  0  0  0  0  0  0  0  0  0  0  0
  -11.1377   -7.1528    2.6865 C   0  0  0  0  0  0  0  0  0  0  0  0
  -11.2269   -6.6044    3.6303 H   0  0  0  0  0  0  0  0  0  0  0  0
  -12.1561   -7.3695    2.3430 H   0  0  0  0  0  0  0  0  0  0  0  0
  -10.6496   -8.1084    2.8947 H   0  0  0  0  0  0  0  0  0  0  0  0
  1  2  1  0  0  0  0
  1  4  2  0  0  0  0
  2  3  2  0  0  0  0
  4 12  1  0  0  0  0
  5  4  1  0  0  0  0
  5 13  1  0  0  0  0
  6  5  2  0  0  0  0
  7  6  1  0  0  0  0
  7  8  2  0  0  0  0
  9  7  2  0  0  0  0
 10 11  2  0  0  0  0
 10  6  1  0  0  0  0
 11  1  1  0  0  0  0
 14 10  1  0  0  0  0
 15 11  1  0  0  0  0
 16 17  2  0  0  0  0
 17 18  1  0  0  0  0
 17 23  1  0  0  0  0
 18 30  1  0  0  0  0
 19 24  1  0  0  0  0
 19 18  2  0  0  0  0
 20 19  1  0  0  0  0
 21 20  2  0  0  0  0
 21 16  1  0  0  0  0
 22 16  1  0  0  0  0
 25 20  1  0  0  0  0
 26 27  1  0  0  0  0
 26 21  1  0  0  0  0
 28 26  2  0  0  0  0
 29 26  2  0  0  0  0
 30 33  1  0  0  0  0
 30 31  1  0  0  0  0
 32 30  1  0  0  0  0
M  RAD  2   3   2  27   2
M  END
