Coordinates from ORCA-job 4-NO2PhN2+~TsO-_B3LYPG-6-31G_dp-NX-Scan-d89-09-n800
 OpenBabel11261920283D

 33 34  0  0  0  0  0  0  0  0999 V2000
   -4.3696   -2.4640   -0.4096 C   0  0  0  0  0  0  0  0  0  0  0  0
   -5.4319   -3.3406   -0.1014 N   0  0  0  0  0  0  0  0  0  0  0  0
   -6.2172   -3.6658   -1.0664 N   0  0  0  0  0  0  0  0  0  0  0  0
   -3.6038   -2.1254    0.7263 C   0  0  0  0  0  0  0  0  0  0  0  0
   -2.5139   -1.2767    0.6286 C   0  0  0  0  0  0  0  0  0  0  0  0
   -2.1787   -0.7588   -0.6237 C   0  0  0  0  0  0  0  0  0  0  0  0
   -1.0270    0.1426   -0.7412 N   0  0  0  0  0  0  0  0  0  0  0  0
   -0.4014    0.4053    0.2862 O   0  0  0  0  0  0  0  0  0  0  0  0
   -0.7559    0.5823   -1.8590 O   0  0  0  0  0  0  0  0  0  0  0  0
   -2.9103   -1.0769   -1.7642 C   0  0  0  0  0  0  0  0  0  0  0  0
   -4.0073   -1.9278   -1.6640 C   0  0  0  0  0  0  0  0  0  0  0  0
   -3.8953   -2.5510    1.6797 H   0  0  0  0  0  0  0  0  0  0  0  0
   -1.9209   -1.0088    1.4938 H   0  0  0  0  0  0  0  0  0  0  0  0
   -2.6152   -0.6560   -2.7169 H   0  0  0  0  0  0  0  0  0  0  0  0
   -4.5596   -2.1630   -2.5623 H   0  0  0  0  0  0  0  0  0  0  0  0
  -10.0934   -4.6883    0.6300 C   0  0  0  0  0  0  0  0  0  0  0  0
  -10.9663   -5.1089    1.6294 C   0  0  0  0  0  0  0  0  0  0  0  0
  -11.2528   -6.4711    1.8165 C   0  0  0  0  0  0  0  0  0  0  0  0
  -10.6356   -7.4066    0.9753 C   0  0  0  0  0  0  0  0  0  0  0  0
   -9.7592   -7.0038   -0.0320 C   0  0  0  0  0  0  0  0  0  0  0  0
   -9.4920   -5.6466   -0.1880 C   0  0  0  0  0  0  0  0  0  0  0  0
   -9.8701   -3.6329    0.5041 H   0  0  0  0  0  0  0  0  0  0  0  0
  -11.4311   -4.3709    2.2777 H   0  0  0  0  0  0  0  0  0  0  0  0
  -10.8441   -8.4647    1.1096 H   0  0  0  0  0  0  0  0  0  0  0  0
   -9.2791   -7.7193   -0.6921 H   0  0  0  0  0  0  0  0  0  0  0  0
   -8.4244   -5.1377   -1.5573 S   0  0  1  0  0  0  0  0  0  0  0  0
   -7.2197   -4.6165   -0.4122 O   0  0  0  0  0  0  0  0  0  0  0  0
   -6.3132   -3.4511   -2.0694 O   0  0  0  0  0  0  0  0  0  0  0  0
   -7.9764   -6.3770   -2.2465 O   0  0  0  0  0  0  0  0  0  0  0  0
  -12.2258   -6.9114    2.8833 C   0  0  0  0  0  0  0  0  0  0  0  0
  -12.1453   -6.2899    3.7802 H   0  0  0  0  0  0  0  0  0  0  0  0
  -13.2608   -6.8337    2.5267 H   0  0  0  0  0  0  0  0  0  0  0  0
  -12.0574   -7.9520    3.1737 H   0  0  0  0  0  0  0  0  0  0  0  0
  1  2  1  0  0  0  0
  1  4  2  0  0  0  0
  3 27  1  0  0  0  0
  3  2  1  0  0  0  0
  4 12  1  0  0  0  0
  5  4  1  0  0  0  0
  5 13  1  0  0  0  0
  6  5  2  0  0  0  0
  7  6  1  0  0  0  0
  7  8  2  0  0  0  0
  9  7  2  0  0  0  0
 10 11  2  0  0  0  0
 10  6  1  0  0  0  0
 11  1  1  0  0  0  0
 14 10  1  0  0  0  0
 15 11  1  0  0  0  0
 16 17  2  0  0  0  0
 17 18  1  0  0  0  0
 17 23  1  0  0  0  0
 18 30  1  0  0  0  0
 19 24  1  0  0  0  0
 19 18  2  0  0  0  0
 20 19  1  0  0  0  0
 21 20  2  0  0  0  0
 21 16  1  0  0  0  0
 22 16  1  0  0  0  0
 25 20  1  0  0  0  0
 26 29  1  6  0  0  0
 26 27  1  0  0  0  0
 26 21  1  0  0  0  0
 28  3  1  0  0  0  0
 30 33  1  0  0  0  0
 30 31  1  0  0  0  0
 32 30  1  0  0  0  0
M  RAD  3   2   2  28   2  29   2
M  END
