Coordinates from ORCA-job 4-NO2PhN2+~TsO-_B3LYPG-6-31G_dp-NX-Scan-d89-09-n800
 OpenBabel11261920283D

 33 33  0  0  0  0  0  0  0  0999 V2000
   -4.8991   -2.7181    0.1193 C   0  0  0  0  0  0  0  0  0  0  0  0
   -5.9818   -3.4348    0.7198 N   0  0  0  0  0  0  0  0  0  0  0  0
   -6.3102   -4.0712    1.5925 N   0  0  0  0  0  0  0  0  0  0  0  0
   -4.0935   -1.9781    0.9910 C   0  0  0  0  0  0  0  0  0  0  0  0
   -3.0067   -1.2983    0.4529 C   0  0  0  0  0  0  0  0  0  0  0  0
   -2.7662   -1.4029   -0.9156 C   0  0  0  0  0  0  0  0  0  0  0  0
   -1.6015   -0.6842   -1.4800 N   0  0  0  0  0  0  0  0  0  0  0  0
   -0.9170   -0.0262   -0.7005 O   0  0  0  0  0  0  0  0  0  0  0  0
   -1.4003   -0.7982   -2.6848 O   0  0  0  0  0  0  0  0  0  0  0  0
   -3.5705   -2.1530   -1.7715 C   0  0  0  0  0  0  0  0  0  0  0  0
   -4.6764   -2.8207   -1.2532 C   0  0  0  0  0  0  0  0  0  0  0  0
   -4.3191   -1.9297    2.0502 H   0  0  0  0  0  0  0  0  0  0  0  0
   -2.3497   -0.6990    1.0700 H   0  0  0  0  0  0  0  0  0  0  0  0
   -3.3321   -2.1998   -2.8265 H   0  0  0  0  0  0  0  0  0  0  0  0
   -5.3450   -3.4191   -1.8657 H   0  0  0  0  0  0  0  0  0  0  0  0
  -10.1461   -4.3051    0.4132 C   0  0  0  0  0  0  0  0  0  0  0  0
  -10.8688   -5.0690    1.3230 C   0  0  0  0  0  0  0  0  0  0  0  0
  -10.4974   -6.3918    1.6197 C   0  0  0  0  0  0  0  0  0  0  0  0
   -9.3769   -6.9276    0.9758 C   0  0  0  0  0  0  0  0  0  0  0  0
   -8.6396   -6.1727    0.0605 C   0  0  0  0  0  0  0  0  0  0  0  0
   -9.0259   -4.8617   -0.2142 C   0  0  0  0  0  0  0  0  0  0  0  0
  -10.4476   -3.2895    0.1801 H   0  0  0  0  0  0  0  0  0  0  0  0
  -11.7398   -4.6373    1.8096 H   0  0  0  0  0  0  0  0  0  0  0  0
   -9.0775   -7.9505    1.1880 H   0  0  0  0  0  0  0  0  0  0  0  0
   -7.7789   -6.5907   -0.4496 H   0  0  0  0  0  0  0  0  0  0  0  0
   -8.0904   -3.8724   -1.3829 S   0  0  0  0  0  0  0  0  0  0  0  0
   -7.4663   -2.7436   -0.5196 O   0  0  0  0  0  0  0  0  0  0  0  0
   -9.0377   -3.2808   -2.3330 O   0  0  0  0  0  0  0  0  0  0  0  0
   -7.0156   -4.7495   -1.9073 O   0  0  0  0  0  0  0  0  0  0  0  0
  -11.3055   -7.2126    2.5966 C   0  0  0  0  0  0  0  0  0  0  0  0
  -11.4799   -6.6652    3.5290 H   0  0  0  0  0  0  0  0  0  0  0  0
  -12.2892   -7.4631    2.1828 H   0  0  0  0  0  0  0  0  0  0  0  0
  -10.8023   -8.1506    2.8446 H   0  0  0  0  0  0  0  0  0  0  0  0
  1  2  1  0  0  0  0
  1  4  2  0  0  0  0
  2  3  2  0  0  0  0
  4 12  1  0  0  0  0
  5  4  1  0  0  0  0
  5 13  1  0  0  0  0
  6  5  2  0  0  0  0
  7  6  1  0  0  0  0
  7  8  2  0  0  0  0
  9  7  2  0  0  0  0
 10 11  2  0  0  0  0
 10  6  1  0  0  0  0
 11  1  1  0  0  0  0
 14 10  1  0  0  0  0
 15 11  1  0  0  0  0
 16 17  2  0  0  0  0
 17 18  1  0  0  0  0
 17 23  1  0  0  0  0
 18 30  1  0  0  0  0
 19 24  1  0  0  0  0
 19 18  2  0  0  0  0
 20 19  1  0  0  0  0
 21 20  2  0  0  0  0
 21 16  1  0  0  0  0
 22 16  1  0  0  0  0
 25 20  1  0  0  0  0
 26 27  1  0  0  0  0
 26 21  1  0  0  0  0
 28 26  2  0  0  0  0
 29 26  2  0  0  0  0
 30 33  1  0  0  0  0
 30 31  1  0  0  0  0
 32 30  1  0  0  0  0
M  RAD  2   3   2  27   2
M  END
