Coordinates from ORCA-job 4-NO2PhN2+~TsO-_B3LYPG-6-31G_dp-NX-Scan-d89-09-n800
 OpenBabel11261920283D

 33 33  0  0  0  0  0  0  0  0999 V2000
   -4.7467   -0.6826    0.6072 C   0  0  0  0  0  0  0  0  0  0  0  0
   -5.5902    0.1795    1.2662 N   0  0  0  0  0  0  0  0  0  0  0  0
   -6.2888    0.8622    1.8105 N   0  0  0  0  0  0  0  0  0  0  0  0
   -3.3566   -0.4107    0.6184 C   0  0  0  0  0  0  0  0  0  0  0  0
   -2.5473   -1.3013   -0.0552 C   0  0  0  0  0  0  0  0  0  0  0  0
   -3.1335   -2.4086   -0.6941 C   0  0  0  0  0  0  0  0  0  0  0  0
   -2.2254   -3.3490   -1.3990 N   0  0  0  0  0  0  0  0  0  0  0  0
   -1.0249   -3.0833   -1.3752 O   0  0  0  0  0  0  0  0  0  0  0  0
   -2.7365   -4.3169   -1.9454 O   0  0  0  0  0  0  0  0  0  0  0  0
   -4.4986   -2.6649   -0.6969 C   0  0  0  0  0  0  0  0  0  0  0  0
   -5.3488   -1.7762   -0.0366 C   0  0  0  0  0  0  0  0  0  0  0  0
   -2.9537    0.4548    1.1315 H   0  0  0  0  0  0  0  0  0  0  0  0
   -1.4735   -1.1704   -0.1010 H   0  0  0  0  0  0  0  0  0  0  0  0
   -4.9445   -3.5126   -1.2075 H   0  0  0  0  0  0  0  0  0  0  0  0
   -6.4441   -1.9270   -0.0029 H   0  0  0  0  0  0  0  0  0  0  0  0
   -9.8771   -4.6363    1.0150 C   0  0  0  0  0  0  0  0  0  0  0  0
  -10.4030   -5.8011    1.5695 C   0  0  0  0  0  0  0  0  0  0  0  0
  -10.1322   -7.0580    1.0089 C   0  0  0  0  0  0  0  0  0  0  0  0
   -9.3173   -7.1144   -0.1297 C   0  0  0  0  0  0  0  0  0  0  0  0
   -8.7843   -5.9558   -0.6938 C   0  0  0  0  0  0  0  0  0  0  0  0
   -9.0666   -4.7160   -0.1194 C   0  0  0  0  0  0  0  0  0  0  0  0
  -10.0828   -3.6674    1.4570 H   0  0  0  0  0  0  0  0  0  0  0  0
  -11.0332   -5.7356    2.4537 H   0  0  0  0  0  0  0  0  0  0  0  0
   -9.0965   -8.0789   -0.5809 H   0  0  0  0  0  0  0  0  0  0  0  0
   -8.1478   -6.0016   -1.5709 H   0  0  0  0  0  0  0  0  0  0  0  0
   -8.4386   -3.2135   -0.8858 S   0  0  0  0  0  0  0  0  0  0  0  0
   -8.1424   -2.2916    0.2789 O   0  0  0  0  0  0  0  0  0  0  0  0
   -9.4973   -2.6987   -1.7759 O   0  0  0  0  0  0  0  0  0  0  0  0
   -7.1768   -3.6160   -1.5806 O   0  0  0  0  0  0  0  0  0  0  0  0
  -10.6805   -8.3189    1.6352 C   0  0  0  0  0  0  0  0  0  0  0  0
  -10.0181   -8.6907    2.4276 H   0  0  0  0  0  0  0  0  0  0  0  0
  -11.6613   -8.1465    2.0889 H   0  0  0  0  0  0  0  0  0  0  0  0
  -10.7858   -9.1194    0.8966 H   0  0  0  0  0  0  0  0  0  0  0  0
  1  4  1  0  0  0  0
  1  2  1  0  0  0  0
  2  3  1  0  0  0  0
  4 12  1  0  0  0  0
  5  4  2  0  0  0  0
  6  5  1  0  0  0  0
  7  8  2  0  0  0  0
  7  6  1  0  0  0  0
  9  7  2  0  0  0  0
 10  6  2  0  0  0  0
 10 11  1  0  0  0  0
 11 15  1  0  0  0  0
 11  1  2  0  0  0  0
 13  5  1  0  0  0  0
 14 10  1  0  0  0  0
 16 22  1  0  0  0  0
 16 17  1  0  0  0  0
 17 23  1  0  0  0  0
 18 17  2  0  0  0  0
 18 30  1  0  0  0  0
 19 18  1  0  0  0  0
 20 19  2  0  0  0  0
 20 21  1  0  0  0  0
 21 16  2  0  0  0  0
 24 19  1  0  0  0  0
 25 20  1  0  0  0  0
 26 21  1  0  0  0  0
 26 27  1  0  0  0  0
 28 26  2  0  0  0  0
 29 26  2  0  0  0  0
 30 32  1  0  0  0  0
 30 31  1  0  0  0  0
 33 30  1  0  0  0  0
M  RAD  3   2   2   3   3  27   2
M  END
