Coordinates from ORCA-job 4-NO2PhN2+~TsO-_B3LYPG-6-31G_dp-NX-Scan-d89-09-n800
 OpenBabel11261920283D

 33 33  0  0  0  0  0  0  0  0999 V2000
   -4.4551   -2.1730    0.4220 C   0  0  0  0  0  0  0  0  0  0  0  0
   -5.2972   -2.3331    1.5603 N   0  0  0  0  0  0  0  0  0  0  0  0
   -5.5210   -2.0904    2.6354 N   0  0  0  0  0  0  0  0  0  0  0  0
   -3.0897   -2.0153    0.6956 C   0  0  0  0  0  0  0  0  0  0  0  0
   -2.2280   -1.8087   -0.3735 C   0  0  0  0  0  0  0  0  0  0  0  0
   -2.7650   -1.7520   -1.6588 C   0  0  0  0  0  0  0  0  0  0  0  0
   -1.8423   -1.5263   -2.7955 N   0  0  0  0  0  0  0  0  0  0  0  0
   -0.6497   -1.3965   -2.5320 O   0  0  0  0  0  0  0  0  0  0  0  0
   -2.3336   -1.4835   -3.9185 O   0  0  0  0  0  0  0  0  0  0  0  0
   -4.1255   -1.8969   -1.9187 C   0  0  0  0  0  0  0  0  0  0  0  0
   -5.0024   -2.1268   -0.8609 C   0  0  0  0  0  0  0  0  0  0  0  0
   -2.7212   -2.0612    1.7140 H   0  0  0  0  0  0  0  0  0  0  0  0
   -1.1620   -1.6876   -0.2292 H   0  0  0  0  0  0  0  0  0  0  0  0
   -4.4853   -1.8387   -2.9381 H   0  0  0  0  0  0  0  0  0  0  0  0
   -6.0709   -2.2579   -1.0165 H   0  0  0  0  0  0  0  0  0  0  0  0
   -9.5284   -4.9894    2.0775 C   0  0  0  0  0  0  0  0  0  0  0  0
  -10.3691   -6.0962    2.1819 C   0  0  0  0  0  0  0  0  0  0  0  0
  -10.7800   -6.8045    1.0443 C   0  0  0  0  0  0  0  0  0  0  0  0
  -10.3246   -6.3741   -0.2110 C   0  0  0  0  0  0  0  0  0  0  0  0
   -9.4853   -5.2695   -0.3325 C   0  0  0  0  0  0  0  0  0  0  0  0
   -9.0892   -4.5829    0.8171 C   0  0  0  0  0  0  0  0  0  0  0  0
   -9.2244   -4.4312    2.9563 H   0  0  0  0  0  0  0  0  0  0  0  0
  -10.7164   -6.4127    3.1619 H   0  0  0  0  0  0  0  0  0  0  0  0
  -10.6367   -6.9087   -1.1047 H   0  0  0  0  0  0  0  0  0  0  0  0
   -9.1477   -4.9264   -1.3041 H   0  0  0  0  0  0  0  0  0  0  0  0
   -7.9856   -3.1808    0.6788 S   0  0  0  0  0  0  0  0  0  0  0  0
   -6.5807   -3.8171    0.7432 O   0  0  0  0  0  0  0  0  0  0  0  0
   -8.2023   -2.3037    1.8491 O   0  0  0  0  0  0  0  0  0  0  0  0
   -8.2049   -2.5740   -0.6557 O   0  0  0  0  0  0  0  0  0  0  0  0
  -11.7180   -7.9820    1.1608 C   0  0  0  0  0  0  0  0  0  0  0  0
  -11.6957   -8.4146    2.1651 H   0  0  0  0  0  0  0  0  0  0  0  0
  -12.7536   -7.6819    0.9565 H   0  0  0  0  0  0  0  0  0  0  0  0
  -11.4633   -8.7694    0.4445 H   0  0  0  0  0  0  0  0  0  0  0  0
  1  4  1  0  0  0  0
  1  2  1  0  0  0  0
  2  3  2  0  0  0  0
  4 12  1  0  0  0  0
  5 13  1  0  0  0  0
  5  4  2  0  0  0  0
  6  5  1  0  0  0  0
  7  8  2  0  0  0  0
  7  6  1  0  0  0  0
  9  7  2  0  0  0  0
 10  6  2  0  0  0  0
 10 11  1  0  0  0  0
 11  1  2  0  0  0  0
 14 10  1  0  0  0  0
 15 11  1  0  0  0  0
 16 17  1  0  0  0  0
 16 22  1  0  0  0  0
 17 23  1  0  0  0  0
 18 30  1  0  0  0  0
 18 17  2  0  0  0  0
 19 18  1  0  0  0  0
 20 19  2  0  0  0  0
 20 21  1  0  0  0  0
 21 16  2  0  0  0  0
 24 19  1  0  0  0  0
 25 20  1  0  0  0  0
 26 27  2  0  0  0  0
 26 21  1  0  0  0  0
 26 28  1  0  0  0  0
 29 26  2  0  0  0  0
 30 31  1  0  0  0  0
 32 30  1  0  0  0  0
 33 30  1  0  0  0  0
M  RAD  2   3   2  28   2
M  END
