Coordinates from ORCA-job 4-NO2PhN2+~TsO-_B3LYPG-6-31G_dp-NX-Scan-d89-09-n800
 OpenBabel11261920283D

 33 34  0  0  0  0  0  0  0  0999 V2000
   -4.3130   -2.4655   -0.4140 C   0  0  0  0  0  0  0  0  0  0  0  0
   -5.3429   -3.3843   -0.0934 N   0  0  0  0  0  0  0  0  0  0  0  0
   -6.1498   -3.6507   -1.0869 N   0  0  0  0  0  0  0  0  0  0  0  0
   -3.5217   -2.1319    0.7057 C   0  0  0  0  0  0  0  0  0  0  0  0
   -2.4581   -1.2528    0.5938 C   0  0  0  0  0  0  0  0  0  0  0  0
   -2.1728   -0.6963   -0.6548 C   0  0  0  0  0  0  0  0  0  0  0  0
   -1.0497    0.2368   -0.7857 N   0  0  0  0  0  0  0  0  0  0  0  0
   -0.3986    0.4909    0.2279 O   0  0  0  0  0  0  0  0  0  0  0  0
   -0.8255    0.7101   -1.9003 O   0  0  0  0  0  0  0  0  0  0  0  0
   -2.9301   -1.0084   -1.7794 C   0  0  0  0  0  0  0  0  0  0  0  0
   -4.0007   -1.8911   -1.6644 C   0  0  0  0  0  0  0  0  0  0  0  0
   -3.7722   -2.5864    1.6574 H   0  0  0  0  0  0  0  0  0  0  0  0
   -1.8467   -0.9893    1.4476 H   0  0  0  0  0  0  0  0  0  0  0  0
   -2.6750   -0.5600   -2.7311 H   0  0  0  0  0  0  0  0  0  0  0  0
   -4.5643   -2.1169   -2.5606 H   0  0  0  0  0  0  0  0  0  0  0  0
   -9.9935   -4.7492    0.7136 C   0  0  0  0  0  0  0  0  0  0  0  0
  -10.9190   -5.1374    1.6783 C   0  0  0  0  0  0  0  0  0  0  0  0
  -11.3194   -6.4779    1.8028 C   0  0  0  0  0  0  0  0  0  0  0  0
  -10.7615   -7.4250    0.9344 C   0  0  0  0  0  0  0  0  0  0  0  0
   -9.8351   -7.0535   -0.0408 C   0  0  0  0  0  0  0  0  0  0  0  0
   -9.4565   -5.7181   -0.1355 C   0  0  0  0  0  0  0  0  0  0  0  0
   -9.6781   -3.7129    0.6400 H   0  0  0  0  0  0  0  0  0  0  0  0
  -11.3344   -4.3909    2.3502 H   0  0  0  0  0  0  0  0  0  0  0  0
  -11.0559   -8.4676    1.0207 H   0  0  0  0  0  0  0  0  0  0  0  0
   -9.3977   -7.7783   -0.7201 H   0  0  0  0  0  0  0  0  0  0  0  0
   -8.3185   -5.2556   -1.4690 S   0  0  1  0  0  0  0  0  0  0  0  0
   -7.1554   -4.7269   -0.3630 O   0  0  0  0  0  0  0  0  0  0  0  0
   -6.3019   -3.4340   -1.9576 O   0  0  0  0  0  0  0  0  0  0  0  0
   -7.8918   -6.5174   -2.1405 O   0  0  0  0  0  0  0  0  0  0  0  0
  -12.3468   -6.8797    2.8338 C   0  0  0  0  0  0  0  0  0  0  0  0
  -12.2167   -6.3234    3.7669 H   0  0  0  0  0  0  0  0  0  0  0  0
  -13.3638   -6.6764    2.4754 H   0  0  0  0  0  0  0  0  0  0  0  0
  -12.2876   -7.9472    3.0632 H   0  0  0  0  0  0  0  0  0  0  0  0
  1  2  1  0  0  0  0
  1  4  2  0  0  0  0
  3 27  1  0  0  0  0
  3  2  1  0  0  0  0
  4 12  1  0  0  0  0
  5  4  1  0  0  0  0
  5 13  1  0  0  0  0
  6  5  2  0  0  0  0
  7  6  1  0  0  0  0
  7  8  2  0  0  0  0
  9  7  2  0  0  0  0
 10 11  2  0  0  0  0
 10  6  1  0  0  0  0
 11  1  1  0  0  0  0
 14 10  1  0  0  0  0
 15 11  1  0  0  0  0
 16 17  2  0  0  0  0
 17 18  1  0  0  0  0
 17 23  1  0  0  0  0
 18 30  1  0  0  0  0
 19 24  1  0  0  0  0
 19 18  2  0  0  0  0
 20 19  1  0  0  0  0
 21 20  2  0  0  0  0
 21 16  1  0  0  0  0
 22 16  1  0  0  0  0
 25 20  1  0  0  0  0
 26 29  1  1  0  0  0
 26 27  1  0  0  0  0
 26 21  1  0  0  0  0
 28  3  1  0  0  0  0
 30 33  1  0  0  0  0
 30 31  1  0  0  0  0
 32 30  1  0  0  0  0
M  RAD  3   2   2  28   2  29   2
M  END
