Coordinates from ORCA-job 4-NO2PhN2+~TsO-_B3LYPG-6-31G_dp-NX-Scan-d89-09-n800
 OpenBabel11261920283D

 33 33  0  0  0  0  0  0  0  0999 V2000
   -4.5888   -2.4628    0.4985 C   0  0  0  0  0  0  0  0  0  0  0  0
   -5.4569   -3.0840    1.4380 N   0  0  0  0  0  0  0  0  0  0  0  0
   -5.6767   -3.4231    2.4875 N   0  0  0  0  0  0  0  0  0  0  0  0
   -3.8732   -1.3574    0.9814 C   0  0  0  0  0  0  0  0  0  0  0  0
   -2.9669   -0.7513    0.1217 C   0  0  0  0  0  0  0  0  0  0  0  0
   -2.8042   -1.2819   -1.1575 C   0  0  0  0  0  0  0  0  0  0  0  0
   -1.8240   -0.6364   -2.0625 N   0  0  0  0  0  0  0  0  0  0  0  0
   -1.2237    0.3436   -1.6295 O   0  0  0  0  0  0  0  0  0  0  0  0
   -1.6800   -1.1287   -3.1761 O   0  0  0  0  0  0  0  0  0  0  0  0
   -3.5192   -2.3839   -1.6203 C   0  0  0  0  0  0  0  0  0  0  0  0
   -4.4524   -2.9917   -0.7844 C   0  0  0  0  0  0  0  0  0  0  0  0
   -4.0312   -0.9860    1.9871 H   0  0  0  0  0  0  0  0  0  0  0  0
   -2.3893    0.1129    0.4239 H   0  0  0  0  0  0  0  0  0  0  0  0
   -3.3567   -2.7449   -2.6276 H   0  0  0  0  0  0  0  0  0  0  0  0
   -5.0730   -3.8304   -1.1086 H   0  0  0  0  0  0  0  0  0  0  0  0
   -9.7169   -4.4165    0.9634 C   0  0  0  0  0  0  0  0  0  0  0  0
  -10.6468   -5.1881    1.6593 C   0  0  0  0  0  0  0  0  0  0  0  0
  -10.7959   -6.5568    1.3966 C   0  0  0  0  0  0  0  0  0  0  0  0
   -9.9745   -7.1388    0.4201 C   0  0  0  0  0  0  0  0  0  0  0  0
   -9.0396   -6.3804   -0.2819 C   0  0  0  0  0  0  0  0  0  0  0  0
   -8.9139   -5.0174   -0.0069 C   0  0  0  0  0  0  0  0  0  0  0  0
   -9.6002   -3.3596    1.1774 H   0  0  0  0  0  0  0  0  0  0  0  0
  -11.2667   -4.7199    2.4201 H   0  0  0  0  0  0  0  0  0  0  0  0
  -10.0676   -8.2012    0.2074 H   0  0  0  0  0  0  0  0  0  0  0  0
   -8.3967   -6.8353   -1.0277 H   0  0  0  0  0  0  0  0  0  0  0  0
   -7.7611   -4.0274   -0.9654 S   0  0  0  0  0  0  0  0  0  0  0  0
   -7.2455   -2.9739    0.0317 O   0  0  0  0  0  0  0  0  0  0  0  0
   -8.5135   -3.4124   -2.0786 O   0  0  0  0  0  0  0  0  0  0  0  0
   -6.6593   -4.9525   -1.3540 O   0  0  0  0  0  0  0  0  0  0  0  0
  -11.8280   -7.3816    2.1296 C   0  0  0  0  0  0  0  0  0  0  0  0
  -12.1264   -6.9078    3.0687 H   0  0  0  0  0  0  0  0  0  0  0  0
  -12.7340   -7.5080    1.5239 H   0  0  0  0  0  0  0  0  0  0  0  0
  -11.4519   -8.3833    2.3594 H   0  0  0  0  0  0  0  0  0  0  0  0
  1  4  1  0  0  0  0
  1  2  1  0  0  0  0
  2  3  2  0  0  0  0
  4 12  1  0  0  0  0
  5 13  1  0  0  0  0
  5  4  2  0  0  0  0
  6  5  1  0  0  0  0
  7  8  2  0  0  0  0
  7  6  1  0  0  0  0
  9  7  2  0  0  0  0
 10  6  2  0  0  0  0
 10 11  1  0  0  0  0
 11  1  2  0  0  0  0
 14 10  1  0  0  0  0
 15 11  1  0  0  0  0
 16 22  1  0  0  0  0
 16 17  2  0  0  0  0
 17 23  1  0  0  0  0
 18 17  1  0  0  0  0
 18 30  1  0  0  0  0
 19 18  2  0  0  0  0
 20 21  2  0  0  0  0
 20 19  1  0  0  0  0
 21 16  1  0  0  0  0
 24 19  1  0  0  0  0
 25 20  1  0  0  0  0
 26 21  1  0  0  0  0
 26 27  1  0  0  0  0
 28 26  2  0  0  0  0
 29 26  2  0  0  0  0
 30 33  1  0  0  0  0
 30 31  1  0  0  0  0
 32 30  1  0  0  0  0
M  RAD  2   3   2  27   2
M  END
