Coordinates from ORCA-job 4-NO2PhN2+~TsO-_B3LYPG-6-31G_dp-NX-Scan-d89-09-n800
 OpenBabel11261920283D

 33 33  0  0  0  0  0  0  0  0999 V2000
   -4.7464   -0.6825    0.6058 C   0  0  0  0  0  0  0  0  0  0  0  0
   -5.5918    0.1788    1.2634 N   0  0  0  0  0  0  0  0  0  0  0  0
   -6.2929    0.8601    1.8062 N   0  0  0  0  0  0  0  0  0  0  0  0
   -3.3566   -0.4093    0.6168 C   0  0  0  0  0  0  0  0  0  0  0  0
   -2.5467   -1.3000   -0.0562 C   0  0  0  0  0  0  0  0  0  0  0  0
   -3.1321   -2.4083   -0.6942 C   0  0  0  0  0  0  0  0  0  0  0  0
   -2.2233   -3.3484   -1.3986 N   0  0  0  0  0  0  0  0  0  0  0  0
   -1.0230   -3.0820   -1.3748 O   0  0  0  0  0  0  0  0  0  0  0  0
   -2.7337   -4.3173   -1.9440 O   0  0  0  0  0  0  0  0  0  0  0  0
   -4.4971   -2.6656   -0.6967 C   0  0  0  0  0  0  0  0  0  0  0  0
   -5.3475   -1.7771   -0.0368 C   0  0  0  0  0  0  0  0  0  0  0  0
   -2.9543    0.4570    1.1290 H   0  0  0  0  0  0  0  0  0  0  0  0
   -1.4731   -1.1683   -0.1022 H   0  0  0  0  0  0  0  0  0  0  0  0
   -4.9427   -3.5138   -1.2068 H   0  0  0  0  0  0  0  0  0  0  0  0
   -6.4427   -1.9279   -0.0021 H   0  0  0  0  0  0  0  0  0  0  0  0
   -9.8769   -4.6368    1.0166 C   0  0  0  0  0  0  0  0  0  0  0  0
  -10.4033   -5.8018    1.5703 C   0  0  0  0  0  0  0  0  0  0  0  0
  -10.1332   -7.0583    1.0086 C   0  0  0  0  0  0  0  0  0  0  0  0
   -9.3185   -7.1142   -0.1302 C   0  0  0  0  0  0  0  0  0  0  0  0
   -8.7851   -5.9554   -0.6934 C   0  0  0  0  0  0  0  0  0  0  0  0
   -9.0666   -4.7160   -0.1180 C   0  0  0  0  0  0  0  0  0  0  0  0
  -10.0820   -3.6681    1.4594 H   0  0  0  0  0  0  0  0  0  0  0  0
  -11.0333   -5.7366    2.4546 H   0  0  0  0  0  0  0  0  0  0  0  0
   -9.0984   -8.0785   -0.5821 H   0  0  0  0  0  0  0  0  0  0  0  0
   -8.1487   -6.0009   -1.5707 H   0  0  0  0  0  0  0  0  0  0  0  0
   -8.4379   -3.2132   -0.8832 S   0  0  0  0  0  0  0  0  0  0  0  0
   -8.1407   -2.2926    0.2820 O   0  0  0  0  0  0  0  0  0  0  0  0
   -9.4965   -2.6964   -1.7721 O   0  0  0  0  0  0  0  0  0  0  0  0
   -7.1767   -3.6161   -1.5790 O   0  0  0  0  0  0  0  0  0  0  0  0
  -10.6822   -8.3194    1.6340 C   0  0  0  0  0  0  0  0  0  0  0  0
  -10.0201   -8.6919    2.4263 H   0  0  0  0  0  0  0  0  0  0  0  0
  -11.6630   -8.1469    2.0876 H   0  0  0  0  0  0  0  0  0  0  0  0
  -10.7876   -9.1195    0.8949 H   0  0  0  0  0  0  0  0  0  0  0  0
  1  4  1  0  0  0  0
  1  2  1  0  0  0  0
  2  3  1  0  0  0  0
  4 12  1  0  0  0  0
  5  4  2  0  0  0  0
  6  5  1  0  0  0  0
  7  8  2  0  0  0  0
  7  6  1  0  0  0  0
  9  7  2  0  0  0  0
 10  6  2  0  0  0  0
 10 11  1  0  0  0  0
 11 15  1  0  0  0  0
 11  1  2  0  0  0  0
 13  5  1  0  0  0  0
 14 10  1  0  0  0  0
 16 22  1  0  0  0  0
 16 17  1  0  0  0  0
 17 23  1  0  0  0  0
 18 17  2  0  0  0  0
 18 30  1  0  0  0  0
 19 18  1  0  0  0  0
 20 19  2  0  0  0  0
 20 21  1  0  0  0  0
 21 16  2  0  0  0  0
 24 19  1  0  0  0  0
 25 20  1  0  0  0  0
 26 21  1  0  0  0  0
 26 27  1  0  0  0  0
 28 26  2  0  0  0  0
 29 26  2  0  0  0  0
 30 32  1  0  0  0  0
 30 31  1  0  0  0  0
 33 30  1  0  0  0  0
M  RAD  3   2   2   3   3  27   2
M  END
