Coordinates from ORCA-job 4-NO2PhN2+~TsO-_B3LYPG-6-31G_dp-NX-Scan-d89-09-n800
 OpenBabel11261920283D

 33 33  0  0  0  0  0  0  0  0999 V2000
   -4.4576   -2.1632    0.4215 C   0  0  0  0  0  0  0  0  0  0  0  0
   -5.3028   -2.3156    1.5571 N   0  0  0  0  0  0  0  0  0  0  0  0
   -5.5431   -2.0681    2.6272 N   0  0  0  0  0  0  0  0  0  0  0  0
   -3.0917   -2.0132    0.6963 C   0  0  0  0  0  0  0  0  0  0  0  0
   -2.2278   -1.8138   -0.3726 C   0  0  0  0  0  0  0  0  0  0  0  0
   -2.7635   -1.7563   -1.6584 C   0  0  0  0  0  0  0  0  0  0  0  0
   -1.8383   -1.5382   -2.7946 N   0  0  0  0  0  0  0  0  0  0  0  0
   -0.6451   -1.4157   -2.5303 O   0  0  0  0  0  0  0  0  0  0  0  0
   -2.3284   -1.4940   -3.9181 O   0  0  0  0  0  0  0  0  0  0  0  0
   -4.1245   -1.8938   -1.9195 C   0  0  0  0  0  0  0  0  0  0  0  0
   -5.0037   -2.1167   -0.8622 C   0  0  0  0  0  0  0  0  0  0  0  0
   -2.7244   -2.0593    1.7151 H   0  0  0  0  0  0  0  0  0  0  0  0
   -1.1613   -1.6987   -0.2275 H   0  0  0  0  0  0  0  0  0  0  0  0
   -4.4829   -1.8357   -2.9394 H   0  0  0  0  0  0  0  0  0  0  0  0
   -6.0727   -2.2433   -1.0179 H   0  0  0  0  0  0  0  0  0  0  0  0
   -9.5235   -4.9949    2.0790 C   0  0  0  0  0  0  0  0  0  0  0  0
  -10.3635   -6.1023    2.1824 C   0  0  0  0  0  0  0  0  0  0  0  0
  -10.7782   -6.8066    1.0437 C   0  0  0  0  0  0  0  0  0  0  0  0
  -10.3275   -6.3713   -0.2117 C   0  0  0  0  0  0  0  0  0  0  0  0
   -9.4890   -5.2660   -0.3320 C   0  0  0  0  0  0  0  0  0  0  0  0
   -9.0888   -4.5835    0.8186 C   0  0  0  0  0  0  0  0  0  0  0  0
   -9.2165   -4.4398    2.9587 H   0  0  0  0  0  0  0  0  0  0  0  0
  -10.7072   -6.4226    3.1624 H   0  0  0  0  0  0  0  0  0  0  0  0
  -10.6426   -6.9027   -1.1062 H   0  0  0  0  0  0  0  0  0  0  0  0
   -9.1551   -4.9192   -1.3036 H   0  0  0  0  0  0  0  0  0  0  0  0
   -7.9854   -3.1812    0.6815 S   0  0  0  0  0  0  0  0  0  0  0  0
   -6.5801   -3.8148    0.7340 O   0  0  0  0  0  0  0  0  0  0  0  0
   -8.1957   -2.3107    1.8587 O   0  0  0  0  0  0  0  0  0  0  0  0
   -8.2142   -2.5657   -0.6475 O   0  0  0  0  0  0  0  0  0  0  0  0
  -11.7154   -7.9849    1.1591 C   0  0  0  0  0  0  0  0  0  0  0  0
  -11.6894   -8.4212    2.1617 H   0  0  0  0  0  0  0  0  0  0  0  0
  -12.7519   -7.6844    0.9598 H   0  0  0  0  0  0  0  0  0  0  0  0
  -11.4630   -8.7695    0.4390 H   0  0  0  0  0  0  0  0  0  0  0  0
  1  4  1  0  0  0  0
  1  2  1  0  0  0  0
  2  3  2  0  0  0  0
  4 12  1  0  0  0  0
  5 13  1  0  0  0  0
  5  4  2  0  0  0  0
  6  5  1  0  0  0  0
  7  8  2  0  0  0  0
  7  6  1  0  0  0  0
  9  7  2  0  0  0  0
 10  6  2  0  0  0  0
 10 11  1  0  0  0  0
 11  1  2  0  0  0  0
 14 10  1  0  0  0  0
 15 11  1  0  0  0  0
 16 17  1  0  0  0  0
 16 22  1  0  0  0  0
 17 23  1  0  0  0  0
 18 30  1  0  0  0  0
 18 17  2  0  0  0  0
 19 18  1  0  0  0  0
 20 19  2  0  0  0  0
 20 21  1  0  0  0  0
 21 16  2  0  0  0  0
 24 19  1  0  0  0  0
 25 20  1  0  0  0  0
 26 27  2  0  0  0  0
 26 21  1  0  0  0  0
 26 28  1  0  0  0  0
 29 26  2  0  0  0  0
 30 31  1  0  0  0  0
 32 30  1  0  0  0  0
 33 30  1  0  0  0  0
M  RAD  2   3   2  28   2
M  END
