Coordinates from ORCA-job 4-NO2PhN2+~TsO-_B3LYPG-6-31G_dp-NX-Scan-d89-09-n800
 OpenBabel11261920283D

 33 33  0  0  0  0  0  0  0  0999 V2000
   -4.8140   -0.6429    0.7799 C   0  0  0  0  0  0  0  0  0  0  0  0
   -5.3657    0.4090    1.4628 N   0  0  0  0  0  0  0  0  0  0  0  0
   -5.7585    1.2773    2.0551 N   0  0  0  0  0  0  0  0  0  0  0  0
   -3.4205   -0.8469    0.9676 C   0  0  0  0  0  0  0  0  0  0  0  0
   -2.8351   -1.8878    0.2818 C   0  0  0  0  0  0  0  0  0  0  0  0
   -3.6397   -2.6957   -0.5389 C   0  0  0  0  0  0  0  0  0  0  0  0
   -2.9790   -3.8276   -1.2364 N   0  0  0  0  0  0  0  0  0  0  0  0
   -1.7712   -3.9656   -1.0429 O   0  0  0  0  0  0  0  0  0  0  0  0
   -3.6791   -4.5359   -1.9452 O   0  0  0  0  0  0  0  0  0  0  0  0
   -5.0040   -2.4999   -0.7146 C   0  0  0  0  0  0  0  0  0  0  0  0
   -5.6270   -1.4337   -0.0594 C   0  0  0  0  0  0  0  0  0  0  0  0
   -2.8494   -0.2063    1.6298 H   0  0  0  0  0  0  0  0  0  0  0  0
   -1.7785   -2.1051    0.3720 H   0  0  0  0  0  0  0  0  0  0  0  0
   -5.6289   -3.1358   -1.3488 H   0  0  0  0  0  0  0  0  0  0  0  0
   -6.7108   -1.2957   -0.1906 H   0  0  0  0  0  0  0  0  0  0  0  0
   -9.7836   -4.5103    0.7646 C   0  0  0  0  0  0  0  0  0  0  0  0
  -10.0912   -5.6730    1.4680 C   0  0  0  0  0  0  0  0  0  0  0  0
   -9.6470   -6.9276    1.0251 C   0  0  0  0  0  0  0  0  0  0  0  0
   -8.8835   -6.9839   -0.1483 C   0  0  0  0  0  0  0  0  0  0  0  0
   -8.5684   -5.8270   -0.8611 C   0  0  0  0  0  0  0  0  0  0  0  0
   -9.0198   -4.5892   -0.4021 C   0  0  0  0  0  0  0  0  0  0  0  0
  -10.1246   -3.5421    1.1154 H   0  0  0  0  0  0  0  0  0  0  0  0
  -10.6860   -5.6076    2.3763 H   0  0  0  0  0  0  0  0  0  0  0  0
   -8.5313   -7.9468   -0.5104 H   0  0  0  0  0  0  0  0  0  0  0  0
   -7.9727   -5.8718   -1.7664 H   0  0  0  0  0  0  0  0  0  0  0  0
   -8.6765   -3.1002   -1.3552 S   0  0  0  0  0  0  0  0  0  0  0  0
   -8.4400   -2.0345   -0.3096 O   0  0  0  0  0  0  0  0  0  0  0  0
   -9.8619   -2.8474   -2.1997 O   0  0  0  0  0  0  0  0  0  0  0  0
   -7.4259   -3.3989   -2.1202 O   0  0  0  0  0  0  0  0  0  0  0  0
   -9.9607   -8.1805    1.8087 C   0  0  0  0  0  0  0  0  0  0  0  0
   -9.2154   -8.3570    2.5949 H   0  0  0  0  0  0  0  0  0  0  0  0
  -10.9369   -8.1122    2.2988 H   0  0  0  0  0  0  0  0  0  0  0  0
   -9.9678   -9.0643    1.1637 H   0  0  0  0  0  0  0  0  0  0  0  0
  1  4  1  0  0  0  0
  1  2  1  0  0  0  0
  2  3  1  0  0  0  0
  4 12  1  0  0  0  0
  5 13  1  0  0  0  0
  5  4  2  0  0  0  0
  6  5  1  0  0  0  0
  7  8  2  0  0  0  0
  7  6  1  0  0  0  0
  9  7  2  0  0  0  0
 10  6  2  0  0  0  0
 10 11  1  0  0  0  0
 11  1  2  0  0  0  0
 14 10  1  0  0  0  0
 15 11  1  0  0  0  0
 16 22  1  0  0  0  0
 16 17  2  0  0  0  0
 17 23  1  0  0  0  0
 18 17  1  0  0  0  0
 18 30  1  0  0  0  0
 19 18  2  0  0  0  0
 20 21  2  0  0  0  0
 20 19  1  0  0  0  0
 21 16  1  0  0  0  0
 24 19  1  0  0  0  0
 25 20  1  0  0  0  0
 26 21  1  0  0  0  0
 26 27  1  0  0  0  0
 28 26  2  0  0  0  0
 29 26  2  0  0  0  0
 30 32  1  0  0  0  0
 30 31  1  0  0  0  0
 33 30  1  0  0  0  0
M  RAD  3   2   2   3   3  27   2
M  END
