Coordinates from ORCA-job 4-NO2PhN2+~TsO-_B3LYPG-6-31G_dp-NX-Scan-d89-09-n800
 OpenBabel11261920283D

 33 33  0  0  0  0  0  0  0  0999 V2000
   -4.2200   -2.7500    0.3333 C   0  0  0  0  0  0  0  0  0  0  0  0
   -4.8769   -3.4745    1.3759 N   0  0  0  0  0  0  0  0  0  0  0  0
   -4.8999   -3.6812    2.4827 N   0  0  0  0  0  0  0  0  0  0  0  0
   -3.2677   -1.8152    0.7722 C   0  0  0  0  0  0  0  0  0  0  0  0
   -2.5783   -1.0833   -0.1823 C   0  0  0  0  0  0  0  0  0  0  0  0
   -2.8579   -1.3135   -1.5301 C   0  0  0  0  0  0  0  0  0  0  0  0
   -2.1132   -0.5326   -2.5454 N   0  0  0  0  0  0  0  0  0  0  0  0
   -1.2953    0.2853   -2.1330 O   0  0  0  0  0  0  0  0  0  0  0  0
   -2.3634   -0.7603   -3.7243 O   0  0  0  0  0  0  0  0  0  0  0  0
   -3.8024   -2.2399   -1.9580 C   0  0  0  0  0  0  0  0  0  0  0  0
   -4.5072   -2.9797   -1.0100 C   0  0  0  0  0  0  0  0  0  0  0  0
   -3.0869   -1.6687    1.8308 H   0  0  0  0  0  0  0  0  0  0  0  0
   -1.8370   -0.3444    0.0946 H   0  0  0  0  0  0  0  0  0  0  0  0
   -3.9859   -2.3714   -3.0169 H   0  0  0  0  0  0  0  0  0  0  0  0
   -5.2691   -3.6982   -1.2818 H   0  0  0  0  0  0  0  0  0  0  0  0
   -9.3436   -4.9736    1.9272 C   0  0  0  0  0  0  0  0  0  0  0  0
  -10.3855   -5.8534    2.2128 C   0  0  0  0  0  0  0  0  0  0  0  0
  -11.0346   -6.5646    1.1932 C   0  0  0  0  0  0  0  0  0  0  0  0
  -10.6097   -6.3716   -0.1292 C   0  0  0  0  0  0  0  0  0  0  0  0
   -9.5699   -5.4944   -0.4316 C   0  0  0  0  0  0  0  0  0  0  0  0
   -8.9408   -4.8004    0.6024 C   0  0  0  0  0  0  0  0  0  0  0  0
   -8.8542   -4.4119    2.7154 H   0  0  0  0  0  0  0  0  0  0  0  0
  -10.7048   -5.9868    3.2433 H   0  0  0  0  0  0  0  0  0  0  0  0
  -11.1031   -6.9114   -0.9334 H   0  0  0  0  0  0  0  0  0  0  0  0
   -9.2520   -5.3324   -1.4557 H   0  0  0  0  0  0  0  0  0  0  0  0
   -7.5879   -3.6878    0.2262 S   0  0  0  0  0  0  0  0  0  0  0  0
   -6.3341   -4.5957    0.3716 O   0  0  0  0  0  0  0  0  0  0  0  0
   -7.5547   -2.6351    1.2643 O   0  0  0  0  0  0  0  0  0  0  0  0
   -7.7427   -3.2528   -1.1760 O   0  0  0  0  0  0  0  0  0  0  0  0
  -12.1872   -7.4883    1.5076 C   0  0  0  0  0  0  0  0  0  0  0  0
  -12.1168   -7.8853    2.5244 H   0  0  0  0  0  0  0  0  0  0  0  0
  -13.1461   -6.9603    1.4299 H   0  0  0  0  0  0  0  0  0  0  0  0
  -12.2257   -8.3338    0.8144 H   0  0  0  0  0  0  0  0  0  0  0  0
  1  4  1  0  0  0  0
  1  2  1  0  0  0  0
  2  3  2  0  0  0  0
  4 12  1  0  0  0  0
  5 13  1  0  0  0  0
  5  4  2  0  0  0  0
  6  5  1  0  0  0  0
  7  8  2  0  0  0  0
  7  6  1  0  0  0  0
  9  7  2  0  0  0  0
 10  6  2  0  0  0  0
 10 11  1  0  0  0  0
 11  1  2  0  0  0  0
 14 10  1  0  0  0  0
 15 11  1  0  0  0  0
 16 17  1  0  0  0  0
 16 22  1  0  0  0  0
 17 23  1  0  0  0  0
 18 30  1  0  0  0  0
 18 17  2  0  0  0  0
 19 18  1  0  0  0  0
 20 19  2  0  0  0  0
 20 21  1  0  0  0  0
 21 16  2  0  0  0  0
 24 19  1  0  0  0  0
 25 20  1  0  0  0  0
 26 27  2  0  0  0  0
 26 21  1  0  0  0  0
 26 28  1  0  0  0  0
 29 26  2  0  0  0  0
 30 31  1  0  0  0  0
 32 30  1  0  0  0  0
 33 30  1  0  0  0  0
M  RAD  2   3   2  28   2
M  END
