Coordinates from ORCA-job 4-NO2PhN2+~TsO-_B3LYPG-6-31G_dp-NX-Scan-d89-09-n800
 OpenBabel11261920283D

 33 33  0  0  0  0  0  0  0  0999 V2000
   -4.7498   -0.6877    0.6145 C   0  0  0  0  0  0  0  0  0  0  0  0
   -5.5900    0.1746    1.2772 N   0  0  0  0  0  0  0  0  0  0  0  0
   -6.2825    0.8603    1.8256 N   0  0  0  0  0  0  0  0  0  0  0  0
   -3.3586   -0.4211    0.6295 C   0  0  0  0  0  0  0  0  0  0  0  0
   -2.5514   -1.3110   -0.0477 C   0  0  0  0  0  0  0  0  0  0  0  0
   -3.1405   -2.4129   -0.6931 C   0  0  0  0  0  0  0  0  0  0  0  0
   -2.2346   -3.3531   -1.4012 N   0  0  0  0  0  0  0  0  0  0  0  0
   -1.0335   -3.0900   -1.3768 O   0  0  0  0  0  0  0  0  0  0  0  0
   -2.7481   -4.3170   -1.9523 O   0  0  0  0  0  0  0  0  0  0  0  0
   -4.5065   -2.6642   -0.6992 C   0  0  0  0  0  0  0  0  0  0  0  0
   -5.3546   -1.7756   -0.0362 C   0  0  0  0  0  0  0  0  0  0  0  0
   -2.9534    0.4401    1.1480 H   0  0  0  0  0  0  0  0  0  0  0  0
   -1.4771   -1.1836   -0.0911 H   0  0  0  0  0  0  0  0  0  0  0  0
   -4.9558   -3.5077   -1.2140 H   0  0  0  0  0  0  0  0  0  0  0  0
   -6.4506   -1.9233   -0.0069 H   0  0  0  0  0  0  0  0  0  0  0  0
   -9.8761   -4.6312    1.0076 C   0  0  0  0  0  0  0  0  0  0  0  0
  -10.3981   -5.7956    1.5670 C   0  0  0  0  0  0  0  0  0  0  0  0
  -10.1237   -7.0537    1.0111 C   0  0  0  0  0  0  0  0  0  0  0  0
   -9.3094   -7.1120   -0.1279 C   0  0  0  0  0  0  0  0  0  0  0  0
   -8.7805   -5.9539   -0.6968 C   0  0  0  0  0  0  0  0  0  0  0  0
   -9.0662   -4.7127   -0.1270 C   0  0  0  0  0  0  0  0  0  0  0  0
  -10.0847   -3.6613    1.4460 H   0  0  0  0  0  0  0  0  0  0  0  0
  -11.0279   -5.7287    2.4513 H   0  0  0  0  0  0  0  0  0  0  0  0
   -9.0860   -8.0775   -0.5755 H   0  0  0  0  0  0  0  0  0  0  0  0
   -8.1444   -6.0012   -1.5742 H   0  0  0  0  0  0  0  0  0  0  0  0
   -8.4437   -3.2112   -0.9000 S   0  0  0  0  0  0  0  0  0  0  0  0
   -8.1535   -2.2824    0.2605 O   0  0  0  0  0  0  0  0  0  0  0  0
   -9.5032   -2.7062   -1.7944 O   0  0  0  0  0  0  0  0  0  0  0  0
   -7.1791   -3.6121   -1.5908 O   0  0  0  0  0  0  0  0  0  0  0  0
  -10.6677   -8.3140    1.6424 C   0  0  0  0  0  0  0  0  0  0  0  0
  -10.0018   -8.6828    2.4333 H   0  0  0  0  0  0  0  0  0  0  0  0
  -11.6471   -8.1420    2.0993 H   0  0  0  0  0  0  0  0  0  0  0  0
  -10.7744   -9.1165    0.9062 H   0  0  0  0  0  0  0  0  0  0  0  0
  1  4  1  0  0  0  0
  1  2  1  0  0  0  0
  2  3  1  0  0  0  0
  4 12  1  0  0  0  0
  5  4  2  0  0  0  0
  6  5  1  0  0  0  0
  7  8  2  0  0  0  0
  7  6  1  0  0  0  0
  9  7  2  0  0  0  0
 10  6  2  0  0  0  0
 10 11  1  0  0  0  0
 11 15  1  0  0  0  0
 11  1  2  0  0  0  0
 13  5  1  0  0  0  0
 14 10  1  0  0  0  0
 16 22  1  0  0  0  0
 16 17  1  0  0  0  0
 17 23  1  0  0  0  0
 18 17  2  0  0  0  0
 18 30  1  0  0  0  0
 19 18  1  0  0  0  0
 20 19  2  0  0  0  0
 20 21  1  0  0  0  0
 21 16  2  0  0  0  0
 24 19  1  0  0  0  0
 25 20  1  0  0  0  0
 26 21  1  0  0  0  0
 26 27  1  0  0  0  0
 28 26  2  0  0  0  0
 29 26  2  0  0  0  0
 30 32  1  0  0  0  0
 30 31  1  0  0  0  0
 33 30  1  0  0  0  0
M  RAD  3   2   2   3   3  27   2
M  END
