Coordinates from ORCA-job 4-NO2PhN2+~TsO-_B3LYPG-6-31G_dp-NX-Scan-d89-09-n800
 OpenBabel11261920283D

 33 33  0  0  0  0  0  0  0  0999 V2000
   -4.6641   -0.8429    1.2139 C   0  0  0  0  0  0  0  0  0  0  0  0
   -5.1226   -0.1331    2.2959 N   0  0  0  0  0  0  0  0  0  0  0  0
   -5.3908    0.4641    3.2089 N   0  0  0  0  0  0  0  0  0  0  0  0
   -3.2500   -0.8684    1.0760 C   0  0  0  0  0  0  0  0  0  0  0  0
   -2.7263   -1.5726    0.0141 C   0  0  0  0  0  0  0  0  0  0  0  0
   -3.6054   -2.2144   -0.8695 C   0  0  0  0  0  0  0  0  0  0  0  0
   -2.9952   -2.9487   -2.0083 N   0  0  0  0  0  0  0  0  0  0  0  0
   -1.7877   -3.1789   -1.9253 O   0  0  0  0  0  0  0  0  0  0  0  0
   -3.7298   -3.2545   -2.9328 O   0  0  0  0  0  0  0  0  0  0  0  0
   -4.9914   -2.1986   -0.7393 C   0  0  0  0  0  0  0  0  0  0  0  0
   -5.5545   -1.4938    0.3278 C   0  0  0  0  0  0  0  0  0  0  0  0
   -2.6160   -0.3521    1.7875 H   0  0  0  0  0  0  0  0  0  0  0  0
   -1.6580   -1.6459   -0.1476 H   0  0  0  0  0  0  0  0  0  0  0  0
   -5.6555   -2.7649   -1.4147 H   0  0  0  0  0  0  0  0  0  0  0  0
   -6.6433   -1.5000    0.4185 H   0  0  0  0  0  0  0  0  0  0  0  0
  -10.0123   -4.6346    0.2791 C   0  0  0  0  0  0  0  0  0  0  0  0
  -10.5482   -5.6290    1.0941 C   0  0  0  0  0  0  0  0  0  0  0  0
   -9.9723   -6.9071    1.1523 C   0  0  0  0  0  0  0  0  0  0  0  0
   -8.8381   -7.1612    0.3658 C   0  0  0  0  0  0  0  0  0  0  0  0
   -8.2935   -6.1742   -0.4531 C   0  0  0  0  0  0  0  0  0  0  0  0
   -8.8820   -4.9078   -0.4977 C   0  0  0  0  0  0  0  0  0  0  0  0
  -10.4602   -3.6469    0.2412 H   0  0  0  0  0  0  0  0  0  0  0  0
  -11.4306   -5.4152    1.6927 H   0  0  0  0  0  0  0  0  0  0  0  0
   -8.3791   -8.1472    0.3942 H   0  0  0  0  0  0  0  0  0  0  0  0
   -7.4161   -6.3649   -1.0615 H   0  0  0  0  0  0  0  0  0  0  0  0
   -8.2288   -3.6384   -1.5971 S   0  0  0  0  0  0  0  0  0  0  0  0
   -8.1877   -2.3976   -0.7420 O   0  0  0  0  0  0  0  0  0  0  0  0
   -9.1646   -3.5694   -2.7416 O   0  0  0  0  0  0  0  0  0  0  0  0
   -6.8468   -4.1036   -1.9455 O   0  0  0  0  0  0  0  0  0  0  0  0
  -10.5418   -7.9781    2.0518 C   0  0  0  0  0  0  0  0  0  0  0  0
   -9.9365   -8.1006    2.9589 H   0  0  0  0  0  0  0  0  0  0  0  0
  -11.5600   -7.7357    2.3682 H   0  0  0  0  0  0  0  0  0  0  0  0
  -10.5658   -8.9508    1.5494 H   0  0  0  0  0  0  0  0  0  0  0  0
  1  2  1  0  0  0  0
  2  3  1  0  0  0  0
  4  1  1  0  0  0  0
  4 12  1  0  0  0  0
  5  4  2  0  0  0  0
  6 10  2  0  0  0  0
  6  5  1  0  0  0  0
  7  8  2  0  0  0  0
  7  6  1  0  0  0  0
  9  7  2  0  0  0  0
 10 11  1  0  0  0  0
 11 15  1  0  0  0  0
 11  1  2  0  0  0  0
 13  5  1  0  0  0  0
 14 10  1  0  0  0  0
 16 17  2  0  0  0  0
 17 18  1  0  0  0  0
 17 23  1  0  0  0  0
 18 30  1  0  0  0  0
 19 24  1  0  0  0  0
 19 18  2  0  0  0  0
 20 19  1  0  0  0  0
 21 20  2  0  0  0  0
 21 16  1  0  0  0  0
 22 16  1  0  0  0  0
 25 20  1  0  0  0  0
 26 27  1  0  0  0  0
 26 21  1  0  0  0  0
 28 26  2  0  0  0  0
 29 26  2  0  0  0  0
 30 32  1  0  0  0  0
 30 31  1  0  0  0  0
 33 30  1  0  0  0  0
M  RAD  3   2   2   3   3  27   2
M  END
