Coordinates from ORCA-job 4-NO2PhN2+~TsO-_B3LYPG-6-31G_dp-NX-Scan-d89-09-n800
 OpenBabel11261920283D

 33 33  0  0  0  0  0  0  0  0999 V2000
   -5.6835   -2.3201    0.0348 C   0  0  0  0  0  0  0  0  0  0  0  0
   -7.0708   -2.3962    0.3752 N   0  0  0  0  0  0  0  0  0  0  0  0
   -7.8195   -2.3900    1.2220 N   0  0  0  0  0  0  0  0  0  0  0  0
   -4.8427   -1.8073    1.0335 C   0  0  0  0  0  0  0  0  0  0  0  0
   -3.4813   -1.7330    0.7729 C   0  0  0  0  0  0  0  0  0  0  0  0
   -3.0141   -2.1850   -0.4611 C   0  0  0  0  0  0  0  0  0  0  0  0
   -1.5600   -2.1075   -0.7333 N   0  0  0  0  0  0  0  0  0  0  0  0
   -0.8483   -1.6433    0.1535 O   0  0  0  0  0  0  0  0  0  0  0  0
   -1.1700   -2.5131   -1.8231 O   0  0  0  0  0  0  0  0  0  0  0  0
   -3.8529   -2.7046   -1.4428 C   0  0  0  0  0  0  0  0  0  0  0  0
   -5.2247   -2.7715   -1.2027 C   0  0  0  0  0  0  0  0  0  0  0  0
   -5.2528   -1.4718    1.9789 H   0  0  0  0  0  0  0  0  0  0  0  0
   -2.7840   -1.3371    1.4998 H   0  0  0  0  0  0  0  0  0  0  0  0
   -3.4345   -3.0441   -2.3816 H   0  0  0  0  0  0  0  0  0  0  0  0
   -5.9151   -3.1628   -1.9430 H   0  0  0  0  0  0  0  0  0  0  0  0
  -10.1205   -4.2778    0.2421 C   0  0  0  0  0  0  0  0  0  0  0  0
  -10.4024   -5.0962    1.3345 C   0  0  0  0  0  0  0  0  0  0  0  0
   -9.6206   -6.2263    1.6166 C   0  0  0  0  0  0  0  0  0  0  0  0
   -8.5410   -6.5171    0.7704 C   0  0  0  0  0  0  0  0  0  0  0  0
   -8.2444   -5.7059   -0.3249 C   0  0  0  0  0  0  0  0  0  0  0  0
   -9.0333   -4.5835   -0.5821 C   0  0  0  0  0  0  0  0  0  0  0  0
  -10.7427   -3.4190    0.0141 H   0  0  0  0  0  0  0  0  0  0  0  0
  -11.2482   -4.8598    1.9753 H   0  0  0  0  0  0  0  0  0  0  0  0
   -7.9309   -7.3955    0.9651 H   0  0  0  0  0  0  0  0  0  0  0  0
   -7.4248   -5.9435   -0.9950 H   0  0  0  0  0  0  0  0  0  0  0  0
   -8.6608   -3.5173   -1.9804 S   0  0  0  0  0  0  0  0  0  0  0  0
   -7.9484   -2.2645   -1.3865 O   0  0  0  0  0  0  0  0  0  0  0  0
   -9.9486   -3.0750   -2.5140 O   0  0  0  0  0  0  0  0  0  0  0  0
   -7.7150   -4.2668   -2.8328 O   0  0  0  0  0  0  0  0  0  0  0  0
   -9.9587   -7.1273    2.7804 C   0  0  0  0  0  0  0  0  0  0  0  0
  -10.3788   -6.5610    3.6171 H   0  0  0  0  0  0  0  0  0  0  0  0
  -10.7042   -7.8782    2.4907 H   0  0  0  0  0  0  0  0  0  0  0  0
   -9.0772   -7.6652    3.1409 H   0  0  0  0  0  0  0  0  0  0  0  0
  1  2  1  0  0  0  0
  1  4  2  0  0  0  0
  2  3  2  0  0  0  0
  4 12  1  0  0  0  0
  5  4  1  0  0  0  0
  5 13  1  0  0  0  0
  6  5  2  0  0  0  0
  7  6  1  0  0  0  0
  7  8  2  0  0  0  0
  9  7  2  0  0  0  0
 10 11  2  0  0  0  0
 10  6  1  0  0  0  0
 11  1  1  0  0  0  0
 14 10  1  0  0  0  0
 15 11  1  0  0  0  0
 16 17  2  0  0  0  0
 17 18  1  0  0  0  0
 17 23  1  0  0  0  0
 18 30  1  0  0  0  0
 19 24  1  0  0  0  0
 19 18  2  0  0  0  0
 20 19  1  0  0  0  0
 21 20  2  0  0  0  0
 21 16  1  0  0  0  0
 22 16  1  0  0  0  0
 25 20  1  0  0  0  0
 26 27  1  0  0  0  0
 26 21  1  0  0  0  0
 28 26  2  0  0  0  0
 29 26  2  0  0  0  0
 30 33  1  0  0  0  0
 30 31  1  0  0  0  0
 32 30  1  0  0  0  0
M  RAD  2   3   2  27   2
M  END
