Coordinates from ORCA-job 4-NO2PhN2+~TsO-_B3LYPG-6-31G_dp-NX-Scan-d89-09-n800
 OpenBabel11261920283D

 33 34  0  0  0  0  0  0  0  0999 V2000
   -4.4719   -2.6981    0.3068 C   0  0  0  0  0  0  0  0  0  0  0  0
   -5.0660   -3.6285    1.1922 N   0  0  0  0  0  0  0  0  0  0  0  0
   -5.7633   -4.5911    1.0763 N   0  0  0  0  0  0  0  0  0  0  0  0
   -3.8881   -1.6017    0.9633 C   0  0  0  0  0  0  0  0  0  0  0  0
   -3.2528   -0.6060    0.2328 C   0  0  0  0  0  0  0  0  0  0  0  0
   -3.1976   -0.7409   -1.1525 C   0  0  0  0  0  0  0  0  0  0  0  0
   -2.5203    0.3098   -1.9408 N   0  0  0  0  0  0  0  0  0  0  0  0
   -2.0358    1.2545   -1.3219 O   0  0  0  0  0  0  0  0  0  0  0  0
   -2.4875    0.1691   -3.1605 O   0  0  0  0  0  0  0  0  0  0  0  0
   -3.7534   -1.8288   -1.8224 C   0  0  0  0  0  0  0  0  0  0  0  0
   -4.4041   -2.8202   -1.0943 C   0  0  0  0  0  0  0  0  0  0  0  0
   -3.9467   -1.5507    2.0449 H   0  0  0  0  0  0  0  0  0  0  0  0
   -2.8006    0.2550    0.7077 H   0  0  0  0  0  0  0  0  0  0  0  0
   -3.6765   -1.8855   -2.9012 H   0  0  0  0  0  0  0  0  0  0  0  0
   -4.8477   -3.6699   -1.5907 H   0  0  0  0  0  0  0  0  0  0  0  0
   -8.6312   -6.4697    1.5239 C   0  0  0  0  0  0  0  0  0  0  0  0
   -9.8693   -6.2773    2.1341 C   0  0  0  0  0  0  0  0  0  0  0  0
  -10.9533   -5.7409    1.4248 C   0  0  0  0  0  0  0  0  0  0  0  0
  -10.7707   -5.4077    0.0739 C   0  0  0  0  0  0  0  0  0  0  0  0
   -9.5417   -5.5919   -0.5541 C   0  0  0  0  0  0  0  0  0  0  0  0
   -8.4784   -6.1186    0.1822 C   0  0  0  0  0  0  0  0  0  0  0  0
   -7.7973   -6.8985    2.0680 H   0  0  0  0  0  0  0  0  0  0  0  0
   -9.9982   -6.5565    3.1762 H   0  0  0  0  0  0  0  0  0  0  0  0
  -11.6051   -5.0068   -0.4955 H   0  0  0  0  0  0  0  0  0  0  0  0
   -9.4062   -5.3514   -1.6027 H   0  0  0  0  0  0  0  0  0  0  0  0
   -6.8995   -6.3582   -0.6139 S   0  0  0  0  0  0  0  0  0  0  0  0
   -6.1330   -7.3389    0.1470 O   0  0  0  0  0  0  0  0  0  0  0  0
   -6.1753   -4.8887   -0.4734 O   0  0  0  0  0  0  0  0  0  0  0  0
   -7.1052   -6.4901   -2.0534 O   0  0  0  0  0  0  0  0  0  0  0  0
  -12.2833   -5.5110    2.1008 C   0  0  0  0  0  0  0  0  0  0  0  0
  -12.4166   -6.1745    2.9593 H   0  0  0  0  0  0  0  0  0  0  0  0
  -12.3619   -4.4802    2.4677 H   0  0  0  0  0  0  0  0  0  0  0  0
  -13.1162   -5.6732    1.4101 H   0  0  0  0  0  0  0  0  0  0  0  0
  1  4  1  0  0  0  0
  1  2  1  0  0  0  0
  3  2  1  0  0  0  0
  4 12  1  0  0  0  0
  5 13  1  0  0  0  0
  5  4  2  0  0  0  0
  6  5  1  0  0  0  0
  7  8  2  0  0  0  0
  7  6  1  0  0  0  0
  9  7  2  0  0  0  0
 10  6  2  0  0  0  0
 10 11  1  0  0  0  0
 11  1  2  0  0  0  0
 14 10  1  0  0  0  0
 15 11  1  0  0  0  0
 16 22  1  0  0  0  0
 16 17  1  0  0  0  0
 17 23  1  0  0  0  0
 18 30  1  0  0  0  0
 18 17  2  0  0  0  0
 19 18  1  0  0  0  0
 20 19  2  0  0  0  0
 20 21  1  0  0  0  0
 21 16  2  0  0  0  0
 24 19  1  0  0  0  0
 25 20  1  0  0  0  0
 26 28  1  0  0  0  0
 26 27  2  0  0  0  0
 26 21  1  0  0  0  0
 28  3  1  0  0  0  0
 29 26  2  0  0  0  0
 30 32  1  0  0  0  0
 30 31  1  0  0  0  0
 33 30  1  0  0  0  0
M  RAD  2   2   2   3   2
M  END
