Coordinates from ORCA-job 4-NO2PhN2+~TsO-_B3LYPG-6-31G_dp-NX-Scan-d89-09-n800
 OpenBabel11261920283D

 33 33  0  0  0  0  0  0  0  0999 V2000
   -4.6034   -2.4624    0.4862 C   0  0  0  0  0  0  0  0  0  0  0  0
   -5.4852   -3.0807    1.4148 N   0  0  0  0  0  0  0  0  0  0  0  0
   -5.7171   -3.4212    2.4614 N   0  0  0  0  0  0  0  0  0  0  0  0
   -3.8877   -1.3608    0.9771 C   0  0  0  0  0  0  0  0  0  0  0  0
   -2.9705   -0.7578    0.1267 C   0  0  0  0  0  0  0  0  0  0  0  0
   -2.7980   -1.2875   -1.1516 C   0  0  0  0  0  0  0  0  0  0  0  0
   -1.8067   -0.6451   -2.0466 N   0  0  0  0  0  0  0  0  0  0  0  0
   -1.2056    0.3312   -1.6067 O   0  0  0  0  0  0  0  0  0  0  0  0
   -1.6548   -1.1365   -3.1596 O   0  0  0  0  0  0  0  0  0  0  0  0
   -3.5130   -2.3862   -1.6223 C   0  0  0  0  0  0  0  0  0  0  0  0
   -4.4563   -2.9908   -0.7956 C   0  0  0  0  0  0  0  0  0  0  0  0
   -4.0539   -0.9898    1.9816 H   0  0  0  0  0  0  0  0  0  0  0  0
   -2.3920    0.1036    0.4353 H   0  0  0  0  0  0  0  0  0  0  0  0
   -3.3419   -2.7470   -2.6282 H   0  0  0  0  0  0  0  0  0  0  0  0
   -5.0767   -3.8280   -1.1240 H   0  0  0  0  0  0  0  0  0  0  0  0
   -9.7163   -4.4135    0.9646 C   0  0  0  0  0  0  0  0  0  0  0  0
  -10.6400   -5.1880    1.6654 C   0  0  0  0  0  0  0  0  0  0  0  0
  -10.7868   -6.5569    1.4030 C   0  0  0  0  0  0  0  0  0  0  0  0
   -9.9693   -7.1363    0.4217 C   0  0  0  0  0  0  0  0  0  0  0  0
   -9.0405   -6.3751   -0.2852 C   0  0  0  0  0  0  0  0  0  0  0  0
   -8.9169   -5.0119   -0.0104 C   0  0  0  0  0  0  0  0  0  0  0  0
   -9.6015   -3.3563    1.1781 H   0  0  0  0  0  0  0  0  0  0  0  0
  -11.2570   -4.7217    2.4298 H   0  0  0  0  0  0  0  0  0  0  0  0
  -10.0607   -8.1989    0.2093 H   0  0  0  0  0  0  0  0  0  0  0  0
   -8.4006   -6.8282   -1.0347 H   0  0  0  0  0  0  0  0  0  0  0  0
   -7.7723   -4.0188   -0.9752 S   0  0  0  0  0  0  0  0  0  0  0  0
   -7.2558   -2.9621    0.0191 O   0  0  0  0  0  0  0  0  0  0  0  0
   -8.5311   -3.4042   -2.0835 O   0  0  0  0  0  0  0  0  0  0  0  0
   -6.6694   -4.9402   -1.3688 O   0  0  0  0  0  0  0  0  0  0  0  0
  -11.8125   -7.3849    2.1414 C   0  0  0  0  0  0  0  0  0  0  0  0
  -12.1059   -6.9131    3.0832 H   0  0  0  0  0  0  0  0  0  0  0  0
  -12.7222   -7.5119    1.5414 H   0  0  0  0  0  0  0  0  0  0  0  0
  -11.4332   -8.3862    2.3671 H   0  0  0  0  0  0  0  0  0  0  0  0
  1  4  1  0  0  0  0
  1  2  1  0  0  0  0
  2  3  2  0  0  0  0
  4 12  1  0  0  0  0
  5 13  1  0  0  0  0
  5  4  2  0  0  0  0
  6  5  1  0  0  0  0
  7  8  2  0  0  0  0
  7  6  1  0  0  0  0
  9  7  2  0  0  0  0
 10  6  2  0  0  0  0
 10 11  1  0  0  0  0
 11  1  2  0  0  0  0
 14 10  1  0  0  0  0
 15 11  1  0  0  0  0
 16 22  1  0  0  0  0
 16 17  2  0  0  0  0
 17 23  1  0  0  0  0
 18 17  1  0  0  0  0
 18 30  1  0  0  0  0
 19 18  2  0  0  0  0
 20 21  2  0  0  0  0
 20 19  1  0  0  0  0
 21 16  1  0  0  0  0
 24 19  1  0  0  0  0
 25 20  1  0  0  0  0
 26 21  1  0  0  0  0
 26 27  1  0  0  0  0
 28 26  2  0  0  0  0
 29 26  2  0  0  0  0
 30 33  1  0  0  0  0
 30 31  1  0  0  0  0
 32 30  1  0  0  0  0
M  RAD  2   3   2  27   2
M  END
