Coordinates from ORCA-job 4-NO2PhN2+~TsO-_B3LYPG-6-31G_dp-NX-Scan-d89-09-n800
 OpenBabel11261920283D

 33 33  0  0  0  0  0  0  0  0999 V2000
   -5.2167   -2.6050    0.0307 C   0  0  0  0  0  0  0  0  0  0  0  0
   -6.4551   -3.1472    0.4910 N   0  0  0  0  0  0  0  0  0  0  0  0
   -7.0003   -3.6465    1.3459 N   0  0  0  0  0  0  0  0  0  0  0  0
   -4.4165   -1.9806    0.9947 C   0  0  0  0  0  0  0  0  0  0  0  0
   -3.1891   -1.4679    0.5925 C   0  0  0  0  0  0  0  0  0  0  0  0
   -2.8098   -1.6164   -0.7406 C   0  0  0  0  0  0  0  0  0  0  0  0
   -1.4982   -1.0733   -1.1616 N   0  0  0  0  0  0  0  0  0  0  0  0
   -0.8210   -0.5144   -0.3026 O   0  0  0  0  0  0  0  0  0  0  0  0
   -1.1793   -1.2211   -2.3370 O   0  0  0  0  0  0  0  0  0  0  0  0
   -3.6078   -2.2526   -1.6893 C   0  0  0  0  0  0  0  0  0  0  0  0
   -4.8497   -2.7530   -1.3067 C   0  0  0  0  0  0  0  0  0  0  0  0
   -4.7543   -1.8923    2.0208 H   0  0  0  0  0  0  0  0  0  0  0  0
   -2.5288   -0.9634    1.2860 H   0  0  0  0  0  0  0  0  0  0  0  0
   -3.2576   -2.3436   -2.7095 H   0  0  0  0  0  0  0  0  0  0  0  0
   -5.5150   -3.2590   -1.9989 H   0  0  0  0  0  0  0  0  0  0  0  0
  -10.0728   -4.2668    0.3819 C   0  0  0  0  0  0  0  0  0  0  0  0
  -10.6535   -5.0282    1.3905 C   0  0  0  0  0  0  0  0  0  0  0  0
  -10.1971   -6.3260    1.6761 C   0  0  0  0  0  0  0  0  0  0  0  0
   -9.1364   -6.8398    0.9203 C   0  0  0  0  0  0  0  0  0  0  0  0
   -8.5410   -6.0867   -0.0929 C   0  0  0  0  0  0  0  0  0  0  0  0
   -9.0084   -4.7989   -0.3549 C   0  0  0  0  0  0  0  0  0  0  0  0
  -10.4408   -3.2714    0.1570 H   0  0  0  0  0  0  0  0  0  0  0  0
  -11.4793   -4.6143    1.9638 H   0  0  0  0  0  0  0  0  0  0  0  0
   -8.7733   -7.8434    1.1236 H   0  0  0  0  0  0  0  0  0  0  0  0
   -7.7257   -6.4862   -0.6867 H   0  0  0  0  0  0  0  0  0  0  0  0
   -8.2838   -3.8244   -1.6779 S   0  0  0  0  0  0  0  0  0  0  0  0
   -7.6666   -2.5763   -0.9903 O   0  0  0  0  0  0  0  0  0  0  0  0
   -9.3950   -3.3670   -2.5064 O   0  0  0  0  0  0  0  0  0  0  0  0
   -7.2124   -4.6542   -2.2727 O   0  0  0  0  0  0  0  0  0  0  0  0
  -10.8568   -7.1498    2.7558 C   0  0  0  0  0  0  0  0  0  0  0  0
  -11.0331   -6.5573    3.6594 H   0  0  0  0  0  0  0  0  0  0  0  0
  -11.8315   -7.5249    2.4223 H   0  0  0  0  0  0  0  0  0  0  0  0
  -10.2476   -8.0152    3.0303 H   0  0  0  0  0  0  0  0  0  0  0  0
  1  2  1  0  0  0  0
  1  4  2  0  0  0  0
  2  3  2  0  0  0  0
  4 12  1  0  0  0  0
  5  4  1  0  0  0  0
  5 13  1  0  0  0  0
  6  5  2  0  0  0  0
  7  6  1  0  0  0  0
  7  8  2  0  0  0  0
  9  7  2  0  0  0  0
 10 11  2  0  0  0  0
 10  6  1  0  0  0  0
 11  1  1  0  0  0  0
 14 10  1  0  0  0  0
 15 11  1  0  0  0  0
 16 17  2  0  0  0  0
 17 18  1  0  0  0  0
 17 23  1  0  0  0  0
 18 30  1  0  0  0  0
 19 24  1  0  0  0  0
 19 18  2  0  0  0  0
 20 19  1  0  0  0  0
 21 20  2  0  0  0  0
 21 16  1  0  0  0  0
 22 16  1  0  0  0  0
 25 20  1  0  0  0  0
 26 27  1  0  0  0  0
 26 21  1  0  0  0  0
 28 26  2  0  0  0  0
 29 26  2  0  0  0  0
 30 33  1  0  0  0  0
 30 31  1  0  0  0  0
 32 30  1  0  0  0  0
M  RAD  2   3   2  27   2
M  END
