Coordinates from ORCA-job 4-NO2PhN2+~TsO-_B3LYPG-6-31G_dp-NX-Scan-d89-09-n800
 OpenBabel11261920283D

 33 33  0  0  0  0  0  0  0  0999 V2000
   -4.6763   -2.5164    0.3856 C   0  0  0  0  0  0  0  0  0  0  0  0
   -5.6156   -3.1743    1.2336 N   0  0  0  0  0  0  0  0  0  0  0  0
   -5.8650   -3.5816    2.2532 N   0  0  0  0  0  0  0  0  0  0  0  0
   -3.9597   -1.4663    0.9740 C   0  0  0  0  0  0  0  0  0  0  0  0
   -2.9962   -0.8297    0.2015 C   0  0  0  0  0  0  0  0  0  0  0  0
   -2.7819   -1.2783   -1.1008 C   0  0  0  0  0  0  0  0  0  0  0  0
   -1.7429   -0.6025   -1.9123 N   0  0  0  0  0  0  0  0  0  0  0  0
   -1.1376    0.3275   -1.3860 O   0  0  0  0  0  0  0  0  0  0  0  0
   -1.5585   -1.0224   -3.0498 O   0  0  0  0  0  0  0  0  0  0  0  0
   -3.4983   -2.3293   -1.6695 C   0  0  0  0  0  0  0  0  0  0  0  0
   -4.4857   -2.9639   -0.9207 C   0  0  0  0  0  0  0  0  0  0  0  0
   -4.1595   -1.1569    1.9930 H   0  0  0  0  0  0  0  0  0  0  0  0
   -2.4136   -0.0038    0.5892 H   0  0  0  0  0  0  0  0  0  0  0  0
   -3.2906   -2.6306   -2.6879 H   0  0  0  0  0  0  0  0  0  0  0  0
   -5.0997   -3.7738   -1.3167 H   0  0  0  0  0  0  0  0  0  0  0  0
   -9.7307   -4.3793    0.9044 C   0  0  0  0  0  0  0  0  0  0  0  0
  -10.6270   -5.1408    1.6529 C   0  0  0  0  0  0  0  0  0  0  0  0
  -10.7405   -6.5249    1.4610 C   0  0  0  0  0  0  0  0  0  0  0  0
   -9.9177   -7.1321    0.5014 C   0  0  0  0  0  0  0  0  0  0  0  0
   -9.0154   -6.3843   -0.2530 C   0  0  0  0  0  0  0  0  0  0  0  0
   -8.9249   -5.0064   -0.0477 C   0  0  0  0  0  0  0  0  0  0  0  0
   -9.6426   -3.3098    1.0633 H   0  0  0  0  0  0  0  0  0  0  0  0
  -11.2487   -4.6524    2.3994 H   0  0  0  0  0  0  0  0  0  0  0  0
   -9.9834   -8.2062    0.3436 H   0  0  0  0  0  0  0  0  0  0  0  0
   -8.3714   -6.8580   -0.9859 H   0  0  0  0  0  0  0  0  0  0  0  0
   -7.8145   -4.0347   -1.0708 S   0  0  0  0  0  0  0  0  0  0  0  0
   -7.2958   -2.9308   -0.1235 O   0  0  0  0  0  0  0  0  0  0  0  0
   -8.5977   -3.4522   -2.1754 O   0  0  0  0  0  0  0  0  0  0  0  0
   -6.7051   -4.9504   -1.4504 O   0  0  0  0  0  0  0  0  0  0  0  0
  -11.7387   -7.3393    2.2503 C   0  0  0  0  0  0  0  0  0  0  0  0
  -12.0044   -6.8473    3.1901 H   0  0  0  0  0  0  0  0  0  0  0  0
  -12.6664   -7.4819    1.6823 H   0  0  0  0  0  0  0  0  0  0  0  0
  -11.3486   -8.3340    2.4860 H   0  0  0  0  0  0  0  0  0  0  0  0
  1  4  1  0  0  0  0
  1  2  1  0  0  0  0
  2  3  2  0  0  0  0
  4 12  1  0  0  0  0
  5 13  1  0  0  0  0
  5  4  2  0  0  0  0
  6  5  1  0  0  0  0
  7  8  2  0  0  0  0
  7  6  1  0  0  0  0
  9  7  2  0  0  0  0
 10  6  2  0  0  0  0
 10 11  1  0  0  0  0
 11  1  2  0  0  0  0
 14 10  1  0  0  0  0
 15 11  1  0  0  0  0
 16 22  1  0  0  0  0
 16 17  2  0  0  0  0
 17 23  1  0  0  0  0
 18 17  1  0  0  0  0
 18 30  1  0  0  0  0
 19 18  2  0  0  0  0
 20 21  2  0  0  0  0
 20 19  1  0  0  0  0
 21 16  1  0  0  0  0
 24 19  1  0  0  0  0
 25 20  1  0  0  0  0
 26 27  1  0  0  0  0
 26 21  1  0  0  0  0
 28 26  2  0  0  0  0
 29 26  2  0  0  0  0
 30 33  1  0  0  0  0
 30 31  1  0  0  0  0
 32 30  1  0  0  0  0
M  RAD  2   3   2  27   2
M  END
