Coordinates from ORCA-job 4-NO2PhN2+~TsO-_B3LYPG-6-31G_dp-NX-Scan-d89-09-n800
 OpenBabel11261920283D

 33 33  0  0  0  0  0  0  0  0999 V2000
   -4.6041   -1.5333    0.3654 C   0  0  0  0  0  0  0  0  0  0  0  0
   -5.5968   -1.2629    1.2990 N   0  0  0  0  0  0  0  0  0  0  0  0
   -6.4856   -1.0953    1.9706 N   0  0  0  0  0  0  0  0  0  0  0  0
   -3.2833   -1.2392    0.7421 C   0  0  0  0  0  0  0  0  0  0  0  0
   -2.2712   -1.4840   -0.1735 C   0  0  0  0  0  0  0  0  0  0  0  0
   -2.6182   -1.9923   -1.4261 C   0  0  0  0  0  0  0  0  0  0  0  0
   -1.5324   -2.2428   -2.4037 N   0  0  0  0  0  0  0  0  0  0  0  0
   -0.3857   -1.9912   -2.0430 O   0  0  0  0  0  0  0  0  0  0  0  0
   -1.8558   -2.6807   -3.5026 O   0  0  0  0  0  0  0  0  0  0  0  0
   -3.9303   -2.2711   -1.7993 C   0  0  0  0  0  0  0  0  0  0  0  0
   -4.9611   -2.0513   -0.8899 C   0  0  0  0  0  0  0  0  0  0  0  0
   -3.0687   -0.8386    1.7259 H   0  0  0  0  0  0  0  0  0  0  0  0
   -1.2327   -1.2859    0.0576 H   0  0  0  0  0  0  0  0  0  0  0  0
   -4.1348   -2.6680   -2.7852 H   0  0  0  0  0  0  0  0  0  0  0  0
   -6.0008   -2.2760   -1.1263 H   0  0  0  0  0  0  0  0  0  0  0  0
   -8.6719   -5.8263    1.5125 C   0  0  0  0  0  0  0  0  0  0  0  0
   -9.5968   -6.8582    1.6753 C   0  0  0  0  0  0  0  0  0  0  0  0
  -10.8374   -6.8291    1.0255 C   0  0  0  0  0  0  0  0  0  0  0  0
  -11.1289   -5.7372    0.1927 C   0  0  0  0  0  0  0  0  0  0  0  0
  -10.2155   -4.7013    0.0175 C   0  0  0  0  0  0  0  0  0  0  0  0
   -8.9881   -4.7515    0.6829 C   0  0  0  0  0  0  0  0  0  0  0  0
   -7.7056   -5.8549    2.0034 H   0  0  0  0  0  0  0  0  0  0  0  0
   -9.3482   -7.7025    2.3138 H   0  0  0  0  0  0  0  0  0  0  0  0
  -12.0824   -5.7026   -0.3285 H   0  0  0  0  0  0  0  0  0  0  0  0
  -10.4353   -3.8669   -0.6400 H   0  0  0  0  0  0  0  0  0  0  0  0
   -7.8242   -3.4054    0.4966 S   0  0  0  0  0  0  0  0  0  0  0  0
   -6.4643   -3.9400    0.7891 O   0  0  0  0  0  0  0  0  0  0  0  0
   -8.2257   -2.3727    1.5378 O   0  0  0  0  0  0  0  0  0  0  0  0
   -7.9781   -2.8865   -0.8901 O   0  0  0  0  0  0  0  0  0  0  0  0
  -11.8450   -7.9384    1.2160 C   0  0  0  0  0  0  0  0  0  0  0  0
  -11.4091   -8.7895    1.7460 H   0  0  0  0  0  0  0  0  0  0  0  0
  -12.7086   -7.5925    1.7970 H   0  0  0  0  0  0  0  0  0  0  0  0
  -12.2283   -8.2990    0.2556 H   0  0  0  0  0  0  0  0  0  0  0  0
  1  4  1  0  0  0  0
  1  2  1  0  0  0  0
  2  3  1  0  0  0  0
  4 12  1  0  0  0  0
  5 13  1  0  0  0  0
  5  4  2  0  0  0  0
  6  5  1  0  0  0  0
  7  8  2  0  0  0  0
  7  6  1  0  0  0  0
  9  7  2  0  0  0  0
 10  6  2  0  0  0  0
 10 11  1  0  0  0  0
 11  1  2  0  0  0  0
 14 10  1  0  0  0  0
 15 11  1  0  0  0  0
 16 17  1  0  0  0  0
 16 22  1  0  0  0  0
 17 23  1  0  0  0  0
 18 30  1  0  0  0  0
 18 17  2  0  0  0  0
 19 18  1  0  0  0  0
 20 19  2  0  0  0  0
 20 21  1  0  0  0  0
 21 16  2  0  0  0  0
 24 19  1  0  0  0  0
 25 20  1  0  0  0  0
 26 21  1  0  0  0  0
 26 27  2  0  0  0  0
 26 28  1  0  0  0  0
 29 26  2  0  0  0  0
 30 31  1  0  0  0  0
 30 32  1  0  0  0  0
 33 30  1  0  0  0  0
M  RAD  3   2   2   3   3  28   2
M  END
