Coordinates from ORCA-job 4-NO2PhN2+~TsO-_B3LYPG-6-31G_dp-NX-Scan-d89-09-n800
 OpenBabel11261920283D

 33 34  0  0  0  0  0  0  0  0999 V2000
   -4.4804   -2.8757    0.3145 C   0  0  0  0  0  0  0  0  0  0  0  0
   -5.0075   -3.8580    1.2008 N   0  0  0  0  0  0  0  0  0  0  0  0
   -5.7068   -4.8225    0.9191 N   0  0  0  0  0  0  0  0  0  0  0  0
   -4.3565   -1.5994    0.8861 C   0  0  0  0  0  0  0  0  0  0  0  0
   -3.8003   -0.5549    0.1585 C   0  0  0  0  0  0  0  0  0  0  0  0
   -3.3278   -0.8197   -1.1252 C   0  0  0  0  0  0  0  0  0  0  0  0
   -2.7195    0.2765   -1.8992 N   0  0  0  0  0  0  0  0  0  0  0  0
   -2.6666    1.3848   -1.3684 O   0  0  0  0  0  0  0  0  0  0  0  0
   -2.3036    0.0143   -3.0262 O   0  0  0  0  0  0  0  0  0  0  0  0
   -3.4021   -2.0885   -1.6974 C   0  0  0  0  0  0  0  0  0  0  0  0
   -3.9906   -3.1241   -0.9796 C   0  0  0  0  0  0  0  0  0  0  0  0
   -4.7056   -1.4473    1.9011 H   0  0  0  0  0  0  0  0  0  0  0  0
   -3.7085    0.4432    0.5678 H   0  0  0  0  0  0  0  0  0  0  0  0
   -3.0119   -2.2462   -2.6946 H   0  0  0  0  0  0  0  0  0  0  0  0
   -4.0655   -4.1102   -1.4159 H   0  0  0  0  0  0  0  0  0  0  0  0
   -8.5810   -6.5112    1.4088 C   0  0  0  0  0  0  0  0  0  0  0  0
   -9.7757   -6.2944    2.0918 C   0  0  0  0  0  0  0  0  0  0  0  0
  -10.8476   -5.6222    1.4867 C   0  0  0  0  0  0  0  0  0  0  0  0
  -10.6995   -5.1732    0.1650 C   0  0  0  0  0  0  0  0  0  0  0  0
   -9.5149   -5.3766   -0.5365 C   0  0  0  0  0  0  0  0  0  0  0  0
   -8.4646   -6.0441    0.0987 C   0  0  0  0  0  0  0  0  0  0  0  0
   -7.7563   -7.0399    1.8723 H   0  0  0  0  0  0  0  0  0  0  0  0
   -9.8791   -6.6588    3.1096 H   0  0  0  0  0  0  0  0  0  0  0  0
  -11.5262   -4.6640   -0.3228 H   0  0  0  0  0  0  0  0  0  0  0  0
   -9.4049   -5.0429   -1.5621 H   0  0  0  0  0  0  0  0  0  0  0  0
   -6.9524   -6.3193   -0.7944 S   0  0  0  0  0  0  0  0  0  0  0  0
   -6.2323   -7.4401   -0.2100 O   0  0  0  0  0  0  0  0  0  0  0  0
   -6.0595   -4.9060   -0.4752 O   0  0  0  0  0  0  0  0  0  0  0  0
   -7.1867   -6.1923   -2.2249 O   0  0  0  0  0  0  0  0  0  0  0  0
  -12.1289   -5.3699    2.2426 C   0  0  0  0  0  0  0  0  0  0  0  0
  -12.2411   -6.0581    3.0842 H   0  0  0  0  0  0  0  0  0  0  0  0
  -12.1476   -4.3502    2.6461 H   0  0  0  0  0  0  0  0  0  0  0  0
  -13.0030   -5.4763    1.5931 H   0  0  0  0  0  0  0  0  0  0  0  0
  1  4  1  0  0  0  0
  1  2  1  0  0  0  0
  3  2  1  0  0  0  0
  4 12  1  0  0  0  0
  5 13  1  0  0  0  0
  5  4  2  0  0  0  0
  6  5  1  0  0  0  0
  7  8  2  0  0  0  0
  7  6  1  0  0  0  0
  9  7  2  0  0  0  0
 10  6  2  0  0  0  0
 10 11  1  0  0  0  0
 11  1  2  0  0  0  0
 14 10  1  0  0  0  0
 15 11  1  0  0  0  0
 16 22  1  0  0  0  0
 16 17  2  0  0  0  0
 17 23  1  0  0  0  0
 18 17  1  0  0  0  0
 18 30  1  0  0  0  0
 19 18  2  0  0  0  0
 20 21  2  0  0  0  0
 20 19  1  0  0  0  0
 21 16  1  0  0  0  0
 24 19  1  0  0  0  0
 25 20  1  0  0  0  0
 26 28  1  0  0  0  0
 26 27  2  0  0  0  0
 26 21  1  0  0  0  0
 28  3  1  0  0  0  0
 29 26  2  0  0  0  0
 30 32  1  0  0  0  0
 30 31  1  0  0  0  0
 33 30  1  0  0  0  0
M  RAD  2   2   2   3   2
M  END
