Coordinates from ORCA-job 4-NO2PhN2+~TsO-_B3LYPG-6-31G_dp-NX-Scan-d89-09-n800
 OpenBabel11261920283D

 33 33  0  0  0  0  0  0  0  0999 V2000
   -4.7536   -2.7547    0.1623 C   0  0  0  0  0  0  0  0  0  0  0  0
   -5.7604   -3.5225    0.8280 N   0  0  0  0  0  0  0  0  0  0  0  0
   -6.0010   -4.1941    1.7020 N   0  0  0  0  0  0  0  0  0  0  0  0
   -3.9157   -1.9968    0.9873 C   0  0  0  0  0  0  0  0  0  0  0  0
   -2.8953   -1.2699    0.3845 C   0  0  0  0  0  0  0  0  0  0  0  0
   -2.7487   -1.3476   -0.9989 C   0  0  0  0  0  0  0  0  0  0  0  0
   -1.6532   -0.5793   -1.6325 N   0  0  0  0  0  0  0  0  0  0  0  0
   -0.9415    0.0959   -0.8931 O   0  0  0  0  0  0  0  0  0  0  0  0
   -1.5316   -0.6730   -2.8495 O   0  0  0  0  0  0  0  0  0  0  0  0
   -3.5847   -2.1151   -1.8079 C   0  0  0  0  0  0  0  0  0  0  0  0
   -4.6264   -2.8300   -1.2238 C   0  0  0  0  0  0  0  0  0  0  0  0
   -4.0672   -1.9706    2.0606 H   0  0  0  0  0  0  0  0  0  0  0  0
   -2.2182   -0.6551    0.9635 H   0  0  0  0  0  0  0  0  0  0  0  0
   -3.4213   -2.1383   -2.8780 H   0  0  0  0  0  0  0  0  0  0  0  0
   -5.3177   -3.4428   -1.7970 H   0  0  0  0  0  0  0  0  0  0  0  0
  -10.2480   -4.3472    0.3602 C   0  0  0  0  0  0  0  0  0  0  0  0
  -11.0207   -5.1266    1.2149 C   0  0  0  0  0  0  0  0  0  0  0  0
  -10.6170   -6.4208    1.5840 C   0  0  0  0  0  0  0  0  0  0  0  0
   -9.4129   -6.9134    1.0685 C   0  0  0  0  0  0  0  0  0  0  0  0
   -8.6251   -6.1425    0.2108 C   0  0  0  0  0  0  0  0  0  0  0  0
   -9.0452   -4.8594   -0.1362 C   0  0  0  0  0  0  0  0  0  0  0  0
  -10.5742   -3.3556    0.0655 H   0  0  0  0  0  0  0  0  0  0  0  0
  -11.9570   -4.7296    1.5987 H   0  0  0  0  0  0  0  0  0  0  0  0
   -9.0888   -7.9160    1.3344 H   0  0  0  0  0  0  0  0  0  0  0  0
   -7.7030   -6.5320   -0.2057 H   0  0  0  0  0  0  0  0  0  0  0  0
   -8.0317   -3.8409   -1.2104 S   0  0  0  0  0  0  0  0  0  0  0  0
   -7.3690   -2.8047   -0.2645 O   0  0  0  0  0  0  0  0  0  0  0  0
   -8.9289   -3.1468   -2.1429 O   0  0  0  0  0  0  0  0  0  0  0  0
   -6.9867   -4.7339   -1.7704 O   0  0  0  0  0  0  0  0  0  0  0  0
  -11.4783   -7.2614    2.4965 C   0  0  0  0  0  0  0  0  0  0  0  0
  -11.7746   -6.7038    3.3913 H   0  0  0  0  0  0  0  0  0  0  0  0
  -12.4009   -7.5729    1.9928 H   0  0  0  0  0  0  0  0  0  0  0  0
  -10.9560   -8.1656    2.8193 H   0  0  0  0  0  0  0  0  0  0  0  0
  1  2  1  0  0  0  0
  1  4  2  0  0  0  0
  2  3  2  0  0  0  0
  4 12  1  0  0  0  0
  5 13  1  0  0  0  0
  5  4  1  0  0  0  0
  6  5  2  0  0  0  0
  7  6  1  0  0  0  0
  7  8  2  0  0  0  0
  9  7  2  0  0  0  0
 10 11  2  0  0  0  0
 10  6  1  0  0  0  0
 11  1  1  0  0  0  0
 14 10  1  0  0  0  0
 15 11  1  0  0  0  0
 16 17  2  0  0  0  0
 17 18  1  0  0  0  0
 17 23  1  0  0  0  0
 18 30  1  0  0  0  0
 19 24  1  0  0  0  0
 19 18  2  0  0  0  0
 20 19  1  0  0  0  0
 21 20  2  0  0  0  0
 21 16  1  0  0  0  0
 22 16  1  0  0  0  0
 25 20  1  0  0  0  0
 26 27  1  0  0  0  0
 26 21  1  0  0  0  0
 28 26  2  0  0  0  0
 29 26  2  0  0  0  0
 30 33  1  0  0  0  0
 30 31  1  0  0  0  0
 32 30  1  0  0  0  0
M  RAD  2   3   2  27   2
M  END
