Coordinates from ORCA-job 4-NO2PhN2+~TsO-_B3LYPG-6-31G_dp-NX-Scan-d89-09-n800
 OpenBabel11261920283D

 33 33  0  0  0  0  0  0  0  0999 V2000
   -4.6662   -0.8452    1.1984 C   0  0  0  0  0  0  0  0  0  0  0  0
   -5.1404   -0.1384    2.2755 N   0  0  0  0  0  0  0  0  0  0  0  0
   -5.4256    0.4563    3.1845 N   0  0  0  0  0  0  0  0  0  0  0  0
   -3.2513   -0.8553    1.0672 C   0  0  0  0  0  0  0  0  0  0  0  0
   -2.7157   -1.5574    0.0099 C   0  0  0  0  0  0  0  0  0  0  0  0
   -3.5840   -2.2139   -0.8741 C   0  0  0  0  0  0  0  0  0  0  0  0
   -2.9608   -2.9493   -2.0058 N   0  0  0  0  0  0  0  0  0  0  0  0
   -1.7449   -3.1338   -1.9342 O   0  0  0  0  0  0  0  0  0  0  0  0
   -3.6948   -3.3021   -2.9140 O   0  0  0  0  0  0  0  0  0  0  0  0
   -4.9704   -2.2122   -0.7499 C   0  0  0  0  0  0  0  0  0  0  0  0
   -5.5459   -1.5079    0.3112 C   0  0  0  0  0  0  0  0  0  0  0  0
   -2.6260   -0.3297    1.7796 H   0  0  0  0  0  0  0  0  0  0  0  0
   -1.6461   -1.6183   -0.1482 H   0  0  0  0  0  0  0  0  0  0  0  0
   -5.6284   -2.7862   -1.4251 H   0  0  0  0  0  0  0  0  0  0  0  0
   -6.6360   -1.5248    0.3952 H   0  0  0  0  0  0  0  0  0  0  0  0
  -10.0161   -4.6317    0.2996 C   0  0  0  0  0  0  0  0  0  0  0  0
  -10.5531   -5.6315    1.1072 C   0  0  0  0  0  0  0  0  0  0  0  0
   -9.9818   -6.9122    1.1520 C   0  0  0  0  0  0  0  0  0  0  0  0
   -8.8513   -7.1635    0.3595 C   0  0  0  0  0  0  0  0  0  0  0  0
   -8.3055   -6.1711   -0.4522 C   0  0  0  0  0  0  0  0  0  0  0  0
   -8.8894   -4.9022   -0.4833 C   0  0  0  0  0  0  0  0  0  0  0  0
  -10.4605   -3.6421    0.2719 H   0  0  0  0  0  0  0  0  0  0  0  0
  -11.4328   -5.4198    1.7105 H   0  0  0  0  0  0  0  0  0  0  0  0
   -8.3961   -8.1514    0.3773 H   0  0  0  0  0  0  0  0  0  0  0  0
   -7.4311   -6.3596   -1.0654 H   0  0  0  0  0  0  0  0  0  0  0  0
   -8.2352   -3.6255   -1.5736 S   0  0  0  0  0  0  0  0  0  0  0  0
   -8.1838   -2.3932   -0.7062 O   0  0  0  0  0  0  0  0  0  0  0  0
   -9.1765   -3.5377   -2.7116 O   0  0  0  0  0  0  0  0  0  0  0  0
   -6.8582   -4.0954   -1.9343 O   0  0  0  0  0  0  0  0  0  0  0  0
  -10.5523   -7.9887    2.0443 C   0  0  0  0  0  0  0  0  0  0  0  0
   -9.9512   -8.1127    2.9540 H   0  0  0  0  0  0  0  0  0  0  0  0
  -11.5728   -7.7510    2.3567 H   0  0  0  0  0  0  0  0  0  0  0  0
  -10.5705   -8.9595    1.5379 H   0  0  0  0  0  0  0  0  0  0  0  0
  1  2  1  0  0  0  0
  2  3  1  0  0  0  0
  4  1  1  0  0  0  0
  4 12  1  0  0  0  0
  5  4  2  0  0  0  0
  6 10  2  0  0  0  0
  6  5  1  0  0  0  0
  7  8  2  0  0  0  0
  7  6  1  0  0  0  0
  9  7  2  0  0  0  0
 10 11  1  0  0  0  0
 11 15  1  0  0  0  0
 11  1  2  0  0  0  0
 13  5  1  0  0  0  0
 14 10  1  0  0  0  0
 16 17  2  0  0  0  0
 17 18  1  0  0  0  0
 17 23  1  0  0  0  0
 18 30  1  0  0  0  0
 19 24  1  0  0  0  0
 19 18  2  0  0  0  0
 20 19  1  0  0  0  0
 21 20  2  0  0  0  0
 21 16  1  0  0  0  0
 22 16  1  0  0  0  0
 25 20  1  0  0  0  0
 26 27  1  0  0  0  0
 26 21  1  0  0  0  0
 28 26  2  0  0  0  0
 29 26  2  0  0  0  0
 30 32  1  0  0  0  0
 30 31  1  0  0  0  0
 33 30  1  0  0  0  0
M  RAD  3   2   2   3   3  27   2
M  END
