Coordinates from ORCA-job 4-NO2PhN2+~TsO-_B3LYPG-6-31G_dp-NX-Scan-d89-09-n800
 OpenBabel11261920283D

 33 33  0  0  0  0  0  0  0  0999 V2000
   -4.6112   -2.4661    0.4778 C   0  0  0  0  0  0  0  0  0  0  0  0
   -5.5002   -3.0862    1.3988 N   0  0  0  0  0  0  0  0  0  0  0  0
   -5.7377   -3.4316    2.4425 N   0  0  0  0  0  0  0  0  0  0  0  0
   -3.8970   -1.3669    0.9754 C   0  0  0  0  0  0  0  0  0  0  0  0
   -2.9746   -0.7627    0.1312 C   0  0  0  0  0  0  0  0  0  0  0  0
   -2.7960   -1.2892   -1.1476 C   0  0  0  0  0  0  0  0  0  0  0  0
   -1.7996   -0.6455   -2.0358 N   0  0  0  0  0  0  0  0  0  0  0  0
   -1.1992    0.3287   -1.5902 O   0  0  0  0  0  0  0  0  0  0  0  0
   -1.6429   -1.1339   -3.1496 O   0  0  0  0  0  0  0  0  0  0  0  0
   -3.5097   -2.3860   -1.6249 C   0  0  0  0  0  0  0  0  0  0  0  0
   -4.4577   -2.9916   -0.8044 C   0  0  0  0  0  0  0  0  0  0  0  0
   -4.0681   -0.9982    1.9798 H   0  0  0  0  0  0  0  0  0  0  0  0
   -2.3967    0.0971    0.4451 H   0  0  0  0  0  0  0  0  0  0  0  0
   -3.3335   -2.7445   -2.6308 H   0  0  0  0  0  0  0  0  0  0  0  0
   -5.0770   -3.8281   -1.1362 H   0  0  0  0  0  0  0  0  0  0  0  0
   -9.7161   -4.4103    0.9626 C   0  0  0  0  0  0  0  0  0  0  0  0
  -10.6369   -5.1852    1.6669 C   0  0  0  0  0  0  0  0  0  0  0  0
  -10.7815   -6.5549    1.4075 C   0  0  0  0  0  0  0  0  0  0  0  0
   -9.9649   -7.1347    0.4257 C   0  0  0  0  0  0  0  0  0  0  0  0
   -9.0390   -6.3731   -0.2847 C   0  0  0  0  0  0  0  0  0  0  0  0
   -8.9176   -5.0090   -0.0128 C   0  0  0  0  0  0  0  0  0  0  0  0
   -9.6031   -3.3524    1.1738 H   0  0  0  0  0  0  0  0  0  0  0  0
  -11.2531   -4.7186    2.4317 H   0  0  0  0  0  0  0  0  0  0  0  0
  -10.0546   -8.1979    0.2155 H   0  0  0  0  0  0  0  0  0  0  0  0
   -8.3998   -6.8263   -1.0347 H   0  0  0  0  0  0  0  0  0  0  0  0
   -7.7769   -4.0156   -0.9819 S   0  0  0  0  0  0  0  0  0  0  0  0
   -7.2591   -2.9571    0.0098 O   0  0  0  0  0  0  0  0  0  0  0  0
   -8.5386   -3.4005   -2.0869 O   0  0  0  0  0  0  0  0  0  0  0  0
   -6.6746   -4.9363   -1.3781 O   0  0  0  0  0  0  0  0  0  0  0  0
  -11.8041   -7.3834    2.1496 C   0  0  0  0  0  0  0  0  0  0  0  0
  -12.0957   -6.9109    3.0916 H   0  0  0  0  0  0  0  0  0  0  0  0
  -12.7151   -7.5124    1.5521 H   0  0  0  0  0  0  0  0  0  0  0  0
  -11.4227   -8.3839    2.3756 H   0  0  0  0  0  0  0  0  0  0  0  0
  1  4  1  0  0  0  0
  1  2  1  0  0  0  0
  2  3  2  0  0  0  0
  4 12  1  0  0  0  0
  5 13  1  0  0  0  0
  5  4  2  0  0  0  0
  6  5  1  0  0  0  0
  7  8  2  0  0  0  0
  7  6  1  0  0  0  0
  9  7  2  0  0  0  0
 10  6  2  0  0  0  0
 10 11  1  0  0  0  0
 11  1  2  0  0  0  0
 14 10  1  0  0  0  0
 15 11  1  0  0  0  0
 16 22  1  0  0  0  0
 16 17  2  0  0  0  0
 17 23  1  0  0  0  0
 18 17  1  0  0  0  0
 18 30  1  0  0  0  0
 19 18  2  0  0  0  0
 20 21  2  0  0  0  0
 20 19  1  0  0  0  0
 21 16  1  0  0  0  0
 24 19  1  0  0  0  0
 25 20  1  0  0  0  0
 26 21  1  0  0  0  0
 26 27  1  0  0  0  0
 28 26  2  0  0  0  0
 29 26  2  0  0  0  0
 30 33  1  0  0  0  0
 30 31  1  0  0  0  0
 32 30  1  0  0  0  0
M  RAD  2   3   2  27   2
M  END
