Coordinates from ORCA-job 4-NO2PhN2+~TsO-_B3LYPG-6-31G_dp-NX-Scan-d89-09-n800
 OpenBabel11261920283D

 33 33  0  0  0  0  0  0  0  0999 V2000
   -4.8115   -0.6483    0.7395 C   0  0  0  0  0  0  0  0  0  0  0  0
   -5.4177    0.3816    1.4106 N   0  0  0  0  0  0  0  0  0  0  0  0
   -5.8671    1.2304    1.9890 N   0  0  0  0  0  0  0  0  0  0  0  0
   -3.4078   -0.7766    0.9140 C   0  0  0  0  0  0  0  0  0  0  0  0
   -2.7796   -1.8011    0.2408 C   0  0  0  0  0  0  0  0  0  0  0  0
   -3.5527   -2.6639   -0.5543 C   0  0  0  0  0  0  0  0  0  0  0  0
   -2.8451   -3.7739   -1.2411 N   0  0  0  0  0  0  0  0  0  0  0  0
   -1.6310   -3.8534   -1.0555 O   0  0  0  0  0  0  0  0  0  0  0  0
   -3.5171   -4.5244   -1.9340 O   0  0  0  0  0  0  0  0  0  0  0  0
   -4.9269   -2.5397   -0.7156 C   0  0  0  0  0  0  0  0  0  0  0  0
   -5.5947   -1.4933   -0.0727 C   0  0  0  0  0  0  0  0  0  0  0  0
   -2.8614   -0.0947    1.5555 H   0  0  0  0  0  0  0  0  0  0  0  0
   -1.7124   -1.9637    0.3211 H   0  0  0  0  0  0  0  0  0  0  0  0
   -5.5266   -3.2138   -1.3302 H   0  0  0  0  0  0  0  0  0  0  0  0
   -6.6886   -1.4051   -0.1856 H   0  0  0  0  0  0  0  0  0  0  0  0
   -9.7891   -4.5238    0.8158 C   0  0  0  0  0  0  0  0  0  0  0  0
  -10.1236   -5.6935    1.4951 C   0  0  0  0  0  0  0  0  0  0  0  0
   -9.7162   -6.9491    1.0211 C   0  0  0  0  0  0  0  0  0  0  0  0
   -8.9621   -6.9994   -0.1588 C   0  0  0  0  0  0  0  0  0  0  0  0
   -8.6203   -5.8357   -0.8474 C   0  0  0  0  0  0  0  0  0  0  0  0
   -9.0352   -4.5968   -0.3576 C   0  0  0  0  0  0  0  0  0  0  0  0
  -10.1012   -3.5548    1.1904 H   0  0  0  0  0  0  0  0  0  0  0  0
  -10.7102   -5.6327    2.4089 H   0  0  0  0  0  0  0  0  0  0  0  0
   -8.6384   -7.9630   -0.5448 H   0  0  0  0  0  0  0  0  0  0  0  0
   -8.0315   -5.8762   -1.7574 H   0  0  0  0  0  0  0  0  0  0  0  0
   -8.6565   -3.0975   -1.2803 S   0  0  0  0  0  0  0  0  0  0  0  0
   -8.4137   -2.0537   -0.2131 O   0  0  0  0  0  0  0  0  0  0  0  0
   -9.8276   -2.8070   -2.1317 O   0  0  0  0  0  0  0  0  0  0  0  0
   -7.4021   -3.4028   -2.0358 O   0  0  0  0  0  0  0  0  0  0  0  0
  -10.0570   -8.2106    1.7793 C   0  0  0  0  0  0  0  0  0  0  0  0
   -9.3081   -8.4260    2.5523 H   0  0  0  0  0  0  0  0  0  0  0  0
  -11.0253   -8.1261    2.2824 H   0  0  0  0  0  0  0  0  0  0  0  0
  -10.0965   -9.0786    1.1143 H   0  0  0  0  0  0  0  0  0  0  0  0
  1  4  1  0  0  0  0
  1  2  1  0  0  0  0
  2  3  1  0  0  0  0
  4 12  1  0  0  0  0
  5 13  1  0  0  0  0
  5  4  2  0  0  0  0
  6  5  1  0  0  0  0
  7  8  2  0  0  0  0
  7  6  1  0  0  0  0
  9  7  2  0  0  0  0
 10  6  2  0  0  0  0
 10 11  1  0  0  0  0
 11  1  2  0  0  0  0
 14 10  1  0  0  0  0
 15 11  1  0  0  0  0
 16 22  1  0  0  0  0
 16 17  2  0  0  0  0
 17 23  1  0  0  0  0
 18 17  1  0  0  0  0
 18 30  1  0  0  0  0
 19 18  2  0  0  0  0
 20 21  2  0  0  0  0
 20 19  1  0  0  0  0
 21 16  1  0  0  0  0
 24 19  1  0  0  0  0
 25 20  1  0  0  0  0
 26 21  1  0  0  0  0
 26 27  1  0  0  0  0
 28 26  2  0  0  0  0
 29 26  2  0  0  0  0
 30 32  1  0  0  0  0
 30 31  1  0  0  0  0
 33 30  1  0  0  0  0
M  RAD  3   2   2   3   3  27   2
M  END
