Coordinates from ORCA-job 4-NO2PhN2+~TsO-_B3LYPG-6-31G_dp-NX-Scan-d89-09-n800
 OpenBabel11261920283D

 33 33  0  0  0  0  0  0  0  0999 V2000
   -4.6273   -0.8213    1.2673 C   0  0  0  0  0  0  0  0  0  0  0  0
   -5.0271   -0.1027    2.3675 N   0  0  0  0  0  0  0  0  0  0  0  0
   -5.2269    0.5026    3.2942 N   0  0  0  0  0  0  0  0  0  0  0  0
   -3.2188   -0.8873    1.0908 C   0  0  0  0  0  0  0  0  0  0  0  0
   -2.7421   -1.5959    0.0096 C   0  0  0  0  0  0  0  0  0  0  0  0
   -3.6606   -2.1996   -0.8592 C   0  0  0  0  0  0  0  0  0  0  0  0
   -3.1008   -2.9282   -2.0250 N   0  0  0  0  0  0  0  0  0  0  0  0
   -1.9186   -3.2651   -1.9399 O   0  0  0  0  0  0  0  0  0  0  0  0
   -3.8455   -3.1201   -2.9715 O   0  0  0  0  0  0  0  0  0  0  0  0
   -5.0432   -2.1485   -0.6923 C   0  0  0  0  0  0  0  0  0  0  0  0
   -5.5570   -1.4423    0.3971 C   0  0  0  0  0  0  0  0  0  0  0  0
   -2.5521   -0.3962    1.7902 H   0  0  0  0  0  0  0  0  0  0  0  0
   -1.6806   -1.6999   -0.1777 H   0  0  0  0  0  0  0  0  0  0  0  0
   -5.7273   -2.6972   -1.3610 H   0  0  0  0  0  0  0  0  0  0  0  0
   -6.6388   -1.4125    0.5245 H   0  0  0  0  0  0  0  0  0  0  0  0
  -10.0248   -4.6626    0.2020 C   0  0  0  0  0  0  0  0  0  0  0  0
  -10.5629   -5.6404    1.0355 C   0  0  0  0  0  0  0  0  0  0  0  0
   -9.9652   -6.9045    1.1498 C   0  0  0  0  0  0  0  0  0  0  0  0
   -8.8060   -7.1618    0.4008 C   0  0  0  0  0  0  0  0  0  0  0  0
   -8.2593   -6.1916   -0.4358 C   0  0  0  0  0  0  0  0  0  0  0  0
   -8.8700   -4.9385   -0.5371 C   0  0  0  0  0  0  0  0  0  0  0  0
  -10.4890   -3.6851    0.1211 H   0  0  0  0  0  0  0  0  0  0  0  0
  -11.4639   -5.4243    1.6047 H   0  0  0  0  0  0  0  0  0  0  0  0
   -8.3292   -8.1371    0.4735 H   0  0  0  0  0  0  0  0  0  0  0  0
   -7.3626   -6.3843   -1.0146 H   0  0  0  0  0  0  0  0  0  0  0  0
   -8.2119   -3.6923   -1.6604 S   0  0  0  0  0  0  0  0  0  0  0  0
   -8.2321   -2.4207   -0.8553 O   0  0  0  0  0  0  0  0  0  0  0  0
   -9.1101   -3.7028   -2.8391 O   0  0  0  0  0  0  0  0  0  0  0  0
   -6.8057   -4.1302   -1.9418 O   0  0  0  0  0  0  0  0  0  0  0  0
  -10.5389   -7.9589    2.0660 C   0  0  0  0  0  0  0  0  0  0  0  0
   -9.9249   -8.0815    2.9671 H   0  0  0  0  0  0  0  0  0  0  0  0
  -11.5504   -7.7003    2.3905 H   0  0  0  0  0  0  0  0  0  0  0  0
  -10.5812   -8.9361    1.5731 H   0  0  0  0  0  0  0  0  0  0  0  0
  1  2  1  0  0  0  0
  2  3  1  0  0  0  0
  4  1  1  0  0  0  0
  4 12  1  0  0  0  0
  5  4  2  0  0  0  0
  6 10  2  0  0  0  0
  6  5  1  0  0  0  0
  7  8  2  0  0  0  0
  7  6  1  0  0  0  0
  9  7  2  0  0  0  0
 10 11  1  0  0  0  0
 11 15  1  0  0  0  0
 11  1  2  0  0  0  0
 13  5  1  0  0  0  0
 14 10  1  0  0  0  0
 16 17  2  0  0  0  0
 17 18  1  0  0  0  0
 17 23  1  0  0  0  0
 18 30  1  0  0  0  0
 19 24  1  0  0  0  0
 19 18  2  0  0  0  0
 20 19  1  0  0  0  0
 21 20  2  0  0  0  0
 21 16  1  0  0  0  0
 22 16  1  0  0  0  0
 25 20  1  0  0  0  0
 26 27  1  0  0  0  0
 26 21  1  0  0  0  0
 28 26  2  0  0  0  0
 29 26  2  0  0  0  0
 30 32  1  0  0  0  0
 30 31  1  0  0  0  0
 33 30  1  0  0  0  0
M  RAD  3   2   2   3   3  27   2
M  END
