Coordinates from ORCA-job 4-NO2PhN2+~TsO-_B3LYPG-6-31G_dp-NX-Scan-d89-09-n800
 OpenBabel11261920283D

 33 33  0  0  0  0  0  0  0  0999 V2000
   -4.3889   -3.2061    0.0323 C   0  0  0  0  0  0  0  0  0  0  0  0
   -5.0276   -4.3358    0.6402 N   0  0  0  0  0  0  0  0  0  0  0  0
   -5.0326   -4.9895    1.5618 N   0  0  0  0  0  0  0  0  0  0  0  0
   -3.7415   -2.3324    0.9156 C   0  0  0  0  0  0  0  0  0  0  0  0
   -3.0602   -1.2468    0.3818 C   0  0  0  0  0  0  0  0  0  0  0  0
   -3.0379   -1.0881   -1.0033 C   0  0  0  0  0  0  0  0  0  0  0  0
   -2.2997    0.0652   -1.5670 N   0  0  0  0  0  0  0  0  0  0  0  0
   -1.7567    0.8261   -0.7703 O   0  0  0  0  0  0  0  0  0  0  0  0
   -2.2799    0.1771   -2.7884 O   0  0  0  0  0  0  0  0  0  0  0  0
   -3.6770   -1.9650   -1.8750 C   0  0  0  0  0  0  0  0  0  0  0  0
   -4.3786   -3.0474   -1.3511 C   0  0  0  0  0  0  0  0  0  0  0  0
   -3.7841   -2.4976    1.9860 H   0  0  0  0  0  0  0  0  0  0  0  0
   -2.5505   -0.5303    1.0130 H   0  0  0  0  0  0  0  0  0  0  0  0
   -3.6317   -1.7896   -2.9423 H   0  0  0  0  0  0  0  0  0  0  0  0
   -4.9155   -3.7514   -1.9725 H   0  0  0  0  0  0  0  0  0  0  0  0
   -9.2881   -4.3903    1.2406 C   0  0  0  0  0  0  0  0  0  0  0  0
  -10.2455   -5.0761    1.9904 C   0  0  0  0  0  0  0  0  0  0  0  0
  -10.8023   -6.2756    1.5313 C   0  0  0  0  0  0  0  0  0  0  0  0
  -10.3763   -6.7768    0.2903 C   0  0  0  0  0  0  0  0  0  0  0  0
   -9.4252   -6.1035   -0.4701 C   0  0  0  0  0  0  0  0  0  0  0  0
   -8.8798   -4.9113    0.0146 C   0  0  0  0  0  0  0  0  0  0  0  0
   -8.8679   -3.4532    1.5876 H   0  0  0  0  0  0  0  0  0  0  0  0
  -10.5670   -4.6699    2.9458 H   0  0  0  0  0  0  0  0  0  0  0  0
  -10.7993   -7.7051   -0.0847 H   0  0  0  0  0  0  0  0  0  0  0  0
   -9.1122   -6.4875   -1.4349 H   0  0  0  0  0  0  0  0  0  0  0  0
   -7.6338   -4.0539   -0.9492 S   0  0  0  0  0  0  0  0  0  0  0  0
   -6.3608   -4.9453   -0.7960 O   0  0  0  0  0  0  0  0  0  0  0  0
   -7.4037   -2.7421   -0.3070 O   0  0  0  0  0  0  0  0  0  0  0  0
   -8.0640   -4.0767   -2.3541 O   0  0  0  0  0  0  0  0  0  0  0  0
  -11.8552   -7.0032    2.3328 C   0  0  0  0  0  0  0  0  0  0  0  0
  -11.8928   -6.6437    3.3647 H   0  0  0  0  0  0  0  0  0  0  0  0
  -12.8517   -6.8594    1.8969 H   0  0  0  0  0  0  0  0  0  0  0  0
  -11.6666   -8.0819    2.3550 H   0  0  0  0  0  0  0  0  0  0  0  0
  1  2  1  0  0  0  0
  1  4  2  0  0  0  0
  2  3  2  0  0  0  0
  4 12  1  0  0  0  0
  5  4  1  0  0  0  0
  5 13  1  0  0  0  0
  6  5  2  0  0  0  0
  7  6  1  0  0  0  0
  7  8  2  0  0  0  0
  9  7  2  0  0  0  0
 10 11  2  0  0  0  0
 10  6  1  0  0  0  0
 11  1  1  0  0  0  0
 14 10  1  0  0  0  0
 15 11  1  0  0  0  0
 16 22  1  0  0  0  0
 16 17  2  0  0  0  0
 17 23  1  0  0  0  0
 18 17  1  0  0  0  0
 18 30  1  0  0  0  0
 19 18  2  0  0  0  0
 20 21  2  0  0  0  0
 20 19  1  0  0  0  0
 21 16  1  0  0  0  0
 24 19  1  0  0  0  0
 25 20  1  0  0  0  0
 26 27  2  0  0  0  0
 26 28  1  0  0  0  0
 26 21  1  0  0  0  0
 29 26  2  0  0  0  0
 30 33  1  0  0  0  0
 30 31  1  0  0  0  0
 32 30  1  0  0  0  0
M  RAD  2   3   2  28   2
M  END
