Coordinates from ORCA-job 4-NO2PhN2+~TsO-_B3LYPG-6-31G_dp-NX-Scan-d89-09-n800
 OpenBabel11261920283D

 33 33  0  0  0  0  0  0  0  0999 V2000
   -4.6595   -0.8400    1.2223 C   0  0  0  0  0  0  0  0  0  0  0  0
   -5.1081   -0.1283    2.3075 N   0  0  0  0  0  0  0  0  0  0  0  0
   -5.3607    0.4710    3.2238 N   0  0  0  0  0  0  0  0  0  0  0  0
   -3.2460   -0.8705    1.0788 C   0  0  0  0  0  0  0  0  0  0  0  0
   -2.7282   -1.5750    0.0141 C   0  0  0  0  0  0  0  0  0  0  0  0
   -3.6125   -2.2124   -0.8671 C   0  0  0  0  0  0  0  0  0  0  0  0
   -3.0089   -2.9465   -2.0093 N   0  0  0  0  0  0  0  0  0  0  0  0
   -1.8033   -3.1869   -1.9277 O   0  0  0  0  0  0  0  0  0  0  0  0
   -3.7462   -3.2414   -2.9351 O   0  0  0  0  0  0  0  0  0  0  0  0
   -4.9983   -2.1927   -0.7317 C   0  0  0  0  0  0  0  0  0  0  0  0
   -5.5551   -1.4873    0.3381 C   0  0  0  0  0  0  0  0  0  0  0  0
   -2.6077   -0.3574    1.7888 H   0  0  0  0  0  0  0  0  0  0  0  0
   -1.6607   -1.6516   -0.1512 H   0  0  0  0  0  0  0  0  0  0  0  0
   -5.6632   -2.7585   -1.4068 H   0  0  0  0  0  0  0  0  0  0  0  0
   -6.6430   -1.4874    0.4333 H   0  0  0  0  0  0  0  0  0  0  0  0
  -10.0146   -4.6382    0.2684 C   0  0  0  0  0  0  0  0  0  0  0  0
  -10.5499   -5.6302    1.0866 C   0  0  0  0  0  0  0  0  0  0  0  0
   -9.9711   -6.9066    1.1518 C   0  0  0  0  0  0  0  0  0  0  0  0
   -8.8345   -7.1615    0.3690 C   0  0  0  0  0  0  0  0  0  0  0  0
   -8.2904   -6.1769   -0.4530 C   0  0  0  0  0  0  0  0  0  0  0  0
   -8.8819   -4.9121   -0.5047 C   0  0  0  0  0  0  0  0  0  0  0  0
  -10.4646   -3.6516    0.2251 H   0  0  0  0  0  0  0  0  0  0  0  0
  -11.4341   -5.4158    1.6823 H   0  0  0  0  0  0  0  0  0  0  0  0
   -8.3731   -8.1462    0.4029 H   0  0  0  0  0  0  0  0  0  0  0  0
   -7.4111   -6.3681   -1.0584 H   0  0  0  0  0  0  0  0  0  0  0  0
   -8.2294   -3.6461   -1.6085 S   0  0  0  0  0  0  0  0  0  0  0  0
   -8.1996   -2.3997   -0.7620 O   0  0  0  0  0  0  0  0  0  0  0  0
   -9.1592   -3.5922   -2.7592 O   0  0  0  0  0  0  0  0  0  0  0  0
   -6.8428   -4.1057   -1.9457 O   0  0  0  0  0  0  0  0  0  0  0  0
  -10.5401   -7.9751    2.0546 C   0  0  0  0  0  0  0  0  0  0  0  0
   -9.9344   -8.0951    2.9617 H   0  0  0  0  0  0  0  0  0  0  0  0
  -11.5582   -7.7320    2.3707 H   0  0  0  0  0  0  0  0  0  0  0  0
  -10.5643   -8.9493    1.5549 H   0  0  0  0  0  0  0  0  0  0  0  0
  1  2  1  0  0  0  0
  2  3  1  0  0  0  0
  4  1  1  0  0  0  0
  4 12  1  0  0  0  0
  5  4  2  0  0  0  0
  6 10  2  0  0  0  0
  6  5  1  0  0  0  0
  7  8  2  0  0  0  0
  7  6  1  0  0  0  0
  9  7  2  0  0  0  0
 10 11  1  0  0  0  0
 11 15  1  0  0  0  0
 11  1  2  0  0  0  0
 13  5  1  0  0  0  0
 14 10  1  0  0  0  0
 16 17  2  0  0  0  0
 17 18  1  0  0  0  0
 17 23  1  0  0  0  0
 18 30  1  0  0  0  0
 19 24  1  0  0  0  0
 19 18  2  0  0  0  0
 20 19  1  0  0  0  0
 21 20  2  0  0  0  0
 21 16  1  0  0  0  0
 22 16  1  0  0  0  0
 25 20  1  0  0  0  0
 26 27  1  0  0  0  0
 26 21  1  0  0  0  0
 28 26  2  0  0  0  0
 29 26  2  0  0  0  0
 30 32  1  0  0  0  0
 30 31  1  0  0  0  0
 33 30  1  0  0  0  0
M  RAD  3   2   2   3   3  27   2
M  END
