Coordinates from ORCA-job 4-NO2PhN2+~TsO-_B3LYPG-6-31G_dp-NX-Scan-d89-09-n800
 OpenBabel11261920283D

 33 34  0  0  0  0  0  0  0  0999 V2000
   -4.4767   -2.7105    0.3046 C   0  0  0  0  0  0  0  0  0  0  0  0
   -5.0687   -3.6439    1.1890 N   0  0  0  0  0  0  0  0  0  0  0  0
   -5.7633   -4.6092    1.0628 N   0  0  0  0  0  0  0  0  0  0  0  0
   -3.9297   -1.5950    0.9606 C   0  0  0  0  0  0  0  0  0  0  0  0
   -3.2986   -0.5948    0.2327 C   0  0  0  0  0  0  0  0  0  0  0  0
   -3.2071   -0.7453   -1.1490 C   0  0  0  0  0  0  0  0  0  0  0  0
   -2.5325    0.3093   -1.9342 N   0  0  0  0  0  0  0  0  0  0  0  0
   -2.0845    1.2726   -1.3163 O   0  0  0  0  0  0  0  0  0  0  0  0
   -2.4656    0.1536   -3.1507 O   0  0  0  0  0  0  0  0  0  0  0  0
   -3.7238   -1.8530   -1.8179 C   0  0  0  0  0  0  0  0  0  0  0  0
   -4.3725   -2.8479   -1.0928 C   0  0  0  0  0  0  0  0  0  0  0  0
   -4.0137   -1.5329    2.0399 H   0  0  0  0  0  0  0  0  0  0  0  0
   -2.8754    0.2811    0.7072 H   0  0  0  0  0  0  0  0  0  0  0  0
   -3.6192   -1.9218   -2.8936 H   0  0  0  0  0  0  0  0  0  0  0  0
   -4.7870   -3.7119   -1.5896 H   0  0  0  0  0  0  0  0  0  0  0  0
   -8.6265   -6.4772    1.5143 C   0  0  0  0  0  0  0  0  0  0  0  0
   -9.8606   -6.2806    2.1313 C   0  0  0  0  0  0  0  0  0  0  0  0
  -10.9435   -5.7304    1.4309 C   0  0  0  0  0  0  0  0  0  0  0  0
  -10.7641   -5.3875    0.0819 C   0  0  0  0  0  0  0  0  0  0  0  0
   -9.5392   -5.5755   -0.5528 C   0  0  0  0  0  0  0  0  0  0  0  0
   -8.4769   -6.1162    0.1749 C   0  0  0  0  0  0  0  0  0  0  0  0
   -7.7934   -6.9162    2.0515 H   0  0  0  0  0  0  0  0  0  0  0  0
   -9.9872   -6.5671    3.1716 H   0  0  0  0  0  0  0  0  0  0  0  0
  -11.5979   -4.9756   -0.4805 H   0  0  0  0  0  0  0  0  0  0  0  0
   -9.4063   -5.3273   -1.5999 H   0  0  0  0  0  0  0  0  0  0  0  0
   -6.9035   -6.3615   -0.6296 S   0  0  0  0  0  0  0  0  0  0  0  0
   -6.1400   -7.3527    0.1201 O   0  0  0  0  0  0  0  0  0  0  0  0
   -6.1667   -4.8960   -0.4806 O   0  0  0  0  0  0  0  0  0  0  0  0
   -7.1144   -6.4783   -2.0694 O   0  0  0  0  0  0  0  0  0  0  0  0
  -12.2688   -5.4960    2.1143 C   0  0  0  0  0  0  0  0  0  0  0  0
  -12.4018   -6.1627    2.9704 H   0  0  0  0  0  0  0  0  0  0  0  0
  -12.3397   -4.4665    2.4862 H   0  0  0  0  0  0  0  0  0  0  0  0
  -13.1059   -5.6502    1.4270 H   0  0  0  0  0  0  0  0  0  0  0  0
  1  4  1  0  0  0  0
  1  2  1  0  0  0  0
  3  2  1  0  0  0  0
  4 12  1  0  0  0  0
  5 13  1  0  0  0  0
  5  4  2  0  0  0  0
  6  5  1  0  0  0  0
  7  8  2  0  0  0  0
  7  6  1  0  0  0  0
  9  7  2  0  0  0  0
 10  6  2  0  0  0  0
 10 11  1  0  0  0  0
 11  1  2  0  0  0  0
 14 10  1  0  0  0  0
 15 11  1  0  0  0  0
 16 22  1  0  0  0  0
 16 17  1  0  0  0  0
 17 23  1  0  0  0  0
 18 30  1  0  0  0  0
 18 17  2  0  0  0  0
 19 18  1  0  0  0  0
 20 19  2  0  0  0  0
 20 21  1  0  0  0  0
 21 16  2  0  0  0  0
 24 19  1  0  0  0  0
 25 20  1  0  0  0  0
 26 28  1  0  0  0  0
 26 27  2  0  0  0  0
 26 21  1  0  0  0  0
 28  3  1  0  0  0  0
 29 26  2  0  0  0  0
 30 32  1  0  0  0  0
 30 31  1  0  0  0  0
 33 30  1  0  0  0  0
M  RAD  2   2   2   3   2
M  END
