Coordinates from ORCA-job 4-NO2PhN2+~TsO-_B3LYPG-6-31G_dp-NX-Scan-d89-09-n800
 OpenBabel11261920283D

 33 33  0  0  0  0  0  0  0  0999 V2000
   -4.7976   -0.6558    0.6705 C   0  0  0  0  0  0  0  0  0  0  0  0
   -5.4999    0.3253    1.3235 N   0  0  0  0  0  0  0  0  0  0  0  0
   -6.0506    1.1254    1.8812 N   0  0  0  0  0  0  0  0  0  0  0  0
   -3.3852   -0.6419    0.8067 C   0  0  0  0  0  0  0  0  0  0  0  0
   -2.6836   -1.6299    0.1509 C   0  0  0  0  0  0  0  0  0  0  0  0
   -3.3940   -2.5900   -0.5904 C   0  0  0  0  0  0  0  0  0  0  0  0
   -2.6045   -3.6520   -1.2639 N   0  0  0  0  0  0  0  0  0  0  0  0
   -1.3831   -3.6066   -1.1228 O   0  0  0  0  0  0  0  0  0  0  0  0
   -3.2234   -4.4917   -1.9022 O   0  0  0  0  0  0  0  0  0  0  0  0
   -4.7774   -2.6002   -0.7140 C   0  0  0  0  0  0  0  0  0  0  0  0
   -5.5210   -1.5981   -0.0848 C   0  0  0  0  0  0  0  0  0  0  0  0
   -2.8872    0.1130    1.4044 H   0  0  0  0  0  0  0  0  0  0  0  0
   -1.6037   -1.6897    0.2018 H   0  0  0  0  0  0  0  0  0  0  0  0
   -5.3247   -3.3428   -1.2913 H   0  0  0  0  0  0  0  0  0  0  0  0
   -6.6250   -1.5947   -0.1548 H   0  0  0  0  0  0  0  0  0  0  0  0
   -9.8092   -4.5590    0.9039 C   0  0  0  0  0  0  0  0  0  0  0  0
  -10.2035   -5.7365    1.5363 C   0  0  0  0  0  0  0  0  0  0  0  0
   -9.8565   -6.9911    1.0146 C   0  0  0  0  0  0  0  0  0  0  0  0
   -9.1013   -7.0327   -0.1653 C   0  0  0  0  0  0  0  0  0  0  0  0
   -8.6999   -5.8616   -0.8068 C   0  0  0  0  0  0  0  0  0  0  0  0
   -9.0556   -4.6236   -0.2697 C   0  0  0  0  0  0  0  0  0  0  0  0
  -10.0744   -3.5909    1.3152 H   0  0  0  0  0  0  0  0  0  0  0  0
  -10.7897   -5.6825    2.4508 H   0  0  0  0  0  0  0  0  0  0  0  0
   -8.8237   -7.9955   -0.5877 H   0  0  0  0  0  0  0  0  0  0  0  0
   -8.1100   -5.8958   -1.7164 H   0  0  0  0  0  0  0  0  0  0  0  0
   -8.6006   -3.1117   -1.1350 S   0  0  0  0  0  0  0  0  0  0  0  0
   -8.3407   -2.1106   -0.0302 O   0  0  0  0  0  0  0  0  0  0  0  0
   -9.7403   -2.7458   -1.9988 O   0  0  0  0  0  0  0  0  0  0  0  0
   -7.3409   -3.4386   -1.8717 O   0  0  0  0  0  0  0  0  0  0  0  0
  -10.2600   -8.2633    1.7224 C   0  0  0  0  0  0  0  0  0  0  0  0
   -9.5071   -8.5629    2.4630 H   0  0  0  0  0  0  0  0  0  0  0  0
  -11.2078   -8.1414    2.2560 H   0  0  0  0  0  0  0  0  0  0  0  0
  -10.3724   -9.0940    1.0191 H   0  0  0  0  0  0  0  0  0  0  0  0
  1  4  1  0  0  0  0
  1  2  1  0  0  0  0
  2  3  1  0  0  0  0
  4 12  1  0  0  0  0
  5 13  1  0  0  0  0
  5  4  2  0  0  0  0
  6  5  1  0  0  0  0
  7  8  2  0  0  0  0
  7  6  1  0  0  0  0
  9  7  2  0  0  0  0
 10  6  2  0  0  0  0
 10 11  1  0  0  0  0
 11  1  2  0  0  0  0
 14 10  1  0  0  0  0
 15 11  1  0  0  0  0
 16 22  1  0  0  0  0
 16 17  2  0  0  0  0
 17 23  1  0  0  0  0
 18 17  1  0  0  0  0
 18 30  1  0  0  0  0
 19 18  2  0  0  0  0
 20 21  2  0  0  0  0
 20 19  1  0  0  0  0
 21 16  1  0  0  0  0
 24 19  1  0  0  0  0
 25 20  1  0  0  0  0
 26 21  1  0  0  0  0
 26 27  1  0  0  0  0
 28 26  2  0  0  0  0
 29 26  2  0  0  0  0
 30 32  1  0  0  0  0
 30 31  1  0  0  0  0
 33 30  1  0  0  0  0
M  RAD  3   2   2   3   3  27   2
M  END
