Coordinates from ORCA-job 4-NO2PhN2+~TsO-_B3LYPG-6-31G_dp-NX-Scan-d89-09-n800
 OpenBabel11261920283D

 33 33  0  0  0  0  0  0  0  0999 V2000
   -4.6182   -0.8150    1.2824 C   0  0  0  0  0  0  0  0  0  0  0  0
   -5.0026   -0.0946    2.3865 N   0  0  0  0  0  0  0  0  0  0  0  0
   -5.1942    0.5116    3.3146 N   0  0  0  0  0  0  0  0  0  0  0  0
   -3.2119   -0.8965    1.0955 C   0  0  0  0  0  0  0  0  0  0  0  0
   -2.7507   -1.6077    0.0090 C   0  0  0  0  0  0  0  0  0  0  0  0
   -3.6817   -2.1960   -0.8567 C   0  0  0  0  0  0  0  0  0  0  0  0
   -3.1387   -2.9223   -2.0309 N   0  0  0  0  0  0  0  0  0  0  0  0
   -1.9718   -3.3074   -1.9400 O   0  0  0  0  0  0  0  0  0  0  0  0
   -3.8797   -3.0625   -2.9891 O   0  0  0  0  0  0  0  0  0  0  0  0
   -5.0626   -2.1301   -0.6798 C   0  0  0  0  0  0  0  0  0  0  0  0
   -5.5604   -1.4244    0.4167 C   0  0  0  0  0  0  0  0  0  0  0  0
   -2.5347   -0.4149    1.7913 H   0  0  0  0  0  0  0  0  0  0  0  0
   -1.6915   -1.7243   -0.1848 H   0  0  0  0  0  0  0  0  0  0  0  0
   -5.7566   -2.6683   -1.3455 H   0  0  0  0  0  0  0  0  0  0  0  0
   -6.6398   -1.3849    0.5559 H   0  0  0  0  0  0  0  0  0  0  0  0
  -10.0216   -4.6695    0.1805 C   0  0  0  0  0  0  0  0  0  0  0  0
  -10.5619   -5.6415    1.0194 C   0  0  0  0  0  0  0  0  0  0  0  0
   -9.9607   -6.9024    1.1493 C   0  0  0  0  0  0  0  0  0  0  0  0
   -8.7953   -7.1623    0.4108 C   0  0  0  0  0  0  0  0  0  0  0  0
   -8.2463   -6.1980   -0.4309 C   0  0  0  0  0  0  0  0  0  0  0  0
   -8.8607   -4.9480   -0.5480 C   0  0  0  0  0  0  0  0  0  0  0  0
  -10.4884   -3.6943    0.0876 H   0  0  0  0  0  0  0  0  0  0  0  0
  -11.4675   -5.4233    1.5805 H   0  0  0  0  0  0  0  0  0  0  0  0
   -8.3153   -8.1350    0.4959 H   0  0  0  0  0  0  0  0  0  0  0  0
   -7.3446   -6.3927   -1.0012 H   0  0  0  0  0  0  0  0  0  0  0  0
   -8.1989   -3.7099   -1.6779 S   0  0  0  0  0  0  0  0  0  0  0  0
   -8.2315   -2.4302   -0.8862 O   0  0  0  0  0  0  0  0  0  0  0  0
   -9.0874   -3.7378   -2.8643 O   0  0  0  0  0  0  0  0  0  0  0  0
   -6.7878   -4.1430   -1.9427 O   0  0  0  0  0  0  0  0  0  0  0  0
  -10.5374   -7.9510    2.0701 C   0  0  0  0  0  0  0  0  0  0  0  0
   -9.9194   -8.0775    2.9679 H   0  0  0  0  0  0  0  0  0  0  0  0
  -11.5451   -7.6845    2.3995 H   0  0  0  0  0  0  0  0  0  0  0  0
  -10.5898   -8.9286    1.5787 H   0  0  0  0  0  0  0  0  0  0  0  0
  1  2  1  0  0  0  0
  2  3  1  0  0  0  0
  4  1  1  0  0  0  0
  4 12  1  0  0  0  0
  5  4  2  0  0  0  0
  6 10  2  0  0  0  0
  6  5  1  0  0  0  0
  7  8  2  0  0  0  0
  7  6  1  0  0  0  0
  9  7  2  0  0  0  0
 10 11  1  0  0  0  0
 11 15  1  0  0  0  0
 11  1  2  0  0  0  0
 13  5  1  0  0  0  0
 14 10  1  0  0  0  0
 16 17  2  0  0  0  0
 17 18  1  0  0  0  0
 17 23  1  0  0  0  0
 18 30  1  0  0  0  0
 19 24  1  0  0  0  0
 19 18  2  0  0  0  0
 20 19  1  0  0  0  0
 21 20  2  0  0  0  0
 21 16  1  0  0  0  0
 22 16  1  0  0  0  0
 25 20  1  0  0  0  0
 26 27  1  0  0  0  0
 26 21  1  0  0  0  0
 28 26  2  0  0  0  0
 29 26  2  0  0  0  0
 30 32  1  0  0  0  0
 30 31  1  0  0  0  0
 33 30  1  0  0  0  0
M  RAD  3   2   2   3   3  27   2
M  END
