Coordinates from ORCA-job 4-NO2PhN2+~TsO-_B3LYPG-6-31G_dp-NX-Scan-d89-09-n800
 OpenBabel11261920283D

 33 34  0  0  0  0  0  0  0  0999 V2000
   -4.5282   -2.9017    0.2959 C   0  0  0  0  0  0  0  0  0  0  0  0
   -5.0554   -3.8923    1.1755 N   0  0  0  0  0  0  0  0  0  0  0  0
   -5.7297   -4.8829    0.7220 N   0  0  0  0  0  0  0  0  0  0  0  0
   -4.3622   -1.6441    0.9085 C   0  0  0  0  0  0  0  0  0  0  0  0
   -3.7977   -0.5780    0.2239 C   0  0  0  0  0  0  0  0  0  0  0  0
   -3.3655   -0.7805   -1.0872 C   0  0  0  0  0  0  0  0  0  0  0  0
   -2.7627    0.3362   -1.8223 N   0  0  0  0  0  0  0  0  0  0  0  0
   -2.6664    1.4183   -1.2415 O   0  0  0  0  0  0  0  0  0  0  0  0
   -2.3891    0.1278   -2.9774 O   0  0  0  0  0  0  0  0  0  0  0  0
   -3.4873   -2.0190   -1.7143 C   0  0  0  0  0  0  0  0  0  0  0  0
   -4.0740   -3.0774   -1.0281 C   0  0  0  0  0  0  0  0  0  0  0  0
   -4.6892   -1.5332    1.9365 H   0  0  0  0  0  0  0  0  0  0  0  0
   -3.6765    0.3959    0.6815 H   0  0  0  0  0  0  0  0  0  0  0  0
   -3.1292   -2.1365   -2.7292 H   0  0  0  0  0  0  0  0  0  0  0  0
   -4.1652   -4.0337   -1.5251 H   0  0  0  0  0  0  0  0  0  0  0  0
   -8.5673   -6.5315    1.4261 C   0  0  0  0  0  0  0  0  0  0  0  0
   -9.7418   -6.2267    2.1082 C   0  0  0  0  0  0  0  0  0  0  0  0
  -10.8040   -5.5675    1.4710 C   0  0  0  0  0  0  0  0  0  0  0  0
  -10.6684   -5.2178    0.1167 C   0  0  0  0  0  0  0  0  0  0  0  0
   -9.5054   -5.5049   -0.5883 C   0  0  0  0  0  0  0  0  0  0  0  0
   -8.4706   -6.1700    0.0789 C   0  0  0  0  0  0  0  0  0  0  0  0
   -7.7486   -7.0456    1.9153 H   0  0  0  0  0  0  0  0  0  0  0  0
   -9.8358   -6.5080    3.1526 H   0  0  0  0  0  0  0  0  0  0  0  0
  -11.4877   -4.7169   -0.3912 H   0  0  0  0  0  0  0  0  0  0  0  0
   -9.4005   -5.2391   -1.6341 H   0  0  0  0  0  0  0  0  0  0  0  0
   -6.9793   -6.5224   -0.7956 S   0  0  0  0  0  0  0  0  0  0  0  0
   -6.2474   -7.6111   -0.1682 O   0  0  0  0  0  0  0  0  0  0  0  0
   -5.9627   -4.9784   -0.3696 O   0  0  0  0  0  0  0  0  0  0  0  0
   -7.1334   -6.3513   -2.2309 O   0  0  0  0  0  0  0  0  0  0  0  0
  -12.0608   -5.2196    2.2278 C   0  0  0  0  0  0  0  0  0  0  0  0
  -12.1902   -5.8566    3.1058 H   0  0  0  0  0  0  0  0  0  0  0  0
  -12.0246   -4.1804    2.5762 H   0  0  0  0  0  0  0  0  0  0  0  0
  -12.9478   -5.3184    1.5950 H   0  0  0  0  0  0  0  0  0  0  0  0
  1  4  1  0  0  0  0
  1  2  1  0  0  0  0
  3  2  2  0  0  0  0
  4 12  1  0  0  0  0
  5 13  1  0  0  0  0
  5  4  2  0  0  0  0
  6  5  1  0  0  0  0
  7  8  2  0  0  0  0
  7  6  1  0  0  0  0
  9  7  2  0  0  0  0
 10  6  2  0  0  0  0
 10 11  1  0  0  0  0
 11  1  2  0  0  0  0
 14 10  1  0  0  0  0
 15 11  1  0  0  0  0
 16 22  1  0  0  0  0
 16 17  2  0  0  0  0
 17 23  1  0  0  0  0
 18 17  1  0  0  0  0
 18 30  1  0  0  0  0
 19 18  2  0  0  0  0
 20 21  2  0  0  0  0
 20 19  1  0  0  0  0
 21 16  1  0  0  0  0
 24 19  1  0  0  0  0
 25 20  1  0  0  0  0
 26 28  1  0  0  0  0
 26 27  2  0  0  0  0
 26 21  1  0  0  0  0
 28  3  1  0  0  0  0
 29 26  2  0  0  0  0
 30 32  1  0  0  0  0
 30 31  1  0  0  0  0
 33 30  1  0  0  0  0
M  END
