Coordinates from ORCA-job 4-NO2PhN2+~TsO-_B3LYPG-6-31G_dp-NX-Scan-d89-09-n800
 OpenBabel11261920283D

 33 34  0  0  0  0  0  0  0  0999 V2000
   -4.3667   -2.4637   -0.4106 C   0  0  0  0  0  0  0  0  0  0  0  0
   -5.4278   -3.3423   -0.1022 N   0  0  0  0  0  0  0  0  0  0  0  0
   -6.2132   -3.6635   -1.0703 N   0  0  0  0  0  0  0  0  0  0  0  0
   -3.6004   -2.1250    0.7248 C   0  0  0  0  0  0  0  0  0  0  0  0
   -2.5117   -1.2748    0.6268 C   0  0  0  0  0  0  0  0  0  0  0  0
   -2.1780   -0.7554   -0.6252 C   0  0  0  0  0  0  0  0  0  0  0  0
   -1.0277    0.1476   -0.7430 N   0  0  0  0  0  0  0  0  0  0  0  0
   -0.4015    0.4102    0.2840 O   0  0  0  0  0  0  0  0  0  0  0  0
   -0.7583    0.5887   -1.8606 O   0  0  0  0  0  0  0  0  0  0  0  0
   -2.9102   -1.0735   -1.7653 C   0  0  0  0  0  0  0  0  0  0  0  0
   -4.0060   -1.9259   -1.6647 C   0  0  0  0  0  0  0  0  0  0  0  0
   -3.8905   -2.5517    1.6782 H   0  0  0  0  0  0  0  0  0  0  0  0
   -1.9184   -1.0069    1.4918 H   0  0  0  0  0  0  0  0  0  0  0  0
   -2.6164   -0.6516   -2.7180 H   0  0  0  0  0  0  0  0  0  0  0  0
   -4.5580   -2.1608   -2.5636 H   0  0  0  0  0  0  0  0  0  0  0  0
  -10.0877   -4.6916    0.6350 C   0  0  0  0  0  0  0  0  0  0  0  0
  -10.9635   -5.1106    1.6326 C   0  0  0  0  0  0  0  0  0  0  0  0
  -11.2566   -6.4719    1.8162 C   0  0  0  0  0  0  0  0  0  0  0  0
  -10.6430   -7.4081    0.9732 C   0  0  0  0  0  0  0  0  0  0  0  0
   -9.7639   -7.0069   -0.0325 C   0  0  0  0  0  0  0  0  0  0  0  0
   -9.4902   -5.6507   -0.1849 C   0  0  0  0  0  0  0  0  0  0  0  0
   -9.8590   -3.6370    0.5122 H   0  0  0  0  0  0  0  0  0  0  0  0
  -11.4253   -4.3720    2.2824 H   0  0  0  0  0  0  0  0  0  0  0  0
  -10.8565   -8.4656    1.1046 H   0  0  0  0  0  0  0  0  0  0  0  0
   -9.2865   -7.7230   -0.6939 H   0  0  0  0  0  0  0  0  0  0  0  0
   -8.4188   -5.1446   -1.5527 S   0  0  1  0  0  0  0  0  0  0  0  0
   -7.2175   -4.6217   -0.4107 O   0  0  0  0  0  0  0  0  0  0  0  0
   -6.3118   -3.4496   -2.0629 O   0  0  0  0  0  0  0  0  0  0  0  0
   -7.9712   -6.3853   -2.2404 O   0  0  0  0  0  0  0  0  0  0  0  0
  -12.2325   -6.9101    2.8812 C   0  0  0  0  0  0  0  0  0  0  0  0
  -12.1470   -6.2937    3.7811 H   0  0  0  0  0  0  0  0  0  0  0  0
  -13.2670   -6.8230    2.5254 H   0  0  0  0  0  0  0  0  0  0  0  0
  -12.0717   -7.9534    3.1665 H   0  0  0  0  0  0  0  0  0  0  0  0
  1  2  1  0  0  0  0
  1  4  2  0  0  0  0
  3 27  1  0  0  0  0
  3  2  1  0  0  0  0
  4 12  1  0  0  0  0
  5  4  1  0  0  0  0
  5 13  1  0  0  0  0
  6  5  2  0  0  0  0
  7  6  1  0  0  0  0
  7  8  2  0  0  0  0
  9  7  2  0  0  0  0
 10 11  2  0  0  0  0
 10  6  1  0  0  0  0
 11  1  1  0  0  0  0
 14 10  1  0  0  0  0
 15 11  1  0  0  0  0
 16 17  2  0  0  0  0
 17 18  1  0  0  0  0
 17 23  1  0  0  0  0
 18 30  1  0  0  0  0
 19 24  1  0  0  0  0
 19 18  2  0  0  0  0
 20 19  1  0  0  0  0
 21 20  2  0  0  0  0
 21 16  1  0  0  0  0
 22 16  1  0  0  0  0
 25 20  1  0  0  0  0
 26 29  1  6  0  0  0
 26 27  1  0  0  0  0
 26 21  1  0  0  0  0
 28  3  1  0  0  0  0
 30 33  1  0  0  0  0
 30 31  1  0  0  0  0
 32 30  1  0  0  0  0
M  RAD  3   2   2  28   2  29   2
M  END
