Coordinates from ORCA-job 4-NO2PhN2+~TsO-_B3LYPG-6-31G_dp-NX-Scan-d89-09-n800
 OpenBabel11261920283D

 33 33  0  0  0  0  0  0  0  0999 V2000
   -4.7852   -0.6587    0.6513 C   0  0  0  0  0  0  0  0  0  0  0  0
   -5.5232    0.2955    1.3061 N   0  0  0  0  0  0  0  0  0  0  0  0
   -6.1062    1.0719    1.8638 N   0  0  0  0  0  0  0  0  0  0  0  0
   -3.3728   -0.5770    0.7554 C   0  0  0  0  0  0  0  0  0  0  0  0
   -2.6415   -1.5419    0.0971 C   0  0  0  0  0  0  0  0  0  0  0  0
   -3.3234   -2.5442   -0.6149 C   0  0  0  0  0  0  0  0  0  0  0  0
   -2.5014   -3.5785   -1.2926 N   0  0  0  0  0  0  0  0  0  0  0  0
   -1.2804   -3.4727   -1.1851 O   0  0  0  0  0  0  0  0  0  0  0  0
   -3.0958   -4.4579   -1.9003 O   0  0  0  0  0  0  0  0  0  0  0  0
   -4.7072   -2.6189   -0.7071 C   0  0  0  0  0  0  0  0  0  0  0  0
   -5.4810   -1.6433   -0.0735 C   0  0  0  0  0  0  0  0  0  0  0  0
   -2.8969    0.2091    1.3303 H   0  0  0  0  0  0  0  0  0  0  0  0
   -1.5591   -1.5513    0.1232 H   0  0  0  0  0  0  0  0  0  0  0  0
   -5.2301   -3.3932   -1.2633 H   0  0  0  0  0  0  0  0  0  0  0  0
   -6.5859   -1.6815   -0.1217 H   0  0  0  0  0  0  0  0  0  0  0  0
   -9.8264   -4.5798    0.9349 C   0  0  0  0  0  0  0  0  0  0  0  0
  -10.2539   -5.7564    1.5471 C   0  0  0  0  0  0  0  0  0  0  0  0
   -9.9290   -7.0116    1.0128 C   0  0  0  0  0  0  0  0  0  0  0  0
   -9.1614   -7.0548   -0.1591 C   0  0  0  0  0  0  0  0  0  0  0  0
   -8.7269   -5.8847   -0.7805 C   0  0  0  0  0  0  0  0  0  0  0  0
   -9.0613   -4.6462   -0.2312 C   0  0  0  0  0  0  0  0  0  0  0  0
  -10.0746   -3.6115    1.3558 H   0  0  0  0  0  0  0  0  0  0  0  0
  -10.8490   -5.7012    2.4559 H   0  0  0  0  0  0  0  0  0  0  0  0
   -8.9003   -8.0180   -0.5910 H   0  0  0  0  0  0  0  0  0  0  0  0
   -8.1273   -5.9204   -1.6837 H   0  0  0  0  0  0  0  0  0  0  0  0
   -8.5636   -3.1342   -1.0721 S   0  0  0  0  0  0  0  0  0  0  0  0
   -8.3007   -2.1499    0.0472 O   0  0  0  0  0  0  0  0  0  0  0  0
   -9.6817   -2.7358   -1.9492 O   0  0  0  0  0  0  0  0  0  0  0  0
   -7.2984   -3.4774   -1.7921 O   0  0  0  0  0  0  0  0  0  0  0  0
  -10.3686   -8.2835    1.6993 C   0  0  0  0  0  0  0  0  0  0  0  0
   -9.6289   -8.6117    2.4411 H   0  0  0  0  0  0  0  0  0  0  0  0
  -11.3172   -8.1462    2.2275 H   0  0  0  0  0  0  0  0  0  0  0  0
  -10.4955   -9.1012    0.9833 H   0  0  0  0  0  0  0  0  0  0  0  0
  1  4  1  0  0  0  0
  1  2  1  0  0  0  0
  2  3  1  0  0  0  0
  4 12  1  0  0  0  0
  5 13  1  0  0  0  0
  5  4  2  0  0  0  0
  6  5  1  0  0  0  0
  7  8  2  0  0  0  0
  7  6  1  0  0  0  0
  9  7  2  0  0  0  0
 10  6  2  0  0  0  0
 10 11  1  0  0  0  0
 11  1  2  0  0  0  0
 14 10  1  0  0  0  0
 15 11  1  0  0  0  0
 16 22  1  0  0  0  0
 16 17  2  0  0  0  0
 17 23  1  0  0  0  0
 18 17  1  0  0  0  0
 18 30  1  0  0  0  0
 19 18  2  0  0  0  0
 20 21  2  0  0  0  0
 20 19  1  0  0  0  0
 21 16  1  0  0  0  0
 24 19  1  0  0  0  0
 25 20  1  0  0  0  0
 26 21  1  0  0  0  0
 26 27  1  0  0  0  0
 28 26  2  0  0  0  0
 29 26  2  0  0  0  0
 30 32  1  0  0  0  0
 30 31  1  0  0  0  0
 33 30  1  0  0  0  0
M  RAD  3   2   2   3   3  27   2
M  END
