Coordinates from ORCA-job 4-NO2PhN2+~TsO-_B3LYPG-6-31G_dp-NX-Scan-d89-09-n800
 OpenBabel11261920283D

 33 33  0  0  0  0  0  0  0  0999 V2000
   -4.7751   -2.6074    0.2486 C   0  0  0  0  0  0  0  0  0  0  0  0
   -5.7782   -3.3183    0.9777 N   0  0  0  0  0  0  0  0  0  0  0  0
   -6.0562   -3.8410    1.9370 N   0  0  0  0  0  0  0  0  0  0  0  0
   -4.0493   -1.6577    0.9768 C   0  0  0  0  0  0  0  0  0  0  0  0
   -3.0330   -0.9748    0.3188 C   0  0  0  0  0  0  0  0  0  0  0  0
   -2.7787   -1.2820   -1.0164 C   0  0  0  0  0  0  0  0  0  0  0  0
   -1.6861   -0.5586   -1.7063 N   0  0  0  0  0  0  0  0  0  0  0  0
   -1.0751    0.2858   -1.0563 O   0  0  0  0  0  0  0  0  0  0  0  0
   -1.4665   -0.8557   -2.8759 O   0  0  0  0  0  0  0  0  0  0  0  0
   -3.5043   -2.2369   -1.7266 C   0  0  0  0  0  0  0  0  0  0  0  0
   -4.5422   -2.9132   -1.0914 C   0  0  0  0  0  0  0  0  0  0  0  0
   -4.2818   -1.4561    2.0159 H   0  0  0  0  0  0  0  0  0  0  0  0
   -2.4402   -0.2203    0.8197 H   0  0  0  0  0  0  0  0  0  0  0  0
   -3.2616   -2.4329   -2.7630 H   0  0  0  0  0  0  0  0  0  0  0  0
   -5.1561   -3.6593   -1.5919 H   0  0  0  0  0  0  0  0  0  0  0  0
   -9.7910   -4.3222    0.7710 C   0  0  0  0  0  0  0  0  0  0  0  0
  -10.6387   -5.0624    1.5919 C   0  0  0  0  0  0  0  0  0  0  0  0
  -10.6567   -6.4645    1.5415 C   0  0  0  0  0  0  0  0  0  0  0  0
   -9.7892   -7.1085    0.6487 C   0  0  0  0  0  0  0  0  0  0  0  0
   -8.9339   -6.3815   -0.1786 C   0  0  0  0  0  0  0  0  0  0  0  0
   -8.9376   -4.9877   -0.1133 C   0  0  0  0  0  0  0  0  0  0  0  0
   -9.7780   -3.2382    0.8202 H   0  0  0  0  0  0  0  0  0  0  0  0
  -11.2973   -4.5441    2.2845 H   0  0  0  0  0  0  0  0  0  0  0  0
   -9.7814   -8.1951    0.6015 H   0  0  0  0  0  0  0  0  0  0  0  0
   -8.2560   -6.8811   -0.8620 H   0  0  0  0  0  0  0  0  0  0  0  0
   -7.8856   -4.0472   -1.2223 S   0  0  0  0  0  0  0  0  0  0  0  0
   -7.3590   -2.8853   -0.3448 O   0  0  0  0  0  0  0  0  0  0  0  0
   -8.7143   -3.5168   -2.3153 O   0  0  0  0  0  0  0  0  0  0  0  0
   -6.7667   -4.9521   -1.5914 O   0  0  0  0  0  0  0  0  0  0  0  0
  -11.6046   -7.2569    2.4108 C   0  0  0  0  0  0  0  0  0  0  0  0
  -11.7812   -6.7601    3.3695 H   0  0  0  0  0  0  0  0  0  0  0  0
  -12.5797   -7.3750    1.9220 H   0  0  0  0  0  0  0  0  0  0  0  0
  -11.2194   -8.2602    2.6138 H   0  0  0  0  0  0  0  0  0  0  0  0
  1  4  2  0  0  0  0
  1  2  1  0  0  0  0
  2  3  2  0  0  0  0
  4 12  1  0  0  0  0
  5 13  1  0  0  0  0
  5  4  1  0  0  0  0
  6  5  2  0  0  0  0
  7  8  2  0  0  0  0
  7  6  1  0  0  0  0
  9  7  2  0  0  0  0
 10 11  2  0  0  0  0
 10  6  1  0  0  0  0
 11  1  1  0  0  0  0
 14 10  1  0  0  0  0
 15 11  1  0  0  0  0
 16 22  1  0  0  0  0
 16 17  2  0  0  0  0
 17 23  1  0  0  0  0
 18 17  1  0  0  0  0
 18 30  1  0  0  0  0
 19 18  2  0  0  0  0
 20 21  2  0  0  0  0
 20 19  1  0  0  0  0
 21 16  1  0  0  0  0
 24 19  1  0  0  0  0
 25 20  1  0  0  0  0
 26 27  1  0  0  0  0
 26 21  1  0  0  0  0
 28 26  2  0  0  0  0
 29 26  2  0  0  0  0
 30 33  1  0  0  0  0
 30 31  1  0  0  0  0
 32 30  1  0  0  0  0
M  RAD  2   3   2  27   2
M  END
