Coordinates from ORCA-job 4-NO2PhN2+~TsO-_B3LYPG-6-31G_dp-NX-Scan-d89-09-n800
 OpenBabel11261920283D

 33 33  0  0  0  0  0  0  0  0999 V2000
   -4.1582   -2.8935    0.3294 C   0  0  0  0  0  0  0  0  0  0  0  0
   -4.7064   -3.7444    1.3403 N   0  0  0  0  0  0  0  0  0  0  0  0
   -4.6021   -4.0834    2.4103 N   0  0  0  0  0  0  0  0  0  0  0  0
   -3.2980   -1.8888    0.8000 C   0  0  0  0  0  0  0  0  0  0  0  0
   -2.7018   -1.0487   -0.1284 C   0  0  0  0  0  0  0  0  0  0  0  0
   -2.9755   -1.2487   -1.4821 C   0  0  0  0  0  0  0  0  0  0  0  0
   -2.3291   -0.3531   -2.4693 N   0  0  0  0  0  0  0  0  0  0  0  0
   -1.5930    0.5262   -2.0298 O   0  0  0  0  0  0  0  0  0  0  0  0
   -2.5709   -0.5554   -3.6546 O   0  0  0  0  0  0  0  0  0  0  0  0
   -3.8268   -2.2479   -1.9412 C   0  0  0  0  0  0  0  0  0  0  0  0
   -4.4403   -3.0941   -1.0193 C   0  0  0  0  0  0  0  0  0  0  0  0
   -3.1170   -1.7710    1.8621 H   0  0  0  0  0  0  0  0  0  0  0  0
   -2.0367   -0.2497    0.1736 H   0  0  0  0  0  0  0  0  0  0  0  0
   -4.0128   -2.3515   -3.0026 H   0  0  0  0  0  0  0  0  0  0  0  0
   -5.1350   -3.8670   -1.3190 H   0  0  0  0  0  0  0  0  0  0  0  0
   -9.3423   -4.8669    1.8688 C   0  0  0  0  0  0  0  0  0  0  0  0
  -10.4224   -5.6888    2.1844 C   0  0  0  0  0  0  0  0  0  0  0  0
  -11.0444   -6.4768    1.2055 C   0  0  0  0  0  0  0  0  0  0  0  0
  -10.5536   -6.4208   -0.1073 C   0  0  0  0  0  0  0  0  0  0  0  0
   -9.4756   -5.6032   -0.4395 C   0  0  0  0  0  0  0  0  0  0  0  0
   -8.8742   -4.8306    0.5549 C   0  0  0  0  0  0  0  0  0  0  0  0
   -8.8728   -4.2454    2.6236 H   0  0  0  0  0  0  0  0  0  0  0  0
  -10.7930   -5.7155    3.2060 H   0  0  0  0  0  0  0  0  0  0  0  0
  -11.0257   -7.0219   -0.8802 H   0  0  0  0  0  0  0  0  0  0  0  0
   -9.1063   -5.5475   -1.4576 H   0  0  0  0  0  0  0  0  0  0  0  0
   -7.4725   -3.7938    0.1420 S   0  0  0  0  0  0  0  0  0  0  0  0
   -6.2597   -4.7389    0.3865 O   0  0  0  0  0  0  0  0  0  0  0  0
   -7.4306   -2.6691    1.1000 O   0  0  0  0  0  0  0  0  0  0  0  0
   -7.5734   -3.4588   -1.2929 O   0  0  0  0  0  0  0  0  0  0  0  0
  -12.2368   -7.3383    1.5471 C   0  0  0  0  0  0  0  0  0  0  0  0
  -12.2350   -7.6258    2.6024 H   0  0  0  0  0  0  0  0  0  0  0  0
  -13.1755   -6.8028    1.3562 H   0  0  0  0  0  0  0  0  0  0  0  0
  -12.2571   -8.2514    0.9455 H   0  0  0  0  0  0  0  0  0  0  0  0
  1  4  1  0  0  0  0
  1  2  1  0  0  0  0
  2  3  2  0  0  0  0
  4 12  1  0  0  0  0
  5 13  1  0  0  0  0
  5  4  2  0  0  0  0
  6  5  1  0  0  0  0
  7  8  2  0  0  0  0
  7  6  1  0  0  0  0
  9  7  2  0  0  0  0
 10  6  2  0  0  0  0
 10 11  1  0  0  0  0
 11  1  2  0  0  0  0
 14 10  1  0  0  0  0
 15 11  1  0  0  0  0
 16 17  1  0  0  0  0
 16 22  1  0  0  0  0
 17 23  1  0  0  0  0
 18 30  1  0  0  0  0
 18 17  2  0  0  0  0
 19 18  1  0  0  0  0
 20 19  2  0  0  0  0
 20 21  1  0  0  0  0
 21 16  2  0  0  0  0
 24 19  1  0  0  0  0
 25 20  1  0  0  0  0
 26 27  2  0  0  0  0
 26 21  1  0  0  0  0
 26 28  1  0  0  0  0
 29 26  2  0  0  0  0
 30 31  1  0  0  0  0
 32 30  1  0  0  0  0
 33 30  1  0  0  0  0
M  RAD  2   3   2  28   2
M  END
