Coordinates from ORCA-job 4-NO2PhN2+~TsO-_B3LYPG-6-31G_dp-NX-Scan-d89-09-n800
 OpenBabel11261920283D

 33 33  0  0  0  0  0  0  0  0999 V2000
   -4.6277   -0.8193    1.2711 C   0  0  0  0  0  0  0  0  0  0  0  0
   -5.0248   -0.0997    2.3712 N   0  0  0  0  0  0  0  0  0  0  0  0
   -5.2276    0.5063    3.2968 N   0  0  0  0  0  0  0  0  0  0  0  0
   -3.2198   -0.8915    1.0932 C   0  0  0  0  0  0  0  0  0  0  0  0
   -2.7473   -1.6023    0.0115 C   0  0  0  0  0  0  0  0  0  0  0  0
   -3.6693   -2.2007   -0.8573 C   0  0  0  0  0  0  0  0  0  0  0  0
   -3.1139   -2.9297   -2.0247 N   0  0  0  0  0  0  0  0  0  0  0  0
   -1.9382   -3.2868   -1.9340 O   0  0  0  0  0  0  0  0  0  0  0  0
   -3.8553   -3.1008   -2.9777 O   0  0  0  0  0  0  0  0  0  0  0  0
   -5.0515   -2.1433   -0.6892 C   0  0  0  0  0  0  0  0  0  0  0  0
   -5.5608   -1.4364    0.4016 C   0  0  0  0  0  0  0  0  0  0  0  0
   -2.5502   -0.4035    1.7919 H   0  0  0  0  0  0  0  0  0  0  0  0
   -1.6864   -1.7117   -0.1763 H   0  0  0  0  0  0  0  0  0  0  0  0
   -5.7396   -2.6877   -1.3569 H   0  0  0  0  0  0  0  0  0  0  0  0
   -6.6419   -1.4033    0.5324 H   0  0  0  0  0  0  0  0  0  0  0  0
  -10.0182   -4.6618    0.1989 C   0  0  0  0  0  0  0  0  0  0  0  0
  -10.5569   -5.6377    1.0344 C   0  0  0  0  0  0  0  0  0  0  0  0
   -9.9610   -6.9025    1.1498 C   0  0  0  0  0  0  0  0  0  0  0  0
   -8.8028   -7.1624    0.4002 C   0  0  0  0  0  0  0  0  0  0  0  0
   -8.2555   -6.1942   -0.4383 C   0  0  0  0  0  0  0  0  0  0  0  0
   -8.8646   -4.9404   -0.5408 C   0  0  0  0  0  0  0  0  0  0  0  0
  -10.4809   -3.6836    0.1172 H   0  0  0  0  0  0  0  0  0  0  0  0
  -11.4570   -5.4194    1.6042 H   0  0  0  0  0  0  0  0  0  0  0  0
   -8.3272   -8.1382    0.4740 H   0  0  0  0  0  0  0  0  0  0  0  0
   -7.3594   -6.3890   -1.0173 H   0  0  0  0  0  0  0  0  0  0  0  0
   -8.2057   -3.6971   -1.6669 S   0  0  0  0  0  0  0  0  0  0  0  0
   -8.2278   -2.4229   -0.8659 O   0  0  0  0  0  0  0  0  0  0  0  0
   -9.1018   -3.7118   -2.8471 O   0  0  0  0  0  0  0  0  0  0  0  0
   -6.7985   -4.1347   -1.9448 O   0  0  0  0  0  0  0  0  0  0  0  0
  -10.5356   -7.9551    2.0674 C   0  0  0  0  0  0  0  0  0  0  0  0
   -9.9159   -8.0847    2.9637 H   0  0  0  0  0  0  0  0  0  0  0  0
  -11.5428   -7.6902    2.3998 H   0  0  0  0  0  0  0  0  0  0  0  0
  -10.5886   -8.9307    1.5723 H   0  0  0  0  0  0  0  0  0  0  0  0
  1  2  1  0  0  0  0
  2  3  1  0  0  0  0
  4  1  1  0  0  0  0
  4 12  1  0  0  0  0
  5  4  2  0  0  0  0
  6 10  2  0  0  0  0
  6  5  1  0  0  0  0
  7  8  2  0  0  0  0
  7  6  1  0  0  0  0
  9  7  2  0  0  0  0
 10 11  1  0  0  0  0
 11 15  1  0  0  0  0
 11  1  2  0  0  0  0
 13  5  1  0  0  0  0
 14 10  1  0  0  0  0
 16 17  2  0  0  0  0
 17 18  1  0  0  0  0
 17 23  1  0  0  0  0
 18 30  1  0  0  0  0
 19 24  1  0  0  0  0
 19 18  2  0  0  0  0
 20 19  1  0  0  0  0
 21 20  2  0  0  0  0
 21 16  1  0  0  0  0
 22 16  1  0  0  0  0
 25 20  1  0  0  0  0
 26 27  1  0  0  0  0
 26 21  1  0  0  0  0
 28 26  2  0  0  0  0
 29 26  2  0  0  0  0
 30 32  1  0  0  0  0
 30 31  1  0  0  0  0
 33 30  1  0  0  0  0
M  RAD  3   2   2   3   3  27   2
M  END
