Coordinates from ORCA-job 4-NO2PhN2+~TsO-_B3LYPG-6-31G_dp-NX-Scan-d89-09-n800
 OpenBabel11261920283D

 33 33  0  0  0  0  0  0  0  0999 V2000
   -4.6637   -0.8415    1.1879 C   0  0  0  0  0  0  0  0  0  0  0  0
   -5.1468   -0.1352    2.2614 N   0  0  0  0  0  0  0  0  0  0  0  0
   -5.4405    0.4592    3.1677 N   0  0  0  0  0  0  0  0  0  0  0  0
   -3.2490   -0.8361    1.0563 C   0  0  0  0  0  0  0  0  0  0  0  0
   -2.7060   -1.5380    0.0025 C   0  0  0  0  0  0  0  0  0  0  0  0
   -3.5672   -2.2117   -0.8756 C   0  0  0  0  0  0  0  0  0  0  0  0
   -2.9360   -2.9507   -2.0012 N   0  0  0  0  0  0  0  0  0  0  0  0
   -1.7128   -3.0876   -1.9481 O   0  0  0  0  0  0  0  0  0  0  0  0
   -3.6718   -3.3549   -2.8863 O   0  0  0  0  0  0  0  0  0  0  0  0
   -4.9533   -2.2246   -0.7508 C   0  0  0  0  0  0  0  0  0  0  0  0
   -5.5365   -1.5181    0.3050 C   0  0  0  0  0  0  0  0  0  0  0  0
   -2.6292   -0.2995    1.7653 H   0  0  0  0  0  0  0  0  0  0  0  0
   -1.6361   -1.5861   -0.1571 H   0  0  0  0  0  0  0  0  0  0  0  0
   -5.6069   -2.8083   -1.4221 H   0  0  0  0  0  0  0  0  0  0  0  0
   -6.6272   -1.5445    0.3872 H   0  0  0  0  0  0  0  0  0  0  0  0
  -10.0176   -4.6309    0.3166 C   0  0  0  0  0  0  0  0  0  0  0  0
  -10.5572   -5.6344    1.1176 C   0  0  0  0  0  0  0  0  0  0  0  0
   -9.9928   -6.9186    1.1495 C   0  0  0  0  0  0  0  0  0  0  0  0
   -8.8667   -7.1693    0.3507 C   0  0  0  0  0  0  0  0  0  0  0  0
   -8.3183   -6.1731   -0.4546 C   0  0  0  0  0  0  0  0  0  0  0  0
   -8.8953   -4.9009   -0.4728 C   0  0  0  0  0  0  0  0  0  0  0  0
  -10.4566   -3.6386    0.2989 H   0  0  0  0  0  0  0  0  0  0  0  0
  -11.4335   -5.4230    1.7259 H   0  0  0  0  0  0  0  0  0  0  0  0
   -8.4169   -8.1599    0.3585 H   0  0  0  0  0  0  0  0  0  0  0  0
   -7.4472   -6.3614   -1.0726 H   0  0  0  0  0  0  0  0  0  0  0  0
   -8.2388   -3.6192   -1.5557 S   0  0  0  0  0  0  0  0  0  0  0  0
   -8.1815   -2.3931   -0.6795 O   0  0  0  0  0  0  0  0  0  0  0  0
   -9.1821   -3.5187   -2.6906 O   0  0  0  0  0  0  0  0  0  0  0  0
   -6.8647   -4.0921   -1.9228 O   0  0  0  0  0  0  0  0  0  0  0  0
  -10.5657   -7.9991    2.0355 C   0  0  0  0  0  0  0  0  0  0  0  0
   -9.9691   -8.1243    2.9481 H   0  0  0  0  0  0  0  0  0  0  0  0
  -11.5883   -7.7644    2.3434 H   0  0  0  0  0  0  0  0  0  0  0  0
  -10.5792   -8.9684    1.5261 H   0  0  0  0  0  0  0  0  0  0  0  0
  1  2  1  0  0  0  0
  2  3  1  0  0  0  0
  4  1  1  0  0  0  0
  4 12  1  0  0  0  0
  5  4  2  0  0  0  0
  6 10  2  0  0  0  0
  6  5  1  0  0  0  0
  7  8  2  0  0  0  0
  7  6  1  0  0  0  0
  9  7  2  0  0  0  0
 10 11  1  0  0  0  0
 11 15  1  0  0  0  0
 11  1  2  0  0  0  0
 13  5  1  0  0  0  0
 14 10  1  0  0  0  0
 16 17  2  0  0  0  0
 17 18  1  0  0  0  0
 17 23  1  0  0  0  0
 18 30  1  0  0  0  0
 19 24  1  0  0  0  0
 19 18  2  0  0  0  0
 20 19  1  0  0  0  0
 21 20  2  0  0  0  0
 21 16  1  0  0  0  0
 22 16  1  0  0  0  0
 25 20  1  0  0  0  0
 26 27  1  0  0  0  0
 26 21  1  0  0  0  0
 28 26  2  0  0  0  0
 29 26  2  0  0  0  0
 30 32  1  0  0  0  0
 30 31  1  0  0  0  0
 33 30  1  0  0  0  0
M  RAD  3   2   2   3   3  27   2
M  END
