Coordinates from ORCA-job 4-NO2PhN2+~TsO-_B3LYPG-6-31G_dp-NX-Scan-d89-09-n800
 OpenBabel11261920283D

 33 33  0  0  0  0  0  0  0  0999 V2000
   -5.5948   -2.3570    0.0485 C   0  0  0  0  0  0  0  0  0  0  0  0
   -6.9643   -2.5117    0.4302 N   0  0  0  0  0  0  0  0  0  0  0  0
   -7.6820   -2.5906    1.2998 N   0  0  0  0  0  0  0  0  0  0  0  0
   -4.7481   -1.8205    1.0292 C   0  0  0  0  0  0  0  0  0  0  0  0
   -3.4011   -1.6746    0.7261 C   0  0  0  0  0  0  0  0  0  0  0  0
   -2.9537   -2.0825   -0.5303 C   0  0  0  0  0  0  0  0  0  0  0  0
   -1.5149   -1.9294   -0.8477 N   0  0  0  0  0  0  0  0  0  0  0  0
   -0.7973   -1.4463    0.0242 O   0  0  0  0  0  0  0  0  0  0  0  0
   -1.1421   -2.2965   -1.9570 O   0  0  0  0  0  0  0  0  0  0  0  0
   -3.7984   -2.6264   -1.4939 C   0  0  0  0  0  0  0  0  0  0  0  0
   -5.1566   -2.7643   -1.2115 C   0  0  0  0  0  0  0  0  0  0  0  0
   -5.1427   -1.5212    1.9931 H   0  0  0  0  0  0  0  0  0  0  0  0
   -2.7002   -1.2570    1.4372 H   0  0  0  0  0  0  0  0  0  0  0  0
   -3.3947   -2.9297   -2.4513 H   0  0  0  0  0  0  0  0  0  0  0  0
   -5.8514   -3.1794   -1.9355 H   0  0  0  0  0  0  0  0  0  0  0  0
  -10.1475   -4.2916    0.2502 C   0  0  0  0  0  0  0  0  0  0  0  0
  -10.4896   -5.1110    1.3237 C   0  0  0  0  0  0  0  0  0  0  0  0
   -9.7441   -6.2599    1.6272 C   0  0  0  0  0  0  0  0  0  0  0  0
   -8.6387   -6.5683    0.8218 C   0  0  0  0  0  0  0  0  0  0  0  0
   -8.2821   -5.7565   -0.2547 C   0  0  0  0  0  0  0  0  0  0  0  0
   -9.0361   -4.6158   -0.5337 C   0  0  0  0  0  0  0  0  0  0  0  0
  -10.7414   -3.4172    0.0058 H   0  0  0  0  0  0  0  0  0  0  0  0
  -11.3545   -4.8601    1.9326 H   0  0  0  0  0  0  0  0  0  0  0  0
   -8.0549   -7.4604    1.0338 H   0  0  0  0  0  0  0  0  0  0  0  0
   -7.4408   -6.0062   -0.8928 H   0  0  0  0  0  0  0  0  0  0  0  0
   -8.5923   -3.5532   -1.9132 S   0  0  0  0  0  0  0  0  0  0  0  0
   -7.9091   -2.2986   -1.2917 O   0  0  0  0  0  0  0  0  0  0  0  0
   -9.8517   -3.1094   -2.5094 O   0  0  0  0  0  0  0  0  0  0  0  0
   -7.6092   -4.3076   -2.7188 O   0  0  0  0  0  0  0  0  0  0  0  0
  -10.1464   -7.1605    2.7704 C   0  0  0  0  0  0  0  0  0  0  0  0
  -10.5747   -6.5891    3.5994 H   0  0  0  0  0  0  0  0  0  0  0  0
  -10.9056   -7.8851    2.4504 H   0  0  0  0  0  0  0  0  0  0  0  0
   -9.2938   -7.7293    3.1524 H   0  0  0  0  0  0  0  0  0  0  0  0
  1  2  1  0  0  0  0
  1  4  2  0  0  0  0
  2  3  2  0  0  0  0
  4 12  1  0  0  0  0
  5  4  1  0  0  0  0
  5 13  1  0  0  0  0
  6  5  2  0  0  0  0
  7  6  1  0  0  0  0
  7  8  2  0  0  0  0
  9  7  2  0  0  0  0
 10 11  2  0  0  0  0
 10  6  1  0  0  0  0
 11  1  1  0  0  0  0
 14 10  1  0  0  0  0
 15 11  1  0  0  0  0
 16 17  2  0  0  0  0
 17 18  1  0  0  0  0
 17 23  1  0  0  0  0
 18 30  1  0  0  0  0
 19 24  1  0  0  0  0
 19 18  2  0  0  0  0
 20 19  1  0  0  0  0
 21 20  2  0  0  0  0
 21 16  1  0  0  0  0
 22 16  1  0  0  0  0
 25 20  1  0  0  0  0
 26 27  1  0  0  0  0
 26 21  1  0  0  0  0
 28 26  2  0  0  0  0
 29 26  2  0  0  0  0
 30 33  1  0  0  0  0
 30 31  1  0  0  0  0
 32 30  1  0  0  0  0
M  RAD  2   3   2  27   2
M  END
