Coordinates from ORCA-job 4-NO2PhN2+~TsO-_B3LYPG-6-31G_dp-NX-Scan-d89-09-n800
 OpenBabel11261920283D

 33 33  0  0  0  0  0  0  0  0999 V2000
   -4.8105   -0.6509    0.7113 C   0  0  0  0  0  0  0  0  0  0  0  0
   -5.4504    0.3664    1.3710 N   0  0  0  0  0  0  0  0  0  0  0  0
   -5.9357    1.2022    1.9387 N   0  0  0  0  0  0  0  0  0  0  0  0
   -3.4030   -0.7336    0.8786 C   0  0  0  0  0  0  0  0  0  0  0  0
   -2.7495   -1.7497    0.2166 C   0  0  0  0  0  0  0  0  0  0  0  0
   -3.5019   -2.6465   -0.5610 C   0  0  0  0  0  0  0  0  0  0  0  0
   -2.7664   -3.7445   -1.2377 N   0  0  0  0  0  0  0  0  0  0  0  0
   -1.5498   -3.7878   -1.0572 O   0  0  0  0  0  0  0  0  0  0  0  0
   -3.4207   -4.5242   -1.9153 O   0  0  0  0  0  0  0  0  0  0  0  0
   -4.8800   -2.5652   -0.7148 C   0  0  0  0  0  0  0  0  0  0  0  0
   -5.5739   -1.5298   -0.0821 C   0  0  0  0  0  0  0  0  0  0  0  0
   -2.8727   -0.0258    1.5055 H   0  0  0  0  0  0  0  0  0  0  0  0
   -1.6774   -1.8798    0.2915 H   0  0  0  0  0  0  0  0  0  0  0  0
   -5.4626   -3.2631   -1.3167 H   0  0  0  0  0  0  0  0  0  0  0  0
   -6.6720   -1.4687   -0.1838 H   0  0  0  0  0  0  0  0  0  0  0  0
   -9.7906   -4.5325    0.8489 C   0  0  0  0  0  0  0  0  0  0  0  0
  -10.1412   -5.7069    1.5121 C   0  0  0  0  0  0  0  0  0  0  0  0
   -9.7566   -6.9616    1.0174 C   0  0  0  0  0  0  0  0  0  0  0  0
   -9.0088   -7.0064   -0.1669 C   0  0  0  0  0  0  0  0  0  0  0  0
   -8.6510   -5.8382   -0.8393 C   0  0  0  0  0  0  0  0  0  0  0  0
   -9.0433   -4.6002   -0.3288 C   0  0  0  0  0  0  0  0  0  0  0  0
  -10.0848   -3.5643    1.2394 H   0  0  0  0  0  0  0  0  0  0  0  0
  -10.7225   -5.6504    2.4296 H   0  0  0  0  0  0  0  0  0  0  0  0
   -8.7026   -7.9692   -0.5688 H   0  0  0  0  0  0  0  0  0  0  0  0
   -8.0668   -5.8747   -1.7525 H   0  0  0  0  0  0  0  0  0  0  0  0
   -8.6439   -3.0942   -1.2315 S   0  0  0  0  0  0  0  0  0  0  0  0
   -8.3951   -2.0654   -0.1508 O   0  0  0  0  0  0  0  0  0  0  0  0
   -9.8069   -2.7792   -2.0846 O   0  0  0  0  0  0  0  0  0  0  0  0
   -7.3884   -3.4033   -1.9834 O   0  0  0  0  0  0  0  0  0  0  0  0
  -10.1136   -8.2289    1.7581 C   0  0  0  0  0  0  0  0  0  0  0  0
   -9.3543   -8.4781    2.5107 H   0  0  0  0  0  0  0  0  0  0  0  0
  -11.0688   -8.1303    2.2832 H   0  0  0  0  0  0  0  0  0  0  0  0
  -10.1887   -9.0824    1.0775 H   0  0  0  0  0  0  0  0  0  0  0  0
  1  4  1  0  0  0  0
  1  2  1  0  0  0  0
  2  3  1  0  0  0  0
  4 12  1  0  0  0  0
  5 13  1  0  0  0  0
  5  4  2  0  0  0  0
  6  5  1  0  0  0  0
  7  8  2  0  0  0  0
  7  6  1  0  0  0  0
  9  7  2  0  0  0  0
 10  6  2  0  0  0  0
 10 11  1  0  0  0  0
 11  1  2  0  0  0  0
 14 10  1  0  0  0  0
 15 11  1  0  0  0  0
 16 22  1  0  0  0  0
 16 17  2  0  0  0  0
 17 23  1  0  0  0  0
 18 17  1  0  0  0  0
 18 30  1  0  0  0  0
 19 18  2  0  0  0  0
 20 21  2  0  0  0  0
 20 19  1  0  0  0  0
 21 16  1  0  0  0  0
 24 19  1  0  0  0  0
 25 20  1  0  0  0  0
 26 21  1  0  0  0  0
 26 27  1  0  0  0  0
 28 26  2  0  0  0  0
 29 26  2  0  0  0  0
 30 32  1  0  0  0  0
 30 31  1  0  0  0  0
 33 30  1  0  0  0  0
M  RAD  3   2   2   3   3  27   2
M  END
