Coordinates from ORCA-job 4-NO2PhN2+~TsO-_B3LYPG-6-31G_dp-NX-Scan-d89-09-n800
 OpenBabel11261920283D

 33 33  0  0  0  0  0  0  0  0999 V2000
   -4.6107   -0.8128    1.2890 C   0  0  0  0  0  0  0  0  0  0  0  0
   -4.9890   -0.0937    2.3961 N   0  0  0  0  0  0  0  0  0  0  0  0
   -5.1740    0.5116    3.3262 N   0  0  0  0  0  0  0  0  0  0  0  0
   -3.2054   -0.8956    1.0953 C   0  0  0  0  0  0  0  0  0  0  0  0
   -2.7500   -1.6052    0.0052 C   0  0  0  0  0  0  0  0  0  0  0  0
   -3.6855   -2.1906   -0.8574 C   0  0  0  0  0  0  0  0  0  0  0  0
   -3.1488   -2.9140   -2.0360 N   0  0  0  0  0  0  0  0  0  0  0  0
   -1.9841   -3.3067   -1.9487 O   0  0  0  0  0  0  0  0  0  0  0  0
   -3.8922   -3.0446   -2.9937 O   0  0  0  0  0  0  0  0  0  0  0  0
   -5.0658   -2.1239   -0.6739 C   0  0  0  0  0  0  0  0  0  0  0  0
   -5.5574   -1.4200    0.4264 C   0  0  0  0  0  0  0  0  0  0  0  0
   -2.5245   -0.4160    1.7888 H   0  0  0  0  0  0  0  0  0  0  0  0
   -1.6919   -1.7227   -0.1935 H   0  0  0  0  0  0  0  0  0  0  0  0
   -5.7619   -2.6609   -1.3381 H   0  0  0  0  0  0  0  0  0  0  0  0
   -6.6356   -1.3785    0.5718 H   0  0  0  0  0  0  0  0  0  0  0  0
  -10.0245   -4.6745    0.1712 C   0  0  0  0  0  0  0  0  0  0  0  0
  -10.5668   -5.6442    1.0115 C   0  0  0  0  0  0  0  0  0  0  0  0
   -9.9637   -6.9035    1.1491 C   0  0  0  0  0  0  0  0  0  0  0  0
   -8.7945   -7.1641    0.4168 C   0  0  0  0  0  0  0  0  0  0  0  0
   -8.2436   -6.2020   -0.4262 C   0  0  0  0  0  0  0  0  0  0  0  0
   -8.8599   -4.9536   -0.5511 C   0  0  0  0  0  0  0  0  0  0  0  0
  -10.4926   -3.7005    0.0724 H   0  0  0  0  0  0  0  0  0  0  0  0
  -11.4752   -5.4255    1.5677 H   0  0  0  0  0  0  0  0  0  0  0  0
   -8.3131   -8.1355    0.5079 H   0  0  0  0  0  0  0  0  0  0  0  0
   -7.3390   -6.3973   -0.9917 H   0  0  0  0  0  0  0  0  0  0  0  0
   -8.1954   -3.7187   -1.6830 S   0  0  0  0  0  0  0  0  0  0  0  0
   -8.2376   -2.4353   -0.8984 O   0  0  0  0  0  0  0  0  0  0  0  0
   -9.0766   -3.7569   -2.8747 O   0  0  0  0  0  0  0  0  0  0  0  0
   -6.7811   -4.1480   -1.9365 O   0  0  0  0  0  0  0  0  0  0  0  0
  -10.5426   -7.9496    2.0713 C   0  0  0  0  0  0  0  0  0  0  0  0
   -9.9274   -8.0726    2.9716 H   0  0  0  0  0  0  0  0  0  0  0  0
  -11.5517   -7.6829    2.3965 H   0  0  0  0  0  0  0  0  0  0  0  0
  -10.5925   -8.9288    1.5829 H   0  0  0  0  0  0  0  0  0  0  0  0
  1  2  1  0  0  0  0
  2  3  1  0  0  0  0
  4  1  1  0  0  0  0
  4 12  1  0  0  0  0
  5  4  2  0  0  0  0
  6 10  2  0  0  0  0
  6  5  1  0  0  0  0
  7  8  2  0  0  0  0
  7  6  1  0  0  0  0
  9  7  2  0  0  0  0
 10 11  1  0  0  0  0
 11 15  1  0  0  0  0
 11  1  2  0  0  0  0
 13  5  1  0  0  0  0
 14 10  1  0  0  0  0
 16 17  2  0  0  0  0
 17 18  1  0  0  0  0
 17 23  1  0  0  0  0
 18 30  1  0  0  0  0
 19 24  1  0  0  0  0
 19 18  2  0  0  0  0
 20 19  1  0  0  0  0
 21 20  2  0  0  0  0
 21 16  1  0  0  0  0
 22 16  1  0  0  0  0
 25 20  1  0  0  0  0
 26 27  1  0  0  0  0
 26 21  1  0  0  0  0
 28 26  2  0  0  0  0
 29 26  2  0  0  0  0
 30 32  1  0  0  0  0
 30 31  1  0  0  0  0
 33 30  1  0  0  0  0
M  RAD  3   2   2   3   3  27   2
M  END
