Coordinates from ORCA-job 4-NO2PhN2+~TsO-_B3LYPG-6-31G_dp-NX-Scan-d89-09-n800
 OpenBabel11261920283D

 33 33  0  0  0  0  0  0  0  0999 V2000
   -4.6829   -2.5218    0.3787 C   0  0  0  0  0  0  0  0  0  0  0  0
   -5.6268   -3.1823    1.2199 N   0  0  0  0  0  0  0  0  0  0  0  0
   -5.8790   -3.5956    2.2364 N   0  0  0  0  0  0  0  0  0  0  0  0
   -3.9677   -1.4748    0.9739 C   0  0  0  0  0  0  0  0  0  0  0  0
   -3.0006   -0.8360    0.2076 C   0  0  0  0  0  0  0  0  0  0  0  0
   -2.7818   -1.2795   -1.0957 C   0  0  0  0  0  0  0  0  0  0  0  0
   -1.7391   -0.6014   -1.9005 N   0  0  0  0  0  0  0  0  0  0  0  0
   -1.1348    0.3258   -1.3682 O   0  0  0  0  0  0  0  0  0  0  0  0
   -1.5510   -1.0167   -3.0391 O   0  0  0  0  0  0  0  0  0  0  0  0
   -3.4971   -2.3276   -1.6713 C   0  0  0  0  0  0  0  0  0  0  0  0
   -4.4877   -2.9643   -0.9287 C   0  0  0  0  0  0  0  0  0  0  0  0
   -4.1710   -1.1693    1.9934 H   0  0  0  0  0  0  0  0  0  0  0  0
   -2.4186   -0.0123    0.6008 H   0  0  0  0  0  0  0  0  0  0  0  0
   -3.2857   -2.6250   -2.6901 H   0  0  0  0  0  0  0  0  0  0  0  0
   -5.1006   -3.7724   -1.3294 H   0  0  0  0  0  0  0  0  0  0  0  0
   -9.7311   -4.3756    0.8992 C   0  0  0  0  0  0  0  0  0  0  0  0
  -10.6242   -5.1364    1.6522 C   0  0  0  0  0  0  0  0  0  0  0  0
  -10.7346   -6.5214    1.4655 C   0  0  0  0  0  0  0  0  0  0  0  0
   -9.9123   -7.1303    0.5065 C   0  0  0  0  0  0  0  0  0  0  0  0
   -9.0133   -6.3831   -0.2523 C   0  0  0  0  0  0  0  0  0  0  0  0
   -8.9257   -5.0042   -0.0523 C   0  0  0  0  0  0  0  0  0  0  0  0
   -9.6454   -3.3052    1.0539 H   0  0  0  0  0  0  0  0  0  0  0  0
  -11.2456   -4.6468    2.3980 H   0  0  0  0  0  0  0  0  0  0  0  0
   -9.9758   -8.2050    0.3528 H   0  0  0  0  0  0  0  0  0  0  0  0
   -8.3697   -6.8579   -0.9849 H   0  0  0  0  0  0  0  0  0  0  0  0
   -7.8193   -4.0335   -1.0806 S   0  0  0  0  0  0  0  0  0  0  0  0
   -7.2995   -2.9268   -0.1369 O   0  0  0  0  0  0  0  0  0  0  0  0
   -8.6057   -3.4531   -2.1836 O   0  0  0  0  0  0  0  0  0  0  0  0
   -6.7098   -4.9485   -1.4610 O   0  0  0  0  0  0  0  0  0  0  0  0
  -11.7294   -7.3353    2.2597 C   0  0  0  0  0  0  0  0  0  0  0  0
  -11.9936   -6.8412    3.1989 H   0  0  0  0  0  0  0  0  0  0  0  0
  -12.6583   -7.4810    1.6945 H   0  0  0  0  0  0  0  0  0  0  0  0
  -11.3370   -8.3287    2.4972 H   0  0  0  0  0  0  0  0  0  0  0  0
  1  4  1  0  0  0  0
  1  2  1  0  0  0  0
  2  3  2  0  0  0  0
  4 12  1  0  0  0  0
  5 13  1  0  0  0  0
  5  4  2  0  0  0  0
  6  5  1  0  0  0  0
  7  8  2  0  0  0  0
  7  6  1  0  0  0  0
  9  7  2  0  0  0  0
 10  6  2  0  0  0  0
 10 11  1  0  0  0  0
 11  1  2  0  0  0  0
 14 10  1  0  0  0  0
 15 11  1  0  0  0  0
 16 22  1  0  0  0  0
 16 17  2  0  0  0  0
 17 23  1  0  0  0  0
 18 17  1  0  0  0  0
 18 30  1  0  0  0  0
 19 18  2  0  0  0  0
 20 21  2  0  0  0  0
 20 19  1  0  0  0  0
 21 16  1  0  0  0  0
 24 19  1  0  0  0  0
 25 20  1  0  0  0  0
 26 27  1  0  0  0  0
 26 21  1  0  0  0  0
 28 26  2  0  0  0  0
 29 26  2  0  0  0  0
 30 33  1  0  0  0  0
 30 31  1  0  0  0  0
 32 30  1  0  0  0  0
M  RAD  2   3   2  27   2
M  END
