Coordinates from ORCA-job 4-NO2PhN2+~TsO-_B3LYPG-6-31G_dp-NX-Scan-d89-09-n800
 OpenBabel11261920283D

 33 33  0  0  0  0  0  0  0  0999 V2000
   -4.4414   -2.2078    0.4283 C   0  0  0  0  0  0  0  0  0  0  0  0
   -5.2674   -2.3950    1.5793 N   0  0  0  0  0  0  0  0  0  0  0  0
   -5.4241   -2.1755    2.6725 N   0  0  0  0  0  0  0  0  0  0  0  0
   -3.0782   -2.0158    0.6934 C   0  0  0  0  0  0  0  0  0  0  0  0
   -2.2282   -1.7843   -0.3796 C   0  0  0  0  0  0  0  0  0  0  0  0
   -2.7739   -1.7379   -1.6619 C   0  0  0  0  0  0  0  0  0  0  0  0
   -1.8640   -1.4860   -2.8032 N   0  0  0  0  0  0  0  0  0  0  0  0
   -0.6740   -1.3238   -2.5461 O   0  0  0  0  0  0  0  0  0  0  0  0
   -2.3623   -1.4556   -3.9236 O   0  0  0  0  0  0  0  0  0  0  0  0
   -4.1315   -1.9163   -1.9133 C   0  0  0  0  0  0  0  0  0  0  0  0
   -4.9966   -2.1701   -0.8504 C   0  0  0  0  0  0  0  0  0  0  0  0
   -2.7024   -2.0550    1.7094 H   0  0  0  0  0  0  0  0  0  0  0  0
   -1.1649   -1.6363   -0.2407 H   0  0  0  0  0  0  0  0  0  0  0  0
   -4.4996   -1.8637   -2.9300 H   0  0  0  0  0  0  0  0  0  0  0  0
   -6.0628   -2.3220   -1.0033 H   0  0  0  0  0  0  0  0  0  0  0  0
   -9.5480   -4.9695    2.0718 C   0  0  0  0  0  0  0  0  0  0  0  0
  -10.3914   -6.0740    2.1779 C   0  0  0  0  0  0  0  0  0  0  0  0
  -10.7869   -6.7961    1.0434 C   0  0  0  0  0  0  0  0  0  0  0  0
  -10.3130   -6.3821   -0.2106 C   0  0  0  0  0  0  0  0  0  0  0  0
   -9.4703   -5.2803   -0.3339 C   0  0  0  0  0  0  0  0  0  0  0  0
   -9.0907   -4.5798    0.8126 C   0  0  0  0  0  0  0  0  0  0  0  0
   -9.2563   -4.4009    2.9481 H   0  0  0  0  0  0  0  0  0  0  0  0
  -10.7533   -6.3778    3.1566 H   0  0  0  0  0  0  0  0  0  0  0  0
  -10.6128   -6.9276   -1.1018 H   0  0  0  0  0  0  0  0  0  0  0  0
   -9.1175   -4.9497   -1.3044 H   0  0  0  0  0  0  0  0  0  0  0  0
   -7.9868   -3.1778    0.6732 S   0  0  0  0  0  0  0  0  0  0  0  0
   -6.5847   -3.8229    0.7939 O   0  0  0  0  0  0  0  0  0  0  0  0
   -8.2365   -2.2729    1.8124 O   0  0  0  0  0  0  0  0  0  0  0  0
   -8.1626   -2.6085   -0.6840 O   0  0  0  0  0  0  0  0  0  0  0  0
  -11.7279   -7.9711    1.1612 C   0  0  0  0  0  0  0  0  0  0  0  0
  -11.7255   -8.3869    2.1727 H   0  0  0  0  0  0  0  0  0  0  0  0
  -12.7590   -7.6738    0.9316 H   0  0  0  0  0  0  0  0  0  0  0  0
  -11.4600   -8.7703    0.4630 H   0  0  0  0  0  0  0  0  0  0  0  0
  1  4  1  0  0  0  0
  1  2  1  0  0  0  0
  2  3  2  0  0  0  0
  4 12  1  0  0  0  0
  5 13  1  0  0  0  0
  5  4  2  0  0  0  0
  6  5  1  0  0  0  0
  7  8  2  0  0  0  0
  7  6  1  0  0  0  0
  9  7  2  0  0  0  0
 10  6  2  0  0  0  0
 10 11  1  0  0  0  0
 11  1  2  0  0  0  0
 14 10  1  0  0  0  0
 15 11  1  0  0  0  0
 16 17  1  0  0  0  0
 16 22  1  0  0  0  0
 17 23  1  0  0  0  0
 18 30  1  0  0  0  0
 18 17  2  0  0  0  0
 19 18  1  0  0  0  0
 20 19  2  0  0  0  0
 20 21  1  0  0  0  0
 21 16  2  0  0  0  0
 24 19  1  0  0  0  0
 25 20  1  0  0  0  0
 26 27  2  0  0  0  0
 26 21  1  0  0  0  0
 26 28  1  0  0  0  0
 29 26  2  0  0  0  0
 30 31  1  0  0  0  0
 32 30  1  0  0  0  0
 33 30  1  0  0  0  0
M  RAD  2   3   2  28   2
M  END
