Coordinates from ORCA-job 4-NO2PhN2+~TsO-_B3LYPG-6-31G_dp-NX-Scan-d89-09-n800
 OpenBabel11261920283D

 33 33  0  0  0  0  0  0  0  0999 V2000
   -4.6384   -0.8468    1.0365 C   0  0  0  0  0  0  0  0  0  0  0  0
   -5.2508   -0.1928    2.0781 N   0  0  0  0  0  0  0  0  0  0  0  0
   -5.6785    0.3564    2.9562 N   0  0  0  0  0  0  0  0  0  0  0  0
   -3.2356   -0.6524    0.9289 C   0  0  0  0  0  0  0  0  0  0  0  0
   -2.5858   -1.3021   -0.0975 C   0  0  0  0  0  0  0  0  0  0  0  0
   -3.3329   -2.1217   -0.9588 C   0  0  0  0  0  0  0  0  0  0  0  0
   -2.5908   -2.8178   -2.0442 N   0  0  0  0  0  0  0  0  0  0  0  0
   -1.3752   -2.6288   -2.0878 O   0  0  0  0  0  0  0  0  0  0  0  0
   -3.2389   -3.5189   -2.8055 O   0  0  0  0  0  0  0  0  0  0  0  0
   -4.7042   -2.3156   -0.8473 C   0  0  0  0  0  0  0  0  0  0  0  0
   -5.4021   -1.6531    0.1686 C   0  0  0  0  0  0  0  0  0  0  0  0
   -2.7053   -0.0190    1.6309 H   0  0  0  0  0  0  0  0  0  0  0  0
   -1.5186   -1.2016   -0.2488 H   0  0  0  0  0  0  0  0  0  0  0  0
   -5.2803   -2.9826   -1.4996 H   0  0  0  0  0  0  0  0  0  0  0  0
   -6.4972   -1.8060    0.2266 H   0  0  0  0  0  0  0  0  0  0  0  0
  -10.0559   -4.6484    0.5190 C   0  0  0  0  0  0  0  0  0  0  0  0
  -10.6533   -5.6846    1.2326 C   0  0  0  0  0  0  0  0  0  0  0  0
  -10.1662   -6.9977    1.1489 C   0  0  0  0  0  0  0  0  0  0  0  0
   -9.0582   -7.2435    0.3247 C   0  0  0  0  0  0  0  0  0  0  0  0
   -8.4517   -6.2146   -0.3939 C   0  0  0  0  0  0  0  0  0  0  0  0
   -8.9524   -4.9146   -0.2971 C   0  0  0  0  0  0  0  0  0  0  0  0
  -10.4344   -3.6341    0.5915 H   0  0  0  0  0  0  0  0  0  0  0  0
  -11.5147   -5.4750    1.8625 H   0  0  0  0  0  0  0  0  0  0  0  0
   -8.6680   -8.2556    0.2432 H   0  0  0  0  0  0  0  0  0  0  0  0
   -7.5936   -6.4005   -1.0305 H   0  0  0  0  0  0  0  0  0  0  0  0
   -8.2258   -3.5879   -1.2744 S   0  0  0  0  0  0  0  0  0  0  0  0
   -8.1343   -2.4314   -0.3028 O   0  0  0  0  0  0  0  0  0  0  0  0
   -9.1476   -3.3433   -2.4024 O   0  0  0  0  0  0  0  0  0  0  0  0
   -6.8711   -4.0902   -1.6612 O   0  0  0  0  0  0  0  0  0  0  0  0
  -10.8007   -8.1140    1.9442 C   0  0  0  0  0  0  0  0  0  0  0  0
  -10.2526   -8.3004    2.8764 H   0  0  0  0  0  0  0  0  0  0  0  0
  -11.8329   -7.8754    2.2162 H   0  0  0  0  0  0  0  0  0  0  0  0
  -10.8065   -9.0530    1.3815 H   0  0  0  0  0  0  0  0  0  0  0  0
  1  2  1  0  0  0  0
  2  3  1  0  0  0  0
  4  1  1  0  0  0  0
  4 12  1  0  0  0  0
  5  4  2  0  0  0  0
  6 10  2  0  0  0  0
  6  5  1  0  0  0  0
  7  6  1  0  0  0  0
  8  7  2  0  0  0  0
  9  7  2  0  0  0  0
 10 11  1  0  0  0  0
 11 15  1  0  0  0  0
 11  1  2  0  0  0  0
 13  5  1  0  0  0  0
 14 10  1  0  0  0  0
 16 22  1  0  0  0  0
 16 17  2  0  0  0  0
 17 23  1  0  0  0  0
 18 17  1  0  0  0  0
 18 30  1  0  0  0  0
 19 18  2  0  0  0  0
 20 21  2  0  0  0  0
 20 19  1  0  0  0  0
 21 16  1  0  0  0  0
 24 19  1  0  0  0  0
 25 20  1  0  0  0  0
 26 27  1  0  0  0  0
 26 21  1  0  0  0  0
 28 26  2  0  0  0  0
 29 26  2  0  0  0  0
 30 32  1  0  0  0  0
 30 31  1  0  0  0  0
 33 30  1  0  0  0  0
M  RAD  3   2   2   3   3  27   2
M  END
