Coordinates from ORCA-job 4-NO2PhN2+~TsO-_B3LYPG-6-31G_dp-NX-Scan-d89-09-n800
 OpenBabel11261920283D

 33 33  0  0  0  0  0  0  0  0999 V2000
   -4.6522   -2.5042    0.4058 C   0  0  0  0  0  0  0  0  0  0  0  0
   -5.5747   -3.1584    1.2744 N   0  0  0  0  0  0  0  0  0  0  0  0
   -5.8113   -3.5517    2.3023 N   0  0  0  0  0  0  0  0  0  0  0  0
   -3.9324   -1.4453    0.9748 C   0  0  0  0  0  0  0  0  0  0  0  0
   -2.9827   -0.8115    0.1836 C   0  0  0  0  0  0  0  0  0  0  0  0
   -2.7840   -1.2715   -1.1174 C   0  0  0  0  0  0  0  0  0  0  0  0
   -1.7592   -0.5984   -1.9492 N   0  0  0  0  0  0  0  0  0  0  0  0
   -1.1517    0.3396   -1.4399 O   0  0  0  0  0  0  0  0  0  0  0  0
   -1.5879   -1.0283   -3.0849 O   0  0  0  0  0  0  0  0  0  0  0  0
   -3.5032   -2.3307   -1.6665 C   0  0  0  0  0  0  0  0  0  0  0  0
   -4.4776   -2.9630   -0.8988 C   0  0  0  0  0  0  0  0  0  0  0  0
   -4.1195   -1.1276    1.9937 H   0  0  0  0  0  0  0  0  0  0  0  0
   -2.3989    0.0208    0.5555 H   0  0  0  0  0  0  0  0  0  0  0  0
   -3.3083   -2.6402   -2.6851 H   0  0  0  0  0  0  0  0  0  0  0  0
   -5.0941   -3.7777   -1.2814 H   0  0  0  0  0  0  0  0  0  0  0  0
   -9.7317   -4.3903    0.9179 C   0  0  0  0  0  0  0  0  0  0  0  0
  -10.6400   -5.1520    1.6517 C   0  0  0  0  0  0  0  0  0  0  0  0
  -10.7609   -6.5335    1.4470 C   0  0  0  0  0  0  0  0  0  0  0  0
   -9.9333   -7.1382    0.4900 C   0  0  0  0  0  0  0  0  0  0  0  0
   -9.0193   -6.3901   -0.2497 C   0  0  0  0  0  0  0  0  0  0  0  0
   -8.9215   -5.0146   -0.0321 C   0  0  0  0  0  0  0  0  0  0  0  0
   -9.6376   -3.3229    1.0869 H   0  0  0  0  0  0  0  0  0  0  0  0
  -11.2651   -4.6657    2.3966 H   0  0  0  0  0  0  0  0  0  0  0  0
  -10.0048   -8.2104    0.3224 H   0  0  0  0  0  0  0  0  0  0  0  0
   -8.3716   -6.8620   -0.9807 H   0  0  0  0  0  0  0  0  0  0  0  0
   -7.7962   -4.0418   -1.0380 S   0  0  0  0  0  0  0  0  0  0  0  0
   -7.2801   -2.9475   -0.0794 O   0  0  0  0  0  0  0  0  0  0  0  0
   -8.5671   -3.4520   -2.1480 O   0  0  0  0  0  0  0  0  0  0  0  0
   -6.6879   -4.9613   -1.4132 O   0  0  0  0  0  0  0  0  0  0  0  0
  -11.7717   -7.3478    2.2203 C   0  0  0  0  0  0  0  0  0  0  0  0
  -12.0450   -6.8604    3.1603 H   0  0  0  0  0  0  0  0  0  0  0  0
  -12.6940   -7.4823    1.6415 H   0  0  0  0  0  0  0  0  0  0  0  0
  -11.3891   -8.3459    2.4541 H   0  0  0  0  0  0  0  0  0  0  0  0
  1  4  1  0  0  0  0
  1  2  1  0  0  0  0
  2  3  2  0  0  0  0
  4 12  1  0  0  0  0
  5 13  1  0  0  0  0
  5  4  2  0  0  0  0
  6  5  1  0  0  0  0
  7  8  2  0  0  0  0
  7  6  1  0  0  0  0
  9  7  2  0  0  0  0
 10  6  2  0  0  0  0
 10 11  1  0  0  0  0
 11  1  2  0  0  0  0
 14 10  1  0  0  0  0
 15 11  1  0  0  0  0
 16 22  1  0  0  0  0
 16 17  2  0  0  0  0
 17 23  1  0  0  0  0
 18 17  1  0  0  0  0
 18 30  1  0  0  0  0
 19 18  2  0  0  0  0
 20 21  2  0  0  0  0
 20 19  1  0  0  0  0
 21 16  1  0  0  0  0
 24 19  1  0  0  0  0
 25 20  1  0  0  0  0
 26 27  1  0  0  0  0
 26 21  1  0  0  0  0
 28 26  2  0  0  0  0
 29 26  2  0  0  0  0
 30 33  1  0  0  0  0
 30 31  1  0  0  0  0
 32 30  1  0  0  0  0
M  RAD  2   3   2  27   2
M  END
