Coordinates from ORCA-job 4-NO2PhN2+~TsO-_B3LYPG-6-31G_dp-NX-Scan-d89-09-n800
 OpenBabel11261920283D

 33 33  0  0  0  0  0  0  0  0999 V2000
   -4.8115   -0.6587    0.7021 C   0  0  0  0  0  0  0  0  0  0  0  0
   -5.4690    0.3475    1.3625 N   0  0  0  0  0  0  0  0  0  0  0  0
   -5.9685    1.1735    1.9317 N   0  0  0  0  0  0  0  0  0  0  0  0
   -3.4021   -0.7141    0.8634 C   0  0  0  0  0  0  0  0  0  0  0  0
   -2.7329   -1.7202    0.2017 C   0  0  0  0  0  0  0  0  0  0  0  0
   -3.4721   -2.6335   -0.5695 C   0  0  0  0  0  0  0  0  0  0  0  0
   -2.7195   -3.7195   -1.2468 N   0  0  0  0  0  0  0  0  0  0  0  0
   -1.5009   -3.7367   -1.0764 O   0  0  0  0  0  0  0  0  0  0  0  0
   -3.3627   -4.5144   -1.9174 O   0  0  0  0  0  0  0  0  0  0  0  0
   -4.8521   -2.5782   -0.7173 C   0  0  0  0  0  0  0  0  0  0  0  0
   -5.5623   -1.5538   -0.0846 C   0  0  0  0  0  0  0  0  0  0  0  0
   -2.8822    0.0057    1.4852 H   0  0  0  0  0  0  0  0  0  0  0  0
   -1.6582   -1.8300    0.2719 H   0  0  0  0  0  0  0  0  0  0  0  0
   -5.4233   -3.2883   -1.3145 H   0  0  0  0  0  0  0  0  0  0  0  0
   -6.6623   -1.5093   -0.1816 H   0  0  0  0  0  0  0  0  0  0  0  0
   -9.7958   -4.5361    0.8622 C   0  0  0  0  0  0  0  0  0  0  0  0
  -10.1561   -5.7112    1.5189 C   0  0  0  0  0  0  0  0  0  0  0  0
   -9.7807   -6.9662    1.0182 C   0  0  0  0  0  0  0  0  0  0  0  0
   -9.0321   -7.0107   -0.1657 C   0  0  0  0  0  0  0  0  0  0  0  0
   -8.6646   -5.8419   -0.8316 C   0  0  0  0  0  0  0  0  0  0  0  0
   -9.0479   -4.6035   -0.3151 C   0  0  0  0  0  0  0  0  0  0  0  0
  -10.0829   -3.5676    1.2573 H   0  0  0  0  0  0  0  0  0  0  0  0
  -10.7379   -5.6549    2.4361 H   0  0  0  0  0  0  0  0  0  0  0  0
   -8.7329   -7.9738   -0.5722 H   0  0  0  0  0  0  0  0  0  0  0  0
   -8.0798   -5.8783   -1.7444 H   0  0  0  0  0  0  0  0  0  0  0  0
   -8.6361   -3.0962   -1.2101 S   0  0  0  0  0  0  0  0  0  0  0  0
   -8.3885   -2.0720   -0.1245 O   0  0  0  0  0  0  0  0  0  0  0  0
   -9.7924   -2.7730   -2.0692 O   0  0  0  0  0  0  0  0  0  0  0  0
   -7.3772   -3.4081   -1.9550 O   0  0  0  0  0  0  0  0  0  0  0  0
  -10.1479   -8.2346    1.7520 C   0  0  0  0  0  0  0  0  0  0  0  0
   -9.3869   -8.4980    2.4979 H   0  0  0  0  0  0  0  0  0  0  0  0
  -11.0987   -8.1288    2.2837 H   0  0  0  0  0  0  0  0  0  0  0  0
  -10.2370   -9.0823    1.0657 H   0  0  0  0  0  0  0  0  0  0  0  0
  1  4  1  0  0  0  0
  1  2  1  0  0  0  0
  2  3  1  0  0  0  0
  4 12  1  0  0  0  0
  5 13  1  0  0  0  0
  5  4  2  0  0  0  0
  6  5  1  0  0  0  0
  7  8  2  0  0  0  0
  7  6  1  0  0  0  0
  9  7  2  0  0  0  0
 10  6  2  0  0  0  0
 10 11  1  0  0  0  0
 11  1  2  0  0  0  0
 14 10  1  0  0  0  0
 15 11  1  0  0  0  0
 16 22  1  0  0  0  0
 16 17  2  0  0  0  0
 17 23  1  0  0  0  0
 18 17  1  0  0  0  0
 18 30  1  0  0  0  0
 19 18  2  0  0  0  0
 20 21  2  0  0  0  0
 20 19  1  0  0  0  0
 21 16  1  0  0  0  0
 24 19  1  0  0  0  0
 25 20  1  0  0  0  0
 26 21  1  0  0  0  0
 26 27  1  0  0  0  0
 28 26  2  0  0  0  0
 29 26  2  0  0  0  0
 30 32  1  0  0  0  0
 30 31  1  0  0  0  0
 33 30  1  0  0  0  0
M  RAD  3   2   2   3   3  27   2
M  END
