Coordinates from ORCA-job 4-NO2PhN2+~TsO-_B3LYPG-6-31G_dp-NX-Scan-d89-09-n800
 OpenBabel11261920283D

 33 34  0  0  0  0  0  0  0  0999 V2000
   -4.3741   -2.4620   -0.4060 C   0  0  0  0  0  0  0  0  0  0  0  0
   -5.4398   -3.3327   -0.0964 N   0  0  0  0  0  0  0  0  0  0  0  0
   -6.2274   -3.6634   -1.0539 N   0  0  0  0  0  0  0  0  0  0  0  0
   -3.6060   -2.1261    0.7291 C   0  0  0  0  0  0  0  0  0  0  0  0
   -2.5123   -1.2822    0.6298 C   0  0  0  0  0  0  0  0  0  0  0  0
   -2.1765   -0.7670   -0.6233 C   0  0  0  0  0  0  0  0  0  0  0  0
   -1.0208    0.1294   -0.7427 N   0  0  0  0  0  0  0  0  0  0  0  0
   -0.3932    0.3903    0.2839 O   0  0  0  0  0  0  0  0  0  0  0  0
   -0.7486    0.5666   -1.8611 O   0  0  0  0  0  0  0  0  0  0  0  0
   -2.9108   -1.0825   -1.7630 C   0  0  0  0  0  0  0  0  0  0  0  0
   -4.0114   -1.9284   -1.6614 C   0  0  0  0  0  0  0  0  0  0  0  0
   -3.8984   -2.5497    1.6830 H   0  0  0  0  0  0  0  0  0  0  0  0
   -1.9171   -1.0162    1.4940 H   0  0  0  0  0  0  0  0  0  0  0  0
   -2.6147   -0.6633   -2.7162 H   0  0  0  0  0  0  0  0  0  0  0  0
   -4.5674   -2.1628   -2.5573 H   0  0  0  0  0  0  0  0  0  0  0  0
  -10.1114   -4.6821    0.6187 C   0  0  0  0  0  0  0  0  0  0  0  0
  -10.9797   -5.1074    1.6202 C   0  0  0  0  0  0  0  0  0  0  0  0
  -11.2483   -6.4719    1.8161 C   0  0  0  0  0  0  0  0  0  0  0  0
  -10.6181   -7.4050    0.9817 C   0  0  0  0  0  0  0  0  0  0  0  0
   -9.7459   -6.9975   -0.0273 C   0  0  0  0  0  0  0  0  0  0  0  0
   -9.4963   -5.6379   -0.1920 C   0  0  0  0  0  0  0  0  0  0  0  0
   -9.9025   -3.6245    0.4856 H   0  0  0  0  0  0  0  0  0  0  0  0
  -11.4551   -4.3713    2.2630 H   0  0  0  0  0  0  0  0  0  0  0  0
  -10.8130   -8.4649    1.1227 H   0  0  0  0  0  0  0  0  0  0  0  0
   -9.2562   -7.7111   -0.6823 H   0  0  0  0  0  0  0  0  0  0  0  0
   -8.4344   -5.1217   -1.5624 S   0  0  1  0  0  0  0  0  0  0  0  0
   -7.2277   -4.5976   -0.4092 O   0  0  0  0  0  0  0  0  0  0  0  0
   -6.3193   -3.4472   -2.0774 O   0  0  0  0  0  0  0  0  0  0  0  0
   -7.9791   -6.3576   -2.2514 O   0  0  0  0  0  0  0  0  0  0  0  0
  -12.2167   -6.9181    2.8846 C   0  0  0  0  0  0  0  0  0  0  0  0
  -12.1508   -6.2853    3.7747 H   0  0  0  0  0  0  0  0  0  0  0  0
  -13.2515   -6.8638    2.5235 H   0  0  0  0  0  0  0  0  0  0  0  0
  -12.0302   -7.9522    3.1871 H   0  0  0  0  0  0  0  0  0  0  0  0
  1  2  1  0  0  0  0
  1  4  2  0  0  0  0
  3 27  1  0  0  0  0
  3  2  1  0  0  0  0
  4 12  1  0  0  0  0
  5  4  1  0  0  0  0
  5 13  1  0  0  0  0
  6  5  2  0  0  0  0
  7  6  1  0  0  0  0
  7  8  2  0  0  0  0
  9  7  2  0  0  0  0
 10 11  2  0  0  0  0
 10  6  1  0  0  0  0
 11  1  1  0  0  0  0
 14 10  1  0  0  0  0
 15 11  1  0  0  0  0
 16 17  2  0  0  0  0
 17 18  1  0  0  0  0
 17 23  1  0  0  0  0
 18 30  1  0  0  0  0
 19 24  1  0  0  0  0
 19 18  2  0  0  0  0
 20 19  1  0  0  0  0
 21 20  2  0  0  0  0
 21 16  1  0  0  0  0
 22 16  1  0  0  0  0
 25 20  1  0  0  0  0
 26 29  1  6  0  0  0
 26 27  1  0  0  0  0
 26 21  1  0  0  0  0
 28  3  1  0  0  0  0
 30 33  1  0  0  0  0
 30 31  1  0  0  0  0
 32 30  1  0  0  0  0
M  RAD  3   2   2  28   2  29   2
M  END
