Coordinates from ORCA-job 4-NO2PhN2+~TsO-_B3LYPG-6-31G_dp-NX-Scan-d89-09-n800
 OpenBabel11261920283D

 33 33  0  0  0  0  0  0  0  0999 V2000
   -4.8169   -0.6438    0.7843 C   0  0  0  0  0  0  0  0  0  0  0  0
   -5.3609    0.4122    1.4668 N   0  0  0  0  0  0  0  0  0  0  0  0
   -5.7443    1.2831    2.0617 N   0  0  0  0  0  0  0  0  0  0  0  0
   -3.4255   -0.8589    0.9762 C   0  0  0  0  0  0  0  0  0  0  0  0
   -2.8455   -1.9029    0.2906 C   0  0  0  0  0  0  0  0  0  0  0  0
   -3.6534   -2.7032   -0.5341 C   0  0  0  0  0  0  0  0  0  0  0  0
   -2.9988   -3.8389   -1.2312 N   0  0  0  0  0  0  0  0  0  0  0  0
   -1.7918   -3.9836   -1.0373 O   0  0  0  0  0  0  0  0  0  0  0  0
   -3.7026   -4.5432   -1.9404 O   0  0  0  0  0  0  0  0  0  0  0  0
   -5.0156   -2.4969   -0.7141 C   0  0  0  0  0  0  0  0  0  0  0  0
   -5.6328   -1.4271   -0.0594 C   0  0  0  0  0  0  0  0  0  0  0  0
   -2.8521   -0.2238    1.6418 H   0  0  0  0  0  0  0  0  0  0  0  0
   -1.7909   -2.1280    0.3840 H   0  0  0  0  0  0  0  0  0  0  0  0
   -5.6421   -3.1282   -1.3517 H   0  0  0  0  0  0  0  0  0  0  0  0
   -6.7144   -1.2805   -0.1951 H   0  0  0  0  0  0  0  0  0  0  0  0
   -9.7794   -4.5066    0.7589 C   0  0  0  0  0  0  0  0  0  0  0  0
  -10.0815   -5.6686    1.4660 C   0  0  0  0  0  0  0  0  0  0  0  0
   -9.6341   -6.9228    1.0252 C   0  0  0  0  0  0  0  0  0  0  0  0
   -8.8731   -6.9794   -0.1498 C   0  0  0  0  0  0  0  0  0  0  0  0
   -8.5636   -5.8233   -0.8663 C   0  0  0  0  0  0  0  0  0  0  0  0
   -9.0182   -4.5859   -0.4095 C   0  0  0  0  0  0  0  0  0  0  0  0
  -10.1229   -3.5387    1.1079 H   0  0  0  0  0  0  0  0  0  0  0  0
  -10.6745   -5.6029    2.3754 H   0  0  0  0  0  0  0  0  0  0  0  0
   -8.5185   -7.9420   -0.5104 H   0  0  0  0  0  0  0  0  0  0  0  0
   -7.9698   -5.8685   -1.7728 H   0  0  0  0  0  0  0  0  0  0  0  0
   -8.6820   -3.0982   -1.3672 S   0  0  0  0  0  0  0  0  0  0  0  0
   -8.4487   -2.0286   -0.3252 O   0  0  0  0  0  0  0  0  0  0  0  0
   -9.8693   -2.8535   -2.2116 O   0  0  0  0  0  0  0  0  0  0  0  0
   -7.4311   -3.3939   -2.1326 O   0  0  0  0  0  0  0  0  0  0  0  0
   -9.9418   -8.1748    1.8125 C   0  0  0  0  0  0  0  0  0  0  0  0
   -9.1931   -8.3480    2.5963 H   0  0  0  0  0  0  0  0  0  0  0  0
  -10.9163   -8.1078    2.3063 H   0  0  0  0  0  0  0  0  0  0  0  0
   -9.9493   -9.0600    1.1693 H   0  0  0  0  0  0  0  0  0  0  0  0
  1  4  1  0  0  0  0
  1  2  1  0  0  0  0
  2  3  1  0  0  0  0
  4 12  1  0  0  0  0
  5 13  1  0  0  0  0
  5  4  2  0  0  0  0
  6  5  1  0  0  0  0
  7  8  2  0  0  0  0
  7  6  1  0  0  0  0
  9  7  2  0  0  0  0
 10  6  2  0  0  0  0
 10 11  1  0  0  0  0
 11  1  2  0  0  0  0
 14 10  1  0  0  0  0
 15 11  1  0  0  0  0
 16 22  1  0  0  0  0
 16 17  2  0  0  0  0
 17 23  1  0  0  0  0
 18 17  1  0  0  0  0
 18 30  1  0  0  0  0
 19 18  2  0  0  0  0
 20 21  2  0  0  0  0
 20 19  1  0  0  0  0
 21 16  1  0  0  0  0
 24 19  1  0  0  0  0
 25 20  1  0  0  0  0
 26 21  1  0  0  0  0
 26 27  1  0  0  0  0
 28 26  2  0  0  0  0
 29 26  2  0  0  0  0
 30 32  1  0  0  0  0
 30 31  1  0  0  0  0
 33 30  1  0  0  0  0
M  RAD  3   2   2   3   3  27   2
M  END
