Coordinates from ORCA-job 4-NO2PhN2+~TsO-_B3LYPG-6-31G_dp-NX-Scan-d89-09-n800
 OpenBabel11261920283D

 33 33  0  0  0  0  0  0  0  0999 V2000
   -4.6426   -0.8365    1.0675 C   0  0  0  0  0  0  0  0  0  0  0  0
   -5.2315   -0.1659    2.1111 N   0  0  0  0  0  0  0  0  0  0  0  0
   -5.6413    0.3962    2.9899 N   0  0  0  0  0  0  0  0  0  0  0  0
   -3.2355   -0.6816    0.9525 C   0  0  0  0  0  0  0  0  0  0  0  0
   -2.6092   -1.3507   -0.0761 C   0  0  0  0  0  0  0  0  0  0  0  0
   -3.3827   -2.1481   -0.9347 C   0  0  0  0  0  0  0  0  0  0  0  0
   -2.6637   -2.8640   -2.0230 N   0  0  0  0  0  0  0  0  0  0  0  0
   -1.4423   -2.7155   -2.0653 O   0  0  0  0  0  0  0  0  0  0  0  0
   -3.3348   -3.5393   -2.7873 O   0  0  0  0  0  0  0  0  0  0  0  0
   -4.7589   -2.3028   -0.8192 C   0  0  0  0  0  0  0  0  0  0  0  0
   -5.4312   -1.6221    0.2018 C   0  0  0  0  0  0  0  0  0  0  0  0
   -2.6843   -0.0624    1.6511 H   0  0  0  0  0  0  0  0  0  0  0  0
   -1.5400   -1.2814   -0.2316 H   0  0  0  0  0  0  0  0  0  0  0  0
   -5.3573   -2.9551   -1.4703 H   0  0  0  0  0  0  0  0  0  0  0  0
   -6.5262   -1.7504    0.2645 H   0  0  0  0  0  0  0  0  0  0  0  0
  -10.0414   -4.6414    0.4839 C   0  0  0  0  0  0  0  0  0  0  0  0
  -10.6253   -5.6731    1.2147 C   0  0  0  0  0  0  0  0  0  0  0  0
  -10.1271   -6.9830    1.1453 C   0  0  0  0  0  0  0  0  0  0  0  0
   -9.0219   -7.2301    0.3174 C   0  0  0  0  0  0  0  0  0  0  0  0
   -8.4290   -6.2056   -0.4184 C   0  0  0  0  0  0  0  0  0  0  0  0
   -8.9405   -4.9087   -0.3357 C   0  0  0  0  0  0  0  0  0  0  0  0
  -10.4285   -3.6296    0.5450 H   0  0  0  0  0  0  0  0  0  0  0  0
  -11.4848   -5.4630    1.8470 H   0  0  0  0  0  0  0  0  0  0  0  0
   -8.6235   -8.2398    0.2468 H   0  0  0  0  0  0  0  0  0  0  0  0
   -7.5732   -6.3921   -1.0579 H   0  0  0  0  0  0  0  0  0  0  0  0
   -8.2316   -3.5879   -1.3341 S   0  0  0  0  0  0  0  0  0  0  0  0
   -8.1384   -2.4211   -0.3769 O   0  0  0  0  0  0  0  0  0  0  0  0
   -9.1652   -3.3641   -2.4567 O   0  0  0  0  0  0  0  0  0  0  0  0
   -6.8776   -4.0884   -1.7288 O   0  0  0  0  0  0  0  0  0  0  0  0
  -10.7468   -8.0942    1.9590 C   0  0  0  0  0  0  0  0  0  0  0  0
  -10.1894   -8.2658    2.8886 H   0  0  0  0  0  0  0  0  0  0  0  0
  -11.7783   -7.8598    2.2370 H   0  0  0  0  0  0  0  0  0  0  0  0
  -10.7506   -9.0398    1.4074 H   0  0  0  0  0  0  0  0  0  0  0  0
  1  2  1  0  0  0  0
  2  3  1  0  0  0  0
  4  1  1  0  0  0  0
  4 12  1  0  0  0  0
  5  4  2  0  0  0  0
  6 10  2  0  0  0  0
  6  5  1  0  0  0  0
  7  6  1  0  0  0  0
  8  7  2  0  0  0  0
  9  7  2  0  0  0  0
 10 11  1  0  0  0  0
 11 15  1  0  0  0  0
 11  1  2  0  0  0  0
 13  5  1  0  0  0  0
 14 10  1  0  0  0  0
 16 22  1  0  0  0  0
 16 17  2  0  0  0  0
 17 23  1  0  0  0  0
 18 17  1  0  0  0  0
 18 30  1  0  0  0  0
 19 18  2  0  0  0  0
 20 21  2  0  0  0  0
 20 19  1  0  0  0  0
 21 16  1  0  0  0  0
 24 19  1  0  0  0  0
 25 20  1  0  0  0  0
 26 27  1  0  0  0  0
 26 21  1  0  0  0  0
 28 26  2  0  0  0  0
 29 26  2  0  0  0  0
 30 32  1  0  0  0  0
 30 31  1  0  0  0  0
 33 30  1  0  0  0  0
M  RAD  3   2   2   3   3  27   2
M  END
