Coordinates from ORCA-job 4-NO2PhN2+~TsO-_B3LYPG-6-31G_dp-NX-Scan-d89-09-n800
 OpenBabel11261920283D

 33 33  0  0  0  0  0  0  0  0999 V2000
   -4.6627   -0.8394    1.1397 C   0  0  0  0  0  0  0  0  0  0  0  0
   -5.1916   -0.1411    2.1964 N   0  0  0  0  0  0  0  0  0  0  0  0
   -5.5385    0.4451    3.0880 N   0  0  0  0  0  0  0  0  0  0  0  0
   -3.2480   -0.7847    1.0227 C   0  0  0  0  0  0  0  0  0  0  0  0
   -2.6714   -1.4810   -0.0168 C   0  0  0  0  0  0  0  0  0  0  0  0
   -3.5001   -2.2010   -0.8908 C   0  0  0  0  0  0  0  0  0  0  0  0
   -2.8328   -2.9402   -1.9962 N   0  0  0  0  0  0  0  0  0  0  0  0
   -1.6014   -2.9576   -1.9795 O   0  0  0  0  0  0  0  0  0  0  0  0
   -3.5513   -3.4628   -2.8326 O   0  0  0  0  0  0  0  0  0  0  0  0
   -4.8852   -2.2597   -0.7780 C   0  0  0  0  0  0  0  0  0  0  0  0
   -5.5037   -1.5556    0.2599 C   0  0  0  0  0  0  0  0  0  0  0  0
   -2.6540   -0.2172    1.7299 H   0  0  0  0  0  0  0  0  0  0  0  0
   -1.5995   -1.4904   -0.1692 H   0  0  0  0  0  0  0  0  0  0  0  0
   -5.5208   -2.8675   -1.4435 H   0  0  0  0  0  0  0  0  0  0  0  0
   -6.5976   -1.6169    0.3274 H   0  0  0  0  0  0  0  0  0  0  0  0
  -10.0221   -4.6276    0.3852 C   0  0  0  0  0  0  0  0  0  0  0  0
  -10.5719   -5.6450    1.1613 C   0  0  0  0  0  0  0  0  0  0  0  0
  -10.0321   -6.9401    1.1469 C   0  0  0  0  0  0  0  0  0  0  0  0
   -8.9206   -7.1873    0.3272 C   0  0  0  0  0  0  0  0  0  0  0  0
   -8.3620   -6.1771   -0.4536 C   0  0  0  0  0  0  0  0  0  0  0  0
   -8.9143   -4.8944   -0.4254 C   0  0  0  0  0  0  0  0  0  0  0  0
  -10.4418   -3.6270    0.4034 H   0  0  0  0  0  0  0  0  0  0  0  0
  -11.4370   -5.4357    1.7862 H   0  0  0  0  0  0  0  0  0  0  0  0
   -8.4903   -8.1861    0.2990 H   0  0  0  0  0  0  0  0  0  0  0  0
   -7.5018   -6.3631   -1.0874 H   0  0  0  0  0  0  0  0  0  0  0  0
   -8.2467   -3.5933   -1.4774 S   0  0  0  0  0  0  0  0  0  0  0  0
   -8.1674   -2.3928   -0.5661 O   0  0  0  0  0  0  0  0  0  0  0  0
   -9.1964   -3.4395   -2.5995 O   0  0  0  0  0  0  0  0  0  0  0  0
   -6.8842   -4.0774   -1.8692 O   0  0  0  0  0  0  0  0  0  0  0  0
  -10.6149   -8.0351    2.0084 C   0  0  0  0  0  0  0  0  0  0  0  0
  -10.0340   -8.1687    2.9298 H   0  0  0  0  0  0  0  0  0  0  0  0
  -11.6438   -7.8092    2.3019 H   0  0  0  0  0  0  0  0  0  0  0  0
  -10.6146   -8.9976    1.4864 H   0  0  0  0  0  0  0  0  0  0  0  0
  1  2  1  0  0  0  0
  2  3  1  0  0  0  0
  4  1  1  0  0  0  0
  4 12  1  0  0  0  0
  5  4  2  0  0  0  0
  6 10  2  0  0  0  0
  6  5  1  0  0  0  0
  7  8  2  0  0  0  0
  7  6  1  0  0  0  0
  9  7  2  0  0  0  0
 10 11  1  0  0  0  0
 11 15  1  0  0  0  0
 11  1  2  0  0  0  0
 13  5  1  0  0  0  0
 14 10  1  0  0  0  0
 16 22  1  0  0  0  0
 16 17  2  0  0  0  0
 17 23  1  0  0  0  0
 18 17  1  0  0  0  0
 18 30  1  0  0  0  0
 19 18  2  0  0  0  0
 20 21  2  0  0  0  0
 20 19  1  0  0  0  0
 21 16  1  0  0  0  0
 24 19  1  0  0  0  0
 25 20  1  0  0  0  0
 26 27  1  0  0  0  0
 26 21  1  0  0  0  0
 28 26  2  0  0  0  0
 29 26  2  0  0  0  0
 30 32  1  0  0  0  0
 30 31  1  0  0  0  0
 33 30  1  0  0  0  0
M  RAD  3   2   2   3   3  27   2
M  END
