Coordinates from ORCA-job 4-NO2PhN2+~TsO-_B3LYPG-6-31G_dp-NX-Scan-d89-09-n800
 OpenBabel11261920283D

 33 33  0  0  0  0  0  0  0  0999 V2000
   -5.8074   -2.2842   -0.0106 C   0  0  0  0  0  0  0  0  0  0  0  0
   -7.2135   -2.2556    0.2554 N   0  0  0  0  0  0  0  0  0  0  0  0
   -7.9958   -2.1457    1.0636 N   0  0  0  0  0  0  0  0  0  0  0  0
   -4.9868   -1.8770    1.0525 C   0  0  0  0  0  0  0  0  0  0  0  0
   -3.6113   -1.9027    0.8701 C   0  0  0  0  0  0  0  0  0  0  0  0
   -3.1096   -2.3414   -0.3554 C   0  0  0  0  0  0  0  0  0  0  0  0
   -1.6404   -2.3706   -0.5433 N   0  0  0  0  0  0  0  0  0  0  0  0
   -0.9478   -2.0044    0.4025 O   0  0  0  0  0  0  0  0  0  0  0  0
   -1.2204   -2.7593   -1.6280 O   0  0  0  0  0  0  0  0  0  0  0  0
   -3.9280   -2.7523   -1.4029 C   0  0  0  0  0  0  0  0  0  0  0  0
   -5.3123   -2.7223   -1.2387 C   0  0  0  0  0  0  0  0  0  0  0  0
   -5.4229   -1.5475    1.9883 H   0  0  0  0  0  0  0  0  0  0  0  0
   -2.9286   -1.5933    1.6509 H   0  0  0  0  0  0  0  0  0  0  0  0
   -3.4843   -3.0857   -2.3323 H   0  0  0  0  0  0  0  0  0  0  0  0
   -5.9925   -3.0222   -2.0272 H   0  0  0  0  0  0  0  0  0  0  0  0
  -10.1048   -4.2730    0.2129 C   0  0  0  0  0  0  0  0  0  0  0  0
  -10.2883   -5.0741    1.3398 C   0  0  0  0  0  0  0  0  0  0  0  0
   -9.4304   -6.1492    1.6140 C   0  0  0  0  0  0  0  0  0  0  0  0
   -8.3767   -6.4043    0.7235 C   0  0  0  0  0  0  0  0  0  0  0  0
   -8.1788   -5.6103   -0.4060 C   0  0  0  0  0  0  0  0  0  0  0  0
   -9.0420   -4.5409   -0.6541 C   0  0  0  0  0  0  0  0  0  0  0  0
  -10.7842   -3.4575   -0.0100 H   0  0  0  0  0  0  0  0  0  0  0  0
  -11.1155   -4.8669    2.0141 H   0  0  0  0  0  0  0  0  0  0  0  0
   -7.7102   -7.2422    0.9118 H   0  0  0  0  0  0  0  0  0  0  0  0
   -7.3807   -5.8236   -1.1095 H   0  0  0  0  0  0  0  0  0  0  0  0
   -8.7834   -3.4866   -2.0877 S   0  0  0  0  0  0  0  0  0  0  0  0
   -7.9964   -2.2440   -1.5602 O   0  0  0  0  0  0  0  0  0  0  0  0
  -10.1091   -3.0306   -2.5091 O   0  0  0  0  0  0  0  0  0  0  0  0
   -7.9256   -4.2502   -3.0142 O   0  0  0  0  0  0  0  0  0  0  0  0
   -9.6582   -7.0340    2.8166 C   0  0  0  0  0  0  0  0  0  0  0  0
  -10.1376   -6.4858    3.6330 H   0  0  0  0  0  0  0  0  0  0  0  0
  -10.3120   -7.8779    2.5640 H   0  0  0  0  0  0  0  0  0  0  0  0
   -8.7191   -7.4517    3.1908 H   0  0  0  0  0  0  0  0  0  0  0  0
  1  2  1  0  0  0  0
  1  4  2  0  0  0  0
  2  3  2  0  0  0  0
  4 12  1  0  0  0  0
  5  4  1  0  0  0  0
  5 13  1  0  0  0  0
  6  5  2  0  0  0  0
  7  6  1  0  0  0  0
  7  8  2  0  0  0  0
  9  7  2  0  0  0  0
 10 11  2  0  0  0  0
 10  6  1  0  0  0  0
 11  1  1  0  0  0  0
 14 10  1  0  0  0  0
 15 11  1  0  0  0  0
 16 17  2  0  0  0  0
 17 18  1  0  0  0  0
 17 23  1  0  0  0  0
 18 30  1  0  0  0  0
 19 24  1  0  0  0  0
 19 18  2  0  0  0  0
 20 19  1  0  0  0  0
 21 20  2  0  0  0  0
 21 16  1  0  0  0  0
 22 16  1  0  0  0  0
 25 20  1  0  0  0  0
 26 27  1  0  0  0  0
 26 21  1  0  0  0  0
 28 26  2  0  0  0  0
 29 26  2  0  0  0  0
 30 33  1  0  0  0  0
 30 31  1  0  0  0  0
 32 30  1  0  0  0  0
M  RAD  2   3   2  27   2
M  END
