Coordinates from ORCA-job 4-NO2PhN2+~TsO-_B3LYPG-6-31G_dp-NX-Scan-d89-09-n800
 OpenBabel11261920283D

 33 33  0  0  0  0  0  0  0  0999 V2000
   -4.7382   -0.7615    0.6189 C   0  0  0  0  0  0  0  0  0  0  0  0
   -5.6323    0.0164    1.3178 N   0  0  0  0  0  0  0  0  0  0  0  0
   -6.3775    0.6223    1.8890 N   0  0  0  0  0  0  0  0  0  0  0  0
   -3.3708   -0.3962    0.6093 C   0  0  0  0  0  0  0  0  0  0  0  0
   -2.5206   -1.2120   -0.1085 C   0  0  0  0  0  0  0  0  0  0  0  0
   -3.0466   -2.3364   -0.7697 C   0  0  0  0  0  0  0  0  0  0  0  0
   -2.0951   -3.1904   -1.5260 N   0  0  0  0  0  0  0  0  0  0  0  0
   -0.9151   -2.8451   -1.5215 O   0  0  0  0  0  0  0  0  0  0  0  0
   -2.5540   -4.1735   -2.0915 O   0  0  0  0  0  0  0  0  0  0  0  0
   -4.3916   -2.6830   -0.7519 C   0  0  0  0  0  0  0  0  0  0  0  0
   -5.2798   -1.8738   -0.0433 C   0  0  0  0  0  0  0  0  0  0  0  0
   -3.0139    0.4801    1.1379 H   0  0  0  0  0  0  0  0  0  0  0  0
   -1.4595   -1.0079   -0.1742 H   0  0  0  0  0  0  0  0  0  0  0  0
   -4.7897   -3.5419   -1.2816 H   0  0  0  0  0  0  0  0  0  0  0  0
   -6.3633   -2.0800    0.0087 H   0  0  0  0  0  0  0  0  0  0  0  0
   -9.9131   -4.6383    1.0356 C   0  0  0  0  0  0  0  0  0  0  0  0
  -10.4714   -5.7909    1.5806 C   0  0  0  0  0  0  0  0  0  0  0  0
  -10.2043   -7.0559    1.0327 C   0  0  0  0  0  0  0  0  0  0  0  0
   -9.3563   -7.1306   -0.0786 C   0  0  0  0  0  0  0  0  0  0  0  0
   -8.7900   -5.9820   -0.6339 C   0  0  0  0  0  0  0  0  0  0  0  0
   -9.0711   -4.7361   -0.0757 C   0  0  0  0  0  0  0  0  0  0  0  0
  -10.1143   -3.6645    1.4688 H   0  0  0  0  0  0  0  0  0  0  0  0
  -11.1230   -5.7114    2.4480 H   0  0  0  0  0  0  0  0  0  0  0  0
   -9.1339   -8.1010   -0.5153 H   0  0  0  0  0  0  0  0  0  0  0  0
   -8.1262   -6.0420   -1.4897 H   0  0  0  0  0  0  0  0  0  0  0  0
   -8.3959   -3.2457   -0.8256 S   0  0  0  0  0  0  0  0  0  0  0  0
   -8.0690   -2.3474    0.3501 O   0  0  0  0  0  0  0  0  0  0  0  0
   -9.4399   -2.6862   -1.7058 O   0  0  0  0  0  0  0  0  0  0  0  0
   -7.1473   -3.6784   -1.5256 O   0  0  0  0  0  0  0  0  0  0  0  0
  -10.8151   -8.2988    1.6367 C   0  0  0  0  0  0  0  0  0  0  0  0
  -10.4911   -8.4404    2.6745 H   0  0  0  0  0  0  0  0  0  0  0  0
  -11.9099   -8.2400    1.6489 H   0  0  0  0  0  0  0  0  0  0  0  0
  -10.5345   -9.1944    1.0757 H   0  0  0  0  0  0  0  0  0  0  0  0
  1  2  1  0  0  0  0
  2  3  1  0  0  0  0
  4  1  1  0  0  0  0
  4 12  1  0  0  0  0
  5  4  2  0  0  0  0
  6 10  2  0  0  0  0
  6  5  1  0  0  0  0
  7  8  2  0  0  0  0
  7  6  1  0  0  0  0
  9  7  2  0  0  0  0
 10 11  1  0  0  0  0
 11 15  1  0  0  0  0
 11  1  2  0  0  0  0
 13  5  1  0  0  0  0
 14 10  1  0  0  0  0
 16 22  1  0  0  0  0
 16 17  1  0  0  0  0
 17 23  1  0  0  0  0
 18 17  2  0  0  0  0
 18 30  1  0  0  0  0
 19 18  1  0  0  0  0
 20 19  2  0  0  0  0
 20 21  1  0  0  0  0
 21 16  2  0  0  0  0
 24 19  1  0  0  0  0
 25 20  1  0  0  0  0
 26 21  1  0  0  0  0
 26 27  1  0  0  0  0
 28 26  2  0  0  0  0
 29 26  2  0  0  0  0
 30 32  1  0  0  0  0
 30 31  1  0  0  0  0
 33 30  1  0  0  0  0
M  RAD  3   2   2   3   3  27   2
M  END
