Coordinates from ORCA-job 4-NO2PhN2+~TsO-_B3LYPG-6-31G_dp-NX-Scan-d89-09-n800
 OpenBabel11261920283D

 33 33  0  0  0  0  0  0  0  0999 V2000
   -4.5149   -0.6928    1.2849 C   0  0  0  0  0  0  0  0  0  0  0  0
   -4.8618    0.0683    2.3748 N   0  0  0  0  0  0  0  0  0  0  0  0
   -5.0080    0.7062    3.2916 N   0  0  0  0  0  0  0  0  0  0  0  0
   -3.1273   -0.6816    0.9833 C   0  0  0  0  0  0  0  0  0  0  0  0
   -2.6979   -1.4394   -0.0843 C   0  0  0  0  0  0  0  0  0  0  0  0
   -3.6338   -2.2043   -0.7915 C   0  0  0  0  0  0  0  0  0  0  0  0
   -3.1045   -3.0406   -1.8988 N   0  0  0  0  0  0  0  0  0  0  0  0
   -1.9925   -2.7305   -2.3308 O   0  0  0  0  0  0  0  0  0  0  0  0
   -3.7991   -3.9678   -2.2780 O   0  0  0  0  0  0  0  0  0  0  0  0
   -5.0010   -2.2245   -0.5103 C   0  0  0  0  0  0  0  0  0  0  0  0
   -5.4691   -1.4318    0.5398 C   0  0  0  0  0  0  0  0  0  0  0  0
   -2.4386   -0.0947    1.5800 H   0  0  0  0  0  0  0  0  0  0  0  0
   -1.6571   -1.4614   -0.3823 H   0  0  0  0  0  0  0  0  0  0  0  0
   -5.7061   -2.8555   -1.0888 H   0  0  0  0  0  0  0  0  0  0  0  0
   -6.5370   -1.4120    0.7453 H   0  0  0  0  0  0  0  0  0  0  0  0
  -10.0502   -4.6845    0.2126 C   0  0  0  0  0  0  0  0  0  0  0  0
  -10.6010   -5.6741    1.0238 C   0  0  0  0  0  0  0  0  0  0  0  0
  -10.0336   -6.9554    1.0901 C   0  0  0  0  0  0  0  0  0  0  0  0
   -8.8908   -7.2181    0.3167 C   0  0  0  0  0  0  0  0  0  0  0  0
   -8.3329   -6.2375   -0.4986 C   0  0  0  0  0  0  0  0  0  0  0  0
   -8.9151   -4.9668   -0.5540 C   0  0  0  0  0  0  0  0  0  0  0  0
  -10.4867   -3.6920    0.1690 H   0  0  0  0  0  0  0  0  0  0  0  0
  -11.4872   -5.4536    1.6142 H   0  0  0  0  0  0  0  0  0  0  0  0
   -8.4365   -8.2060    0.3549 H   0  0  0  0  0  0  0  0  0  0  0  0
   -7.4470   -6.4339   -1.0929 H   0  0  0  0  0  0  0  0  0  0  0  0
   -8.2470   -3.7099   -1.6591 S   0  0  0  0  0  0  0  0  0  0  0  0
   -8.3412   -2.4337   -0.8751 O   0  0  0  0  0  0  0  0  0  0  0  0
   -9.0858   -3.7753   -2.8813 O   0  0  0  0  0  0  0  0  0  0  0  0
   -6.8156   -4.1121   -1.8692 O   0  0  0  0  0  0  0  0  0  0  0  0
  -10.6212   -8.0242    1.9798 C   0  0  0  0  0  0  0  0  0  0  0  0
   -9.9749   -8.2240    2.8437 H   0  0  0  0  0  0  0  0  0  0  0  0
  -11.6026   -7.7320    2.3625 H   0  0  0  0  0  0  0  0  0  0  0  0
  -10.7365   -8.9719    1.4425 H   0  0  0  0  0  0  0  0  0  0  0  0
  1  2  1  0  0  0  0
  2  3  1  0  0  0  0
  4  1  1  0  0  0  0
  4 12  1  0  0  0  0
  5  4  2  0  0  0  0
  6 10  2  0  0  0  0
  6  5  1  0  0  0  0
  7  6  1  0  0  0  0
  8  7  2  0  0  0  0
  9  7  2  0  0  0  0
 10 11  1  0  0  0  0
 11 15  1  0  0  0  0
 11  1  2  0  0  0  0
 13  5  1  0  0  0  0
 14 10  1  0  0  0  0
 16 17  2  0  0  0  0
 17 18  1  0  0  0  0
 17 23  1  0  0  0  0
 18 30  1  0  0  0  0
 19 24  1  0  0  0  0
 19 18  2  0  0  0  0
 20 19  1  0  0  0  0
 21 20  2  0  0  0  0
 21 16  1  0  0  0  0
 22 16  1  0  0  0  0
 25 20  1  0  0  0  0
 26 27  1  0  0  0  0
 26 21  1  0  0  0  0
 28 26  2  0  0  0  0
 29 26  2  0  0  0  0
 30 32  1  0  0  0  0
 30 31  1  0  0  0  0
 33 30  1  0  0  0  0
M  RAD  3   2   2   3   3  27   2
M  END
