Coordinates from ORCA-job 4-NO2PhN2+~TsO-_B3LYPG-6-31G_dp-NX-Scan-d89-09-n800
 OpenBabel11261920283D

 33 33  0  0  0  0  0  0  0  0999 V2000
   -4.6145   -0.8150    1.2857 C   0  0  0  0  0  0  0  0  0  0  0  0
   -4.9979   -0.0962    2.3911 N   0  0  0  0  0  0  0  0  0  0  0  0
   -5.1897    0.5087    3.3199 N   0  0  0  0  0  0  0  0  0  0  0  0
   -3.2089   -0.8971    1.0956 C   0  0  0  0  0  0  0  0  0  0  0  0
   -2.7509   -1.6072    0.0069 C   0  0  0  0  0  0  0  0  0  0  0  0
   -3.6843   -2.1936   -0.8575 C   0  0  0  0  0  0  0  0  0  0  0  0
   -3.1445   -2.9181   -2.0341 N   0  0  0  0  0  0  0  0  0  0  0  0
   -1.9791   -3.3080   -1.9447 O   0  0  0  0  0  0  0  0  0  0  0  0
   -3.8865   -3.0522   -2.9924 O   0  0  0  0  0  0  0  0  0  0  0  0
   -5.0649   -2.1273   -0.6772 C   0  0  0  0  0  0  0  0  0  0  0  0
   -5.5590   -1.4228    0.4216 C   0  0  0  0  0  0  0  0  0  0  0  0
   -2.5297   -0.4169    1.7904 H   0  0  0  0  0  0  0  0  0  0  0  0
   -1.6923   -1.7243   -0.1895 H   0  0  0  0  0  0  0  0  0  0  0  0
   -5.7605   -2.6643   -1.3419 H   0  0  0  0  0  0  0  0  0  0  0  0
   -6.6374   -1.3817    0.5653 H   0  0  0  0  0  0  0  0  0  0  0  0
  -10.0220   -4.6714    0.1760 C   0  0  0  0  0  0  0  0  0  0  0  0
  -10.5635   -5.6421    1.0156 C   0  0  0  0  0  0  0  0  0  0  0  0
   -9.9615   -6.9022    1.1495 C   0  0  0  0  0  0  0  0  0  0  0  0
   -8.7943   -7.1627    0.4140 C   0  0  0  0  0  0  0  0  0  0  0  0
   -8.2442   -6.1996   -0.4284 C   0  0  0  0  0  0  0  0  0  0  0  0
   -8.8594   -4.9503   -0.5495 C   0  0  0  0  0  0  0  0  0  0  0  0
  -10.4894   -3.6967    0.0801 H   0  0  0  0  0  0  0  0  0  0  0  0
  -11.4704   -5.4234    1.5743 H   0  0  0  0  0  0  0  0  0  0  0  0
   -8.3138   -8.1349    0.5022 H   0  0  0  0  0  0  0  0  0  0  0  0
   -7.3411   -6.3948   -0.9963 H   0  0  0  0  0  0  0  0  0  0  0  0
   -8.1961   -3.7140   -1.6806 S   0  0  0  0  0  0  0  0  0  0  0  0
   -8.2346   -2.4322   -0.8934 O   0  0  0  0  0  0  0  0  0  0  0  0
   -9.0802   -3.7473   -2.8697 O   0  0  0  0  0  0  0  0  0  0  0  0
   -6.7832   -4.1452   -1.9390 O   0  0  0  0  0  0  0  0  0  0  0  0
  -10.5394   -7.9495    2.0710 C   0  0  0  0  0  0  0  0  0  0  0  0
   -9.9227   -8.0745    2.9699 H   0  0  0  0  0  0  0  0  0  0  0  0
  -11.5477   -7.6825    2.3986 H   0  0  0  0  0  0  0  0  0  0  0  0
  -10.5911   -8.9278    1.5811 H   0  0  0  0  0  0  0  0  0  0  0  0
  1  2  1  0  0  0  0
  2  3  1  0  0  0  0
  4  1  1  0  0  0  0
  4 12  1  0  0  0  0
  5  4  2  0  0  0  0
  6 10  2  0  0  0  0
  6  5  1  0  0  0  0
  7  8  2  0  0  0  0
  7  6  1  0  0  0  0
  9  7  2  0  0  0  0
 10 11  1  0  0  0  0
 11 15  1  0  0  0  0
 11  1  2  0  0  0  0
 13  5  1  0  0  0  0
 14 10  1  0  0  0  0
 16 17  2  0  0  0  0
 17 18  1  0  0  0  0
 17 23  1  0  0  0  0
 18 30  1  0  0  0  0
 19 24  1  0  0  0  0
 19 18  2  0  0  0  0
 20 19  1  0  0  0  0
 21 20  2  0  0  0  0
 21 16  1  0  0  0  0
 22 16  1  0  0  0  0
 25 20  1  0  0  0  0
 26 27  1  0  0  0  0
 26 21  1  0  0  0  0
 28 26  2  0  0  0  0
 29 26  2  0  0  0  0
 30 32  1  0  0  0  0
 30 31  1  0  0  0  0
 33 30  1  0  0  0  0
M  RAD  3   2   2   3   3  27   2
M  END
