Coordinates from ORCA-job 4-NO2PhN2+~TsO-_B3LYPG-6-31G_dp-NX-Scan-d89-09-n800
 OpenBabel11261920283D

 33 33  0  0  0  0  0  0  0  0999 V2000
   -4.1481   -2.9117    0.3263 C   0  0  0  0  0  0  0  0  0  0  0  0
   -4.6827   -3.7794    1.3303 N   0  0  0  0  0  0  0  0  0  0  0  0
   -4.5598   -4.1393    2.3916 N   0  0  0  0  0  0  0  0  0  0  0  0
   -3.2898   -1.9083    0.8028 C   0  0  0  0  0  0  0  0  0  0  0  0
   -2.7051   -1.0536   -0.1196 C   0  0  0  0  0  0  0  0  0  0  0  0
   -2.9877   -1.2385   -1.4736 C   0  0  0  0  0  0  0  0  0  0  0  0
   -2.3536   -0.3273   -2.4544 N   0  0  0  0  0  0  0  0  0  0  0  0
   -1.6198    0.5513   -2.0095 O   0  0  0  0  0  0  0  0  0  0  0  0
   -2.6025   -0.5168   -3.6403 O   0  0  0  0  0  0  0  0  0  0  0  0
   -3.8368   -2.2369   -1.9387 C   0  0  0  0  0  0  0  0  0  0  0  0
   -4.4389   -3.0976   -1.0227 C   0  0  0  0  0  0  0  0  0  0  0  0
   -3.1013   -1.8028    1.8649 H   0  0  0  0  0  0  0  0  0  0  0  0
   -2.0421   -0.2547    0.1873 H   0  0  0  0  0  0  0  0  0  0  0  0
   -4.0304   -2.3284   -2.9998 H   0  0  0  0  0  0  0  0  0  0  0  0
   -5.1322   -3.8696   -1.3281 H   0  0  0  0  0  0  0  0  0  0  0  0
   -9.3518   -4.8430    1.8565 C   0  0  0  0  0  0  0  0  0  0  0  0
  -10.4348   -5.6591    2.1777 C   0  0  0  0  0  0  0  0  0  0  0  0
  -11.0458   -6.4678    1.2089 C   0  0  0  0  0  0  0  0  0  0  0  0
  -10.5412   -6.4389   -0.0995 C   0  0  0  0  0  0  0  0  0  0  0  0
   -9.4603   -5.6275   -0.4373 C   0  0  0  0  0  0  0  0  0  0  0  0
   -8.8700   -4.8337    0.5471 C   0  0  0  0  0  0  0  0  0  0  0  0
   -8.8906   -4.2054    2.6029 H   0  0  0  0  0  0  0  0  0  0  0  0
  -10.8161   -5.6648    3.1957 H   0  0  0  0  0  0  0  0  0  0  0  0
  -11.0048   -7.0564   -0.8647 H   0  0  0  0  0  0  0  0  0  0  0  0
   -9.0806   -5.5926   -1.4525 H   0  0  0  0  0  0  0  0  0  0  0  0
   -7.4648   -3.8043    0.1275 S   0  0  0  0  0  0  0  0  0  0  0  0
   -6.2554   -4.7497    0.3895 O   0  0  0  0  0  0  0  0  0  0  0  0
   -7.4264   -2.6667    1.0699 O   0  0  0  0  0  0  0  0  0  0  0  0
   -7.5581   -3.4890   -1.3125 O   0  0  0  0  0  0  0  0  0  0  0  0
  -12.2410   -7.3235    1.5557 C   0  0  0  0  0  0  0  0  0  0  0  0
  -12.2527   -7.5851    2.6176 H   0  0  0  0  0  0  0  0  0  0  0  0
  -13.1781   -6.7951    1.3389 H   0  0  0  0  0  0  0  0  0  0  0  0
  -12.2513   -8.2510    0.9763 H   0  0  0  0  0  0  0  0  0  0  0  0
  1  4  1  0  0  0  0
  1  2  1  0  0  0  0
  2  3  2  0  0  0  0
  4 12  1  0  0  0  0
  5 13  1  0  0  0  0
  5  4  2  0  0  0  0
  6  5  1  0  0  0  0
  7  8  2  0  0  0  0
  7  6  1  0  0  0  0
  9  7  2  0  0  0  0
 10  6  2  0  0  0  0
 10 11  1  0  0  0  0
 11  1  2  0  0  0  0
 14 10  1  0  0  0  0
 15 11  1  0  0  0  0
 16 17  1  0  0  0  0
 16 22  1  0  0  0  0
 17 23  1  0  0  0  0
 18 30  1  0  0  0  0
 18 17  2  0  0  0  0
 19 18  1  0  0  0  0
 20 19  2  0  0  0  0
 20 21  1  0  0  0  0
 21 16  2  0  0  0  0
 24 19  1  0  0  0  0
 25 20  1  0  0  0  0
 26 27  2  0  0  0  0
 26 21  1  0  0  0  0
 26 28  1  0  0  0  0
 29 26  2  0  0  0  0
 30 31  1  0  0  0  0
 32 30  1  0  0  0  0
 33 30  1  0  0  0  0
M  RAD  2   3   2  28   2
M  END
