Coordinates from ORCA-job 4-NO2PhN2+~TsO-_B3LYPG-6-31G_dp-NX-Scan-d89-09-n800
 OpenBabel11261920283D

 33 33  0  0  0  0  0  0  0  0999 V2000
   -5.6550   -2.3323    0.0400 C   0  0  0  0  0  0  0  0  0  0  0  0
   -7.0366   -2.4337    0.3949 N   0  0  0  0  0  0  0  0  0  0  0  0
   -7.7764   -2.4558    1.2491 N   0  0  0  0  0  0  0  0  0  0  0  0
   -4.8116   -1.8105    1.0318 C   0  0  0  0  0  0  0  0  0  0  0  0
   -3.4545   -1.7127    0.7564 C   0  0  0  0  0  0  0  0  0  0  0  0
   -2.9940   -2.1516   -0.4848 C   0  0  0  0  0  0  0  0  0  0  0  0
   -1.5446   -2.0493   -0.7728 N   0  0  0  0  0  0  0  0  0  0  0  0
   -0.8304   -1.5773    0.1080 O   0  0  0  0  0  0  0  0  0  0  0  0
   -1.1603   -2.4435   -1.8689 O   0  0  0  0  0  0  0  0  0  0  0  0
   -3.8353   -2.6804   -1.4595 C   0  0  0  0  0  0  0  0  0  0  0  0
   -5.2031   -2.7706   -1.2048 C   0  0  0  0  0  0  0  0  0  0  0  0
   -5.2166   -1.4858    1.9831 H   0  0  0  0  0  0  0  0  0  0  0  0
   -2.7556   -1.3088    1.4773 H   0  0  0  0  0  0  0  0  0  0  0  0
   -3.4217   -3.0091   -2.4042 H   0  0  0  0  0  0  0  0  0  0  0  0
   -5.8947   -3.1710   -1.9395 H   0  0  0  0  0  0  0  0  0  0  0  0
  -10.1294   -4.2822    0.2449 C   0  0  0  0  0  0  0  0  0  0  0  0
  -10.4319   -5.1018    1.3306 C   0  0  0  0  0  0  0  0  0  0  0  0
   -9.6618   -6.2380    1.6200 C   0  0  0  0  0  0  0  0  0  0  0  0
   -8.5725   -6.5337    0.7880 C   0  0  0  0  0  0  0  0  0  0  0  0
   -8.2553   -5.7213   -0.3005 C   0  0  0  0  0  0  0  0  0  0  0  0
   -9.0331   -4.5930   -0.5652 C   0  0  0  0  0  0  0  0  0  0  0  0
  -10.7425   -3.4183    0.0113 H   0  0  0  0  0  0  0  0  0  0  0  0
  -11.2849   -4.8614    1.9603 H   0  0  0  0  0  0  0  0  0  0  0  0
   -7.9708   -7.4165    0.9886 H   0  0  0  0  0  0  0  0  0  0  0  0
   -7.4277   -5.9621   -0.9595 H   0  0  0  0  0  0  0  0  0  0  0  0
   -8.6364   -3.5274   -1.9572 S   0  0  0  0  0  0  0  0  0  0  0  0
   -7.9375   -2.2715   -1.3545 O   0  0  0  0  0  0  0  0  0  0  0  0
   -9.9156   -3.0880   -2.5137 O   0  0  0  0  0  0  0  0  0  0  0  0
   -7.6748   -4.2772   -2.7920 O   0  0  0  0  0  0  0  0  0  0  0  0
  -10.0220   -7.1398    2.7764 C   0  0  0  0  0  0  0  0  0  0  0  0
  -10.4433   -6.5720    3.6115 H   0  0  0  0  0  0  0  0  0  0  0  0
  -10.7738   -7.8804    2.4765 H   0  0  0  0  0  0  0  0  0  0  0  0
   -9.1506   -7.6900    3.1429 H   0  0  0  0  0  0  0  0  0  0  0  0
  1  2  1  0  0  0  0
  1  4  2  0  0  0  0
  2  3  2  0  0  0  0
  4 12  1  0  0  0  0
  5  4  1  0  0  0  0
  5 13  1  0  0  0  0
  6  5  2  0  0  0  0
  7  6  1  0  0  0  0
  7  8  2  0  0  0  0
  9  7  2  0  0  0  0
 10 11  2  0  0  0  0
 10  6  1  0  0  0  0
 11  1  1  0  0  0  0
 14 10  1  0  0  0  0
 15 11  1  0  0  0  0
 16 17  2  0  0  0  0
 17 18  1  0  0  0  0
 17 23  1  0  0  0  0
 18 30  1  0  0  0  0
 19 24  1  0  0  0  0
 19 18  2  0  0  0  0
 20 19  1  0  0  0  0
 21 20  2  0  0  0  0
 21 16  1  0  0  0  0
 22 16  1  0  0  0  0
 25 20  1  0  0  0  0
 26 27  1  0  0  0  0
 26 21  1  0  0  0  0
 28 26  2  0  0  0  0
 29 26  2  0  0  0  0
 30 33  1  0  0  0  0
 30 31  1  0  0  0  0
 32 30  1  0  0  0  0
M  RAD  2   3   2  27   2
M  END
