Coordinates from ORCA-job 4-NO2PhN2+~TsO-_B3LYPG-6-31G_dp-NX-Scan-d89-09-n800
 OpenBabel11261920283D

 33 33  0  0  0  0  0  0  0  0999 V2000
   -4.8599   -2.7377    0.1217 C   0  0  0  0  0  0  0  0  0  0  0  0
   -5.9230   -3.4738    0.7329 N   0  0  0  0  0  0  0  0  0  0  0  0
   -6.2303   -4.1337    1.5953 N   0  0  0  0  0  0  0  0  0  0  0  0
   -4.0462   -1.9998    0.9875 C   0  0  0  0  0  0  0  0  0  0  0  0
   -2.9765   -1.3023    0.4378 C   0  0  0  0  0  0  0  0  0  0  0  0
   -2.7601   -1.3880   -0.9360 C   0  0  0  0  0  0  0  0  0  0  0  0
   -1.6132   -0.6508   -1.5129 N   0  0  0  0  0  0  0  0  0  0  0  0
   -0.9214    0.0051   -0.7382 O   0  0  0  0  0  0  0  0  0  0  0  0
   -1.4327   -0.7491   -2.7223 O   0  0  0  0  0  0  0  0  0  0  0  0
   -3.5727   -2.1358   -1.7862 C   0  0  0  0  0  0  0  0  0  0  0  0
   -4.6620   -2.8210   -1.2559 C   0  0  0  0  0  0  0  0  0  0  0  0
   -4.2528   -1.9663    2.0512 H   0  0  0  0  0  0  0  0  0  0  0  0
   -2.3142   -0.7038    1.0500 H   0  0  0  0  0  0  0  0  0  0  0  0
   -3.3537   -2.1670   -2.8461 H   0  0  0  0  0  0  0  0  0  0  0  0
   -5.3367   -3.4186   -1.8627 H   0  0  0  0  0  0  0  0  0  0  0  0
  -10.1871   -4.3189    0.3888 C   0  0  0  0  0  0  0  0  0  0  0  0
  -10.9211   -5.0871    1.2860 C   0  0  0  0  0  0  0  0  0  0  0  0
  -10.5283   -6.3959    1.6148 C   0  0  0  0  0  0  0  0  0  0  0  0
   -9.3751   -6.9139    1.0154 C   0  0  0  0  0  0  0  0  0  0  0  0
   -8.6261   -6.1543    0.1136 C   0  0  0  0  0  0  0  0  0  0  0  0
   -9.0339   -4.8570   -0.1928 C   0  0  0  0  0  0  0  0  0  0  0  0
  -10.5055   -3.3152    0.1283 H   0  0  0  0  0  0  0  0  0  0  0  0
  -11.8182   -4.6699    1.7364 H   0  0  0  0  0  0  0  0  0  0  0  0
   -9.0599   -7.9268    1.2511 H   0  0  0  0  0  0  0  0  0  0  0  0
   -7.7421   -6.5608   -0.3649 H   0  0  0  0  0  0  0  0  0  0  0  0
   -8.0781   -3.8585   -1.3367 S   0  0  0  0  0  0  0  0  0  0  0  0
   -7.4406   -2.7536   -0.4528 O   0  0  0  0  0  0  0  0  0  0  0  0
   -9.0141   -3.2382   -2.2801 O   0  0  0  0  0  0  0  0  0  0  0  0
   -7.0120   -4.7404   -1.8718 O   0  0  0  0  0  0  0  0  0  0  0  0
  -11.3483   -7.2222    2.5771 C   0  0  0  0  0  0  0  0  0  0  0  0
  -11.5625   -6.6675    3.4968 H   0  0  0  0  0  0  0  0  0  0  0  0
  -12.3135   -7.4986    2.1372 H   0  0  0  0  0  0  0  0  0  0  0  0
  -10.8329   -8.1459    2.8520 H   0  0  0  0  0  0  0  0  0  0  0  0
  1  2  1  0  0  0  0
  1  4  2  0  0  0  0
  2  3  2  0  0  0  0
  4 12  1  0  0  0  0
  5  4  1  0  0  0  0
  5 13  1  0  0  0  0
  6  5  2  0  0  0  0
  7  6  1  0  0  0  0
  7  8  2  0  0  0  0
  9  7  2  0  0  0  0
 10 11  2  0  0  0  0
 10  6  1  0  0  0  0
 11  1  1  0  0  0  0
 14 10  1  0  0  0  0
 15 11  1  0  0  0  0
 16 17  2  0  0  0  0
 17 18  1  0  0  0  0
 17 23  1  0  0  0  0
 18 30  1  0  0  0  0
 19 24  1  0  0  0  0
 19 18  2  0  0  0  0
 20 19  1  0  0  0  0
 21 20  2  0  0  0  0
 21 16  1  0  0  0  0
 22 16  1  0  0  0  0
 25 20  1  0  0  0  0
 26 27  1  0  0  0  0
 26 21  1  0  0  0  0
 28 26  2  0  0  0  0
 29 26  2  0  0  0  0
 30 33  1  0  0  0  0
 30 31  1  0  0  0  0
 32 30  1  0  0  0  0
M  RAD  2   3   2  27   2
M  END
