Coordinates from ORCA-job 4-NO2PhN2+~TsO-_B3LYPG-6-31G_dp-NX-Scan-d89-09-n800
 OpenBabel11261920283D

 33 33  0  0  0  0  0  0  0  0999 V2000
   -4.4042   -3.2411    0.0124 C   0  0  0  0  0  0  0  0  0  0  0  0
   -5.0371   -4.3917    0.5854 N   0  0  0  0  0  0  0  0  0  0  0  0
   -5.0419   -5.0726    1.4870 N   0  0  0  0  0  0  0  0  0  0  0  0
   -3.7738   -2.3830    0.9230 C   0  0  0  0  0  0  0  0  0  0  0  0
   -3.0996   -1.2773    0.4223 C   0  0  0  0  0  0  0  0  0  0  0  0
   -3.0674   -1.0839   -0.9582 C   0  0  0  0  0  0  0  0  0  0  0  0
   -2.3368    0.0908   -1.4866 N   0  0  0  0  0  0  0  0  0  0  0  0
   -1.8095    0.8377   -0.6665 O   0  0  0  0  0  0  0  0  0  0  0  0
   -2.3069    0.2327   -2.7047 O   0  0  0  0  0  0  0  0  0  0  0  0
   -3.6895   -1.9454   -1.8571 C   0  0  0  0  0  0  0  0  0  0  0  0
   -4.3845   -3.0475   -1.3664 C   0  0  0  0  0  0  0  0  0  0  0  0
   -3.8234   -2.5756    1.9884 H   0  0  0  0  0  0  0  0  0  0  0  0
   -2.6028   -0.5716    1.0756 H   0  0  0  0  0  0  0  0  0  0  0  0
   -3.6369   -1.7430   -2.9192 H   0  0  0  0  0  0  0  0  0  0  0  0
   -4.9071   -3.7421   -2.0099 H   0  0  0  0  0  0  0  0  0  0  0  0
   -9.2686   -4.3609    1.1830 C   0  0  0  0  0  0  0  0  0  0  0  0
  -10.2155   -5.0261    1.9639 C   0  0  0  0  0  0  0  0  0  0  0  0
  -10.7706   -6.2426    1.5496 C   0  0  0  0  0  0  0  0  0  0  0  0
  -10.3532   -6.7827    0.3222 C   0  0  0  0  0  0  0  0  0  0  0  0
   -9.4124   -6.1306   -0.4687 C   0  0  0  0  0  0  0  0  0  0  0  0
   -8.8688   -4.9202   -0.0289 C   0  0  0  0  0  0  0  0  0  0  0  0
   -8.8501   -3.4106    1.4946 H   0  0  0  0  0  0  0  0  0  0  0  0
  -10.5308   -4.5901    2.9082 H   0  0  0  0  0  0  0  0  0  0  0  0
  -10.7751   -7.7250   -0.0178 H   0  0  0  0  0  0  0  0  0  0  0  0
   -9.1057   -6.5448   -1.4230 H   0  0  0  0  0  0  0  0  0  0  0  0
   -7.6377   -4.0887   -1.0341 S   0  0  0  0  0  0  0  0  0  0  0  0
   -6.3608   -4.9720   -0.8741 O   0  0  0  0  0  0  0  0  0  0  0  0
   -7.4037   -2.7583   -0.4331 O   0  0  0  0  0  0  0  0  0  0  0  0
   -8.0869   -4.1540   -2.4315 O   0  0  0  0  0  0  0  0  0  0  0  0
  -11.8136   -6.9475    2.3837 C   0  0  0  0  0  0  0  0  0  0  0  0
  -11.8344   -6.5643    3.4075 H   0  0  0  0  0  0  0  0  0  0  0  0
  -12.8162   -6.8094    1.9598 H   0  0  0  0  0  0  0  0  0  0  0  0
  -11.6289   -8.0260    2.4277 H   0  0  0  0  0  0  0  0  0  0  0  0
  1  2  1  0  0  0  0
  1  4  2  0  0  0  0
  2  3  2  0  0  0  0
  4 12  1  0  0  0  0
  5  4  1  0  0  0  0
  5 13  1  0  0  0  0
  6  5  2  0  0  0  0
  7  6  1  0  0  0  0
  7  8  2  0  0  0  0
  9  7  2  0  0  0  0
 10 11  2  0  0  0  0
 10  6  1  0  0  0  0
 11  1  1  0  0  0  0
 14 10  1  0  0  0  0
 15 11  1  0  0  0  0
 16 22  1  0  0  0  0
 16 17  2  0  0  0  0
 17 23  1  0  0  0  0
 18 17  1  0  0  0  0
 18 30  1  0  0  0  0
 19 18  2  0  0  0  0
 20 21  2  0  0  0  0
 20 19  1  0  0  0  0
 21 16  1  0  0  0  0
 24 19  1  0  0  0  0
 25 20  1  0  0  0  0
 26 27  2  0  0  0  0
 26 28  1  0  0  0  0
 26 21  1  0  0  0  0
 29 26  2  0  0  0  0
 30 33  1  0  0  0  0
 30 31  1  0  0  0  0
 32 30  1  0  0  0  0
M  RAD  2   3   2  28   2
M  END
