Coordinates from ORCA-job 4-NO2PhN2+~TsO-_B3LYPG-6-31G_dp-NX-Scan-d89-09-n800
 OpenBabel11261920283D

 33 33  0  0  0  0  0  0  0  0999 V2000
   -4.6238   -0.8171    1.2743 C   0  0  0  0  0  0  0  0  0  0  0  0
   -5.0166   -0.0968    2.3756 N   0  0  0  0  0  0  0  0  0  0  0  0
   -5.2134    0.5098    3.3022 N   0  0  0  0  0  0  0  0  0  0  0  0
   -3.2163   -0.8912    1.0936 C   0  0  0  0  0  0  0  0  0  0  0  0
   -2.7467   -1.6020    0.0105 C   0  0  0  0  0  0  0  0  0  0  0  0
   -3.6710   -2.1985   -0.8568 C   0  0  0  0  0  0  0  0  0  0  0  0
   -3.1190   -2.9270   -2.0260 N   0  0  0  0  0  0  0  0  0  0  0  0
   -1.9443   -3.2881   -1.9368 O   0  0  0  0  0  0  0  0  0  0  0  0
   -3.8616   -3.0936   -2.9788 O   0  0  0  0  0  0  0  0  0  0  0  0
   -5.0530   -2.1398   -0.6859 C   0  0  0  0  0  0  0  0  0  0  0  0
   -5.5593   -1.4328    0.4062 C   0  0  0  0  0  0  0  0  0  0  0  0
   -2.5448   -0.4044    1.7912 H   0  0  0  0  0  0  0  0  0  0  0  0
   -1.6863   -1.7126   -0.1793 H   0  0  0  0  0  0  0  0  0  0  0  0
   -5.7417   -2.6837   -1.3531 H   0  0  0  0  0  0  0  0  0  0  0  0
   -6.6399   -1.3978    0.5391 H   0  0  0  0  0  0  0  0  0  0  0  0
  -10.0208   -4.6647    0.1940 C   0  0  0  0  0  0  0  0  0  0  0  0
  -10.5598   -5.6397    1.0303 C   0  0  0  0  0  0  0  0  0  0  0  0
   -9.9623   -6.9034    1.1495 C   0  0  0  0  0  0  0  0  0  0  0  0
   -8.8021   -7.1632    0.4028 C   0  0  0  0  0  0  0  0  0  0  0  0
   -8.2545   -6.1959   -0.4365 C   0  0  0  0  0  0  0  0  0  0  0  0
   -8.8652   -4.9431   -0.5428 C   0  0  0  0  0  0  0  0  0  0  0  0
  -10.4847   -3.6874    0.1094 H   0  0  0  0  0  0  0  0  0  0  0  0
  -11.4614   -5.4217    1.5978 H   0  0  0  0  0  0  0  0  0  0  0  0
   -8.3252   -8.1381    0.4795 H   0  0  0  0  0  0  0  0  0  0  0  0
   -7.3568   -6.3905   -1.0132 H   0  0  0  0  0  0  0  0  0  0  0  0
   -8.2058   -3.7011   -1.6700 S   0  0  0  0  0  0  0  0  0  0  0  0
   -8.2331   -2.4250   -0.8723 O   0  0  0  0  0  0  0  0  0  0  0  0
   -9.0987   -3.7217   -2.8529 O   0  0  0  0  0  0  0  0  0  0  0  0
   -6.7967   -4.1360   -1.9425 O   0  0  0  0  0  0  0  0  0  0  0  0
  -10.5373   -7.9551    2.0679 C   0  0  0  0  0  0  0  0  0  0  0  0
   -9.9183   -8.0834    2.9649 H   0  0  0  0  0  0  0  0  0  0  0  0
  -11.5449   -7.6902    2.3990 H   0  0  0  0  0  0  0  0  0  0  0  0
  -10.5893   -8.9314    1.5739 H   0  0  0  0  0  0  0  0  0  0  0  0
  1  2  1  0  0  0  0
  2  3  1  0  0  0  0
  4  1  1  0  0  0  0
  4 12  1  0  0  0  0
  5  4  2  0  0  0  0
  6 10  2  0  0  0  0
  6  5  1  0  0  0  0
  7  8  2  0  0  0  0
  7  6  1  0  0  0  0
  9  7  2  0  0  0  0
 10 11  1  0  0  0  0
 11 15  1  0  0  0  0
 11  1  2  0  0  0  0
 13  5  1  0  0  0  0
 14 10  1  0  0  0  0
 16 17  2  0  0  0  0
 17 18  1  0  0  0  0
 17 23  1  0  0  0  0
 18 30  1  0  0  0  0
 19 24  1  0  0  0  0
 19 18  2  0  0  0  0
 20 19  1  0  0  0  0
 21 20  2  0  0  0  0
 21 16  1  0  0  0  0
 22 16  1  0  0  0  0
 25 20  1  0  0  0  0
 26 27  1  0  0  0  0
 26 21  1  0  0  0  0
 28 26  2  0  0  0  0
 29 26  2  0  0  0  0
 30 32  1  0  0  0  0
 30 31  1  0  0  0  0
 33 30  1  0  0  0  0
M  RAD  3   2   2   3   3  27   2
M  END
