Coordinates from ORCA-job 4-NO2PhN2+~TsO-_B3LYPG-6-31G_dp-NX-Scan-d89-09-n800
 OpenBabel11261920283D

 33 33  0  0  0  0  0  0  0  0999 V2000
   -5.7908   -2.2921   -0.0292 C   0  0  0  0  0  0  0  0  0  0  0  0
   -7.2032   -2.2731    0.2101 N   0  0  0  0  0  0  0  0  0  0  0  0
   -7.9892   -2.1403    1.0115 N   0  0  0  0  0  0  0  0  0  0  0  0
   -4.9963   -1.8727    1.0492 C   0  0  0  0  0  0  0  0  0  0  0  0
   -3.6171   -1.8886    0.8968 C   0  0  0  0  0  0  0  0  0  0  0  0
   -3.0850   -2.3267   -0.3160 C   0  0  0  0  0  0  0  0  0  0  0  0
   -1.6117   -2.3450   -0.4715 N   0  0  0  0  0  0  0  0  0  0  0  0
   -0.9430   -1.9708    0.4880 O   0  0  0  0  0  0  0  0  0  0  0  0
   -1.1652   -2.7333   -1.5458 O   0  0  0  0  0  0  0  0  0  0  0  0
   -3.8770   -2.7464   -1.3801 C   0  0  0  0  0  0  0  0  0  0  0  0
   -5.2644   -2.7294   -1.2441 C   0  0  0  0  0  0  0  0  0  0  0  0
   -5.4543   -1.5434    1.9746 H   0  0  0  0  0  0  0  0  0  0  0  0
   -2.9542   -1.5718    1.6917 H   0  0  0  0  0  0  0  0  0  0  0  0
   -3.4105   -3.0768   -2.2993 H   0  0  0  0  0  0  0  0  0  0  0  0
   -5.9335   -3.0276   -2.0415 H   0  0  0  0  0  0  0  0  0  0  0  0
  -10.1057   -4.2553    0.2366 C   0  0  0  0  0  0  0  0  0  0  0  0
  -10.2568   -5.0480    1.3752 C   0  0  0  0  0  0  0  0  0  0  0  0
   -9.4169   -6.1452    1.6122 C   0  0  0  0  0  0  0  0  0  0  0  0
   -8.4150   -6.4326    0.6722 C   0  0  0  0  0  0  0  0  0  0  0  0
   -8.2508   -5.6489   -0.4691 C   0  0  0  0  0  0  0  0  0  0  0  0
   -9.0949   -4.5560   -0.6800 C   0  0  0  0  0  0  0  0  0  0  0  0
  -10.7711   -3.4216    0.0415 H   0  0  0  0  0  0  0  0  0  0  0  0
  -11.0443   -4.8155    2.0877 H   0  0  0  0  0  0  0  0  0  0  0  0
   -7.7641   -7.2886    0.8319 H   0  0  0  0  0  0  0  0  0  0  0  0
   -7.4952   -5.8883   -1.2103 H   0  0  0  0  0  0  0  0  0  0  0  0
   -8.8696   -3.5116   -2.1255 S   0  0  0  0  0  0  0  0  0  0  0  0
   -7.9215   -2.3598   -1.6500 O   0  0  0  0  0  0  0  0  0  0  0  0
  -10.1834   -2.9405   -2.4359 O   0  0  0  0  0  0  0  0  0  0  0  0
   -8.1657   -4.3302   -3.1283 O   0  0  0  0  0  0  0  0  0  0  0  0
   -9.6095   -7.0202    2.8281 C   0  0  0  0  0  0  0  0  0  0  0  0
  -10.0571   -6.4631    3.6564 H   0  0  0  0  0  0  0  0  0  0  0  0
  -10.2767   -7.8616    2.6040 H   0  0  0  0  0  0  0  0  0  0  0  0
   -8.6610   -7.4418    3.1735 H   0  0  0  0  0  0  0  0  0  0  0  0
  1  2  1  0  0  0  0
  1  4  2  0  0  0  0
  2  3  2  0  0  0  0
  4 12  1  0  0  0  0
  5  4  1  0  0  0  0
  5 13  1  0  0  0  0
  6  5  2  0  0  0  0
  7  6  1  0  0  0  0
  7  8  2  0  0  0  0
  9  7  2  0  0  0  0
 10 11  2  0  0  0  0
 10  6  1  0  0  0  0
 11  1  1  0  0  0  0
 14 10  1  0  0  0  0
 15 11  1  0  0  0  0
 16 17  2  0  0  0  0
 17 18  1  0  0  0  0
 17 23  1  0  0  0  0
 18 30  1  0  0  0  0
 19 24  1  0  0  0  0
 19 18  2  0  0  0  0
 20 19  1  0  0  0  0
 21 20  2  0  0  0  0
 21 16  1  0  0  0  0
 22 16  1  0  0  0  0
 25 20  1  0  0  0  0
 26 27  1  0  0  0  0
 26 21  1  0  0  0  0
 28 26  2  0  0  0  0
 29 26  2  0  0  0  0
 30 33  1  0  0  0  0
 30 31  1  0  0  0  0
 32 30  1  0  0  0  0
M  RAD  2   3   2  27   2
M  END
