Coordinates from ORCA-job 4-NO2PhN2+~TsO-_B3LYPG-6-31G_dp-NX-Scan-d89-09-n800
 OpenBabel11261920283D

 33 33  0  0  0  0  0  0  0  0999 V2000
   -4.4542   -2.1760    0.4222 C   0  0  0  0  0  0  0  0  0  0  0  0
   -5.2952   -2.3386    1.5614 N   0  0  0  0  0  0  0  0  0  0  0  0
   -5.5137   -2.0975    2.6381 N   0  0  0  0  0  0  0  0  0  0  0  0
   -3.0890   -2.0158    0.6954 C   0  0  0  0  0  0  0  0  0  0  0  0
   -2.2280   -1.8070   -0.3739 C   0  0  0  0  0  0  0  0  0  0  0  0
   -2.7656   -1.7506   -1.6590 C   0  0  0  0  0  0  0  0  0  0  0  0
   -1.8437   -1.5225   -2.7958 N   0  0  0  0  0  0  0  0  0  0  0  0
   -0.6513   -1.3904   -2.5327 O   0  0  0  0  0  0  0  0  0  0  0  0
   -2.3354   -1.4804   -3.9187 O   0  0  0  0  0  0  0  0  0  0  0  0
   -4.1258   -1.8980   -1.9184 C   0  0  0  0  0  0  0  0  0  0  0  0
   -5.0020   -2.1300   -0.8604 C   0  0  0  0  0  0  0  0  0  0  0  0
   -2.7200   -2.0615    1.7136 H   0  0  0  0  0  0  0  0  0  0  0  0
   -1.1622   -1.6838   -0.2298 H   0  0  0  0  0  0  0  0  0  0  0  0
   -4.4862   -1.8398   -2.9376 H   0  0  0  0  0  0  0  0  0  0  0  0
   -6.0703   -2.2627   -1.0159 H   0  0  0  0  0  0  0  0  0  0  0  0
   -9.5300   -4.9876    2.0770 C   0  0  0  0  0  0  0  0  0  0  0  0
  -10.3709   -6.0943    2.1817 C   0  0  0  0  0  0  0  0  0  0  0  0
  -10.7806   -6.8039    1.0444 C   0  0  0  0  0  0  0  0  0  0  0  0
  -10.3237   -6.3750   -0.2108 C   0  0  0  0  0  0  0  0  0  0  0  0
   -9.4841   -5.2706   -0.3326 C   0  0  0  0  0  0  0  0  0  0  0  0
   -9.0893   -4.5828    0.8166 C   0  0  0  0  0  0  0  0  0  0  0  0
   -9.2270   -4.4285    2.9555 H   0  0  0  0  0  0  0  0  0  0  0  0
  -10.7194   -6.4096    3.1617 H   0  0  0  0  0  0  0  0  0  0  0  0
  -10.6348   -6.9106   -1.1042 H   0  0  0  0  0  0  0  0  0  0  0  0
   -9.1452   -4.9287   -1.3042 H   0  0  0  0  0  0  0  0  0  0  0  0
   -7.9857   -3.1807    0.6780 S   0  0  0  0  0  0  0  0  0  0  0  0
   -6.5809   -3.8179    0.7463 O   0  0  0  0  0  0  0  0  0  0  0  0
   -8.2045   -2.3015    1.8461 O   0  0  0  0  0  0  0  0  0  0  0  0
   -8.2018   -2.5768   -0.6583 O   0  0  0  0  0  0  0  0  0  0  0  0
  -11.7188   -7.9811    1.1612 C   0  0  0  0  0  0  0  0  0  0  0  0
  -11.6979   -8.4124    2.1661 H   0  0  0  0  0  0  0  0  0  0  0  0
  -12.7542   -7.6811    0.9553 H   0  0  0  0  0  0  0  0  0  0  0  0
  -11.4633   -8.7694    0.4462 H   0  0  0  0  0  0  0  0  0  0  0  0
  1  4  1  0  0  0  0
  1  2  1  0  0  0  0
  2  3  2  0  0  0  0
  4 12  1  0  0  0  0
  5 13  1  0  0  0  0
  5  4  2  0  0  0  0
  6  5  1  0  0  0  0
  7  8  2  0  0  0  0
  7  6  1  0  0  0  0
  9  7  2  0  0  0  0
 10  6  2  0  0  0  0
 10 11  1  0  0  0  0
 11  1  2  0  0  0  0
 14 10  1  0  0  0  0
 15 11  1  0  0  0  0
 16 17  1  0  0  0  0
 16 22  1  0  0  0  0
 17 23  1  0  0  0  0
 18 30  1  0  0  0  0
 18 17  2  0  0  0  0
 19 18  1  0  0  0  0
 20 19  2  0  0  0  0
 20 21  1  0  0  0  0
 21 16  2  0  0  0  0
 24 19  1  0  0  0  0
 25 20  1  0  0  0  0
 26 27  2  0  0  0  0
 26 21  1  0  0  0  0
 26 28  1  0  0  0  0
 29 26  2  0  0  0  0
 30 31  1  0  0  0  0
 32 30  1  0  0  0  0
 33 30  1  0  0  0  0
M  RAD  2   3   2  28   2
M  END
