Coordinates from ORCA-job 4-NO2PhN2+~TsO-_B3LYPG-6-31G_dp-NX-Scan-d89-09-n800
 OpenBabel11261920283D

 33 34  0  0  0  0  0  0  0  0999 V2000
   -4.4153   -2.6242    0.3314 C   0  0  0  0  0  0  0  0  0  0  0  0
   -5.0166   -3.5446    1.2175 N   0  0  0  0  0  0  0  0  0  0  0  0
   -5.7340   -4.4800    1.1747 N   0  0  0  0  0  0  0  0  0  0  0  0
   -3.6584   -1.6273    0.9674 C   0  0  0  0  0  0  0  0  0  0  0  0
   -3.0126   -0.6600    0.2084 C   0  0  0  0  0  0  0  0  0  0  0  0
   -3.1362   -0.7205   -1.1780 C   0  0  0  0  0  0  0  0  0  0  0  0
   -2.4542    0.3072   -1.9949 N   0  0  0  0  0  0  0  0  0  0  0  0
   -1.8088    1.1646   -1.3968 O   0  0  0  0  0  0  0  0  0  0  0  0
   -2.5807    0.2342   -3.2140 O   0  0  0  0  0  0  0  0  0  0  0  0
   -3.8757   -1.7082   -1.8254 C   0  0  0  0  0  0  0  0  0  0  0  0
   -4.5302   -2.6763   -1.0701 C   0  0  0  0  0  0  0  0  0  0  0  0
   -3.5893   -1.6286    2.0495 H   0  0  0  0  0  0  0  0  0  0  0  0
   -2.4233    0.1264    0.6622 H   0  0  0  0  0  0  0  0  0  0  0  0
   -3.9348   -1.7070   -2.9069 H   0  0  0  0  0  0  0  0  0  0  0  0
   -5.1135   -3.4561   -1.5379 H   0  0  0  0  0  0  0  0  0  0  0  0
   -8.6719   -6.4374    1.5637 C   0  0  0  0  0  0  0  0  0  0  0  0
   -9.9304   -6.2792    2.1420 C   0  0  0  0  0  0  0  0  0  0  0  0
  -11.0195   -5.8099    1.3940 C   0  0  0  0  0  0  0  0  0  0  0  0
  -10.8196   -5.5103    0.0380 C   0  0  0  0  0  0  0  0  0  0  0  0
   -9.5696   -5.6618   -0.5570 C   0  0  0  0  0  0  0  0  0  0  0  0
   -8.5011   -6.1203    0.2159 C   0  0  0  0  0  0  0  0  0  0  0  0
   -7.8340   -6.8171    2.1376 H   0  0  0  0  0  0  0  0  0  0  0  0
  -10.0715   -6.5340    3.1890 H   0  0  0  0  0  0  0  0  0  0  0  0
  -11.6566   -5.1620   -0.5615 H   0  0  0  0  0  0  0  0  0  0  0  0
   -9.4208   -5.4489   -1.6100 H   0  0  0  0  0  0  0  0  0  0  0  0
   -6.8916   -6.3101   -0.5381 S   0  0  0  0  0  0  0  0  0  0  0  0
   -6.1057   -7.2322    0.2793 O   0  0  0  0  0  0  0  0  0  0  0  0
   -6.2513   -4.8256   -0.4407 O   0  0  0  0  0  0  0  0  0  0  0  0
   -7.0721   -6.5323   -1.9724 O   0  0  0  0  0  0  0  0  0  0  0  0
  -12.3726   -5.6154    2.0347 C   0  0  0  0  0  0  0  0  0  0  0  0
  -12.5128   -6.2858    2.8871 H   0  0  0  0  0  0  0  0  0  0  0  0
  -12.4871   -4.5887    2.4040 H   0  0  0  0  0  0  0  0  0  0  0  0
  -13.1826   -5.7954    1.3217 H   0  0  0  0  0  0  0  0  0  0  0  0
  1  4  1  0  0  0  0
  1  2  1  0  0  0  0
  3  2  1  0  0  0  0
  4 12  1  0  0  0  0
  5 13  1  0  0  0  0
  5  4  2  0  0  0  0
  6  5  1  0  0  0  0
  7  8  2  0  0  0  0
  7  6  1  0  0  0  0
  9  7  2  0  0  0  0
 10  6  2  0  0  0  0
 10 11  1  0  0  0  0
 11  1  2  0  0  0  0
 14 10  1  0  0  0  0
 15 11  1  0  0  0  0
 16 22  1  0  0  0  0
 16 17  1  0  0  0  0
 17 23  1  0  0  0  0
 18 30  1  0  0  0  0
 18 17  2  0  0  0  0
 19 18  1  0  0  0  0
 20 19  2  0  0  0  0
 20 21  1  0  0  0  0
 21 16  2  0  0  0  0
 24 19  1  0  0  0  0
 25 20  1  0  0  0  0
 26 28  1  0  0  0  0
 26 21  1  0  0  0  0
 26 27  2  0  0  0  0
 28  3  1  0  0  0  0
 29 26  2  0  0  0  0
 30 32  1  0  0  0  0
 30 31  1  0  0  0  0
 33 30  1  0  0  0  0
M  RAD  2   2   2   3   2
M  END
