Coordinates from ORCA-job 4-NO2PhN2+~TsO-_B3LYPG-6-31G_dp-NX-Scan-d89-09-n800
 OpenBabel11261920283D

 33 33  0  0  0  0  0  0  0  0999 V2000
   -4.4072   -3.2759   -0.0025 C   0  0  0  0  0  0  0  0  0  0  0  0
   -5.0258   -4.4478    0.5417 N   0  0  0  0  0  0  0  0  0  0  0  0
   -5.0184   -5.1545    1.4234 N   0  0  0  0  0  0  0  0  0  0  0  0
   -3.7897   -2.4307    0.9289 C   0  0  0  0  0  0  0  0  0  0  0  0
   -3.1309   -1.3040    0.4554 C   0  0  0  0  0  0  0  0  0  0  0  0
   -3.1007   -1.0774   -0.9201 C   0  0  0  0  0  0  0  0  0  0  0  0
   -2.3868    0.1199   -1.4196 N   0  0  0  0  0  0  0  0  0  0  0  0
   -1.8705    0.8545   -0.5815 O   0  0  0  0  0  0  0  0  0  0  0  0
   -2.3584    0.2913   -2.6340 O   0  0  0  0  0  0  0  0  0  0  0  0
   -3.7098   -1.9261   -1.8398 C   0  0  0  0  0  0  0  0  0  0  0  0
   -4.3898   -3.0490   -1.3762 C   0  0  0  0  0  0  0  0  0  0  0  0
   -3.8367   -2.6496    1.9894 H   0  0  0  0  0  0  0  0  0  0  0  0
   -2.6444   -0.6072    1.1257 H   0  0  0  0  0  0  0  0  0  0  0  0
   -3.6594   -1.6978   -2.8967 H   0  0  0  0  0  0  0  0  0  0  0  0
   -4.9002   -3.7357   -2.0375 H   0  0  0  0  0  0  0  0  0  0  0  0
   -9.2480   -4.3391    1.1348 C   0  0  0  0  0  0  0  0  0  0  0  0
  -10.1900   -4.9825    1.9395 C   0  0  0  0  0  0  0  0  0  0  0  0
  -10.7476   -6.2097    1.5621 C   0  0  0  0  0  0  0  0  0  0  0  0
  -10.3376   -6.7836    0.3476 C   0  0  0  0  0  0  0  0  0  0  0  0
   -9.4015   -6.1535   -0.4666 C   0  0  0  0  0  0  0  0  0  0  0  0
   -8.8555   -4.9316   -0.0637 C   0  0  0  0  0  0  0  0  0  0  0  0
   -8.8280   -3.3804    1.4174 H   0  0  0  0  0  0  0  0  0  0  0  0
  -10.5000   -4.5204    2.8733 H   0  0  0  0  0  0  0  0  0  0  0  0
  -10.7617   -7.7346    0.0362 H   0  0  0  0  0  0  0  0  0  0  0  0
   -9.1006   -6.5937   -1.4111 H   0  0  0  0  0  0  0  0  0  0  0  0
   -7.6321   -4.1275   -1.1004 S   0  0  0  0  0  0  0  0  0  0  0  0
   -6.3526   -5.0039   -0.9248 O   0  0  0  0  0  0  0  0  0  0  0  0
   -7.3984   -2.7796   -0.5404 O   0  0  0  0  0  0  0  0  0  0  0  0
   -8.0901   -4.2353   -2.4923 O   0  0  0  0  0  0  0  0  0  0  0  0
  -11.7865   -6.8907    2.4208 C   0  0  0  0  0  0  0  0  0  0  0  0
  -11.7951   -6.4865    3.4365 H   0  0  0  0  0  0  0  0  0  0  0  0
  -12.7924   -6.7552    2.0039 H   0  0  0  0  0  0  0  0  0  0  0  0
  -11.6078   -7.9692    2.4853 H   0  0  0  0  0  0  0  0  0  0  0  0
  1  2  1  0  0  0  0
  1  4  2  0  0  0  0
  2  3  2  0  0  0  0
  4 12  1  0  0  0  0
  5  4  1  0  0  0  0
  5 13  1  0  0  0  0
  6  5  2  0  0  0  0
  7  6  1  0  0  0  0
  7  8  2  0  0  0  0
  9  7  2  0  0  0  0
 10 11  2  0  0  0  0
 10  6  1  0  0  0  0
 11  1  1  0  0  0  0
 14 10  1  0  0  0  0
 15 11  1  0  0  0  0
 16 22  1  0  0  0  0
 16 17  2  0  0  0  0
 17 23  1  0  0  0  0
 18 17  1  0  0  0  0
 18 30  1  0  0  0  0
 19 18  2  0  0  0  0
 20 21  2  0  0  0  0
 20 19  1  0  0  0  0
 21 16  1  0  0  0  0
 24 19  1  0  0  0  0
 25 20  1  0  0  0  0
 26 27  2  0  0  0  0
 26 28  1  0  0  0  0
 26 21  1  0  0  0  0
 29 26  2  0  0  0  0
 30 33  1  0  0  0  0
 30 31  1  0  0  0  0
 32 30  1  0  0  0  0
M  RAD  2   3   2  28   2
M  END
