Coordinates from ORCA-job 4-NO2PhN2+~TsO-_B3LYPG-6-31G_dp-NX-Scan-d89-09-n800
 OpenBabel11261920283D

 33 33  0  0  0  0  0  0  0  0999 V2000
   -4.4803   -1.9730    0.4606 C   0  0  0  0  0  0  0  0  0  0  0  0
   -5.3191   -1.9723    1.5892 N   0  0  0  0  0  0  0  0  0  0  0  0
   -5.7590   -1.6866    2.5783 N   0  0  0  0  0  0  0  0  0  0  0  0
   -3.1025   -1.9058    0.7115 C   0  0  0  0  0  0  0  0  0  0  0  0
   -2.2445   -1.8572   -0.3791 C   0  0  0  0  0  0  0  0  0  0  0  0
   -2.7963   -1.8621   -1.6594 C   0  0  0  0  0  0  0  0  0  0  0  0
   -1.8751   -1.8025   -2.8189 N   0  0  0  0  0  0  0  0  0  0  0  0
   -0.6723   -1.7509   -2.5762 O   0  0  0  0  0  0  0  0  0  0  0  0
   -2.3787   -1.8067   -3.9370 O   0  0  0  0  0  0  0  0  0  0  0  0
   -4.1679   -1.9206   -1.8975 C   0  0  0  0  0  0  0  0  0  0  0  0
   -5.0454   -1.9943   -0.8197 C   0  0  0  0  0  0  0  0  0  0  0  0
   -2.7235   -1.8977    1.7270 H   0  0  0  0  0  0  0  0  0  0  0  0
   -1.1700   -1.8109   -0.2557 H   0  0  0  0  0  0  0  0  0  0  0  0
   -4.5351   -1.9231   -2.9160 H   0  0  0  0  0  0  0  0  0  0  0  0
   -6.1241   -2.0704   -0.9486 H   0  0  0  0  0  0  0  0  0  0  0  0
   -9.4455   -5.0861    2.0989 C   0  0  0  0  0  0  0  0  0  0  0  0
  -10.2818   -6.1996    2.1592 C   0  0  0  0  0  0  0  0  0  0  0  0
  -10.7393   -6.8264    0.9921 C   0  0  0  0  0  0  0  0  0  0  0  0
  -10.3354   -6.3063   -0.2465 C   0  0  0  0  0  0  0  0  0  0  0  0
   -9.5014   -5.1934   -0.3227 C   0  0  0  0  0  0  0  0  0  0  0  0
   -9.0562   -4.5887    0.8546 C   0  0  0  0  0  0  0  0  0  0  0  0
   -9.1063   -4.5913    3.0023 H   0  0  0  0  0  0  0  0  0  0  0  0
  -10.5888   -6.5858    3.1278 H   0  0  0  0  0  0  0  0  0  0  0  0
  -10.6841   -6.7765   -1.1626 H   0  0  0  0  0  0  0  0  0  0  0  0
   -9.2039   -4.7808   -1.2804 H   0  0  0  0  0  0  0  0  0  0  0  0
   -7.9461   -3.1869    0.7709 S   0  0  0  0  0  0  0  0  0  0  0  0
   -6.5425   -3.7743    0.7795 O   0  0  0  0  0  0  0  0  0  0  0  0
   -8.1693   -2.3707    1.9969 O   0  0  0  0  0  0  0  0  0  0  0  0
   -8.2187   -2.4916   -0.5141 O   0  0  0  0  0  0  0  0  0  0  0  0
  -11.6719   -8.0120    1.0626 C   0  0  0  0  0  0  0  0  0  0  0  0
  -11.6060   -8.5165    2.0310 H   0  0  0  0  0  0  0  0  0  0  0  0
  -12.7157   -7.7017    0.9257 H   0  0  0  0  0  0  0  0  0  0  0  0
  -11.4479   -8.7446    0.2806 H   0  0  0  0  0  0  0  0  0  0  0  0
  1  4  1  0  0  0  0
  1  2  1  0  0  0  0
  2  3  1  0  0  0  0
  4 12  1  0  0  0  0
  5 13  1  0  0  0  0
  5  4  2  0  0  0  0
  6  5  1  0  0  0  0
  7  8  2  0  0  0  0
  7  6  1  0  0  0  0
  9  7  2  0  0  0  0
 10  6  2  0  0  0  0
 10 11  1  0  0  0  0
 11  1  2  0  0  0  0
 14 10  1  0  0  0  0
 15 11  1  0  0  0  0
 16 17  1  0  0  0  0
 16 22  1  0  0  0  0
 17 23  1  0  0  0  0
 18 30  1  0  0  0  0
 18 17  2  0  0  0  0
 19 18  1  0  0  0  0
 20 19  2  0  0  0  0
 20 21  1  0  0  0  0
 21 16  2  0  0  0  0
 24 19  1  0  0  0  0
 25 20  1  0  0  0  0
 26 27  2  0  0  0  0
 26 21  1  0  0  0  0
 26 28  1  0  0  0  0
 29 26  2  0  0  0  0
 30 31  1  0  0  0  0
 32 30  1  0  0  0  0
 33 30  1  0  0  0  0
M  RAD  3   2   2   3   3  28   2
M  END
