Coordinates from ORCA-job 4-NO2PhN2+~TsO-_B3LYPG-6-31G_dp-NX-Scan-d89-09-n800
 OpenBabel11261920283D

 33 33  0  0  0  0  0  0  0  0999 V2000
   -4.1172   -2.9561    0.3183 C   0  0  0  0  0  0  0  0  0  0  0  0
   -4.6158   -3.8668    1.3027 N   0  0  0  0  0  0  0  0  0  0  0  0
   -4.4427   -4.2866    2.3350 N   0  0  0  0  0  0  0  0  0  0  0  0
   -3.2504   -1.9665    0.8079 C   0  0  0  0  0  0  0  0  0  0  0  0
   -2.6961   -1.0746   -0.0979 C   0  0  0  0  0  0  0  0  0  0  0  0
   -3.0157   -1.2109   -1.4494 C   0  0  0  0  0  0  0  0  0  0  0  0
   -2.4140   -0.2600   -2.4128 N   0  0  0  0  0  0  0  0  0  0  0  0
   -1.6723    0.6057   -1.9559 O   0  0  0  0  0  0  0  0  0  0  0  0
   -2.6952   -0.4066   -3.5975 O   0  0  0  0  0  0  0  0  0  0  0  0
   -3.8725   -2.1964   -1.9275 C   0  0  0  0  0  0  0  0  0  0  0  0
   -4.4446   -3.0942   -1.0278 C   0  0  0  0  0  0  0  0  0  0  0  0
   -3.0319   -1.9000    1.8674 H   0  0  0  0  0  0  0  0  0  0  0  0
   -2.0285   -0.2838    0.2198 H   0  0  0  0  0  0  0  0  0  0  0  0
   -4.0964   -2.2496   -2.9852 H   0  0  0  0  0  0  0  0  0  0  0  0
   -5.1441   -3.8554   -1.3467 H   0  0  0  0  0  0  0  0  0  0  0  0
   -9.3885   -4.7727    1.8166 C   0  0  0  0  0  0  0  0  0  0  0  0
  -10.4762   -5.5762    2.1533 C   0  0  0  0  0  0  0  0  0  0  0  0
  -11.0503   -6.4486    1.2177 C   0  0  0  0  0  0  0  0  0  0  0  0
  -10.5040   -6.4965   -0.0734 C   0  0  0  0  0  0  0  0  0  0  0  0
   -9.4182   -5.6986   -0.4264 C   0  0  0  0  0  0  0  0  0  0  0  0
   -8.8650   -4.8405    0.5253 C   0  0  0  0  0  0  0  0  0  0  0  0
   -8.9551   -4.0861    2.5359 H   0  0  0  0  0  0  0  0  0  0  0  0
  -10.8900   -5.5224    3.1570 H   0  0  0  0  0  0  0  0  0  0  0  0
  -10.9387   -7.1643   -0.8130 H   0  0  0  0  0  0  0  0  0  0  0  0
   -9.0064   -5.7234   -1.4294 H   0  0  0  0  0  0  0  0  0  0  0  0
   -7.4535   -3.8273    0.0879 S   0  0  0  0  0  0  0  0  0  0  0  0
   -6.2519   -4.7645    0.4119 O   0  0  0  0  0  0  0  0  0  0  0  0
   -7.4367   -2.6479    0.9767 O   0  0  0  0  0  0  0  0  0  0  0  0
   -7.5196   -3.5781   -1.3673 O   0  0  0  0  0  0  0  0  0  0  0  0
  -12.2501   -7.2916    1.5790 C   0  0  0  0  0  0  0  0  0  0  0  0
  -12.2946   -7.4866    2.6543 H   0  0  0  0  0  0  0  0  0  0  0  0
  -13.1833   -6.7866    1.2993 H   0  0  0  0  0  0  0  0  0  0  0  0
  -12.2351   -8.2534    1.0587 H   0  0  0  0  0  0  0  0  0  0  0  0
  1  4  1  0  0  0  0
  1  2  1  0  0  0  0
  2  3  2  0  0  0  0
  4 12  1  0  0  0  0
  5 13  1  0  0  0  0
  5  4  2  0  0  0  0
  6  5  1  0  0  0  0
  7  8  2  0  0  0  0
  7  6  1  0  0  0  0
  9  7  2  0  0  0  0
 10  6  2  0  0  0  0
 10 11  1  0  0  0  0
 11  1  2  0  0  0  0
 14 10  1  0  0  0  0
 15 11  1  0  0  0  0
 16 17  1  0  0  0  0
 16 22  1  0  0  0  0
 17 23  1  0  0  0  0
 18 30  1  0  0  0  0
 18 17  2  0  0  0  0
 19 18  1  0  0  0  0
 20 19  2  0  0  0  0
 20 21  1  0  0  0  0
 21 16  2  0  0  0  0
 24 19  1  0  0  0  0
 25 20  1  0  0  0  0
 26 27  2  0  0  0  0
 26 21  1  0  0  0  0
 26 28  1  0  0  0  0
 29 26  2  0  0  0  0
 30 31  1  0  0  0  0
 32 30  1  0  0  0  0
 33 30  1  0  0  0  0
M  RAD  2   3   2  28   2
M  END
