Coordinates from ORCA-job 4-NO2PhN2+~TsO-_B3LYPG-6-31G_dp-NX-Scan-d89-09-n800
 OpenBabel11261920283D

 33 34  0  0  0  0  0  0  0  0999 V2000
   -4.4440   -2.6640    0.3198 C   0  0  0  0  0  0  0  0  0  0  0  0
   -5.0372   -3.5921    1.2055 N   0  0  0  0  0  0  0  0  0  0  0  0
   -5.7409   -4.5445    1.1286 N   0  0  0  0  0  0  0  0  0  0  0  0
   -3.7571   -1.6253    0.9694 C   0  0  0  0  0  0  0  0  0  0  0  0
   -3.1194   -0.6411    0.2255 C   0  0  0  0  0  0  0  0  0  0  0  0
   -3.1750   -0.7272   -1.1637 C   0  0  0  0  0  0  0  0  0  0  0  0
   -2.4997    0.3154   -1.9659 N   0  0  0  0  0  0  0  0  0  0  0  0
   -1.9189    1.2087   -1.3540 O   0  0  0  0  0  0  0  0  0  0  0  0
   -2.5660    0.2189   -3.1883 O   0  0  0  0  0  0  0  0  0  0  0  0
   -3.8406   -1.7564   -1.8265 C   0  0  0  0  0  0  0  0  0  0  0  0
   -4.4890   -2.7394   -1.0852 C   0  0  0  0  0  0  0  0  0  0  0  0
   -3.7367   -1.6088    2.0535 H   0  0  0  0  0  0  0  0  0  0  0  0
   -2.5857    0.1764    0.6929 H   0  0  0  0  0  0  0  0  0  0  0  0
   -3.8485   -1.7750   -2.9093 H   0  0  0  0  0  0  0  0  0  0  0  0
   -5.0155   -3.5478   -1.5703 H   0  0  0  0  0  0  0  0  0  0  0  0
   -8.6497   -6.4515    1.5489 C   0  0  0  0  0  0  0  0  0  0  0  0
   -9.8996   -6.2701    2.1388 C   0  0  0  0  0  0  0  0  0  0  0  0
  -10.9837   -5.7696    1.4041 C   0  0  0  0  0  0  0  0  0  0  0  0
  -10.7886   -5.4617    0.0490 C   0  0  0  0  0  0  0  0  0  0  0  0
   -9.5475   -5.6357   -0.5581 C   0  0  0  0  0  0  0  0  0  0  0  0
   -8.4840   -6.1259    0.2024 C   0  0  0  0  0  0  0  0  0  0  0  0
   -7.8158   -6.8542    2.1128 H   0  0  0  0  0  0  0  0  0  0  0  0
  -10.0377   -6.5307    3.1846 H   0  0  0  0  0  0  0  0  0  0  0  0
  -11.6224   -5.0890   -0.5401 H   0  0  0  0  0  0  0  0  0  0  0  0
   -9.4024   -5.4158   -1.6101 H   0  0  0  0  0  0  0  0  0  0  0  0
   -6.8877   -6.3487   -0.5672 S   0  0  0  0  0  0  0  0  0  0  0  0
   -6.1156   -7.2985    0.2289 O   0  0  0  0  0  0  0  0  0  0  0  0
   -6.2029   -4.8725   -0.4540 O   0  0  0  0  0  0  0  0  0  0  0  0
   -7.0787   -6.5327   -2.0043 O   0  0  0  0  0  0  0  0  0  0  0  0
  -12.3270   -5.5510    2.0573 C   0  0  0  0  0  0  0  0  0  0  0  0
  -12.4664   -6.2106    2.9180 H   0  0  0  0  0  0  0  0  0  0  0  0
  -12.4240   -4.5190    2.4166 H   0  0  0  0  0  0  0  0  0  0  0  0
  -13.1470   -5.7277    1.3548 H   0  0  0  0  0  0  0  0  0  0  0  0
  1  4  1  0  0  0  0
  1  2  1  0  0  0  0
  3  2  1  0  0  0  0
  4 12  1  0  0  0  0
  5 13  1  0  0  0  0
  5  4  2  0  0  0  0
  6  5  1  0  0  0  0
  7  8  2  0  0  0  0
  7  6  1  0  0  0  0
  9  7  2  0  0  0  0
 10  6  2  0  0  0  0
 10 11  1  0  0  0  0
 11  1  2  0  0  0  0
 14 10  1  0  0  0  0
 15 11  1  0  0  0  0
 16 22  1  0  0  0  0
 16 17  1  0  0  0  0
 17 23  1  0  0  0  0
 18 30  1  0  0  0  0
 18 17  2  0  0  0  0
 19 18  1  0  0  0  0
 20 19  2  0  0  0  0
 20 21  1  0  0  0  0
 21 16  2  0  0  0  0
 24 19  1  0  0  0  0
 25 20  1  0  0  0  0
 26 28  1  0  0  0  0
 26 21  1  0  0  0  0
 26 27  2  0  0  0  0
 28  3  1  0  0  0  0
 29 26  2  0  0  0  0
 30 32  1  0  0  0  0
 30 31  1  0  0  0  0
 33 30  1  0  0  0  0
M  RAD  2   2   2   3   2
M  END
