Coordinates from ORCA-job 4-NO2PhN2+~TsO-_B3LYPG-6-31G_dp-NX-Scan-d89-09-n800
 OpenBabel11261920283D

 33 33  0  0  0  0  0  0  0  0999 V2000
   -5.8305   -2.2810   -0.0230 C   0  0  0  0  0  0  0  0  0  0  0  0
   -7.2402   -2.2314    0.2216 N   0  0  0  0  0  0  0  0  0  0  0  0
   -8.0295   -2.0960    1.0190 N   0  0  0  0  0  0  0  0  0  0  0  0
   -5.0212   -1.8919    1.0556 C   0  0  0  0  0  0  0  0  0  0  0  0
   -3.6435   -1.9369    0.8956 C   0  0  0  0  0  0  0  0  0  0  0  0
   -3.1281   -2.3744   -0.3247 C   0  0  0  0  0  0  0  0  0  0  0  0
   -1.6564   -2.4242   -0.4886 N   0  0  0  0  0  0  0  0  0  0  0  0
   -0.9744   -2.0753    0.4712 O   0  0  0  0  0  0  0  0  0  0  0  0
   -1.2244   -2.8115   -1.5691 O   0  0  0  0  0  0  0  0  0  0  0  0
   -3.9351   -2.7658   -1.3884 C   0  0  0  0  0  0  0  0  0  0  0  0
   -5.3212   -2.7179   -1.2455 C   0  0  0  0  0  0  0  0  0  0  0  0
   -5.4675   -1.5622    1.9866 H   0  0  0  0  0  0  0  0  0  0  0  0
   -2.9694   -1.6431    1.6897 H   0  0  0  0  0  0  0  0  0  0  0  0
   -3.4811   -3.0985   -2.3131 H   0  0  0  0  0  0  0  0  0  0  0  0
   -5.9957   -2.9993   -2.0452 H   0  0  0  0  0  0  0  0  0  0  0  0
  -10.1039   -4.2704    0.2101 C   0  0  0  0  0  0  0  0  0  0  0  0
  -10.2589   -5.0659    1.3455 C   0  0  0  0  0  0  0  0  0  0  0  0
   -9.3843   -6.1294    1.6118 C   0  0  0  0  0  0  0  0  0  0  0  0
   -8.3436   -6.3791    0.7045 C   0  0  0  0  0  0  0  0  0  0  0  0
   -8.1746   -5.5911   -0.4337 C   0  0  0  0  0  0  0  0  0  0  0  0
   -9.0538   -4.5327   -0.6737 C   0  0  0  0  0  0  0  0  0  0  0  0
  -10.7955   -3.4638   -0.0072 H   0  0  0  0  0  0  0  0  0  0  0  0
  -11.0766   -4.8632    2.0326 H   0  0  0  0  0  0  0  0  0  0  0  0
   -7.6649   -7.2085    0.8867 H   0  0  0  0  0  0  0  0  0  0  0  0
   -7.3872   -5.8014   -1.1502 H   0  0  0  0  0  0  0  0  0  0  0  0
   -8.8275   -3.4833   -2.1165 S   0  0  0  0  0  0  0  0  0  0  0  0
   -7.9912   -2.2604   -1.6148 O   0  0  0  0  0  0  0  0  0  0  0  0
  -10.1592   -3.0016   -2.4908 O   0  0  0  0  0  0  0  0  0  0  0  0
   -8.0211   -4.2629   -3.0740 O   0  0  0  0  0  0  0  0  0  0  0  0
   -9.5811   -7.0086    2.8240 C   0  0  0  0  0  0  0  0  0  0  0  0
  -10.0556   -6.4613    3.6439 H   0  0  0  0  0  0  0  0  0  0  0  0
  -10.2266   -7.8635    2.5876 H   0  0  0  0  0  0  0  0  0  0  0  0
   -8.6305   -7.4104    3.1867 H   0  0  0  0  0  0  0  0  0  0  0  0
  1  2  1  0  0  0  0
  1  4  2  0  0  0  0
  2  3  2  0  0  0  0
  4 12  1  0  0  0  0
  5  4  1  0  0  0  0
  5 13  1  0  0  0  0
  6  5  2  0  0  0  0
  7  6  1  0  0  0  0
  7  8  2  0  0  0  0
  9  7  2  0  0  0  0
 10 11  2  0  0  0  0
 10  6  1  0  0  0  0
 11  1  1  0  0  0  0
 14 10  1  0  0  0  0
 15 11  1  0  0  0  0
 16 17  2  0  0  0  0
 17 18  1  0  0  0  0
 17 23  1  0  0  0  0
 18 30  1  0  0  0  0
 19 24  1  0  0  0  0
 19 18  2  0  0  0  0
 20 19  1  0  0  0  0
 21 20  2  0  0  0  0
 21 16  1  0  0  0  0
 22 16  1  0  0  0  0
 25 20  1  0  0  0  0
 26 27  1  0  0  0  0
 26 21  1  0  0  0  0
 28 26  2  0  0  0  0
 29 26  2  0  0  0  0
 30 33  1  0  0  0  0
 30 31  1  0  0  0  0
 32 30  1  0  0  0  0
M  RAD  2   3   2  27   2
M  END
