Coordinates from ORCA-job 4-NO2PhN2+~TsO-_B3LYPG-6-31G_dp-NX-Scan-d89-09-n800
 OpenBabel11261920283D

 33 33  0  0  0  0  0  0  0  0999 V2000
   -4.1154   -2.9584    0.3179 C   0  0  0  0  0  0  0  0  0  0  0  0
   -4.6118   -3.8715    1.3011 N   0  0  0  0  0  0  0  0  0  0  0  0
   -4.4358   -4.2949    2.3314 N   0  0  0  0  0  0  0  0  0  0  0  0
   -3.2476   -1.9699    0.8080 C   0  0  0  0  0  0  0  0  0  0  0  0
   -2.6951   -1.0760   -0.0969 C   0  0  0  0  0  0  0  0  0  0  0  0
   -3.0175   -1.2092   -1.4481 C   0  0  0  0  0  0  0  0  0  0  0  0
   -2.4177   -0.2561   -2.4104 N   0  0  0  0  0  0  0  0  0  0  0  0
   -1.6747    0.6084   -1.9531 O   0  0  0  0  0  0  0  0  0  0  0  0
   -2.7013   -0.3999   -3.5949 O   0  0  0  0  0  0  0  0  0  0  0  0
   -3.8753   -2.1936   -1.9267 C   0  0  0  0  0  0  0  0  0  0  0  0
   -4.4455   -3.0934   -1.0279 C   0  0  0  0  0  0  0  0  0  0  0  0
   -3.0269   -1.9059    1.8672 H   0  0  0  0  0  0  0  0  0  0  0  0
   -2.0268   -0.2860    0.2212 H   0  0  0  0  0  0  0  0  0  0  0  0
   -4.1013   -2.2444   -2.9841 H   0  0  0  0  0  0  0  0  0  0  0  0
   -5.1458   -3.8536   -1.3475 H   0  0  0  0  0  0  0  0  0  0  0  0
   -9.3909   -4.7686    1.8142 C   0  0  0  0  0  0  0  0  0  0  0  0
  -10.4790   -5.5713    2.1516 C   0  0  0  0  0  0  0  0  0  0  0  0
  -11.0507   -6.4475    1.2181 C   0  0  0  0  0  0  0  0  0  0  0  0
  -10.5015   -6.5001   -0.0717 C   0  0  0  0  0  0  0  0  0  0  0  0
   -9.4153   -5.7031   -0.4254 C   0  0  0  0  0  0  0  0  0  0  0  0
   -8.8646   -4.8412    0.5242 C   0  0  0  0  0  0  0  0  0  0  0  0
   -8.9593   -4.0791    2.5317 H   0  0  0  0  0  0  0  0  0  0  0  0
  -10.8950   -5.5139    3.1542 H   0  0  0  0  0  0  0  0  0  0  0  0
  -10.9344   -7.1709   -0.8097 H   0  0  0  0  0  0  0  0  0  0  0  0
   -9.0015   -5.7315   -1.4274 H   0  0  0  0  0  0  0  0  0  0  0  0
   -7.4525   -3.8291    0.0861 S   0  0  0  0  0  0  0  0  0  0  0  0
   -6.2516   -4.7651    0.4143 O   0  0  0  0  0  0  0  0  0  0  0  0
   -7.4366   -2.6474    0.9716 O   0  0  0  0  0  0  0  0  0  0  0  0
   -7.5169   -3.5841   -1.3701 O   0  0  0  0  0  0  0  0  0  0  0  0
  -12.2509   -7.2896    1.5800 C   0  0  0  0  0  0  0  0  0  0  0  0
  -12.2975   -7.4806    2.6560 H   0  0  0  0  0  0  0  0  0  0  0  0
  -13.1837   -6.7861    1.2964 H   0  0  0  0  0  0  0  0  0  0  0  0
  -12.2344   -8.2534    1.0634 H   0  0  0  0  0  0  0  0  0  0  0  0
  1  4  1  0  0  0  0
  1  2  1  0  0  0  0
  2  3  2  0  0  0  0
  4 12  1  0  0  0  0
  5 13  1  0  0  0  0
  5  4  2  0  0  0  0
  6  5  1  0  0  0  0
  7  8  2  0  0  0  0
  7  6  1  0  0  0  0
  9  7  2  0  0  0  0
 10  6  2  0  0  0  0
 10 11  1  0  0  0  0
 11  1  2  0  0  0  0
 14 10  1  0  0  0  0
 15 11  1  0  0  0  0
 16 17  1  0  0  0  0
 16 22  1  0  0  0  0
 17 23  1  0  0  0  0
 18 30  1  0  0  0  0
 18 17  2  0  0  0  0
 19 18  1  0  0  0  0
 20 19  2  0  0  0  0
 20 21  1  0  0  0  0
 21 16  2  0  0  0  0
 24 19  1  0  0  0  0
 25 20  1  0  0  0  0
 26 27  2  0  0  0  0
 26 21  1  0  0  0  0
 26 28  1  0  0  0  0
 29 26  2  0  0  0  0
 30 31  1  0  0  0  0
 32 30  1  0  0  0  0
 33 30  1  0  0  0  0
M  RAD  2   3   2  28   2
M  END
