Coordinates from ORCA-job 4-NO2PhN2+~TsO-_B3LYPG-6-31G_dp-NX-Scan-d89-09-n800
 OpenBabel11261920283D

 33 33  0  0  0  0  0  0  0  0999 V2000
   -4.1809   -2.8482    0.3338 C   0  0  0  0  0  0  0  0  0  0  0  0
   -4.7640   -3.6585    1.3578 N   0  0  0  0  0  0  0  0  0  0  0  0
   -4.7054   -3.9506    2.4445 N   0  0  0  0  0  0  0  0  0  0  0  0
   -3.3047   -1.8513    0.7920 C   0  0  0  0  0  0  0  0  0  0  0  0
   -2.6786   -1.0465   -0.1477 C   0  0  0  0  0  0  0  0  0  0  0  0
   -2.9407   -1.2714   -1.4999 C   0  0  0  0  0  0  0  0  0  0  0  0
   -2.2624   -0.4135   -2.4992 N   0  0  0  0  0  0  0  0  0  0  0  0
   -1.5125    0.4595   -2.0706 O   0  0  0  0  0  0  0  0  0  0  0  0
   -2.4981   -0.6346   -3.6823 O   0  0  0  0  0  0  0  0  0  0  0  0
   -3.8087   -2.2617   -1.9467 C   0  0  0  0  0  0  0  0  0  0  0  0
   -4.4516   -3.0730   -1.0135 C   0  0  0  0  0  0  0  0  0  0  0  0
   -3.1342   -1.7127    1.8533 H   0  0  0  0  0  0  0  0  0  0  0  0
   -1.9994   -0.2557    0.1442 H   0  0  0  0  0  0  0  0  0  0  0  0
   -3.9837   -2.3856   -3.0078 H   0  0  0  0  0  0  0  0  0  0  0  0
   -5.1582   -3.8397   -1.3016 H   0  0  0  0  0  0  0  0  0  0  0  0
   -9.3304   -4.9136    1.8920 C   0  0  0  0  0  0  0  0  0  0  0  0
  -10.4012   -5.7516    2.1965 C   0  0  0  0  0  0  0  0  0  0  0  0
  -11.0415   -6.5017    1.1995 C   0  0  0  0  0  0  0  0  0  0  0  0
  -10.5784   -6.3909   -0.1196 C   0  0  0  0  0  0  0  0  0  0  0  0
   -9.5097   -5.5565   -0.4408 C   0  0  0  0  0  0  0  0  0  0  0  0
   -8.8899   -4.8224    0.5711 C   0  0  0  0  0  0  0  0  0  0  0  0
   -8.8472   -4.3217    2.6616 H   0  0  0  0  0  0  0  0  0  0  0  0
  -10.7502   -5.8210    3.2237 H   0  0  0  0  0  0  0  0  0  0  0  0
  -11.0646   -6.9621   -0.9064 H   0  0  0  0  0  0  0  0  0  0  0  0
   -9.1617   -5.4583   -1.4633 H   0  0  0  0  0  0  0  0  0  0  0  0
   -7.4998   -3.7649    0.1716 S   0  0  0  0  0  0  0  0  0  0  0  0
   -6.2764   -4.7045    0.3775 O   0  0  0  0  0  0  0  0  0  0  0  0
   -7.4540   -2.6681    1.1621 O   0  0  0  0  0  0  0  0  0  0  0  0
   -7.6195   -3.3887   -1.2512 O   0  0  0  0  0  0  0  0  0  0  0  0
  -12.2243   -7.3799    1.5316 C   0  0  0  0  0  0  0  0  0  0  0  0
  -12.1890   -7.7247    2.5690 H   0  0  0  0  0  0  0  0  0  0  0  0
  -13.1673   -6.8339    1.4014 H   0  0  0  0  0  0  0  0  0  0  0  0
  -12.2665   -8.2589    0.8819 H   0  0  0  0  0  0  0  0  0  0  0  0
  1  4  1  0  0  0  0
  1  2  1  0  0  0  0
  2  3  2  0  0  0  0
  4 12  1  0  0  0  0
  5 13  1  0  0  0  0
  5  4  2  0  0  0  0
  6  5  1  0  0  0  0
  7  8  2  0  0  0  0
  7  6  1  0  0  0  0
  9  7  2  0  0  0  0
 10  6  2  0  0  0  0
 10 11  1  0  0  0  0
 11  1  2  0  0  0  0
 14 10  1  0  0  0  0
 15 11  1  0  0  0  0
 16 17  1  0  0  0  0
 16 22  1  0  0  0  0
 17 23  1  0  0  0  0
 18 30  1  0  0  0  0
 18 17  2  0  0  0  0
 19 18  1  0  0  0  0
 20 19  2  0  0  0  0
 20 21  1  0  0  0  0
 21 16  2  0  0  0  0
 24 19  1  0  0  0  0
 25 20  1  0  0  0  0
 26 27  2  0  0  0  0
 26 21  1  0  0  0  0
 26 28  1  0  0  0  0
 29 26  2  0  0  0  0
 30 31  1  0  0  0  0
 32 30  1  0  0  0  0
 33 30  1  0  0  0  0
M  RAD  2   3   2  28   2
M  END
