Coordinates from ORCA-job 4-NO2PhN2+~TsO-_B3LYPG-6-31G_dp-NX-Scan-d89-09-n800
 OpenBabel11261920283D

 33 33  0  0  0  0  0  0  0  0999 V2000
   -4.4027   -3.2371    0.0139 C   0  0  0  0  0  0  0  0  0  0  0  0
   -5.0375   -4.3849    0.5907 N   0  0  0  0  0  0  0  0  0  0  0  0
   -5.0443   -5.0623    1.4953 N   0  0  0  0  0  0  0  0  0  0  0  0
   -3.7711   -2.3772    0.9219 C   0  0  0  0  0  0  0  0  0  0  0  0
   -3.0952   -1.2740    0.4180 C   0  0  0  0  0  0  0  0  0  0  0  0
   -3.0627   -1.0847   -0.9630 C   0  0  0  0  0  0  0  0  0  0  0  0
   -2.3303    0.0874   -1.4948 N   0  0  0  0  0  0  0  0  0  0  0  0
   -1.8051    0.8380   -0.6768 O   0  0  0  0  0  0  0  0  0  0  0  0
   -2.3036    0.2277   -2.7132 O   0  0  0  0  0  0  0  0  0  0  0  0
   -3.6862   -1.9478   -1.8593 C   0  0  0  0  0  0  0  0  0  0  0  0
   -4.3827   -3.0475   -1.3655 C   0  0  0  0  0  0  0  0  0  0  0  0
   -3.8211   -2.5665    1.9880 H   0  0  0  0  0  0  0  0  0  0  0  0
   -2.5973   -0.5671    1.0692 H   0  0  0  0  0  0  0  0  0  0  0  0
   -3.6334   -1.7486   -2.9220 H   0  0  0  0  0  0  0  0  0  0  0  0
   -4.9067   -3.7429   -2.0070 H   0  0  0  0  0  0  0  0  0  0  0  0
   -9.2705   -4.3643    1.1892 C   0  0  0  0  0  0  0  0  0  0  0  0
  -10.2184   -5.0318    1.9670 C   0  0  0  0  0  0  0  0  0  0  0  0
  -10.7739   -6.2464    1.5480 C   0  0  0  0  0  0  0  0  0  0  0  0
  -10.3561   -6.7824    0.3189 C   0  0  0  0  0  0  0  0  0  0  0  0
   -9.4143   -6.1279   -0.4690 C   0  0  0  0  0  0  0  0  0  0  0  0
   -8.8702   -4.9195   -0.0245 C   0  0  0  0  0  0  0  0  0  0  0  0
   -8.8517   -3.4155    1.5046 H   0  0  0  0  0  0  0  0  0  0  0  0
  -10.5340   -4.5990    2.9127 H   0  0  0  0  0  0  0  0  0  0  0  0
  -10.7783   -7.7231   -0.0248 H   0  0  0  0  0  0  0  0  0  0  0  0
   -9.1074   -6.5388   -1.4246 H   0  0  0  0  0  0  0  0  0  0  0  0
   -7.6378   -4.0852   -1.0255 S   0  0  0  0  0  0  0  0  0  0  0  0
   -6.3614   -4.9693   -0.8674 O   0  0  0  0  0  0  0  0  0  0  0  0
   -7.4034   -2.7573   -0.4193 O   0  0  0  0  0  0  0  0  0  0  0  0
   -8.0864   -4.1452   -2.4234 O   0  0  0  0  0  0  0  0  0  0  0  0
  -11.8179   -6.9537    2.3789 C   0  0  0  0  0  0  0  0  0  0  0  0
  -11.8399   -6.5735    3.4037 H   0  0  0  0  0  0  0  0  0  0  0  0
  -12.8199   -6.8147    1.9543 H   0  0  0  0  0  0  0  0  0  0  0  0
  -11.6330   -8.0324    2.4201 H   0  0  0  0  0  0  0  0  0  0  0  0
  1  2  1  0  0  0  0
  1  4  2  0  0  0  0
  2  3  2  0  0  0  0
  4 12  1  0  0  0  0
  5  4  1  0  0  0  0
  5 13  1  0  0  0  0
  6  5  2  0  0  0  0
  7  6  1  0  0  0  0
  7  8  2  0  0  0  0
  9  7  2  0  0  0  0
 10 11  2  0  0  0  0
 10  6  1  0  0  0  0
 11  1  1  0  0  0  0
 14 10  1  0  0  0  0
 15 11  1  0  0  0  0
 16 22  1  0  0  0  0
 16 17  2  0  0  0  0
 17 23  1  0  0  0  0
 18 17  1  0  0  0  0
 18 30  1  0  0  0  0
 19 18  2  0  0  0  0
 20 21  2  0  0  0  0
 20 19  1  0  0  0  0
 21 16  1  0  0  0  0
 24 19  1  0  0  0  0
 25 20  1  0  0  0  0
 26 27  2  0  0  0  0
 26 28  1  0  0  0  0
 26 21  1  0  0  0  0
 29 26  2  0  0  0  0
 30 33  1  0  0  0  0
 30 31  1  0  0  0  0
 32 30  1  0  0  0  0
M  RAD  2   3   2  28   2
M  END
