Coordinates from ORCA-job 4-NO2PhN2+~TsO-_B3LYPG-6-31G_dp-NX-Scan-d89-09-n800
 OpenBabel11261920283D

 33 33  0  0  0  0  0  0  0  0999 V2000
   -4.4370   -2.2144    0.4349 C   0  0  0  0  0  0  0  0  0  0  0  0
   -5.2540   -2.4048    1.5932 N   0  0  0  0  0  0  0  0  0  0  0  0
   -5.3837   -2.1928    2.6918 N   0  0  0  0  0  0  0  0  0  0  0  0
   -3.0725   -2.0191    0.6922 C   0  0  0  0  0  0  0  0  0  0  0  0
   -2.2290   -1.7857   -0.3853 C   0  0  0  0  0  0  0  0  0  0  0  0
   -2.7817   -1.7408   -1.6646 C   0  0  0  0  0  0  0  0  0  0  0  0
   -1.8788   -1.4869   -2.8109 N   0  0  0  0  0  0  0  0  0  0  0  0
   -0.6879   -1.3208   -2.5602 O   0  0  0  0  0  0  0  0  0  0  0  0
   -2.3833   -1.4571   -3.9285 O   0  0  0  0  0  0  0  0  0  0  0  0
   -4.1402   -1.9224   -1.9082 C   0  0  0  0  0  0  0  0  0  0  0  0
   -4.9990   -2.1778   -0.8404 C   0  0  0  0  0  0  0  0  0  0  0  0
   -2.6910   -2.0572    1.7061 H   0  0  0  0  0  0  0  0  0  0  0  0
   -1.1653   -1.6352   -0.2521 H   0  0  0  0  0  0  0  0  0  0  0  0
   -4.5143   -1.8708   -2.9229 H   0  0  0  0  0  0  0  0  0  0  0  0
   -6.0659   -2.3314   -0.9888 H   0  0  0  0  0  0  0  0  0  0  0  0
   -9.5590   -4.9596    2.0706 C   0  0  0  0  0  0  0  0  0  0  0  0
  -10.4002   -6.0660    2.1739 C   0  0  0  0  0  0  0  0  0  0  0  0
  -10.7838   -6.7939    1.0390 C   0  0  0  0  0  0  0  0  0  0  0  0
  -10.3001   -6.3838   -0.2125 C   0  0  0  0  0  0  0  0  0  0  0  0
   -9.4593   -5.2802   -0.3332 C   0  0  0  0  0  0  0  0  0  0  0  0
   -9.0919   -4.5738    0.8137 C   0  0  0  0  0  0  0  0  0  0  0  0
   -9.2766   -4.3865    2.9470 H   0  0  0  0  0  0  0  0  0  0  0  0
  -10.7697   -6.3667    3.1507 H   0  0  0  0  0  0  0  0  0  0  0  0
  -10.5907   -6.9338   -1.1041 H   0  0  0  0  0  0  0  0  0  0  0  0
   -9.0988   -4.9528   -1.3018 H   0  0  0  0  0  0  0  0  0  0  0  0
   -7.9920   -3.1683    0.6784 S   0  0  0  0  0  0  0  0  0  0  0  0
   -6.5901   -3.8125    0.8236 O   0  0  0  0  0  0  0  0  0  0  0  0
   -8.2622   -2.2549    1.8050 O   0  0  0  0  0  0  0  0  0  0  0  0
   -8.1488   -2.6123   -0.6868 O   0  0  0  0  0  0  0  0  0  0  0  0
  -11.7222   -7.9712    1.1535 C   0  0  0  0  0  0  0  0  0  0  0  0
  -11.7319   -8.3792    2.1681 H   0  0  0  0  0  0  0  0  0  0  0  0
  -12.7512   -7.6794    0.9078 H   0  0  0  0  0  0  0  0  0  0  0  0
  -11.4424   -8.7749    0.4652 H   0  0  0  0  0  0  0  0  0  0  0  0
  1  4  1  0  0  0  0
  1  2  1  0  0  0  0
  2  3  2  0  0  0  0
  4 12  1  0  0  0  0
  5 13  1  0  0  0  0
  5  4  2  0  0  0  0
  6  5  1  0  0  0  0
  7  8  2  0  0  0  0
  7  6  1  0  0  0  0
  9  7  2  0  0  0  0
 10  6  2  0  0  0  0
 10 11  1  0  0  0  0
 11  1  2  0  0  0  0
 14 10  1  0  0  0  0
 15 11  1  0  0  0  0
 16 17  1  0  0  0  0
 16 22  1  0  0  0  0
 17 23  1  0  0  0  0
 18 30  1  0  0  0  0
 18 17  2  0  0  0  0
 19 18  1  0  0  0  0
 20 19  2  0  0  0  0
 20 21  1  0  0  0  0
 21 16  2  0  0  0  0
 24 19  1  0  0  0  0
 25 20  1  0  0  0  0
 26 21  1  0  0  0  0
 26 27  2  0  0  0  0
 26 28  1  0  0  0  0
 29 26  2  0  0  0  0
 30 31  1  0  0  0  0
 32 30  1  0  0  0  0
 33 30  1  0  0  0  0
M  RAD  2   3   2  28   2
M  END
