Coordinates from ORCA-job 4-NO2PhN2+~TsO-_B3LYPG-6-31G_dp-NX-Scan-d89-09-n800
 OpenBabel11261920283D

 33 33  0  0  0  0  0  0  0  0999 V2000
   -4.4645   -2.1251    0.4278 C   0  0  0  0  0  0  0  0  0  0  0  0
   -5.3121   -2.2473    1.5602 N   0  0  0  0  0  0  0  0  0  0  0  0
   -5.6035   -1.9892    2.6136 N   0  0  0  0  0  0  0  0  0  0  0  0
   -3.0947   -2.0082    0.6990 C   0  0  0  0  0  0  0  0  0  0  0  0
   -2.2289   -1.8386   -0.3736 C   0  0  0  0  0  0  0  0  0  0  0  0
   -2.7664   -1.7767   -1.6583 C   0  0  0  0  0  0  0  0  0  0  0  0
   -1.8388   -1.5902   -2.7983 N   0  0  0  0  0  0  0  0  0  0  0  0
   -0.6420   -1.4991   -2.5378 O   0  0  0  0  0  0  0  0  0  0  0  0
   -2.3307   -1.5386   -3.9206 O   0  0  0  0  0  0  0  0  0  0  0  0
   -4.1313   -1.8820   -1.9159 C   0  0  0  0  0  0  0  0  0  0  0  0
   -5.0132   -2.0758   -0.8556 C   0  0  0  0  0  0  0  0  0  0  0  0
   -2.7262   -2.0558    1.7172 H   0  0  0  0  0  0  0  0  0  0  0  0
   -1.1593   -1.7498   -0.2322 H   0  0  0  0  0  0  0  0  0  0  0  0
   -4.4901   -1.8234   -2.9356 H   0  0  0  0  0  0  0  0  0  0  0  0
   -6.0852   -2.1821   -1.0068 H   0  0  0  0  0  0  0  0  0  0  0  0
   -9.5126   -5.0078    2.0826 C   0  0  0  0  0  0  0  0  0  0  0  0
  -10.3490   -6.1186    2.1800 C   0  0  0  0  0  0  0  0  0  0  0  0
  -10.7678   -6.8132    1.0370 C   0  0  0  0  0  0  0  0  0  0  0  0
  -10.3250   -6.3645   -0.2165 C   0  0  0  0  0  0  0  0  0  0  0  0
   -9.4906   -5.2555   -0.3306 C   0  0  0  0  0  0  0  0  0  0  0  0
   -9.0856   -4.5828    0.8242 C   0  0  0  0  0  0  0  0  0  0  0  0
   -9.2023   -4.4601    2.9657 H   0  0  0  0  0  0  0  0  0  0  0  0
  -10.6866   -6.4492    3.1588 H   0  0  0  0  0  0  0  0  0  0  0  0
  -10.6435   -6.8882   -1.1144 H   0  0  0  0  0  0  0  0  0  0  0  0
   -9.1635   -4.8984   -1.3008 H   0  0  0  0  0  0  0  0  0  0  0  0
   -7.9839   -3.1783    0.6942 S   0  0  0  0  0  0  0  0  0  0  0  0
   -6.5777   -3.7985    0.7197 O   0  0  0  0  0  0  0  0  0  0  0  0
   -8.1849   -2.3256    1.8890 O   0  0  0  0  0  0  0  0  0  0  0  0
   -8.2368   -2.5389   -0.6197 O   0  0  0  0  0  0  0  0  0  0  0  0
  -11.7008   -7.9955    1.1460 C   0  0  0  0  0  0  0  0  0  0  0  0
  -11.6701   -8.4397    2.1451 H   0  0  0  0  0  0  0  0  0  0  0  0
  -12.7390   -7.6970    0.9523 H   0  0  0  0  0  0  0  0  0  0  0  0
  -11.4480   -8.7736    0.4189 H   0  0  0  0  0  0  0  0  0  0  0  0
  1  4  1  0  0  0  0
  1  2  1  0  0  0  0
  2  3  2  0  0  0  0
  4 12  1  0  0  0  0
  5 13  1  0  0  0  0
  5  4  2  0  0  0  0
  6  5  1  0  0  0  0
  7  8  2  0  0  0  0
  7  6  1  0  0  0  0
  9  7  2  0  0  0  0
 10  6  2  0  0  0  0
 10 11  1  0  0  0  0
 11  1  2  0  0  0  0
 14 10  1  0  0  0  0
 15 11  1  0  0  0  0
 16 17  1  0  0  0  0
 16 22  1  0  0  0  0
 17 23  1  0  0  0  0
 18 30  1  0  0  0  0
 18 17  2  0  0  0  0
 19 18  1  0  0  0  0
 20 19  2  0  0  0  0
 20 21  1  0  0  0  0
 21 16  2  0  0  0  0
 24 19  1  0  0  0  0
 25 20  1  0  0  0  0
 26 27  2  0  0  0  0
 26 21  1  0  0  0  0
 26 28  1  0  0  0  0
 29 26  2  0  0  0  0
 30 31  1  0  0  0  0
 32 30  1  0  0  0  0
 33 30  1  0  0  0  0
M  RAD  2   3   2  28   2
M  END
