Coordinates from ORCA-job 4-NO2PhN2+~TsO-_B3LYPG-6-31G_dp-NX-Scan-d89-09-n800
 OpenBabel11261920283D

 33 33  0  0  0  0  0  0  0  0999 V2000
   -4.8051   -0.6536    0.6900 C   0  0  0  0  0  0  0  0  0  0  0  0
   -5.4751    0.3468    1.3469 N   0  0  0  0  0  0  0  0  0  0  0  0
   -5.9908    1.1664    1.9107 N   0  0  0  0  0  0  0  0  0  0  0  0
   -3.3943   -0.6883    0.8431 C   0  0  0  0  0  0  0  0  0  0  0  0
   -2.7160   -1.6907    0.1849 C   0  0  0  0  0  0  0  0  0  0  0  0
   -3.4476   -2.6193   -0.5751 C   0  0  0  0  0  0  0  0  0  0  0  0
   -2.6845   -3.7000   -1.2493 N   0  0  0  0  0  0  0  0  0  0  0  0
   -1.4648   -3.6997   -1.0866 O   0  0  0  0  0  0  0  0  0  0  0  0
   -3.3213   -4.5086   -1.9097 O   0  0  0  0  0  0  0  0  0  0  0  0
   -4.8290   -2.5836   -0.7151 C   0  0  0  0  0  0  0  0  0  0  0  0
   -5.5489   -1.5643   -0.0853 C   0  0  0  0  0  0  0  0  0  0  0  0
   -2.8801    0.0431    1.4560 H   0  0  0  0  0  0  0  0  0  0  0  0
   -1.6395   -1.7858    0.2491 H   0  0  0  0  0  0  0  0  0  0  0  0
   -5.3934   -3.3047   -1.3048 H   0  0  0  0  0  0  0  0  0  0  0  0
   -6.6507   -1.5327   -0.1730 H   0  0  0  0  0  0  0  0  0  0  0  0
   -9.8007   -4.5452    0.8763 C   0  0  0  0  0  0  0  0  0  0  0  0
  -10.1722   -5.7217    1.5243 C   0  0  0  0  0  0  0  0  0  0  0  0
   -9.8058   -6.9763    1.0161 C   0  0  0  0  0  0  0  0  0  0  0  0
   -9.0547   -7.0190   -0.1664 C   0  0  0  0  0  0  0  0  0  0  0  0
   -8.6760   -5.8489   -0.8235 C   0  0  0  0  0  0  0  0  0  0  0  0
   -9.0506   -4.6109   -0.2997 C   0  0  0  0  0  0  0  0  0  0  0  0
  -10.0808   -3.5770    1.2772 H   0  0  0  0  0  0  0  0  0  0  0  0
  -10.7556   -5.6668    2.4405 H   0  0  0  0  0  0  0  0  0  0  0  0
   -8.7623   -7.9818   -0.5786 H   0  0  0  0  0  0  0  0  0  0  0  0
   -8.0893   -5.8839   -1.7351 H   0  0  0  0  0  0  0  0  0  0  0  0
   -8.6245   -3.1014   -1.1838 S   0  0  0  0  0  0  0  0  0  0  0  0
   -8.3705   -2.0861   -0.0907 O   0  0  0  0  0  0  0  0  0  0  0  0
   -9.7765   -2.7620   -2.0425 O   0  0  0  0  0  0  0  0  0  0  0  0
   -7.3666   -3.4180   -1.9281 O   0  0  0  0  0  0  0  0  0  0  0  0
  -10.1848   -8.2466    1.7406 C   0  0  0  0  0  0  0  0  0  0  0  0
   -9.4263   -8.5222    2.4848 H   0  0  0  0  0  0  0  0  0  0  0  0
  -11.1347   -8.1359    2.2729 H   0  0  0  0  0  0  0  0  0  0  0  0
  -10.2814   -9.0884    1.0482 H   0  0  0  0  0  0  0  0  0  0  0  0
  1  4  1  0  0  0  0
  1  2  1  0  0  0  0
  2  3  1  0  0  0  0
  4 12  1  0  0  0  0
  5 13  1  0  0  0  0
  5  4  2  0  0  0  0
  6  5  1  0  0  0  0
  7  8  2  0  0  0  0
  7  6  1  0  0  0  0
  9  7  2  0  0  0  0
 10  6  2  0  0  0  0
 10 11  1  0  0  0  0
 11  1  2  0  0  0  0
 14 10  1  0  0  0  0
 15 11  1  0  0  0  0
 16 22  1  0  0  0  0
 16 17  2  0  0  0  0
 17 23  1  0  0  0  0
 18 17  1  0  0  0  0
 18 30  1  0  0  0  0
 19 18  2  0  0  0  0
 20 21  2  0  0  0  0
 20 19  1  0  0  0  0
 21 16  1  0  0  0  0
 24 19  1  0  0  0  0
 25 20  1  0  0  0  0
 26 21  1  0  0  0  0
 26 27  1  0  0  0  0
 28 26  2  0  0  0  0
 29 26  2  0  0  0  0
 30 32  1  0  0  0  0
 30 31  1  0  0  0  0
 33 30  1  0  0  0  0
M  RAD  3   2   2   3   3  27   2
M  END
