Coordinates from ORCA-job 4-NO2PhN2+~TsO-_B3LYPG-6-31G_dp-NX-Scan-d89-09-n800
 OpenBabel11261920283D

 33 33  0  0  0  0  0  0  0  0999 V2000
   -4.4504   -2.1877    0.4235 C   0  0  0  0  0  0  0  0  0  0  0  0
   -5.2870   -2.3595    1.5661 N   0  0  0  0  0  0  0  0  0  0  0  0
   -5.4851   -2.1255    2.6487 N   0  0  0  0  0  0  0  0  0  0  0  0
   -3.0858   -2.0173    0.6947 C   0  0  0  0  0  0  0  0  0  0  0  0
   -2.2280   -1.7999   -0.3753 C   0  0  0  0  0  0  0  0  0  0  0  0
   -2.7677   -1.7453   -1.6596 C   0  0  0  0  0  0  0  0  0  0  0  0
   -1.8493   -1.5082   -2.7973 N   0  0  0  0  0  0  0  0  0  0  0  0
   -0.6576   -1.3665   -2.5356 O   0  0  0  0  0  0  0  0  0  0  0  0
   -2.3427   -1.4688   -3.9195 O   0  0  0  0  0  0  0  0  0  0  0  0
   -4.1271   -1.9025   -1.9171 C   0  0  0  0  0  0  0  0  0  0  0  0
   -5.0001   -2.1429   -0.8580 C   0  0  0  0  0  0  0  0  0  0  0  0
   -2.7150   -2.0621    1.7123 H   0  0  0  0  0  0  0  0  0  0  0  0
   -1.1630   -1.6688   -0.2324 H   0  0  0  0  0  0  0  0  0  0  0  0
   -4.4896   -1.8450   -2.9355 H   0  0  0  0  0  0  0  0  0  0  0  0
   -6.0677   -2.2817   -1.0133 H   0  0  0  0  0  0  0  0  0  0  0  0
   -9.5361   -4.9811    2.0750 C   0  0  0  0  0  0  0  0  0  0  0  0
  -10.3779   -6.0869    2.1809 C   0  0  0  0  0  0  0  0  0  0  0  0
  -10.7829   -6.8013    1.0449 C   0  0  0  0  0  0  0  0  0  0  0  0
  -10.3204   -6.3782   -0.2102 C   0  0  0  0  0  0  0  0  0  0  0  0
   -9.4797   -5.2748   -0.3332 C   0  0  0  0  0  0  0  0  0  0  0  0
   -9.0899   -4.5821    0.8147 C   0  0  0  0  0  0  0  0  0  0  0  0
   -9.2368   -4.4183    2.9524 H   0  0  0  0  0  0  0  0  0  0  0  0
  -10.7309   -6.3977    3.1606 H   0  0  0  0  0  0  0  0  0  0  0  0
  -10.6278   -6.9176   -1.1026 H   0  0  0  0  0  0  0  0  0  0  0  0
   -9.1362   -4.9373   -1.3047 H   0  0  0  0  0  0  0  0  0  0  0  0
   -7.9860   -3.1803    0.6749 S   0  0  0  0  0  0  0  0  0  0  0  0
   -6.5819   -3.8206    0.7588 O   0  0  0  0  0  0  0  0  0  0  0  0
   -8.2136   -2.2927    1.8340 O   0  0  0  0  0  0  0  0  0  0  0  0
   -8.1899   -2.5874   -0.6682 O   0  0  0  0  0  0  0  0  0  0  0  0
  -11.7222   -7.9776    1.1628 C   0  0  0  0  0  0  0  0  0  0  0  0
  -11.7067   -8.4039    2.1699 H   0  0  0  0  0  0  0  0  0  0  0  0
  -12.7564   -7.6782    0.9500 H   0  0  0  0  0  0  0  0  0  0  0  0
  -11.4634   -8.7696    0.4531 H   0  0  0  0  0  0  0  0  0  0  0  0
  1  4  1  0  0  0  0
  1  2  1  0  0  0  0
  2  3  2  0  0  0  0
  4 12  1  0  0  0  0
  5 13  1  0  0  0  0
  5  4  2  0  0  0  0
  6  5  1  0  0  0  0
  7  8  2  0  0  0  0
  7  6  1  0  0  0  0
  9  7  2  0  0  0  0
 10  6  2  0  0  0  0
 10 11  1  0  0  0  0
 11  1  2  0  0  0  0
 14 10  1  0  0  0  0
 15 11  1  0  0  0  0
 16 17  1  0  0  0  0
 16 22  1  0  0  0  0
 17 23  1  0  0  0  0
 18 30  1  0  0  0  0
 18 17  2  0  0  0  0
 19 18  1  0  0  0  0
 20 19  2  0  0  0  0
 20 21  1  0  0  0  0
 21 16  2  0  0  0  0
 24 19  1  0  0  0  0
 25 20  1  0  0  0  0
 26 27  2  0  0  0  0
 26 21  1  0  0  0  0
 26 28  1  0  0  0  0
 29 26  2  0  0  0  0
 30 31  1  0  0  0  0
 32 30  1  0  0  0  0
 33 30  1  0  0  0  0
M  RAD  2   3   2  28   2
M  END
