Coordinates from ORCA-job 4-NO2PhN2+~TsO-_B3LYPG-6-31G_dp-NX-Scan-d89-09-n800
 OpenBabel11261920283D

 33 33  0  0  0  0  0  0  0  0999 V2000
   -4.1321   -2.9377    0.3216 C   0  0  0  0  0  0  0  0  0  0  0  0
   -4.6466   -3.8301    1.3145 N   0  0  0  0  0  0  0  0  0  0  0  0
   -4.4959   -4.2226    2.3608 N   0  0  0  0  0  0  0  0  0  0  0  0
   -3.2716   -1.9403    0.8065 C   0  0  0  0  0  0  0  0  0  0  0  0
   -2.7038   -1.0642   -0.1065 C   0  0  0  0  0  0  0  0  0  0  0  0
   -3.0044   -1.2231   -1.4598 C   0  0  0  0  0  0  0  0  0  0  0  0
   -2.3885   -0.2890   -2.4306 N   0  0  0  0  0  0  0  0  0  0  0  0
   -1.6529    0.5842   -1.9781 O   0  0  0  0  0  0  0  0  0  0  0  0
   -2.6526   -0.4559   -3.6166 O   0  0  0  0  0  0  0  0  0  0  0  0
   -3.8552   -2.2161   -1.9332 C   0  0  0  0  0  0  0  0  0  0  0  0
   -4.4406   -3.0980   -1.0266 C   0  0  0  0  0  0  0  0  0  0  0  0
   -3.0683   -1.8557    1.8677 H   0  0  0  0  0  0  0  0  0  0  0  0
   -2.0402   -0.2684    0.2073 H   0  0  0  0  0  0  0  0  0  0  0  0
   -4.0637   -2.2870   -2.9931 H   0  0  0  0  0  0  0  0  0  0  0  0
   -5.1354   -3.8656   -1.3402 H   0  0  0  0  0  0  0  0  0  0  0  0
   -9.3700   -4.8041    1.8349 C   0  0  0  0  0  0  0  0  0  0  0  0
  -10.4561   -5.6125    2.1652 C   0  0  0  0  0  0  0  0  0  0  0  0
  -11.0478   -6.4560    1.2142 C   0  0  0  0  0  0  0  0  0  0  0  0
  -10.5208   -6.4698   -0.0857 C   0  0  0  0  0  0  0  0  0  0  0  0
   -9.4368   -5.6666   -0.4324 C   0  0  0  0  0  0  0  0  0  0  0  0
   -8.8658   -4.8378    0.5345 C   0  0  0  0  0  0  0  0  0  0  0  0
   -8.9233   -4.1398    2.5667 H   0  0  0  0  0  0  0  0  0  0  0  0
  -10.8549   -5.5850    3.1760 H   0  0  0  0  0  0  0  0  0  0  0  0
  -10.9694   -7.1147   -0.8372 H   0  0  0  0  0  0  0  0  0  0  0  0
   -9.0399   -5.6650   -1.4417 H   0  0  0  0  0  0  0  0  0  0  0  0
   -7.4566   -3.8184    0.1044 S   0  0  0  0  0  0  0  0  0  0  0  0
   -6.2518   -4.7613    0.3977 O   0  0  0  0  0  0  0  0  0  0  0  0
   -7.4275   -2.6588    1.0191 O   0  0  0  0  0  0  0  0  0  0  0  0
   -7.5363   -3.5374   -1.3439 O   0  0  0  0  0  0  0  0  0  0  0  0
  -12.2460   -7.3038    1.5694 C   0  0  0  0  0  0  0  0  0  0  0  0
  -12.2761   -7.5281    2.6395 H   0  0  0  0  0  0  0  0  0  0  0  0
  -13.1809   -6.7876    1.3171 H   0  0  0  0  0  0  0  0  0  0  0  0
  -12.2425   -8.2511    1.0229 H   0  0  0  0  0  0  0  0  0  0  0  0
  1  4  1  0  0  0  0
  1  2  1  0  0  0  0
  2  3  2  0  0  0  0
  4 12  1  0  0  0  0
  5 13  1  0  0  0  0
  5  4  2  0  0  0  0
  6  5  1  0  0  0  0
  7  8  2  0  0  0  0
  7  6  1  0  0  0  0
  9  7  2  0  0  0  0
 10  6  2  0  0  0  0
 10 11  1  0  0  0  0
 11  1  2  0  0  0  0
 14 10  1  0  0  0  0
 15 11  1  0  0  0  0
 16 17  1  0  0  0  0
 16 22  1  0  0  0  0
 17 23  1  0  0  0  0
 18 30  1  0  0  0  0
 18 17  2  0  0  0  0
 19 18  1  0  0  0  0
 20 19  2  0  0  0  0
 20 21  1  0  0  0  0
 21 16  2  0  0  0  0
 24 19  1  0  0  0  0
 25 20  1  0  0  0  0
 26 27  2  0  0  0  0
 26 21  1  0  0  0  0
 26 28  1  0  0  0  0
 29 26  2  0  0  0  0
 30 31  1  0  0  0  0
 32 30  1  0  0  0  0
 33 30  1  0  0  0  0
M  RAD  2   3   2  28   2
M  END
