Coordinates from ORCA-job 4-NO2PhN2+~TsO-_B3LYPG-6-31G_dp-NX-Scan-d89-09-n800
 OpenBabel11261920283D

 33 33  0  0  0  0  0  0  0  0999 V2000
   -4.6528   -0.8363    1.1007 C   0  0  0  0  0  0  0  0  0  0  0  0
   -5.2163   -0.1504    2.1478 N   0  0  0  0  0  0  0  0  0  0  0  0
   -5.6026    0.4244    3.0297 N   0  0  0  0  0  0  0  0  0  0  0  0
   -3.2413   -0.7286    0.9852 C   0  0  0  0  0  0  0  0  0  0  0  0
   -2.6383   -1.4137   -0.0468 C   0  0  0  0  0  0  0  0  0  0  0  0
   -3.4381   -2.1780   -0.9108 C   0  0  0  0  0  0  0  0  0  0  0  0
   -2.7426   -2.9093   -2.0042 N   0  0  0  0  0  0  0  0  0  0  0  0
   -1.5145   -2.8219   -2.0291 O   0  0  0  0  0  0  0  0  0  0  0  0
   -3.4375   -3.5328   -2.7905 O   0  0  0  0  0  0  0  0  0  0  0  0
   -4.8194   -2.2870   -0.7974 C   0  0  0  0  0  0  0  0  0  0  0  0
   -5.4663   -1.5916    0.2297 C   0  0  0  0  0  0  0  0  0  0  0  0
   -2.6695   -0.1315    1.6863 H   0  0  0  0  0  0  0  0  0  0  0  0
   -1.5671   -1.3812   -0.2012 H   0  0  0  0  0  0  0  0  0  0  0  0
   -5.4379   -2.9186   -1.4539 H   0  0  0  0  0  0  0  0  0  0  0  0
   -6.5613   -1.6889    0.2941 H   0  0  0  0  0  0  0  0  0  0  0  0
  -10.0303   -4.6325    0.4401 C   0  0  0  0  0  0  0  0  0  0  0  0
  -10.5965   -5.6589    1.1921 C   0  0  0  0  0  0  0  0  0  0  0  0
  -10.0796   -6.9625    1.1447 C   0  0  0  0  0  0  0  0  0  0  0  0
   -8.9742   -7.2089    0.3168 C   0  0  0  0  0  0  0  0  0  0  0  0
   -8.3991   -6.1897   -0.4402 C   0  0  0  0  0  0  0  0  0  0  0  0
   -8.9288   -4.8988   -0.3791 C   0  0  0  0  0  0  0  0  0  0  0  0
  -10.4321   -3.6255    0.4840 H   0  0  0  0  0  0  0  0  0  0  0  0
  -11.4567   -5.4498    1.8239 H   0  0  0  0  0  0  0  0  0  0  0  0
   -8.5616   -8.2140    0.2630 H   0  0  0  0  0  0  0  0  0  0  0  0
   -7.5434   -6.3754   -1.0801 H   0  0  0  0  0  0  0  0  0  0  0  0
   -8.2418   -3.5851   -1.4022 S   0  0  0  0  0  0  0  0  0  0  0  0
   -8.1500   -2.4050   -0.4632 O   0  0  0  0  0  0  0  0  0  0  0  0
   -9.1873   -3.3888   -2.5203 O   0  0  0  0  0  0  0  0  0  0  0  0
   -6.8862   -4.0793   -1.8026 O   0  0  0  0  0  0  0  0  0  0  0  0
  -10.6799   -8.0675    1.9811 C   0  0  0  0  0  0  0  0  0  0  0  0
  -10.1113   -8.2196    2.9073 H   0  0  0  0  0  0  0  0  0  0  0  0
  -11.7108   -7.8394    2.2660 H   0  0  0  0  0  0  0  0  0  0  0  0
  -10.6795   -9.0213    1.4437 H   0  0  0  0  0  0  0  0  0  0  0  0
  1  2  1  0  0  0  0
  2  3  1  0  0  0  0
  4  1  1  0  0  0  0
  4 12  1  0  0  0  0
  5  4  2  0  0  0  0
  6 10  2  0  0  0  0
  6  5  1  0  0  0  0
  7  6  1  0  0  0  0
  8  7  2  0  0  0  0
  9  7  2  0  0  0  0
 10 11  1  0  0  0  0
 11 15  1  0  0  0  0
 11  1  2  0  0  0  0
 13  5  1  0  0  0  0
 14 10  1  0  0  0  0
 16 22  1  0  0  0  0
 16 17  2  0  0  0  0
 17 23  1  0  0  0  0
 18 17  1  0  0  0  0
 18 30  1  0  0  0  0
 19 18  2  0  0  0  0
 20 21  2  0  0  0  0
 20 19  1  0  0  0  0
 21 16  1  0  0  0  0
 24 19  1  0  0  0  0
 25 20  1  0  0  0  0
 26 27  1  0  0  0  0
 26 21  1  0  0  0  0
 28 26  2  0  0  0  0
 29 26  2  0  0  0  0
 30 32  1  0  0  0  0
 30 31  1  0  0  0  0
 33 30  1  0  0  0  0
M  RAD  3   2   2   3   3  27   2
M  END
