Coordinates from ORCA-job 4-NO2PhN2+~TsO-_B3LYPG-6-31G_dp-NX-Scan-d89-09-n800
 OpenBabel11261920283D

 33 34  0  0  0  0  0  0  0  0999 V2000
   -4.5337   -2.8953    0.2945 C   0  0  0  0  0  0  0  0  0  0  0  0
   -5.0644   -3.8833    1.1738 N   0  0  0  0  0  0  0  0  0  0  0  0
   -5.7333   -4.8793    0.7156 N   0  0  0  0  0  0  0  0  0  0  0  0
   -4.3356   -1.6480    0.9198 C   0  0  0  0  0  0  0  0  0  0  0  0
   -3.7675   -0.5815    0.2394 C   0  0  0  0  0  0  0  0  0  0  0  0
   -3.3650   -0.7717   -1.0831 C   0  0  0  0  0  0  0  0  0  0  0  0
   -2.7595    0.3455   -1.8146 N   0  0  0  0  0  0  0  0  0  0  0  0
   -2.6346    1.4179   -1.2212 O   0  0  0  0  0  0  0  0  0  0  0  0
   -2.4122    0.1477   -2.9798 O   0  0  0  0  0  0  0  0  0  0  0  0
   -3.5197   -1.9990   -1.7245 C   0  0  0  0  0  0  0  0  0  0  0  0
   -4.1091   -3.0582   -1.0416 C   0  0  0  0  0  0  0  0  0  0  0  0
   -4.6416   -1.5464    1.9553 H   0  0  0  0  0  0  0  0  0  0  0  0
   -3.6218    0.3837    0.7082 H   0  0  0  0  0  0  0  0  0  0  0  0
   -3.1840   -2.1077   -2.7480 H   0  0  0  0  0  0  0  0  0  0  0  0
   -4.2246   -4.0048   -1.5513 H   0  0  0  0  0  0  0  0  0  0  0  0
   -8.5666   -6.5308    1.4332 C   0  0  0  0  0  0  0  0  0  0  0  0
   -9.7409   -6.2160    2.1111 C   0  0  0  0  0  0  0  0  0  0  0  0
  -10.8032   -5.5659    1.4649 C   0  0  0  0  0  0  0  0  0  0  0  0
  -10.6680   -5.2356    0.1056 C   0  0  0  0  0  0  0  0  0  0  0  0
   -9.5052   -5.5326   -0.5956 C   0  0  0  0  0  0  0  0  0  0  0  0
   -8.4708   -6.1893    0.0805 C   0  0  0  0  0  0  0  0  0  0  0  0
   -7.7479   -7.0380    1.9294 H   0  0  0  0  0  0  0  0  0  0  0  0
   -9.8345   -6.4822    3.1596 H   0  0  0  0  0  0  0  0  0  0  0  0
  -11.4874   -4.7418   -0.4091 H   0  0  0  0  0  0  0  0  0  0  0  0
   -9.4005   -5.2812   -1.6451 H   0  0  0  0  0  0  0  0  0  0  0  0
   -6.9776   -6.5496   -0.7867 S   0  0  0  0  0  0  0  0  0  0  0  0
   -6.2423   -7.6268   -0.1423 O   0  0  0  0  0  0  0  0  0  0  0  0
   -5.9580   -4.9852   -0.3665 O   0  0  0  0  0  0  0  0  0  0  0  0
   -7.1275   -6.3961   -2.2252 O   0  0  0  0  0  0  0  0  0  0  0  0
  -12.0596   -5.2069    2.2171 C   0  0  0  0  0  0  0  0  0  0  0  0
  -12.1918   -5.8353    3.1009 H   0  0  0  0  0  0  0  0  0  0  0  0
  -12.0201   -4.1646    2.5560 H   0  0  0  0  0  0  0  0  0  0  0  0
  -12.9462   -5.3085    1.5844 H   0  0  0  0  0  0  0  0  0  0  0  0
  1  4  1  0  0  0  0
  1  2  1  0  0  0  0
  3  2  2  0  0  0  0
  4 12  1  0  0  0  0
  5 13  1  0  0  0  0
  5  4  2  0  0  0  0
  6  5  1  0  0  0  0
  7  8  2  0  0  0  0
  7  6  1  0  0  0  0
  9  7  2  0  0  0  0
 10  6  2  0  0  0  0
 10 11  1  0  0  0  0
 11  1  2  0  0  0  0
 14 10  1  0  0  0  0
 15 11  1  0  0  0  0
 16 22  1  0  0  0  0
 16 17  2  0  0  0  0
 17 23  1  0  0  0  0
 18 17  1  0  0  0  0
 18 30  1  0  0  0  0
 19 18  2  0  0  0  0
 20 21  2  0  0  0  0
 20 19  1  0  0  0  0
 21 16  1  0  0  0  0
 24 19  1  0  0  0  0
 25 20  1  0  0  0  0
 26 28  1  0  0  0  0
 26 27  2  0  0  0  0
 26 21  1  0  0  0  0
 28  3  1  0  0  0  0
 29 26  2  0  0  0  0
 30 32  1  0  0  0  0
 30 31  1  0  0  0  0
 33 30  1  0  0  0  0
M  END
