Coordinates from ORCA-job 4-NO2PhN2+~TsO-_B3LYPG-6-31G_dp-NX-Scan-d89-09-n800
 OpenBabel11261920283D

 33 33  0  0  0  0  0  0  0  0999 V2000
   -4.6577   -0.8401    1.1316 C   0  0  0  0  0  0  0  0  0  0  0  0
   -5.1916   -0.1465    2.1891 N   0  0  0  0  0  0  0  0  0  0  0  0
   -5.5409    0.4367    3.0816 N   0  0  0  0  0  0  0  0  0  0  0  0
   -3.2437   -0.7709    1.0128 C   0  0  0  0  0  0  0  0  0  0  0  0
   -2.6610   -1.4618   -0.0268 C   0  0  0  0  0  0  0  0  0  0  0  0
   -3.4832   -2.1925   -0.8982 C   0  0  0  0  0  0  0  0  0  0  0  0
   -2.8100   -2.9275   -2.0028 N   0  0  0  0  0  0  0  0  0  0  0  0
   -1.5784   -2.9173   -1.9981 O   0  0  0  0  0  0  0  0  0  0  0  0
   -3.5243   -3.4772   -2.8255 O   0  0  0  0  0  0  0  0  0  0  0  0
   -4.8673   -2.2652   -0.7832 C   0  0  0  0  0  0  0  0  0  0  0  0
   -5.4926   -1.5655    0.2539 C   0  0  0  0  0  0  0  0  0  0  0  0
   -2.6548   -0.1966    1.7188 H   0  0  0  0  0  0  0  0  0  0  0  0
   -1.5893   -1.4590   -0.1812 H   0  0  0  0  0  0  0  0  0  0  0  0
   -5.4978   -2.8799   -1.4465 H   0  0  0  0  0  0  0  0  0  0  0  0
   -6.5869   -1.6367    0.3194 H   0  0  0  0  0  0  0  0  0  0  0  0
  -10.0311   -4.6313    0.3934 C   0  0  0  0  0  0  0  0  0  0  0  0
  -10.5851   -5.6509    1.1633 C   0  0  0  0  0  0  0  0  0  0  0  0
  -10.0464   -6.9466    1.1466 C   0  0  0  0  0  0  0  0  0  0  0  0
   -8.9318   -7.1919    0.3306 C   0  0  0  0  0  0  0  0  0  0  0  0
   -8.3689   -6.1794   -0.4441 C   0  0  0  0  0  0  0  0  0  0  0  0
   -8.9201   -4.8963   -0.4136 C   0  0  0  0  0  0  0  0  0  0  0  0
  -10.4500   -3.6305    0.4134 H   0  0  0  0  0  0  0  0  0  0  0  0
  -11.4526   -5.4431    1.7854 H   0  0  0  0  0  0  0  0  0  0  0  0
   -8.5024   -8.1910    0.3005 H   0  0  0  0  0  0  0  0  0  0  0  0
   -7.5064   -6.3639   -1.0752 H   0  0  0  0  0  0  0  0  0  0  0  0
   -8.2469   -3.5919   -1.4578 S   0  0  0  0  0  0  0  0  0  0  0  0
   -8.1665   -2.3963   -0.5395 O   0  0  0  0  0  0  0  0  0  0  0  0
   -9.1945   -3.4292   -2.5803 O   0  0  0  0  0  0  0  0  0  0  0  0
   -6.8853   -4.0776   -1.8497 O   0  0  0  0  0  0  0  0  0  0  0  0
  -10.6338   -8.0439    2.0020 C   0  0  0  0  0  0  0  0  0  0  0  0
  -10.0610   -8.1761    2.9287 H   0  0  0  0  0  0  0  0  0  0  0  0
  -11.6661   -7.8212    2.2863 H   0  0  0  0  0  0  0  0  0  0  0  0
  -10.6257   -9.0060    1.4795 H   0  0  0  0  0  0  0  0  0  0  0  0
  1  2  1  0  0  0  0
  2  3  1  0  0  0  0
  4  1  1  0  0  0  0
  4 12  1  0  0  0  0
  5  4  2  0  0  0  0
  6 10  2  0  0  0  0
  6  5  1  0  0  0  0
  7  8  2  0  0  0  0
  7  6  1  0  0  0  0
  9  7  2  0  0  0  0
 10 11  1  0  0  0  0
 11 15  1  0  0  0  0
 11  1  2  0  0  0  0
 13  5  1  0  0  0  0
 14 10  1  0  0  0  0
 16 22  1  0  0  0  0
 16 17  2  0  0  0  0
 17 23  1  0  0  0  0
 18 17  1  0  0  0  0
 18 30  1  0  0  0  0
 19 18  2  0  0  0  0
 20 21  2  0  0  0  0
 20 19  1  0  0  0  0
 21 16  1  0  0  0  0
 24 19  1  0  0  0  0
 25 20  1  0  0  0  0
 26 27  1  0  0  0  0
 26 21  1  0  0  0  0
 28 26  2  0  0  0  0
 29 26  2  0  0  0  0
 30 32  1  0  0  0  0
 30 31  1  0  0  0  0
 33 30  1  0  0  0  0
M  RAD  3   2   2   3   3  27   2
M  END
