Coordinates from ORCA-job 4-NO2PhN2+~TsO-_B3LYPG-6-31G_dp-NX-Scan-d89-09-n800
 OpenBabel11261920283D

 33 33  0  0  0  0  0  0  0  0999 V2000
   -4.6052   -1.5312    0.3647 C   0  0  0  0  0  0  0  0  0  0  0  0
   -5.5971   -1.2570    1.2980 N   0  0  0  0  0  0  0  0  0  0  0  0
   -6.4818   -1.0842    1.9730 N   0  0  0  0  0  0  0  0  0  0  0  0
   -3.2837   -1.2384    0.7402 C   0  0  0  0  0  0  0  0  0  0  0  0
   -2.2726   -1.4874   -0.1754 C   0  0  0  0  0  0  0  0  0  0  0  0
   -2.6213   -1.9983   -1.4265 C   0  0  0  0  0  0  0  0  0  0  0  0
   -1.5365   -2.2534   -2.4040 N   0  0  0  0  0  0  0  0  0  0  0  0
   -0.3892   -2.0028   -2.0446 O   0  0  0  0  0  0  0  0  0  0  0  0
   -1.8612   -2.6941   -3.5014 O   0  0  0  0  0  0  0  0  0  0  0  0
   -3.9341   -2.2758   -1.7982 C   0  0  0  0  0  0  0  0  0  0  0  0
   -4.9641   -2.0519   -0.8889 C   0  0  0  0  0  0  0  0  0  0  0  0
   -3.0678   -0.8357    1.7228 H   0  0  0  0  0  0  0  0  0  0  0  0
   -1.2336   -1.2906    0.0545 H   0  0  0  0  0  0  0  0  0  0  0  0
   -4.1399   -2.6749   -2.7831 H   0  0  0  0  0  0  0  0  0  0  0  0
   -6.0045   -2.2754   -1.1237 H   0  0  0  0  0  0  0  0  0  0  0  0
   -8.6712   -5.8222    1.5147 C   0  0  0  0  0  0  0  0  0  0  0  0
   -9.5936   -6.8570    1.6738 C   0  0  0  0  0  0  0  0  0  0  0  0
  -10.8331   -6.8299    1.0219 C   0  0  0  0  0  0  0  0  0  0  0  0
  -11.1261   -5.7370    0.1908 C   0  0  0  0  0  0  0  0  0  0  0  0
  -10.2151   -4.6983    0.0193 C   0  0  0  0  0  0  0  0  0  0  0  0
   -8.9887   -4.7466    0.6868 C   0  0  0  0  0  0  0  0  0  0  0  0
   -7.7057   -5.8493    2.0072 H   0  0  0  0  0  0  0  0  0  0  0  0
   -9.3439   -7.7018    2.3111 H   0  0  0  0  0  0  0  0  0  0  0  0
  -12.0787   -5.7039   -0.3320 H   0  0  0  0  0  0  0  0  0  0  0  0
  -10.4359   -3.8632   -0.6369 H   0  0  0  0  0  0  0  0  0  0  0  0
   -7.8281   -3.3967    0.5054 S   0  0  0  0  0  0  0  0  0  0  0  0
   -6.4670   -3.9298    0.7964 O   0  0  0  0  0  0  0  0  0  0  0  0
   -8.2319   -2.3680    1.5483 O   0  0  0  0  0  0  0  0  0  0  0  0
   -7.9818   -2.8754   -0.8806 O   0  0  0  0  0  0  0  0  0  0  0  0
  -11.8381   -7.9422    1.2084 C   0  0  0  0  0  0  0  0  0  0  0  0
  -11.4007   -8.7935    1.7368 H   0  0  0  0  0  0  0  0  0  0  0  0
  -12.7033   -7.6000    1.7893 H   0  0  0  0  0  0  0  0  0  0  0  0
  -12.2194   -8.3013    0.2467 H   0  0  0  0  0  0  0  0  0  0  0  0
  1  4  1  0  0  0  0
  1  2  1  0  0  0  0
  2  3  1  0  0  0  0
  4 12  1  0  0  0  0
  5 13  1  0  0  0  0
  5  4  2  0  0  0  0
  6  5  1  0  0  0  0
  7  8  2  0  0  0  0
  7  6  1  0  0  0  0
  9  7  2  0  0  0  0
 10  6  2  0  0  0  0
 10 11  1  0  0  0  0
 11  1  2  0  0  0  0
 14 10  1  0  0  0  0
 15 11  1  0  0  0  0
 16 17  1  0  0  0  0
 16 22  1  0  0  0  0
 17 23  1  0  0  0  0
 18 30  1  0  0  0  0
 18 17  2  0  0  0  0
 19 18  1  0  0  0  0
 20 19  2  0  0  0  0
 20 21  1  0  0  0  0
 21 16  2  0  0  0  0
 24 19  1  0  0  0  0
 25 20  1  0  0  0  0
 26 21  1  0  0  0  0
 26 27  2  0  0  0  0
 26 28  1  0  0  0  0
 29 26  2  0  0  0  0
 30 31  1  0  0  0  0
 30 32  1  0  0  0  0
 33 30  1  0  0  0  0
M  RAD  3   2   2   3   3  28   2
M  END
