Coordinates from ORCA-job 4-NO2PhN2+~TsO-_B3LYPG-6-31G_dp-NX-Scan-d89-09-n800
 OpenBabel11261920283D

 33 33  0  0  0  0  0  0  0  0999 V2000
   -5.0456   -2.6870    0.0637 C   0  0  0  0  0  0  0  0  0  0  0  0
   -6.1945   -3.3565    0.5864 N   0  0  0  0  0  0  0  0  0  0  0  0
   -6.6218   -3.9631    1.4375 N   0  0  0  0  0  0  0  0  0  0  0  0
   -4.2700   -1.9781    0.9874 C   0  0  0  0  0  0  0  0  0  0  0  0
   -3.1244   -1.3421    0.5235 C   0  0  0  0  0  0  0  0  0  0  0  0
   -2.7986   -1.4571   -0.8266 C   0  0  0  0  0  0  0  0  0  0  0  0
   -1.5724   -0.7843   -1.3119 N   0  0  0  0  0  0  0  0  0  0  0  0
   -0.9147   -0.1544   -0.4875 O   0  0  0  0  0  0  0  0  0  0  0  0
   -1.2982   -0.9048   -2.5016 O   0  0  0  0  0  0  0  0  0  0  0  0
   -3.5728   -2.1768   -1.7347 C   0  0  0  0  0  0  0  0  0  0  0  0
   -4.7355   -2.8007   -1.2912 C   0  0  0  0  0  0  0  0  0  0  0  0
   -4.5631   -1.9202    2.0293 H   0  0  0  0  0  0  0  0  0  0  0  0
   -2.4862   -0.7685    1.1833 H   0  0  0  0  0  0  0  0  0  0  0  0
   -3.2668   -2.2348   -2.7715 H   0  0  0  0  0  0  0  0  0  0  0  0
   -5.3824   -3.3756   -1.9466 H   0  0  0  0  0  0  0  0  0  0  0  0
  -10.0104   -4.2604    0.4629 C   0  0  0  0  0  0  0  0  0  0  0  0
  -10.6864   -5.0027    1.4251 C   0  0  0  0  0  0  0  0  0  0  0  0
  -10.3705   -6.3522    1.6570 C   0  0  0  0  0  0  0  0  0  0  0  0
   -9.3516   -6.9368    0.8961 C   0  0  0  0  0  0  0  0  0  0  0  0
   -8.6628   -6.2045   -0.0731 C   0  0  0  0  0  0  0  0  0  0  0  0
   -8.9931   -4.8663   -0.2839 C   0  0  0  0  0  0  0  0  0  0  0  0
  -10.2660   -3.2209    0.2857 H   0  0  0  0  0  0  0  0  0  0  0  0
  -11.4755   -4.5315    2.0060 H   0  0  0  0  0  0  0  0  0  0  0  0
   -9.0929   -7.9793    1.0615 H   0  0  0  0  0  0  0  0  0  0  0  0
   -7.8763   -6.6568   -0.6673 H   0  0  0  0  0  0  0  0  0  0  0  0
   -8.1423   -3.9165   -1.5469 S   0  0  0  0  0  0  0  0  0  0  0  0
   -7.5578   -2.7013   -0.7808 O   0  0  0  0  0  0  0  0  0  0  0  0
   -9.1459   -3.4369   -2.4978 O   0  0  0  0  0  0  0  0  0  0  0  0
   -7.0410   -4.7753   -2.0439 O   0  0  0  0  0  0  0  0  0  0  0  0
  -11.1294   -7.1495    2.6910 C   0  0  0  0  0  0  0  0  0  0  0  0
  -11.2168   -6.6001    3.6343 H   0  0  0  0  0  0  0  0  0  0  0  0
  -12.1484   -7.3670    2.3498 H   0  0  0  0  0  0  0  0  0  0  0  0
  -10.6406   -8.1048    2.8992 H   0  0  0  0  0  0  0  0  0  0  0  0
  1  2  1  0  0  0  0
  1  4  2  0  0  0  0
  2  3  2  0  0  0  0
  4 12  1  0  0  0  0
  5  4  1  0  0  0  0
  5 13  1  0  0  0  0
  6  5  2  0  0  0  0
  7  6  1  0  0  0  0
  7  8  2  0  0  0  0
  9  7  2  0  0  0  0
 10 11  2  0  0  0  0
 10  6  1  0  0  0  0
 11  1  1  0  0  0  0
 14 10  1  0  0  0  0
 15 11  1  0  0  0  0
 16 17  2  0  0  0  0
 17 18  1  0  0  0  0
 17 23  1  0  0  0  0
 18 30  1  0  0  0  0
 19 24  1  0  0  0  0
 19 18  2  0  0  0  0
 20 19  1  0  0  0  0
 21 20  2  0  0  0  0
 21 16  1  0  0  0  0
 22 16  1  0  0  0  0
 25 20  1  0  0  0  0
 26 27  1  0  0  0  0
 26 21  1  0  0  0  0
 28 26  2  0  0  0  0
 29 26  2  0  0  0  0
 30 33  1  0  0  0  0
 30 31  1  0  0  0  0
 32 30  1  0  0  0  0
M  RAD  2   3   2  27   2
M  END
