Coordinates from ORCA-job 4-NO2PhN2+~TsO-_B3LYPG-6-31G_dp-NX-Scan-d89-09-n800
 OpenBabel11261920283D

 33 33  0  0  0  0  0  0  0  0999 V2000
   -4.1353   -2.9330    0.3224 C   0  0  0  0  0  0  0  0  0  0  0  0
   -4.6536   -3.8208    1.3174 N   0  0  0  0  0  0  0  0  0  0  0  0
   -4.5081   -4.2071    2.3668 N   0  0  0  0  0  0  0  0  0  0  0  0
   -3.2755   -1.9342    0.8058 C   0  0  0  0  0  0  0  0  0  0  0  0
   -2.7045   -1.0620   -0.1088 C   0  0  0  0  0  0  0  0  0  0  0  0
   -3.0014   -1.2260   -1.4624 C   0  0  0  0  0  0  0  0  0  0  0  0
   -2.3821   -0.2961   -2.4351 N   0  0  0  0  0  0  0  0  0  0  0  0
   -1.6472    0.5784   -1.9838 O   0  0  0  0  0  0  0  0  0  0  0  0
   -2.6430   -0.4674   -3.6212 O   0  0  0  0  0  0  0  0  0  0  0  0
   -3.8515   -2.2202   -1.9344 C   0  0  0  0  0  0  0  0  0  0  0  0
   -4.4401   -3.0983   -1.0261 C   0  0  0  0  0  0  0  0  0  0  0  0
   -3.0754   -1.8455    1.8673 H   0  0  0  0  0  0  0  0  0  0  0  0
   -2.0414   -0.2655    0.2038 H   0  0  0  0  0  0  0  0  0  0  0  0
   -4.0570   -2.2952   -2.9946 H   0  0  0  0  0  0  0  0  0  0  0  0
   -5.1343   -3.8668   -1.3383 H   0  0  0  0  0  0  0  0  0  0  0  0
   -9.3663   -4.8115    1.8391 C   0  0  0  0  0  0  0  0  0  0  0  0
  -10.4518   -5.6212    2.1677 C   0  0  0  0  0  0  0  0  0  0  0  0
  -11.0474   -6.4580    1.2133 C   0  0  0  0  0  0  0  0  0  0  0  0
  -10.5247   -6.4638   -0.0884 C   0  0  0  0  0  0  0  0  0  0  0  0
   -9.4412   -5.6592   -0.4335 C   0  0  0  0  0  0  0  0  0  0  0  0
   -8.8664   -4.8371    0.5369 C   0  0  0  0  0  0  0  0  0  0  0  0
   -8.9167   -4.1523    2.5738 H   0  0  0  0  0  0  0  0  0  0  0  0
  -10.8473   -5.6000    3.1801 H   0  0  0  0  0  0  0  0  0  0  0  0
  -10.9762   -7.1035   -0.8426 H   0  0  0  0  0  0  0  0  0  0  0  0
   -9.0476   -5.6513   -1.4440 H   0  0  0  0  0  0  0  0  0  0  0  0
   -7.4578   -3.8160    0.1087 S   0  0  0  0  0  0  0  0  0  0  0  0
   -6.2522   -4.7596    0.3956 O   0  0  0  0  0  0  0  0  0  0  0  0
   -7.4265   -2.6607    1.0291 O   0  0  0  0  0  0  0  0  0  0  0  0
   -7.5404   -3.5281   -1.3380 O   0  0  0  0  0  0  0  0  0  0  0  0
  -12.2451   -7.3073    1.5669 C   0  0  0  0  0  0  0  0  0  0  0  0
  -12.2719   -7.5384    2.6356 H   0  0  0  0  0  0  0  0  0  0  0  0
  -13.1804   -6.7886    1.3210 H   0  0  0  0  0  0  0  0  0  0  0  0
  -12.2442   -8.2510    1.0143 H   0  0  0  0  0  0  0  0  0  0  0  0
  1  4  1  0  0  0  0
  1  2  1  0  0  0  0
  2  3  2  0  0  0  0
  4 12  1  0  0  0  0
  5 13  1  0  0  0  0
  5  4  2  0  0  0  0
  6  5  1  0  0  0  0
  7  8  2  0  0  0  0
  7  6  1  0  0  0  0
  9  7  2  0  0  0  0
 10  6  2  0  0  0  0
 10 11  1  0  0  0  0
 11  1  2  0  0  0  0
 14 10  1  0  0  0  0
 15 11  1  0  0  0  0
 16 17  1  0  0  0  0
 16 22  1  0  0  0  0
 17 23  1  0  0  0  0
 18 30  1  0  0  0  0
 18 17  2  0  0  0  0
 19 18  1  0  0  0  0
 20 19  2  0  0  0  0
 20 21  1  0  0  0  0
 21 16  2  0  0  0  0
 24 19  1  0  0  0  0
 25 20  1  0  0  0  0
 26 27  2  0  0  0  0
 26 21  1  0  0  0  0
 26 28  1  0  0  0  0
 29 26  2  0  0  0  0
 30 31  1  0  0  0  0
 32 30  1  0  0  0  0
 33 30  1  0  0  0  0
M  RAD  2   3   2  28   2
M  END
