Coordinates from ORCA-job 4-NO2PhN2+~TsO-_B3LYPG-6-31G_dp-NX-Scan-d89-09-n800
 OpenBabel11261920283D

 33 33  0  0  0  0  0  0  0  0999 V2000
   -4.5437   -2.4423    0.5785 C   0  0  0  0  0  0  0  0  0  0  0  0
   -5.3660   -3.0348    1.5675 N   0  0  0  0  0  0  0  0  0  0  0  0
   -5.5910   -3.3510    2.6218 N   0  0  0  0  0  0  0  0  0  0  0  0
   -3.8400   -1.2990    0.9891 C   0  0  0  0  0  0  0  0  0  0  0  0
   -2.9709   -0.7179    0.0766 C   0  0  0  0  0  0  0  0  0  0  0  0
   -2.8323   -1.3062   -1.1806 C   0  0  0  0  0  0  0  0  0  0  0  0
   -1.8898   -0.6847   -2.1414 N   0  0  0  0  0  0  0  0  0  0  0  0
   -1.3001    0.3267   -1.7706 O   0  0  0  0  0  0  0  0  0  0  0  0
   -1.7637   -1.2268   -3.2336 O   0  0  0  0  0  0  0  0  0  0  0  0
   -3.5370   -2.4420   -1.5719 C   0  0  0  0  0  0  0  0  0  0  0  0
   -4.4330   -3.0294   -0.6825 C   0  0  0  0  0  0  0  0  0  0  0  0
   -3.9789   -0.8826    1.9800 H   0  0  0  0  0  0  0  0  0  0  0  0
   -2.4033    0.1710    0.3204 H   0  0  0  0  0  0  0  0  0  0  0  0
   -3.3987   -2.8450   -2.5670 H   0  0  0  0  0  0  0  0  0  0  0  0
   -5.0540   -3.8871   -0.9568 H   0  0  0  0  0  0  0  0  0  0  0  0
   -9.7051   -4.4245    0.9902 C   0  0  0  0  0  0  0  0  0  0  0  0
  -10.6431   -5.2082    1.6619 C   0  0  0  0  0  0  0  0  0  0  0  0
  -10.8056   -6.5662    1.3570 C   0  0  0  0  0  0  0  0  0  0  0  0
   -9.9897   -7.1254    0.3625 C   0  0  0  0  0  0  0  0  0  0  0  0
   -9.0475   -6.3546   -0.3155 C   0  0  0  0  0  0  0  0  0  0  0  0
   -8.9079   -5.0019    0.0014 C   0  0  0  0  0  0  0  0  0  0  0  0
   -9.5775   -3.3760    1.2366 H   0  0  0  0  0  0  0  0  0  0  0  0
  -11.2589   -4.7577    2.4367 H   0  0  0  0  0  0  0  0  0  0  0  0
  -10.0933   -8.1797    0.1168 H   0  0  0  0  0  0  0  0  0  0  0  0
   -8.4090   -6.7923   -1.0753 H   0  0  0  0  0  0  0  0  0  0  0  0
   -7.7442   -3.9925   -0.9249 S   0  0  0  0  0  0  0  0  0  0  0  0
   -7.2282   -2.9723    0.0986 O   0  0  0  0  0  0  0  0  0  0  0  0
   -8.4906   -3.3603   -2.0349 O   0  0  0  0  0  0  0  0  0  0  0  0
   -6.6460   -4.9173   -1.3325 O   0  0  0  0  0  0  0  0  0  0  0  0
  -11.8435   -7.4051    2.0654 C   0  0  0  0  0  0  0  0  0  0  0  0
  -12.1786   -6.9298    2.9913 H   0  0  0  0  0  0  0  0  0  0  0  0
  -12.7281   -7.5550    1.4341 H   0  0  0  0  0  0  0  0  0  0  0  0
  -11.4553   -8.3976    2.3154 H   0  0  0  0  0  0  0  0  0  0  0  0
  1  4  1  0  0  0  0
  1  2  1  0  0  0  0
  2  3  2  0  0  0  0
  4 12  1  0  0  0  0
  5 13  1  0  0  0  0
  5  4  2  0  0  0  0
  6  5  1  0  0  0  0
  7  8  2  0  0  0  0
  7  6  1  0  0  0  0
  9  7  2  0  0  0  0
 10  6  2  0  0  0  0
 10 11  1  0  0  0  0
 11  1  2  0  0  0  0
 14 10  1  0  0  0  0
 15 11  1  0  0  0  0
 16 22  1  0  0  0  0
 16 17  2  0  0  0  0
 17 23  1  0  0  0  0
 18 17  1  0  0  0  0
 18 30  1  0  0  0  0
 19 18  2  0  0  0  0
 20 21  2  0  0  0  0
 20 19  1  0  0  0  0
 21 16  1  0  0  0  0
 24 19  1  0  0  0  0
 25 20  1  0  0  0  0
 26 21  1  0  0  0  0
 26 27  1  0  0  0  0
 28 26  2  0  0  0  0
 29 26  2  0  0  0  0
 30 33  1  0  0  0  0
 30 31  1  0  0  0  0
 32 30  1  0  0  0  0
M  RAD  2   3   2  27   2
M  END
