Coordinates from ORCA-job 4-NO2PhN2+~TsO-_B3LYPG-6-31G_dp-NX-Scan-d89-09-n800
 OpenBabel11261920283D

 33 33  0  0  0  0  0  0  0  0999 V2000
   -4.6632   -0.8414    1.1895 C   0  0  0  0  0  0  0  0  0  0  0  0
   -5.1440   -0.1350    2.2639 N   0  0  0  0  0  0  0  0  0  0  0  0
   -5.4342    0.4596    3.1712 N   0  0  0  0  0  0  0  0  0  0  0  0
   -3.2484   -0.8369    1.0570 C   0  0  0  0  0  0  0  0  0  0  0  0
   -2.7063   -1.5385    0.0026 C   0  0  0  0  0  0  0  0  0  0  0  0
   -3.5684   -2.2112   -0.8754 C   0  0  0  0  0  0  0  0  0  0  0  0
   -2.9382   -2.9499   -2.0018 N   0  0  0  0  0  0  0  0  0  0  0  0
   -1.7153   -3.0885   -1.9488 O   0  0  0  0  0  0  0  0  0  0  0  0
   -3.6746   -3.3524   -2.8871 O   0  0  0  0  0  0  0  0  0  0  0  0
   -4.9545   -2.2234   -0.7498 C   0  0  0  0  0  0  0  0  0  0  0  0
   -5.5368   -1.5171    0.3066 C   0  0  0  0  0  0  0  0  0  0  0  0
   -2.6280   -0.3010    1.7660 H   0  0  0  0  0  0  0  0  0  0  0  0
   -1.6365   -1.5872   -0.1575 H   0  0  0  0  0  0  0  0  0  0  0  0
   -5.6079   -2.8070   -1.4212 H   0  0  0  0  0  0  0  0  0  0  0  0
   -6.6274   -1.5426    0.3891 H   0  0  0  0  0  0  0  0  0  0  0  0
  -10.0186   -4.6316    0.3142 C   0  0  0  0  0  0  0  0  0  0  0  0
  -10.5579   -5.6347    1.1159 C   0  0  0  0  0  0  0  0  0  0  0  0
   -9.9925   -6.9184    1.1496 C   0  0  0  0  0  0  0  0  0  0  0  0
   -8.8656   -7.1691    0.3518 C   0  0  0  0  0  0  0  0  0  0  0  0
   -8.3175   -6.1733   -0.4542 C   0  0  0  0  0  0  0  0  0  0  0  0
   -8.8955   -4.9016   -0.4742 C   0  0  0  0  0  0  0  0  0  0  0  0
  -10.4583   -3.6397    0.2951 H   0  0  0  0  0  0  0  0  0  0  0  0
  -11.4348   -5.4233    1.7234 H   0  0  0  0  0  0  0  0  0  0  0  0
   -8.4151   -8.1593    0.3610 H   0  0  0  0  0  0  0  0  0  0  0  0
   -7.4458   -6.3615   -1.0714 H   0  0  0  0  0  0  0  0  0  0  0  0
   -8.2392   -3.6205   -1.5579 S   0  0  0  0  0  0  0  0  0  0  0  0
   -8.1837   -2.3934   -0.6831 O   0  0  0  0  0  0  0  0  0  0  0  0
   -9.1817   -3.5227   -2.6939 O   0  0  0  0  0  0  0  0  0  0  0  0
   -6.8643   -4.0924   -1.9231 O   0  0  0  0  0  0  0  0  0  0  0  0
  -10.5652   -7.9984    2.0363 C   0  0  0  0  0  0  0  0  0  0  0  0
   -9.9688   -8.1227    2.9491 H   0  0  0  0  0  0  0  0  0  0  0  0
  -11.5880   -7.7639    2.3438 H   0  0  0  0  0  0  0  0  0  0  0  0
  -10.5782   -8.9681    1.5277 H   0  0  0  0  0  0  0  0  0  0  0  0
  1  2  1  0  0  0  0
  2  3  1  0  0  0  0
  4  1  1  0  0  0  0
  4 12  1  0  0  0  0
  5  4  2  0  0  0  0
  6 10  2  0  0  0  0
  6  5  1  0  0  0  0
  7  8  2  0  0  0  0
  7  6  1  0  0  0  0
  9  7  2  0  0  0  0
 10 11  1  0  0  0  0
 11 15  1  0  0  0  0
 11  1  2  0  0  0  0
 13  5  1  0  0  0  0
 14 10  1  0  0  0  0
 16 17  2  0  0  0  0
 17 18  1  0  0  0  0
 17 23  1  0  0  0  0
 18 30  1  0  0  0  0
 19 24  1  0  0  0  0
 19 18  2  0  0  0  0
 20 19  1  0  0  0  0
 21 20  2  0  0  0  0
 21 16  1  0  0  0  0
 22 16  1  0  0  0  0
 25 20  1  0  0  0  0
 26 27  1  0  0  0  0
 26 21  1  0  0  0  0
 28 26  2  0  0  0  0
 29 26  2  0  0  0  0
 30 32  1  0  0  0  0
 30 31  1  0  0  0  0
 33 30  1  0  0  0  0
M  RAD  3   2   2   3   3  27   2
M  END
