Coordinates from ORCA-job 4-NO2PhN2+~TsO-_B3LYPG-6-31G_dp-NX-Scan-d89-09-n800
 OpenBabel11261920283D

 33 33  0  0  0  0  0  0  0  0999 V2000
   -4.7832   -0.6554    0.6415 C   0  0  0  0  0  0  0  0  0  0  0  0
   -5.5297    0.2970    1.2894 N   0  0  0  0  0  0  0  0  0  0  0  0
   -6.1271    1.0684    1.8383 N   0  0  0  0  0  0  0  0  0  0  0  0
   -3.3715   -0.5654    0.7443 C   0  0  0  0  0  0  0  0  0  0  0  0
   -2.6361   -1.5311    0.0917 C   0  0  0  0  0  0  0  0  0  0  0  0
   -3.3134   -2.5408   -0.6143 C   0  0  0  0  0  0  0  0  0  0  0  0
   -2.4864   -3.5744   -1.2871 N   0  0  0  0  0  0  0  0  0  0  0  0
   -1.2660   -3.4634   -1.1792 O   0  0  0  0  0  0  0  0  0  0  0  0
   -3.0767   -4.4583   -1.8923 O   0  0  0  0  0  0  0  0  0  0  0  0
   -4.6969   -2.6231   -0.7058 C   0  0  0  0  0  0  0  0  0  0  0  0
   -5.4747   -1.6479   -0.0767 C   0  0  0  0  0  0  0  0  0  0  0  0
   -2.8988    0.2269    1.3135 H   0  0  0  0  0  0  0  0  0  0  0  0
   -1.5537   -1.5355    0.1172 H   0  0  0  0  0  0  0  0  0  0  0  0
   -5.2164   -3.4015   -1.2591 H   0  0  0  0  0  0  0  0  0  0  0  0
   -6.5799   -1.6905   -0.1177 H   0  0  0  0  0  0  0  0  0  0  0  0
   -9.8238   -4.5839    0.9456 C   0  0  0  0  0  0  0  0  0  0  0  0
  -10.2558   -5.7617    1.5525 C   0  0  0  0  0  0  0  0  0  0  0  0
   -9.9381   -7.0155    1.0108 C   0  0  0  0  0  0  0  0  0  0  0  0
   -9.1732   -7.0562   -0.1630 C   0  0  0  0  0  0  0  0  0  0  0  0
   -8.7343   -5.8850   -0.7791 C   0  0  0  0  0  0  0  0  0  0  0  0
   -9.0616   -4.6478   -0.2225 C   0  0  0  0  0  0  0  0  0  0  0  0
  -10.0664   -3.6166    1.3722 H   0  0  0  0  0  0  0  0  0  0  0  0
  -10.8485   -5.7084    2.4628 H   0  0  0  0  0  0  0  0  0  0  0  0
   -8.9177   -8.0183   -0.6006 H   0  0  0  0  0  0  0  0  0  0  0  0
   -8.1368   -5.9187   -1.6838 H   0  0  0  0  0  0  0  0  0  0  0  0
   -8.5583   -3.1339   -1.0565 S   0  0  0  0  0  0  0  0  0  0  0  0
   -8.2887   -2.1564    0.0676 O   0  0  0  0  0  0  0  0  0  0  0  0
   -9.6762   -2.7247   -1.9291 O   0  0  0  0  0  0  0  0  0  0  0  0
   -7.2960   -3.4789   -1.7806 O   0  0  0  0  0  0  0  0  0  0  0  0
  -10.3823   -8.2889    1.6913 C   0  0  0  0  0  0  0  0  0  0  0  0
   -9.6423   -8.6251    2.4293 H   0  0  0  0  0  0  0  0  0  0  0  0
  -11.3288   -8.1498    2.2230 H   0  0  0  0  0  0  0  0  0  0  0  0
  -10.5154   -9.1020    0.9711 H   0  0  0  0  0  0  0  0  0  0  0  0
  1  4  1  0  0  0  0
  1  2  1  0  0  0  0
  2  3  1  0  0  0  0
  4 12  1  0  0  0  0
  5 13  1  0  0  0  0
  5  4  2  0  0  0  0
  6  5  1  0  0  0  0
  7  8  2  0  0  0  0
  7  6  1  0  0  0  0
  9  7  2  0  0  0  0
 10  6  2  0  0  0  0
 10 11  1  0  0  0  0
 11  1  2  0  0  0  0
 14 10  1  0  0  0  0
 15 11  1  0  0  0  0
 16 22  1  0  0  0  0
 16 17  2  0  0  0  0
 17 23  1  0  0  0  0
 18 17  1  0  0  0  0
 18 30  1  0  0  0  0
 19 18  2  0  0  0  0
 20 21  2  0  0  0  0
 20 19  1  0  0  0  0
 21 16  1  0  0  0  0
 24 19  1  0  0  0  0
 25 20  1  0  0  0  0
 26 21  1  0  0  0  0
 26 27  1  0  0  0  0
 28 26  2  0  0  0  0
 29 26  2  0  0  0  0
 30 32  1  0  0  0  0
 30 31  1  0  0  0  0
 33 30  1  0  0  0  0
M  RAD  3   2   2   3   3  27   2
M  END
