Coordinates from ORCA-job 4-NO2PhN2+~TsO-_B3LYPG-6-31G_dp-NX-Scan-d89-09-n800
 OpenBabel11261920283D

 33 33  0  0  0  0  0  0  0  0999 V2000
   -4.1076   -2.9658    0.3142 C   0  0  0  0  0  0  0  0  0  0  0  0
   -4.5988   -3.8881    1.2917 N   0  0  0  0  0  0  0  0  0  0  0  0
   -4.4102   -4.3270    2.3134 N   0  0  0  0  0  0  0  0  0  0  0  0
   -3.2265   -1.9904    0.8069 C   0  0  0  0  0  0  0  0  0  0  0  0
   -2.6779   -1.0885   -0.0927 C   0  0  0  0  0  0  0  0  0  0  0  0
   -3.0176   -1.2011   -1.4415 C   0  0  0  0  0  0  0  0  0  0  0  0
   -2.4222   -0.2395   -2.3981 N   0  0  0  0  0  0  0  0  0  0  0  0
   -1.6666    0.6125   -1.9383 O   0  0  0  0  0  0  0  0  0  0  0  0
   -2.7220   -0.3645   -3.5808 O   0  0  0  0  0  0  0  0  0  0  0  0
   -3.8883   -2.1727   -1.9227 C   0  0  0  0  0  0  0  0  0  0  0  0
   -4.4544   -3.0805   -1.0292 C   0  0  0  0  0  0  0  0  0  0  0  0
   -2.9923   -1.9424    1.8640 H   0  0  0  0  0  0  0  0  0  0  0  0
   -1.9997   -0.3080    0.2279 H   0  0  0  0  0  0  0  0  0  0  0  0
   -4.1276   -2.2078   -2.9778 H   0  0  0  0  0  0  0  0  0  0  0  0
   -5.1640   -3.8308   -1.3524 H   0  0  0  0  0  0  0  0  0  0  0  0
   -9.4095   -4.7462    1.8006 C   0  0  0  0  0  0  0  0  0  0  0  0
  -10.4961   -5.5488    2.1431 C   0  0  0  0  0  0  0  0  0  0  0  0
  -11.0526   -6.4475    1.2220 C   0  0  0  0  0  0  0  0  0  0  0  0
  -10.4897   -6.5231   -0.0607 C   0  0  0  0  0  0  0  0  0  0  0  0
   -9.4048   -5.7266   -0.4195 C   0  0  0  0  0  0  0  0  0  0  0  0
   -8.8694   -4.8418    0.5179 C   0  0  0  0  0  0  0  0  0  0  0  0
   -8.9896   -4.0392    2.5081 H   0  0  0  0  0  0  0  0  0  0  0  0
  -10.9229   -5.4736    3.1400 H   0  0  0  0  0  0  0  0  0  0  0  0
  -10.9105   -7.2117   -0.7891 H   0  0  0  0  0  0  0  0  0  0  0  0
   -8.9804   -5.7729   -1.4163 H   0  0  0  0  0  0  0  0  0  0  0  0
   -7.4593   -3.8298    0.0736 S   0  0  0  0  0  0  0  0  0  0  0  0
   -6.2576   -4.7590    0.4210 O   0  0  0  0  0  0  0  0  0  0  0  0
   -7.4545   -2.6349    0.9409 O   0  0  0  0  0  0  0  0  0  0  0  0
   -7.5155   -3.6068   -1.3866 O   0  0  0  0  0  0  0  0  0  0  0  0
  -12.2512   -7.2897    1.5889 C   0  0  0  0  0  0  0  0  0  0  0  0
  -12.3080   -7.4587    2.6680 H   0  0  0  0  0  0  0  0  0  0  0  0
  -13.1841   -6.7983    1.2851 H   0  0  0  0  0  0  0  0  0  0  0  0
  -12.2234   -8.2639    1.0926 H   0  0  0  0  0  0  0  0  0  0  0  0
  1  4  1  0  0  0  0
  1  2  1  0  0  0  0
  2  3  2  0  0  0  0
  4 12  1  0  0  0  0
  5 13  1  0  0  0  0
  5  4  2  0  0  0  0
  6  5  1  0  0  0  0
  7  8  2  0  0  0  0
  7  6  1  0  0  0  0
  9  7  2  0  0  0  0
 10  6  2  0  0  0  0
 10 11  1  0  0  0  0
 11  1  2  0  0  0  0
 14 10  1  0  0  0  0
 15 11  1  0  0  0  0
 16 17  1  0  0  0  0
 16 22  1  0  0  0  0
 17 23  1  0  0  0  0
 18 30  1  0  0  0  0
 18 17  2  0  0  0  0
 19 18  1  0  0  0  0
 20 19  2  0  0  0  0
 20 21  1  0  0  0  0
 21 16  2  0  0  0  0
 24 19  1  0  0  0  0
 25 20  1  0  0  0  0
 26 27  2  0  0  0  0
 26 21  1  0  0  0  0
 26 28  1  0  0  0  0
 29 26  2  0  0  0  0
 30 31  1  0  0  0  0
 32 30  1  0  0  0  0
 33 30  1  0  0  0  0
M  RAD  2   3   2  28   2
M  END
