Coordinates from ORCA-job 4-NO2PhN2+~TsO-_B3LYPG-6-31G_dp-NX-Scan-d89-09-n800
 OpenBabel11261920283D

 33 33  0  0  0  0  0  0  0  0999 V2000
   -4.6630   -0.8419    1.2177 C   0  0  0  0  0  0  0  0  0  0  0  0
   -5.1180   -0.1313    2.3008 N   0  0  0  0  0  0  0  0  0  0  0  0
   -5.3810    0.4667    3.2150 N   0  0  0  0  0  0  0  0  0  0  0  0
   -3.2492   -0.8696    1.0775 C   0  0  0  0  0  0  0  0  0  0  0  0
   -2.7282   -1.5742    0.0145 C   0  0  0  0  0  0  0  0  0  0  0  0
   -3.6095   -2.2142   -0.8681 C   0  0  0  0  0  0  0  0  0  0  0  0
   -3.0021   -2.9485   -2.0083 N   0  0  0  0  0  0  0  0  0  0  0  0
   -1.7961   -3.1859   -1.9243 O   0  0  0  0  0  0  0  0  0  0  0  0
   -3.7380   -3.2503   -2.9330 O   0  0  0  0  0  0  0  0  0  0  0  0
   -4.9954   -2.1965   -0.7358 C   0  0  0  0  0  0  0  0  0  0  0  0
   -5.5556   -1.4914    0.3325 C   0  0  0  0  0  0  0  0  0  0  0  0
   -2.6133   -0.3547    1.7883 H   0  0  0  0  0  0  0  0  0  0  0  0
   -1.6602   -1.6490   -0.1487 H   0  0  0  0  0  0  0  0  0  0  0  0
   -5.6602   -2.7625   -1.4109 H   0  0  0  0  0  0  0  0  0  0  0  0
   -6.6439   -1.4946    0.4257 H   0  0  0  0  0  0  0  0  0  0  0  0
  -10.0113   -4.6351    0.2753 C   0  0  0  0  0  0  0  0  0  0  0  0
  -10.5468   -5.6284    1.0918 C   0  0  0  0  0  0  0  0  0  0  0  0
   -9.9706   -6.9062    1.1521 C   0  0  0  0  0  0  0  0  0  0  0  0
   -8.8364   -7.1612    0.3658 C   0  0  0  0  0  0  0  0  0  0  0  0
   -8.2921   -6.1754   -0.4546 C   0  0  0  0  0  0  0  0  0  0  0  0
   -8.8810   -4.9092   -0.5012 C   0  0  0  0  0  0  0  0  0  0  0  0
  -10.4593   -3.6475    0.2358 H   0  0  0  0  0  0  0  0  0  0  0  0
  -11.4292   -5.4138    1.6902 H   0  0  0  0  0  0  0  0  0  0  0  0
   -8.3770   -8.1470    0.3958 H   0  0  0  0  0  0  0  0  0  0  0  0
   -7.4147   -6.3668   -1.0626 H   0  0  0  0  0  0  0  0  0  0  0  0
   -8.2283   -3.6414   -1.6030 S   0  0  0  0  0  0  0  0  0  0  0  0
   -8.1924   -2.3979   -0.7521 O   0  0  0  0  0  0  0  0  0  0  0  0
   -9.1615   -3.5793   -2.7501 O   0  0  0  0  0  0  0  0  0  0  0  0
   -6.8443   -4.1044   -1.9465 O   0  0  0  0  0  0  0  0  0  0  0  0
  -10.5398   -7.9760    2.0532 C   0  0  0  0  0  0  0  0  0  0  0  0
   -9.9333   -8.0983    2.9595 H   0  0  0  0  0  0  0  0  0  0  0  0
  -11.5573   -7.7325    2.3708 H   0  0  0  0  0  0  0  0  0  0  0  0
  -10.5653   -8.9491    1.5515 H   0  0  0  0  0  0  0  0  0  0  0  0
  1  2  1  0  0  0  0
  2  3  1  0  0  0  0
  4  1  1  0  0  0  0
  4 12  1  0  0  0  0
  5  4  2  0  0  0  0
  6 10  2  0  0  0  0
  6  5  1  0  0  0  0
  7  8  2  0  0  0  0
  7  6  1  0  0  0  0
  9  7  2  0  0  0  0
 10 11  1  0  0  0  0
 11 15  1  0  0  0  0
 11  1  2  0  0  0  0
 13  5  1  0  0  0  0
 14 10  1  0  0  0  0
 16 17  2  0  0  0  0
 17 18  1  0  0  0  0
 17 23  1  0  0  0  0
 18 30  1  0  0  0  0
 19 24  1  0  0  0  0
 19 18  2  0  0  0  0
 20 19  1  0  0  0  0
 21 20  2  0  0  0  0
 21 16  1  0  0  0  0
 22 16  1  0  0  0  0
 25 20  1  0  0  0  0
 26 27  1  0  0  0  0
 26 21  1  0  0  0  0
 28 26  2  0  0  0  0
 29 26  2  0  0  0  0
 30 32  1  0  0  0  0
 30 31  1  0  0  0  0
 33 30  1  0  0  0  0
M  RAD  3   2   2   3   3  27   2
M  END
