Coordinates from ORCA-job 4-NO2PhN2+~TsO-_B3LYPG-6-31G_dp-NX-Scan-d89-09-n800
 OpenBabel11261920283D

 33 33  0  0  0  0  0  0  0  0999 V2000
   -4.1999   -2.8040    0.3339 C   0  0  0  0  0  0  0  0  0  0  0  0
   -4.8169   -3.5762    1.3668 N   0  0  0  0  0  0  0  0  0  0  0  0
   -4.7984   -3.8286    2.4645 N   0  0  0  0  0  0  0  0  0  0  0  0
   -3.2951   -1.8284    0.7832 C   0  0  0  0  0  0  0  0  0  0  0  0
   -2.6398   -1.0561   -0.1637 C   0  0  0  0  0  0  0  0  0  0  0  0
   -2.9034   -1.2898   -1.5141 C   0  0  0  0  0  0  0  0  0  0  0  0
   -2.1943   -0.4663   -2.5210 N   0  0  0  0  0  0  0  0  0  0  0  0
   -1.4164    0.3856   -2.1000 O   0  0  0  0  0  0  0  0  0  0  0  0
   -2.4307   -0.6960   -3.7024 O   0  0  0  0  0  0  0  0  0  0  0  0
   -3.8003   -2.2579   -1.9522 C   0  0  0  0  0  0  0  0  0  0  0  0
   -4.4717   -3.0373   -1.0119 C   0  0  0  0  0  0  0  0  0  0  0  0
   -3.1249   -1.6814    1.8435 H   0  0  0  0  0  0  0  0  0  0  0  0
   -1.9368   -0.2837    0.1213 H   0  0  0  0  0  0  0  0  0  0  0  0
   -3.9743   -2.3900   -3.0125 H   0  0  0  0  0  0  0  0  0  0  0  0
   -5.1990   -3.7876   -1.2919 H   0  0  0  0  0  0  0  0  0  0  0  0
   -9.3317   -4.9459    1.9090 C   0  0  0  0  0  0  0  0  0  0  0  0
  -10.3906   -5.8017    2.2051 C   0  0  0  0  0  0  0  0  0  0  0  0
  -11.0392   -6.5291    1.1967 C   0  0  0  0  0  0  0  0  0  0  0  0
  -10.5964   -6.3773   -0.1252 C   0  0  0  0  0  0  0  0  0  0  0  0
   -9.5396   -5.5245   -0.4381 C   0  0  0  0  0  0  0  0  0  0  0  0
   -8.9114   -4.8136    0.5850 C   0  0  0  0  0  0  0  0  0  0  0  0
   -8.8424   -4.3716    2.6881 H   0  0  0  0  0  0  0  0  0  0  0  0
  -10.7238   -5.9032    3.2349 H   0  0  0  0  0  0  0  0  0  0  0  0
  -11.0892   -6.9304   -0.9208 H   0  0  0  0  0  0  0  0  0  0  0  0
   -9.2076   -5.3944   -1.4623 H   0  0  0  0  0  0  0  0  0  0  0  0
   -7.5363   -3.7331    0.1957 S   0  0  0  0  0  0  0  0  0  0  0  0
   -6.3003   -4.6610    0.3701 O   0  0  0  0  0  0  0  0  0  0  0  0
   -7.4918   -2.6586    1.2109 O   0  0  0  0  0  0  0  0  0  0  0  0
   -7.6734   -3.3259   -1.2167 O   0  0  0  0  0  0  0  0  0  0  0  0
  -12.2096   -7.4265    1.5214 C   0  0  0  0  0  0  0  0  0  0  0  0
  -12.1524   -7.8050    2.5461 H   0  0  0  0  0  0  0  0  0  0  0  0
  -13.1586   -6.8835    1.4273 H   0  0  0  0  0  0  0  0  0  0  0  0
  -12.2583   -8.2842    0.8442 H   0  0  0  0  0  0  0  0  0  0  0  0
  1  4  1  0  0  0  0
  1  2  1  0  0  0  0
  2  3  2  0  0  0  0
  4 12  1  0  0  0  0
  5 13  1  0  0  0  0
  5  4  2  0  0  0  0
  6  5  1  0  0  0  0
  7  8  2  0  0  0  0
  7  6  1  0  0  0  0
  9  7  2  0  0  0  0
 10  6  2  0  0  0  0
 10 11  1  0  0  0  0
 11  1  2  0  0  0  0
 14 10  1  0  0  0  0
 15 11  1  0  0  0  0
 16 17  1  0  0  0  0
 16 22  1  0  0  0  0
 17 23  1  0  0  0  0
 18 30  1  0  0  0  0
 18 17  2  0  0  0  0
 19 18  1  0  0  0  0
 20 19  2  0  0  0  0
 20 21  1  0  0  0  0
 21 16  2  0  0  0  0
 24 19  1  0  0  0  0
 25 20  1  0  0  0  0
 26 27  2  0  0  0  0
 26 21  1  0  0  0  0
 26 28  1  0  0  0  0
 29 26  2  0  0  0  0
 30 31  1  0  0  0  0
 32 30  1  0  0  0  0
 33 30  1  0  0  0  0
M  RAD  2   3   2  28   2
M  END
