Coordinates from ORCA-job 4-NO2PhN2+~TsO-_B3LYPG-6-31G_dp-NX-Scan-d89-09-n800
 OpenBabel11261920283D

 33 33  0  0  0  0  0  0  0  0999 V2000
   -4.7381   -0.7615    0.6249 C   0  0  0  0  0  0  0  0  0  0  0  0
   -5.6278    0.0175    1.3279 N   0  0  0  0  0  0  0  0  0  0  0  0
   -6.3679    0.6262    1.9029 N   0  0  0  0  0  0  0  0  0  0  0  0
   -3.3695   -0.4004    0.6156 C   0  0  0  0  0  0  0  0  0  0  0  0
   -2.5220   -1.2159   -0.1055 C   0  0  0  0  0  0  0  0  0  0  0  0
   -3.0517   -2.3365   -0.7701 C   0  0  0  0  0  0  0  0  0  0  0  0
   -2.1032   -3.1909   -1.5297 N   0  0  0  0  0  0  0  0  0  0  0  0
   -0.9221   -2.8492   -1.5244 O   0  0  0  0  0  0  0  0  0  0  0  0
   -2.5651   -4.1710   -2.0978 O   0  0  0  0  0  0  0  0  0  0  0  0
   -4.3978   -2.6793   -0.7526 C   0  0  0  0  0  0  0  0  0  0  0  0
   -5.2836   -1.8700   -0.0409 C   0  0  0  0  0  0  0  0  0  0  0  0
   -3.0098    0.4730    1.1472 H   0  0  0  0  0  0  0  0  0  0  0  0
   -1.4604   -1.0147   -0.1711 H   0  0  0  0  0  0  0  0  0  0  0  0
   -4.7989   -3.5354   -1.2846 H   0  0  0  0  0  0  0  0  0  0  0  0
   -6.3677   -2.0748    0.0099 H   0  0  0  0  0  0  0  0  0  0  0  0
   -9.9125   -4.6370    1.0301 C   0  0  0  0  0  0  0  0  0  0  0  0
  -10.4699   -5.7886    1.5780 C   0  0  0  0  0  0  0  0  0  0  0  0
  -10.2013   -7.0548    1.0338 C   0  0  0  0  0  0  0  0  0  0  0  0
   -9.3525   -7.1317   -0.0768 C   0  0  0  0  0  0  0  0  0  0  0  0
   -8.7870   -5.9842   -0.6350 C   0  0  0  0  0  0  0  0  0  0  0  0
   -9.0697   -4.7370   -0.0805 C   0  0  0  0  0  0  0  0  0  0  0  0
  -10.1149   -3.6620    1.4604 H   0  0  0  0  0  0  0  0  0  0  0  0
  -11.1221   -5.7073    2.4448 H   0  0  0  0  0  0  0  0  0  0  0  0
   -9.1288   -8.1032   -0.5107 H   0  0  0  0  0  0  0  0  0  0  0  0
   -8.1226   -6.0459   -1.4902 H   0  0  0  0  0  0  0  0  0  0  0  0
   -8.3958   -3.2481   -0.8346 S   0  0  0  0  0  0  0  0  0  0  0  0
   -8.0753   -2.3439    0.3384 O   0  0  0  0  0  0  0  0  0  0  0  0
   -9.4383   -2.6956   -1.7211 O   0  0  0  0  0  0  0  0  0  0  0  0
   -7.1437   -3.6808   -1.5283 O   0  0  0  0  0  0  0  0  0  0  0  0
  -10.8112   -8.2967    1.6408 C   0  0  0  0  0  0  0  0  0  0  0  0
  -10.4881   -8.4350    2.6793 H   0  0  0  0  0  0  0  0  0  0  0  0
  -11.9061   -8.2389    1.6518 H   0  0  0  0  0  0  0  0  0  0  0  0
  -10.5292   -9.1935    1.0826 H   0  0  0  0  0  0  0  0  0  0  0  0
  1  2  1  0  0  0  0
  2  3  1  0  0  0  0
  4  1  1  0  0  0  0
  4 12  1  0  0  0  0
  5  4  2  0  0  0  0
  6 10  2  0  0  0  0
  6  5  1  0  0  0  0
  7  8  2  0  0  0  0
  7  6  1  0  0  0  0
  9  7  2  0  0  0  0
 10 11  1  0  0  0  0
 11 15  1  0  0  0  0
 11  1  2  0  0  0  0
 13  5  1  0  0  0  0
 14 10  1  0  0  0  0
 16 22  1  0  0  0  0
 16 17  2  0  0  0  0
 17 23  1  0  0  0  0
 18 17  1  0  0  0  0
 18 30  1  0  0  0  0
 19 18  2  0  0  0  0
 20 21  2  0  0  0  0
 20 19  1  0  0  0  0
 21 16  1  0  0  0  0
 24 19  1  0  0  0  0
 25 20  1  0  0  0  0
 26 21  1  0  0  0  0
 26 27  1  0  0  0  0
 28 26  2  0  0  0  0
 29 26  2  0  0  0  0
 30 32  1  0  0  0  0
 30 31  1  0  0  0  0
 33 30  1  0  0  0  0
M  RAD  3   2   2   3   3  27   2
M  END
