Coordinates from ORCA-job 4-NO2PhN2+~TsO-_B3LYPG-6-31G_dp-NX-Scan-d89-09-n800
 OpenBabel11261920283D

 33 33  0  0  0  0  0  0  0  0999 V2000
   -5.4381   -2.4359    0.0585 C   0  0  0  0  0  0  0  0  0  0  0  0
   -6.7658   -2.7397    0.4944 N   0  0  0  0  0  0  0  0  0  0  0  0
   -7.4174   -2.9824    1.3858 N   0  0  0  0  0  0  0  0  0  0  0  0
   -4.5914   -1.8709    1.0219 C   0  0  0  0  0  0  0  0  0  0  0  0
   -3.2801   -1.5914    0.6594 C   0  0  0  0  0  0  0  0  0  0  0  0
   -2.8670   -1.9019   -0.6359 C   0  0  0  0  0  0  0  0  0  0  0  0
   -1.4658   -1.6080   -1.0157 N   0  0  0  0  0  0  0  0  0  0  0  0
   -0.7467   -1.1028   -0.1575 O   0  0  0  0  0  0  0  0  0  0  0  0
   -1.1223   -1.8907   -2.1588 O   0  0  0  0  0  0  0  0  0  0  0  0
   -3.7117   -2.4756   -1.5827 C   0  0  0  0  0  0  0  0  0  0  0  0
   -5.0356   -2.7451   -1.2406 C   0  0  0  0  0  0  0  0  0  0  0  0
   -4.9583   -1.6514    2.0177 H   0  0  0  0  0  0  0  0  0  0  0  0
   -2.5807   -1.1451    1.3545 H   0  0  0  0  0  0  0  0  0  0  0  0
   -3.3343   -2.6997   -2.5720 H   0  0  0  0  0  0  0  0  0  0  0  0
   -5.7334   -3.1916   -1.9428 H   0  0  0  0  0  0  0  0  0  0  0  0
  -10.1734   -4.3047    0.2724 C   0  0  0  0  0  0  0  0  0  0  0  0
  -10.6133   -5.1135    1.3168 C   0  0  0  0  0  0  0  0  0  0  0  0
   -9.9438   -6.3016    1.6470 C   0  0  0  0  0  0  0  0  0  0  0  0
   -8.8139   -6.6592    0.8990 C   0  0  0  0  0  0  0  0  0  0  0  0
   -8.3597   -5.8585   -0.1487 C   0  0  0  0  0  0  0  0  0  0  0  0
   -9.0395   -4.6791   -0.4551 C   0  0  0  0  0  0  0  0  0  0  0  0
  -10.7082   -3.3988    0.0070 H   0  0  0  0  0  0  0  0  0  0  0  0
  -11.4961   -4.8233    1.8809 H   0  0  0  0  0  0  0  0  0  0  0  0
   -8.2873   -7.5807    1.1335 H   0  0  0  0  0  0  0  0  0  0  0  0
   -7.4971   -6.1443   -0.7418 H   0  0  0  0  0  0  0  0  0  0  0  0
   -8.4804   -3.6344   -1.8051 S   0  0  0  0  0  0  0  0  0  0  0  0
   -7.8221   -2.3891   -1.1428 O   0  0  0  0  0  0  0  0  0  0  0  0
   -9.6860   -3.1713   -2.4895 O   0  0  0  0  0  0  0  0  0  0  0  0
   -7.4594   -4.4105   -2.5409 O   0  0  0  0  0  0  0  0  0  0  0  0
  -10.4517   -7.1889    2.7577 C   0  0  0  0  0  0  0  0  0  0  0  0
  -10.8796   -6.6019    3.5760 H   0  0  0  0  0  0  0  0  0  0  0  0
  -11.2403   -7.8599    2.3944 H   0  0  0  0  0  0  0  0  0  0  0  0
   -9.6544   -7.8153    3.1677 H   0  0  0  0  0  0  0  0  0  0  0  0
  1  2  1  0  0  0  0
  1  4  2  0  0  0  0
  2  3  2  0  0  0  0
  4 12  1  0  0  0  0
  5  4  1  0  0  0  0
  5 13  1  0  0  0  0
  6  5  2  0  0  0  0
  7  6  1  0  0  0  0
  7  8  2  0  0  0  0
  9  7  2  0  0  0  0
 10 11  2  0  0  0  0
 10  6  1  0  0  0  0
 11  1  1  0  0  0  0
 14 10  1  0  0  0  0
 15 11  1  0  0  0  0
 16 17  2  0  0  0  0
 17 18  1  0  0  0  0
 17 23  1  0  0  0  0
 18 30  1  0  0  0  0
 19 24  1  0  0  0  0
 19 18  2  0  0  0  0
 20 19  1  0  0  0  0
 21 20  2  0  0  0  0
 21 16  1  0  0  0  0
 22 16  1  0  0  0  0
 25 20  1  0  0  0  0
 26 27  1  0  0  0  0
 26 21  1  0  0  0  0
 28 26  2  0  0  0  0
 29 26  2  0  0  0  0
 30 33  1  0  0  0  0
 30 31  1  0  0  0  0
 32 30  1  0  0  0  0
M  RAD  2   3   2  27   2
M  END
