Coordinates from ORCA-job 4-NO2PhN2+~TsO-_B3LYPG-6-31G_dp-NX-Scan-d89-09-n800
 OpenBabel11261920283D

 33 33  0  0  0  0  0  0  0  0999 V2000
   -5.7520   -2.2948    0.0090 C   0  0  0  0  0  0  0  0  0  0  0  0
   -7.1499   -2.3133    0.3137 N   0  0  0  0  0  0  0  0  0  0  0  0
   -7.9165   -2.2537    1.1421 N   0  0  0  0  0  0  0  0  0  0  0  0
   -4.9151   -1.8591    1.0475 C   0  0  0  0  0  0  0  0  0  0  0  0
   -3.5452   -1.8412    0.8256 C   0  0  0  0  0  0  0  0  0  0  0  0
   -3.0656   -2.2687   -0.4126 C   0  0  0  0  0  0  0  0  0  0  0  0
   -1.6023   -2.2515   -0.6433 N   0  0  0  0  0  0  0  0  0  0  0  0
   -0.8947   -1.8577    0.2801 O   0  0  0  0  0  0  0  0  0  0  0  0
   -1.2015   -2.6324   -1.7380 O   0  0  0  0  0  0  0  0  0  0  0  0
   -3.9003   -2.7099   -1.4348 C   0  0  0  0  0  0  0  0  0  0  0  0
   -5.2798   -2.7217   -1.2320 C   0  0  0  0  0  0  0  0  0  0  0  0
   -5.3348   -1.5402    1.9945 H   0  0  0  0  0  0  0  0  0  0  0  0
   -2.8505   -1.5070    1.5851 H   0  0  0  0  0  0  0  0  0  0  0  0
   -3.4730   -3.0335   -2.3752 H   0  0  0  0  0  0  0  0  0  0  0  0
   -5.9692   -3.0493   -2.0024 H   0  0  0  0  0  0  0  0  0  0  0  0
  -10.1099   -4.2761    0.2239 C   0  0  0  0  0  0  0  0  0  0  0  0
  -10.3457   -5.0842    1.3356 C   0  0  0  0  0  0  0  0  0  0  0  0
   -9.5251   -6.1853    1.6202 C   0  0  0  0  0  0  0  0  0  0  0  0
   -8.4542   -6.4588    0.7564 C   0  0  0  0  0  0  0  0  0  0  0  0
   -8.2036   -5.6579   -0.3574 C   0  0  0  0  0  0  0  0  0  0  0  0
   -9.0307   -4.5632   -0.6167 C   0  0  0  0  0  0  0  0  0  0  0  0
  -10.7615   -3.4401   -0.0062 H   0  0  0  0  0  0  0  0  0  0  0  0
  -11.1852   -4.8621    1.9896 H   0  0  0  0  0  0  0  0  0  0  0  0
   -7.8150   -7.3160    0.9528 H   0  0  0  0  0  0  0  0  0  0  0  0
   -7.3912   -5.8829   -1.0405 H   0  0  0  0  0  0  0  0  0  0  0  0
   -8.7114   -3.5053   -2.0347 S   0  0  0  0  0  0  0  0  0  0  0  0
   -7.9925   -2.2408   -1.4705 O   0  0  0  0  0  0  0  0  0  0  0  0
  -10.0193   -3.0798   -2.5334 O   0  0  0  0  0  0  0  0  0  0  0  0
   -7.7831   -4.2517   -2.9076 O   0  0  0  0  0  0  0  0  0  0  0  0
   -9.8097   -7.0774    2.8052 C   0  0  0  0  0  0  0  0  0  0  0  0
  -10.3227   -6.5329    3.6033 H   0  0  0  0  0  0  0  0  0  0  0  0
  -10.4540   -7.9174    2.5175 H   0  0  0  0  0  0  0  0  0  0  0  0
   -8.8894   -7.5014    3.2177 H   0  0  0  0  0  0  0  0  0  0  0  0
  1  2  1  0  0  0  0
  1  4  2  0  0  0  0
  2  3  2  0  0  0  0
  4 12  1  0  0  0  0
  5  4  1  0  0  0  0
  5 13  1  0  0  0  0
  6  5  2  0  0  0  0
  7  6  1  0  0  0  0
  7  8  2  0  0  0  0
  9  7  2  0  0  0  0
 10 11  2  0  0  0  0
 10  6  1  0  0  0  0
 11  1  1  0  0  0  0
 14 10  1  0  0  0  0
 15 11  1  0  0  0  0
 16 17  2  0  0  0  0
 17 18  1  0  0  0  0
 17 23  1  0  0  0  0
 18 30  1  0  0  0  0
 19 24  1  0  0  0  0
 19 18  2  0  0  0  0
 20 19  1  0  0  0  0
 21 20  2  0  0  0  0
 21 16  1  0  0  0  0
 22 16  1  0  0  0  0
 25 20  1  0  0  0  0
 26 27  1  0  0  0  0
 26 21  1  0  0  0  0
 28 26  2  0  0  0  0
 29 26  2  0  0  0  0
 30 33  1  0  0  0  0
 30 31  1  0  0  0  0
 32 30  1  0  0  0  0
M  RAD  2   3   2  27   2
M  END
