Coordinates from ORCA-job 4-NO2PhN2+~TsO-_B3LYPG-6-31G_dp-NX-Scan-d89-09-n800
 OpenBabel11261920283D

 33 33  0  0  0  0  0  0  0  0999 V2000
   -4.6463   -2.4935    0.4286 C   0  0  0  0  0  0  0  0  0  0  0  0
   -5.5635   -3.1340    1.3115 N   0  0  0  0  0  0  0  0  0  0  0  0
   -5.8015   -3.5096    2.3455 N   0  0  0  0  0  0  0  0  0  0  0  0
   -3.9332   -1.4172    0.9732 C   0  0  0  0  0  0  0  0  0  0  0  0
   -2.9880   -0.7957    0.1671 C   0  0  0  0  0  0  0  0  0  0  0  0
   -2.7873   -1.2839   -1.1233 C   0  0  0  0  0  0  0  0  0  0  0  0
   -1.7673   -0.6234   -1.9710 N   0  0  0  0  0  0  0  0  0  0  0  0
   -1.1656    0.3297   -1.4834 O   0  0  0  0  0  0  0  0  0  0  0  0
   -1.5941   -1.0777   -3.0968 O   0  0  0  0  0  0  0  0  0  0  0  0
   -3.5003   -2.3596   -1.6480 C   0  0  0  0  0  0  0  0  0  0  0  0
   -4.4702   -2.9805   -0.8655 C   0  0  0  0  0  0  0  0  0  0  0  0
   -4.1220   -1.0776    1.9847 H   0  0  0  0  0  0  0  0  0  0  0  0
   -2.4092    0.0485    0.5195 H   0  0  0  0  0  0  0  0  0  0  0  0
   -3.3049   -2.6900   -2.6598 H   0  0  0  0  0  0  0  0  0  0  0  0
   -5.0847   -3.8051   -1.2313 H   0  0  0  0  0  0  0  0  0  0  0  0
   -9.7236   -4.3934    0.9340 C   0  0  0  0  0  0  0  0  0  0  0  0
  -10.6310   -5.1623    1.6614 C   0  0  0  0  0  0  0  0  0  0  0  0
  -10.7599   -6.5398    1.4358 C   0  0  0  0  0  0  0  0  0  0  0  0
   -9.9411   -7.1332    0.4642 C   0  0  0  0  0  0  0  0  0  0  0  0
   -9.0280   -6.3778   -0.2692 C   0  0  0  0  0  0  0  0  0  0  0  0
   -8.9223   -5.0063   -0.0307 C   0  0  0  0  0  0  0  0  0  0  0  0
   -9.6232   -3.3293    1.1189 H   0  0  0  0  0  0  0  0  0  0  0  0
  -11.2493   -4.6849    2.4177 H   0  0  0  0  0  0  0  0  0  0  0  0
  -10.0187   -8.2022    0.2802 H   0  0  0  0  0  0  0  0  0  0  0  0
   -8.3871   -6.8412   -1.0115 H   0  0  0  0  0  0  0  0  0  0  0  0
   -7.7985   -4.0233   -1.0285 S   0  0  0  0  0  0  0  0  0  0  0  0
   -7.2786   -2.9414   -0.0588 O   0  0  0  0  0  0  0  0  0  0  0  0
   -8.5727   -3.4227   -2.1309 O   0  0  0  0  0  0  0  0  0  0  0  0
   -6.6933   -4.9406   -1.4187 O   0  0  0  0  0  0  0  0  0  0  0  0
  -11.7694   -7.3619    2.2025 C   0  0  0  0  0  0  0  0  0  0  0  0
  -12.0478   -6.8796    3.1436 H   0  0  0  0  0  0  0  0  0  0  0  0
  -12.6891   -7.4985    1.6203 H   0  0  0  0  0  0  0  0  0  0  0  0
  -11.3828   -8.3592    2.4334 H   0  0  0  0  0  0  0  0  0  0  0  0
  1  4  1  0  0  0  0
  1  2  1  0  0  0  0
  2  3  2  0  0  0  0
  4 12  1  0  0  0  0
  5 13  1  0  0  0  0
  5  4  2  0  0  0  0
  6  5  1  0  0  0  0
  7  8  2  0  0  0  0
  7  6  1  0  0  0  0
  9  7  2  0  0  0  0
 10  6  2  0  0  0  0
 10 11  1  0  0  0  0
 11  1  2  0  0  0  0
 14 10  1  0  0  0  0
 15 11  1  0  0  0  0
 16 22  1  0  0  0  0
 16 17  2  0  0  0  0
 17 23  1  0  0  0  0
 18 17  1  0  0  0  0
 18 30  1  0  0  0  0
 19 18  2  0  0  0  0
 20 21  2  0  0  0  0
 20 19  1  0  0  0  0
 21 16  1  0  0  0  0
 24 19  1  0  0  0  0
 25 20  1  0  0  0  0
 26 27  1  0  0  0  0
 26 21  1  0  0  0  0
 28 26  2  0  0  0  0
 29 26  2  0  0  0  0
 30 33  1  0  0  0  0
 30 31  1  0  0  0  0
 32 30  1  0  0  0  0
M  RAD  2   3   2  27   2
M  END
