Coordinates from ORCA-job 4-NO2PhN2+~TsO-_B3LYPG-6-31G_dp-NX-Scan-d89-09-n800
 OpenBabel11261920283D

 33 33  0  0  0  0  0  0  0  0999 V2000
   -4.5783   -2.4517    0.5265 C   0  0  0  0  0  0  0  0  0  0  0  0
   -5.4368   -3.0571    1.4822 N   0  0  0  0  0  0  0  0  0  0  0  0
   -5.6629   -3.3821    2.5345 N   0  0  0  0  0  0  0  0  0  0  0  0
   -3.8681   -1.3304    0.9807 C   0  0  0  0  0  0  0  0  0  0  0  0
   -2.9703   -0.7388    0.1026 C   0  0  0  0  0  0  0  0  0  0  0  0
   -2.8109   -1.2975   -1.1653 C   0  0  0  0  0  0  0  0  0  0  0  0
   -1.8395   -0.6661   -2.0896 N   0  0  0  0  0  0  0  0  0  0  0  0
   -1.2437    0.3272   -1.6816 O   0  0  0  0  0  0  0  0  0  0  0  0
   -1.6974   -1.1826   -3.1924 O   0  0  0  0  0  0  0  0  0  0  0  0
   -3.5211   -2.4142   -1.5995 C   0  0  0  0  0  0  0  0  0  0  0  0
   -4.4454   -3.0093   -0.7448 C   0  0  0  0  0  0  0  0  0  0  0  0
   -4.0238   -0.9368    1.9783 H   0  0  0  0  0  0  0  0  0  0  0  0
   -2.3967    0.1358    0.3815 H   0  0  0  0  0  0  0  0  0  0  0  0
   -3.3627   -2.7961   -2.5998 H   0  0  0  0  0  0  0  0  0  0  0  0
   -5.0656   -3.8568   -1.0479 H   0  0  0  0  0  0  0  0  0  0  0  0
   -9.7127   -4.4186    0.9781 C   0  0  0  0  0  0  0  0  0  0  0  0
  -10.6419   -5.1988    1.6654 C   0  0  0  0  0  0  0  0  0  0  0  0
  -10.7949   -6.5629    1.3823 C   0  0  0  0  0  0  0  0  0  0  0  0
   -9.9782   -7.1314    0.3940 C   0  0  0  0  0  0  0  0  0  0  0  0
   -9.0443   -6.3643   -0.2995 C   0  0  0  0  0  0  0  0  0  0  0  0
   -8.9144   -5.0058   -0.0042 C   0  0  0  0  0  0  0  0  0  0  0  0
   -9.5929   -3.3654    1.2078 H   0  0  0  0  0  0  0  0  0  0  0  0
  -11.2583   -4.7410    2.4354 H   0  0  0  0  0  0  0  0  0  0  0  0
  -10.0744   -8.1902    0.1653 H   0  0  0  0  0  0  0  0  0  0  0  0
   -8.4050   -6.8090   -1.0546 H   0  0  0  0  0  0  0  0  0  0  0  0
   -7.7624   -4.0032   -0.9511 S   0  0  0  0  0  0  0  0  0  0  0  0
   -7.2434   -2.9662    0.0592 O   0  0  0  0  0  0  0  0  0  0  0  0
   -8.5175   -3.3759   -2.0560 O   0  0  0  0  0  0  0  0  0  0  0  0
   -6.6634   -4.9255   -1.3565 O   0  0  0  0  0  0  0  0  0  0  0  0
  -11.8253   -7.3974    2.1067 C   0  0  0  0  0  0  0  0  0  0  0  0
  -12.1358   -6.9265    3.0433 H   0  0  0  0  0  0  0  0  0  0  0  0
  -12.7250   -7.5328    1.4935 H   0  0  0  0  0  0  0  0  0  0  0  0
  -11.4417   -8.3956    2.3398 H   0  0  0  0  0  0  0  0  0  0  0  0
  1  4  1  0  0  0  0
  1  2  1  0  0  0  0
  2  3  2  0  0  0  0
  4 12  1  0  0  0  0
  5 13  1  0  0  0  0
  5  4  2  0  0  0  0
  6  5  1  0  0  0  0
  7  8  2  0  0  0  0
  7  6  1  0  0  0  0
  9  7  2  0  0  0  0
 10  6  2  0  0  0  0
 10 11  1  0  0  0  0
 11  1  2  0  0  0  0
 14 10  1  0  0  0  0
 15 11  1  0  0  0  0
 16 22  1  0  0  0  0
 16 17  2  0  0  0  0
 17 23  1  0  0  0  0
 18 17  1  0  0  0  0
 18 30  1  0  0  0  0
 19 18  2  0  0  0  0
 20 21  2  0  0  0  0
 20 19  1  0  0  0  0
 21 16  1  0  0  0  0
 24 19  1  0  0  0  0
 25 20  1  0  0  0  0
 26 21  1  0  0  0  0
 26 27  1  0  0  0  0
 28 26  2  0  0  0  0
 29 26  2  0  0  0  0
 30 33  1  0  0  0  0
 30 31  1  0  0  0  0
 32 30  1  0  0  0  0
M  RAD  2   3   2  27   2
M  END
