Coordinates from ORCA-job 4-NO2PhN2+~TsO-_B3LYPG-6-31G_dp-NX-Scan-d89-09-n800
 OpenBabel11261920283D

 33 33  0  0  0  0  0  0  0  0999 V2000
   -4.7799   -0.6530    0.6361 C   0  0  0  0  0  0  0  0  0  0  0  0
   -5.5322    0.2964    1.2818 N   0  0  0  0  0  0  0  0  0  0  0  0
   -6.1365    1.0643    1.8278 N   0  0  0  0  0  0  0  0  0  0  0  0
   -3.3686   -0.5529    0.7335 C   0  0  0  0  0  0  0  0  0  0  0  0
   -2.6294   -1.5168    0.0824 C   0  0  0  0  0  0  0  0  0  0  0  0
   -3.3026   -2.5338   -0.6171 C   0  0  0  0  0  0  0  0  0  0  0  0
   -2.4711   -3.5647   -1.2888 N   0  0  0  0  0  0  0  0  0  0  0  0
   -1.2511   -3.4456   -1.1852 O   0  0  0  0  0  0  0  0  0  0  0  0
   -3.0579   -4.4544   -1.8890 O   0  0  0  0  0  0  0  0  0  0  0  0
   -4.6857   -2.6256   -0.7034 C   0  0  0  0  0  0  0  0  0  0  0  0
   -5.4674   -1.6531   -0.0750 C   0  0  0  0  0  0  0  0  0  0  0  0
   -2.8991    0.2450    1.2973 H   0  0  0  0  0  0  0  0  0  0  0  0
   -1.5468   -1.5140    0.1039 H   0  0  0  0  0  0  0  0  0  0  0  0
   -5.2018   -3.4093   -1.2522 H   0  0  0  0  0  0  0  0  0  0  0  0
   -6.5725   -1.7015   -0.1111 H   0  0  0  0  0  0  0  0  0  0  0  0
   -9.8263   -4.5887    0.9522 C   0  0  0  0  0  0  0  0  0  0  0  0
  -10.2639   -5.7667    1.5546 C   0  0  0  0  0  0  0  0  0  0  0  0
   -9.9501   -7.0200    1.0095 C   0  0  0  0  0  0  0  0  0  0  0  0
   -9.1833   -7.0600   -0.1631 C   0  0  0  0  0  0  0  0  0  0  0  0
   -8.7387   -5.8886   -0.7747 C   0  0  0  0  0  0  0  0  0  0  0  0
   -9.0622   -4.6519   -0.2147 C   0  0  0  0  0  0  0  0  0  0  0  0
  -10.0658   -3.6218    1.3815 H   0  0  0  0  0  0  0  0  0  0  0  0
  -10.8580   -5.7140    2.4640 H   0  0  0  0  0  0  0  0  0  0  0  0
   -8.9307   -8.0217   -0.6032 H   0  0  0  0  0  0  0  0  0  0  0  0
   -8.1397   -5.9217   -1.6784 H   0  0  0  0  0  0  0  0  0  0  0  0
   -8.5516   -3.1374   -1.0430 S   0  0  0  0  0  0  0  0  0  0  0  0
   -8.2790   -2.1648    0.0846 O   0  0  0  0  0  0  0  0  0  0  0  0
   -9.6666   -2.7199   -1.9152 O   0  0  0  0  0  0  0  0  0  0  0  0
   -7.2899   -3.4852   -1.7669 O   0  0  0  0  0  0  0  0  0  0  0  0
  -10.4006   -8.2938    1.6852 C   0  0  0  0  0  0  0  0  0  0  0  0
   -9.6629   -8.6356    2.4230 H   0  0  0  0  0  0  0  0  0  0  0  0
  -11.3471   -8.1525    2.2161 H   0  0  0  0  0  0  0  0  0  0  0  0
  -10.5361   -9.1040    0.9621 H   0  0  0  0  0  0  0  0  0  0  0  0
  1  4  1  0  0  0  0
  1  2  1  0  0  0  0
  2  3  1  0  0  0  0
  4 12  1  0  0  0  0
  5 13  1  0  0  0  0
  5  4  2  0  0  0  0
  6  5  1  0  0  0  0
  7  8  2  0  0  0  0
  7  6  1  0  0  0  0
  9  7  2  0  0  0  0
 10  6  2  0  0  0  0
 10 11  1  0  0  0  0
 11  1  2  0  0  0  0
 14 10  1  0  0  0  0
 15 11  1  0  0  0  0
 16 22  1  0  0  0  0
 16 17  2  0  0  0  0
 17 23  1  0  0  0  0
 18 17  1  0  0  0  0
 18 30  1  0  0  0  0
 19 18  2  0  0  0  0
 20 21  2  0  0  0  0
 20 19  1  0  0  0  0
 21 16  1  0  0  0  0
 24 19  1  0  0  0  0
 25 20  1  0  0  0  0
 26 21  1  0  0  0  0
 26 27  1  0  0  0  0
 28 26  2  0  0  0  0
 29 26  2  0  0  0  0
 30 32  1  0  0  0  0
 30 31  1  0  0  0  0
 33 30  1  0  0  0  0
M  RAD  3   2   2   3   3  27   2
M  END
