Coordinates from ORCA-job 4-NO2PhN2+~TsO-_B3LYPG-6-31G_dp-NX-Scan-d89-09-n800
 OpenBabel11261920283D

 33 33  0  0  0  0  0  0  0  0999 V2000
   -4.6474   -0.8364    1.0913 C   0  0  0  0  0  0  0  0  0  0  0  0
   -5.2160   -0.1565    2.1398 N   0  0  0  0  0  0  0  0  0  0  0  0
   -5.6034    0.4145    3.0235 N   0  0  0  0  0  0  0  0  0  0  0  0
   -3.2373   -0.7119    0.9737 C   0  0  0  0  0  0  0  0  0  0  0  0
   -2.6273   -1.3900   -0.0588 C   0  0  0  0  0  0  0  0  0  0  0  0
   -3.4192   -2.1657   -0.9200 C   0  0  0  0  0  0  0  0  0  0  0  0
   -2.7170   -2.8911   -2.0131 N   0  0  0  0  0  0  0  0  0  0  0  0
   -1.4914   -2.7782   -2.0486 O   0  0  0  0  0  0  0  0  0  0  0  0
   -3.4045   -3.5375   -2.7875 O   0  0  0  0  0  0  0  0  0  0  0  0
   -4.7987   -2.2912   -0.8036 C   0  0  0  0  0  0  0  0  0  0  0  0
   -5.4534   -1.6017    0.2225 C   0  0  0  0  0  0  0  0  0  0  0  0
   -2.6718   -0.1076    1.6738 H   0  0  0  0  0  0  0  0  0  0  0  0
   -1.5570   -1.3437   -0.2153 H   0  0  0  0  0  0  0  0  0  0  0  0
   -5.4101   -2.9308   -1.4577 H   0  0  0  0  0  0  0  0  0  0  0  0
   -6.5484   -1.7097    0.2861 H   0  0  0  0  0  0  0  0  0  0  0  0
  -10.0378   -4.6372    0.4511 C   0  0  0  0  0  0  0  0  0  0  0  0
  -10.6103   -5.6651    1.1960 C   0  0  0  0  0  0  0  0  0  0  0  0
  -10.0975   -6.9702    1.1447 C   0  0  0  0  0  0  0  0  0  0  0  0
   -8.9895   -7.2164    0.3202 C   0  0  0  0  0  0  0  0  0  0  0  0
   -8.4080   -6.1956   -0.4297 C   0  0  0  0  0  0  0  0  0  0  0  0
   -8.9338   -4.9034   -0.3649 C   0  0  0  0  0  0  0  0  0  0  0  0
  -10.4363   -3.6290    0.4980 H   0  0  0  0  0  0  0  0  0  0  0  0
  -11.4723   -5.4559    1.8254 H   0  0  0  0  0  0  0  0  0  0  0  0
   -8.5800   -8.2226    0.2635 H   0  0  0  0  0  0  0  0  0  0  0  0
   -7.5504   -6.3812   -1.0670 H   0  0  0  0  0  0  0  0  0  0  0  0
   -8.2387   -3.5876   -1.3797 S   0  0  0  0  0  0  0  0  0  0  0  0
   -8.1486   -2.4112   -0.4353 O   0  0  0  0  0  0  0  0  0  0  0  0
   -9.1790   -3.3842   -2.5011 O   0  0  0  0  0  0  0  0  0  0  0  0
   -6.8827   -4.0832   -1.7757 O   0  0  0  0  0  0  0  0  0  0  0  0
  -10.7048   -8.0769    1.9737 C   0  0  0  0  0  0  0  0  0  0  0  0
  -10.1427   -8.2325    2.9033 H   0  0  0  0  0  0  0  0  0  0  0  0
  -11.7374   -7.8483    2.2524 H   0  0  0  0  0  0  0  0  0  0  0  0
  -10.7020   -9.0291    1.4334 H   0  0  0  0  0  0  0  0  0  0  0  0
  1  2  1  0  0  0  0
  2  3  1  0  0  0  0
  4  1  1  0  0  0  0
  4 12  1  0  0  0  0
  5  4  2  0  0  0  0
  6 10  2  0  0  0  0
  6  5  1  0  0  0  0
  7  6  1  0  0  0  0
  8  7  2  0  0  0  0
  9  7  2  0  0  0  0
 10 11  1  0  0  0  0
 11 15  1  0  0  0  0
 11  1  2  0  0  0  0
 13  5  1  0  0  0  0
 14 10  1  0  0  0  0
 16 22  1  0  0  0  0
 16 17  2  0  0  0  0
 17 23  1  0  0  0  0
 18 17  1  0  0  0  0
 18 30  1  0  0  0  0
 19 18  2  0  0  0  0
 20 21  2  0  0  0  0
 20 19  1  0  0  0  0
 21 16  1  0  0  0  0
 24 19  1  0  0  0  0
 25 20  1  0  0  0  0
 26 27  1  0  0  0  0
 26 21  1  0  0  0  0
 28 26  2  0  0  0  0
 29 26  2  0  0  0  0
 30 32  1  0  0  0  0
 30 31  1  0  0  0  0
 33 30  1  0  0  0  0
M  RAD  3   2   2   3   3  27   2
M  END
