Coordinates from ORCA-job 4-NO2PhN2+~TsO-_B3LYPG-6-31G_dp-NX-Scan-d89-09-n800
 OpenBabel11261920283D

 33 34  0  0  0  0  0  0  0  0999 V2000
   -4.4809   -2.9098    0.3157 C   0  0  0  0  0  0  0  0  0  0  0  0
   -4.9940   -3.9038    1.2009 N   0  0  0  0  0  0  0  0  0  0  0  0
   -5.6982   -4.8632    0.8722 N   0  0  0  0  0  0  0  0  0  0  0  0
   -4.4369   -1.6170    0.8609 C   0  0  0  0  0  0  0  0  0  0  0  0
   -3.8929   -0.5651    0.1347 C   0  0  0  0  0  0  0  0  0  0  0  0
   -3.3513   -0.8347   -1.1207 C   0  0  0  0  0  0  0  0  0  0  0  0
   -2.7570    0.2695   -1.8915 N   0  0  0  0  0  0  0  0  0  0  0  0
   -2.7783    1.3914   -1.3867 O   0  0  0  0  0  0  0  0  0  0  0  0
   -2.2770    0.0024   -2.9920 O   0  0  0  0  0  0  0  0  0  0  0  0
   -3.3453   -2.1180   -1.6652 C   0  0  0  0  0  0  0  0  0  0  0  0
   -3.9212   -3.1615   -0.9490 C   0  0  0  0  0  0  0  0  0  0  0  0
   -4.8370   -1.4577    1.8559 H   0  0  0  0  0  0  0  0  0  0  0  0
   -3.8630    0.4445    0.5249 H   0  0  0  0  0  0  0  0  0  0  0  0
   -2.9043   -2.2800   -2.6402 H   0  0  0  0  0  0  0  0  0  0  0  0
   -3.9323   -4.1593   -1.3661 H   0  0  0  0  0  0  0  0  0  0  0  0
   -8.5728   -6.5141    1.3913 C   0  0  0  0  0  0  0  0  0  0  0  0
   -9.7596   -6.2916    2.0858 C   0  0  0  0  0  0  0  0  0  0  0  0
  -10.8287   -5.6007    1.4966 C   0  0  0  0  0  0  0  0  0  0  0  0
  -10.6863   -5.1376    0.1789 C   0  0  0  0  0  0  0  0  0  0  0  0
   -9.5098   -5.3453   -0.5345 C   0  0  0  0  0  0  0  0  0  0  0  0
   -8.4631   -6.0333    0.0852 C   0  0  0  0  0  0  0  0  0  0  0  0
   -7.7498   -7.0555    1.8430 H   0  0  0  0  0  0  0  0  0  0  0  0
   -9.8586   -6.6653    3.1005 H   0  0  0  0  0  0  0  0  0  0  0  0
  -11.5108   -4.6131   -0.2960 H   0  0  0  0  0  0  0  0  0  0  0  0
   -9.4035   -4.9992   -1.5563 H   0  0  0  0  0  0  0  0  0  0  0  0
   -6.9641   -6.3146   -0.8229 S   0  0  0  0  0  0  0  0  0  0  0  0
   -6.2524   -7.4565   -0.2731 O   0  0  0  0  0  0  0  0  0  0  0  0
   -6.0331   -4.9075   -0.4561 O   0  0  0  0  0  0  0  0  0  0  0  0
   -7.1908   -6.1294   -2.2466 O   0  0  0  0  0  0  0  0  0  0  0  0
  -12.1011   -5.3428    2.2651 C   0  0  0  0  0  0  0  0  0  0  0  0
  -12.2092   -6.0319    3.1063 H   0  0  0  0  0  0  0  0  0  0  0  0
  -12.1096   -4.3238    2.6703 H   0  0  0  0  0  0  0  0  0  0  0  0
  -12.9817   -5.4427    1.6234 H   0  0  0  0  0  0  0  0  0  0  0  0
  1  4  1  0  0  0  0
  1  2  1  0  0  0  0
  3  2  1  0  0  0  0
  4 12  1  0  0  0  0
  5 13  1  0  0  0  0
  5  4  2  0  0  0  0
  6  5  1  0  0  0  0
  7  8  2  0  0  0  0
  7  6  1  0  0  0  0
  9  7  2  0  0  0  0
 10  6  2  0  0  0  0
 10 11  1  0  0  0  0
 11  1  2  0  0  0  0
 14 10  1  0  0  0  0
 15 11  1  0  0  0  0
 16 22  1  0  0  0  0
 16 17  2  0  0  0  0
 17 23  1  0  0  0  0
 18 17  1  0  0  0  0
 18 30  1  0  0  0  0
 19 18  2  0  0  0  0
 20 21  2  0  0  0  0
 20 19  1  0  0  0  0
 21 16  1  0  0  0  0
 24 19  1  0  0  0  0
 25 20  1  0  0  0  0
 26 28  1  0  0  0  0
 26 27  2  0  0  0  0
 26 21  1  0  0  0  0
 28  3  1  0  0  0  0
 29 26  2  0  0  0  0
 30 32  1  0  0  0  0
 30 31  1  0  0  0  0
 33 30  1  0  0  0  0
M  RAD  2   2   2   3   2
M  END
