Coordinates from ORCA-job 4-NO2PhN2+~TsO-_B3LYPG-6-31G_dp-NX-Scan-d89-09-n800
 OpenBabel11261920283D

 33 33  0  0  0  0  0  0  0  0999 V2000
   -4.5098   -1.7548    0.4768 C   0  0  0  0  0  0  0  0  0  0  0  0
   -5.3506   -1.5922    1.5754 N   0  0  0  0  0  0  0  0  0  0  0  0
   -5.9592   -1.3188    2.4728 N   0  0  0  0  0  0  0  0  0  0  0  0
   -3.1299   -1.6655    0.7201 C   0  0  0  0  0  0  0  0  0  0  0  0
   -2.2711   -1.7915   -0.3619 C   0  0  0  0  0  0  0  0  0  0  0  0
   -2.8223   -1.9833   -1.6293 C   0  0  0  0  0  0  0  0  0  0  0  0
   -1.8979   -2.1064   -2.7818 N   0  0  0  0  0  0  0  0  0  0  0  0
   -0.6951   -2.0378   -2.5437 O   0  0  0  0  0  0  0  0  0  0  0  0
   -2.3996   -2.2656   -3.8892 O   0  0  0  0  0  0  0  0  0  0  0  0
   -4.1935   -2.0626   -1.8619 C   0  0  0  0  0  0  0  0  0  0  0  0
   -5.0754   -1.9621   -0.7900 C   0  0  0  0  0  0  0  0  0  0  0  0
   -2.7529   -1.5083    1.7241 H   0  0  0  0  0  0  0  0  0  0  0  0
   -1.1963   -1.7394   -0.2446 H   0  0  0  0  0  0  0  0  0  0  0  0
   -4.5580   -2.2176   -2.8694 H   0  0  0  0  0  0  0  0  0  0  0  0
   -6.1568   -2.0471   -0.9060 H   0  0  0  0  0  0  0  0  0  0  0  0
   -9.2925   -5.2397    2.0930 C   0  0  0  0  0  0  0  0  0  0  0  0
  -10.1382   -6.3453    2.1082 C   0  0  0  0  0  0  0  0  0  0  0  0
  -10.7173   -6.8321    0.9260 C   0  0  0  0  0  0  0  0  0  0  0  0
  -10.4242   -6.1774   -0.2772 C   0  0  0  0  0  0  0  0  0  0  0  0
   -9.5796   -5.0679   -0.3076 C   0  0  0  0  0  0  0  0  0  0  0  0
   -9.0133   -4.6050    0.8798 C   0  0  0  0  0  0  0  0  0  0  0  0
   -8.8606   -4.8566    3.0110 H   0  0  0  0  0  0  0  0  0  0  0  0
  -10.3577   -6.8376    3.0525 H   0  0  0  0  0  0  0  0  0  0  0  0
  -10.8665   -6.5379   -1.2023 H   0  0  0  0  0  0  0  0  0  0  0  0
   -9.3636   -4.5508   -1.2359 H   0  0  0  0  0  0  0  0  0  0  0  0
   -7.8847   -3.2153    0.8479 S   0  0  0  0  0  0  0  0  0  0  0  0
   -6.4878   -3.7757    0.8835 O   0  0  0  0  0  0  0  0  0  0  0  0
   -8.1616   -2.4193    2.0879 O   0  0  0  0  0  0  0  0  0  0  0  0
   -8.1450   -2.4787   -0.4214 O   0  0  0  0  0  0  0  0  0  0  0  0
  -11.6586   -8.0127    0.9600 C   0  0  0  0  0  0  0  0  0  0  0  0
  -11.3146   -8.7789    1.6622 H   0  0  0  0  0  0  0  0  0  0  0  0
  -12.6626   -7.7083    1.2818 H   0  0  0  0  0  0  0  0  0  0  0  0
  -11.7579   -8.4747   -0.0262 H   0  0  0  0  0  0  0  0  0  0  0  0
  1  4  1  0  0  0  0
  1  2  1  0  0  0  0
  2  3  1  0  0  0  0
  4 12  1  0  0  0  0
  5 13  1  0  0  0  0
  5  4  2  0  0  0  0
  6  5  1  0  0  0  0
  7  8  2  0  0  0  0
  7  6  1  0  0  0  0
  9  7  2  0  0  0  0
 10  6  2  0  0  0  0
 10 11  1  0  0  0  0
 11  1  2  0  0  0  0
 14 10  1  0  0  0  0
 15 11  1  0  0  0  0
 16 17  1  0  0  0  0
 16 22  1  0  0  0  0
 17 23  1  0  0  0  0
 18 30  1  0  0  0  0
 18 17  2  0  0  0  0
 19 18  1  0  0  0  0
 20 19  2  0  0  0  0
 20 21  1  0  0  0  0
 21 16  2  0  0  0  0
 24 19  1  0  0  0  0
 25 20  1  0  0  0  0
 26 21  1  0  0  0  0
 26 27  2  0  0  0  0
 26 28  1  0  0  0  0
 29 26  2  0  0  0  0
 30 32  1  0  0  0  0
 30 31  1  0  0  0  0
 33 30  1  0  0  0  0
M  RAD  3   2   2   3   3  28   2
M  END
