Coordinates from ORCA-job 4-NO2PhN2+~TsO-_B3LYPG-6-31G_dp-NX-Scan-d89-09-n800
 OpenBabel11261920283D

 33 33  0  0  0  0  0  0  0  0999 V2000
   -4.4813   -1.9735    0.4623 C   0  0  0  0  0  0  0  0  0  0  0  0
   -5.3189   -1.9721    1.5924 N   0  0  0  0  0  0  0  0  0  0  0  0
   -5.7548   -1.6845    2.5828 N   0  0  0  0  0  0  0  0  0  0  0  0
   -3.1032   -1.9076    0.7118 C   0  0  0  0  0  0  0  0  0  0  0  0
   -2.2461   -1.8602   -0.3794 C   0  0  0  0  0  0  0  0  0  0  0  0
   -2.7989   -1.8648   -1.6593 C   0  0  0  0  0  0  0  0  0  0  0  0
   -1.8788   -1.8065   -2.8196 N   0  0  0  0  0  0  0  0  0  0  0  0
   -0.6758   -1.7555   -2.5780 O   0  0  0  0  0  0  0  0  0  0  0  0
   -2.3833   -1.8112   -3.9373 O   0  0  0  0  0  0  0  0  0  0  0  0
   -4.1708   -1.9218   -1.8960 C   0  0  0  0  0  0  0  0  0  0  0  0
   -5.0475   -1.9943   -0.8174 C   0  0  0  0  0  0  0  0  0  0  0  0
   -2.7233   -1.8999    1.7270 H   0  0  0  0  0  0  0  0  0  0  0  0
   -1.1714   -1.8151   -0.2569 H   0  0  0  0  0  0  0  0  0  0  0  0
   -4.5391   -1.9241   -2.9141 H   0  0  0  0  0  0  0  0  0  0  0  0
   -6.1264   -2.0690   -0.9462 H   0  0  0  0  0  0  0  0  0  0  0  0
   -9.4450   -5.0845    2.0984 C   0  0  0  0  0  0  0  0  0  0  0  0
  -10.2800   -6.1989    2.1582 C   0  0  0  0  0  0  0  0  0  0  0  0
  -10.7366   -6.8259    0.9908 C   0  0  0  0  0  0  0  0  0  0  0  0
  -10.3328   -6.3051   -0.2476 C   0  0  0  0  0  0  0  0  0  0  0  0
   -9.4999   -5.1914   -0.3233 C   0  0  0  0  0  0  0  0  0  0  0  0
   -9.0558   -4.5864    0.8543 C   0  0  0  0  0  0  0  0  0  0  0  0
   -9.1067   -4.5896    3.0020 H   0  0  0  0  0  0  0  0  0  0  0  0
  -10.5868   -6.5857    3.1266 H   0  0  0  0  0  0  0  0  0  0  0  0
  -10.6809   -6.7755   -1.1639 H   0  0  0  0  0  0  0  0  0  0  0  0
   -9.2023   -4.7782   -1.2806 H   0  0  0  0  0  0  0  0  0  0  0  0
   -7.9477   -3.1829    0.7716 S   0  0  0  0  0  0  0  0  0  0  0  0
   -6.5434   -3.7695    0.7854 O   0  0  0  0  0  0  0  0  0  0  0  0
   -8.1753   -2.3648    1.9950 O   0  0  0  0  0  0  0  0  0  0  0  0
   -8.2165   -2.4910   -0.5162 O   0  0  0  0  0  0  0  0  0  0  0  0
  -11.6680   -8.0125    1.0607 C   0  0  0  0  0  0  0  0  0  0  0  0
  -11.6027   -8.5166    2.0293 H   0  0  0  0  0  0  0  0  0  0  0  0
  -12.7120   -7.7034    0.9224 H   0  0  0  0  0  0  0  0  0  0  0  0
  -11.4423   -8.7452    0.2793 H   0  0  0  0  0  0  0  0  0  0  0  0
  1  4  1  0  0  0  0
  1  2  1  0  0  0  0
  2  3  1  0  0  0  0
  4 12  1  0  0  0  0
  5 13  1  0  0  0  0
  5  4  2  0  0  0  0
  6  5  1  0  0  0  0
  7  8  2  0  0  0  0
  7  6  1  0  0  0  0
  9  7  2  0  0  0  0
 10  6  2  0  0  0  0
 10 11  1  0  0  0  0
 11  1  2  0  0  0  0
 14 10  1  0  0  0  0
 15 11  1  0  0  0  0
 16 17  1  0  0  0  0
 16 22  1  0  0  0  0
 17 23  1  0  0  0  0
 18 30  1  0  0  0  0
 18 17  2  0  0  0  0
 19 18  1  0  0  0  0
 20 19  2  0  0  0  0
 20 21  1  0  0  0  0
 21 16  2  0  0  0  0
 24 19  1  0  0  0  0
 25 20  1  0  0  0  0
 26 27  2  0  0  0  0
 26 21  1  0  0  0  0
 26 28  1  0  0  0  0
 29 26  2  0  0  0  0
 30 31  1  0  0  0  0
 32 30  1  0  0  0  0
 33 30  1  0  0  0  0
M  RAD  3   2   2   3   3  28   2
M  END
