Coordinates from ORCA-job 4-NO2PhN2+~TsO-_B3LYPG-6-31G_dp-NX-Scan-d89-09-n800
 OpenBabel11261920283D

 33 33  0  0  0  0  0  0  0  0999 V2000
   -4.6624   -0.8419    1.1912 C   0  0  0  0  0  0  0  0  0  0  0  0
   -5.1412   -0.1356    2.2667 N   0  0  0  0  0  0  0  0  0  0  0  0
   -5.4274    0.4593    3.1752 N   0  0  0  0  0  0  0  0  0  0  0  0
   -3.2477   -0.8386    1.0579 C   0  0  0  0  0  0  0  0  0  0  0  0
   -2.7066   -1.5396    0.0027 C   0  0  0  0  0  0  0  0  0  0  0  0
   -3.5695   -2.2108   -0.8755 C   0  0  0  0  0  0  0  0  0  0  0  0
   -2.9405   -2.9489   -2.0029 N   0  0  0  0  0  0  0  0  0  0  0  0
   -1.7177   -3.0891   -1.9503 O   0  0  0  0  0  0  0  0  0  0  0  0
   -3.6775   -3.3490   -2.8888 O   0  0  0  0  0  0  0  0  0  0  0  0
   -4.9556   -2.2221   -0.7493 C   0  0  0  0  0  0  0  0  0  0  0  0
   -5.5370   -1.5163    0.3080 C   0  0  0  0  0  0  0  0  0  0  0  0
   -2.6266   -0.3038    1.7671 H   0  0  0  0  0  0  0  0  0  0  0  0
   -1.6369   -1.5890   -0.1579 H   0  0  0  0  0  0  0  0  0  0  0  0
   -5.6091   -2.8054   -1.4211 H   0  0  0  0  0  0  0  0  0  0  0  0
   -6.6275   -1.5405    0.3910 H   0  0  0  0  0  0  0  0  0  0  0  0
  -10.0205   -4.6325    0.3110 C   0  0  0  0  0  0  0  0  0  0  0  0
  -10.5595   -5.6352    1.1134 C   0  0  0  0  0  0  0  0  0  0  0  0
   -9.9922   -6.9181    1.1498 C   0  0  0  0  0  0  0  0  0  0  0  0
   -8.8638   -7.1683    0.3540 C   0  0  0  0  0  0  0  0  0  0  0  0
   -8.3160   -6.1729   -0.4527 C   0  0  0  0  0  0  0  0  0  0  0  0
   -8.8959   -4.9020   -0.4754 C   0  0  0  0  0  0  0  0  0  0  0  0
  -10.4617   -3.6413    0.2898 H   0  0  0  0  0  0  0  0  0  0  0  0
  -11.4376   -5.4243    1.7193 H   0  0  0  0  0  0  0  0  0  0  0  0
   -8.4118   -8.1578    0.3653 H   0  0  0  0  0  0  0  0  0  0  0  0
   -7.4432   -6.3606   -1.0684 H   0  0  0  0  0  0  0  0  0  0  0  0
   -8.2399   -3.6214   -1.5599 S   0  0  0  0  0  0  0  0  0  0  0  0
   -8.1865   -2.3932   -0.6865 O   0  0  0  0  0  0  0  0  0  0  0  0
   -9.1815   -3.5265   -2.6970 O   0  0  0  0  0  0  0  0  0  0  0  0
   -6.8641   -4.0921   -1.9232 O   0  0  0  0  0  0  0  0  0  0  0  0
  -10.5645   -7.9977    2.0372 C   0  0  0  0  0  0  0  0  0  0  0  0
   -9.9689   -8.1202    2.9507 H   0  0  0  0  0  0  0  0  0  0  0  0
  -11.5879   -7.7639    2.3434 H   0  0  0  0  0  0  0  0  0  0  0  0
  -10.5759   -8.9680    1.5297 H   0  0  0  0  0  0  0  0  0  0  0  0
  1  2  1  0  0  0  0
  2  3  1  0  0  0  0
  4  1  1  0  0  0  0
  4 12  1  0  0  0  0
  5  4  2  0  0  0  0
  6 10  2  0  0  0  0
  6  5  1  0  0  0  0
  7  8  2  0  0  0  0
  7  6  1  0  0  0  0
  9  7  2  0  0  0  0
 10 11  1  0  0  0  0
 11 15  1  0  0  0  0
 11  1  2  0  0  0  0
 13  5  1  0  0  0  0
 14 10  1  0  0  0  0
 16 17  2  0  0  0  0
 17 18  1  0  0  0  0
 17 23  1  0  0  0  0
 18 30  1  0  0  0  0
 19 24  1  0  0  0  0
 19 18  2  0  0  0  0
 20 19  1  0  0  0  0
 21 20  2  0  0  0  0
 21 16  1  0  0  0  0
 22 16  1  0  0  0  0
 25 20  1  0  0  0  0
 26 27  1  0  0  0  0
 26 21  1  0  0  0  0
 28 26  2  0  0  0  0
 29 26  2  0  0  0  0
 30 32  1  0  0  0  0
 30 31  1  0  0  0  0
 33 30  1  0  0  0  0
M  RAD  3   2   2   3   3  27   2
M  END
