Coordinates from ORCA-job 4-NO2PhN2+~TsO-_B3LYPG-6-31G_dp-NX-Scan-d89-09-n800
 OpenBabel11261920283D

 33 33  0  0  0  0  0  0  0  0999 V2000
   -4.5959   -1.5610    0.4004 C   0  0  0  0  0  0  0  0  0  0  0  0
   -5.5858   -1.3434    1.3559 N   0  0  0  0  0  0  0  0  0  0  0  0
   -6.5574   -1.3193    1.9437 N   0  0  0  0  0  0  0  0  0  0  0  0
   -3.2781   -1.2808    0.7958 C   0  0  0  0  0  0  0  0  0  0  0  0
   -2.2566   -1.4597   -0.1252 C   0  0  0  0  0  0  0  0  0  0  0  0
   -2.5914   -1.8897   -1.4091 C   0  0  0  0  0  0  0  0  0  0  0  0
   -1.5001   -2.0685   -2.3950 N   0  0  0  0  0  0  0  0  0  0  0  0
   -0.3560   -1.8382   -2.0121 O   0  0  0  0  0  0  0  0  0  0  0  0
   -1.8152   -2.4317   -3.5234 O   0  0  0  0  0  0  0  0  0  0  0  0
   -3.9001   -2.1540   -1.8049 C   0  0  0  0  0  0  0  0  0  0  0  0
   -4.9367   -1.9982   -0.8893 C   0  0  0  0  0  0  0  0  0  0  0  0
   -3.0735   -0.9383    1.8034 H   0  0  0  0  0  0  0  0  0  0  0  0
   -1.2215   -1.2676    0.1252 H   0  0  0  0  0  0  0  0  0  0  0  0
   -4.0979   -2.4907   -2.8144 H   0  0  0  0  0  0  0  0  0  0  0  0
   -5.9654   -2.2228   -1.1626 H   0  0  0  0  0  0  0  0  0  0  0  0
   -8.6726   -5.8869    1.4739 C   0  0  0  0  0  0  0  0  0  0  0  0
   -9.6414   -6.8620    1.7130 C   0  0  0  0  0  0  0  0  0  0  0  0
  -10.8951   -6.8066    1.0906 C   0  0  0  0  0  0  0  0  0  0  0  0
  -11.1553   -5.7478    0.2061 C   0  0  0  0  0  0  0  0  0  0  0  0
  -10.1985   -4.7687   -0.0461 C   0  0  0  0  0  0  0  0  0  0  0  0
   -8.9592   -4.8445    0.5942 C   0  0  0  0  0  0  0  0  0  0  0  0
   -7.6966   -5.9366    1.9436 H   0  0  0  0  0  0  0  0  0  0  0  0
   -9.4171   -7.6825    2.3902 H   0  0  0  0  0  0  0  0  0  0  0  0
  -12.1184   -5.6948   -0.2952 H   0  0  0  0  0  0  0  0  0  0  0  0
  -10.3949   -3.9617   -0.7440 H   0  0  0  0  0  0  0  0  0  0  0  0
   -7.7343   -3.5745    0.3020 S   0  0  0  0  0  0  0  0  0  0  0  0
   -6.4022   -4.1266    0.6526 O   0  0  0  0  0  0  0  0  0  0  0  0
   -8.1105   -2.4459    1.2762 O   0  0  0  0  0  0  0  0  0  0  0  0
   -7.8825   -3.1365   -1.1079 O   0  0  0  0  0  0  0  0  0  0  0  0
  -11.9493   -7.8532    1.3649 C   0  0  0  0  0  0  0  0  0  0  0  0
  -11.5369   -8.7030    1.9153 H   0  0  0  0  0  0  0  0  0  0  0  0
  -12.7715   -7.4389    1.9612 H   0  0  0  0  0  0  0  0  0  0  0  0
  -12.3865   -8.2325    0.4354 H   0  0  0  0  0  0  0  0  0  0  0  0
  1  4  1  0  0  0  0
  1  2  1  0  0  0  0
  2  3  1  0  0  0  0
  4 12  1  0  0  0  0
  5 13  1  0  0  0  0
  5  4  2  0  0  0  0
  6  5  1  0  0  0  0
  7  8  2  0  0  0  0
  7  6  1  0  0  0  0
  9  7  2  0  0  0  0
 10  6  2  0  0  0  0
 10 11  1  0  0  0  0
 11  1  2  0  0  0  0
 14 10  1  0  0  0  0
 15 11  1  0  0  0  0
 16 17  1  0  0  0  0
 16 22  1  0  0  0  0
 17 23  1  0  0  0  0
 18 30  1  0  0  0  0
 18 17  2  0  0  0  0
 19 18  1  0  0  0  0
 20 19  2  0  0  0  0
 20 21  1  0  0  0  0
 21 16  2  0  0  0  0
 24 19  1  0  0  0  0
 25 20  1  0  0  0  0
 26 21  1  0  0  0  0
 26 27  2  0  0  0  0
 26 28  1  0  0  0  0
 29 26  2  0  0  0  0
 30 31  1  0  0  0  0
 30 32  1  0  0  0  0
 33 30  1  0  0  0  0
M  RAD  3   2   2   3   3  28   2
M  END
