Coordinates from ORCA-job 4-NO2PhN2+~TsO-_B3LYPG-6-31G_dp-NX-Scan-d89-09-n800
 OpenBabel11261920283D

 33 33  0  0  0  0  0  0  0  0999 V2000
   -4.6584   -0.8368    1.2289 C   0  0  0  0  0  0  0  0  0  0  0  0
   -5.1001   -0.1227    2.3153 N   0  0  0  0  0  0  0  0  0  0  0  0
   -5.3474    0.4783    3.2319 N   0  0  0  0  0  0  0  0  0  0  0  0
   -3.2454   -0.8762    1.0828 C   0  0  0  0  0  0  0  0  0  0  0  0
   -2.7337   -1.5832    0.0168 C   0  0  0  0  0  0  0  0  0  0  0  0
   -3.6234   -2.2132   -0.8641 C   0  0  0  0  0  0  0  0  0  0  0  0
   -3.0264   -2.9478   -2.0091 N   0  0  0  0  0  0  0  0  0  0  0  0
   -1.8262   -3.2123   -1.9214 O   0  0  0  0  0  0  0  0  0  0  0  0
   -3.7630   -3.2189   -2.9427 O   0  0  0  0  0  0  0  0  0  0  0  0
   -5.0089   -2.1851   -0.7264 C   0  0  0  0  0  0  0  0  0  0  0  0
   -5.5593   -1.4784    0.3457 C   0  0  0  0  0  0  0  0  0  0  0  0
   -2.6026   -0.3676    1.7921 H   0  0  0  0  0  0  0  0  0  0  0  0
   -1.6669   -1.6670   -0.1497 H   0  0  0  0  0  0  0  0  0  0  0  0
   -5.6780   -2.7462   -1.4011 H   0  0  0  0  0  0  0  0  0  0  0  0
   -6.6464   -1.4727    0.4444 H   0  0  0  0  0  0  0  0  0  0  0  0
  -10.0106   -4.6393    0.2605 C   0  0  0  0  0  0  0  0  0  0  0  0
  -10.5458   -5.6288    1.0818 C   0  0  0  0  0  0  0  0  0  0  0  0
   -9.9662   -6.9046    1.1517 C   0  0  0  0  0  0  0  0  0  0  0  0
   -8.8289   -7.1615    0.3704 C   0  0  0  0  0  0  0  0  0  0  0  0
   -8.2851   -6.1794   -0.4547 C   0  0  0  0  0  0  0  0  0  0  0  0
   -8.8775   -4.9151   -0.5111 C   0  0  0  0  0  0  0  0  0  0  0  0
  -10.4610   -3.6531    0.2136 H   0  0  0  0  0  0  0  0  0  0  0  0
  -11.4303   -5.4129    1.6764 H   0  0  0  0  0  0  0  0  0  0  0  0
   -8.3668   -8.1457    0.4081 H   0  0  0  0  0  0  0  0  0  0  0  0
   -7.4052   -6.3721   -1.0588 H   0  0  0  0  0  0  0  0  0  0  0  0
   -8.2251   -3.6527   -1.6192 S   0  0  0  0  0  0  0  0  0  0  0  0
   -8.2002   -2.4022   -0.7787 O   0  0  0  0  0  0  0  0  0  0  0  0
   -9.1520   -3.6075   -2.7728 O   0  0  0  0  0  0  0  0  0  0  0  0
   -6.8362   -4.1102   -1.9504 O   0  0  0  0  0  0  0  0  0  0  0  0
  -10.5353   -7.9707    2.0572 C   0  0  0  0  0  0  0  0  0  0  0  0
   -9.9242   -8.0952    2.9601 H   0  0  0  0  0  0  0  0  0  0  0  0
  -11.5499   -7.7222    2.3802 H   0  0  0  0  0  0  0  0  0  0  0  0
  -10.5683   -8.9443    1.5567 H   0  0  0  0  0  0  0  0  0  0  0  0
  1  2  1  0  0  0  0
  2  3  1  0  0  0  0
  4  1  1  0  0  0  0
  4 12  1  0  0  0  0
  5  4  2  0  0  0  0
  6 10  2  0  0  0  0
  6  5  1  0  0  0  0
  7  8  2  0  0  0  0
  7  6  1  0  0  0  0
  9  7  2  0  0  0  0
 10 11  1  0  0  0  0
 11 15  1  0  0  0  0
 11  1  2  0  0  0  0
 13  5  1  0  0  0  0
 14 10  1  0  0  0  0
 16 17  2  0  0  0  0
 17 18  1  0  0  0  0
 17 23  1  0  0  0  0
 18 30  1  0  0  0  0
 19 24  1  0  0  0  0
 19 18  2  0  0  0  0
 20 19  1  0  0  0  0
 21 20  2  0  0  0  0
 21 16  1  0  0  0  0
 22 16  1  0  0  0  0
 25 20  1  0  0  0  0
 26 27  1  0  0  0  0
 26 21  1  0  0  0  0
 28 26  2  0  0  0  0
 29 26  2  0  0  0  0
 30 32  1  0  0  0  0
 30 31  1  0  0  0  0
 33 30  1  0  0  0  0
M  RAD  3   2   2   3   3  27   2
M  END
