Coordinates from ORCA-job 4-NO2PhN2+~TsO-_B3LYPG-6-31G_dp-NX-Scan-d89-09-n800
 OpenBabel11261920283D

 33 33  0  0  0  0  0  0  0  0999 V2000
   -4.8128   -0.6494    0.7477 C   0  0  0  0  0  0  0  0  0  0  0  0
   -5.4101    0.3833    1.4226 N   0  0  0  0  0  0  0  0  0  0  0  0
   -5.8485    1.2353    2.0055 N   0  0  0  0  0  0  0  0  0  0  0  0
   -3.4104   -0.7896    0.9241 C   0  0  0  0  0  0  0  0  0  0  0  0
   -2.7886   -1.8155    0.2474 C   0  0  0  0  0  0  0  0  0  0  0  0
   -3.5665   -2.6688   -0.5531 C   0  0  0  0  0  0  0  0  0  0  0  0
   -2.8657   -3.7810   -1.2433 N   0  0  0  0  0  0  0  0  0  0  0  0
   -1.6527   -3.8705   -1.0553 O   0  0  0  0  0  0  0  0  0  0  0  0
   -3.5423   -4.5253   -1.9383 O   0  0  0  0  0  0  0  0  0  0  0  0
   -4.9394   -2.5336   -0.7166 C   0  0  0  0  0  0  0  0  0  0  0  0
   -5.6007   -1.4852   -0.0701 C   0  0  0  0  0  0  0  0  0  0  0  0
   -2.8602   -0.1150    1.5700 H   0  0  0  0  0  0  0  0  0  0  0  0
   -1.7227   -1.9864    0.3291 H   0  0  0  0  0  0  0  0  0  0  0  0
   -5.5432   -3.2010   -1.3352 H   0  0  0  0  0  0  0  0  0  0  0  0
   -6.6933   -1.3896   -0.1866 H   0  0  0  0  0  0  0  0  0  0  0  0
   -9.7889   -4.5207    0.8064 C   0  0  0  0  0  0  0  0  0  0  0  0
  -10.1185   -5.6890    1.4904 C   0  0  0  0  0  0  0  0  0  0  0  0
   -9.7044   -6.9447    1.0225 C   0  0  0  0  0  0  0  0  0  0  0  0
   -8.9487   -6.9965   -0.1562 C   0  0  0  0  0  0  0  0  0  0  0  0
   -8.6116   -5.8341   -0.8496 C   0  0  0  0  0  0  0  0  0  0  0  0
   -9.0332   -4.5952   -0.3658 C   0  0  0  0  0  0  0  0  0  0  0  0
  -10.1061   -3.5516    1.1763 H   0  0  0  0  0  0  0  0  0  0  0  0
  -10.7066   -5.6269    2.4032 H   0  0  0  0  0  0  0  0  0  0  0  0
   -8.6198   -7.9602   -0.5376 H   0  0  0  0  0  0  0  0  0  0  0  0
   -8.0216   -5.8759   -1.7587 H   0  0  0  0  0  0  0  0  0  0  0  0
   -8.6607   -3.0979   -1.2945 S   0  0  0  0  0  0  0  0  0  0  0  0
   -8.4209   -2.0494   -0.2315 O   0  0  0  0  0  0  0  0  0  0  0  0
   -9.8336   -2.8156   -2.1464 O   0  0  0  0  0  0  0  0  0  0  0  0
   -7.4059   -3.4018   -2.0499 O   0  0  0  0  0  0  0  0  0  0  0  0
  -10.0404   -8.2044    1.7857 C   0  0  0  0  0  0  0  0  0  0  0  0
   -9.2936   -8.4111    2.5631 H   0  0  0  0  0  0  0  0  0  0  0  0
  -11.0114   -8.1235    2.2842 H   0  0  0  0  0  0  0  0  0  0  0  0
  -10.0715   -9.0760    1.1250 H   0  0  0  0  0  0  0  0  0  0  0  0
  1  4  1  0  0  0  0
  1  2  1  0  0  0  0
  2  3  1  0  0  0  0
  4 12  1  0  0  0  0
  5 13  1  0  0  0  0
  5  4  2  0  0  0  0
  6  5  1  0  0  0  0
  7  8  2  0  0  0  0
  7  6  1  0  0  0  0
  9  7  2  0  0  0  0
 10  6  2  0  0  0  0
 10 11  1  0  0  0  0
 11  1  2  0  0  0  0
 14 10  1  0  0  0  0
 15 11  1  0  0  0  0
 16 22  1  0  0  0  0
 16 17  2  0  0  0  0
 17 23  1  0  0  0  0
 18 17  1  0  0  0  0
 18 30  1  0  0  0  0
 19 18  2  0  0  0  0
 20 21  2  0  0  0  0
 20 19  1  0  0  0  0
 21 16  1  0  0  0  0
 24 19  1  0  0  0  0
 25 20  1  0  0  0  0
 26 21  1  0  0  0  0
 26 27  1  0  0  0  0
 28 26  2  0  0  0  0
 29 26  2  0  0  0  0
 30 32  1  0  0  0  0
 30 31  1  0  0  0  0
 33 30  1  0  0  0  0
M  RAD  3   2   2   3   3  27   2
M  END
