Coordinates from ORCA-job 4-NO2PhN2+~TsO-_B3LYPG-6-31G_dp-NX-Scan-d89-09-n800
 OpenBabel11261920283D

 33 33  0  0  0  0  0  0  0  0999 V2000
   -5.0752   -2.6864    0.0465 C   0  0  0  0  0  0  0  0  0  0  0  0
   -6.2379   -3.3468    0.5474 N   0  0  0  0  0  0  0  0  0  0  0  0
   -6.6896   -3.9536    1.3857 N   0  0  0  0  0  0  0  0  0  0  0  0
   -4.3064   -1.9884    0.9840 C   0  0  0  0  0  0  0  0  0  0  0  0
   -3.1490   -1.3601    0.5391 C   0  0  0  0  0  0  0  0  0  0  0  0
   -2.8057   -1.4714   -0.8068 C   0  0  0  0  0  0  0  0  0  0  0  0
   -1.5674   -0.8064   -1.2720 N   0  0  0  0  0  0  0  0  0  0  0  0
   -0.9156   -0.1865   -0.4355 O   0  0  0  0  0  0  0  0  0  0  0  0
   -1.2782   -0.9229   -2.4586 O   0  0  0  0  0  0  0  0  0  0  0  0
   -3.5731   -2.1805   -1.7291 C   0  0  0  0  0  0  0  0  0  0  0  0
   -4.7468   -2.7968   -1.3045 C   0  0  0  0  0  0  0  0  0  0  0  0
   -4.6137   -1.9328    2.0220 H   0  0  0  0  0  0  0  0  0  0  0  0
   -2.5152   -0.7951    1.2105 H   0  0  0  0  0  0  0  0  0  0  0  0
   -3.2529   -2.2365   -2.7617 H   0  0  0  0  0  0  0  0  0  0  0  0
   -5.3883   -3.3646   -1.9710 H   0  0  0  0  0  0  0  0  0  0  0  0
   -9.9910   -4.2516    0.4662 C   0  0  0  0  0  0  0  0  0  0  0  0
  -10.6552   -4.9907    1.4391 C   0  0  0  0  0  0  0  0  0  0  0  0
  -10.3414   -6.3414    1.6666 C   0  0  0  0  0  0  0  0  0  0  0  0
   -9.3366   -6.9307    0.8904 C   0  0  0  0  0  0  0  0  0  0  0  0
   -8.6596   -6.2016   -0.0892 C   0  0  0  0  0  0  0  0  0  0  0  0
   -8.9873   -4.8619   -0.2954 C   0  0  0  0  0  0  0  0  0  0  0  0
  -10.2444   -3.2110    0.2927 H   0  0  0  0  0  0  0  0  0  0  0  0
  -11.4332   -4.5159    2.0319 H   0  0  0  0  0  0  0  0  0  0  0  0
   -9.0797   -7.9741    1.0525 H   0  0  0  0  0  0  0  0  0  0  0  0
   -7.8833   -6.6570   -0.6945 H   0  0  0  0  0  0  0  0  0  0  0  0
   -8.1573   -3.9184   -1.5772 S   0  0  0  0  0  0  0  0  0  0  0  0
   -7.5745   -2.6880   -0.8353 O   0  0  0  0  0  0  0  0  0  0  0  0
   -9.1789   -3.4581   -2.5161 O   0  0  0  0  0  0  0  0  0  0  0  0
   -7.0555   -4.7739   -2.0777 O   0  0  0  0  0  0  0  0  0  0  0  0
  -11.0882   -7.1357    2.7115 C   0  0  0  0  0  0  0  0  0  0  0  0
  -11.1722   -6.5803    3.6516 H   0  0  0  0  0  0  0  0  0  0  0  0
  -12.1083   -7.3613    2.3789 H   0  0  0  0  0  0  0  0  0  0  0  0
  -10.5928   -8.0869    2.9226 H   0  0  0  0  0  0  0  0  0  0  0  0
  1  2  1  0  0  0  0
  1  4  2  0  0  0  0
  2  3  2  0  0  0  0
  4 12  1  0  0  0  0
  5  4  1  0  0  0  0
  5 13  1  0  0  0  0
  6  5  2  0  0  0  0
  7  6  1  0  0  0  0
  7  8  2  0  0  0  0
  9  7  2  0  0  0  0
 10 11  2  0  0  0  0
 10  6  1  0  0  0  0
 11  1  1  0  0  0  0
 14 10  1  0  0  0  0
 15 11  1  0  0  0  0
 16 17  2  0  0  0  0
 17 18  1  0  0  0  0
 17 23  1  0  0  0  0
 18 30  1  0  0  0  0
 19 24  1  0  0  0  0
 19 18  2  0  0  0  0
 20 19  1  0  0  0  0
 21 20  2  0  0  0  0
 21 16  1  0  0  0  0
 22 16  1  0  0  0  0
 25 20  1  0  0  0  0
 26 27  1  0  0  0  0
 26 21  1  0  0  0  0
 28 26  2  0  0  0  0
 29 26  2  0  0  0  0
 30 33  1  0  0  0  0
 30 31  1  0  0  0  0
 32 30  1  0  0  0  0
M  RAD  2   3   2  27   2
M  END
