Coordinates from ORCA-job 4-NO2PhN2+~TsO-_B3LYPG-6-31G_dp-NX-Scan-d89-09-n800
 OpenBabel11261920283D

 33 34  0  0  0  0  0  0  0  0999 V2000
   -4.4801   -2.8971    0.3156 C   0  0  0  0  0  0  0  0  0  0  0  0
   -4.9982   -3.8866    1.2015 N   0  0  0  0  0  0  0  0  0  0  0  0
   -5.7005   -4.8481    0.8923 N   0  0  0  0  0  0  0  0  0  0  0  0
   -4.4060   -1.6100    0.8711 C   0  0  0  0  0  0  0  0  0  0  0  0
   -3.8579   -0.5609    0.1439 C   0  0  0  0  0  0  0  0  0  0  0  0
   -3.3426   -0.8293   -1.1226 C   0  0  0  0  0  0  0  0  0  0  0  0
   -2.7434    0.2719   -1.8950 N   0  0  0  0  0  0  0  0  0  0  0  0
   -2.7368    1.3892   -1.3801 O   0  0  0  0  0  0  0  0  0  0  0  0
   -2.2879    0.0061   -3.0059 O   0  0  0  0  0  0  0  0  0  0  0  0
   -3.3667   -2.1077   -1.6777 C   0  0  0  0  0  0  0  0  0  0  0  0
   -3.9470   -3.1483   -0.9606 C   0  0  0  0  0  0  0  0  0  0  0  0
   -4.7864   -1.4530    1.8741 H   0  0  0  0  0  0  0  0  0  0  0  0
   -3.8048    0.4448    0.5415 H   0  0  0  0  0  0  0  0  0  0  0  0
   -2.9450   -2.2686   -2.6614 H   0  0  0  0  0  0  0  0  0  0  0  0
   -3.9822   -4.1421   -1.3851 H   0  0  0  0  0  0  0  0  0  0  0  0
   -8.5758   -6.5126    1.3978 C   0  0  0  0  0  0  0  0  0  0  0  0
   -9.7658   -6.2927    2.0879 C   0  0  0  0  0  0  0  0  0  0  0  0
  -10.8360   -5.6089    1.4927 C   0  0  0  0  0  0  0  0  0  0  0  0
  -10.6914   -5.1507    0.1737 C   0  0  0  0  0  0  0  0  0  0  0  0
   -9.5116   -5.3563   -0.5351 C   0  0  0  0  0  0  0  0  0  0  0  0
   -8.4634   -6.0364    0.0904 C   0  0  0  0  0  0  0  0  0  0  0  0
   -7.7521   -7.0493    1.8539 H   0  0  0  0  0  0  0  0  0  0  0  0
   -9.8666   -6.6634    3.1036 H   0  0  0  0  0  0  0  0  0  0  0  0
  -11.5168   -4.6319   -0.3061 H   0  0  0  0  0  0  0  0  0  0  0  0
   -9.4039   -5.0145   -1.5583 H   0  0  0  0  0  0  0  0  0  0  0  0
   -6.9592   -6.3150   -0.8121 S   0  0  0  0  0  0  0  0  0  0  0  0
   -6.2446   -7.4494   -0.2493 O   0  0  0  0  0  0  0  0  0  0  0  0
   -6.0434   -4.9064   -0.4644 O   0  0  0  0  0  0  0  0  0  0  0  0
   -7.1896   -6.1525   -2.2386 O   0  0  0  0  0  0  0  0  0  0  0  0
  -12.1120   -5.3537    2.2564 C   0  0  0  0  0  0  0  0  0  0  0  0
  -12.2215   -6.0426    3.0976 H   0  0  0  0  0  0  0  0  0  0  0  0
  -12.1249   -4.3344    2.6610 H   0  0  0  0  0  0  0  0  0  0  0  0
  -12.9901   -5.4564    1.6116 H   0  0  0  0  0  0  0  0  0  0  0  0
  1  4  1  0  0  0  0
  1  2  1  0  0  0  0
  3  2  1  0  0  0  0
  4 12  1  0  0  0  0
  5 13  1  0  0  0  0
  5  4  2  0  0  0  0
  6  5  1  0  0  0  0
  7  8  2  0  0  0  0
  7  6  1  0  0  0  0
  9  7  2  0  0  0  0
 10  6  2  0  0  0  0
 10 11  1  0  0  0  0
 11  1  2  0  0  0  0
 14 10  1  0  0  0  0
 15 11  1  0  0  0  0
 16 22  1  0  0  0  0
 16 17  2  0  0  0  0
 17 23  1  0  0  0  0
 18 17  1  0  0  0  0
 18 30  1  0  0  0  0
 19 18  2  0  0  0  0
 20 21  2  0  0  0  0
 20 19  1  0  0  0  0
 21 16  1  0  0  0  0
 24 19  1  0  0  0  0
 25 20  1  0  0  0  0
 26 28  1  0  0  0  0
 26 27  2  0  0  0  0
 26 21  1  0  0  0  0
 28  3  1  0  0  0  0
 29 26  2  0  0  0  0
 30 32  1  0  0  0  0
 30 31  1  0  0  0  0
 33 30  1  0  0  0  0
M  RAD  2   2   2   3   2
M  END
