Coordinates from ORCA-job 4-NO2PhN2+~TsO-_B3LYPG-6-31G_dp-NX-Scan-d89-09-n800
 OpenBabel11261920283D

 33 33  0  0  0  0  0  0  0  0999 V2000
   -4.6526   -0.8369    1.1042 C   0  0  0  0  0  0  0  0  0  0  0  0
   -5.2118   -0.1505    2.1533 N   0  0  0  0  0  0  0  0  0  0  0  0
   -5.5909    0.4255    3.0378 N   0  0  0  0  0  0  0  0  0  0  0  0
   -3.2409   -0.7318    0.9874 C   0  0  0  0  0  0  0  0  0  0  0  0
   -2.6398   -1.4167   -0.0458 C   0  0  0  0  0  0  0  0  0  0  0  0
   -3.4417   -2.1786   -0.9099 C   0  0  0  0  0  0  0  0  0  0  0  0
   -2.7483   -2.9099   -2.0047 N   0  0  0  0  0  0  0  0  0  0  0  0
   -1.5202   -2.8240   -2.0308 O   0  0  0  0  0  0  0  0  0  0  0  0
   -3.4452   -3.5285   -2.7931 O   0  0  0  0  0  0  0  0  0  0  0  0
   -4.8231   -2.2853   -0.7954 C   0  0  0  0  0  0  0  0  0  0  0  0
   -5.4682   -1.5900    0.2328 C   0  0  0  0  0  0  0  0  0  0  0  0
   -2.6676   -0.1366    1.6888 H   0  0  0  0  0  0  0  0  0  0  0  0
   -1.5687   -1.3859   -0.2009 H   0  0  0  0  0  0  0  0  0  0  0  0
   -5.4419   -2.9163   -1.4523 H   0  0  0  0  0  0  0  0  0  0  0  0
   -6.5631   -1.6851    0.2968 H   0  0  0  0  0  0  0  0  0  0  0  0
  -10.0319   -4.6330    0.4346 C   0  0  0  0  0  0  0  0  0  0  0  0
  -10.5973   -5.6587    1.1882 C   0  0  0  0  0  0  0  0  0  0  0  0
  -10.0777   -6.9614    1.1448 C   0  0  0  0  0  0  0  0  0  0  0  0
   -8.9705   -7.2076    0.3192 C   0  0  0  0  0  0  0  0  0  0  0  0
   -8.3963   -6.1892   -0.4393 C   0  0  0  0  0  0  0  0  0  0  0  0
   -8.9286   -4.8991   -0.3823 C   0  0  0  0  0  0  0  0  0  0  0  0
  -10.4358   -3.6267    0.4753 H   0  0  0  0  0  0  0  0  0  0  0  0
  -11.4588   -5.4497    1.8182 H   0  0  0  0  0  0  0  0  0  0  0  0
   -8.5559   -8.2120    0.2686 H   0  0  0  0  0  0  0  0  0  0  0  0
   -7.5393   -6.3747   -1.0775 H   0  0  0  0  0  0  0  0  0  0  0  0
   -8.2425   -3.5865   -1.4074 S   0  0  0  0  0  0  0  0  0  0  0  0
   -8.1533   -2.4044   -0.4709 O   0  0  0  0  0  0  0  0  0  0  0  0
   -9.1874   -3.3950   -2.5271 O   0  0  0  0  0  0  0  0  0  0  0  0
   -6.8857   -4.0794   -1.8053 O   0  0  0  0  0  0  0  0  0  0  0  0
  -10.6771   -8.0655    1.9830 C   0  0  0  0  0  0  0  0  0  0  0  0
  -10.1093   -8.2146    2.9102 H   0  0  0  0  0  0  0  0  0  0  0  0
  -11.7088   -7.8385    2.2663 H   0  0  0  0  0  0  0  0  0  0  0  0
  -10.6745   -9.0205    1.4477 H   0  0  0  0  0  0  0  0  0  0  0  0
  1  2  1  0  0  0  0
  2  3  1  0  0  0  0
  4  1  1  0  0  0  0
  4 12  1  0  0  0  0
  5  4  2  0  0  0  0
  6 10  2  0  0  0  0
  6  5  1  0  0  0  0
  7  6  1  0  0  0  0
  8  7  2  0  0  0  0
  9  7  2  0  0  0  0
 10 11  1  0  0  0  0
 11 15  1  0  0  0  0
 11  1  2  0  0  0  0
 13  5  1  0  0  0  0
 14 10  1  0  0  0  0
 16 22  1  0  0  0  0
 16 17  2  0  0  0  0
 17 23  1  0  0  0  0
 18 17  1  0  0  0  0
 18 30  1  0  0  0  0
 19 18  2  0  0  0  0
 20 21  2  0  0  0  0
 20 19  1  0  0  0  0
 21 16  1  0  0  0  0
 24 19  1  0  0  0  0
 25 20  1  0  0  0  0
 26 27  1  0  0  0  0
 26 21  1  0  0  0  0
 28 26  2  0  0  0  0
 29 26  2  0  0  0  0
 30 32  1  0  0  0  0
 30 31  1  0  0  0  0
 33 30  1  0  0  0  0
M  RAD  3   2   2   3   3  27   2
M  END
