Coordinates from ORCA-job 4-NO2PhN2+~TsO-_B3LYPG-6-31G_dp-NX-Scan-d89-09-n800
 OpenBabel11261920283D

 33 33  0  0  0  0  0  0  0  0999 V2000
   -4.5356   -0.6943    1.2711 C   0  0  0  0  0  0  0  0  0  0  0  0
   -4.8910    0.0775    2.3509 N   0  0  0  0  0  0  0  0  0  0  0  0
   -5.0437    0.7226    3.2612 N   0  0  0  0  0  0  0  0  0  0  0  0
   -3.1430   -0.7010    0.9928 C   0  0  0  0  0  0  0  0  0  0  0  0
   -2.7049   -1.4692   -0.0637 C   0  0  0  0  0  0  0  0  0  0  0  0
   -3.6383   -2.2253   -0.7838 C   0  0  0  0  0  0  0  0  0  0  0  0
   -3.1011   -3.0716   -1.8801 N   0  0  0  0  0  0  0  0  0  0  0  0
   -1.9710   -2.7879   -2.2824 O   0  0  0  0  0  0  0  0  0  0  0  0
   -3.8089   -3.9791   -2.2819 O   0  0  0  0  0  0  0  0  0  0  0  0
   -5.0098   -2.2278   -0.5248 C   0  0  0  0  0  0  0  0  0  0  0  0
   -5.4863   -1.4257    0.5145 C   0  0  0  0  0  0  0  0  0  0  0  0
   -2.4575   -0.1192    1.5981 H   0  0  0  0  0  0  0  0  0  0  0  0
   -1.6595   -1.5058   -0.3436 H   0  0  0  0  0  0  0  0  0  0  0  0
   -5.7150   -2.8520   -1.1100 H   0  0  0  0  0  0  0  0  0  0  0  0
   -6.5578   -1.3963    0.7011 H   0  0  0  0  0  0  0  0  0  0  0  0
  -10.0407   -4.6741    0.2274 C   0  0  0  0  0  0  0  0  0  0  0  0
  -10.5828   -5.6688    1.0381 C   0  0  0  0  0  0  0  0  0  0  0  0
  -10.0147   -6.9505    1.0902 C   0  0  0  0  0  0  0  0  0  0  0  0
   -8.8803   -7.2083    0.3030 C   0  0  0  0  0  0  0  0  0  0  0  0
   -8.3310   -6.2223   -0.5119 C   0  0  0  0  0  0  0  0  0  0  0  0
   -8.9138   -4.9514   -0.5530 C   0  0  0  0  0  0  0  0  0  0  0  0
  -10.4781   -3.6816    0.1948 H   0  0  0  0  0  0  0  0  0  0  0  0
  -11.4627   -5.4522    1.6392 H   0  0  0  0  0  0  0  0  0  0  0  0
   -8.4259   -8.1964    0.3298 H   0  0  0  0  0  0  0  0  0  0  0  0
   -7.4519   -6.4148   -1.1174 H   0  0  0  0  0  0  0  0  0  0  0  0
   -8.2571   -3.6872   -1.6567 S   0  0  0  0  0  0  0  0  0  0  0  0
   -8.3278   -2.4191   -0.8556 O   0  0  0  0  0  0  0  0  0  0  0  0
   -9.1186   -3.7313   -2.8634 O   0  0  0  0  0  0  0  0  0  0  0  0
   -6.8328   -4.0959   -1.8980 O   0  0  0  0  0  0  0  0  0  0  0  0
  -10.5926   -8.0248    1.9799 C   0  0  0  0  0  0  0  0  0  0  0  0
   -9.9413   -8.2233    2.8403 H   0  0  0  0  0  0  0  0  0  0  0  0
  -11.5737   -7.7386    2.3679 H   0  0  0  0  0  0  0  0  0  0  0  0
  -10.7055   -8.9716    1.4407 H   0  0  0  0  0  0  0  0  0  0  0  0
  1  2  1  0  0  0  0
  2  3  1  0  0  0  0
  4  1  1  0  0  0  0
  4 12  1  0  0  0  0
  5  4  2  0  0  0  0
  6 10  2  0  0  0  0
  6  5  1  0  0  0  0
  7  6  1  0  0  0  0
  8  7  2  0  0  0  0
  9  7  2  0  0  0  0
 10 11  1  0  0  0  0
 11 15  1  0  0  0  0
 11  1  2  0  0  0  0
 13  5  1  0  0  0  0
 14 10  1  0  0  0  0
 16 17  2  0  0  0  0
 17 18  1  0  0  0  0
 17 23  1  0  0  0  0
 18 30  1  0  0  0  0
 19 24  1  0  0  0  0
 19 18  2  0  0  0  0
 20 19  1  0  0  0  0
 21 20  2  0  0  0  0
 21 16  1  0  0  0  0
 22 16  1  0  0  0  0
 25 20  1  0  0  0  0
 26 27  1  0  0  0  0
 26 21  1  0  0  0  0
 28 26  2  0  0  0  0
 29 26  2  0  0  0  0
 30 32  1  0  0  0  0
 30 31  1  0  0  0  0
 33 30  1  0  0  0  0
M  RAD  3   2   2   3   3  27   2
M  END
