Coordinates from ORCA-job 4-NO2PhN2+~TsO-_B3LYPG-6-31G_dp-NX-Scan-d89-09-n800
 OpenBabel11261920283D

 33 33  0  0  0  0  0  0  0  0999 V2000
   -4.4570   -2.1151    0.3706 C   0  0  0  0  0  0  0  0  0  0  0  0
   -5.3478   -2.6768    1.3069 N   0  0  0  0  0  0  0  0  0  0  0  0
   -6.3101   -3.3105    1.4252 N   0  0  0  0  0  0  0  0  0  0  0  0
   -3.3769   -1.4070    0.9157 C   0  0  0  0  0  0  0  0  0  0  0  0
   -2.4462   -0.8308    0.0608 C   0  0  0  0  0  0  0  0  0  0  0  0
   -2.6269   -0.9862   -1.3123 C   0  0  0  0  0  0  0  0  0  0  0  0
   -1.6361   -0.3729   -2.2268 N   0  0  0  0  0  0  0  0  0  0  0  0
   -0.7032    0.2397   -1.7141 O   0  0  0  0  0  0  0  0  0  0  0  0
   -1.8168   -0.5185   -3.4316 O   0  0  0  0  0  0  0  0  0  0  0  0
   -3.6967   -1.6908   -1.8615 C   0  0  0  0  0  0  0  0  0  0  0  0
   -4.6375   -2.2680   -1.0144 C   0  0  0  0  0  0  0  0  0  0  0  0
   -3.2812   -1.3200    1.9922 H   0  0  0  0  0  0  0  0  0  0  0  0
   -1.5953   -0.2742    0.4314 H   0  0  0  0  0  0  0  0  0  0  0  0
   -3.7823   -1.7808   -2.9374 H   0  0  0  0  0  0  0  0  0  0  0  0
   -5.4897   -2.8239   -1.3857 H   0  0  0  0  0  0  0  0  0  0  0  0
   -8.7915   -6.2197    1.5820 C   0  0  0  0  0  0  0  0  0  0  0  0
  -10.0307   -6.5351    2.1374 C   0  0  0  0  0  0  0  0  0  0  0  0
  -11.2171   -6.3535    1.4130 C   0  0  0  0  0  0  0  0  0  0  0  0
  -11.1303   -5.8565    0.1041 C   0  0  0  0  0  0  0  0  0  0  0  0
   -9.9001   -5.5383   -0.4668 C   0  0  0  0  0  0  0  0  0  0  0  0
   -8.7353   -5.7172    0.2817 C   0  0  0  0  0  0  0  0  0  0  0  0
   -7.8722   -6.3766    2.1352 H   0  0  0  0  0  0  0  0  0  0  0  0
  -10.0761   -6.9359    3.1465 H   0  0  0  0  0  0  0  0  0  0  0  0
  -12.0386   -5.7240   -0.4779 H   0  0  0  0  0  0  0  0  0  0  0  0
   -9.8358   -5.1733   -1.4859 H   0  0  0  0  0  0  0  0  0  0  0  0
   -7.1519   -5.2904   -0.4365 S   0  0  0  0  0  0  0  0  0  0  0  0
   -6.1027   -5.9237    0.3764 O   0  0  0  0  0  0  0  0  0  0  0  0
   -7.0628   -3.7184   -0.2724 O   0  0  0  0  0  0  0  0  0  0  0  0
   -7.2185   -5.5598   -1.8771 O   0  0  0  0  0  0  0  0  0  0  0  0
  -12.5571   -6.6695    2.0336 C   0  0  0  0  0  0  0  0  0  0  0  0
  -12.4902   -7.5199    2.7192 H   0  0  0  0  0  0  0  0  0  0  0  0
  -12.9342   -5.8158    2.6111 H   0  0  0  0  0  0  0  0  0  0  0  0
  -13.3060   -6.9038    1.2718 H   0  0  0  0  0  0  0  0  0  0  0  0
  1  4  1  0  0  0  0
  1  2  1  0  0  0  0
  2  3  2  0  0  0  0
  4 12  1  0  0  0  0
  5 13  1  0  0  0  0
  5  4  2  0  0  0  0
  6  5  1  0  0  0  0
  7  8  2  0  0  0  0
  7  6  1  0  0  0  0
  9  7  2  0  0  0  0
 10  6  2  0  0  0  0
 10 11  1  0  0  0  0
 11  1  2  0  0  0  0
 14 10  1  0  0  0  0
 15 11  1  0  0  0  0
 16 22  1  0  0  0  0
 16 17  1  0  0  0  0
 17 23  1  0  0  0  0
 18 30  1  0  0  0  0
 18 17  2  0  0  0  0
 19 18  1  0  0  0  0
 20 19  2  0  0  0  0
 20 21  1  0  0  0  0
 21 16  2  0  0  0  0
 24 19  1  0  0  0  0
 25 20  1  0  0  0  0
 26 28  2  0  0  0  0
 26 21  1  0  0  0  0
 26 27  1  0  0  0  0
 29 26  2  0  0  0  0
 30 32  1  0  0  0  0
 30 31  1  0  0  0  0
 33 30  1  0  0  0  0
M  RAD  2   3   2  27   2
M  END
