Coordinates from ORCA-job 4-NO2PhN2+~TsO-_B3LYPG-6-31G_dp-NX-Scan-d89-09-n800
 OpenBabel11261920283D

 33 34  0  0  0  0  0  0  0  0999 V2000
   -4.4828   -2.7299    0.3015 C   0  0  0  0  0  0  0  0  0  0  0  0
   -5.0712   -3.6678    1.1851 N   0  0  0  0  0  0  0  0  0  0  0  0
   -5.7645   -4.6353    1.0404 N   0  0  0  0  0  0  0  0  0  0  0  0
   -3.9978   -1.5836    0.9532 C   0  0  0  0  0  0  0  0  0  0  0  0
   -3.3730   -0.5771    0.2284 C   0  0  0  0  0  0  0  0  0  0  0  0
   -3.2194   -0.7538   -1.1447 C   0  0  0  0  0  0  0  0  0  0  0  0
   -2.5486    0.3058   -1.9254 N   0  0  0  0  0  0  0  0  0  0  0  0
   -2.1617    1.2987   -1.3129 O   0  0  0  0  0  0  0  0  0  0  0  0
   -2.4228    0.1250   -3.1339 O   0  0  0  0  0  0  0  0  0  0  0  0
   -3.6701   -1.8932   -1.8079 C   0  0  0  0  0  0  0  0  0  0  0  0
   -4.3159   -2.8928   -1.0868 C   0  0  0  0  0  0  0  0  0  0  0  0
   -4.1251   -1.5027    2.0270 H   0  0  0  0  0  0  0  0  0  0  0  0
   -2.9988    0.3224    0.6997 H   0  0  0  0  0  0  0  0  0  0  0  0
   -3.5180   -1.9822   -2.8763 H   0  0  0  0  0  0  0  0  0  0  0  0
   -4.6812   -3.7798   -1.5815 H   0  0  0  0  0  0  0  0  0  0  0  0
   -8.6199   -6.4875    1.4983 C   0  0  0  0  0  0  0  0  0  0  0  0
   -9.8477   -6.2873    2.1266 C   0  0  0  0  0  0  0  0  0  0  0  0
  -10.9298   -5.7164    1.4417 C   0  0  0  0  0  0  0  0  0  0  0  0
  -10.7565   -5.3559    0.0965 C   0  0  0  0  0  0  0  0  0  0  0  0
   -9.5382   -5.5469   -0.5496 C   0  0  0  0  0  0  0  0  0  0  0  0
   -8.4766   -6.1088    0.1631 C   0  0  0  0  0  0  0  0  0  0  0  0
   -7.7875   -6.9418    2.0234 H   0  0  0  0  0  0  0  0  0  0  0  0
   -9.9698   -6.5871    3.1636 H   0  0  0  0  0  0  0  0  0  0  0  0
  -11.5900   -4.9276   -0.4539 H   0  0  0  0  0  0  0  0  0  0  0  0
   -9.4100   -5.2847   -1.5939 H   0  0  0  0  0  0  0  0  0  0  0  0
   -6.9123   -6.3593   -0.6560 S   0  0  0  0  0  0  0  0  0  0  0  0
   -6.1522   -7.3681    0.0726 O   0  0  0  0  0  0  0  0  0  0  0  0
   -6.1561   -4.8997   -0.4892 O   0  0  0  0  0  0  0  0  0  0  0  0
   -7.1310   -6.4473   -2.0961 O   0  0  0  0  0  0  0  0  0  0  0  0
  -12.2478   -5.4785    2.1378 C   0  0  0  0  0  0  0  0  0  0  0  0
  -12.3781   -6.1503    2.9902 H   0  0  0  0  0  0  0  0  0  0  0  0
  -12.3088   -4.4512    2.5173 H   0  0  0  0  0  0  0  0  0  0  0  0
  -13.0916   -5.6223    1.4563 H   0  0  0  0  0  0  0  0  0  0  0  0
  1  4  1  0  0  0  0
  1  2  1  0  0  0  0
  3  2  1  0  0  0  0
  4 12  1  0  0  0  0
  5 13  1  0  0  0  0
  5  4  2  0  0  0  0
  6  5  1  0  0  0  0
  7  8  2  0  0  0  0
  7  6  1  0  0  0  0
  9  7  2  0  0  0  0
 10  6  2  0  0  0  0
 10 11  1  0  0  0  0
 11  1  2  0  0  0  0
 14 10  1  0  0  0  0
 15 11  1  0  0  0  0
 16 22  1  0  0  0  0
 16 17  1  0  0  0  0
 17 23  1  0  0  0  0
 18 17  2  0  0  0  0
 18 30  1  0  0  0  0
 19 18  1  0  0  0  0
 20 19  2  0  0  0  0
 20 21  1  0  0  0  0
 21 16  2  0  0  0  0
 24 19  1  0  0  0  0
 25 20  1  0  0  0  0
 26 28  1  0  0  0  0
 26 27  2  0  0  0  0
 26 21  1  0  0  0  0
 28  3  1  0  0  0  0
 29 26  2  0  0  0  0
 30 32  1  0  0  0  0
 30 31  1  0  0  0  0
 33 30  1  0  0  0  0
M  RAD  2   2   2   3   2
M  END
