Coordinates from ORCA-job 4-NO2PhN2+~TsO-_B3LYPG-6-31G_dp-NX-Scan-d89-09-n800
 OpenBabel11261920283D

 33 33  0  0  0  0  0  0  0  0999 V2000
   -5.7599   -2.2938    0.0070 C   0  0  0  0  0  0  0  0  0  0  0  0
   -7.1586   -2.3058    0.3072 N   0  0  0  0  0  0  0  0  0  0  0  0
   -7.9285   -2.2404    1.1320 N   0  0  0  0  0  0  0  0  0  0  0  0
   -4.9243   -1.8615    1.0481 C   0  0  0  0  0  0  0  0  0  0  0  0
   -3.5537   -1.8492    0.8305 C   0  0  0  0  0  0  0  0  0  0  0  0
   -3.0719   -2.2787   -0.4062 C   0  0  0  0  0  0  0  0  0  0  0  0
   -1.6078   -2.2674   -0.6323 N   0  0  0  0  0  0  0  0  0  0  0  0
   -0.9015   -1.8764    0.2933 O   0  0  0  0  0  0  0  0  0  0  0  0
   -1.2052   -2.6500   -1.7257 O   0  0  0  0  0  0  0  0  0  0  0  0
   -3.9052   -2.7166   -1.4310 C   0  0  0  0  0  0  0  0  0  0  0  0
   -5.2854   -2.7228   -1.2324 C   0  0  0  0  0  0  0  0  0  0  0  0
   -5.3457   -1.5407    1.9936 H   0  0  0  0  0  0  0  0  0  0  0  0
   -2.8600   -1.5177    1.5922 H   0  0  0  0  0  0  0  0  0  0  0  0
   -3.4761   -3.0419   -2.3700 H   0  0  0  0  0  0  0  0  0  0  0  0
   -5.9735   -3.0480   -2.0049 H   0  0  0  0  0  0  0  0  0  0  0  0
  -10.1090   -4.2758    0.2221 C   0  0  0  0  0  0  0  0  0  0  0  0
  -10.3390   -5.0835    1.3353 C   0  0  0  0  0  0  0  0  0  0  0  0
   -9.5131   -6.1808    1.6194 C   0  0  0  0  0  0  0  0  0  0  0  0
   -8.4429   -6.4508    0.7535 C   0  0  0  0  0  0  0  0  0  0  0  0
   -8.1981   -5.6500   -0.3617 C   0  0  0  0  0  0  0  0  0  0  0  0
   -9.0304   -4.5591   -0.6205 C   0  0  0  0  0  0  0  0  0  0  0  0
  -10.7647   -3.4428   -0.0077 H   0  0  0  0  0  0  0  0  0  0  0  0
  -11.1780   -4.8643    1.9907 H   0  0  0  0  0  0  0  0  0  0  0  0
   -7.7997   -7.3051    0.9495 H   0  0  0  0  0  0  0  0  0  0  0  0
   -7.3864   -5.8727   -1.0464 H   0  0  0  0  0  0  0  0  0  0  0  0
   -8.7183   -3.5011   -2.0402 S   0  0  0  0  0  0  0  0  0  0  0  0
   -7.9951   -2.2367   -1.4807 O   0  0  0  0  0  0  0  0  0  0  0  0
  -10.0293   -3.0750   -2.5309 O   0  0  0  0  0  0  0  0  0  0  0  0
   -7.7954   -4.2484   -2.9180 O   0  0  0  0  0  0  0  0  0  0  0  0
   -9.7913   -7.0727    2.8061 C   0  0  0  0  0  0  0  0  0  0  0  0
  -10.3010   -6.5282    3.6064 H   0  0  0  0  0  0  0  0  0  0  0  0
  -10.4366   -7.9131    2.5218 H   0  0  0  0  0  0  0  0  0  0  0  0
   -8.8689   -7.4958    3.2144 H   0  0  0  0  0  0  0  0  0  0  0  0
  1  2  1  0  0  0  0
  1  4  2  0  0  0  0
  2  3  2  0  0  0  0
  4 12  1  0  0  0  0
  5  4  1  0  0  0  0
  5 13  1  0  0  0  0
  6  5  2  0  0  0  0
  7  6  1  0  0  0  0
  7  8  2  0  0  0  0
  9  7  2  0  0  0  0
 10 11  2  0  0  0  0
 10  6  1  0  0  0  0
 11  1  1  0  0  0  0
 14 10  1  0  0  0  0
 15 11  1  0  0  0  0
 16 17  2  0  0  0  0
 17 18  1  0  0  0  0
 17 23  1  0  0  0  0
 18 30  1  0  0  0  0
 19 24  1  0  0  0  0
 19 18  2  0  0  0  0
 20 19  1  0  0  0  0
 21 20  2  0  0  0  0
 21 16  1  0  0  0  0
 22 16  1  0  0  0  0
 25 20  1  0  0  0  0
 26 27  1  0  0  0  0
 26 21  1  0  0  0  0
 28 26  2  0  0  0  0
 29 26  2  0  0  0  0
 30 33  1  0  0  0  0
 30 31  1  0  0  0  0
 32 30  1  0  0  0  0
M  RAD  2   3   2  27   2
M  END
