Coordinates from ORCA-job 4-NO2PhN2+~TsO-_B3LYPG-6-31G_dp-NX-Scan-d89-09-n800
 OpenBabel11261920283D

 33 33  0  0  0  0  0  0  0  0999 V2000
   -4.7612   -0.6787    0.6040 C   0  0  0  0  0  0  0  0  0  0  0  0
   -5.5935    0.2005    1.2537 N   0  0  0  0  0  0  0  0  0  0  0  0
   -6.2846    0.8954    1.7925 N   0  0  0  0  0  0  0  0  0  0  0  0
   -3.3632   -0.4578    0.6629 C   0  0  0  0  0  0  0  0  0  0  0  0
   -2.5653   -1.3662   -0.0003 C   0  0  0  0  0  0  0  0  0  0  0  0
   -3.1701   -2.4415   -0.6758 C   0  0  0  0  0  0  0  0  0  0  0  0
   -2.2740   -3.4032   -1.3672 N   0  0  0  0  0  0  0  0  0  0  0  0
   -1.0657   -3.1866   -1.2935 O   0  0  0  0  0  0  0  0  0  0  0  0
   -2.8020   -4.3390   -1.9521 O   0  0  0  0  0  0  0  0  0  0  0  0
   -4.5426   -2.6485   -0.7248 C   0  0  0  0  0  0  0  0  0  0  0  0
   -5.3809   -1.7395   -0.0771 C   0  0  0  0  0  0  0  0  0  0  0  0
   -2.9460    0.3836    1.2041 H   0  0  0  0  0  0  0  0  0  0  0  0
   -1.4865   -1.2742   -0.0095 H   0  0  0  0  0  0  0  0  0  0  0  0
   -5.0039   -3.4736   -1.2589 H   0  0  0  0  0  0  0  0  0  0  0  0
   -6.4804   -1.8586   -0.0726 H   0  0  0  0  0  0  0  0  0  0  0  0
   -9.8603   -4.6220    1.0062 C   0  0  0  0  0  0  0  0  0  0  0  0
  -10.3614   -5.7915    1.5743 C   0  0  0  0  0  0  0  0  0  0  0  0
  -10.0833   -7.0469    1.0143 C   0  0  0  0  0  0  0  0  0  0  0  0
   -9.2868   -7.0974   -0.1377 C   0  0  0  0  0  0  0  0  0  0  0  0
   -8.7787   -5.9343   -0.7151 C   0  0  0  0  0  0  0  0  0  0  0  0
   -9.0677   -4.6958   -0.1410 C   0  0  0  0  0  0  0  0  0  0  0  0
  -10.0720   -3.6541    1.4475 H   0  0  0  0  0  0  0  0  0  0  0  0
  -10.9777   -5.7306    2.4684 H   0  0  0  0  0  0  0  0  0  0  0  0
   -9.0609   -8.0607   -0.5887 H   0  0  0  0  0  0  0  0  0  0  0  0
   -8.1565   -5.9754   -1.6027 H   0  0  0  0  0  0  0  0  0  0  0  0
   -8.4727   -3.1887   -0.9246 S   0  0  0  0  0  0  0  0  0  0  0  0
   -8.1698   -2.2574    0.2308 O   0  0  0  0  0  0  0  0  0  0  0  0
   -9.5532   -2.6912   -1.7979 O   0  0  0  0  0  0  0  0  0  0  0  0
   -7.2181   -3.5781   -1.6389 O   0  0  0  0  0  0  0  0  0  0  0  0
  -10.6037   -8.3127    1.6542 C   0  0  0  0  0  0  0  0  0  0  0  0
   -9.9079   -8.6896    2.4151 H   0  0  0  0  0  0  0  0  0  0  0  0
  -11.5647   -8.1447    2.1501 H   0  0  0  0  0  0  0  0  0  0  0  0
  -10.7393   -9.1082    0.9150 H   0  0  0  0  0  0  0  0  0  0  0  0
  1  4  1  0  0  0  0
  1  2  1  0  0  0  0
  2  3  1  0  0  0  0
  4 12  1  0  0  0  0
  5  4  2  0  0  0  0
  6  5  1  0  0  0  0
  7  8  2  0  0  0  0
  7  6  1  0  0  0  0
  9  7  2  0  0  0  0
 10  6  2  0  0  0  0
 10 11  1  0  0  0  0
 11 15  1  0  0  0  0
 11  1  2  0  0  0  0
 13  5  1  0  0  0  0
 14 10  1  0  0  0  0
 16 22  1  0  0  0  0
 16 17  2  0  0  0  0
 17 23  1  0  0  0  0
 18 17  1  0  0  0  0
 18 30  1  0  0  0  0
 19 18  2  0  0  0  0
 20 21  2  0  0  0  0
 20 19  1  0  0  0  0
 21 16  1  0  0  0  0
 24 19  1  0  0  0  0
 25 20  1  0  0  0  0
 26 21  1  0  0  0  0
 26 27  1  0  0  0  0
 28 26  2  0  0  0  0
 29 26  2  0  0  0  0
 30 32  1  0  0  0  0
 30 31  1  0  0  0  0
 33 30  1  0  0  0  0
M  RAD  3   2   2   3   3  27   2
M  END
