Coordinates from ORCA-job 4-NO2PhN2+~TsO-_B3LYPG-6-31G_dp-NX-Scan-d89-09-n800
 OpenBabel11261920283D

 33 33  0  0  0  0  0  0  0  0999 V2000
   -4.7716   -0.6627    0.6221 C   0  0  0  0  0  0  0  0  0  0  0  0
   -5.5599    0.2578    1.2677 N   0  0  0  0  0  0  0  0  0  0  0  0
   -6.2030    0.9962    1.8091 N   0  0  0  0  0  0  0  0  0  0  0  0
   -3.3648   -0.5043    0.6950 C   0  0  0  0  0  0  0  0  0  0  0  0
   -2.5995   -1.4456    0.0402 C   0  0  0  0  0  0  0  0  0  0  0  0
   -3.2433   -2.4947   -0.6397 C   0  0  0  0  0  0  0  0  0  0  0  0
   -2.3829   -3.4970   -1.3183 N   0  0  0  0  0  0  0  0  0  0  0  0
   -1.1670   -3.3314   -1.2336 O   0  0  0  0  0  0  0  0  0  0  0  0
   -2.9443   -4.4127   -1.9036 O   0  0  0  0  0  0  0  0  0  0  0  0
   -4.6230   -2.6419   -0.7023 C   0  0  0  0  0  0  0  0  0  0  0  0
   -5.4302   -1.6959   -0.0669 C   0  0  0  0  0  0  0  0  0  0  0  0
   -2.9178    0.3179    1.2419 H   0  0  0  0  0  0  0  0  0  0  0  0
   -1.5177   -1.4001    0.0427 H   0  0  0  0  0  0  0  0  0  0  0  0
   -5.1160   -3.4478   -1.2387 H   0  0  0  0  0  0  0  0  0  0  0  0
   -6.5337   -1.7781   -0.0806 H   0  0  0  0  0  0  0  0  0  0  0  0
   -9.8383   -4.6036    0.9776 C   0  0  0  0  0  0  0  0  0  0  0  0
  -10.3044   -5.7787    1.5641 C   0  0  0  0  0  0  0  0  0  0  0  0
  -10.0096   -7.0325    1.0096 C   0  0  0  0  0  0  0  0  0  0  0  0
   -9.2325   -7.0760   -0.1561 C   0  0  0  0  0  0  0  0  0  0  0  0
   -8.7596   -5.9076   -0.7518 C   0  0  0  0  0  0  0  0  0  0  0  0
   -9.0647   -4.6703   -0.1827 C   0  0  0  0  0  0  0  0  0  0  0  0
  -10.0630   -3.6365    1.4143 H   0  0  0  0  0  0  0  0  0  0  0  0
  -10.9060   -5.7234    2.4685 H   0  0  0  0  0  0  0  0  0  0  0  0
   -8.9942   -8.0381   -0.6032 H   0  0  0  0  0  0  0  0  0  0  0  0
   -8.1525   -5.9435   -1.6500 H   0  0  0  0  0  0  0  0  0  0  0  0
   -8.5167   -3.1581   -0.9909 S   0  0  0  0  0  0  0  0  0  0  0  0
   -8.2371   -2.2014    0.1487 O   0  0  0  0  0  0  0  0  0  0  0  0
   -9.6138   -2.7092   -1.8696 O   0  0  0  0  0  0  0  0  0  0  0  0
   -7.2538   -3.5229   -1.7044 O   0  0  0  0  0  0  0  0  0  0  0  0
  -10.4912   -8.3040    1.6683 C   0  0  0  0  0  0  0  0  0  0  0  0
   -9.7655   -8.6696    2.4065 H   0  0  0  0  0  0  0  0  0  0  0  0
  -11.4377   -8.1483    2.1952 H   0  0  0  0  0  0  0  0  0  0  0  0
  -10.6395   -9.1029    0.9354 H   0  0  0  0  0  0  0  0  0  0  0  0
  1  4  1  0  0  0  0
  1  2  1  0  0  0  0
  2  3  1  0  0  0  0
  4 12  1  0  0  0  0
  5 13  1  0  0  0  0
  5  4  2  0  0  0  0
  6  5  1  0  0  0  0
  7  8  2  0  0  0  0
  7  6  1  0  0  0  0
  9  7  2  0  0  0  0
 10  6  2  0  0  0  0
 10 11  1  0  0  0  0
 11  1  2  0  0  0  0
 14 10  1  0  0  0  0
 15 11  1  0  0  0  0
 16 22  1  0  0  0  0
 16 17  2  0  0  0  0
 17 23  1  0  0  0  0
 18 17  1  0  0  0  0
 18 30  1  0  0  0  0
 19 18  2  0  0  0  0
 20 21  2  0  0  0  0
 20 19  1  0  0  0  0
 21 16  1  0  0  0  0
 24 19  1  0  0  0  0
 25 20  1  0  0  0  0
 26 21  1  0  0  0  0
 26 27  1  0  0  0  0
 28 26  2  0  0  0  0
 29 26  2  0  0  0  0
 30 32  1  0  0  0  0
 30 31  1  0  0  0  0
 33 30  1  0  0  0  0
M  RAD  3   2   2   3   3  27   2
M  END
