Coordinates from ORCA-job 4-NO2PhN2+~TsO-_B3LYPG-6-31G_dp-NX-Scan-d89-09-n800
 OpenBabel11261920283D

 33 33  0  0  0  0  0  0  0  0999 V2000
   -4.7410   -0.7712    0.6109 C   0  0  0  0  0  0  0  0  0  0  0  0
   -5.6449   -0.0029    1.3082 N   0  0  0  0  0  0  0  0  0  0  0  0
   -6.3997    0.5928    1.8771 N   0  0  0  0  0  0  0  0  0  0  0  0
   -3.3756   -0.3993    0.6121 C   0  0  0  0  0  0  0  0  0  0  0  0
   -2.5167   -1.2077   -0.1040 C   0  0  0  0  0  0  0  0  0  0  0  0
   -3.0327   -2.3313   -0.7742 C   0  0  0  0  0  0  0  0  0  0  0  0
   -2.0723   -3.1769   -1.5286 N   0  0  0  0  0  0  0  0  0  0  0  0
   -0.8940   -2.8261   -1.5149 O   0  0  0  0  0  0  0  0  0  0  0  0
   -2.5230   -4.1590   -2.1025 O   0  0  0  0  0  0  0  0  0  0  0  0
   -4.3762   -2.6844   -0.7669 C   0  0  0  0  0  0  0  0  0  0  0  0
   -5.2725   -1.8829   -0.0602 C   0  0  0  0  0  0  0  0  0  0  0  0
   -3.0262    0.4761    1.1472 H   0  0  0  0  0  0  0  0  0  0  0  0
   -1.4562   -0.9983   -0.1616 H   0  0  0  0  0  0  0  0  0  0  0  0
   -4.7657   -3.5431   -1.3031 H   0  0  0  0  0  0  0  0  0  0  0  0
   -6.3548   -2.0927   -0.0150 H   0  0  0  0  0  0  0  0  0  0  0  0
   -9.9181   -4.6375    1.0412 C   0  0  0  0  0  0  0  0  0  0  0  0
  -10.4770   -5.7902    1.5851 C   0  0  0  0  0  0  0  0  0  0  0  0
  -10.2105   -7.0548    1.0362 C   0  0  0  0  0  0  0  0  0  0  0  0
   -9.3624   -7.1291   -0.0749 C   0  0  0  0  0  0  0  0  0  0  0  0
   -8.7954   -5.9803   -0.6293 C   0  0  0  0  0  0  0  0  0  0  0  0
   -9.0759   -4.7348   -0.0701 C   0  0  0  0  0  0  0  0  0  0  0  0
  -10.1190   -3.6639    1.4754 H   0  0  0  0  0  0  0  0  0  0  0  0
  -11.1288   -5.7110    2.4525 H   0  0  0  0  0  0  0  0  0  0  0  0
   -9.1405   -8.0992   -0.5126 H   0  0  0  0  0  0  0  0  0  0  0  0
   -8.1317   -6.0396   -1.4853 H   0  0  0  0  0  0  0  0  0  0  0  0
   -8.3995   -3.2439   -0.8178 S   0  0  0  0  0  0  0  0  0  0  0  0
   -8.0594   -2.3529    0.3603 O   0  0  0  0  0  0  0  0  0  0  0  0
   -9.4481   -2.6750   -1.6867 O   0  0  0  0  0  0  0  0  0  0  0  0
   -7.1581   -3.6779   -1.5296 O   0  0  0  0  0  0  0  0  0  0  0  0
  -10.8219   -8.2979    1.6393 C   0  0  0  0  0  0  0  0  0  0  0  0
  -10.4973   -8.4410    2.6767 H   0  0  0  0  0  0  0  0  0  0  0  0
  -11.9167   -8.2381    1.6524 H   0  0  0  0  0  0  0  0  0  0  0  0
  -10.5425   -9.1931    1.0771 H   0  0  0  0  0  0  0  0  0  0  0  0
  1  4  1  0  0  0  0
  1  2  1  0  0  0  0
  2  3  1  0  0  0  0
  4 12  1  0  0  0  0
  5  4  2  0  0  0  0
  6 10  2  0  0  0  0
  6  5  1  0  0  0  0
  7  8  2  0  0  0  0
  7  6  1  0  0  0  0
  9  7  2  0  0  0  0
 10 11  1  0  0  0  0
 11 15  1  0  0  0  0
 11  1  2  0  0  0  0
 13  5  1  0  0  0  0
 14 10  1  0  0  0  0
 16 22  1  0  0  0  0
 16 17  1  0  0  0  0
 17 23  1  0  0  0  0
 18 17  2  0  0  0  0
 18 30  1  0  0  0  0
 19 18  1  0  0  0  0
 20 19  2  0  0  0  0
 20 21  1  0  0  0  0
 21 16  2  0  0  0  0
 24 19  1  0  0  0  0
 25 20  1  0  0  0  0
 26 21  1  0  0  0  0
 26 27  1  0  0  0  0
 28 26  2  0  0  0  0
 29 26  2  0  0  0  0
 30 32  1  0  0  0  0
 30 31  1  0  0  0  0
 33 30  1  0  0  0  0
M  RAD  3   2   2   3   3  27   2
M  END
