Coordinates from ORCA-job 4-NO2PhN2+~TsO-_B3LYPG-6-31G_dp-NX-Scan-d89-09-n800
 OpenBabel11261920283D

 33 33  0  0  0  0  0  0  0  0999 V2000
   -4.4469   -2.1966    0.4243 C   0  0  0  0  0  0  0  0  0  0  0  0
   -5.2803   -2.3755    1.5695 N   0  0  0  0  0  0  0  0  0  0  0  0
   -5.4633   -2.1471    2.6562 N   0  0  0  0  0  0  0  0  0  0  0  0
   -3.0833   -2.0163    0.6942 C   0  0  0  0  0  0  0  0  0  0  0  0
   -2.2278   -1.7921   -0.3762 C   0  0  0  0  0  0  0  0  0  0  0  0
   -2.7690   -1.7410   -1.6601 C   0  0  0  0  0  0  0  0  0  0  0  0
   -1.8532   -1.4967   -2.7984 N   0  0  0  0  0  0  0  0  0  0  0  0
   -0.6626   -1.3454   -2.5375 O   0  0  0  0  0  0  0  0  0  0  0  0
   -2.3477   -1.4611   -3.9203 O   0  0  0  0  0  0  0  0  0  0  0  0
   -4.1273   -1.9079   -1.9163 C   0  0  0  0  0  0  0  0  0  0  0  0
   -4.9978   -2.1547   -0.8565 C   0  0  0  0  0  0  0  0  0  0  0  0
   -2.7113   -2.0588    1.7115 H   0  0  0  0  0  0  0  0  0  0  0  0
   -1.1638   -1.6532   -0.2339 H   0  0  0  0  0  0  0  0  0  0  0  0
   -4.4913   -1.8523   -2.9344 H   0  0  0  0  0  0  0  0  0  0  0  0
   -6.0646   -2.2997   -1.0117 H   0  0  0  0  0  0  0  0  0  0  0  0
   -9.5398   -4.9773    2.0736 C   0  0  0  0  0  0  0  0  0  0  0  0
  -10.3828   -6.0821    2.1803 C   0  0  0  0  0  0  0  0  0  0  0  0
  -10.7856   -6.7992    1.0452 C   0  0  0  0  0  0  0  0  0  0  0  0
  -10.3195   -6.3798   -0.2099 C   0  0  0  0  0  0  0  0  0  0  0  0
   -9.4774   -5.2775   -0.3337 C   0  0  0  0  0  0  0  0  0  0  0  0
   -9.0901   -4.5821    0.8133 C   0  0  0  0  0  0  0  0  0  0  0  0
   -9.2423   -4.4124    2.9504 H   0  0  0  0  0  0  0  0  0  0  0  0
  -10.7385   -6.3900    3.1600 H   0  0  0  0  0  0  0  0  0  0  0  0
  -10.6251   -6.9214   -1.1016 H   0  0  0  0  0  0  0  0  0  0  0  0
   -9.1311   -4.9429   -1.3052 H   0  0  0  0  0  0  0  0  0  0  0  0
   -7.9855   -3.1809    0.6727 S   0  0  0  0  0  0  0  0  0  0  0  0
   -6.5823   -3.8239    0.7694 O   0  0  0  0  0  0  0  0  0  0  0  0
   -8.2197   -2.2866    1.8246 O   0  0  0  0  0  0  0  0  0  0  0  0
   -8.1795   -2.5969   -0.6757 O   0  0  0  0  0  0  0  0  0  0  0  0
  -11.7261   -7.9744    1.1639 C   0  0  0  0  0  0  0  0  0  0  0  0
  -11.7146   -8.3970    2.1726 H   0  0  0  0  0  0  0  0  0  0  0  0
  -12.7592   -7.6750    0.9461 H   0  0  0  0  0  0  0  0  0  0  0  0
  -11.4652   -8.7691    0.4580 H   0  0  0  0  0  0  0  0  0  0  0  0
  1  4  1  0  0  0  0
  1  2  1  0  0  0  0
  2  3  2  0  0  0  0
  4 12  1  0  0  0  0
  5 13  1  0  0  0  0
  5  4  2  0  0  0  0
  6  5  1  0  0  0  0
  7  8  2  0  0  0  0
  7  6  1  0  0  0  0
  9  7  2  0  0  0  0
 10  6  2  0  0  0  0
 10 11  1  0  0  0  0
 11  1  2  0  0  0  0
 14 10  1  0  0  0  0
 15 11  1  0  0  0  0
 16 17  1  0  0  0  0
 16 22  1  0  0  0  0
 17 23  1  0  0  0  0
 18 30  1  0  0  0  0
 18 17  2  0  0  0  0
 19 18  1  0  0  0  0
 20 19  2  0  0  0  0
 20 21  1  0  0  0  0
 21 16  2  0  0  0  0
 24 19  1  0  0  0  0
 25 20  1  0  0  0  0
 26 27  2  0  0  0  0
 26 21  1  0  0  0  0
 26 28  1  0  0  0  0
 29 26  2  0  0  0  0
 30 31  1  0  0  0  0
 32 30  1  0  0  0  0
 33 30  1  0  0  0  0
M  RAD  2   3   2  28   2
M  END
