Coordinates from ORCA-job 4-NO2PhN2+~TsO-_B3LYPG-6-31G_dp-NX-Scan-d89-09-n800
 OpenBabel11261920283D

 33 33  0  0  0  0  0  0  0  0999 V2000
   -4.8037   -0.6534    0.6858 C   0  0  0  0  0  0  0  0  0  0  0  0
   -5.4807    0.3442    1.3397 N   0  0  0  0  0  0  0  0  0  0  0  0
   -6.0055    1.1604    1.8997 N   0  0  0  0  0  0  0  0  0  0  0  0
   -3.3928   -0.6814    0.8374 C   0  0  0  0  0  0  0  0  0  0  0  0
   -2.7115   -1.6828    0.1807 C   0  0  0  0  0  0  0  0  0  0  0  0
   -3.4402   -2.6164   -0.5763 C   0  0  0  0  0  0  0  0  0  0  0  0
   -2.6735   -3.6952   -1.2493 N   0  0  0  0  0  0  0  0  0  0  0  0
   -1.4535   -3.6891   -1.0887 O   0  0  0  0  0  0  0  0  0  0  0  0
   -3.3077   -4.5084   -1.9065 O   0  0  0  0  0  0  0  0  0  0  0  0
   -4.8220   -2.5867   -0.7147 C   0  0  0  0  0  0  0  0  0  0  0  0
   -5.5445   -1.5690   -0.0858 C   0  0  0  0  0  0  0  0  0  0  0  0
   -2.8808    0.0538    1.4477 H   0  0  0  0  0  0  0  0  0  0  0  0
   -1.6344   -1.7734    0.2435 H   0  0  0  0  0  0  0  0  0  0  0  0
   -5.3850   -3.3103   -1.3025 H   0  0  0  0  0  0  0  0  0  0  0  0
   -6.6464   -1.5401   -0.1699 H   0  0  0  0  0  0  0  0  0  0  0  0
   -9.8006   -4.5470    0.8816 C   0  0  0  0  0  0  0  0  0  0  0  0
  -10.1752   -5.7241    1.5267 C   0  0  0  0  0  0  0  0  0  0  0  0
   -9.8123   -6.9785    1.0154 C   0  0  0  0  0  0  0  0  0  0  0  0
   -9.0616   -7.0203   -0.1673 C   0  0  0  0  0  0  0  0  0  0  0  0
   -8.6798   -5.8496   -0.8216 C   0  0  0  0  0  0  0  0  0  0  0  0
   -9.0509   -4.6119   -0.2947 C   0  0  0  0  0  0  0  0  0  0  0  0
  -10.0781   -3.5791    1.2849 H   0  0  0  0  0  0  0  0  0  0  0  0
  -10.7583   -5.6698    2.4432 H   0  0  0  0  0  0  0  0  0  0  0  0
   -8.7719   -7.9829   -0.5819 H   0  0  0  0  0  0  0  0  0  0  0  0
   -8.0934   -5.8840   -1.7334 H   0  0  0  0  0  0  0  0  0  0  0  0
   -8.6209   -3.1014   -1.1752 S   0  0  0  0  0  0  0  0  0  0  0  0
   -8.3645   -2.0893   -0.0802 O   0  0  0  0  0  0  0  0  0  0  0  0
   -9.7718   -2.7562   -2.0327 O   0  0  0  0  0  0  0  0  0  0  0  0
   -7.3639   -3.4198   -1.9203 O   0  0  0  0  0  0  0  0  0  0  0  0
  -10.1946   -8.2495    1.7369 C   0  0  0  0  0  0  0  0  0  0  0  0
   -9.4366   -8.5291    2.4800 H   0  0  0  0  0  0  0  0  0  0  0  0
  -11.1439   -8.1374    2.2699 H   0  0  0  0  0  0  0  0  0  0  0  0
  -10.2940   -9.0893    1.0424 H   0  0  0  0  0  0  0  0  0  0  0  0
  1  4  1  0  0  0  0
  1  2  1  0  0  0  0
  2  3  1  0  0  0  0
  4 12  1  0  0  0  0
  5 13  1  0  0  0  0
  5  4  2  0  0  0  0
  6  5  1  0  0  0  0
  7  8  2  0  0  0  0
  7  6  1  0  0  0  0
  9  7  2  0  0  0  0
 10  6  2  0  0  0  0
 10 11  1  0  0  0  0
 11  1  2  0  0  0  0
 14 10  1  0  0  0  0
 15 11  1  0  0  0  0
 16 22  1  0  0  0  0
 16 17  2  0  0  0  0
 17 23  1  0  0  0  0
 18 17  1  0  0  0  0
 18 30  1  0  0  0  0
 19 18  2  0  0  0  0
 20 21  2  0  0  0  0
 20 19  1  0  0  0  0
 21 16  1  0  0  0  0
 24 19  1  0  0  0  0
 25 20  1  0  0  0  0
 26 21  1  0  0  0  0
 26 27  1  0  0  0  0
 28 26  2  0  0  0  0
 29 26  2  0  0  0  0
 30 32  1  0  0  0  0
 30 31  1  0  0  0  0
 33 30  1  0  0  0  0
M  RAD  3   2   2   3   3  27   2
M  END
