Coordinates from ORCA-job 4-NO2PhN2+~TsO-_B3LYPG-6-31G_dp-NX-Scan-d89-09-n800
 OpenBabel11261920283D

 33 33  0  0  0  0  0  0  0  0999 V2000
   -4.4376   -2.2137    0.4341 C   0  0  0  0  0  0  0  0  0  0  0  0
   -5.2558   -2.4041    1.5913 N   0  0  0  0  0  0  0  0  0  0  0  0
   -5.3891   -2.1914    2.6893 N   0  0  0  0  0  0  0  0  0  0  0  0
   -3.0733   -2.0185    0.6924 C   0  0  0  0  0  0  0  0  0  0  0  0
   -2.2289   -1.7850   -0.3845 C   0  0  0  0  0  0  0  0  0  0  0  0
   -2.7807   -1.7399   -1.6642 C   0  0  0  0  0  0  0  0  0  0  0  0
   -1.8769   -1.4859   -2.8098 N   0  0  0  0  0  0  0  0  0  0  0  0
   -0.6860   -1.3209   -2.5583 O   0  0  0  0  0  0  0  0  0  0  0  0
   -2.3805   -1.4569   -3.9278 O   0  0  0  0  0  0  0  0  0  0  0  0
   -4.1390   -1.9214   -1.9089 C   0  0  0  0  0  0  0  0  0  0  0  0
   -4.9986   -2.1769   -0.8418 C   0  0  0  0  0  0  0  0  0  0  0  0
   -2.6926   -2.0568    1.7066 H   0  0  0  0  0  0  0  0  0  0  0  0
   -1.1653   -1.6346   -0.2505 H   0  0  0  0  0  0  0  0  0  0  0  0
   -4.5123   -1.8697   -2.9238 H   0  0  0  0  0  0  0  0  0  0  0  0
   -6.0654   -2.3306   -0.9908 H   0  0  0  0  0  0  0  0  0  0  0  0
   -9.5576   -4.9609    2.0707 C   0  0  0  0  0  0  0  0  0  0  0  0
  -10.3992   -6.0669    2.1745 C   0  0  0  0  0  0  0  0  0  0  0  0
  -10.7844   -6.7941    1.0397 C   0  0  0  0  0  0  0  0  0  0  0  0
  -10.3019   -6.3838   -0.2122 C   0  0  0  0  0  0  0  0  0  0  0  0
   -9.4607   -5.2805   -0.3333 C   0  0  0  0  0  0  0  0  0  0  0  0
   -9.0916   -4.5748    0.8134 C   0  0  0  0  0  0  0  0  0  0  0  0
   -9.2739   -4.3883    2.9470 H   0  0  0  0  0  0  0  0  0  0  0  0
  -10.7677   -6.3679    3.1516 H   0  0  0  0  0  0  0  0  0  0  0  0
  -10.5938   -6.9333   -1.1037 H   0  0  0  0  0  0  0  0  0  0  0  0
   -9.1011   -4.9528   -1.3023 H   0  0  0  0  0  0  0  0  0  0  0  0
   -7.9909   -3.1699    0.6774 S   0  0  0  0  0  0  0  0  0  0  0  0
   -6.5891   -3.8144    0.8194 O   0  0  0  0  0  0  0  0  0  0  0  0
   -8.2580   -2.2576    1.8058 O   0  0  0  0  0  0  0  0  0  0  0  0
   -8.1503   -2.6122   -0.6868 O   0  0  0  0  0  0  0  0  0  0  0  0
  -11.7234   -7.9710    1.1547 C   0  0  0  0  0  0  0  0  0  0  0  0
  -11.7314   -8.3800    2.1689 H   0  0  0  0  0  0  0  0  0  0  0  0
  -12.7526   -7.6783    0.9113 H   0  0  0  0  0  0  0  0  0  0  0  0
  -11.4453   -8.7741    0.4651 H   0  0  0  0  0  0  0  0  0  0  0  0
  1  4  1  0  0  0  0
  1  2  1  0  0  0  0
  2  3  2  0  0  0  0
  4 12  1  0  0  0  0
  5 13  1  0  0  0  0
  5  4  2  0  0  0  0
  6  5  1  0  0  0  0
  7  8  2  0  0  0  0
  7  6  1  0  0  0  0
  9  7  2  0  0  0  0
 10  6  2  0  0  0  0
 10 11  1  0  0  0  0
 11  1  2  0  0  0  0
 14 10  1  0  0  0  0
 15 11  1  0  0  0  0
 16 17  1  0  0  0  0
 16 22  1  0  0  0  0
 17 23  1  0  0  0  0
 18 30  1  0  0  0  0
 18 17  2  0  0  0  0
 19 18  1  0  0  0  0
 20 19  2  0  0  0  0
 20 21  1  0  0  0  0
 21 16  2  0  0  0  0
 24 19  1  0  0  0  0
 25 20  1  0  0  0  0
 26 21  1  0  0  0  0
 26 27  2  0  0  0  0
 26 28  1  0  0  0  0
 29 26  2  0  0  0  0
 30 31  1  0  0  0  0
 32 30  1  0  0  0  0
 33 30  1  0  0  0  0
M  RAD  2   3   2  28   2
M  END
