Coordinates from ORCA-job 4-NO2PhN2+~TsO-_B3LYPG-6-31G_dp-NX-Scan-d89-09-n800
 OpenBabel11261920283D

 33 33  0  0  0  0  0  0  0  0999 V2000
   -4.5129   -1.7210    0.4722 C   0  0  0  0  0  0  0  0  0  0  0  0
   -5.3587   -1.5415    1.5621 N   0  0  0  0  0  0  0  0  0  0  0  0
   -5.9964   -1.2898    2.4460 N   0  0  0  0  0  0  0  0  0  0  0  0
   -3.1343   -1.6129    0.7171 C   0  0  0  0  0  0  0  0  0  0  0  0
   -2.2711   -1.7604   -0.3584 C   0  0  0  0  0  0  0  0  0  0  0  0
   -2.8167   -1.9907   -1.6221 C   0  0  0  0  0  0  0  0  0  0  0  0
   -1.8873   -2.1361   -2.7681 N   0  0  0  0  0  0  0  0  0  0  0  0
   -0.6859   -2.0530   -2.5277 O   0  0  0  0  0  0  0  0  0  0  0  0
   -2.3840   -2.3272   -3.8727 O   0  0  0  0  0  0  0  0  0  0  0  0
   -4.1862   -2.0878   -1.8569 C   0  0  0  0  0  0  0  0  0  0  0  0
   -5.0727   -1.9657   -0.7910 C   0  0  0  0  0  0  0  0  0  0  0  0
   -2.7621   -1.4257    1.7176 H   0  0  0  0  0  0  0  0  0  0  0  0
   -1.1972   -1.6960   -0.2395 H   0  0  0  0  0  0  0  0  0  0  0  0
   -4.5460   -2.2726   -2.8611 H   0  0  0  0  0  0  0  0  0  0  0  0
   -6.1533   -2.0614   -0.9078 H   0  0  0  0  0  0  0  0  0  0  0  0
   -9.2599   -5.2760    2.0870 C   0  0  0  0  0  0  0  0  0  0  0  0
  -10.1138   -6.3750    2.0995 C   0  0  0  0  0  0  0  0  0  0  0  0
  -10.7260   -6.8319    0.9218 C   0  0  0  0  0  0  0  0  0  0  0  0
  -10.4574   -6.1536   -0.2738 C   0  0  0  0  0  0  0  0  0  0  0  0
   -9.6047   -5.0500   -0.3015 C   0  0  0  0  0  0  0  0  0  0  0  0
   -9.0055   -4.6173    0.8809 C   0  0  0  0  0  0  0  0  0  0  0  0
   -8.8021   -4.9170    3.0022 H   0  0  0  0  0  0  0  0  0  0  0  0
  -10.3136   -6.8862    3.0382 H   0  0  0  0  0  0  0  0  0  0  0  0
  -10.9251   -6.4909   -1.1952 H   0  0  0  0  0  0  0  0  0  0  0  0
   -9.4066   -4.5147   -1.2235 H   0  0  0  0  0  0  0  0  0  0  0  0
   -7.8669   -3.2357    0.8506 S   0  0  0  0  0  0  0  0  0  0  0  0
   -6.4743   -3.7990    0.8871 O   0  0  0  0  0  0  0  0  0  0  0  0
   -8.1446   -2.4394    2.0929 O   0  0  0  0  0  0  0  0  0  0  0  0
   -8.1266   -2.4921   -0.4155 O   0  0  0  0  0  0  0  0  0  0  0  0
  -11.6746   -8.0066    0.9541 C   0  0  0  0  0  0  0  0  0  0  0  0
  -11.3072   -8.7998    1.6133 H   0  0  0  0  0  0  0  0  0  0  0  0
  -12.6614   -7.7076    1.3292 H   0  0  0  0  0  0  0  0  0  0  0  0
  -11.8192   -8.4326   -0.0426 H   0  0  0  0  0  0  0  0  0  0  0  0
  1  4  1  0  0  0  0
  1  2  1  0  0  0  0
  2  3  1  0  0  0  0
  4 12  1  0  0  0  0
  5 13  1  0  0  0  0
  5  4  2  0  0  0  0
  6  5  1  0  0  0  0
  7  8  2  0  0  0  0
  7  6  1  0  0  0  0
  9  7  2  0  0  0  0
 10  6  2  0  0  0  0
 10 11  1  0  0  0  0
 11  1  2  0  0  0  0
 14 10  1  0  0  0  0
 15 11  1  0  0  0  0
 16 17  1  0  0  0  0
 16 22  1  0  0  0  0
 17 23  1  0  0  0  0
 18 30  1  0  0  0  0
 18 17  2  0  0  0  0
 19 18  1  0  0  0  0
 20 19  2  0  0  0  0
 20 21  1  0  0  0  0
 21 16  2  0  0  0  0
 24 19  1  0  0  0  0
 25 20  1  0  0  0  0
 26 21  1  0  0  0  0
 26 27  2  0  0  0  0
 26 28  1  0  0  0  0
 29 26  2  0  0  0  0
 30 32  1  0  0  0  0
 30 31  1  0  0  0  0
 33 30  1  0  0  0  0
M  RAD  3   2   2   3   3  28   2
M  END
