Coordinates from ORCA-job 4-NO2PhN2+~TsO-_B3LYPG-6-31G_dp-NX-Scan-d89-09-n800
 OpenBabel11261920283D

 33 33  0  0  0  0  0  0  0  0999 V2000
   -4.5047   -1.7047    0.4796 C   0  0  0  0  0  0  0  0  0  0  0  0
   -5.3507   -1.5255    1.5678 N   0  0  0  0  0  0  0  0  0  0  0  0
   -6.0292   -1.3039    2.4302 N   0  0  0  0  0  0  0  0  0  0  0  0
   -3.1259   -1.5956    0.7244 C   0  0  0  0  0  0  0  0  0  0  0  0
   -2.2616   -1.7455   -0.3496 C   0  0  0  0  0  0  0  0  0  0  0  0
   -2.8061   -1.9793   -1.6131 C   0  0  0  0  0  0  0  0  0  0  0  0
   -1.8759   -2.1270   -2.7581 N   0  0  0  0  0  0  0  0  0  0  0  0
   -0.6747   -2.0427   -2.5171 O   0  0  0  0  0  0  0  0  0  0  0  0
   -2.3717   -2.3194   -3.8629 O   0  0  0  0  0  0  0  0  0  0  0  0
   -4.1753   -2.0772   -1.8488 C   0  0  0  0  0  0  0  0  0  0  0  0
   -5.0632   -1.9522   -0.7842 C   0  0  0  0  0  0  0  0  0  0  0  0
   -2.7547   -1.4056    1.7249 H   0  0  0  0  0  0  0  0  0  0  0  0
   -1.1878   -1.6805   -0.2300 H   0  0  0  0  0  0  0  0  0  0  0  0
   -4.5345   -2.2650   -2.8526 H   0  0  0  0  0  0  0  0  0  0  0  0
   -6.1430   -2.0495   -0.9052 H   0  0  0  0  0  0  0  0  0  0  0  0
   -9.2422   -5.2927    2.0725 C   0  0  0  0  0  0  0  0  0  0  0  0
  -10.1047   -6.3846    2.0974 C   0  0  0  0  0  0  0  0  0  0  0  0
  -10.7408   -6.8339    0.9293 C   0  0  0  0  0  0  0  0  0  0  0  0
  -10.4873   -6.1553   -0.2692 C   0  0  0  0  0  0  0  0  0  0  0  0
   -9.6261   -5.0584   -0.3093 C   0  0  0  0  0  0  0  0  0  0  0  0
   -9.0032   -4.6334    0.8634 C   0  0  0  0  0  0  0  0  0  0  0  0
   -8.7659   -4.9399    2.9806 H   0  0  0  0  0  0  0  0  0  0  0  0
  -10.2924   -6.8962    3.0384 H   0  0  0  0  0  0  0  0  0  0  0  0
  -10.9732   -6.4869   -1.1832 H   0  0  0  0  0  0  0  0  0  0  0  0
   -9.4387   -4.5231   -1.2336 H   0  0  0  0  0  0  0  0  0  0  0  0
   -7.8534   -3.2613    0.8152 S   0  0  0  0  0  0  0  0  0  0  0  0
   -6.4655   -3.8289    0.8570 O   0  0  0  0  0  0  0  0  0  0  0  0
   -8.1285   -2.4512    2.0528 O   0  0  0  0  0  0  0  0  0  0  0  0
   -8.1151   -2.5252   -0.4544 O   0  0  0  0  0  0  0  0  0  0  0  0
  -11.6974   -8.0018    0.9757 C   0  0  0  0  0  0  0  0  0  0  0  0
  -11.3166   -8.8059    1.6139 H   0  0  0  0  0  0  0  0  0  0  0  0
  -12.6700   -7.7002    1.3838 H   0  0  0  0  0  0  0  0  0  0  0  0
  -11.8746   -8.4144   -0.0212 H   0  0  0  0  0  0  0  0  0  0  0  0
  1  4  1  0  0  0  0
  1  2  1  0  0  0  0
  2  3  1  0  0  0  0
  4 12  1  0  0  0  0
  5 13  1  0  0  0  0
  5  4  2  0  0  0  0
  6  5  1  0  0  0  0
  7  8  2  0  0  0  0
  7  6  1  0  0  0  0
  9  7  2  0  0  0  0
 10  6  2  0  0  0  0
 10 11  1  0  0  0  0
 11  1  2  0  0  0  0
 14 10  1  0  0  0  0
 15 11  1  0  0  0  0
 16 17  1  0  0  0  0
 16 22  1  0  0  0  0
 17 23  1  0  0  0  0
 18 30  1  0  0  0  0
 18 17  2  0  0  0  0
 19 18  1  0  0  0  0
 20 19  2  0  0  0  0
 20 21  1  0  0  0  0
 21 16  2  0  0  0  0
 24 19  1  0  0  0  0
 25 20  1  0  0  0  0
 26 27  2  0  0  0  0
 26 21  1  0  0  0  0
 26 28  1  0  0  0  0
 29 26  2  0  0  0  0
 30 32  1  0  0  0  0
 30 31  1  0  0  0  0
 33 30  1  0  0  0  0
M  RAD  3   2   2   3   3  28   2
M  END
