Coordinates from ORCA-job 4-NO2PhN2+~TsO-_B3LYPG-6-31G_dp-NX-Scan-d89-09-n800
 OpenBabel11261920283D

 33 34  0  0  0  0  0  0  0  0999 V2000
   -4.3761   -2.5199    0.3459 C   0  0  0  0  0  0  0  0  0  0  0  0
   -5.0231   -3.3977    1.2409 N   0  0  0  0  0  0  0  0  0  0  0  0
   -5.7883   -4.2836    1.2502 N   0  0  0  0  0  0  0  0  0  0  0  0
   -3.5162   -1.5921    0.9527 C   0  0  0  0  0  0  0  0  0  0  0  0
   -2.8249   -0.6814    0.1642 C   0  0  0  0  0  0  0  0  0  0  0  0
   -3.0129   -0.7288   -1.2157 C   0  0  0  0  0  0  0  0  0  0  0  0
   -2.2824    0.2415   -2.0622 N   0  0  0  0  0  0  0  0  0  0  0  0
   -1.5396    1.0369   -1.4928 O   0  0  0  0  0  0  0  0  0  0  0  0
   -2.4703    0.1850   -3.2739 O   0  0  0  0  0  0  0  0  0  0  0  0
   -3.8591   -1.6491   -1.8312 C   0  0  0  0  0  0  0  0  0  0  0  0
   -4.5584   -2.5621   -1.0481 C   0  0  0  0  0  0  0  0  0  0  0  0
   -3.4022   -1.6007    2.0309 H   0  0  0  0  0  0  0  0  0  0  0  0
   -2.1530    0.0522    0.5906 H   0  0  0  0  0  0  0  0  0  0  0  0
   -3.9642   -1.6395   -2.9091 H   0  0  0  0  0  0  0  0  0  0  0  0
   -5.2256   -3.2934   -1.4830 H   0  0  0  0  0  0  0  0  0  0  0  0
   -8.7214   -6.4060    1.5825 C   0  0  0  0  0  0  0  0  0  0  0  0
   -9.9922   -6.3305    2.1504 C   0  0  0  0  0  0  0  0  0  0  0  0
  -11.1024   -5.9279    1.3944 C   0  0  0  0  0  0  0  0  0  0  0  0
  -10.9098   -5.6115    0.0415 C   0  0  0  0  0  0  0  0  0  0  0  0
   -9.6471   -5.6815   -0.5426 C   0  0  0  0  0  0  0  0  0  0  0  0
   -8.5579   -6.0736    0.2374 C   0  0  0  0  0  0  0  0  0  0  0  0
   -7.8661   -6.7354    2.1619 H   0  0  0  0  0  0  0  0  0  0  0  0
  -10.1260   -6.5983    3.1952 H   0  0  0  0  0  0  0  0  0  0  0  0
  -11.7618   -5.3142   -0.5643 H   0  0  0  0  0  0  0  0  0  0  0  0
   -9.5035   -5.4565   -1.5938 H   0  0  0  0  0  0  0  0  0  0  0  0
   -6.9306   -6.1522   -0.5017 S   0  0  0  0  0  0  0  0  0  0  0  0
   -6.0941   -7.0190    0.3300 O   0  0  0  0  0  0  0  0  0  0  0  0
   -6.3991   -4.6409   -0.4062 O   0  0  0  0  0  0  0  0  0  0  0  0
   -7.0886   -6.4124   -1.9340 O   0  0  0  0  0  0  0  0  0  0  0  0
  -12.4700   -5.8204    2.0250 C   0  0  0  0  0  0  0  0  0  0  0  0
  -12.5964   -6.5438    2.8358 H   0  0  0  0  0  0  0  0  0  0  0  0
  -12.6275   -4.8221    2.4522 H   0  0  0  0  0  0  0  0  0  0  0  0
  -13.2636   -5.9883    1.2912 H   0  0  0  0  0  0  0  0  0  0  0  0
  1  4  1  0  0  0  0
  1  2  1  0  0  0  0
  2  3  1  0  0  0  0
  4 12  1  0  0  0  0
  5 13  1  0  0  0  0
  5  4  2  0  0  0  0
  6  5  1  0  0  0  0
  7  8  2  0  0  0  0
  7  6  1  0  0  0  0
  9  7  2  0  0  0  0
 10  6  2  0  0  0  0
 10 11  1  0  0  0  0
 11  1  2  0  0  0  0
 14 10  1  0  0  0  0
 15 11  1  0  0  0  0
 16 17  1  0  0  0  0
 16 22  1  0  0  0  0
 17 23  1  0  0  0  0
 18 30  1  0  0  0  0
 18 17  2  0  0  0  0
 19 18  1  0  0  0  0
 20 19  2  0  0  0  0
 20 21  1  0  0  0  0
 21 16  2  0  0  0  0
 24 19  1  0  0  0  0
 25 20  1  0  0  0  0
 26 28  1  0  0  0  0
 26 21  1  0  0  0  0
 26 27  2  0  0  0  0
 28  3  1  0  0  0  0
 29 26  2  0  0  0  0
 30 32  1  0  0  0  0
 30 31  1  0  0  0  0
 33 30  1  0  0  0  0
M  RAD  2   2   2   3   2
M  END
