Coordinates from ORCA-job 4-NO2PhN2+~TsO-_B3LYPG-6-31G_dp-NX-Scan-d89-09-n800
 OpenBabel11261920283D

 33 33  0  0  0  0  0  0  0  0999 V2000
   -4.4359   -2.2155    0.4384 C   0  0  0  0  0  0  0  0  0  0  0  0
   -5.2490   -2.4067    1.5999 N   0  0  0  0  0  0  0  0  0  0  0  0
   -5.3668   -2.1983    2.7007 N   0  0  0  0  0  0  0  0  0  0  0  0
   -3.0702   -2.0222    0.6914 C   0  0  0  0  0  0  0  0  0  0  0  0
   -2.2296   -1.7895   -0.3884 C   0  0  0  0  0  0  0  0  0  0  0  0
   -2.7861   -1.7433   -1.6661 C   0  0  0  0  0  0  0  0  0  0  0  0
   -1.8863   -1.4902   -2.8150 N   0  0  0  0  0  0  0  0  0  0  0  0
   -0.6942   -1.3269   -2.5679 O   0  0  0  0  0  0  0  0  0  0  0  0
   -2.3940   -1.4603   -3.9312 O   0  0  0  0  0  0  0  0  0  0  0  0
   -4.1455   -1.9229   -1.9055 C   0  0  0  0  0  0  0  0  0  0  0  0
   -5.0015   -2.1775   -0.8352 C   0  0  0  0  0  0  0  0  0  0  0  0
   -2.6857   -2.0613    1.7042 H   0  0  0  0  0  0  0  0  0  0  0  0
   -1.1653   -1.6407   -0.2584 H   0  0  0  0  0  0  0  0  0  0  0  0
   -4.5227   -1.8704   -2.9190 H   0  0  0  0  0  0  0  0  0  0  0  0
   -6.0691   -2.3295   -0.9809 H   0  0  0  0  0  0  0  0  0  0  0  0
   -9.5651   -4.9542    2.0702 C   0  0  0  0  0  0  0  0  0  0  0  0
  -10.4045   -6.0621    2.1718 C   0  0  0  0  0  0  0  0  0  0  0  0
  -10.7809   -6.7932    1.0365 C   0  0  0  0  0  0  0  0  0  0  0  0
  -10.2919   -6.3849   -0.2135 C   0  0  0  0  0  0  0  0  0  0  0  0
   -9.4527   -5.2799   -0.3324 C   0  0  0  0  0  0  0  0  0  0  0  0
   -9.0925   -4.5703    0.8148 C   0  0  0  0  0  0  0  0  0  0  0  0
   -9.2882   -4.3786    2.9467 H   0  0  0  0  0  0  0  0  0  0  0  0
  -10.7782   -6.3614    3.1473 H   0  0  0  0  0  0  0  0  0  0  0  0
  -10.5770   -6.9374   -1.1053 H   0  0  0  0  0  0  0  0  0  0  0  0
   -9.0880   -4.9539   -1.3000 H   0  0  0  0  0  0  0  0  0  0  0  0
   -7.9952   -3.1623    0.6820 S   0  0  0  0  0  0  0  0  0  0  0  0
   -6.5931   -3.8053    0.8367 O   0  0  0  0  0  0  0  0  0  0  0  0
   -8.2740   -2.2467    1.8043 O   0  0  0  0  0  0  0  0  0  0  0  0
   -8.1447   -2.6107   -0.6859 O   0  0  0  0  0  0  0  0  0  0  0  0
  -11.7174   -7.9724    1.1489 C   0  0  0  0  0  0  0  0  0  0  0  0
  -11.7337   -8.3761    2.1651 H   0  0  0  0  0  0  0  0  0  0  0  0
  -12.7451   -7.6841    0.8941 H   0  0  0  0  0  0  0  0  0  0  0  0
  -11.4304   -8.7782    0.4661 H   0  0  0  0  0  0  0  0  0  0  0  0
  1  4  1  0  0  0  0
  1  2  1  0  0  0  0
  2  3  2  0  0  0  0
  4 12  1  0  0  0  0
  5 13  1  0  0  0  0
  5  4  2  0  0  0  0
  6  5  1  0  0  0  0
  7  8  2  0  0  0  0
  7  6  1  0  0  0  0
  9  7  2  0  0  0  0
 10  6  2  0  0  0  0
 10 11  1  0  0  0  0
 11  1  2  0  0  0  0
 14 10  1  0  0  0  0
 15 11  1  0  0  0  0
 16 17  1  0  0  0  0
 16 22  1  0  0  0  0
 17 23  1  0  0  0  0
 18 30  1  0  0  0  0
 18 17  2  0  0  0  0
 19 18  1  0  0  0  0
 20 19  2  0  0  0  0
 20 21  1  0  0  0  0
 21 16  2  0  0  0  0
 24 19  1  0  0  0  0
 25 20  1  0  0  0  0
 26 21  1  0  0  0  0
 26 27  2  0  0  0  0
 26 28  1  0  0  0  0
 29 26  2  0  0  0  0
 30 31  1  0  0  0  0
 32 30  1  0  0  0  0
 33 30  1  0  0  0  0
M  RAD  2   3   2  28   2
M  END
