Coordinates from ORCA-job 4-NO2PhN2+~TsO-_B3LYPG-6-31G_dp-NX-Scan-d89-09-n800
 OpenBabel11261920283D

 33 33  0  0  0  0  0  0  0  0999 V2000
   -4.6791   -2.5322    0.3638 C   0  0  0  0  0  0  0  0  0  0  0  0
   -5.6215   -3.2060    1.1985 N   0  0  0  0  0  0  0  0  0  0  0  0
   -5.8591   -3.6328    2.2133 N   0  0  0  0  0  0  0  0  0  0  0  0
   -3.9567   -1.5001    0.9758 C   0  0  0  0  0  0  0  0  0  0  0  0
   -2.9909   -0.8494    0.2178 C   0  0  0  0  0  0  0  0  0  0  0  0
   -2.7800   -1.2676   -1.0951 C   0  0  0  0  0  0  0  0  0  0  0  0
   -1.7386   -0.5775   -1.8913 N   0  0  0  0  0  0  0  0  0  0  0  0
   -1.1288    0.3372   -1.3439 O   0  0  0  0  0  0  0  0  0  0  0  0
   -1.5570   -0.9711   -3.0387 O   0  0  0  0  0  0  0  0  0  0  0  0
   -3.5020   -2.3014   -1.6877 C   0  0  0  0  0  0  0  0  0  0  0  0
   -4.4917   -2.9489   -0.9530 C   0  0  0  0  0  0  0  0  0  0  0  0
   -4.1537   -1.2143    2.0023 H   0  0  0  0  0  0  0  0  0  0  0  0
   -2.4040   -0.0359    0.6246 H   0  0  0  0  0  0  0  0  0  0  0  0
   -3.2963   -2.5800   -2.7130 H   0  0  0  0  0  0  0  0  0  0  0  0
   -5.1071   -3.7479   -1.3670 H   0  0  0  0  0  0  0  0  0  0  0  0
   -9.7477   -4.3731    0.8820 C   0  0  0  0  0  0  0  0  0  0  0  0
  -10.6436   -5.1285    1.6368 C   0  0  0  0  0  0  0  0  0  0  0  0
  -10.7411   -6.5175    1.4716 C   0  0  0  0  0  0  0  0  0  0  0  0
   -9.9028   -7.1353    0.5326 C   0  0  0  0  0  0  0  0  0  0  0  0
   -9.0006   -6.3935   -0.2280 C   0  0  0  0  0  0  0  0  0  0  0  0
   -8.9261   -5.0111   -0.0495 C   0  0  0  0  0  0  0  0  0  0  0  0
   -9.6722   -3.2998    1.0206 H   0  0  0  0  0  0  0  0  0  0  0  0
  -11.2776   -4.6317    2.3671 H   0  0  0  0  0  0  0  0  0  0  0  0
   -9.9562   -8.2130    0.3959 H   0  0  0  0  0  0  0  0  0  0  0  0
   -8.3448   -6.8747   -0.9454 H   0  0  0  0  0  0  0  0  0  0  0  0
   -7.8153   -4.0478   -1.0797 S   0  0  0  0  0  0  0  0  0  0  0  0
   -7.2960   -2.9361   -0.1401 O   0  0  0  0  0  0  0  0  0  0  0  0
   -8.5976   -3.4702   -2.1869 O   0  0  0  0  0  0  0  0  0  0  0  0
   -6.7050   -4.9650   -1.4509 O   0  0  0  0  0  0  0  0  0  0  0  0
  -11.7394   -7.3255    2.2673 C   0  0  0  0  0  0  0  0  0  0  0  0
  -12.0018   -6.8282    3.2053 H   0  0  0  0  0  0  0  0  0  0  0  0
  -12.6689   -7.4682    1.7023 H   0  0  0  0  0  0  0  0  0  0  0  0
  -11.3513   -8.3199    2.5070 H   0  0  0  0  0  0  0  0  0  0  0  0
  1  4  1  0  0  0  0
  1  2  1  0  0  0  0
  2  3  2  0  0  0  0
  4 12  1  0  0  0  0
  5 13  1  0  0  0  0
  5  4  2  0  0  0  0
  6  5  1  0  0  0  0
  7  8  2  0  0  0  0
  7  6  1  0  0  0  0
  9  7  2  0  0  0  0
 10  6  2  0  0  0  0
 10 11  1  0  0  0  0
 11  1  2  0  0  0  0
 14 10  1  0  0  0  0
 15 11  1  0  0  0  0
 16 22  1  0  0  0  0
 16 17  2  0  0  0  0
 17 23  1  0  0  0  0
 18 17  1  0  0  0  0
 18 30  1  0  0  0  0
 19 18  2  0  0  0  0
 20 21  2  0  0  0  0
 20 19  1  0  0  0  0
 21 16  1  0  0  0  0
 24 19  1  0  0  0  0
 25 20  1  0  0  0  0
 26 27  1  0  0  0  0
 26 21  1  0  0  0  0
 28 26  2  0  0  0  0
 29 26  2  0  0  0  0
 30 33  1  0  0  0  0
 30 31  1  0  0  0  0
 32 30  1  0  0  0  0
M  RAD  2   3   2  27   2
M  END
