Coordinates from ORCA-job 4-NO2PhN2+~TsO-_B3LYPG-6-31G_dp-NX-Scan-d89-09-n800
 OpenBabel11261920283D

 33 33  0  0  0  0  0  0  0  0999 V2000
   -4.6480   -0.8361    1.0881 C   0  0  0  0  0  0  0  0  0  0  0  0
   -5.2214   -0.1564    2.1339 N   0  0  0  0  0  0  0  0  0  0  0  0
   -5.6165    0.4135    3.0148 N   0  0  0  0  0  0  0  0  0  0  0  0
   -3.2381   -0.7096    0.9721 C   0  0  0  0  0  0  0  0  0  0  0  0
   -2.6263   -1.3884   -0.0589 C   0  0  0  0  0  0  0  0  0  0  0  0
   -3.4163   -2.1662   -0.9202 C   0  0  0  0  0  0  0  0  0  0  0  0
   -2.7119   -2.8919   -2.0117 N   0  0  0  0  0  0  0  0  0  0  0  0
   -1.4865   -2.7769   -2.0465 O   0  0  0  0  0  0  0  0  0  0  0  0
   -3.3976   -3.5407   -2.7856 O   0  0  0  0  0  0  0  0  0  0  0  0
   -4.7957   -2.2933   -0.8052 C   0  0  0  0  0  0  0  0  0  0  0  0
   -5.4520   -1.6034    0.2196 C   0  0  0  0  0  0  0  0  0  0  0  0
   -2.6740   -0.1037    1.6720 H   0  0  0  0  0  0  0  0  0  0  0  0
   -1.5559   -1.3411   -0.2145 H   0  0  0  0  0  0  0  0  0  0  0  0
   -5.4069   -2.9332   -1.4591 H   0  0  0  0  0  0  0  0  0  0  0  0
   -6.5470   -1.7128    0.2837 H   0  0  0  0  0  0  0  0  0  0  0  0
  -10.0356   -4.6362    0.4565 C   0  0  0  0  0  0  0  0  0  0  0  0
  -10.6087   -5.6649    1.2001 C   0  0  0  0  0  0  0  0  0  0  0  0
  -10.0984   -6.9708    1.1447 C   0  0  0  0  0  0  0  0  0  0  0  0
   -8.9926   -7.2171    0.3174 C   0  0  0  0  0  0  0  0  0  0  0  0
   -8.4106   -6.1957   -0.4311 C   0  0  0  0  0  0  0  0  0  0  0  0
   -8.9338   -4.9026   -0.3622 C   0  0  0  0  0  0  0  0  0  0  0  0
  -10.4322   -3.6274    0.5066 H   0  0  0  0  0  0  0  0  0  0  0  0
  -11.4691   -5.4556    1.8316 H   0  0  0  0  0  0  0  0  0  0  0  0
   -8.5850   -8.2239    0.2576 H   0  0  0  0  0  0  0  0  0  0  0  0
   -7.5544   -6.3814   -1.0705 H   0  0  0  0  0  0  0  0  0  0  0  0
   -8.2383   -3.5858   -1.3755 S   0  0  0  0  0  0  0  0  0  0  0  0
   -8.1458   -2.4111   -0.4293 O   0  0  0  0  0  0  0  0  0  0  0  0
   -9.1794   -3.3783   -2.4951 O   0  0  0  0  0  0  0  0  0  0  0  0
   -6.8834   -4.0826   -1.7741 O   0  0  0  0  0  0  0  0  0  0  0  0
  -10.7063   -8.0784    1.9722 C   0  0  0  0  0  0  0  0  0  0  0  0
  -10.1429   -8.2371    2.9005 H   0  0  0  0  0  0  0  0  0  0  0  0
  -11.7380   -7.8486    2.2531 H   0  0  0  0  0  0  0  0  0  0  0  0
  -10.7060   -9.0293    1.4297 H   0  0  0  0  0  0  0  0  0  0  0  0
  1  2  1  0  0  0  0
  2  3  1  0  0  0  0
  4  1  1  0  0  0  0
  4 12  1  0  0  0  0
  5  4  2  0  0  0  0
  6 10  2  0  0  0  0
  6  5  1  0  0  0  0
  7  6  1  0  0  0  0
  8  7  2  0  0  0  0
  9  7  2  0  0  0  0
 10 11  1  0  0  0  0
 11 15  1  0  0  0  0
 11  1  2  0  0  0  0
 13  5  1  0  0  0  0
 14 10  1  0  0  0  0
 16 22  1  0  0  0  0
 16 17  2  0  0  0  0
 17 23  1  0  0  0  0
 18 17  1  0  0  0  0
 18 30  1  0  0  0  0
 19 18  2  0  0  0  0
 20 21  2  0  0  0  0
 20 19  1  0  0  0  0
 21 16  1  0  0  0  0
 24 19  1  0  0  0  0
 25 20  1  0  0  0  0
 26 27  1  0  0  0  0
 26 21  1  0  0  0  0
 28 26  2  0  0  0  0
 29 26  2  0  0  0  0
 30 32  1  0  0  0  0
 30 31  1  0  0  0  0
 33 30  1  0  0  0  0
M  RAD  3   2   2   3   3  27   2
M  END
