Coordinates from ORCA-job 4-NO2PhN2+~TsO-_B3LYPG-6-31G_dp-NX-Scan-d89-09-n800
 OpenBabel11261920283D

 33 33  0  0  0  0  0  0  0  0999 V2000
   -4.6094   -1.5274    0.3545 C   0  0  0  0  0  0  0  0  0  0  0  0
   -5.6003   -1.2414    1.2850 N   0  0  0  0  0  0  0  0  0  0  0  0
   -6.4666   -1.0471    1.9759 N   0  0  0  0  0  0  0  0  0  0  0  0
   -3.2889   -1.2193    0.7219 C   0  0  0  0  0  0  0  0  0  0  0  0
   -2.2786   -1.4793   -0.1912 C   0  0  0  0  0  0  0  0  0  0  0  0
   -2.6270   -2.0154   -1.4318 C   0  0  0  0  0  0  0  0  0  0  0  0
   -1.5426   -2.2820   -2.4069 N   0  0  0  0  0  0  0  0  0  0  0  0
   -0.3962   -2.0180   -2.0546 O   0  0  0  0  0  0  0  0  0  0  0  0
   -1.8670   -2.7449   -3.4951 O   0  0  0  0  0  0  0  0  0  0  0  0
   -3.9388   -2.3079   -1.7953 C   0  0  0  0  0  0  0  0  0  0  0  0
   -4.9685   -2.0741   -0.8880 C   0  0  0  0  0  0  0  0  0  0  0  0
   -3.0732   -0.7970    1.6964 H   0  0  0  0  0  0  0  0  0  0  0  0
   -1.2403   -1.2719    0.0326 H   0  0  0  0  0  0  0  0  0  0  0  0
   -4.1438   -2.7260   -2.7724 H   0  0  0  0  0  0  0  0  0  0  0  0
   -6.0087   -2.3075   -1.1150 H   0  0  0  0  0  0  0  0  0  0  0  0
   -8.6727   -5.8163    1.5276 C   0  0  0  0  0  0  0  0  0  0  0  0
   -9.5895   -6.8586    1.6677 C   0  0  0  0  0  0  0  0  0  0  0  0
  -10.8244   -6.8317    1.0069 C   0  0  0  0  0  0  0  0  0  0  0  0
  -11.1183   -5.7309    0.1868 C   0  0  0  0  0  0  0  0  0  0  0  0
  -10.2128   -4.6844    0.0345 C   0  0  0  0  0  0  0  0  0  0  0  0
   -8.9909   -4.7327    0.7102 C   0  0  0  0  0  0  0  0  0  0  0  0
   -7.7106   -5.8433    2.0269 H   0  0  0  0  0  0  0  0  0  0  0  0
   -9.3391   -7.7094    2.2967 H   0  0  0  0  0  0  0  0  0  0  0  0
  -12.0673   -5.6976   -0.3426 H   0  0  0  0  0  0  0  0  0  0  0  0
  -10.4340   -3.8427   -0.6132 H   0  0  0  0  0  0  0  0  0  0  0  0
   -7.8379   -3.3734    0.5537 S   0  0  0  0  0  0  0  0  0  0  0  0
   -6.4732   -3.9071    0.8314 O   0  0  0  0  0  0  0  0  0  0  0  0
   -8.2429   -2.3653    1.6127 O   0  0  0  0  0  0  0  0  0  0  0  0
   -7.9926   -2.8296   -0.8244 O   0  0  0  0  0  0  0  0  0  0  0  0
  -11.8235   -7.9524    1.1729 C   0  0  0  0  0  0  0  0  0  0  0  0
  -11.3833   -8.8087    1.6910 H   0  0  0  0  0  0  0  0  0  0  0  0
  -12.6931   -7.6239    1.7550 H   0  0  0  0  0  0  0  0  0  0  0  0
  -12.1986   -8.2999    0.2046 H   0  0  0  0  0  0  0  0  0  0  0  0
  1  4  1  0  0  0  0
  1  2  1  0  0  0  0
  2  3  1  0  0  0  0
  4 12  1  0  0  0  0
  5 13  1  0  0  0  0
  5  4  2  0  0  0  0
  6  5  1  0  0  0  0
  7  8  2  0  0  0  0
  7  6  1  0  0  0  0
  9  7  2  0  0  0  0
 10  6  2  0  0  0  0
 10 11  1  0  0  0  0
 11  1  2  0  0  0  0
 14 10  1  0  0  0  0
 15 11  1  0  0  0  0
 16 17  1  0  0  0  0
 16 22  1  0  0  0  0
 17 23  1  0  0  0  0
 18 30  1  0  0  0  0
 18 17  2  0  0  0  0
 19 18  1  0  0  0  0
 20 19  2  0  0  0  0
 20 21  1  0  0  0  0
 21 16  2  0  0  0  0
 24 19  1  0  0  0  0
 25 20  1  0  0  0  0
 26 21  1  0  0  0  0
 26 27  2  0  0  0  0
 26 28  1  0  0  0  0
 29 26  2  0  0  0  0
 30 31  1  0  0  0  0
 30 32  1  0  0  0  0
 33 30  1  0  0  0  0
M  RAD  3   2   2   3   3  28   2
M  END
