Coordinates from ORCA-job 4-NO2PhN2+~TsO-_B3LYPG-6-31G_dp-NX-Scan-d89-09-n800
 OpenBabel11261920283D

 33 33  0  0  0  0  0  0  0  0999 V2000
   -4.6657   -0.8449    1.2112 C   0  0  0  0  0  0  0  0  0  0  0  0
   -5.1292   -0.1364    2.2916 N   0  0  0  0  0  0  0  0  0  0  0  0
   -5.4045    0.4596    3.2030 N   0  0  0  0  0  0  0  0  0  0  0  0
   -3.2515   -0.8692    1.0757 C   0  0  0  0  0  0  0  0  0  0  0  0
   -2.7259   -1.5733    0.0145 C   0  0  0  0  0  0  0  0  0  0  0  0
   -3.6033   -2.2159   -0.8705 C   0  0  0  0  0  0  0  0  0  0  0  0
   -2.9908   -2.9500   -2.0082 N   0  0  0  0  0  0  0  0  0  0  0  0
   -1.7828   -3.1770   -1.9247 O   0  0  0  0  0  0  0  0  0  0  0  0
   -3.7245   -3.2589   -2.9325 O   0  0  0  0  0  0  0  0  0  0  0  0
   -4.9895   -2.2008   -0.7424 C   0  0  0  0  0  0  0  0  0  0  0  0
   -5.5541   -1.4964    0.3240 C   0  0  0  0  0  0  0  0  0  0  0  0
   -2.6188   -0.3525    1.7881 H   0  0  0  0  0  0  0  0  0  0  0  0
   -1.6574   -1.6457   -0.1457 H   0  0  0  0  0  0  0  0  0  0  0  0
   -5.6536   -2.7668   -1.4181 H   0  0  0  0  0  0  0  0  0  0  0  0
   -6.6430   -1.5032    0.4142 H   0  0  0  0  0  0  0  0  0  0  0  0
  -10.0117   -4.6330    0.2824 C   0  0  0  0  0  0  0  0  0  0  0  0
  -10.5474   -5.6283    1.0964 C   0  0  0  0  0  0  0  0  0  0  0  0
   -9.9718   -6.9066    1.1527 C   0  0  0  0  0  0  0  0  0  0  0  0
   -8.8382   -7.1601    0.3652 C   0  0  0  0  0  0  0  0  0  0  0  0
   -8.2937   -6.1722   -0.4528 C   0  0  0  0  0  0  0  0  0  0  0  0
   -8.8820   -4.9056   -0.4954 C   0  0  0  0  0  0  0  0  0  0  0  0
  -10.4594   -3.6452    0.2458 H   0  0  0  0  0  0  0  0  0  0  0  0
  -11.4293   -5.4150    1.6957 H   0  0  0  0  0  0  0  0  0  0  0  0
   -8.3795   -8.1462    0.3920 H   0  0  0  0  0  0  0  0  0  0  0  0
   -7.4169   -6.3624   -1.0620 H   0  0  0  0  0  0  0  0  0  0  0  0
   -8.2290   -3.6349   -1.5936 S   0  0  0  0  0  0  0  0  0  0  0  0
   -8.1853   -2.3957   -0.7365 O   0  0  0  0  0  0  0  0  0  0  0  0
   -9.1664   -3.5616   -2.7360 O   0  0  0  0  0  0  0  0  0  0  0  0
   -6.8483   -4.1015   -1.9453 O   0  0  0  0  0  0  0  0  0  0  0  0
  -10.5411   -7.9785    2.0513 C   0  0  0  0  0  0  0  0  0  0  0  0
   -9.9358   -8.1016    2.9583 H   0  0  0  0  0  0  0  0  0  0  0  0
  -11.5594   -7.7367    2.3679 H   0  0  0  0  0  0  0  0  0  0  0  0
  -10.5648   -8.9509    1.5481 H   0  0  0  0  0  0  0  0  0  0  0  0
  1  2  1  0  0  0  0
  2  3  1  0  0  0  0
  4  1  1  0  0  0  0
  4 12  1  0  0  0  0
  5  4  2  0  0  0  0
  6 10  2  0  0  0  0
  6  5  1  0  0  0  0
  7  8  2  0  0  0  0
  7  6  1  0  0  0  0
  9  7  2  0  0  0  0
 10 11  1  0  0  0  0
 11 15  1  0  0  0  0
 11  1  2  0  0  0  0
 13  5  1  0  0  0  0
 14 10  1  0  0  0  0
 16 17  2  0  0  0  0
 17 18  1  0  0  0  0
 17 23  1  0  0  0  0
 18 30  1  0  0  0  0
 19 24  1  0  0  0  0
 19 18  2  0  0  0  0
 20 19  1  0  0  0  0
 21 20  2  0  0  0  0
 21 16  1  0  0  0  0
 22 16  1  0  0  0  0
 25 20  1  0  0  0  0
 26 27  1  0  0  0  0
 26 21  1  0  0  0  0
 28 26  2  0  0  0  0
 29 26  2  0  0  0  0
 30 32  1  0  0  0  0
 30 31  1  0  0  0  0
 33 30  1  0  0  0  0
M  RAD  3   2   2   3   3  27   2
M  END
