Coordinates from ORCA-job 4-NO2PhN2+~TsO-_B3LYPG-6-31G_dp-NX-Scan-d89-09-n800
 OpenBabel11261920283D

 33 33  0  0  0  0  0  0  0  0999 V2000
   -4.1738   -2.8634    0.3332 C   0  0  0  0  0  0  0  0  0  0  0  0
   -4.7451   -3.6868    1.3534 N   0  0  0  0  0  0  0  0  0  0  0  0
   -4.6719   -3.9935    2.4353 N   0  0  0  0  0  0  0  0  0  0  0  0
   -3.3047   -1.8620    0.7949 C   0  0  0  0  0  0  0  0  0  0  0  0
   -2.6887   -1.0457   -0.1417 C   0  0  0  0  0  0  0  0  0  0  0  0
   -2.9530   -1.2646   -1.4944 C   0  0  0  0  0  0  0  0  0  0  0  0
   -2.2854   -0.3945   -2.4904 N   0  0  0  0  0  0  0  0  0  0  0  0
   -1.5424    0.4829   -2.0587 O   0  0  0  0  0  0  0  0  0  0  0  0
   -2.5225   -0.6106   -3.6742 O   0  0  0  0  0  0  0  0  0  0  0  0
   -3.8137   -2.2597   -1.9448 C   0  0  0  0  0  0  0  0  0  0  0  0
   -4.4467   -3.0822   -1.0147 C   0  0  0  0  0  0  0  0  0  0  0  0
   -3.1320   -1.7286    1.8565 H   0  0  0  0  0  0  0  0  0  0  0  0
   -2.0156   -0.2508    0.1531 H   0  0  0  0  0  0  0  0  0  0  0  0
   -3.9911   -2.3785   -3.0061 H   0  0  0  0  0  0  0  0  0  0  0  0
   -5.1480   -3.8524   -1.3060 H   0  0  0  0  0  0  0  0  0  0  0  0
   -9.3322   -4.9001    1.8852 C   0  0  0  0  0  0  0  0  0  0  0  0
  -10.4065   -5.7324    2.1929 C   0  0  0  0  0  0  0  0  0  0  0  0
  -11.0423   -6.4928    1.2009 C   0  0  0  0  0  0  0  0  0  0  0  0
  -10.5710   -6.3984   -0.1166 C   0  0  0  0  0  0  0  0  0  0  0  0
   -9.4988   -5.5699   -0.4411 C   0  0  0  0  0  0  0  0  0  0  0  0
   -8.8836   -4.8252    0.5660 C   0  0  0  0  0  0  0  0  0  0  0  0
   -8.8524   -4.3001    2.6507 H   0  0  0  0  0  0  0  0  0  0  0  0
  -10.7619   -5.7891    3.2187 H   0  0  0  0  0  0  0  0  0  0  0  0
  -11.0537   -6.9777   -0.8996 H   0  0  0  0  0  0  0  0  0  0  0  0
   -9.1445   -5.4843   -1.4625 H   0  0  0  0  0  0  0  0  0  0  0  0
   -7.4892   -3.7750    0.1625 S   0  0  0  0  0  0  0  0  0  0  0  0
   -6.2696   -4.7173    0.3807 O   0  0  0  0  0  0  0  0  0  0  0  0
   -7.4442   -2.6694    1.1430 O   0  0  0  0  0  0  0  0  0  0  0  0
   -7.6026   -3.4114   -1.2641 O   0  0  0  0  0  0  0  0  0  0  0  0
  -12.2287   -7.3651    1.5358 C   0  0  0  0  0  0  0  0  0  0  0  0
  -12.2037   -7.6931    2.5789 H   0  0  0  0  0  0  0  0  0  0  0  0
  -13.1701   -6.8209    1.3875 H   0  0  0  0  0  0  0  0  0  0  0  0
  -12.2650   -8.2544    0.9000 H   0  0  0  0  0  0  0  0  0  0  0  0
  1  4  1  0  0  0  0
  1  2  1  0  0  0  0
  2  3  2  0  0  0  0
  4 12  1  0  0  0  0
  5 13  1  0  0  0  0
  5  4  2  0  0  0  0
  6  5  1  0  0  0  0
  7  8  2  0  0  0  0
  7  6  1  0  0  0  0
  9  7  2  0  0  0  0
 10  6  2  0  0  0  0
 10 11  1  0  0  0  0
 11  1  2  0  0  0  0
 14 10  1  0  0  0  0
 15 11  1  0  0  0  0
 16 17  1  0  0  0  0
 16 22  1  0  0  0  0
 17 23  1  0  0  0  0
 18 30  1  0  0  0  0
 18 17  2  0  0  0  0
 19 18  1  0  0  0  0
 20 19  2  0  0  0  0
 20 21  1  0  0  0  0
 21 16  2  0  0  0  0
 24 19  1  0  0  0  0
 25 20  1  0  0  0  0
 26 27  2  0  0  0  0
 26 21  1  0  0  0  0
 26 28  1  0  0  0  0
 29 26  2  0  0  0  0
 30 31  1  0  0  0  0
 32 30  1  0  0  0  0
 33 30  1  0  0  0  0
M  RAD  2   3   2  28   2
M  END
