Coordinates from ORCA-job 4-NO2PhN2+~TsO-_B3LYPG-6-31G_dp-NX-Scan-d89-09-n800
 OpenBabel11261920283D

 33 33  0  0  0  0  0  0  0  0999 V2000
   -4.5985   -2.4610    0.4911 C   0  0  0  0  0  0  0  0  0  0  0  0
   -5.4757   -3.0791    1.4239 N   0  0  0  0  0  0  0  0  0  0  0  0
   -5.7049   -3.4180    2.4715 N   0  0  0  0  0  0  0  0  0  0  0  0
   -3.8822   -1.3581    0.9783 C   0  0  0  0  0  0  0  0  0  0  0  0
   -2.9686   -0.7551    0.1243 C   0  0  0  0  0  0  0  0  0  0  0  0
   -2.7996   -1.2861   -1.1540 C   0  0  0  0  0  0  0  0  0  0  0  0
   -1.8120   -0.6438   -2.0530 N   0  0  0  0  0  0  0  0  0  0  0  0
   -1.2106    0.3339   -1.6162 O   0  0  0  0  0  0  0  0  0  0  0  0
   -1.6629   -1.1364   -3.1658 O   0  0  0  0  0  0  0  0  0  0  0  0
   -3.5152   -2.3861   -1.6211 C   0  0  0  0  0  0  0  0  0  0  0  0
   -4.4553   -2.9907   -0.7907 C   0  0  0  0  0  0  0  0  0  0  0  0
   -4.0454   -0.9861    1.9830 H   0  0  0  0  0  0  0  0  0  0  0  0
   -2.3900    0.1072    0.4300 H   0  0  0  0  0  0  0  0  0  0  0  0
   -3.3472   -2.7477   -2.6273 H   0  0  0  0  0  0  0  0  0  0  0  0
   -5.0762   -3.8284   -1.1171 H   0  0  0  0  0  0  0  0  0  0  0  0
   -9.7163   -4.4151    0.9653 C   0  0  0  0  0  0  0  0  0  0  0  0
  -10.6421   -5.1890    1.6641 C   0  0  0  0  0  0  0  0  0  0  0  0
  -10.7900   -6.5576    1.4004 C   0  0  0  0  0  0  0  0  0  0  0  0
   -9.9716   -7.1372    0.4200 C   0  0  0  0  0  0  0  0  0  0  0  0
   -9.0407   -6.3765   -0.2849 C   0  0  0  0  0  0  0  0  0  0  0  0
   -8.9161   -5.0136   -0.0088 C   0  0  0  0  0  0  0  0  0  0  0  0
   -9.6005   -3.3582    1.1799 H   0  0  0  0  0  0  0  0  0  0  0  0
  -11.2597   -4.7226    2.4278 H   0  0  0  0  0  0  0  0  0  0  0  0
  -10.0638   -8.1995    0.2066 H   0  0  0  0  0  0  0  0  0  0  0  0
   -8.4001   -6.8297   -1.0337 H   0  0  0  0  0  0  0  0  0  0  0  0
   -7.7687   -4.0210   -0.9711 S   0  0  0  0  0  0  0  0  0  0  0  0
   -7.2530   -2.9656    0.0245 O   0  0  0  0  0  0  0  0  0  0  0  0
   -8.5252   -3.4066   -2.0813 O   0  0  0  0  0  0  0  0  0  0  0  0
   -6.6658   -4.9434   -1.3628 O   0  0  0  0  0  0  0  0  0  0  0  0
  -11.8179   -7.3849    2.1365 C   0  0  0  0  0  0  0  0  0  0  0  0
  -12.1127   -6.9132    3.0779 H   0  0  0  0  0  0  0  0  0  0  0  0
  -12.7265   -7.5111    1.5347 H   0  0  0  0  0  0  0  0  0  0  0  0
  -11.4397   -8.3867    2.3628 H   0  0  0  0  0  0  0  0  0  0  0  0
  1  4  1  0  0  0  0
  1  2  1  0  0  0  0
  2  3  2  0  0  0  0
  4 12  1  0  0  0  0
  5 13  1  0  0  0  0
  5  4  2  0  0  0  0
  6  5  1  0  0  0  0
  7  8  2  0  0  0  0
  7  6  1  0  0  0  0
  9  7  2  0  0  0  0
 10  6  2  0  0  0  0
 10 11  1  0  0  0  0
 11  1  2  0  0  0  0
 14 10  1  0  0  0  0
 15 11  1  0  0  0  0
 16 22  1  0  0  0  0
 16 17  2  0  0  0  0
 17 23  1  0  0  0  0
 18 17  1  0  0  0  0
 18 30  1  0  0  0  0
 19 18  2  0  0  0  0
 20 21  2  0  0  0  0
 20 19  1  0  0  0  0
 21 16  1  0  0  0  0
 24 19  1  0  0  0  0
 25 20  1  0  0  0  0
 26 21  1  0  0  0  0
 26 27  1  0  0  0  0
 28 26  2  0  0  0  0
 29 26  2  0  0  0  0
 30 33  1  0  0  0  0
 30 31  1  0  0  0  0
 32 30  1  0  0  0  0
M  RAD  2   3   2  27   2
M  END
