Coordinates from ORCA-job 4-NO2PhN2+~TsO-_B3LYPG-6-31G_dp-NX-Scan-d89-09-n800
 OpenBabel11261920283D

 33 33  0  0  0  0  0  0  0  0999 V2000
   -4.4571   -3.3327   -0.0489 C   0  0  0  0  0  0  0  0  0  0  0  0
   -5.0842   -4.5283    0.4278 N   0  0  0  0  0  0  0  0  0  0  0  0
   -5.0995   -5.2736    1.2772 N   0  0  0  0  0  0  0  0  0  0  0  0
   -3.8665   -2.5262    0.9333 C   0  0  0  0  0  0  0  0  0  0  0  0
   -3.2042   -1.3763    0.5256 C   0  0  0  0  0  0  0  0  0  0  0  0
   -3.1442   -1.0888   -0.8377 C   0  0  0  0  0  0  0  0  0  0  0  0
   -2.4274    0.1339   -1.2668 N   0  0  0  0  0  0  0  0  0  0  0  0
   -1.9334    0.8320   -0.3852 O   0  0  0  0  0  0  0  0  0  0  0  0
   -2.3748    0.3610   -2.4710 O   0  0  0  0  0  0  0  0  0  0  0  0
   -3.7259   -1.8995   -1.8081 C   0  0  0  0  0  0  0  0  0  0  0  0
   -4.4094   -3.0453   -1.4106 C   0  0  0  0  0  0  0  0  0  0  0  0
   -3.9363   -2.7924    1.9817 H   0  0  0  0  0  0  0  0  0  0  0  0
   -2.7373   -0.7075    1.2370 H   0  0  0  0  0  0  0  0  0  0  0  0
   -3.6525   -1.6241   -2.8523 H   0  0  0  0  0  0  0  0  0  0  0  0
   -4.8992   -3.7069   -2.1114 H   0  0  0  0  0  0  0  0  0  0  0  0
   -9.2418   -4.2701    1.0213 C   0  0  0  0  0  0  0  0  0  0  0  0
  -10.1538   -4.8857    1.8806 C   0  0  0  0  0  0  0  0  0  0  0  0
  -10.6731   -6.1544    1.5973 C   0  0  0  0  0  0  0  0  0  0  0  0
  -10.2536   -6.7997    0.4225 C   0  0  0  0  0  0  0  0  0  0  0  0
   -9.3470   -6.1984   -0.4449 C   0  0  0  0  0  0  0  0  0  0  0  0
   -8.8399   -4.9327   -0.1367 C   0  0  0  0  0  0  0  0  0  0  0  0
   -8.8504   -3.2810    1.2309 H   0  0  0  0  0  0  0  0  0  0  0  0
  -10.4705   -4.3685    2.7828 H   0  0  0  0  0  0  0  0  0  0  0  0
  -10.6478   -7.7841    0.1841 H   0  0  0  0  0  0  0  0  0  0  0  0
   -9.0388   -6.6966   -1.3579 H   0  0  0  0  0  0  0  0  0  0  0  0
   -7.6650   -4.1581   -1.2498 S   0  0  0  0  0  0  0  0  0  0  0  0
   -6.3747   -5.0223   -1.0997 O   0  0  0  0  0  0  0  0  0  0  0  0
   -7.4198   -2.7910   -0.7440 O   0  0  0  0  0  0  0  0  0  0  0  0
   -8.1775   -4.3156   -2.6174 O   0  0  0  0  0  0  0  0  0  0  0  0
  -11.6835   -6.8049    2.5118 C   0  0  0  0  0  0  0  0  0  0  0  0
  -11.6722   -6.3544    3.5079 H   0  0  0  0  0  0  0  0  0  0  0  0
  -12.7006   -6.6974    2.1141 H   0  0  0  0  0  0  0  0  0  0  0  0
  -11.4926   -7.8774    2.6211 H   0  0  0  0  0  0  0  0  0  0  0  0
  1  2  1  0  0  0  0
  1  4  2  0  0  0  0
  2  3  2  0  0  0  0
  4 12  1  0  0  0  0
  5  4  1  0  0  0  0
  5 13  1  0  0  0  0
  6  5  2  0  0  0  0
  7  6  1  0  0  0  0
  7  8  2  0  0  0  0
  9  7  2  0  0  0  0
 10 11  2  0  0  0  0
 10  6  1  0  0  0  0
 11  1  1  0  0  0  0
 14 10  1  0  0  0  0
 15 11  1  0  0  0  0
 16 22  1  0  0  0  0
 16 17  2  0  0  0  0
 17 23  1  0  0  0  0
 18 17  1  0  0  0  0
 18 30  1  0  0  0  0
 19 18  2  0  0  0  0
 20 21  2  0  0  0  0
 20 19  1  0  0  0  0
 21 16  1  0  0  0  0
 24 19  1  0  0  0  0
 25 20  1  0  0  0  0
 26 27  2  0  0  0  0
 26 28  1  0  0  0  0
 26 21  1  0  0  0  0
 29 26  2  0  0  0  0
 30 33  1  0  0  0  0
 30 31  1  0  0  0  0
 32 30  1  0  0  0  0
M  RAD  2   3   2  28   2
M  END
