Coordinates from ORCA-job 4-NO2PhN2+~TsO-_B3LYPG-6-31G_dp-NX-Scan-d89-09-n800
 OpenBabel11261920283D

 33 34  0  0  0  0  0  0  0  0999 V2000
   -4.4801   -2.8920    0.3155 C   0  0  0  0  0  0  0  0  0  0  0  0
   -5.0003   -3.8797    1.2017 N   0  0  0  0  0  0  0  0  0  0  0  0
   -5.7018   -4.8420    0.8993 N   0  0  0  0  0  0  0  0  0  0  0  0
   -4.3938   -1.6074    0.8750 C   0  0  0  0  0  0  0  0  0  0  0  0
   -3.8439   -0.5593    0.1476 C   0  0  0  0  0  0  0  0  0  0  0  0
   -3.3392   -0.8270   -1.1233 C   0  0  0  0  0  0  0  0  0  0  0  0
   -2.7378    0.2729   -1.8962 N   0  0  0  0  0  0  0  0  0  0  0  0
   -2.7197    1.3882   -1.3772 O   0  0  0  0  0  0  0  0  0  0  0  0
   -2.2922    0.0079   -3.0112 O   0  0  0  0  0  0  0  0  0  0  0  0
   -3.3756   -2.1033   -1.6827 C   0  0  0  0  0  0  0  0  0  0  0  0
   -3.9578   -3.1426   -0.9653 C   0  0  0  0  0  0  0  0  0  0  0  0
   -4.7664   -1.4514    1.8811 H   0  0  0  0  0  0  0  0  0  0  0  0
   -3.7813    0.4446    0.5480 H   0  0  0  0  0  0  0  0  0  0  0  0
   -2.9617   -2.2636   -2.6698 H   0  0  0  0  0  0  0  0  0  0  0  0
   -4.0027   -4.1347   -1.3928 H   0  0  0  0  0  0  0  0  0  0  0  0
   -8.5771   -6.5122    1.4005 C   0  0  0  0  0  0  0  0  0  0  0  0
   -9.7682   -6.2931    2.0888 C   0  0  0  0  0  0  0  0  0  0  0  0
  -10.8389   -5.6122    1.4912 C   0  0  0  0  0  0  0  0  0  0  0  0
  -10.6933   -5.1560    0.1715 C   0  0  0  0  0  0  0  0  0  0  0  0
   -9.5123   -5.3610   -0.5354 C   0  0  0  0  0  0  0  0  0  0  0  0
   -8.4636   -6.0381    0.0925 C   0  0  0  0  0  0  0  0  0  0  0  0
   -7.7531   -7.0469    1.8584 H   0  0  0  0  0  0  0  0  0  0  0  0
   -9.8697   -6.6624    3.1049 H   0  0  0  0  0  0  0  0  0  0  0  0
  -11.5190   -4.6396   -0.3102 H   0  0  0  0  0  0  0  0  0  0  0  0
   -9.4039   -5.0211   -1.5591 H   0  0  0  0  0  0  0  0  0  0  0  0
   -6.9574   -6.3158   -0.8077 S   0  0  0  0  0  0  0  0  0  0  0  0
   -6.2415   -7.4471   -0.2398 O   0  0  0  0  0  0  0  0  0  0  0  0
   -6.0472   -4.9063   -0.4669 O   0  0  0  0  0  0  0  0  0  0  0  0
   -7.1887   -6.1618   -2.2352 O   0  0  0  0  0  0  0  0  0  0  0  0
  -12.1162   -5.3578    2.2529 C   0  0  0  0  0  0  0  0  0  0  0  0
  -12.2264   -6.0465    3.0942 H   0  0  0  0  0  0  0  0  0  0  0  0
  -12.1306   -4.3384    2.6573 H   0  0  0  0  0  0  0  0  0  0  0  0
  -12.9933   -5.4614    1.6069 H   0  0  0  0  0  0  0  0  0  0  0  0
  1  4  1  0  0  0  0
  1  2  1  0  0  0  0
  3  2  1  0  0  0  0
  4 12  1  0  0  0  0
  5 13  1  0  0  0  0
  5  4  2  0  0  0  0
  6  5  1  0  0  0  0
  7  8  2  0  0  0  0
  7  6  1  0  0  0  0
  9  7  2  0  0  0  0
 10  6  2  0  0  0  0
 10 11  1  0  0  0  0
 11  1  2  0  0  0  0
 14 10  1  0  0  0  0
 15 11  1  0  0  0  0
 16 22  1  0  0  0  0
 16 17  2  0  0  0  0
 17 23  1  0  0  0  0
 18 17  1  0  0  0  0
 18 30  1  0  0  0  0
 19 18  2  0  0  0  0
 20 21  2  0  0  0  0
 20 19  1  0  0  0  0
 21 16  1  0  0  0  0
 24 19  1  0  0  0  0
 25 20  1  0  0  0  0
 26 28  1  0  0  0  0
 26 27  2  0  0  0  0
 26 21  1  0  0  0  0
 28  3  1  0  0  0  0
 29 26  2  0  0  0  0
 30 32  1  0  0  0  0
 30 31  1  0  0  0  0
 33 30  1  0  0  0  0
M  RAD  2   2   2   3   2
M  END
