Coordinates from ORCA-job 4-NO2PhN2+~TsO-_B3LYPG-6-31G_dp-NX-Scan-d89-09-n800
 OpenBabel11261920283D

 33 33  0  0  0  0  0  0  0  0999 V2000
   -4.7618   -0.6791    0.6055 C   0  0  0  0  0  0  0  0  0  0  0  0
   -5.5923    0.2010    1.2564 N   0  0  0  0  0  0  0  0  0  0  0  0
   -6.2809    0.8973    1.7967 N   0  0  0  0  0  0  0  0  0  0  0  0
   -3.3635   -0.4601    0.6653 C   0  0  0  0  0  0  0  0  0  0  0  0
   -2.5663   -1.3686    0.0014 C   0  0  0  0  0  0  0  0  0  0  0  0
   -3.1721   -2.4424   -0.6755 C   0  0  0  0  0  0  0  0  0  0  0  0
   -2.2769   -3.4045   -1.3674 N   0  0  0  0  0  0  0  0  0  0  0  0
   -1.0683   -3.1892   -1.2933 O   0  0  0  0  0  0  0  0  0  0  0  0
   -2.8057   -4.3386   -1.9542 O   0  0  0  0  0  0  0  0  0  0  0  0
   -4.5448   -2.6476   -0.7254 C   0  0  0  0  0  0  0  0  0  0  0  0
   -5.3827   -1.7384   -0.0773 C   0  0  0  0  0  0  0  0  0  0  0  0
   -2.9456    0.3801    1.2078 H   0  0  0  0  0  0  0  0  0  0  0  0
   -1.4874   -1.2779   -0.0070 H   0  0  0  0  0  0  0  0  0  0  0  0
   -5.0065   -3.4719   -1.2606 H   0  0  0  0  0  0  0  0  0  0  0  0
   -6.4822   -1.8568   -0.0743 H   0  0  0  0  0  0  0  0  0  0  0  0
   -9.8603   -4.6212    1.0044 C   0  0  0  0  0  0  0  0  0  0  0  0
  -10.3605   -5.7905    1.5735 C   0  0  0  0  0  0  0  0  0  0  0  0
  -10.0814   -7.0462    1.0147 C   0  0  0  0  0  0  0  0  0  0  0  0
   -9.2848   -7.0971   -0.1372 C   0  0  0  0  0  0  0  0  0  0  0  0
   -8.7777   -5.9342   -0.7157 C   0  0  0  0  0  0  0  0  0  0  0  0
   -9.0676   -4.6954   -0.1427 C   0  0  0  0  0  0  0  0  0  0  0  0
  -10.0728   -3.6530    1.4448 H   0  0  0  0  0  0  0  0  0  0  0  0
  -10.9768   -5.7293    2.4676 H   0  0  0  0  0  0  0  0  0  0  0  0
   -9.0582   -8.0607   -0.5873 H   0  0  0  0  0  0  0  0  0  0  0  0
   -8.1554   -5.9756   -1.6032 H   0  0  0  0  0  0  0  0  0  0  0  0
   -8.4738   -3.1886   -0.9277 S   0  0  0  0  0  0  0  0  0  0  0  0
   -8.1719   -2.2558    0.2270 O   0  0  0  0  0  0  0  0  0  0  0  0
   -9.5547   -2.6933   -1.8019 O   0  0  0  0  0  0  0  0  0  0  0  0
   -7.2187   -3.5774   -1.6413 O   0  0  0  0  0  0  0  0  0  0  0  0
  -10.6009   -8.3119    1.6557 C   0  0  0  0  0  0  0  0  0  0  0  0
   -9.9047   -8.6876    2.4168 H   0  0  0  0  0  0  0  0  0  0  0  0
  -11.5619   -8.1441    2.1517 H   0  0  0  0  0  0  0  0  0  0  0  0
  -10.7360   -9.1081    0.9172 H   0  0  0  0  0  0  0  0  0  0  0  0
  1  4  1  0  0  0  0
  1  2  1  0  0  0  0
  2  3  1  0  0  0  0
  4 12  1  0  0  0  0
  5  4  2  0  0  0  0
  6  5  1  0  0  0  0
  7  8  2  0  0  0  0
  7  6  1  0  0  0  0
  9  7  2  0  0  0  0
 10  6  2  0  0  0  0
 10 11  1  0  0  0  0
 11 15  1  0  0  0  0
 11  1  2  0  0  0  0
 13  5  1  0  0  0  0
 14 10  1  0  0  0  0
 16 22  1  0  0  0  0
 16 17  2  0  0  0  0
 17 23  1  0  0  0  0
 18 17  1  0  0  0  0
 18 30  1  0  0  0  0
 19 18  2  0  0  0  0
 20 21  2  0  0  0  0
 20 19  1  0  0  0  0
 21 16  1  0  0  0  0
 24 19  1  0  0  0  0
 25 20  1  0  0  0  0
 26 21  1  0  0  0  0
 26 27  1  0  0  0  0
 28 26  2  0  0  0  0
 29 26  2  0  0  0  0
 30 32  1  0  0  0  0
 30 31  1  0  0  0  0
 33 30  1  0  0  0  0
M  RAD  3   2   2   3   3  27   2
M  END
