Coordinates from ORCA-job 4-NO2PhN2+~TsO-_B3LYPG-6-31G_dp-NX-Scan-d89-09-n800
 OpenBabel11261920283D

 33 33  0  0  0  0  0  0  0  0999 V2000
   -4.6573   -0.8396    1.2238 C   0  0  0  0  0  0  0  0  0  0  0  0
   -5.1034   -0.1278    2.3100 N   0  0  0  0  0  0  0  0  0  0  0  0
   -5.3515    0.4718    3.2275 N   0  0  0  0  0  0  0  0  0  0  0  0
   -3.2439   -0.8713    1.0789 C   0  0  0  0  0  0  0  0  0  0  0  0
   -2.7276   -1.5755    0.0134 C   0  0  0  0  0  0  0  0  0  0  0  0
   -3.6132   -2.2117   -0.8675 C   0  0  0  0  0  0  0  0  0  0  0  0
   -3.0112   -2.9454   -2.0108 N   0  0  0  0  0  0  0  0  0  0  0  0
   -1.8057   -3.1868   -1.9304 O   0  0  0  0  0  0  0  0  0  0  0  0
   -3.7496   -3.2391   -2.9361 O   0  0  0  0  0  0  0  0  0  0  0  0
   -4.9989   -2.1910   -0.7308 C   0  0  0  0  0  0  0  0  0  0  0  0
   -5.5542   -1.4859    0.3400 C   0  0  0  0  0  0  0  0  0  0  0  0
   -2.6046   -0.3591    1.7886 H   0  0  0  0  0  0  0  0  0  0  0  0
   -1.6604   -1.6529   -0.1529 H   0  0  0  0  0  0  0  0  0  0  0  0
   -5.6640   -2.7565   -1.4060 H   0  0  0  0  0  0  0  0  0  0  0  0
   -6.6419   -1.4845    0.4359 H   0  0  0  0  0  0  0  0  0  0  0  0
  -10.0184   -4.6403    0.2643 C   0  0  0  0  0  0  0  0  0  0  0  0
  -10.5535   -5.6322    1.0827 C   0  0  0  0  0  0  0  0  0  0  0  0
   -9.9717   -6.9071    1.1517 C   0  0  0  0  0  0  0  0  0  0  0  0
   -8.8323   -7.1605    0.3723 C   0  0  0  0  0  0  0  0  0  0  0  0
   -8.2884   -6.1760   -0.4498 C   0  0  0  0  0  0  0  0  0  0  0  0
   -8.8829   -4.9127   -0.5053 C   0  0  0  0  0  0  0  0  0  0  0  0
  -10.4708   -3.6550    0.2181 H   0  0  0  0  0  0  0  0  0  0  0  0
  -11.4398   -5.4190    1.6756 H   0  0  0  0  0  0  0  0  0  0  0  0
   -8.3686   -8.1440    0.4092 H   0  0  0  0  0  0  0  0  0  0  0  0
   -7.4072   -6.3660   -1.0527 H   0  0  0  0  0  0  0  0  0  0  0  0
   -8.2304   -3.6466   -1.6092 S   0  0  0  0  0  0  0  0  0  0  0  0
   -8.2028   -2.3998   -0.7634 O   0  0  0  0  0  0  0  0  0  0  0  0
   -9.1592   -3.5949   -2.7608 O   0  0  0  0  0  0  0  0  0  0  0  0
   -6.8430   -4.1051   -1.9445 O   0  0  0  0  0  0  0  0  0  0  0  0
  -10.5406   -7.9754    2.0547 C   0  0  0  0  0  0  0  0  0  0  0  0
   -9.9368   -8.0926    2.9635 H   0  0  0  0  0  0  0  0  0  0  0  0
  -11.5599   -7.7341    2.3680 H   0  0  0  0  0  0  0  0  0  0  0  0
  -10.5613   -8.9505    1.5565 H   0  0  0  0  0  0  0  0  0  0  0  0
  1  2  1  0  0  0  0
  2  3  1  0  0  0  0
  4  1  1  0  0  0  0
  4 12  1  0  0  0  0
  5  4  2  0  0  0  0
  6 10  2  0  0  0  0
  6  5  1  0  0  0  0
  7  8  2  0  0  0  0
  7  6  1  0  0  0  0
  9  7  2  0  0  0  0
 10 11  1  0  0  0  0
 11 15  1  0  0  0  0
 11  1  2  0  0  0  0
 13  5  1  0  0  0  0
 14 10  1  0  0  0  0
 16 17  2  0  0  0  0
 17 18  1  0  0  0  0
 17 23  1  0  0  0  0
 18 30  1  0  0  0  0
 19 24  1  0  0  0  0
 19 18  2  0  0  0  0
 20 19  1  0  0  0  0
 21 20  2  0  0  0  0
 21 16  1  0  0  0  0
 22 16  1  0  0  0  0
 25 20  1  0  0  0  0
 26 27  1  0  0  0  0
 26 21  1  0  0  0  0
 28 26  2  0  0  0  0
 29 26  2  0  0  0  0
 30 32  1  0  0  0  0
 30 31  1  0  0  0  0
 33 30  1  0  0  0  0
M  RAD  3   2   2   3   3  27   2
M  END
