Coordinates from ORCA-job 4-NO2PhN2+~TsO-_B3LYPG-6-31G_dp-NX-Scan-d89-09-n800
 OpenBabel11261920283D

 33 34  0  0  0  0  0  0  0  0999 V2000
   -4.3369   -2.4654   -0.4160 C   0  0  0  0  0  0  0  0  0  0  0  0
   -5.3808   -3.3682   -0.1036 N   0  0  0  0  0  0  0  0  0  0  0  0
   -6.1754   -3.6562   -1.0898 N   0  0  0  0  0  0  0  0  0  0  0  0
   -3.5576   -2.1318    0.7120 C   0  0  0  0  0  0  0  0  0  0  0  0
   -2.4834   -1.2643    0.6090 C   0  0  0  0  0  0  0  0  0  0  0  0
   -2.1760   -0.7207   -0.6399 C   0  0  0  0  0  0  0  0  0  0  0  0
   -1.0415    0.2003   -0.7621 N   0  0  0  0  0  0  0  0  0  0  0  0
   -0.4022    0.4560    0.2586 O   0  0  0  0  0  0  0  0  0  0  0  0
   -0.7969    0.6625   -1.8771 O   0  0  0  0  0  0  0  0  0  0  0  0
   -2.9212   -1.0333   -1.7726 C   0  0  0  0  0  0  0  0  0  0  0  0
   -4.0024   -1.9037   -1.6666 C   0  0  0  0  0  0  0  0  0  0  0  0
   -3.8261   -2.5766    1.6634 H   0  0  0  0  0  0  0  0  0  0  0  0
   -1.8808   -1.0006    1.4689 H   0  0  0  0  0  0  0  0  0  0  0  0
   -2.6486   -0.5940   -2.7238 H   0  0  0  0  0  0  0  0  0  0  0  0
   -4.5594   -2.1311   -2.5656 H   0  0  0  0  0  0  0  0  0  0  0  0
  -10.0318   -4.7240    0.6781 C   0  0  0  0  0  0  0  0  0  0  0  0
  -10.9359   -5.1241    1.6581 C   0  0  0  0  0  0  0  0  0  0  0  0
  -11.2917   -6.4743    1.8101 C   0  0  0  0  0  0  0  0  0  0  0  0
  -10.7115   -7.4189    0.9535 C   0  0  0  0  0  0  0  0  0  0  0  0
   -9.8054   -7.0360   -0.0361 C   0  0  0  0  0  0  0  0  0  0  0  0
   -9.4705   -5.6910   -0.1575 C   0  0  0  0  0  0  0  0  0  0  0  0
   -9.7522   -3.6792    0.5820 H   0  0  0  0  0  0  0  0  0  0  0  0
  -11.3701   -4.3792    2.3198 H   0  0  0  0  0  0  0  0  0  0  0  0
  -10.9723   -8.4685    1.0607 H   0  0  0  0  0  0  0  0  0  0  0  0
   -9.3520   -7.7587   -0.7071 H   0  0  0  0  0  0  0  0  0  0  0  0
   -8.3610   -5.2130   -1.5079 S   0  0  1  0  0  0  0  0  0  0  0  0
   -7.1838   -4.6841   -0.3897 O   0  0  0  0  0  0  0  0  0  0  0  0
   -6.3048   -3.4409   -2.0060 O   0  0  0  0  0  0  0  0  0  0  0  0
   -7.9249   -6.4675   -2.1835 O   0  0  0  0  0  0  0  0  0  0  0  0
  -12.2968   -6.8901    2.8572 C   0  0  0  0  0  0  0  0  0  0  0  0
  -12.1791   -6.3106    3.7777 H   0  0  0  0  0  0  0  0  0  0  0  0
  -13.3228   -6.7296    2.5027 H   0  0  0  0  0  0  0  0  0  0  0  0
  -12.1989   -7.9500    3.1075 H   0  0  0  0  0  0  0  0  0  0  0  0
  1  2  1  0  0  0  0
  1  4  2  0  0  0  0
  3 27  1  0  0  0  0
  3  2  1  0  0  0  0
  4 12  1  0  0  0  0
  5  4  1  0  0  0  0
  5 13  1  0  0  0  0
  6  5  2  0  0  0  0
  7  6  1  0  0  0  0
  7  8  2  0  0  0  0
  9  7  2  0  0  0  0
 10 11  2  0  0  0  0
 10  6  1  0  0  0  0
 11  1  1  0  0  0  0
 14 10  1  0  0  0  0
 15 11  1  0  0  0  0
 16 17  2  0  0  0  0
 17 18  1  0  0  0  0
 17 23  1  0  0  0  0
 18 30  1  0  0  0  0
 19 24  1  0  0  0  0
 19 18  2  0  0  0  0
 20 19  1  0  0  0  0
 21 20  2  0  0  0  0
 21 16  1  0  0  0  0
 22 16  1  0  0  0  0
 25 20  1  0  0  0  0
 26 29  1  1  0  0  0
 26 27  1  0  0  0  0
 26 21  1  0  0  0  0
 28  3  1  0  0  0  0
 30 33  1  0  0  0  0
 30 31  1  0  0  0  0
 32 30  1  0  0  0  0
M  RAD  3   2   2  28   2  29   2
M  END
