Coordinates from ORCA-job 4-NO2PhN2+~TsO-_B3LYPG-6-31G_dp-NX-Scan-d89-09-n800
 OpenBabel11261920283D

 33 33  0  0  0  0  0  0  0  0999 V2000
   -4.1302   -2.9398    0.3210 C   0  0  0  0  0  0  0  0  0  0  0  0
   -4.6429   -3.8344    1.3129 N   0  0  0  0  0  0  0  0  0  0  0  0
   -4.4894   -4.2303    2.3576 N   0  0  0  0  0  0  0  0  0  0  0  0
   -3.2694   -1.9430    0.8066 C   0  0  0  0  0  0  0  0  0  0  0  0
   -2.7031   -1.0650   -0.1055 C   0  0  0  0  0  0  0  0  0  0  0  0
   -3.0055   -1.2215   -1.4587 C   0  0  0  0  0  0  0  0  0  0  0  0
   -2.3912   -0.2853   -2.4285 N   0  0  0  0  0  0  0  0  0  0  0  0
   -1.6553    0.5873   -1.9753 O   0  0  0  0  0  0  0  0  0  0  0  0
   -2.6567   -0.4502   -3.6145 O   0  0  0  0  0  0  0  0  0  0  0  0
   -3.8565   -2.2139   -1.9329 C   0  0  0  0  0  0  0  0  0  0  0  0
   -4.4404   -3.0978   -1.0271 C   0  0  0  0  0  0  0  0  0  0  0  0
   -3.0648   -1.8603    1.8677 H   0  0  0  0  0  0  0  0  0  0  0  0
   -2.0395   -0.2696    0.2089 H   0  0  0  0  0  0  0  0  0  0  0  0
   -4.0664   -2.2830   -2.9926 H   0  0  0  0  0  0  0  0  0  0  0  0
   -5.1353   -3.8649   -1.3416 H   0  0  0  0  0  0  0  0  0  0  0  0
   -9.3723   -4.8007    1.8330 C   0  0  0  0  0  0  0  0  0  0  0  0
  -10.4585   -5.6085    2.1640 C   0  0  0  0  0  0  0  0  0  0  0  0
  -11.0484   -6.4552    1.2147 C   0  0  0  0  0  0  0  0  0  0  0  0
  -10.5192   -6.4729   -0.0842 C   0  0  0  0  0  0  0  0  0  0  0  0
   -9.4349   -5.6704   -0.4317 C   0  0  0  0  0  0  0  0  0  0  0  0
   -8.8659   -4.8382    0.5335 C   0  0  0  0  0  0  0  0  0  0  0  0
   -8.9270   -4.1338    2.5634 H   0  0  0  0  0  0  0  0  0  0  0  0
  -10.8590   -5.5780    3.1741 H   0  0  0  0  0  0  0  0  0  0  0  0
  -10.9663   -7.1204   -0.8344 H   0  0  0  0  0  0  0  0  0  0  0  0
   -9.0364   -5.6717   -1.4403 H   0  0  0  0  0  0  0  0  0  0  0  0
   -7.4564   -3.8196    0.1026 S   0  0  0  0  0  0  0  0  0  0  0  0
   -6.2520   -4.7618    0.3991 O   0  0  0  0  0  0  0  0  0  0  0  0
   -7.4282   -2.6579    1.0147 O   0  0  0  0  0  0  0  0  0  0  0  0
   -7.5348   -3.5419   -1.3465 O   0  0  0  0  0  0  0  0  0  0  0  0
  -12.2468   -7.3024    1.5707 C   0  0  0  0  0  0  0  0  0  0  0  0
  -12.2785   -7.5234    2.6414 H   0  0  0  0  0  0  0  0  0  0  0  0
  -13.1815   -6.7873    1.3153 H   0  0  0  0  0  0  0  0  0  0  0  0
  -12.2421   -8.2514    1.0271 H   0  0  0  0  0  0  0  0  0  0  0  0
  1  4  1  0  0  0  0
  1  2  1  0  0  0  0
  2  3  2  0  0  0  0
  4 12  1  0  0  0  0
  5 13  1  0  0  0  0
  5  4  2  0  0  0  0
  6  5  1  0  0  0  0
  7  8  2  0  0  0  0
  7  6  1  0  0  0  0
  9  7  2  0  0  0  0
 10  6  2  0  0  0  0
 10 11  1  0  0  0  0
 11  1  2  0  0  0  0
 14 10  1  0  0  0  0
 15 11  1  0  0  0  0
 16 17  1  0  0  0  0
 16 22  1  0  0  0  0
 17 23  1  0  0  0  0
 18 30  1  0  0  0  0
 18 17  2  0  0  0  0
 19 18  1  0  0  0  0
 20 19  2  0  0  0  0
 20 21  1  0  0  0  0
 21 16  2  0  0  0  0
 24 19  1  0  0  0  0
 25 20  1  0  0  0  0
 26 27  2  0  0  0  0
 26 21  1  0  0  0  0
 26 28  1  0  0  0  0
 29 26  2  0  0  0  0
 30 31  1  0  0  0  0
 32 30  1  0  0  0  0
 33 30  1  0  0  0  0
M  RAD  2   3   2  28   2
M  END
