Coordinates from ORCA-job 4-NO2PhN2+~TsO-_B3LYPG-6-31G_dp-NX-Scan-d89-09-n800
 OpenBabel11261920283D

 33 33  0  0  0  0  0  0  0  0999 V2000
   -4.7271   -2.5642    0.3189 C   0  0  0  0  0  0  0  0  0  0  0  0
   -5.6998   -3.2502    1.1089 N   0  0  0  0  0  0  0  0  0  0  0  0
   -5.9591   -3.7132    2.1030 N   0  0  0  0  0  0  0  0  0  0  0  0
   -4.0110   -1.5562    0.9757 C   0  0  0  0  0  0  0  0  0  0  0  0
   -3.0203   -0.8950    0.2595 C   0  0  0  0  0  0  0  0  0  0  0  0
   -2.7804   -1.2796   -1.0585 C   0  0  0  0  0  0  0  0  0  0  0  0
   -1.7134   -0.5787   -1.8097 N   0  0  0  0  0  0  0  0  0  0  0  0
   -1.1092    0.3151   -1.2229 O   0  0  0  0  0  0  0  0  0  0  0  0
   -1.5063   -0.9434   -2.9623 O   0  0  0  0  0  0  0  0  0  0  0  0
   -3.4967   -2.2906   -1.6963 C   0  0  0  0  0  0  0  0  0  0  0  0
   -4.5100   -2.9476   -1.0035 C   0  0  0  0  0  0  0  0  0  0  0  0
   -4.2313   -1.2955    2.0040 H   0  0  0  0  0  0  0  0  0  0  0  0
   -2.4362   -0.0987    0.7027 H   0  0  0  0  0  0  0  0  0  0  0  0
   -3.2674   -2.5442   -2.7231 H   0  0  0  0  0  0  0  0  0  0  0  0
   -5.1202   -3.7316   -1.4509 H   0  0  0  0  0  0  0  0  0  0  0  0
   -9.7509   -4.3488    0.8449 C   0  0  0  0  0  0  0  0  0  0  0  0
  -10.6225   -5.1003    1.6310 C   0  0  0  0  0  0  0  0  0  0  0  0
  -10.6978   -6.4945    1.5018 C   0  0  0  0  0  0  0  0  0  0  0  0
   -9.8625   -7.1212    0.5660 C   0  0  0  0  0  0  0  0  0  0  0  0
   -8.9844   -6.3833   -0.2261 C   0  0  0  0  0  0  0  0  0  0  0  0
   -8.9314   -4.9958   -0.0828 C   0  0  0  0  0  0  0  0  0  0  0  0
   -9.6928   -3.2709    0.9551 H   0  0  0  0  0  0  0  0  0  0  0  0
  -11.2546   -4.5963    2.3580 H   0  0  0  0  0  0  0  0  0  0  0  0
   -9.8988   -8.2028    0.4571 H   0  0  0  0  0  0  0  0  0  0  0  0
   -8.3310   -6.8710   -0.9413 H   0  0  0  0  0  0  0  0  0  0  0  0
   -7.8510   -4.0388   -1.1504 S   0  0  0  0  0  0  0  0  0  0  0  0
   -7.3266   -2.9063   -0.2371 O   0  0  0  0  0  0  0  0  0  0  0  0
   -8.6571   -3.4807   -2.2484 O   0  0  0  0  0  0  0  0  0  0  0  0
   -6.7383   -4.9497   -1.5264 O   0  0  0  0  0  0  0  0  0  0  0  0
  -11.6705   -7.2990    2.3319 C   0  0  0  0  0  0  0  0  0  0  0  0
  -11.9111   -6.7932    3.2713 H   0  0  0  0  0  0  0  0  0  0  0  0
  -12.6138   -7.4518    1.7930 H   0  0  0  0  0  0  0  0  0  0  0  0
  -11.2712   -8.2889    2.5714 H   0  0  0  0  0  0  0  0  0  0  0  0
  1  4  1  0  0  0  0
  1  2  1  0  0  0  0
  2  3  2  0  0  0  0
  4 12  1  0  0  0  0
  5 13  1  0  0  0  0
  5  4  2  0  0  0  0
  6  5  1  0  0  0  0
  7  8  2  0  0  0  0
  7  6  1  0  0  0  0
  9  7  2  0  0  0  0
 10  6  2  0  0  0  0
 10 11  1  0  0  0  0
 11  1  2  0  0  0  0
 14 10  1  0  0  0  0
 15 11  1  0  0  0  0
 16 22  1  0  0  0  0
 16 17  2  0  0  0  0
 17 23  1  0  0  0  0
 18 17  1  0  0  0  0
 18 30  1  0  0  0  0
 19 18  2  0  0  0  0
 20 21  2  0  0  0  0
 20 19  1  0  0  0  0
 21 16  1  0  0  0  0
 24 19  1  0  0  0  0
 25 20  1  0  0  0  0
 26 27  1  0  0  0  0
 26 21  1  0  0  0  0
 28 26  2  0  0  0  0
 29 26  2  0  0  0  0
 30 33  1  0  0  0  0
 30 31  1  0  0  0  0
 32 30  1  0  0  0  0
M  RAD  2   3   2  27   2
M  END
