Coordinates from ORCA-job 4-NO2PhN2+~TsO-_B3LYPG-6-31G_dp-NX-Scan-d89-09-n800
 OpenBabel11261920283D

 33 33  0  0  0  0  0  0  0  0999 V2000
   -4.1336   -2.9356    0.3222 C   0  0  0  0  0  0  0  0  0  0  0  0
   -4.6500   -3.8257    1.3163 N   0  0  0  0  0  0  0  0  0  0  0  0
   -4.5020   -4.2150    2.3641 N   0  0  0  0  0  0  0  0  0  0  0  0
   -3.2736   -1.9374    0.8063 C   0  0  0  0  0  0  0  0  0  0  0  0
   -2.7043   -1.0632   -0.1076 C   0  0  0  0  0  0  0  0  0  0  0  0
   -3.0031   -1.2249   -1.4611 C   0  0  0  0  0  0  0  0  0  0  0  0
   -2.3856   -0.2929   -2.4329 N   0  0  0  0  0  0  0  0  0  0  0  0
   -1.6518    0.5821   -1.9809 O   0  0  0  0  0  0  0  0  0  0  0  0
   -2.6495   -0.4611   -3.6188 O   0  0  0  0  0  0  0  0  0  0  0  0
   -3.8535   -2.2186   -1.9337 C   0  0  0  0  0  0  0  0  0  0  0  0
   -4.4404   -3.0986   -1.0261 C   0  0  0  0  0  0  0  0  0  0  0  0
   -3.0719   -1.8506    1.8676 H   0  0  0  0  0  0  0  0  0  0  0  0
   -2.0411   -0.2670    0.2055 H   0  0  0  0  0  0  0  0  0  0  0  0
   -4.0605   -2.2917   -2.9937 H   0  0  0  0  0  0  0  0  0  0  0  0
   -5.1348   -3.8667   -1.3389 H   0  0  0  0  0  0  0  0  0  0  0  0
   -9.3678   -4.8078    1.8369 C   0  0  0  0  0  0  0  0  0  0  0  0
  -10.4537   -5.6166    2.1663 C   0  0  0  0  0  0  0  0  0  0  0  0
  -11.0475   -6.4567    1.2136 C   0  0  0  0  0  0  0  0  0  0  0  0
  -10.5225   -6.4667   -0.0872 C   0  0  0  0  0  0  0  0  0  0  0  0
   -9.4387   -5.6629   -0.4331 C   0  0  0  0  0  0  0  0  0  0  0  0
   -8.8657   -4.8375    0.5356 C   0  0  0  0  0  0  0  0  0  0  0  0
   -8.9195   -4.1460    2.5702 H   0  0  0  0  0  0  0  0  0  0  0  0
  -10.8509   -5.5922    3.1779 H   0  0  0  0  0  0  0  0  0  0  0  0
  -10.9727   -7.1089   -0.8400 H   0  0  0  0  0  0  0  0  0  0  0  0
   -9.0434   -5.6582   -1.4429 H   0  0  0  0  0  0  0  0  0  0  0  0
   -7.4567   -3.8174    0.1065 S   0  0  0  0  0  0  0  0  0  0  0  0
   -6.2516   -4.7608    0.3968 O   0  0  0  0  0  0  0  0  0  0  0  0
   -7.4267   -2.6598    1.0239 O   0  0  0  0  0  0  0  0  0  0  0  0
   -7.5378   -3.5331   -1.3411 O   0  0  0  0  0  0  0  0  0  0  0  0
  -12.2456   -7.3051    1.5680 C   0  0  0  0  0  0  0  0  0  0  0  0
  -12.2741   -7.5327    2.6374 H   0  0  0  0  0  0  0  0  0  0  0  0
  -13.1806   -6.7875    1.3188 H   0  0  0  0  0  0  0  0  0  0  0  0
  -12.2435   -8.2506    1.0185 H   0  0  0  0  0  0  0  0  0  0  0  0
  1  4  1  0  0  0  0
  1  2  1  0  0  0  0
  2  3  2  0  0  0  0
  4 12  1  0  0  0  0
  5 13  1  0  0  0  0
  5  4  2  0  0  0  0
  6  5  1  0  0  0  0
  7  8  2  0  0  0  0
  7  6  1  0  0  0  0
  9  7  2  0  0  0  0
 10  6  2  0  0  0  0
 10 11  1  0  0  0  0
 11  1  2  0  0  0  0
 14 10  1  0  0  0  0
 15 11  1  0  0  0  0
 16 17  1  0  0  0  0
 16 22  1  0  0  0  0
 17 23  1  0  0  0  0
 18 30  1  0  0  0  0
 18 17  2  0  0  0  0
 19 18  1  0  0  0  0
 20 19  2  0  0  0  0
 20 21  1  0  0  0  0
 21 16  2  0  0  0  0
 24 19  1  0  0  0  0
 25 20  1  0  0  0  0
 26 27  2  0  0  0  0
 26 21  1  0  0  0  0
 26 28  1  0  0  0  0
 29 26  2  0  0  0  0
 30 31  1  0  0  0  0
 32 30  1  0  0  0  0
 33 30  1  0  0  0  0
M  RAD  2   3   2  28   2
M  END
