Coordinates from ORCA-job 4-NO2PhN2+~TsO-_B3LYPG-6-31G_dp-NX-Scan-d89-09-n800
 OpenBabel11261920283D

 33 33  0  0  0  0  0  0  0  0999 V2000
   -4.9630   -0.9183    1.0721 C   0  0  0  0  0  0  0  0  0  0  0  0
   -4.8989    0.3797    1.4977 N   0  0  0  0  0  0  0  0  0  0  0  0
   -4.7901    1.4361    1.8690 N   0  0  0  0  0  0  0  0  0  0  0  0
   -4.1814   -1.8613    1.7880 C   0  0  0  0  0  0  0  0  0  0  0  0
   -4.2138   -3.1722    1.3584 C   0  0  0  0  0  0  0  0  0  0  0  0
   -4.9969   -3.5065    0.2454 C   0  0  0  0  0  0  0  0  0  0  0  0
   -4.9854   -4.9187   -0.1912 N   0  0  0  0  0  0  0  0  0  0  0  0
   -4.5602   -5.7454    0.6191 O   0  0  0  0  0  0  0  0  0  0  0  0
   -5.3788   -5.1515   -1.3251 O   0  0  0  0  0  0  0  0  0  0  0  0
   -5.7681   -2.5839   -0.4650 C   0  0  0  0  0  0  0  0  0  0  0  0
   -5.7642   -1.2595   -0.0430 C   0  0  0  0  0  0  0  0  0  0  0  0
   -3.5852   -1.5533    2.6391 H   0  0  0  0  0  0  0  0  0  0  0  0
   -3.6532   -3.9473    1.8654 H   0  0  0  0  0  0  0  0  0  0  0  0
   -6.3922   -2.8473   -1.3357 H   0  0  0  0  0  0  0  0  0  0  0  0
   -6.3653   -0.5253   -0.5696 H   0  0  0  0  0  0  0  0  0  0  0  0
   -9.0752   -4.0047    0.2963 C   0  0  0  0  0  0  0  0  0  0  0  0
   -8.8007   -5.0269    1.2046 C   0  0  0  0  0  0  0  0  0  0  0  0
   -8.3912   -6.2991    0.7668 C   0  0  0  0  0  0  0  0  0  0  0  0
   -8.2888   -6.5258   -0.6147 C   0  0  0  0  0  0  0  0  0  0  0  0
   -8.5514   -5.5107   -1.5290 C   0  0  0  0  0  0  0  0  0  0  0  0
   -8.9319   -4.2365   -1.0732 C   0  0  0  0  0  0  0  0  0  0  0  0
   -9.4098   -3.0260    0.6244 H   0  0  0  0  0  0  0  0  0  0  0  0
   -8.9125   -4.8449    2.2716 H   0  0  0  0  0  0  0  0  0  0  0  0
   -7.9890   -7.5070   -0.9738 H   0  0  0  0  0  0  0  0  0  0  0  0
   -8.4745   -5.6867   -2.5969 H   0  0  0  0  0  0  0  0  0  0  0  0
   -9.1302   -2.8876   -2.2589 S   0  0  0  0  0  0  0  0  0  0  0  0
   -9.7788   -1.7952   -1.4965 O   0  0  0  0  0  0  0  0  0  0  0  0
   -9.8979   -3.4773   -3.3808 O   0  0  0  0  0  0  0  0  0  0  0  0
   -7.6985   -2.5682   -2.6232 O   0  0  0  0  0  0  0  0  0  0  0  0
   -8.0346   -7.3843    1.7517 C   0  0  0  0  0  0  0  0  0  0  0  0
   -6.9450   -7.4561    1.8688 H   0  0  0  0  0  0  0  0  0  0  0  0
   -8.4626   -7.1911    2.7394 H   0  0  0  0  0  0  0  0  0  0  0  0
   -8.3855   -8.3643    1.4133 H   0  0  0  0  0  0  0  0  0  0  0  0
  1  2  1  0  0  0  0
  1  4  2  0  0  0  0
  2  3  1  0  0  0  0
  4 12  1  0  0  0  0
  5  4  1  0  0  0  0
  5 13  1  0  0  0  0
  6  5  2  0  0  0  0
  7  6  1  0  0  0  0
  7  8  2  0  0  0  0
  9  7  2  0  0  0  0
 10 11  2  0  0  0  0
 10  6  1  0  0  0  0
 11  1  1  0  0  0  0
 14 10  1  0  0  0  0
 15 11  1  0  0  0  0
 16 22  1  0  0  0  0
 16 17  2  0  0  0  0
 17 23  1  0  0  0  0
 18 17  1  0  0  0  0
 18 30  1  0  0  0  0
 19 18  2  0  0  0  0
 20 21  2  0  0  0  0
 20 19  1  0  0  0  0
 21 16  1  0  0  0  0
 24 19  1  0  0  0  0
 25 20  1  0  0  0  0
 26 27  1  0  0  0  0
 26 21  1  0  0  0  0
 28 26  2  0  0  0  0
 29 26  2  0  0  0  0
 30 31  1  0  0  0  0
 30 32  1  0  0  0  0
 33 30  1  0  0  0  0
M  RAD  3   2   2   3   3  27   2
M  END
