Coordinates from ORCA-job 4-NO2PhN2+~TsO-_B3LYPG-6-31G_dp-NX-Scan-d89-09-n800
 OpenBabel11261920283D

 33 33  0  0  0  0  0  0  0  0999 V2000
   -4.6478   -0.8361    1.0897 C   0  0  0  0  0  0  0  0  0  0  0  0
   -5.2188   -0.1560    2.1367 N   0  0  0  0  0  0  0  0  0  0  0  0
   -5.6103    0.4147    3.0188 N   0  0  0  0  0  0  0  0  0  0  0  0
   -3.2378   -0.7108    0.9729 C   0  0  0  0  0  0  0  0  0  0  0  0
   -2.6270   -1.3894   -0.0588 C   0  0  0  0  0  0  0  0  0  0  0  0
   -3.4180   -2.1662   -0.9200 C   0  0  0  0  0  0  0  0  0  0  0  0
   -2.7147   -2.8918   -2.0122 N   0  0  0  0  0  0  0  0  0  0  0  0
   -1.4890   -2.7790   -2.0465 O   0  0  0  0  0  0  0  0  0  0  0  0
   -3.4011   -3.5405   -2.7856 O   0  0  0  0  0  0  0  0  0  0  0  0
   -4.7974   -2.2923   -0.8044 C   0  0  0  0  0  0  0  0  0  0  0  0
   -5.4530   -1.6025    0.2210 C   0  0  0  0  0  0  0  0  0  0  0  0
   -2.6730   -0.1058    1.6729 H   0  0  0  0  0  0  0  0  0  0  0  0
   -1.5567   -1.3428   -0.2148 H   0  0  0  0  0  0  0  0  0  0  0  0
   -5.4088   -2.9319   -1.4586 H   0  0  0  0  0  0  0  0  0  0  0  0
   -6.5480   -1.7111    0.2849 H   0  0  0  0  0  0  0  0  0  0  0  0
  -10.0365   -4.6366    0.4540 C   0  0  0  0  0  0  0  0  0  0  0  0
  -10.6091   -5.6649    1.1983 C   0  0  0  0  0  0  0  0  0  0  0  0
  -10.0976   -6.9704    1.1446 C   0  0  0  0  0  0  0  0  0  0  0  0
   -8.9909   -7.2166    0.3184 C   0  0  0  0  0  0  0  0  0  0  0  0
   -8.4093   -6.1954   -0.4308 C   0  0  0  0  0  0  0  0  0  0  0  0
   -8.9338   -4.9027   -0.3637 C   0  0  0  0  0  0  0  0  0  0  0  0
  -10.4340   -3.6281    0.5027 H   0  0  0  0  0  0  0  0  0  0  0  0
  -11.4701   -5.4558    1.8289 H   0  0  0  0  0  0  0  0  0  0  0  0
   -8.5824   -8.2231    0.2599 H   0  0  0  0  0  0  0  0  0  0  0  0
   -7.5526   -6.3810   -1.0694 H   0  0  0  0  0  0  0  0  0  0  0  0
   -8.2387   -3.5863   -1.3777 S   0  0  0  0  0  0  0  0  0  0  0  0
   -8.1473   -2.4108   -0.4324 O   0  0  0  0  0  0  0  0  0  0  0  0
   -9.1796   -3.3809   -2.4981 O   0  0  0  0  0  0  0  0  0  0  0  0
   -6.8834   -4.0825   -1.7753 O   0  0  0  0  0  0  0  0  0  0  0  0
  -10.7050   -8.0777    1.9729 C   0  0  0  0  0  0  0  0  0  0  0  0
  -10.1420   -8.2350    2.9017 H   0  0  0  0  0  0  0  0  0  0  0  0
  -11.7371   -7.8485    2.2530 H   0  0  0  0  0  0  0  0  0  0  0  0
  -10.7036   -9.0292    1.4314 H   0  0  0  0  0  0  0  0  0  0  0  0
  1  2  1  0  0  0  0
  2  3  1  0  0  0  0
  4  1  1  0  0  0  0
  4 12  1  0  0  0  0
  5  4  2  0  0  0  0
  6 10  2  0  0  0  0
  6  5  1  0  0  0  0
  7  6  1  0  0  0  0
  8  7  2  0  0  0  0
  9  7  2  0  0  0  0
 10 11  1  0  0  0  0
 11 15  1  0  0  0  0
 11  1  2  0  0  0  0
 13  5  1  0  0  0  0
 14 10  1  0  0  0  0
 16 22  1  0  0  0  0
 16 17  2  0  0  0  0
 17 23  1  0  0  0  0
 18 17  1  0  0  0  0
 18 30  1  0  0  0  0
 19 18  2  0  0  0  0
 20 21  2  0  0  0  0
 20 19  1  0  0  0  0
 21 16  1  0  0  0  0
 24 19  1  0  0  0  0
 25 20  1  0  0  0  0
 26 27  1  0  0  0  0
 26 21  1  0  0  0  0
 28 26  2  0  0  0  0
 29 26  2  0  0  0  0
 30 32  1  0  0  0  0
 30 31  1  0  0  0  0
 33 30  1  0  0  0  0
M  RAD  3   2   2   3   3  27   2
M  END
