Coordinates from ORCA-job 4-NO2PhN2+~TsO-_B3LYPG-6-31G_dp-NX-Scan-d89-09-n800
 OpenBabel11261920283D

 33 33  0  0  0  0  0  0  0  0999 V2000
   -4.7955   -0.6604    0.6677 C   0  0  0  0  0  0  0  0  0  0  0  0
   -5.5078    0.3107    1.3253 N   0  0  0  0  0  0  0  0  0  0  0  0
   -6.0642    1.1032    1.8879 N   0  0  0  0  0  0  0  0  0  0  0  0
   -3.3826   -0.6247    0.7943 C   0  0  0  0  0  0  0  0  0  0  0  0
   -2.6704   -1.6027    0.1348 C   0  0  0  0  0  0  0  0  0  0  0  0
   -3.3713   -2.5746   -0.6000 C   0  0  0  0  0  0  0  0  0  0  0  0
   -2.5707   -3.6258   -1.2775 N   0  0  0  0  0  0  0  0  0  0  0  0
   -1.3488   -3.5589   -1.1495 O   0  0  0  0  0  0  0  0  0  0  0  0
   -3.1817   -4.4786   -1.9061 O   0  0  0  0  0  0  0  0  0  0  0  0
   -4.7552   -2.6058   -0.7140 C   0  0  0  0  0  0  0  0  0  0  0  0
   -5.5097   -1.6141   -0.0814 C   0  0  0  0  0  0  0  0  0  0  0  0
   -2.8921    0.1387    1.3874 H   0  0  0  0  0  0  0  0  0  0  0  0
   -1.5894   -1.6457    0.1779 H   0  0  0  0  0  0  0  0  0  0  0  0
   -5.2941   -3.3580   -1.2863 H   0  0  0  0  0  0  0  0  0  0  0  0
   -6.6142   -1.6249   -0.1471 H   0  0  0  0  0  0  0  0  0  0  0  0
   -9.8160   -4.5639    0.9109 C   0  0  0  0  0  0  0  0  0  0  0  0
  -10.2204   -5.7406    1.5388 C   0  0  0  0  0  0  0  0  0  0  0  0
   -9.8790   -6.9960    1.0156 C   0  0  0  0  0  0  0  0  0  0  0  0
   -9.1190   -7.0395   -0.1612 C   0  0  0  0  0  0  0  0  0  0  0  0
   -8.7076   -5.8695   -0.7982 C   0  0  0  0  0  0  0  0  0  0  0  0
   -9.0579   -4.6306   -0.2597 C   0  0  0  0  0  0  0  0  0  0  0  0
  -10.0769   -3.5952    1.3233 H   0  0  0  0  0  0  0  0  0  0  0  0
  -10.8100   -5.6851    2.4510 H   0  0  0  0  0  0  0  0  0  0  0  0
   -8.8455   -8.0030   -0.5847 H   0  0  0  0  0  0  0  0  0  0  0  0
   -8.1139   -5.9052   -1.7053 H   0  0  0  0  0  0  0  0  0  0  0  0
   -8.5902   -3.1196   -1.1198 S   0  0  0  0  0  0  0  0  0  0  0  0
   -8.3326   -2.1210   -0.0119 O   0  0  0  0  0  0  0  0  0  0  0  0
   -9.7222   -2.7478   -1.9911 O   0  0  0  0  0  0  0  0  0  0  0  0
   -7.3267   -3.4511   -1.8481 O   0  0  0  0  0  0  0  0  0  0  0  0
  -10.2933   -8.2673    1.7186 C   0  0  0  0  0  0  0  0  0  0  0  0
   -9.5446   -8.5743    2.4604 H   0  0  0  0  0  0  0  0  0  0  0  0
  -11.2417   -8.1404    2.2500 H   0  0  0  0  0  0  0  0  0  0  0  0
  -10.4095   -9.0953    1.0126 H   0  0  0  0  0  0  0  0  0  0  0  0
  1  4  1  0  0  0  0
  1  2  1  0  0  0  0
  2  3  1  0  0  0  0
  4 12  1  0  0  0  0
  5 13  1  0  0  0  0
  5  4  2  0  0  0  0
  6  5  1  0  0  0  0
  7  8  2  0  0  0  0
  7  6  1  0  0  0  0
  9  7  2  0  0  0  0
 10  6  2  0  0  0  0
 10 11  1  0  0  0  0
 11  1  2  0  0  0  0
 14 10  1  0  0  0  0
 15 11  1  0  0  0  0
 16 22  1  0  0  0  0
 16 17  2  0  0  0  0
 17 23  1  0  0  0  0
 18 17  1  0  0  0  0
 18 30  1  0  0  0  0
 19 18  2  0  0  0  0
 20 21  2  0  0  0  0
 20 19  1  0  0  0  0
 21 16  1  0  0  0  0
 24 19  1  0  0  0  0
 25 20  1  0  0  0  0
 26 21  1  0  0  0  0
 26 27  1  0  0  0  0
 28 26  2  0  0  0  0
 29 26  2  0  0  0  0
 30 32  1  0  0  0  0
 30 31  1  0  0  0  0
 33 30  1  0  0  0  0
M  RAD  3   2   2   3   3  27   2
M  END
