Coordinates from ORCA-job 4-NO2PhN2+~TsO-_B3LYPG-6-31G_dp-NX-Scan-d89-09-n800
 OpenBabel11261920283D

 33 33  0  0  0  0  0  0  0  0999 V2000
   -4.7133   -2.5483    0.3377 C   0  0  0  0  0  0  0  0  0  0  0  0
   -5.6774   -3.2255    1.1439 N   0  0  0  0  0  0  0  0  0  0  0  0
   -5.9376   -3.6715    2.1450 N   0  0  0  0  0  0  0  0  0  0  0  0
   -3.9959   -1.5287    0.9755 C   0  0  0  0  0  0  0  0  0  0  0  0
   -3.0120   -0.8751    0.2434 C   0  0  0  0  0  0  0  0  0  0  0  0
   -2.7798   -1.2780   -1.0706 C   0  0  0  0  0  0  0  0  0  0  0  0
   -1.7198   -0.5848   -1.8389 N   0  0  0  0  0  0  0  0  0  0  0  0
   -1.1143    0.3189   -1.2689 O   0  0  0  0  0  0  0  0  0  0  0  0
   -1.5198   -0.9651   -2.9877 O   0  0  0  0  0  0  0  0  0  0  0  0
   -3.4972   -2.3000   -1.6892 C   0  0  0  0  0  0  0  0  0  0  0  0
   -4.5039   -2.9501   -0.9806 C   0  0  0  0  0  0  0  0  0  0  0  0
   -4.2101   -1.2540    2.0015 H   0  0  0  0  0  0  0  0  0  0  0  0
   -2.4274   -0.0707    0.6710 H   0  0  0  0  0  0  0  0  0  0  0  0
   -3.2740   -2.5674   -2.7139 H   0  0  0  0  0  0  0  0  0  0  0  0
   -5.1159   -3.7416   -1.4127 H   0  0  0  0  0  0  0  0  0  0  0  0
   -9.7424   -4.3588    0.8634 C   0  0  0  0  0  0  0  0  0  0  0  0
  -10.6217   -5.1126    1.6390 C   0  0  0  0  0  0  0  0  0  0  0  0
  -10.7107   -6.5040    1.4905 C   0  0  0  0  0  0  0  0  0  0  0  0
   -9.8812   -7.1258    0.5462 C   0  0  0  0  0  0  0  0  0  0  0  0
   -8.9957   -6.3857   -0.2353 C   0  0  0  0  0  0  0  0  0  0  0  0
   -8.9292   -5.0008   -0.0729 C   0  0  0  0  0  0  0  0  0  0  0  0
   -9.6736   -3.2833    0.9886 H   0  0  0  0  0  0  0  0  0  0  0  0
  -11.2490   -4.6125    2.3729 H   0  0  0  0  0  0  0  0  0  0  0  0
   -9.9281   -8.2053    0.4223 H   0  0  0  0  0  0  0  0  0  0  0  0
   -8.3465   -6.8700   -0.9566 H   0  0  0  0  0  0  0  0  0  0  0  0
   -7.8394   -4.0405   -1.1280 S   0  0  0  0  0  0  0  0  0  0  0  0
   -7.3183   -2.9142   -0.2062 O   0  0  0  0  0  0  0  0  0  0  0  0
   -8.6382   -3.4778   -2.2303 O   0  0  0  0  0  0  0  0  0  0  0  0
   -6.7264   -4.9528   -1.5021 O   0  0  0  0  0  0  0  0  0  0  0  0
  -11.6914   -7.3106    2.3091 C   0  0  0  0  0  0  0  0  0  0  0  0
  -11.9372   -6.8094    3.2496 H   0  0  0  0  0  0  0  0  0  0  0  0
  -12.6311   -7.4582    1.7627 H   0  0  0  0  0  0  0  0  0  0  0  0
  -11.2961   -8.3029    2.5460 H   0  0  0  0  0  0  0  0  0  0  0  0
  1  4  1  0  0  0  0
  1  2  1  0  0  0  0
  2  3  2  0  0  0  0
  4 12  1  0  0  0  0
  5 13  1  0  0  0  0
  5  4  2  0  0  0  0
  6  5  1  0  0  0  0
  7  8  2  0  0  0  0
  7  6  1  0  0  0  0
  9  7  2  0  0  0  0
 10  6  2  0  0  0  0
 10 11  1  0  0  0  0
 11  1  2  0  0  0  0
 14 10  1  0  0  0  0
 15 11  1  0  0  0  0
 16 22  1  0  0  0  0
 16 17  2  0  0  0  0
 17 23  1  0  0  0  0
 18 17  1  0  0  0  0
 18 30  1  0  0  0  0
 19 18  2  0  0  0  0
 20 21  2  0  0  0  0
 20 19  1  0  0  0  0
 21 16  1  0  0  0  0
 24 19  1  0  0  0  0
 25 20  1  0  0  0  0
 26 27  1  0  0  0  0
 26 21  1  0  0  0  0
 28 26  2  0  0  0  0
 29 26  2  0  0  0  0
 30 33  1  0  0  0  0
 30 31  1  0  0  0  0
 32 30  1  0  0  0  0
M  RAD  2   3   2  27   2
M  END
