Coordinates from ORCA-job 4-NO2PhN2+~TsO-_B3LYPG-6-31G_dp-NX-Scan-d89-09-n800
 OpenBabel11261920283D

 33 34  0  0  0  0  0  0  0  0999 V2000
   -4.4905   -2.9386    0.3113 C   0  0  0  0  0  0  0  0  0  0  0  0
   -4.9964   -3.9450    1.1904 N   0  0  0  0  0  0  0  0  0  0  0  0
   -5.7033   -4.8986    0.7899 N   0  0  0  0  0  0  0  0  0  0  0  0
   -4.5183   -1.6345    0.8317 C   0  0  0  0  0  0  0  0  0  0  0  0
   -3.9772   -0.5749    0.1151 C   0  0  0  0  0  0  0  0  0  0  0  0
   -3.3698   -0.8407   -1.1113 C   0  0  0  0  0  0  0  0  0  0  0  0
   -2.7832    0.2712   -1.8721 N   0  0  0  0  0  0  0  0  0  0  0  0
   -2.8667    1.4002   -1.3885 O   0  0  0  0  0  0  0  0  0  0  0  0
   -2.2450    0.0072   -2.9471 O   0  0  0  0  0  0  0  0  0  0  0  0
   -3.2947   -2.1317   -1.6329 C   0  0  0  0  0  0  0  0  0  0  0  0
   -3.8636   -3.1833   -0.9236 C   0  0  0  0  0  0  0  0  0  0  0  0
   -4.9703   -1.4738    1.8042 H   0  0  0  0  0  0  0  0  0  0  0  0
   -4.0019    0.4406    0.4901 H   0  0  0  0  0  0  0  0  0  0  0  0
   -2.8052   -2.2922   -2.5848 H   0  0  0  0  0  0  0  0  0  0  0  0
   -3.8154   -4.1873   -1.3256 H   0  0  0  0  0  0  0  0  0  0  0  0
   -8.5660   -6.5238    1.3765 C   0  0  0  0  0  0  0  0  0  0  0  0
   -9.7412   -6.2843    2.0839 C   0  0  0  0  0  0  0  0  0  0  0  0
  -10.8071   -5.5778    1.5069 C   0  0  0  0  0  0  0  0  0  0  0  0
  -10.6741   -5.1148    0.1877 C   0  0  0  0  0  0  0  0  0  0  0  0
   -9.5097   -5.3375   -0.5398 C   0  0  0  0  0  0  0  0  0  0  0  0
   -8.4678   -6.0444    0.0682 C   0  0  0  0  0  0  0  0  0  0  0  0
   -7.7446   -7.0747    1.8191 H   0  0  0  0  0  0  0  0  0  0  0  0
   -9.8331   -6.6555    3.1000 H   0  0  0  0  0  0  0  0  0  0  0  0
  -11.4962   -4.5771   -0.2762 H   0  0  0  0  0  0  0  0  0  0  0  0
   -9.4091   -4.9885   -1.5612 H   0  0  0  0  0  0  0  0  0  0  0  0
   -6.9854   -6.3399   -0.8532 S   0  0  0  0  0  0  0  0  0  0  0  0
   -6.2748   -7.4926   -0.3282 O   0  0  0  0  0  0  0  0  0  0  0  0
   -6.0031   -4.9188   -0.4239 O   0  0  0  0  0  0  0  0  0  0  0  0
   -7.1918   -6.0955   -2.2693 O   0  0  0  0  0  0  0  0  0  0  0  0
  -12.0660   -5.3016    2.2904 C   0  0  0  0  0  0  0  0  0  0  0  0
  -12.1732   -5.9874    3.1342 H   0  0  0  0  0  0  0  0  0  0  0  0
  -12.0544   -4.2816    2.6932 H   0  0  0  0  0  0  0  0  0  0  0  0
  -12.9556   -5.3897    1.6594 H   0  0  0  0  0  0  0  0  0  0  0  0
  1  4  1  0  0  0  0
  1  2  1  0  0  0  0
  3  2  2  0  0  0  0
  4 12  1  0  0  0  0
  5 13  1  0  0  0  0
  5  4  2  0  0  0  0
  6  5  1  0  0  0  0
  7  8  2  0  0  0  0
  7  6  1  0  0  0  0
  9  7  2  0  0  0  0
 10  6  2  0  0  0  0
 10 11  1  0  0  0  0
 11  1  2  0  0  0  0
 14 10  1  0  0  0  0
 15 11  1  0  0  0  0
 16 22  1  0  0  0  0
 16 17  2  0  0  0  0
 17 23  1  0  0  0  0
 18 17  1  0  0  0  0
 18 30  1  0  0  0  0
 19 18  2  0  0  0  0
 20 21  2  0  0  0  0
 20 19  1  0  0  0  0
 21 16  1  0  0  0  0
 24 19  1  0  0  0  0
 25 20  1  0  0  0  0
 26 28  1  0  0  0  0
 26 27  2  0  0  0  0
 26 21  1  0  0  0  0
 28  3  1  0  0  0  0
 29 26  2  0  0  0  0
 30 32  1  0  0  0  0
 30 31  1  0  0  0  0
 33 30  1  0  0  0  0
M  END
