Coordinates from ORCA-job 4-NO2PhN2+~TsO-_B3LYPG-6-31G_dp-NX-Scan-d89-09-n800
 OpenBabel11261920283D

 33 33  0  0  0  0  0  0  0  0999 V2000
   -4.9946   -2.6929    0.0871 C   0  0  0  0  0  0  0  0  0  0  0  0
   -6.1212   -3.3770    0.6411 N   0  0  0  0  0  0  0  0  0  0  0  0
   -6.5125   -3.9882    1.5060 N   0  0  0  0  0  0  0  0  0  0  0  0
   -4.2081   -1.9694    0.9900 C   0  0  0  0  0  0  0  0  0  0  0  0
   -3.0822   -1.3199    0.4972 C   0  0  0  0  0  0  0  0  0  0  0  0
   -2.7857   -1.4367   -0.8593 C   0  0  0  0  0  0  0  0  0  0  0  0
   -1.5800   -0.7498   -1.3754 N   0  0  0  0  0  0  0  0  0  0  0  0
   -0.9127   -0.1067   -0.5691 O   0  0  0  0  0  0  0  0  0  0  0  0
   -1.3308   -0.8731   -2.5703 O   0  0  0  0  0  0  0  0  0  0  0  0
   -3.5706   -2.1708   -1.7465 C   0  0  0  0  0  0  0  0  0  0  0  0
   -4.7143   -2.8083   -1.2739 C   0  0  0  0  0  0  0  0  0  0  0  0
   -4.4781   -1.9105    2.0381 H   0  0  0  0  0  0  0  0  0  0  0  0
   -2.4372   -0.7345    1.1399 H   0  0  0  0  0  0  0  0  0  0  0  0
   -3.2877   -2.2291   -2.7897 H   0  0  0  0  0  0  0  0  0  0  0  0
   -5.3687   -3.3944   -1.9124 H   0  0  0  0  0  0  0  0  0  0  0  0
  -10.0548   -4.2758    0.4512 C   0  0  0  0  0  0  0  0  0  0  0  0
  -10.7485   -5.0258    1.3945 C   0  0  0  0  0  0  0  0  0  0  0  0
  -10.4173   -6.3690    1.6426 C   0  0  0  0  0  0  0  0  0  0  0  0
   -9.3655   -6.9392    0.9167 C   0  0  0  0  0  0  0  0  0  0  0  0
   -8.6584   -6.1989   -0.0333 C   0  0  0  0  0  0  0  0  0  0  0  0
   -9.0044   -4.8675   -0.2602 C   0  0  0  0  0  0  0  0  0  0  0  0
  -10.3234   -3.2422    0.2600 H   0  0  0  0  0  0  0  0  0  0  0  0
  -11.5640   -4.5661    1.9473 H   0  0  0  0  0  0  0  0  0  0  0  0
   -9.0957   -7.9770    1.0937 H   0  0  0  0  0  0  0  0  0  0  0  0
   -7.8479   -6.6409   -0.6023 H   0  0  0  0  0  0  0  0  0  0  0  0
   -8.1220   -3.9041   -1.4906 S   0  0  0  0  0  0  0  0  0  0  0  0
   -7.5271   -2.7166   -0.6888 O   0  0  0  0  0  0  0  0  0  0  0  0
   -9.1032   -3.3873   -2.4476 O   0  0  0  0  0  0  0  0  0  0  0  0
   -7.0273   -4.7691   -1.9922 O   0  0  0  0  0  0  0  0  0  0  0  0
  -11.1948   -7.1743    2.6564 C   0  0  0  0  0  0  0  0  0  0  0  0
  -11.3036   -6.6299    3.6005 H   0  0  0  0  0  0  0  0  0  0  0  0
  -12.2058   -7.3936    2.2935 H   0  0  0  0  0  0  0  0  0  0  0  0
  -10.7066   -8.1286    2.8702 H   0  0  0  0  0  0  0  0  0  0  0  0
  1  2  1  0  0  0  0
  1  4  2  0  0  0  0
  2  3  2  0  0  0  0
  4 12  1  0  0  0  0
  5  4  1  0  0  0  0
  5 13  1  0  0  0  0
  6  5  2  0  0  0  0
  7  6  1  0  0  0  0
  7  8  2  0  0  0  0
  9  7  2  0  0  0  0
 10 11  2  0  0  0  0
 10  6  1  0  0  0  0
 11  1  1  0  0  0  0
 14 10  1  0  0  0  0
 15 11  1  0  0  0  0
 16 17  2  0  0  0  0
 17 18  1  0  0  0  0
 17 23  1  0  0  0  0
 18 30  1  0  0  0  0
 19 24  1  0  0  0  0
 19 18  2  0  0  0  0
 20 19  1  0  0  0  0
 21 20  2  0  0  0  0
 21 16  1  0  0  0  0
 22 16  1  0  0  0  0
 25 20  1  0  0  0  0
 26 27  1  0  0  0  0
 26 21  1  0  0  0  0
 28 26  2  0  0  0  0
 29 26  2  0  0  0  0
 30 33  1  0  0  0  0
 30 31  1  0  0  0  0
 32 30  1  0  0  0  0
M  RAD  2   3   2  27   2
M  END
