Coordinates from ORCA-job 4-NO2PhN2+~TsO-_B3LYPG-6-31G_dp-NX-Scan-d89-09-n800
 OpenBabel11261920283D

 33 33  0  0  0  0  0  0  0  0999 V2000
   -4.4427   -2.2056    0.4279 C   0  0  0  0  0  0  0  0  0  0  0  0
   -5.2698   -2.3914    1.5779 N   0  0  0  0  0  0  0  0  0  0  0  0
   -5.4310   -2.1706    2.6701 N   0  0  0  0  0  0  0  0  0  0  0  0
   -3.0790   -2.0178    0.6935 C   0  0  0  0  0  0  0  0  0  0  0  0
   -2.2281   -1.7878   -0.3792 C   0  0  0  0  0  0  0  0  0  0  0  0
   -2.7734   -1.7386   -1.6615 C   0  0  0  0  0  0  0  0  0  0  0  0
   -1.8626   -1.4882   -2.8024 N   0  0  0  0  0  0  0  0  0  0  0  0
   -0.6721   -1.3300   -2.5449 O   0  0  0  0  0  0  0  0  0  0  0  0
   -2.3605   -1.4554   -3.9228 O   0  0  0  0  0  0  0  0  0  0  0  0
   -4.1315   -1.9129   -1.9134 C   0  0  0  0  0  0  0  0  0  0  0  0
   -4.9975   -2.1653   -0.8510 C   0  0  0  0  0  0  0  0  0  0  0  0
   -2.7036   -2.0590    1.7095 H   0  0  0  0  0  0  0  0  0  0  0  0
   -1.1644   -1.6430   -0.2400 H   0  0  0  0  0  0  0  0  0  0  0  0
   -4.4991   -1.8584   -2.9302 H   0  0  0  0  0  0  0  0  0  0  0  0
   -6.0640   -2.3148   -1.0041 H   0  0  0  0  0  0  0  0  0  0  0  0
   -9.5476   -4.9698    2.0719 C   0  0  0  0  0  0  0  0  0  0  0  0
  -10.3905   -6.0746    2.1782 C   0  0  0  0  0  0  0  0  0  0  0  0
  -10.7861   -6.7968    1.0438 C   0  0  0  0  0  0  0  0  0  0  0  0
  -10.3127   -6.3826   -0.2103 C   0  0  0  0  0  0  0  0  0  0  0  0
   -9.4705   -5.2804   -0.3339 C   0  0  0  0  0  0  0  0  0  0  0  0
   -9.0907   -4.5798    0.8125 C   0  0  0  0  0  0  0  0  0  0  0  0
   -9.2557   -4.4010    2.9480 H   0  0  0  0  0  0  0  0  0  0  0  0
  -10.7519   -6.3785    3.1571 H   0  0  0  0  0  0  0  0  0  0  0  0
  -10.6127   -6.9282   -1.1015 H   0  0  0  0  0  0  0  0  0  0  0  0
   -9.1182   -4.9498   -1.3045 H   0  0  0  0  0  0  0  0  0  0  0  0
   -7.9870   -3.1777    0.6726 S   0  0  0  0  0  0  0  0  0  0  0  0
   -6.5845   -3.8223    0.7880 O   0  0  0  0  0  0  0  0  0  0  0  0
   -8.2340   -2.2751    1.8144 O   0  0  0  0  0  0  0  0  0  0  0  0
   -8.1664   -2.6052   -0.6828 O   0  0  0  0  0  0  0  0  0  0  0  0
  -11.7266   -7.9721    1.1619 C   0  0  0  0  0  0  0  0  0  0  0  0
  -11.7229   -8.3887    2.1731 H   0  0  0  0  0  0  0  0  0  0  0  0
  -12.7581   -7.6750    0.9338 H   0  0  0  0  0  0  0  0  0  0  0  0
  -11.4593   -8.7708    0.4629 H   0  0  0  0  0  0  0  0  0  0  0  0
  1  4  1  0  0  0  0
  1  2  1  0  0  0  0
  2  3  2  0  0  0  0
  4 12  1  0  0  0  0
  5 13  1  0  0  0  0
  5  4  2  0  0  0  0
  6  5  1  0  0  0  0
  7  8  2  0  0  0  0
  7  6  1  0  0  0  0
  9  7  2  0  0  0  0
 10  6  2  0  0  0  0
 10 11  1  0  0  0  0
 11  1  2  0  0  0  0
 14 10  1  0  0  0  0
 15 11  1  0  0  0  0
 16 17  1  0  0  0  0
 16 22  1  0  0  0  0
 17 23  1  0  0  0  0
 18 30  1  0  0  0  0
 18 17  2  0  0  0  0
 19 18  1  0  0  0  0
 20 19  2  0  0  0  0
 20 21  1  0  0  0  0
 21 16  2  0  0  0  0
 24 19  1  0  0  0  0
 25 20  1  0  0  0  0
 26 27  2  0  0  0  0
 26 21  1  0  0  0  0
 26 28  1  0  0  0  0
 29 26  2  0  0  0  0
 30 31  1  0  0  0  0
 32 30  1  0  0  0  0
 33 30  1  0  0  0  0
M  RAD  2   3   2  28   2
M  END
