Coordinates from ORCA-job 4-NO2PhN2+~TsO-_B3LYPG-6-31G_dp-NX-Scan-d89-09-n800
 OpenBabel11261920283D

 33 33  0  0  0  0  0  0  0  0999 V2000
   -4.2105   -2.7766    0.3336 C   0  0  0  0  0  0  0  0  0  0  0  0
   -4.8481   -3.5248    1.3715 N   0  0  0  0  0  0  0  0  0  0  0  0
   -4.8519   -3.7536    2.4743 N   0  0  0  0  0  0  0  0  0  0  0  0
   -3.2830   -1.8198    0.7777 C   0  0  0  0  0  0  0  0  0  0  0  0
   -2.6101   -1.0679   -0.1731 C   0  0  0  0  0  0  0  0  0  0  0  0
   -2.8802   -1.3015   -1.5222 C   0  0  0  0  0  0  0  0  0  0  0  0
   -2.1526   -0.4995   -2.5334 N   0  0  0  0  0  0  0  0  0  0  0  0
   -1.3554    0.3365   -2.1167 O   0  0  0  0  0  0  0  0  0  0  0  0
   -2.3948   -0.7294   -3.7135 O   0  0  0  0  0  0  0  0  0  0  0  0
   -3.7998   -2.2504   -1.9553 C   0  0  0  0  0  0  0  0  0  0  0  0
   -4.4883   -3.0099   -1.0110 C   0  0  0  0  0  0  0  0  0  0  0  0
   -3.1088   -1.6717    1.8372 H   0  0  0  0  0  0  0  0  0  0  0  0
   -1.8887   -0.3110    0.1078 H   0  0  0  0  0  0  0  0  0  0  0  0
   -3.9772   -2.3835   -3.0149 H   0  0  0  0  0  0  0  0  0  0  0  0
   -5.2321   -3.7456   -1.2868 H   0  0  0  0  0  0  0  0  0  0  0  0
   -9.3363   -4.9616    1.9183 C   0  0  0  0  0  0  0  0  0  0  0  0
  -10.3870   -5.8291    2.2093 C   0  0  0  0  0  0  0  0  0  0  0  0
  -11.0372   -6.5469    1.1950 C   0  0  0  0  0  0  0  0  0  0  0  0
  -10.6045   -6.3731   -0.1275 C   0  0  0  0  0  0  0  0  0  0  0  0
   -9.5559   -5.5083   -0.4353 C   0  0  0  0  0  0  0  0  0  0  0  0
   -8.9259   -4.8075    0.5935 C   0  0  0  0  0  0  0  0  0  0  0  0
   -8.8458   -4.3948    2.7022 H   0  0  0  0  0  0  0  0  0  0  0  0
  -10.7123   -5.9476    3.2398 H   0  0  0  0  0  0  0  0  0  0  0  0
  -11.0986   -6.9184   -0.9275 H   0  0  0  0  0  0  0  0  0  0  0  0
   -9.2318   -5.3613   -1.4596 H   0  0  0  0  0  0  0  0  0  0  0  0
   -7.5615   -3.7112    0.2105 S   0  0  0  0  0  0  0  0  0  0  0  0
   -6.3168   -4.6296    0.3694 O   0  0  0  0  0  0  0  0  0  0  0  0
   -7.5215   -2.6482    1.2380 O   0  0  0  0  0  0  0  0  0  0  0  0
   -7.7081   -3.2891   -1.1965 O   0  0  0  0  0  0  0  0  0  0  0  0
  -12.1990   -7.4571    1.5149 C   0  0  0  0  0  0  0  0  0  0  0  0
  -12.1335   -7.8474    2.5346 H   0  0  0  0  0  0  0  0  0  0  0  0
  -13.1526   -6.9204    1.4323 H   0  0  0  0  0  0  0  0  0  0  0  0
  -12.2449   -8.3071    0.8277 H   0  0  0  0  0  0  0  0  0  0  0  0
  1  4  1  0  0  0  0
  1  2  1  0  0  0  0
  2  3  2  0  0  0  0
  4 12  1  0  0  0  0
  5 13  1  0  0  0  0
  5  4  2  0  0  0  0
  6  5  1  0  0  0  0
  7  8  2  0  0  0  0
  7  6  1  0  0  0  0
  9  7  2  0  0  0  0
 10  6  2  0  0  0  0
 10 11  1  0  0  0  0
 11  1  2  0  0  0  0
 14 10  1  0  0  0  0
 15 11  1  0  0  0  0
 16 17  1  0  0  0  0
 16 22  1  0  0  0  0
 17 23  1  0  0  0  0
 18 30  1  0  0  0  0
 18 17  2  0  0  0  0
 19 18  1  0  0  0  0
 20 19  2  0  0  0  0
 20 21  1  0  0  0  0
 21 16  2  0  0  0  0
 24 19  1  0  0  0  0
 25 20  1  0  0  0  0
 26 27  2  0  0  0  0
 26 21  1  0  0  0  0
 26 28  1  0  0  0  0
 29 26  2  0  0  0  0
 30 31  1  0  0  0  0
 32 30  1  0  0  0  0
 33 30  1  0  0  0  0
M  RAD  2   3   2  28   2
M  END
