Coordinates from ORCA-job 4-NO2PhN2+~TsO-_B3LYPG-6-31G_dp-NX-Scan-d89-09-n800
 OpenBabel11261920283D

 33 33  0  0  0  0  0  0  0  0999 V2000
   -4.1937   -2.8198    0.3337 C   0  0  0  0  0  0  0  0  0  0  0  0
   -4.7986   -3.6058    1.3636 N   0  0  0  0  0  0  0  0  0  0  0  0
   -4.7665   -3.8721    2.4577 N   0  0  0  0  0  0  0  0  0  0  0  0
   -3.3015   -1.8343    0.7863 C   0  0  0  0  0  0  0  0  0  0  0  0
   -2.6565   -1.0503   -0.1581 C   0  0  0  0  0  0  0  0  0  0  0  0
   -2.9170   -1.2831   -1.5093 C   0  0  0  0  0  0  0  0  0  0  0  0
   -2.2187   -0.4472   -2.5135 N   0  0  0  0  0  0  0  0  0  0  0  0
   -1.4521    0.4135   -2.0898 O   0  0  0  0  0  0  0  0  0  0  0  0
   -2.4521   -0.6763   -3.6956 O   0  0  0  0  0  0  0  0  0  0  0  0
   -3.8013   -2.2614   -1.9506 C   0  0  0  0  0  0  0  0  0  0  0  0
   -4.4626   -3.0523   -1.0127 C   0  0  0  0  0  0  0  0  0  0  0  0
   -3.1330   -1.6887    1.8470 H   0  0  0  0  0  0  0  0  0  0  0  0
   -1.9637   -0.2696    0.1294 H   0  0  0  0  0  0  0  0  0  0  0  0
   -3.9737   -2.3922   -3.0113 H   0  0  0  0  0  0  0  0  0  0  0  0
   -5.1808   -3.8101   -1.2956 H   0  0  0  0  0  0  0  0  0  0  0  0
   -9.3296   -4.9362    1.9036 C   0  0  0  0  0  0  0  0  0  0  0  0
  -10.3932   -5.7852    2.2025 C   0  0  0  0  0  0  0  0  0  0  0  0
  -11.0402   -6.5189    1.1976 C   0  0  0  0  0  0  0  0  0  0  0  0
  -10.5912   -6.3803   -0.1237 C   0  0  0  0  0  0  0  0  0  0  0  0
   -9.5297   -5.5344   -0.4394 C   0  0  0  0  0  0  0  0  0  0  0  0
   -8.9031   -4.8171    0.5803 C   0  0  0  0  0  0  0  0  0  0  0  0
   -8.8413   -4.3571    2.6797 H   0  0  0  0  0  0  0  0  0  0  0  0
  -10.7312   -5.8763    3.2317 H   0  0  0  0  0  0  0  0  0  0  0  0
  -11.0827   -6.9384   -0.9164 H   0  0  0  0  0  0  0  0  0  0  0  0
   -9.1928   -5.4146   -1.4632 H   0  0  0  0  0  0  0  0  0  0  0  0
   -7.5220   -3.7455    0.1874 S   0  0  0  0  0  0  0  0  0  0  0  0
   -6.2910   -4.6783    0.3714 O   0  0  0  0  0  0  0  0  0  0  0  0
   -7.4749   -2.6644    1.1954 O   0  0  0  0  0  0  0  0  0  0  0  0
   -7.6538   -3.3475   -1.2281 O   0  0  0  0  0  0  0  0  0  0  0  0
  -12.2155   -7.4090    1.5249 C   0  0  0  0  0  0  0  0  0  0  0  0
  -12.1646   -7.7783    2.5533 H   0  0  0  0  0  0  0  0  0  0  0  0
  -13.1620   -6.8633    1.4213 H   0  0  0  0  0  0  0  0  0  0  0  0
  -12.2642   -8.2725    0.8552 H   0  0  0  0  0  0  0  0  0  0  0  0
  1  4  1  0  0  0  0
  1  2  1  0  0  0  0
  2  3  2  0  0  0  0
  4 12  1  0  0  0  0
  5 13  1  0  0  0  0
  5  4  2  0  0  0  0
  6  5  1  0  0  0  0
  7  8  2  0  0  0  0
  7  6  1  0  0  0  0
  9  7  2  0  0  0  0
 10  6  2  0  0  0  0
 10 11  1  0  0  0  0
 11  1  2  0  0  0  0
 14 10  1  0  0  0  0
 15 11  1  0  0  0  0
 16 17  1  0  0  0  0
 16 22  1  0  0  0  0
 17 23  1  0  0  0  0
 18 30  1  0  0  0  0
 18 17  2  0  0  0  0
 19 18  1  0  0  0  0
 20 19  2  0  0  0  0
 20 21  1  0  0  0  0
 21 16  2  0  0  0  0
 24 19  1  0  0  0  0
 25 20  1  0  0  0  0
 26 27  2  0  0  0  0
 26 21  1  0  0  0  0
 26 28  1  0  0  0  0
 29 26  2  0  0  0  0
 30 31  1  0  0  0  0
 32 30  1  0  0  0  0
 33 30  1  0  0  0  0
M  RAD  2   3   2  28   2
M  END
