Coordinates from ORCA-job 4-NO2PhN2+~TsO-_B3LYPG-6-31G_dp-NX-Scan-d89-09-n800
 OpenBabel11261920283D

 33 33  0  0  0  0  0  0  0  0999 V2000
   -4.4893   -3.4559   -0.1103 C   0  0  0  0  0  0  0  0  0  0  0  0
   -5.0730   -4.7073    0.2604 N   0  0  0  0  0  0  0  0  0  0  0  0
   -5.0684   -5.5299    1.0353 N   0  0  0  0  0  0  0  0  0  0  0  0
   -3.9604   -2.6963    0.9423 C   0  0  0  0  0  0  0  0  0  0  0  0
   -3.3486   -1.4890    0.6345 C   0  0  0  0  0  0  0  0  0  0  0  0
   -3.2759   -1.1004   -0.7031 C   0  0  0  0  0  0  0  0  0  0  0  0
   -2.6129    0.1842   -1.0253 N   0  0  0  0  0  0  0  0  0  0  0  0
   -2.1767    0.8409   -0.0834 O   0  0  0  0  0  0  0  0  0  0  0  0
   -2.5429    0.4994   -2.2085 O   0  0  0  0  0  0  0  0  0  0  0  0
   -3.7956   -1.8645   -1.7436 C   0  0  0  0  0  0  0  0  0  0  0  0
   -4.4307   -3.0671   -1.4462 C   0  0  0  0  0  0  0  0  0  0  0  0
   -4.0375   -3.0425    1.9666 H   0  0  0  0  0  0  0  0  0  0  0  0
   -2.9297   -0.8520    1.4025 H   0  0  0  0  0  0  0  0  0  0  0  0
   -3.7154   -1.5093   -2.7629 H   0  0  0  0  0  0  0  0  0  0  0  0
   -4.8734   -3.6975   -2.2042 H   0  0  0  0  0  0  0  0  0  0  0  0
   -9.1740   -4.1889    0.8545 C   0  0  0  0  0  0  0  0  0  0  0  0
  -10.0547   -4.7363    1.7893 C   0  0  0  0  0  0  0  0  0  0  0  0
  -10.5616   -6.0321    1.6347 C   0  0  0  0  0  0  0  0  0  0  0  0
  -10.1599   -6.7753    0.5129 C   0  0  0  0  0  0  0  0  0  0  0  0
   -9.2841   -6.2428   -0.4283 C   0  0  0  0  0  0  0  0  0  0  0  0
   -8.7898   -4.9475   -0.2495 C   0  0  0  0  0  0  0  0  0  0  0  0
   -8.7922   -3.1799    0.9639 H   0  0  0  0  0  0  0  0  0  0  0  0
  -10.3571   -4.1431    2.6488 H   0  0  0  0  0  0  0  0  0  0  0  0
  -10.5444   -7.7825    0.3740 H   0  0  0  0  0  0  0  0  0  0  0  0
   -8.9907   -6.8186   -1.2999 H   0  0  0  0  0  0  0  0  0  0  0  0
   -7.6604   -4.2584   -1.4625 S   0  0  0  0  0  0  0  0  0  0  0  0
   -6.3661   -5.1110   -1.3026 O   0  0  0  0  0  0  0  0  0  0  0  0
   -7.4027   -2.8577   -1.0666 O   0  0  0  0  0  0  0  0  0  0  0  0
   -8.2271   -4.5149   -2.7930 O   0  0  0  0  0  0  0  0  0  0  0  0
  -11.5416   -6.6088    2.6283 C   0  0  0  0  0  0  0  0  0  0  0  0
  -11.4914   -6.0902    3.5896 H   0  0  0  0  0  0  0  0  0  0  0  0
  -12.5721   -6.5195    2.2613 H   0  0  0  0  0  0  0  0  0  0  0  0
  -11.3542   -7.6727    2.8054 H   0  0  0  0  0  0  0  0  0  0  0  0
  1  2  1  0  0  0  0
  1  4  2  0  0  0  0
  2  3  2  0  0  0  0
  4 12  1  0  0  0  0
  5  4  1  0  0  0  0
  5 13  1  0  0  0  0
  6  5  2  0  0  0  0
  7  6  1  0  0  0  0
  7  8  2  0  0  0  0
  9  7  2  0  0  0  0
 10 11  2  0  0  0  0
 10  6  1  0  0  0  0
 11  1  1  0  0  0  0
 14 10  1  0  0  0  0
 15 11  1  0  0  0  0
 16 22  1  0  0  0  0
 16 17  2  0  0  0  0
 17 23  1  0  0  0  0
 18 17  1  0  0  0  0
 18 30  1  0  0  0  0
 19 18  2  0  0  0  0
 20 21  2  0  0  0  0
 20 19  1  0  0  0  0
 21 16  1  0  0  0  0
 24 19  1  0  0  0  0
 25 20  1  0  0  0  0
 26 27  2  0  0  0  0
 26 28  1  0  0  0  0
 26 21  1  0  0  0  0
 29 26  2  0  0  0  0
 30 33  1  0  0  0  0
 30 31  1  0  0  0  0
 32 30  1  0  0  0  0
M  RAD  2   3   2  28   2
M  END
