Coordinates from ORCA-job 4-MeOPhN2+~TfO-_B3LYPG-6-31G_dp-NX-Scan-d89-09-n800
 OpenBabel11261920223D

 25 24  0  0  0  0  0  0  0  0999 V2000
   -3.8955   -2.8230   -0.2352 C   0  0  0  0  0  0  0  0  0  0  0  0
   -4.3260   -3.2626    0.9931 N   0  0  0  0  0  0  0  0  0  0  0  0
   -4.6192   -3.3338    2.0766 N   0  0  0  0  0  0  0  0  0  0  0  0
   -4.0049   -3.6836   -1.3459 C   0  0  0  0  0  0  0  0  0  0  0  0
   -3.5914   -3.2235   -2.5760 C   0  0  0  0  0  0  0  0  0  0  0  0
   -3.0739   -1.9135   -2.7075 C   0  0  0  0  0  0  0  0  0  0  0  0
   -2.7120   -1.5652   -3.9498 O   0  0  0  0  0  0  0  0  0  0  0  0
   -2.2100   -0.2458   -4.1933 C   0  0  0  0  0  0  0  0  0  0  0  0
   -2.9659   -1.0725   -1.5820 C   0  0  0  0  0  0  0  0  0  0  0  0
   -3.3766   -1.5187   -0.3376 C   0  0  0  0  0  0  0  0  0  0  0  0
   -4.4149   -4.6800   -1.2269 H   0  0  0  0  0  0  0  0  0  0  0  0
   -3.6604   -3.8431   -3.4625 H   0  0  0  0  0  0  0  0  0  0  0  0
   -2.0080   -0.2044   -5.2629 H   0  0  0  0  0  0  0  0  0  0  0  0
   -1.2830   -0.0695   -3.6382 H   0  0  0  0  0  0  0  0  0  0  0  0
   -2.9546    0.5118   -3.9282 H   0  0  0  0  0  0  0  0  0  0  0  0
   -2.5767   -0.0667   -1.6682 H   0  0  0  0  0  0  0  0  0  0  0  0
   -3.3125   -0.8831    0.5387 H   0  0  0  0  0  0  0  0  0  0  0  0
   -5.2391   -0.3213    2.3025 S   0  0  0  0  0  0  0  0  0  0  0  0
   -6.1396    0.1958    3.8409 C   0  0  0  0  0  0  0  0  0  0  0  0
   -6.2326   -1.0764    1.5074 O   0  0  0  0  0  0  0  0  0  0  0  0
   -4.1377   -1.2118    2.8270 O   0  0  0  0  0  0  0  0  0  0  0  0
   -4.7291    0.9290    1.7125 O   0  0  0  0  0  0  0  0  0  0  0  0
   -7.1715    0.9914    3.5280 F   0  0  0  0  0  0  0  0  0  0  0  0
   -6.6119   -0.8801    4.4880 F   0  0  0  0  0  0  0  0  0  0  0  0
   -5.3199    0.8623    4.6637 F   0  0  0  0  0  0  0  0  0  0  0  0
  1  2  1  0  0  0  0
  2  3  1  0  0  0  0
  4 11  1  0  0  0  0
  4  1  2  0  0  0  0
  5  4  1  0  0  0  0
  6  5  2  0  0  0  0
  6  9  1  0  0  0  0
  7  6  1  0  0  0  0
  8  7  1  0  0  0  0
  8 15  1  0  0  0  0
  8 14  1  0  0  0  0
  9 10  2  0  0  0  0
 10  1  1  0  0  0  0
 10 17  1  0  0  0  0
 12  5  1  0  0  0  0
 13  8  1  0  0  0  0
 16  9  1  0  0  0  0
 18 21  1  0  0  0  0
 18 19  1  0  0  0  0
 19 24  1  0  0  0  0
 19 25  1  0  0  0  0
 20 18  2  0  0  0  0
 22 18  2  0  0  0  0
 23 19  1  0  0  0  0
M  RAD  3   2   2   3   3  21   2
M  END
