Coordinates from ORCA-job 4-MeOPhN2+~TfO-_B3LYPG-6-31G_dp-NX-Scan-d89-09-n800
 OpenBabel11261920223D

 25 24  0  0  0  0  0  0  0  0999 V2000
   -4.2221   -3.0104   -0.4083 C   0  0  0  0  0  0  0  0  0  0  0  0
   -4.9088   -3.6310    0.6032 N   0  0  0  0  0  0  0  0  0  0  0  0
   -5.4393   -4.2319    1.3806 N   0  0  0  0  0  0  0  0  0  0  0  0
   -3.3962   -3.8313   -1.2173 C   0  0  0  0  0  0  0  0  0  0  0  0
   -2.7041   -3.2431   -2.2477 C   0  0  0  0  0  0  0  0  0  0  0  0
   -2.8273   -1.8503   -2.4857 C   0  0  0  0  0  0  0  0  0  0  0  0
   -2.1094   -1.3863   -3.5136 O   0  0  0  0  0  0  0  0  0  0  0  0
   -2.1558    0.0113   -3.8325 C   0  0  0  0  0  0  0  0  0  0  0  0
   -3.6587   -1.0599   -1.6698 C   0  0  0  0  0  0  0  0  0  0  0  0
   -4.3637   -1.6274   -0.6215 C   0  0  0  0  0  0  0  0  0  0  0  0
   -3.3126   -4.8944   -1.0186 H   0  0  0  0  0  0  0  0  0  0  0  0
   -2.0552   -3.8236   -2.8933 H   0  0  0  0  0  0  0  0  0  0  0  0
   -1.4988    0.1343   -4.6924 H   0  0  0  0  0  0  0  0  0  0  0  0
   -1.7887    0.6148   -2.9964 H   0  0  0  0  0  0  0  0  0  0  0  0
   -3.1724    0.3183   -4.0975 H   0  0  0  0  0  0  0  0  0  0  0  0
   -3.7622    0.0055   -1.8322 H   0  0  0  0  0  0  0  0  0  0  0  0
   -4.9963   -1.0089    0.0191 H   0  0  0  0  0  0  0  0  0  0  0  0
   -6.0862   -0.3491    2.2787 S   0  0  0  0  0  0  0  0  0  0  0  0
   -5.0429    0.3610    3.6403 C   0  0  0  0  0  0  0  0  0  0  0  0
   -7.4678   -0.2147    2.7524 O   0  0  0  0  0  0  0  0  0  0  0  0
   -5.5782   -1.7548    2.1701 O   0  0  0  0  0  0  0  0  0  0  0  0
   -5.7041    0.4624    1.0903 O   0  0  0  0  0  0  0  0  0  0  0  0
   -5.3296    1.6562    3.8315 F   0  0  0  0  0  0  0  0  0  0  0  0
   -5.2512   -0.2962    4.7910 F   0  0  0  0  0  0  0  0  0  0  0  0
   -3.7351    0.2614    3.3339 F   0  0  0  0  0  0  0  0  0  0  0  0
  1  2  1  0  0  0  0
  2  3  1  0  0  0  0
  4 11  1  0  0  0  0
  4  1  2  0  0  0  0
  5  4  1  0  0  0  0
  6  5  2  0  0  0  0
  6  9  1  0  0  0  0
  7  6  1  0  0  0  0
  8  7  1  0  0  0  0
  8 14  1  0  0  0  0
  9 10  2  0  0  0  0
 10  1  1  0  0  0  0
 10 17  1  0  0  0  0
 12  5  1  0  0  0  0
 13  8  1  0  0  0  0
 15  8  1  0  0  0  0
 16  9  1  0  0  0  0
 18 20  1  0  0  0  0
 18 19  1  0  0  0  0
 19 23  1  0  0  0  0
 19 24  1  0  0  0  0
 21 18  2  0  0  0  0
 22 18  2  0  0  0  0
 25 19  1  0  0  0  0
M  RAD  3   2   2   3   3  20   2
M  END
