Coordinates from ORCA-job 4-MeOPhN2+~TfO-_B3LYPG-6-31G_dp-NX-Scan-d89-09-n800
 OpenBabel11261920223D

 25 25  0  0  0  0  0  0  0  0999 V2000
   -3.8837   -2.5029   -0.2158 C   0  0  0  0  0  0  0  0  0  0  0  0
   -4.2665   -2.9605    1.0560 N   0  0  0  0  0  0  0  0  0  0  0  0
   -4.5142   -2.3978    2.1065 N   0  0  0  0  0  0  0  0  0  0  0  0
   -3.7099   -3.5537   -1.1433 C   0  0  0  0  0  0  0  0  0  0  0  0
   -3.3275   -3.3025   -2.4459 C   0  0  0  0  0  0  0  0  0  0  0  0
   -3.1038   -1.9780   -2.8634 C   0  0  0  0  0  0  0  0  0  0  0  0
   -2.7313   -1.8253   -4.1543 O   0  0  0  0  0  0  0  0  0  0  0  0
   -2.4884   -0.5125   -4.6515 C   0  0  0  0  0  0  0  0  0  0  0  0
   -3.2719   -0.9224   -1.9522 C   0  0  0  0  0  0  0  0  0  0  0  0
   -3.6588   -1.1770   -0.6407 C   0  0  0  0  0  0  0  0  0  0  0  0
   -3.8859   -4.5682   -0.8019 H   0  0  0  0  0  0  0  0  0  0  0  0
   -3.1911   -4.1044   -3.1629 H   0  0  0  0  0  0  0  0  0  0  0  0
   -2.2035   -0.6391   -5.6961 H   0  0  0  0  0  0  0  0  0  0  0  0
   -1.6713   -0.0238   -4.1082 H   0  0  0  0  0  0  0  0  0  0  0  0
   -3.3893    0.1098   -4.5926 H   0  0  0  0  0  0  0  0  0  0  0  0
   -3.1026    0.1035   -2.2556 H   0  0  0  0  0  0  0  0  0  0  0  0
   -3.7801   -0.3503    0.0422 H   0  0  0  0  0  0  0  0  0  0  0  0
   -4.5921   -0.1751    3.4632 S   0  0  0  0  0  0  0  0  0  0  0  0
   -6.4549   -0.2266    3.6195 C   0  0  0  0  0  0  0  0  0  0  0  0
   -4.4088   -0.9336    2.0176 O   0  0  0  0  0  0  0  0  0  0  0  0
   -4.0394   -0.9625    4.5483 O   0  0  0  0  0  0  0  0  0  0  0  0
   -4.2185    1.2044    3.2061 O   0  0  0  0  0  0  0  0  0  0  0  0
   -7.0079    0.3666    2.5627 F   0  0  0  0  0  0  0  0  0  0  0  0
   -6.8745   -1.4861    3.6972 F   0  0  0  0  0  0  0  0  0  0  0  0
   -6.7912    0.4298    4.7295 F   0  0  0  0  0  0  0  0  0  0  0  0
  1  2  1  0  0  0  0
  2  3  1  0  0  0  0
  4 11  1  0  0  0  0
  4  1  2  0  0  0  0
  5  4  1  0  0  0  0
  6  5  2  0  0  0  0
  6  9  1  0  0  0  0
  7  6  1  0  0  0  0
  8 15  1  0  0  0  0
  8  7  1  0  0  0  0
  8 14  1  0  0  0  0
  9 10  2  0  0  0  0
 10  1  1  0  0  0  0
 10 17  1  0  0  0  0
 12  5  1  0  0  0  0
 13  8  1  0  0  0  0
 16  9  1  0  0  0  0
 18 19  1  0  0  0  0
 18 21  2  0  0  0  0
 19 24  1  0  0  0  0
 19 25  1  0  0  0  0
 20  3  1  0  0  0  0
 20 18  1  0  0  0  0
 22 18  2  0  0  0  0
 23 19  1  0  0  0  0
M  RAD  2   2   2   3   2
M  END
