Coordinates from ORCA-job 4-MeOPhN2+~TfO-_B3LYPG-6-31G_dp-NX-Scan-d89-09-n800
 OpenBabel11261920223D

 25 24  0  0  0  0  0  0  0  0999 V2000
   -4.4556   -2.6111   -0.4516 C   0  0  0  0  0  0  0  0  0  0  0  0
   -5.2309   -2.9201    0.6439 N   0  0  0  0  0  0  0  0  0  0  0  0
   -5.9105   -2.7511    1.5338 N   0  0  0  0  0  0  0  0  0  0  0  0
   -3.7073   -3.6309   -1.0688 C   0  0  0  0  0  0  0  0  0  0  0  0
   -2.9240   -3.3081   -2.1555 C   0  0  0  0  0  0  0  0  0  0  0  0
   -2.8855   -1.9779   -2.6320 C   0  0  0  0  0  0  0  0  0  0  0  0
   -2.0860   -1.7728   -3.6897 O   0  0  0  0  0  0  0  0  0  0  0  0
   -1.9528   -0.4521   -4.2249 C   0  0  0  0  0  0  0  0  0  0  0  0
   -3.6533   -0.9735   -2.0090 C   0  0  0  0  0  0  0  0  0  0  0  0
   -4.4387   -1.2820   -0.9115 C   0  0  0  0  0  0  0  0  0  0  0  0
   -3.7449   -4.6437   -0.6835 H   0  0  0  0  0  0  0  0  0  0  0  0
   -2.3233   -4.0553   -2.6606 H   0  0  0  0  0  0  0  0  0  0  0  0
   -1.2493   -0.5421   -5.0520 H   0  0  0  0  0  0  0  0  0  0  0  0
   -1.5521    0.2375   -3.4740 H   0  0  0  0  0  0  0  0  0  0  0  0
   -2.9123   -0.0796   -4.5989 H   0  0  0  0  0  0  0  0  0  0  0  0
   -3.6331    0.0474   -2.3674 H   0  0  0  0  0  0  0  0  0  0  0  0
   -5.0405   -0.5379   -0.4035 H   0  0  0  0  0  0  0  0  0  0  0  0
   -5.0706    0.0126    2.4106 S   0  0  0  0  0  0  0  0  0  0  0  0
   -5.5909   -0.2513    4.1735 C   0  0  0  0  0  0  0  0  0  0  0  0
   -6.2245   -0.6151    1.6399 O   0  0  0  0  0  0  0  0  0  0  0  0
   -3.8302   -0.7746    2.2631 O   0  0  0  0  0  0  0  0  0  0  0  0
   -4.9929    1.4661    2.2342 O   0  0  0  0  0  0  0  0  0  0  0  0
   -6.7452    0.3758    4.4269 F   0  0  0  0  0  0  0  0  0  0  0  0
   -5.7577   -1.5641    4.4127 F   0  0  0  0  0  0  0  0  0  0  0  0
   -4.6547    0.2158    5.0087 F   0  0  0  0  0  0  0  0  0  0  0  0
  1  2  1  0  0  0  0
  2  3  1  0  0  0  0
  4 11  1  0  0  0  0
  4  1  2  0  0  0  0
  5  4  1  0  0  0  0
  6  5  2  0  0  0  0
  6  9  1  0  0  0  0
  7  6  1  0  0  0  0
  8  7  1  0  0  0  0
  8 14  1  0  0  0  0
  9 10  2  0  0  0  0
 10  1  1  0  0  0  0
 10 17  1  0  0  0  0
 12  5  1  0  0  0  0
 13  8  1  0  0  0  0
 15  8  1  0  0  0  0
 16  9  1  0  0  0  0
 18 19  1  0  0  0  0
 19 24  1  0  0  0  0
 19 23  1  0  0  0  0
 19 25  1  0  0  0  0
 20 18  2  0  0  0  0
 21 18  1  0  0  0  0
 22 18  2  0  0  0  0
M  RAD  3   2   2   3   3  21   2
M  END
