Coordinates from ORCA-job 4-MeOPhN2+~TfO-_B3LYPG-6-31G_dp-NX-Scan-d89-09-n800
 OpenBabel11261920223D

 25 24  0  0  0  0  0  0  0  0999 V2000
   -4.7049   -3.4761   -0.5025 C   0  0  0  0  0  0  0  0  0  0  0  0
   -5.4883   -4.2419    0.2906 N   0  0  0  0  0  0  0  0  0  0  0  0
   -6.1333   -4.8746    0.9531 N   0  0  0  0  0  0  0  0  0  0  0  0
   -3.4471   -3.9819   -0.9271 C   0  0  0  0  0  0  0  0  0  0  0  0
   -2.6115   -3.1327   -1.6050 C   0  0  0  0  0  0  0  0  0  0  0  0
   -2.9952   -1.7805   -1.8332 C   0  0  0  0  0  0  0  0  0  0  0  0
   -2.0666   -1.0182   -2.4068 O   0  0  0  0  0  0  0  0  0  0  0  0
   -2.2891    0.4020   -2.4983 C   0  0  0  0  0  0  0  0  0  0  0  0
   -4.2683   -1.3202   -1.4501 C   0  0  0  0  0  0  0  0  0  0  0  0
   -5.1291   -2.1571   -0.7724 C   0  0  0  0  0  0  0  0  0  0  0  0
   -3.1559   -5.0004   -0.6973 H   0  0  0  0  0  0  0  0  0  0  0  0
   -1.6314   -3.4535   -1.9372 H   0  0  0  0  0  0  0  0  0  0  0  0
   -1.3567    0.8143   -2.8812 H   0  0  0  0  0  0  0  0  0  0  0  0
   -2.5105    0.8137   -1.5100 H   0  0  0  0  0  0  0  0  0  0  0  0
   -3.1049    0.6227   -3.1935 H   0  0  0  0  0  0  0  0  0  0  0  0
   -4.5791   -0.2931   -1.5836 H   0  0  0  0  0  0  0  0  0  0  0  0
   -6.0720   -1.7705   -0.4082 H   0  0  0  0  0  0  0  0  0  0  0  0
   -5.7704   -0.2425    1.8607 S   0  0  0  0  0  0  0  0  0  0  0  0
   -4.1010    0.5737    1.9931 C   0  0  0  0  0  0  0  0  0  0  0  0
   -6.5079    0.2815    3.0154 O   0  0  0  0  0  0  0  0  0  0  0  0
   -5.4296   -1.6965    1.9035 O   0  0  0  0  0  0  0  0  0  0  0  0
   -6.2379    0.1990    0.5171 O   0  0  0  0  0  0  0  0  0  0  0  0
   -4.2098    1.9088    1.9648 F   0  0  0  0  0  0  0  0  0  0  0  0
   -3.4691    0.2223    3.1206 F   0  0  0  0  0  0  0  0  0  0  0  0
   -3.2974    0.2132    0.9517 F   0  0  0  0  0  0  0  0  0  0  0  0
  1  2  1  0  0  0  0
  2  3  1  0  0  0  0
  4 11  1  0  0  0  0
  4  1  2  0  0  0  0
  5  4  1  0  0  0  0
  6  5  2  0  0  0  0
  6  9  1  0  0  0  0
  7  6  1  0  0  0  0
  8  7  1  0  0  0  0
  8 14  1  0  0  0  0
  9 10  2  0  0  0  0
 10  1  1  0  0  0  0
 10 17  1  0  0  0  0
 12  5  1  0  0  0  0
 13  8  1  0  0  0  0
 15  8  1  0  0  0  0
 16  9  1  0  0  0  0
 18 21  2  0  0  0  0
 18 19  1  0  0  0  0
 18 20  1  0  0  0  0
 19 24  1  0  0  0  0
 22 18  2  0  0  0  0
 23 19  1  0  0  0  0
 25 19  1  0  0  0  0
M  RAD  3   2   2   3   3  20   2
M  END
