Coordinates from ORCA-job 4-MeOPhN2+~TfO-_B3LYPG-6-31G_dp-NX-Scan-d89-09-n800
 OpenBabel11261920223D

 25 24  0  0  0  0  0  0  0  0999 V2000
   -4.4600   -4.0450   -0.5763 C   0  0  0  0  0  0  0  0  0  0  0  0
   -5.0979   -5.0571    0.0452 N   0  0  0  0  0  0  0  0  0  0  0  0
   -5.6440   -5.8857    0.5741 N   0  0  0  0  0  0  0  0  0  0  0  0
   -3.4208   -4.3472   -1.5043 C   0  0  0  0  0  0  0  0  0  0  0  0
   -2.7711   -3.3014   -2.1026 C   0  0  0  0  0  0  0  0  0  0  0  0
   -3.1355   -1.9574   -1.7912 C   0  0  0  0  0  0  0  0  0  0  0  0
   -2.4213   -1.0170   -2.3853 O   0  0  0  0  0  0  0  0  0  0  0  0
   -2.6754    0.3750   -2.0523 C   0  0  0  0  0  0  0  0  0  0  0  0
   -4.1889   -1.6811   -0.8912 C   0  0  0  0  0  0  0  0  0  0  0  0
   -4.8474   -2.7141   -0.2681 C   0  0  0  0  0  0  0  0  0  0  0  0
   -3.1556   -5.3768   -1.7162 H   0  0  0  0  0  0  0  0  0  0  0  0
   -1.9646   -3.4705   -2.8073 H   0  0  0  0  0  0  0  0  0  0  0  0
   -1.9299    0.9348   -2.6133 H   0  0  0  0  0  0  0  0  0  0  0  0
   -2.5627    0.5332   -0.9779 H   0  0  0  0  0  0  0  0  0  0  0  0
   -3.6854    0.6631   -2.3490 H   0  0  0  0  0  0  0  0  0  0  0  0
   -4.5025   -0.6592   -0.6599 H   0  0  0  0  0  0  0  0  0  0  0  0
   -5.6194   -2.4668    0.4587 H   0  0  0  0  0  0  0  0  0  0  0  0
   -5.6617    0.7601    1.2623 S   0  0  0  0  0  0  0  0  0  0  0  0
   -4.0796    1.0200    2.2042 C   0  0  0  0  0  0  0  0  0  0  0  0
   -6.6065    1.7179    1.8430 O   0  0  0  0  0  0  0  0  0  0  0  0
   -5.9488   -0.6807    1.5049 O   0  0  0  0  0  0  0  0  0  0  0  0
   -5.2184    1.0401   -0.1378 O   0  0  0  0  0  0  0  0  0  0  0  0
   -3.6747    2.2957    2.1386 F   0  0  0  0  0  0  0  0  0  0  0  0
   -4.2042    0.6803    3.4939 F   0  0  0  0  0  0  0  0  0  0  0  0
   -3.0904    0.2514    1.6721 F   0  0  0  0  0  0  0  0  0  0  0  0
  1 10  1  0  0  0  0
  1  2  1  0  0  0  0
  2  3  1  0  0  0  0
  4  1  2  0  0  0  0
  5  6  2  0  0  0  0
  5  4  1  0  0  0  0
  6  9  1  0  0  0  0
  7  8  1  0  0  0  0
  7  6  1  0  0  0  0
  8 14  1  0  0  0  0
  9 16  1  0  0  0  0
  9 10  2  0  0  0  0
 10 17  1  0  0  0  0
 11  4  1  0  0  0  0
 12  5  1  0  0  0  0
 13  8  1  0  0  0  0
 15  8  1  0  0  0  0
 18 21  2  0  0  0  0
 18 20  1  0  0  0  0
 18 19  1  0  0  0  0
 19 24  1  0  0  0  0
 22 18  2  0  0  0  0
 23 19  1  0  0  0  0
 25 19  1  0  0  0  0
M  RAD  3   2   2   3   3  20   2
M  END
