Coordinates from ORCA-job 4-MeOPhN2+~TfO-_B3LYPG-6-31G_dp-NX-Scan-d89-09-n800
 OpenBabel11261920223D

 25 24  0  0  0  0  0  0  0  0999 V2000
   -3.9856   -2.8691   -0.3516 C   0  0  0  0  0  0  0  0  0  0  0  0
   -4.5003   -3.3428    0.8319 N   0  0  0  0  0  0  0  0  0  0  0  0
   -4.8820   -3.4808    1.8809 N   0  0  0  0  0  0  0  0  0  0  0  0
   -3.8214   -3.7719   -1.4237 C   0  0  0  0  0  0  0  0  0  0  0  0
   -3.3119   -3.2963   -2.6104 C   0  0  0  0  0  0  0  0  0  0  0  0
   -2.9724   -1.9283   -2.7397 C   0  0  0  0  0  0  0  0  0  0  0  0
   -2.4926   -1.5719   -3.9385 O   0  0  0  0  0  0  0  0  0  0  0  0
   -2.1376   -0.2047   -4.1775 C   0  0  0  0  0  0  0  0  0  0  0  0
   -3.1481   -1.0447   -1.6569 C   0  0  0  0  0  0  0  0  0  0  0  0
   -3.6539   -1.5044   -0.4518 C   0  0  0  0  0  0  0  0  0  0  0  0
   -4.0950   -4.8146   -1.3069 H   0  0  0  0  0  0  0  0  0  0  0  0
   -3.1657   -3.9482   -3.4638 H   0  0  0  0  0  0  0  0  0  0  0  0
   -1.7895   -0.1712   -5.2091 H   0  0  0  0  0  0  0  0  0  0  0  0
   -1.3335    0.1151   -3.5070 H   0  0  0  0  0  0  0  0  0  0  0  0
   -3.0055    0.4519   -4.0590 H   0  0  0  0  0  0  0  0  0  0  0  0
   -2.9008    0.0054   -1.7435 H   0  0  0  0  0  0  0  0  0  0  0  0
   -3.8129   -0.8210    0.3802 H   0  0  0  0  0  0  0  0  0  0  0  0
   -5.4640   -0.4469    2.4045 S   0  0  0  0  0  0  0  0  0  0  0  0
   -5.9313    0.3793    4.0002 C   0  0  0  0  0  0  0  0  0  0  0  0
   -6.7007   -1.0792    1.9065 O   0  0  0  0  0  0  0  0  0  0  0  0
   -4.4138   -1.4417    2.8278 O   0  0  0  0  0  0  0  0  0  0  0  0
   -4.8995    0.6391    1.5707 O   0  0  0  0  0  0  0  0  0  0  0  0
   -6.8626    1.3173    3.7805 F   0  0  0  0  0  0  0  0  0  0  0  0
   -6.4251   -0.5202    4.8627 F   0  0  0  0  0  0  0  0  0  0  0  0
   -4.8612    0.9613    4.5578 F   0  0  0  0  0  0  0  0  0  0  0  0
  1  2  1  0  0  0  0
  2  3  1  0  0  0  0
  4 11  1  0  0  0  0
  4  1  2  0  0  0  0
  5  4  1  0  0  0  0
  6  5  2  0  0  0  0
  6  9  1  0  0  0  0
  7  6  1  0  0  0  0
  8 15  1  0  0  0  0
  8  7  1  0  0  0  0
  8 14  1  0  0  0  0
  9 10  2  0  0  0  0
 10  1  1  0  0  0  0
 10 17  1  0  0  0  0
 12  5  1  0  0  0  0
 13  8  1  0  0  0  0
 16  9  1  0  0  0  0
 18 21  1  0  0  0  0
 18 19  1  0  0  0  0
 19 25  1  0  0  0  0
 19 24  1  0  0  0  0
 20 18  2  0  0  0  0
 22 18  2  0  0  0  0
 23 19  1  0  0  0  0
M  RAD  3   2   2   3   3  21   2
M  END
