Coordinates from ORCA-job 4-MeOPhN2+~TfO-_B3LYPG-6-31G_dp-NX-Scan-d89-09-n800
 OpenBabel11261920223D

 25 24  0  0  0  0  0  0  0  0999 V2000
   -4.2222   -2.7780   -0.4618 C   0  0  0  0  0  0  0  0  0  0  0  0
   -4.8630   -3.2162    0.6703 N   0  0  0  0  0  0  0  0  0  0  0  0
   -5.3871   -3.4436    1.6329 N   0  0  0  0  0  0  0  0  0  0  0  0
   -3.8059   -3.7413   -1.4074 C   0  0  0  0  0  0  0  0  0  0  0  0
   -3.1653   -3.3076   -2.5451 C   0  0  0  0  0  0  0  0  0  0  0  0
   -2.9341   -1.9256   -2.7476 C   0  0  0  0  0  0  0  0  0  0  0  0
   -2.3021   -1.6160   -3.8872 O   0  0  0  0  0  0  0  0  0  0  0  0
   -2.0156   -0.2442   -4.1839 C   0  0  0  0  0  0  0  0  0  0  0  0
   -3.3569   -0.9852   -1.7888 C   0  0  0  0  0  0  0  0  0  0  0  0
   -4.0067   -1.3971   -0.6358 C   0  0  0  0  0  0  0  0  0  0  0  0
   -3.9913   -4.7956   -1.2340 H   0  0  0  0  0  0  0  0  0  0  0  0
   -2.8259   -4.0057   -3.3013 H   0  0  0  0  0  0  0  0  0  0  0  0
   -1.5019   -0.2558   -5.1444 H   0  0  0  0  0  0  0  0  0  0  0  0
   -1.3631    0.1939   -3.4215 H   0  0  0  0  0  0  0  0  0  0  0  0
   -2.9377    0.3402   -4.2661 H   0  0  0  0  0  0  0  0  0  0  0  0
   -3.1810    0.0739   -1.9278 H   0  0  0  0  0  0  0  0  0  0  0  0
   -4.3282   -0.6682    0.1116 H   0  0  0  0  0  0  0  0  0  0  0  0
   -5.2717   -0.5204    2.5562 S   0  0  0  0  0  0  0  0  0  0  0  0
   -5.7991    0.3390    4.1136 C   0  0  0  0  0  0  0  0  0  0  0  0
   -6.4935   -1.2343    2.0853 O   0  0  0  0  0  0  0  0  0  0  0  0
   -4.1833   -1.4408    2.9709 O   0  0  0  0  0  0  0  0  0  0  0  0
   -4.8371    0.5796    1.6572 O   0  0  0  0  0  0  0  0  0  0  0  0
   -6.7888    1.2057    3.8595 F   0  0  0  0  0  0  0  0  0  0  0  0
   -6.2360   -0.5548    5.0123 F   0  0  0  0  0  0  0  0  0  0  0  0
   -4.7693    1.0099    4.6473 F   0  0  0  0  0  0  0  0  0  0  0  0
  1  2  1  0  0  0  0
  2  3  1  0  0  0  0
  4 11  1  0  0  0  0
  4  1  2  0  0  0  0
  5  4  1  0  0  0  0
  6  5  2  0  0  0  0
  6  9  1  0  0  0  0
  7  6  1  0  0  0  0
  8  7  1  0  0  0  0
  8 14  1  0  0  0  0
  9 10  2  0  0  0  0
 10  1  1  0  0  0  0
 10 17  1  0  0  0  0
 12  5  1  0  0  0  0
 13  8  1  0  0  0  0
 15  8  1  0  0  0  0
 16  9  1  0  0  0  0
 18 21  1  0  0  0  0
 18 19  1  0  0  0  0
 19 25  1  0  0  0  0
 19 24  1  0  0  0  0
 20 18  2  0  0  0  0
 22 18  2  0  0  0  0
 23 19  1  0  0  0  0
M  RAD  3   2   2   3   3  21   2
M  END
