Coordinates from ORCA-job 4-MeOPhN2+~TfO-_B3LYPG-6-31G_dp-NX-Scan-d89-09-n800
 OpenBabel11261920223D

 25 24  0  0  0  0  0  0  0  0999 V2000
   -4.0803   -2.9101   -0.4373 C   0  0  0  0  0  0  0  0  0  0  0  0
   -4.6744   -3.4035    0.7007 N   0  0  0  0  0  0  0  0  0  0  0  0
   -5.1275   -3.5549    1.7192 N   0  0  0  0  0  0  0  0  0  0  0  0
   -3.7075   -3.8176   -1.4518 C   0  0  0  0  0  0  0  0  0  0  0  0
   -3.1122   -3.3203   -2.5885 C   0  0  0  0  0  0  0  0  0  0  0  0
   -2.8965   -1.9278   -2.7259 C   0  0  0  0  0  0  0  0  0  0  0  0
   -2.3174   -1.5531   -3.8743 O   0  0  0  0  0  0  0  0  0  0  0  0
   -2.0651   -0.1638   -4.1156 C   0  0  0  0  0  0  0  0  0  0  0  0
   -3.2854   -1.0414   -1.7029 C   0  0  0  0  0  0  0  0  0  0  0  0
   -3.8796   -1.5207   -0.5463 C   0  0  0  0  0  0  0  0  0  0  0  0
   -3.8859   -4.8803   -1.3288 H   0  0  0  0  0  0  0  0  0  0  0  0
   -2.8024   -3.9738   -3.3957 H   0  0  0  0  0  0  0  0  0  0  0  0
   -1.5966   -0.1199   -5.0980 H   0  0  0  0  0  0  0  0  0  0  0  0
   -1.3842    0.2477   -3.3634 H   0  0  0  0  0  0  0  0  0  0  0  0
   -2.9985    0.4080   -4.1259 H   0  0  0  0  0  0  0  0  0  0  0  0
   -3.1347    0.0264   -1.7987 H   0  0  0  0  0  0  0  0  0  0  0  0
   -4.2079   -0.8387    0.2401 H   0  0  0  0  0  0  0  0  0  0  0  0
   -5.6862   -0.5129    2.4597 S   0  0  0  0  0  0  0  0  0  0  0  0
   -5.6956    0.4698    4.0357 C   0  0  0  0  0  0  0  0  0  0  0  0
   -7.0452   -1.0624    2.3262 O   0  0  0  0  0  0  0  0  0  0  0  0
   -4.6265   -1.5522    2.7212 O   0  0  0  0  0  0  0  0  0  0  0  0
   -5.2616    0.4608    1.4230 O   0  0  0  0  0  0  0  0  0  0  0  0
   -6.5804    1.4722    3.9486 F   0  0  0  0  0  0  0  0  0  0  0  0
   -6.0325   -0.3105    5.0714 F   0  0  0  0  0  0  0  0  0  0  0  0
   -4.4828    0.9907    4.2715 F   0  0  0  0  0  0  0  0  0  0  0  0
  1  2  1  0  0  0  0
  2  3  1  0  0  0  0
  4 11  1  0  0  0  0
  4  1  2  0  0  0  0
  5  4  1  0  0  0  0
  6  5  2  0  0  0  0
  6  9  1  0  0  0  0
  7  6  1  0  0  0  0
  8  7  1  0  0  0  0
  8 14  1  0  0  0  0
  9 10  2  0  0  0  0
 10  1  1  0  0  0  0
 10 17  1  0  0  0  0
 12  5  1  0  0  0  0
 13  8  1  0  0  0  0
 15  8  1  0  0  0  0
 16  9  1  0  0  0  0
 18 21  1  0  0  0  0
 18 19  1  0  0  0  0
 19 25  1  0  0  0  0
 19 24  1  0  0  0  0
 20 18  2  0  0  0  0
 22 18  2  0  0  0  0
 23 19  1  0  0  0  0
M  RAD  3   2   2   3   3  21   2
M  END
