Coordinates from ORCA-job 4-MeOPhN2+~TfO-_B3LYPG-6-31G_dp-NX-Scan-d89-09-n800
 OpenBabel11261920223D

 25 24  0  0  0  0  0  0  0  0999 V2000
   -4.7036   -3.4699   -0.5003 C   0  0  0  0  0  0  0  0  0  0  0  0
   -5.4864   -4.2323    0.2973 N   0  0  0  0  0  0  0  0  0  0  0  0
   -6.1310   -4.8615    0.9633 N   0  0  0  0  0  0  0  0  0  0  0  0
   -3.4471   -3.9783   -0.9251 C   0  0  0  0  0  0  0  0  0  0  0  0
   -2.6113   -3.1318   -1.6063 C   0  0  0  0  0  0  0  0  0  0  0  0
   -2.9934   -1.7797   -1.8373 C   0  0  0  0  0  0  0  0  0  0  0  0
   -2.0641   -1.0198   -2.4132 O   0  0  0  0  0  0  0  0  0  0  0  0
   -2.2843    0.4006   -2.5065 C   0  0  0  0  0  0  0  0  0  0  0  0
   -4.2656   -1.3170   -1.4540 C   0  0  0  0  0  0  0  0  0  0  0  0
   -5.1270   -2.1513   -0.7736 C   0  0  0  0  0  0  0  0  0  0  0  0
   -3.1566   -4.9964   -0.6929 H   0  0  0  0  0  0  0  0  0  0  0  0
   -1.6320   -3.4546   -1.9387 H   0  0  0  0  0  0  0  0  0  0  0  0
   -1.3513    0.8110   -2.8902 H   0  0  0  0  0  0  0  0  0  0  0  0
   -2.5047    0.8140   -1.5187 H   0  0  0  0  0  0  0  0  0  0  0  0
   -3.0999    0.6218   -3.2017 H   0  0  0  0  0  0  0  0  0  0  0  0
   -4.5752   -0.2899   -1.5904 H   0  0  0  0  0  0  0  0  0  0  0  0
   -6.0689   -1.7624   -0.4086 H   0  0  0  0  0  0  0  0  0  0  0  0
   -5.7755   -0.2490    1.8658 S   0  0  0  0  0  0  0  0  0  0  0  0
   -4.1063    0.5675    1.9967 C   0  0  0  0  0  0  0  0  0  0  0  0
   -6.5117    0.2740    3.0218 O   0  0  0  0  0  0  0  0  0  0  0  0
   -5.4341   -1.7029    1.9068 O   0  0  0  0  0  0  0  0  0  0  0  0
   -6.2446    0.1935    0.5230 O   0  0  0  0  0  0  0  0  0  0  0  0
   -4.2156    1.9026    1.9706 F   0  0  0  0  0  0  0  0  0  0  0  0
   -3.4724    0.2148    3.1227 F   0  0  0  0  0  0  0  0  0  0  0  0
   -3.3042    0.2089    0.9536 F   0  0  0  0  0  0  0  0  0  0  0  0
  1  2  1  0  0  0  0
  2  3  1  0  0  0  0
  4 11  1  0  0  0  0
  4  1  2  0  0  0  0
  5  4  1  0  0  0  0
  6  5  2  0  0  0  0
  6  9  1  0  0  0  0
  7  6  1  0  0  0  0
  8  7  1  0  0  0  0
  8 14  1  0  0  0  0
  9 10  2  0  0  0  0
 10  1  1  0  0  0  0
 10 17  1  0  0  0  0
 12  5  1  0  0  0  0
 13  8  1  0  0  0  0
 15  8  1  0  0  0  0
 16  9  1  0  0  0  0
 18 21  2  0  0  0  0
 18 19  1  0  0  0  0
 18 20  1  0  0  0  0
 19 24  1  0  0  0  0
 22 18  2  0  0  0  0
 23 19  1  0  0  0  0
 25 19  1  0  0  0  0
M  RAD  3   2   2   3   3  20   2
M  END
