Coordinates from ORCA-job 4-MeOPhN2+~TfO-_B3LYPG-6-31G_dp-NX-Scan-d89-09-n800
 OpenBabel11261920223D

 25 24  0  0  0  0  0  0  0  0999 V2000
   -4.2474   -2.6157   -0.4426 C   0  0  0  0  0  0  0  0  0  0  0  0
   -4.8903   -2.9659    0.7356 N   0  0  0  0  0  0  0  0  0  0  0  0
   -5.4460   -2.6563    1.6927 N   0  0  0  0  0  0  0  0  0  0  0  0
   -3.6731   -3.6528   -1.2018 C   0  0  0  0  0  0  0  0  0  0  0  0
   -3.0146   -3.3438   -2.3734 C   0  0  0  0  0  0  0  0  0  0  0  0
   -2.9227   -2.0007   -2.7982 C   0  0  0  0  0  0  0  0  0  0  0  0
   -2.2566   -1.8062   -3.9494 O   0  0  0  0  0  0  0  0  0  0  0  0
   -2.0925   -0.4763   -4.4474 C   0  0  0  0  0  0  0  0  0  0  0  0
   -3.5070   -0.9725   -2.0332 C   0  0  0  0  0  0  0  0  0  0  0  0
   -4.1713   -1.2723   -0.8535 C   0  0  0  0  0  0  0  0  0  0  0  0
   -3.7498   -4.6776   -0.8554 H   0  0  0  0  0  0  0  0  0  0  0  0
   -2.5559   -4.1123   -2.9845 H   0  0  0  0  0  0  0  0  0  0  0  0
   -1.5178   -0.5768   -5.3675 H   0  0  0  0  0  0  0  0  0  0  0  0
   -1.5397    0.1464   -3.7353 H   0  0  0  0  0  0  0  0  0  0  0  0
   -3.0608   -0.0151   -4.6697 H   0  0  0  0  0  0  0  0  0  0  0  0
   -3.4450    0.0610   -2.3498 H   0  0  0  0  0  0  0  0  0  0  0  0
   -4.6303   -0.5029   -0.2445 H   0  0  0  0  0  0  0  0  0  0  0  0
   -4.8477   -0.0621    2.8052 S   0  0  0  0  0  0  0  0  0  0  0  0
   -6.0230   -0.1386    4.2418 C   0  0  0  0  0  0  0  0  0  0  0  0
   -5.6864   -0.7401    1.6959 O   0  0  0  0  0  0  0  0  0  0  0  0
   -3.6960   -0.8840    3.1917 O   0  0  0  0  0  0  0  0  0  0  0  0
   -4.6584    1.3589    2.5113 O   0  0  0  0  0  0  0  0  0  0  0  0
   -7.1426    0.5388    3.9679 F   0  0  0  0  0  0  0  0  0  0  0  0
   -6.3431   -1.4143    4.5022 F   0  0  0  0  0  0  0  0  0  0  0  0
   -5.4491    0.3928    5.3263 F   0  0  0  0  0  0  0  0  0  0  0  0
  1  2  1  0  0  0  0
  2  3  2  0  0  0  0
  4 11  1  0  0  0  0
  4  1  2  0  0  0  0
  5  4  1  0  0  0  0
  6  5  2  0  0  0  0
  6  9  1  0  0  0  0
  7  6  1  0  0  0  0
  8  7  1  0  0  0  0
  8 14  1  0  0  0  0
  9 10  2  0  0  0  0
 10  1  1  0  0  0  0
 10 17  1  0  0  0  0
 12  5  1  0  0  0  0
 13  8  1  0  0  0  0
 15  8  1  0  0  0  0
 16  9  1  0  0  0  0
 18 21  1  0  0  0  0
 18 19  1  0  0  0  0
 19 24  1  0  0  0  0
 19 25  1  0  0  0  0
 20 18  2  0  0  0  0
 22 18  2  0  0  0  0
 23 19  1  0  0  0  0
M  RAD  2   3   2  21   2
M  END
