Coordinates from ORCA-job 4-MeOPhN2+~TfO-_B3LYPG-6-31G_dp-NX-Scan-d89-09-n800
 OpenBabel11261920223D

 25 24  0  0  0  0  0  0  0  0999 V2000
   -4.4946   -3.9671   -0.5801 C   0  0  0  0  0  0  0  0  0  0  0  0
   -5.1640   -4.9325    0.0825 N   0  0  0  0  0  0  0  0  0  0  0  0
   -5.7492   -5.7007    0.6574 N   0  0  0  0  0  0  0  0  0  0  0  0
   -3.4073   -4.3144   -1.4328 C   0  0  0  0  0  0  0  0  0  0  0  0
   -2.7267   -3.2958   -2.0450 C   0  0  0  0  0  0  0  0  0  0  0  0
   -3.1040   -1.9385   -1.8153 C   0  0  0  0  0  0  0  0  0  0  0  0
   -2.3453   -1.0241   -2.4004 O   0  0  0  0  0  0  0  0  0  0  0  0
   -2.6109    0.3767   -2.1324 C   0  0  0  0  0  0  0  0  0  0  0  0
   -4.2084   -1.6216   -0.9977 C   0  0  0  0  0  0  0  0  0  0  0  0
   -4.9014   -2.6263   -0.3639 C   0  0  0  0  0  0  0  0  0  0  0  0
   -3.1281   -5.3521   -1.5766 H   0  0  0  0  0  0  0  0  0  0  0  0
   -1.8806   -3.4960   -2.6925 H   0  0  0  0  0  0  0  0  0  0  0  0
   -1.8132    0.9151   -2.6406 H   0  0  0  0  0  0  0  0  0  0  0  0
   -2.5916    0.5692   -1.0575 H   0  0  0  0  0  0  0  0  0  0  0  0
   -3.5849    0.6640   -2.5347 H   0  0  0  0  0  0  0  0  0  0  0  0
   -4.5342   -0.5955   -0.8055 H   0  0  0  0  0  0  0  0  0  0  0  0
   -5.6963   -2.3480    0.3275 H   0  0  0  0  0  0  0  0  0  0  0  0
   -5.7081    0.6169    1.3816 S   0  0  0  0  0  0  0  0  0  0  0  0
   -4.0695    0.9607    2.1907 C   0  0  0  0  0  0  0  0  0  0  0  0
   -6.6570    1.5075    2.0537 O   0  0  0  0  0  0  0  0  0  0  0  0
   -5.8923   -0.8401    1.6367 O   0  0  0  0  0  0  0  0  0  0  0  0
   -5.4039    0.9352   -0.0458 O   0  0  0  0  0  0  0  0  0  0  0  0
   -3.7509    2.2599    2.1142 F   0  0  0  0  0  0  0  0  0  0  0  0
   -4.0605    0.5964    3.4795 F   0  0  0  0  0  0  0  0  0  0  0  0
   -3.0843    0.2628    1.5615 F   0  0  0  0  0  0  0  0  0  0  0  0
  1 10  1  0  0  0  0
  1  2  1  0  0  0  0
  2  3  1  0  0  0  0
  4  1  2  0  0  0  0
  5  6  2  0  0  0  0
  5  4  1  0  0  0  0
  6  9  1  0  0  0  0
  7  8  1  0  0  0  0
  7  6  1  0  0  0  0
  8 14  1  0  0  0  0
  9 16  1  0  0  0  0
  9 10  2  0  0  0  0
 10 17  1  0  0  0  0
 11  4  1  0  0  0  0
 12  5  1  0  0  0  0
 13  8  1  0  0  0  0
 15  8  1  0  0  0  0
 18 21  2  0  0  0  0
 18 20  1  0  0  0  0
 18 19  1  0  0  0  0
 19 24  1  0  0  0  0
 22 18  2  0  0  0  0
 23 19  1  0  0  0  0
 25 19  1  0  0  0  0
M  RAD  3   2   2   3   3  20   2
M  END
