Coordinates from ORCA-job 4-MeOPhN2+~TfO-_B3LYPG-6-31G_dp-NX-Scan-d89-09-n800
 OpenBabel11261920223D

 25 24  0  0  0  0  0  0  0  0999 V2000
   -4.4702   -2.7315   -0.5329 C   0  0  0  0  0  0  0  0  0  0  0  0
   -5.2663   -3.1682    0.4950 N   0  0  0  0  0  0  0  0  0  0  0  0
   -5.9427   -3.4652    1.3391 N   0  0  0  0  0  0  0  0  0  0  0  0
   -3.8191   -3.7082   -1.3191 C   0  0  0  0  0  0  0  0  0  0  0  0
   -3.0199   -3.2902   -2.3577 C   0  0  0  0  0  0  0  0  0  0  0  0
   -2.8670   -1.9084   -2.6233 C   0  0  0  0  0  0  0  0  0  0  0  0
   -2.0656   -1.6132   -3.6553 O   0  0  0  0  0  0  0  0  0  0  0  0
   -1.8331   -0.2421   -3.9976 C   0  0  0  0  0  0  0  0  0  0  0  0
   -3.5323   -0.9525   -1.8318 C   0  0  0  0  0  0  0  0  0  0  0  0
   -4.3345   -1.3504   -0.7751 C   0  0  0  0  0  0  0  0  0  0  0  0
   -3.9472   -4.7622   -1.0980 H   0  0  0  0  0  0  0  0  0  0  0  0
   -2.4946   -3.9999   -2.9860 H   0  0  0  0  0  0  0  0  0  0  0  0
   -1.1548   -0.2660   -4.8498 H   0  0  0  0  0  0  0  0  0  0  0  0
   -1.3636    0.2954   -3.1669 H   0  0  0  0  0  0  0  0  0  0  0  0
   -2.7659    0.2546   -4.2844 H   0  0  0  0  0  0  0  0  0  0  0  0
   -3.4210    0.1067   -2.0241 H   0  0  0  0  0  0  0  0  0  0  0  0
   -4.8383   -0.6171   -0.1476 H   0  0  0  0  0  0  0  0  0  0  0  0
   -5.4647   -0.5620    2.4183 S   0  0  0  0  0  0  0  0  0  0  0  0
   -5.3953    0.2951    4.0635 C   0  0  0  0  0  0  0  0  0  0  0  0
   -6.5893   -1.5374    2.5603 O   0  0  0  0  0  0  0  0  0  0  0  0
   -4.1424   -1.2195    2.2711 O   0  0  0  0  0  0  0  0  0  0  0  0
   -5.7163    0.5222    1.4386 O   0  0  0  0  0  0  0  0  0  0  0  0
   -6.5426    0.9421    4.3059 F   0  0  0  0  0  0  0  0  0  0  0  0
   -5.1888   -0.5939    5.0449 F   0  0  0  0  0  0  0  0  0  0  0  0
   -4.3913    1.1836    4.0772 F   0  0  0  0  0  0  0  0  0  0  0  0
  1  2  1  0  0  0  0
  2  3  1  0  0  0  0
  4 11  1  0  0  0  0
  4  1  2  0  0  0  0
  5  4  1  0  0  0  0
  6  5  2  0  0  0  0
  6  9  1  0  0  0  0
  7  6  1  0  0  0  0
  8  7  1  0  0  0  0
  8 14  1  0  0  0  0
  9 10  2  0  0  0  0
 10  1  1  0  0  0  0
 10 17  1  0  0  0  0
 12  5  1  0  0  0  0
 13  8  1  0  0  0  0
 15  8  1  0  0  0  0
 16  9  1  0  0  0  0
 18 20  1  0  0  0  0
 18 19  1  0  0  0  0
 19 25  1  0  0  0  0
 19 23  1  0  0  0  0
 19 24  1  0  0  0  0
 21 18  2  0  0  0  0
 22 18  2  0  0  0  0
M  RAD  3   2   2   3   3  20   2
M  END
