Coordinates from ORCA-job 4-MeOPhN2+~TfO-_B3LYPG-6-31G_dp-NX-Scan-d89-09-n800
 OpenBabel11261920223D

 25 24  0  0  0  0  0  0  0  0999 V2000
   -4.0386   -2.8942   -0.4061 C   0  0  0  0  0  0  0  0  0  0  0  0
   -4.6016   -3.3803    0.7505 N   0  0  0  0  0  0  0  0  0  0  0  0
   -5.0281   -3.5291    1.7809 N   0  0  0  0  0  0  0  0  0  0  0  0
   -3.7485   -3.8020   -1.4470 C   0  0  0  0  0  0  0  0  0  0  0  0
   -3.1879   -3.3140   -2.6052 C   0  0  0  0  0  0  0  0  0  0  0  0
   -2.9236   -1.9295   -2.7374 C   0  0  0  0  0  0  0  0  0  0  0  0
   -2.3844   -1.5628   -3.9075 O   0  0  0  0  0  0  0  0  0  0  0  0
   -2.0909   -0.1811   -4.1458 C   0  0  0  0  0  0  0  0  0  0  0  0
   -3.2280   -1.0420   -1.6869 C   0  0  0  0  0  0  0  0  0  0  0  0
   -3.7868   -1.5127   -0.5095 C   0  0  0  0  0  0  0  0  0  0  0  0
   -3.9643   -4.8581   -1.3280 H   0  0  0  0  0  0  0  0  0  0  0  0
   -2.9430   -3.9686   -3.4335 H   0  0  0  0  0  0  0  0  0  0  0  0
   -1.6703   -0.1424   -5.1499 H   0  0  0  0  0  0  0  0  0  0  0  0
   -1.3580    0.1944   -3.4243 H   0  0  0  0  0  0  0  0  0  0  0  0
   -3.0008    0.4259   -4.1032 H   0  0  0  0  0  0  0  0  0  0  0  0
   -3.0395    0.0202   -1.7776 H   0  0  0  0  0  0  0  0  0  0  0  0
   -4.0492   -0.8270    0.2968 H   0  0  0  0  0  0  0  0  0  0  0  0
   -5.6093   -0.4919    2.4419 S   0  0  0  0  0  0  0  0  0  0  0  0
   -5.7917    0.4421    4.0365 C   0  0  0  0  0  0  0  0  0  0  0  0
   -6.9347   -1.0736    2.1680 O   0  0  0  0  0  0  0  0  0  0  0  0
   -4.5526   -1.5149    2.7686 O   0  0  0  0  0  0  0  0  0  0  0  0
   -5.1201    0.5214    1.4754 O   0  0  0  0  0  0  0  0  0  0  0  0
   -6.6978    1.4195    3.8970 F   0  0  0  0  0  0  0  0  0  0  0  0
   -6.1946   -0.3790    5.0156 F   0  0  0  0  0  0  0  0  0  0  0  0
   -4.6228    0.9914    4.3950 F   0  0  0  0  0  0  0  0  0  0  0  0
  1  2  1  0  0  0  0
  2  3  1  0  0  0  0
  4 11  1  0  0  0  0
  4  1  2  0  0  0  0
  5  4  1  0  0  0  0
  6  5  2  0  0  0  0
  6  9  1  0  0  0  0
  7  6  1  0  0  0  0
  8 15  1  0  0  0  0
  8  7  1  0  0  0  0
  8 14  1  0  0  0  0
  9 10  2  0  0  0  0
 10  1  1  0  0  0  0
 10 17  1  0  0  0  0
 12  5  1  0  0  0  0
 13  8  1  0  0  0  0
 16  9  1  0  0  0  0
 18 21  1  0  0  0  0
 18 19  1  0  0  0  0
 19 25  1  0  0  0  0
 19 24  1  0  0  0  0
 20 18  2  0  0  0  0
 22 18  2  0  0  0  0
 23 19  1  0  0  0  0
M  RAD  3   2   2   3   3  21   2
M  END
