Coordinates from ORCA-job 4-MeOPhN2+~TfO-_B3LYPG-6-31G_dp-NX-Scan-d89-09-n800
 OpenBabel11261920223D

 25 24  0  0  0  0  0  0  0  0999 V2000
   -4.6167   -3.7522   -0.5739 C   0  0  0  0  0  0  0  0  0  0  0  0
   -5.3641   -4.6462    0.1089 N   0  0  0  0  0  0  0  0  0  0  0  0
   -5.9934   -5.3746    0.6873 N   0  0  0  0  0  0  0  0  0  0  0  0
   -3.4411   -4.1950   -1.2453 C   0  0  0  0  0  0  0  0  0  0  0  0
   -2.6681   -3.2512   -1.8664 C   0  0  0  0  0  0  0  0  0  0  0  0
   -3.0344   -1.8730   -1.8141 C   0  0  0  0  0  0  0  0  0  0  0  0
   -2.1751   -1.0368   -2.3852 O   0  0  0  0  0  0  0  0  0  0  0  0
   -2.4004    0.3850   -2.2659 C   0  0  0  0  0  0  0  0  0  0  0  0
   -4.2236   -1.4658   -1.1816 C   0  0  0  0  0  0  0  0  0  0  0  0
   -5.0185   -2.3954   -0.5466 C   0  0  0  0  0  0  0  0  0  0  0  0
   -3.1685   -5.2445   -1.2468 H   0  0  0  0  0  0  0  0  0  0  0  0
   -1.7532   -3.5233   -2.3797 H   0  0  0  0  0  0  0  0  0  0  0  0
   -1.5314    0.8502   -2.7285 H   0  0  0  0  0  0  0  0  0  0  0  0
   -2.4757    0.6692   -1.2138 H   0  0  0  0  0  0  0  0  0  0  0  0
   -3.3096    0.6747   -2.7997 H   0  0  0  0  0  0  0  0  0  0  0  0
   -4.5381   -0.4313   -1.0924 H   0  0  0  0  0  0  0  0  0  0  0  0
   -5.8825   -2.0675    0.0205 H   0  0  0  0  0  0  0  0  0  0  0  0
   -5.7813    0.1873    1.6908 S   0  0  0  0  0  0  0  0  0  0  0  0
   -4.0827    0.8651    2.0399 C   0  0  0  0  0  0  0  0  0  0  0  0
   -6.6607    0.9234    2.6048 O   0  0  0  0  0  0  0  0  0  0  0  0
   -5.6158   -1.2685    1.9735 O   0  0  0  0  0  0  0  0  0  0  0  0
   -5.9423    0.4834    0.2390 O   0  0  0  0  0  0  0  0  0  0  0  0
   -4.0352    2.1896    1.8399 F   0  0  0  0  0  0  0  0  0  0  0  0
   -3.6917    0.6093    3.2939 F   0  0  0  0  0  0  0  0  0  0  0  0
   -3.1627    0.2996    1.2056 F   0  0  0  0  0  0  0  0  0  0  0  0
  1 10  1  0  0  0  0
  1  2  1  0  0  0  0
  2  3  1  0  0  0  0
  4  1  2  0  0  0  0
  5  6  2  0  0  0  0
  5  4  1  0  0  0  0
  6  9  1  0  0  0  0
  7  8  1  0  0  0  0
  7  6  1  0  0  0  0
  8 14  1  0  0  0  0
  9 16  1  0  0  0  0
  9 10  2  0  0  0  0
 10 17  1  0  0  0  0
 11  4  1  0  0  0  0
 12  5  1  0  0  0  0
 13  8  1  0  0  0  0
 15  8  1  0  0  0  0
 18 21  2  0  0  0  0
 18 19  1  0  0  0  0
 18 20  1  0  0  0  0
 19 24  1  0  0  0  0
 22 18  2  0  0  0  0
 23 19  1  0  0  0  0
 25 19  1  0  0  0  0
M  RAD  3   2   2   3   3  20   2
M  END
