Coordinates from ORCA-job 4-MeOPhN2+~TfO-_B3LYPG-6-31G_dp-NX-Scan-d89-09-n800
 OpenBabel11261920223D

 25 24  0  0  0  0  0  0  0  0999 V2000
   -4.2116   -2.9797   -0.3611 C   0  0  0  0  0  0  0  0  0  0  0  0
   -4.8831   -3.6036    0.6602 N   0  0  0  0  0  0  0  0  0  0  0  0
   -5.3674   -4.2542    1.4282 N   0  0  0  0  0  0  0  0  0  0  0  0
   -3.3393   -3.7927   -1.1302 C   0  0  0  0  0  0  0  0  0  0  0  0
   -2.6525   -3.2110   -2.1674 C   0  0  0  0  0  0  0  0  0  0  0  0
   -2.8230   -1.8316   -2.4510 C   0  0  0  0  0  0  0  0  0  0  0  0
   -2.1042   -1.3724   -3.4804 O   0  0  0  0  0  0  0  0  0  0  0  0
   -2.1960    0.0126   -3.8423 C   0  0  0  0  0  0  0  0  0  0  0  0
   -3.6972   -1.0490   -1.6736 C   0  0  0  0  0  0  0  0  0  0  0  0
   -4.3998   -1.6112   -0.6207 C   0  0  0  0  0  0  0  0  0  0  0  0
   -3.2186   -4.8449   -0.8965 H   0  0  0  0  0  0  0  0  0  0  0  0
   -1.9710   -3.7864   -2.7834 H   0  0  0  0  0  0  0  0  0  0  0  0
   -1.5288    0.1342   -4.6944 H   0  0  0  0  0  0  0  0  0  0  0  0
   -1.8662    0.6538   -3.0188 H   0  0  0  0  0  0  0  0  0  0  0  0
   -3.2184    0.2734   -4.1332 H   0  0  0  0  0  0  0  0  0  0  0  0
   -3.8357    0.0068   -1.8680 H   0  0  0  0  0  0  0  0  0  0  0  0
   -5.0617   -0.9968   -0.0089 H   0  0  0  0  0  0  0  0  0  0  0  0
   -6.1470   -0.2647    2.2160 S   0  0  0  0  0  0  0  0  0  0  0  0
   -4.9885    0.2259    3.5820 C   0  0  0  0  0  0  0  0  0  0  0  0
   -7.4848    0.0439    2.7302 O   0  0  0  0  0  0  0  0  0  0  0  0
   -5.8409   -1.7224    2.0383 O   0  0  0  0  0  0  0  0  0  0  0  0
   -5.6726    0.5374    1.0559 O   0  0  0  0  0  0  0  0  0  0  0  0
   -5.0839    1.5371    3.8412 F   0  0  0  0  0  0  0  0  0  0  0  0
   -5.2618   -0.4520    4.7069 F   0  0  0  0  0  0  0  0  0  0  0  0
   -3.7129   -0.0411    3.2354 F   0  0  0  0  0  0  0  0  0  0  0  0
  1  2  1  0  0  0  0
  2  3  1  0  0  0  0
  4 11  1  0  0  0  0
  4  1  2  0  0  0  0
  5  4  1  0  0  0  0
  6  5  2  0  0  0  0
  6  9  1  0  0  0  0
  7  6  1  0  0  0  0
  8  7  1  0  0  0  0
  8 14  1  0  0  0  0
  9 10  2  0  0  0  0
 10  1  1  0  0  0  0
 10 17  1  0  0  0  0
 12  5  1  0  0  0  0
 13  8  1  0  0  0  0
 15  8  1  0  0  0  0
 16  9  1  0  0  0  0
 18 20  1  0  0  0  0
 18 19  1  0  0  0  0
 19 23  1  0  0  0  0
 19 24  1  0  0  0  0
 21 18  2  0  0  0  0
 22 18  2  0  0  0  0
 25 19  1  0  0  0  0
M  RAD  3   2   2   3   3  20   2
M  END
