Coordinates from ORCA-job 4-MeOPhN2+~TfO-_B3LYPG-6-31G_dp-NX-Scan-d89-09-n800
 OpenBabel11261920223D

 25 24  0  0  0  0  0  0  0  0999 V2000
   -4.6301   -3.7311   -0.5717 C   0  0  0  0  0  0  0  0  0  0  0  0
   -5.3846   -4.6143    0.1170 N   0  0  0  0  0  0  0  0  0  0  0  0
   -6.0215   -5.3316    0.7006 N   0  0  0  0  0  0  0  0  0  0  0  0
   -3.4406   -4.1789   -1.2143 C   0  0  0  0  0  0  0  0  0  0  0  0
   -2.6602   -3.2410   -1.8351 C   0  0  0  0  0  0  0  0  0  0  0  0
   -3.0316   -1.8634   -1.8088 C   0  0  0  0  0  0  0  0  0  0  0  0
   -2.1640   -1.0328   -2.3762 O   0  0  0  0  0  0  0  0  0  0  0  0
   -2.3931    0.3897   -2.2786 C   0  0  0  0  0  0  0  0  0  0  0  0
   -4.2334   -1.4516   -1.2042 C   0  0  0  0  0  0  0  0  0  0  0  0
   -5.0367   -2.3757   -0.5717 C   0  0  0  0  0  0  0  0  0  0  0  0
   -3.1635   -5.2270   -1.1946 H   0  0  0  0  0  0  0  0  0  0  0  0
   -1.7351   -3.5167   -2.3276 H   0  0  0  0  0  0  0  0  0  0  0  0
   -1.5182    0.8505   -2.7346 H   0  0  0  0  0  0  0  0  0  0  0  0
   -2.4834    0.6869   -1.2312 H   0  0  0  0  0  0  0  0  0  0  0  0
   -3.2948    0.6713   -2.8293 H   0  0  0  0  0  0  0  0  0  0  0  0
   -4.5502   -0.4172   -1.1310 H   0  0  0  0  0  0  0  0  0  0  0  0
   -5.9141   -2.0469   -0.0287 H   0  0  0  0  0  0  0  0  0  0  0  0
   -5.7720    0.1450    1.7051 S   0  0  0  0  0  0  0  0  0  0  0  0
   -4.0763    0.8440    2.0265 C   0  0  0  0  0  0  0  0  0  0  0  0
   -6.6416    0.8569    2.6471 O   0  0  0  0  0  0  0  0  0  0  0  0
   -5.5790   -1.3114    1.9667 O   0  0  0  0  0  0  0  0  0  0  0  0
   -5.9697    0.4547    0.2607 O   0  0  0  0  0  0  0  0  0  0  0  0
   -4.0503    2.1701    1.8334 F   0  0  0  0  0  0  0  0  0  0  0  0
   -3.6598    0.5864    3.2719 F   0  0  0  0  0  0  0  0  0  0  0  0
   -3.1632    0.2957    1.1731 F   0  0  0  0  0  0  0  0  0  0  0  0
  1 10  1  0  0  0  0
  1  2  1  0  0  0  0
  2  3  1  0  0  0  0
  4 11  1  0  0  0  0
  4  1  2  0  0  0  0
  5  6  2  0  0  0  0
  5  4  1  0  0  0  0
  6  9  1  0  0  0  0
  7  8  1  0  0  0  0
  7  6  1  0  0  0  0
  8 14  1  0  0  0  0
  9 16  1  0  0  0  0
  9 10  2  0  0  0  0
 10 17  1  0  0  0  0
 12  5  1  0  0  0  0
 13  8  1  0  0  0  0
 15  8  1  0  0  0  0
 18 21  2  0  0  0  0
 18 19  1  0  0  0  0
 18 20  1  0  0  0  0
 19 24  1  0  0  0  0
 22 18  2  0  0  0  0
 23 19  1  0  0  0  0
 25 19  1  0  0  0  0
M  RAD  3   2   2   3   3  20   2
M  END
