Coordinates from ORCA-job 4-MeOPhN2+~TfO-_B3LYPG-6-31G_dp-NX-Scan-d89-09-n800
 OpenBabel11261920223D

 25 24  0  0  0  0  0  0  0  0999 V2000
   -3.8833   -2.8325   -0.2261 C   0  0  0  0  0  0  0  0  0  0  0  0
   -4.3019   -3.2788    1.0034 N   0  0  0  0  0  0  0  0  0  0  0  0
   -4.5876   -3.3636    2.0878 N   0  0  0  0  0  0  0  0  0  0  0  0
   -4.0011   -3.6885   -1.3397 C   0  0  0  0  0  0  0  0  0  0  0  0
   -3.5984   -3.2225   -2.5712 C   0  0  0  0  0  0  0  0  0  0  0  0
   -3.0827   -1.9116   -2.7010 C   0  0  0  0  0  0  0  0  0  0  0  0
   -2.7314   -1.5576   -3.9446 O   0  0  0  0  0  0  0  0  0  0  0  0
   -2.2323   -0.2367   -4.1865 C   0  0  0  0  0  0  0  0  0  0  0  0
   -2.9655   -1.0756   -1.5727 C   0  0  0  0  0  0  0  0  0  0  0  0
   -3.3662   -1.5273   -0.3272 C   0  0  0  0  0  0  0  0  0  0  0  0
   -4.4092   -4.6858   -1.2216 H   0  0  0  0  0  0  0  0  0  0  0  0
   -3.6747   -3.8381   -3.4598 H   0  0  0  0  0  0  0  0  0  0  0  0
   -2.0388   -0.1908   -5.2575 H   0  0  0  0  0  0  0  0  0  0  0  0
   -1.3011   -0.0621   -3.6380 H   0  0  0  0  0  0  0  0  0  0  0  0
   -2.9755    0.5191   -3.9125 H   0  0  0  0  0  0  0  0  0  0  0  0
   -2.5777   -0.0691   -1.6575 H   0  0  0  0  0  0  0  0  0  0  0  0
   -3.2949   -0.8944    0.5504 H   0  0  0  0  0  0  0  0  0  0  0  0
   -5.2165   -0.3195    2.2974 S   0  0  0  0  0  0  0  0  0  0  0  0
   -6.1507    0.2031    3.8138 C   0  0  0  0  0  0  0  0  0  0  0  0
   -6.2021   -1.0454    1.4665 O   0  0  0  0  0  0  0  0  0  0  0  0
   -4.1483   -1.2348    2.8459 O   0  0  0  0  0  0  0  0  0  0  0  0
   -4.6646    0.9254    1.7333 O   0  0  0  0  0  0  0  0  0  0  0  0
   -7.1575    1.0213    3.4786 F   0  0  0  0  0  0  0  0  0  0  0  0
   -6.6623   -0.8688    4.4374 F   0  0  0  0  0  0  0  0  0  0  0  0
   -5.3425    0.8464    4.6658 F   0  0  0  0  0  0  0  0  0  0  0  0
  1  2  1  0  0  0  0
  2  3  1  0  0  0  0
  4 11  1  0  0  0  0
  4  1  2  0  0  0  0
  5  4  1  0  0  0  0
  6  5  2  0  0  0  0
  6  9  1  0  0  0  0
  7  6  1  0  0  0  0
  8  7  1  0  0  0  0
  8 15  1  0  0  0  0
  8 14  1  0  0  0  0
  9 10  2  0  0  0  0
 10  1  1  0  0  0  0
 10 17  1  0  0  0  0
 12  5  1  0  0  0  0
 13  8  1  0  0  0  0
 16  9  1  0  0  0  0
 18 21  1  0  0  0  0
 18 19  1  0  0  0  0
 19 24  1  0  0  0  0
 19 25  1  0  0  0  0
 20 18  2  0  0  0  0
 22 18  2  0  0  0  0
 23 19  1  0  0  0  0
M  RAD  3   2   2   3   3  21   2
M  END
