Coordinates from ORCA-job 4-MeOPhN2+~TfO-_B3LYPG-6-31G_dp-NX-Scan-d89-09-n800
 OpenBabel11261920223D

 25 24  0  0  0  0  0  0  0  0999 V2000
   -4.4866   -3.0665   -0.2964 C   0  0  0  0  0  0  0  0  0  0  0  0
   -5.2639   -3.7825    0.5650 N   0  0  0  0  0  0  0  0  0  0  0  0
   -5.8306   -4.4851    1.2254 N   0  0  0  0  0  0  0  0  0  0  0  0
   -3.2329   -3.6239   -0.6620 C   0  0  0  0  0  0  0  0  0  0  0  0
   -2.4419   -2.9156   -1.5302 C   0  0  0  0  0  0  0  0  0  0  0  0
   -2.8750   -1.6587   -2.0319 C   0  0  0  0  0  0  0  0  0  0  0  0
   -2.0118   -1.0517   -2.8505 O   0  0  0  0  0  0  0  0  0  0  0  0
   -2.3298    0.2474   -3.3717 C   0  0  0  0  0  0  0  0  0  0  0  0
   -4.1243   -1.1314   -1.6580 C   0  0  0  0  0  0  0  0  0  0  0  0
   -4.9408   -1.8292   -0.7879 C   0  0  0  0  0  0  0  0  0  0  0  0
   -2.9136   -4.5766   -0.2557 H   0  0  0  0  0  0  0  0  0  0  0  0
   -1.4713   -3.2866   -1.8371 H   0  0  0  0  0  0  0  0  0  0  0  0
   -1.4769    0.5277   -3.9888 H   0  0  0  0  0  0  0  0  0  0  0  0
   -2.4569    0.9709   -2.5612 H   0  0  0  0  0  0  0  0  0  0  0  0
   -3.2350    0.2092   -3.9859 H   0  0  0  0  0  0  0  0  0  0  0  0
   -4.4566   -0.1572   -1.9899 H   0  0  0  0  0  0  0  0  0  0  0  0
   -5.8735   -1.4052   -0.4407 H   0  0  0  0  0  0  0  0  0  0  0  0
   -6.0411   -0.1390    1.9448 S   0  0  0  0  0  0  0  0  0  0  0  0
   -4.3626   -0.1734    2.7437 C   0  0  0  0  0  0  0  0  0  0  0  0
   -6.8796    0.6308    2.8721 O   0  0  0  0  0  0  0  0  0  0  0  0
   -6.3425   -1.6014    1.8209 O   0  0  0  0  0  0  0  0  0  0  0  0
   -5.7620    0.4962    0.6278 O   0  0  0  0  0  0  0  0  0  0  0  0
   -3.8406    1.0556    2.8525 F   0  0  0  0  0  0  0  0  0  0  0  0
   -4.4104   -0.7240    3.9651 F   0  0  0  0  0  0  0  0  0  0  0  0
   -3.5068   -0.9181    1.9949 F   0  0  0  0  0  0  0  0  0  0  0  0
  1  2  1  0  0  0  0
  2  3  1  0  0  0  0
  4  1  1  0  0  0  0
  4 11  1  0  0  0  0
  5  4  2  0  0  0  0
  6  9  2  0  0  0  0
  6  5  1  0  0  0  0
  7  6  1  0  0  0  0
  8  7  1  0  0  0  0
  8 14  1  0  0  0  0
  9 10  1  0  0  0  0
 10 17  1  0  0  0  0
 10  1  2  0  0  0  0
 12  5  1  0  0  0  0
 13  8  1  0  0  0  0
 15  8  1  0  0  0  0
 16  9  1  0  0  0  0
 18 19  1  0  0  0  0
 18 20  1  0  0  0  0
 19 23  1  0  0  0  0
 19 24  1  0  0  0  0
 21 18  2  0  0  0  0
 22 18  2  0  0  0  0
 25 19  1  0  0  0  0
M  RAD  3   2   2   3   3  20   2
M  END
