Coordinates from ORCA-job 4-MeOPhN2+~TfO-_B3LYPG-6-31G_dp-NX-Scan-d89-09-n800
 OpenBabel11261920223D

 25 24  0  0  0  0  0  0  0  0999 V2000
   -4.2214   -2.7800   -0.4619 C   0  0  0  0  0  0  0  0  0  0  0  0
   -4.8611   -3.2201    0.6701 N   0  0  0  0  0  0  0  0  0  0  0  0
   -5.3844   -3.4492    1.6327 N   0  0  0  0  0  0  0  0  0  0  0  0
   -3.8053   -3.7424   -1.4084 C   0  0  0  0  0  0  0  0  0  0  0  0
   -3.1653   -3.3078   -2.5460 C   0  0  0  0  0  0  0  0  0  0  0  0
   -2.9343   -1.9258   -2.7475 C   0  0  0  0  0  0  0  0  0  0  0  0
   -2.3028   -1.6152   -3.8871 O   0  0  0  0  0  0  0  0  0  0  0  0
   -2.0167   -0.2431   -4.1830 C   0  0  0  0  0  0  0  0  0  0  0  0
   -3.3569   -0.9861   -1.7878 C   0  0  0  0  0  0  0  0  0  0  0  0
   -4.0063   -1.3986   -0.6348 C   0  0  0  0  0  0  0  0  0  0  0  0
   -3.9904   -4.7969   -1.2357 H   0  0  0  0  0  0  0  0  0  0  0  0
   -2.8260   -4.0054   -3.3028 H   0  0  0  0  0  0  0  0  0  0  0  0
   -1.5033   -0.2539   -5.1437 H   0  0  0  0  0  0  0  0  0  0  0  0
   -1.3639    0.1945   -3.4205 H   0  0  0  0  0  0  0  0  0  0  0  0
   -2.9388    0.3413   -4.2644 H   0  0  0  0  0  0  0  0  0  0  0  0
   -3.1812    0.0730   -1.9263 H   0  0  0  0  0  0  0  0  0  0  0  0
   -4.3272   -0.6693    0.1125 H   0  0  0  0  0  0  0  0  0  0  0  0
   -5.2724   -0.5195    2.5560 S   0  0  0  0  0  0  0  0  0  0  0  0
   -5.7991    0.3412    4.1129 C   0  0  0  0  0  0  0  0  0  0  0  0
   -6.4955   -1.2307    2.0846 O   0  0  0  0  0  0  0  0  0  0  0  0
   -4.1861   -1.4421    2.9714 O   0  0  0  0  0  0  0  0  0  0  0  0
   -4.8351    0.5793    1.6570 O   0  0  0  0  0  0  0  0  0  0  0  0
   -6.7868    1.2099    3.8582 F   0  0  0  0  0  0  0  0  0  0  0  0
   -6.2384   -0.5517    5.0114 F   0  0  0  0  0  0  0  0  0  0  0  0
   -4.7682    1.0100    4.6474 F   0  0  0  0  0  0  0  0  0  0  0  0
  1  2  1  0  0  0  0
  2  3  1  0  0  0  0
  4 11  1  0  0  0  0
  4  1  2  0  0  0  0
  5  4  1  0  0  0  0
  6  5  2  0  0  0  0
  6  9  1  0  0  0  0
  7  6  1  0  0  0  0
  8  7  1  0  0  0  0
  8 14  1  0  0  0  0
  9 10  2  0  0  0  0
 10  1  1  0  0  0  0
 10 17  1  0  0  0  0
 12  5  1  0  0  0  0
 13  8  1  0  0  0  0
 15  8  1  0  0  0  0
 16  9  1  0  0  0  0
 18 21  1  0  0  0  0
 18 19  1  0  0  0  0
 19 25  1  0  0  0  0
 19 24  1  0  0  0  0
 20 18  2  0  0  0  0
 22 18  2  0  0  0  0
 23 19  1  0  0  0  0
M  RAD  3   2   2   3   3  21   2
M  END
