Coordinates from ORCA-job 4-MeOPhN2+~TfO-_B3LYPG-6-31G_dp-NX-Scan-d89-09-n800
 OpenBabel11261920223D

 25 24  0  0  0  0  0  0  0  0999 V2000
   -4.7017   -3.6197   -0.5396 C   0  0  0  0  0  0  0  0  0  0  0  0
   -5.4868   -4.4752    0.1474 N   0  0  0  0  0  0  0  0  0  0  0  0
   -6.1377   -5.1876    0.7214 N   0  0  0  0  0  0  0  0  0  0  0  0
   -3.4347   -4.0710   -1.0075 C   0  0  0  0  0  0  0  0  0  0  0  0
   -2.6188   -3.1614   -1.6238 C   0  0  0  0  0  0  0  0  0  0  0  0
   -3.0312   -1.8025   -1.7595 C   0  0  0  0  0  0  0  0  0  0  0  0
   -2.1284   -0.9928   -2.3040 O   0  0  0  0  0  0  0  0  0  0  0  0
   -2.3917    0.4248   -2.3454 C   0  0  0  0  0  0  0  0  0  0  0  0
   -4.3039   -1.3894   -1.3279 C   0  0  0  0  0  0  0  0  0  0  0  0
   -5.1433   -2.2853   -0.6998 C   0  0  0  0  0  0  0  0  0  0  0  0
   -3.1296   -5.1009   -0.8609 H   0  0  0  0  0  0  0  0  0  0  0  0
   -1.6370   -3.4408   -1.9870 H   0  0  0  0  0  0  0  0  0  0  0  0
   -1.4815    0.8721   -2.7421 H   0  0  0  0  0  0  0  0  0  0  0  0
   -2.5966    0.7991   -1.3399 H   0  0  0  0  0  0  0  0  0  0  0  0
   -3.2331    0.6404   -3.0106 H   0  0  0  0  0  0  0  0  0  0  0  0
   -4.6376   -0.3613   -1.3726 H   0  0  0  0  0  0  0  0  0  0  0  0
   -6.0924   -1.9486   -0.3083 H   0  0  0  0  0  0  0  0  0  0  0  0
   -5.7039   -0.0479    1.7465 S   0  0  0  0  0  0  0  0  0  0  0  0
   -4.0104    0.6995    1.9517 C   0  0  0  0  0  0  0  0  0  0  0  0
   -6.4874    0.5536    2.8310 O   0  0  0  0  0  0  0  0  0  0  0  0
   -5.4303   -1.5115    1.8696 O   0  0  0  0  0  0  0  0  0  0  0  0
   -6.0692    0.3571    0.3610 O   0  0  0  0  0  0  0  0  0  0  0  0
   -4.0483    2.0340    1.8365 F   0  0  0  0  0  0  0  0  0  0  0  0
   -3.4735    0.3890    3.1376 F   0  0  0  0  0  0  0  0  0  0  0  0
   -3.1577    0.2380    0.9904 F   0  0  0  0  0  0  0  0  0  0  0  0
  1  2  1  0  0  0  0
  2  3  1  0  0  0  0
  4 11  1  0  0  0  0
  4  1  2  0  0  0  0
  5  4  1  0  0  0  0
  6  5  2  0  0  0  0
  6  9  1  0  0  0  0
  7  6  1  0  0  0  0
  8  7  1  0  0  0  0
  8 14  1  0  0  0  0
  9 10  2  0  0  0  0
 10  1  1  0  0  0  0
 10 17  1  0  0  0  0
 12  5  1  0  0  0  0
 13  8  1  0  0  0  0
 15  8  1  0  0  0  0
 16  9  1  0  0  0  0
 18 21  2  0  0  0  0
 18 19  1  0  0  0  0
 18 20  1  0  0  0  0
 19 24  1  0  0  0  0
 22 18  2  0  0  0  0
 23 19  1  0  0  0  0
 25 19  1  0  0  0  0
M  RAD  3   2   2   3   3  20   2
M  END
