Coordinates from ORCA-job 4-MeOPhN2+~TfO-_B3LYPG-6-31G_dp-NX-Scan-d89-09-n800
 OpenBabel11261920223D

 25 24  0  0  0  0  0  0  0  0999 V2000
   -4.4561   -4.0545   -0.5729 C   0  0  0  0  0  0  0  0  0  0  0  0
   -5.0859   -5.0767    0.0403 N   0  0  0  0  0  0  0  0  0  0  0  0
   -5.6194   -5.9217    0.5565 N   0  0  0  0  0  0  0  0  0  0  0  0
   -3.4177   -4.3486   -1.5047 C   0  0  0  0  0  0  0  0  0  0  0  0
   -2.7730   -3.2989   -2.1009 C   0  0  0  0  0  0  0  0  0  0  0  0
   -3.1420   -1.9574   -1.7843 C   0  0  0  0  0  0  0  0  0  0  0  0
   -2.4333   -1.0135   -2.3782 O   0  0  0  0  0  0  0  0  0  0  0  0
   -2.6895    0.3780   -2.0425 C   0  0  0  0  0  0  0  0  0  0  0  0
   -4.1944   -1.6881   -0.8800 C   0  0  0  0  0  0  0  0  0  0  0  0
   -4.8475   -2.7255   -0.2585 C   0  0  0  0  0  0  0  0  0  0  0  0
   -3.1496   -5.3766   -1.7211 H   0  0  0  0  0  0  0  0  0  0  0  0
   -1.9678   -3.4626   -2.8081 H   0  0  0  0  0  0  0  0  0  0  0  0
   -1.9478    0.9398   -2.6064 H   0  0  0  0  0  0  0  0  0  0  0  0
   -2.5724    0.5347   -0.9685 H   0  0  0  0  0  0  0  0  0  0  0  0
   -3.7017    0.6637   -2.3332 H   0  0  0  0  0  0  0  0  0  0  0  0
   -4.5104   -0.6673   -0.6481 H   0  0  0  0  0  0  0  0  0  0  0  0
   -5.6203   -2.4839    0.4692 H   0  0  0  0  0  0  0  0  0  0  0  0
   -5.6545    0.7873    1.2456 S   0  0  0  0  0  0  0  0  0  0  0  0
   -4.0757    1.0164    2.2012 C   0  0  0  0  0  0  0  0  0  0  0  0
   -6.5840    1.7644    1.8193 O   0  0  0  0  0  0  0  0  0  0  0  0
   -5.9702   -0.6483    1.4827 O   0  0  0  0  0  0  0  0  0  0  0  0
   -5.1941    1.0596   -0.1506 O   0  0  0  0  0  0  0  0  0  0  0  0
   -3.6470    2.2846    2.1429 F   0  0  0  0  0  0  0  0  0  0  0  0
   -4.2171    0.6754    3.4890 F   0  0  0  0  0  0  0  0  0  0  0  0
   -3.0957    0.2314    1.6755 F   0  0  0  0  0  0  0  0  0  0  0  0
  1 10  1  0  0  0  0
  1  2  1  0  0  0  0
  2  3  1  0  0  0  0
  4  1  2  0  0  0  0
  5  6  2  0  0  0  0
  5  4  1  0  0  0  0
  6  9  1  0  0  0  0
  7  8  1  0  0  0  0
  7  6  1  0  0  0  0
  8 14  1  0  0  0  0
  9 16  1  0  0  0  0
  9 10  2  0  0  0  0
 10 17  1  0  0  0  0
 11  4  1  0  0  0  0
 12  5  1  0  0  0  0
 13  8  1  0  0  0  0
 15  8  1  0  0  0  0
 18 21  2  0  0  0  0
 18 20  1  0  0  0  0
 18 19  1  0  0  0  0
 19 24  1  0  0  0  0
 22 18  2  0  0  0  0
 23 19  1  0  0  0  0
 25 19  1  0  0  0  0
M  RAD  3   2   2   3   3  20   2
M  END
