Coordinates from ORCA-job 4-MeOPhN2+~TfO-_B3LYPG-6-31G_dp-NX-Scan-d89-09-n800
 OpenBabel11261920223D

 25 24  0  0  0  0  0  0  0  0999 V2000
   -4.2110   -3.0133   -0.4973 C   0  0  0  0  0  0  0  0  0  0  0  0
   -4.8944   -3.5743    0.5502 N   0  0  0  0  0  0  0  0  0  0  0  0
   -5.4600   -3.8981    1.4601 N   0  0  0  0  0  0  0  0  0  0  0  0
   -3.5229   -3.8691   -1.3875 C   0  0  0  0  0  0  0  0  0  0  0  0
   -2.8349   -3.3005   -2.4330 C   0  0  0  0  0  0  0  0  0  0  0  0
   -2.8344   -1.8931   -2.6028 C   0  0  0  0  0  0  0  0  0  0  0  0
   -2.1352   -1.4500   -3.6539 O   0  0  0  0  0  0  0  0  0  0  0  0
   -2.0646   -0.0416   -3.9115 C   0  0  0  0  0  0  0  0  0  0  0  0
   -3.5378   -1.0656   -1.7063 C   0  0  0  0  0  0  0  0  0  0  0  0
   -4.2336   -1.6126   -0.6405 C   0  0  0  0  0  0  0  0  0  0  0  0
   -3.5346   -4.9436   -1.2386 H   0  0  0  0  0  0  0  0  0  0  0  0
   -2.2845   -3.9071   -3.1427 H   0  0  0  0  0  0  0  0  0  0  0  0
   -1.4467    0.0597   -4.8029 H   0  0  0  0  0  0  0  0  0  0  0  0
   -1.5964    0.4862   -3.0745 H   0  0  0  0  0  0  0  0  0  0  0  0
   -3.0599    0.3716   -4.1037 H   0  0  0  0  0  0  0  0  0  0  0  0
   -3.5506    0.0105   -1.8266 H   0  0  0  0  0  0  0  0  0  0  0  0
   -4.7883   -0.9715    0.0548 H   0  0  0  0  0  0  0  0  0  0  0  0
   -5.9355   -0.5141    2.4445 S   0  0  0  0  0  0  0  0  0  0  0  0
   -5.2695    0.5275    3.8298 C   0  0  0  0  0  0  0  0  0  0  0  0
   -7.3541   -0.7192    2.7649 O   0  0  0  0  0  0  0  0  0  0  0  0
   -5.0776   -1.7423    2.5126 O   0  0  0  0  0  0  0  0  0  0  0  0
   -5.6442    0.2962    1.2287 O   0  0  0  0  0  0  0  0  0  0  0  0
   -5.9132    1.7019    3.8845 F   0  0  0  0  0  0  0  0  0  0  0  0
   -5.4228   -0.0981    5.0057 F   0  0  0  0  0  0  0  0  0  0  0  0
   -3.9601    0.7720    3.6502 F   0  0  0  0  0  0  0  0  0  0  0  0
  1  2  1  0  0  0  0
  2  3  1  0  0  0  0
  4 11  1  0  0  0  0
  4  1  2  0  0  0  0
  5  4  1  0  0  0  0
  6  5  2  0  0  0  0
  6  9  1  0  0  0  0
  7  6  1  0  0  0  0
  8  7  1  0  0  0  0
  8 14  1  0  0  0  0
  9 10  2  0  0  0  0
 10  1  1  0  0  0  0
 10 17  1  0  0  0  0
 12  5  1  0  0  0  0
 13  8  1  0  0  0  0
 15  8  1  0  0  0  0
 16  9  1  0  0  0  0
 18 21  2  0  0  0  0
 18 20  1  0  0  0  0
 18 19  1  0  0  0  0
 19 23  1  0  0  0  0
 19 24  1  0  0  0  0
 22 18  2  0  0  0  0
 25 19  1  0  0  0  0
M  RAD  3   2   2   3   3  20   2
M  END
