Coordinates from ORCA-job 4-MeOPhN2+~TfO-_B3LYPG-6-31G_dp-NX-Scan-d89-09-n800
 OpenBabel11261920223D

 25 24  0  0  0  0  0  0  0  0999 V2000
   -4.2120   -3.0158   -0.4966 C   0  0  0  0  0  0  0  0  0  0  0  0
   -4.8962   -3.5789    0.5492 N   0  0  0  0  0  0  0  0  0  0  0  0
   -5.4629   -3.9074    1.4566 N   0  0  0  0  0  0  0  0  0  0  0  0
   -3.5196   -3.8700   -1.3853 C   0  0  0  0  0  0  0  0  0  0  0  0
   -2.8310   -3.2995   -2.4294 C   0  0  0  0  0  0  0  0  0  0  0  0
   -2.8340   -1.8921   -2.5994 C   0  0  0  0  0  0  0  0  0  0  0  0
   -2.1339   -1.4473   -3.6490 O   0  0  0  0  0  0  0  0  0  0  0  0
   -2.0665   -0.0386   -3.9066 C   0  0  0  0  0  0  0  0  0  0  0  0
   -3.5417   -1.0665   -1.7045 C   0  0  0  0  0  0  0  0  0  0  0  0
   -4.2381   -1.6153   -0.6401 C   0  0  0  0  0  0  0  0  0  0  0  0
   -3.5285   -4.9445   -1.2363 H   0  0  0  0  0  0  0  0  0  0  0  0
   -2.2774   -3.9047   -3.1378 H   0  0  0  0  0  0  0  0  0  0  0  0
   -1.4470    0.0641   -4.7967 H   0  0  0  0  0  0  0  0  0  0  0  0
   -1.6014    0.4904   -3.0686 H   0  0  0  0  0  0  0  0  0  0  0  0
   -3.0625    0.3718   -4.1009 H   0  0  0  0  0  0  0  0  0  0  0  0
   -3.5571    0.0095   -1.8247 H   0  0  0  0  0  0  0  0  0  0  0  0
   -4.7956   -0.9754    0.0541 H   0  0  0  0  0  0  0  0  0  0  0  0
   -5.9402   -0.5114    2.4414 S   0  0  0  0  0  0  0  0  0  0  0  0
   -5.2616    0.5269    3.8231 C   0  0  0  0  0  0  0  0  0  0  0  0
   -7.3584   -0.7074    2.7683 O   0  0  0  0  0  0  0  0  0  0  0  0
   -5.0894   -1.7445    2.5062 O   0  0  0  0  0  0  0  0  0  0  0  0
   -5.6492    0.2966    1.2239 O   0  0  0  0  0  0  0  0  0  0  0  0
   -5.8981    1.7051    3.8804 F   0  0  0  0  0  0  0  0  0  0  0  0
   -5.4128   -0.0973    5.0000 F   0  0  0  0  0  0  0  0  0  0  0  0
   -3.9516    0.7638    3.6372 F   0  0  0  0  0  0  0  0  0  0  0  0
  1  2  1  0  0  0  0
  2  3  1  0  0  0  0
  4 11  1  0  0  0  0
  4  1  2  0  0  0  0
  5  4  1  0  0  0  0
  6  5  2  0  0  0  0
  6  9  1  0  0  0  0
  7  6  1  0  0  0  0
  8  7  1  0  0  0  0
  8 14  1  0  0  0  0
  9 10  2  0  0  0  0
 10  1  1  0  0  0  0
 10 17  1  0  0  0  0
 12  5  1  0  0  0  0
 13  8  1  0  0  0  0
 15  8  1  0  0  0  0
 16  9  1  0  0  0  0
 18 21  2  0  0  0  0
 18 20  1  0  0  0  0
 18 19  1  0  0  0  0
 19 23  1  0  0  0  0
 19 24  1  0  0  0  0
 22 18  2  0  0  0  0
 25 19  1  0  0  0  0
M  RAD  3   2   2   3   3  20   2
M  END
