Coordinates from ORCA-job 4-MeOPhN2+~TfO-_B3LYPG-6-31G_dp-NX-Scan-d89-09-n800
 OpenBabel11261920223D

 25 24  0  0  0  0  0  0  0  0999 V2000
   -4.4138   -2.9690   -0.2835 C   0  0  0  0  0  0  0  0  0  0  0  0
   -5.1731   -3.6428    0.6343 N   0  0  0  0  0  0  0  0  0  0  0  0
   -5.7064   -4.3341    1.3320 N   0  0  0  0  0  0  0  0  0  0  0  0
   -3.2351   -3.6148   -0.7380 C   0  0  0  0  0  0  0  0  0  0  0  0
   -2.4587   -2.9674   -1.6668 C   0  0  0  0  0  0  0  0  0  0  0  0
   -2.8374   -1.6868   -2.1474 C   0  0  0  0  0  0  0  0  0  0  0  0
   -1.9990   -1.1465   -3.0371 O   0  0  0  0  0  0  0  0  0  0  0  0
   -2.2710    0.1630   -3.5560 C   0  0  0  0  0  0  0  0  0  0  0  0
   -4.0157   -1.0717   -1.6856 C   0  0  0  0  0  0  0  0  0  0  0  0
   -4.8138   -1.7048   -0.7496 C   0  0  0  0  0  0  0  0  0  0  0  0
   -2.9568   -4.5887   -0.3518 H   0  0  0  0  0  0  0  0  0  0  0  0
   -1.5431   -3.4098   -2.0410 H   0  0  0  0  0  0  0  0  0  0  0  0
   -1.4488    0.3815   -4.2363 H   0  0  0  0  0  0  0  0  0  0  0  0
   -2.2938    0.9041   -2.7510 H   0  0  0  0  0  0  0  0  0  0  0  0
   -3.2183    0.1762   -4.1043 H   0  0  0  0  0  0  0  0  0  0  0  0
   -4.3082   -0.0845   -2.0177 H   0  0  0  0  0  0  0  0  0  0  0  0
   -5.6911   -1.2144   -0.3437 H   0  0  0  0  0  0  0  0  0  0  0  0
   -6.1479   -0.2007    2.0626 S   0  0  0  0  0  0  0  0  0  0  0  0
   -4.5122   -0.1638    2.9443 C   0  0  0  0  0  0  0  0  0  0  0  0
   -7.0949    0.4217    2.9930 O   0  0  0  0  0  0  0  0  0  0  0  0
   -6.3238   -1.6717    1.8270 O   0  0  0  0  0  0  0  0  0  0  0  0
   -5.8617    0.5374    0.8043 O   0  0  0  0  0  0  0  0  0  0  0  0
   -4.0943    1.0899    3.1592 F   0  0  0  0  0  0  0  0  0  0  0  0
   -4.5772   -0.7989    4.1234 F   0  0  0  0  0  0  0  0  0  0  0  0
   -3.5708   -0.7915    2.1940 F   0  0  0  0  0  0  0  0  0  0  0  0
  1  2  1  0  0  0  0
  2  3  1  0  0  0  0
  4 11  1  0  0  0  0
  4  1  1  0  0  0  0
  5  4  2  0  0  0  0
  6  9  2  0  0  0  0
  6  5  1  0  0  0  0
  7  6  1  0  0  0  0
  8  7  1  0  0  0  0
  8 14  1  0  0  0  0
  9 10  1  0  0  0  0
 10 17  1  0  0  0  0
 10  1  2  0  0  0  0
 12  5  1  0  0  0  0
 13  8  1  0  0  0  0
 15  8  1  0  0  0  0
 16  9  1  0  0  0  0
 18 19  1  0  0  0  0
 18 20  1  0  0  0  0
 19 23  1  0  0  0  0
 19 24  1  0  0  0  0
 21 18  2  0  0  0  0
 22 18  2  0  0  0  0
 25 19  1  0  0  0  0
M  RAD  3   2   2   3   3  20   2
M  END
