Coordinates from ORCA-job 4-MeOPhN2+~TfO-_B3LYPG-6-31G_dp-NX-Scan-d89-09-n800
 OpenBabel11261920223D

 25 24  0  0  0  0  0  0  0  0999 V2000
   -4.1400   -2.9617   -0.4778 C   0  0  0  0  0  0  0  0  0  0  0  0
   -4.7754   -3.4765    0.6269 N   0  0  0  0  0  0  0  0  0  0  0  0
   -5.2771   -3.6600    1.6155 N   0  0  0  0  0  0  0  0  0  0  0  0
   -3.6225   -3.8530   -1.4422 C   0  0  0  0  0  0  0  0  0  0  0  0
   -2.9826   -3.3248   -2.5397 C   0  0  0  0  0  0  0  0  0  0  0  0
   -2.8657   -1.9209   -2.6877 C   0  0  0  0  0  0  0  0  0  0  0  0
   -2.2288   -1.5182   -3.7948 O   0  0  0  0  0  0  0  0  0  0  0  0
   -2.0576   -0.1167   -4.0388 C   0  0  0  0  0  0  0  0  0  0  0  0
   -3.4028   -1.0534   -1.7169 C   0  0  0  0  0  0  0  0  0  0  0  0
   -4.0438   -1.5623   -0.5991 C   0  0  0  0  0  0  0  0  0  0  0  0
   -3.7241   -4.9249   -1.3110 H   0  0  0  0  0  0  0  0  0  0  0  0
   -2.5605   -3.9621   -3.3080 H   0  0  0  0  0  0  0  0  0  0  0  0
   -1.5159   -0.0501   -4.9816 H   0  0  0  0  0  0  0  0  0  0  0  0
   -1.4709    0.3513   -3.2416 H   0  0  0  0  0  0  0  0  0  0  0  0
   -3.0255    0.3858   -4.1330 H   0  0  0  0  0  0  0  0  0  0  0  0
   -3.3294    0.0218   -1.8217 H   0  0  0  0  0  0  0  0  0  0  0  0
   -4.4828   -0.9000    0.1522 H   0  0  0  0  0  0  0  0  0  0  0  0
   -5.7822   -0.5105    2.4595 S   0  0  0  0  0  0  0  0  0  0  0  0
   -5.5244    0.5083    3.9906 C   0  0  0  0  0  0  0  0  0  0  0  0
   -7.1926   -0.9245    2.4945 O   0  0  0  0  0  0  0  0  0  0  0  0
   -4.7955   -1.6330    2.6412 O   0  0  0  0  0  0  0  0  0  0  0  0
   -5.3864    0.3989    1.3518 O   0  0  0  0  0  0  0  0  0  0  0  0
   -6.3285    1.5804    3.9732 F   0  0  0  0  0  0  0  0  0  0  0  0
   -5.7980   -0.2138    5.0856 F   0  0  0  0  0  0  0  0  0  0  0  0
   -4.2537    0.9315    4.0673 F   0  0  0  0  0  0  0  0  0  0  0  0
  1  2  1  0  0  0  0
  2  3  1  0  0  0  0
  4 11  1  0  0  0  0
  4  1  2  0  0  0  0
  5  4  1  0  0  0  0
  6  5  2  0  0  0  0
  6  9  1  0  0  0  0
  7  6  1  0  0  0  0
  8  7  1  0  0  0  0
  8 14  1  0  0  0  0
  9 10  2  0  0  0  0
 10  1  1  0  0  0  0
 10 17  1  0  0  0  0
 12  5  1  0  0  0  0
 13  8  1  0  0  0  0
 15  8  1  0  0  0  0
 16  9  1  0  0  0  0
 18 20  2  0  0  0  0
 18 21  1  0  0  0  0
 18 19  1  0  0  0  0
 19 25  1  0  0  0  0
 19 24  1  0  0  0  0
 22 18  2  0  0  0  0
 23 19  1  0  0  0  0
M  RAD  3   2   2   3   3  21   2
M  END
