Coordinates from ORCA-job 4-MeOPhN2+~TfO-_B3LYPG-6-31G_dp-NX-Scan-d89-09-n800
 OpenBabel11261920223D

 25 24  0  0  0  0  0  0  0  0999 V2000
   -3.9003   -2.8203   -0.2392 C   0  0  0  0  0  0  0  0  0  0  0  0
   -4.3351   -3.2578    0.9885 N   0  0  0  0  0  0  0  0  0  0  0  0
   -4.6313   -3.3247    2.0714 N   0  0  0  0  0  0  0  0  0  0  0  0
   -4.0060   -3.6824   -1.3490 C   0  0  0  0  0  0  0  0  0  0  0  0
   -3.5882   -3.2239   -2.5784 C   0  0  0  0  0  0  0  0  0  0  0  0
   -3.0705   -1.9141   -2.7099 C   0  0  0  0  0  0  0  0  0  0  0  0
   -2.7042   -1.5676   -3.9515 O   0  0  0  0  0  0  0  0  0  0  0  0
   -2.2009   -0.2487   -4.1950 C   0  0  0  0  0  0  0  0  0  0  0  0
   -2.9666   -1.0714   -1.5853 C   0  0  0  0  0  0  0  0  0  0  0  0
   -3.3812   -1.5161   -0.3417 C   0  0  0  0  0  0  0  0  0  0  0  0
   -4.4164   -4.6786   -1.2300 H   0  0  0  0  0  0  0  0  0  0  0  0
   -3.6542   -3.8448   -3.4642 H   0  0  0  0  0  0  0  0  0  0  0  0
   -1.9952   -0.2088   -5.2639 H   0  0  0  0  0  0  0  0  0  0  0  0
   -1.2757   -0.0720   -3.6370 H   0  0  0  0  0  0  0  0  0  0  0  0
   -2.9460    0.5096   -3.9335 H   0  0  0  0  0  0  0  0  0  0  0  0
   -2.5772   -0.0657   -1.6716 H   0  0  0  0  0  0  0  0  0  0  0  0
   -3.3204   -0.8797    0.5344 H   0  0  0  0  0  0  0  0  0  0  0  0
   -5.2497   -0.3226    2.3041 S   0  0  0  0  0  0  0  0  0  0  0  0
   -6.1342    0.1947    3.8517 C   0  0  0  0  0  0  0  0  0  0  0  0
   -6.2476   -1.0889    1.5252 O   0  0  0  0  0  0  0  0  0  0  0  0
   -4.1355   -1.2035    2.8181 O   0  0  0  0  0  0  0  0  0  0  0  0
   -4.7564    0.9287    1.7023 O   0  0  0  0  0  0  0  0  0  0  0  0
   -7.1769    0.9798    3.5485 F   0  0  0  0  0  0  0  0  0  0  0  0
   -6.5884   -0.8818    4.5106 F   0  0  0  0  0  0  0  0  0  0  0  0
   -5.3091    0.8724    4.6598 F   0  0  0  0  0  0  0  0  0  0  0  0
  1  2  1  0  0  0  0
  2  3  1  0  0  0  0
  4 11  1  0  0  0  0
  4  1  2  0  0  0  0
  5  4  1  0  0  0  0
  6  5  2  0  0  0  0
  6  9  1  0  0  0  0
  7  6  1  0  0  0  0
  8  7  1  0  0  0  0
  8 15  1  0  0  0  0
  8 14  1  0  0  0  0
  9 10  2  0  0  0  0
 10  1  1  0  0  0  0
 10 17  1  0  0  0  0
 12  5  1  0  0  0  0
 13  8  1  0  0  0  0
 16  9  1  0  0  0  0
 18 21  1  0  0  0  0
 18 19  1  0  0  0  0
 19 24  1  0  0  0  0
 19 25  1  0  0  0  0
 20 18  2  0  0  0  0
 22 18  2  0  0  0  0
 23 19  1  0  0  0  0
M  RAD  3   2   2   3   3  21   2
M  END
