Coordinates from ORCA-job 4-MeOPhN2+~TfO-_B3LYPG-6-31G_dp-NX-Scan-d89-09-n800
 OpenBabel11261920223D

 25 24  0  0  0  0  0  0  0  0999 V2000
   -3.8673   -2.8522   -0.2182 C   0  0  0  0  0  0  0  0  0  0  0  0
   -4.2718   -3.3098    1.0113 N   0  0  0  0  0  0  0  0  0  0  0  0
   -4.5525   -3.4109    2.0956 N   0  0  0  0  0  0  0  0  0  0  0  0
   -3.9896   -3.7014   -1.3369 C   0  0  0  0  0  0  0  0  0  0  0  0
   -3.5997   -3.2246   -2.5681 C   0  0  0  0  0  0  0  0  0  0  0  0
   -3.0908   -1.9104   -2.6927 C   0  0  0  0  0  0  0  0  0  0  0  0
   -2.7507   -1.5463   -3.9362 O   0  0  0  0  0  0  0  0  0  0  0  0
   -2.2590   -0.2215   -4.1729 C   0  0  0  0  0  0  0  0  0  0  0  0
   -2.9682   -1.0817   -1.5595 C   0  0  0  0  0  0  0  0  0  0  0  0
   -3.3574   -1.5437   -0.3143 C   0  0  0  0  0  0  0  0  0  0  0  0
   -4.3917   -4.7015   -1.2226 H   0  0  0  0  0  0  0  0  0  0  0  0
   -3.6805   -3.8341   -3.4605 H   0  0  0  0  0  0  0  0  0  0  0  0
   -2.0733   -0.1678   -5.2449 H   0  0  0  0  0  0  0  0  0  0  0  0
   -1.3247   -0.0466   -3.6298 H   0  0  0  0  0  0  0  0  0  0  0  0
   -3.0036    0.5291   -3.8886 H   0  0  0  0  0  0  0  0  0  0  0  0
   -2.5859   -0.0728   -1.6401 H   0  0  0  0  0  0  0  0  0  0  0  0
   -3.2821   -0.9156    0.5664 H   0  0  0  0  0  0  0  0  0  0  0  0
   -5.2033   -0.3158    2.2854 S   0  0  0  0  0  0  0  0  0  0  0  0
   -6.1558    0.2218    3.7851 C   0  0  0  0  0  0  0  0  0  0  0  0
   -6.1920   -0.9993    1.4234 O   0  0  0  0  0  0  0  0  0  0  0  0
   -4.1757   -1.2656    2.8518 O   0  0  0  0  0  0  0  0  0  0  0  0
   -4.5994    0.9165    1.7466 O   0  0  0  0  0  0  0  0  0  0  0  0
   -7.1345    1.0672    3.4345 F   0  0  0  0  0  0  0  0  0  0  0  0
   -6.7074   -0.8406    4.3909 F   0  0  0  0  0  0  0  0  0  0  0  0
   -5.3500    0.8392    4.6585 F   0  0  0  0  0  0  0  0  0  0  0  0
  1  2  1  0  0  0  0
  2  3  1  0  0  0  0
  4 11  1  0  0  0  0
  4  1  2  0  0  0  0
  5  4  1  0  0  0  0
  6  5  2  0  0  0  0
  6  9  1  0  0  0  0
  7  6  1  0  0  0  0
  8  7  1  0  0  0  0
  8 15  1  0  0  0  0
  8 14  1  0  0  0  0
  9 10  2  0  0  0  0
 10  1  1  0  0  0  0
 10 17  1  0  0  0  0
 12  5  1  0  0  0  0
 13  8  1  0  0  0  0
 16  9  1  0  0  0  0
 18 21  1  0  0  0  0
 18 19  1  0  0  0  0
 19 24  1  0  0  0  0
 19 25  1  0  0  0  0
 20 18  2  0  0  0  0
 22 18  2  0  0  0  0
 23 19  1  0  0  0  0
M  RAD  3   2   2   3   3  21   2
M  END
