Coordinates from ORCA-job 4-MeOPhN2+~TfO-_B3LYPG-6-31G_dp-NX-Scan-d89-09-n800
 OpenBabel11261920223D

 25 24  0  0  0  0  0  0  0  0999 V2000
   -4.5050   -3.9604   -0.5857 C   0  0  0  0  0  0  0  0  0  0  0  0
   -5.1803   -4.9235    0.0741 N   0  0  0  0  0  0  0  0  0  0  0  0
   -5.7683   -5.6918    0.6459 N   0  0  0  0  0  0  0  0  0  0  0  0
   -3.4094   -4.3117   -1.4263 C   0  0  0  0  0  0  0  0  0  0  0  0
   -2.7220   -3.2960   -2.0356 C   0  0  0  0  0  0  0  0  0  0  0  0
   -3.1002   -1.9375   -1.8140 C   0  0  0  0  0  0  0  0  0  0  0  0
   -2.3338   -1.0261   -2.3942 O   0  0  0  0  0  0  0  0  0  0  0  0
   -2.5992    0.3757   -2.1332 C   0  0  0  0  0  0  0  0  0  0  0  0
   -4.2124   -1.6169   -1.0089 C   0  0  0  0  0  0  0  0  0  0  0  0
   -4.9130   -2.6189   -0.3789 C   0  0  0  0  0  0  0  0  0  0  0  0
   -3.1295   -5.3502   -1.5631 H   0  0  0  0  0  0  0  0  0  0  0  0
   -1.8695   -3.4992   -2.6737 H   0  0  0  0  0  0  0  0  0  0  0  0
   -1.7951    0.9111   -2.6346 H   0  0  0  0  0  0  0  0  0  0  0  0
   -2.5903    0.5716   -1.0588 H   0  0  0  0  0  0  0  0  0  0  0  0
   -3.5681    0.6638   -2.5473 H   0  0  0  0  0  0  0  0  0  0  0  0
   -4.5383   -0.5907   -0.8192 H   0  0  0  0  0  0  0  0  0  0  0  0
   -5.7132   -2.3389    0.3054 H   0  0  0  0  0  0  0  0  0  0  0  0
   -5.7112    0.5922    1.4036 S   0  0  0  0  0  0  0  0  0  0  0  0
   -4.0651    0.9712    2.1809 C   0  0  0  0  0  0  0  0  0  0  0  0
   -6.6650    1.4674    2.0890 O   0  0  0  0  0  0  0  0  0  0  0  0
   -5.8617   -0.8669    1.6690 O   0  0  0  0  0  0  0  0  0  0  0  0
   -5.4402    0.9094   -0.0305 O   0  0  0  0  0  0  0  0  0  0  0  0
   -3.7714    2.2754    2.0902 F   0  0  0  0  0  0  0  0  0  0  0  0
   -4.0260    0.6159    3.4715 F   0  0  0  0  0  0  0  0  0  0  0  0
   -3.0787    0.2868    1.5385 F   0  0  0  0  0  0  0  0  0  0  0  0
  1 10  1  0  0  0  0
  1  2  1  0  0  0  0
  2  3  1  0  0  0  0
  4  1  2  0  0  0  0
  5  6  2  0  0  0  0
  5  4  1  0  0  0  0
  6  9  1  0  0  0  0
  7  8  1  0  0  0  0
  7  6  1  0  0  0  0
  8 14  1  0  0  0  0
  9 16  1  0  0  0  0
  9 10  2  0  0  0  0
 10 17  1  0  0  0  0
 11  4  1  0  0  0  0
 12  5  1  0  0  0  0
 13  8  1  0  0  0  0
 15  8  1  0  0  0  0
 18 21  2  0  0  0  0
 18 20  1  0  0  0  0
 18 19  1  0  0  0  0
 19 24  1  0  0  0  0
 22 18  2  0  0  0  0
 23 19  1  0  0  0  0
 25 19  1  0  0  0  0
M  RAD  3   2   2   3   3  20   2
M  END
