Coordinates from ORCA-job 4-MeOPhN2+~TfO-_B3LYPG-6-31G_dp-NX-Scan-d89-09-n800
 OpenBabel11261920223D

 25 24  0  0  0  0  0  0  0  0999 V2000
   -4.1186   -4.0945   -0.2540 C   0  0  0  0  0  0  0  0  0  0  0  0
   -4.5457   -5.3147    0.1245 N   0  0  0  0  0  0  0  0  0  0  0  0
   -4.8879   -6.3448    0.4258 N   0  0  0  0  0  0  0  0  0  0  0  0
   -4.9528   -3.2750   -1.0718 C   0  0  0  0  0  0  0  0  0  0  0  0
   -4.4715   -2.0625   -1.4832 C   0  0  0  0  0  0  0  0  0  0  0  0
   -3.1865   -1.6259   -1.0598 C   0  0  0  0  0  0  0  0  0  0  0  0
   -2.8137   -0.4494   -1.5181 O   0  0  0  0  0  0  0  0  0  0  0  0
   -1.7076    0.2595   -0.9371 C   0  0  0  0  0  0  0  0  0  0  0  0
   -2.3841   -2.4350   -0.2063 C   0  0  0  0  0  0  0  0  0  0  0  0
   -2.8371   -3.6685    0.1886 C   0  0  0  0  0  0  0  0  0  0  0  0
   -5.9556   -3.5946   -1.3285 H   0  0  0  0  0  0  0  0  0  0  0  0
   -5.0884   -1.3397   -2.0153 H   0  0  0  0  0  0  0  0  0  0  0  0
   -1.6957    1.2227   -1.4426 H   0  0  0  0  0  0  0  0  0  0  0  0
   -0.7639   -0.2667   -1.1154 H   0  0  0  0  0  0  0  0  0  0  0  0
   -1.8888    0.4042    0.1299 H   0  0  0  0  0  0  0  0  0  0  0  0
   -1.4172   -2.0883    0.1336 H   0  0  0  0  0  0  0  0  0  0  0  0
   -2.2388   -4.3128    0.8235 H   0  0  0  0  0  0  0  0  0  0  0  0
   -6.4424    0.5852   -0.2622 S   0  0  0  0  0  0  0  0  0  0  0  0
   -5.0839    1.0556    0.9316 C   0  0  0  0  0  0  0  0  0  0  0  0
   -7.4217    1.6677   -0.0897 O   0  0  0  0  0  0  0  0  0  0  0  0
   -6.8295   -0.7639    0.2173 O   0  0  0  0  0  0  0  0  0  0  0  0
   -5.7182    0.5696   -1.5643 O   0  0  0  0  0  0  0  0  0  0  0  0
   -4.4007    2.1393    0.5210 F   0  0  0  0  0  0  0  0  0  0  0  0
   -5.5539    1.2985    2.1610 F   0  0  0  0  0  0  0  0  0  0  0  0
   -4.1626    0.0456    1.0558 F   0  0  0  0  0  0  0  0  0  0  0  0
  1  2  1  0  0  0  0
  1 10  2  0  0  0  0
  2  3  1  0  0  0  0
  4  1  1  0  0  0  0
  5  4  2  0  0  0  0
  5  6  1  0  0  0  0
  6  9  2  0  0  0  0
  7  6  1  0  0  0  0
  7  8  1  0  0  0  0
  8 15  1  0  0  0  0
  9 16  1  0  0  0  0
  9 10  1  0  0  0  0
 10 17  1  0  0  0  0
 11  4  1  0  0  0  0
 12  5  1  0  0  0  0
 13  8  1  0  0  0  0
 14  8  1  0  0  0  0
 18 20  2  0  0  0  0
 18 21  1  0  0  0  0
 18 19  1  0  0  0  0
 19 25  1  0  0  0  0
 19 24  1  0  0  0  0
 22 18  2  0  0  0  0
 23 19  1  0  0  0  0
M  RAD  3   2   2   3   3  21   2
M  END
