Coordinates from ORCA-job 4-MeOPhN2+~TfO-_B3LYPG-6-31G_dp-NX-Scan-d89-09-n800
 OpenBabel11261920223D

 25 24  0  0  0  0  0  0  0  0999 V2000
   -4.2471   -2.6141   -0.4415 C   0  0  0  0  0  0  0  0  0  0  0  0
   -4.8883   -2.9655    0.7373 N   0  0  0  0  0  0  0  0  0  0  0  0
   -5.4424   -2.6514    1.6950 N   0  0  0  0  0  0  0  0  0  0  0  0
   -3.6754   -3.6516   -1.2021 C   0  0  0  0  0  0  0  0  0  0  0  0
   -3.0176   -3.3437   -2.3744 C   0  0  0  0  0  0  0  0  0  0  0  0
   -2.9236   -2.0008   -2.7989 C   0  0  0  0  0  0  0  0  0  0  0  0
   -2.2584   -1.8073   -3.9511 O   0  0  0  0  0  0  0  0  0  0  0  0
   -2.0924   -0.4775   -4.4488 C   0  0  0  0  0  0  0  0  0  0  0  0
   -3.5050   -0.9716   -2.0331 C   0  0  0  0  0  0  0  0  0  0  0  0
   -4.1686   -1.2706   -0.8527 C   0  0  0  0  0  0  0  0  0  0  0  0
   -3.7535   -4.6765   -0.8560 H   0  0  0  0  0  0  0  0  0  0  0  0
   -2.5611   -4.1129   -2.9863 H   0  0  0  0  0  0  0  0  0  0  0  0
   -1.5190   -0.5787   -5.3696 H   0  0  0  0  0  0  0  0  0  0  0  0
   -1.5376    0.1440   -3.7372 H   0  0  0  0  0  0  0  0  0  0  0  0
   -3.0601   -0.0144   -4.6698 H   0  0  0  0  0  0  0  0  0  0  0  0
   -3.4414    0.0618   -2.3496 H   0  0  0  0  0  0  0  0  0  0  0  0
   -4.6258   -0.5008   -0.2433 H   0  0  0  0  0  0  0  0  0  0  0  0
   -4.8460   -0.0612    2.8080 S   0  0  0  0  0  0  0  0  0  0  0  0
   -6.0253   -0.1411    4.2413 C   0  0  0  0  0  0  0  0  0  0  0  0
   -5.6796   -0.7448    1.6965 O   0  0  0  0  0  0  0  0  0  0  0  0
   -3.6918   -0.8777    3.1978 O   0  0  0  0  0  0  0  0  0  0  0  0
   -4.6635    1.3598    2.5112 O   0  0  0  0  0  0  0  0  0  0  0  0
   -7.1462    0.5323    3.9634 F   0  0  0  0  0  0  0  0  0  0  0  0
   -6.3414   -1.4175    4.5016 F   0  0  0  0  0  0  0  0  0  0  0  0
   -5.4559    0.3934    5.3266 F   0  0  0  0  0  0  0  0  0  0  0  0
  1  2  1  0  0  0  0
  2  3  2  0  0  0  0
  4 11  1  0  0  0  0
  4  1  2  0  0  0  0
  5  4  1  0  0  0  0
  6  5  2  0  0  0  0
  6  9  1  0  0  0  0
  7  6  1  0  0  0  0
  8  7  1  0  0  0  0
  8 14  1  0  0  0  0
  9 10  2  0  0  0  0
 10  1  1  0  0  0  0
 10 17  1  0  0  0  0
 12  5  1  0  0  0  0
 13  8  1  0  0  0  0
 15  8  1  0  0  0  0
 16  9  1  0  0  0  0
 18 21  1  0  0  0  0
 18 19  1  0  0  0  0
 19 24  1  0  0  0  0
 19 25  1  0  0  0  0
 20 18  2  0  0  0  0
 22 18  2  0  0  0  0
 23 19  1  0  0  0  0
M  RAD  2   3   2  21   2
M  END
