Coordinates from ORCA-job 4-MeOPhN2+~TfO-_B3LYPG-6-31G_dp-NX-Scan-d89-09-n800
 OpenBabel11261920223D

 25 24  0  0  0  0  0  0  0  0999 V2000
   -4.5100   -3.9439   -0.5827 C   0  0  0  0  0  0  0  0  0  0  0  0
   -5.1895   -4.9011    0.0820 N   0  0  0  0  0  0  0  0  0  0  0  0
   -5.7808   -5.6641    0.6575 N   0  0  0  0  0  0  0  0  0  0  0  0
   -3.4083   -4.3029   -1.4117 C   0  0  0  0  0  0  0  0  0  0  0  0
   -2.7155   -3.2924   -2.0237 C   0  0  0  0  0  0  0  0  0  0  0  0
   -3.0940   -1.9320   -1.8155 C   0  0  0  0  0  0  0  0  0  0  0  0
   -2.3206   -1.0261   -2.3959 O   0  0  0  0  0  0  0  0  0  0  0  0
   -2.5842    0.3775   -2.1462 C   0  0  0  0  0  0  0  0  0  0  0  0
   -4.2126   -1.6042   -1.0228 C   0  0  0  0  0  0  0  0  0  0  0  0
   -4.9194   -2.6007   -0.3904 C   0  0  0  0  0  0  0  0  0  0  0  0
   -3.1277   -5.3426   -1.5377 H   0  0  0  0  0  0  0  0  0  0  0  0
   -1.8580   -3.5011   -2.6532 H   0  0  0  0  0  0  0  0  0  0  0  0
   -1.7737    0.9078   -2.6427 H   0  0  0  0  0  0  0  0  0  0  0  0
   -2.5848    0.5800   -1.0729 H   0  0  0  0  0  0  0  0  0  0  0  0
   -3.5477    0.6660   -2.5727 H   0  0  0  0  0  0  0  0  0  0  0  0
   -4.5400   -0.5776   -0.8406 H   0  0  0  0  0  0  0  0  0  0  0  0
   -5.7229   -2.3163    0.2887 H   0  0  0  0  0  0  0  0  0  0  0  0
   -5.7257    0.5679    1.4252 S   0  0  0  0  0  0  0  0  0  0  0  0
   -4.0657    0.9535    2.1694 C   0  0  0  0  0  0  0  0  0  0  0  0
   -6.6683    1.4384    2.1321 O   0  0  0  0  0  0  0  0  0  0  0  0
   -5.8645   -0.8924    1.6927 O   0  0  0  0  0  0  0  0  0  0  0  0
   -5.4865    0.8875   -0.0135 O   0  0  0  0  0  0  0  0  0  0  0  0
   -3.7789    2.2588    2.0728 F   0  0  0  0  0  0  0  0  0  0  0  0
   -3.9988    0.5982    3.4588 F   0  0  0  0  0  0  0  0  0  0  0  0
   -3.0887    0.2733    1.5074 F   0  0  0  0  0  0  0  0  0  0  0  0
  1 10  1  0  0  0  0
  1  2  1  0  0  0  0
  2  3  1  0  0  0  0
  4  1  2  0  0  0  0
  5  6  2  0  0  0  0
  5  4  1  0  0  0  0
  6  9  1  0  0  0  0
  7  8  1  0  0  0  0
  7  6  1  0  0  0  0
  8 14  1  0  0  0  0
  9 16  1  0  0  0  0
  9 10  2  0  0  0  0
 10 17  1  0  0  0  0
 11  4  1  0  0  0  0
 12  5  1  0  0  0  0
 13  8  1  0  0  0  0
 15  8  1  0  0  0  0
 18 21  2  0  0  0  0
 18 20  1  0  0  0  0
 18 19  1  0  0  0  0
 19 24  1  0  0  0  0
 22 18  2  0  0  0  0
 23 19  1  0  0  0  0
 25 19  1  0  0  0  0
M  RAD  3   2   2   3   3  20   2
M  END
