Coordinates from ORCA-job 4-MeOPhN2+~TfO-_B3LYPG-6-31G_dp-NX-Scan-d89-09-n800
 OpenBabel11261920223D

 25 24  0  0  0  0  0  0  0  0999 V2000
   -4.4473   -2.6121   -0.4515 C   0  0  0  0  0  0  0  0  0  0  0  0
   -5.2170   -2.9277    0.6478 N   0  0  0  0  0  0  0  0  0  0  0  0
   -5.8900   -2.7365    1.5410 N   0  0  0  0  0  0  0  0  0  0  0  0
   -3.7076   -3.6323   -1.0781 C   0  0  0  0  0  0  0  0  0  0  0  0
   -2.9290   -3.3100   -2.1685 C   0  0  0  0  0  0  0  0  0  0  0  0
   -2.8869   -1.9786   -2.6407 C   0  0  0  0  0  0  0  0  0  0  0  0
   -2.0931   -1.7734   -3.7031 O   0  0  0  0  0  0  0  0  0  0  0  0
   -1.9583   -0.4517   -4.2347 C   0  0  0  0  0  0  0  0  0  0  0  0
   -3.6459   -0.9731   -2.0090 C   0  0  0  0  0  0  0  0  0  0  0  0
   -4.4263   -1.2819   -0.9077 C   0  0  0  0  0  0  0  0  0  0  0  0
   -3.7482   -4.6463   -0.6962 H   0  0  0  0  0  0  0  0  0  0  0  0
   -2.3353   -4.0586   -2.6799 H   0  0  0  0  0  0  0  0  0  0  0  0
   -1.2610   -0.5415   -5.0670 H   0  0  0  0  0  0  0  0  0  0  0  0
   -1.5496    0.2340   -3.4845 H   0  0  0  0  0  0  0  0  0  0  0  0
   -2.9188   -0.0739   -4.6008 H   0  0  0  0  0  0  0  0  0  0  0  0
   -3.6233    0.0489   -2.3641 H   0  0  0  0  0  0  0  0  0  0  0  0
   -5.0213   -0.5354   -0.3953 H   0  0  0  0  0  0  0  0  0  0  0  0
   -5.0560    0.0018    2.4270 S   0  0  0  0  0  0  0  0  0  0  0  0
   -5.6124   -0.2420    4.1819 C   0  0  0  0  0  0  0  0  0  0  0  0
   -6.1956   -0.6394    1.6403 O   0  0  0  0  0  0  0  0  0  0  0  0
   -3.8122   -0.7830    2.3113 O   0  0  0  0  0  0  0  0  0  0  0  0
   -4.9847    1.4527    2.2307 O   0  0  0  0  0  0  0  0  0  0  0  0
   -6.7712    0.3880    4.4041 F   0  0  0  0  0  0  0  0  0  0  0  0
   -5.7834   -1.5517    4.4321 F   0  0  0  0  0  0  0  0  0  0  0  0
   -4.6926    0.2356    5.0291 F   0  0  0  0  0  0  0  0  0  0  0  0
  1  2  1  0  0  0  0
  2  3  1  0  0  0  0
  4 11  1  0  0  0  0
  4  1  2  0  0  0  0
  5  4  1  0  0  0  0
  6  5  2  0  0  0  0
  6  9  1  0  0  0  0
  7  6  1  0  0  0  0
  8  7  1  0  0  0  0
  8 14  1  0  0  0  0
  9 10  2  0  0  0  0
 10  1  1  0  0  0  0
 10 17  1  0  0  0  0
 12  5  1  0  0  0  0
 13  8  1  0  0  0  0
 15  8  1  0  0  0  0
 16  9  1  0  0  0  0
 18 19  1  0  0  0  0
 19 23  1  0  0  0  0
 19 24  1  0  0  0  0
 19 25  1  0  0  0  0
 20 18  2  0  0  0  0
 21 18  1  0  0  0  0
 22 18  2  0  0  0  0
M  RAD  3   2   2   3   3  21   2
M  END
