Coordinates from ORCA-job 4-MeOPhN2+~TfO-_B3LYPG-6-31G_dp-NX-Scan-d89-09-n800
 OpenBabel11261920223D

 25 24  0  0  0  0  0  0  0  0999 V2000
   -4.1586   -3.0015   -0.4862 C   0  0  0  0  0  0  0  0  0  0  0  0
   -4.8107   -3.5433    0.5930 N   0  0  0  0  0  0  0  0  0  0  0  0
   -5.3445   -3.7964    1.5462 N   0  0  0  0  0  0  0  0  0  0  0  0
   -3.5737   -3.8713   -1.4332 C   0  0  0  0  0  0  0  0  0  0  0  0
   -2.9182   -3.3158   -2.5070 C   0  0  0  0  0  0  0  0  0  0  0  0
   -2.8501   -1.9072   -2.6482 C   0  0  0  0  0  0  0  0  0  0  0  0
   -2.1916   -1.4777   -3.7314 O   0  0  0  0  0  0  0  0  0  0  0  0
   -2.0634   -0.0697   -3.9666 C   0  0  0  0  0  0  0  0  0  0  0  0
   -3.4519   -1.0638   -1.6943 C   0  0  0  0  0  0  0  0  0  0  0  0
   -4.1118   -1.5990   -0.6002 C   0  0  0  0  0  0  0  0  0  0  0  0
   -3.6378   -4.9467   -1.3067 H   0  0  0  0  0  0  0  0  0  0  0  0
   -2.4460   -3.9340   -3.2616 H   0  0  0  0  0  0  0  0  0  0  0  0
   -1.4952    0.0195   -4.8917 H   0  0  0  0  0  0  0  0  0  0  0  0
   -1.5193    0.4157   -3.1499 H   0  0  0  0  0  0  0  0  0  0  0  0
   -3.0454    0.3978   -4.0899 H   0  0  0  0  0  0  0  0  0  0  0  0
   -3.4149    0.0138   -1.7936 H   0  0  0  0  0  0  0  0  0  0  0  0
   -4.5975   -0.9522    0.1383 H   0  0  0  0  0  0  0  0  0  0  0  0
   -5.8907   -0.5195    2.4535 S   0  0  0  0  0  0  0  0  0  0  0  0
   -5.3967    0.5387    3.8977 C   0  0  0  0  0  0  0  0  0  0  0  0
   -7.3155   -0.8131    2.6549 O   0  0  0  0  0  0  0  0  0  0  0  0
   -4.9720   -1.7006    2.5860 O   0  0  0  0  0  0  0  0  0  0  0  0
   -5.5489    0.3168    1.2703 O   0  0  0  0  0  0  0  0  0  0  0  0
   -6.1100    1.6733    3.9093 F   0  0  0  0  0  0  0  0  0  0  0  0
   -5.6082   -0.1107    5.0509 F   0  0  0  0  0  0  0  0  0  0  0  0
   -4.0943    0.8584    3.8248 F   0  0  0  0  0  0  0  0  0  0  0  0
  1  2  1  0  0  0  0
  2  3  1  0  0  0  0
  4 11  1  0  0  0  0
  4  1  2  0  0  0  0
  5  4  1  0  0  0  0
  6  5  2  0  0  0  0
  6  9  1  0  0  0  0
  7  6  1  0  0  0  0
  8  7  1  0  0  0  0
  8 14  1  0  0  0  0
  9 10  2  0  0  0  0
 10  1  1  0  0  0  0
 10 17  1  0  0  0  0
 12  5  1  0  0  0  0
 13  8  1  0  0  0  0
 15  8  1  0  0  0  0
 16  9  1  0  0  0  0
 18 21  2  0  0  0  0
 18 20  1  0  0  0  0
 18 19  1  0  0  0  0
 19 23  1  0  0  0  0
 19 24  1  0  0  0  0
 22 18  2  0  0  0  0
 25 19  1  0  0  0  0
M  RAD  3   2   2   3   3  20   2
M  END
