Coordinates from ORCA-job 4-MeOPhN2+~TfO-_B3LYPG-6-31G_dp-NX-Scan-d89-09-n800
 OpenBabel11261920223D

 25 25  0  0  0  0  0  0  0  0999 V2000
   -3.8802   -2.5414   -0.2643 C   0  0  0  0  0  0  0  0  0  0  0  0
   -4.2709   -2.9429    1.0143 N   0  0  0  0  0  0  0  0  0  0  0  0
   -4.5458   -2.4807    2.0684 N   0  0  0  0  0  0  0  0  0  0  0  0
   -3.6639   -3.5963   -1.1746 C   0  0  0  0  0  0  0  0  0  0  0  0
   -3.2682   -3.3296   -2.4695 C   0  0  0  0  0  0  0  0  0  0  0  0
   -3.0800   -1.9965   -2.8835 C   0  0  0  0  0  0  0  0  0  0  0  0
   -2.6927   -1.8351   -4.1653 O   0  0  0  0  0  0  0  0  0  0  0  0
   -2.4815   -0.5161   -4.6665 C   0  0  0  0  0  0  0  0  0  0  0  0
   -3.2964   -0.9423   -1.9782 C   0  0  0  0  0  0  0  0  0  0  0  0
   -3.6950   -1.2069   -0.6742 C   0  0  0  0  0  0  0  0  0  0  0  0
   -3.8135   -4.6159   -0.8363 H   0  0  0  0  0  0  0  0  0  0  0  0
   -3.0945   -4.1251   -3.1852 H   0  0  0  0  0  0  0  0  0  0  0  0
   -2.1767   -0.6407   -5.7054 H   0  0  0  0  0  0  0  0  0  0  0  0
   -1.6881   -0.0019   -4.1124 H   0  0  0  0  0  0  0  0  0  0  0  0
   -3.4023    0.0770   -4.6248 H   0  0  0  0  0  0  0  0  0  0  0  0
   -3.1556    0.0876   -2.2823 H   0  0  0  0  0  0  0  0  0  0  0  0
   -3.8611   -0.3983    0.0229 H   0  0  0  0  0  0  0  0  0  0  0  0
   -4.6016   -0.1492    3.4798 S   0  0  0  0  0  0  0  0  0  0  0  0
   -6.4536   -0.1624    3.6828 C   0  0  0  0  0  0  0  0  0  0  0  0
   -4.4729   -0.8216    2.0395 O   0  0  0  0  0  0  0  0  0  0  0  0
   -4.0639   -1.0046    4.5269 O   0  0  0  0  0  0  0  0  0  0  0  0
   -4.2067    1.2462    3.3446 O   0  0  0  0  0  0  0  0  0  0  0  0
   -7.0265    0.5560    2.7136 F   0  0  0  0  0  0  0  0  0  0  0  0
   -6.9116   -1.4161    3.6272 F   0  0  0  0  0  0  0  0  0  0  0  0
   -6.7635    0.3687    4.8667 F   0  0  0  0  0  0  0  0  0  0  0  0
  1  2  1  0  0  0  0
  2  3  1  0  0  0  0
  4 11  1  0  0  0  0
  4  1  2  0  0  0  0
  5  4  1  0  0  0  0
  6  5  2  0  0  0  0
  6  9  1  0  0  0  0
  7  6  1  0  0  0  0
  8 15  1  0  0  0  0
  8  7  1  0  0  0  0
  8 14  1  0  0  0  0
  9 10  2  0  0  0  0
 10  1  1  0  0  0  0
 10 17  1  0  0  0  0
 12  5  1  0  0  0  0
 13  8  1  0  0  0  0
 16  9  1  0  0  0  0
 18 19  1  0  0  0  0
 18 21  2  0  0  0  0
 19 25  1  0  0  0  0
 20  3  1  0  0  0  0
 20 18  1  0  0  0  0
 22 18  2  0  0  0  0
 23 19  1  0  0  0  0
 24 19  1  0  0  0  0
M  RAD  2   2   2   3   2
M  END
