Coordinates from ORCA-job 4-MeOPhN2+~TfO-_B3LYPG-6-31G_dp-NX-Scan-d89-09-n800
 OpenBabel11261920223D

 25 24  0  0  0  0  0  0  0  0999 V2000
   -4.7155   -3.5618   -0.5265 C   0  0  0  0  0  0  0  0  0  0  0  0
   -5.5051   -4.3802    0.2003 N   0  0  0  0  0  0  0  0  0  0  0  0
   -6.1615   -5.0569    0.8088 N   0  0  0  0  0  0  0  0  0  0  0  0
   -3.4434   -4.0307   -0.9580 C   0  0  0  0  0  0  0  0  0  0  0  0
   -2.6153   -3.1432   -1.5916 C   0  0  0  0  0  0  0  0  0  0  0  0
   -3.0201   -1.7884   -1.7750 C   0  0  0  0  0  0  0  0  0  0  0  0
   -2.1029   -0.9969   -2.3242 O   0  0  0  0  0  0  0  0  0  0  0  0
   -2.3548    0.4205   -2.3993 C   0  0  0  0  0  0  0  0  0  0  0  0
   -4.2998   -1.3597   -1.3808 C   0  0  0  0  0  0  0  0  0  0  0  0
   -5.1520   -2.2340   -0.7394 C   0  0  0  0  0  0  0  0  0  0  0  0
   -3.1416   -5.0547   -0.7701 H   0  0  0  0  0  0  0  0  0  0  0  0
   -1.6282   -3.4361   -1.9288 H   0  0  0  0  0  0  0  0  0  0  0  0
   -1.4330    0.8543   -2.7840 H   0  0  0  0  0  0  0  0  0  0  0  0
   -2.5786    0.8164   -1.4059 H   0  0  0  0  0  0  0  0  0  0  0  0
   -3.1793    0.6299   -3.0874 H   0  0  0  0  0  0  0  0  0  0  0  0
   -4.6263   -0.3324   -1.4672 H   0  0  0  0  0  0  0  0  0  0  0  0
   -6.1069   -1.8813   -0.3768 H   0  0  0  0  0  0  0  0  0  0  0  0
   -5.7094   -0.1442    1.7839 S   0  0  0  0  0  0  0  0  0  0  0  0
   -4.0335    0.6506    1.9531 C   0  0  0  0  0  0  0  0  0  0  0  0
   -6.4714    0.3993    2.9134 O   0  0  0  0  0  0  0  0  0  0  0  0
   -5.3873   -1.6018    1.8531 O   0  0  0  0  0  0  0  0  0  0  0  0
   -6.1359    0.2883    0.4246 O   0  0  0  0  0  0  0  0  0  0  0  0
   -4.1186    1.9860    1.8854 F   0  0  0  0  0  0  0  0  0  0  0  0
   -3.4445    0.3192    3.1086 F   0  0  0  0  0  0  0  0  0  0  0  0
   -3.2019    0.2494    0.9479 F   0  0  0  0  0  0  0  0  0  0  0  0
  1  2  1  0  0  0  0
  2  3  1  0  0  0  0
  4 11  1  0  0  0  0
  4  1  2  0  0  0  0
  5  4  1  0  0  0  0
  6  5  2  0  0  0  0
  6  9  1  0  0  0  0
  7  6  1  0  0  0  0
  8  7  1  0  0  0  0
  8 14  1  0  0  0  0
  9 10  2  0  0  0  0
 10  1  1  0  0  0  0
 10 17  1  0  0  0  0
 12  5  1  0  0  0  0
 13  8  1  0  0  0  0
 15  8  1  0  0  0  0
 16  9  1  0  0  0  0
 18 21  2  0  0  0  0
 18 19  1  0  0  0  0
 18 20  1  0  0  0  0
 19 24  1  0  0  0  0
 22 18  2  0  0  0  0
 23 19  1  0  0  0  0
 25 19  1  0  0  0  0
M  RAD  3   2   2   3   3  20   2
M  END
