Coordinates from ORCA-job 4-MeOPhN2+~TfO-_B3LYPG-6-31G_dp-NX-Scan-d89-09-n800
 OpenBabel11261920223D

 25 24  0  0  0  0  0  0  0  0999 V2000
   -4.2089   -2.9851   -0.3708 C   0  0  0  0  0  0  0  0  0  0  0  0
   -4.8825   -3.6067    0.6502 N   0  0  0  0  0  0  0  0  0  0  0  0
   -5.3774   -4.2447    1.4218 N   0  0  0  0  0  0  0  0  0  0  0  0
   -3.3518   -3.8020   -1.1520 C   0  0  0  0  0  0  0  0  0  0  0  0
   -2.6660   -3.2203   -2.1901 C   0  0  0  0  0  0  0  0  0  0  0  0
   -2.8238   -1.8373   -2.4629 C   0  0  0  0  0  0  0  0  0  0  0  0
   -2.1079   -1.3787   -3.4946 O   0  0  0  0  0  0  0  0  0  0  0  0
   -2.1880    0.0094   -3.8468 C   0  0  0  0  0  0  0  0  0  0  0  0
   -3.6837   -1.0507   -1.6736 C   0  0  0  0  0  0  0  0  0  0  0  0
   -4.3843   -1.6125   -0.6193 C   0  0  0  0  0  0  0  0  0  0  0  0
   -3.2411   -4.8572   -0.9268 H   0  0  0  0  0  0  0  0  0  0  0  0
   -1.9955   -3.7986   -2.8153 H   0  0  0  0  0  0  0  0  0  0  0  0
   -1.5259    0.1297   -4.7031 H   0  0  0  0  0  0  0  0  0  0  0  0
   -1.8454    0.6418   -3.0217 H   0  0  0  0  0  0  0  0  0  0  0  0
   -3.2097    0.2828   -4.1284 H   0  0  0  0  0  0  0  0  0  0  0  0
   -3.8128    0.0078   -1.8605 H   0  0  0  0  0  0  0  0  0  0  0  0
   -5.0366   -0.9962    0.0014 H   0  0  0  0  0  0  0  0  0  0  0  0
   -6.1339   -0.2809    2.2298 S   0  0  0  0  0  0  0  0  0  0  0  0
   -5.0078    0.2559    3.6054 C   0  0  0  0  0  0  0  0  0  0  0  0
   -7.4874   -0.0131    2.7261 O   0  0  0  0  0  0  0  0  0  0  0  0
   -5.7812   -1.7296    2.0653 O   0  0  0  0  0  0  0  0  0  0  0  0
   -5.6721    0.5275    1.0689 O   0  0  0  0  0  0  0  0  0  0  0  0
   -5.1516    1.5644    3.8560 F   0  0  0  0  0  0  0  0  0  0  0  0
   -5.2712   -0.4252    4.7307 F   0  0  0  0  0  0  0  0  0  0  0  0
   -3.7204    0.0313    3.2748 F   0  0  0  0  0  0  0  0  0  0  0  0
  1  2  1  0  0  0  0
  2  3  1  0  0  0  0
  4 11  1  0  0  0  0
  4  1  2  0  0  0  0
  5  4  1  0  0  0  0
  6  5  2  0  0  0  0
  6  9  1  0  0  0  0
  7  6  1  0  0  0  0
  8  7  1  0  0  0  0
  8 14  1  0  0  0  0
  9 10  2  0  0  0  0
 10  1  1  0  0  0  0
 10 17  1  0  0  0  0
 12  5  1  0  0  0  0
 13  8  1  0  0  0  0
 15  8  1  0  0  0  0
 16  9  1  0  0  0  0
 18 20  1  0  0  0  0
 18 19  1  0  0  0  0
 19 23  1  0  0  0  0
 19 24  1  0  0  0  0
 21 18  2  0  0  0  0
 22 18  2  0  0  0  0
 25 19  1  0  0  0  0
M  RAD  3   2   2   3   3  20   2
M  END
