Coordinates from ORCA-job 4-MeOPhN2+~TfO-_B3LYPG-6-31G_dp-NX-Scan-d89-09-n800
 OpenBabel11261920223D

 25 25  0  0  0  0  0  0  0  0999 V2000
   -3.8847   -1.8002   -0.4134 C   0  0  0  0  0  0  0  0  0  0  0  0
   -4.3555   -1.7952    0.9299 N   0  0  0  0  0  0  0  0  0  0  0  0
   -4.5021   -0.6675    1.4731 N   0  0  0  0  0  0  0  0  0  0  0  0
   -3.7442   -3.0959   -0.9470 C   0  0  0  0  0  0  0  0  0  0  0  0
   -3.2969   -3.2857   -2.2414 C   0  0  0  0  0  0  0  0  0  0  0  0
   -2.9741   -2.1796   -3.0463 C   0  0  0  0  0  0  0  0  0  0  0  0
   -2.5429   -2.4690   -4.3023 O   0  0  0  0  0  0  0  0  0  0  0  0
   -2.1974   -1.3939   -5.1648 C   0  0  0  0  0  0  0  0  0  0  0  0
   -3.1097   -0.8874   -2.5255 C   0  0  0  0  0  0  0  0  0  0  0  0
   -3.5620   -0.6980   -1.2172 C   0  0  0  0  0  0  0  0  0  0  0  0
   -3.9961   -3.9407   -0.3152 H   0  0  0  0  0  0  0  0  0  0  0  0
   -3.1859   -4.2812   -2.6577 H   0  0  0  0  0  0  0  0  0  0  0  0
   -1.8830   -1.8513   -6.1033 H   0  0  0  0  0  0  0  0  0  0  0  0
   -1.3695   -0.8005   -4.7569 H   0  0  0  0  0  0  0  0  0  0  0  0
   -3.0551   -0.7357   -5.3528 H   0  0  0  0  0  0  0  0  0  0  0  0
   -2.8664   -0.0171   -3.1228 H   0  0  0  0  0  0  0  0  0  0  0  0
   -3.6520    0.3173   -0.8522 H   0  0  0  0  0  0  0  0  0  0  0  0
   -5.1936    0.2700    3.9228 S   0  0  2  0  0  0  0  0  0  0  0  0
   -6.6459   -0.5512    4.8131 C   0  0  0  0  0  0  0  0  0  0  0  0
   -4.4000    0.3304    1.2871 O   0  0  0  0  0  0  0  0  0  0  0  0
   -5.0538   -1.0815    2.9667 O   0  0  0  0  0  0  0  0  0  0  0  0
   -4.0885    0.3655    4.9068 O   0  0  0  0  0  0  0  0  0  0  0  0
   -7.0139    0.2753    5.8011 F   0  0  0  0  0  0  0  0  0  0  0  0
   -7.6626   -0.6804    3.9549 F   0  0  0  0  0  0  0  0  0  0  0  0
   -6.3309   -1.7346    5.3275 F   0  0  0  0  0  0  0  0  0  0  0  0
  1  2  1  0  0  0  0
  2  3  1  0  0  0  0
  3 21  1  0  0  0  0
  4  1  1  0  0  0  0
  4 11  1  0  0  0  0
  5  4  2  0  0  0  0
  6  9  2  0  0  0  0
  6  5  1  0  0  0  0
  7  6  1  0  0  0  0
  8 14  1  0  0  0  0
  8  7  1  0  0  0  0
  9 10  1  0  0  0  0
 10 17  1  0  0  0  0
 10  1  2  0  0  0  0
 12  5  1  0  0  0  0
 13  8  1  0  0  0  0
 15  8  1  0  0  0  0
 16  9  1  0  0  0  0
 18 21  1  6  0  0  0
 18 19  1  0  0  0  0
 18 22  1  0  0  0  0
 19 25  1  0  0  0  0
 19 23  1  0  0  0  0
 20  3  1  0  0  0  0
 24 19  1  0  0  0  0
M  RAD  3   2   2  20   2  22   2
M  END
