Coordinates from ORCA-job 4-MeOPhN2+~TfO-_B3LYPG-6-31G_dp-NX-Scan-d89-09-n800
 OpenBabel11261920223D

 25 25  0  0  0  0  0  0  0  0999 V2000
   -3.7055   -2.5887   -0.1587 C   0  0  0  0  0  0  0  0  0  0  0  0
   -3.9729   -3.1239    1.1357 N   0  0  0  0  0  0  0  0  0  0  0  0
   -4.2367   -2.3579    2.1300 N   0  0  0  0  0  0  0  0  0  0  0  0
   -3.4455   -3.6072   -1.1017 C   0  0  0  0  0  0  0  0  0  0  0  0
   -3.1568   -3.3197   -2.4226 C   0  0  0  0  0  0  0  0  0  0  0  0
   -3.1161   -1.9841   -2.8564 C   0  0  0  0  0  0  0  0  0  0  0  0
   -2.8213   -1.7974   -4.1727 O   0  0  0  0  0  0  0  0  0  0  0  0
   -2.7645   -0.4693   -4.6706 C   0  0  0  0  0  0  0  0  0  0  0  0
   -3.3710   -0.9576   -1.9410 C   0  0  0  0  0  0  0  0  0  0  0  0
   -3.6628   -1.2555   -0.6068 C   0  0  0  0  0  0  0  0  0  0  0  0
   -3.4783   -4.6343   -0.7529 H   0  0  0  0  0  0  0  0  0  0  0  0
   -2.9559   -4.1065   -3.1420 H   0  0  0  0  0  0  0  0  0  0  0  0
   -2.5125   -0.5551   -5.7285 H   0  0  0  0  0  0  0  0  0  0  0  0
   -1.9918    0.1206   -4.1615 H   0  0  0  0  0  0  0  0  0  0  0  0
   -3.7306    0.0422   -4.5696 H   0  0  0  0  0  0  0  0  0  0  0  0
   -3.3453    0.0811   -2.2488 H   0  0  0  0  0  0  0  0  0  0  0  0
   -3.8518   -0.4301    0.0645 H   0  0  0  0  0  0  0  0  0  0  0  0
   -4.6680   -0.3935    3.7632 S   0  0  0  0  0  0  0  0  0  0  0  0
   -6.4445    0.1255    3.3589 C   0  0  0  0  0  0  0  0  0  0  0  0
   -4.2777   -1.2609    2.0567 O   0  0  0  0  0  0  0  0  0  0  0  0
   -4.7024   -1.4479    4.7639 O   0  0  0  0  0  0  0  0  0  0  0  0
   -3.8417    0.8049    3.8169 O   0  0  0  0  0  0  0  0  0  0  0  0
   -6.4138    0.9357    2.3088 F   0  0  0  0  0  0  0  0  0  0  0  0
   -7.1494   -0.9626    3.0860 F   0  0  0  0  0  0  0  0  0  0  0  0
   -6.9501    0.7536    4.4135 F   0  0  0  0  0  0  0  0  0  0  0  0
  1  2  1  0  0  0  0
  2  3  2  0  0  0  0
  4 11  1  0  0  0  0
  4  1  2  0  0  0  0
  5  4  1  0  0  0  0
  6  5  2  0  0  0  0
  6  9  1  0  0  0  0
  7  6  1  0  0  0  0
  8 15  1  0  0  0  0
  8  7  1  0  0  0  0
  8 14  1  0  0  0  0
  9 10  2  0  0  0  0
 10  1  1  0  0  0  0
 10 17  1  0  0  0  0
 12  5  1  0  0  0  0
 13  8  1  0  0  0  0
 16  9  1  0  0  0  0
 18 22  2  0  0  0  0
 18 21  2  0  0  0  0
 19 18  1  0  0  0  0
 19 25  1  0  0  0  0
 20  3  1  0  0  0  0
 20 18  1  0  0  0  0
 23 19  1  0  0  0  0
 24 19  1  0  0  0  0
M  END
