Coordinates from ORCA-job 4-MeOPhN2+~TfO-_B3LYPG-6-31G_dp-NX-Scan-d89-09-n800
 OpenBabel11261920223D

 25 24  0  0  0  0  0  0  0  0999 V2000
   -4.4959   -3.9656   -0.5814 C   0  0  0  0  0  0  0  0  0  0  0  0
   -5.1664   -4.9289    0.0834 N   0  0  0  0  0  0  0  0  0  0  0  0
   -5.7542   -5.6925    0.6617 N   0  0  0  0  0  0  0  0  0  0  0  0
   -3.4086   -4.3145   -1.4331 C   0  0  0  0  0  0  0  0  0  0  0  0
   -2.7269   -3.2969   -2.0458 C   0  0  0  0  0  0  0  0  0  0  0  0
   -3.1031   -1.9391   -1.8172 C   0  0  0  0  0  0  0  0  0  0  0  0
   -2.3428   -1.0258   -2.4022 O   0  0  0  0  0  0  0  0  0  0  0  0
   -2.6074    0.3753   -2.1354 C   0  0  0  0  0  0  0  0  0  0  0  0
   -4.2076   -1.6205   -1.0005 C   0  0  0  0  0  0  0  0  0  0  0  0
   -4.9019   -2.6243   -0.3665 C   0  0  0  0  0  0  0  0  0  0  0  0
   -3.1300   -5.3525   -1.5762 H   0  0  0  0  0  0  0  0  0  0  0  0
   -1.8807   -3.4981   -2.6928 H   0  0  0  0  0  0  0  0  0  0  0  0
   -1.8083    0.9127   -2.6425 H   0  0  0  0  0  0  0  0  0  0  0  0
   -2.5897    0.5685   -1.0605 H   0  0  0  0  0  0  0  0  0  0  0  0
   -3.5803    0.6634   -2.5396 H   0  0  0  0  0  0  0  0  0  0  0  0
   -4.5328   -0.5943   -0.8087 H   0  0  0  0  0  0  0  0  0  0  0  0
   -5.6961   -2.3454    0.3255 H   0  0  0  0  0  0  0  0  0  0  0  0
   -5.7083    0.6113    1.3852 S   0  0  0  0  0  0  0  0  0  0  0  0
   -4.0710    0.9637    2.1931 C   0  0  0  0  0  0  0  0  0  0  0  0
   -6.6625    1.4948    2.0595 O   0  0  0  0  0  0  0  0  0  0  0  0
   -5.8833   -0.8473    1.6390 O   0  0  0  0  0  0  0  0  0  0  0  0
   -5.4077    0.9329   -0.0420 O   0  0  0  0  0  0  0  0  0  0  0  0
   -3.7604    2.2649    2.1182 F   0  0  0  0  0  0  0  0  0  0  0  0
   -4.0585    0.5975    3.4813 F   0  0  0  0  0  0  0  0  0  0  0  0
   -3.0826    0.2725    1.5618 F   0  0  0  0  0  0  0  0  0  0  0  0
  1 10  1  0  0  0  0
  1  2  1  0  0  0  0
  2  3  1  0  0  0  0
  4  1  2  0  0  0  0
  5  6  2  0  0  0  0
  5  4  1  0  0  0  0
  6  9  1  0  0  0  0
  7  8  1  0  0  0  0
  7  6  1  0  0  0  0
  8 14  1  0  0  0  0
  9 16  1  0  0  0  0
  9 10  2  0  0  0  0
 10 17  1  0  0  0  0
 11  4  1  0  0  0  0
 12  5  1  0  0  0  0
 13  8  1  0  0  0  0
 15  8  1  0  0  0  0
 18 21  2  0  0  0  0
 18 20  1  0  0  0  0
 18 19  1  0  0  0  0
 19 24  1  0  0  0  0
 22 18  2  0  0  0  0
 23 19  1  0  0  0  0
 25 19  1  0  0  0  0
M  RAD  3   2   2   3   3  20   2
M  END
