Coordinates from ORCA-job 4-MeOPhN2+~TfO-_B3LYPG-6-31G_dp-NX-Scan-d89-09-n800
 OpenBabel11261920223D

 25 24  0  0  0  0  0  0  0  0999 V2000
   -4.1826   -3.9877   -0.2158 C   0  0  0  0  0  0  0  0  0  0  0  0
   -4.6642   -5.1660    0.2247 N   0  0  0  0  0  0  0  0  0  0  0  0
   -5.0463   -6.1652    0.5772 N   0  0  0  0  0  0  0  0  0  0  0  0
   -4.9532   -3.2036   -1.1232 C   0  0  0  0  0  0  0  0  0  0  0  0
   -4.4111   -2.0406   -1.5992 C   0  0  0  0  0  0  0  0  0  0  0  0
   -3.1393   -1.6078   -1.1426 C   0  0  0  0  0  0  0  0  0  0  0  0
   -2.7124   -0.4690   -1.6522 O   0  0  0  0  0  0  0  0  0  0  0  0
   -1.6164    0.2411   -1.0545 C   0  0  0  0  0  0  0  0  0  0  0  0
   -2.3998   -2.3807   -0.2031 C   0  0  0  0  0  0  0  0  0  0  0  0
   -2.9076   -3.5703    0.2535 C   0  0  0  0  0  0  0  0  0  0  0  0
   -5.9565   -3.5052   -1.3967 H   0  0  0  0  0  0  0  0  0  0  0  0
   -4.9878   -1.3455   -2.2014 H   0  0  0  0  0  0  0  0  0  0  0  0
   -1.5527    1.1769   -1.6060 H   0  0  0  0  0  0  0  0  0  0  0  0
   -0.6795   -0.3160   -1.1609 H   0  0  0  0  0  0  0  0  0  0  0  0
   -1.8415    0.4435   -0.0051 H   0  0  0  0  0  0  0  0  0  0  0  0
   -1.4394   -2.0383    0.1584 H   0  0  0  0  0  0  0  0  0  0  0  0
   -2.3585   -4.1855    0.9579 H   0  0  0  0  0  0  0  0  0  0  0  0
   -6.4158    0.4682   -0.2250 S   0  0  0  0  0  0  0  0  0  0  0  0
   -5.1311    0.9534    1.0371 C   0  0  0  0  0  0  0  0  0  0  0  0
   -7.4689    1.4757   -0.0322 O   0  0  0  0  0  0  0  0  0  0  0  0
   -6.7396   -0.9268    0.1692 O   0  0  0  0  0  0  0  0  0  0  0  0
   -5.6473    0.5672   -1.4963 O   0  0  0  0  0  0  0  0  0  0  0  0
   -4.6207    2.1702    0.7921 F   0  0  0  0  0  0  0  0  0  0  0  0
   -5.6208    0.9459    2.2836 F   0  0  0  0  0  0  0  0  0  0  0  0
   -4.0738    0.0778    1.0248 F   0  0  0  0  0  0  0  0  0  0  0  0
  1  2  1  0  0  0  0
  1 10  1  0  0  0  0
  2  3  1  0  0  0  0
  4  1  2  0  0  0  0
  5  6  2  0  0  0  0
  5  4  1  0  0  0  0
  6  9  1  0  0  0  0
  7  6  1  0  0  0  0
  7  8  1  0  0  0  0
  8 15  1  0  0  0  0
  9 16  1  0  0  0  0
  9 10  2  0  0  0  0
 10 17  1  0  0  0  0
 11  4  1  0  0  0  0
 12  5  1  0  0  0  0
 13  8  1  0  0  0  0
 14  8  1  0  0  0  0
 18 20  2  0  0  0  0
 18 21  1  0  0  0  0
 18 19  1  0  0  0  0
 19 24  1  0  0  0  0
 22 18  2  0  0  0  0
 23 19  1  0  0  0  0
 25 19  1  0  0  0  0
M  RAD  3   2   2   3   3  21   2
M  END
