Coordinates from ORCA-job 4-MeOPhN2+~TfO-_B3LYPG-6-31G_dp-NX-Scan-d89-09-n800
 OpenBabel11261920223D

 25 24  0  0  0  0  0  0  0  0999 V2000
   -4.6658   -3.6925   -0.5597 C   0  0  0  0  0  0  0  0  0  0  0  0
   -5.4357   -4.5770    0.1085 N   0  0  0  0  0  0  0  0  0  0  0  0
   -6.0757   -5.3108    0.6682 N   0  0  0  0  0  0  0  0  0  0  0  0
   -3.4294   -4.1336   -1.1129 C   0  0  0  0  0  0  0  0  0  0  0  0
   -2.6335   -3.2023   -1.7228 C   0  0  0  0  0  0  0  0  0  0  0  0
   -3.0359   -1.8343   -1.7725 C   0  0  0  0  0  0  0  0  0  0  0  0
   -2.1541   -1.0071   -2.3229 O   0  0  0  0  0  0  0  0  0  0  0  0
   -2.4128    0.4130   -2.2942 C   0  0  0  0  0  0  0  0  0  0  0  0
   -4.2800   -1.4294   -1.2561 C   0  0  0  0  0  0  0  0  0  0  0  0
   -5.0992   -2.3470   -0.6334 C   0  0  0  0  0  0  0  0  0  0  0  0
   -3.1315   -5.1732   -1.0352 H   0  0  0  0  0  0  0  0  0  0  0  0
   -1.6746   -3.4738   -2.1482 H   0  0  0  0  0  0  0  0  0  0  0  0
   -1.5201    0.8730   -2.7153 H   0  0  0  0  0  0  0  0  0  0  0  0
   -2.5701    0.7470   -1.2663 H   0  0  0  0  0  0  0  0  0  0  0  0
   -3.2840    0.6561   -2.9091 H   0  0  0  0  0  0  0  0  0  0  0  0
   -4.6120   -0.3985   -1.2353 H   0  0  0  0  0  0  0  0  0  0  0  0
   -6.0188   -2.0192   -0.1684 H   0  0  0  0  0  0  0  0  0  0  0  0
   -5.7298    0.0797    1.7157 S   0  0  0  0  0  0  0  0  0  0  0  0
   -4.0242    0.7779    1.9828 C   0  0  0  0  0  0  0  0  0  0  0  0
   -6.5536    0.7609    2.7205 O   0  0  0  0  0  0  0  0  0  0  0  0
   -5.5186   -1.3834    1.9228 O   0  0  0  0  0  0  0  0  0  0  0  0
   -5.9982    0.4313    0.2931 O   0  0  0  0  0  0  0  0  0  0  0  0
   -4.0089    2.1077    1.8160 F   0  0  0  0  0  0  0  0  0  0  0  0
   -3.5586    0.4961    3.2053 F   0  0  0  0  0  0  0  0  0  0  0  0
   -3.1416    0.2511    1.0838 F   0  0  0  0  0  0  0  0  0  0  0  0
  1  2  1  0  0  0  0
  2  3  1  0  0  0  0
  4 11  1  0  0  0  0
  4  1  2  0  0  0  0
  5  4  1  0  0  0  0
  6  5  2  0  0  0  0
  6  9  1  0  0  0  0
  7  8  1  0  0  0  0
  7  6  1  0  0  0  0
  8 14  1  0  0  0  0
  9 16  1  0  0  0  0
  9 10  2  0  0  0  0
 10  1  1  0  0  0  0
 10 17  1  0  0  0  0
 12  5  1  0  0  0  0
 13  8  1  0  0  0  0
 15  8  1  0  0  0  0
 18 21  2  0  0  0  0
 18 19  1  0  0  0  0
 18 20  1  0  0  0  0
 19 24  1  0  0  0  0
 22 18  2  0  0  0  0
 23 19  1  0  0  0  0
 25 19  1  0  0  0  0
M  RAD  3   2   2   3   3  20   2
M  END
