Coordinates from ORCA-job 4-MeOPhN2+~TfO-_B3LYPG-6-31G_dp-NX-Scan-d89-09-n800
 OpenBabel11261920223D

 25 24  0  0  0  0  0  0  0  0999 V2000
   -4.1338   -4.0696   -0.2441 C   0  0  0  0  0  0  0  0  0  0  0  0
   -4.5740   -5.2801    0.1499 N   0  0  0  0  0  0  0  0  0  0  0  0
   -4.9258   -6.3030    0.4644 N   0  0  0  0  0  0  0  0  0  0  0  0
   -4.9535   -3.2570   -1.0827 C   0  0  0  0  0  0  0  0  0  0  0  0
   -4.4573   -2.0560   -1.5106 C   0  0  0  0  0  0  0  0  0  0  0  0
   -3.1746   -1.6215   -1.0803 C   0  0  0  0  0  0  0  0  0  0  0  0
   -2.7887   -0.4539   -1.5516 O   0  0  0  0  0  0  0  0  0  0  0  0
   -1.6847    0.2551   -0.9667 C   0  0  0  0  0  0  0  0  0  0  0  0
   -2.3868   -2.4232   -0.2065 C   0  0  0  0  0  0  0  0  0  0  0  0
   -2.8530   -3.6466    0.2037 C   0  0  0  0  0  0  0  0  0  0  0  0
   -5.9571   -3.5712   -1.3421 H   0  0  0  0  0  0  0  0  0  0  0  0
   -5.0648   -1.3384   -2.0585 H   0  0  0  0  0  0  0  0  0  0  0  0
   -1.6559    1.2092   -1.4887 H   0  0  0  0  0  0  0  0  0  0  0  0
   -0.7431   -0.2822   -1.1217 H   0  0  0  0  0  0  0  0  0  0  0  0
   -1.8804    0.4195    0.0949 H   0  0  0  0  0  0  0  0  0  0  0  0
   -1.4210   -2.0783    0.1381 H   0  0  0  0  0  0  0  0  0  0  0  0
   -2.2661   -4.2850    0.8549 H   0  0  0  0  0  0  0  0  0  0  0  0
   -6.4360    0.5576   -0.2546 S   0  0  0  0  0  0  0  0  0  0  0  0
   -5.0972    1.0317    0.9581 C   0  0  0  0  0  0  0  0  0  0  0  0
   -7.4351    1.6210   -0.0753 O   0  0  0  0  0  0  0  0  0  0  0  0
   -6.8069   -0.8047    0.2011 O   0  0  0  0  0  0  0  0  0  0  0  0
   -5.6990    0.5732   -1.5491 O   0  0  0  0  0  0  0  0  0  0  0  0
   -4.4557    2.1544    0.5908 F   0  0  0  0  0  0  0  0  0  0  0  0
   -5.5769    1.2090    2.1953 F   0  0  0  0  0  0  0  0  0  0  0  0
   -4.1394    0.0518    1.0455 F   0  0  0  0  0  0  0  0  0  0  0  0
  1  2  1  0  0  0  0
  1 10  2  0  0  0  0
  2  3  1  0  0  0  0
  4  1  1  0  0  0  0
  5  4  2  0  0  0  0
  5  6  1  0  0  0  0
  6  9  2  0  0  0  0
  7  6  1  0  0  0  0
  7  8  1  0  0  0  0
  8 15  1  0  0  0  0
  9 16  1  0  0  0  0
  9 10  1  0  0  0  0
 10 17  1  0  0  0  0
 11  4  1  0  0  0  0
 12  5  1  0  0  0  0
 13  8  1  0  0  0  0
 14  8  1  0  0  0  0
 18 20  2  0  0  0  0
 18 21  1  0  0  0  0
 18 19  1  0  0  0  0
 19 25  1  0  0  0  0
 19 24  1  0  0  0  0
 22 18  2  0  0  0  0
 23 19  1  0  0  0  0
M  RAD  3   2   2   3   3  21   2
M  END
