Coordinates from ORCA-job 4-MeOPhN2+~TfO-_B3LYPG-6-31G_dp-NX-Scan-d89-09-n800
 OpenBabel11261920223D

 25 24  0  0  0  0  0  0  0  0999 V2000
   -4.1590   -3.0140   -0.4840 C   0  0  0  0  0  0  0  0  0  0  0  0
   -4.8131   -3.5661    0.5880 N   0  0  0  0  0  0  0  0  0  0  0  0
   -5.3521   -3.8455    1.5300 N   0  0  0  0  0  0  0  0  0  0  0  0
   -3.5587   -3.8765   -1.4287 C   0  0  0  0  0  0  0  0  0  0  0  0
   -2.9020   -3.3127   -2.4970 C   0  0  0  0  0  0  0  0  0  0  0  0
   -2.8470   -1.9031   -2.6352 C   0  0  0  0  0  0  0  0  0  0  0  0
   -2.1861   -1.4652   -3.7132 O   0  0  0  0  0  0  0  0  0  0  0  0
   -2.0706   -0.0554   -3.9456 C   0  0  0  0  0  0  0  0  0  0  0  0
   -3.4630   -1.0676   -1.6834 C   0  0  0  0  0  0  0  0  0  0  0  0
   -4.1253   -1.6107   -0.5946 C   0  0  0  0  0  0  0  0  0  0  0  0
   -3.6128   -4.9528   -1.3044 H   0  0  0  0  0  0  0  0  0  0  0  0
   -2.4187   -3.9248   -3.2496 H   0  0  0  0  0  0  0  0  0  0  0  0
   -1.4982    0.0408   -4.8674 H   0  0  0  0  0  0  0  0  0  0  0  0
   -1.5360    0.4340   -3.1251 H   0  0  0  0  0  0  0  0  0  0  0  0
   -3.0566    0.4023   -4.0736 H   0  0  0  0  0  0  0  0  0  0  0  0
   -3.4355    0.0106   -1.7800 H   0  0  0  0  0  0  0  0  0  0  0  0
   -4.6200   -0.9673    0.1414 H   0  0  0  0  0  0  0  0  0  0  0  0
   -5.9227   -0.5138    2.4458 S   0  0  0  0  0  0  0  0  0  0  0  0
   -5.3621    0.5428    3.8665 C   0  0  0  0  0  0  0  0  0  0  0  0
   -7.3502   -0.7601    2.6872 O   0  0  0  0  0  0  0  0  0  0  0  0
   -5.0339   -1.7183    2.5656 O   0  0  0  0  0  0  0  0  0  0  0  0
   -5.5868    0.3023    1.2464 O   0  0  0  0  0  0  0  0  0  0  0  0
   -6.0411    1.6983    3.8855 F   0  0  0  0  0  0  0  0  0  0  0  0
   -5.5627   -0.0894    5.0314 F   0  0  0  0  0  0  0  0  0  0  0  0
   -4.0527    0.8239    3.7585 F   0  0  0  0  0  0  0  0  0  0  0  0
  1  2  1  0  0  0  0
  2  3  1  0  0  0  0
  4 11  1  0  0  0  0
  4  1  2  0  0  0  0
  5  4  1  0  0  0  0
  6  5  2  0  0  0  0
  6  9  1  0  0  0  0
  7  6  1  0  0  0  0
  8  7  1  0  0  0  0
  8 14  1  0  0  0  0
  9 10  2  0  0  0  0
 10  1  1  0  0  0  0
 10 17  1  0  0  0  0
 12  5  1  0  0  0  0
 13  8  1  0  0  0  0
 15  8  1  0  0  0  0
 16  9  1  0  0  0  0
 18 21  2  0  0  0  0
 18 20  1  0  0  0  0
 18 19  1  0  0  0  0
 19 23  1  0  0  0  0
 19 24  1  0  0  0  0
 22 18  2  0  0  0  0
 25 19  1  0  0  0  0
M  RAD  3   2   2   3   3  20   2
M  END
