Coordinates from ORCA-job 4-MeOPhN2+~TfO-_B3LYPG-6-31G_dp-NX-Scan-d89-09-n800
 OpenBabel11261920223D

 25 24  0  0  0  0  0  0  0  0999 V2000
   -4.7108   -3.5004   -0.5107 C   0  0  0  0  0  0  0  0  0  0  0  0
   -5.4966   -4.2768    0.2678 N   0  0  0  0  0  0  0  0  0  0  0  0
   -6.1481   -4.9140    0.9203 N   0  0  0  0  0  0  0  0  0  0  0  0
   -3.4479   -3.9957   -0.9344 C   0  0  0  0  0  0  0  0  0  0  0  0
   -2.6134   -3.1356   -1.5989 C   0  0  0  0  0  0  0  0  0  0  0  0
   -3.0027   -1.7823   -1.8153 C   0  0  0  0  0  0  0  0  0  0  0  0
   -2.0760   -1.0117   -2.3801 O   0  0  0  0  0  0  0  0  0  0  0  0
   -2.3068    0.4077   -2.4680 C   0  0  0  0  0  0  0  0  0  0  0  0
   -4.2785   -1.3310   -1.4318 C   0  0  0  0  0  0  0  0  0  0  0  0
   -5.1380   -2.1789   -0.7662 C   0  0  0  0  0  0  0  0  0  0  0  0
   -3.1537   -5.0156   -0.7149 H   0  0  0  0  0  0  0  0  0  0  0  0
   -1.6306   -3.4484   -1.9307 H   0  0  0  0  0  0  0  0  0  0  0  0
   -1.3767    0.8260   -2.8499 H   0  0  0  0  0  0  0  0  0  0  0  0
   -2.5308    0.8153   -1.4789 H   0  0  0  0  0  0  0  0  0  0  0  0
   -3.1238    0.6247   -3.1628 H   0  0  0  0  0  0  0  0  0  0  0  0
   -4.5937   -0.3036   -1.5521 H   0  0  0  0  0  0  0  0  0  0  0  0
   -6.0857   -1.8026   -0.4055 H   0  0  0  0  0  0  0  0  0  0  0  0
   -5.7478   -0.2221    1.8365 S   0  0  0  0  0  0  0  0  0  0  0  0
   -4.0813    0.5977    1.9791 C   0  0  0  0  0  0  0  0  0  0  0  0
   -6.4936    0.2957    2.9885 O   0  0  0  0  0  0  0  0  0  0  0  0
   -5.4026   -1.6751    1.8793 O   0  0  0  0  0  0  0  0  0  0  0  0
   -6.2093    0.2205    0.4915 O   0  0  0  0  0  0  0  0  0  0  0  0
   -4.1916    1.9324    1.9440 F   0  0  0  0  0  0  0  0  0  0  0  0
   -3.4573    0.2520    3.1125 F   0  0  0  0  0  0  0  0  0  0  0  0
   -3.2693    0.2335    0.9451 F   0  0  0  0  0  0  0  0  0  0  0  0
  1  2  1  0  0  0  0
  2  3  1  0  0  0  0
  4 11  1  0  0  0  0
  4  1  2  0  0  0  0
  5  4  1  0  0  0  0
  6  5  2  0  0  0  0
  6  9  1  0  0  0  0
  7  6  1  0  0  0  0
  8  7  1  0  0  0  0
  8 14  1  0  0  0  0
  9 10  2  0  0  0  0
 10  1  1  0  0  0  0
 10 17  1  0  0  0  0
 12  5  1  0  0  0  0
 13  8  1  0  0  0  0
 15  8  1  0  0  0  0
 16  9  1  0  0  0  0
 18 21  2  0  0  0  0
 18 19  1  0  0  0  0
 18 20  1  0  0  0  0
 19 24  1  0  0  0  0
 22 18  2  0  0  0  0
 23 19  1  0  0  0  0
 25 19  1  0  0  0  0
M  RAD  3   2   2   3   3  20   2
M  END
