Coordinates from ORCA-job 4-MeOPhN2+~TfO-_B3LYPG-6-31G_dp-NX-Scan-d89-09-n800
 OpenBabel11261920223D

 25 24  0  0  0  0  0  0  0  0999 V2000
   -4.1022   -2.9321   -0.4550 C   0  0  0  0  0  0  0  0  0  0  0  0
   -4.7136   -3.4361    0.6687 N   0  0  0  0  0  0  0  0  0  0  0  0
   -5.1872   -3.6024    1.6750 N   0  0  0  0  0  0  0  0  0  0  0  0
   -3.6764   -3.8324   -1.4552 C   0  0  0  0  0  0  0  0  0  0  0  0
   -3.0627   -3.3214   -2.5757 C   0  0  0  0  0  0  0  0  0  0  0  0
   -2.8813   -1.9235   -2.7113 C   0  0  0  0  0  0  0  0  0  0  0  0
   -2.2792   -1.5361   -3.8434 O   0  0  0  0  0  0  0  0  0  0  0  0
   -2.0557   -0.1412   -4.0808 C   0  0  0  0  0  0  0  0  0  0  0  0
   -3.3245   -1.0454   -1.7033 C   0  0  0  0  0  0  0  0  0  0  0  0
   -3.9379   -1.5380   -0.5625 C   0  0  0  0  0  0  0  0  0  0  0  0
   -3.8284   -4.8994   -1.3336 H   0  0  0  0  0  0  0  0  0  0  0  0
   -2.7116   -3.9678   -3.3716 H   0  0  0  0  0  0  0  0  0  0  0  0
   -1.5583   -0.0872   -5.0484 H   0  0  0  0  0  0  0  0  0  0  0  0
   -1.4093    0.2895   -3.3090 H   0  0  0  0  0  0  0  0  0  0  0  0
   -3.0028    0.4061   -4.1215 H   0  0  0  0  0  0  0  0  0  0  0  0
   -3.2006    0.0260   -1.7983 H   0  0  0  0  0  0  0  0  0  0  0  0
   -4.3074   -0.8643    0.2140 H   0  0  0  0  0  0  0  0  0  0  0  0
   -5.7488   -0.5281    2.4669 S   0  0  0  0  0  0  0  0  0  0  0  0
   -5.6193    0.4968    4.0103 C   0  0  0  0  0  0  0  0  0  0  0  0
   -7.1308   -1.0305    2.4391 O   0  0  0  0  0  0  0  0  0  0  0  0
   -4.7064   -1.5926    2.6902 O   0  0  0  0  0  0  0  0  0  0  0  0
   -5.3614    0.4048    1.3777 O   0  0  0  0  0  0  0  0  0  0  0  0
   -6.4767    1.5252    3.9550 F   0  0  0  0  0  0  0  0  0  0  0  0
   -5.9069   -0.2429    5.0897 F   0  0  0  0  0  0  0  0  0  0  0  0
   -4.3774    0.9848    4.1472 F   0  0  0  0  0  0  0  0  0  0  0  0
  1  2  1  0  0  0  0
  2  3  1  0  0  0  0
  4 11  1  0  0  0  0
  4  1  2  0  0  0  0
  5  4  1  0  0  0  0
  6  5  2  0  0  0  0
  6  9  1  0  0  0  0
  7  6  1  0  0  0  0
  8  7  1  0  0  0  0
  8 14  1  0  0  0  0
  9 10  2  0  0  0  0
 10  1  1  0  0  0  0
 10 17  1  0  0  0  0
 12  5  1  0  0  0  0
 13  8  1  0  0  0  0
 15  8  1  0  0  0  0
 16  9  1  0  0  0  0
 18 21  1  0  0  0  0
 18 19  1  0  0  0  0
 19 25  1  0  0  0  0
 19 24  1  0  0  0  0
 20 18  2  0  0  0  0
 22 18  2  0  0  0  0
 23 19  1  0  0  0  0
M  RAD  3   2   2   3   3  21   2
M  END
