Coordinates from ORCA-job 4-MeOPhN2+~TfO-_B3LYPG-6-31G_dp-NX-Scan-d89-09-n800
 OpenBabel11261920223D

 25 24  0  0  0  0  0  0  0  0999 V2000
   -4.4515   -2.6117   -0.4515 C   0  0  0  0  0  0  0  0  0  0  0  0
   -5.2241   -2.9241    0.6458 N   0  0  0  0  0  0  0  0  0  0  0  0
   -5.9005   -2.7438    1.5373 N   0  0  0  0  0  0  0  0  0  0  0  0
   -3.7075   -3.6317   -1.0735 C   0  0  0  0  0  0  0  0  0  0  0  0
   -2.9265   -3.3091   -2.1620 C   0  0  0  0  0  0  0  0  0  0  0  0
   -2.8862   -1.9783   -2.6362 C   0  0  0  0  0  0  0  0  0  0  0  0
   -2.0896   -1.7731   -3.6963 O   0  0  0  0  0  0  0  0  0  0  0  0
   -1.9556   -0.4518   -4.2296 C   0  0  0  0  0  0  0  0  0  0  0  0
   -3.6496   -0.9734   -2.0088 C   0  0  0  0  0  0  0  0  0  0  0  0
   -4.4326   -1.2821   -0.9095 C   0  0  0  0  0  0  0  0  0  0  0  0
   -3.7465   -4.6452   -0.6900 H   0  0  0  0  0  0  0  0  0  0  0  0
   -2.3292   -4.0570   -2.6703 H   0  0  0  0  0  0  0  0  0  0  0  0
   -1.2552   -0.5417   -5.0593 H   0  0  0  0  0  0  0  0  0  0  0  0
   -1.5509    0.2358   -3.4790 H   0  0  0  0  0  0  0  0  0  0  0  0
   -2.9156   -0.0766   -4.5996 H   0  0  0  0  0  0  0  0  0  0  0  0
   -3.6283    0.0481   -2.3655 H   0  0  0  0  0  0  0  0  0  0  0  0
   -5.0309   -0.5367   -0.3993 H   0  0  0  0  0  0  0  0  0  0  0  0
   -5.0634    0.0073    2.4185 S   0  0  0  0  0  0  0  0  0  0  0  0
   -5.6015   -0.2466    4.1776 C   0  0  0  0  0  0  0  0  0  0  0  0
   -6.2100   -0.6272    1.6399 O   0  0  0  0  0  0  0  0  0  0  0  0
   -3.8211   -0.7788    2.2868 O   0  0  0  0  0  0  0  0  0  0  0  0
   -4.9890    1.4595    2.2322 O   0  0  0  0  0  0  0  0  0  0  0  0
   -6.7581    0.3820    4.4156 F   0  0  0  0  0  0  0  0  0  0  0  0
   -5.7703   -1.5579    4.4223 F   0  0  0  0  0  0  0  0  0  0  0  0
   -4.6733    0.2258    5.0187 F   0  0  0  0  0  0  0  0  0  0  0  0
  1  2  1  0  0  0  0
  2  3  1  0  0  0  0
  4 11  1  0  0  0  0
  4  1  2  0  0  0  0
  5  4  1  0  0  0  0
  6  5  2  0  0  0  0
  6  9  1  0  0  0  0
  7  6  1  0  0  0  0
  8  7  1  0  0  0  0
  8 14  1  0  0  0  0
  9 10  2  0  0  0  0
 10  1  1  0  0  0  0
 10 17  1  0  0  0  0
 12  5  1  0  0  0  0
 13  8  1  0  0  0  0
 15  8  1  0  0  0  0
 16  9  1  0  0  0  0
 18 19  1  0  0  0  0
 19 23  1  0  0  0  0
 19 24  1  0  0  0  0
 19 25  1  0  0  0  0
 20 18  2  0  0  0  0
 21 18  1  0  0  0  0
 22 18  2  0  0  0  0
M  RAD  3   2   2   3   3  21   2
M  END
