Coordinates from ORCA-job 4-MeOPhN2+~TfO-_B3LYPG-6-31G_dp-NX-Scan-d89-09-n800
 OpenBabel11261920223D

 25 24  0  0  0  0  0  0  0  0999 V2000
   -3.9874   -2.8712   -0.3544 C   0  0  0  0  0  0  0  0  0  0  0  0
   -4.5043   -3.3460    0.8277 N   0  0  0  0  0  0  0  0  0  0  0  0
   -4.8884   -3.4849    1.8758 N   0  0  0  0  0  0  0  0  0  0  0  0
   -3.8167   -3.7742   -1.4255 C   0  0  0  0  0  0  0  0  0  0  0  0
   -3.3051   -3.2976   -2.6108 C   0  0  0  0  0  0  0  0  0  0  0  0
   -2.9698   -1.9285   -2.7398 C   0  0  0  0  0  0  0  0  0  0  0  0
   -2.4873   -1.5712   -3.9373 O   0  0  0  0  0  0  0  0  0  0  0  0
   -2.1359   -0.2031   -4.1760 C   0  0  0  0  0  0  0  0  0  0  0  0
   -3.1520   -1.0448   -1.6581 C   0  0  0  0  0  0  0  0  0  0  0  0
   -3.6602   -1.5054   -0.4544 C   0  0  0  0  0  0  0  0  0  0  0  0
   -4.0871   -4.8177   -1.3089 H   0  0  0  0  0  0  0  0  0  0  0  0
   -3.1539   -3.9495   -3.4633 H   0  0  0  0  0  0  0  0  0  0  0  0
   -1.7843   -0.1691   -5.2063 H   0  0  0  0  0  0  0  0  0  0  0  0
   -1.3352    0.1198   -3.5028 H   0  0  0  0  0  0  0  0  0  0  0  0
   -3.0063    0.4508   -4.0609 H   0  0  0  0  0  0  0  0  0  0  0  0
   -2.9080    0.0061   -1.7447 H   0  0  0  0  0  0  0  0  0  0  0  0
   -3.8247   -0.8218    0.3766 H   0  0  0  0  0  0  0  0  0  0  0  0
   -5.4722   -0.4492    2.4062 S   0  0  0  0  0  0  0  0  0  0  0  0
   -5.9243    0.3838    4.0027 C   0  0  0  0  0  0  0  0  0  0  0  0
   -6.7151   -1.0772    1.9189 O   0  0  0  0  0  0  0  0  0  0  0  0
   -4.4230   -1.4469    2.8251 O   0  0  0  0  0  0  0  0  0  0  0  0
   -4.9087    0.6323    1.5655 O   0  0  0  0  0  0  0  0  0  0  0  0
   -6.8530    1.3252    3.7867 F   0  0  0  0  0  0  0  0  0  0  0  0
   -6.4161   -0.5108    4.8714 F   0  0  0  0  0  0  0  0  0  0  0  0
   -4.8479    0.9629    4.5511 F   0  0  0  0  0  0  0  0  0  0  0  0
  1  2  1  0  0  0  0
  2  3  1  0  0  0  0
  4 11  1  0  0  0  0
  4  1  2  0  0  0  0
  5  4  1  0  0  0  0
  6  5  2  0  0  0  0
  6  9  1  0  0  0  0
  7  6  1  0  0  0  0
  8 15  1  0  0  0  0
  8  7  1  0  0  0  0
  8 14  1  0  0  0  0
  9 10  2  0  0  0  0
 10  1  1  0  0  0  0
 10 17  1  0  0  0  0
 12  5  1  0  0  0  0
 13  8  1  0  0  0  0
 16  9  1  0  0  0  0
 18 21  1  0  0  0  0
 18 19  1  0  0  0  0
 19 25  1  0  0  0  0
 19 24  1  0  0  0  0
 20 18  2  0  0  0  0
 22 18  2  0  0  0  0
 23 19  1  0  0  0  0
M  RAD  3   2   2   3   3  21   2
M  END
