Coordinates from ORCA-job 4-MeOPhN2+~TfO-_B3LYPG-6-31G_dp-NX-Scan-d89-09-n800
 OpenBabel11261920223D

 25 24  0  0  0  0  0  0  0  0999 V2000
   -4.3988   -3.0187   -0.3503 C   0  0  0  0  0  0  0  0  0  0  0  0
   -5.1589   -3.6912    0.5720 N   0  0  0  0  0  0  0  0  0  0  0  0
   -5.7058   -4.3814    1.2591 N   0  0  0  0  0  0  0  0  0  0  0  0
   -3.3445   -3.7492   -0.9559 C   0  0  0  0  0  0  0  0  0  0  0  0
   -2.5661   -3.1124   -1.8913 C   0  0  0  0  0  0  0  0  0  0  0  0
   -2.8249   -1.7605   -2.2336 C   0  0  0  0  0  0  0  0  0  0  0  0
   -1.9995   -1.2401   -3.1474 O   0  0  0  0  0  0  0  0  0  0  0  0
   -2.1550    0.1312   -3.5378 C   0  0  0  0  0  0  0  0  0  0  0  0
   -3.8849   -1.0628   -1.6244 C   0  0  0  0  0  0  0  0  0  0  0  0
   -4.6809   -1.6807   -0.6746 C   0  0  0  0  0  0  0  0  0  0  0  0
   -3.1569   -4.7798   -0.6757 H   0  0  0  0  0  0  0  0  0  0  0  0
   -1.7412   -3.6210   -2.3765 H   0  0  0  0  0  0  0  0  0  0  0  0
   -1.3660    0.3168   -4.2655 H   0  0  0  0  0  0  0  0  0  0  0  0
   -2.0311    0.7977   -2.6786 H   0  0  0  0  0  0  0  0  0  0  0  0
   -3.1324    0.2968   -4.0024 H   0  0  0  0  0  0  0  0  0  0  0  0
   -4.0918   -0.0278   -1.8634 H   0  0  0  0  0  0  0  0  0  0  0  0
   -5.4772   -1.1242   -0.1790 H   0  0  0  0  0  0  0  0  0  0  0  0
   -6.2036   -0.3535    2.2091 S   0  0  0  0  0  0  0  0  0  0  0  0
   -4.6210    0.1780    3.0232 C   0  0  0  0  0  0  0  0  0  0  0  0
   -7.2621    0.0311    3.1462 O   0  0  0  0  0  0  0  0  0  0  0  0
   -5.9860   -1.8265    2.0393 O   0  0  0  0  0  0  0  0  0  0  0  0
   -6.1624    0.3662    0.9067 O   0  0  0  0  0  0  0  0  0  0  0  0
   -4.5913    1.5037    3.2119 F   0  0  0  0  0  0  0  0  0  0  0  0
   -4.4579   -0.4244    4.2104 F   0  0  0  0  0  0  0  0  0  0  0  0
   -3.5667   -0.1554    2.2427 F   0  0  0  0  0  0  0  0  0  0  0  0
  1  2  1  0  0  0  0
  2  3  1  0  0  0  0
  4 11  1  0  0  0  0
  4  1  2  0  0  0  0
  5  4  1  0  0  0  0
  6  5  2  0  0  0  0
  6  9  1  0  0  0  0
  7  6  1  0  0  0  0
  8  7  1  0  0  0  0
  8 14  1  0  0  0  0
  9 10  2  0  0  0  0
 10  1  1  0  0  0  0
 10 17  1  0  0  0  0
 12  5  1  0  0  0  0
 13  8  1  0  0  0  0
 15  8  1  0  0  0  0
 16  9  1  0  0  0  0
 18 19  1  0  0  0  0
 18 20  1  0  0  0  0
 19 23  1  0  0  0  0
 19 24  1  0  0  0  0
 21 18  2  0  0  0  0
 22 18  2  0  0  0  0
 25 19  1  0  0  0  0
M  RAD  3   2   2   3   3  20   2
M  END
