Coordinates from ORCA-job 4-MeOPhN2+~TfO-_B3LYPG-6-31G_dp-NX-Scan-d89-09-n800
 OpenBabel11261920223D

 25 24  0  0  0  0  0  0  0  0999 V2000
   -4.2100   -3.0094   -0.4980 C   0  0  0  0  0  0  0  0  0  0  0  0
   -4.8926   -3.5674    0.5518 N   0  0  0  0  0  0  0  0  0  0  0  0
   -5.4568   -3.8845    1.4651 N   0  0  0  0  0  0  0  0  0  0  0  0
   -3.5276   -3.8677   -1.3902 C   0  0  0  0  0  0  0  0  0  0  0  0
   -2.8402   -3.3015   -2.4374 C   0  0  0  0  0  0  0  0  0  0  0  0
   -2.8348   -1.8942   -2.6071 C   0  0  0  0  0  0  0  0  0  0  0  0
   -2.1368   -1.4535   -3.6602 O   0  0  0  0  0  0  0  0  0  0  0  0
   -2.0618   -0.0454   -3.9179 C   0  0  0  0  0  0  0  0  0  0  0  0
   -3.5329   -1.0641   -1.7088 C   0  0  0  0  0  0  0  0  0  0  0  0
   -4.2277   -1.6087   -0.6412 C   0  0  0  0  0  0  0  0  0  0  0  0
   -3.5430   -4.9421   -1.2413 H   0  0  0  0  0  0  0  0  0  0  0  0
   -2.2939   -3.9101   -3.1486 H   0  0  0  0  0  0  0  0  0  0  0  0
   -1.4459    0.0537   -4.8108 H   0  0  0  0  0  0  0  0  0  0  0  0
   -1.5895    0.4807   -3.0820 H   0  0  0  0  0  0  0  0  0  0  0  0
   -3.0561    0.3714   -4.1074 H   0  0  0  0  0  0  0  0  0  0  0  0
   -3.5422    0.0120   -1.8292 H   0  0  0  0  0  0  0  0  0  0  0  0
   -4.7791   -0.9663    0.0555 H   0  0  0  0  0  0  0  0  0  0  0  0
   -5.9295   -0.5185    2.4488 S   0  0  0  0  0  0  0  0  0  0  0  0
   -5.2794    0.5280    3.8380 C   0  0  0  0  0  0  0  0  0  0  0  0
   -7.3477   -0.7368    2.7606 O   0  0  0  0  0  0  0  0  0  0  0  0
   -5.0627   -1.7396    2.5217 O   0  0  0  0  0  0  0  0  0  0  0  0
   -5.6385    0.2949    1.2350 O   0  0  0  0  0  0  0  0  0  0  0  0
   -5.9328    1.6972    3.8893 F   0  0  0  0  0  0  0  0  0  0  0  0
   -5.4344   -0.0991    5.0128 F   0  0  0  0  0  0  0  0  0  0  0  0
   -3.9711    0.7829    3.6657 F   0  0  0  0  0  0  0  0  0  0  0  0
  1  2  1  0  0  0  0
  2  3  1  0  0  0  0
  4 11  1  0  0  0  0
  4  1  2  0  0  0  0
  5  4  1  0  0  0  0
  6  5  2  0  0  0  0
  6  9  1  0  0  0  0
  7  6  1  0  0  0  0
  8  7  1  0  0  0  0
  8 14  1  0  0  0  0
  9 10  2  0  0  0  0
 10  1  1  0  0  0  0
 10 17  1  0  0  0  0
 12  5  1  0  0  0  0
 13  8  1  0  0  0  0
 15  8  1  0  0  0  0
 16  9  1  0  0  0  0
 18 21  2  0  0  0  0
 18 20  1  0  0  0  0
 18 19  1  0  0  0  0
 19 23  1  0  0  0  0
 19 24  1  0  0  0  0
 22 18  2  0  0  0  0
 25 19  1  0  0  0  0
M  RAD  3   2   2   3   3  20   2
M  END
