Coordinates from ORCA-job 4-MeOPhN2+~TfO-_B3LYPG-6-31G_dp-NX-Scan-d89-09-n800
 OpenBabel11261920223D

 25 24  0  0  0  0  0  0  0  0999 V2000
   -4.4196   -3.0130   -0.3242 C   0  0  0  0  0  0  0  0  0  0  0  0
   -5.1853   -3.6923    0.5866 N   0  0  0  0  0  0  0  0  0  0  0  0
   -5.7327   -4.3844    1.2718 N   0  0  0  0  0  0  0  0  0  0  0  0
   -3.3091   -3.7084   -0.8675 C   0  0  0  0  0  0  0  0  0  0  0  0
   -2.5241   -3.0591   -1.7885 C   0  0  0  0  0  0  0  0  0  0  0  0
   -2.8297   -1.7291   -2.1759 C   0  0  0  0  0  0  0  0  0  0  0  0
   -1.9913   -1.1930   -3.0684 O   0  0  0  0  0  0  0  0  0  0  0  0
   -2.1917    0.1606   -3.4988 C   0  0  0  0  0  0  0  0  0  0  0  0
   -3.9442   -1.0662   -1.6283 C   0  0  0  0  0  0  0  0  0  0  0  0
   -4.7486   -1.6982   -0.6960 C   0  0  0  0  0  0  0  0  0  0  0  0
   -3.0857   -4.7214   -0.5524 H   0  0  0  0  0  0  0  0  0  0  0  0
   -1.6574   -3.5397   -2.2269 H   0  0  0  0  0  0  0  0  0  0  0  0
   -1.3819    0.3651   -4.1981 H   0  0  0  0  0  0  0  0  0  0  0  0
   -2.1339    0.8515   -2.6520 H   0  0  0  0  0  0  0  0  0  0  0  0
   -3.1552    0.2701   -4.0068 H   0  0  0  0  0  0  0  0  0  0  0  0
   -4.1851   -0.0462   -1.8975 H   0  0  0  0  0  0  0  0  0  0  0  0
   -5.5819   -1.1681   -0.2385 H   0  0  0  0  0  0  0  0  0  0  0  0
   -6.2011   -0.3067    2.1582 S   0  0  0  0  0  0  0  0  0  0  0  0
   -4.5428    0.0589    2.9121 C   0  0  0  0  0  0  0  0  0  0  0  0
   -7.1781    0.1761    3.1382 O   0  0  0  0  0  0  0  0  0  0  0  0
   -6.1310   -1.7932    1.9767 O   0  0  0  0  0  0  0  0  0  0  0  0
   -6.1380    0.4156    0.8588 O   0  0  0  0  0  0  0  0  0  0  0  0
   -4.3611    1.3745    3.0849 F   0  0  0  0  0  0  0  0  0  0  0  0
   -4.4002   -0.5495    4.0987 F   0  0  0  0  0  0  0  0  0  0  0  0
   -3.5572   -0.3926    2.0981 F   0  0  0  0  0  0  0  0  0  0  0  0
  1  2  1  0  0  0  0
  2  3  1  0  0  0  0
  4 11  1  0  0  0  0
  4  1  2  0  0  0  0
  5  4  1  0  0  0  0
  6  5  2  0  0  0  0
  6  9  1  0  0  0  0
  7  6  1  0  0  0  0
  8  7  1  0  0  0  0
  8 14  1  0  0  0  0
  9 10  2  0  0  0  0
 10  1  1  0  0  0  0
 10 17  1  0  0  0  0
 12  5  1  0  0  0  0
 13  8  1  0  0  0  0
 15  8  1  0  0  0  0
 16  9  1  0  0  0  0
 18 19  1  0  0  0  0
 18 20  1  0  0  0  0
 19 23  1  0  0  0  0
 19 24  1  0  0  0  0
 21 18  2  0  0  0  0
 22 18  2  0  0  0  0
 25 19  1  0  0  0  0
M  RAD  3   2   2   3   3  20   2
M  END
