Coordinates from ORCA-job 4-MeOPhN2+~TfO-_B3LYPG-6-31G_dp-NX-Scan-d89-09-n800
 OpenBabel11261920223D

 25 24  0  0  0  0  0  0  0  0999 V2000
   -3.9541   -2.7986   -0.2916 C   0  0  0  0  0  0  0  0  0  0  0  0
   -4.4392   -3.2151    0.9260 N   0  0  0  0  0  0  0  0  0  0  0  0
   -4.7818   -3.2576    1.9951 N   0  0  0  0  0  0  0  0  0  0  0  0
   -3.9966   -3.6829   -1.3876 C   0  0  0  0  0  0  0  0  0  0  0  0
   -3.5292   -3.2401   -2.6051 C   0  0  0  0  0  0  0  0  0  0  0  0
   -3.0273   -1.9244   -2.7386 C   0  0  0  0  0  0  0  0  0  0  0  0
   -2.6086   -1.5958   -3.9689 O   0  0  0  0  0  0  0  0  0  0  0  0
   -2.1097   -0.2756   -4.2133 C   0  0  0  0  0  0  0  0  0  0  0  0
   -2.9908   -1.0587   -1.6276 C   0  0  0  0  0  0  0  0  0  0  0  0
   -3.4528   -1.4875   -0.3944 C   0  0  0  0  0  0  0  0  0  0  0  0
   -4.3959   -4.6836   -1.2686 H   0  0  0  0  0  0  0  0  0  0  0  0
   -3.5431   -3.8789   -3.4805 H   0  0  0  0  0  0  0  0  0  0  0  0
   -1.8556   -0.2523   -5.2723 H   0  0  0  0  0  0  0  0  0  0  0  0
   -1.2133   -0.0778   -3.6168 H   0  0  0  0  0  0  0  0  0  0  0  0
   -2.8742    0.4785   -4.0002 H   0  0  0  0  0  0  0  0  0  0  0  0
   -2.6136   -0.0484   -1.7158 H   0  0  0  0  0  0  0  0  0  0  0  0
   -3.4435   -0.8388    0.4755 H   0  0  0  0  0  0  0  0  0  0  0  0
   -5.3595   -0.3358    2.3410 S   0  0  0  0  0  0  0  0  0  0  0  0
   -6.0668    0.2001    3.9710 C   0  0  0  0  0  0  0  0  0  0  0  0
   -6.4004   -1.1985    1.7334 O   0  0  0  0  0  0  0  0  0  0  0  0
   -4.1387   -1.1289    2.7334 O   0  0  0  0  0  0  0  0  0  0  0  0
   -5.0360    0.9127    1.6291 O   0  0  0  0  0  0  0  0  0  0  0  0
   -7.1846    0.9133    3.7798 F   0  0  0  0  0  0  0  0  0  0  0  0
   -6.3663   -0.8698    4.7231 F   0  0  0  0  0  0  0  0  0  0  0  0
   -5.1852    0.9560    4.6381 F   0  0  0  0  0  0  0  0  0  0  0  0
  1  2  1  0  0  0  0
  2  3  1  0  0  0  0
  4 11  1  0  0  0  0
  4  1  2  0  0  0  0
  5  4  1  0  0  0  0
  6  5  2  0  0  0  0
  6  9  1  0  0  0  0
  7  6  1  0  0  0  0
  8 15  1  0  0  0  0
  8  7  1  0  0  0  0
  8 14  1  0  0  0  0
  9 10  2  0  0  0  0
 10  1  1  0  0  0  0
 10 17  1  0  0  0  0
 12  5  1  0  0  0  0
 13  8  1  0  0  0  0
 16  9  1  0  0  0  0
 18 21  1  0  0  0  0
 18 19  1  0  0  0  0
 19 25  1  0  0  0  0
 19 24  1  0  0  0  0
 20 18  2  0  0  0  0
 22 18  2  0  0  0  0
 23 19  1  0  0  0  0
M  RAD  3   2   2   3   3  21   2
M  END
