Coordinates from ORCA-job 4-MeOPhN2+~TfO-_B3LYPG-6-31G_dp-NX-Scan-d89-09-n800
 OpenBabel11261920223D

 25 24  0  0  0  0  0  0  0  0999 V2000
   -4.4551   -4.0686   -0.5743 C   0  0  0  0  0  0  0  0  0  0  0  0
   -5.0778   -5.1031    0.0255 N   0  0  0  0  0  0  0  0  0  0  0  0
   -5.5976   -5.9678    0.5233 N   0  0  0  0  0  0  0  0  0  0  0  0
   -3.4158   -4.3523   -1.5089 C   0  0  0  0  0  0  0  0  0  0  0  0
   -2.7749   -3.2972   -2.0988 C   0  0  0  0  0  0  0  0  0  0  0  0
   -3.1485   -1.9590   -1.7742 C   0  0  0  0  0  0  0  0  0  0  0  0
   -2.4442   -1.0106   -2.3649 O   0  0  0  0  0  0  0  0  0  0  0  0
   -2.7018    0.3798   -2.0241 C   0  0  0  0  0  0  0  0  0  0  0  0
   -4.2012   -1.6989   -0.8664 C   0  0  0  0  0  0  0  0  0  0  0  0
   -4.8506   -2.7423   -0.2507 C   0  0  0  0  0  0  0  0  0  0  0  0
   -3.1449   -5.3781   -1.7322 H   0  0  0  0  0  0  0  0  0  0  0  0
   -1.9698   -3.4538   -2.8078 H   0  0  0  0  0  0  0  0  0  0  0  0
   -1.9642    0.9441   -2.5909 H   0  0  0  0  0  0  0  0  0  0  0  0
   -2.5791    0.5333   -0.9505 H   0  0  0  0  0  0  0  0  0  0  0  0
   -3.7164    0.6639   -2.3074 H   0  0  0  0  0  0  0  0  0  0  0  0
   -4.5195   -0.6798   -0.6310 H   0  0  0  0  0  0  0  0  0  0  0  0
   -5.6257   -2.5087    0.4766 H   0  0  0  0  0  0  0  0  0  0  0  0
   -5.6475    0.8134    1.2328 S   0  0  0  0  0  0  0  0  0  0  0  0
   -4.0688    1.0263    2.1927 C   0  0  0  0  0  0  0  0  0  0  0  0
   -6.5635    1.8081    1.7990 O   0  0  0  0  0  0  0  0  0  0  0  0
   -5.9823   -0.6169    1.4741 O   0  0  0  0  0  0  0  0  0  0  0  0
   -5.1791    1.0723   -0.1633 O   0  0  0  0  0  0  0  0  0  0  0  0
   -3.6233    2.2886    2.1306 F   0  0  0  0  0  0  0  0  0  0  0  0
   -4.2184    0.6924    3.4814 F   0  0  0  0  0  0  0  0  0  0  0  0
   -3.0967    0.2266    1.6736 F   0  0  0  0  0  0  0  0  0  0  0  0
  1 10  1  0  0  0  0
  1  2  1  0  0  0  0
  2  3  1  0  0  0  0
  4  1  2  0  0  0  0
  5  6  2  0  0  0  0
  5  4  1  0  0  0  0
  6  9  1  0  0  0  0
  7  8  1  0  0  0  0
  7  6  1  0  0  0  0
  8 14  1  0  0  0  0
  9 16  1  0  0  0  0
  9 10  2  0  0  0  0
 10 17  1  0  0  0  0
 11  4  1  0  0  0  0
 12  5  1  0  0  0  0
 13  8  1  0  0  0  0
 15  8  1  0  0  0  0
 18 21  2  0  0  0  0
 18 20  1  0  0  0  0
 18 19  1  0  0  0  0
 19 24  1  0  0  0  0
 22 18  2  0  0  0  0
 23 19  1  0  0  0  0
 25 19  1  0  0  0  0
M  RAD  3   2   2   3   3  20   2
M  END
