Coordinates from ORCA-job 4-MeOPhN2+~TfO-_B3LYPG-6-31G_dp-NX-Scan-d89-09-n800
 OpenBabel11261920223D

 25 24  0  0  0  0  0  0  0  0999 V2000
   -4.2479   -3.0251   -0.4651 C   0  0  0  0  0  0  0  0  0  0  0  0
   -4.9477   -3.6261    0.5471 N   0  0  0  0  0  0  0  0  0  0  0  0
   -5.5228   -4.1297    1.3609 N   0  0  0  0  0  0  0  0  0  0  0  0
   -3.4704   -3.8583   -1.3062 C   0  0  0  0  0  0  0  0  0  0  0  0
   -2.7662   -3.2717   -2.3296 C   0  0  0  0  0  0  0  0  0  0  0  0
   -2.8321   -1.8688   -2.5270 C   0  0  0  0  0  0  0  0  0  0  0  0
   -2.1073   -1.4070   -3.5512 O   0  0  0  0  0  0  0  0  0  0  0  0
   -2.0950   -0.0004   -3.8301 C   0  0  0  0  0  0  0  0  0  0  0  0
   -3.6196   -1.0660   -1.6794 C   0  0  0  0  0  0  0  0  0  0  0  0
   -4.3353   -1.6308   -0.6370 C   0  0  0  0  0  0  0  0  0  0  0  0
   -3.4303   -4.9291   -1.1369 H   0  0  0  0  0  0  0  0  0  0  0  0
   -2.1509   -3.8604   -3.0001 H   0  0  0  0  0  0  0  0  0  0  0  0
   -1.4421    0.1181   -4.6938 H   0  0  0  0  0  0  0  0  0  0  0  0
   -1.6930    0.5624   -2.9817 H   0  0  0  0  0  0  0  0  0  0  0  0
   -3.0998    0.3585   -4.0749 H   0  0  0  0  0  0  0  0  0  0  0  0
   -3.6803    0.0064   -1.8157 H   0  0  0  0  0  0  0  0  0  0  0  0
   -4.9404   -1.0042    0.0266 H   0  0  0  0  0  0  0  0  0  0  0  0
   -6.0007   -0.4622    2.3675 S   0  0  0  0  0  0  0  0  0  0  0  0
   -5.1170    0.4858    3.6962 C   0  0  0  0  0  0  0  0  0  0  0  0
   -7.3954   -0.5388    2.8187 O   0  0  0  0  0  0  0  0  0  0  0  0
   -5.2639   -1.7649    2.3368 O   0  0  0  0  0  0  0  0  0  0  0  0
   -5.7449    0.3432    1.1400 O   0  0  0  0  0  0  0  0  0  0  0  0
   -5.6369    1.7149    3.8263 F   0  0  0  0  0  0  0  0  0  0  0  0
   -5.2164   -0.1457    4.8754 F   0  0  0  0  0  0  0  0  0  0  0  0
   -3.8109    0.6118    3.3977 F   0  0  0  0  0  0  0  0  0  0  0  0
  1  2  1  0  0  0  0
  2  3  1  0  0  0  0
  4 11  1  0  0  0  0
  4  1  2  0  0  0  0
  5  4  1  0  0  0  0
  6  5  2  0  0  0  0
  6  9  1  0  0  0  0
  7  6  1  0  0  0  0
  8  7  1  0  0  0  0
  8 14  1  0  0  0  0
  9 10  2  0  0  0  0
 10  1  1  0  0  0  0
 10 17  1  0  0  0  0
 12  5  1  0  0  0  0
 13  8  1  0  0  0  0
 15  8  1  0  0  0  0
 16  9  1  0  0  0  0
 18 20  1  0  0  0  0
 18 19  1  0  0  0  0
 19 23  1  0  0  0  0
 19 24  1  0  0  0  0
 21 18  2  0  0  0  0
 22 18  2  0  0  0  0
 25 19  1  0  0  0  0
M  RAD  3   2   2   3   3  20   2
M  END
