Coordinates from ORCA-job 4-MeOPhN2+~TfO-_B3LYPG-6-31G_dp-NX-Scan-d89-09-n800
 OpenBabel11261920223D

 25 24  0  0  0  0  0  0  0  0999 V2000
   -4.2234   -3.0125   -0.4162 C   0  0  0  0  0  0  0  0  0  0  0  0
   -4.9161   -3.6310    0.5924 N   0  0  0  0  0  0  0  0  0  0  0  0
   -5.4564   -4.2201    1.3719 N   0  0  0  0  0  0  0  0  0  0  0  0
   -3.4058   -3.8359   -1.2307 C   0  0  0  0  0  0  0  0  0  0  0  0
   -2.7123   -3.2482   -2.2605 C   0  0  0  0  0  0  0  0  0  0  0  0
   -2.8273   -1.8538   -2.4931 C   0  0  0  0  0  0  0  0  0  0  0  0
   -2.1095   -1.3906   -3.5215 O   0  0  0  0  0  0  0  0  0  0  0  0
   -2.1479    0.0084   -3.8354 C   0  0  0  0  0  0  0  0  0  0  0  0
   -3.6513   -1.0609   -1.6719 C   0  0  0  0  0  0  0  0  0  0  0  0
   -4.3564   -1.6275   -0.6233 C   0  0  0  0  0  0  0  0  0  0  0  0
   -3.3294   -4.9004   -1.0367 H   0  0  0  0  0  0  0  0  0  0  0  0
   -2.0691   -3.8304   -2.9103 H   0  0  0  0  0  0  0  0  0  0  0  0
   -1.4925    0.1302   -4.6967 H   0  0  0  0  0  0  0  0  0  0  0  0
   -1.7746    0.6066   -2.9982 H   0  0  0  0  0  0  0  0  0  0  0  0
   -3.1633    0.3227   -4.0964 H   0  0  0  0  0  0  0  0  0  0  0  0
   -3.7484    0.0057   -1.8306 H   0  0  0  0  0  0  0  0  0  0  0  0
   -4.9838   -1.0077    0.0216 H   0  0  0  0  0  0  0  0  0  0  0  0
   -6.0729   -0.3645    2.2924 S   0  0  0  0  0  0  0  0  0  0  0  0
   -5.0559    0.3817    3.6544 C   0  0  0  0  0  0  0  0  0  0  0  0
   -7.4601   -0.2658    2.7584 O   0  0  0  0  0  0  0  0  0  0  0  0
   -5.5272   -1.7564    2.1944 O   0  0  0  0  0  0  0  0  0  0  0  0
   -5.7075    0.4501    1.1008 O   0  0  0  0  0  0  0  0  0  0  0  0
   -5.3795    1.6696    3.8369 F   0  0  0  0  0  0  0  0  0  0  0  0
   -5.2516   -0.2746    4.8079 F   0  0  0  0  0  0  0  0  0  0  0  0
   -3.7445    0.3168    3.3546 F   0  0  0  0  0  0  0  0  0  0  0  0
  1  2  1  0  0  0  0
  2  3  1  0  0  0  0
  4 11  1  0  0  0  0
  4  1  2  0  0  0  0
  5  4  1  0  0  0  0
  6  5  2  0  0  0  0
  6  9  1  0  0  0  0
  7  6  1  0  0  0  0
  8  7  1  0  0  0  0
  8 14  1  0  0  0  0
  9 10  2  0  0  0  0
 10  1  1  0  0  0  0
 10 17  1  0  0  0  0
 12  5  1  0  0  0  0
 13  8  1  0  0  0  0
 15  8  1  0  0  0  0
 16  9  1  0  0  0  0
 18 20  1  0  0  0  0
 18 19  1  0  0  0  0
 19 23  1  0  0  0  0
 19 24  1  0  0  0  0
 21 18  2  0  0  0  0
 22 18  2  0  0  0  0
 25 19  1  0  0  0  0
M  RAD  3   2   2   3   3  20   2
M  END
