Coordinates from ORCA-job 4-MeOPhN2+~TfO-_B3LYPG-6-31G_dp-NX-Scan-d89-09-n800
 OpenBabel11261920223D

 25 24  0  0  0  0  0  0  0  0999 V2000
   -4.4175   -3.0106   -0.3253 C   0  0  0  0  0  0  0  0  0  0  0  0
   -5.1827   -3.6875    0.5880 N   0  0  0  0  0  0  0  0  0  0  0  0
   -5.7314   -4.3756    1.2759 N   0  0  0  0  0  0  0  0  0  0  0  0
   -3.3109   -3.7093   -0.8720 C   0  0  0  0  0  0  0  0  0  0  0  0
   -2.5262   -3.0622   -1.7950 C   0  0  0  0  0  0  0  0  0  0  0  0
   -2.8287   -1.7312   -2.1811 C   0  0  0  0  0  0  0  0  0  0  0  0
   -1.9911   -1.1975   -3.0759 O   0  0  0  0  0  0  0  0  0  0  0  0
   -2.1886    0.1567   -3.5055 C   0  0  0  0  0  0  0  0  0  0  0  0
   -3.9395   -1.0649   -1.6302 C   0  0  0  0  0  0  0  0  0  0  0  0
   -4.7432   -1.6945   -0.6957 C   0  0  0  0  0  0  0  0  0  0  0  0
   -3.0898   -4.7231   -0.5579 H   0  0  0  0  0  0  0  0  0  0  0  0
   -1.6624   -3.5455   -2.2360 H   0  0  0  0  0  0  0  0  0  0  0  0
   -1.3801    0.3591   -4.2069 H   0  0  0  0  0  0  0  0  0  0  0  0
   -2.1263    0.8474   -2.6587 H   0  0  0  0  0  0  0  0  0  0  0  0
   -3.1531    0.2694   -4.0108 H   0  0  0  0  0  0  0  0  0  0  0  0
   -4.1781   -0.0443   -1.8990 H   0  0  0  0  0  0  0  0  0  0  0  0
   -5.5744   -1.1628   -0.2363 H   0  0  0  0  0  0  0  0  0  0  0  0
   -6.2026   -0.3107    2.1624 S   0  0  0  0  0  0  0  0  0  0  0  0
   -4.5493    0.0640    2.9227 C   0  0  0  0  0  0  0  0  0  0  0  0
   -7.1866    0.1596    3.1413 O   0  0  0  0  0  0  0  0  0  0  0  0
   -6.1215   -1.7961    1.9758 O   0  0  0  0  0  0  0  0  0  0  0  0
   -6.1408    0.4163    0.8658 O   0  0  0  0  0  0  0  0  0  0  0  0
   -4.3783    1.3802    3.1020 F   0  0  0  0  0  0  0  0  0  0  0  0
   -4.4056   -0.5487    4.1070 F   0  0  0  0  0  0  0  0  0  0  0  0
   -3.5583   -0.3763    2.1095 F   0  0  0  0  0  0  0  0  0  0  0  0
  1  2  1  0  0  0  0
  2  3  1  0  0  0  0
  4 11  1  0  0  0  0
  4  1  2  0  0  0  0
  5  4  1  0  0  0  0
  6  5  2  0  0  0  0
  6  9  1  0  0  0  0
  7  6  1  0  0  0  0
  8  7  1  0  0  0  0
  8 14  1  0  0  0  0
  9 10  2  0  0  0  0
 10  1  1  0  0  0  0
 10 17  1  0  0  0  0
 12  5  1  0  0  0  0
 13  8  1  0  0  0  0
 15  8  1  0  0  0  0
 16  9  1  0  0  0  0
 18 19  1  0  0  0  0
 18 20  1  0  0  0  0
 19 23  1  0  0  0  0
 19 24  1  0  0  0  0
 21 18  2  0  0  0  0
 22 18  2  0  0  0  0
 25 19  1  0  0  0  0
M  RAD  3   2   2   3   3  20   2
M  END
