Coordinates from ORCA-job 4-MeOPhN2+~TfO-_B3LYPG-6-31G_dp-NX-Scan-d89-09-n800
 OpenBabel11261920223D

 25 25  0  0  0  0  0  0  0  0999 V2000
   -3.9581   -2.4383   -0.2267 C   0  0  0  0  0  0  0  0  0  0  0  0
   -4.3910   -2.9082    1.0362 N   0  0  0  0  0  0  0  0  0  0  0  0
   -4.5981   -2.2409    2.0678 N   0  0  0  0  0  0  0  0  0  0  0  0
   -3.8177   -3.4949   -1.1546 C   0  0  0  0  0  0  0  0  0  0  0  0
   -3.4009   -3.2714   -2.4523 C   0  0  0  0  0  0  0  0  0  0  0  0
   -3.1068   -1.9632   -2.8739 C   0  0  0  0  0  0  0  0  0  0  0  0
   -2.7047   -1.8353   -4.1624 O   0  0  0  0  0  0  0  0  0  0  0  0
   -2.3887   -0.5385   -4.6549 C   0  0  0  0  0  0  0  0  0  0  0  0
   -3.2410   -0.8990   -1.9705 C   0  0  0  0  0  0  0  0  0  0  0  0
   -3.6610   -1.1295   -0.6621 C   0  0  0  0  0  0  0  0  0  0  0  0
   -4.0495   -4.4976   -0.8116 H   0  0  0  0  0  0  0  0  0  0  0  0
   -3.2919   -4.0844   -3.1619 H   0  0  0  0  0  0  0  0  0  0  0  0
   -2.0874   -0.6791   -5.6933 H   0  0  0  0  0  0  0  0  0  0  0  0
   -1.5612   -0.0870   -4.0948 H   0  0  0  0  0  0  0  0  0  0  0  0
   -3.2589    0.1283   -4.6166 H   0  0  0  0  0  0  0  0  0  0  0  0
   -3.0199    0.1172   -2.2744 H   0  0  0  0  0  0  0  0  0  0  0  0
   -3.7510   -0.2841    0.0024 H   0  0  0  0  0  0  0  0  0  0  0  0
   -4.5933   -0.1401    3.4408 S   0  0  0  0  0  0  0  0  0  0  0  0
   -6.4417   -0.3715    3.7223 C   0  0  0  0  0  0  0  0  0  0  0  0
   -4.4109   -0.9683    1.9641 O   0  0  0  0  0  0  0  0  0  0  0  0
   -3.8802   -0.8286    4.4964 O   0  0  0  0  0  0  0  0  0  0  0  0
   -4.3673    1.2408    3.0644 O   0  0  0  0  0  0  0  0  0  0  0  0
   -7.0884   -0.1429    2.5838 F   0  0  0  0  0  0  0  0  0  0  0  0
   -6.6927   -1.5955    4.1575 F   0  0  0  0  0  0  0  0  0  0  0  0
   -6.8045    0.5235    4.6387 F   0  0  0  0  0  0  0  0  0  0  0  0
  1  2  1  0  0  0  0
  2  3  2  0  0  0  0
  4 11  1  0  0  0  0
  4  1  2  0  0  0  0
  5  4  1  0  0  0  0
  6  5  2  0  0  0  0
  6  9  1  0  0  0  0
  7  6  1  0  0  0  0
  8 15  1  0  0  0  0
  8  7  1  0  0  0  0
  8 14  1  0  0  0  0
  9 10  2  0  0  0  0
 10  1  1  0  0  0  0
 10 17  1  0  0  0  0
 12  5  1  0  0  0  0
 13  8  1  0  0  0  0
 16  9  1  0  0  0  0
 18 19  1  0  0  0  0
 18 21  2  0  0  0  0
 19 24  1  0  0  0  0
 19 25  1  0  0  0  0
 20  3  1  0  0  0  0
 20 18  1  0  0  0  0
 22 18  2  0  0  0  0
 23 19  1  0  0  0  0
M  END
