Coordinates from ORCA-job 4-MeOPhN2+~TfO-_B3LYPG-6-31G_dp-NX-Scan-d89-09-n800
 OpenBabel11261920223D

 25 24  0  0  0  0  0  0  0  0999 V2000
   -4.0856   -4.1485   -0.2740 C   0  0  0  0  0  0  0  0  0  0  0  0
   -4.4839   -5.3891    0.0677 N   0  0  0  0  0  0  0  0  0  0  0  0
   -4.8030   -6.4347    0.3394 N   0  0  0  0  0  0  0  0  0  0  0  0
   -4.9522   -3.3118   -1.0403 C   0  0  0  0  0  0  0  0  0  0  0  0
   -4.5011   -2.0764   -1.4157 C   0  0  0  0  0  0  0  0  0  0  0  0
   -3.2083   -1.6391   -1.0129 C   0  0  0  0  0  0  0  0  0  0  0  0
   -2.8619   -0.4449   -1.4424 O   0  0  0  0  0  0  0  0  0  0  0  0
   -1.7424    0.2561   -0.8781 C   0  0  0  0  0  0  0  0  0  0  0  0
   -2.3732   -2.4661   -0.2093 C   0  0  0  0  0  0  0  0  0  0  0  0
   -2.7994   -3.7197    0.1517 C   0  0  0  0  0  0  0  0  0  0  0  0
   -5.9546   -3.6402   -1.2882 H   0  0  0  0  0  0  0  0  0  0  0  0
   -5.1365   -1.3417   -1.9125 H   0  0  0  0  0  0  0  0  0  0  0  0
   -1.7767    1.2455   -1.3288 H   0  0  0  0  0  0  0  0  0  0  0  0
   -0.7999   -0.2395   -1.1329 H   0  0  0  0  0  0  0  0  0  0  0  0
   -1.8705    0.3400    0.2030 H   0  0  0  0  0  0  0  0  0  0  0  0
   -1.4014   -2.1188    0.1158 H   0  0  0  0  0  0  0  0  0  0  0  0
   -2.1756   -4.3782    0.7462 H   0  0  0  0  0  0  0  0  0  0  0  0
   -6.4614    0.6491   -0.2816 S   0  0  0  0  0  0  0  0  0  0  0  0
   -5.0733    1.1222    0.8790 C   0  0  0  0  0  0  0  0  0  0  0  0
   -7.4024    1.7696   -0.1415 O   0  0  0  0  0  0  0  0  0  0  0  0
   -6.8825   -0.6671    0.2542 O   0  0  0  0  0  0  0  0  0  0  0  0
   -5.7558    0.5594   -1.5918 O   0  0  0  0  0  0  0  0  0  0  0  0
   -4.3328    2.1391    0.3985 F   0  0  0  0  0  0  0  0  0  0  0  0
   -5.5250    1.4711    2.0894 F   0  0  0  0  0  0  0  0  0  0  0  0
   -4.2076    0.0754    1.0692 F   0  0  0  0  0  0  0  0  0  0  0  0
  1  2  1  0  0  0  0
  1 10  2  0  0  0  0
  2  3  1  0  0  0  0
  4  1  1  0  0  0  0
  5  4  2  0  0  0  0
  5  6  1  0  0  0  0
  6  9  2  0  0  0  0
  7  6  1  0  0  0  0
  7  8  1  0  0  0  0
  8 15  1  0  0  0  0
  9 16  1  0  0  0  0
  9 10  1  0  0  0  0
 10 17  1  0  0  0  0
 11  4  1  0  0  0  0
 12  5  1  0  0  0  0
 13  8  1  0  0  0  0
 14  8  1  0  0  0  0
 18 20  2  0  0  0  0
 18 21  1  0  0  0  0
 18 19  1  0  0  0  0
 19 25  1  0  0  0  0
 19 24  1  0  0  0  0
 22 18  2  0  0  0  0
 23 19  1  0  0  0  0
M  RAD  3   2   2   3   3  21   2
M  END
