Coordinates from ORCA-job 4-MeOPhN2+~TfO-_B3LYPG-6-31G_dp-NX-Scan-d89-09-n800
 OpenBabel11261920223D

 25 24  0  0  0  0  0  0  0  0999 V2000
   -4.0832   -2.9124   -0.4396 C   0  0  0  0  0  0  0  0  0  0  0  0
   -4.6797   -3.4068    0.6967 N   0  0  0  0  0  0  0  0  0  0  0  0
   -5.1352   -3.5591    1.7141 N   0  0  0  0  0  0  0  0  0  0  0  0
   -3.7039   -3.8193   -1.4522 C   0  0  0  0  0  0  0  0  0  0  0  0
   -3.1062   -3.3206   -2.5870 C   0  0  0  0  0  0  0  0  0  0  0  0
   -2.8945   -1.9274   -2.7244 C   0  0  0  0  0  0  0  0  0  0  0  0
   -2.3125   -1.5514   -3.8708 O   0  0  0  0  0  0  0  0  0  0  0  0
   -2.0636   -0.1615   -4.1118 C   0  0  0  0  0  0  0  0  0  0  0  0
   -3.2901   -1.0417   -1.7033 C   0  0  0  0  0  0  0  0  0  0  0  0
   -3.8869   -1.5224   -0.5486 C   0  0  0  0  0  0  0  0  0  0  0  0
   -3.8793   -4.8825   -1.3293 H   0  0  0  0  0  0  0  0  0  0  0  0
   -2.7912   -3.9734   -3.3927 H   0  0  0  0  0  0  0  0  0  0  0  0
   -1.5914   -0.1165   -5.0925 H   0  0  0  0  0  0  0  0  0  0  0  0
   -1.3869    0.2526   -3.3571 H   0  0  0  0  0  0  0  0  0  0  0  0
   -2.9987    0.4074   -4.1261 H   0  0  0  0  0  0  0  0  0  0  0  0
   -3.1427    0.0265   -1.7991 H   0  0  0  0  0  0  0  0  0  0  0  0
   -4.2203   -0.8412    0.2366 H   0  0  0  0  0  0  0  0  0  0  0  0
   -5.6934   -0.5148    2.4606 S   0  0  0  0  0  0  0  0  0  0  0  0
   -5.6867    0.4728    4.0336 C   0  0  0  0  0  0  0  0  0  0  0  0
   -7.0551   -1.0601    2.3397 O   0  0  0  0  0  0  0  0  0  0  0  0
   -4.6347   -1.5563    2.7170 O   0  0  0  0  0  0  0  0  0  0  0  0
   -5.2740    0.4546    1.4176 O   0  0  0  0  0  0  0  0  0  0  0  0
   -6.5690    1.4779    3.9507 F   0  0  0  0  0  0  0  0  0  0  0  0
   -6.0176   -0.3031    5.0745 F   0  0  0  0  0  0  0  0  0  0  0  0
   -4.4703    0.9905    4.2577 F   0  0  0  0  0  0  0  0  0  0  0  0
  1  2  1  0  0  0  0
  2  3  1  0  0  0  0
  4 11  1  0  0  0  0
  4  1  2  0  0  0  0
  5  4  1  0  0  0  0
  6  5  2  0  0  0  0
  6  9  1  0  0  0  0
  7  6  1  0  0  0  0
  8  7  1  0  0  0  0
  8 14  1  0  0  0  0
  9 10  2  0  0  0  0
 10  1  1  0  0  0  0
 10 17  1  0  0  0  0
 12  5  1  0  0  0  0
 13  8  1  0  0  0  0
 15  8  1  0  0  0  0
 16  9  1  0  0  0  0
 18 21  1  0  0  0  0
 18 19  1  0  0  0  0
 19 25  1  0  0  0  0
 19 24  1  0  0  0  0
 20 18  2  0  0  0  0
 22 18  2  0  0  0  0
 23 19  1  0  0  0  0
M  RAD  3   2   2   3   3  21   2
M  END
