Coordinates from ORCA-job 4-MeOPhN2+~TfO-_B3LYPG-6-31G_dp-NX-Scan-d89-09-n800
 OpenBabel11261920223D

 25 24  0  0  0  0  0  0  0  0999 V2000
   -4.3983   -2.9622   -0.2858 C   0  0  0  0  0  0  0  0  0  0  0  0
   -5.1532   -3.6296    0.6416 N   0  0  0  0  0  0  0  0  0  0  0  0
   -5.6838   -4.3151    1.3467 N   0  0  0  0  0  0  0  0  0  0  0  0
   -3.2454   -3.6311   -0.7718 C   0  0  0  0  0  0  0  0  0  0  0  0
   -2.4723   -2.9928   -1.7101 C   0  0  0  0  0  0  0  0  0  0  0  0
   -2.8300   -1.6992   -2.1703 C   0  0  0  0  0  0  0  0  0  0  0  0
   -1.9981   -1.1701   -3.0730 O   0  0  0  0  0  0  0  0  0  0  0  0
   -2.2516    0.1493   -3.5759 C   0  0  0  0  0  0  0  0  0  0  0  0
   -3.9833   -1.0611   -1.6773 C   0  0  0  0  0  0  0  0  0  0  0  0
   -4.7771   -1.6839   -0.7303 C   0  0  0  0  0  0  0  0  0  0  0  0
   -2.9830   -4.6156   -0.4017 H   0  0  0  0  0  0  0  0  0  0  0  0
   -1.5758   -3.4536   -2.1077 H   0  0  0  0  0  0  0  0  0  0  0  0
   -1.4380    0.3560   -4.2702 H   0  0  0  0  0  0  0  0  0  0  0  0
   -2.2430    0.8840   -2.7648 H   0  0  0  0  0  0  0  0  0  0  0  0
   -3.2087    0.1875   -4.1058 H   0  0  0  0  0  0  0  0  0  0  0  0
   -4.2607   -0.0654   -1.9968 H   0  0  0  0  0  0  0  0  0  0  0  0
   -5.6361   -1.1756   -0.3051 H   0  0  0  0  0  0  0  0  0  0  0  0
   -6.1786   -0.2212    2.0918 S   0  0  0  0  0  0  0  0  0  0  0  0
   -4.5433   -0.1294    2.9698 C   0  0  0  0  0  0  0  0  0  0  0  0
   -7.1470    0.3553    3.0292 O   0  0  0  0  0  0  0  0  0  0  0  0
   -6.3000   -1.6960    1.8450 O   0  0  0  0  0  0  0  0  0  0  0  0
   -5.9237    0.5350    0.8376 O   0  0  0  0  0  0  0  0  0  0  0  0
   -4.1738    1.1374    3.1957 F   0  0  0  0  0  0  0  0  0  0  0  0
   -4.5809   -0.7778    4.1428 F   0  0  0  0  0  0  0  0  0  0  0  0
   -3.5812   -0.7129    2.2109 F   0  0  0  0  0  0  0  0  0  0  0  0
  1  2  1  0  0  0  0
  2  3  1  0  0  0  0
  4 11  1  0  0  0  0
  4  1  2  0  0  0  0
  5  4  1  0  0  0  0
  6  5  2  0  0  0  0
  6  9  1  0  0  0  0
  7  6  1  0  0  0  0
  8  7  1  0  0  0  0
  8 14  1  0  0  0  0
  9 10  2  0  0  0  0
 10 17  1  0  0  0  0
 10  1  1  0  0  0  0
 12  5  1  0  0  0  0
 13  8  1  0  0  0  0
 15  8  1  0  0  0  0
 16  9  1  0  0  0  0
 18 19  1  0  0  0  0
 18 20  1  0  0  0  0
 19 23  1  0  0  0  0
 19 24  1  0  0  0  0
 21 18  2  0  0  0  0
 22 18  2  0  0  0  0
 25 19  1  0  0  0  0
M  RAD  3   2   2   3   3  20   2
M  END
