Coordinates from ORCA-job 4-MeOPhN2+~TfO-_B3LYPG-6-31G_dp-NX-Scan-d89-09-n800
 OpenBabel11261920223D

 25 24  0  0  0  0  0  0  0  0999 V2000
   -3.8891   -2.8276   -0.2302 C   0  0  0  0  0  0  0  0  0  0  0  0
   -4.3135   -3.2704    0.9988 N   0  0  0  0  0  0  0  0  0  0  0  0
   -4.6026   -3.3483    2.0829 N   0  0  0  0  0  0  0  0  0  0  0  0
   -4.0031   -3.6859   -1.3423 C   0  0  0  0  0  0  0  0  0  0  0  0
   -3.5953   -3.2229   -2.5733 C   0  0  0  0  0  0  0  0  0  0  0  0
   -3.0786   -1.9126   -2.7041 C   0  0  0  0  0  0  0  0  0  0  0  0
   -2.7224   -1.5615   -3.9472 O   0  0  0  0  0  0  0  0  0  0  0  0
   -2.2219   -0.2413   -4.1901 C   0  0  0  0  0  0  0  0  0  0  0  0
   -2.9655   -1.0740   -1.5772 C   0  0  0  0  0  0  0  0  0  0  0  0
   -3.3709   -1.5229   -0.3322 C   0  0  0  0  0  0  0  0  0  0  0  0
   -4.4123   -4.6826   -1.2236 H   0  0  0  0  0  0  0  0  0  0  0  0
   -3.6684   -3.8405   -3.4608 H   0  0  0  0  0  0  0  0  0  0  0  0
   -2.0246   -0.1977   -5.2605 H   0  0  0  0  0  0  0  0  0  0  0  0
   -1.2926   -0.0659   -3.6387 H   0  0  0  0  0  0  0  0  0  0  0  0
   -2.9657    0.5154   -3.9204 H   0  0  0  0  0  0  0  0  0  0  0  0
   -2.5768   -0.0680   -1.6629 H   0  0  0  0  0  0  0  0  0  0  0  0
   -3.3027   -0.8885    0.5447 H   0  0  0  0  0  0  0  0  0  0  0  0
   -5.2263   -0.3201    2.3001 S   0  0  0  0  0  0  0  0  0  0  0  0
   -6.1460    0.1988    3.8265 C   0  0  0  0  0  0  0  0  0  0  0  0
   -6.2149   -1.0599    1.4850 O   0  0  0  0  0  0  0  0  0  0  0  0
   -4.1424   -1.2237    2.8377 O   0  0  0  0  0  0  0  0  0  0  0  0
   -4.6940    0.9279    1.7245 O   0  0  0  0  0  0  0  0  0  0  0  0
   -7.1642    1.0071    3.5013 F   0  0  0  0  0  0  0  0  0  0  0  0
   -6.6402   -0.8754    4.4599 F   0  0  0  0  0  0  0  0  0  0  0  0
   -5.3328    0.8521    4.6662 F   0  0  0  0  0  0  0  0  0  0  0  0
  1  2  1  0  0  0  0
  2  3  1  0  0  0  0
  4 11  1  0  0  0  0
  4  1  2  0  0  0  0
  5  4  1  0  0  0  0
  6  5  2  0  0  0  0
  6  9  1  0  0  0  0
  7  6  1  0  0  0  0
  8  7  1  0  0  0  0
  8 15  1  0  0  0  0
  8 14  1  0  0  0  0
  9 10  2  0  0  0  0
 10  1  1  0  0  0  0
 10 17  1  0  0  0  0
 12  5  1  0  0  0  0
 13  8  1  0  0  0  0
 16  9  1  0  0  0  0
 18 21  1  0  0  0  0
 18 19  1  0  0  0  0
 19 24  1  0  0  0  0
 19 25  1  0  0  0  0
 20 18  2  0  0  0  0
 22 18  2  0  0  0  0
 23 19  1  0  0  0  0
M  RAD  3   2   2   3   3  21   2
M  END
