Coordinates from ORCA-job 4-MeOPhN2+~TfO-_B3LYPG-6-31G_dp-NX-Scan-d89-09-n800
 OpenBabel11261920223D

 25 24  0  0  0  0  0  0  0  0999 V2000
   -4.7017   -3.6170   -0.5392 C   0  0  0  0  0  0  0  0  0  0  0  0
   -5.4862   -4.4677    0.1547 N   0  0  0  0  0  0  0  0  0  0  0  0
   -6.1397   -5.1724    0.7351 N   0  0  0  0  0  0  0  0  0  0  0  0
   -3.4348   -4.0691   -1.0054 C   0  0  0  0  0  0  0  0  0  0  0  0
   -2.6190   -3.1606   -1.6237 C   0  0  0  0  0  0  0  0  0  0  0  0
   -3.0308   -1.8018   -1.7617 C   0  0  0  0  0  0  0  0  0  0  0  0
   -2.1271   -0.9931   -2.3063 O   0  0  0  0  0  0  0  0  0  0  0  0
   -2.3899    0.4245   -2.3491 C   0  0  0  0  0  0  0  0  0  0  0  0
   -4.3038   -1.3877   -1.3318 C   0  0  0  0  0  0  0  0  0  0  0  0
   -5.1437   -2.2829   -0.7030 C   0  0  0  0  0  0  0  0  0  0  0  0
   -3.1292   -5.0985   -0.8562 H   0  0  0  0  0  0  0  0  0  0  0  0
   -1.6370   -3.4407   -1.9860 H   0  0  0  0  0  0  0  0  0  0  0  0
   -1.4793    0.8711   -2.7456 H   0  0  0  0  0  0  0  0  0  0  0  0
   -2.5952    0.7997   -1.3440 H   0  0  0  0  0  0  0  0  0  0  0  0
   -3.2307    0.6399   -3.0149 H   0  0  0  0  0  0  0  0  0  0  0  0
   -4.6373   -0.3596   -1.3779 H   0  0  0  0  0  0  0  0  0  0  0  0
   -6.0932   -1.9459   -0.3131 H   0  0  0  0  0  0  0  0  0  0  0  0
   -5.7040   -0.0540    1.7458 S   0  0  0  0  0  0  0  0  0  0  0  0
   -4.0120    0.6959    1.9542 C   0  0  0  0  0  0  0  0  0  0  0  0
   -6.4894    0.5413    2.8324 O   0  0  0  0  0  0  0  0  0  0  0  0
   -5.4276   -1.5175    1.8637 O   0  0  0  0  0  0  0  0  0  0  0  0
   -6.0695    0.3558    0.3618 O   0  0  0  0  0  0  0  0  0  0  0  0
   -4.0527    2.0308    1.8452 F   0  0  0  0  0  0  0  0  0  0  0  0
   -3.4743    0.3809    3.1386 F   0  0  0  0  0  0  0  0  0  0  0  0
   -3.1587    0.2404    0.9907 F   0  0  0  0  0  0  0  0  0  0  0  0
  1  2  1  0  0  0  0
  2  3  1  0  0  0  0
  4 11  1  0  0  0  0
  4  1  2  0  0  0  0
  5  4  1  0  0  0  0
  6  5  2  0  0  0  0
  6  9  1  0  0  0  0
  7  6  1  0  0  0  0
  8  7  1  0  0  0  0
  8 14  1  0  0  0  0
  9 10  2  0  0  0  0
 10  1  1  0  0  0  0
 10 17  1  0  0  0  0
 12  5  1  0  0  0  0
 13  8  1  0  0  0  0
 15  8  1  0  0  0  0
 16  9  1  0  0  0  0
 18 21  2  0  0  0  0
 18 19  1  0  0  0  0
 18 20  1  0  0  0  0
 19 24  1  0  0  0  0
 22 18  2  0  0  0  0
 23 19  1  0  0  0  0
 25 19  1  0  0  0  0
M  RAD  3   2   2   3   3  20   2
M  END
