Coordinates from ORCA-job 4-MeOPhN2+~TfO-_B3LYPG-6-31G_dp-NX-Scan-d89-09-n800
 OpenBabel11261920223D

 25 24  0  0  0  0  0  0  0  0999 V2000
   -4.7128   -3.5796   -0.5306 C   0  0  0  0  0  0  0  0  0  0  0  0
   -5.5010   -4.4081    0.1859 N   0  0  0  0  0  0  0  0  0  0  0  0
   -6.1577   -5.0925    0.7859 N   0  0  0  0  0  0  0  0  0  0  0  0
   -3.4405   -4.0417   -0.9695 C   0  0  0  0  0  0  0  0  0  0  0  0
   -2.6161   -3.1469   -1.5970 C   0  0  0  0  0  0  0  0  0  0  0  0
   -3.0246   -1.7913   -1.7682 C   0  0  0  0  0  0  0  0  0  0  0  0
   -2.1113   -0.9937   -2.3143 O   0  0  0  0  0  0  0  0  0  0  0  0
   -2.3683    0.4234   -2.3816 C   0  0  0  0  0  0  0  0  0  0  0  0
   -4.3039   -1.3685   -1.3663 C   0  0  0  0  0  0  0  0  0  0  0  0
   -5.1524   -2.2502   -0.7301 C   0  0  0  0  0  0  0  0  0  0  0  0
   -3.1363   -5.0669   -0.7920 H   0  0  0  0  0  0  0  0  0  0  0  0
   -1.6293   -3.4347   -1.9396 H   0  0  0  0  0  0  0  0  0  0  0  0
   -1.4497    0.8618   -2.7690 H   0  0  0  0  0  0  0  0  0  0  0  0
   -2.5885    0.8138   -1.3854 H   0  0  0  0  0  0  0  0  0  0  0  0
   -3.1969    0.6328   -3.0646 H   0  0  0  0  0  0  0  0  0  0  0  0
   -4.6336   -0.3412   -1.4409 H   0  0  0  0  0  0  0  0  0  0  0  0
   -6.1074   -1.9038   -0.3621 H   0  0  0  0  0  0  0  0  0  0  0  0
   -5.7042   -0.1171    1.7685 S   0  0  0  0  0  0  0  0  0  0  0  0
   -4.0228    0.6629    1.9510 C   0  0  0  0  0  0  0  0  0  0  0  0
   -6.4735    0.4399    2.8865 O   0  0  0  0  0  0  0  0  0  0  0  0
   -5.3963   -1.5772    1.8498 O   0  0  0  0  0  0  0  0  0  0  0  0
   -6.1120    0.3116    0.4024 O   0  0  0  0  0  0  0  0  0  0  0  0
   -4.0937    1.9984    1.8714 F   0  0  0  0  0  0  0  0  0  0  0  0
   -3.4502    0.3351    3.1157 F   0  0  0  0  0  0  0  0  0  0  0  0
   -3.1839    0.2453    0.9585 F   0  0  0  0  0  0  0  0  0  0  0  0
  1  2  1  0  0  0  0
  2  3  1  0  0  0  0
  4 11  1  0  0  0  0
  4  1  2  0  0  0  0
  5  4  1  0  0  0  0
  6  5  2  0  0  0  0
  6  9  1  0  0  0  0
  7  6  1  0  0  0  0
  8  7  1  0  0  0  0
  8 14  1  0  0  0  0
  9 10  2  0  0  0  0
 10  1  1  0  0  0  0
 10 17  1  0  0  0  0
 12  5  1  0  0  0  0
 13  8  1  0  0  0  0
 15  8  1  0  0  0  0
 16  9  1  0  0  0  0
 18 21  2  0  0  0  0
 18 19  1  0  0  0  0
 18 20  1  0  0  0  0
 19 24  1  0  0  0  0
 22 18  2  0  0  0  0
 23 19  1  0  0  0  0
 25 19  1  0  0  0  0
M  RAD  3   2   2   3   3  20   2
M  END
