Coordinates from ORCA-job 4-MeOPhN2+~TfO-_B3LYPG-6-31G_dp-NX-Scan-d89-09-n800
 OpenBabel11261920223D

 25 24  0  0  0  0  0  0  0  0999 V2000
   -4.4687   -4.0363   -0.5841 C   0  0  0  0  0  0  0  0  0  0  0  0
   -5.1161   -5.0395    0.0417 N   0  0  0  0  0  0  0  0  0  0  0  0
   -5.6735   -5.8556    0.5780 N   0  0  0  0  0  0  0  0  0  0  0  0
   -3.4248   -4.3464   -1.5039 C   0  0  0  0  0  0  0  0  0  0  0  0
   -2.7672   -3.3050   -2.1018 C   0  0  0  0  0  0  0  0  0  0  0  0
   -3.1281   -1.9584   -1.7967 C   0  0  0  0  0  0  0  0  0  0  0  0
   -2.4053   -1.0218   -2.3877 O   0  0  0  0  0  0  0  0  0  0  0  0
   -2.6577    0.3709   -2.0585 C   0  0  0  0  0  0  0  0  0  0  0  0
   -4.1862   -1.6749   -0.9055 C   0  0  0  0  0  0  0  0  0  0  0  0
   -4.8531   -2.7034   -0.2838 C   0  0  0  0  0  0  0  0  0  0  0  0
   -3.1619   -5.3778   -1.7101 H   0  0  0  0  0  0  0  0  0  0  0  0
   -1.9567   -3.4797   -2.8003 H   0  0  0  0  0  0  0  0  0  0  0  0
   -1.9058    0.9282   -2.6134 H   0  0  0  0  0  0  0  0  0  0  0  0
   -2.5534    0.5307   -0.9833 H   0  0  0  0  0  0  0  0  0  0  0  0
   -3.6639    0.6620   -2.3657 H   0  0  0  0  0  0  0  0  0  0  0  0
   -4.4980   -0.6520   -0.6751 H   0  0  0  0  0  0  0  0  0  0  0  0
   -5.6267   -2.4502    0.4395 H   0  0  0  0  0  0  0  0  0  0  0  0
   -5.6698    0.7262    1.2886 S   0  0  0  0  0  0  0  0  0  0  0  0
   -4.0804    1.0345    2.2031 C   0  0  0  0  0  0  0  0  0  0  0  0
   -6.6316    1.6614    1.8773 O   0  0  0  0  0  0  0  0  0  0  0  0
   -5.9152   -0.7196    1.5471 O   0  0  0  0  0  0  0  0  0  0  0  0
   -5.2563    1.0085   -0.1201 O   0  0  0  0  0  0  0  0  0  0  0  0
   -3.7099    2.3196    2.1195 F   0  0  0  0  0  0  0  0  0  0  0  0
   -4.1762    0.7039    3.4975 F   0  0  0  0  0  0  0  0  0  0  0  0
   -3.0805    0.2866    1.6620 F   0  0  0  0  0  0  0  0  0  0  0  0
  1 10  1  0  0  0  0
  1  2  1  0  0  0  0
  2  3  1  0  0  0  0
  4  1  2  0  0  0  0
  5  6  2  0  0  0  0
  5  4  1  0  0  0  0
  6  9  1  0  0  0  0
  7  8  1  0  0  0  0
  7  6  1  0  0  0  0
  8 14  1  0  0  0  0
  9 16  1  0  0  0  0
  9 10  2  0  0  0  0
 10 17  1  0  0  0  0
 11  4  1  0  0  0  0
 12  5  1  0  0  0  0
 13  8  1  0  0  0  0
 15  8  1  0  0  0  0
 18 21  2  0  0  0  0
 18 20  1  0  0  0  0
 18 19  1  0  0  0  0
 19 24  1  0  0  0  0
 22 18  2  0  0  0  0
 23 19  1  0  0  0  0
 25 19  1  0  0  0  0
M  RAD  3   2   2   3   3  20   2
M  END
