Coordinates from ORCA-job 4-MeOPhN2+~TfO-_B3LYPG-6-31G_dp-NX-Scan-d89-09-n800
 OpenBabel11261920223D

 25 24  0  0  0  0  0  0  0  0999 V2000
   -4.7113   -3.5016   -0.5113 C   0  0  0  0  0  0  0  0  0  0  0  0
   -5.4962   -4.2801    0.2660 N   0  0  0  0  0  0  0  0  0  0  0  0
   -6.1463   -4.9200    0.9173 N   0  0  0  0  0  0  0  0  0  0  0  0
   -3.4483   -3.9965   -0.9354 C   0  0  0  0  0  0  0  0  0  0  0  0
   -2.6137   -3.1361   -1.5992 C   0  0  0  0  0  0  0  0  0  0  0  0
   -3.0029   -1.7827   -1.8149 C   0  0  0  0  0  0  0  0  0  0  0  0
   -2.0763   -1.0119   -2.3793 O   0  0  0  0  0  0  0  0  0  0  0  0
   -2.3072    0.4075   -2.4670 C   0  0  0  0  0  0  0  0  0  0  0  0
   -4.2787   -1.3316   -1.4310 C   0  0  0  0  0  0  0  0  0  0  0  0
   -5.1385   -2.1796   -0.7657 C   0  0  0  0  0  0  0  0  0  0  0  0
   -3.1541   -5.0166   -0.7167 H   0  0  0  0  0  0  0  0  0  0  0  0
   -1.6309   -3.4487   -1.9312 H   0  0  0  0  0  0  0  0  0  0  0  0
   -1.3771    0.8260   -2.8488 H   0  0  0  0  0  0  0  0  0  0  0  0
   -2.5312    0.8150   -1.4778 H   0  0  0  0  0  0  0  0  0  0  0  0
   -3.1242    0.6246   -3.1618 H   0  0  0  0  0  0  0  0  0  0  0  0
   -4.5937   -0.3041   -1.5511 H   0  0  0  0  0  0  0  0  0  0  0  0
   -6.0861   -1.8032   -0.4050 H   0  0  0  0  0  0  0  0  0  0  0  0
   -5.7476   -0.2198    1.8365 S   0  0  0  0  0  0  0  0  0  0  0  0
   -4.0809    0.5996    1.9792 C   0  0  0  0  0  0  0  0  0  0  0  0
   -6.4933    0.2994    2.9882 O   0  0  0  0  0  0  0  0  0  0  0  0
   -5.4025   -1.6731    1.8801 O   0  0  0  0  0  0  0  0  0  0  0  0
   -6.2091    0.2218    0.4913 O   0  0  0  0  0  0  0  0  0  0  0  0
   -4.1909    1.9343    1.9434 F   0  0  0  0  0  0  0  0  0  0  0  0
   -3.4574    0.2543    3.1130 F   0  0  0  0  0  0  0  0  0  0  0  0
   -3.2686    0.2347    0.9458 F   0  0  0  0  0  0  0  0  0  0  0  0
  1  2  1  0  0  0  0
  2  3  1  0  0  0  0
  4 11  1  0  0  0  0
  4  1  2  0  0  0  0
  5  4  1  0  0  0  0
  6  5  2  0  0  0  0
  6  9  1  0  0  0  0
  7  6  1  0  0  0  0
  8  7  1  0  0  0  0
  8 14  1  0  0  0  0
  9 10  2  0  0  0  0
 10  1  1  0  0  0  0
 10 17  1  0  0  0  0
 12  5  1  0  0  0  0
 13  8  1  0  0  0  0
 15  8  1  0  0  0  0
 16  9  1  0  0  0  0
 18 21  2  0  0  0  0
 18 19  1  0  0  0  0
 18 20  1  0  0  0  0
 19 24  1  0  0  0  0
 22 18  2  0  0  0  0
 23 19  1  0  0  0  0
 25 19  1  0  0  0  0
M  RAD  3   2   2   3   3  20   2
M  END
