Coordinates from ORCA-job 4-MeOPhN2+~TfO-_B3LYPG-6-31G_dp-NX-Scan-d89-09-n800
 OpenBabel11261920223D

 25 24  0  0  0  0  0  0  0  0999 V2000
   -4.3978   -3.0189   -0.3511 C   0  0  0  0  0  0  0  0  0  0  0  0
   -5.1578   -3.6899    0.5722 N   0  0  0  0  0  0  0  0  0  0  0  0
   -5.7070   -4.3755    1.2620 N   0  0  0  0  0  0  0  0  0  0  0  0
   -3.3448   -3.7501   -0.9578 C   0  0  0  0  0  0  0  0  0  0  0  0
   -2.5666   -3.1135   -1.8937 C   0  0  0  0  0  0  0  0  0  0  0  0
   -2.8244   -1.7614   -2.2352 C   0  0  0  0  0  0  0  0  0  0  0  0
   -1.9993   -1.2413   -3.1496 O   0  0  0  0  0  0  0  0  0  0  0  0
   -2.1540    0.1303   -3.5395 C   0  0  0  0  0  0  0  0  0  0  0  0
   -3.8834   -1.0629   -1.6250 C   0  0  0  0  0  0  0  0  0  0  0  0
   -4.6791   -1.6805   -0.6748 C   0  0  0  0  0  0  0  0  0  0  0  0
   -3.1577   -4.7809   -0.6782 H   0  0  0  0  0  0  0  0  0  0  0  0
   -1.7425   -3.6226   -2.3799 H   0  0  0  0  0  0  0  0  0  0  0  0
   -1.3654    0.3154   -4.2677 H   0  0  0  0  0  0  0  0  0  0  0  0
   -2.0288    0.7964   -2.6801 H   0  0  0  0  0  0  0  0  0  0  0  0
   -3.1317    0.2968   -4.0032 H   0  0  0  0  0  0  0  0  0  0  0  0
   -4.0897   -0.0277   -1.8638 H   0  0  0  0  0  0  0  0  0  0  0  0
   -5.4749   -1.1242   -0.1784 H   0  0  0  0  0  0  0  0  0  0  0  0
   -6.2040   -0.3543    2.2106 S   0  0  0  0  0  0  0  0  0  0  0  0
   -4.6232    0.1797    3.0264 C   0  0  0  0  0  0  0  0  0  0  0  0
   -7.2642    0.0259    3.1476 O   0  0  0  0  0  0  0  0  0  0  0  0
   -5.9829   -1.8269    2.0390 O   0  0  0  0  0  0  0  0  0  0  0  0
   -6.1639    0.3666    0.9090 O   0  0  0  0  0  0  0  0  0  0  0  0
   -4.5968    1.5052    3.2170 F   0  0  0  0  0  0  0  0  0  0  0  0
   -4.4594   -0.4240    4.2128 F   0  0  0  0  0  0  0  0  0  0  0  0
   -3.5678   -0.1501    2.2459 F   0  0  0  0  0  0  0  0  0  0  0  0
  1  2  1  0  0  0  0
  2  3  1  0  0  0  0
  4 11  1  0  0  0  0
  4  1  2  0  0  0  0
  5  4  1  0  0  0  0
  6  5  2  0  0  0  0
  6  9  1  0  0  0  0
  7  6  1  0  0  0  0
  8  7  1  0  0  0  0
  8 14  1  0  0  0  0
  9 10  2  0  0  0  0
 10  1  1  0  0  0  0
 10 17  1  0  0  0  0
 12  5  1  0  0  0  0
 13  8  1  0  0  0  0
 15  8  1  0  0  0  0
 16  9  1  0  0  0  0
 18 19  1  0  0  0  0
 18 20  1  0  0  0  0
 19 23  1  0  0  0  0
 19 24  1  0  0  0  0
 21 18  2  0  0  0  0
 22 18  2  0  0  0  0
 25 19  1  0  0  0  0
M  RAD  3   2   2   3   3  20   2
M  END
