Coordinates from ORCA-job 4-MeOPhN2+~TfO-_B3LYPG-6-31G_dp-NX-Scan-d89-09-n800
 OpenBabel11261920223D

 25 24  0  0  0  0  0  0  0  0999 V2000
   -4.7158   -3.5343   -0.5194 C   0  0  0  0  0  0  0  0  0  0  0  0
   -5.5040   -4.3345    0.2299 N   0  0  0  0  0  0  0  0  0  0  0  0
   -6.1576   -4.9950    0.8578 N   0  0  0  0  0  0  0  0  0  0  0  0
   -3.4461   -4.0138   -0.9440 C   0  0  0  0  0  0  0  0  0  0  0  0
   -2.6144   -3.1383   -1.5902 C   0  0  0  0  0  0  0  0  0  0  0  0
   -3.0133   -1.7846   -1.7905 C   0  0  0  0  0  0  0  0  0  0  0  0
   -2.0914   -1.0019   -2.3453 O   0  0  0  0  0  0  0  0  0  0  0  0
   -2.3351    0.4161   -2.4280 C   0  0  0  0  0  0  0  0  0  0  0  0
   -4.2928   -1.3469   -1.4047 C   0  0  0  0  0  0  0  0  0  0  0  0
   -5.1488   -2.2096   -0.7534 C   0  0  0  0  0  0  0  0  0  0  0  0
   -3.1471   -5.0356   -0.7402 H   0  0  0  0  0  0  0  0  0  0  0  0
   -1.6280   -3.4393   -1.9224 H   0  0  0  0  0  0  0  0  0  0  0  0
   -1.4090    0.8435   -2.8097 H   0  0  0  0  0  0  0  0  0  0  0  0
   -2.5617    0.8180   -1.4374 H   0  0  0  0  0  0  0  0  0  0  0  0
   -3.1547    0.6276   -3.1213 H   0  0  0  0  0  0  0  0  0  0  0  0
   -4.6147   -0.3197   -1.5077 H   0  0  0  0  0  0  0  0  0  0  0  0
   -6.1020   -1.8473   -0.3950 H   0  0  0  0  0  0  0  0  0  0  0  0
   -5.7229   -0.1807    1.8048 S   0  0  0  0  0  0  0  0  0  0  0  0
   -4.0514    0.6260    1.9620 C   0  0  0  0  0  0  0  0  0  0  0  0
   -6.4769    0.3486    2.9462 O   0  0  0  0  0  0  0  0  0  0  0  0
   -5.3891   -1.6363    1.8595 O   0  0  0  0  0  0  0  0  0  0  0  0
   -6.1668    0.2583    0.4530 O   0  0  0  0  0  0  0  0  0  0  0  0
   -4.1488    1.9613    1.9109 F   0  0  0  0  0  0  0  0  0  0  0  0
   -3.4458    0.2867    3.1068 F   0  0  0  0  0  0  0  0  0  0  0  0
   -3.2288    0.2434    0.9426 F   0  0  0  0  0  0  0  0  0  0  0  0
  1  2  1  0  0  0  0
  2  3  1  0  0  0  0
  4 11  1  0  0  0  0
  4  1  2  0  0  0  0
  5  4  1  0  0  0  0
  6  5  2  0  0  0  0
  6  9  1  0  0  0  0
  7  6  1  0  0  0  0
  8  7  1  0  0  0  0
  8 14  1  0  0  0  0
  9 10  2  0  0  0  0
 10  1  1  0  0  0  0
 10 17  1  0  0  0  0
 12  5  1  0  0  0  0
 13  8  1  0  0  0  0
 15  8  1  0  0  0  0
 16  9  1  0  0  0  0
 18 21  2  0  0  0  0
 18 19  1  0  0  0  0
 18 20  1  0  0  0  0
 19 24  1  0  0  0  0
 22 18  2  0  0  0  0
 23 19  1  0  0  0  0
 25 19  1  0  0  0  0
M  RAD  3   2   2   3   3  20   2
M  END
