Coordinates from ORCA-job 4-MeOPhN2+~TfO-_B3LYPG-6-31G_dp-NX-Scan-d89-09-n800
 OpenBabel11261920223D

 25 24  0  0  0  0  0  0  0  0999 V2000
   -4.4614   -2.7263   -0.5268 C   0  0  0  0  0  0  0  0  0  0  0  0
   -5.2514   -3.1571    0.5089 N   0  0  0  0  0  0  0  0  0  0  0  0
   -5.9259   -3.4135    1.3701 N   0  0  0  0  0  0  0  0  0  0  0  0
   -3.8146   -3.7062   -1.3119 C   0  0  0  0  0  0  0  0  0  0  0  0
   -3.0210   -3.2945   -2.3576 C   0  0  0  0  0  0  0  0  0  0  0  0
   -2.8691   -1.9147   -2.6318 C   0  0  0  0  0  0  0  0  0  0  0  0
   -2.0734   -1.6249   -3.6703 O   0  0  0  0  0  0  0  0  0  0  0  0
   -1.8426   -0.2557   -4.0204 C   0  0  0  0  0  0  0  0  0  0  0  0
   -3.5295   -0.9543   -1.8416 C   0  0  0  0  0  0  0  0  0  0  0  0
   -4.3262   -1.3470   -0.7786 C   0  0  0  0  0  0  0  0  0  0  0  0
   -3.9419   -4.7588   -1.0842 H   0  0  0  0  0  0  0  0  0  0  0  0
   -2.4997   -4.0079   -2.9850 H   0  0  0  0  0  0  0  0  0  0  0  0
   -1.1690   -0.2837   -4.8763 H   0  0  0  0  0  0  0  0  0  0  0  0
   -1.3684    0.2859   -3.1950 H   0  0  0  0  0  0  0  0  0  0  0  0
   -2.7768    0.2400   -4.3044 H   0  0  0  0  0  0  0  0  0  0  0  0
   -3.4190    0.1038   -2.0401 H   0  0  0  0  0  0  0  0  0  0  0  0
   -4.8247   -0.6082   -0.1545 H   0  0  0  0  0  0  0  0  0  0  0  0
   -5.4304   -0.5291    2.4125 S   0  0  0  0  0  0  0  0  0  0  0  0
   -5.4283    0.2687    4.0890 C   0  0  0  0  0  0  0  0  0  0  0  0
   -6.5604   -1.5125    2.4818 O   0  0  0  0  0  0  0  0  0  0  0  0
   -4.1058   -1.1836    2.2921 O   0  0  0  0  0  0  0  0  0  0  0  0
   -5.6558    0.5845    1.4621 O   0  0  0  0  0  0  0  0  0  0  0  0
   -6.5887    0.8986    4.3116 F   0  0  0  0  0  0  0  0  0  0  0  0
   -5.2505   -0.6541    5.0444 F   0  0  0  0  0  0  0  0  0  0  0  0
   -4.4325    1.1622    4.1702 F   0  0  0  0  0  0  0  0  0  0  0  0
  1  2  1  0  0  0  0
  2  3  1  0  0  0  0
  4 11  1  0  0  0  0
  4  1  2  0  0  0  0
  5  4  1  0  0  0  0
  6  5  2  0  0  0  0
  6  9  1  0  0  0  0
  7  6  1  0  0  0  0
  8  7  1  0  0  0  0
  8 14  1  0  0  0  0
  9 10  2  0  0  0  0
 10  1  1  0  0  0  0
 10 17  1  0  0  0  0
 12  5  1  0  0  0  0
 13  8  1  0  0  0  0
 15  8  1  0  0  0  0
 16  9  1  0  0  0  0
 18 20  1  0  0  0  0
 18 19  1  0  0  0  0
 19 25  1  0  0  0  0
 19 23  1  0  0  0  0
 19 24  1  0  0  0  0
 21 18  2  0  0  0  0
 22 18  2  0  0  0  0
M  RAD  3   2   2   3   3  20   2
M  END
