Coordinates from ORCA-job 4-MeOPhN2+~TfO-_B3LYPG-6-31G_dp-NX-Scan-d89-09-n800
 OpenBabel11261920223D

 25 24  0  0  0  0  0  0  0  0999 V2000
   -4.4210   -3.0151   -0.3235 C   0  0  0  0  0  0  0  0  0  0  0  0
   -5.1869   -3.6970    0.5851 N   0  0  0  0  0  0  0  0  0  0  0  0
   -5.7324   -4.3938    1.2671 N   0  0  0  0  0  0  0  0  0  0  0  0
   -3.3078   -3.7081   -0.8649 C   0  0  0  0  0  0  0  0  0  0  0  0
   -2.5227   -3.0571   -1.7844 C   0  0  0  0  0  0  0  0  0  0  0  0
   -2.8306   -1.7277   -2.1723 C   0  0  0  0  0  0  0  0  0  0  0  0
   -1.9919   -1.1898   -3.0632 O   0  0  0  0  0  0  0  0  0  0  0  0
   -2.1942    0.1635   -3.4937 C   0  0  0  0  0  0  0  0  0  0  0  0
   -3.9473   -1.0672   -1.6265 C   0  0  0  0  0  0  0  0  0  0  0  0
   -4.7520   -1.7010   -0.6957 C   0  0  0  0  0  0  0  0  0  0  0  0
   -3.0829   -4.7207   -0.5495 H   0  0  0  0  0  0  0  0  0  0  0  0
   -1.6543   -3.5359   -2.2214 H   0  0  0  0  0  0  0  0  0  0  0  0
   -1.3837    0.3698   -4.1917 H   0  0  0  0  0  0  0  0  0  0  0  0
   -2.1392    0.8544   -2.6467 H   0  0  0  0  0  0  0  0  0  0  0  0
   -3.1572    0.2712   -4.0032 H   0  0  0  0  0  0  0  0  0  0  0  0
   -4.1898   -0.0475   -1.8954 H   0  0  0  0  0  0  0  0  0  0  0  0
   -5.5864   -1.1717   -0.2393 H   0  0  0  0  0  0  0  0  0  0  0  0
   -6.2001   -0.3032    2.1551 S   0  0  0  0  0  0  0  0  0  0  0  0
   -4.5384    0.0561    2.9049 C   0  0  0  0  0  0  0  0  0  0  0  0
   -7.1721    0.1905    3.1348 O   0  0  0  0  0  0  0  0  0  0  0  0
   -6.1383   -1.7906    1.9788 O   0  0  0  0  0  0  0  0  0  0  0  0
   -6.1351    0.4143    0.8530 O   0  0  0  0  0  0  0  0  0  0  0  0
   -4.3487    1.3713    3.0718 F   0  0  0  0  0  0  0  0  0  0  0  0
   -4.3973   -0.5482    4.0938 F   0  0  0  0  0  0  0  0  0  0  0  0
   -3.5566   -0.4045    2.0913 F   0  0  0  0  0  0  0  0  0  0  0  0
  1  2  1  0  0  0  0
  2  3  1  0  0  0  0
  4 11  1  0  0  0  0
  4  1  2  0  0  0  0
  5  4  1  0  0  0  0
  6  5  2  0  0  0  0
  6  9  1  0  0  0  0
  7  6  1  0  0  0  0
  8  7  1  0  0  0  0
  8 14  1  0  0  0  0
  9 10  2  0  0  0  0
 10  1  1  0  0  0  0
 10 17  1  0  0  0  0
 12  5  1  0  0  0  0
 13  8  1  0  0  0  0
 15  8  1  0  0  0  0
 16  9  1  0  0  0  0
 18 19  1  0  0  0  0
 18 20  1  0  0  0  0
 19 23  1  0  0  0  0
 19 24  1  0  0  0  0
 21 18  2  0  0  0  0
 22 18  2  0  0  0  0
 25 19  1  0  0  0  0
M  RAD  3   2   2   3   3  20   2
M  END
