Coordinates from ORCA-job 4-MeOPhN2+~TfO-_B3LYPG-6-31G_dp-NX-Scan-d89-09-n800
 OpenBabel11261920223D

 25 24  0  0  0  0  0  0  0  0999 V2000
   -4.0908   -2.9189   -0.4456 C   0  0  0  0  0  0  0  0  0  0  0  0
   -4.6932   -3.4162    0.6862 N   0  0  0  0  0  0  0  0  0  0  0  0
   -5.1551   -3.5718    1.7001 N   0  0  0  0  0  0  0  0  0  0  0  0
   -3.6943   -3.8239   -1.4533 C   0  0  0  0  0  0  0  0  0  0  0  0
   -3.0902   -3.3212   -2.5830 C   0  0  0  0  0  0  0  0  0  0  0  0
   -2.8895   -1.9263   -2.7201 C   0  0  0  0  0  0  0  0  0  0  0  0
   -2.2996   -1.5466   -3.8613 O   0  0  0  0  0  0  0  0  0  0  0  0
   -2.0599   -0.1548   -4.1013 C   0  0  0  0  0  0  0  0  0  0  0  0
   -3.3028   -1.0428   -1.7041 C   0  0  0  0  0  0  0  0  0  0  0  0
   -3.9061   -1.5273   -0.5544 C   0  0  0  0  0  0  0  0  0  0  0  0
   -3.8612   -4.8884   -1.3306 H   0  0  0  0  0  0  0  0  0  0  0  0
   -2.7617   -3.9720   -3.3848 H   0  0  0  0  0  0  0  0  0  0  0  0
   -1.5780   -0.1070   -5.0771 H   0  0  0  0  0  0  0  0  0  0  0  0
   -1.3946    0.2657   -3.3402 H   0  0  0  0  0  0  0  0  0  0  0  0
   -2.9995    0.4062   -4.1259 H   0  0  0  0  0  0  0  0  0  0  0  0
   -3.1639    0.0267   -1.7999 H   0  0  0  0  0  0  0  0  0  0  0  0
   -4.2530   -0.8487    0.2274 H   0  0  0  0  0  0  0  0  0  0  0  0
   -5.7129   -0.5197    2.4631 S   0  0  0  0  0  0  0  0  0  0  0  0
   -5.6627    0.4810    4.0269 C   0  0  0  0  0  0  0  0  0  0  0  0
   -7.0817   -1.0524    2.3760 O   0  0  0  0  0  0  0  0  0  0  0  0
   -4.6579   -1.5679    2.7064 O   0  0  0  0  0  0  0  0  0  0  0  0
   -5.3065    0.4377    1.4035 O   0  0  0  0  0  0  0  0  0  0  0  0
   -6.5373    1.4937    3.9548 F   0  0  0  0  0  0  0  0  0  0  0  0
   -5.9775   -0.2827    5.0817 F   0  0  0  0  0  0  0  0  0  0  0  0
   -4.4369    0.9895    4.2198 F   0  0  0  0  0  0  0  0  0  0  0  0
  1  2  1  0  0  0  0
  2  3  1  0  0  0  0
  4 11  1  0  0  0  0
  4  1  2  0  0  0  0
  5  4  1  0  0  0  0
  6  5  2  0  0  0  0
  6  9  1  0  0  0  0
  7  6  1  0  0  0  0
  8  7  1  0  0  0  0
  8 14  1  0  0  0  0
  9 10  2  0  0  0  0
 10  1  1  0  0  0  0
 10 17  1  0  0  0  0
 12  5  1  0  0  0  0
 13  8  1  0  0  0  0
 15  8  1  0  0  0  0
 16  9  1  0  0  0  0
 18 21  1  0  0  0  0
 18 19  1  0  0  0  0
 19 25  1  0  0  0  0
 19 24  1  0  0  0  0
 20 18  2  0  0  0  0
 22 18  2  0  0  0  0
 23 19  1  0  0  0  0
M  RAD  3   2   2   3   3  21   2
M  END
