Coordinates from ORCA-job 4-MeOPhN2+~TfO-_B3LYPG-6-31G_dp-NX-Scan-d89-09-n800
 OpenBabel11261920223D

 25 24  0  0  0  0  0  0  0  0999 V2000
   -4.2234   -3.0121   -0.4171 C   0  0  0  0  0  0  0  0  0  0  0  0
   -4.9170   -3.6298    0.5913 N   0  0  0  0  0  0  0  0  0  0  0  0
   -5.4586   -4.2175    1.3710 N   0  0  0  0  0  0  0  0  0  0  0  0
   -3.4072   -3.8361   -1.2322 C   0  0  0  0  0  0  0  0  0  0  0  0
   -2.7136   -3.2488   -2.2622 C   0  0  0  0  0  0  0  0  0  0  0  0
   -2.8272   -1.8543   -2.4944 C   0  0  0  0  0  0  0  0  0  0  0  0
   -2.1096   -1.3916   -3.5232 O   0  0  0  0  0  0  0  0  0  0  0  0
   -2.1468    0.0075   -3.8367 C   0  0  0  0  0  0  0  0  0  0  0  0
   -3.6500   -1.0607   -1.6726 C   0  0  0  0  0  0  0  0  0  0  0  0
   -4.3550   -1.6269   -0.6237 C   0  0  0  0  0  0  0  0  0  0  0  0
   -3.3319   -4.9008   -1.0387 H   0  0  0  0  0  0  0  0  0  0  0  0
   -2.0713   -3.8315   -2.9124 H   0  0  0  0  0  0  0  0  0  0  0  0
   -1.4918    0.1288   -4.6984 H   0  0  0  0  0  0  0  0  0  0  0  0
   -1.7724    0.6052   -2.9996 H   0  0  0  0  0  0  0  0  0  0  0  0
   -3.1620    0.3228   -4.0972 H   0  0  0  0  0  0  0  0  0  0  0  0
   -3.7461    0.0060   -1.8311 H   0  0  0  0  0  0  0  0  0  0  0  0
   -4.9816   -1.0069    0.0219 H   0  0  0  0  0  0  0  0  0  0  0  0
   -6.0708   -0.3667    2.2944 S   0  0  0  0  0  0  0  0  0  0  0  0
   -5.0584    0.3840    3.6573 C   0  0  0  0  0  0  0  0  0  0  0  0
   -7.4589   -0.2737    2.7585 O   0  0  0  0  0  0  0  0  0  0  0  0
   -5.5196   -1.7565    2.1974 O   0  0  0  0  0  0  0  0  0  0  0  0
   -5.7071    0.4491    1.1030 O   0  0  0  0  0  0  0  0  0  0  0  0
   -5.3875    1.6705    3.8392 F   0  0  0  0  0  0  0  0  0  0  0  0
   -5.2527   -0.2729    4.8107 F   0  0  0  0  0  0  0  0  0  0  0  0
   -3.7464    0.3245    3.3591 F   0  0  0  0  0  0  0  0  0  0  0  0
  1  2  1  0  0  0  0
  2  3  1  0  0  0  0
  4 11  1  0  0  0  0
  4  1  2  0  0  0  0
  5  4  1  0  0  0  0
  6  5  2  0  0  0  0
  6  9  1  0  0  0  0
  7  6  1  0  0  0  0
  8  7  1  0  0  0  0
  8 14  1  0  0  0  0
  9 10  2  0  0  0  0
 10  1  1  0  0  0  0
 10 17  1  0  0  0  0
 12  5  1  0  0  0  0
 13  8  1  0  0  0  0
 15  8  1  0  0  0  0
 16  9  1  0  0  0  0
 18 20  1  0  0  0  0
 18 19  1  0  0  0  0
 19 23  1  0  0  0  0
 19 24  1  0  0  0  0
 21 18  2  0  0  0  0
 22 18  2  0  0  0  0
 25 19  1  0  0  0  0
M  RAD  3   2   2   3   3  20   2
M  END
