Coordinates from ORCA-job 4-MeOPhN2+~TfO-_B3LYPG-6-31G_dp-NX-Scan-d89-09-n800
 OpenBabel11261920223D

 25 25  0  0  0  0  0  0  0  0999 V2000
   -3.9009   -2.4750   -0.2036 C   0  0  0  0  0  0  0  0  0  0  0  0
   -4.2942   -2.9542    1.0657 N   0  0  0  0  0  0  0  0  0  0  0  0
   -4.5225   -2.3212    2.1057 N   0  0  0  0  0  0  0  0  0  0  0  0
   -3.7495   -3.5254   -1.1366 C   0  0  0  0  0  0  0  0  0  0  0  0
   -3.3635   -3.2856   -2.4407 C   0  0  0  0  0  0  0  0  0  0  0  0
   -3.1110   -1.9682   -2.8611 C   0  0  0  0  0  0  0  0  0  0  0  0
   -2.7367   -1.8246   -4.1553 O   0  0  0  0  0  0  0  0  0  0  0  0
   -2.4661   -0.5180   -4.6502 C   0  0  0  0  0  0  0  0  0  0  0  0
   -3.2543   -0.9107   -1.9503 C   0  0  0  0  0  0  0  0  0  0  0  0
   -3.6451   -1.1566   -0.6364 C   0  0  0  0  0  0  0  0  0  0  0  0
   -3.9476   -4.5353   -0.7935 H   0  0  0  0  0  0  0  0  0  0  0  0
   -3.2465   -4.0922   -3.1562 H   0  0  0  0  0  0  0  0  0  0  0  0
   -2.1844   -0.6479   -5.6954 H   0  0  0  0  0  0  0  0  0  0  0  0
   -1.6385   -0.0466   -4.1070 H   0  0  0  0  0  0  0  0  0  0  0  0
   -3.3528    0.1249   -4.5900 H   0  0  0  0  0  0  0  0  0  0  0  0
   -3.0629    0.1116   -2.2537 H   0  0  0  0  0  0  0  0  0  0  0  0
   -3.7432   -0.3191    0.0367 H   0  0  0  0  0  0  0  0  0  0  0  0
   -4.5915   -0.1750    3.4572 S   0  0  0  0  0  0  0  0  0  0  0  0
   -6.4576   -0.2820    3.6303 C   0  0  0  0  0  0  0  0  0  0  0  0
   -4.3916   -0.9913    1.9984 O   0  0  0  0  0  0  0  0  0  0  0  0
   -3.9918   -0.9144    4.5482 O   0  0  0  0  0  0  0  0  0  0  0  0
   -4.2573    1.1944    3.1191 O   0  0  0  0  0  0  0  0  0  0  0  0
   -7.0267    0.1830    2.5218 F   0  0  0  0  0  0  0  0  0  0  0  0
   -6.8297   -1.5367    3.8426 F   0  0  0  0  0  0  0  0  0  0  0  0
   -6.8010    0.4779    4.6686 F   0  0  0  0  0  0  0  0  0  0  0  0
  1  2  1  0  0  0  0
  2  3  1  0  0  0  0
  4 11  1  0  0  0  0
  4  1  2  0  0  0  0
  5  4  1  0  0  0  0
  6  5  2  0  0  0  0
  6  9  1  0  0  0  0
  7  6  1  0  0  0  0
  8 15  1  0  0  0  0
  8  7  1  0  0  0  0
  8 14  1  0  0  0  0
  9 10  2  0  0  0  0
 10  1  1  0  0  0  0
 10 17  1  0  0  0  0
 12  5  1  0  0  0  0
 13  8  1  0  0  0  0
 16  9  1  0  0  0  0
 18 19  1  0  0  0  0
 18 21  2  0  0  0  0
 19 24  1  0  0  0  0
 19 25  1  0  0  0  0
 20  3  1  0  0  0  0
 20 18  1  0  0  0  0
 22 18  2  0  0  0  0
 23 19  1  0  0  0  0
M  RAD  2   2   2   3   2
M  END
