Coordinates from ORCA-job 4-MeOPhN2+~TfO-_B3LYPG-6-31G_dp-NX-Scan-d89-09-n800
 OpenBabel11261920223D

 25 24  0  0  0  0  0  0  0  0999 V2000
   -4.7128   -3.5817   -0.5308 C   0  0  0  0  0  0  0  0  0  0  0  0
   -5.5018   -4.4134    0.1810 N   0  0  0  0  0  0  0  0  0  0  0  0
   -6.1572   -5.1030    0.7764 N   0  0  0  0  0  0  0  0  0  0  0  0
   -3.4402   -4.0430   -0.9702 C   0  0  0  0  0  0  0  0  0  0  0  0
   -2.6159   -3.1472   -1.5963 C   0  0  0  0  0  0  0  0  0  0  0  0
   -3.0250   -1.7915   -1.7663 C   0  0  0  0  0  0  0  0  0  0  0  0
   -2.1123   -0.9932   -2.3123 O   0  0  0  0  0  0  0  0  0  0  0  0
   -2.3700    0.4238   -2.3791 C   0  0  0  0  0  0  0  0  0  0  0  0
   -4.3043   -1.3697   -1.3637 C   0  0  0  0  0  0  0  0  0  0  0  0
   -5.1525   -2.2521   -0.7281 C   0  0  0  0  0  0  0  0  0  0  0  0
   -3.1360   -5.0685   -0.7944 H   0  0  0  0  0  0  0  0  0  0  0  0
   -1.6290   -3.4342   -1.9391 H   0  0  0  0  0  0  0  0  0  0  0  0
   -1.4518    0.8627   -2.7666 H   0  0  0  0  0  0  0  0  0  0  0  0
   -2.5903    0.8138   -1.3828 H   0  0  0  0  0  0  0  0  0  0  0  0
   -3.1989    0.6329   -3.0620 H   0  0  0  0  0  0  0  0  0  0  0  0
   -4.6344   -0.3424   -1.4375 H   0  0  0  0  0  0  0  0  0  0  0  0
   -6.1075   -1.9063   -0.3596 H   0  0  0  0  0  0  0  0  0  0  0  0
   -5.7036   -0.1128    1.7683 S   0  0  0  0  0  0  0  0  0  0  0  0
   -4.0211    0.6651    1.9493 C   0  0  0  0  0  0  0  0  0  0  0  0
   -6.4719    0.4479    2.8850 O   0  0  0  0  0  0  0  0  0  0  0  0
   -5.3978   -1.5731    1.8525 O   0  0  0  0  0  0  0  0  0  0  0  0
   -6.1109    0.3137    0.4012 O   0  0  0  0  0  0  0  0  0  0  0  0
   -4.0900    2.0007    1.8670 F   0  0  0  0  0  0  0  0  0  0  0  0
   -3.4491    0.3389    3.1147 F   0  0  0  0  0  0  0  0  0  0  0  0
   -3.1826    0.2442    0.9578 F   0  0  0  0  0  0  0  0  0  0  0  0
  1  2  1  0  0  0  0
  2  3  1  0  0  0  0
  4 11  1  0  0  0  0
  4  1  2  0  0  0  0
  5  4  1  0  0  0  0
  6  5  2  0  0  0  0
  6  9  1  0  0  0  0
  7  6  1  0  0  0  0
  8  7  1  0  0  0  0
  8 14  1  0  0  0  0
  9 10  2  0  0  0  0
 10  1  1  0  0  0  0
 10 17  1  0  0  0  0
 12  5  1  0  0  0  0
 13  8  1  0  0  0  0
 15  8  1  0  0  0  0
 16  9  1  0  0  0  0
 18 21  2  0  0  0  0
 18 19  1  0  0  0  0
 18 20  1  0  0  0  0
 19 24  1  0  0  0  0
 22 18  2  0  0  0  0
 23 19  1  0  0  0  0
 25 19  1  0  0  0  0
M  RAD  3   2   2   3   3  20   2
M  END
