Coordinates from ORCA-job 4-MeOPhN2+~TfO-_B3LYPG-6-31G_dp-NX-Scan-d89-09-n800
 OpenBabel11261920223D

 25 24  0  0  0  0  0  0  0  0999 V2000
   -4.2093   -2.9856   -0.3705 C   0  0  0  0  0  0  0  0  0  0  0  0
   -4.8816   -3.6086    0.6505 N   0  0  0  0  0  0  0  0  0  0  0  0
   -5.3743   -4.2499    1.4209 N   0  0  0  0  0  0  0  0  0  0  0  0
   -3.3515   -3.8020   -1.1517 C   0  0  0  0  0  0  0  0  0  0  0  0
   -2.6658   -3.2202   -2.1897 C   0  0  0  0  0  0  0  0  0  0  0  0
   -2.8241   -1.8372   -2.4624 C   0  0  0  0  0  0  0  0  0  0  0  0
   -2.1083   -1.3782   -3.4939 O   0  0  0  0  0  0  0  0  0  0  0  0
   -2.1888    0.0100   -3.8459 C   0  0  0  0  0  0  0  0  0  0  0  0
   -3.6845   -1.0511   -1.6731 C   0  0  0  0  0  0  0  0  0  0  0  0
   -4.3851   -1.6132   -0.6189 C   0  0  0  0  0  0  0  0  0  0  0  0
   -3.2403   -4.8572   -0.9264 H   0  0  0  0  0  0  0  0  0  0  0  0
   -1.9950   -3.7983   -2.8148 H   0  0  0  0  0  0  0  0  0  0  0  0
   -1.5267    0.1307   -4.7021 H   0  0  0  0  0  0  0  0  0  0  0  0
   -1.8465    0.6424   -3.0207 H   0  0  0  0  0  0  0  0  0  0  0  0
   -3.2106    0.2830   -4.1276 H   0  0  0  0  0  0  0  0  0  0  0  0
   -3.8139    0.0073   -1.8599 H   0  0  0  0  0  0  0  0  0  0  0  0
   -5.0375   -0.9963    0.0011 H   0  0  0  0  0  0  0  0  0  0  0  0
   -6.1337   -0.2792    2.2285 S   0  0  0  0  0  0  0  0  0  0  0  0
   -5.0074    0.2556    3.6047 C   0  0  0  0  0  0  0  0  0  0  0  0
   -7.4865   -0.0076    2.7241 O   0  0  0  0  0  0  0  0  0  0  0  0
   -5.7834   -1.7284    2.0649 O   0  0  0  0  0  0  0  0  0  0  0  0
   -5.6699    0.5276    1.0673 O   0  0  0  0  0  0  0  0  0  0  0  0
   -5.1489    1.5644    3.8552 F   0  0  0  0  0  0  0  0  0  0  0  0
   -5.2729   -0.4249    4.7298 F   0  0  0  0  0  0  0  0  0  0  0  0
   -3.7202    0.0286    3.2750 F   0  0  0  0  0  0  0  0  0  0  0  0
  1  2  1  0  0  0  0
  2  3  1  0  0  0  0
  4 11  1  0  0  0  0
  4  1  2  0  0  0  0
  5  4  1  0  0  0  0
  6  5  2  0  0  0  0
  6  9  1  0  0  0  0
  7  6  1  0  0  0  0
  8  7  1  0  0  0  0
  8 14  1  0  0  0  0
  9 10  2  0  0  0  0
 10  1  1  0  0  0  0
 10 17  1  0  0  0  0
 12  5  1  0  0  0  0
 13  8  1  0  0  0  0
 15  8  1  0  0  0  0
 16  9  1  0  0  0  0
 18 20  1  0  0  0  0
 18 19  1  0  0  0  0
 19 23  1  0  0  0  0
 19 24  1  0  0  0  0
 21 18  2  0  0  0  0
 22 18  2  0  0  0  0
 25 19  1  0  0  0  0
M  RAD  3   2   2   3   3  20   2
M  END
