Coordinates from ORCA-job 4-MeOPhN2+~TfO-_B3LYPG-6-31G_dp-NX-Scan-d89-09-n800
 OpenBabel11261920223D

 25 25  0  0  0  0  0  0  0  0999 V2000
   -3.8774   -2.5262   -0.2397 C   0  0  0  0  0  0  0  0  0  0  0  0
   -4.2612   -2.9536    1.0362 N   0  0  0  0  0  0  0  0  0  0  0  0
   -4.5229   -2.4508    2.0905 N   0  0  0  0  0  0  0  0  0  0  0  0
   -3.6796   -3.5789   -1.1583 C   0  0  0  0  0  0  0  0  0  0  0  0
   -3.2926   -3.3181   -2.4573 C   0  0  0  0  0  0  0  0  0  0  0  0
   -3.0920   -1.9881   -2.8727 C   0  0  0  0  0  0  0  0  0  0  0  0
   -2.7140   -1.8294   -4.1591 O   0  0  0  0  0  0  0  0  0  0  0  0
   -2.4930   -0.5123   -4.6588 C   0  0  0  0  0  0  0  0  0  0  0  0
   -3.2875   -0.9337   -1.9640 C   0  0  0  0  0  0  0  0  0  0  0  0
   -3.6779   -1.1949   -0.6561 C   0  0  0  0  0  0  0  0  0  0  0  0
   -3.8385   -4.5967   -0.8188 H   0  0  0  0  0  0  0  0  0  0  0  0
   -3.1351   -4.1161   -3.1742 H   0  0  0  0  0  0  0  0  0  0  0  0
   -2.1989   -0.6371   -5.7009 H   0  0  0  0  0  0  0  0  0  0  0  0
   -1.6890   -0.0076   -4.1111 H   0  0  0  0  0  0  0  0  0  0  0  0
   -3.4064    0.0915   -4.6073 H   0  0  0  0  0  0  0  0  0  0  0  0
   -3.1367    0.0949   -2.2678 H   0  0  0  0  0  0  0  0  0  0  0  0
   -3.8248   -0.3788    0.0354 H   0  0  0  0  0  0  0  0  0  0  0  0
   -4.5952   -0.1663    3.4766 S   0  0  0  0  0  0  0  0  0  0  0  0
   -6.4534   -0.1844    3.6407 C   0  0  0  0  0  0  0  0  0  0  0  0
   -4.4344   -0.8734    2.0354 O   0  0  0  0  0  0  0  0  0  0  0  0
   -4.0669   -0.9973    4.5448 O   0  0  0  0  0  0  0  0  0  0  0  0
   -4.1999    1.2218    3.2955 O   0  0  0  0  0  0  0  0  0  0  0  0
   -7.0047    0.4885    2.6290 F   0  0  0  0  0  0  0  0  0  0  0  0
   -6.9020   -1.4400    3.6326 F   0  0  0  0  0  0  0  0  0  0  0  0
   -6.7828    0.3990    4.7936 F   0  0  0  0  0  0  0  0  0  0  0  0
  1  2  1  0  0  0  0
  2  3  1  0  0  0  0
  4 11  1  0  0  0  0
  4  1  2  0  0  0  0
  5  4  1  0  0  0  0
  6  5  2  0  0  0  0
  6  9  1  0  0  0  0
  7  6  1  0  0  0  0
  8 15  1  0  0  0  0
  8  7  1  0  0  0  0
  8 14  1  0  0  0  0
  9 10  2  0  0  0  0
 10  1  1  0  0  0  0
 10 17  1  0  0  0  0
 12  5  1  0  0  0  0
 13  8  1  0  0  0  0
 16  9  1  0  0  0  0
 18 19  1  0  0  0  0
 18 21  2  0  0  0  0
 19 25  1  0  0  0  0
 20  3  1  0  0  0  0
 20 18  1  0  0  0  0
 22 18  2  0  0  0  0
 23 19  1  0  0  0  0
 24 19  1  0  0  0  0
M  RAD  2   2   2   3   2
M  END
