Coordinates from ORCA-job 4-MeOPhN2+~TfO-_B3LYPG-6-31G_dp-NX-Scan-d89-09-n800
 OpenBabel11261920223D

 25 24  0  0  0  0  0  0  0  0999 V2000
   -4.5651   -3.8032   -0.5717 C   0  0  0  0  0  0  0  0  0  0  0  0
   -5.2874   -4.7081    0.1242 N   0  0  0  0  0  0  0  0  0  0  0  0
   -5.9016   -5.4357    0.7195 N   0  0  0  0  0  0  0  0  0  0  0  0
   -3.4458   -4.2371   -1.3382 C   0  0  0  0  0  0  0  0  0  0  0  0
   -2.7001   -3.2799   -1.9731 C   0  0  0  0  0  0  0  0  0  0  0  0
   -3.0412   -1.9002   -1.8452 C   0  0  0  0  0  0  0  0  0  0  0  0
   -2.2097   -1.0510   -2.4369 O   0  0  0  0  0  0  0  0  0  0  0  0
   -2.4182    0.3677   -2.2556 C   0  0  0  0  0  0  0  0  0  0  0  0
   -4.1799   -1.5016   -1.1200 C   0  0  0  0  0  0  0  0  0  0  0  0
   -4.9439   -2.4436   -0.4666 C   0  0  0  0  0  0  0  0  0  0  0  0
   -3.1923   -5.2896   -1.3998 H   0  0  0  0  0  0  0  0  0  0  0  0
   -1.8263   -3.5446   -2.5573 H   0  0  0  0  0  0  0  0  0  0  0  0
   -1.5654    0.8437   -2.7367 H   0  0  0  0  0  0  0  0  0  0  0  0
   -2.4493    0.6153   -1.1917 H   0  0  0  0  0  0  0  0  0  0  0  0
   -3.3472    0.6821   -2.7384 H   0  0  0  0  0  0  0  0  0  0  0  0
   -4.4844   -0.4671   -0.9845 H   0  0  0  0  0  0  0  0  0  0  0  0
   -5.7566   -2.1191    0.1812 H   0  0  0  0  0  0  0  0  0  0  0  0
   -5.8154    0.3032    1.6312 S   0  0  0  0  0  0  0  0  0  0  0  0
   -4.1193    0.9042    2.1075 C   0  0  0  0  0  0  0  0  0  0  0  0
   -6.7333    1.0936    2.4565 O   0  0  0  0  0  0  0  0  0  0  0  0
   -5.7449   -1.1533    1.9503 O   0  0  0  0  0  0  0  0  0  0  0  0
   -5.8378    0.5814    0.1671 O   0  0  0  0  0  0  0  0  0  0  0  0
   -3.9983    2.2250    1.9142 F   0  0  0  0  0  0  0  0  0  0  0  0
   -3.8342    0.6334    3.3870 F   0  0  0  0  0  0  0  0  0  0  0  0
   -3.1693    0.2961    1.3415 F   0  0  0  0  0  0  0  0  0  0  0  0
  1 10  1  0  0  0  0
  1  2  1  0  0  0  0
  2  3  1  0  0  0  0
  4  1  2  0  0  0  0
  5  6  2  0  0  0  0
  5  4  1  0  0  0  0
  6  9  1  0  0  0  0
  7  8  1  0  0  0  0
  7  6  1  0  0  0  0
  8 14  1  0  0  0  0
  9 16  1  0  0  0  0
  9 10  2  0  0  0  0
 10 17  1  0  0  0  0
 11  4  1  0  0  0  0
 12  5  1  0  0  0  0
 13  8  1  0  0  0  0
 15  8  1  0  0  0  0
 18 21  2  0  0  0  0
 18 19  1  0  0  0  0
 18 20  1  0  0  0  0
 19 24  1  0  0  0  0
 22 18  2  0  0  0  0
 23 19  1  0  0  0  0
 25 19  1  0  0  0  0
M  RAD  3   2   2   3   3  20   2
M  END
