Coordinates from ORCA-job 4-MeOPhN2+~TfO-_B3LYPG-6-31G_dp-NX-Scan-d89-09-n800
 OpenBabel11261920223D

 25 24  0  0  0  0  0  0  0  0999 V2000
   -4.7147   -3.5312   -0.5190 C   0  0  0  0  0  0  0  0  0  0  0  0
   -5.5027   -4.3256    0.2370 N   0  0  0  0  0  0  0  0  0  0  0  0
   -6.1591   -4.9773    0.8711 N   0  0  0  0  0  0  0  0  0  0  0  0
   -3.4455   -4.0121   -0.9428 C   0  0  0  0  0  0  0  0  0  0  0  0
   -2.6142   -3.1378   -1.5915 C   0  0  0  0  0  0  0  0  0  0  0  0
   -3.0125   -1.7842   -1.7938 C   0  0  0  0  0  0  0  0  0  0  0  0
   -2.0901   -1.0027   -2.3494 O   0  0  0  0  0  0  0  0  0  0  0  0
   -2.3329    0.4154   -2.4327 C   0  0  0  0  0  0  0  0  0  0  0  0
   -4.2918   -1.3454   -1.4085 C   0  0  0  0  0  0  0  0  0  0  0  0
   -5.1478   -2.2074   -0.7561 C   0  0  0  0  0  0  0  0  0  0  0  0
   -3.1463   -5.0333   -0.7365 H   0  0  0  0  0  0  0  0  0  0  0  0
   -1.6280   -3.4396   -1.9234 H   0  0  0  0  0  0  0  0  0  0  0  0
   -1.4067    0.8422   -2.8147 H   0  0  0  0  0  0  0  0  0  0  0  0
   -2.5591    0.8178   -1.4422 H   0  0  0  0  0  0  0  0  0  0  0  0
   -3.1526    0.6271   -3.1259 H   0  0  0  0  0  0  0  0  0  0  0  0
   -4.6137   -0.3183   -1.5127 H   0  0  0  0  0  0  0  0  0  0  0  0
   -6.1008   -1.8445   -0.3977 H   0  0  0  0  0  0  0  0  0  0  0  0
   -5.7245   -0.1863    1.8054 S   0  0  0  0  0  0  0  0  0  0  0  0
   -4.0541    0.6219    1.9656 C   0  0  0  0  0  0  0  0  0  0  0  0
   -6.4806    0.3386    2.9473 O   0  0  0  0  0  0  0  0  0  0  0  0
   -5.3894   -1.6415    1.8570 O   0  0  0  0  0  0  0  0  0  0  0  0
   -6.1673    0.2558    0.4542 O   0  0  0  0  0  0  0  0  0  0  0  0
   -4.1531    1.9571    1.9192 F   0  0  0  0  0  0  0  0  0  0  0  0
   -3.4480    0.2794    3.1093 F   0  0  0  0  0  0  0  0  0  0  0  0
   -3.2312    0.2436    0.9450 F   0  0  0  0  0  0  0  0  0  0  0  0
  1  2  1  0  0  0  0
  2  3  1  0  0  0  0
  4 11  1  0  0  0  0
  4  1  2  0  0  0  0
  5  4  1  0  0  0  0
  6  5  2  0  0  0  0
  6  9  1  0  0  0  0
  7  6  1  0  0  0  0
  8  7  1  0  0  0  0
  8 14  1  0  0  0  0
  9 10  2  0  0  0  0
 10  1  1  0  0  0  0
 10 17  1  0  0  0  0
 12  5  1  0  0  0  0
 13  8  1  0  0  0  0
 15  8  1  0  0  0  0
 16  9  1  0  0  0  0
 18 21  2  0  0  0  0
 18 19  1  0  0  0  0
 18 20  1  0  0  0  0
 19 24  1  0  0  0  0
 22 18  2  0  0  0  0
 23 19  1  0  0  0  0
 25 19  1  0  0  0  0
M  RAD  3   2   2   3   3  20   2
M  END
