Coordinates from ORCA-job 4-MeOPhN2+~TfO-_B3LYPG-6-31G_dp-NX-Scan-d89-09-n800
 OpenBabel11261920223D

 25 24  0  0  0  0  0  0  0  0999 V2000
   -4.1614   -4.0206   -0.2249 C   0  0  0  0  0  0  0  0  0  0  0  0
   -4.6270   -5.2119    0.1982 N   0  0  0  0  0  0  0  0  0  0  0  0
   -4.9979   -6.2204    0.5369 N   0  0  0  0  0  0  0  0  0  0  0  0
   -4.9548   -3.2207   -1.0995 C   0  0  0  0  0  0  0  0  0  0  0  0
   -4.4304   -2.0424   -1.5573 C   0  0  0  0  0  0  0  0  0  0  0  0
   -3.1509   -1.6132   -1.1168 C   0  0  0  0  0  0  0  0  0  0  0  0
   -2.7405   -0.4621   -1.6107 O   0  0  0  0  0  0  0  0  0  0  0  0
   -1.6384    0.2447   -1.0205 C   0  0  0  0  0  0  0  0  0  0  0  0
   -2.3891   -2.4017   -0.2086 C   0  0  0  0  0  0  0  0  0  0  0  0
   -2.8806   -3.6050    0.2298 C   0  0  0  0  0  0  0  0  0  0  0  0
   -5.9609   -3.5234   -1.3618 H   0  0  0  0  0  0  0  0  0  0  0  0
   -5.0212   -1.3347   -2.1330 H   0  0  0  0  0  0  0  0  0  0  0  0
   -1.5863    1.1872   -1.5615 H   0  0  0  0  0  0  0  0  0  0  0  0
   -0.7011   -0.3075   -1.1467 H   0  0  0  0  0  0  0  0  0  0  0  0
   -1.8498    0.4340    0.0342 H   0  0  0  0  0  0  0  0  0  0  0  0
   -1.4238   -2.0613    0.1419 H   0  0  0  0  0  0  0  0  0  0  0  0
   -2.3141   -4.2327    0.9089 H   0  0  0  0  0  0  0  0  0  0  0  0
   -6.4281    0.5069   -0.2424 S   0  0  0  0  0  0  0  0  0  0  0  0
   -5.1253    0.9839    1.0054 C   0  0  0  0  0  0  0  0  0  0  0  0
   -7.4613    1.5356   -0.0532 O   0  0  0  0  0  0  0  0  0  0  0  0
   -6.7713   -0.8776    0.1702 O   0  0  0  0  0  0  0  0  0  0  0  0
   -5.6684    0.5777   -1.5212 O   0  0  0  0  0  0  0  0  0  0  0  0
   -4.5639    2.1696    0.7193 F   0  0  0  0  0  0  0  0  0  0  0  0
   -5.6162    1.0410    2.2499 F   0  0  0  0  0  0  0  0  0  0  0  0
   -4.1041    0.0665    1.0275 F   0  0  0  0  0  0  0  0  0  0  0  0
  1  2  1  0  0  0  0
  1 10  1  0  0  0  0
  2  3  1  0  0  0  0
  4  1  2  0  0  0  0
  5  6  2  0  0  0  0
  5  4  1  0  0  0  0
  6  9  1  0  0  0  0
  7  6  1  0  0  0  0
  7  8  1  0  0  0  0
  8 15  1  0  0  0  0
  9 16  1  0  0  0  0
  9 10  2  0  0  0  0
 10 17  1  0  0  0  0
 11  4  1  0  0  0  0
 12  5  1  0  0  0  0
 13  8  1  0  0  0  0
 14  8  1  0  0  0  0
 18 20  2  0  0  0  0
 18 21  1  0  0  0  0
 18 19  1  0  0  0  0
 19 25  1  0  0  0  0
 19 24  1  0  0  0  0
 22 18  2  0  0  0  0
 23 19  1  0  0  0  0
M  RAD  3   2   2   3   3  21   2
M  END
