Coordinates from ORCA-job 4-MeOPhN2+~TfO-_B3LYPG-6-31G_dp-NX-Scan-d89-09-n800
 OpenBabel11261920223D

 25 24  0  0  0  0  0  0  0  0999 V2000
   -4.5169   -3.9206   -0.5798 C   0  0  0  0  0  0  0  0  0  0  0  0
   -5.2018   -4.8670    0.0955 N   0  0  0  0  0  0  0  0  0  0  0  0
   -5.7991   -5.6174    0.6810 N   0  0  0  0  0  0  0  0  0  0  0  0
   -3.4104   -4.2920   -1.3965 C   0  0  0  0  0  0  0  0  0  0  0  0
   -2.7104   -3.2900   -2.0141 C   0  0  0  0  0  0  0  0  0  0  0  0
   -3.0853   -1.9262   -1.8222 C   0  0  0  0  0  0  0  0  0  0  0  0
   -2.3021   -1.0292   -2.4045 O   0  0  0  0  0  0  0  0  0  0  0  0
   -2.5595    0.3769   -2.1682 C   0  0  0  0  0  0  0  0  0  0  0  0
   -4.2094   -1.5867   -1.0432 C   0  0  0  0  0  0  0  0  0  0  0  0
   -4.9248   -2.5746   -0.4058 C   0  0  0  0  0  0  0  0  0  0  0  0
   -3.1314   -5.3337   -1.5091 H   0  0  0  0  0  0  0  0  0  0  0  0
   -1.8487   -3.5075   -2.6348 H   0  0  0  0  0  0  0  0  0  0  0  0
   -1.7406    0.8993   -2.6595 H   0  0  0  0  0  0  0  0  0  0  0  0
   -2.5697    0.5877   -1.0964 H   0  0  0  0  0  0  0  0  0  0  0  0
   -3.5162    0.6685   -2.6083 H   0  0  0  0  0  0  0  0  0  0  0  0
   -4.5358   -0.5593   -0.8695 H   0  0  0  0  0  0  0  0  0  0  0  0
   -5.7294   -2.2829    0.2696 H   0  0  0  0  0  0  0  0  0  0  0  0
   -5.7439    0.5298    1.4556 S   0  0  0  0  0  0  0  0  0  0  0  0
   -4.0722    0.9359    2.1622 C   0  0  0  0  0  0  0  0  0  0  0  0
   -6.6812    1.3864    2.1867 O   0  0  0  0  0  0  0  0  0  0  0  0
   -5.8575   -0.9330    1.7255 O   0  0  0  0  0  0  0  0  0  0  0  0
   -5.5434    0.8532    0.0126 O   0  0  0  0  0  0  0  0  0  0  0  0
   -3.8037    2.2446    2.0595 F   0  0  0  0  0  0  0  0  0  0  0  0
   -3.9720    0.5816    3.4496 F   0  0  0  0  0  0  0  0  0  0  0  0
   -3.1015    0.2679    1.4785 F   0  0  0  0  0  0  0  0  0  0  0  0
  1 10  1  0  0  0  0
  1  2  1  0  0  0  0
  2  3  1  0  0  0  0
  4  1  2  0  0  0  0
  5  6  2  0  0  0  0
  5  4  1  0  0  0  0
  6  9  1  0  0  0  0
  7  8  1  0  0  0  0
  7  6  1  0  0  0  0
  8 14  1  0  0  0  0
  9 16  1  0  0  0  0
  9 10  2  0  0  0  0
 10 17  1  0  0  0  0
 11  4  1  0  0  0  0
 12  5  1  0  0  0  0
 13  8  1  0  0  0  0
 15  8  1  0  0  0  0
 18 21  2  0  0  0  0
 18 19  1  0  0  0  0
 18 20  1  0  0  0  0
 19 24  1  0  0  0  0
 22 18  2  0  0  0  0
 23 19  1  0  0  0  0
 25 19  1  0  0  0  0
M  RAD  3   2   2   3   3  20   2
M  END
