Coordinates from ORCA-job 4-MeOPhN2+~TfO-_B3LYPG-6-31G_dp-NX-Scan-d89-09-n800
 OpenBabel11261920223D

 25 24  0  0  0  0  0  0  0  0999 V2000
   -4.5336   -3.8592   -0.5691 C   0  0  0  0  0  0  0  0  0  0  0  0
   -5.2334   -4.7831    0.1235 N   0  0  0  0  0  0  0  0  0  0  0  0
   -5.8369   -5.5191    0.7199 N   0  0  0  0  0  0  0  0  0  0  0  0
   -3.4187   -4.2620   -1.3588 C   0  0  0  0  0  0  0  0  0  0  0  0
   -2.6998   -3.2823   -1.9905 C   0  0  0  0  0  0  0  0  0  0  0  0
   -3.0635   -1.9108   -1.8374 C   0  0  0  0  0  0  0  0  0  0  0  0
   -2.2589   -1.0367   -2.4277 O   0  0  0  0  0  0  0  0  0  0  0  0
   -2.4976    0.3758   -2.2232 C   0  0  0  0  0  0  0  0  0  0  0  0
   -4.1974   -1.5422   -1.0878 C   0  0  0  0  0  0  0  0  0  0  0  0
   -4.9334   -2.5072   -0.4372 C   0  0  0  0  0  0  0  0  0  0  0  0
   -3.1475   -5.3087   -1.4399 H   0  0  0  0  0  0  0  0  0  0  0  0
   -1.8305   -3.5231   -2.5917 H   0  0  0  0  0  0  0  0  0  0  0  0
   -1.6628    0.8771   -2.7100 H   0  0  0  0  0  0  0  0  0  0  0  0
   -2.5205    0.6074   -1.1557 H   0  0  0  0  0  0  0  0  0  0  0  0
   -3.4413    0.6743   -2.6867 H   0  0  0  0  0  0  0  0  0  0  0  0
   -4.5188   -0.5122   -0.9364 H   0  0  0  0  0  0  0  0  0  0  0  0
   -5.7422   -2.1987    0.2260 H   0  0  0  0  0  0  0  0  0  0  0  0
   -5.7881    0.4329    1.5335 S   0  0  0  0  0  0  0  0  0  0  0  0
   -4.0919    0.8935    2.1437 C   0  0  0  0  0  0  0  0  0  0  0  0
   -6.7054    1.2709    2.3101 O   0  0  0  0  0  0  0  0  0  0  0  0
   -5.8459   -1.0301    1.8231 O   0  0  0  0  0  0  0  0  0  0  0  0
   -5.6804    0.7445    0.0795 O   0  0  0  0  0  0  0  0  0  0  0  0
   -3.8661    2.2080    2.0133 F   0  0  0  0  0  0  0  0  0  0  0  0
   -3.9137    0.5571    3.4274 F   0  0  0  0  0  0  0  0  0  0  0  0
   -3.1387    0.2456    1.4164 F   0  0  0  0  0  0  0  0  0  0  0  0
  1 10  1  0  0  0  0
  1  2  1  0  0  0  0
  2  3  1  0  0  0  0
  4  1  2  0  0  0  0
  5  6  2  0  0  0  0
  5  4  1  0  0  0  0
  6  9  1  0  0  0  0
  7  8  1  0  0  0  0
  7  6  1  0  0  0  0
  8 14  1  0  0  0  0
  9 16  1  0  0  0  0
  9 10  2  0  0  0  0
 10 17  1  0  0  0  0
 11  4  1  0  0  0  0
 12  5  1  0  0  0  0
 13  8  1  0  0  0  0
 15  8  1  0  0  0  0
 18 21  2  0  0  0  0
 18 19  1  0  0  0  0
 18 20  1  0  0  0  0
 19 24  1  0  0  0  0
 22 18  2  0  0  0  0
 23 19  1  0  0  0  0
 25 19  1  0  0  0  0
M  RAD  3   2   2   3   3  20   2
M  END
