Coordinates from ORCA-job 4-MeOPhN2+~TfO-_B3LYPG-6-31G_dp-NX-Scan-d89-09-n800
 OpenBabel11261920223D

 25 24  0  0  0  0  0  0  0  0999 V2000
   -3.9312   -2.8081   -0.2695 C   0  0  0  0  0  0  0  0  0  0  0  0
   -4.3940   -3.2350    0.9528 N   0  0  0  0  0  0  0  0  0  0  0  0
   -4.7147   -3.2835    2.0291 N   0  0  0  0  0  0  0  0  0  0  0  0
   -4.0034   -3.6813   -1.3730 C   0  0  0  0  0  0  0  0  0  0  0  0
   -3.5573   -3.2310   -2.5957 C   0  0  0  0  0  0  0  0  0  0  0  0
   -3.0458   -1.9187   -2.7267 C   0  0  0  0  0  0  0  0  0  0  0  0
   -2.6492   -1.5818   -3.9619 O   0  0  0  0  0  0  0  0  0  0  0  0
   -2.1443   -0.2634   -4.2039 C   0  0  0  0  0  0  0  0  0  0  0  0
   -2.9786   -1.0643   -1.6084 C   0  0  0  0  0  0  0  0  0  0  0  0
   -3.4201   -1.5008   -0.3707 C   0  0  0  0  0  0  0  0  0  0  0  0
   -4.4093   -4.6795   -1.2552 H   0  0  0  0  0  0  0  0  0  0  0  0
   -3.5953   -3.8610   -3.4768 H   0  0  0  0  0  0  0  0  0  0  0  0
   -1.9106   -0.2322   -5.2674 H   0  0  0  0  0  0  0  0  0  0  0  0
   -1.2349   -0.0783   -3.6232 H   0  0  0  0  0  0  0  0  0  0  0  0
   -2.8985    0.4947   -3.9690 H   0  0  0  0  0  0  0  0  0  0  0  0
   -2.5948   -0.0563   -1.6946 H   0  0  0  0  0  0  0  0  0  0  0  0
   -3.3881   -0.8582    0.5028 H   0  0  0  0  0  0  0  0  0  0  0  0
   -5.3212   -0.3358    2.3215 S   0  0  0  0  0  0  0  0  0  0  0  0
   -6.0931    0.2001    3.9220 C   0  0  0  0  0  0  0  0  0  0  0  0
   -6.3501   -1.1653    1.6536 O   0  0  0  0  0  0  0  0  0  0  0  0
   -4.1371   -1.1606    2.7650 O   0  0  0  0  0  0  0  0  0  0  0  0
   -4.9307    0.9119    1.6422 O   0  0  0  0  0  0  0  0  0  0  0  0
   -7.1889    0.9338    3.6854 F   0  0  0  0  0  0  0  0  0  0  0  0
   -6.4449   -0.8698    4.6510 F   0  0  0  0  0  0  0  0  0  0  0  0
   -5.2306    0.9360    4.6347 F   0  0  0  0  0  0  0  0  0  0  0  0
  1  2  1  0  0  0  0
  2  3  1  0  0  0  0
  4 11  1  0  0  0  0
  4  1  2  0  0  0  0
  5  4  1  0  0  0  0
  6  5  2  0  0  0  0
  6  9  1  0  0  0  0
  7  6  1  0  0  0  0
  8 15  1  0  0  0  0
  8  7  1  0  0  0  0
  8 14  1  0  0  0  0
  9 10  2  0  0  0  0
 10  1  1  0  0  0  0
 10 17  1  0  0  0  0
 12  5  1  0  0  0  0
 13  8  1  0  0  0  0
 16  9  1  0  0  0  0
 18 21  1  0  0  0  0
 18 19  1  0  0  0  0
 19 25  1  0  0  0  0
 19 24  1  0  0  0  0
 20 18  2  0  0  0  0
 22 18  2  0  0  0  0
 23 19  1  0  0  0  0
M  RAD  3   2   2   3   3  21   2
M  END
