Coordinates from ORCA-job 4-MeOPhN2+~TfO-_B3LYPG-6-31G_dp-NX-Scan-d89-09-n800
 OpenBabel11261920223D

 25 24  0  0  0  0  0  0  0  0999 V2000
   -4.4743   -2.7310   -0.5345 C   0  0  0  0  0  0  0  0  0  0  0  0
   -5.2728   -3.1681    0.4912 N   0  0  0  0  0  0  0  0  0  0  0  0
   -5.9503   -3.4723    1.3316 N   0  0  0  0  0  0  0  0  0  0  0  0
   -3.8208   -3.7075   -1.3191 C   0  0  0  0  0  0  0  0  0  0  0  0
   -3.0191   -3.2889   -2.3554 C   0  0  0  0  0  0  0  0  0  0  0  0
   -2.8664   -1.9069   -2.6205 C   0  0  0  0  0  0  0  0  0  0  0  0
   -2.0624   -1.6113   -3.6504 O   0  0  0  0  0  0  0  0  0  0  0  0
   -1.8296   -0.2400   -3.9920 C   0  0  0  0  0  0  0  0  0  0  0  0
   -3.5343   -0.9513   -1.8308 C   0  0  0  0  0  0  0  0  0  0  0  0
   -4.3390   -1.3498   -0.7762 C   0  0  0  0  0  0  0  0  0  0  0  0
   -3.9489   -4.7616   -1.0985 H   0  0  0  0  0  0  0  0  0  0  0  0
   -2.4917   -3.9981   -2.9824 H   0  0  0  0  0  0  0  0  0  0  0  0
   -1.1489   -0.2635   -4.8423 H   0  0  0  0  0  0  0  0  0  0  0  0
   -1.3628    0.2978   -3.1600 H   0  0  0  0  0  0  0  0  0  0  0  0
   -2.7619    0.2562   -4.2814 H   0  0  0  0  0  0  0  0  0  0  0  0
   -3.4232    0.1079   -2.0230 H   0  0  0  0  0  0  0  0  0  0  0  0
   -4.8456   -0.6177   -0.1495 H   0  0  0  0  0  0  0  0  0  0  0  0
   -5.4708   -0.5697    2.4191 S   0  0  0  0  0  0  0  0  0  0  0  0
   -5.3864    0.2988    4.0576 C   0  0  0  0  0  0  0  0  0  0  0  0
   -6.5912   -1.5466    2.5783 O   0  0  0  0  0  0  0  0  0  0  0  0
   -4.1479   -1.2245    2.2630 O   0  0  0  0  0  0  0  0  0  0  0  0
   -5.7337    0.5078    1.4346 O   0  0  0  0  0  0  0  0  0  0  0  0
   -6.5325    0.9454    4.3071 F   0  0  0  0  0  0  0  0  0  0  0  0
   -5.1682   -0.5828    5.0431 F   0  0  0  0  0  0  0  0  0  0  0  0
   -4.3841    1.1894    4.0548 F   0  0  0  0  0  0  0  0  0  0  0  0
  1  2  1  0  0  0  0
  2  3  1  0  0  0  0
  4 11  1  0  0  0  0
  4  1  2  0  0  0  0
  5  4  1  0  0  0  0
  6  5  2  0  0  0  0
  6  9  1  0  0  0  0
  7  6  1  0  0  0  0
  8  7  1  0  0  0  0
  8 14  1  0  0  0  0
  9 10  2  0  0  0  0
 10  1  1  0  0  0  0
 10 17  1  0  0  0  0
 12  5  1  0  0  0  0
 13  8  1  0  0  0  0
 15  8  1  0  0  0  0
 16  9  1  0  0  0  0
 18 20  1  0  0  0  0
 18 19  1  0  0  0  0
 19 23  1  0  0  0  0
 19 24  1  0  0  0  0
 21 18  2  0  0  0  0
 22 18  2  0  0  0  0
 25 19  1  0  0  0  0
M  RAD  3   2   2   3   3  20   2
M  END
