Coordinates from ORCA-job 4-MeOPhN2+~TfO-_B3LYPG-6-31G_dp-NX-Scan-d89-09-n800
 OpenBabel11261920223D

 25 24  0  0  0  0  0  0  0  0999 V2000
   -4.6897   -3.6451   -0.5468 C   0  0  0  0  0  0  0  0  0  0  0  0
   -5.4699   -4.5107    0.1337 N   0  0  0  0  0  0  0  0  0  0  0  0
   -6.1193   -5.2286    0.7029 N   0  0  0  0  0  0  0  0  0  0  0  0
   -3.4323   -4.0931   -1.0434 C   0  0  0  0  0  0  0  0  0  0  0  0
   -2.6233   -3.1757   -1.6573 C   0  0  0  0  0  0  0  0  0  0  0  0
   -3.0328   -1.8132   -1.7636 C   0  0  0  0  0  0  0  0  0  0  0  0
   -2.1369   -0.9976   -2.3098 O   0  0  0  0  0  0  0  0  0  0  0  0
   -2.3990    0.4212   -2.3275 C   0  0  0  0  0  0  0  0  0  0  0  0
   -4.2964   -1.4026   -1.3035 C   0  0  0  0  0  0  0  0  0  0  0  0
   -5.1293   -2.3063   -0.6777 C   0  0  0  0  0  0  0  0  0  0  0  0
   -3.1290   -5.1266   -0.9204 H   0  0  0  0  0  0  0  0  0  0  0  0
   -1.6487   -3.4525   -2.0415 H   0  0  0  0  0  0  0  0  0  0  0  0
   -1.4948    0.8726   -2.7331 H   0  0  0  0  0  0  0  0  0  0  0  0
   -2.5875    0.7819   -1.3140 H   0  0  0  0  0  0  0  0  0  0  0  0
   -3.2511    0.6462   -2.9755 H   0  0  0  0  0  0  0  0  0  0  0  0
   -4.6299   -0.3732   -1.3250 H   0  0  0  0  0  0  0  0  0  0  0  0
   -6.0692   -1.9727   -0.2618 H   0  0  0  0  0  0  0  0  0  0  0  0
   -5.7121   -0.0050    1.7362 S   0  0  0  0  0  0  0  0  0  0  0  0
   -4.0145    0.7268    1.9619 C   0  0  0  0  0  0  0  0  0  0  0  0
   -6.5107    0.6232    2.7944 O   0  0  0  0  0  0  0  0  0  0  0  0
   -5.4579   -1.4689    1.8882 O   0  0  0  0  0  0  0  0  0  0  0  0
   -6.0451    0.3822    0.3372 O   0  0  0  0  0  0  0  0  0  0  0  0
   -4.0352    2.0600    1.8270 F   0  0  0  0  0  0  0  0  0  0  0  0
   -3.5021    0.4274    3.1613 F   0  0  0  0  0  0  0  0  0  0  0  0
   -3.1504    0.2421    1.0223 F   0  0  0  0  0  0  0  0  0  0  0  0
  1  2  1  0  0  0  0
  2  3  1  0  0  0  0
  4 11  1  0  0  0  0
  4  1  2  0  0  0  0
  5  4  1  0  0  0  0
  6  5  2  0  0  0  0
  6  9  1  0  0  0  0
  7  6  1  0  0  0  0
  8  7  1  0  0  0  0
  8 14  1  0  0  0  0
  9 10  2  0  0  0  0
 10  1  1  0  0  0  0
 10 17  1  0  0  0  0
 12  5  1  0  0  0  0
 13  8  1  0  0  0  0
 15  8  1  0  0  0  0
 16  9  1  0  0  0  0
 18 21  2  0  0  0  0
 18 19  1  0  0  0  0
 18 20  1  0  0  0  0
 19 24  1  0  0  0  0
 22 18  2  0  0  0  0
 23 19  1  0  0  0  0
 25 19  1  0  0  0  0
M  RAD  3   2   2   3   3  20   2
M  END
