Coordinates from ORCA-job 4-MeOPhN2+~TfO-_B3LYPG-6-31G_dp-NX-Scan-d89-09-n800
 OpenBabel11261920223D

 25 24  0  0  0  0  0  0  0  0999 V2000
   -4.4550   -2.7249   -0.5228 C   0  0  0  0  0  0  0  0  0  0  0  0
   -5.2401   -3.1534    0.5181 N   0  0  0  0  0  0  0  0  0  0  0  0
   -5.9169   -3.3856    1.3857 N   0  0  0  0  0  0  0  0  0  0  0  0
   -3.8121   -3.7059   -1.3091 C   0  0  0  0  0  0  0  0  0  0  0  0
   -3.0230   -3.2971   -2.3597 C   0  0  0  0  0  0  0  0  0  0  0  0
   -2.8712   -1.9182   -2.6372 C   0  0  0  0  0  0  0  0  0  0  0  0
   -2.0797   -1.6308   -3.6799 O   0  0  0  0  0  0  0  0  0  0  0  0
   -1.8487   -0.2624   -4.0324 C   0  0  0  0  0  0  0  0  0  0  0  0
   -3.5273   -0.9559   -1.8457 C   0  0  0  0  0  0  0  0  0  0  0  0
   -4.3196   -1.3464   -0.7786 C   0  0  0  0  0  0  0  0  0  0  0  0
   -3.9391   -4.7580   -1.0787 H   0  0  0  0  0  0  0  0  0  0  0  0
   -2.5053   -4.0122   -2.9881 H   0  0  0  0  0  0  0  0  0  0  0  0
   -1.1787   -0.2920   -4.8910 H   0  0  0  0  0  0  0  0  0  0  0  0
   -1.3705    0.2797   -3.2096 H   0  0  0  0  0  0  0  0  0  0  0  0
   -2.7834    0.2343   -4.3132 H   0  0  0  0  0  0  0  0  0  0  0  0
   -3.4170    0.1018   -2.0467 H   0  0  0  0  0  0  0  0  0  0  0  0
   -4.8140   -0.6049   -0.1551 H   0  0  0  0  0  0  0  0  0  0  0  0
   -5.4101   -0.5111    2.4109 S   0  0  0  0  0  0  0  0  0  0  0  0
   -5.4480    0.2558    4.1015 C   0  0  0  0  0  0  0  0  0  0  0  0
   -6.5432   -1.4963    2.4385 O   0  0  0  0  0  0  0  0  0  0  0  0
   -4.0852   -1.1662    2.3088 O   0  0  0  0  0  0  0  0  0  0  0  0
   -5.6182    0.6176    1.4756 O   0  0  0  0  0  0  0  0  0  0  0  0
   -6.6159    0.8760    4.3105 F   0  0  0  0  0  0  0  0  0  0  0  0
   -5.2859   -0.6838    5.0431 F   0  0  0  0  0  0  0  0  0  0  0  0
   -4.4586    1.1520    4.2196 F   0  0  0  0  0  0  0  0  0  0  0  0
  1  2  1  0  0  0  0
  2  3  1  0  0  0  0
  4 11  1  0  0  0  0
  4  1  2  0  0  0  0
  5  4  1  0  0  0  0
  6  5  2  0  0  0  0
  6  9  1  0  0  0  0
  7  6  1  0  0  0  0
  8  7  1  0  0  0  0
  8 14  1  0  0  0  0
  9 10  2  0  0  0  0
 10  1  1  0  0  0  0
 10 17  1  0  0  0  0
 12  5  1  0  0  0  0
 13  8  1  0  0  0  0
 15  8  1  0  0  0  0
 16  9  1  0  0  0  0
 18 20  1  0  0  0  0
 18 19  1  0  0  0  0
 19 25  1  0  0  0  0
 19 23  1  0  0  0  0
 19 24  1  0  0  0  0
 21 18  2  0  0  0  0
 22 18  2  0  0  0  0
M  RAD  3   2   2   3   3  20   2
M  END
