Coordinates from ORCA-job 4-MeOPhN2+~TfO-_B3LYPG-6-31G_dp-NX-Scan-d89-09-n800
 OpenBabel11261920223D

 25 24  0  0  0  0  0  0  0  0999 V2000
   -4.2125   -3.0184   -0.4959 C   0  0  0  0  0  0  0  0  0  0  0  0
   -4.8972   -3.5834    0.5484 N   0  0  0  0  0  0  0  0  0  0  0  0
   -5.4647   -3.9159    1.4537 N   0  0  0  0  0  0  0  0  0  0  0  0
   -3.5162   -3.8709   -1.3833 C   0  0  0  0  0  0  0  0  0  0  0  0
   -2.8273   -3.2987   -2.4262 C   0  0  0  0  0  0  0  0  0  0  0  0
   -2.8337   -1.8913   -2.5963 C   0  0  0  0  0  0  0  0  0  0  0  0
   -2.1329   -1.4447   -3.6447 O   0  0  0  0  0  0  0  0  0  0  0  0
   -2.0686   -0.0359   -3.9023 C   0  0  0  0  0  0  0  0  0  0  0  0
   -3.5451   -1.0674   -1.7027 C   0  0  0  0  0  0  0  0  0  0  0  0
   -4.2420   -1.6180   -0.6396 C   0  0  0  0  0  0  0  0  0  0  0  0
   -3.5225   -4.9454   -1.2342 H   0  0  0  0  0  0  0  0  0  0  0  0
   -2.2708   -3.9025   -3.1336 H   0  0  0  0  0  0  0  0  0  0  0  0
   -1.4479    0.0684   -4.7913 H   0  0  0  0  0  0  0  0  0  0  0  0
   -1.6063    0.4943   -3.0635 H   0  0  0  0  0  0  0  0  0  0  0  0
   -3.0653    0.3720   -4.0983 H   0  0  0  0  0  0  0  0  0  0  0  0
   -3.5630    0.0085   -1.8228 H   0  0  0  0  0  0  0  0  0  0  0  0
   -4.8019   -0.9792    0.0537 H   0  0  0  0  0  0  0  0  0  0  0  0
   -5.9447   -0.5084    2.4382 S   0  0  0  0  0  0  0  0  0  0  0  0
   -5.2546    0.5261    3.8170 C   0  0  0  0  0  0  0  0  0  0  0  0
   -7.3630   -0.6948    2.7704 O   0  0  0  0  0  0  0  0  0  0  0  0
   -5.1016   -1.7468    2.5005 O   0  0  0  0  0  0  0  0  0  0  0  0
   -5.6527    0.2974    1.2195 O   0  0  0  0  0  0  0  0  0  0  0  0
   -5.8835    1.7083    3.8765 F   0  0  0  0  0  0  0  0  0  0  0  0
   -5.4050   -0.0968    4.9948 F   0  0  0  0  0  0  0  0  0  0  0  0
   -3.9438    0.7549    3.6261 F   0  0  0  0  0  0  0  0  0  0  0  0
  1  2  1  0  0  0  0
  2  3  1  0  0  0  0
  4 11  1  0  0  0  0
  4  1  2  0  0  0  0
  5  4  1  0  0  0  0
  6  5  2  0  0  0  0
  6  9  1  0  0  0  0
  7  6  1  0  0  0  0
  8  7  1  0  0  0  0
  8 14  1  0  0  0  0
  9 10  2  0  0  0  0
 10  1  1  0  0  0  0
 10 17  1  0  0  0  0
 12  5  1  0  0  0  0
 13  8  1  0  0  0  0
 15  8  1  0  0  0  0
 16  9  1  0  0  0  0
 18 21  2  0  0  0  0
 18 20  1  0  0  0  0
 18 19  1  0  0  0  0
 19 23  1  0  0  0  0
 19 24  1  0  0  0  0
 22 18  2  0  0  0  0
 25 19  1  0  0  0  0
M  RAD  3   2   2   3   3  20   2
M  END
