Coordinates from ORCA-job 4-MeOPhN2+~TfO-_B3LYPG-6-31G_dp-NX-Scan-d89-09-n800
 OpenBabel11261920223D

 25 24  0  0  0  0  0  0  0  0999 V2000
   -4.0459   -4.2067   -0.2970 C   0  0  0  0  0  0  0  0  0  0  0  0
   -4.4165   -5.4654    0.0073 N   0  0  0  0  0  0  0  0  0  0  0  0
   -4.7161   -6.5245    0.2474 N   0  0  0  0  0  0  0  0  0  0  0  0
   -4.9478   -3.3537   -1.0037 C   0  0  0  0  0  0  0  0  0  0  0  0
   -4.5291   -2.0958   -1.3397 C   0  0  0  0  0  0  0  0  0  0  0  0
   -3.2275   -1.6571   -0.9632 C   0  0  0  0  0  0  0  0  0  0  0  0
   -2.9096   -0.4453   -1.3609 O   0  0  0  0  0  0  0  0  0  0  0  0
   -1.7754    0.2489   -0.8182 C   0  0  0  0  0  0  0  0  0  0  0  0
   -2.3564   -2.5017   -0.2182 C   0  0  0  0  0  0  0  0  0  0  0  0
   -2.7537   -3.7749    0.1062 C   0  0  0  0  0  0  0  0  0  0  0  0
   -5.9504   -3.6913   -1.2392 H   0  0  0  0  0  0  0  0  0  0  0  0
   -5.1865   -1.3505   -1.7954 H   0  0  0  0  0  0  0  0  0  0  0  0
   -1.8577    1.2617   -1.2066 H   0  0  0  0  0  0  0  0  0  0  0  0
   -0.8397   -0.2098   -1.1534 H   0  0  0  0  0  0  0  0  0  0  0  0
   -1.8427    0.2690    0.2715 H   0  0  0  0  0  0  0  0  0  0  0  0
   -1.3783   -2.1537    0.0874 H   0  0  0  0  0  0  0  0  0  0  0  0
   -2.1020   -4.4467    0.6540 H   0  0  0  0  0  0  0  0  0  0  0  0
   -6.4859    0.7249   -0.3029 S   0  0  0  0  0  0  0  0  0  0  0  0
   -5.0722    1.1943    0.8294 C   0  0  0  0  0  0  0  0  0  0  0  0
   -7.3733    1.8937   -0.2204 O   0  0  0  0  0  0  0  0  0  0  0  0
   -6.9614   -0.5409    0.3007 O   0  0  0  0  0  0  0  0  0  0  0  0
   -5.7920    0.5359   -1.6102 O   0  0  0  0  0  0  0  0  0  0  0  0
   -4.2771    2.1393    0.2878 F   0  0  0  0  0  0  0  0  0  0  0  0
   -5.5041    1.6445    2.0133 F   0  0  0  0  0  0  0  0  0  0  0  0
   -4.2651    0.1176    1.0883 F   0  0  0  0  0  0  0  0  0  0  0  0
  1  2  1  0  0  0  0
  1 10  2  0  0  0  0
  2  3  1  0  0  0  0
  4  1  1  0  0  0  0
  5  4  2  0  0  0  0
  5  6  1  0  0  0  0
  6  9  2  0  0  0  0
  7  6  1  0  0  0  0
  7  8  1  0  0  0  0
  8 15  1  0  0  0  0
  9 16  1  0  0  0  0
  9 10  1  0  0  0  0
 10 17  1  0  0  0  0
 11  4  1  0  0  0  0
 12  5  1  0  0  0  0
 13  8  1  0  0  0  0
 14  8  1  0  0  0  0
 18 20  2  0  0  0  0
 18 21  1  0  0  0  0
 18 19  1  0  0  0  0
 19 25  1  0  0  0  0
 19 24  1  0  0  0  0
 22 18  2  0  0  0  0
 23 19  1  0  0  0  0
M  RAD  3   2   2   3   3  21   2
M  END
