Coordinates from ORCA-job 4-MeOPhN2+~TfO-_B3LYPG-6-31G_dp-NX-Scan-d89-09-n800
 OpenBabel11261920223D

 25 24  0  0  0  0  0  0  0  0999 V2000
   -4.4668   -2.7280   -0.5305 C   0  0  0  0  0  0  0  0  0  0  0  0
   -5.2612   -3.1618    0.5002 N   0  0  0  0  0  0  0  0  0  0  0  0
   -5.9370   -3.4472    1.3495 N   0  0  0  0  0  0  0  0  0  0  0  0
   -3.8183   -3.7065   -1.3164 C   0  0  0  0  0  0  0  0  0  0  0  0
   -3.0209   -3.2913   -2.3577 C   0  0  0  0  0  0  0  0  0  0  0  0
   -2.8674   -1.9104   -2.6264 C   0  0  0  0  0  0  0  0  0  0  0  0
   -2.0681   -1.6179   -3.6611 O   0  0  0  0  0  0  0  0  0  0  0  0
   -1.8354   -0.2476   -4.0065 C   0  0  0  0  0  0  0  0  0  0  0  0
   -3.5298   -0.9523   -1.8352 C   0  0  0  0  0  0  0  0  0  0  0  0
   -4.3302   -1.3476   -0.7761 C   0  0  0  0  0  0  0  0  0  0  0  0
   -3.9471   -4.7599   -1.0930 H   0  0  0  0  0  0  0  0  0  0  0  0
   -2.4979   -4.0028   -2.9858 H   0  0  0  0  0  0  0  0  0  0  0  0
   -1.1591   -0.2736   -4.8603 H   0  0  0  0  0  0  0  0  0  0  0  0
   -1.3635    0.2912   -3.1780 H   0  0  0  0  0  0  0  0  0  0  0  0
   -2.7685    0.2493   -4.2920 H   0  0  0  0  0  0  0  0  0  0  0  0
   -3.4180    0.1064   -2.0299 H   0  0  0  0  0  0  0  0  0  0  0  0
   -4.8315   -0.6124   -0.1494 H   0  0  0  0  0  0  0  0  0  0  0  0
   -5.4549   -0.5523    2.4169 S   0  0  0  0  0  0  0  0  0  0  0  0
   -5.4069    0.2858    4.0727 C   0  0  0  0  0  0  0  0  0  0  0  0
   -6.5787   -1.5337    2.5372 O   0  0  0  0  0  0  0  0  0  0  0  0
   -4.1302   -1.2053    2.2763 O   0  0  0  0  0  0  0  0  0  0  0  0
   -5.7021    0.5408    1.4467 O   0  0  0  0  0  0  0  0  0  0  0  0
   -6.5592    0.9255    4.3098 F   0  0  0  0  0  0  0  0  0  0  0  0
   -5.2078   -0.6141    5.0457 F   0  0  0  0  0  0  0  0  0  0  0  0
   -4.4065    1.1774    4.1075 F   0  0  0  0  0  0  0  0  0  0  0  0
  1  2  1  0  0  0  0
  2  3  1  0  0  0  0
  4 11  1  0  0  0  0
  4  1  2  0  0  0  0
  5  4  1  0  0  0  0
  6  5  2  0  0  0  0
  6  9  1  0  0  0  0
  7  6  1  0  0  0  0
  8  7  1  0  0  0  0
  8 14  1  0  0  0  0
  9 10  2  0  0  0  0
 10  1  1  0  0  0  0
 10 17  1  0  0  0  0
 12  5  1  0  0  0  0
 13  8  1  0  0  0  0
 15  8  1  0  0  0  0
 16  9  1  0  0  0  0
 18 20  1  0  0  0  0
 18 19  1  0  0  0  0
 19 25  1  0  0  0  0
 19 23  1  0  0  0  0
 19 24  1  0  0  0  0
 21 18  2  0  0  0  0
 22 18  2  0  0  0  0
M  RAD  3   2   2   3   3  20   2
M  END
