Coordinates from ORCA-job 4-MeOPhN2+~TfO-_B3LYPG-6-31G_dp-NX-Scan-d89-09-n800
 OpenBabel11261920223D

 25 24  0  0  0  0  0  0  0  0999 V2000
   -4.7147   -3.5715   -0.5283 C   0  0  0  0  0  0  0  0  0  0  0  0
   -5.5047   -4.3976    0.1889 N   0  0  0  0  0  0  0  0  0  0  0  0
   -6.1597   -5.0835    0.7889 N   0  0  0  0  0  0  0  0  0  0  0  0
   -3.4420   -4.0365   -0.9629 C   0  0  0  0  0  0  0  0  0  0  0  0
   -2.6154   -3.1449   -1.5923 C   0  0  0  0  0  0  0  0  0  0  0  0
   -3.0225   -1.7898   -1.7698 C   0  0  0  0  0  0  0  0  0  0  0  0
   -2.1076   -0.9950   -2.3175 O   0  0  0  0  0  0  0  0  0  0  0  0
   -2.3626    0.4222   -2.3894 C   0  0  0  0  0  0  0  0  0  0  0  0
   -4.3023   -1.3647   -1.3721 C   0  0  0  0  0  0  0  0  0  0  0  0
   -5.1527   -2.2428   -0.7336 C   0  0  0  0  0  0  0  0  0  0  0  0
   -3.1391   -5.0613   -0.7808 H   0  0  0  0  0  0  0  0  0  0  0  0
   -1.6281   -3.4349   -1.9316 H   0  0  0  0  0  0  0  0  0  0  0  0
   -1.4424    0.8585   -2.7750 H   0  0  0  0  0  0  0  0  0  0  0  0
   -2.5855    0.8156   -1.3949 H   0  0  0  0  0  0  0  0  0  0  0  0
   -3.1888    0.6309   -3.0756 H   0  0  0  0  0  0  0  0  0  0  0  0
   -4.6306   -0.3374   -1.4531 H   0  0  0  0  0  0  0  0  0  0  0  0
   -6.1080   -1.8935   -0.3689 H   0  0  0  0  0  0  0  0  0  0  0  0
   -5.7060   -0.1284    1.7767 S   0  0  0  0  0  0  0  0  0  0  0  0
   -4.0268    0.6583    1.9505 C   0  0  0  0  0  0  0  0  0  0  0  0
   -6.4703    0.4237    2.9004 O   0  0  0  0  0  0  0  0  0  0  0  0
   -5.3916   -1.5873    1.8532 O   0  0  0  0  0  0  0  0  0  0  0  0
   -6.1241    0.3008    0.4138 O   0  0  0  0  0  0  0  0  0  0  0  0
   -4.1042    1.9939    1.8772 F   0  0  0  0  0  0  0  0  0  0  0  0
   -3.4447    0.3282    3.1098 F   0  0  0  0  0  0  0  0  0  0  0  0
   -3.1929    0.2487    0.9505 F   0  0  0  0  0  0  0  0  0  0  0  0
  1  2  1  0  0  0  0
  2  3  1  0  0  0  0
  4 11  1  0  0  0  0
  4  1  2  0  0  0  0
  5  4  1  0  0  0  0
  6  5  2  0  0  0  0
  6  9  1  0  0  0  0
  7  6  1  0  0  0  0
  8  7  1  0  0  0  0
  8 14  1  0  0  0  0
  9 10  2  0  0  0  0
 10  1  1  0  0  0  0
 10 17  1  0  0  0  0
 12  5  1  0  0  0  0
 13  8  1  0  0  0  0
 15  8  1  0  0  0  0
 16  9  1  0  0  0  0
 18 21  2  0  0  0  0
 18 19  1  0  0  0  0
 18 20  1  0  0  0  0
 19 24  1  0  0  0  0
 22 18  2  0  0  0  0
 23 19  1  0  0  0  0
 25 19  1  0  0  0  0
M  RAD  3   2   2   3   3  20   2
M  END
