Coordinates from ORCA-job 4-MeOPhN2+~TfO-_B3LYPG-6-31G_dp-NX-Scan-d89-09-n800
 OpenBabel11261920223D

 25 24  0  0  0  0  0  0  0  0999 V2000
   -4.2304   -3.0166   -0.4324 C   0  0  0  0  0  0  0  0  0  0  0  0
   -4.9259   -3.6304    0.5765 N   0  0  0  0  0  0  0  0  0  0  0  0
   -5.4785   -4.1998    1.3619 N   0  0  0  0  0  0  0  0  0  0  0  0
   -3.4283   -3.8442   -1.2573 C   0  0  0  0  0  0  0  0  0  0  0  0
   -2.7320   -3.2575   -2.2858 C   0  0  0  0  0  0  0  0  0  0  0  0
   -2.8295   -1.8599   -2.5064 C   0  0  0  0  0  0  0  0  0  0  0  0
   -2.1105   -1.3978   -3.5345 O   0  0  0  0  0  0  0  0  0  0  0  0
   -2.1311    0.0040   -3.8366 C   0  0  0  0  0  0  0  0  0  0  0  0
   -3.6392   -1.0627   -1.6750 C   0  0  0  0  0  0  0  0  0  0  0  0
   -4.3467   -1.6281   -0.6274 C   0  0  0  0  0  0  0  0  0  0  0  0
   -3.3648   -4.9111   -1.0719 H   0  0  0  0  0  0  0  0  0  0  0  0
   -2.0995   -3.8427   -2.9433 H   0  0  0  0  0  0  0  0  0  0  0  0
   -1.4778    0.1240   -4.6998 H   0  0  0  0  0  0  0  0  0  0  0  0
   -1.7462    0.5902   -2.9962 H   0  0  0  0  0  0  0  0  0  0  0  0
   -3.1433    0.3343   -4.0908 H   0  0  0  0  0  0  0  0  0  0  0  0
   -3.7231    0.0062   -1.8258 H   0  0  0  0  0  0  0  0  0  0  0  0
   -4.9644   -1.0049    0.0249 H   0  0  0  0  0  0  0  0  0  0  0  0
   -6.0445   -0.3958    2.3165 S   0  0  0  0  0  0  0  0  0  0  0  0
   -5.0803    0.4206    3.6764 C   0  0  0  0  0  0  0  0  0  0  0  0
   -7.4400   -0.3608    2.7677 O   0  0  0  0  0  0  0  0  0  0  0  0
   -5.4295   -1.7595    2.2426 O   0  0  0  0  0  0  0  0  0  0  0  0
   -5.7104    0.4208    1.1166 O   0  0  0  0  0  0  0  0  0  0  0  0
   -5.4776    1.6901    3.8427 F   0  0  0  0  0  0  0  0  0  0  0  0
   -5.2476   -0.2335    4.8356 F   0  0  0  0  0  0  0  0  0  0  0  0
   -3.7657    0.4268    3.3861 F   0  0  0  0  0  0  0  0  0  0  0  0
  1  2  1  0  0  0  0
  2  3  1  0  0  0  0
  4 11  1  0  0  0  0
  4  1  2  0  0  0  0
  5  4  1  0  0  0  0
  6  5  2  0  0  0  0
  6  9  1  0  0  0  0
  7  6  1  0  0  0  0
  8  7  1  0  0  0  0
  8 14  1  0  0  0  0
  9 10  2  0  0  0  0
 10  1  1  0  0  0  0
 10 17  1  0  0  0  0
 12  5  1  0  0  0  0
 13  8  1  0  0  0  0
 15  8  1  0  0  0  0
 16  9  1  0  0  0  0
 18 20  1  0  0  0  0
 18 19  1  0  0  0  0
 19 23  1  0  0  0  0
 19 24  1  0  0  0  0
 21 18  2  0  0  0  0
 22 18  2  0  0  0  0
 25 19  1  0  0  0  0
M  RAD  3   2   2   3   3  20   2
M  END
