Coordinates from ORCA-job 4-MeOPhN2+~TfO-_B3LYPG-6-31G_dp-NX-Scan-d89-09-n800
 OpenBabel11261920223D

 25 25  0  0  0  0  0  0  0  0999 V2000
   -3.9645   -2.5649   -0.3465 C   0  0  0  0  0  0  0  0  0  0  0  0
   -4.4219   -2.9286    0.9169 N   0  0  0  0  0  0  0  0  0  0  0  0
   -4.7720   -2.5216    1.9520 N   0  0  0  0  0  0  0  0  0  0  0  0
   -3.6515   -3.6239   -1.2212 C   0  0  0  0  0  0  0  0  0  0  0  0
   -3.1835   -3.3497   -2.4897 C   0  0  0  0  0  0  0  0  0  0  0  0
   -3.0216   -2.0120   -2.9049 C   0  0  0  0  0  0  0  0  0  0  0  0
   -2.5596   -1.8478   -4.1591 O   0  0  0  0  0  0  0  0  0  0  0  0
   -2.3616   -0.5260   -4.6621 C   0  0  0  0  0  0  0  0  0  0  0  0
   -3.3376   -0.9573   -2.0285 C   0  0  0  0  0  0  0  0  0  0  0  0
   -3.8092   -1.2258   -0.7509 C   0  0  0  0  0  0  0  0  0  0  0  0
   -3.7816   -4.6461   -0.8825 H   0  0  0  0  0  0  0  0  0  0  0  0
   -2.9320   -4.1423   -3.1850 H   0  0  0  0  0  0  0  0  0  0  0  0
   -1.9861   -0.6512   -5.6774 H   0  0  0  0  0  0  0  0  0  0  0  0
   -1.6239    0.0198   -4.0637 H   0  0  0  0  0  0  0  0  0  0  0  0
   -3.3032    0.0337   -4.6871 H   0  0  0  0  0  0  0  0  0  0  0  0
   -3.2185    0.0744   -2.3354 H   0  0  0  0  0  0  0  0  0  0  0  0
   -4.0561   -0.4270   -0.0643 H   0  0  0  0  0  0  0  0  0  0  0  0
   -4.6420   -0.0977    3.3684 S   0  0  0  0  0  0  0  0  0  0  0  0
   -6.4153   -0.1432    3.9294 C   0  0  0  0  0  0  0  0  0  0  0  0
   -4.7757   -0.7405    1.9408 O   0  0  0  0  0  0  0  0  0  0  0  0
   -3.9059   -0.9592    4.2874 O   0  0  0  0  0  0  0  0  0  0  0  0
   -4.2979    1.3128    3.2180 O   0  0  0  0  0  0  0  0  0  0  0  0
   -7.1830    0.5707    3.1001 F   0  0  0  0  0  0  0  0  0  0  0  0
   -6.8584   -1.4061    3.9510 F   0  0  0  0  0  0  0  0  0  0  0  0
   -6.5042    0.3713    5.1586 F   0  0  0  0  0  0  0  0  0  0  0  0
  1  2  1  0  0  0  0
  2  3  1  0  0  0  0
  4 11  1  0  0  0  0
  4  1  2  0  0  0  0
  5  4  1  0  0  0  0
  6  5  2  0  0  0  0
  6  9  1  0  0  0  0
  7  6  1  0  0  0  0
  8  7  1  0  0  0  0
  8 14  1  0  0  0  0
  9 10  2  0  0  0  0
 10  1  1  0  0  0  0
 10 17  1  0  0  0  0
 12  5  1  0  0  0  0
 13  8  1  0  0  0  0
 15  8  1  0  0  0  0
 16  9  1  0  0  0  0
 18 19  1  0  0  0  0
 18 21  2  0  0  0  0
 19 24  1  0  0  0  0
 19 25  1  0  0  0  0
 20  3  1  0  0  0  0
 20 18  1  0  0  0  0
 22 18  2  0  0  0  0
 23 19  1  0  0  0  0
M  RAD  2   2   2   3   2
M  END
