Coordinates from ORCA-job 4-MeOPhN2+~TfO-_B3LYPG-6-31G_dp-NX-Scan-d89-09-n800
 OpenBabel11261920223D

 25 24  0  0  0  0  0  0  0  0999 V2000
   -4.4552   -4.0654   -0.5738 C   0  0  0  0  0  0  0  0  0  0  0  0
   -5.0793   -5.0972    0.0291 N   0  0  0  0  0  0  0  0  0  0  0  0
   -5.6022   -5.9575    0.5311 N   0  0  0  0  0  0  0  0  0  0  0  0
   -3.4163   -4.3515   -1.5080 C   0  0  0  0  0  0  0  0  0  0  0  0
   -2.7747   -3.2975   -2.0995 C   0  0  0  0  0  0  0  0  0  0  0  0
   -3.1471   -1.9586   -1.7765 C   0  0  0  0  0  0  0  0  0  0  0  0
   -2.4419   -1.0113   -2.3681 O   0  0  0  0  0  0  0  0  0  0  0  0
   -2.6992    0.3794   -2.0283 C   0  0  0  0  0  0  0  0  0  0  0  0
   -4.1995   -1.6965   -0.8693 C   0  0  0  0  0  0  0  0  0  0  0  0
   -4.8496   -2.7385   -0.2521 C   0  0  0  0  0  0  0  0  0  0  0  0
   -3.1461   -5.3777   -1.7299 H   0  0  0  0  0  0  0  0  0  0  0  0
   -1.9697   -3.4558   -2.8083 H   0  0  0  0  0  0  0  0  0  0  0  0
   -1.9608    0.9432   -2.5945 H   0  0  0  0  0  0  0  0  0  0  0  0
   -2.5775    0.5335   -0.9546 H   0  0  0  0  0  0  0  0  0  0  0  0
   -3.7133    0.6639   -2.3130 H   0  0  0  0  0  0  0  0  0  0  0  0
   -4.5172   -0.6770   -0.6346 H   0  0  0  0  0  0  0  0  0  0  0  0
   -5.6241   -2.5031    0.4754 H   0  0  0  0  0  0  0  0  0  0  0  0
   -5.6490    0.8077    1.2353 S   0  0  0  0  0  0  0  0  0  0  0  0
   -4.0705    1.0239    2.1948 C   0  0  0  0  0  0  0  0  0  0  0  0
   -6.5681    1.7985    1.8030 O   0  0  0  0  0  0  0  0  0  0  0  0
   -5.9798   -0.6238    1.4752 O   0  0  0  0  0  0  0  0  0  0  0  0
   -5.1818    1.0699   -0.1607 O   0  0  0  0  0  0  0  0  0  0  0  0
   -3.6286    2.2875    2.1340 F   0  0  0  0  0  0  0  0  0  0  0  0
   -4.2189    0.6881    3.4831 F   0  0  0  0  0  0  0  0  0  0  0  0
   -3.0966    0.2274    1.6744 F   0  0  0  0  0  0  0  0  0  0  0  0
  1 10  1  0  0  0  0
  1  2  1  0  0  0  0
  2  3  1  0  0  0  0
  4  1  2  0  0  0  0
  5  6  2  0  0  0  0
  5  4  1  0  0  0  0
  6  9  1  0  0  0  0
  7  8  1  0  0  0  0
  7  6  1  0  0  0  0
  8 14  1  0  0  0  0
  9 16  1  0  0  0  0
  9 10  2  0  0  0  0
 10 17  1  0  0  0  0
 11  4  1  0  0  0  0
 12  5  1  0  0  0  0
 13  8  1  0  0  0  0
 15  8  1  0  0  0  0
 18 21  2  0  0  0  0
 18 20  1  0  0  0  0
 18 19  1  0  0  0  0
 19 24  1  0  0  0  0
 22 18  2  0  0  0  0
 23 19  1  0  0  0  0
 25 19  1  0  0  0  0
M  RAD  3   2   2   3   3  20   2
M  END
