Coordinates from ORCA-job 4-MeOPhN2+~TfO-_B3LYPG-6-31G_dp-NX-Scan-d89-09-n800
 OpenBabel11261920223D

 25 24  0  0  0  0  0  0  0  0999 V2000
   -4.6170   -3.7531   -0.5739 C   0  0  0  0  0  0  0  0  0  0  0  0
   -5.3648   -4.6490    0.1059 N   0  0  0  0  0  0  0  0  0  0  0  0
   -5.9936   -5.3802    0.6812 N   0  0  0  0  0  0  0  0  0  0  0  0
   -3.4410   -4.1953   -1.2451 C   0  0  0  0  0  0  0  0  0  0  0  0
   -2.6676   -3.2513   -1.8654 C   0  0  0  0  0  0  0  0  0  0  0  0
   -3.0345   -1.8732   -1.8128 C   0  0  0  0  0  0  0  0  0  0  0  0
   -2.1756   -1.0365   -2.3835 O   0  0  0  0  0  0  0  0  0  0  0  0
   -2.4017    0.3852   -2.2643 C   0  0  0  0  0  0  0  0  0  0  0  0
   -4.2240   -1.4667   -1.1802 C   0  0  0  0  0  0  0  0  0  0  0  0
   -5.0191   -2.3966   -0.5459 C   0  0  0  0  0  0  0  0  0  0  0  0
   -3.1684   -5.2449   -1.2470 H   0  0  0  0  0  0  0  0  0  0  0  0
   -1.7524   -3.5230   -2.3784 H   0  0  0  0  0  0  0  0  0  0  0  0
   -1.5332    0.8509   -2.7274 H   0  0  0  0  0  0  0  0  0  0  0  0
   -2.4765    0.6695   -1.2122 H   0  0  0  0  0  0  0  0  0  0  0  0
   -3.3113    0.6745   -2.7976 H   0  0  0  0  0  0  0  0  0  0  0  0
   -4.5380   -0.4321   -1.0910 H   0  0  0  0  0  0  0  0  0  0  0  0
   -5.8831   -2.0682    0.0207 H   0  0  0  0  0  0  0  0  0  0  0  0
   -5.7807    0.1891    1.6908 S   0  0  0  0  0  0  0  0  0  0  0  0
   -4.0816    0.8664    2.0384 C   0  0  0  0  0  0  0  0  0  0  0  0
   -6.6592    0.9267    2.6044 O   0  0  0  0  0  0  0  0  0  0  0  0
   -5.6157   -1.2664    1.9751 O   0  0  0  0  0  0  0  0  0  0  0  0
   -5.9423    0.4838    0.2387 O   0  0  0  0  0  0  0  0  0  0  0  0
   -4.0337    2.1909    1.8376 F   0  0  0  0  0  0  0  0  0  0  0  0
   -3.6899    0.6112    3.2923 F   0  0  0  0  0  0  0  0  0  0  0  0
   -3.1622    0.3001    1.2039 F   0  0  0  0  0  0  0  0  0  0  0  0
  1 10  1  0  0  0  0
  1  2  1  0  0  0  0
  2  3  1  0  0  0  0
  4  1  2  0  0  0  0
  5  6  2  0  0  0  0
  5  4  1  0  0  0  0
  6  9  1  0  0  0  0
  7  8  1  0  0  0  0
  7  6  1  0  0  0  0
  8 14  1  0  0  0  0
  9 16  1  0  0  0  0
  9 10  2  0  0  0  0
 10 17  1  0  0  0  0
 11  4  1  0  0  0  0
 12  5  1  0  0  0  0
 13  8  1  0  0  0  0
 15  8  1  0  0  0  0
 18 21  2  0  0  0  0
 18 19  1  0  0  0  0
 18 20  1  0  0  0  0
 19 24  1  0  0  0  0
 22 18  2  0  0  0  0
 23 19  1  0  0  0  0
 25 19  1  0  0  0  0
M  RAD  3   2   2   3   3  20   2
M  END
