Coordinates from ORCA-job 4-MeOPhN2+~TfO-_B3LYPG-6-31G_dp-NX-Scan-d89-09-n800
 OpenBabel11261920223D

 25 24  0  0  0  0  0  0  0  0999 V2000
   -4.0605   -4.1868   -0.2888 C   0  0  0  0  0  0  0  0  0  0  0  0
   -4.4409   -5.4393    0.0294 N   0  0  0  0  0  0  0  0  0  0  0  0
   -4.7477   -6.4935    0.2817 N   0  0  0  0  0  0  0  0  0  0  0  0
   -4.9503   -3.3384   -1.0159 C   0  0  0  0  0  0  0  0  0  0  0  0
   -4.5198   -2.0881   -1.3660 C   0  0  0  0  0  0  0  0  0  0  0  0
   -3.2209   -1.6508   -0.9803 C   0  0  0  0  0  0  0  0  0  0  0  0
   -2.8931   -0.4445   -1.3878 O   0  0  0  0  0  0  0  0  0  0  0  0
   -1.7640    0.2512   -0.8362 C   0  0  0  0  0  0  0  0  0  0  0  0
   -2.3619   -2.4906   -0.2161 C   0  0  0  0  0  0  0  0  0  0  0  0
   -2.7696   -3.7571    0.1211 C   0  0  0  0  0  0  0  0  0  0  0  0
   -5.9532   -3.6720   -1.2552 H   0  0  0  0  0  0  0  0  0  0  0  0
   -5.1691   -1.3454   -1.8358 H   0  0  0  0  0  0  0  0  0  0  0  0
   -1.8355    1.2598   -1.2376 H   0  0  0  0  0  0  0  0  0  0  0  0
   -0.8253   -0.2148   -1.1524 H   0  0  0  0  0  0  0  0  0  0  0  0
   -1.8473    0.2840    0.2521 H   0  0  0  0  0  0  0  0  0  0  0  0
   -1.3852   -2.1438    0.0951 H   0  0  0  0  0  0  0  0  0  0  0  0
   -2.1273   -4.4252    0.6843 H   0  0  0  0  0  0  0  0  0  0  0  0
   -6.4769    0.6966   -0.2964 S   0  0  0  0  0  0  0  0  0  0  0  0
   -5.0719    1.1717    0.8442 C   0  0  0  0  0  0  0  0  0  0  0  0
   -7.3876    1.8457   -0.1907 O   0  0  0  0  0  0  0  0  0  0  0  0
   -6.9279   -0.5899    0.2832 O   0  0  0  0  0  0  0  0  0  0  0  0
   -5.7800    0.5460   -1.6066 O   0  0  0  0  0  0  0  0  0  0  0  0
   -4.2962    2.1415    0.3205 F   0  0  0  0  0  0  0  0  0  0  0  0
   -5.5114    1.5898    2.0370 F   0  0  0  0  0  0  0  0  0  0  0  0
   -4.2436    0.1057    1.0815 F   0  0  0  0  0  0  0  0  0  0  0  0
  1  2  1  0  0  0  0
  1 10  2  0  0  0  0
  2  3  1  0  0  0  0
  4  1  1  0  0  0  0
  5  4  2  0  0  0  0
  5  6  1  0  0  0  0
  6  9  2  0  0  0  0
  7  6  1  0  0  0  0
  7  8  1  0  0  0  0
  8 15  1  0  0  0  0
  9 16  1  0  0  0  0
  9 10  1  0  0  0  0
 10 17  1  0  0  0  0
 11  4  1  0  0  0  0
 12  5  1  0  0  0  0
 13  8  1  0  0  0  0
 14  8  1  0  0  0  0
 18 20  2  0  0  0  0
 18 21  1  0  0  0  0
 18 19  1  0  0  0  0
 19 25  1  0  0  0  0
 19 24  1  0  0  0  0
 22 18  2  0  0  0  0
 23 19  1  0  0  0  0
M  RAD  3   2   2   3   3  21   2
M  END
