Coordinates from ORCA-job 4-MeOPhN2+~TfO-_B3LYPG-6-31G_dp-NX-Scan-d89-09-n800
 OpenBabel11261920223D

 25 24  0  0  0  0  0  0  0  0999 V2000
   -4.6988   -3.4536   -0.4947 C   0  0  0  0  0  0  0  0  0  0  0  0
   -5.4807   -4.2097    0.3106 N   0  0  0  0  0  0  0  0  0  0  0  0
   -6.1219   -4.8364    0.9816 N   0  0  0  0  0  0  0  0  0  0  0  0
   -3.4456   -3.9691   -0.9202 C   0  0  0  0  0  0  0  0  0  0  0  0
   -2.6091   -3.1300   -1.6101 C   0  0  0  0  0  0  0  0  0  0  0  0
   -2.9878   -1.7788   -1.8491 C   0  0  0  0  0  0  0  0  0  0  0  0
   -2.0579   -1.0245   -2.4319 O   0  0  0  0  0  0  0  0  0  0  0  0
   -2.2739    0.3959   -2.5300 C   0  0  0  0  0  0  0  0  0  0  0  0
   -4.2578   -1.3101   -1.4653 C   0  0  0  0  0  0  0  0  0  0  0  0
   -5.1198   -2.1368   -0.7768 C   0  0  0  0  0  0  0  0  0  0  0  0
   -3.1574   -4.9863   -0.6815 H   0  0  0  0  0  0  0  0  0  0  0  0
   -1.6317   -3.4582   -1.9430 H   0  0  0  0  0  0  0  0  0  0  0  0
   -1.3402    0.8024   -2.9157 H   0  0  0  0  0  0  0  0  0  0  0  0
   -2.4922    0.8136   -1.5433 H   0  0  0  0  0  0  0  0  0  0  0  0
   -3.0896    0.6174   -3.2250 H   0  0  0  0  0  0  0  0  0  0  0  0
   -4.5646   -0.2833   -1.6104 H   0  0  0  0  0  0  0  0  0  0  0  0
   -6.0587   -1.7413   -0.4098 H   0  0  0  0  0  0  0  0  0  0  0  0
   -5.7909   -0.2606    1.8818 S   0  0  0  0  0  0  0  0  0  0  0  0
   -4.1193    0.5518    2.0104 C   0  0  0  0  0  0  0  0  0  0  0  0
   -6.5243    0.2659    3.0380 O   0  0  0  0  0  0  0  0  0  0  0  0
   -5.4536   -1.7155    1.9226 O   0  0  0  0  0  0  0  0  0  0  0  0
   -6.2606    0.1823    0.5391 O   0  0  0  0  0  0  0  0  0  0  0  0
   -4.2262    1.8873    1.9896 F   0  0  0  0  0  0  0  0  0  0  0  0
   -3.4832    0.1939    3.1336 F   0  0  0  0  0  0  0  0  0  0  0  0
   -3.3211    0.1956    0.9639 F   0  0  0  0  0  0  0  0  0  0  0  0
  1  2  1  0  0  0  0
  2  3  1  0  0  0  0
  4 11  1  0  0  0  0
  4  1  2  0  0  0  0
  5  4  1  0  0  0  0
  6  5  2  0  0  0  0
  6  9  1  0  0  0  0
  7  6  1  0  0  0  0
  8  7  1  0  0  0  0
  8 14  1  0  0  0  0
  9 10  2  0  0  0  0
 10  1  1  0  0  0  0
 10 17  1  0  0  0  0
 12  5  1  0  0  0  0
 13  8  1  0  0  0  0
 15  8  1  0  0  0  0
 16  9  1  0  0  0  0
 18 21  2  0  0  0  0
 18 19  1  0  0  0  0
 18 20  1  0  0  0  0
 19 24  1  0  0  0  0
 22 18  2  0  0  0  0
 23 19  1  0  0  0  0
 25 19  1  0  0  0  0
M  RAD  3   2   2   3   3  20   2
M  END
