Coordinates from ORCA-job 4-MeOPhN2+~TfO-_B3LYPG-6-31G_dp-NX-Scan-d89-09-n800
 OpenBabel11261920223D

 25 25  0  0  0  0  0  0  0  0999 V2000
   -3.8798   -2.5148   -0.2279 C   0  0  0  0  0  0  0  0  0  0  0  0
   -4.2624   -2.9568    1.0461 N   0  0  0  0  0  0  0  0  0  0  0  0
   -4.5177   -2.4271    2.0991 N   0  0  0  0  0  0  0  0  0  0  0  0
   -3.6932   -3.5668   -1.1506 C   0  0  0  0  0  0  0  0  0  0  0  0
   -3.3087   -3.3108   -2.4515 C   0  0  0  0  0  0  0  0  0  0  0  0
   -3.0977   -1.9834   -2.8682 C   0  0  0  0  0  0  0  0  0  0  0  0
   -2.7227   -1.8276   -4.1567 O   0  0  0  0  0  0  0  0  0  0  0  0
   -2.4920   -0.5124   -4.6555 C   0  0  0  0  0  0  0  0  0  0  0  0
   -3.2804   -0.9283   -1.9583 C   0  0  0  0  0  0  0  0  0  0  0  0
   -3.6687   -1.1861   -0.6486 C   0  0  0  0  0  0  0  0  0  0  0  0
   -3.8598   -4.5830   -0.8100 H   0  0  0  0  0  0  0  0  0  0  0  0
   -3.1612   -4.1108   -3.1683 H   0  0  0  0  0  0  0  0  0  0  0  0
   -2.2026   -0.6381   -5.6989 H   0  0  0  0  0  0  0  0  0  0  0  0
   -1.6818   -0.0149   -4.1103 H   0  0  0  0  0  0  0  0  0  0  0  0
   -3.3998    0.0998   -4.6003 H   0  0  0  0  0  0  0  0  0  0  0  0
   -3.1213    0.0991   -2.2622 H   0  0  0  0  0  0  0  0  0  0  0  0
   -3.8036   -0.3647    0.0386 H   0  0  0  0  0  0  0  0  0  0  0  0
   -4.5934   -0.1719    3.4711 S   0  0  0  0  0  0  0  0  0  0  0  0
   -6.4540   -0.2035    3.6286 C   0  0  0  0  0  0  0  0  0  0  0  0
   -4.4210   -0.9010    2.0277 O   0  0  0  0  0  0  0  0  0  0  0  0
   -4.0563   -0.9841    4.5476 O   0  0  0  0  0  0  0  0  0  0  0  0
   -4.2067    1.2127    3.2567 O   0  0  0  0  0  0  0  0  0  0  0  0
   -7.0043    0.4335    2.5947 F   0  0  0  0  0  0  0  0  0  0  0  0
   -6.8903   -1.4614    3.6593 F   0  0  0  0  0  0  0  0  0  0  0  0
   -6.7875    0.4142    4.7619 F   0  0  0  0  0  0  0  0  0  0  0  0
  1  2  1  0  0  0  0
  2  3  1  0  0  0  0
  4 11  1  0  0  0  0
  4  1  2  0  0  0  0
  5  4  1  0  0  0  0
  6  5  2  0  0  0  0
  6  9  1  0  0  0  0
  7  6  1  0  0  0  0
  8 15  1  0  0  0  0
  8  7  1  0  0  0  0
  8 14  1  0  0  0  0
  9 10  2  0  0  0  0
 10  1  1  0  0  0  0
 10 17  1  0  0  0  0
 12  5  1  0  0  0  0
 13  8  1  0  0  0  0
 16  9  1  0  0  0  0
 18 19  1  0  0  0  0
 18 21  2  0  0  0  0
 19 24  1  0  0  0  0
 19 25  1  0  0  0  0
 20  3  1  0  0  0  0
 20 18  1  0  0  0  0
 22 18  2  0  0  0  0
 23 19  1  0  0  0  0
M  RAD  2   2   2   3   2
M  END
