Coordinates from ORCA-job 4-MeOPhN2+~TfO-_B3LYPG-6-31G_dp-NX-Scan-d89-09-n800
 OpenBabel11261920223D

 25 24  0  0  0  0  0  0  0  0999 V2000
   -4.0317   -2.5788   -0.3887 C   0  0  0  0  0  0  0  0  0  0  0  0
   -4.5387   -2.9280    0.8577 N   0  0  0  0  0  0  0  0  0  0  0  0
   -4.9480   -2.5502    1.8740 N   0  0  0  0  0  0  0  0  0  0  0  0
   -3.6545   -3.6371   -1.2378 C   0  0  0  0  0  0  0  0  0  0  0  0
   -3.1360   -3.3566   -2.4849 C   0  0  0  0  0  0  0  0  0  0  0  0
   -2.9868   -2.0167   -2.9001 C   0  0  0  0  0  0  0  0  0  0  0  0
   -2.4723   -1.8486   -4.1320 O   0  0  0  0  0  0  0  0  0  0  0  0
   -2.2771   -0.5251   -4.6333 C   0  0  0  0  0  0  0  0  0  0  0  0
   -3.3674   -0.9643   -2.0459 C   0  0  0  0  0  0  0  0  0  0  0  0
   -3.8913   -1.2374   -0.7905 C   0  0  0  0  0  0  0  0  0  0  0  0
   -3.7745   -4.6604   -0.8990 H   0  0  0  0  0  0  0  0  0  0  0  0
   -2.8340   -4.1458   -3.1637 H   0  0  0  0  0  0  0  0  0  0  0  0
   -1.8537   -0.6482   -5.6297 H   0  0  0  0  0  0  0  0  0  0  0  0
   -1.5777    0.0371   -4.0048 H   0  0  0  0  0  0  0  0  0  0  0  0
   -3.2271    0.0157   -4.7038 H   0  0  0  0  0  0  0  0  0  0  0  0
   -3.2583    0.0683   -2.3535 H   0  0  0  0  0  0  0  0  0  0  0  0
   -4.1910   -0.4453   -0.1161 H   0  0  0  0  0  0  0  0  0  0  0  0
   -4.6905   -0.0649    3.2422 S   0  0  0  0  0  0  0  0  0  0  0  0
   -6.3513   -0.1431    4.0738 C   0  0  0  0  0  0  0  0  0  0  0  0
   -5.0273   -0.7108    1.8609 O   0  0  0  0  0  0  0  0  0  0  0  0
   -3.8046   -0.9108    4.0392 O   0  0  0  0  0  0  0  0  0  0  0  0
   -4.3964    1.3542    3.0568 O   0  0  0  0  0  0  0  0  0  0  0  0
   -7.2552    0.5529    3.3764 F   0  0  0  0  0  0  0  0  0  0  0  0
   -6.7605   -1.4154    4.1633 F   0  0  0  0  0  0  0  0  0  0  0  0
   -6.2608    0.3712    5.3037 F   0  0  0  0  0  0  0  0  0  0  0  0
  1  2  1  0  0  0  0
  2  3  2  0  0  0  0
  4 11  1  0  0  0  0
  4  1  2  0  0  0  0
  5  4  1  0  0  0  0
  6  5  2  0  0  0  0
  6  9  1  0  0  0  0
  7  6  1  0  0  0  0
  8  7  1  0  0  0  0
  8 14  1  0  0  0  0
  9 10  2  0  0  0  0
 10  1  1  0  0  0  0
 10 17  1  0  0  0  0
 12  5  1  0  0  0  0
 13  8  1  0  0  0  0
 15  8  1  0  0  0  0
 16  9  1  0  0  0  0
 18 21  1  0  0  0  0
 18 19  1  0  0  0  0
 19 24  1  0  0  0  0
 19 25  1  0  0  0  0
 20 18  2  0  0  0  0
 22 18  2  0  0  0  0
 23 19  1  0  0  0  0
M  RAD  2   3   2  21   2
M  END
