Coordinates from ORCA-job 4-MeOPhN2+~TfO-_B3LYPG-6-31G_dp-NX-Scan-d89-09-n800
 OpenBabel11261920223D

 25 24  0  0  0  0  0  0  0  0999 V2000
   -4.5401   -3.8417   -0.5672 C   0  0  0  0  0  0  0  0  0  0  0  0
   -5.2450   -4.7620    0.1257 N   0  0  0  0  0  0  0  0  0  0  0  0
   -5.8487   -5.4993    0.7201 N   0  0  0  0  0  0  0  0  0  0  0  0
   -3.4266   -4.2546   -1.3538 C   0  0  0  0  0  0  0  0  0  0  0  0
   -2.7005   -3.2826   -1.9890 C   0  0  0  0  0  0  0  0  0  0  0  0
   -3.0562   -1.9083   -1.8423 C   0  0  0  0  0  0  0  0  0  0  0  0
   -2.2452   -1.0419   -2.4359 O   0  0  0  0  0  0  0  0  0  0  0  0
   -2.4739    0.3726   -2.2377 C   0  0  0  0  0  0  0  0  0  0  0  0
   -4.1889   -1.5302   -1.0961 C   0  0  0  0  0  0  0  0  0  0  0  0
   -4.9325   -2.4873   -0.4419 C   0  0  0  0  0  0  0  0  0  0  0  0
   -3.1621   -5.3034   -1.4301 H   0  0  0  0  0  0  0  0  0  0  0  0
   -1.8320   -3.5314   -2.5880 H   0  0  0  0  0  0  0  0  0  0  0  0
   -1.6353    0.8663   -2.7257 H   0  0  0  0  0  0  0  0  0  0  0  0
   -2.4956    0.6091   -1.1711 H   0  0  0  0  0  0  0  0  0  0  0  0
   -3.4149    0.6762   -2.7038 H   0  0  0  0  0  0  0  0  0  0  0  0
   -4.5040   -0.4985   -0.9494 H   0  0  0  0  0  0  0  0  0  0  0  0
   -5.7396   -2.1706    0.2197 H   0  0  0  0  0  0  0  0  0  0  0  0
   -5.8012    0.3999    1.5614 S   0  0  0  0  0  0  0  0  0  0  0  0
   -4.1026    0.8939    2.1389 C   0  0  0  0  0  0  0  0  0  0  0  0
   -6.7184    1.2301    2.3469 O   0  0  0  0  0  0  0  0  0  0  0  0
   -5.8297   -1.0619    1.8637 O   0  0  0  0  0  0  0  0  0  0  0  0
   -5.7246    0.6993    0.1032 O   0  0  0  0  0  0  0  0  0  0  0  0
   -3.9003    2.2105    1.9915 F   0  0  0  0  0  0  0  0  0  0  0  0
   -3.8985    0.5735    3.4226 F   0  0  0  0  0  0  0  0  0  0  0  0
   -3.1506    0.2542    1.4026 F   0  0  0  0  0  0  0  0  0  0  0  0
  1 10  1  0  0  0  0
  1  2  1  0  0  0  0
  2  3  1  0  0  0  0
  4  1  2  0  0  0  0
  5  6  2  0  0  0  0
  5  4  1  0  0  0  0
  6  9  1  0  0  0  0
  7  8  1  0  0  0  0
  7  6  1  0  0  0  0
  8 14  1  0  0  0  0
  9 16  1  0  0  0  0
  9 10  2  0  0  0  0
 10 17  1  0  0  0  0
 11  4  1  0  0  0  0
 12  5  1  0  0  0  0
 13  8  1  0  0  0  0
 15  8  1  0  0  0  0
 18 21  2  0  0  0  0
 18 19  1  0  0  0  0
 18 20  1  0  0  0  0
 19 24  1  0  0  0  0
 22 18  2  0  0  0  0
 23 19  1  0  0  0  0
 25 19  1  0  0  0  0
M  RAD  3   2   2   3   3  20   2
M  END
