Coordinates from ORCA-job 4-MeOPhN2+~TfO-_B3LYPG-6-31G_dp-NX-Scan-d89-09-n800
 OpenBabel11261920223D

 25 25  0  0  0  0  0  0  0  0999 V2000
   -3.8822   -2.5043   -0.2176 C   0  0  0  0  0  0  0  0  0  0  0  0
   -4.2643   -2.9593    1.0548 N   0  0  0  0  0  0  0  0  0  0  0  0
   -4.5129   -2.4026    2.1061 N   0  0  0  0  0  0  0  0  0  0  0  0
   -3.7070   -3.5555   -1.1443 C   0  0  0  0  0  0  0  0  0  0  0  0
   -3.3248   -3.3037   -2.4468 C   0  0  0  0  0  0  0  0  0  0  0  0
   -3.1030   -1.9789   -2.8644 C   0  0  0  0  0  0  0  0  0  0  0  0
   -2.7308   -1.8259   -4.1551 O   0  0  0  0  0  0  0  0  0  0  0  0
   -2.4898   -0.5128   -4.6529 C   0  0  0  0  0  0  0  0  0  0  0  0
   -3.2728   -0.9232   -1.9535 C   0  0  0  0  0  0  0  0  0  0  0  0
   -3.6593   -1.1780   -0.6420 C   0  0  0  0  0  0  0  0  0  0  0  0
   -3.8815   -4.5701   -0.8028 H   0  0  0  0  0  0  0  0  0  0  0  0
   -3.1872   -4.1055   -3.1637 H   0  0  0  0  0  0  0  0  0  0  0  0
   -2.2048   -0.6395   -5.6975 H   0  0  0  0  0  0  0  0  0  0  0  0
   -1.6734   -0.0229   -4.1098 H   0  0  0  0  0  0  0  0  0  0  0  0
   -3.3917    0.1081   -4.5942 H   0  0  0  0  0  0  0  0  0  0  0  0
   -3.1051    0.1029   -2.2572 H   0  0  0  0  0  0  0  0  0  0  0  0
   -3.7823   -0.3521    0.0414 H   0  0  0  0  0  0  0  0  0  0  0  0
   -4.5926   -0.1751    3.4664 S   0  0  0  0  0  0  0  0  0  0  0  0
   -6.4553   -0.2228    3.6199 C   0  0  0  0  0  0  0  0  0  0  0  0
   -4.4090   -0.9280    2.0212 O   0  0  0  0  0  0  0  0  0  0  0  0
   -4.0444   -0.9673    4.5506 O   0  0  0  0  0  0  0  0  0  0  0  0
   -4.2160    1.2053    3.2176 O   0  0  0  0  0  0  0  0  0  0  0  0
   -7.0061    0.3784    2.5661 F   0  0  0  0  0  0  0  0  0  0  0  0
   -6.8781   -1.4821    3.6885 F   0  0  0  0  0  0  0  0  0  0  0  0
   -6.7926    0.4268    4.7336 F   0  0  0  0  0  0  0  0  0  0  0  0
  1  2  1  0  0  0  0
  2  3  1  0  0  0  0
  4 11  1  0  0  0  0
  4  1  2  0  0  0  0
  5  4  1  0  0  0  0
  6  5  2  0  0  0  0
  6  9  1  0  0  0  0
  7  6  1  0  0  0  0
  8 15  1  0  0  0  0
  8  7  1  0  0  0  0
  8 14  1  0  0  0  0
  9 10  2  0  0  0  0
 10  1  1  0  0  0  0
 10 17  1  0  0  0  0
 12  5  1  0  0  0  0
 13  8  1  0  0  0  0
 16  9  1  0  0  0  0
 18 19  1  0  0  0  0
 18 21  2  0  0  0  0
 19 24  1  0  0  0  0
 19 25  1  0  0  0  0
 20  3  1  0  0  0  0
 20 18  1  0  0  0  0
 22 18  2  0  0  0  0
 23 19  1  0  0  0  0
M  RAD  2   2   2   3   2
M  END
