Coordinates from ORCA-job 4-MeOPhN2+~TfO-_B3LYPG-6-31G_dp-NX-Scan-d89-09-n800
 OpenBabel11261920223D

 25 24  0  0  0  0  0  0  0  0999 V2000
   -4.1496   -4.0426   -0.2332 C   0  0  0  0  0  0  0  0  0  0  0  0
   -4.6028   -5.2433    0.1760 N   0  0  0  0  0  0  0  0  0  0  0  0
   -4.9632   -6.2591    0.5034 N   0  0  0  0  0  0  0  0  0  0  0  0
   -4.9541   -3.2378   -1.0929 C   0  0  0  0  0  0  0  0  0  0  0  0
   -4.4423   -2.0493   -1.5377 C   0  0  0  0  0  0  0  0  0  0  0  0
   -3.1617   -1.6172   -1.1011 C   0  0  0  0  0  0  0  0  0  0  0  0
   -2.7615   -0.4597   -1.5867 O   0  0  0  0  0  0  0  0  0  0  0  0
   -1.6581    0.2482   -0.9999 C   0  0  0  0  0  0  0  0  0  0  0  0
   -2.3892   -2.4105   -0.2061 C   0  0  0  0  0  0  0  0  0  0  0  0
   -2.8695   -3.6229    0.2200 C   0  0  0  0  0  0  0  0  0  0  0  0
   -5.9586   -3.5463   -1.3551 H   0  0  0  0  0  0  0  0  0  0  0  0
   -5.0395   -1.3379   -2.1028 H   0  0  0  0  0  0  0  0  0  0  0  0
   -1.6137    1.1938   -1.5362 H   0  0  0  0  0  0  0  0  0  0  0  0
   -0.7196   -0.2996   -1.1352 H   0  0  0  0  0  0  0  0  0  0  0  0
   -1.8643    0.4307    0.0569 H   0  0  0  0  0  0  0  0  0  0  0  0
   -1.4244   -2.0674    0.1430 H   0  0  0  0  0  0  0  0  0  0  0  0
   -2.2945   -4.2547    0.8880 H   0  0  0  0  0  0  0  0  0  0  0  0
   -6.4309    0.5308   -0.2470 S   0  0  0  0  0  0  0  0  0  0  0  0
   -5.1142    1.0064    0.9875 C   0  0  0  0  0  0  0  0  0  0  0  0
   -7.4486    1.5757   -0.0640 O   0  0  0  0  0  0  0  0  0  0  0  0
   -6.7881   -0.8438    0.1842 O   0  0  0  0  0  0  0  0  0  0  0  0
   -5.6785    0.5765   -1.5316 O   0  0  0  0  0  0  0  0  0  0  0  0
   -4.5208    2.1689    0.6703 F   0  0  0  0  0  0  0  0  0  0  0  0
   -5.6020    1.1096    2.2302 F   0  0  0  0  0  0  0  0  0  0  0  0
   -4.1173    0.0633    1.0344 F   0  0  0  0  0  0  0  0  0  0  0  0
  1  2  1  0  0  0  0
  1 10  1  0  0  0  0
  2  3  1  0  0  0  0
  4  1  2  0  0  0  0
  5  6  2  0  0  0  0
  5  4  1  0  0  0  0
  6  9  1  0  0  0  0
  7  6  1  0  0  0  0
  7  8  1  0  0  0  0
  8 15  1  0  0  0  0
  9 16  1  0  0  0  0
  9 10  2  0  0  0  0
 10 17  1  0  0  0  0
 11  4  1  0  0  0  0
 12  5  1  0  0  0  0
 13  8  1  0  0  0  0
 14  8  1  0  0  0  0
 18 20  2  0  0  0  0
 18 21  1  0  0  0  0
 18 19  1  0  0  0  0
 19 25  1  0  0  0  0
 19 24  1  0  0  0  0
 22 18  2  0  0  0  0
 23 19  1  0  0  0  0
M  RAD  3   2   2   3   3  21   2
M  END
