Coordinates from ORCA-job 4-MeOPhN2+~TfO-_B3LYPG-6-31G_dp-NX-Scan-d89-09-n800
 OpenBabel11261920223D

 25 25  0  0  0  0  0  0  0  0999 V2000
   -3.8517   -1.8047   -0.4113 C   0  0  0  0  0  0  0  0  0  0  0  0
   -4.3028   -1.8003    0.9462 N   0  0  0  0  0  0  0  0  0  0  0  0
   -4.4638   -0.6552    1.4561 N   0  0  0  0  0  0  0  0  0  0  0  0
   -3.7230   -3.0988   -0.9487 C   0  0  0  0  0  0  0  0  0  0  0  0
   -3.2940   -3.2853   -2.2501 C   0  0  0  0  0  0  0  0  0  0  0  0
   -2.9772   -2.1786   -3.0565 C   0  0  0  0  0  0  0  0  0  0  0  0
   -2.5635   -2.4665   -4.3192 O   0  0  0  0  0  0  0  0  0  0  0  0
   -2.2228   -1.3903   -5.1818 C   0  0  0  0  0  0  0  0  0  0  0  0
   -3.1004   -0.8880   -2.5302 C   0  0  0  0  0  0  0  0  0  0  0  0
   -3.5357   -0.7023   -1.2147 C   0  0  0  0  0  0  0  0  0  0  0  0
   -3.9689   -3.9447   -0.3161 H   0  0  0  0  0  0  0  0  0  0  0  0
   -3.1928   -4.2801   -2.6705 H   0  0  0  0  0  0  0  0  0  0  0  0
   -1.9215   -1.8458   -6.1256 H   0  0  0  0  0  0  0  0  0  0  0  0
   -1.3872   -0.8023   -4.7816 H   0  0  0  0  0  0  0  0  0  0  0  0
   -3.0794   -0.7272   -5.3579 H   0  0  0  0  0  0  0  0  0  0  0  0
   -2.8609   -0.0163   -3.1270 H   0  0  0  0  0  0  0  0  0  0  0  0
   -3.6135    0.3151   -0.8494 H   0  0  0  0  0  0  0  0  0  0  0  0
   -5.1808    0.2368    3.9498 S   0  0  2  0  0  0  0  0  0  0  0  0
   -6.6743   -0.5364    4.8089 C   0  0  0  0  0  0  0  0  0  0  0  0
   -4.4080    0.2898    1.2963 O   0  0  0  0  0  0  0  0  0  0  0  0
   -4.9971   -1.1031    3.0285 O   0  0  0  0  0  0  0  0  0  0  0  0
   -4.1182    0.3696    4.9790 O   0  0  0  0  0  0  0  0  0  0  0  0
   -7.0789    0.3195    5.7571 F   0  0  0  0  0  0  0  0  0  0  0  0
   -7.6577   -0.6851    3.9136 F   0  0  0  0  0  0  0  0  0  0  0  0
   -6.3928   -1.7081    5.3696 F   0  0  0  0  0  0  0  0  0  0  0  0
  1  2  1  0  0  0  0
  2  3  1  0  0  0  0
  3 21  1  0  0  0  0
  4  1  1  0  0  0  0
  4 11  1  0  0  0  0
  5  4  2  0  0  0  0
  6  9  2  0  0  0  0
  6  5  1  0  0  0  0
  7  6  1  0  0  0  0
  8 14  1  0  0  0  0
  8  7  1  0  0  0  0
  9 10  1  0  0  0  0
 10 17  1  0  0  0  0
 10  1  2  0  0  0  0
 12  5  1  0  0  0  0
 13  8  1  0  0  0  0
 15  8  1  0  0  0  0
 16  9  1  0  0  0  0
 18 21  1  6  0  0  0
 18 19  1  0  0  0  0
 18 22  1  0  0  0  0
 19 25  1  0  0  0  0
 19 23  1  0  0  0  0
 20  3  1  0  0  0  0
 24 19  1  0  0  0  0
M  RAD  3   2   2  20   2  22   2
M  END
