Coordinates from ORCA-job 4-MeOPhN2+~TfO-_B3LYPG-6-31G_dp-NX-Scan-d89-09-n800
 OpenBabel11261920223D

 25 24  0  0  0  0  0  0  0  0999 V2000
   -4.1118   -4.1053   -0.2581 C   0  0  0  0  0  0  0  0  0  0  0  0
   -4.5330   -5.3295    0.1139 N   0  0  0  0  0  0  0  0  0  0  0  0
   -4.8712   -6.3627    0.4090 N   0  0  0  0  0  0  0  0  0  0  0  0
   -4.9525   -3.2832   -1.0669 C   0  0  0  0  0  0  0  0  0  0  0  0
   -4.4781   -2.0655   -1.4710 C   0  0  0  0  0  0  0  0  0  0  0  0
   -3.1922   -1.6275   -1.0505 C   0  0  0  0  0  0  0  0  0  0  0  0
   -2.8256   -0.4470   -1.5028 O   0  0  0  0  0  0  0  0  0  0  0  0
   -1.7178    0.2614   -0.9244 C   0  0  0  0  0  0  0  0  0  0  0  0
   -2.3832   -2.4395   -0.2062 C   0  0  0  0  0  0  0  0  0  0  0  0
   -2.8301   -3.6774    0.1821 C   0  0  0  0  0  0  0  0  0  0  0  0
   -5.9546   -3.6055   -1.3226 H   0  0  0  0  0  0  0  0  0  0  0  0
   -5.0994   -1.3409   -1.9963 H   0  0  0  0  0  0  0  0  0  0  0  0
   -1.7145    1.2292   -1.4212 H   0  0  0  0  0  0  0  0  0  0  0  0
   -0.7736   -0.2594   -1.1155 H   0  0  0  0  0  0  0  0  0  0  0  0
   -1.8904    0.3961    0.1453 H   0  0  0  0  0  0  0  0  0  0  0  0
   -1.4160   -2.0918    0.1317 H   0  0  0  0  0  0  0  0  0  0  0  0
   -2.2266   -4.3239    0.8099 H   0  0  0  0  0  0  0  0  0  0  0  0
   -6.4447    0.5978   -0.2662 S   0  0  0  0  0  0  0  0  0  0  0  0
   -5.0780    1.0650    0.9204 C   0  0  0  0  0  0  0  0  0  0  0  0
   -7.4146    1.6894   -0.0973 O   0  0  0  0  0  0  0  0  0  0  0  0
   -6.8401   -0.7450    0.2230 O   0  0  0  0  0  0  0  0  0  0  0  0
   -5.7253    0.5685   -1.5710 O   0  0  0  0  0  0  0  0  0  0  0  0
   -4.3759    2.1301    0.4922 F   0  0  0  0  0  0  0  0  0  0  0  0
   -5.5437    1.3366    2.1453 F   0  0  0  0  0  0  0  0  0  0  0  0
   -4.1740    0.0419    1.0616 F   0  0  0  0  0  0  0  0  0  0  0  0
  1  2  1  0  0  0  0
  1 10  2  0  0  0  0
  2  3  1  0  0  0  0
  4  1  1  0  0  0  0
  5  4  2  0  0  0  0
  5  6  1  0  0  0  0
  6  9  2  0  0  0  0
  7  6  1  0  0  0  0
  7  8  1  0  0  0  0
  8 15  1  0  0  0  0
  9 16  1  0  0  0  0
  9 10  1  0  0  0  0
 10 17  1  0  0  0  0
 11  4  1  0  0  0  0
 12  5  1  0  0  0  0
 13  8  1  0  0  0  0
 14  8  1  0  0  0  0
 18 20  2  0  0  0  0
 18 21  1  0  0  0  0
 18 19  1  0  0  0  0
 19 25  1  0  0  0  0
 19 24  1  0  0  0  0
 22 18  2  0  0  0  0
 23 19  1  0  0  0  0
M  RAD  3   2   2   3   3  21   2
M  END
