Coordinates from ORCA-job 4-MeOPhN2+~TfO-_B3LYPG-6-31G_dp-NX-Scan-d89-09-n800
 OpenBabel11261920223D

 25 24  0  0  0  0  0  0  0  0999 V2000
   -4.6968   -3.6303   -0.5419 C   0  0  0  0  0  0  0  0  0  0  0  0
   -5.4798   -4.4914    0.1407 N   0  0  0  0  0  0  0  0  0  0  0  0
   -6.1292   -5.2082    0.7109 N   0  0  0  0  0  0  0  0  0  0  0  0
   -3.4328   -4.0793   -1.0201 C   0  0  0  0  0  0  0  0  0  0  0  0
   -2.6197   -3.1661   -1.6349 C   0  0  0  0  0  0  0  0  0  0  0  0
   -3.0324   -1.8062   -1.7598 C   0  0  0  0  0  0  0  0  0  0  0  0
   -2.1329   -0.9932   -2.3044 O   0  0  0  0  0  0  0  0  0  0  0  0
   -2.3974    0.4246   -2.3369 C   0  0  0  0  0  0  0  0  0  0  0  0
   -4.3025   -1.3954   -1.3182 C   0  0  0  0  0  0  0  0  0  0  0  0
   -5.1390   -2.2948   -0.6912 C   0  0  0  0  0  0  0  0  0  0  0  0
   -3.1276   -5.1104   -0.8824 H   0  0  0  0  0  0  0  0  0  0  0  0
   -1.6401   -3.4437   -2.0054 H   0  0  0  0  0  0  0  0  0  0  0  0
   -1.4897    0.8744   -2.7366 H   0  0  0  0  0  0  0  0  0  0  0  0
   -2.5967    0.7935   -1.3284 H   0  0  0  0  0  0  0  0  0  0  0  0
   -3.2428    0.6430   -2.9959 H   0  0  0  0  0  0  0  0  0  0  0  0
   -4.6371   -0.3670   -1.3544 H   0  0  0  0  0  0  0  0  0  0  0  0
   -6.0850   -1.9599   -0.2909 H   0  0  0  0  0  0  0  0  0  0  0  0
   -5.7066   -0.0280    1.7404 S   0  0  0  0  0  0  0  0  0  0  0  0
   -4.0091    0.7079    1.9546 C   0  0  0  0  0  0  0  0  0  0  0  0
   -6.4948    0.5880    2.8134 O   0  0  0  0  0  0  0  0  0  0  0  0
   -5.4455   -1.4925    1.8766 O   0  0  0  0  0  0  0  0  0  0  0  0
   -6.0569    0.3699    0.3489 O   0  0  0  0  0  0  0  0  0  0  0  0
   -4.0359    2.0420    1.8311 F   0  0  0  0  0  0  0  0  0  0  0  0
   -3.4840    0.4004    3.1464 F   0  0  0  0  0  0  0  0  0  0  0  0
   -3.1525    0.2343    1.0026 F   0  0  0  0  0  0  0  0  0  0  0  0
  1  2  1  0  0  0  0
  2  3  1  0  0  0  0
  4 11  1  0  0  0  0
  4  1  2  0  0  0  0
  5  4  1  0  0  0  0
  6  5  2  0  0  0  0
  6  9  1  0  0  0  0
  7  6  1  0  0  0  0
  8  7  1  0  0  0  0
  8 14  1  0  0  0  0
  9 10  2  0  0  0  0
 10  1  1  0  0  0  0
 10 17  1  0  0  0  0
 12  5  1  0  0  0  0
 13  8  1  0  0  0  0
 15  8  1  0  0  0  0
 16  9  1  0  0  0  0
 18 21  2  0  0  0  0
 18 19  1  0  0  0  0
 18 20  1  0  0  0  0
 19 24  1  0  0  0  0
 22 18  2  0  0  0  0
 23 19  1  0  0  0  0
 25 19  1  0  0  0  0
M  RAD  3   2   2   3   3  20   2
M  END
