Coordinates from ORCA-job 4-MeOPhN2+~TfO-_B3LYPG-6-31G_dp-NX-Scan-d89-09-n800
 OpenBabel11261920223D

 25 24  0  0  0  0  0  0  0  0999 V2000
   -4.6487   -3.7144   -0.5642 C   0  0  0  0  0  0  0  0  0  0  0  0
   -5.4101   -4.6037    0.1080 N   0  0  0  0  0  0  0  0  0  0  0  0
   -6.0460   -5.3378    0.6718 N   0  0  0  0  0  0  0  0  0  0  0  0
   -3.4292   -4.1547   -1.1546 C   0  0  0  0  0  0  0  0  0  0  0  0
   -2.6420   -3.2182   -1.7681 C   0  0  0  0  0  0  0  0  0  0  0  0
   -3.0364   -1.8470   -1.7856 C   0  0  0  0  0  0  0  0  0  0  0  0
   -2.1629   -1.0154   -2.3420 O   0  0  0  0  0  0  0  0  0  0  0  0
   -2.4142    0.4055   -2.2834 C   0  0  0  0  0  0  0  0  0  0  0  0
   -4.2653   -1.4429   -1.2329 C   0  0  0  0  0  0  0  0  0  0  0  0
   -5.0755   -2.3656   -0.6064 C   0  0  0  0  0  0  0  0  0  0  0  0
   -3.1366   -5.1974   -1.1019 H   0  0  0  0  0  0  0  0  0  0  0  0
   -1.6955   -3.4889   -2.2210 H   0  0  0  0  0  0  0  0  0  0  0  0
   -1.5298    0.8686   -2.7182 H   0  0  0  0  0  0  0  0  0  0  0  0
   -2.5454    0.7229   -1.2465 H   0  0  0  0  0  0  0  0  0  0  0  0
   -3.2991    0.6625   -2.8722 H   0  0  0  0  0  0  0  0  0  0  0  0
   -4.5945   -0.4111   -1.1899 H   0  0  0  0  0  0  0  0  0  0  0  0
   -5.9791   -2.0391   -0.1087 H   0  0  0  0  0  0  0  0  0  0  0  0
   -5.7465    0.1234    1.7038 S   0  0  0  0  0  0  0  0  0  0  0  0
   -4.0387    0.8027    2.0030 C   0  0  0  0  0  0  0  0  0  0  0  0
   -6.5877    0.8289    2.6766 O   0  0  0  0  0  0  0  0  0  0  0  0
   -5.5606   -1.3390    1.9371 O   0  0  0  0  0  0  0  0  0  0  0  0
   -5.9728    0.4588    0.2697 O   0  0  0  0  0  0  0  0  0  0  0  0
   -4.0039    2.1312    1.8290 F   0  0  0  0  0  0  0  0  0  0  0  0
   -3.6013    0.5226    3.2363 F   0  0  0  0  0  0  0  0  0  0  0  0
   -3.1454    0.2597    1.1247 F   0  0  0  0  0  0  0  0  0  0  0  0
  1  2  1  0  0  0  0
  2  3  1  0  0  0  0
  4 11  1  0  0  0  0
  4  1  2  0  0  0  0
  5  4  1  0  0  0  0
  6  5  2  0  0  0  0
  6  9  1  0  0  0  0
  7  8  1  0  0  0  0
  7  6  1  0  0  0  0
  8 14  1  0  0  0  0
  9 16  1  0  0  0  0
  9 10  2  0  0  0  0
 10  1  1  0  0  0  0
 10 17  1  0  0  0  0
 12  5  1  0  0  0  0
 13  8  1  0  0  0  0
 15  8  1  0  0  0  0
 18 21  2  0  0  0  0
 18 19  1  0  0  0  0
 18 20  1  0  0  0  0
 19 24  1  0  0  0  0
 22 18  2  0  0  0  0
 23 19  1  0  0  0  0
 25 19  1  0  0  0  0
M  RAD  3   2   2   3   3  20   2
M  END
