Coordinates from ORCA-job 4-MeOPhN2+~TfO-_B3LYPG-6-31G_dp-NX-Scan-d89-09-n800
 OpenBabel11261920223D

 25 24  0  0  0  0  0  0  0  0999 V2000
   -4.4558   -4.0576   -0.5730 C   0  0  0  0  0  0  0  0  0  0  0  0
   -5.0838   -5.0825    0.0374 N   0  0  0  0  0  0  0  0  0  0  0  0
   -5.6143   -5.9319    0.5496 N   0  0  0  0  0  0  0  0  0  0  0  0
   -3.4173   -4.3494   -1.5057 C   0  0  0  0  0  0  0  0  0  0  0  0
   -2.7736   -3.2985   -2.1006 C   0  0  0  0  0  0  0  0  0  0  0  0
   -3.1435   -1.9577   -1.7821 C   0  0  0  0  0  0  0  0  0  0  0  0
   -2.4358   -1.0128   -2.3755 O   0  0  0  0  0  0  0  0  0  0  0  0
   -2.6923    0.3784   -2.0385 C   0  0  0  0  0  0  0  0  0  0  0  0
   -4.1958   -1.6905   -0.8768 C   0  0  0  0  0  0  0  0  0  0  0  0
   -4.8479   -2.7292   -0.2564 C   0  0  0  0  0  0  0  0  0  0  0  0
   -3.1488   -5.3769   -1.7238 H   0  0  0  0  0  0  0  0  0  0  0  0
   -1.9686   -3.4606   -2.8085 H   0  0  0  0  0  0  0  0  0  0  0  0
   -1.9516    0.9408   -2.6032 H   0  0  0  0  0  0  0  0  0  0  0  0
   -2.5737    0.5343   -0.9646 H   0  0  0  0  0  0  0  0  0  0  0  0
   -3.7051    0.6638   -2.3273 H   0  0  0  0  0  0  0  0  0  0  0  0
   -4.5121   -0.6700   -0.6441 H   0  0  0  0  0  0  0  0  0  0  0  0
   -5.6210   -2.4893    0.4713 H   0  0  0  0  0  0  0  0  0  0  0  0
   -5.6529    0.7932    1.2423 S   0  0  0  0  0  0  0  0  0  0  0  0
   -4.0743    1.0183    2.1995 C   0  0  0  0  0  0  0  0  0  0  0  0
   -6.5795    1.7743    1.8143 O   0  0  0  0  0  0  0  0  0  0  0  0
   -5.9731   -0.6412    1.4800 O   0  0  0  0  0  0  0  0  0  0  0  0
   -5.1902    1.0628   -0.1536 O   0  0  0  0  0  0  0  0  0  0  0  0
   -3.6417    2.2852    2.1407 F   0  0  0  0  0  0  0  0  0  0  0  0
   -4.2181    0.6786    3.4874 F   0  0  0  0  0  0  0  0  0  0  0  0
   -3.0961    0.2300    1.6754 F   0  0  0  0  0  0  0  0  0  0  0  0
  1 10  1  0  0  0  0
  1  2  1  0  0  0  0
  2  3  1  0  0  0  0
  4  1  2  0  0  0  0
  5  6  2  0  0  0  0
  5  4  1  0  0  0  0
  6  9  1  0  0  0  0
  7  8  1  0  0  0  0
  7  6  1  0  0  0  0
  8 14  1  0  0  0  0
  9 16  1  0  0  0  0
  9 10  2  0  0  0  0
 10 17  1  0  0  0  0
 11  4  1  0  0  0  0
 12  5  1  0  0  0  0
 13  8  1  0  0  0  0
 15  8  1  0  0  0  0
 18 21  2  0  0  0  0
 18 20  1  0  0  0  0
 18 19  1  0  0  0  0
 19 24  1  0  0  0  0
 22 18  2  0  0  0  0
 23 19  1  0  0  0  0
 25 19  1  0  0  0  0
M  RAD  3   2   2   3   3  20   2
M  END
