Coordinates from ORCA-job 4-MeOPhN2+~TfO-_B3LYPG-6-31G_dp-NX-Scan-d89-09-n800
 OpenBabel11261920223D

 25 24  0  0  0  0  0  0  0  0999 V2000
   -4.4422   -2.6108   -0.4512 C   0  0  0  0  0  0  0  0  0  0  0  0
   -5.2085   -2.9292    0.6508 N   0  0  0  0  0  0  0  0  0  0  0  0
   -5.8773   -2.7220    1.5456 N   0  0  0  0  0  0  0  0  0  0  0  0
   -3.7078   -3.6318   -1.0825 C   0  0  0  0  0  0  0  0  0  0  0  0
   -2.9320   -3.3106   -2.1756 C   0  0  0  0  0  0  0  0  0  0  0  0
   -2.8876   -1.9790   -2.6462 C   0  0  0  0  0  0  0  0  0  0  0  0
   -2.0971   -1.7747   -3.7117 O   0  0  0  0  0  0  0  0  0  0  0  0
   -1.9611   -0.4529   -4.2422 C   0  0  0  0  0  0  0  0  0  0  0  0
   -3.6411   -0.9722   -2.0103 C   0  0  0  0  0  0  0  0  0  0  0  0
   -4.4185   -1.2804   -0.9065 C   0  0  0  0  0  0  0  0  0  0  0  0
   -3.7502   -4.6462   -0.7020 H   0  0  0  0  0  0  0  0  0  0  0  0
   -2.3426   -4.0604   -2.6901 H   0  0  0  0  0  0  0  0  0  0  0  0
   -1.2675   -0.5434   -5.0776 H   0  0  0  0  0  0  0  0  0  0  0  0
   -1.5476    0.2310   -3.4930 H   0  0  0  0  0  0  0  0  0  0  0  0
   -2.9221   -0.0721   -4.6040 H   0  0  0  0  0  0  0  0  0  0  0  0
   -3.6171    0.0502   -2.3643 H   0  0  0  0  0  0  0  0  0  0  0  0
   -5.0097   -0.5329   -0.3916 H   0  0  0  0  0  0  0  0  0  0  0  0
   -5.0478   -0.0050    2.4384 S   0  0  0  0  0  0  0  0  0  0  0  0
   -5.6257   -0.2388    4.1878 C   0  0  0  0  0  0  0  0  0  0  0  0
   -6.1785   -0.6546    1.6417 O   0  0  0  0  0  0  0  0  0  0  0  0
   -3.8017   -0.7872    2.3410 O   0  0  0  0  0  0  0  0  0  0  0  0
   -4.9813    1.4443    2.2310 O   0  0  0  0  0  0  0  0  0  0  0  0
   -6.7877    0.3914    4.3912 F   0  0  0  0  0  0  0  0  0  0  0  0
   -5.7978   -1.5468    4.4435 F   0  0  0  0  0  0  0  0  0  0  0  0
   -4.7165    0.2458    5.0423 F   0  0  0  0  0  0  0  0  0  0  0  0
  1  2  1  0  0  0  0
  2  3  1  0  0  0  0
  4 11  1  0  0  0  0
  4  1  2  0  0  0  0
  5  4  1  0  0  0  0
  6  5  2  0  0  0  0
  6  9  1  0  0  0  0
  7  6  1  0  0  0  0
  8  7  1  0  0  0  0
  8 14  1  0  0  0  0
  9 10  2  0  0  0  0
 10  1  1  0  0  0  0
 10 17  1  0  0  0  0
 12  5  1  0  0  0  0
 13  8  1  0  0  0  0
 15  8  1  0  0  0  0
 16  9  1  0  0  0  0
 18 19  1  0  0  0  0
 19 23  1  0  0  0  0
 19 24  1  0  0  0  0
 19 25  1  0  0  0  0
 20 18  2  0  0  0  0
 21 18  1  0  0  0  0
 22 18  2  0  0  0  0
M  RAD  3   2   2   3   3  21   2
M  END
