Coordinates from ORCA-job 4-MeOPhN2+~TfO-_B3LYPG-6-31G_dp-NX-Scan-d89-09-n800
 OpenBabel11261920223D

 25 24  0  0  0  0  0  0  0  0999 V2000
   -4.6661   -3.6910   -0.5594 C   0  0  0  0  0  0  0  0  0  0  0  0
   -5.4359   -4.5745    0.1104 N   0  0  0  0  0  0  0  0  0  0  0  0
   -6.0770   -5.3061    0.6716 N   0  0  0  0  0  0  0  0  0  0  0  0
   -3.4299   -4.1329   -1.1125 C   0  0  0  0  0  0  0  0  0  0  0  0
   -2.6337   -3.2023   -1.7230 C   0  0  0  0  0  0  0  0  0  0  0  0
   -3.0355   -1.8341   -1.7733 C   0  0  0  0  0  0  0  0  0  0  0  0
   -2.1532   -1.0075   -2.3240 O   0  0  0  0  0  0  0  0  0  0  0  0
   -2.4112    0.4126   -2.2958 C   0  0  0  0  0  0  0  0  0  0  0  0
   -4.2793   -1.4285   -1.2570 C   0  0  0  0  0  0  0  0  0  0  0  0
   -5.0989   -2.3454   -0.6338 C   0  0  0  0  0  0  0  0  0  0  0  0
   -3.1324   -5.1726   -1.0342 H   0  0  0  0  0  0  0  0  0  0  0  0
   -1.6750   -3.4744   -2.1484 H   0  0  0  0  0  0  0  0  0  0  0  0
   -1.5182    0.8721   -2.7168 H   0  0  0  0  0  0  0  0  0  0  0  0
   -2.5685    0.7471   -1.2681 H   0  0  0  0  0  0  0  0  0  0  0  0
   -3.2822    0.6561   -2.9109 H   0  0  0  0  0  0  0  0  0  0  0  0
   -4.6108   -0.3974   -1.2368 H   0  0  0  0  0  0  0  0  0  0  0  0
   -6.0184   -2.0167   -0.1691 H   0  0  0  0  0  0  0  0  0  0  0  0
   -5.7302    0.0766    1.7167 S   0  0  0  0  0  0  0  0  0  0  0  0
   -4.0255    0.7775    1.9832 C   0  0  0  0  0  0  0  0  0  0  0  0
   -6.5546    0.7554    2.7225 O   0  0  0  0  0  0  0  0  0  0  0  0
   -5.5161   -1.3863    1.9226 O   0  0  0  0  0  0  0  0  0  0  0  0
   -6.0002    0.4286    0.2945 O   0  0  0  0  0  0  0  0  0  0  0  0
   -4.0124    2.1074    1.8173 F   0  0  0  0  0  0  0  0  0  0  0  0
   -3.5588    0.4955    3.2053 F   0  0  0  0  0  0  0  0  0  0  0  0
   -3.1427    0.2526    1.0833 F   0  0  0  0  0  0  0  0  0  0  0  0
  1  2  1  0  0  0  0
  2  3  1  0  0  0  0
  4 11  1  0  0  0  0
  4  1  2  0  0  0  0
  5  4  1  0  0  0  0
  6  5  2  0  0  0  0
  6  9  1  0  0  0  0
  7  8  1  0  0  0  0
  7  6  1  0  0  0  0
  8 14  1  0  0  0  0
  9 16  1  0  0  0  0
  9 10  2  0  0  0  0
 10  1  1  0  0  0  0
 10 17  1  0  0  0  0
 12  5  1  0  0  0  0
 13  8  1  0  0  0  0
 15  8  1  0  0  0  0
 18 21  2  0  0  0  0
 18 19  1  0  0  0  0
 18 20  1  0  0  0  0
 19 24  1  0  0  0  0
 22 18  2  0  0  0  0
 23 19  1  0  0  0  0
 25 19  1  0  0  0  0
M  RAD  3   2   2   3   3  20   2
M  END
