Coordinates from ORCA-job 4-MeOPhN2+~TfO-_B3LYPG-6-31G_dp-NX-Scan-d89-09-n800
 OpenBabel11261920223D

 25 24  0  0  0  0  0  0  0  0999 V2000
   -4.0922   -4.1383   -0.2703 C   0  0  0  0  0  0  0  0  0  0  0  0
   -4.4961   -5.3751    0.0784 N   0  0  0  0  0  0  0  0  0  0  0  0
   -4.8198   -6.4178    0.3558 N   0  0  0  0  0  0  0  0  0  0  0  0
   -4.9527   -3.3043   -1.0461 C   0  0  0  0  0  0  0  0  0  0  0  0
   -4.4956   -2.0731   -1.4282 C   0  0  0  0  0  0  0  0  0  0  0  0
   -3.2040   -1.6365   -1.0215 C   0  0  0  0  0  0  0  0  0  0  0  0
   -2.8528   -0.4452   -1.4558 O   0  0  0  0  0  0  0  0  0  0  0  0
   -1.7359    0.2568   -0.8875 C   0  0  0  0  0  0  0  0  0  0  0  0
   -2.3750   -2.4608   -0.2090 C   0  0  0  0  0  0  0  0  0  0  0  0
   -2.8065   -3.7107    0.1583 C   0  0  0  0  0  0  0  0  0  0  0  0
   -5.9553   -3.6306   -1.2954 H   0  0  0  0  0  0  0  0  0  0  0  0
   -5.1273   -1.3402   -1.9315 H   0  0  0  0  0  0  0  0  0  0  0  0
   -1.7635    1.2430   -1.3459 H   0  0  0  0  0  0  0  0  0  0  0  0
   -0.7925   -0.2429   -1.1308 H   0  0  0  0  0  0  0  0  0  0  0  0
   -1.8728    0.3489    0.1918 H   0  0  0  0  0  0  0  0  0  0  0  0
   -1.4038   -2.1140    0.1187 H   0  0  0  0  0  0  0  0  0  0  0  0
   -2.1875   -4.3670    0.7601 H   0  0  0  0  0  0  0  0  0  0  0  0
   -6.4582    0.6357   -0.2779 S   0  0  0  0  0  0  0  0  0  0  0  0
   -5.0746    1.1105    0.8871 C   0  0  0  0  0  0  0  0  0  0  0  0
   -7.4081    1.7476   -0.1298 O   0  0  0  0  0  0  0  0  0  0  0  0
   -6.8700   -0.6877    0.2477 O   0  0  0  0  0  0  0  0  0  0  0  0
   -5.7508    0.5614   -1.5879 O   0  0  0  0  0  0  0  0  0  0  0  0
   -4.3445    2.1394    0.4167 F   0  0  0  0  0  0  0  0  0  0  0  0
   -5.5291    1.4422    2.1012 F   0  0  0  0  0  0  0  0  0  0  0  0
   -4.1984    0.0702    1.0660 F   0  0  0  0  0  0  0  0  0  0  0  0
  1  2  1  0  0  0  0
  1 10  2  0  0  0  0
  2  3  1  0  0  0  0
  4  1  1  0  0  0  0
  5  4  2  0  0  0  0
  5  6  1  0  0  0  0
  6  9  2  0  0  0  0
  7  6  1  0  0  0  0
  7  8  1  0  0  0  0
  8 15  1  0  0  0  0
  9 16  1  0  0  0  0
  9 10  1  0  0  0  0
 10 17  1  0  0  0  0
 11  4  1  0  0  0  0
 12  5  1  0  0  0  0
 13  8  1  0  0  0  0
 14  8  1  0  0  0  0
 18 20  2  0  0  0  0
 18 21  1  0  0  0  0
 18 19  1  0  0  0  0
 19 25  1  0  0  0  0
 19 24  1  0  0  0  0
 22 18  2  0  0  0  0
 23 19  1  0  0  0  0
M  RAD  3   2   2   3   3  21   2
M  END
