Coordinates from ORCA-job 4-MeOPhN2+~TfO-_B3LYPG-6-31G_dp-NX-Scan-d89-09-n800
 OpenBabel11261920223D

 25 24  0  0  0  0  0  0  0  0999 V2000
   -4.2433   -3.0266   -0.4767 C   0  0  0  0  0  0  0  0  0  0  0  0
   -4.9453   -3.6182    0.5394 N   0  0  0  0  0  0  0  0  0  0  0  0
   -5.5279   -4.0746    1.3759 N   0  0  0  0  0  0  0  0  0  0  0  0
   -3.4821   -3.8636   -1.3278 C   0  0  0  0  0  0  0  0  0  0  0  0
   -2.7788   -3.2785   -2.3529 C   0  0  0  0  0  0  0  0  0  0  0  0
   -2.8312   -1.8740   -2.5421 C   0  0  0  0  0  0  0  0  0  0  0  0
   -2.1096   -1.4145   -3.5697 O   0  0  0  0  0  0  0  0  0  0  0  0
   -2.0851   -0.0067   -3.8418 C   0  0  0  0  0  0  0  0  0  0  0  0
   -3.6037   -1.0671   -1.6845 C   0  0  0  0  0  0  0  0  0  0  0  0
   -4.3173   -1.6302   -0.6396 C   0  0  0  0  0  0  0  0  0  0  0  0
   -3.4530   -4.9357   -1.1648 H   0  0  0  0  0  0  0  0  0  0  0  0
   -2.1748   -3.8698   -3.0314 H   0  0  0  0  0  0  0  0  0  0  0  0
   -1.4374    0.1095   -4.7097 H   0  0  0  0  0  0  0  0  0  0  0  0
   -1.6711    0.5478   -2.9936 H   0  0  0  0  0  0  0  0  0  0  0  0
   -3.0878    0.3637   -4.0773 H   0  0  0  0  0  0  0  0  0  0  0  0
   -3.6545    0.0065   -1.8156 H   0  0  0  0  0  0  0  0  0  0  0  0
   -4.9142   -1.0021    0.0311 H   0  0  0  0  0  0  0  0  0  0  0  0
   -5.9869   -0.4815    2.3906 S   0  0  0  0  0  0  0  0  0  0  0  0
   -5.1448    0.5031    3.7198 C   0  0  0  0  0  0  0  0  0  0  0  0
   -7.3845   -0.5923    2.8254 O   0  0  0  0  0  0  0  0  0  0  0  0
   -5.2141   -1.7634    2.3815 O   0  0  0  0  0  0  0  0  0  0  0  0
   -5.7390    0.3194    1.1581 O   0  0  0  0  0  0  0  0  0  0  0  0
   -5.6999    1.7185    3.8314 F   0  0  0  0  0  0  0  0  0  0  0  0
   -5.2413   -0.1196    4.9037 F   0  0  0  0  0  0  0  0  0  0  0  0
   -3.8394    0.6618    3.4351 F   0  0  0  0  0  0  0  0  0  0  0  0
  1  2  1  0  0  0  0
  2  3  1  0  0  0  0
  4 11  1  0  0  0  0
  4  1  2  0  0  0  0
  5  4  1  0  0  0  0
  6  5  2  0  0  0  0
  6  9  1  0  0  0  0
  7  6  1  0  0  0  0
  8  7  1  0  0  0  0
  8 14  1  0  0  0  0
  9 10  2  0  0  0  0
 10  1  1  0  0  0  0
 10 17  1  0  0  0  0
 12  5  1  0  0  0  0
 13  8  1  0  0  0  0
 15  8  1  0  0  0  0
 16  9  1  0  0  0  0
 18 20  1  0  0  0  0
 18 19  1  0  0  0  0
 19 23  1  0  0  0  0
 19 24  1  0  0  0  0
 21 18  2  0  0  0  0
 22 18  2  0  0  0  0
 25 19  1  0  0  0  0
M  RAD  3   2   2   3   3  20   2
M  END
