Coordinates from ORCA-job 4-MeOPhN2+~TfO-_B3LYPG-6-31G_dp-NX-Scan-d89-09-n800
 OpenBabel11261920223D

 25 24  0  0  0  0  0  0  0  0999 V2000
   -3.9180   -2.8145   -0.2567 C   0  0  0  0  0  0  0  0  0  0  0  0
   -4.3684   -3.2470    0.9678 N   0  0  0  0  0  0  0  0  0  0  0  0
   -4.6782   -3.3028    2.0473 N   0  0  0  0  0  0  0  0  0  0  0  0
   -4.0045   -3.6822   -1.3636 C   0  0  0  0  0  0  0  0  0  0  0  0
   -3.5704   -3.2277   -2.5890 C   0  0  0  0  0  0  0  0  0  0  0  0
   -3.0563   -1.9164   -2.7193 C   0  0  0  0  0  0  0  0  0  0  0  0
   -2.6723   -1.5746   -3.9570 O   0  0  0  0  0  0  0  0  0  0  0  0
   -2.1677   -0.2560   -4.1987 C   0  0  0  0  0  0  0  0  0  0  0  0
   -2.9737   -1.0675   -1.5976 C   0  0  0  0  0  0  0  0  0  0  0  0
   -3.4037   -1.5083   -0.3576 C   0  0  0  0  0  0  0  0  0  0  0  0
   -4.4122   -4.6797   -1.2460 H   0  0  0  0  0  0  0  0  0  0  0  0
   -3.6203   -3.8532   -3.4726 H   0  0  0  0  0  0  0  0  0  0  0  0
   -1.9456   -0.2205   -5.2645 H   0  0  0  0  0  0  0  0  0  0  0  0
   -1.2516   -0.0752   -3.6272 H   0  0  0  0  0  0  0  0  0  0  0  0
   -2.9179    0.5023   -3.9522 H   0  0  0  0  0  0  0  0  0  0  0  0
   -2.5878   -0.0604   -1.6833 H   0  0  0  0  0  0  0  0  0  0  0  0
   -3.3599   -0.8687    0.5174 H   0  0  0  0  0  0  0  0  0  0  0  0
   -5.2940   -0.3322    2.3119 S   0  0  0  0  0  0  0  0  0  0  0  0
   -6.1090    0.1998    3.8922 C   0  0  0  0  0  0  0  0  0  0  0  0
   -6.3139   -1.1349    1.6004 O   0  0  0  0  0  0  0  0  0  0  0  0
   -4.1386   -1.1815    2.7853 O   0  0  0  0  0  0  0  0  0  0  0  0
   -4.8581    0.9159    1.6612 O   0  0  0  0  0  0  0  0  0  0  0  0
   -7.1855    0.9525    3.6278 F   0  0  0  0  0  0  0  0  0  0  0  0
   -6.5003   -0.8714    4.5985 F   0  0  0  0  0  0  0  0  0  0  0  0
   -5.2591    0.9157    4.6398 F   0  0  0  0  0  0  0  0  0  0  0  0
  1  2  1  0  0  0  0
  2  3  1  0  0  0  0
  4 11  1  0  0  0  0
  4  1  2  0  0  0  0
  5  4  1  0  0  0  0
  6  5  2  0  0  0  0
  6  9  1  0  0  0  0
  7  6  1  0  0  0  0
  8  7  1  0  0  0  0
  8 15  1  0  0  0  0
  8 14  1  0  0  0  0
  9 10  2  0  0  0  0
 10  1  1  0  0  0  0
 10 17  1  0  0  0  0
 12  5  1  0  0  0  0
 13  8  1  0  0  0  0
 16  9  1  0  0  0  0
 18 21  1  0  0  0  0
 18 19  1  0  0  0  0
 19 24  1  0  0  0  0
 19 25  1  0  0  0  0
 20 18  2  0  0  0  0
 22 18  2  0  0  0  0
 23 19  1  0  0  0  0
M  RAD  3   2   2   3   3  21   2
M  END
