Coordinates from ORCA-job 4-MeOPhN2+~TfO-_B3LYPG-6-31G_dp-NX-Scan-d89-09-n800
 OpenBabel11261920223D

 25 24  0  0  0  0  0  0  0  0999 V2000
   -4.7131   -3.5821   -0.5306 C   0  0  0  0  0  0  0  0  0  0  0  0
   -5.5021   -4.4157    0.1787 N   0  0  0  0  0  0  0  0  0  0  0  0
   -6.1560   -5.1088    0.7717 N   0  0  0  0  0  0  0  0  0  0  0  0
   -3.4404   -4.0433   -0.9703 C   0  0  0  0  0  0  0  0  0  0  0  0
   -2.6158   -3.1474   -1.5959 C   0  0  0  0  0  0  0  0  0  0  0  0
   -3.0251   -1.7917   -1.7656 C   0  0  0  0  0  0  0  0  0  0  0  0
   -2.1127   -0.9932   -2.3118 O   0  0  0  0  0  0  0  0  0  0  0  0
   -2.3706    0.4238   -2.3784 C   0  0  0  0  0  0  0  0  0  0  0  0
   -4.3045   -1.3702   -1.3629 C   0  0  0  0  0  0  0  0  0  0  0  0
   -5.1526   -2.2525   -0.7272 C   0  0  0  0  0  0  0  0  0  0  0  0
   -3.1364   -5.0689   -0.7950 H   0  0  0  0  0  0  0  0  0  0  0  0
   -1.6289   -3.4344   -1.9387 H   0  0  0  0  0  0  0  0  0  0  0  0
   -1.4524    0.8629   -2.7656 H   0  0  0  0  0  0  0  0  0  0  0  0
   -2.5911    0.8136   -1.3820 H   0  0  0  0  0  0  0  0  0  0  0  0
   -3.1994    0.6330   -3.0613 H   0  0  0  0  0  0  0  0  0  0  0  0
   -4.6347   -0.3429   -1.4368 H   0  0  0  0  0  0  0  0  0  0  0  0
   -6.1076   -1.9069   -0.3586 H   0  0  0  0  0  0  0  0  0  0  0  0
   -5.7034   -0.1109    1.7685 S   0  0  0  0  0  0  0  0  0  0  0  0
   -4.0205    0.6663    1.9489 C   0  0  0  0  0  0  0  0  0  0  0  0
   -6.4712    0.4511    2.8849 O   0  0  0  0  0  0  0  0  0  0  0  0
   -5.3982   -1.5713    1.8537 O   0  0  0  0  0  0  0  0  0  0  0  0
   -6.1107    0.3146    0.4012 O   0  0  0  0  0  0  0  0  0  0  0  0
   -4.0886    2.0018    1.8656 F   0  0  0  0  0  0  0  0  0  0  0  0
   -3.4485    0.3406    3.1144 F   0  0  0  0  0  0  0  0  0  0  0  0
   -3.1824    0.2443    0.9575 F   0  0  0  0  0  0  0  0  0  0  0  0
  1  2  1  0  0  0  0
  2  3  1  0  0  0  0
  4 11  1  0  0  0  0
  4  1  2  0  0  0  0
  5  4  1  0  0  0  0
  6  5  2  0  0  0  0
  6  9  1  0  0  0  0
  7  6  1  0  0  0  0
  8  7  1  0  0  0  0
  8 14  1  0  0  0  0
  9 10  2  0  0  0  0
 10  1  1  0  0  0  0
 10 17  1  0  0  0  0
 12  5  1  0  0  0  0
 13  8  1  0  0  0  0
 15  8  1  0  0  0  0
 16  9  1  0  0  0  0
 18 21  2  0  0  0  0
 18 19  1  0  0  0  0
 18 20  1  0  0  0  0
 19 24  1  0  0  0  0
 22 18  2  0  0  0  0
 23 19  1  0  0  0  0
 25 19  1  0  0  0  0
M  RAD  3   2   2   3   3  20   2
M  END
