Coordinates from ORCA-job 4-MeOPhN2+~TfO-_B3LYPG-6-31G_dp-NX-Scan-d89-09-n800
 OpenBabel11261920223D

 25 24  0  0  0  0  0  0  0  0999 V2000
   -4.1390   -4.0588   -0.2397 C   0  0  0  0  0  0  0  0  0  0  0  0
   -4.5861   -5.2643    0.1617 N   0  0  0  0  0  0  0  0  0  0  0  0
   -4.9444   -6.2830    0.4820 N   0  0  0  0  0  0  0  0  0  0  0  0
   -4.9536   -3.2486   -1.0851 C   0  0  0  0  0  0  0  0  0  0  0  0
   -4.4517   -2.0524   -1.5193 C   0  0  0  0  0  0  0  0  0  0  0  0
   -3.1692   -1.6193   -1.0878 C   0  0  0  0  0  0  0  0  0  0  0  0
   -2.7790   -0.4545   -1.5630 O   0  0  0  0  0  0  0  0  0  0  0  0
   -1.6758    0.2543   -0.9769 C   0  0  0  0  0  0  0  0  0  0  0  0
   -2.3859   -2.4191   -0.2082 C   0  0  0  0  0  0  0  0  0  0  0  0
   -2.8574   -3.6383    0.2082 C   0  0  0  0  0  0  0  0  0  0  0  0
   -5.9583   -3.5598   -1.3437 H   0  0  0  0  0  0  0  0  0  0  0  0
   -5.0569   -1.3367   -2.0715 H   0  0  0  0  0  0  0  0  0  0  0  0
   -1.6439    1.2070   -1.5013 H   0  0  0  0  0  0  0  0  0  0  0  0
   -0.7344   -0.2846   -1.1276 H   0  0  0  0  0  0  0  0  0  0  0  0
   -1.8740    0.4217    0.0839 H   0  0  0  0  0  0  0  0  0  0  0  0
   -1.4196   -2.0755    0.1365 H   0  0  0  0  0  0  0  0  0  0  0  0
   -2.2744   -4.2750    0.8646 H   0  0  0  0  0  0  0  0  0  0  0  0
   -6.4344    0.5465   -0.2537 S   0  0  0  0  0  0  0  0  0  0  0  0
   -5.1025    1.0191    0.9668 C   0  0  0  0  0  0  0  0  0  0  0  0
   -7.4404    1.6023   -0.0701 O   0  0  0  0  0  0  0  0  0  0  0  0
   -6.7997   -0.8213    0.1908 O   0  0  0  0  0  0  0  0  0  0  0  0
   -5.6928    0.5757   -1.5453 O   0  0  0  0  0  0  0  0  0  0  0  0
   -4.4731    2.1532    0.6150 F   0  0  0  0  0  0  0  0  0  0  0  0
   -5.5858    1.1748    2.2055 F   0  0  0  0  0  0  0  0  0  0  0  0
   -4.1346    0.0482    1.0425 F   0  0  0  0  0  0  0  0  0  0  0  0
  1  2  1  0  0  0  0
  1 10  1  0  0  0  0
  2  3  1  0  0  0  0
  4  1  2  0  0  0  0
  5  6  2  0  0  0  0
  5  4  1  0  0  0  0
  6  9  1  0  0  0  0
  7  6  1  0  0  0  0
  7  8  1  0  0  0  0
  8 15  1  0  0  0  0
  9 16  1  0  0  0  0
  9 10  2  0  0  0  0
 10 17  1  0  0  0  0
 11  4  1  0  0  0  0
 12  5  1  0  0  0  0
 13  8  1  0  0  0  0
 14  8  1  0  0  0  0
 18 20  2  0  0  0  0
 18 21  1  0  0  0  0
 18 19  1  0  0  0  0
 19 25  1  0  0  0  0
 19 24  1  0  0  0  0
 22 18  2  0  0  0  0
 23 19  1  0  0  0  0
M  RAD  3   2   2   3   3  21   2
M  END
