Coordinates from ORCA-job 4-MeOPhN2+~TfO-_B3LYPG-6-31G_dp-NX-Scan-d89-09-n800
 OpenBabel11261920223D

 25 24  0  0  0  0  0  0  0  0999 V2000
   -4.1309   -4.0758   -0.2462 C   0  0  0  0  0  0  0  0  0  0  0  0
   -4.5658   -5.2901    0.1420 N   0  0  0  0  0  0  0  0  0  0  0  0
   -4.9112   -6.3162    0.4527 N   0  0  0  0  0  0  0  0  0  0  0  0
   -4.9535   -3.2620   -1.0805 C   0  0  0  0  0  0  0  0  0  0  0  0
   -4.4602   -2.0588   -1.5049 C   0  0  0  0  0  0  0  0  0  0  0  0
   -3.1769   -1.6238   -1.0760 C   0  0  0  0  0  0  0  0  0  0  0  0
   -2.7930   -0.4553   -1.5466 O   0  0  0  0  0  0  0  0  0  0  0  0
   -1.6892    0.2545   -0.9624 C   0  0  0  0  0  0  0  0  0  0  0  0
   -2.3868   -2.4261   -0.2050 C   0  0  0  0  0  0  0  0  0  0  0  0
   -2.8503   -3.6518    0.2016 C   0  0  0  0  0  0  0  0  0  0  0  0
   -5.9566   -3.5777   -1.3402 H   0  0  0  0  0  0  0  0  0  0  0  0
   -5.0678   -1.3399   -2.0512 H   0  0  0  0  0  0  0  0  0  0  0  0
   -1.6618    1.2088   -1.4840 H   0  0  0  0  0  0  0  0  0  0  0  0
   -0.7471   -0.2817   -1.1183 H   0  0  0  0  0  0  0  0  0  0  0  0
   -1.8845    0.4183    0.0993 H   0  0  0  0  0  0  0  0  0  0  0  0
   -1.4212   -2.0805    0.1395 H   0  0  0  0  0  0  0  0  0  0  0  0
   -2.2613   -4.2915    0.8497 H   0  0  0  0  0  0  0  0  0  0  0  0
   -6.4382    0.5665   -0.2549 S   0  0  0  0  0  0  0  0  0  0  0  0
   -5.0959    1.0397    0.9543 C   0  0  0  0  0  0  0  0  0  0  0  0
   -7.4310    1.6365   -0.0802 O   0  0  0  0  0  0  0  0  0  0  0  0
   -6.8158   -0.7914    0.2081 O   0  0  0  0  0  0  0  0  0  0  0  0
   -5.7025    0.5716   -1.5503 O   0  0  0  0  0  0  0  0  0  0  0  0
   -4.4486    2.1573    0.5809 F   0  0  0  0  0  0  0  0  0  0  0  0
   -5.5737    1.2257    2.1909 F   0  0  0  0  0  0  0  0  0  0  0  0
   -4.1431    0.0554    1.0460 F   0  0  0  0  0  0  0  0  0  0  0  0
  1  2  1  0  0  0  0
  1 10  2  0  0  0  0
  2  3  1  0  0  0  0
  4  1  1  0  0  0  0
  5  4  2  0  0  0  0
  5  6  1  0  0  0  0
  6  9  2  0  0  0  0
  7  6  1  0  0  0  0
  7  8  1  0  0  0  0
  8 15  1  0  0  0  0
  9 16  1  0  0  0  0
  9 10  1  0  0  0  0
 10 17  1  0  0  0  0
 11  4  1  0  0  0  0
 12  5  1  0  0  0  0
 13  8  1  0  0  0  0
 14  8  1  0  0  0  0
 18 20  2  0  0  0  0
 18 21  1  0  0  0  0
 18 19  1  0  0  0  0
 19 25  1  0  0  0  0
 19 24  1  0  0  0  0
 22 18  2  0  0  0  0
 23 19  1  0  0  0  0
M  RAD  3   2   2   3   3  21   2
M  END
