Coordinates from ORCA-job 4-MeOPhN2+~TfO-_B3LYPG-6-31G_dp-NX-Scan-d89-09-n800
 OpenBabel11261920223D

 25 24  0  0  0  0  0  0  0  0999 V2000
   -4.4554   -4.0623   -0.5734 C   0  0  0  0  0  0  0  0  0  0  0  0
   -5.0811   -5.0913    0.0325 N   0  0  0  0  0  0  0  0  0  0  0  0
   -5.6070   -5.9472    0.5387 N   0  0  0  0  0  0  0  0  0  0  0  0
   -3.4168   -4.3506   -1.5071 C   0  0  0  0  0  0  0  0  0  0  0  0
   -2.7743   -3.2979   -2.1001 C   0  0  0  0  0  0  0  0  0  0  0  0
   -3.1456   -1.9583   -1.7788 C   0  0  0  0  0  0  0  0  0  0  0  0
   -2.4395   -1.0119   -2.3712 O   0  0  0  0  0  0  0  0  0  0  0  0
   -2.6964    0.3790   -2.0324 C   0  0  0  0  0  0  0  0  0  0  0  0
   -4.1979   -1.6940   -0.8722 C   0  0  0  0  0  0  0  0  0  0  0  0
   -4.8488   -2.7348   -0.2537 C   0  0  0  0  0  0  0  0  0  0  0  0
   -3.1473   -5.3774   -1.7275 H   0  0  0  0  0  0  0  0  0  0  0  0
   -1.9694   -3.4577   -2.8085 H   0  0  0  0  0  0  0  0  0  0  0  0
   -1.9572    0.9422   -2.5981 H   0  0  0  0  0  0  0  0  0  0  0  0
   -2.5759    0.5338   -0.9586 H   0  0  0  0  0  0  0  0  0  0  0  0
   -3.7101    0.6639   -2.3186 H   0  0  0  0  0  0  0  0  0  0  0  0
   -4.5150   -0.6742   -0.6383 H   0  0  0  0  0  0  0  0  0  0  0  0
   -5.6227   -2.4975    0.4740 H   0  0  0  0  0  0  0  0  0  0  0  0
   -5.6505    0.8020    1.2379 S   0  0  0  0  0  0  0  0  0  0  0  0
   -4.0721    1.0215    2.1968 C   0  0  0  0  0  0  0  0  0  0  0  0
   -6.5727    1.7889    1.8073 O   0  0  0  0  0  0  0  0  0  0  0  0
   -5.9772   -0.6307    1.4768 O   0  0  0  0  0  0  0  0  0  0  0  0
   -5.1849    1.0672   -0.1579 O   0  0  0  0  0  0  0  0  0  0  0  0
   -3.6338    2.2864    2.1369 F   0  0  0  0  0  0  0  0  0  0  0  0
   -4.2189    0.6841    3.4849 F   0  0  0  0  0  0  0  0  0  0  0  0
   -3.0965    0.2283    1.6749 F   0  0  0  0  0  0  0  0  0  0  0  0
  1 10  1  0  0  0  0
  1  2  1  0  0  0  0
  2  3  1  0  0  0  0
  4  1  2  0  0  0  0
  5  6  2  0  0  0  0
  5  4  1  0  0  0  0
  6  9  1  0  0  0  0
  7  8  1  0  0  0  0
  7  6  1  0  0  0  0
  8 14  1  0  0  0  0
  9 16  1  0  0  0  0
  9 10  2  0  0  0  0
 10 17  1  0  0  0  0
 11  4  1  0  0  0  0
 12  5  1  0  0  0  0
 13  8  1  0  0  0  0
 15  8  1  0  0  0  0
 18 21  2  0  0  0  0
 18 20  1  0  0  0  0
 18 19  1  0  0  0  0
 19 24  1  0  0  0  0
 22 18  2  0  0  0  0
 23 19  1  0  0  0  0
 25 19  1  0  0  0  0
M  RAD  3   2   2   3   3  20   2
M  END
