Coordinates from ORCA-job 4-MeOPhN2+~TfO-_B3LYPG-6-31G_dp-NX-Scan-d89-09-n800
 OpenBabel11261920223D

 25 24  0  0  0  0  0  0  0  0999 V2000
   -4.2255   -3.0143   -0.4223 C   0  0  0  0  0  0  0  0  0  0  0  0
   -4.9197   -3.6314    0.5859 N   0  0  0  0  0  0  0  0  0  0  0  0
   -5.4647   -4.2147    1.3665 N   0  0  0  0  0  0  0  0  0  0  0  0
   -3.4142   -3.8394   -1.2412 C   0  0  0  0  0  0  0  0  0  0  0  0
   -2.7200   -3.2520   -2.2708 C   0  0  0  0  0  0  0  0  0  0  0  0
   -2.8282   -1.8562   -2.4985 C   0  0  0  0  0  0  0  0  0  0  0  0
   -2.1104   -1.3934   -3.5270 O   0  0  0  0  0  0  0  0  0  0  0  0
   -2.1420    0.0067   -3.8362 C   0  0  0  0  0  0  0  0  0  0  0  0
   -3.6464   -1.0617   -1.6730 C   0  0  0  0  0  0  0  0  0  0  0  0
   -4.3520   -1.6280   -0.6245 C   0  0  0  0  0  0  0  0  0  0  0  0
   -3.3431   -4.9049   -1.0510 H   0  0  0  0  0  0  0  0  0  0  0  0
   -2.0814   -3.8354   -2.9240 H   0  0  0  0  0  0  0  0  0  0  0  0
   -1.4878    0.1279   -4.6985 H   0  0  0  0  0  0  0  0  0  0  0  0
   -1.7639    0.6003   -2.9978 H   0  0  0  0  0  0  0  0  0  0  0  0
   -3.1563    0.3272   -4.0942 H   0  0  0  0  0  0  0  0  0  0  0  0
   -3.7385    0.0058   -1.8285 H   0  0  0  0  0  0  0  0  0  0  0  0
   -4.9754   -1.0068    0.0236 H   0  0  0  0  0  0  0  0  0  0  0  0
   -6.0609   -0.3763    2.3015 S   0  0  0  0  0  0  0  0  0  0  0  0
   -5.0660    0.3976    3.6642 C   0  0  0  0  0  0  0  0  0  0  0  0
   -7.4525   -0.3017    2.7593 O   0  0  0  0  0  0  0  0  0  0  0  0
   -5.4884   -1.7578    2.2140 O   0  0  0  0  0  0  0  0  0  0  0  0
   -5.7057    0.4391    1.1070 O   0  0  0  0  0  0  0  0  0  0  0  0
   -5.4178    1.6792    3.8390 F   0  0  0  0  0  0  0  0  0  0  0  0
   -5.2535   -0.2573    4.8199 F   0  0  0  0  0  0  0  0  0  0  0  0
   -3.7524    0.3591    3.3709 F   0  0  0  0  0  0  0  0  0  0  0  0
  1  2  1  0  0  0  0
  2  3  1  0  0  0  0
  4 11  1  0  0  0  0
  4  1  2  0  0  0  0
  5  4  1  0  0  0  0
  6  5  2  0  0  0  0
  6  9  1  0  0  0  0
  7  6  1  0  0  0  0
  8  7  1  0  0  0  0
  8 14  1  0  0  0  0
  9 10  2  0  0  0  0
 10  1  1  0  0  0  0
 10 17  1  0  0  0  0
 12  5  1  0  0  0  0
 13  8  1  0  0  0  0
 15  8  1  0  0  0  0
 16  9  1  0  0  0  0
 18 20  1  0  0  0  0
 18 19  1  0  0  0  0
 19 23  1  0  0  0  0
 19 24  1  0  0  0  0
 21 18  2  0  0  0  0
 22 18  2  0  0  0  0
 25 19  1  0  0  0  0
M  RAD  3   2   2   3   3  20   2
M  END
