Coordinates from ORCA-job 4-MeOPhN2+~TfO-_B3LYPG-6-31G_dp-NX-Scan-d89-09-n800
 OpenBabel11261920223D

 25 24  0  0  0  0  0  0  0  0999 V2000
   -4.0586   -4.1893   -0.2899 C   0  0  0  0  0  0  0  0  0  0  0  0
   -4.4378   -5.4426    0.0266 N   0  0  0  0  0  0  0  0  0  0  0  0
   -4.7439   -6.4973    0.2773 N   0  0  0  0  0  0  0  0  0  0  0  0
   -4.9499   -3.3405   -1.0147 C   0  0  0  0  0  0  0  0  0  0  0  0
   -4.5210   -2.0893   -1.3630 C   0  0  0  0  0  0  0  0  0  0  0  0
   -3.2220   -1.6515   -0.9782 C   0  0  0  0  0  0  0  0  0  0  0  0
   -2.8955   -0.4445   -1.3844 O   0  0  0  0  0  0  0  0  0  0  0  0
   -1.7659    0.2512   -0.8339 C   0  0  0  0  0  0  0  0  0  0  0  0
   -2.3614   -2.4918   -0.2162 C   0  0  0  0  0  0  0  0  0  0  0  0
   -2.7677   -3.7591    0.1195 C   0  0  0  0  0  0  0  0  0  0  0  0
   -5.9527   -3.6749   -1.2537 H   0  0  0  0  0  0  0  0  0  0  0  0
   -5.1714   -1.3464   -1.8312 H   0  0  0  0  0  0  0  0  0  0  0  0
   -1.8391    1.2604   -1.2333 H   0  0  0  0  0  0  0  0  0  0  0  0
   -0.8275   -0.2136   -1.1527 H   0  0  0  0  0  0  0  0  0  0  0  0
   -1.8471    0.2820    0.2547 H   0  0  0  0  0  0  0  0  0  0  0  0
   -1.3847   -2.1447    0.0945 H   0  0  0  0  0  0  0  0  0  0  0  0
   -2.1242   -4.4276    0.6809 H   0  0  0  0  0  0  0  0  0  0  0  0
   -6.4777    0.7001   -0.2970 S   0  0  0  0  0  0  0  0  0  0  0  0
   -5.0715    1.1743    0.8422 C   0  0  0  0  0  0  0  0  0  0  0  0
   -7.3853    1.8519   -0.1944 O   0  0  0  0  0  0  0  0  0  0  0  0
   -6.9321   -0.5837    0.2858 O   0  0  0  0  0  0  0  0  0  0  0  0
   -5.7813    0.5443   -1.6070 O   0  0  0  0  0  0  0  0  0  0  0  0
   -4.2929    2.1406    0.3160 F   0  0  0  0  0  0  0  0  0  0  0  0
   -5.5098    1.5970    2.0339 F   0  0  0  0  0  0  0  0  0  0  0  0
   -4.2461    0.1068    1.0826 F   0  0  0  0  0  0  0  0  0  0  0  0
  1  2  1  0  0  0  0
  1 10  2  0  0  0  0
  2  3  1  0  0  0  0
  4  1  1  0  0  0  0
  5  4  2  0  0  0  0
  5  6  1  0  0  0  0
  6  9  2  0  0  0  0
  7  6  1  0  0  0  0
  7  8  1  0  0  0  0
  8 15  1  0  0  0  0
  9 16  1  0  0  0  0
  9 10  1  0  0  0  0
 10 17  1  0  0  0  0
 11  4  1  0  0  0  0
 12  5  1  0  0  0  0
 13  8  1  0  0  0  0
 14  8  1  0  0  0  0
 18 20  2  0  0  0  0
 18 21  1  0  0  0  0
 18 19  1  0  0  0  0
 19 25  1  0  0  0  0
 19 24  1  0  0  0  0
 22 18  2  0  0  0  0
 23 19  1  0  0  0  0
M  RAD  3   2   2   3   3  21   2
M  END
