Coordinates from ORCA-job 4-MeOPhN2+~TfO-_B3LYPG-6-31G_dp-NX-Scan-d89-09-n800
 OpenBabel11261920223D

 25 24  0  0  0  0  0  0  0  0999 V2000
   -4.5780   -3.7873   -0.5738 C   0  0  0  0  0  0  0  0  0  0  0  0
   -5.3068   -4.6845    0.1255 N   0  0  0  0  0  0  0  0  0  0  0  0
   -5.9276   -5.4036    0.7242 N   0  0  0  0  0  0  0  0  0  0  0  0
   -3.4478   -4.2271   -1.3203 C   0  0  0  0  0  0  0  0  0  0  0  0
   -2.6946   -3.2748   -1.9536 C   0  0  0  0  0  0  0  0  0  0  0  0
   -3.0375   -1.8941   -1.8423 C   0  0  0  0  0  0  0  0  0  0  0  0
   -2.1969   -1.0506   -2.4299 O   0  0  0  0  0  0  0  0  0  0  0  0
   -2.4047    0.3695   -2.2623 C   0  0  0  0  0  0  0  0  0  0  0  0
   -4.1863   -1.4896   -1.1369 C   0  0  0  0  0  0  0  0  0  0  0  0
   -4.9591   -2.4270   -0.4868 C   0  0  0  0  0  0  0  0  0  0  0  0
   -3.1919   -5.2797   -1.3685 H   0  0  0  0  0  0  0  0  0  0  0  0
   -1.8125   -3.5437   -2.5232 H   0  0  0  0  0  0  0  0  0  0  0  0
   -1.5453    0.8402   -2.7370 H   0  0  0  0  0  0  0  0  0  0  0  0
   -2.4476    0.6255   -1.2009 H   0  0  0  0  0  0  0  0  0  0  0  0
   -3.3271    0.6820   -2.7591 H   0  0  0  0  0  0  0  0  0  0  0  0
   -4.4910   -0.4547   -1.0106 H   0  0  0  0  0  0  0  0  0  0  0  0
   -5.7813   -2.1018    0.1467 H   0  0  0  0  0  0  0  0  0  0  0  0
   -5.8117    0.2651    1.6529 S   0  0  0  0  0  0  0  0  0  0  0  0
   -4.1172    0.8975    2.0928 C   0  0  0  0  0  0  0  0  0  0  0  0
   -6.7251    1.0352    2.5024 O   0  0  0  0  0  0  0  0  0  0  0  0
   -5.7064   -1.1910    1.9645 O   0  0  0  0  0  0  0  0  0  0  0  0
   -5.8739    0.5465    0.1907 O   0  0  0  0  0  0  0  0  0  0  0  0
   -4.0233    2.2194    1.8915 F   0  0  0  0  0  0  0  0  0  0  0  0
   -3.8020    0.6376    3.3675 F   0  0  0  0  0  0  0  0  0  0  0  0
   -3.1714    0.3027    1.3110 F   0  0  0  0  0  0  0  0  0  0  0  0
  1 10  1  0  0  0  0
  1  2  1  0  0  0  0
  2  3  1  0  0  0  0
  4  1  2  0  0  0  0
  5  6  2  0  0  0  0
  5  4  1  0  0  0  0
  6  9  1  0  0  0  0
  7  8  1  0  0  0  0
  7  6  1  0  0  0  0
  8 14  1  0  0  0  0
  9 16  1  0  0  0  0
  9 10  2  0  0  0  0
 10 17  1  0  0  0  0
 11  4  1  0  0  0  0
 12  5  1  0  0  0  0
 13  8  1  0  0  0  0
 15  8  1  0  0  0  0
 18 21  2  0  0  0  0
 18 19  1  0  0  0  0
 18 20  1  0  0  0  0
 19 24  1  0  0  0  0
 22 18  2  0  0  0  0
 23 19  1  0  0  0  0
 25 19  1  0  0  0  0
M  RAD  3   2   2   3   3  20   2
M  END
