Coordinates from ORCA-job 4-MeOPhN2+~TfO-_B3LYPG-6-31G_dp-NX-Scan-d89-09-n800
 OpenBabel11261920223D

 25 24  0  0  0  0  0  0  0  0999 V2000
   -4.2220   -3.0176   -0.4921 C   0  0  0  0  0  0  0  0  0  0  0  0
   -4.9116   -3.5877    0.5454 N   0  0  0  0  0  0  0  0  0  0  0  0
   -5.4821   -3.9563    1.4337 N   0  0  0  0  0  0  0  0  0  0  0  0
   -3.5122   -3.8684   -1.3713 C   0  0  0  0  0  0  0  0  0  0  0  0
   -2.8191   -3.2948   -2.4103 C   0  0  0  0  0  0  0  0  0  0  0  0
   -2.8336   -1.8879   -2.5850 C   0  0  0  0  0  0  0  0  0  0  0  0
   -2.1274   -1.4399   -3.6289 O   0  0  0  0  0  0  0  0  0  0  0  0
   -2.0699   -0.0314   -3.8902 C   0  0  0  0  0  0  0  0  0  0  0  0
   -3.5576   -1.0661   -1.6995 C   0  0  0  0  0  0  0  0  0  0  0  0
   -4.2594   -1.6178   -0.6403 C   0  0  0  0  0  0  0  0  0  0  0  0
   -3.5123   -4.9424   -1.2190 H   0  0  0  0  0  0  0  0  0  0  0  0
   -2.2527   -3.8971   -3.1112 H   0  0  0  0  0  0  0  0  0  0  0  0
   -1.4428    0.0741   -4.7745 H   0  0  0  0  0  0  0  0  0  0  0  0
   -1.6176    0.5041   -3.0493 H   0  0  0  0  0  0  0  0  0  0  0  0
   -3.0676    0.3695   -4.0954 H   0  0  0  0  0  0  0  0  0  0  0  0
   -3.5809    0.0094   -1.8223 H   0  0  0  0  0  0  0  0  0  0  0  0
   -4.8262   -0.9800    0.0482 H   0  0  0  0  0  0  0  0  0  0  0  0
   -5.9472   -0.5053    2.4282 S   0  0  0  0  0  0  0  0  0  0  0  0
   -5.2336    0.5235    3.7990 C   0  0  0  0  0  0  0  0  0  0  0  0
   -7.3608   -0.6879    2.7824 O   0  0  0  0  0  0  0  0  0  0  0  0
   -5.1085   -1.7466    2.4711 O   0  0  0  0  0  0  0  0  0  0  0  0
   -5.6720    0.3039    1.2075 O   0  0  0  0  0  0  0  0  0  0  0  0
   -5.8570    1.7079    3.8714 F   0  0  0  0  0  0  0  0  0  0  0  0
   -5.3680   -0.1018    4.9776 F   0  0  0  0  0  0  0  0  0  0  0  0
   -3.9247    0.7483    3.5892 F   0  0  0  0  0  0  0  0  0  0  0  0
  1  2  1  0  0  0  0
  2  3  1  0  0  0  0
  4 11  1  0  0  0  0
  4  1  2  0  0  0  0
  5  4  1  0  0  0  0
  6  5  2  0  0  0  0
  6  9  1  0  0  0  0
  7  6  1  0  0  0  0
  8  7  1  0  0  0  0
  8 14  1  0  0  0  0
  9 10  2  0  0  0  0
 10  1  1  0  0  0  0
 10 17  1  0  0  0  0
 12  5  1  0  0  0  0
 13  8  1  0  0  0  0
 15  8  1  0  0  0  0
 16  9  1  0  0  0  0
 18 21  2  0  0  0  0
 18 20  1  0  0  0  0
 18 19  1  0  0  0  0
 19 23  1  0  0  0  0
 19 24  1  0  0  0  0
 22 18  2  0  0  0  0
 25 19  1  0  0  0  0
M  RAD  3   2   2   3   3  20   2
M  END
