Coordinates from ORCA-job 4-MeOPhN2+~TfO-_B3LYPG-6-31G_dp-NX-Scan-d89-09-n800
 OpenBabel11261920223D

 25 24  0  0  0  0  0  0  0  0999 V2000
   -3.8797   -2.8361   -0.2238 C   0  0  0  0  0  0  0  0  0  0  0  0
   -4.2948   -3.2846    1.0059 N   0  0  0  0  0  0  0  0  0  0  0  0
   -4.5788   -3.3742    2.0903 N   0  0  0  0  0  0  0  0  0  0  0  0
   -3.9995   -3.6905   -1.3385 C   0  0  0  0  0  0  0  0  0  0  0  0
   -3.6000   -3.2224   -2.5701 C   0  0  0  0  0  0  0  0  0  0  0  0
   -3.0851   -1.9111   -2.6990 C   0  0  0  0  0  0  0  0  0  0  0  0
   -2.7367   -1.5551   -3.9428 O   0  0  0  0  0  0  0  0  0  0  0  0
   -2.2386   -0.2336   -4.1838 C   0  0  0  0  0  0  0  0  0  0  0  0
   -2.9657   -1.0767   -1.5697 C   0  0  0  0  0  0  0  0  0  0  0  0
   -3.3636   -1.5304   -0.3241 C   0  0  0  0  0  0  0  0  0  0  0  0
   -4.4069   -4.6882   -1.2210 H   0  0  0  0  0  0  0  0  0  0  0  0
   -3.6781   -3.8367   -3.4595 H   0  0  0  0  0  0  0  0  0  0  0  0
   -2.0472   -0.1861   -5.2552 H   0  0  0  0  0  0  0  0  0  0  0  0
   -1.3063   -0.0594   -3.6370 H   0  0  0  0  0  0  0  0  0  0  0  0
   -2.9815    0.5215   -3.9073 H   0  0  0  0  0  0  0  0  0  0  0  0
   -2.5785   -0.0699   -1.6538 H   0  0  0  0  0  0  0  0  0  0  0  0
   -3.2906   -0.8985    0.5541 H   0  0  0  0  0  0  0  0  0  0  0  0
   -5.2115   -0.3191    2.2954 S   0  0  0  0  0  0  0  0  0  0  0  0
   -6.1529    0.2064    3.8062 C   0  0  0  0  0  0  0  0  0  0  0  0
   -6.1959   -1.0365    1.4558 O   0  0  0  0  0  0  0  0  0  0  0  0
   -4.1527   -1.2416    2.8497 O   0  0  0  0  0  0  0  0  0  0  0  0
   -4.6478    0.9234    1.7375 O   0  0  0  0  0  0  0  0  0  0  0  0
   -7.1533    1.0303    3.4655 F   0  0  0  0  0  0  0  0  0  0  0  0
   -6.6743   -0.8637    4.4249 F   0  0  0  0  0  0  0  0  0  0  0  0
   -5.3471    0.8443    4.6646 F   0  0  0  0  0  0  0  0  0  0  0  0
  1  2  1  0  0  0  0
  2  3  1  0  0  0  0
  4 11  1  0  0  0  0
  4  1  2  0  0  0  0
  5  4  1  0  0  0  0
  6  5  2  0  0  0  0
  6  9  1  0  0  0  0
  7  6  1  0  0  0  0
  8  7  1  0  0  0  0
  8 15  1  0  0  0  0
  8 14  1  0  0  0  0
  9 10  2  0  0  0  0
 10  1  1  0  0  0  0
 10 17  1  0  0  0  0
 12  5  1  0  0  0  0
 13  8  1  0  0  0  0
 16  9  1  0  0  0  0
 18 21  1  0  0  0  0
 18 19  1  0  0  0  0
 19 24  1  0  0  0  0
 19 25  1  0  0  0  0
 20 18  2  0  0  0  0
 22 18  2  0  0  0  0
 23 19  1  0  0  0  0
M  RAD  3   2   2   3   3  21   2
M  END
