Coordinates from ORCA-job 4-MeOPhN2+~TfO-_B3LYPG-6-31G_dp-NX-Scan-d89-09-n800
 OpenBabel11261920223D

 25 25  0  0  0  0  0  0  0  0999 V2000
   -3.9926   -2.4044   -0.2424 C   0  0  0  0  0  0  0  0  0  0  0  0
   -4.4481   -2.8673    1.0227 N   0  0  0  0  0  0  0  0  0  0  0  0
   -4.6217   -2.1277    2.0333 N   0  0  0  0  0  0  0  0  0  0  0  0
   -3.8867   -3.4625   -1.1729 C   0  0  0  0  0  0  0  0  0  0  0  0
   -3.4567   -3.2538   -2.4693 C   0  0  0  0  0  0  0  0  0  0  0  0
   -3.1114   -1.9586   -2.8904 C   0  0  0  0  0  0  0  0  0  0  0  0
   -2.6979   -1.8460   -4.1802 O   0  0  0  0  0  0  0  0  0  0  0  0
   -2.3295   -0.5621   -4.6652 C   0  0  0  0  0  0  0  0  0  0  0  0
   -3.2100   -0.8926   -1.9876 C   0  0  0  0  0  0  0  0  0  0  0  0
   -3.6451   -1.1097   -0.6792 C   0  0  0  0  0  0  0  0  0  0  0  0
   -4.1566   -4.4565   -0.8323 H   0  0  0  0  0  0  0  0  0  0  0  0
   -3.3759   -4.0709   -3.1784 H   0  0  0  0  0  0  0  0  0  0  0  0
   -2.0269   -0.7090   -5.7025 H   0  0  0  0  0  0  0  0  0  0  0  0
   -1.4888   -0.1435   -4.0985 H   0  0  0  0  0  0  0  0  0  0  0  0
   -3.1729    0.1391   -4.6298 H   0  0  0  0  0  0  0  0  0  0  0  0
   -2.9503    0.1154   -2.2884 H   0  0  0  0  0  0  0  0  0  0  0  0
   -3.7052   -0.2573   -0.0196 H   0  0  0  0  0  0  0  0  0  0  0  0
   -4.6094   -0.0880    3.4570 S   0  0  0  0  0  0  0  0  0  0  0  0
   -6.4390   -0.4612    3.7960 C   0  0  0  0  0  0  0  0  0  0  0  0
   -4.4112   -0.9806    1.9368 O   0  0  0  0  0  0  0  0  0  0  0  0
   -3.8095   -0.7176    4.4879 O   0  0  0  0  0  0  0  0  0  0  0  0
   -4.4824    1.2918    3.0339 O   0  0  0  0  0  0  0  0  0  0  0  0
   -7.1015   -0.4564    2.6469 F   0  0  0  0  0  0  0  0  0  0  0  0
   -6.5581   -1.6265    4.4039 F   0  0  0  0  0  0  0  0  0  0  0  0
   -6.8795    0.5174    4.5824 F   0  0  0  0  0  0  0  0  0  0  0  0
  1  2  1  0  0  0  0
  2  3  2  0  0  0  0
  4 11  1  0  0  0  0
  4  1  2  0  0  0  0
  5  4  1  0  0  0  0
  6  5  2  0  0  0  0
  6  9  1  0  0  0  0
  7  6  1  0  0  0  0
  8 15  1  0  0  0  0
  8  7  1  0  0  0  0
  8 14  1  0  0  0  0
  9 10  2  0  0  0  0
 10  1  1  0  0  0  0
 10 17  1  0  0  0  0
 12  5  1  0  0  0  0
 13  8  1  0  0  0  0
 16  9  1  0  0  0  0
 18 19  1  0  0  0  0
 18 21  2  0  0  0  0
 19 24  1  0  0  0  0
 19 25  1  0  0  0  0
 20  3  1  0  0  0  0
 20 18  1  0  0  0  0
 22 18  2  0  0  0  0
 23 19  1  0  0  0  0
M  END
