Coordinates from ORCA-job 4-MeOPhN2+~TfO-_B3LYPG-6-31G_dp-NX-Scan-d89-09-n800
 OpenBabel11261920223D

 25 24  0  0  0  0  0  0  0  0999 V2000
   -4.1593   -3.0129   -0.4843 C   0  0  0  0  0  0  0  0  0  0  0  0
   -4.8134   -3.5641    0.5882 N   0  0  0  0  0  0  0  0  0  0  0  0
   -5.3522   -3.8415    1.5310 N   0  0  0  0  0  0  0  0  0  0  0  0
   -3.5600   -3.8761   -1.4290 C   0  0  0  0  0  0  0  0  0  0  0  0
   -2.9033   -3.3130   -2.4977 C   0  0  0  0  0  0  0  0  0  0  0  0
   -2.8472   -1.9034   -2.6362 C   0  0  0  0  0  0  0  0  0  0  0  0
   -2.1863   -1.4662   -3.7145 O   0  0  0  0  0  0  0  0  0  0  0  0
   -2.0698   -0.0566   -3.9471 C   0  0  0  0  0  0  0  0  0  0  0  0
   -3.4622   -1.0672   -1.6843 C   0  0  0  0  0  0  0  0  0  0  0  0
   -4.1245   -1.6097   -0.5952 C   0  0  0  0  0  0  0  0  0  0  0  0
   -3.6150   -4.9523   -1.3046 H   0  0  0  0  0  0  0  0  0  0  0  0
   -2.4207   -3.9256   -3.2503 H   0  0  0  0  0  0  0  0  0  0  0  0
   -1.4976    0.0390   -4.8691 H   0  0  0  0  0  0  0  0  0  0  0  0
   -1.5345    0.4326   -3.1269 H   0  0  0  0  0  0  0  0  0  0  0  0
   -3.0555    0.4019   -4.0749 H   0  0  0  0  0  0  0  0  0  0  0  0
   -3.4340    0.0109   -1.7812 H   0  0  0  0  0  0  0  0  0  0  0  0
   -4.6186   -0.9661    0.1409 H   0  0  0  0  0  0  0  0  0  0  0  0
   -5.9199   -0.5145    2.4465 S   0  0  0  0  0  0  0  0  0  0  0  0
   -5.3648    0.5427    3.8690 C   0  0  0  0  0  0  0  0  0  0  0  0
   -7.3471   -0.7655    2.6853 O   0  0  0  0  0  0  0  0  0  0  0  0
   -5.0278   -1.7167    2.5669 O   0  0  0  0  0  0  0  0  0  0  0  0
   -5.5845    0.3033    1.2482 O   0  0  0  0  0  0  0  0  0  0  0  0
   -6.0470    1.6961    3.8875 F   0  0  0  0  0  0  0  0  0  0  0  0
   -5.5656   -0.0910    5.0330 F   0  0  0  0  0  0  0  0  0  0  0  0
   -4.0560    0.8275    3.7633 F   0  0  0  0  0  0  0  0  0  0  0  0
  1  2  1  0  0  0  0
  2  3  1  0  0  0  0
  4 11  1  0  0  0  0
  4  1  2  0  0  0  0
  5  4  1  0  0  0  0
  6  5  2  0  0  0  0
  6  9  1  0  0  0  0
  7  6  1  0  0  0  0
  8  7  1  0  0  0  0
  8 14  1  0  0  0  0
  9 10  2  0  0  0  0
 10  1  1  0  0  0  0
 10 17  1  0  0  0  0
 12  5  1  0  0  0  0
 13  8  1  0  0  0  0
 15  8  1  0  0  0  0
 16  9  1  0  0  0  0
 18 21  2  0  0  0  0
 18 20  1  0  0  0  0
 18 19  1  0  0  0  0
 19 23  1  0  0  0  0
 19 24  1  0  0  0  0
 22 18  2  0  0  0  0
 25 19  1  0  0  0  0
M  RAD  3   2   2   3   3  20   2
M  END
