Coordinates from ORCA-job 4-MeOPhN2+~TfO-_B3LYPG-6-31G_dp-NX-Scan-d89-09-n800
 OpenBabel11261920223D

 25 24  0  0  0  0  0  0  0  0999 V2000
   -4.6968   -3.6301   -0.5423 C   0  0  0  0  0  0  0  0  0  0  0  0
   -5.4799   -4.4894    0.1425 N   0  0  0  0  0  0  0  0  0  0  0  0
   -6.1306   -5.2033    0.7149 N   0  0  0  0  0  0  0  0  0  0  0  0
   -3.4328   -4.0793   -1.0202 C   0  0  0  0  0  0  0  0  0  0  0  0
   -2.6200   -3.1662   -1.6355 C   0  0  0  0  0  0  0  0  0  0  0  0
   -3.0324   -1.8062   -1.7605 C   0  0  0  0  0  0  0  0  0  0  0  0
   -2.1324   -0.9936   -2.3051 O   0  0  0  0  0  0  0  0  0  0  0  0
   -2.3964    0.4243   -2.3377 C   0  0  0  0  0  0  0  0  0  0  0  0
   -4.3024   -1.3949   -1.3192 C   0  0  0  0  0  0  0  0  0  0  0  0
   -5.1389   -2.2944   -0.6923 C   0  0  0  0  0  0  0  0  0  0  0  0
   -3.1275   -5.1102   -0.8820 H   0  0  0  0  0  0  0  0  0  0  0  0
   -1.6405   -3.4439   -2.0060 H   0  0  0  0  0  0  0  0  0  0  0  0
   -1.4886    0.8737   -2.7376 H   0  0  0  0  0  0  0  0  0  0  0  0
   -2.5956    0.7933   -1.3291 H   0  0  0  0  0  0  0  0  0  0  0  0
   -3.2418    0.6429   -2.9966 H   0  0  0  0  0  0  0  0  0  0  0  0
   -4.6368   -0.3665   -1.3550 H   0  0  0  0  0  0  0  0  0  0  0  0
   -6.0850   -1.9597   -0.2920 H   0  0  0  0  0  0  0  0  0  0  0  0
   -5.7065   -0.0300    1.7406 S   0  0  0  0  0  0  0  0  0  0  0  0
   -4.0100    0.7080    1.9554 C   0  0  0  0  0  0  0  0  0  0  0  0
   -6.4955    0.5833    2.8145 O   0  0  0  0  0  0  0  0  0  0  0  0
   -5.4435   -1.4943    1.8750 O   0  0  0  0  0  0  0  0  0  0  0  0
   -6.0573    0.3694    0.3496 O   0  0  0  0  0  0  0  0  0  0  0  0
   -4.0387    2.0422    1.8331 F   0  0  0  0  0  0  0  0  0  0  0  0
   -3.4842    0.4001    3.1469 F   0  0  0  0  0  0  0  0  0  0  0  0
   -3.1529    0.2364    1.0029 F   0  0  0  0  0  0  0  0  0  0  0  0
  1  2  1  0  0  0  0
  2  3  1  0  0  0  0
  4 11  1  0  0  0  0
  4  1  2  0  0  0  0
  5  4  1  0  0  0  0
  6  5  2  0  0  0  0
  6  9  1  0  0  0  0
  7  6  1  0  0  0  0
  8  7  1  0  0  0  0
  8 14  1  0  0  0  0
  9 10  2  0  0  0  0
 10  1  1  0  0  0  0
 10 17  1  0  0  0  0
 12  5  1  0  0  0  0
 13  8  1  0  0  0  0
 15  8  1  0  0  0  0
 16  9  1  0  0  0  0
 18 21  2  0  0  0  0
 18 19  1  0  0  0  0
 18 20  1  0  0  0  0
 19 24  1  0  0  0  0
 22 18  2  0  0  0  0
 23 19  1  0  0  0  0
 25 19  1  0  0  0  0
M  RAD  3   2   2   3   3  20   2
M  END
