Coordinates from ORCA-job 4-MeOPhN2+~TfO-_B3LYPG-6-31G_dp-NX-Scan-d89-09-n800
 OpenBabel11261920223D

 25 24  0  0  0  0  0  0  0  0999 V2000
   -4.4798   -4.0166   -0.5925 C   0  0  0  0  0  0  0  0  0  0  0  0
   -5.1421   -5.0005    0.0489 N   0  0  0  0  0  0  0  0  0  0  0  0
   -5.7208   -5.7862    0.6069 N   0  0  0  0  0  0  0  0  0  0  0  0
   -3.4323   -4.3438   -1.5013 C   0  0  0  0  0  0  0  0  0  0  0  0
   -2.7631   -3.3116   -2.1030 C   0  0  0  0  0  0  0  0  0  0  0  0
   -3.1151   -1.9596   -1.8111 C   0  0  0  0  0  0  0  0  0  0  0  0
   -2.3782   -1.0323   -2.4015 O   0  0  0  0  0  0  0  0  0  0  0  0
   -2.6250    0.3630   -2.0834 C   0  0  0  0  0  0  0  0  0  0  0  0
   -4.1775   -1.6604   -0.9319 C   0  0  0  0  0  0  0  0  0  0  0  0
   -4.8569   -2.6792   -0.3075 C   0  0  0  0  0  0  0  0  0  0  0  0
   -3.1746   -5.3787   -1.6963 H   0  0  0  0  0  0  0  0  0  0  0  0
   -1.9484   -3.4980   -2.7937 H   0  0  0  0  0  0  0  0  0  0  0  0
   -1.8606    0.9127   -2.6288 H   0  0  0  0  0  0  0  0  0  0  0  0
   -2.5363    0.5289   -1.0075 H   0  0  0  0  0  0  0  0  0  0  0  0
   -3.6236    0.6598   -2.4105 H   0  0  0  0  0  0  0  0  0  0  0  0
   -4.4850   -0.6356   -0.7039 H   0  0  0  0  0  0  0  0  0  0  0  0
   -5.6290   -2.4152    0.4142 H   0  0  0  0  0  0  0  0  0  0  0  0
   -5.6836    0.6705    1.3300 S   0  0  0  0  0  0  0  0  0  0  0  0
   -4.0905    1.0470    2.2113 C   0  0  0  0  0  0  0  0  0  0  0  0
   -6.6749    1.5620    1.9368 O   0  0  0  0  0  0  0  0  0  0  0  0
   -5.8629   -0.7838    1.5991 O   0  0  0  0  0  0  0  0  0  0  0  0
   -5.3122    0.9667   -0.0871 O   0  0  0  0  0  0  0  0  0  0  0  0
   -3.7783    2.3469    2.1209 F   0  0  0  0  0  0  0  0  0  0  0  0
   -4.1451    0.7128    3.5072 F   0  0  0  0  0  0  0  0  0  0  0  0
   -3.0713    0.3429    1.6487 F   0  0  0  0  0  0  0  0  0  0  0  0
  1 10  1  0  0  0  0
  1  2  1  0  0  0  0
  2  3  1  0  0  0  0
  4  1  2  0  0  0  0
  5  6  2  0  0  0  0
  5  4  1  0  0  0  0
  6  9  1  0  0  0  0
  7  8  1  0  0  0  0
  7  6  1  0  0  0  0
  8 14  1  0  0  0  0
  9 16  1  0  0  0  0
  9 10  2  0  0  0  0
 10 17  1  0  0  0  0
 11  4  1  0  0  0  0
 12  5  1  0  0  0  0
 13  8  1  0  0  0  0
 15  8  1  0  0  0  0
 18 21  2  0  0  0  0
 18 20  1  0  0  0  0
 18 19  1  0  0  0  0
 19 24  1  0  0  0  0
 22 18  2  0  0  0  0
 23 19  1  0  0  0  0
 25 19  1  0  0  0  0
M  RAD  3   2   2   3   3  20   2
M  END
