Coordinates from ORCA-job 4-MeOPhN2+~TfO-_B3LYPG-6-31G_dp-NX-Scan-d89-09-n800
 OpenBabel11261920223D

 25 24  0  0  0  0  0  0  0  0999 V2000
   -4.2303   -3.0219   -0.4814 C   0  0  0  0  0  0  0  0  0  0  0  0
   -4.9248   -3.6053    0.5447 N   0  0  0  0  0  0  0  0  0  0  0  0
   -5.5037   -4.0318    1.3998 N   0  0  0  0  0  0  0  0  0  0  0  0
   -3.4923   -3.8654   -1.3457 C   0  0  0  0  0  0  0  0  0  0  0  0
   -2.7956   -3.2862   -2.3788 C   0  0  0  0  0  0  0  0  0  0  0  0
   -2.8325   -1.8807   -2.5625 C   0  0  0  0  0  0  0  0  0  0  0  0
   -2.1200   -1.4268   -3.5992 O   0  0  0  0  0  0  0  0  0  0  0  0
   -2.0824   -0.0187   -3.8678 C   0  0  0  0  0  0  0  0  0  0  0  0
   -3.5822   -1.0668   -1.6915 C   0  0  0  0  0  0  0  0  0  0  0  0
   -4.2886   -1.6238   -0.6383 C   0  0  0  0  0  0  0  0  0  0  0  0
   -3.4752   -4.9384   -1.1866 H   0  0  0  0  0  0  0  0  0  0  0  0
   -2.2093   -3.8830   -3.0679 H   0  0  0  0  0  0  0  0  0  0  0  0
   -1.4453    0.0922   -4.7443 H   0  0  0  0  0  0  0  0  0  0  0  0
   -1.6503    0.5287   -3.0241 H   0  0  0  0  0  0  0  0  0  0  0  0
   -3.0839    0.3641   -4.0886 H   0  0  0  0  0  0  0  0  0  0  0  0
   -3.6214    0.0077   -1.8195 H   0  0  0  0  0  0  0  0  0  0  0  0
   -4.8703   -0.9892    0.0402 H   0  0  0  0  0  0  0  0  0  0  0  0
   -5.9684   -0.4866    2.4043 S   0  0  0  0  0  0  0  0  0  0  0  0
   -5.1874    0.5101    3.7616 C   0  0  0  0  0  0  0  0  0  0  0  0
   -7.3783   -0.6202    2.7916 O   0  0  0  0  0  0  0  0  0  0  0  0
   -5.1748   -1.7560    2.4202 O   0  0  0  0  0  0  0  0  0  0  0  0
   -5.6930    0.3193    1.1811 O   0  0  0  0  0  0  0  0  0  0  0  0
   -5.7663    1.7157    3.8548 F   0  0  0  0  0  0  0  0  0  0  0  0
   -5.3145   -0.1159    4.9409 F   0  0  0  0  0  0  0  0  0  0  0  0
   -3.8762    0.6904    3.5215 F   0  0  0  0  0  0  0  0  0  0  0  0
  1  2  1  0  0  0  0
  2  3  1  0  0  0  0
  4 11  1  0  0  0  0
  4  1  2  0  0  0  0
  5  4  1  0  0  0  0
  6  5  2  0  0  0  0
  6  9  1  0  0  0  0
  7  6  1  0  0  0  0
  8  7  1  0  0  0  0
  8 14  1  0  0  0  0
  9 10  2  0  0  0  0
 10  1  1  0  0  0  0
 10 17  1  0  0  0  0
 12  5  1  0  0  0  0
 13  8  1  0  0  0  0
 15  8  1  0  0  0  0
 16  9  1  0  0  0  0
 18 21  2  0  0  0  0
 18 20  1  0  0  0  0
 18 19  1  0  0  0  0
 19 23  1  0  0  0  0
 19 24  1  0  0  0  0
 22 18  2  0  0  0  0
 25 19  1  0  0  0  0
M  RAD  3   2   2   3   3  20   2
M  END
