Coordinates from ORCA-job 4-MeOPhN2+~TfO-_B3LYPG-6-31G_dp-NX-Scan-d89-09-n800
 OpenBabel11261920223D

 25 24  0  0  0  0  0  0  0  0999 V2000
   -4.5662   -3.8005   -0.5728 C   0  0  0  0  0  0  0  0  0  0  0  0
   -5.2892   -4.7012    0.1281 N   0  0  0  0  0  0  0  0  0  0  0  0
   -5.9066   -5.4212    0.7293 N   0  0  0  0  0  0  0  0  0  0  0  0
   -3.4471   -4.2366   -1.3379 C   0  0  0  0  0  0  0  0  0  0  0  0
   -2.7007   -3.2806   -1.9737 C   0  0  0  0  0  0  0  0  0  0  0  0
   -3.0401   -1.9003   -1.8475 C   0  0  0  0  0  0  0  0  0  0  0  0
   -2.2068   -1.0530   -2.4397 O   0  0  0  0  0  0  0  0  0  0  0  0
   -2.4135    0.3661   -2.2601 C   0  0  0  0  0  0  0  0  0  0  0  0
   -4.1786   -1.4993   -1.1236 C   0  0  0  0  0  0  0  0  0  0  0  0
   -4.9440   -2.4402   -0.4701 C   0  0  0  0  0  0  0  0  0  0  0  0
   -3.1939   -5.2892   -1.3980 H   0  0  0  0  0  0  0  0  0  0  0  0
   -1.8268   -3.5466   -2.5573 H   0  0  0  0  0  0  0  0  0  0  0  0
   -1.5596    0.8405   -2.7410 H   0  0  0  0  0  0  0  0  0  0  0  0
   -2.4453    0.6149   -1.1966 H   0  0  0  0  0  0  0  0  0  0  0  0
   -3.3417    0.6812   -2.7442 H   0  0  0  0  0  0  0  0  0  0  0  0
   -4.4827   -0.4647   -0.9886 H   0  0  0  0  0  0  0  0  0  0  0  0
   -5.7565   -2.1166    0.1785 H   0  0  0  0  0  0  0  0  0  0  0  0
   -5.8157    0.2958    1.6344 S   0  0  0  0  0  0  0  0  0  0  0  0
   -4.1225    0.9050    2.1103 C   0  0  0  0  0  0  0  0  0  0  0  0
   -6.7375    1.0776    2.4637 O   0  0  0  0  0  0  0  0  0  0  0  0
   -5.7364   -1.1614    1.9489 O   0  0  0  0  0  0  0  0  0  0  0  0
   -5.8418    0.5782    0.1713 O   0  0  0  0  0  0  0  0  0  0  0  0
   -4.0097    2.2271    1.9214 F   0  0  0  0  0  0  0  0  0  0  0  0
   -3.8341    0.6315    3.3886 F   0  0  0  0  0  0  0  0  0  0  0  0
   -3.1702    0.3050    1.3410 F   0  0  0  0  0  0  0  0  0  0  0  0
  1 10  1  0  0  0  0
  1  2  1  0  0  0  0
  2  3  1  0  0  0  0
  4  1  2  0  0  0  0
  5  6  2  0  0  0  0
  5  4  1  0  0  0  0
  6  9  1  0  0  0  0
  7  8  1  0  0  0  0
  7  6  1  0  0  0  0
  8 14  1  0  0  0  0
  9 16  1  0  0  0  0
  9 10  2  0  0  0  0
 10 17  1  0  0  0  0
 11  4  1  0  0  0  0
 12  5  1  0  0  0  0
 13  8  1  0  0  0  0
 15  8  1  0  0  0  0
 18 21  2  0  0  0  0
 18 19  1  0  0  0  0
 18 20  1  0  0  0  0
 19 24  1  0  0  0  0
 22 18  2  0  0  0  0
 23 19  1  0  0  0  0
 25 19  1  0  0  0  0
M  RAD  3   2   2   3   3  20   2
M  END
