Coordinates from ORCA-job 4-MeOPhN2+~TfO-_B3LYPG-6-31G_dp-NX-Scan-d89-09-n800
 OpenBabel11261920223D

 25 24  0  0  0  0  0  0  0  0999 V2000
   -4.3882   -2.6205   -0.4495 C   0  0  0  0  0  0  0  0  0  0  0  0
   -5.1170   -2.9647    0.6749 N   0  0  0  0  0  0  0  0  0  0  0  0
   -5.7497   -2.7042    1.5912 N   0  0  0  0  0  0  0  0  0  0  0  0
   -3.6991   -3.6425   -1.1288 C   0  0  0  0  0  0  0  0  0  0  0  0
   -2.9561   -3.3203   -2.2447 C   0  0  0  0  0  0  0  0  0  0  0  0
   -2.8980   -1.9825   -2.6932 C   0  0  0  0  0  0  0  0  0  0  0  0
   -2.1427   -1.7756   -3.7849 O   0  0  0  0  0  0  0  0  0  0  0  0
   -2.0003   -0.4482   -4.2974 C   0  0  0  0  0  0  0  0  0  0  0  0
   -3.6034   -0.9721   -2.0106 C   0  0  0  0  0  0  0  0  0  0  0  0
   -4.3488   -1.2834   -0.8848 C   0  0  0  0  0  0  0  0  0  0  0  0
   -3.7519   -4.6628   -0.7653 H   0  0  0  0  0  0  0  0  0  0  0  0
   -2.4045   -4.0743   -2.7939 H   0  0  0  0  0  0  0  0  0  0  0  0
   -1.3408   -0.5368   -5.1601 H   0  0  0  0  0  0  0  0  0  0  0  0
   -1.5450    0.2148   -3.5533 H   0  0  0  0  0  0  0  0  0  0  0  0
   -2.9662   -0.0418   -4.6158 H   0  0  0  0  0  0  0  0  0  0  0  0
   -3.5694    0.0561   -2.3473 H   0  0  0  0  0  0  0  0  0  0  0  0
   -4.9029   -0.5291   -0.3397 H   0  0  0  0  0  0  0  0  0  0  0  0
   -4.9702   -0.0513    2.5363 S   0  0  0  0  0  0  0  0  0  0  0  0
   -5.7504   -0.1839    4.2167 C   0  0  0  0  0  0  0  0  0  0  0  0
   -6.0270   -0.7332    1.6501 O   0  0  0  0  0  0  0  0  0  0  0  0
   -3.7370   -0.8491    2.6123 O   0  0  0  0  0  0  0  0  0  0  0  0
   -4.8745    1.3813    2.2476 O   0  0  0  0  0  0  0  0  0  0  0  0
   -6.9133    0.4742    4.2479 F   0  0  0  0  0  0  0  0  0  0  0  0
   -5.9762   -1.4726    4.5149 F   0  0  0  0  0  0  0  0  0  0  0  0
   -4.9343    0.3341    5.1415 F   0  0  0  0  0  0  0  0  0  0  0  0
  1  2  1  0  0  0  0
  2  3  2  0  0  0  0
  4 11  1  0  0  0  0
  4  1  2  0  0  0  0
  5  4  1  0  0  0  0
  6  5  2  0  0  0  0
  6  9  1  0  0  0  0
  7  6  1  0  0  0  0
  8  7  1  0  0  0  0
  8 14  1  0  0  0  0
  9 10  2  0  0  0  0
 10  1  1  0  0  0  0
 10 17  1  0  0  0  0
 12  5  1  0  0  0  0
 13  8  1  0  0  0  0
 15  8  1  0  0  0  0
 16  9  1  0  0  0  0
 18 21  1  0  0  0  0
 18 19  1  0  0  0  0
 19 23  1  0  0  0  0
 19 24  1  0  0  0  0
 19 25  1  0  0  0  0
 20 18  2  0  0  0  0
 22 18  2  0  0  0  0
M  RAD  2   3   2  21   2
M  END
