Coordinates from ORCA-job 4-MeOPhN2+~TfO-_B3LYPG-6-31G_dp-NX-Scan-d89-09-n800
 OpenBabel11261920223D

 25 25  0  0  0  0  0  0  0  0999 V2000
   -3.8860   -2.4958   -0.2114 C   0  0  0  0  0  0  0  0  0  0  0  0
   -4.2696   -2.9596    1.0598 N   0  0  0  0  0  0  0  0  0  0  0  0
   -4.5134   -2.3810    2.1086 N   0  0  0  0  0  0  0  0  0  0  0  0
   -3.7181   -3.5466   -1.1404 C   0  0  0  0  0  0  0  0  0  0  0  0
   -3.3361   -3.2985   -2.4437 C   0  0  0  0  0  0  0  0  0  0  0  0
   -3.1060   -1.9757   -2.8624 C   0  0  0  0  0  0  0  0  0  0  0  0
   -2.7343   -1.8253   -4.1543 O   0  0  0  0  0  0  0  0  0  0  0  0
   -2.4852   -0.5140   -4.6515 C   0  0  0  0  0  0  0  0  0  0  0  0
   -3.2674   -0.9195   -1.9512 C   0  0  0  0  0  0  0  0  0  0  0  0
   -3.6540   -1.1717   -0.6388 C   0  0  0  0  0  0  0  0  0  0  0  0
   -3.8989   -4.5600   -0.7981 H   0  0  0  0  0  0  0  0  0  0  0  0
   -3.2049   -4.1017   -3.1603 H   0  0  0  0  0  0  0  0  0  0  0  0
   -2.2021   -0.6416   -5.6965 H   0  0  0  0  0  0  0  0  0  0  0  0
   -1.6651   -0.0294   -4.1091 H   0  0  0  0  0  0  0  0  0  0  0  0
   -3.3827    0.1132   -4.5916 H   0  0  0  0  0  0  0  0  0  0  0  0
   -3.0931    0.1056   -2.2550 H   0  0  0  0  0  0  0  0  0  0  0  0
   -3.7691   -0.3421    0.0415 H   0  0  0  0  0  0  0  0  0  0  0  0
   -4.5923   -0.1764    3.4620 S   0  0  0  0  0  0  0  0  0  0  0  0
   -6.4561   -0.2387    3.6188 C   0  0  0  0  0  0  0  0  0  0  0  0
   -4.4037   -0.9477    2.0140 O   0  0  0  0  0  0  0  0  0  0  0  0
   -4.0313   -0.9531    4.5497 O   0  0  0  0  0  0  0  0  0  0  0  0
   -4.2258    1.2006    3.1862 O   0  0  0  0  0  0  0  0  0  0  0  0
   -7.0109    0.3336    2.5520 F   0  0  0  0  0  0  0  0  0  0  0  0
   -6.8671   -1.4985    3.7187 F   0  0  0  0  0  0  0  0  0  0  0  0
   -6.7938    0.4355    4.7174 F   0  0  0  0  0  0  0  0  0  0  0  0
  1  2  1  0  0  0  0
  2  3  1  0  0  0  0
  4 11  1  0  0  0  0
  4  1  2  0  0  0  0
  5  4  1  0  0  0  0
  6  5  2  0  0  0  0
  6  9  1  0  0  0  0
  7  6  1  0  0  0  0
  8 15  1  0  0  0  0
  8  7  1  0  0  0  0
  8 14  1  0  0  0  0
  9 10  2  0  0  0  0
 10  1  1  0  0  0  0
 10 17  1  0  0  0  0
 12  5  1  0  0  0  0
 13  8  1  0  0  0  0
 16  9  1  0  0  0  0
 18 19  1  0  0  0  0
 18 21  2  0  0  0  0
 19 24  1  0  0  0  0
 19 25  1  0  0  0  0
 20  3  1  0  0  0  0
 20 18  1  0  0  0  0
 22 18  2  0  0  0  0
 23 19  1  0  0  0  0
M  RAD  2   2   2   3   2
M  END
