Coordinates from ORCA-job 4-MeOPhN2+~TfO-_B3LYPG-6-31G_dp-NX-Scan-d89-09-n800
 OpenBabel11261920223D

 25 24  0  0  0  0  0  0  0  0999 V2000
   -4.5654   -3.8024   -0.5722 C   0  0  0  0  0  0  0  0  0  0  0  0
   -5.2879   -4.7059    0.1256 N   0  0  0  0  0  0  0  0  0  0  0  0
   -5.9032   -5.4308    0.7231 N   0  0  0  0  0  0  0  0  0  0  0  0
   -3.4462   -4.2369   -1.3381 C   0  0  0  0  0  0  0  0  0  0  0  0
   -2.7003   -3.2801   -1.9732 C   0  0  0  0  0  0  0  0  0  0  0  0
   -3.0409   -1.9001   -1.8459 C   0  0  0  0  0  0  0  0  0  0  0  0
   -2.2087   -1.0516   -2.4377 O   0  0  0  0  0  0  0  0  0  0  0  0
   -2.4166    0.3672   -2.2570 C   0  0  0  0  0  0  0  0  0  0  0  0
   -4.1795   -1.5007   -1.1212 C   0  0  0  0  0  0  0  0  0  0  0  0
   -4.9440   -2.4425   -0.4678 C   0  0  0  0  0  0  0  0  0  0  0  0
   -3.1926   -5.2894   -1.3993 H   0  0  0  0  0  0  0  0  0  0  0  0
   -1.8265   -3.5451   -2.5573 H   0  0  0  0  0  0  0  0  0  0  0  0
   -1.5634    0.8427   -2.7379 H   0  0  0  0  0  0  0  0  0  0  0  0
   -2.4481    0.6152   -1.1932 H   0  0  0  0  0  0  0  0  0  0  0  0
   -3.3454    0.6818   -2.7403 H   0  0  0  0  0  0  0  0  0  0  0  0
   -4.4841   -0.4663   -0.9858 H   0  0  0  0  0  0  0  0  0  0  0  0
   -5.7567   -2.1186    0.1803 H   0  0  0  0  0  0  0  0  0  0  0  0
   -5.8155    0.3009    1.6320 S   0  0  0  0  0  0  0  0  0  0  0  0
   -4.1203    0.9043    2.1083 C   0  0  0  0  0  0  0  0  0  0  0  0
   -6.7345    1.0884    2.4589 O   0  0  0  0  0  0  0  0  0  0  0  0
   -5.7422   -1.1560    1.9494 O   0  0  0  0  0  0  0  0  0  0  0  0
   -5.8392    0.5807    0.1683 O   0  0  0  0  0  0  0  0  0  0  0  0
   -4.0019    2.2256    1.9165 F   0  0  0  0  0  0  0  0  0  0  0  0
   -3.8341    0.6325    3.3874 F   0  0  0  0  0  0  0  0  0  0  0  0
   -3.1696    0.2989    1.3411 F   0  0  0  0  0  0  0  0  0  0  0  0
  1 10  1  0  0  0  0
  1  2  1  0  0  0  0
  2  3  1  0  0  0  0
  4  1  2  0  0  0  0
  5  6  2  0  0  0  0
  5  4  1  0  0  0  0
  6  9  1  0  0  0  0
  7  8  1  0  0  0  0
  7  6  1  0  0  0  0
  8 14  1  0  0  0  0
  9 16  1  0  0  0  0
  9 10  2  0  0  0  0
 10 17  1  0  0  0  0
 11  4  1  0  0  0  0
 12  5  1  0  0  0  0
 13  8  1  0  0  0  0
 15  8  1  0  0  0  0
 18 21  2  0  0  0  0
 18 19  1  0  0  0  0
 18 20  1  0  0  0  0
 19 24  1  0  0  0  0
 22 18  2  0  0  0  0
 23 19  1  0  0  0  0
 25 19  1  0  0  0  0
M  RAD  3   2   2   3   3  20   2
M  END
