Coordinates from ORCA-job 4-MeOPhN2+~TfO-_B3LYPG-6-31G_dp-NX-Scan-d89-09-n800
 OpenBabel11261920223D

 25 24  0  0  0  0  0  0  0  0999 V2000
   -4.1317   -4.0742   -0.2458 C   0  0  0  0  0  0  0  0  0  0  0  0
   -4.5684   -5.2874    0.1441 N   0  0  0  0  0  0  0  0  0  0  0  0
   -4.9160   -6.3125    0.4557 N   0  0  0  0  0  0  0  0  0  0  0  0
   -4.9536   -3.2606   -1.0814 C   0  0  0  0  0  0  0  0  0  0  0  0
   -4.4597   -2.0578   -1.5065 C   0  0  0  0  0  0  0  0  0  0  0  0
   -3.1767   -1.6228   -1.0770 C   0  0  0  0  0  0  0  0  0  0  0  0
   -2.7923   -0.4544   -1.5474 O   0  0  0  0  0  0  0  0  0  0  0  0
   -1.6883    0.2549   -0.9631 C   0  0  0  0  0  0  0  0  0  0  0  0
   -2.3872   -2.4250   -0.2053 C   0  0  0  0  0  0  0  0  0  0  0  0
   -2.8513   -3.6502    0.2022 C   0  0  0  0  0  0  0  0  0  0  0  0
   -5.9567   -3.5761   -1.3413 H   0  0  0  0  0  0  0  0  0  0  0  0
   -5.0674   -1.3394   -2.0532 H   0  0  0  0  0  0  0  0  0  0  0  0
   -1.6605    1.2093   -1.4847 H   0  0  0  0  0  0  0  0  0  0  0  0
   -0.7465   -0.2817   -1.1189 H   0  0  0  0  0  0  0  0  0  0  0  0
   -1.8835    0.4187    0.0987 H   0  0  0  0  0  0  0  0  0  0  0  0
   -1.4216   -2.0795    0.1394 H   0  0  0  0  0  0  0  0  0  0  0  0
   -2.2628   -4.2894    0.8512 H   0  0  0  0  0  0  0  0  0  0  0  0
   -6.4371    0.5632   -0.2547 S   0  0  0  0  0  0  0  0  0  0  0  0
   -5.0954    1.0376    0.9548 C   0  0  0  0  0  0  0  0  0  0  0  0
   -7.4323    1.6307   -0.0782 O   0  0  0  0  0  0  0  0  0  0  0  0
   -6.8117   -0.7962    0.2065 O   0  0  0  0  0  0  0  0  0  0  0  0
   -5.7017    0.5716   -1.5502 O   0  0  0  0  0  0  0  0  0  0  0  0
   -4.4499    2.1563    0.5821 F   0  0  0  0  0  0  0  0  0  0  0  0
   -5.5735    1.2221    2.1915 F   0  0  0  0  0  0  0  0  0  0  0  0
   -4.1411    0.0545    1.0459 F   0  0  0  0  0  0  0  0  0  0  0  0
  1  2  1  0  0  0  0
  1 10  2  0  0  0  0
  2  3  1  0  0  0  0
  4  1  1  0  0  0  0
  5  4  2  0  0  0  0
  5  6  1  0  0  0  0
  6  9  2  0  0  0  0
  7  6  1  0  0  0  0
  7  8  1  0  0  0  0
  8 15  1  0  0  0  0
  9 16  1  0  0  0  0
  9 10  1  0  0  0  0
 10 17  1  0  0  0  0
 11  4  1  0  0  0  0
 12  5  1  0  0  0  0
 13  8  1  0  0  0  0
 14  8  1  0  0  0  0
 18 20  2  0  0  0  0
 18 21  1  0  0  0  0
 18 19  1  0  0  0  0
 19 25  1  0  0  0  0
 19 24  1  0  0  0  0
 22 18  2  0  0  0  0
 23 19  1  0  0  0  0
M  RAD  3   2   2   3   3  21   2
M  END
