Coordinates from ORCA-job 4-MeOPhN2+~TfO-_B3LYPG-6-31G_dp-NX-Scan-d89-09-n800
 OpenBabel11261920223D

 25 24  0  0  0  0  0  0  0  0999 V2000
   -4.2195   -3.0066   -0.4009 C   0  0  0  0  0  0  0  0  0  0  0  0
   -4.9023   -3.6290    0.6125 N   0  0  0  0  0  0  0  0  0  0  0  0
   -5.4244   -4.2410    1.3870 N   0  0  0  0  0  0  0  0  0  0  0  0
   -3.3873   -3.8263   -1.2049 C   0  0  0  0  0  0  0  0  0  0  0  0
   -2.6967   -3.2390   -2.2368 C   0  0  0  0  0  0  0  0  0  0  0  0
   -2.8269   -1.8479   -2.4810 C   0  0  0  0  0  0  0  0  0  0  0  0
   -2.1097   -1.3843   -3.5096 O   0  0  0  0  0  0  0  0  0  0  0  0
   -2.1630    0.0117   -3.8343 C   0  0  0  0  0  0  0  0  0  0  0  0
   -3.6639   -1.0587   -1.6697 C   0  0  0  0  0  0  0  0  0  0  0  0
   -4.3678   -1.6255   -0.6203 C   0  0  0  0  0  0  0  0  0  0  0  0
   -3.2981   -4.8880   -1.0014 H   0  0  0  0  0  0  0  0  0  0  0  0
   -2.0436   -3.8189   -2.8788 H   0  0  0  0  0  0  0  0  0  0  0  0
   -1.5053    0.1346   -4.6937 H   0  0  0  0  0  0  0  0  0  0  0  0
   -1.8005    0.6206   -3.0001 H   0  0  0  0  0  0  0  0  0  0  0  0
   -3.1809    0.3121   -4.1023 H   0  0  0  0  0  0  0  0  0  0  0  0
   -3.7725    0.0055   -1.8363 H   0  0  0  0  0  0  0  0  0  0  0  0
   -5.0040   -1.0070    0.0164 H   0  0  0  0  0  0  0  0  0  0  0  0
   -6.0960   -0.3339    2.2676 S   0  0  0  0  0  0  0  0  0  0  0  0
   -5.0355    0.3415    3.6336 C   0  0  0  0  0  0  0  0  0  0  0  0
   -7.4732   -0.1706    2.7443 O   0  0  0  0  0  0  0  0  0  0  0  0
   -5.6194   -1.7500    2.1488 O   0  0  0  0  0  0  0  0  0  0  0  0
   -5.6964    0.4765    1.0845 O   0  0  0  0  0  0  0  0  0  0  0  0
   -5.2926    1.6412    3.8360 F   0  0  0  0  0  0  0  0  0  0  0  0
   -5.2568   -0.3204    4.7792 F   0  0  0  0  0  0  0  0  0  0  0  0
   -3.7304    0.2152    3.3245 F   0  0  0  0  0  0  0  0  0  0  0  0
  1  2  1  0  0  0  0
  2  3  1  0  0  0  0
  4 11  1  0  0  0  0
  4  1  2  0  0  0  0
  5  4  1  0  0  0  0
  6  5  2  0  0  0  0
  6  9  1  0  0  0  0
  7  6  1  0  0  0  0
  8  7  1  0  0  0  0
  8 14  1  0  0  0  0
  9 10  2  0  0  0  0
 10  1  1  0  0  0  0
 10 17  1  0  0  0  0
 12  5  1  0  0  0  0
 13  8  1  0  0  0  0
 15  8  1  0  0  0  0
 16  9  1  0  0  0  0
 18 20  1  0  0  0  0
 18 19  1  0  0  0  0
 19 23  1  0  0  0  0
 19 24  1  0  0  0  0
 21 18  2  0  0  0  0
 22 18  2  0  0  0  0
 25 19  1  0  0  0  0
M  RAD  3   2   2   3   3  20   2
M  END
