Coordinates from ORCA-job 4-MeOPhN2+~TfO-_B3LYPG-6-31G_dp-NX-Scan-d89-09-n800
 OpenBabel11261920223D

 25 24  0  0  0  0  0  0  0  0999 V2000
   -4.1479   -2.9793   -0.4834 C   0  0  0  0  0  0  0  0  0  0  0  0
   -4.7898   -3.5053    0.6112 N   0  0  0  0  0  0  0  0  0  0  0  0
   -5.3053   -3.7149    1.5864 N   0  0  0  0  0  0  0  0  0  0  0  0
   -3.6018   -3.8618   -1.4410 C   0  0  0  0  0  0  0  0  0  0  0  0
   -2.9553   -3.3218   -2.5285 C   0  0  0  0  0  0  0  0  0  0  0  0
   -2.8589   -1.9157   -2.6731 C   0  0  0  0  0  0  0  0  0  0  0  0
   -2.2123   -1.5016   -3.7700 O   0  0  0  0  0  0  0  0  0  0  0  0
   -2.0582   -0.0971   -4.0093 C   0  0  0  0  0  0  0  0  0  0  0  0
   -3.4238   -1.0582   -1.7092 C   0  0  0  0  0  0  0  0  0  0  0  0
   -4.0730   -1.5784   -0.6014 C   0  0  0  0  0  0  0  0  0  0  0  0
   -3.6875   -4.9353   -1.3120 H   0  0  0  0  0  0  0  0  0  0  0  0
   -2.5120   -3.9511   -3.2914 H   0  0  0  0  0  0  0  0  0  0  0  0
   -1.5046   -0.0210   -4.9444 H   0  0  0  0  0  0  0  0  0  0  0  0
   -1.4894    0.3776   -3.2031 H   0  0  0  0  0  0  0  0  0  0  0  0
   -3.0319    0.3914   -4.1159 H   0  0  0  0  0  0  0  0  0  0  0  0
   -3.3660    0.0182   -1.8116 H   0  0  0  0  0  0  0  0  0  0  0  0
   -4.5327   -0.9227    0.1445 H   0  0  0  0  0  0  0  0  0  0  0  0
   -5.8287   -0.5162    2.4593 S   0  0  0  0  0  0  0  0  0  0  0  0
   -5.4716    0.5242    3.9558 C   0  0  0  0  0  0  0  0  0  0  0  0
   -7.2486   -0.8803    2.5650 O   0  0  0  0  0  0  0  0  0  0  0  0
   -4.8690   -1.6633    2.6215 O   0  0  0  0  0  0  0  0  0  0  0  0
   -5.4536    0.3608    1.3178 O   0  0  0  0  0  0  0  0  0  0  0  0
   -6.2415    1.6214    3.9514 F   0  0  0  0  0  0  0  0  0  0  0  0
   -5.7179   -0.1663    5.0775 F   0  0  0  0  0  0  0  0  0  0  0  0
   -4.1857    0.9085    3.9680 F   0  0  0  0  0  0  0  0  0  0  0  0
  1  2  1  0  0  0  0
  2  3  1  0  0  0  0
  4 11  1  0  0  0  0
  4  1  2  0  0  0  0
  5  4  1  0  0  0  0
  6  5  2  0  0  0  0
  6  9  1  0  0  0  0
  7  6  1  0  0  0  0
  8  7  1  0  0  0  0
  8 14  1  0  0  0  0
  9 10  2  0  0  0  0
 10  1  1  0  0  0  0
 10 17  1  0  0  0  0
 12  5  1  0  0  0  0
 13  8  1  0  0  0  0
 15  8  1  0  0  0  0
 16  9  1  0  0  0  0
 18 20  2  0  0  0  0
 18 21  1  0  0  0  0
 18 19  1  0  0  0  0
 19 25  1  0  0  0  0
 19 24  1  0  0  0  0
 22 18  2  0  0  0  0
 23 19  1  0  0  0  0
M  RAD  3   2   2   3   3  21   2
M  END
