Coordinates from ORCA-job 4-MeOPhN2+~TfO-_B3LYPG-6-31G_dp-NX-Scan-d89-09-n800
 OpenBabel11261920223D

 25 24  0  0  0  0  0  0  0  0999 V2000
   -4.6697   -3.6811   -0.5561 C   0  0  0  0  0  0  0  0  0  0  0  0
   -5.4412   -4.5618    0.1154 N   0  0  0  0  0  0  0  0  0  0  0  0
   -6.0824   -5.2925    0.6776 N   0  0  0  0  0  0  0  0  0  0  0  0
   -3.4301   -4.1250   -1.0998 C   0  0  0  0  0  0  0  0  0  0  0  0
   -2.6314   -3.1975   -1.7119 C   0  0  0  0  0  0  0  0  0  0  0  0
   -3.0346   -1.8301   -1.7726 C   0  0  0  0  0  0  0  0  0  0  0  0
   -2.1500   -1.0057   -2.3232 O   0  0  0  0  0  0  0  0  0  0  0  0
   -2.4082    0.4144   -2.3024 C   0  0  0  0  0  0  0  0  0  0  0  0
   -4.2819   -1.4232   -1.2660 C   0  0  0  0  0  0  0  0  0  0  0  0
   -5.1037   -2.3369   -0.6411 C   0  0  0  0  0  0  0  0  0  0  0  0
   -3.1319   -5.1638   -1.0132 H   0  0  0  0  0  0  0  0  0  0  0  0
   -1.6701   -3.4711   -2.1303 H   0  0  0  0  0  0  0  0  0  0  0  0
   -1.5130    0.8723   -2.7204 H   0  0  0  0  0  0  0  0  0  0  0  0
   -2.5710    0.7531   -1.2769 H   0  0  0  0  0  0  0  0  0  0  0  0
   -3.2758    0.6555   -2.9233 H   0  0  0  0  0  0  0  0  0  0  0  0
   -4.6136   -0.3923   -1.2543 H   0  0  0  0  0  0  0  0  0  0  0  0
   -6.0264   -2.0064   -0.1847 H   0  0  0  0  0  0  0  0  0  0  0  0
   -5.7291    0.0619    1.7219 S   0  0  0  0  0  0  0  0  0  0  0  0
   -4.0242    0.7660    1.9790 C   0  0  0  0  0  0  0  0  0  0  0  0
   -6.5473    0.7356    2.7361 O   0  0  0  0  0  0  0  0  0  0  0  0
   -5.5104   -1.4013    1.9212 O   0  0  0  0  0  0  0  0  0  0  0  0
   -6.0106    0.4179    0.3030 O   0  0  0  0  0  0  0  0  0  0  0  0
   -4.0153    2.0964    1.8168 F   0  0  0  0  0  0  0  0  0  0  0  0
   -3.5493    0.4816    3.1973 F   0  0  0  0  0  0  0  0  0  0  0  0
   -3.1458    0.2459    1.0721 F   0  0  0  0  0  0  0  0  0  0  0  0
  1  2  1  0  0  0  0
  2  3  1  0  0  0  0
  4 11  1  0  0  0  0
  4  1  2  0  0  0  0
  5  4  1  0  0  0  0
  6  5  2  0  0  0  0
  6  9  1  0  0  0  0
  7  8  1  0  0  0  0
  7  6  1  0  0  0  0
  8 14  1  0  0  0  0
  9 16  1  0  0  0  0
  9 10  2  0  0  0  0
 10  1  1  0  0  0  0
 10 17  1  0  0  0  0
 12  5  1  0  0  0  0
 13  8  1  0  0  0  0
 15  8  1  0  0  0  0
 18 21  2  0  0  0  0
 18 19  1  0  0  0  0
 18 20  1  0  0  0  0
 19 24  1  0  0  0  0
 22 18  2  0  0  0  0
 23 19  1  0  0  0  0
 25 19  1  0  0  0  0
M  RAD  3   2   2   3   3  20   2
M  END
