Coordinates from ORCA-job 4-MeOPhN2+~TfO-_B3LYPG-6-31G_dp-NX-Scan-d89-09-n800
 OpenBabel11261920223D

 25 24  0  0  0  0  0  0  0  0999 V2000
   -4.4204   -3.0141   -0.3238 C   0  0  0  0  0  0  0  0  0  0  0  0
   -5.1863   -3.6947    0.5859 N   0  0  0  0  0  0  0  0  0  0  0  0
   -5.7328   -4.3891    1.2694 N   0  0  0  0  0  0  0  0  0  0  0  0
   -3.3084   -3.7081   -0.8659 C   0  0  0  0  0  0  0  0  0  0  0  0
   -2.5233   -3.0579   -1.7861 C   0  0  0  0  0  0  0  0  0  0  0  0
   -2.8302   -1.7282   -2.1739 C   0  0  0  0  0  0  0  0  0  0  0  0
   -1.9915   -1.1912   -3.0654 O   0  0  0  0  0  0  0  0  0  0  0  0
   -2.1930    0.1622   -3.4960 C   0  0  0  0  0  0  0  0  0  0  0  0
   -3.9460   -1.0667   -1.6274 C   0  0  0  0  0  0  0  0  0  0  0  0
   -4.7506   -1.6997   -0.6959 C   0  0  0  0  0  0  0  0  0  0  0  0
   -3.0841   -4.7209   -0.5506 H   0  0  0  0  0  0  0  0  0  0  0  0
   -1.6556   -3.5375   -2.2236 H   0  0  0  0  0  0  0  0  0  0  0  0
   -1.3828    0.3677   -4.1945 H   0  0  0  0  0  0  0  0  0  0  0  0
   -2.1369    0.8532   -2.6491 H   0  0  0  0  0  0  0  0  0  0  0  0
   -3.1562    0.2706   -4.0049 H   0  0  0  0  0  0  0  0  0  0  0  0
   -4.1878   -0.0469   -1.8965 H   0  0  0  0  0  0  0  0  0  0  0  0
   -5.5845   -1.1702   -0.2391 H   0  0  0  0  0  0  0  0  0  0  0  0
   -6.2006   -0.3049    2.1565 S   0  0  0  0  0  0  0  0  0  0  0  0
   -4.5403    0.0572    2.9079 C   0  0  0  0  0  0  0  0  0  0  0  0
   -7.1747    0.1835    3.1366 O   0  0  0  0  0  0  0  0  0  0  0  0
   -6.1349   -1.7919    1.9776 O   0  0  0  0  0  0  0  0  0  0  0  0
   -6.1367    0.4149    0.8557 O   0  0  0  0  0  0  0  0  0  0  0  0
   -4.3542    1.3726    3.0776 F   0  0  0  0  0  0  0  0  0  0  0  0
   -4.3982   -0.5491    4.0957 F   0  0  0  0  0  0  0  0  0  0  0  0
   -3.5569   -0.3991    2.0939 F   0  0  0  0  0  0  0  0  0  0  0  0
  1  2  1  0  0  0  0
  2  3  1  0  0  0  0
  4 11  1  0  0  0  0
  4  1  2  0  0  0  0
  5  4  1  0  0  0  0
  6  5  2  0  0  0  0
  6  9  1  0  0  0  0
  7  6  1  0  0  0  0
  8  7  1  0  0  0  0
  8 14  1  0  0  0  0
  9 10  2  0  0  0  0
 10  1  1  0  0  0  0
 10 17  1  0  0  0  0
 12  5  1  0  0  0  0
 13  8  1  0  0  0  0
 15  8  1  0  0  0  0
 16  9  1  0  0  0  0
 18 19  1  0  0  0  0
 18 20  1  0  0  0  0
 19 23  1  0  0  0  0
 19 24  1  0  0  0  0
 21 18  2  0  0  0  0
 22 18  2  0  0  0  0
 25 19  1  0  0  0  0
M  RAD  3   2   2   3   3  20   2
M  END
