Coordinates from ORCA-job 4-MeOPhN2+~TfO-_B3LYPG-6-31G_dp-NX-Scan-d89-09-n800
 OpenBabel11261920223D

 25 25  0  0  0  0  0  0  0  0999 V2000
   -3.8792   -2.5171   -0.2300 C   0  0  0  0  0  0  0  0  0  0  0  0
   -4.2619   -2.9563    1.0443 N   0  0  0  0  0  0  0  0  0  0  0  0
   -4.5183   -2.4320    2.0976 N   0  0  0  0  0  0  0  0  0  0  0  0
   -3.6904   -3.5692   -1.1520 C   0  0  0  0  0  0  0  0  0  0  0  0
   -3.3055   -3.3123   -2.4525 C   0  0  0  0  0  0  0  0  0  0  0  0
   -3.0967   -1.9843   -2.8690 C   0  0  0  0  0  0  0  0  0  0  0  0
   -2.7212   -1.8279   -4.1571 O   0  0  0  0  0  0  0  0  0  0  0  0
   -2.4925   -0.5123   -4.6561 C   0  0  0  0  0  0  0  0  0  0  0  0
   -3.2819   -0.9293   -1.9593 C   0  0  0  0  0  0  0  0  0  0  0  0
   -3.6705   -1.1878   -0.6499 C   0  0  0  0  0  0  0  0  0  0  0  0
   -3.8554   -4.5858   -0.8116 H   0  0  0  0  0  0  0  0  0  0  0  0
   -3.1560   -4.1119   -3.1694 H   0  0  0  0  0  0  0  0  0  0  0  0
   -2.2023   -0.6378   -5.6992 H   0  0  0  0  0  0  0  0  0  0  0  0
   -1.6835   -0.0133   -4.1104 H   0  0  0  0  0  0  0  0  0  0  0  0
   -3.4015    0.0982   -4.6015 H   0  0  0  0  0  0  0  0  0  0  0  0
   -3.1245    0.0983   -2.2631 H   0  0  0  0  0  0  0  0  0  0  0  0
   -3.8078   -0.3674    0.0381 H   0  0  0  0  0  0  0  0  0  0  0  0
   -4.5937   -0.1710    3.4723 S   0  0  0  0  0  0  0  0  0  0  0  0
   -6.4538   -0.1996    3.6303 C   0  0  0  0  0  0  0  0  0  0  0  0
   -4.4231   -0.8957    2.0294 O   0  0  0  0  0  0  0  0  0  0  0  0
   -4.0589   -0.9872    4.5473 O   0  0  0  0  0  0  0  0  0  0  0  0
   -4.2049    1.2142    3.2647 O   0  0  0  0  0  0  0  0  0  0  0  0
   -7.0038    0.4446    2.6004 F   0  0  0  0  0  0  0  0  0  0  0  0
   -6.8928   -1.4570    3.6533 F   0  0  0  0  0  0  0  0  0  0  0  0
   -6.7868    0.4116    4.7674 F   0  0  0  0  0  0  0  0  0  0  0  0
  1  2  1  0  0  0  0
  2  3  1  0  0  0  0
  4 11  1  0  0  0  0
  4  1  2  0  0  0  0
  5  4  1  0  0  0  0
  6  5  2  0  0  0  0
  6  9  1  0  0  0  0
  7  6  1  0  0  0  0
  8 15  1  0  0  0  0
  8  7  1  0  0  0  0
  8 14  1  0  0  0  0
  9 10  2  0  0  0  0
 10  1  1  0  0  0  0
 10 17  1  0  0  0  0
 12  5  1  0  0  0  0
 13  8  1  0  0  0  0
 16  9  1  0  0  0  0
 18 19  1  0  0  0  0
 18 21  2  0  0  0  0
 19 24  1  0  0  0  0
 19 25  1  0  0  0  0
 20  3  1  0  0  0  0
 20 18  1  0  0  0  0
 22 18  2  0  0  0  0
 23 19  1  0  0  0  0
M  RAD  2   2   2   3   2
M  END
