Coordinates from ORCA-job 4-MeOPhN2+~TfO-_B3LYPG-6-31G_dp-NX-Scan-d89-09-n800
 OpenBabel11261920223D

 25 24  0  0  0  0  0  0  0  0999 V2000
   -4.1703   -4.0126   -0.2248 C   0  0  0  0  0  0  0  0  0  0  0  0
   -4.6373   -5.2031    0.1987 N   0  0  0  0  0  0  0  0  0  0  0  0
   -5.0056   -6.2123    0.5374 N   0  0  0  0  0  0  0  0  0  0  0  0
   -4.9532   -3.2210   -1.1158 C   0  0  0  0  0  0  0  0  0  0  0  0
   -4.4243   -2.0462   -1.5771 C   0  0  0  0  0  0  0  0  0  0  0  0
   -3.1506   -1.6119   -1.1251 C   0  0  0  0  0  0  0  0  0  0  0  0
   -2.7331   -0.4668   -1.6267 O   0  0  0  0  0  0  0  0  0  0  0  0
   -1.6316    0.2406   -1.0356 C   0  0  0  0  0  0  0  0  0  0  0  0
   -2.4006   -2.3910   -0.1990 C   0  0  0  0  0  0  0  0  0  0  0  0
   -2.8965   -3.5909    0.2437 C   0  0  0  0  0  0  0  0  0  0  0  0
   -5.9548   -3.5285   -1.3895 H   0  0  0  0  0  0  0  0  0  0  0  0
   -5.0075   -1.3460   -2.1680 H   0  0  0  0  0  0  0  0  0  0  0  0
   -1.5696    1.1765   -1.5870 H   0  0  0  0  0  0  0  0  0  0  0  0
   -0.6966   -0.3185   -1.1482 H   0  0  0  0  0  0  0  0  0  0  0  0
   -1.8511    0.4425    0.0150 H   0  0  0  0  0  0  0  0  0  0  0  0
   -1.4409   -2.0462    0.1619 H   0  0  0  0  0  0  0  0  0  0  0  0
   -2.3384   -4.2115    0.9361 H   0  0  0  0  0  0  0  0  0  0  0  0
   -6.4205    0.4938   -0.2287 S   0  0  0  0  0  0  0  0  0  0  0  0
   -5.1242    0.9842    1.0200 C   0  0  0  0  0  0  0  0  0  0  0  0
   -7.4620    1.5150   -0.0434 O   0  0  0  0  0  0  0  0  0  0  0  0
   -6.7540   -0.8925    0.1859 O   0  0  0  0  0  0  0  0  0  0  0  0
   -5.6588    0.5679   -1.5059 O   0  0  0  0  0  0  0  0  0  0  0  0
   -4.5944    2.1873    0.7487 F   0  0  0  0  0  0  0  0  0  0  0  0
   -5.6105    1.0108    2.2675 F   0  0  0  0  0  0  0  0  0  0  0  0
   -4.0805    0.0920    1.0240 F   0  0  0  0  0  0  0  0  0  0  0  0
  1  2  1  0  0  0  0
  1 10  1  0  0  0  0
  2  3  1  0  0  0  0
  4  1  2  0  0  0  0
  5  6  2  0  0  0  0
  5  4  1  0  0  0  0
  6  9  1  0  0  0  0
  7  6  1  0  0  0  0
  7  8  1  0  0  0  0
  8 15  1  0  0  0  0
  9 16  1  0  0  0  0
  9 10  2  0  0  0  0
 10 17  1  0  0  0  0
 11  4  1  0  0  0  0
 12  5  1  0  0  0  0
 13  8  1  0  0  0  0
 14  8  1  0  0  0  0
 18 20  2  0  0  0  0
 18 21  1  0  0  0  0
 18 19  1  0  0  0  0
 19 25  1  0  0  0  0
 19 24  1  0  0  0  0
 22 18  2  0  0  0  0
 23 19  1  0  0  0  0
M  RAD  3   2   2   3   3  21   2
M  END
