Coordinates from ORCA-job 4-MeOPhN2+~TfO-_B3LYPG-6-31G_dp-NX-Scan-d89-09-n800
 OpenBabel11261920223D

 25 24  0  0  0  0  0  0  0  0999 V2000
   -4.1634   -4.0161   -0.2236 C   0  0  0  0  0  0  0  0  0  0  0  0
   -4.6326   -5.2049    0.2018 N   0  0  0  0  0  0  0  0  0  0  0  0
   -5.0073   -6.2110    0.5420 N   0  0  0  0  0  0  0  0  0  0  0  0
   -4.9543   -3.2174   -1.1007 C   0  0  0  0  0  0  0  0  0  0  0  0
   -4.4281   -2.0409   -1.5602 C   0  0  0  0  0  0  0  0  0  0  0  0
   -3.1488   -1.6120   -1.1190 C   0  0  0  0  0  0  0  0  0  0  0  0
   -2.7371   -0.4619   -1.6140 O   0  0  0  0  0  0  0  0  0  0  0  0
   -1.6349    0.2447   -1.0237 C   0  0  0  0  0  0  0  0  0  0  0  0
   -2.3887   -2.3998   -0.2087 C   0  0  0  0  0  0  0  0  0  0  0  0
   -2.8824   -3.6016    0.2317 C   0  0  0  0  0  0  0  0  0  0  0  0
   -5.9608   -3.5190   -1.3632 H   0  0  0  0  0  0  0  0  0  0  0  0
   -5.0186   -1.3344   -2.1371 H   0  0  0  0  0  0  0  0  0  0  0  0
   -1.5821    1.1868   -1.5654 H   0  0  0  0  0  0  0  0  0  0  0  0
   -0.6977   -0.3079   -1.1491 H   0  0  0  0  0  0  0  0  0  0  0  0
   -1.8467    0.4344    0.0308 H   0  0  0  0  0  0  0  0  0  0  0  0
   -1.4235   -2.0600    0.1423 H   0  0  0  0  0  0  0  0  0  0  0  0
   -2.3176   -4.2286    0.9129 H   0  0  0  0  0  0  0  0  0  0  0  0
   -6.4278    0.5011   -0.2414 S   0  0  0  0  0  0  0  0  0  0  0  0
   -5.1264    0.9790    1.0074 C   0  0  0  0  0  0  0  0  0  0  0  0
   -7.4639    1.5258   -0.0496 O   0  0  0  0  0  0  0  0  0  0  0  0
   -6.7671   -0.8854    0.1676 O   0  0  0  0  0  0  0  0  0  0  0  0
   -5.6683    0.5775   -1.5201 O   0  0  0  0  0  0  0  0  0  0  0  0
   -4.5700    2.1679    0.7251 F   0  0  0  0  0  0  0  0  0  0  0  0
   -5.6169    1.0298    2.2524 F   0  0  0  0  0  0  0  0  0  0  0  0
   -4.1017    0.0655    1.0259 F   0  0  0  0  0  0  0  0  0  0  0  0
  1  2  1  0  0  0  0
  1 10  1  0  0  0  0
  2  3  1  0  0  0  0
  4  1  2  0  0  0  0
  5  6  2  0  0  0  0
  5  4  1  0  0  0  0
  6  9  1  0  0  0  0
  7  6  1  0  0  0  0
  7  8  1  0  0  0  0
  8 15  1  0  0  0  0
  9 16  1  0  0  0  0
  9 10  2  0  0  0  0
 10 17  1  0  0  0  0
 11  4  1  0  0  0  0
 12  5  1  0  0  0  0
 13  8  1  0  0  0  0
 14  8  1  0  0  0  0
 18 20  2  0  0  0  0
 18 21  1  0  0  0  0
 18 19  1  0  0  0  0
 19 25  1  0  0  0  0
 19 24  1  0  0  0  0
 22 18  2  0  0  0  0
 23 19  1  0  0  0  0
M  RAD  3   2   2   3   3  21   2
M  END
