Coordinates from ORCA-job 4-MeOPhN2+~TfO-_B3LYPG-6-31G_dp-NX-Scan-d89-09-n800
 OpenBabel11261920223D

 25 24  0  0  0  0  0  0  0  0999 V2000
   -4.2249   -3.0204   -0.4902 C   0  0  0  0  0  0  0  0  0  0  0  0
   -4.9163   -3.5936    0.5442 N   0  0  0  0  0  0  0  0  0  0  0  0
   -5.4887   -3.9728    1.4265 N   0  0  0  0  0  0  0  0  0  0  0  0
   -3.5073   -3.8686   -1.3658 C   0  0  0  0  0  0  0  0  0  0  0  0
   -2.8127   -3.2925   -2.4024 C   0  0  0  0  0  0  0  0  0  0  0  0
   -2.8332   -1.8857   -2.5782 C   0  0  0  0  0  0  0  0  0  0  0  0
   -2.1247   -1.4353   -3.6194 O   0  0  0  0  0  0  0  0  0  0  0  0
   -2.0724   -0.0267   -3.8815 C   0  0  0  0  0  0  0  0  0  0  0  0
   -3.5646   -1.0668   -1.6964 C   0  0  0  0  0  0  0  0  0  0  0  0
   -4.2681   -1.6210   -0.6397 C   0  0  0  0  0  0  0  0  0  0  0  0
   -3.5028   -4.9425   -1.2125 H   0  0  0  0  0  0  0  0  0  0  0  0
   -2.2406   -3.8927   -3.1004 H   0  0  0  0  0  0  0  0  0  0  0  0
   -1.4422    0.0810   -4.7633 H   0  0  0  0  0  0  0  0  0  0  0  0
   -1.6260    0.5114   -3.0391 H   0  0  0  0  0  0  0  0  0  0  0  0
   -3.0711    0.3696   -4.0910 H   0  0  0  0  0  0  0  0  0  0  0  0
   -3.5924    0.0086   -1.8197 H   0  0  0  0  0  0  0  0  0  0  0  0
   -4.8401   -0.9853    0.0464 H   0  0  0  0  0  0  0  0  0  0  0  0
   -5.9546   -0.5021    2.4224 S   0  0  0  0  0  0  0  0  0  0  0  0
   -5.2190    0.5213    3.7855 C   0  0  0  0  0  0  0  0  0  0  0  0
   -7.3659   -0.6726    2.7892 O   0  0  0  0  0  0  0  0  0  0  0  0
   -5.1280   -1.7503    2.4586 O   0  0  0  0  0  0  0  0  0  0  0  0
   -5.6831    0.3046    1.1991 O   0  0  0  0  0  0  0  0  0  0  0  0
   -5.8309    1.7115    3.8632 F   0  0  0  0  0  0  0  0  0  0  0  0
   -5.3472   -0.1019    4.9659 F   0  0  0  0  0  0  0  0  0  0  0  0
   -3.9100    0.7345    3.5630 F   0  0  0  0  0  0  0  0  0  0  0  0
  1  2  1  0  0  0  0
  2  3  1  0  0  0  0
  4 11  1  0  0  0  0
  4  1  2  0  0  0  0
  5  4  1  0  0  0  0
  6  5  2  0  0  0  0
  6  9  1  0  0  0  0
  7  6  1  0  0  0  0
  8  7  1  0  0  0  0
  8 14  1  0  0  0  0
  9 10  2  0  0  0  0
 10  1  1  0  0  0  0
 10 17  1  0  0  0  0
 12  5  1  0  0  0  0
 13  8  1  0  0  0  0
 15  8  1  0  0  0  0
 16  9  1  0  0  0  0
 18 21  2  0  0  0  0
 18 20  1  0  0  0  0
 18 19  1  0  0  0  0
 19 23  1  0  0  0  0
 19 24  1  0  0  0  0
 22 18  2  0  0  0  0
 25 19  1  0  0  0  0
M  RAD  3   2   2   3   3  20   2
M  END
