Coordinates from ORCA-job 4-MeOPhN2+~TfO-_B3LYPG-6-31G_dp-NX-Scan-d89-09-n800
 OpenBabel11261920223D

 25 25  0  0  0  0  0  0  0  0999 V2000
   -3.8880   -2.4913   -0.2090 C   0  0  0  0  0  0  0  0  0  0  0  0
   -4.2727   -2.9591    1.0619 N   0  0  0  0  0  0  0  0  0  0  0  0
   -4.5141   -2.3695    2.1093 N   0  0  0  0  0  0  0  0  0  0  0  0
   -3.7238   -3.5421   -1.1388 C   0  0  0  0  0  0  0  0  0  0  0  0
   -3.3416   -3.2958   -2.4426 C   0  0  0  0  0  0  0  0  0  0  0  0
   -3.1071   -1.9742   -2.8619 C   0  0  0  0  0  0  0  0  0  0  0  0
   -2.7355   -1.8254   -4.1545 O   0  0  0  0  0  0  0  0  0  0  0  0
   -2.4824   -0.5150   -4.6515 C   0  0  0  0  0  0  0  0  0  0  0  0
   -3.2644   -0.9176   -1.9509 C   0  0  0  0  0  0  0  0  0  0  0  0
   -3.6514   -1.1683   -0.6379 C   0  0  0  0  0  0  0  0  0  0  0  0
   -3.9078   -4.5547   -0.7961 H   0  0  0  0  0  0  0  0  0  0  0  0
   -3.2136   -4.0999   -3.1588 H   0  0  0  0  0  0  0  0  0  0  0  0
   -2.2001   -0.6433   -5.6967 H   0  0  0  0  0  0  0  0  0  0  0  0
   -1.6604   -0.0330   -4.1095 H   0  0  0  0  0  0  0  0  0  0  0  0
   -3.3777    0.1153   -4.5911 H   0  0  0  0  0  0  0  0  0  0  0  0
   -3.0868    0.1069   -2.2548 H   0  0  0  0  0  0  0  0  0  0  0  0
   -3.7626   -0.3369    0.0406 H   0  0  0  0  0  0  0  0  0  0  0  0
   -4.5925   -0.1767    3.4610 S   0  0  0  0  0  0  0  0  0  0  0  0
   -6.4569   -0.2469    3.6197 C   0  0  0  0  0  0  0  0  0  0  0  0
   -4.4012   -0.9568    2.0111 O   0  0  0  0  0  0  0  0  0  0  0  0
   -4.0247   -0.9460    4.5500 O   0  0  0  0  0  0  0  0  0  0  0  0
   -4.2314    1.1987    3.1723 O   0  0  0  0  0  0  0  0  0  0  0  0
   -7.0138    0.3105    2.5466 F   0  0  0  0  0  0  0  0  0  0  0  0
   -6.8614   -1.5067    3.7354 F   0  0  0  0  0  0  0  0  0  0  0  0
   -6.7951    0.4395    4.7104 F   0  0  0  0  0  0  0  0  0  0  0  0
  1  2  1  0  0  0  0
  2  3  1  0  0  0  0
  4 11  1  0  0  0  0
  4  1  2  0  0  0  0
  5  4  1  0  0  0  0
  6  5  2  0  0  0  0
  6  9  1  0  0  0  0
  7  6  1  0  0  0  0
  8 15  1  0  0  0  0
  8  7  1  0  0  0  0
  8 14  1  0  0  0  0
  9 10  2  0  0  0  0
 10  1  1  0  0  0  0
 10 17  1  0  0  0  0
 12  5  1  0  0  0  0
 13  8  1  0  0  0  0
 16  9  1  0  0  0  0
 18 19  1  0  0  0  0
 18 21  2  0  0  0  0
 19 24  1  0  0  0  0
 19 25  1  0  0  0  0
 20  3  1  0  0  0  0
 20 18  1  0  0  0  0
 22 18  2  0  0  0  0
 23 19  1  0  0  0  0
M  RAD  2   2   2   3   2
M  END
