Coordinates from ORCA-job 4-MeOPhN2+~TfO-_B3LYPG-6-31G_dp-NX-Scan-d89-09-n800
 OpenBabel11261920223D

 25 24  0  0  0  0  0  0  0  0999 V2000
   -4.4078   -3.0104   -0.3359 C   0  0  0  0  0  0  0  0  0  0  0  0
   -5.1719   -3.6828    0.5827 N   0  0  0  0  0  0  0  0  0  0  0  0
   -5.7230   -4.3666    1.2728 N   0  0  0  0  0  0  0  0  0  0  0  0
   -3.3306   -3.7288   -0.9144 C   0  0  0  0  0  0  0  0  0  0  0  0
   -2.5478   -3.0892   -1.8443 C   0  0  0  0  0  0  0  0  0  0  0  0
   -2.8245   -1.7464   -2.2073 C   0  0  0  0  0  0  0  0  0  0  0  0
   -1.9926   -1.2219   -3.1129 O   0  0  0  0  0  0  0  0  0  0  0  0
   -2.1656    0.1418   -3.5221 C   0  0  0  0  0  0  0  0  0  0  0  0
   -3.9072   -1.0605   -1.6251 C   0  0  0  0  0  0  0  0  0  0  0  0
   -4.7079   -1.6815   -0.6817 C   0  0  0  0  0  0  0  0  0  0  0  0
   -3.1293   -4.7522   -0.6183 H   0  0  0  0  0  0  0  0  0  0  0  0
   -1.7055   -3.5883   -2.3090 H   0  0  0  0  0  0  0  0  0  0  0  0
   -1.3672    0.3332   -4.2380 H   0  0  0  0  0  0  0  0  0  0  0  0
   -2.0688    0.8203   -2.6687 H   0  0  0  0  0  0  0  0  0  0  0  0
   -3.1374    0.2844   -4.0057 H   0  0  0  0  0  0  0  0  0  0  0  0
   -4.1273   -0.0319   -1.8793 H   0  0  0  0  0  0  0  0  0  0  0  0
   -5.5208   -1.1354   -0.2040 H   0  0  0  0  0  0  0  0  0  0  0  0
   -6.2113   -0.3406    2.1930 S   0  0  0  0  0  0  0  0  0  0  0  0
   -4.5861    0.1233    2.9639 C   0  0  0  0  0  0  0  0  0  0  0  0
   -7.2271    0.0736    3.1641 O   0  0  0  0  0  0  0  0  0  0  0  0
   -6.0516   -1.8197    2.0081 O   0  0  0  0  0  0  0  0  0  0  0  0
   -6.1795    0.3867    0.8955 O   0  0  0  0  0  0  0  0  0  0  0  0
   -4.4947    1.4456    3.1550 F   0  0  0  0  0  0  0  0  0  0  0  0
   -4.4127   -0.4900    4.1441 F   0  0  0  0  0  0  0  0  0  0  0  0
   -3.5686   -0.2512    2.1519 F   0  0  0  0  0  0  0  0  0  0  0  0
  1  2  1  0  0  0  0
  2  3  1  0  0  0  0
  4 11  1  0  0  0  0
  4  1  2  0  0  0  0
  5  4  1  0  0  0  0
  6  5  2  0  0  0  0
  6  9  1  0  0  0  0
  7  6  1  0  0  0  0
  8  7  1  0  0  0  0
  8 14  1  0  0  0  0
  9 10  2  0  0  0  0
 10  1  1  0  0  0  0
 10 17  1  0  0  0  0
 12  5  1  0  0  0  0
 13  8  1  0  0  0  0
 15  8  1  0  0  0  0
 16  9  1  0  0  0  0
 18 19  1  0  0  0  0
 18 20  1  0  0  0  0
 19 23  1  0  0  0  0
 19 24  1  0  0  0  0
 21 18  2  0  0  0  0
 22 18  2  0  0  0  0
 25 19  1  0  0  0  0
M  RAD  3   2   2   3   3  20   2
M  END
