Coordinates from ORCA-job 4-MeOPhN2+~TfO-_B3LYPG-6-31G_dp-NX-Scan-d89-09-n800
 OpenBabel11261920223D

 25 24  0  0  0  0  0  0  0  0999 V2000
   -3.9285   -2.8094   -0.2667 C   0  0  0  0  0  0  0  0  0  0  0  0
   -4.3885   -3.2375    0.9560 N   0  0  0  0  0  0  0  0  0  0  0  0
   -4.7068   -3.2874    2.0330 N   0  0  0  0  0  0  0  0  0  0  0  0
   -4.0039   -3.6813   -1.3711 C   0  0  0  0  0  0  0  0  0  0  0  0
   -3.5603   -3.2302   -2.5943 C   0  0  0  0  0  0  0  0  0  0  0  0
   -3.0481   -1.9182   -2.7251 C   0  0  0  0  0  0  0  0  0  0  0  0
   -2.6541   -1.5802   -3.9609 O   0  0  0  0  0  0  0  0  0  0  0  0
   -2.1490   -0.2618   -4.2028 C   0  0  0  0  0  0  0  0  0  0  0  0
   -2.9774   -1.0649   -1.6061 C   0  0  0  0  0  0  0  0  0  0  0  0
   -3.4165   -1.5023   -0.3679 C   0  0  0  0  0  0  0  0  0  0  0  0
   -4.4103   -4.6793   -1.2534 H   0  0  0  0  0  0  0  0  0  0  0  0
   -3.6011   -3.8591   -3.4760 H   0  0  0  0  0  0  0  0  0  0  0  0
   -1.9177   -0.2298   -5.2667 H   0  0  0  0  0  0  0  0  0  0  0  0
   -1.2381   -0.0779   -3.6240 H   0  0  0  0  0  0  0  0  0  0  0  0
   -2.9022    0.4964   -3.9654 H   0  0  0  0  0  0  0  0  0  0  0  0
   -2.5931   -0.0572   -1.6922 H   0  0  0  0  0  0  0  0  0  0  0  0
   -3.3819   -0.8604    0.5060 H   0  0  0  0  0  0  0  0  0  0  0  0
   -5.3158   -0.3353    2.3194 S   0  0  0  0  0  0  0  0  0  0  0  0
   -6.0964    0.2001    3.9158 C   0  0  0  0  0  0  0  0  0  0  0  0
   -6.3430   -1.1597    1.6428 O   0  0  0  0  0  0  0  0  0  0  0  0
   -4.1372   -1.1649    2.7692 O   0  0  0  0  0  0  0  0  0  0  0  0
   -4.9161    0.9124    1.6454 O   0  0  0  0  0  0  0  0  0  0  0  0
   -7.1887    0.9371    3.6733 F   0  0  0  0  0  0  0  0  0  0  0  0
   -6.4557   -0.8700    4.6408 F   0  0  0  0  0  0  0  0  0  0  0  0
   -5.2365    0.9326    4.6351 F   0  0  0  0  0  0  0  0  0  0  0  0
  1  2  1  0  0  0  0
  2  3  1  0  0  0  0
  4 11  1  0  0  0  0
  4  1  2  0  0  0  0
  5  4  1  0  0  0  0
  6  5  2  0  0  0  0
  6  9  1  0  0  0  0
  7  6  1  0  0  0  0
  8 15  1  0  0  0  0
  8  7  1  0  0  0  0
  8 14  1  0  0  0  0
  9 10  2  0  0  0  0
 10  1  1  0  0  0  0
 10 17  1  0  0  0  0
 12  5  1  0  0  0  0
 13  8  1  0  0  0  0
 16  9  1  0  0  0  0
 18 21  1  0  0  0  0
 18 19  1  0  0  0  0
 19 25  1  0  0  0  0
 19 24  1  0  0  0  0
 20 18  2  0  0  0  0
 22 18  2  0  0  0  0
 23 19  1  0  0  0  0
M  RAD  3   2   2   3   3  21   2
M  END
