Coordinates from ORCA-job 4-MeOPhN2+~TfO-_B3LYPG-6-31G_dp-NX-Scan-d89-09-n800
 OpenBabel11261920223D

 25 25  0  0  0  0  0  0  0  0999 V2000
   -3.9974   -2.4037   -0.2422 C   0  0  0  0  0  0  0  0  0  0  0  0
   -4.4540   -2.8634    1.0199 N   0  0  0  0  0  0  0  0  0  0  0  0
   -4.6396   -2.1564    2.0394 N   0  0  0  0  0  0  0  0  0  0  0  0
   -3.8866   -3.4635   -1.1704 C   0  0  0  0  0  0  0  0  0  0  0  0
   -3.4534   -3.2551   -2.4655 C   0  0  0  0  0  0  0  0  0  0  0  0
   -3.1103   -1.9587   -2.8858 C   0  0  0  0  0  0  0  0  0  0  0  0
   -2.6936   -1.8457   -4.1727 O   0  0  0  0  0  0  0  0  0  0  0  0
   -2.3261   -0.5611   -4.6595 C   0  0  0  0  0  0  0  0  0  0  0  0
   -3.2143   -0.8911   -1.9839 C   0  0  0  0  0  0  0  0  0  0  0  0
   -3.6523   -1.1072   -0.6777 C   0  0  0  0  0  0  0  0  0  0  0  0
   -4.1550   -4.4577   -0.8291 H   0  0  0  0  0  0  0  0  0  0  0  0
   -3.3682   -4.0721   -3.1740 H   0  0  0  0  0  0  0  0  0  0  0  0
   -2.0205   -0.7103   -5.6955 H   0  0  0  0  0  0  0  0  0  0  0  0
   -1.4879   -0.1406   -4.0911 H   0  0  0  0  0  0  0  0  0  0  0  0
   -3.1714    0.1377   -4.6279 H   0  0  0  0  0  0  0  0  0  0  0  0
   -2.9562    0.1170   -2.2855 H   0  0  0  0  0  0  0  0  0  0  0  0
   -3.7177   -0.2564   -0.0169 H   0  0  0  0  0  0  0  0  0  0  0  0
   -4.6077   -0.0940    3.4309 S   0  0  0  0  0  0  0  0  0  0  0  0
   -6.4285   -0.4615    3.7931 C   0  0  0  0  0  0  0  0  0  0  0  0
   -4.4235   -0.9494    1.9368 O   0  0  0  0  0  0  0  0  0  0  0  0
   -3.7995   -0.7207    4.4562 O   0  0  0  0  0  0  0  0  0  0  0  0
   -4.4894    1.2903    3.0210 O   0  0  0  0  0  0  0  0  0  0  0  0
   -7.1133   -0.4414    2.6560 F   0  0  0  0  0  0  0  0  0  0  0  0
   -6.5476   -1.6333    4.3907 F   0  0  0  0  0  0  0  0  0  0  0  0
   -6.8529    0.5101    4.5979 F   0  0  0  0  0  0  0  0  0  0  0  0
  1  2  1  0  0  0  0
  2  3  2  0  0  0  0
  4 11  1  0  0  0  0
  4  1  2  0  0  0  0
  5  4  1  0  0  0  0
  6  5  2  0  0  0  0
  6  9  1  0  0  0  0
  7  6  1  0  0  0  0
  8 15  1  0  0  0  0
  8  7  1  0  0  0  0
  8 14  1  0  0  0  0
  9 10  2  0  0  0  0
 10  1  1  0  0  0  0
 10 17  1  0  0  0  0
 12  5  1  0  0  0  0
 13  8  1  0  0  0  0
 16  9  1  0  0  0  0
 18 19  1  0  0  0  0
 18 21  2  0  0  0  0
 19 24  1  0  0  0  0
 19 25  1  0  0  0  0
 20  3  1  0  0  0  0
 20 18  1  0  0  0  0
 22 18  2  0  0  0  0
 23 19  1  0  0  0  0
M  END
