Coordinates from ORCA-job 4-MeOPhN2+~TfO-_B3LYPG-6-31G_dp-NX-Scan-d89-09-n800
 OpenBabel11261920223D

 25 25  0  0  0  0  0  0  0  0999 V2000
   -3.8741   -1.8012   -0.4127 C   0  0  0  0  0  0  0  0  0  0  0  0
   -4.3386   -1.7961    0.9352 N   0  0  0  0  0  0  0  0  0  0  0  0
   -4.4881   -0.6626    1.4681 N   0  0  0  0  0  0  0  0  0  0  0  0
   -3.7360   -3.0965   -0.9468 C   0  0  0  0  0  0  0  0  0  0  0  0
   -3.2945   -3.2855   -2.2434 C   0  0  0  0  0  0  0  0  0  0  0  0
   -2.9748   -2.1793   -3.0494 C   0  0  0  0  0  0  0  0  0  0  0  0
   -2.5490   -2.4685   -4.3075 O   0  0  0  0  0  0  0  0  0  0  0  0
   -2.2062   -1.3931   -5.1706 C   0  0  0  0  0  0  0  0  0  0  0  0
   -3.1079   -0.8875   -2.5276 C   0  0  0  0  0  0  0  0  0  0  0  0
   -3.5549   -0.6990   -1.2171 C   0  0  0  0  0  0  0  0  0  0  0  0
   -3.9850   -3.9415   -0.3143 H   0  0  0  0  0  0  0  0  0  0  0  0
   -3.1855   -4.2809   -2.6605 H   0  0  0  0  0  0  0  0  0  0  0  0
   -1.8955   -1.8501   -6.1106 H   0  0  0  0  0  0  0  0  0  0  0  0
   -1.3764   -0.8004   -4.7655 H   0  0  0  0  0  0  0  0  0  0  0  0
   -3.0642   -0.7343   -5.3551 H   0  0  0  0  0  0  0  0  0  0  0  0
   -2.8669   -0.0168   -3.1253 H   0  0  0  0  0  0  0  0  0  0  0  0
   -3.6424    0.3171   -0.8527 H   0  0  0  0  0  0  0  0  0  0  0  0
   -5.1872    0.2579    3.9334 S   0  0  2  0  0  0  0  0  0  0  0  0
   -6.6560   -0.5456    4.8109 C   0  0  0  0  0  0  0  0  0  0  0  0
   -4.4005    0.3177    1.2906 O   0  0  0  0  0  0  0  0  0  0  0  0
   -5.0357   -1.0886    2.9865 O   0  0  0  0  0  0  0  0  0  0  0  0
   -4.0962    0.3608    4.9337 O   0  0  0  0  0  0  0  0  0  0  0  0
   -7.0348    0.2896    5.7875 F   0  0  0  0  0  0  0  0  0  0  0  0
   -7.6615   -0.6767    3.9392 F   0  0  0  0  0  0  0  0  0  0  0  0
   -6.3551   -1.7272    5.3384 F   0  0  0  0  0  0  0  0  0  0  0  0
  1  2  1  0  0  0  0
  2  3  1  0  0  0  0
  3 21  1  0  0  0  0
  4  1  1  0  0  0  0
  4 11  1  0  0  0  0
  5  4  2  0  0  0  0
  6  9  2  0  0  0  0
  6  5  1  0  0  0  0
  7  6  1  0  0  0  0
  8 14  1  0  0  0  0
  8  7  1  0  0  0  0
  9 10  1  0  0  0  0
 10 17  1  0  0  0  0
 10  1  2  0  0  0  0
 12  5  1  0  0  0  0
 13  8  1  0  0  0  0
 15  8  1  0  0  0  0
 16  9  1  0  0  0  0
 18 21  1  6  0  0  0
 18 19  1  0  0  0  0
 18 22  1  0  0  0  0
 19 25  1  0  0  0  0
 19 23  1  0  0  0  0
 20  3  1  0  0  0  0
 24 19  1  0  0  0  0
M  RAD  3   2   2  20   2  22   2
M  END
