Coordinates from ORCA-job 4-MeOPhN2+~TfO-_B3LYPG-6-31G_dp-NX-Scan-d89-09-n800
 OpenBabel11261920223D

 25 24  0  0  0  0  0  0  0  0999 V2000
   -4.1515   -2.9875   -0.4851 C   0  0  0  0  0  0  0  0  0  0  0  0
   -4.7966   -3.5191    0.6044 N   0  0  0  0  0  0  0  0  0  0  0  0
   -5.3186   -3.7418    1.5727 N   0  0  0  0  0  0  0  0  0  0  0  0
   -3.5915   -3.8654   -1.4390 C   0  0  0  0  0  0  0  0  0  0  0  0
   -2.9419   -3.3201   -2.5218 C   0  0  0  0  0  0  0  0  0  0  0  0
   -2.8556   -1.9130   -2.6652 C   0  0  0  0  0  0  0  0  0  0  0  0
   -2.2047   -1.4934   -3.7572 O   0  0  0  0  0  0  0  0  0  0  0  0
   -2.0597   -0.0876   -3.9949 C   0  0  0  0  0  0  0  0  0  0  0  0
   -3.4338   -1.0605   -1.7048 C   0  0  0  0  0  0  0  0  0  0  0  0
   -4.0868   -1.5859   -0.6017 C   0  0  0  0  0  0  0  0  0  0  0  0
   -3.6694   -4.9397   -1.3108 H   0  0  0  0  0  0  0  0  0  0  0  0
   -2.4882   -3.9455   -3.2818 H   0  0  0  0  0  0  0  0  0  0  0  0
   -1.5007   -0.0068   -4.9264 H   0  0  0  0  0  0  0  0  0  0  0  0
   -1.4996    0.3909   -3.1849 H   0  0  0  0  0  0  0  0  0  0  0  0
   -3.0364    0.3935   -4.1074 H   0  0  0  0  0  0  0  0  0  0  0  0
   -3.3835    0.0164   -1.8062 H   0  0  0  0  0  0  0  0  0  0  0  0
   -4.5558   -0.9330    0.1413 H   0  0  0  0  0  0  0  0  0  0  0  0
   -5.8512   -0.5175    2.4581 S   0  0  0  0  0  0  0  0  0  0  0  0
   -5.4457    0.5299    3.9373 C   0  0  0  0  0  0  0  0  0  0  0  0
   -7.2742   -0.8561    2.5973 O   0  0  0  0  0  0  0  0  0  0  0  0
   -4.9055   -1.6770    2.6102 O   0  0  0  0  0  0  0  0  0  0  0  0
   -5.4865    0.3446    1.3014 O   0  0  0  0  0  0  0  0  0  0  0  0
   -6.1957    1.6408    3.9386 F   0  0  0  0  0  0  0  0  0  0  0  0
   -5.6809   -0.1458    5.0704 F   0  0  0  0  0  0  0  0  0  0  0  0
   -4.1530    0.8914    3.9198 F   0  0  0  0  0  0  0  0  0  0  0  0
  1  2  1  0  0  0  0
  2  3  1  0  0  0  0
  4 11  1  0  0  0  0
  4  1  2  0  0  0  0
  5  4  1  0  0  0  0
  6  5  2  0  0  0  0
  6  9  1  0  0  0  0
  7  6  1  0  0  0  0
  8  7  1  0  0  0  0
  8 14  1  0  0  0  0
  9 10  2  0  0  0  0
 10  1  1  0  0  0  0
 10 17  1  0  0  0  0
 12  5  1  0  0  0  0
 13  8  1  0  0  0  0
 15  8  1  0  0  0  0
 16  9  1  0  0  0  0
 18 20  2  0  0  0  0
 18 21  1  0  0  0  0
 18 19  1  0  0  0  0
 19 23  1  0  0  0  0
 19 24  1  0  0  0  0
 22 18  2  0  0  0  0
 25 19  1  0  0  0  0
M  RAD  3   2   2   3   3  21   2
M  END
