Coordinates from ORCA-job 4-MeOPhN2+~TfO-_B3LYPG-6-31G_dp-NX-Scan-d89-09-n800
 OpenBabel11261920223D

 25 24  0  0  0  0  0  0  0  0999 V2000
   -4.2321   -3.0173   -0.4352 C   0  0  0  0  0  0  0  0  0  0  0  0
   -4.9285   -3.6303    0.5734 N   0  0  0  0  0  0  0  0  0  0  0  0
   -5.4837   -4.1953    1.3602 N   0  0  0  0  0  0  0  0  0  0  0  0
   -3.4320   -3.8455   -1.2615 C   0  0  0  0  0  0  0  0  0  0  0  0
   -2.7349   -3.2588   -2.2895 C   0  0  0  0  0  0  0  0  0  0  0  0
   -2.8297   -1.8607   -2.5081 C   0  0  0  0  0  0  0  0  0  0  0  0
   -2.1101   -1.3988   -3.5359 O   0  0  0  0  0  0  0  0  0  0  0  0
   -2.1279    0.0035   -3.8361 C   0  0  0  0  0  0  0  0  0  0  0  0
   -3.6376   -1.0630   -1.6755 C   0  0  0  0  0  0  0  0  0  0  0  0
   -4.3458   -1.6283   -0.6282 C   0  0  0  0  0  0  0  0  0  0  0  0
   -3.3707   -4.9128   -1.0775 H   0  0  0  0  0  0  0  0  0  0  0  0
   -2.1039   -3.8444   -2.9481 H   0  0  0  0  0  0  0  0  0  0  0  0
   -1.4746    0.1234   -4.6992 H   0  0  0  0  0  0  0  0  0  0  0  0
   -1.7415    0.5877   -2.9949 H   0  0  0  0  0  0  0  0  0  0  0  0
   -3.1394    0.3363   -4.0895 H   0  0  0  0  0  0  0  0  0  0  0  0
   -3.7195    0.0062   -1.8250 H   0  0  0  0  0  0  0  0  0  0  0  0
   -4.9623   -1.0048    0.0251 H   0  0  0  0  0  0  0  0  0  0  0  0
   -6.0403   -0.4016    2.3210 S   0  0  0  0  0  0  0  0  0  0  0  0
   -5.0834    0.4270    3.6786 C   0  0  0  0  0  0  0  0  0  0  0  0
   -7.4362   -0.3775    2.7718 O   0  0  0  0  0  0  0  0  0  0  0  0
   -5.4136   -1.7601    2.2507 O   0  0  0  0  0  0  0  0  0  0  0  0
   -5.7135    0.4147    1.1188 O   0  0  0  0  0  0  0  0  0  0  0  0
   -5.4931    1.6929    3.8424 F   0  0  0  0  0  0  0  0  0  0  0  0
   -5.2437   -0.2262    4.8392 F   0  0  0  0  0  0  0  0  0  0  0  0
   -3.7692    0.4455    3.3874 F   0  0  0  0  0  0  0  0  0  0  0  0
  1  2  1  0  0  0  0
  2  3  1  0  0  0  0
  4 11  1  0  0  0  0
  4  1  2  0  0  0  0
  5  4  1  0  0  0  0
  6  5  2  0  0  0  0
  6  9  1  0  0  0  0
  7  6  1  0  0  0  0
  8  7  1  0  0  0  0
  8 14  1  0  0  0  0
  9 10  2  0  0  0  0
 10  1  1  0  0  0  0
 10 17  1  0  0  0  0
 12  5  1  0  0  0  0
 13  8  1  0  0  0  0
 15  8  1  0  0  0  0
 16  9  1  0  0  0  0
 18 20  1  0  0  0  0
 18 19  1  0  0  0  0
 19 23  1  0  0  0  0
 19 24  1  0  0  0  0
 21 18  2  0  0  0  0
 22 18  2  0  0  0  0
 25 19  1  0  0  0  0
M  RAD  3   2   2   3   3  20   2
M  END
