Coordinates from ORCA-job 4-MeOPhN2+~TfO-_B3LYPG-6-31G_dp-NX-Scan-d89-09-n800
 OpenBabel11261920223D

 25 24  0  0  0  0  0  0  0  0999 V2000
   -4.6876   -3.6505   -0.5483 C   0  0  0  0  0  0  0  0  0  0  0  0
   -5.4664   -4.5197    0.1290 N   0  0  0  0  0  0  0  0  0  0  0  0
   -6.1137   -5.2418    0.6953 N   0  0  0  0  0  0  0  0  0  0  0  0
   -3.4319   -4.0975   -1.0504 C   0  0  0  0  0  0  0  0  0  0  0  0
   -2.6240   -3.1785   -1.6633 C   0  0  0  0  0  0  0  0  0  0  0  0
   -3.0333   -1.8155   -1.7637 C   0  0  0  0  0  0  0  0  0  0  0  0
   -2.1390   -0.9983   -2.3101 O   0  0  0  0  0  0  0  0  0  0  0  0
   -2.4014    0.4206   -2.3231 C   0  0  0  0  0  0  0  0  0  0  0  0
   -4.2953   -1.4059   -1.2981 C   0  0  0  0  0  0  0  0  0  0  0  0
   -5.1268   -2.3111   -0.6729 C   0  0  0  0  0  0  0  0  0  0  0  0
   -3.1291   -5.1317   -0.9323 H   0  0  0  0  0  0  0  0  0  0  0  0
   -1.6508   -3.4546   -2.0515 H   0  0  0  0  0  0  0  0  0  0  0  0
   -1.4985    0.8732   -2.7300 H   0  0  0  0  0  0  0  0  0  0  0  0
   -2.5870    0.7785   -1.3080 H   0  0  0  0  0  0  0  0  0  0  0  0
   -3.2554    0.6472   -2.9679 H   0  0  0  0  0  0  0  0  0  0  0  0
   -4.6288   -0.3764   -1.3156 H   0  0  0  0  0  0  0  0  0  0  0  0
   -6.0650   -1.9780   -0.2525 H   0  0  0  0  0  0  0  0  0  0  0  0
   -5.7136    0.0056    1.7342 S   0  0  0  0  0  0  0  0  0  0  0  0
   -4.0144    0.7326    1.9634 C   0  0  0  0  0  0  0  0  0  0  0  0
   -6.5142    0.6415    2.7864 O   0  0  0  0  0  0  0  0  0  0  0  0
   -5.4648   -1.4585    1.8934 O   0  0  0  0  0  0  0  0  0  0  0  0
   -6.0400    0.3878    0.3323 O   0  0  0  0  0  0  0  0  0  0  0  0
   -4.0302    2.0654    1.8240 F   0  0  0  0  0  0  0  0  0  0  0  0
   -3.5073    0.4355    3.1657 F   0  0  0  0  0  0  0  0  0  0  0  0
   -3.1486    0.2420    1.0285 F   0  0  0  0  0  0  0  0  0  0  0  0
  1  2  1  0  0  0  0
  2  3  1  0  0  0  0
  4 11  1  0  0  0  0
  4  1  2  0  0  0  0
  5  4  1  0  0  0  0
  6  5  2  0  0  0  0
  6  9  1  0  0  0  0
  7  6  1  0  0  0  0
  8  7  1  0  0  0  0
  8 14  1  0  0  0  0
  9 10  2  0  0  0  0
 10  1  1  0  0  0  0
 10 17  1  0  0  0  0
 12  5  1  0  0  0  0
 13  8  1  0  0  0  0
 15  8  1  0  0  0  0
 16  9  1  0  0  0  0
 18 21  2  0  0  0  0
 18 19  1  0  0  0  0
 18 20  1  0  0  0  0
 19 24  1  0  0  0  0
 22 18  2  0  0  0  0
 23 19  1  0  0  0  0
 25 19  1  0  0  0  0
M  RAD  3   2   2   3   3  20   2
M  END
