Coordinates from ORCA-job 4-MeOPhN2+~TfO-_B3LYPG-6-31G_dp-NX-Scan-d89-09-n800
 OpenBabel11261920223D

 25 24  0  0  0  0  0  0  0  0999 V2000
   -4.2086   -2.9856   -0.3736 C   0  0  0  0  0  0  0  0  0  0  0  0
   -4.8844   -3.6056    0.6467 N   0  0  0  0  0  0  0  0  0  0  0  0
   -5.3858   -4.2348    1.4214 N   0  0  0  0  0  0  0  0  0  0  0  0
   -3.3554   -3.8039   -1.1574 C   0  0  0  0  0  0  0  0  0  0  0  0
   -2.6691   -3.2227   -2.1955 C   0  0  0  0  0  0  0  0  0  0  0  0
   -2.8232   -1.8389   -2.4660 C   0  0  0  0  0  0  0  0  0  0  0  0
   -2.1076   -1.3809   -3.4982 O   0  0  0  0  0  0  0  0  0  0  0  0
   -2.1843    0.0079   -3.8485 C   0  0  0  0  0  0  0  0  0  0  0  0
   -3.6797   -1.0508   -1.6744 C   0  0  0  0  0  0  0  0  0  0  0  0
   -4.3802   -1.6120   -0.6197 C   0  0  0  0  0  0  0  0  0  0  0  0
   -3.2478   -4.8598   -0.9341 H   0  0  0  0  0  0  0  0  0  0  0  0
   -2.0013   -3.8020   -2.8226 H   0  0  0  0  0  0  0  0  0  0  0  0
   -1.5232    0.1275   -4.7056 H   0  0  0  0  0  0  0  0  0  0  0  0
   -1.8388    0.6383   -3.0231 H   0  0  0  0  0  0  0  0  0  0  0  0
   -3.2057    0.2845   -4.1283 H   0  0  0  0  0  0  0  0  0  0  0  0
   -3.8060    0.0083   -1.8599 H   0  0  0  0  0  0  0  0  0  0  0  0
   -5.0305   -0.9952    0.0028 H   0  0  0  0  0  0  0  0  0  0  0  0
   -6.1317   -0.2874    2.2354 S   0  0  0  0  0  0  0  0  0  0  0  0
   -5.0121    0.2635    3.6106 C   0  0  0  0  0  0  0  0  0  0  0  0
   -7.4886   -0.0364    2.7316 O   0  0  0  0  0  0  0  0  0  0  0  0
   -5.7628   -1.7322    2.0716 O   0  0  0  0  0  0  0  0  0  0  0  0
   -5.6792    0.5251    1.0740 O   0  0  0  0  0  0  0  0  0  0  0  0
   -5.1706    1.5706    3.8596 F   0  0  0  0  0  0  0  0  0  0  0  0
   -5.2683   -0.4191    4.7367 F   0  0  0  0  0  0  0  0  0  0  0  0
   -3.7222    0.0529    3.2808 F   0  0  0  0  0  0  0  0  0  0  0  0
  1  2  1  0  0  0  0
  2  3  1  0  0  0  0
  4 11  1  0  0  0  0
  4  1  2  0  0  0  0
  5  4  1  0  0  0  0
  6  5  2  0  0  0  0
  6  9  1  0  0  0  0
  7  6  1  0  0  0  0
  8  7  1  0  0  0  0
  8 14  1  0  0  0  0
  9 10  2  0  0  0  0
 10  1  1  0  0  0  0
 10 17  1  0  0  0  0
 12  5  1  0  0  0  0
 13  8  1  0  0  0  0
 15  8  1  0  0  0  0
 16  9  1  0  0  0  0
 18 20  1  0  0  0  0
 18 19  1  0  0  0  0
 19 23  1  0  0  0  0
 19 24  1  0  0  0  0
 21 18  2  0  0  0  0
 22 18  2  0  0  0  0
 25 19  1  0  0  0  0
M  RAD  3   2   2   3   3  20   2
M  END
