Coordinates from ORCA-job 4-MeOPhN2+~TfO-_B3LYPG-6-31G_dp-NX-Scan-d89-09-n800
 OpenBabel11261920223D

 25 24  0  0  0  0  0  0  0  0999 V2000
   -4.4556   -4.0592   -0.5731 C   0  0  0  0  0  0  0  0  0  0  0  0
   -5.0829   -5.0854    0.0358 N   0  0  0  0  0  0  0  0  0  0  0  0
   -5.6118   -5.9370    0.5460 N   0  0  0  0  0  0  0  0  0  0  0  0
   -3.4171   -4.3498   -1.5062 C   0  0  0  0  0  0  0  0  0  0  0  0
   -2.7739   -3.2983   -2.1005 C   0  0  0  0  0  0  0  0  0  0  0  0
   -3.1442   -1.9579   -1.7810 C   0  0  0  0  0  0  0  0  0  0  0  0
   -2.4371   -1.0125   -2.3741 O   0  0  0  0  0  0  0  0  0  0  0  0
   -2.6937    0.3786   -2.0365 C   0  0  0  0  0  0  0  0  0  0  0  0
   -4.1965   -1.6916   -0.8753 C   0  0  0  0  0  0  0  0  0  0  0  0
   -4.8482   -2.7310   -0.2555 C   0  0  0  0  0  0  0  0  0  0  0  0
   -3.1483   -5.3771   -1.7250 H   0  0  0  0  0  0  0  0  0  0  0  0
   -1.9689   -3.4597   -2.8086 H   0  0  0  0  0  0  0  0  0  0  0  0
   -1.9535    0.9413   -2.6015 H   0  0  0  0  0  0  0  0  0  0  0  0
   -2.5744    0.5342   -0.9626 H   0  0  0  0  0  0  0  0  0  0  0  0
   -3.7068    0.6638   -2.3244 H   0  0  0  0  0  0  0  0  0  0  0  0
   -4.5131   -0.6714   -0.6421 H   0  0  0  0  0  0  0  0  0  0  0  0
   -5.6215   -2.4920    0.4723 H   0  0  0  0  0  0  0  0  0  0  0  0
   -5.6521    0.7962    1.2408 S   0  0  0  0  0  0  0  0  0  0  0  0
   -4.0736    1.0193    2.1986 C   0  0  0  0  0  0  0  0  0  0  0  0
   -6.5772    1.7792    1.8119 O   0  0  0  0  0  0  0  0  0  0  0  0
   -5.9745   -0.6376    1.4788 O   0  0  0  0  0  0  0  0  0  0  0  0
   -5.1883    1.0643   -0.1551 O   0  0  0  0  0  0  0  0  0  0  0  0
   -3.6390    2.2856    2.1395 F   0  0  0  0  0  0  0  0  0  0  0  0
   -4.2185    0.6804    3.4865 F   0  0  0  0  0  0  0  0  0  0  0  0
   -3.0962    0.2294    1.6753 F   0  0  0  0  0  0  0  0  0  0  0  0
  1 10  1  0  0  0  0
  1  2  1  0  0  0  0
  2  3  1  0  0  0  0
  4  1  2  0  0  0  0
  5  6  2  0  0  0  0
  5  4  1  0  0  0  0
  6  9  1  0  0  0  0
  7  8  1  0  0  0  0
  7  6  1  0  0  0  0
  8 14  1  0  0  0  0
  9 16  1  0  0  0  0
  9 10  2  0  0  0  0
 10 17  1  0  0  0  0
 11  4  1  0  0  0  0
 12  5  1  0  0  0  0
 13  8  1  0  0  0  0
 15  8  1  0  0  0  0
 18 21  2  0  0  0  0
 18 20  1  0  0  0  0
 18 19  1  0  0  0  0
 19 24  1  0  0  0  0
 22 18  2  0  0  0  0
 23 19  1  0  0  0  0
 25 19  1  0  0  0  0
M  RAD  3   2   2   3   3  20   2
M  END
