Coordinates from ORCA-job 4-MeOPhN2+~TfO-_B3LYPG-6-31G_dp-NX-Scan-d89-09-n800
 OpenBabel11261920223D

 25 25  0  0  0  0  0  0  0  0999 V2000
   -3.8846   -2.4999   -0.2147 C   0  0  0  0  0  0  0  0  0  0  0  0
   -4.2677   -2.9594    1.0570 N   0  0  0  0  0  0  0  0  0  0  0  0
   -4.5144   -2.3916    2.1070 N   0  0  0  0  0  0  0  0  0  0  0  0
   -3.7129   -3.5510   -1.1425 C   0  0  0  0  0  0  0  0  0  0  0  0
   -3.3305   -3.3011   -2.4453 C   0  0  0  0  0  0  0  0  0  0  0  0
   -3.1043   -1.9773   -2.8635 C   0  0  0  0  0  0  0  0  0  0  0  0
   -2.7320   -1.8257   -4.1547 O   0  0  0  0  0  0  0  0  0  0  0  0
   -2.4867   -0.5136   -4.6522 C   0  0  0  0  0  0  0  0  0  0  0  0
   -3.2700   -0.9213   -1.9525 C   0  0  0  0  0  0  0  0  0  0  0  0
   -3.6570   -1.1747   -0.6406 C   0  0  0  0  0  0  0  0  0  0  0  0
   -3.8907   -4.5649   -0.8006 H   0  0  0  0  0  0  0  0  0  0  0  0
   -3.1959   -4.1036   -3.1620 H   0  0  0  0  0  0  0  0  0  0  0  0
   -2.2024   -0.6408   -5.6969 H   0  0  0  0  0  0  0  0  0  0  0  0
   -1.6685   -0.0263   -4.1093 H   0  0  0  0  0  0  0  0  0  0  0  0
   -3.3864    0.1106   -4.5931 H   0  0  0  0  0  0  0  0  0  0  0  0
   -3.0989    0.1043   -2.2563 H   0  0  0  0  0  0  0  0  0  0  0  0
   -3.7761   -0.3469    0.0411 H   0  0  0  0  0  0  0  0  0  0  0  0
   -4.5926   -0.1754    3.4633 S   0  0  0  0  0  0  0  0  0  0  0  0
   -6.4556   -0.2311    3.6206 C   0  0  0  0  0  0  0  0  0  0  0  0
   -4.4079   -0.9376    2.0167 O   0  0  0  0  0  0  0  0  0  0  0  0
   -4.0364   -0.9592    4.5489 O   0  0  0  0  0  0  0  0  0  0  0  0
   -4.2219    1.2035    3.2002 O   0  0  0  0  0  0  0  0  0  0  0  0
   -7.0099    0.3555    2.5610 F   0  0  0  0  0  0  0  0  0  0  0  0
   -6.8718   -1.4910    3.7052 F   0  0  0  0  0  0  0  0  0  0  0  0
   -6.7921    0.4305    4.7273 F   0  0  0  0  0  0  0  0  0  0  0  0
  1  2  1  0  0  0  0
  2  3  1  0  0  0  0
  4 11  1  0  0  0  0
  4  1  2  0  0  0  0
  5  4  1  0  0  0  0
  6  5  2  0  0  0  0
  6  9  1  0  0  0  0
  7  6  1  0  0  0  0
  8 15  1  0  0  0  0
  8  7  1  0  0  0  0
  8 14  1  0  0  0  0
  9 10  2  0  0  0  0
 10  1  1  0  0  0  0
 10 17  1  0  0  0  0
 12  5  1  0  0  0  0
 13  8  1  0  0  0  0
 16  9  1  0  0  0  0
 18 19  1  0  0  0  0
 18 21  2  0  0  0  0
 19 24  1  0  0  0  0
 19 25  1  0  0  0  0
 20  3  1  0  0  0  0
 20 18  1  0  0  0  0
 22 18  2  0  0  0  0
 23 19  1  0  0  0  0
M  RAD  2   2   2   3   2
M  END
