Coordinates from ORCA-job 4-MeOPhN2+~TfO-_B3LYPG-6-31G_dp-NX-Scan-d89-09-n800
 OpenBabel11261920223D

 25 24  0  0  0  0  0  0  0  0999 V2000
   -4.4793   -3.0510   -0.2929 C   0  0  0  0  0  0  0  0  0  0  0  0
   -5.2534   -3.7583    0.5787 N   0  0  0  0  0  0  0  0  0  0  0  0
   -5.8207   -4.4489    1.2510 N   0  0  0  0  0  0  0  0  0  0  0  0
   -3.2250   -3.6087   -0.6550 C   0  0  0  0  0  0  0  0  0  0  0  0
   -2.4372   -2.9067   -1.5314 C   0  0  0  0  0  0  0  0  0  0  0  0
   -2.8744   -1.6560   -2.0444 C   0  0  0  0  0  0  0  0  0  0  0  0
   -2.0136   -1.0544   -2.8699 O   0  0  0  0  0  0  0  0  0  0  0  0
   -2.3347    0.2395   -3.4014 C   0  0  0  0  0  0  0  0  0  0  0  0
   -4.1247   -1.1284   -1.6743 C   0  0  0  0  0  0  0  0  0  0  0  0
   -4.9379   -1.8200   -0.7962 C   0  0  0  0  0  0  0  0  0  0  0  0
   -2.9025   -4.5565   -0.2398 H   0  0  0  0  0  0  0  0  0  0  0  0
   -1.4661   -3.2780   -1.8362 H   0  0  0  0  0  0  0  0  0  0  0  0
   -1.4830    0.5168   -4.0214 H   0  0  0  0  0  0  0  0  0  0  0  0
   -2.4628    0.9693   -2.5965 H   0  0  0  0  0  0  0  0  0  0  0  0
   -3.2403    0.1949   -4.0147 H   0  0  0  0  0  0  0  0  0  0  0  0
   -4.4595   -0.1587   -2.0167 H   0  0  0  0  0  0  0  0  0  0  0  0
   -5.8725   -1.3997   -0.4501 H   0  0  0  0  0  0  0  0  0  0  0  0
   -6.0343   -0.1365    1.9427 S   0  0  0  0  0  0  0  0  0  0  0  0
   -4.3763   -0.2009    2.7815 C   0  0  0  0  0  0  0  0  0  0  0  0
   -6.8865    0.6337    2.8568 O   0  0  0  0  0  0  0  0  0  0  0  0
   -6.3511   -1.5941    1.7975 O   0  0  0  0  0  0  0  0  0  0  0  0
   -5.7156    0.5067    0.6393 O   0  0  0  0  0  0  0  0  0  0  0  0
   -3.8406    1.0197    2.9132 F   0  0  0  0  0  0  0  0  0  0  0  0
   -4.4616   -0.7607    3.9969 F   0  0  0  0  0  0  0  0  0  0  0  0
   -3.5134   -0.9516    2.0474 F   0  0  0  0  0  0  0  0  0  0  0  0
  1  2  1  0  0  0  0
  2  3  1  0  0  0  0
  4  1  1  0  0  0  0
  4 11  1  0  0  0  0
  5  4  2  0  0  0  0
  6  9  2  0  0  0  0
  6  5  1  0  0  0  0
  7  6  1  0  0  0  0
  8  7  1  0  0  0  0
  8 14  1  0  0  0  0
  9 10  1  0  0  0  0
 10 17  1  0  0  0  0
 10  1  2  0  0  0  0
 12  5  1  0  0  0  0
 13  8  1  0  0  0  0
 15  8  1  0  0  0  0
 16  9  1  0  0  0  0
 18 19  1  0  0  0  0
 18 20  1  0  0  0  0
 19 23  1  0  0  0  0
 19 24  1  0  0  0  0
 21 18  2  0  0  0  0
 22 18  2  0  0  0  0
 25 19  1  0  0  0  0
M  RAD  3   2   2   3   3  20   2
M  END
