Coordinates from ORCA-job 4-MeOPhN2+~TfO-_B3LYPG-6-31G_dp-NX-Scan-d89-09-n800
 OpenBabel11261920223D

 25 24  0  0  0  0  0  0  0  0999 V2000
   -4.4559   -4.0561   -0.5729 C   0  0  0  0  0  0  0  0  0  0  0  0
   -5.0848   -5.0796    0.0389 N   0  0  0  0  0  0  0  0  0  0  0  0
   -5.6168   -5.9268    0.5530 N   0  0  0  0  0  0  0  0  0  0  0  0
   -3.4175   -4.3490   -1.5052 C   0  0  0  0  0  0  0  0  0  0  0  0
   -2.7733   -3.2987   -2.1008 C   0  0  0  0  0  0  0  0  0  0  0  0
   -3.1427   -1.9575   -1.7832 C   0  0  0  0  0  0  0  0  0  0  0  0
   -2.4346   -1.0131   -2.3769 O   0  0  0  0  0  0  0  0  0  0  0  0
   -2.6909    0.3782   -2.0405 C   0  0  0  0  0  0  0  0  0  0  0  0
   -4.1951   -1.6893   -0.8784 C   0  0  0  0  0  0  0  0  0  0  0  0
   -4.8477   -2.7274   -0.2574 C   0  0  0  0  0  0  0  0  0  0  0  0
   -3.1492   -5.3768   -1.7225 H   0  0  0  0  0  0  0  0  0  0  0  0
   -1.9682   -3.4616   -2.8083 H   0  0  0  0  0  0  0  0  0  0  0  0
   -1.9497    0.9403   -2.6048 H   0  0  0  0  0  0  0  0  0  0  0  0
   -2.5730    0.5345   -0.9666 H   0  0  0  0  0  0  0  0  0  0  0  0
   -3.7034    0.6638   -2.3302 H   0  0  0  0  0  0  0  0  0  0  0  0
   -4.5112   -0.6686   -0.6461 H   0  0  0  0  0  0  0  0  0  0  0  0
   -5.6206   -2.4866    0.4703 H   0  0  0  0  0  0  0  0  0  0  0  0
   -5.6537    0.7903    1.2439 S   0  0  0  0  0  0  0  0  0  0  0  0
   -4.0750    1.0173    2.2004 C   0  0  0  0  0  0  0  0  0  0  0  0
   -6.5817    1.7694    1.8168 O   0  0  0  0  0  0  0  0  0  0  0  0
   -5.9717   -0.6447    1.4813 O   0  0  0  0  0  0  0  0  0  0  0  0
   -5.1921    1.0612   -0.1521 O   0  0  0  0  0  0  0  0  0  0  0  0
   -3.6443    2.2849    2.1419 F   0  0  0  0  0  0  0  0  0  0  0  0
   -4.2177    0.6770    3.4882 F   0  0  0  0  0  0  0  0  0  0  0  0
   -3.0959    0.2307    1.6755 F   0  0  0  0  0  0  0  0  0  0  0  0
  1 10  1  0  0  0  0
  1  2  1  0  0  0  0
  2  3  1  0  0  0  0
  4  1  2  0  0  0  0
  5  6  2  0  0  0  0
  5  4  1  0  0  0  0
  6  9  1  0  0  0  0
  7  8  1  0  0  0  0
  7  6  1  0  0  0  0
  8 14  1  0  0  0  0
  9 16  1  0  0  0  0
  9 10  2  0  0  0  0
 10 17  1  0  0  0  0
 11  4  1  0  0  0  0
 12  5  1  0  0  0  0
 13  8  1  0  0  0  0
 15  8  1  0  0  0  0
 18 21  2  0  0  0  0
 18 20  1  0  0  0  0
 18 19  1  0  0  0  0
 19 24  1  0  0  0  0
 22 18  2  0  0  0  0
 23 19  1  0  0  0  0
 25 19  1  0  0  0  0
M  RAD  3   2   2   3   3  20   2
M  END
