Coordinates from ORCA-job 4-MeOPhN2+~TfO-_B3LYPG-6-31G_dp-NX-Scan-d89-09-n800
 OpenBabel11261920223D

 25 24  0  0  0  0  0  0  0  0999 V2000
   -4.0476   -4.2046   -0.2962 C   0  0  0  0  0  0  0  0  0  0  0  0
   -4.4193   -5.4626    0.0099 N   0  0  0  0  0  0  0  0  0  0  0  0
   -4.7202   -6.5211    0.2514 N   0  0  0  0  0  0  0  0  0  0  0  0
   -4.9485   -3.3518   -1.0045 C   0  0  0  0  0  0  0  0  0  0  0  0
   -4.5284   -2.0945   -1.3421 C   0  0  0  0  0  0  0  0  0  0  0  0
   -3.2270   -1.6562   -0.9648 C   0  0  0  0  0  0  0  0  0  0  0  0
   -2.9081   -0.4448   -1.3631 O   0  0  0  0  0  0  0  0  0  0  0  0
   -1.7744    0.2494   -0.8193 C   0  0  0  0  0  0  0  0  0  0  0  0
   -2.3569   -2.5007   -0.2184 C   0  0  0  0  0  0  0  0  0  0  0  0
   -2.7553   -3.7732    0.1073 C   0  0  0  0  0  0  0  0  0  0  0  0
   -5.9513   -3.6887   -1.2402 H   0  0  0  0  0  0  0  0  0  0  0  0
   -5.1851   -1.3492   -1.7989 H   0  0  0  0  0  0  0  0  0  0  0  0
   -1.8561    1.2621   -1.2079 H   0  0  0  0  0  0  0  0  0  0  0  0
   -0.8385   -0.2095   -1.1535 H   0  0  0  0  0  0  0  0  0  0  0  0
   -1.8427    0.2697    0.2704 H   0  0  0  0  0  0  0  0  0  0  0  0
   -1.3788   -2.1530    0.0874 H   0  0  0  0  0  0  0  0  0  0  0  0
   -2.1044   -4.4448    0.6563 H   0  0  0  0  0  0  0  0  0  0  0  0
   -6.4845    0.7211   -0.3027 S   0  0  0  0  0  0  0  0  0  0  0  0
   -5.0718    1.1920    0.8302 C   0  0  0  0  0  0  0  0  0  0  0  0
   -7.3755    1.8871   -0.2170 O   0  0  0  0  0  0  0  0  0  0  0  0
   -6.9562   -0.5476    0.2981 O   0  0  0  0  0  0  0  0  0  0  0  0
   -5.7906    0.5372   -1.6106 O   0  0  0  0  0  0  0  0  0  0  0  0
   -4.2788    2.1394    0.2899 F   0  0  0  0  0  0  0  0  0  0  0  0
   -5.5046    1.6395    2.0148 F   0  0  0  0  0  0  0  0  0  0  0  0
   -4.2623    0.1166    1.0875 F   0  0  0  0  0  0  0  0  0  0  0  0
  1  2  1  0  0  0  0
  1 10  2  0  0  0  0
  2  3  1  0  0  0  0
  4  1  1  0  0  0  0
  5  4  2  0  0  0  0
  5  6  1  0  0  0  0
  6  9  2  0  0  0  0
  7  6  1  0  0  0  0
  7  8  1  0  0  0  0
  8 15  1  0  0  0  0
  9 16  1  0  0  0  0
  9 10  1  0  0  0  0
 10 17  1  0  0  0  0
 11  4  1  0  0  0  0
 12  5  1  0  0  0  0
 13  8  1  0  0  0  0
 14  8  1  0  0  0  0
 18 20  2  0  0  0  0
 18 21  1  0  0  0  0
 18 19  1  0  0  0  0
 19 25  1  0  0  0  0
 19 24  1  0  0  0  0
 22 18  2  0  0  0  0
 23 19  1  0  0  0  0
M  RAD  3   2   2   3   3  21   2
M  END
