Coordinates from ORCA-job 4-MeOPhN2+~TfO-_B3LYPG-6-31G_dp-NX-Scan-d89-09-n800
 OpenBabel11261920223D

 25 24  0  0  0  0  0  0  0  0999 V2000
   -4.1104   -4.1078   -0.2591 C   0  0  0  0  0  0  0  0  0  0  0  0
   -4.5299   -5.3332    0.1109 N   0  0  0  0  0  0  0  0  0  0  0  0
   -4.8666   -6.3674    0.4043 N   0  0  0  0  0  0  0  0  0  0  0  0
   -4.9524   -3.2853   -1.0663 C   0  0  0  0  0  0  0  0  0  0  0  0
   -4.4795   -2.0665   -1.4688 C   0  0  0  0  0  0  0  0  0  0  0  0
   -3.1937   -1.6279   -1.0486 C   0  0  0  0  0  0  0  0  0  0  0  0
   -2.8282   -0.4468   -1.4999 O   0  0  0  0  0  0  0  0  0  0  0  0
   -1.7200    0.2616   -0.9223 C   0  0  0  0  0  0  0  0  0  0  0  0
   -2.3837   -2.4402   -0.2054 C   0  0  0  0  0  0  0  0  0  0  0  0
   -2.8291   -3.6791    0.1814 C   0  0  0  0  0  0  0  0  0  0  0  0
   -5.9542   -3.6086   -1.3224 H   0  0  0  0  0  0  0  0  0  0  0  0
   -5.1015   -1.3418   -1.9933 H   0  0  0  0  0  0  0  0  0  0  0  0
   -1.7177    1.2297   -1.4184 H   0  0  0  0  0  0  0  0  0  0  0  0
   -0.7760   -0.2588   -1.1148 H   0  0  0  0  0  0  0  0  0  0  0  0
   -1.8915    0.3955    0.1477 H   0  0  0  0  0  0  0  0  0  0  0  0
   -1.4167   -2.0919    0.1325 H   0  0  0  0  0  0  0  0  0  0  0  0
   -2.2247   -4.3257    0.8080 H   0  0  0  0  0  0  0  0  0  0  0  0
   -6.4449    0.6007   -0.2665 S   0  0  0  0  0  0  0  0  0  0  0  0
   -5.0766    1.0676    0.9185 C   0  0  0  0  0  0  0  0  0  0  0  0
   -7.4125    1.6946   -0.0992 O   0  0  0  0  0  0  0  0  0  0  0  0
   -6.8425   -0.7404    0.2255 O   0  0  0  0  0  0  0  0  0  0  0  0
   -5.7263    0.5675   -1.5717 O   0  0  0  0  0  0  0  0  0  0  0  0
   -4.3716    2.1296    0.4871 F   0  0  0  0  0  0  0  0  0  0  0  0
   -5.5412    1.3439    2.1427 F   0  0  0  0  0  0  0  0  0  0  0  0
   -4.1753    0.0426    1.0623 F   0  0  0  0  0  0  0  0  0  0  0  0
  1  2  1  0  0  0  0
  1 10  2  0  0  0  0
  2  3  1  0  0  0  0
  4  1  1  0  0  0  0
  5  4  2  0  0  0  0
  5  6  1  0  0  0  0
  6  9  2  0  0  0  0
  7  6  1  0  0  0  0
  7  8  1  0  0  0  0
  8 15  1  0  0  0  0
  9 16  1  0  0  0  0
  9 10  1  0  0  0  0
 10 17  1  0  0  0  0
 11  4  1  0  0  0  0
 12  5  1  0  0  0  0
 13  8  1  0  0  0  0
 14  8  1  0  0  0  0
 18 20  2  0  0  0  0
 18 21  1  0  0  0  0
 18 19  1  0  0  0  0
 19 25  1  0  0  0  0
 19 24  1  0  0  0  0
 22 18  2  0  0  0  0
 23 19  1  0  0  0  0
M  RAD  3   2   2   3   3  21   2
M  END
