Coordinates from ORCA-job 4-MeOPhN2+~TfO-_B3LYPG-6-31G_dp-NX-Scan-d89-09-n800
 OpenBabel11261920223D

 25 24  0  0  0  0  0  0  0  0999 V2000
   -4.2260   -3.0147   -0.4217 C   0  0  0  0  0  0  0  0  0  0  0  0
   -4.9174   -3.6323    0.5881 N   0  0  0  0  0  0  0  0  0  0  0  0
   -5.4595   -4.2171    1.3696 N   0  0  0  0  0  0  0  0  0  0  0  0
   -3.4138   -3.8392   -1.2403 C   0  0  0  0  0  0  0  0  0  0  0  0
   -2.7197   -3.2515   -2.2698 C   0  0  0  0  0  0  0  0  0  0  0  0
   -2.8287   -1.8558   -2.4974 C   0  0  0  0  0  0  0  0  0  0  0  0
   -2.1107   -1.3925   -3.5256 O   0  0  0  0  0  0  0  0  0  0  0  0
   -2.1430    0.0077   -3.8347 C   0  0  0  0  0  0  0  0  0  0  0  0
   -3.6476   -1.0618   -1.6722 C   0  0  0  0  0  0  0  0  0  0  0  0
   -4.3536   -1.6285   -0.6241 C   0  0  0  0  0  0  0  0  0  0  0  0
   -3.3415   -4.9046   -1.0496 H   0  0  0  0  0  0  0  0  0  0  0  0
   -2.0804   -3.8345   -2.9226 H   0  0  0  0  0  0  0  0  0  0  0  0
   -1.4885    0.1293   -4.6967 H   0  0  0  0  0  0  0  0  0  0  0  0
   -1.7655    0.6014   -2.9962 H   0  0  0  0  0  0  0  0  0  0  0  0
   -3.1574    0.3277   -4.0931 H   0  0  0  0  0  0  0  0  0  0  0  0
   -3.7402    0.0056   -1.8276 H   0  0  0  0  0  0  0  0  0  0  0  0
   -4.9775   -1.0074    0.0234 H   0  0  0  0  0  0  0  0  0  0  0  0
   -6.0627   -0.3744    2.2990 S   0  0  0  0  0  0  0  0  0  0  0  0
   -5.0641    0.3954    3.6615 C   0  0  0  0  0  0  0  0  0  0  0  0
   -7.4537   -0.2939    2.7577 O   0  0  0  0  0  0  0  0  0  0  0  0
   -5.4954   -1.7581    2.2109 O   0  0  0  0  0  0  0  0  0  0  0  0
   -5.7049    0.4398    1.1046 O   0  0  0  0  0  0  0  0  0  0  0  0
   -5.4107    1.6783    3.8365 F   0  0  0  0  0  0  0  0  0  0  0  0
   -5.2538   -0.2589    4.8172 F   0  0  0  0  0  0  0  0  0  0  0  0
   -3.7507    0.3516    3.3676 F   0  0  0  0  0  0  0  0  0  0  0  0
  1  2  1  0  0  0  0
  2  3  1  0  0  0  0
  4 11  1  0  0  0  0
  4  1  2  0  0  0  0
  5  4  1  0  0  0  0
  6  5  2  0  0  0  0
  6  9  1  0  0  0  0
  7  6  1  0  0  0  0
  8  7  1  0  0  0  0
  8 14  1  0  0  0  0
  9 10  2  0  0  0  0
 10  1  1  0  0  0  0
 10 17  1  0  0  0  0
 12  5  1  0  0  0  0
 13  8  1  0  0  0  0
 15  8  1  0  0  0  0
 16  9  1  0  0  0  0
 18 20  1  0  0  0  0
 18 19  1  0  0  0  0
 19 23  1  0  0  0  0
 19 24  1  0  0  0  0
 21 18  2  0  0  0  0
 22 18  2  0  0  0  0
 25 19  1  0  0  0  0
M  RAD  3   2   2   3   3  20   2
M  END
