Coordinates from ORCA-job 4-MeOPhN2+~TfO-_B3LYPG-6-31G_dp-NX-Scan-d89-09-n800
 OpenBabel11261920223D

 25 24  0  0  0  0  0  0  0  0999 V2000
   -4.7158   -3.5516   -0.5242 C   0  0  0  0  0  0  0  0  0  0  0  0
   -5.5047   -4.3618    0.2129 N   0  0  0  0  0  0  0  0  0  0  0  0
   -6.1614   -5.0297    0.8304 N   0  0  0  0  0  0  0  0  0  0  0  0
   -3.4445   -4.0244   -0.9527 C   0  0  0  0  0  0  0  0  0  0  0  0
   -2.6152   -3.1414   -1.5912 C   0  0  0  0  0  0  0  0  0  0  0  0
   -3.0176   -1.7869   -1.7811 C   0  0  0  0  0  0  0  0  0  0  0  0
   -2.0984   -0.9989   -2.3323 O   0  0  0  0  0  0  0  0  0  0  0  0
   -2.3472    0.4187   -2.4106 C   0  0  0  0  0  0  0  0  0  0  0  0
   -4.2972   -1.3547   -1.3902 C   0  0  0  0  0  0  0  0  0  0  0  0
   -5.1510   -2.2249   -0.7453 C   0  0  0  0  0  0  0  0  0  0  0  0
   -3.1436   -5.0475   -0.7585 H   0  0  0  0  0  0  0  0  0  0  0  0
   -1.6283   -3.4373   -1.9264 H   0  0  0  0  0  0  0  0  0  0  0  0
   -1.4238    0.8499   -2.7944 H   0  0  0  0  0  0  0  0  0  0  0  0
   -2.5720    0.8171   -1.4184 H   0  0  0  0  0  0  0  0  0  0  0  0
   -3.1699    0.6286   -3.1007 H   0  0  0  0  0  0  0  0  0  0  0  0
   -4.6220   -0.3274   -1.4826 H   0  0  0  0  0  0  0  0  0  0  0  0
   -6.1054   -1.8687   -0.3846 H   0  0  0  0  0  0  0  0  0  0  0  0
   -5.7137   -0.1592    1.7909 S   0  0  0  0  0  0  0  0  0  0  0  0
   -4.0405    0.6417    1.9574 C   0  0  0  0  0  0  0  0  0  0  0  0
   -6.4742    0.3763    2.9252 O   0  0  0  0  0  0  0  0  0  0  0  0
   -5.3856   -1.6159    1.8530 O   0  0  0  0  0  0  0  0  0  0  0  0
   -6.1463    0.2770    0.4347 O   0  0  0  0  0  0  0  0  0  0  0  0
   -4.1317    1.9770    1.8978 F   0  0  0  0  0  0  0  0  0  0  0  0
   -3.4452    0.3063    3.1087 F   0  0  0  0  0  0  0  0  0  0  0  0
   -3.2115    0.2496    0.9466 F   0  0  0  0  0  0  0  0  0  0  0  0
  1  2  1  0  0  0  0
  2  3  1  0  0  0  0
  4 11  1  0  0  0  0
  4  1  2  0  0  0  0
  5  4  1  0  0  0  0
  6  5  2  0  0  0  0
  6  9  1  0  0  0  0
  7  6  1  0  0  0  0
  8  7  1  0  0  0  0
  8 14  1  0  0  0  0
  9 10  2  0  0  0  0
 10  1  1  0  0  0  0
 10 17  1  0  0  0  0
 12  5  1  0  0  0  0
 13  8  1  0  0  0  0
 15  8  1  0  0  0  0
 16  9  1  0  0  0  0
 18 21  2  0  0  0  0
 18 19  1  0  0  0  0
 18 20  1  0  0  0  0
 19 24  1  0  0  0  0
 22 18  2  0  0  0  0
 23 19  1  0  0  0  0
 25 19  1  0  0  0  0
M  RAD  3   2   2   3   3  20   2
M  END
