Coordinates from ORCA-job 4-MeOPhN2+~TfO-_B3LYPG-6-31G_dp-NX-Scan-d89-09-n800
 OpenBabel11261920223D

 25 24  0  0  0  0  0  0  0  0999 V2000
   -4.2434   -3.0273   -0.4760 C   0  0  0  0  0  0  0  0  0  0  0  0
   -4.9455   -3.6199    0.5395 N   0  0  0  0  0  0  0  0  0  0  0  0
   -5.5279   -4.0785    1.3749 N   0  0  0  0  0  0  0  0  0  0  0  0
   -3.4806   -3.8636   -1.3265 C   0  0  0  0  0  0  0  0  0  0  0  0
   -2.7772   -3.2779   -2.3512 C   0  0  0  0  0  0  0  0  0  0  0  0
   -2.8311   -1.8735   -2.5406 C   0  0  0  0  0  0  0  0  0  0  0  0
   -2.1093   -1.4133   -3.5678 O   0  0  0  0  0  0  0  0  0  0  0  0
   -2.0861   -0.0056   -3.8401 C   0  0  0  0  0  0  0  0  0  0  0  0
   -3.6052   -1.0674   -1.6838 C   0  0  0  0  0  0  0  0  0  0  0  0
   -4.3189   -1.6310   -0.6392 C   0  0  0  0  0  0  0  0  0  0  0  0
   -3.4503   -4.9356   -1.1632 H   0  0  0  0  0  0  0  0  0  0  0  0
   -2.1721   -3.8687   -3.0291 H   0  0  0  0  0  0  0  0  0  0  0  0
   -1.4380    0.1112   -4.7076 H   0  0  0  0  0  0  0  0  0  0  0  0
   -1.6733    0.5495   -2.9917 H   0  0  0  0  0  0  0  0  0  0  0  0
   -3.0892    0.3636   -4.0764 H   0  0  0  0  0  0  0  0  0  0  0  0
   -3.6570    0.0062   -1.8150 H   0  0  0  0  0  0  0  0  0  0  0  0
   -4.9167   -1.0031    0.0309 H   0  0  0  0  0  0  0  0  0  0  0  0
   -5.9890   -0.4801    2.3890 S   0  0  0  0  0  0  0  0  0  0  0  0
   -5.1417    0.5019    3.7168 C   0  0  0  0  0  0  0  0  0  0  0  0
   -7.3864   -0.5856    2.8259 O   0  0  0  0  0  0  0  0  0  0  0  0
   -5.2206   -1.7646    2.3792 O   0  0  0  0  0  0  0  0  0  0  0  0
   -5.7400    0.3197    1.1560 O   0  0  0  0  0  0  0  0  0  0  0  0
   -5.6925    1.7192    3.8291 F   0  0  0  0  0  0  0  0  0  0  0  0
   -5.2384   -0.1203    4.9010 F   0  0  0  0  0  0  0  0  0  0  0  0
   -3.8362    0.6563    3.4301 F   0  0  0  0  0  0  0  0  0  0  0  0
  1  2  1  0  0  0  0
  2  3  1  0  0  0  0
  4 11  1  0  0  0  0
  4  1  2  0  0  0  0
  5  4  1  0  0  0  0
  6  5  2  0  0  0  0
  6  9  1  0  0  0  0
  7  6  1  0  0  0  0
  8  7  1  0  0  0  0
  8 14  1  0  0  0  0
  9 10  2  0  0  0  0
 10  1  1  0  0  0  0
 10 17  1  0  0  0  0
 12  5  1  0  0  0  0
 13  8  1  0  0  0  0
 15  8  1  0  0  0  0
 16  9  1  0  0  0  0
 18 20  1  0  0  0  0
 18 19  1  0  0  0  0
 19 23  1  0  0  0  0
 19 24  1  0  0  0  0
 21 18  2  0  0  0  0
 22 18  2  0  0  0  0
 25 19  1  0  0  0  0
M  RAD  3   2   2   3   3  20   2
M  END
