Coordinates from ORCA-job 4-MeOPhN2+~TfO-_B3LYPG-6-31G_dp-NX-Scan-d89-09-n800
 OpenBabel11261920223D

 25 24  0  0  0  0  0  0  0  0999 V2000
   -4.4467   -2.6106   -0.4514 C   0  0  0  0  0  0  0  0  0  0  0  0
   -5.2161   -2.9255    0.6485 N   0  0  0  0  0  0  0  0  0  0  0  0
   -5.8887   -2.7291    1.5414 N   0  0  0  0  0  0  0  0  0  0  0  0
   -3.7076   -3.6312   -1.0779 C   0  0  0  0  0  0  0  0  0  0  0  0
   -2.9292   -3.3097   -2.1688 C   0  0  0  0  0  0  0  0  0  0  0  0
   -2.8868   -1.9786   -2.6416 C   0  0  0  0  0  0  0  0  0  0  0  0
   -2.0932   -1.7744   -3.7046 O   0  0  0  0  0  0  0  0  0  0  0  0
   -1.9581   -0.4530   -4.2369 C   0  0  0  0  0  0  0  0  0  0  0  0
   -3.6450   -0.9725   -2.0102 C   0  0  0  0  0  0  0  0  0  0  0  0
   -4.4251   -1.2807   -0.9085 C   0  0  0  0  0  0  0  0  0  0  0  0
   -3.7485   -4.6451   -0.6956 H   0  0  0  0  0  0  0  0  0  0  0  0
   -2.3360   -4.0588   -2.6801 H   0  0  0  0  0  0  0  0  0  0  0  0
   -1.2612   -0.5435   -5.0695 H   0  0  0  0  0  0  0  0  0  0  0  0
   -1.5489    0.2329   -3.4872 H   0  0  0  0  0  0  0  0  0  0  0  0
   -2.9186   -0.0750   -4.6028 H   0  0  0  0  0  0  0  0  0  0  0  0
   -3.6222    0.0493   -2.3659 H   0  0  0  0  0  0  0  0  0  0  0  0
   -5.0199   -0.5343   -0.3960 H   0  0  0  0  0  0  0  0  0  0  0  0
   -5.0557    0.0006    2.4294 S   0  0  0  0  0  0  0  0  0  0  0  0
   -5.6141   -0.2435    4.1837 C   0  0  0  0  0  0  0  0  0  0  0  0
   -6.1941   -0.6422    1.6414 O   0  0  0  0  0  0  0  0  0  0  0  0
   -3.8110   -0.7827    2.3150 O   0  0  0  0  0  0  0  0  0  0  0  0
   -4.9866    1.4514    2.2324 O   0  0  0  0  0  0  0  0  0  0  0  0
   -6.7738    0.3855    4.4041 F   0  0  0  0  0  0  0  0  0  0  0  0
   -5.7839   -1.5532    4.4338 F   0  0  0  0  0  0  0  0  0  0  0  0
   -4.6958    0.2355    5.0316 F   0  0  0  0  0  0  0  0  0  0  0  0
  1  2  1  0  0  0  0
  2  3  1  0  0  0  0
  4 11  1  0  0  0  0
  4  1  2  0  0  0  0
  5  4  1  0  0  0  0
  6  5  2  0  0  0  0
  6  9  1  0  0  0  0
  7  6  1  0  0  0  0
  8  7  1  0  0  0  0
  8 14  1  0  0  0  0
  9 10  2  0  0  0  0
 10  1  1  0  0  0  0
 10 17  1  0  0  0  0
 12  5  1  0  0  0  0
 13  8  1  0  0  0  0
 15  8  1  0  0  0  0
 16  9  1  0  0  0  0
 18 19  1  0  0  0  0
 19 23  1  0  0  0  0
 19 24  1  0  0  0  0
 19 25  1  0  0  0  0
 20 18  2  0  0  0  0
 21 18  1  0  0  0  0
 22 18  2  0  0  0  0
M  RAD  3   2   2   3   3  21   2
M  END
