Coordinates from ORCA-job 4-MeOPhN2+~TfO-_B3LYPG-6-31G_dp-NX-Scan-d89-09-n800
 OpenBabel11261920223D

 25 25  0  0  0  0  0  0  0  0999 V2000
   -3.9699   -2.5671   -0.3514 C   0  0  0  0  0  0  0  0  0  0  0  0
   -4.4317   -2.9282    0.9107 N   0  0  0  0  0  0  0  0  0  0  0  0
   -4.7872   -2.5256    1.9443 N   0  0  0  0  0  0  0  0  0  0  0  0
   -3.6515   -3.6261   -1.2241 C   0  0  0  0  0  0  0  0  0  0  0  0
   -3.1791   -3.3510   -2.4908 C   0  0  0  0  0  0  0  0  0  0  0  0
   -3.0182   -2.0129   -2.9055 C   0  0  0  0  0  0  0  0  0  0  0  0
   -2.5518   -1.8482   -4.1578 O   0  0  0  0  0  0  0  0  0  0  0  0
   -2.3537   -0.5261   -4.6604 C   0  0  0  0  0  0  0  0  0  0  0  0
   -3.3397   -0.9584   -2.0306 C   0  0  0  0  0  0  0  0  0  0  0  0
   -3.8158   -1.2276   -0.7550 C   0  0  0  0  0  0  0  0  0  0  0  0
   -3.7808   -4.6485   -0.8857 H   0  0  0  0  0  0  0  0  0  0  0  0
   -2.9234   -4.1431   -3.1851 H   0  0  0  0  0  0  0  0  0  0  0  0
   -1.9741   -0.6511   -5.6741 H   0  0  0  0  0  0  0  0  0  0  0  0
   -1.6191    0.0208   -4.0592 H   0  0  0  0  0  0  0  0  0  0  0  0
   -3.2960    0.0322   -4.6891 H   0  0  0  0  0  0  0  0  0  0  0  0
   -3.2213    0.0734   -2.3373 H   0  0  0  0  0  0  0  0  0  0  0  0
   -4.0673   -0.4298   -0.0687 H   0  0  0  0  0  0  0  0  0  0  0  0
   -4.6462   -0.0929    3.3584 S   0  0  0  0  0  0  0  0  0  0  0  0
   -6.4111   -0.1427    3.9444 C   0  0  0  0  0  0  0  0  0  0  0  0
   -4.7979   -0.7346    1.9339 O   0  0  0  0  0  0  0  0  0  0  0  0
   -3.8959   -0.9534    4.2673 O   0  0  0  0  0  0  0  0  0  0  0  0
   -4.3070    1.3189    3.2068 O   0  0  0  0  0  0  0  0  0  0  0  0
   -7.1926    0.5694    3.1264 F   0  0  0  0  0  0  0  0  0  0  0  0
   -6.8508   -1.4068    3.9719 F   0  0  0  0  0  0  0  0  0  0  0  0
   -6.4846    0.3712    5.1750 F   0  0  0  0  0  0  0  0  0  0  0  0
  1  2  1  0  0  0  0
  2  3  1  0  0  0  0
  4 11  1  0  0  0  0
  4  1  2  0  0  0  0
  5  4  1  0  0  0  0
  6  5  2  0  0  0  0
  6  9  1  0  0  0  0
  7  6  1  0  0  0  0
  8  7  1  0  0  0  0
  8 14  1  0  0  0  0
  9 10  2  0  0  0  0
 10  1  1  0  0  0  0
 10 17  1  0  0  0  0
 12  5  1  0  0  0  0
 13  8  1  0  0  0  0
 15  8  1  0  0  0  0
 16  9  1  0  0  0  0
 18 19  1  0  0  0  0
 18 21  2  0  0  0  0
 19 24  1  0  0  0  0
 19 25  1  0  0  0  0
 20  3  1  0  0  0  0
 20 18  1  0  0  0  0
 22 18  2  0  0  0  0
 23 19  1  0  0  0  0
M  RAD  2   2   2   3   2
M  END
