Coordinates from ORCA-job 4-MeOPhN2+~TfO-_B3LYPG-6-31G_dp-NX-Scan-d89-09-n800
 OpenBabel11261920223D

 25 24  0  0  0  0  0  0  0  0999 V2000
   -4.1470   -2.9778   -0.4830 C   0  0  0  0  0  0  0  0  0  0  0  0
   -4.7880   -3.5028    0.6127 N   0  0  0  0  0  0  0  0  0  0  0  0
   -5.3022   -3.7100    1.5892 N   0  0  0  0  0  0  0  0  0  0  0  0
   -3.6036   -3.8610   -1.4412 C   0  0  0  0  0  0  0  0  0  0  0  0
   -2.9579   -3.3223   -2.5298 C   0  0  0  0  0  0  0  0  0  0  0  0
   -2.8595   -1.9163   -2.6747 C   0  0  0  0  0  0  0  0  0  0  0  0
   -2.2140   -1.5032   -3.7726 O   0  0  0  0  0  0  0  0  0  0  0  0
   -2.0582   -0.0990   -4.0123 C   0  0  0  0  0  0  0  0  0  0  0  0
   -3.4217   -1.0579   -1.7100 C   0  0  0  0  0  0  0  0  0  0  0  0
   -4.0701   -1.5770   -0.6012 C   0  0  0  0  0  0  0  0  0  0  0  0
   -3.6908   -4.9344   -1.3120 H   0  0  0  0  0  0  0  0  0  0  0  0
   -2.5166   -3.9523   -3.2933 H   0  0  0  0  0  0  0  0  0  0  0  0
   -1.5058   -0.0237   -4.9482 H   0  0  0  0  0  0  0  0  0  0  0  0
   -1.4877    0.3750   -3.2070 H   0  0  0  0  0  0  0  0  0  0  0  0
   -3.0314    0.3908   -4.1176 H   0  0  0  0  0  0  0  0  0  0  0  0
   -3.3625    0.0184   -1.8127 H   0  0  0  0  0  0  0  0  0  0  0  0
   -4.5277   -0.9205    0.1451 H   0  0  0  0  0  0  0  0  0  0  0  0
   -5.8243   -0.5153    2.4593 S   0  0  0  0  0  0  0  0  0  0  0  0
   -5.4769    0.5228    3.9597 C   0  0  0  0  0  0  0  0  0  0  0  0
   -7.2437   -0.8834    2.5579 O   0  0  0  0  0  0  0  0  0  0  0  0
   -4.8623   -1.6605    2.6235 O   0  0  0  0  0  0  0  0  0  0  0  0
   -5.4464    0.3646    1.3211 O   0  0  0  0  0  0  0  0  0  0  0  0
   -6.2501    1.6176    3.9541 F   0  0  0  0  0  0  0  0  0  0  0  0
   -5.7262   -0.1710    5.0787 F   0  0  0  0  0  0  0  0  0  0  0  0
   -4.1923    0.9109    3.9785 F   0  0  0  0  0  0  0  0  0  0  0  0
  1  2  1  0  0  0  0
  2  3  1  0  0  0  0
  4 11  1  0  0  0  0
  4  1  2  0  0  0  0
  5  4  1  0  0  0  0
  6  5  2  0  0  0  0
  6  9  1  0  0  0  0
  7  6  1  0  0  0  0
  8  7  1  0  0  0  0
  8 14  1  0  0  0  0
  9 10  2  0  0  0  0
 10  1  1  0  0  0  0
 10 17  1  0  0  0  0
 12  5  1  0  0  0  0
 13  8  1  0  0  0  0
 15  8  1  0  0  0  0
 16  9  1  0  0  0  0
 18 20  2  0  0  0  0
 18 21  1  0  0  0  0
 18 19  1  0  0  0  0
 19 25  1  0  0  0  0
 19 24  1  0  0  0  0
 22 18  2  0  0  0  0
 23 19  1  0  0  0  0
M  RAD  3   2   2   3   3  21   2
M  END
