Coordinates from ORCA-job 4-MeOPhN2+~TfO-_B3LYPG-6-31G_dp-NX-Scan-d89-09-n800
 OpenBabel11261920223D

 25 24  0  0  0  0  0  0  0  0999 V2000
   -3.9101   -2.8188   -0.2499 C   0  0  0  0  0  0  0  0  0  0  0  0
   -4.3544   -3.2540    0.9754 N   0  0  0  0  0  0  0  0  0  0  0  0
   -4.6599   -3.3170    2.0556 N   0  0  0  0  0  0  0  0  0  0  0  0
   -4.0034   -3.6839   -1.3585 C   0  0  0  0  0  0  0  0  0  0  0  0
   -3.5756   -3.2269   -2.5851 C   0  0  0  0  0  0  0  0  0  0  0  0
   -3.0607   -1.9158   -2.7150 C   0  0  0  0  0  0  0  0  0  0  0  0
   -2.6835   -1.5714   -3.9540 O   0  0  0  0  0  0  0  0  0  0  0  0
   -2.1798   -0.2523   -4.1956 C   0  0  0  0  0  0  0  0  0  0  0  0
   -2.9706   -1.0698   -1.5917 C   0  0  0  0  0  0  0  0  0  0  0  0
   -3.3947   -1.5129   -0.3506 C   0  0  0  0  0  0  0  0  0  0  0  0
   -4.4115   -4.6812   -1.2410 H   0  0  0  0  0  0  0  0  0  0  0  0
   -3.6312   -3.8502   -3.4699 H   0  0  0  0  0  0  0  0  0  0  0  0
   -1.9638   -0.2146   -5.2626 H   0  0  0  0  0  0  0  0  0  0  0  0
   -1.2605   -0.0731   -3.6290 H   0  0  0  0  0  0  0  0  0  0  0  0
   -2.9286    0.5055   -3.9431 H   0  0  0  0  0  0  0  0  0  0  0  0
   -2.5841   -0.0628   -1.6771 H   0  0  0  0  0  0  0  0  0  0  0  0
   -3.3457   -0.8755    0.5257 H   0  0  0  0  0  0  0  0  0  0  0  0
   -5.2844   -0.3262    2.3040 S   0  0  0  0  0  0  0  0  0  0  0  0
   -6.1153    0.1993    3.8783 C   0  0  0  0  0  0  0  0  0  0  0  0
   -6.3025   -1.1113    1.5718 O   0  0  0  0  0  0  0  0  0  0  0  0
   -4.1434   -1.1892    2.7863 O   0  0  0  0  0  0  0  0  0  0  0  0
   -4.8265    0.9231    1.6708 O   0  0  0  0  0  0  0  0  0  0  0  0
   -7.1812    0.9647    3.6066 F   0  0  0  0  0  0  0  0  0  0  0  0
   -6.5262   -0.8745    4.5693 F   0  0  0  0  0  0  0  0  0  0  0  0
   -5.2692    0.9004    4.6438 F   0  0  0  0  0  0  0  0  0  0  0  0
  1  2  1  0  0  0  0
  2  3  1  0  0  0  0
  4 11  1  0  0  0  0
  4  1  2  0  0  0  0
  5  4  1  0  0  0  0
  6  5  2  0  0  0  0
  6  9  1  0  0  0  0
  7  6  1  0  0  0  0
  8  7  1  0  0  0  0
  8 15  1  0  0  0  0
  8 14  1  0  0  0  0
  9 10  2  0  0  0  0
 10  1  1  0  0  0  0
 10 17  1  0  0  0  0
 12  5  1  0  0  0  0
 13  8  1  0  0  0  0
 16  9  1  0  0  0  0
 18 21  1  0  0  0  0
 18 19  1  0  0  0  0
 19 24  1  0  0  0  0
 19 25  1  0  0  0  0
 20 18  2  0  0  0  0
 22 18  2  0  0  0  0
 23 19  1  0  0  0  0
M  RAD  3   2   2   3   3  21   2
M  END
