Coordinates from ORCA-job 4-MeOPhN2+~TfO-_B3LYPG-6-31G_dp-NX-Scan-d89-09-n800
 OpenBabel11261920223D

 25 24  0  0  0  0  0  0  0  0999 V2000
   -4.4553   -4.0764   -0.5758 C   0  0  0  0  0  0  0  0  0  0  0  0
   -5.0744   -5.1178    0.0158 N   0  0  0  0  0  0  0  0  0  0  0  0
   -5.5866   -5.9932    0.5028 N   0  0  0  0  0  0  0  0  0  0  0  0
   -3.4142   -4.3542   -1.5104 C   0  0  0  0  0  0  0  0  0  0  0  0
   -2.7749   -3.2961   -2.0964 C   0  0  0  0  0  0  0  0  0  0  0  0
   -3.1518   -1.9599   -1.7681 C   0  0  0  0  0  0  0  0  0  0  0  0
   -2.4493   -1.0091   -2.3564 O   0  0  0  0  0  0  0  0  0  0  0  0
   -2.7083    0.3808   -2.0136 C   0  0  0  0  0  0  0  0  0  0  0  0
   -4.2060   -1.7049   -0.8600 C   0  0  0  0  0  0  0  0  0  0  0  0
   -4.8538   -2.7516   -0.2482 C   0  0  0  0  0  0  0  0  0  0  0  0
   -3.1410   -5.3787   -1.7368 H   0  0  0  0  0  0  0  0  0  0  0  0
   -1.9688   -3.4488   -2.8051 H   0  0  0  0  0  0  0  0  0  0  0  0
   -1.9724    0.9465   -2.5812 H   0  0  0  0  0  0  0  0  0  0  0  0
   -2.5838    0.5329   -0.9400 H   0  0  0  0  0  0  0  0  0  0  0  0
   -3.7238    0.6638   -2.2941 H   0  0  0  0  0  0  0  0  0  0  0  0
   -4.5260   -0.6867   -0.6230 H   0  0  0  0  0  0  0  0  0  0  0  0
   -5.6312   -2.5224    0.4779 H   0  0  0  0  0  0  0  0  0  0  0  0
   -5.6444    0.8269    1.2280 S   0  0  0  0  0  0  0  0  0  0  0  0
   -4.0639    1.0324    2.1867 C   0  0  0  0  0  0  0  0  0  0  0  0
   -6.5517    1.8318    1.7907 O   0  0  0  0  0  0  0  0  0  0  0  0
   -5.9890   -0.6002    1.4741 O   0  0  0  0  0  0  0  0  0  0  0  0
   -5.1746    1.0769   -0.1694 O   0  0  0  0  0  0  0  0  0  0  0  0
   -3.6097    2.2914    2.1201 F   0  0  0  0  0  0  0  0  0  0  0  0
   -4.2152    0.7040    3.4766 F   0  0  0  0  0  0  0  0  0  0  0  0
   -3.0970    0.2243    1.6702 F   0  0  0  0  0  0  0  0  0  0  0  0
  1 10  1  0  0  0  0
  1  2  1  0  0  0  0
  2  3  1  0  0  0  0
  4  1  2  0  0  0  0
  5  6  2  0  0  0  0
  5  4  1  0  0  0  0
  6  9  1  0  0  0  0
  7  8  1  0  0  0  0
  7  6  1  0  0  0  0
  8 14  1  0  0  0  0
  9 16  1  0  0  0  0
  9 10  2  0  0  0  0
 10 17  1  0  0  0  0
 11  4  1  0  0  0  0
 12  5  1  0  0  0  0
 13  8  1  0  0  0  0
 15  8  1  0  0  0  0
 18 21  2  0  0  0  0
 18 20  1  0  0  0  0
 18 19  1  0  0  0  0
 19 24  1  0  0  0  0
 22 18  2  0  0  0  0
 23 19  1  0  0  0  0
 25 19  1  0  0  0  0
M  RAD  3   2   2   3   3  20   2
M  END
