Coordinates from ORCA-job 4-MeOPhN2+~TfO-_B3LYPG-6-31G_dp-NX-Scan-d89-09-n800
 OpenBabel11261920223D

 25 24  0  0  0  0  0  0  0  0999 V2000
   -4.5161   -3.9252   -0.5800 C   0  0  0  0  0  0  0  0  0  0  0  0
   -5.2003   -4.8754    0.0903 N   0  0  0  0  0  0  0  0  0  0  0  0
   -5.7945   -5.6329    0.6698 N   0  0  0  0  0  0  0  0  0  0  0  0
   -3.4092   -4.2935   -1.3979 C   0  0  0  0  0  0  0  0  0  0  0  0
   -2.7102   -3.2896   -2.0135 C   0  0  0  0  0  0  0  0  0  0  0  0
   -3.0870   -1.9267   -1.8189 C   0  0  0  0  0  0  0  0  0  0  0  0
   -2.3058   -1.0275   -2.4003 O   0  0  0  0  0  0  0  0  0  0  0  0
   -2.5655    0.3781   -2.1618 C   0  0  0  0  0  0  0  0  0  0  0  0
   -4.2111   -1.5902   -1.0384 C   0  0  0  0  0  0  0  0  0  0  0  0
   -4.9251   -2.5800   -0.4027 C   0  0  0  0  0  0  0  0  0  0  0  0
   -3.1294   -5.3347   -1.5126 H   0  0  0  0  0  0  0  0  0  0  0  0
   -1.8484   -3.5051   -2.6348 H   0  0  0  0  0  0  0  0  0  0  0  0
   -1.7484    0.9024   -2.6540 H   0  0  0  0  0  0  0  0  0  0  0  0
   -2.5744    0.5875   -1.0898 H   0  0  0  0  0  0  0  0  0  0  0  0
   -3.5235    0.6683   -2.5998 H   0  0  0  0  0  0  0  0  0  0  0  0
   -4.5382   -0.5630   -0.8634 H   0  0  0  0  0  0  0  0  0  0  0  0
   -5.7309   -2.2898    0.2714 H   0  0  0  0  0  0  0  0  0  0  0  0
   -5.7409    0.5382    1.4505 S   0  0  0  0  0  0  0  0  0  0  0  0
   -4.0689    0.9383    2.1599 C   0  0  0  0  0  0  0  0  0  0  0  0
   -6.6751    1.4017    2.1770 O   0  0  0  0  0  0  0  0  0  0  0  0
   -5.8621   -0.9231    1.7232 O   0  0  0  0  0  0  0  0  0  0  0  0
   -5.5353    0.8575    0.0071 O   0  0  0  0  0  0  0  0  0  0  0  0
   -3.7940    2.2455    2.0549 F   0  0  0  0  0  0  0  0  0  0  0  0
   -3.9730    0.5864    3.4483 F   0  0  0  0  0  0  0  0  0  0  0  0
   -3.0995    0.2644    1.4798 F   0  0  0  0  0  0  0  0  0  0  0  0
  1 10  1  0  0  0  0
  1  2  1  0  0  0  0
  2  3  1  0  0  0  0
  4  1  2  0  0  0  0
  5  6  2  0  0  0  0
  5  4  1  0  0  0  0
  6  9  1  0  0  0  0
  7  8  1  0  0  0  0
  7  6  1  0  0  0  0
  8 14  1  0  0  0  0
  9 16  1  0  0  0  0
  9 10  2  0  0  0  0
 10 17  1  0  0  0  0
 11  4  1  0  0  0  0
 12  5  1  0  0  0  0
 13  8  1  0  0  0  0
 15  8  1  0  0  0  0
 18 21  2  0  0  0  0
 18 19  1  0  0  0  0
 18 20  1  0  0  0  0
 19 24  1  0  0  0  0
 22 18  2  0  0  0  0
 23 19  1  0  0  0  0
 25 19  1  0  0  0  0
M  RAD  3   2   2   3   3  20   2
M  END
