Coordinates from ORCA-job 4-MeOPhN2+~TfO-_B3LYPG-6-31G_dp-NX-Scan-d89-09-n800
 OpenBabel11261920223D

 25 24  0  0  0  0  0  0  0  0999 V2000
   -4.2264   -3.0146   -0.4249 C   0  0  0  0  0  0  0  0  0  0  0  0
   -4.9212   -3.6307    0.5834 N   0  0  0  0  0  0  0  0  0  0  0  0
   -5.4686   -4.2104    1.3650 N   0  0  0  0  0  0  0  0  0  0  0  0
   -3.4180   -3.8406   -1.2456 C   0  0  0  0  0  0  0  0  0  0  0  0
   -2.7233   -3.2536   -2.2751 C   0  0  0  0  0  0  0  0  0  0  0  0
   -2.8285   -1.8573   -2.5010 C   0  0  0  0  0  0  0  0  0  0  0  0
   -2.1105   -1.3950   -3.5297 O   0  0  0  0  0  0  0  0  0  0  0  0
   -2.1391    0.0056   -3.8372 C   0  0  0  0  0  0  0  0  0  0  0  0
   -3.6440   -1.0618   -1.6738 C   0  0  0  0  0  0  0  0  0  0  0  0
   -4.3499   -1.6277   -0.6253 C   0  0  0  0  0  0  0  0  0  0  0  0
   -3.3491   -4.9065   -1.0566 H   0  0  0  0  0  0  0  0  0  0  0  0
   -2.0866   -3.8376   -2.9296 H   0  0  0  0  0  0  0  0  0  0  0  0
   -1.4854    0.1262   -4.7000 H   0  0  0  0  0  0  0  0  0  0  0  0
   -1.7588    0.5972   -2.9985 H   0  0  0  0  0  0  0  0  0  0  0  0
   -3.1529    0.3288   -4.0939 H   0  0  0  0  0  0  0  0  0  0  0  0
   -3.7337    0.0060   -1.8282 H   0  0  0  0  0  0  0  0  0  0  0  0
   -4.9716   -1.0059    0.0241 H   0  0  0  0  0  0  0  0  0  0  0  0
   -6.0563   -0.3813    2.3058 S   0  0  0  0  0  0  0  0  0  0  0  0
   -5.0707    0.4038    3.6688 C   0  0  0  0  0  0  0  0  0  0  0  0
   -7.4493   -0.3185    2.7609 O   0  0  0  0  0  0  0  0  0  0  0  0
   -5.4716   -1.7579    2.2215 O   0  0  0  0  0  0  0  0  0  0  0  0
   -5.7063    0.4351    1.1105 O   0  0  0  0  0  0  0  0  0  0  0  0
   -5.4353    1.6821    3.8416 F   0  0  0  0  0  0  0  0  0  0  0  0
   -5.2533   -0.2515    4.8250 F   0  0  0  0  0  0  0  0  0  0  0  0
   -3.7564    0.3779    3.3772 F   0  0  0  0  0  0  0  0  0  0  0  0
  1  2  1  0  0  0  0
  2  3  1  0  0  0  0
  4 11  1  0  0  0  0
  4  1  2  0  0  0  0
  5  4  1  0  0  0  0
  6  5  2  0  0  0  0
  6  9  1  0  0  0  0
  7  6  1  0  0  0  0
  8  7  1  0  0  0  0
  8 14  1  0  0  0  0
  9 10  2  0  0  0  0
 10  1  1  0  0  0  0
 10 17  1  0  0  0  0
 12  5  1  0  0  0  0
 13  8  1  0  0  0  0
 15  8  1  0  0  0  0
 16  9  1  0  0  0  0
 18 20  1  0  0  0  0
 18 19  1  0  0  0  0
 19 23  1  0  0  0  0
 19 24  1  0  0  0  0
 21 18  2  0  0  0  0
 22 18  2  0  0  0  0
 25 19  1  0  0  0  0
M  RAD  3   2   2   3   3  20   2
M  END
