Coordinates from ORCA-job 4-MeOPhN2+~TfO-_B3LYPG-6-31G_dp-NX-Scan-d89-09-n800
 OpenBabel11261920223D

 25 25  0  0  0  0  0  0  0  0999 V2000
   -3.9968   -2.4021   -0.2424 C   0  0  0  0  0  0  0  0  0  0  0  0
   -4.4541   -2.8628    1.0211 N   0  0  0  0  0  0  0  0  0  0  0  0
   -4.6334   -2.1398    2.0362 N   0  0  0  0  0  0  0  0  0  0  0  0
   -3.8891   -3.4614   -1.1714 C   0  0  0  0  0  0  0  0  0  0  0  0
   -3.4566   -3.2537   -2.4669 C   0  0  0  0  0  0  0  0  0  0  0  0
   -3.1109   -1.9584   -2.8879 C   0  0  0  0  0  0  0  0  0  0  0  0
   -2.6950   -1.8464   -4.1760 O   0  0  0  0  0  0  0  0  0  0  0  0
   -2.3255   -0.5627   -4.6621 C   0  0  0  0  0  0  0  0  0  0  0  0
   -3.2116   -0.8912   -1.9859 C   0  0  0  0  0  0  0  0  0  0  0  0
   -3.6490   -1.1069   -0.6788 C   0  0  0  0  0  0  0  0  0  0  0  0
   -4.1595   -4.4551   -0.8302 H   0  0  0  0  0  0  0  0  0  0  0  0
   -3.3742   -4.0711   -3.1754 H   0  0  0  0  0  0  0  0  0  0  0  0
   -2.0210   -0.7114   -5.6986 H   0  0  0  0  0  0  0  0  0  0  0  0
   -1.4859   -0.1438   -4.0943 H   0  0  0  0  0  0  0  0  0  0  0  0
   -3.1692    0.1382   -4.6293 H   0  0  0  0  0  0  0  0  0  0  0  0
   -2.9515    0.1165   -2.2873 H   0  0  0  0  0  0  0  0  0  0  0  0
   -3.7112   -0.2550   -0.0189 H   0  0  0  0  0  0  0  0  0  0  0  0
   -4.6089   -0.0905    3.4413 S   0  0  0  0  0  0  0  0  0  0  0  0
   -6.4323   -0.4651    3.7962 C   0  0  0  0  0  0  0  0  0  0  0  0
   -4.4186   -0.9630    1.9362 O   0  0  0  0  0  0  0  0  0  0  0  0
   -3.8009   -0.7158    4.4679 O   0  0  0  0  0  0  0  0  0  0  0  0
   -4.4905    1.2914    3.0236 O   0  0  0  0  0  0  0  0  0  0  0  0
   -7.1086   -0.4564    2.6546 F   0  0  0  0  0  0  0  0  0  0  0  0
   -6.5473   -1.6327    4.4016 F   0  0  0  0  0  0  0  0  0  0  0  0
   -6.8652    0.5106    4.5910 F   0  0  0  0  0  0  0  0  0  0  0  0
  1  2  1  0  0  0  0
  2  3  2  0  0  0  0
  4 11  1  0  0  0  0
  4  1  2  0  0  0  0
  5  4  1  0  0  0  0
  6  5  2  0  0  0  0
  6  9  1  0  0  0  0
  7  6  1  0  0  0  0
  8 15  1  0  0  0  0
  8  7  1  0  0  0  0
  8 14  1  0  0  0  0
  9 10  2  0  0  0  0
 10  1  1  0  0  0  0
 10 17  1  0  0  0  0
 12  5  1  0  0  0  0
 13  8  1  0  0  0  0
 16  9  1  0  0  0  0
 18 19  1  0  0  0  0
 18 21  2  0  0  0  0
 19 24  1  0  0  0  0
 19 25  1  0  0  0  0
 20  3  1  0  0  0  0
 20 18  1  0  0  0  0
 22 18  2  0  0  0  0
 23 19  1  0  0  0  0
M  END
