Coordinates from ORCA-job 4-MeOPhN2+~TfO-_B3LYPG-6-31G_dp-NX-Scan-d89-09-n800
 OpenBabel11261920223D

 25 24  0  0  0  0  0  0  0  0999 V2000
   -4.7148   -3.5234   -0.5164 C   0  0  0  0  0  0  0  0  0  0  0  0
   -5.5021   -4.3165    0.2421 N   0  0  0  0  0  0  0  0  0  0  0  0
   -6.1542   -4.9706    0.8779 N   0  0  0  0  0  0  0  0  0  0  0  0
   -3.4465   -4.0072   -0.9391 C   0  0  0  0  0  0  0  0  0  0  0  0
   -2.6139   -3.1364   -1.5909 C   0  0  0  0  0  0  0  0  0  0  0  0
   -3.0105   -1.7832   -1.7976 C   0  0  0  0  0  0  0  0  0  0  0  0
   -2.0872   -1.0040   -2.3549 O   0  0  0  0  0  0  0  0  0  0  0  0
   -2.3274    0.4144   -2.4399 C   0  0  0  0  0  0  0  0  0  0  0  0
   -4.2897   -1.3420   -1.4141 C   0  0  0  0  0  0  0  0  0  0  0  0
   -5.1468   -2.2002   -0.7585 C   0  0  0  0  0  0  0  0  0  0  0  0
   -3.1485   -5.0281   -0.7293 H   0  0  0  0  0  0  0  0  0  0  0  0
   -1.6280   -3.4406   -1.9217 H   0  0  0  0  0  0  0  0  0  0  0  0
   -1.3999    0.8393   -2.8207 H   0  0  0  0  0  0  0  0  0  0  0  0
   -2.5545    0.8181   -1.4501 H   0  0  0  0  0  0  0  0  0  0  0  0
   -3.1456    0.6270   -3.1346 H   0  0  0  0  0  0  0  0  0  0  0  0
   -4.6100   -0.3150   -1.5237 H   0  0  0  0  0  0  0  0  0  0  0  0
   -6.0990   -1.8341   -0.4006 H   0  0  0  0  0  0  0  0  0  0  0  0
   -5.7298   -0.1935    1.8131 S   0  0  0  0  0  0  0  0  0  0  0  0
   -4.0588    0.6152    1.9665 C   0  0  0  0  0  0  0  0  0  0  0  0
   -6.4807    0.3327    2.9580 O   0  0  0  0  0  0  0  0  0  0  0  0
   -5.3941   -1.6488    1.8637 O   0  0  0  0  0  0  0  0  0  0  0  0
   -6.1784    0.2476    0.4636 O   0  0  0  0  0  0  0  0  0  0  0  0
   -4.1587    1.9505    1.9212 F   0  0  0  0  0  0  0  0  0  0  0  0
   -3.4481    0.2724    3.1076 F   0  0  0  0  0  0  0  0  0  0  0  0
   -3.2397    0.2380    0.9424 F   0  0  0  0  0  0  0  0  0  0  0  0
  1  2  1  0  0  0  0
  2  3  1  0  0  0  0
  4 11  1  0  0  0  0
  4  1  2  0  0  0  0
  5  4  1  0  0  0  0
  6  5  2  0  0  0  0
  6  9  1  0  0  0  0
  7  6  1  0  0  0  0
  8  7  1  0  0  0  0
  8 14  1  0  0  0  0
  9 10  2  0  0  0  0
 10  1  1  0  0  0  0
 10 17  1  0  0  0  0
 12  5  1  0  0  0  0
 13  8  1  0  0  0  0
 15  8  1  0  0  0  0
 16  9  1  0  0  0  0
 18 21  2  0  0  0  0
 18 19  1  0  0  0  0
 18 20  1  0  0  0  0
 19 24  1  0  0  0  0
 22 18  2  0  0  0  0
 23 19  1  0  0  0  0
 25 19  1  0  0  0  0
M  RAD  3   2   2   3   3  20   2
M  END
