Coordinates from ORCA-job 4-MeOPhN2+~TfO-_B3LYPG-6-31G_dp-NX-Scan-d89-09-n800
 OpenBabel11261920223D

 25 25  0  0  0  0  0  0  0  0999 V2000
   -3.9365   -2.5526   -0.3156 C   0  0  0  0  0  0  0  0  0  0  0  0
   -4.3686   -2.9338    0.9537 N   0  0  0  0  0  0  0  0  0  0  0  0
   -4.6874   -2.4987    1.9966 N   0  0  0  0  0  0  0  0  0  0  0  0
   -3.6559   -3.6108   -1.2031 C   0  0  0  0  0  0  0  0  0  0  0  0
   -3.2127   -3.3415   -2.4817 C   0  0  0  0  0  0  0  0  0  0  0  0
   -3.0428   -2.0059   -2.8983 C   0  0  0  0  0  0  0  0  0  0  0  0
   -2.6061   -1.8441   -4.1629 O   0  0  0  0  0  0  0  0  0  0  0  0
   -2.4044   -0.5237   -4.6663 C   0  0  0  0  0  0  0  0  0  0  0  0
   -3.3261   -0.9502   -2.0126 C   0  0  0  0  0  0  0  0  0  0  0  0
   -3.7721   -1.2157   -0.7248 C   0  0  0  0  0  0  0  0  0  0  0  0
   -3.7919   -4.6318   -0.8631 H   0  0  0  0  0  0  0  0  0  0  0  0
   -2.9871   -4.1365   -3.1834 H   0  0  0  0  0  0  0  0  0  0  0  0
   -2.0519   -0.6496   -5.6897 H   0  0  0  0  0  0  0  0  0  0  0  0
   -1.6483    0.0129   -4.0825 H   0  0  0  0  0  0  0  0  0  0  0  0
   -3.3399    0.0469   -4.6698 H   0  0  0  0  0  0  0  0  0  0  0  0
   -3.2010    0.0807   -2.3199 H   0  0  0  0  0  0  0  0  0  0  0  0
   -3.9915   -0.4112   -0.0367 H   0  0  0  0  0  0  0  0  0  0  0  0
   -4.6209   -0.1228    3.4148 S   0  0  0  0  0  0  0  0  0  0  0  0
   -6.4331   -0.1505    3.8399 C   0  0  0  0  0  0  0  0  0  0  0  0
   -4.6549   -0.7781    1.9755 O   0  0  0  0  0  0  0  0  0  0  0  0
   -3.9599   -0.9832    4.3874 O   0  0  0  0  0  0  0  0  0  0  0  0
   -4.2545    1.2806    3.2649 O   0  0  0  0  0  0  0  0  0  0  0  0
   -7.1269    0.5645    2.9497 F   0  0  0  0  0  0  0  0  0  0  0  0
   -6.8867   -1.4084    3.8368 F   0  0  0  0  0  0  0  0  0  0  0  0
   -6.6057    0.3750    5.0550 F   0  0  0  0  0  0  0  0  0  0  0  0
  1  2  1  0  0  0  0
  2  3  1  0  0  0  0
  4 11  1  0  0  0  0
  4  1  2  0  0  0  0
  5  4  1  0  0  0  0
  6  5  2  0  0  0  0
  6  9  1  0  0  0  0
  7  6  1  0  0  0  0
  8  7  1  0  0  0  0
  8 14  1  0  0  0  0
  9 10  2  0  0  0  0
 10  1  1  0  0  0  0
 10 17  1  0  0  0  0
 12  5  1  0  0  0  0
 13  8  1  0  0  0  0
 15  8  1  0  0  0  0
 16  9  1  0  0  0  0
 18 19  1  0  0  0  0
 18 21  2  0  0  0  0
 19 25  1  0  0  0  0
 20  3  1  0  0  0  0
 20 18  1  0  0  0  0
 22 18  2  0  0  0  0
 23 19  1  0  0  0  0
 24 19  1  0  0  0  0
M  RAD  2   2   2   3   2
M  END
