Coordinates from ORCA-job 4-MeOPhN2+~TfO-_B3LYPG-6-31G_dp-NX-Scan-d89-09-n800
 OpenBabel11261920223D

 25 24  0  0  0  0  0  0  0  0999 V2000
   -4.6711   -3.6787   -0.5561 C   0  0  0  0  0  0  0  0  0  0  0  0
   -5.4429   -4.5570    0.1182 N   0  0  0  0  0  0  0  0  0  0  0  0
   -6.0859   -5.2842    0.6831 N   0  0  0  0  0  0  0  0  0  0  0  0
   -3.4309   -4.1235   -1.0974 C   0  0  0  0  0  0  0  0  0  0  0  0
   -2.6316   -3.1967   -1.7099 C   0  0  0  0  0  0  0  0  0  0  0  0
   -3.0342   -1.8294   -1.7731 C   0  0  0  0  0  0  0  0  0  0  0  0
   -2.1484   -1.0062   -2.3236 O   0  0  0  0  0  0  0  0  0  0  0  0
   -2.4059    0.4140   -2.3052 C   0  0  0  0  0  0  0  0  0  0  0  0
   -4.2819   -1.4213   -1.2687 C   0  0  0  0  0  0  0  0  0  0  0  0
   -5.1048   -2.3343   -0.6438 C   0  0  0  0  0  0  0  0  0  0  0  0
   -3.1325   -5.1620   -1.0087 H   0  0  0  0  0  0  0  0  0  0  0  0
   -1.6698   -3.4710   -2.1269 H   0  0  0  0  0  0  0  0  0  0  0  0
   -1.5100    0.8708   -2.7228 H   0  0  0  0  0  0  0  0  0  0  0  0
   -2.5697    0.7542   -1.2803 H   0  0  0  0  0  0  0  0  0  0  0  0
   -3.2727    0.6545   -2.9274 H   0  0  0  0  0  0  0  0  0  0  0  0
   -4.6132   -0.3903   -1.2585 H   0  0  0  0  0  0  0  0  0  0  0  0
   -6.0284   -2.0033   -0.1894 H   0  0  0  0  0  0  0  0  0  0  0  0
   -5.7281    0.0556    1.7234 S   0  0  0  0  0  0  0  0  0  0  0  0
   -4.0253    0.7651    1.9794 C   0  0  0  0  0  0  0  0  0  0  0  0
   -6.5471    0.7231    2.7413 O   0  0  0  0  0  0  0  0  0  0  0  0
   -5.5036   -1.4075    1.9180 O   0  0  0  0  0  0  0  0  0  0  0  0
   -6.0135    0.4145    0.3061 O   0  0  0  0  0  0  0  0  0  0  0  0
   -4.0214    2.0958    1.8200 F   0  0  0  0  0  0  0  0  0  0  0  0
   -3.5474    0.4798    3.1964 F   0  0  0  0  0  0  0  0  0  0  0  0
   -3.1466    0.2498    1.0701 F   0  0  0  0  0  0  0  0  0  0  0  0
  1  2  1  0  0  0  0
  2  3  1  0  0  0  0
  4 11  1  0  0  0  0
  4  1  2  0  0  0  0
  5  4  1  0  0  0  0
  6  5  2  0  0  0  0
  6  9  1  0  0  0  0
  7  8  1  0  0  0  0
  7  6  1  0  0  0  0
  8 14  1  0  0  0  0
  9 16  1  0  0  0  0
  9 10  2  0  0  0  0
 10  1  1  0  0  0  0
 10 17  1  0  0  0  0
 12  5  1  0  0  0  0
 13  8  1  0  0  0  0
 15  8  1  0  0  0  0
 18 21  2  0  0  0  0
 18 19  1  0  0  0  0
 18 20  1  0  0  0  0
 19 24  1  0  0  0  0
 22 18  2  0  0  0  0
 23 19  1  0  0  0  0
 25 19  1  0  0  0  0
M  RAD  3   2   2   3   3  20   2
M  END
