Coordinates from ORCA-job 4-MeOPhN2+~TfO-_B3LYPG-6-31G_dp-NX-Scan-d89-09-n800
 OpenBabel11261920223D

 25 24  0  0  0  0  0  0  0  0999 V2000
   -4.6974   -3.6288   -0.5420 C   0  0  0  0  0  0  0  0  0  0  0  0
   -5.4802   -4.4870    0.1445 N   0  0  0  0  0  0  0  0  0  0  0  0
   -6.1312   -5.1993    0.7185 N   0  0  0  0  0  0  0  0  0  0  0  0
   -3.4333   -4.0784   -1.0191 C   0  0  0  0  0  0  0  0  0  0  0  0
   -2.6202   -3.1659   -1.6349 C   0  0  0  0  0  0  0  0  0  0  0  0
   -3.0322   -1.8059   -1.7610 C   0  0  0  0  0  0  0  0  0  0  0  0
   -2.1317   -0.9939   -2.3056 O   0  0  0  0  0  0  0  0  0  0  0  0
   -2.3954    0.4240   -2.3391 C   0  0  0  0  0  0  0  0  0  0  0  0
   -4.3023   -1.3941   -1.3204 C   0  0  0  0  0  0  0  0  0  0  0  0
   -5.1392   -2.2930   -0.6933 C   0  0  0  0  0  0  0  0  0  0  0  0
   -3.1280   -5.1093   -0.8800 H   0  0  0  0  0  0  0  0  0  0  0  0
   -1.6406   -3.4441   -2.0050 H   0  0  0  0  0  0  0  0  0  0  0  0
   -1.4874    0.8731   -2.7389 H   0  0  0  0  0  0  0  0  0  0  0  0
   -2.5949    0.7936   -1.3309 H   0  0  0  0  0  0  0  0  0  0  0  0
   -3.2405    0.6424   -2.9985 H   0  0  0  0  0  0  0  0  0  0  0  0
   -4.6365   -0.3656   -1.3570 H   0  0  0  0  0  0  0  0  0  0  0  0
   -6.0856   -1.9580   -0.2939 H   0  0  0  0  0  0  0  0  0  0  0  0
   -5.7061   -0.0327    1.7407 S   0  0  0  0  0  0  0  0  0  0  0  0
   -4.0107    0.7074    1.9560 C   0  0  0  0  0  0  0  0  0  0  0  0
   -6.4959    0.5775    2.8160 O   0  0  0  0  0  0  0  0  0  0  0  0
   -5.4408   -1.4969    1.8726 O   0  0  0  0  0  0  0  0  0  0  0  0
   -6.0580    0.3683    0.3506 O   0  0  0  0  0  0  0  0  0  0  0  0
   -4.0413    2.0417    1.8360 F   0  0  0  0  0  0  0  0  0  0  0  0
   -3.4838    0.3982    3.1467 F   0  0  0  0  0  0  0  0  0  0  0  0
   -3.1535    0.2384    1.0022 F   0  0  0  0  0  0  0  0  0  0  0  0
  1  2  1  0  0  0  0
  2  3  1  0  0  0  0
  4 11  1  0  0  0  0
  4  1  2  0  0  0  0
  5  4  1  0  0  0  0
  6  5  2  0  0  0  0
  6  9  1  0  0  0  0
  7  6  1  0  0  0  0
  8  7  1  0  0  0  0
  8 14  1  0  0  0  0
  9 10  2  0  0  0  0
 10  1  1  0  0  0  0
 10 17  1  0  0  0  0
 12  5  1  0  0  0  0
 13  8  1  0  0  0  0
 15  8  1  0  0  0  0
 16  9  1  0  0  0  0
 18 21  2  0  0  0  0
 18 19  1  0  0  0  0
 18 20  1  0  0  0  0
 19 24  1  0  0  0  0
 22 18  2  0  0  0  0
 23 19  1  0  0  0  0
 25 19  1  0  0  0  0
M  RAD  3   2   2   3   3  20   2
M  END
