Coordinates from ORCA-job 4-MeOPhN2+~TfO-_B3LYPG-6-31G_dp-NX-Scan-d89-09-n800
 OpenBabel11261920223D

 25 24  0  0  0  0  0  0  0  0999 V2000
   -4.2149   -2.9988   -0.3911 C   0  0  0  0  0  0  0  0  0  0  0  0
   -4.8963   -3.6199    0.6244 N   0  0  0  0  0  0  0  0  0  0  0  0
   -5.4122   -4.2374    1.3988 N   0  0  0  0  0  0  0  0  0  0  0  0
   -3.3757   -3.8184   -1.1881 C   0  0  0  0  0  0  0  0  0  0  0  0
   -2.6867   -3.2334   -2.2223 C   0  0  0  0  0  0  0  0  0  0  0  0
   -2.8252   -1.8448   -2.4761 C   0  0  0  0  0  0  0  0  0  0  0  0
   -2.1088   -1.3835   -3.5063 O   0  0  0  0  0  0  0  0  0  0  0  0
   -2.1705    0.0099   -3.8405 C   0  0  0  0  0  0  0  0  0  0  0  0
   -3.6688   -1.0556   -1.6717 C   0  0  0  0  0  0  0  0  0  0  0  0
   -4.3713   -1.6202   -0.6201 C   0  0  0  0  0  0  0  0  0  0  0  0
   -3.2802   -4.8782   -0.9775 H   0  0  0  0  0  0  0  0  0  0  0  0
   -2.0286   -3.8133   -2.8591 H   0  0  0  0  0  0  0  0  0  0  0  0
   -1.5117    0.1313   -4.6992 H   0  0  0  0  0  0  0  0  0  0  0  0
   -1.8137    0.6267   -3.0096 H   0  0  0  0  0  0  0  0  0  0  0  0
   -3.1897    0.3018   -4.1124 H   0  0  0  0  0  0  0  0  0  0  0  0
   -3.7836    0.0069   -1.8452 H   0  0  0  0  0  0  0  0  0  0  0  0
   -5.0122   -1.0025    0.0119 H   0  0  0  0  0  0  0  0  0  0  0  0
   -6.1095   -0.3176    2.2567 S   0  0  0  0  0  0  0  0  0  0  0  0
   -5.0274    0.3140    3.6269 C   0  0  0  0  0  0  0  0  0  0  0  0
   -7.4807   -0.1248    2.7398 O   0  0  0  0  0  0  0  0  0  0  0  0
   -5.6702   -1.7449    2.1211 O   0  0  0  0  0  0  0  0  0  0  0  0
   -5.6913    0.4950    1.0820 O   0  0  0  0  0  0  0  0  0  0  0  0
   -5.2504    1.6172    3.8465 F   0  0  0  0  0  0  0  0  0  0  0  0
   -5.2605   -0.3562    4.7652 F   0  0  0  0  0  0  0  0  0  0  0  0
   -3.7269    0.1585    3.3105 F   0  0  0  0  0  0  0  0  0  0  0  0
  1  2  1  0  0  0  0
  2  3  1  0  0  0  0
  4 11  1  0  0  0  0
  4  1  2  0  0  0  0
  5  4  1  0  0  0  0
  6  5  2  0  0  0  0
  6  9  1  0  0  0  0
  7  6  1  0  0  0  0
  8  7  1  0  0  0  0
  8 14  1  0  0  0  0
  9 10  2  0  0  0  0
 10  1  1  0  0  0  0
 10 17  1  0  0  0  0
 12  5  1  0  0  0  0
 13  8  1  0  0  0  0
 15  8  1  0  0  0  0
 16  9  1  0  0  0  0
 18 20  1  0  0  0  0
 18 19  1  0  0  0  0
 19 23  1  0  0  0  0
 19 24  1  0  0  0  0
 21 18  2  0  0  0  0
 22 18  2  0  0  0  0
 25 19  1  0  0  0  0
M  RAD  3   2   2   3   3  20   2
M  END
