Coordinates from ORCA-job 4-MeOPhN2+~TfO-_B3LYPG-6-31G_dp-NX-Scan-d89-09-n800
 OpenBabel11261920223D

 25 24  0  0  0  0  0  0  0  0999 V2000
   -4.1380   -4.0611   -0.2405 C   0  0  0  0  0  0  0  0  0  0  0  0
   -4.5833   -5.2677    0.1599 N   0  0  0  0  0  0  0  0  0  0  0  0
   -4.9397   -6.2874    0.4797 N   0  0  0  0  0  0  0  0  0  0  0  0
   -4.9535   -3.2505   -1.0848 C   0  0  0  0  0  0  0  0  0  0  0  0
   -4.4526   -2.0534   -1.5182 C   0  0  0  0  0  0  0  0  0  0  0  0
   -3.1701   -1.6201   -1.0869 C   0  0  0  0  0  0  0  0  0  0  0  0
   -2.7805   -0.4548   -1.5616 O   0  0  0  0  0  0  0  0  0  0  0  0
   -1.6773    0.2540   -0.9754 C   0  0  0  0  0  0  0  0  0  0  0  0
   -2.3859   -2.4201   -0.2083 C   0  0  0  0  0  0  0  0  0  0  0  0
   -2.8565   -3.6400    0.2072 C   0  0  0  0  0  0  0  0  0  0  0  0
   -5.9581   -3.5622   -1.3435 H   0  0  0  0  0  0  0  0  0  0  0  0
   -5.0579   -1.3371   -2.0698 H   0  0  0  0  0  0  0  0  0  0  0  0
   -1.6456    1.2069   -1.4995 H   0  0  0  0  0  0  0  0  0  0  0  0
   -0.7359   -0.2848   -1.1265 H   0  0  0  0  0  0  0  0  0  0  0  0
   -1.8752    0.4214    0.0855 H   0  0  0  0  0  0  0  0  0  0  0  0
   -1.4198   -2.0763    0.1363 H   0  0  0  0  0  0  0  0  0  0  0  0
   -2.2727   -4.2769    0.8626 H   0  0  0  0  0  0  0  0  0  0  0  0
   -6.4349    0.5495   -0.2538 S   0  0  0  0  0  0  0  0  0  0  0  0
   -5.1023    1.0219    0.9660 C   0  0  0  0  0  0  0  0  0  0  0  0
   -7.4395    1.6072   -0.0716 O   0  0  0  0  0  0  0  0  0  0  0  0
   -6.8021   -0.8171    0.1927 O   0  0  0  0  0  0  0  0  0  0  0  0
   -5.6933    0.5759   -1.5455 O   0  0  0  0  0  0  0  0  0  0  0  0
   -4.4706    2.1541    0.6122 F   0  0  0  0  0  0  0  0  0  0  0  0
   -5.5855    1.1808    2.2044 F   0  0  0  0  0  0  0  0  0  0  0  0
   -4.1362    0.0493    1.0437 F   0  0  0  0  0  0  0  0  0  0  0  0
  1  2  1  0  0  0  0
  1 10  1  0  0  0  0
  2  3  1  0  0  0  0
  4  1  2  0  0  0  0
  5  6  2  0  0  0  0
  5  4  1  0  0  0  0
  6  9  1  0  0  0  0
  7  6  1  0  0  0  0
  7  8  1  0  0  0  0
  8 15  1  0  0  0  0
  9 16  1  0  0  0  0
  9 10  2  0  0  0  0
 10 17  1  0  0  0  0
 11  4  1  0  0  0  0
 12  5  1  0  0  0  0
 13  8  1  0  0  0  0
 14  8  1  0  0  0  0
 18 20  2  0  0  0  0
 18 21  1  0  0  0  0
 18 19  1  0  0  0  0
 19 25  1  0  0  0  0
 19 24  1  0  0  0  0
 22 18  2  0  0  0  0
 23 19  1  0  0  0  0
M  RAD  3   2   2   3   3  21   2
M  END
