Coordinates from ORCA-job 4-MeOPhN2+~TfO-_B3LYPG-6-31G_dp-NX-Scan-d89-09-n800
 OpenBabel11261920223D

 25 24  0  0  0  0  0  0  0  0999 V2000
   -4.1817   -2.7817   -0.4465 C   0  0  0  0  0  0  0  0  0  0  0  0
   -4.7959   -3.2210    0.7001 N   0  0  0  0  0  0  0  0  0  0  0  0
   -5.3000   -3.4425    1.6746 N   0  0  0  0  0  0  0  0  0  0  0  0
   -3.8123   -3.7407   -1.4154 C   0  0  0  0  0  0  0  0  0  0  0  0
   -3.1957   -3.3050   -2.5656 C   0  0  0  0  0  0  0  0  0  0  0  0
   -2.9431   -1.9255   -2.7579 C   0  0  0  0  0  0  0  0  0  0  0  0
   -2.3380   -1.6137   -3.9116 O   0  0  0  0  0  0  0  0  0  0  0  0
   -2.0349   -0.2439   -4.2006 C   0  0  0  0  0  0  0  0  0  0  0  0
   -3.3200   -0.9893   -1.7762 C   0  0  0  0  0  0  0  0  0  0  0  0
   -3.9441   -1.4029   -0.6096 C   0  0  0  0  0  0  0  0  0  0  0  0
   -4.0139   -4.7932   -1.2497 H   0  0  0  0  0  0  0  0  0  0  0  0
   -2.8922   -3.9999   -3.3399 H   0  0  0  0  0  0  0  0  0  0  0  0
   -1.5499   -0.2531   -5.1760 H   0  0  0  0  0  0  0  0  0  0  0  0
   -1.3521    0.1729   -3.4530 H   0  0  0  0  0  0  0  0  0  0  0  0
   -2.9479    0.3583   -4.2488 H   0  0  0  0  0  0  0  0  0  0  0  0
   -3.1298    0.0682   -1.9088 H   0  0  0  0  0  0  0  0  0  0  0  0
   -4.2359   -0.6767    0.1526 H   0  0  0  0  0  0  0  0  0  0  0  0
   -5.2821   -0.5210    2.5624 S   0  0  0  0  0  0  0  0  0  0  0  0
   -5.8410    0.3446    4.1053 C   0  0  0  0  0  0  0  0  0  0  0  0
   -6.4983   -1.2089    2.0478 O   0  0  0  0  0  0  0  0  0  0  0  0
   -4.2258   -1.4656    3.0131 O   0  0  0  0  0  0  0  0  0  0  0  0
   -4.7880    0.5709    1.6846 O   0  0  0  0  0  0  0  0  0  0  0  0
   -6.8068    1.2293    3.8234 F   0  0  0  0  0  0  0  0  0  0  0  0
   -6.3213   -0.5435    4.9876 F   0  0  0  0  0  0  0  0  0  0  0  0
   -4.8162    0.9955    4.6722 F   0  0  0  0  0  0  0  0  0  0  0  0
  1  2  1  0  0  0  0
  2  3  1  0  0  0  0
  4 11  1  0  0  0  0
  4  1  2  0  0  0  0
  5  4  1  0  0  0  0
  6  5  2  0  0  0  0
  6  9  1  0  0  0  0
  7  6  1  0  0  0  0
  8  7  1  0  0  0  0
  8 14  1  0  0  0  0
  9 10  2  0  0  0  0
 10  1  1  0  0  0  0
 10 17  1  0  0  0  0
 12  5  1  0  0  0  0
 13  8  1  0  0  0  0
 15  8  1  0  0  0  0
 16  9  1  0  0  0  0
 18 21  1  0  0  0  0
 18 19  1  0  0  0  0
 19 25  1  0  0  0  0
 19 24  1  0  0  0  0
 20 18  2  0  0  0  0
 22 18  2  0  0  0  0
 23 19  1  0  0  0  0
M  RAD  3   2   2   3   3  21   2
M  END
