Coordinates from ORCA-job 4-MeOPhN2+~TfO-_B3LYPG-6-31G_dp-NX-Scan-d89-09-n800
 OpenBabel11261920223D

 25 25  0  0  0  0  0  0  0  0999 V2000
   -3.8856   -2.5469   -0.2761 C   0  0  0  0  0  0  0  0  0  0  0  0
   -4.2819   -2.9387    1.0025 N   0  0  0  0  0  0  0  0  0  0  0  0
   -4.5642   -2.4908    2.0556 N   0  0  0  0  0  0  0  0  0  0  0  0
   -3.6597   -3.6027   -1.1825 C   0  0  0  0  0  0  0  0  0  0  0  0
   -3.2577   -3.3340   -2.4749 C   0  0  0  0  0  0  0  0  0  0  0  0
   -3.0735   -1.9998   -2.8884 C   0  0  0  0  0  0  0  0  0  0  0  0
   -2.6797   -1.8376   -4.1675 O   0  0  0  0  0  0  0  0  0  0  0  0
   -2.4711   -0.5179   -4.6690 C   0  0  0  0  0  0  0  0  0  0  0  0
   -3.3003   -0.9456   -1.9852 C   0  0  0  0  0  0  0  0  0  0  0  0
   -3.7052   -1.2113   -0.6837 C   0  0  0  0  0  0  0  0  0  0  0  0
   -3.8063   -4.6230   -0.8448 H   0  0  0  0  0  0  0  0  0  0  0  0
   -3.0759   -4.1287   -3.1896 H   0  0  0  0  0  0  0  0  0  0  0  0
   -2.1595   -0.6426   -5.7058 H   0  0  0  0  0  0  0  0  0  0  0  0
   -1.6832   -0.0000   -4.1106 H   0  0  0  0  0  0  0  0  0  0  0  0
   -3.3947    0.0710   -4.6334 H   0  0  0  0  0  0  0  0  0  0  0  0
   -3.1628    0.0847   -2.2893 H   0  0  0  0  0  0  0  0  0  0  0  0
   -3.8803   -0.4054    0.0148 H   0  0  0  0  0  0  0  0  0  0  0  0
   -4.6052   -0.1403    3.4757 S   0  0  0  0  0  0  0  0  0  0  0  0
   -6.4528   -0.1562    3.7093 C   0  0  0  0  0  0  0  0  0  0  0  0
   -4.4987   -0.8013    2.0352 O   0  0  0  0  0  0  0  0  0  0  0  0
   -4.0526   -1.0022    4.5109 O   0  0  0  0  0  0  0  0  0  0  0  0
   -4.2146    1.2582    3.3522 O   0  0  0  0  0  0  0  0  0  0  0  0
   -7.0436    0.5712    2.7573 F   0  0  0  0  0  0  0  0  0  0  0  0
   -6.9117   -1.4102    3.6480 F   0  0  0  0  0  0  0  0  0  0  0  0
   -6.7461    0.3616    4.9037 F   0  0  0  0  0  0  0  0  0  0  0  0
  1  2  1  0  0  0  0
  2  3  1  0  0  0  0
  4 11  1  0  0  0  0
  4  1  2  0  0  0  0
  5  4  1  0  0  0  0
  6  5  2  0  0  0  0
  6  9  1  0  0  0  0
  7  6  1  0  0  0  0
  8 15  1  0  0  0  0
  8  7  1  0  0  0  0
  8 14  1  0  0  0  0
  9 10  2  0  0  0  0
 10  1  1  0  0  0  0
 10 17  1  0  0  0  0
 12  5  1  0  0  0  0
 13  8  1  0  0  0  0
 16  9  1  0  0  0  0
 18 19  1  0  0  0  0
 18 21  2  0  0  0  0
 19 25  1  0  0  0  0
 20  3  1  0  0  0  0
 20 18  1  0  0  0  0
 22 18  2  0  0  0  0
 23 19  1  0  0  0  0
 24 19  1  0  0  0  0
M  RAD  2   2   2   3   2
M  END
