Coordinates from ORCA-job 4-MeOPhN2+~TfO-_B3LYPG-6-31G_dp-NX-Scan-d89-09-n800
 OpenBabel11261920223D

 25 25  0  0  0  0  0  0  0  0999 V2000
   -3.9600   -2.5630   -0.3416 C   0  0  0  0  0  0  0  0  0  0  0  0
   -4.4133   -2.9294    0.9227 N   0  0  0  0  0  0  0  0  0  0  0  0
   -4.7583   -2.5177    1.9591 N   0  0  0  0  0  0  0  0  0  0  0  0
   -3.6519   -3.6219   -1.2184 C   0  0  0  0  0  0  0  0  0  0  0  0
   -3.1878   -3.3485   -2.4885 C   0  0  0  0  0  0  0  0  0  0  0  0
   -3.0248   -2.0111   -2.9040 C   0  0  0  0  0  0  0  0  0  0  0  0
   -2.5668   -1.8473   -4.1599 O   0  0  0  0  0  0  0  0  0  0  0  0
   -2.3686   -0.5257   -4.6631 C   0  0  0  0  0  0  0  0  0  0  0  0
   -3.3359   -0.9561   -2.0262 C   0  0  0  0  0  0  0  0  0  0  0  0
   -3.8035   -1.2242   -0.7470 C   0  0  0  0  0  0  0  0  0  0  0  0
   -3.7827   -4.6438   -0.8794 H   0  0  0  0  0  0  0  0  0  0  0  0
   -2.9402   -4.1415   -3.1848 H   0  0  0  0  0  0  0  0  0  0  0  0
   -1.9966   -0.6511   -5.6797 H   0  0  0  0  0  0  0  0  0  0  0  0
   -1.6280    0.0189   -4.0671 H   0  0  0  0  0  0  0  0  0  0  0  0
   -3.3093    0.0355   -4.6847 H   0  0  0  0  0  0  0  0  0  0  0  0
   -3.2160    0.0754   -2.3332 H   0  0  0  0  0  0  0  0  0  0  0  0
   -4.0462   -0.4244   -0.0602 H   0  0  0  0  0  0  0  0  0  0  0  0
   -4.6382   -0.1021    3.3764 S   0  0  0  0  0  0  0  0  0  0  0  0
   -6.4186   -0.1440    3.9154 C   0  0  0  0  0  0  0  0  0  0  0  0
   -4.7559   -0.7467    1.9464 O   0  0  0  0  0  0  0  0  0  0  0  0
   -3.9145   -0.9638    4.3045 O   0  0  0  0  0  0  0  0  0  0  0  0
   -4.2901    1.3072    3.2262 O   0  0  0  0  0  0  0  0  0  0  0  0
   -7.1742    0.5707    3.0759 F   0  0  0  0  0  0  0  0  0  0  0  0
   -6.8641   -1.4059    3.9326 F   0  0  0  0  0  0  0  0  0  0  0  0
   -6.5212    0.3719    5.1429 F   0  0  0  0  0  0  0  0  0  0  0  0
  1  2  1  0  0  0  0
  2  3  1  0  0  0  0
  4 11  1  0  0  0  0
  4  1  2  0  0  0  0
  5  4  1  0  0  0  0
  6  5  2  0  0  0  0
  6  9  1  0  0  0  0
  7  6  1  0  0  0  0
  8  7  1  0  0  0  0
  8 14  1  0  0  0  0
  9 10  2  0  0  0  0
 10  1  1  0  0  0  0
 10 17  1  0  0  0  0
 12  5  1  0  0  0  0
 13  8  1  0  0  0  0
 15  8  1  0  0  0  0
 16  9  1  0  0  0  0
 18 19  1  0  0  0  0
 18 21  2  0  0  0  0
 19 24  1  0  0  0  0
 19 25  1  0  0  0  0
 20  3  1  0  0  0  0
 20 18  1  0  0  0  0
 22 18  2  0  0  0  0
 23 19  1  0  0  0  0
M  RAD  2   2   2   3   2
M  END
