Coordinates from ORCA-job 4-MeOPhN2+~TfO-_B3LYPG-6-31G_dp-NX-Scan-d89-09-n800
 OpenBabel11261920223D

 25 24  0  0  0  0  0  0  0  0999 V2000
   -4.6166   -3.7510   -0.5737 C   0  0  0  0  0  0  0  0  0  0  0  0
   -5.3638   -4.6433    0.1115 N   0  0  0  0  0  0  0  0  0  0  0  0
   -5.9937   -5.3692    0.6924 N   0  0  0  0  0  0  0  0  0  0  0  0
   -3.4413   -4.1945   -1.2450 C   0  0  0  0  0  0  0  0  0  0  0  0
   -2.6684   -3.2512   -1.8670 C   0  0  0  0  0  0  0  0  0  0  0  0
   -3.0342   -1.8728   -1.8154 C   0  0  0  0  0  0  0  0  0  0  0  0
   -2.1745   -1.0372   -2.3869 O   0  0  0  0  0  0  0  0  0  0  0  0
   -2.3993    0.3847   -2.2677 C   0  0  0  0  0  0  0  0  0  0  0  0
   -4.2233   -1.4649   -1.1831 C   0  0  0  0  0  0  0  0  0  0  0  0
   -5.0182   -2.3940   -0.5475 C   0  0  0  0  0  0  0  0  0  0  0  0
   -3.1687   -5.2440   -1.2458 H   0  0  0  0  0  0  0  0  0  0  0  0
   -1.7536   -3.5237   -2.3803 H   0  0  0  0  0  0  0  0  0  0  0  0
   -1.5299    0.8495   -2.7299 H   0  0  0  0  0  0  0  0  0  0  0  0
   -2.4750    0.6689   -1.2156 H   0  0  0  0  0  0  0  0  0  0  0  0
   -3.3082    0.6748   -2.8019 H   0  0  0  0  0  0  0  0  0  0  0  0
   -4.5378   -0.4304   -1.0942 H   0  0  0  0  0  0  0  0  0  0  0  0
   -5.8820   -2.0663    0.0199 H   0  0  0  0  0  0  0  0  0  0  0  0
   -5.7817    0.1853    1.6910 S   0  0  0  0  0  0  0  0  0  0  0  0
   -4.0837    0.8639    2.0414 C   0  0  0  0  0  0  0  0  0  0  0  0
   -6.6621    0.9194    2.6056 O   0  0  0  0  0  0  0  0  0  0  0  0
   -5.6153   -1.2707    1.9721 O   0  0  0  0  0  0  0  0  0  0  0  0
   -5.9424    0.4829    0.2395 O   0  0  0  0  0  0  0  0  0  0  0  0
   -4.0371    2.1886    1.8425 F   0  0  0  0  0  0  0  0  0  0  0  0
   -3.6932    0.6073    3.2954 F   0  0  0  0  0  0  0  0  0  0  0  0
   -3.1630    0.2996    1.2071 F   0  0  0  0  0  0  0  0  0  0  0  0
  1 10  1  0  0  0  0
  1  2  1  0  0  0  0
  2  3  1  0  0  0  0
  4  1  2  0  0  0  0
  5  6  2  0  0  0  0
  5  4  1  0  0  0  0
  6  9  1  0  0  0  0
  7  8  1  0  0  0  0
  7  6  1  0  0  0  0
  8 14  1  0  0  0  0
  9 16  1  0  0  0  0
  9 10  2  0  0  0  0
 10 17  1  0  0  0  0
 11  4  1  0  0  0  0
 12  5  1  0  0  0  0
 13  8  1  0  0  0  0
 15  8  1  0  0  0  0
 18 21  2  0  0  0  0
 18 19  1  0  0  0  0
 18 20  1  0  0  0  0
 19 24  1  0  0  0  0
 22 18  2  0  0  0  0
 23 19  1  0  0  0  0
 25 19  1  0  0  0  0
M  RAD  3   2   2   3   3  20   2
M  END
