Coordinates from ORCA-job 4-MeOPhN2+~TfO-_B3LYPG-6-31G_dp-NX-Scan-d89-09-n800
 OpenBabel11261920223D

 25 25  0  0  0  0  0  0  0  0999 V2000
   -3.9589   -2.4311   -0.2387 C   0  0  0  0  0  0  0  0  0  0  0  0
   -4.3952   -2.9057    1.0317 N   0  0  0  0  0  0  0  0  0  0  0  0
   -4.5659   -2.1368    2.0345 N   0  0  0  0  0  0  0  0  0  0  0  0
   -3.8466   -3.4833   -1.1747 C   0  0  0  0  0  0  0  0  0  0  0  0
   -3.4333   -3.2629   -2.4749 C   0  0  0  0  0  0  0  0  0  0  0  0
   -3.1119   -1.9615   -2.8954 C   0  0  0  0  0  0  0  0  0  0  0  0
   -2.7137   -1.8385   -4.1908 O   0  0  0  0  0  0  0  0  0  0  0  0
   -2.3707   -0.5475   -4.6732 C   0  0  0  0  0  0  0  0  0  0  0  0
   -3.2166   -0.9015   -1.9878 C   0  0  0  0  0  0  0  0  0  0  0  0
   -3.6350   -1.1311   -0.6749 C   0  0  0  0  0  0  0  0  0  0  0  0
   -4.0978   -4.4830   -0.8359 H   0  0  0  0  0  0  0  0  0  0  0  0
   -3.3478   -4.0764   -3.1876 H   0  0  0  0  0  0  0  0  0  0  0  0
   -2.0769   -0.6842   -5.7146 H   0  0  0  0  0  0  0  0  0  0  0  0
   -1.5305   -0.1178   -4.1138 H   0  0  0  0  0  0  0  0  0  0  0  0
   -3.2241    0.1411   -4.6255 H   0  0  0  0  0  0  0  0  0  0  0  0
   -2.9749    0.1116   -2.2866 H   0  0  0  0  0  0  0  0  0  0  0  0
   -3.6994   -0.2808   -0.0121 H   0  0  0  0  0  0  0  0  0  0  0  0
   -4.6056   -0.1018    3.5150 S   0  0  0  0  0  0  0  0  0  0  0  0
   -6.4670   -0.4027    3.7669 C   0  0  0  0  0  0  0  0  0  0  0  0
   -4.3823   -1.0352    1.9470 O   0  0  0  0  0  0  0  0  0  0  0  0
   -3.8790   -0.7812    4.5709 O   0  0  0  0  0  0  0  0  0  0  0  0
   -4.4007    1.2744    3.1055 O   0  0  0  0  0  0  0  0  0  0  0  0
   -7.0695   -0.3519    2.5867 F   0  0  0  0  0  0  0  0  0  0  0  0
   -6.6548   -1.5759    4.3415 F   0  0  0  0  0  0  0  0  0  0  0  0
   -6.9089    0.5754    4.5512 F   0  0  0  0  0  0  0  0  0  0  0  0
  1  2  1  0  0  0  0
  2  3  2  0  0  0  0
  4 11  1  0  0  0  0
  4  1  2  0  0  0  0
  5  4  1  0  0  0  0
  6  5  2  0  0  0  0
  6  9  1  0  0  0  0
  7  6  1  0  0  0  0
  8 15  1  0  0  0  0
  8  7  1  0  0  0  0
  8 14  1  0  0  0  0
  9 10  2  0  0  0  0
 10  1  1  0  0  0  0
 10 17  1  0  0  0  0
 12  5  1  0  0  0  0
 13  8  1  0  0  0  0
 16  9  1  0  0  0  0
 18 19  1  0  0  0  0
 18 21  2  0  0  0  0
 19 24  1  0  0  0  0
 19 25  1  0  0  0  0
 20  3  1  0  0  0  0
 20 18  1  0  0  0  0
 22 18  2  0  0  0  0
 23 19  1  0  0  0  0
M  END
