Coordinates from ORCA-job 4-MeOPhN2+~TfO-_B3LYPG-6-31G_dp-NX-Scan-d89-09-n800
 OpenBabel11261920223D

 25 24  0  0  0  0  0  0  0  0999 V2000
   -4.4632   -2.7288   -0.5288 C   0  0  0  0  0  0  0  0  0  0  0  0
   -5.2548   -3.1619    0.5045 N   0  0  0  0  0  0  0  0  0  0  0  0
   -5.9298   -3.4327    1.3599 N   0  0  0  0  0  0  0  0  0  0  0  0
   -3.8157   -3.7074   -1.3151 C   0  0  0  0  0  0  0  0  0  0  0  0
   -3.0208   -3.2933   -2.3588 C   0  0  0  0  0  0  0  0  0  0  0  0
   -2.8685   -1.9127   -2.6295 C   0  0  0  0  0  0  0  0  0  0  0  0
   -2.0715   -1.6208   -3.6663 O   0  0  0  0  0  0  0  0  0  0  0  0
   -1.8401   -0.2509   -4.0133 C   0  0  0  0  0  0  0  0  0  0  0  0
   -3.5297   -0.9541   -1.8379 C   0  0  0  0  0  0  0  0  0  0  0  0
   -4.3277   -1.3488   -0.7768 C   0  0  0  0  0  0  0  0  0  0  0  0
   -3.9434   -4.7606   -1.0901 H   0  0  0  0  0  0  0  0  0  0  0  0
   -2.4987   -4.0053   -2.9872 H   0  0  0  0  0  0  0  0  0  0  0  0
   -1.1656   -0.2772   -4.8685 H   0  0  0  0  0  0  0  0  0  0  0  0
   -1.3667    0.2889   -3.1863 H   0  0  0  0  0  0  0  0  0  0  0  0
   -2.7739    0.2455   -4.2974 H   0  0  0  0  0  0  0  0  0  0  0  0
   -3.4188    0.1045   -2.0339 H   0  0  0  0  0  0  0  0  0  0  0  0
   -4.8271   -0.6119   -0.1508 H   0  0  0  0  0  0  0  0  0  0  0  0
   -5.4423   -0.5398    2.4149 S   0  0  0  0  0  0  0  0  0  0  0  0
   -5.4184    0.2786    4.0812 C   0  0  0  0  0  0  0  0  0  0  0  0
   -6.5719   -1.5192    2.5076 O   0  0  0  0  0  0  0  0  0  0  0  0
   -4.1189   -1.1967    2.2873 O   0  0  0  0  0  0  0  0  0  0  0  0
   -5.6735    0.5642    1.4539 O   0  0  0  0  0  0  0  0  0  0  0  0
   -6.5737    0.9162    4.3088 F   0  0  0  0  0  0  0  0  0  0  0  0
   -5.2340   -0.6330    5.0461 F   0  0  0  0  0  0  0  0  0  0  0  0
   -4.4181    1.1690    4.1411 F   0  0  0  0  0  0  0  0  0  0  0  0
  1  2  1  0  0  0  0
  2  3  1  0  0  0  0
  4 11  1  0  0  0  0
  4  1  2  0  0  0  0
  5  4  1  0  0  0  0
  6  5  2  0  0  0  0
  6  9  1  0  0  0  0
  7  6  1  0  0  0  0
  8  7  1  0  0  0  0
  8 14  1  0  0  0  0
  9 10  2  0  0  0  0
 10  1  1  0  0  0  0
 10 17  1  0  0  0  0
 12  5  1  0  0  0  0
 13  8  1  0  0  0  0
 15  8  1  0  0  0  0
 16  9  1  0  0  0  0
 18 20  1  0  0  0  0
 18 19  1  0  0  0  0
 19 25  1  0  0  0  0
 19 23  1  0  0  0  0
 19 24  1  0  0  0  0
 21 18  2  0  0  0  0
 22 18  2  0  0  0  0
M  RAD  3   2   2   3   3  20   2
M  END
