Coordinates from ORCA-job 4-MeOPhN2+~TfO-_B3LYPG-6-31G_dp-NX-Scan-d89-09-n800
 OpenBabel11261920223D

 25 24  0  0  0  0  0  0  0  0999 V2000
   -4.1769   -2.7823   -0.4445 C   0  0  0  0  0  0  0  0  0  0  0  0
   -4.7887   -3.2222    0.7032 N   0  0  0  0  0  0  0  0  0  0  0  0
   -5.2915   -3.4461    1.6777 N   0  0  0  0  0  0  0  0  0  0  0  0
   -3.8126   -3.7407   -1.4160 C   0  0  0  0  0  0  0  0  0  0  0  0
   -3.1986   -3.3045   -2.5673 C   0  0  0  0  0  0  0  0  0  0  0  0
   -2.9438   -1.9251   -2.7583 C   0  0  0  0  0  0  0  0  0  0  0  0
   -2.3419   -1.6127   -3.9135 O   0  0  0  0  0  0  0  0  0  0  0  0
   -2.0365   -0.2431   -4.2012 C   0  0  0  0  0  0  0  0  0  0  0  0
   -3.3156   -0.9897   -1.7739 C   0  0  0  0  0  0  0  0  0  0  0  0
   -3.9367   -1.4040   -0.6059 C   0  0  0  0  0  0  0  0  0  0  0  0
   -4.0161   -4.7930   -1.2515 H   0  0  0  0  0  0  0  0  0  0  0  0
   -2.8990   -3.9987   -3.3437 H   0  0  0  0  0  0  0  0  0  0  0  0
   -1.5542   -0.2519   -5.1779 H   0  0  0  0  0  0  0  0  0  0  0  0
   -1.3508    0.1709   -3.4548 H   0  0  0  0  0  0  0  0  0  0  0  0
   -2.9483    0.3611   -4.2458 H   0  0  0  0  0  0  0  0  0  0  0  0
   -3.1240    0.0676   -1.9055 H   0  0  0  0  0  0  0  0  0  0  0  0
   -4.2249   -0.6782    0.1582 H   0  0  0  0  0  0  0  0  0  0  0  0
   -5.2878   -0.5223    2.5610 S   0  0  0  0  0  0  0  0  0  0  0  0
   -5.8429    0.3463    4.1035 C   0  0  0  0  0  0  0  0  0  0  0  0
   -6.5049   -1.2085    2.0476 O   0  0  0  0  0  0  0  0  0  0  0  0
   -4.2329   -1.4683    3.0123 O   0  0  0  0  0  0  0  0  0  0  0  0
   -4.7911    0.5681    1.6826 O   0  0  0  0  0  0  0  0  0  0  0  0
   -6.8067    1.2333    3.8218 F   0  0  0  0  0  0  0  0  0  0  0  0
   -6.3247   -0.5395    4.9874 F   0  0  0  0  0  0  0  0  0  0  0  0
   -4.8158    0.9951    4.6688 F   0  0  0  0  0  0  0  0  0  0  0  0
  1  2  1  0  0  0  0
  2  3  1  0  0  0  0
  4 11  1  0  0  0  0
  4  1  2  0  0  0  0
  5  4  1  0  0  0  0
  6  5  2  0  0  0  0
  6  9  1  0  0  0  0
  7  6  1  0  0  0  0
  8  7  1  0  0  0  0
  8 14  1  0  0  0  0
  9 10  2  0  0  0  0
 10  1  1  0  0  0  0
 10 17  1  0  0  0  0
 12  5  1  0  0  0  0
 13  8  1  0  0  0  0
 15  8  1  0  0  0  0
 16  9  1  0  0  0  0
 18 21  1  0  0  0  0
 18 19  1  0  0  0  0
 19 25  1  0  0  0  0
 19 24  1  0  0  0  0
 20 18  2  0  0  0  0
 22 18  2  0  0  0  0
 23 19  1  0  0  0  0
M  RAD  3   2   2   3   3  21   2
M  END
