Coordinates from ORCA-job 4-MeOPhN2+~TfO-_B3LYPG-6-31G_dp-NX-Scan-d89-09-n800
 OpenBabel11261920223D

 25 24  0  0  0  0  0  0  0  0999 V2000
   -4.6048   -3.7649   -0.5752 C   0  0  0  0  0  0  0  0  0  0  0  0
   -5.3465   -4.6607    0.1117 N   0  0  0  0  0  0  0  0  0  0  0  0
   -5.9733   -5.3872    0.6951 N   0  0  0  0  0  0  0  0  0  0  0  0
   -3.4437   -4.2066   -1.2718 C   0  0  0  0  0  0  0  0  0  0  0  0
   -2.6767   -3.2598   -1.8960 C   0  0  0  0  0  0  0  0  0  0  0  0
   -3.0352   -1.8805   -1.8228 C   0  0  0  0  0  0  0  0  0  0  0  0
   -2.1817   -1.0418   -2.3987 O   0  0  0  0  0  0  0  0  0  0  0  0
   -2.4004    0.3796   -2.2612 C   0  0  0  0  0  0  0  0  0  0  0  0
   -4.2115   -1.4741   -1.1657 C   0  0  0  0  0  0  0  0  0  0  0  0
   -4.9997   -2.4066   -0.5268 C   0  0  0  0  0  0  0  0  0  0  0  0
   -3.1767   -5.2574   -1.2897 H   0  0  0  0  0  0  0  0  0  0  0  0
   -1.7723   -3.5308   -2.4281 H   0  0  0  0  0  0  0  0  0  0  0  0
   -1.5362    0.8468   -2.7307 H   0  0  0  0  0  0  0  0  0  0  0  0
   -2.4606    0.6532   -1.2052 H   0  0  0  0  0  0  0  0  0  0  0  0
   -3.3161    0.6779   -2.7790 H   0  0  0  0  0  0  0  0  0  0  0  0
   -4.5226   -0.4394   -1.0634 H   0  0  0  0  0  0  0  0  0  0  0  0
   -5.8503   -2.0797    0.0625 H   0  0  0  0  0  0  0  0  0  0  0  0
   -5.7915    0.2125    1.6804 S   0  0  0  0  0  0  0  0  0  0  0  0
   -4.0941    0.8796    2.0542 C   0  0  0  0  0  0  0  0  0  0  0  0
   -6.6822    0.9599    2.5738 O   0  0  0  0  0  0  0  0  0  0  0  0
   -5.6420   -1.2427    1.9753 O   0  0  0  0  0  0  0  0  0  0  0  0
   -5.9238    0.5010    0.2241 O   0  0  0  0  0  0  0  0  0  0  0  0
   -4.0345    2.2031    1.8502 F   0  0  0  0  0  0  0  0  0  0  0  0
   -3.7245    0.6259    3.3151 F   0  0  0  0  0  0  0  0  0  0  0  0
   -3.1659    0.3045    1.2362 F   0  0  0  0  0  0  0  0  0  0  0  0
  1 10  1  0  0  0  0
  1  2  1  0  0  0  0
  2  3  1  0  0  0  0
  4  1  2  0  0  0  0
  5  6  2  0  0  0  0
  5  4  1  0  0  0  0
  6  9  1  0  0  0  0
  7  8  1  0  0  0  0
  7  6  1  0  0  0  0
  8 14  1  0  0  0  0
  9 16  1  0  0  0  0
  9 10  2  0  0  0  0
 10 17  1  0  0  0  0
 11  4  1  0  0  0  0
 12  5  1  0  0  0  0
 13  8  1  0  0  0  0
 15  8  1  0  0  0  0
 18 21  2  0  0  0  0
 18 19  1  0  0  0  0
 18 20  1  0  0  0  0
 19 24  1  0  0  0  0
 22 18  2  0  0  0  0
 23 19  1  0  0  0  0
 25 19  1  0  0  0  0
M  RAD  3   2   2   3   3  20   2
M  END
