Coordinates from ORCA-job 4-MeOPhN2+~TfO-_B3LYPG-6-31G_dp-NX-Scan-d89-09-n800
 OpenBabel11261920223D

 25 24  0  0  0  0  0  0  0  0999 V2000
   -4.1467   -2.9765   -0.4827 C   0  0  0  0  0  0  0  0  0  0  0  0
   -4.7874   -3.5006    0.6137 N   0  0  0  0  0  0  0  0  0  0  0  0
   -5.3007   -3.7058    1.5911 N   0  0  0  0  0  0  0  0  0  0  0  0
   -3.6053   -3.8604   -1.4414 C   0  0  0  0  0  0  0  0  0  0  0  0
   -2.9598   -3.3224   -2.5306 C   0  0  0  0  0  0  0  0  0  0  0  0
   -2.8600   -1.9166   -2.6757 C   0  0  0  0  0  0  0  0  0  0  0  0
   -2.2150   -1.5043   -3.7742 O   0  0  0  0  0  0  0  0  0  0  0  0
   -2.0579   -0.1004   -4.0142 C   0  0  0  0  0  0  0  0  0  0  0  0
   -3.4203   -1.0574   -1.7106 C   0  0  0  0  0  0  0  0  0  0  0  0
   -4.0682   -1.5758   -0.6012 C   0  0  0  0  0  0  0  0  0  0  0  0
   -3.6936   -4.9337   -1.3121 H   0  0  0  0  0  0  0  0  0  0  0  0
   -2.5200   -3.9530   -3.2944 H   0  0  0  0  0  0  0  0  0  0  0  0
   -1.5062   -0.0258   -4.9505 H   0  0  0  0  0  0  0  0  0  0  0  0
   -1.4861    0.3731   -3.2094 H   0  0  0  0  0  0  0  0  0  0  0  0
   -3.0306    0.3906   -4.1188 H   0  0  0  0  0  0  0  0  0  0  0  0
   -3.3600    0.0188   -1.8133 H   0  0  0  0  0  0  0  0  0  0  0  0
   -4.5247   -0.9191    0.1457 H   0  0  0  0  0  0  0  0  0  0  0  0
   -5.8210   -0.5155    2.4596 S   0  0  0  0  0  0  0  0  0  0  0  0
   -5.4803    0.5219    3.9619 C   0  0  0  0  0  0  0  0  0  0  0  0
   -7.2396   -0.8879    2.5536 O   0  0  0  0  0  0  0  0  0  0  0  0
   -4.8568   -1.6585    2.6251 O   0  0  0  0  0  0  0  0  0  0  0  0
   -5.4423    0.3667    1.3234 O   0  0  0  0  0  0  0  0  0  0  0  0
   -6.2565    1.6147    3.9554 F   0  0  0  0  0  0  0  0  0  0  0  0
   -5.7309   -0.1737    5.0794 F   0  0  0  0  0  0  0  0  0  0  0  0
   -4.1969    0.9134    3.9846 F   0  0  0  0  0  0  0  0  0  0  0  0
  1  2  1  0  0  0  0
  2  3  1  0  0  0  0
  4 11  1  0  0  0  0
  4  1  2  0  0  0  0
  5  4  1  0  0  0  0
  6  5  2  0  0  0  0
  6  9  1  0  0  0  0
  7  6  1  0  0  0  0
  8  7  1  0  0  0  0
  8 14  1  0  0  0  0
  9 10  2  0  0  0  0
 10  1  1  0  0  0  0
 10 17  1  0  0  0  0
 12  5  1  0  0  0  0
 13  8  1  0  0  0  0
 15  8  1  0  0  0  0
 16  9  1  0  0  0  0
 18 20  2  0  0  0  0
 18 21  1  0  0  0  0
 18 19  1  0  0  0  0
 19 25  1  0  0  0  0
 19 24  1  0  0  0  0
 22 18  2  0  0  0  0
 23 19  1  0  0  0  0
M  RAD  3   2   2   3   3  21   2
M  END
