Coordinates from ORCA-job 4-MeOPhN2+~TfO-_B3LYPG-6-31G_dp-NX-Scan-d89-09-n800
 OpenBabel11261920223D

 25 24  0  0  0  0  0  0  0  0999 V2000
   -4.2332   -3.0227   -0.4830 C   0  0  0  0  0  0  0  0  0  0  0  0
   -4.9290   -3.6054    0.5426 N   0  0  0  0  0  0  0  0  0  0  0  0
   -5.5091   -4.0284    1.3987 N   0  0  0  0  0  0  0  0  0  0  0  0
   -3.4935   -3.8658   -1.3461 C   0  0  0  0  0  0  0  0  0  0  0  0
   -2.7952   -3.2859   -2.3778 C   0  0  0  0  0  0  0  0  0  0  0  0
   -2.8322   -1.8802   -2.5611 C   0  0  0  0  0  0  0  0  0  0  0  0
   -2.1179   -1.4258   -3.5962 O   0  0  0  0  0  0  0  0  0  0  0  0
   -2.0801   -0.0177   -3.8642 C   0  0  0  0  0  0  0  0  0  0  0  0
   -3.5840   -1.0669   -1.6913 C   0  0  0  0  0  0  0  0  0  0  0  0
   -4.2920   -1.6247   -0.6397 C   0  0  0  0  0  0  0  0  0  0  0  0
   -3.4762   -4.9388   -1.1873 H   0  0  0  0  0  0  0  0  0  0  0  0
   -2.2074   -3.8821   -3.0661 H   0  0  0  0  0  0  0  0  0  0  0  0
   -1.4416    0.0938   -4.7396 H   0  0  0  0  0  0  0  0  0  0  0  0
   -1.6496    0.5294   -3.0195 H   0  0  0  0  0  0  0  0  0  0  0  0
   -3.0812    0.3651   -4.0865 H   0  0  0  0  0  0  0  0  0  0  0  0
   -3.6235    0.0076   -1.8191 H   0  0  0  0  0  0  0  0  0  0  0  0
   -4.8757   -0.9916    0.0384 H   0  0  0  0  0  0  0  0  0  0  0  0
   -5.9686   -0.4899    2.4057 S   0  0  0  0  0  0  0  0  0  0  0  0
   -5.1839    0.5119    3.7571 C   0  0  0  0  0  0  0  0  0  0  0  0
   -7.3757   -0.6289    2.8012 O   0  0  0  0  0  0  0  0  0  0  0  0
   -5.1699   -1.7562    2.4193 O   0  0  0  0  0  0  0  0  0  0  0  0
   -5.7035    0.3153    1.1797 O   0  0  0  0  0  0  0  0  0  0  0  0
   -5.7671    1.7154    3.8516 F   0  0  0  0  0  0  0  0  0  0  0  0
   -5.3020   -0.1127    4.9381 F   0  0  0  0  0  0  0  0  0  0  0  0
   -3.8749    0.6970    3.5094 F   0  0  0  0  0  0  0  0  0  0  0  0
  1  2  1  0  0  0  0
  2  3  1  0  0  0  0
  4 11  1  0  0  0  0
  4  1  2  0  0  0  0
  5  4  1  0  0  0  0
  6  5  2  0  0  0  0
  6  9  1  0  0  0  0
  7  6  1  0  0  0  0
  8  7  1  0  0  0  0
  8 14  1  0  0  0  0
  9 10  2  0  0  0  0
 10  1  1  0  0  0  0
 10 17  1  0  0  0  0
 12  5  1  0  0  0  0
 13  8  1  0  0  0  0
 15  8  1  0  0  0  0
 16  9  1  0  0  0  0
 18 21  2  0  0  0  0
 18 20  1  0  0  0  0
 18 19  1  0  0  0  0
 19 23  1  0  0  0  0
 19 24  1  0  0  0  0
 22 18  2  0  0  0  0
 25 19  1  0  0  0  0
M  RAD  3   2   2   3   3  20   2
M  END
