Coordinates from ORCA-job 4-MeOPhN2+~TfO-_B3LYPG-6-31G_dp-NX-Scan-d89-09-n800
 OpenBabel11261920223D

 25 24  0  0  0  0  0  0  0  0999 V2000
   -4.4627   -2.7274   -0.5280 C   0  0  0  0  0  0  0  0  0  0  0  0
   -5.2540   -3.1595    0.5060 N   0  0  0  0  0  0  0  0  0  0  0  0
   -5.9288   -3.4265    1.3630 N   0  0  0  0  0  0  0  0  0  0  0  0
   -3.8154   -3.7066   -1.3137 C   0  0  0  0  0  0  0  0  0  0  0  0
   -3.0208   -3.2935   -2.3581 C   0  0  0  0  0  0  0  0  0  0  0  0
   -2.8685   -1.9132   -2.6302 C   0  0  0  0  0  0  0  0  0  0  0  0
   -2.0719   -1.6223   -3.6675 O   0  0  0  0  0  0  0  0  0  0  0  0
   -1.8406   -0.2526   -4.0158 C   0  0  0  0  0  0  0  0  0  0  0  0
   -3.5295   -0.9539   -1.8392 C   0  0  0  0  0  0  0  0  0  0  0  0
   -4.3271   -1.3476   -0.7774 C   0  0  0  0  0  0  0  0  0  0  0  0
   -3.9432   -4.7596   -1.0877 H   0  0  0  0  0  0  0  0  0  0  0  0
   -2.4991   -4.0061   -2.9860 H   0  0  0  0  0  0  0  0  0  0  0  0
   -1.1663   -0.2797   -4.8711 H   0  0  0  0  0  0  0  0  0  0  0  0
   -1.3670    0.2879   -3.1893 H   0  0  0  0  0  0  0  0  0  0  0  0
   -2.7745    0.2435   -4.3000 H   0  0  0  0  0  0  0  0  0  0  0  0
   -3.4186    0.1045   -2.0361 H   0  0  0  0  0  0  0  0  0  0  0  0
   -4.8263   -0.6101   -0.1522 H   0  0  0  0  0  0  0  0  0  0  0  0
   -5.4393   -0.5369    2.4141 S   0  0  0  0  0  0  0  0  0  0  0  0
   -5.4212    0.2751    4.0836 C   0  0  0  0  0  0  0  0  0  0  0  0
   -6.5684   -1.5182    2.5003 O   0  0  0  0  0  0  0  0  0  0  0  0
   -4.1151   -1.1922    2.2877 O   0  0  0  0  0  0  0  0  0  0  0  0
   -5.6700    0.5700    1.4565 O   0  0  0  0  0  0  0  0  0  0  0  0
   -6.5781    0.9100    4.3105 F   0  0  0  0  0  0  0  0  0  0  0  0
   -5.2380   -0.6400    5.0454 F   0  0  0  0  0  0  0  0  0  0  0  0
   -4.4225    1.1667    4.1495 F   0  0  0  0  0  0  0  0  0  0  0  0
  1  2  1  0  0  0  0
  2  3  1  0  0  0  0
  4 11  1  0  0  0  0
  4  1  2  0  0  0  0
  5  4  1  0  0  0  0
  6  5  2  0  0  0  0
  6  9  1  0  0  0  0
  7  6  1  0  0  0  0
  8  7  1  0  0  0  0
  8 14  1  0  0  0  0
  9 10  2  0  0  0  0
 10  1  1  0  0  0  0
 10 17  1  0  0  0  0
 12  5  1  0  0  0  0
 13  8  1  0  0  0  0
 15  8  1  0  0  0  0
 16  9  1  0  0  0  0
 18 20  1  0  0  0  0
 18 19  1  0  0  0  0
 19 25  1  0  0  0  0
 19 23  1  0  0  0  0
 19 24  1  0  0  0  0
 21 18  2  0  0  0  0
 22 18  2  0  0  0  0
M  RAD  3   2   2   3   3  20   2
M  END
