Coordinates from ORCA-job 4-MeOPhN2+~TfO-_B3LYPG-6-31G_dp-NX-Scan-d89-09-n800
 OpenBabel11261920223D

 25 25  0  0  0  0  0  0  0  0999 V2000
   -3.9731   -2.4200   -0.2412 C   0  0  0  0  0  0  0  0  0  0  0  0
   -4.4179   -2.8898    1.0274 N   0  0  0  0  0  0  0  0  0  0  0  0
   -4.5872   -2.1267    2.0316 N   0  0  0  0  0  0  0  0  0  0  0  0
   -3.8656   -3.4742   -1.1756 C   0  0  0  0  0  0  0  0  0  0  0  0
   -3.4454   -3.2587   -2.4743 C   0  0  0  0  0  0  0  0  0  0  0  0
   -3.1120   -1.9603   -2.8948 C   0  0  0  0  0  0  0  0  0  0  0  0
   -2.7075   -1.8419   -4.1883 O   0  0  0  0  0  0  0  0  0  0  0  0
   -2.3518   -0.5542   -4.6710 C   0  0  0  0  0  0  0  0  0  0  0  0
   -3.2120   -0.8983   -1.9888 C   0  0  0  0  0  0  0  0  0  0  0  0
   -3.6372   -1.1228   -0.6774 C   0  0  0  0  0  0  0  0  0  0  0  0
   -4.1261   -4.4714   -0.8365 H   0  0  0  0  0  0  0  0  0  0  0  0
   -3.3636   -4.0736   -3.1859 H   0  0  0  0  0  0  0  0  0  0  0  0
   -2.0548   -0.6947   -5.7109 H   0  0  0  0  0  0  0  0  0  0  0  0
   -1.5105   -0.1308   -4.1085 H   0  0  0  0  0  0  0  0  0  0  0  0
   -3.1999    0.1413   -4.6277 H   0  0  0  0  0  0  0  0  0  0  0  0
   -2.9612    0.1126   -2.2879 H   0  0  0  0  0  0  0  0  0  0  0  0
   -3.6980   -0.2714   -0.0159 H   0  0  0  0  0  0  0  0  0  0  0  0
   -4.6080   -0.0919    3.4950 S   0  0  0  0  0  0  0  0  0  0  0  0
   -6.4572   -0.4295    3.7829 C   0  0  0  0  0  0  0  0  0  0  0  0
   -4.3931   -1.0168    1.9414 O   0  0  0  0  0  0  0  0  0  0  0  0
   -3.8483   -0.7485    4.5411 O   0  0  0  0  0  0  0  0  0  0  0  0
   -4.4386    1.2856    3.0758 O   0  0  0  0  0  0  0  0  0  0  0  0
   -7.0828   -0.4055    2.6140 F   0  0  0  0  0  0  0  0  0  0  0  0
   -6.6117   -1.5976    4.3769 F   0  0  0  0  0  0  0  0  0  0  0  0
   -6.9033    0.5506    4.5628 F   0  0  0  0  0  0  0  0  0  0  0  0
  1  2  1  0  0  0  0
  2  3  2  0  0  0  0
  4 11  1  0  0  0  0
  4  1  2  0  0  0  0
  5  4  1  0  0  0  0
  6  5  2  0  0  0  0
  6  9  1  0  0  0  0
  7  6  1  0  0  0  0
  8 15  1  0  0  0  0
  8  7  1  0  0  0  0
  8 14  1  0  0  0  0
  9 10  2  0  0  0  0
 10  1  1  0  0  0  0
 10 17  1  0  0  0  0
 12  5  1  0  0  0  0
 13  8  1  0  0  0  0
 16  9  1  0  0  0  0
 18 19  1  0  0  0  0
 18 21  2  0  0  0  0
 19 24  1  0  0  0  0
 19 25  1  0  0  0  0
 20  3  1  0  0  0  0
 20 18  1  0  0  0  0
 22 18  2  0  0  0  0
 23 19  1  0  0  0  0
M  END
