Coordinates from ORCA-job 4-MeOPhN2+~TfO-_B3LYPG-6-31G_dp-NX-Scan-d89-09-n800
 OpenBabel11261920223D

 25 24  0  0  0  0  0  0  0  0999 V2000
   -4.7087   -3.4896   -0.5064 C   0  0  0  0  0  0  0  0  0  0  0  0
   -5.4932   -4.2636    0.2765 N   0  0  0  0  0  0  0  0  0  0  0  0
   -6.1398   -4.9031    0.9315 N   0  0  0  0  0  0  0  0  0  0  0  0
   -3.4473   -3.9888   -0.9296 C   0  0  0  0  0  0  0  0  0  0  0  0
   -2.6123   -3.1333   -1.5996 C   0  0  0  0  0  0  0  0  0  0  0  0
   -3.0000   -1.7809   -1.8221 C   0  0  0  0  0  0  0  0  0  0  0  0
   -2.0727   -1.0133   -2.3903 O   0  0  0  0  0  0  0  0  0  0  0  0
   -2.3006    0.4063   -2.4800 C   0  0  0  0  0  0  0  0  0  0  0  0
   -4.2754   -1.3266   -1.4400 C   0  0  0  0  0  0  0  0  0  0  0  0
   -5.1354   -2.1696   -0.7690 C   0  0  0  0  0  0  0  0  0  0  0  0
   -3.1541   -5.0079   -0.7050 H   0  0  0  0  0  0  0  0  0  0  0  0
   -1.6302   -3.4491   -1.9306 H   0  0  0  0  0  0  0  0  0  0  0  0
   -1.3694    0.8225   -2.8615 H   0  0  0  0  0  0  0  0  0  0  0  0
   -2.5245    0.8155   -1.4913 H   0  0  0  0  0  0  0  0  0  0  0  0
   -3.1166    0.6246   -3.1756 H   0  0  0  0  0  0  0  0  0  0  0  0
   -4.5890   -0.2995   -1.5672 H   0  0  0  0  0  0  0  0  0  0  0  0
   -6.0813   -1.7888   -0.4075 H   0  0  0  0  0  0  0  0  0  0  0  0
   -5.7574   -0.2292    1.8461 S   0  0  0  0  0  0  0  0  0  0  0  0
   -4.0877    0.5852    1.9836 C   0  0  0  0  0  0  0  0  0  0  0  0
   -6.4980    0.2955    2.9985 O   0  0  0  0  0  0  0  0  0  0  0  0
   -5.4178   -1.6835    1.8911 O   0  0  0  0  0  0  0  0  0  0  0  0
   -6.2205    0.2120    0.5010 O   0  0  0  0  0  0  0  0  0  0  0  0
   -4.1942    1.9204    1.9501 F   0  0  0  0  0  0  0  0  0  0  0  0
   -3.4613    0.2367    3.1148 F   0  0  0  0  0  0  0  0  0  0  0  0
   -3.2797    0.2200    0.9469 F   0  0  0  0  0  0  0  0  0  0  0  0
  1  2  1  0  0  0  0
  2  3  1  0  0  0  0
  4 11  1  0  0  0  0
  4  1  2  0  0  0  0
  5  4  1  0  0  0  0
  6  5  2  0  0  0  0
  6  9  1  0  0  0  0
  7  6  1  0  0  0  0
  8  7  1  0  0  0  0
  8 14  1  0  0  0  0
  9 10  2  0  0  0  0
 10  1  1  0  0  0  0
 10 17  1  0  0  0  0
 12  5  1  0  0  0  0
 13  8  1  0  0  0  0
 15  8  1  0  0  0  0
 16  9  1  0  0  0  0
 18 21  2  0  0  0  0
 18 19  1  0  0  0  0
 18 20  1  0  0  0  0
 19 24  1  0  0  0  0
 22 18  2  0  0  0  0
 23 19  1  0  0  0  0
 25 19  1  0  0  0  0
M  RAD  3   2   2   3   3  20   2
M  END
