Coordinates from ORCA-job 4-MeOPhN2+~TfO-_B3LYPG-6-31G_dp-NX-Scan-d89-09-n800
 OpenBabel11261920223D

 25 24  0  0  0  0  0  0  0  0999 V2000
   -4.1813   -3.9904   -0.2164 C   0  0  0  0  0  0  0  0  0  0  0  0
   -4.6610   -5.1703    0.2226 N   0  0  0  0  0  0  0  0  0  0  0  0
   -5.0417   -6.1708    0.5736 N   0  0  0  0  0  0  0  0  0  0  0  0
   -4.9540   -3.2048   -1.1212 C   0  0  0  0  0  0  0  0  0  0  0  0
   -4.4133   -2.0404   -1.5959 C   0  0  0  0  0  0  0  0  0  0  0  0
   -3.1411   -1.6078   -1.1405 C   0  0  0  0  0  0  0  0  0  0  0  0
   -2.7154   -0.4680   -1.6487 O   0  0  0  0  0  0  0  0  0  0  0  0
   -1.6188    0.2415   -1.0516 C   0  0  0  0  0  0  0  0  0  0  0  0
   -2.3998   -2.3819   -0.2032 C   0  0  0  0  0  0  0  0  0  0  0  0
   -2.9061   -3.5727    0.2520 C   0  0  0  0  0  0  0  0  0  0  0  0
   -5.9574   -3.5068   -1.3940 H   0  0  0  0  0  0  0  0  0  0  0  0
   -4.9910   -1.3444   -2.1963 H   0  0  0  0  0  0  0  0  0  0  0  0
   -1.5556    1.1778   -1.6023 H   0  0  0  0  0  0  0  0  0  0  0  0
   -0.6820   -0.3155   -1.1595 H   0  0  0  0  0  0  0  0  0  0  0  0
   -1.8428    0.4431   -0.0018 H   0  0  0  0  0  0  0  0  0  0  0  0
   -1.4391   -2.0395    0.1575 H   0  0  0  0  0  0  0  0  0  0  0  0
   -2.3554   -4.1888    0.9543 H   0  0  0  0  0  0  0  0  0  0  0  0
   -6.4155    0.4707   -0.2268 S   0  0  0  0  0  0  0  0  0  0  0  0
   -5.1297    0.9558    1.0344 C   0  0  0  0  0  0  0  0  0  0  0  0
   -7.4674    1.4798   -0.0347 O   0  0  0  0  0  0  0  0  0  0  0  0
   -6.7406   -0.9235    0.1692 O   0  0  0  0  0  0  0  0  0  0  0  0
   -5.6473    0.5673   -1.4985 O   0  0  0  0  0  0  0  0  0  0  0  0
   -4.6165    2.1709    0.7867 F   0  0  0  0  0  0  0  0  0  0  0  0
   -5.6197    0.9524    2.2809 F   0  0  0  0  0  0  0  0  0  0  0  0
   -4.0742    0.0780    1.0244 F   0  0  0  0  0  0  0  0  0  0  0  0
  1  2  1  0  0  0  0
  1 10  1  0  0  0  0
  2  3  1  0  0  0  0
  4  1  2  0  0  0  0
  5  6  2  0  0  0  0
  5  4  1  0  0  0  0
  6  9  1  0  0  0  0
  7  6  1  0  0  0  0
  7  8  1  0  0  0  0
  8 15  1  0  0  0  0
  9 16  1  0  0  0  0
  9 10  2  0  0  0  0
 10 17  1  0  0  0  0
 11  4  1  0  0  0  0
 12  5  1  0  0  0  0
 13  8  1  0  0  0  0
 14  8  1  0  0  0  0
 18 20  2  0  0  0  0
 18 21  1  0  0  0  0
 18 19  1  0  0  0  0
 19 24  1  0  0  0  0
 22 18  2  0  0  0  0
 23 19  1  0  0  0  0
 25 19  1  0  0  0  0
M  RAD  3   2   2   3   3  21   2
M  END
