Coordinates from ORCA-job 4-MeOPhN2+~TfO-_B3LYPG-6-31G_dp-NX-Scan-d89-09-n800
 OpenBabel11261920223D

 25 24  0  0  0  0  0  0  0  0999 V2000
   -4.1600   -3.0109   -0.4848 C   0  0  0  0  0  0  0  0  0  0  0  0
   -4.8144   -3.5601    0.5886 N   0  0  0  0  0  0  0  0  0  0  0  0
   -5.3530   -3.8338    1.5327 N   0  0  0  0  0  0  0  0  0  0  0  0
   -3.5626   -3.8752   -1.4296 C   0  0  0  0  0  0  0  0  0  0  0  0
   -2.9056   -3.3132   -2.4988 C   0  0  0  0  0  0  0  0  0  0  0  0
   -2.8476   -1.9038   -2.6377 C   0  0  0  0  0  0  0  0  0  0  0  0
   -2.1866   -1.4678   -3.7165 O   0  0  0  0  0  0  0  0  0  0  0  0
   -2.0682   -0.0584   -3.9495 C   0  0  0  0  0  0  0  0  0  0  0  0
   -3.4609   -1.0664   -1.6858 C   0  0  0  0  0  0  0  0  0  0  0  0
   -4.1232   -1.6078   -0.5962 C   0  0  0  0  0  0  0  0  0  0  0  0
   -3.6191   -4.9513   -1.3048 H   0  0  0  0  0  0  0  0  0  0  0  0
   -2.4244   -3.9267   -3.2515 H   0  0  0  0  0  0  0  0  0  0  0  0
   -1.4963    0.0361   -4.8718 H   0  0  0  0  0  0  0  0  0  0  0  0
   -1.5318    0.4301   -3.1297 H   0  0  0  0  0  0  0  0  0  0  0  0
   -3.0533    0.4014   -4.0769 H   0  0  0  0  0  0  0  0  0  0  0  0
   -3.4312    0.0116   -1.7829 H   0  0  0  0  0  0  0  0  0  0  0  0
   -4.6166   -0.9643    0.1405 H   0  0  0  0  0  0  0  0  0  0  0  0
   -5.9151   -0.5167    2.4478 S   0  0  0  0  0  0  0  0  0  0  0  0
   -5.3688    0.5425    3.8723 C   0  0  0  0  0  0  0  0  0  0  0  0
   -7.3411   -0.7767    2.6823 O   0  0  0  0  0  0  0  0  0  0  0  0
   -5.0180   -1.7143    2.5699 O   0  0  0  0  0  0  0  0  0  0  0  0
   -5.5812    0.3041    1.2512 O   0  0  0  0  0  0  0  0  0  0  0  0
   -6.0572    1.6924    3.8899 F   0  0  0  0  0  0  0  0  0  0  0  0
   -5.5692   -0.0930    5.0355 F   0  0  0  0  0  0  0  0  0  0  0  0
   -4.0614    0.8340    3.7699 F   0  0  0  0  0  0  0  0  0  0  0  0
  1  2  1  0  0  0  0
  2  3  1  0  0  0  0
  4 11  1  0  0  0  0
  4  1  2  0  0  0  0
  5  4  1  0  0  0  0
  6  5  2  0  0  0  0
  6  9  1  0  0  0  0
  7  6  1  0  0  0  0
  8  7  1  0  0  0  0
  8 14  1  0  0  0  0
  9 10  2  0  0  0  0
 10  1  1  0  0  0  0
 10 17  1  0  0  0  0
 12  5  1  0  0  0  0
 13  8  1  0  0  0  0
 15  8  1  0  0  0  0
 16  9  1  0  0  0  0
 18 21  2  0  0  0  0
 18 20  1  0  0  0  0
 18 19  1  0  0  0  0
 19 23  1  0  0  0  0
 19 24  1  0  0  0  0
 22 18  2  0  0  0  0
 25 19  1  0  0  0  0
M  RAD  3   2   2   3   3  20   2
M  END
