Coordinates from ORCA-job 4-MeOPhN2+~TfO-_B3LYPG-6-31G_dp-NX-Scan-d89-09-n800
 OpenBabel11261920223D

 25 25  0  0  0  0  0  0  0  0999 V2000
   -3.8784   -2.5377   -0.2574 C   0  0  0  0  0  0  0  0  0  0  0  0
   -4.2665   -2.9458    1.0207 N   0  0  0  0  0  0  0  0  0  0  0  0
   -4.5376   -2.4737    2.0752 N   0  0  0  0  0  0  0  0  0  0  0  0
   -3.6671   -3.5920   -1.1700 C   0  0  0  0  0  0  0  0  0  0  0  0
   -3.2744   -3.3268   -2.4661 C   0  0  0  0  0  0  0  0  0  0  0  0
   -3.0835   -1.9944   -2.8806 C   0  0  0  0  0  0  0  0  0  0  0  0
   -2.6992   -1.8336   -4.1637 O   0  0  0  0  0  0  0  0  0  0  0  0
   -2.4861   -0.5150   -4.6646 C   0  0  0  0  0  0  0  0  0  0  0  0
   -3.2942   -0.9401   -1.9742 C   0  0  0  0  0  0  0  0  0  0  0  0
   -3.6900   -1.2040   -0.6690 C   0  0  0  0  0  0  0  0  0  0  0  0
   -3.8188   -4.6113   -0.8314 H   0  0  0  0  0  0  0  0  0  0  0  0
   -3.1051   -4.1229   -3.1823 H   0  0  0  0  0  0  0  0  0  0  0  0
   -2.1846   -0.6396   -5.7045 H   0  0  0  0  0  0  0  0  0  0  0  0
   -1.6898   -0.0031   -4.1126 H   0  0  0  0  0  0  0  0  0  0  0  0
   -3.4052    0.0806   -4.6199 H   0  0  0  0  0  0  0  0  0  0  0  0
   -3.1512    0.0894   -2.2783 H   0  0  0  0  0  0  0  0  0  0  0  0
   -3.8510   -0.3936    0.0269 H   0  0  0  0  0  0  0  0  0  0  0  0
   -4.5997   -0.1544    3.4804 S   0  0  0  0  0  0  0  0  0  0  0  0
   -6.4537   -0.1670    3.6693 C   0  0  0  0  0  0  0  0  0  0  0  0
   -4.4604   -0.8350    2.0400 O   0  0  0  0  0  0  0  0  0  0  0  0
   -4.0676   -1.0046    4.5338 O   0  0  0  0  0  0  0  0  0  0  0  0
   -4.2031    1.2391    3.3353 O   0  0  0  0  0  0  0  0  0  0  0  0
   -7.0183    0.5427    2.6894 F   0  0  0  0  0  0  0  0  0  0  0  0
   -6.9104   -1.4209    3.6219 F   0  0  0  0  0  0  0  0  0  0  0  0
   -6.7708    0.3752    4.8461 F   0  0  0  0  0  0  0  0  0  0  0  0
  1  2  1  0  0  0  0
  2  3  1  0  0  0  0
  4 11  1  0  0  0  0
  4  1  2  0  0  0  0
  5  4  1  0  0  0  0
  6  5  2  0  0  0  0
  6  9  1  0  0  0  0
  7  6  1  0  0  0  0
  8 15  1  0  0  0  0
  8  7  1  0  0  0  0
  8 14  1  0  0  0  0
  9 10  2  0  0  0  0
 10  1  1  0  0  0  0
 10 17  1  0  0  0  0
 12  5  1  0  0  0  0
 13  8  1  0  0  0  0
 16  9  1  0  0  0  0
 18 19  1  0  0  0  0
 18 21  2  0  0  0  0
 19 25  1  0  0  0  0
 20  3  1  0  0  0  0
 20 18  1  0  0  0  0
 22 18  2  0  0  0  0
 23 19  1  0  0  0  0
 24 19  1  0  0  0  0
M  RAD  2   2   2   3   2
M  END
