Coordinates from ORCA-job 4-MeOPhN2+~TfO-_B3LYPG-6-31G_dp-NX-Scan-d89-09-n800
 OpenBabel11261920223D

 25 24  0  0  0  0  0  0  0  0999 V2000
   -4.4594   -4.0498   -0.5758 C   0  0  0  0  0  0  0  0  0  0  0  0
   -5.0940   -5.0671    0.0403 N   0  0  0  0  0  0  0  0  0  0  0  0
   -5.6339   -5.9050    0.5613 N   0  0  0  0  0  0  0  0  0  0  0  0
   -3.4188   -4.3478   -1.5037 C   0  0  0  0  0  0  0  0  0  0  0  0
   -2.7708   -3.3000   -2.1001 C   0  0  0  0  0  0  0  0  0  0  0  0
   -3.1383   -1.9572   -1.7868 C   0  0  0  0  0  0  0  0  0  0  0  0
   -2.4260   -1.0150   -2.3796 O   0  0  0  0  0  0  0  0  0  0  0  0
   -2.6819    0.3767   -2.0455 C   0  0  0  0  0  0  0  0  0  0  0  0
   -4.1929   -1.6846   -0.8866 C   0  0  0  0  0  0  0  0  0  0  0  0
   -4.8497   -2.7199   -0.2654 C   0  0  0  0  0  0  0  0  0  0  0  0
   -3.1515   -5.3766   -1.7173 H   0  0  0  0  0  0  0  0  0  0  0  0
   -1.9636   -3.4663   -2.8045 H   0  0  0  0  0  0  0  0  0  0  0  0
   -1.9377    0.9377   -2.6070 H   0  0  0  0  0  0  0  0  0  0  0  0
   -2.5683    0.5341   -0.9711 H   0  0  0  0  0  0  0  0  0  0  0  0
   -3.6927    0.6634   -2.3405 H   0  0  0  0  0  0  0  0  0  0  0  0
   -4.5081   -0.6633   -0.6550 H   0  0  0  0  0  0  0  0  0  0  0  0
   -5.6235   -2.4756    0.4602 H   0  0  0  0  0  0  0  0  0  0  0  0
   -5.6589    0.7714    1.2566 S   0  0  0  0  0  0  0  0  0  0  0  0
   -4.0756    1.0201    2.1999 C   0  0  0  0  0  0  0  0  0  0  0  0
   -6.5954    1.7389    1.8348 O   0  0  0  0  0  0  0  0  0  0  0  0
   -5.9576   -0.6667    1.5003 O   0  0  0  0  0  0  0  0  0  0  0  0
   -5.2117    1.0457   -0.1435 O   0  0  0  0  0  0  0  0  0  0  0  0
   -3.6604    2.2924    2.1332 F   0  0  0  0  0  0  0  0  0  0  0  0
   -4.2043    0.6830    3.4900 F   0  0  0  0  0  0  0  0  0  0  0  0
   -3.0917    0.2430    1.6701 F   0  0  0  0  0  0  0  0  0  0  0  0
  1 10  1  0  0  0  0
  1  2  1  0  0  0  0
  2  3  1  0  0  0  0
  4  1  2  0  0  0  0
  5  6  2  0  0  0  0
  5  4  1  0  0  0  0
  6  9  1  0  0  0  0
  7  8  1  0  0  0  0
  7  6  1  0  0  0  0
  8 14  1  0  0  0  0
  9 16  1  0  0  0  0
  9 10  2  0  0  0  0
 10 17  1  0  0  0  0
 11  4  1  0  0  0  0
 12  5  1  0  0  0  0
 13  8  1  0  0  0  0
 15  8  1  0  0  0  0
 18 21  2  0  0  0  0
 18 20  1  0  0  0  0
 18 19  1  0  0  0  0
 19 24  1  0  0  0  0
 22 18  2  0  0  0  0
 23 19  1  0  0  0  0
 25 19  1  0  0  0  0
M  RAD  3   2   2   3   3  20   2
M  END
