Coordinates from ORCA-job 4-MeOPhN2+~TfO-_B3LYPG-6-31G_dp-NX-Scan-d89-09-n800
 OpenBabel11261920223D

 25 24  0  0  0  0  0  0  0  0999 V2000
   -4.7152   -3.5322   -0.5192 C   0  0  0  0  0  0  0  0  0  0  0  0
   -5.5026   -4.3286    0.2353 N   0  0  0  0  0  0  0  0  0  0  0  0
   -6.1575   -4.9834    0.8679 N   0  0  0  0  0  0  0  0  0  0  0  0
   -3.4459   -4.0126   -0.9434 C   0  0  0  0  0  0  0  0  0  0  0  0
   -2.6145   -3.1380   -1.5914 C   0  0  0  0  0  0  0  0  0  0  0  0
   -3.0128   -1.7844   -1.7931 C   0  0  0  0  0  0  0  0  0  0  0  0
   -2.0905   -1.0026   -2.3484 O   0  0  0  0  0  0  0  0  0  0  0  0
   -2.3333    0.4155   -2.4315 C   0  0  0  0  0  0  0  0  0  0  0  0
   -4.2921   -1.3457   -1.4075 C   0  0  0  0  0  0  0  0  0  0  0  0
   -5.1482   -2.2078   -0.7554 C   0  0  0  0  0  0  0  0  0  0  0  0
   -3.1467   -5.0340   -0.7379 H   0  0  0  0  0  0  0  0  0  0  0  0
   -1.6283   -3.4396   -1.9236 H   0  0  0  0  0  0  0  0  0  0  0  0
   -1.4071    0.8423   -2.8134 H   0  0  0  0  0  0  0  0  0  0  0  0
   -2.5595    0.8178   -1.4409 H   0  0  0  0  0  0  0  0  0  0  0  0
   -3.1530    0.6273   -3.1247 H   0  0  0  0  0  0  0  0  0  0  0  0
   -4.6138   -0.3186   -1.5114 H   0  0  0  0  0  0  0  0  0  0  0  0
   -6.1012   -1.8449   -0.3968 H   0  0  0  0  0  0  0  0  0  0  0  0
   -5.7243   -0.1844    1.8052 S   0  0  0  0  0  0  0  0  0  0  0  0
   -4.0535    0.6232    1.9650 C   0  0  0  0  0  0  0  0  0  0  0  0
   -6.4800    0.3421    2.9468 O   0  0  0  0  0  0  0  0  0  0  0  0
   -5.3896   -1.6399    1.8578 O   0  0  0  0  0  0  0  0  0  0  0  0
   -6.1670    0.2567    0.4538 O   0  0  0  0  0  0  0  0  0  0  0  0
   -4.1519    1.9584    1.9173 F   0  0  0  0  0  0  0  0  0  0  0  0
   -3.4478    0.2814    3.1090 F   0  0  0  0  0  0  0  0  0  0  0  0
   -3.2306    0.2437    0.9448 F   0  0  0  0  0  0  0  0  0  0  0  0
  1  2  1  0  0  0  0
  2  3  1  0  0  0  0
  4 11  1  0  0  0  0
  4  1  2  0  0  0  0
  5  4  1  0  0  0  0
  6  5  2  0  0  0  0
  6  9  1  0  0  0  0
  7  6  1  0  0  0  0
  8  7  1  0  0  0  0
  8 14  1  0  0  0  0
  9 10  2  0  0  0  0
 10  1  1  0  0  0  0
 10 17  1  0  0  0  0
 12  5  1  0  0  0  0
 13  8  1  0  0  0  0
 15  8  1  0  0  0  0
 16  9  1  0  0  0  0
 18 21  2  0  0  0  0
 18 19  1  0  0  0  0
 18 20  1  0  0  0  0
 19 24  1  0  0  0  0
 22 18  2  0  0  0  0
 23 19  1  0  0  0  0
 25 19  1  0  0  0  0
M  RAD  3   2   2   3   3  20   2
M  END
