Coordinates from ORCA-job 4-MeOPhN2+~TfO-_B3LYPG-6-31G_dp-NX-Scan-d89-09-n800
 OpenBabel11261920223D

 25 24  0  0  0  0  0  0  0  0999 V2000
   -4.2434   -3.0281   -0.4754 C   0  0  0  0  0  0  0  0  0  0  0  0
   -4.9453   -3.6217    0.5397 N   0  0  0  0  0  0  0  0  0  0  0  0
   -5.5273   -4.0823    1.3742 N   0  0  0  0  0  0  0  0  0  0  0  0
   -3.4793   -3.8637   -1.3254 C   0  0  0  0  0  0  0  0  0  0  0  0
   -2.7759   -3.2775   -2.3498 C   0  0  0  0  0  0  0  0  0  0  0  0
   -2.8311   -1.8730   -2.5393 C   0  0  0  0  0  0  0  0  0  0  0  0
   -2.1092   -1.4122   -3.5661 O   0  0  0  0  0  0  0  0  0  0  0  0
   -2.0872   -0.0044   -3.8384 C   0  0  0  0  0  0  0  0  0  0  0  0
   -3.6065   -1.0677   -1.6830 C   0  0  0  0  0  0  0  0  0  0  0  0
   -4.3203   -1.6319   -0.6388 C   0  0  0  0  0  0  0  0  0  0  0  0
   -3.4481   -4.9356   -1.1621 H   0  0  0  0  0  0  0  0  0  0  0  0
   -2.1699   -3.8677   -3.0274 H   0  0  0  0  0  0  0  0  0  0  0  0
   -1.4387    0.1130   -4.7055 H   0  0  0  0  0  0  0  0  0  0  0  0
   -1.6755    0.5510   -2.9898 H   0  0  0  0  0  0  0  0  0  0  0  0
   -3.0905    0.3638   -4.0752 H   0  0  0  0  0  0  0  0  0  0  0  0
   -3.6594    0.0058   -1.8142 H   0  0  0  0  0  0  0  0  0  0  0  0
   -4.9188   -1.0041    0.0309 H   0  0  0  0  0  0  0  0  0  0  0  0
   -5.9908   -0.4787    2.3875 S   0  0  0  0  0  0  0  0  0  0  0  0
   -5.1389    0.5010    3.7141 C   0  0  0  0  0  0  0  0  0  0  0  0
   -7.3881   -0.5789    2.8258 O   0  0  0  0  0  0  0  0  0  0  0  0
   -5.2267   -1.7657    2.3774 O   0  0  0  0  0  0  0  0  0  0  0  0
   -5.7403    0.3197    1.1538 O   0  0  0  0  0  0  0  0  0  0  0  0
   -5.6857    1.7201    3.8265 F   0  0  0  0  0  0  0  0  0  0  0  0
   -5.2365   -0.1205    4.8986 F   0  0  0  0  0  0  0  0  0  0  0  0
   -3.8332    0.6512    3.4261 F   0  0  0  0  0  0  0  0  0  0  0  0
  1  2  1  0  0  0  0
  2  3  1  0  0  0  0
  4 11  1  0  0  0  0
  4  1  2  0  0  0  0
  5  4  1  0  0  0  0
  6  5  2  0  0  0  0
  6  9  1  0  0  0  0
  7  6  1  0  0  0  0
  8  7  1  0  0  0  0
  8 14  1  0  0  0  0
  9 10  2  0  0  0  0
 10  1  1  0  0  0  0
 10 17  1  0  0  0  0
 12  5  1  0  0  0  0
 13  8  1  0  0  0  0
 15  8  1  0  0  0  0
 16  9  1  0  0  0  0
 18 20  1  0  0  0  0
 18 19  1  0  0  0  0
 19 23  1  0  0  0  0
 19 24  1  0  0  0  0
 21 18  2  0  0  0  0
 22 18  2  0  0  0  0
 25 19  1  0  0  0  0
M  RAD  3   2   2   3   3  20   2
M  END
