Coordinates from ORCA-job 4-MeOPhN2+~TfO-_B3LYPG-6-31G_dp-NX-Scan-d89-09-n800
 OpenBabel11261920223D

 25 24  0  0  0  0  0  0  0  0999 V2000
   -3.9902   -2.8838   -0.3628 C   0  0  0  0  0  0  0  0  0  0  0  0
   -4.5121   -3.3643    0.8146 N   0  0  0  0  0  0  0  0  0  0  0  0
   -4.9046   -3.5091    1.8588 N   0  0  0  0  0  0  0  0  0  0  0  0
   -3.7989   -3.7849   -1.4321 C   0  0  0  0  0  0  0  0  0  0  0  0
   -3.2819   -3.3021   -2.6126 C   0  0  0  0  0  0  0  0  0  0  0  0
   -2.9615   -1.9290   -2.7383 C   0  0  0  0  0  0  0  0  0  0  0  0
   -2.4721   -1.5660   -3.9312 O   0  0  0  0  0  0  0  0  0  0  0  0
   -2.1336   -0.1940   -4.1663 C   0  0  0  0  0  0  0  0  0  0  0  0
   -3.1643   -1.0476   -1.6585 C   0  0  0  0  0  0  0  0  0  0  0  0
   -3.6785   -1.5141   -0.4595 C   0  0  0  0  0  0  0  0  0  0  0  0
   -4.0578   -4.8316   -1.3179 H   0  0  0  0  0  0  0  0  0  0  0  0
   -3.1151   -3.9521   -3.4636 H   0  0  0  0  0  0  0  0  0  0  0  0
   -1.7719   -0.1560   -5.1931 H   0  0  0  0  0  0  0  0  0  0  0  0
   -1.3435    0.1377   -3.4849 H   0  0  0  0  0  0  0  0  0  0  0  0
   -3.0124    0.4500   -4.0602 H   0  0  0  0  0  0  0  0  0  0  0  0
   -2.9322    0.0062   -1.7427 H   0  0  0  0  0  0  0  0  0  0  0  0
   -3.8603   -0.8322    0.3696 H   0  0  0  0  0  0  0  0  0  0  0  0
   -5.5052   -0.4537    2.4064 S   0  0  0  0  0  0  0  0  0  0  0  0
   -5.8980    0.4025    4.0065 C   0  0  0  0  0  0  0  0  0  0  0  0
   -6.7729   -1.0590    1.9587 O   0  0  0  0  0  0  0  0  0  0  0  0
   -4.4641   -1.4665    2.8079 O   0  0  0  0  0  0  0  0  0  0  0  0
   -4.9416    0.6097    1.5422 O   0  0  0  0  0  0  0  0  0  0  0  0
   -6.8157    1.3582    3.8059 F   0  0  0  0  0  0  0  0  0  0  0  0
   -6.3813   -0.4747    4.8973 F   0  0  0  0  0  0  0  0  0  0  0  0
   -4.7974    0.9682    4.5201 F   0  0  0  0  0  0  0  0  0  0  0  0
  1  2  1  0  0  0  0
  2  3  1  0  0  0  0
  4 11  1  0  0  0  0
  4  1  2  0  0  0  0
  5  4  1  0  0  0  0
  6  5  2  0  0  0  0
  6  9  1  0  0  0  0
  7  6  1  0  0  0  0
  8 15  1  0  0  0  0
  8  7  1  0  0  0  0
  8 14  1  0  0  0  0
  9 10  2  0  0  0  0
 10  1  1  0  0  0  0
 10 17  1  0  0  0  0
 12  5  1  0  0  0  0
 13  8  1  0  0  0  0
 16  9  1  0  0  0  0
 18 21  1  0  0  0  0
 18 19  1  0  0  0  0
 19 25  1  0  0  0  0
 19 24  1  0  0  0  0
 20 18  2  0  0  0  0
 22 18  2  0  0  0  0
 23 19  1  0  0  0  0
M  RAD  3   2   2   3   3  21   2
M  END
