Coordinates from ORCA-job 4-MeOPhN2+~TfO-_B3LYPG-6-31G_dp-NX-Scan-d89-09-n800
 OpenBabel11261920223D

 25 24  0  0  0  0  0  0  0  0999 V2000
   -4.4377   -2.6127   -0.4511 C   0  0  0  0  0  0  0  0  0  0  0  0
   -5.2004   -2.9355    0.6527 N   0  0  0  0  0  0  0  0  0  0  0  0
   -5.8654   -2.7227    1.5501 N   0  0  0  0  0  0  0  0  0  0  0  0
   -3.7077   -3.6335   -1.0880 C   0  0  0  0  0  0  0  0  0  0  0  0
   -2.9348   -3.3119   -2.1830 C   0  0  0  0  0  0  0  0  0  0  0  0
   -2.8888   -1.9794   -2.6505 C   0  0  0  0  0  0  0  0  0  0  0  0
   -2.1016   -1.7743   -3.7184 O   0  0  0  0  0  0  0  0  0  0  0  0
   -1.9648   -0.4515   -4.2461 C   0  0  0  0  0  0  0  0  0  0  0  0
   -3.6376   -0.9726   -2.0092 C   0  0  0  0  0  0  0  0  0  0  0  0
   -4.4122   -1.2813   -0.9035 C   0  0  0  0  0  0  0  0  0  0  0  0
   -3.7516   -4.6488   -0.7099 H   0  0  0  0  0  0  0  0  0  0  0  0
   -2.3492   -4.0621   -2.7013 H   0  0  0  0  0  0  0  0  0  0  0  0
   -1.2745   -0.5413   -5.0843 H   0  0  0  0  0  0  0  0  0  0  0  0
   -1.5470    0.2298   -3.4969 H   0  0  0  0  0  0  0  0  0  0  0  0
   -2.9263   -0.0677   -4.6033 H   0  0  0  0  0  0  0  0  0  0  0  0
   -3.6124    0.0507   -2.3608 H   0  0  0  0  0  0  0  0  0  0  0  0
   -4.9994   -0.5325   -0.3860 H   0  0  0  0  0  0  0  0  0  0  0  0
   -5.0392   -0.0097    2.4463 S   0  0  0  0  0  0  0  0  0  0  0  0
   -5.6373   -0.2320    4.1905 C   0  0  0  0  0  0  0  0  0  0  0  0
   -6.1624   -0.6645    1.6410 O   0  0  0  0  0  0  0  0  0  0  0  0
   -3.7928   -0.7926    2.3668 O   0  0  0  0  0  0  0  0  0  0  0  0
   -4.9725    1.4380    2.2288 O   0  0  0  0  0  0  0  0  0  0  0  0
   -6.8007    0.4007    4.3765 F   0  0  0  0  0  0  0  0  0  0  0  0
   -5.8134   -1.5381    4.4520 F   0  0  0  0  0  0  0  0  0  0  0  0
   -4.7372    0.2572    5.0519 F   0  0  0  0  0  0  0  0  0  0  0  0
  1  2  1  0  0  0  0
  2  3  1  0  0  0  0
  4 11  1  0  0  0  0
  4  1  2  0  0  0  0
  5  4  1  0  0  0  0
  6  5  2  0  0  0  0
  6  9  1  0  0  0  0
  7  6  1  0  0  0  0
  8  7  1  0  0  0  0
  8 14  1  0  0  0  0
  9 10  2  0  0  0  0
 10  1  1  0  0  0  0
 10 17  1  0  0  0  0
 12  5  1  0  0  0  0
 13  8  1  0  0  0  0
 15  8  1  0  0  0  0
 16  9  1  0  0  0  0
 18 19  1  0  0  0  0
 19 23  1  0  0  0  0
 19 24  1  0  0  0  0
 19 25  1  0  0  0  0
 20 18  2  0  0  0  0
 21 18  1  0  0  0  0
 22 18  2  0  0  0  0
M  RAD  3   2   2   3   3  21   2
M  END
