Coordinates from ORCA-job 4-MeOPhN2+~TfO-_B3LYPG-6-31G_dp-NX-Scan-d89-09-n800
 OpenBabel11261920223D

 25 24  0  0  0  0  0  0  0  0999 V2000
   -4.2206   -2.6095   -0.4389 C   0  0  0  0  0  0  0  0  0  0  0  0
   -4.8455   -2.9596    0.7496 N   0  0  0  0  0  0  0  0  0  0  0  0
   -5.3830   -2.6360    1.7147 N   0  0  0  0  0  0  0  0  0  0  0  0
   -3.6711   -3.6507   -1.2110 C   0  0  0  0  0  0  0  0  0  0  0  0
   -3.0294   -3.3472   -2.3934 C   0  0  0  0  0  0  0  0  0  0  0  0
   -2.9292   -2.0044   -2.8169 C   0  0  0  0  0  0  0  0  0  0  0  0
   -2.2813   -1.8149   -3.9796 O   0  0  0  0  0  0  0  0  0  0  0  0
   -2.1109   -0.4859   -4.4774 C   0  0  0  0  0  0  0  0  0  0  0  0
   -3.4875   -0.9714   -2.0393 C   0  0  0  0  0  0  0  0  0  0  0  0
   -4.1352   -1.2663   -0.8489 C   0  0  0  0  0  0  0  0  0  0  0  0
   -3.7538   -4.6754   -0.8655 H   0  0  0  0  0  0  0  0  0  0  0  0
   -2.5906   -4.1197   -3.0140 H   0  0  0  0  0  0  0  0  0  0  0  0
   -1.5548   -0.5907   -5.4085 H   0  0  0  0  0  0  0  0  0  0  0  0
   -1.5375    0.1285   -3.7745 H   0  0  0  0  0  0  0  0  0  0  0  0
   -3.0776   -0.0126   -4.6803 H   0  0  0  0  0  0  0  0  0  0  0  0
   -3.4188    0.0621   -2.3547 H   0  0  0  0  0  0  0  0  0  0  0  0
   -4.5743   -0.4930   -0.2306 H   0  0  0  0  0  0  0  0  0  0  0  0
   -4.8254   -0.0580    2.8638 S   0  0  0  0  0  0  0  0  0  0  0  0
   -6.0737   -0.1408    4.2375 C   0  0  0  0  0  0  0  0  0  0  0  0
   -5.6054   -0.7377    1.7098 O   0  0  0  0  0  0  0  0  0  0  0  0
   -3.6931   -0.8761    3.3078 O   0  0  0  0  0  0  0  0  0  0  0  0
   -4.6298    1.3634    2.5782 O   0  0  0  0  0  0  0  0  0  0  0  0
   -7.1781    0.5372    3.9091 F   0  0  0  0  0  0  0  0  0  0  0  0
   -6.4053   -1.4172    4.4767 F   0  0  0  0  0  0  0  0  0  0  0  0
   -5.5550    0.3876    5.3508 F   0  0  0  0  0  0  0  0  0  0  0  0
  1  2  1  0  0  0  0
  2  3  2  0  0  0  0
  4 11  1  0  0  0  0
  4  1  2  0  0  0  0
  5  4  1  0  0  0  0
  6  5  2  0  0  0  0
  6  9  1  0  0  0  0
  7  6  1  0  0  0  0
  8  7  1  0  0  0  0
  8 14  1  0  0  0  0
  9 10  2  0  0  0  0
 10  1  1  0  0  0  0
 10 17  1  0  0  0  0
 12  5  1  0  0  0  0
 13  8  1  0  0  0  0
 15  8  1  0  0  0  0
 16  9  1  0  0  0  0
 18 21  1  0  0  0  0
 18 19  1  0  0  0  0
 19 24  1  0  0  0  0
 19 25  1  0  0  0  0
 20 18  2  0  0  0  0
 22 18  2  0  0  0  0
 23 19  1  0  0  0  0
M  RAD  2   3   2  21   2
M  END
