Coordinates from ORCA-job 4-MeOPhN2+~TfO-_B3LYPG-6-31G_dp-NX-Scan-d89-09-n800
 OpenBabel11261920223D

 25 25  0  0  0  0  0  0  0  0999 V2000
   -3.8267   -1.8113   -0.4095 C   0  0  0  0  0  0  0  0  0  0  0  0
   -4.2629   -1.8090    0.9580 N   0  0  0  0  0  0  0  0  0  0  0  0
   -4.4443   -0.6523    1.4421 N   0  0  0  0  0  0  0  0  0  0  0  0
   -3.7082   -3.1036   -0.9516 C   0  0  0  0  0  0  0  0  0  0  0  0
   -3.2923   -3.2859   -2.2581 C   0  0  0  0  0  0  0  0  0  0  0  0
   -2.9786   -2.1778   -3.0638 C   0  0  0  0  0  0  0  0  0  0  0  0
   -2.5783   -2.4629   -4.3316 O   0  0  0  0  0  0  0  0  0  0  0  0
   -2.2409   -1.3848   -5.1930 C   0  0  0  0  0  0  0  0  0  0  0  0
   -3.0911   -0.8891   -2.5315 C   0  0  0  0  0  0  0  0  0  0  0  0
   -3.5135   -0.7077   -1.2105 C   0  0  0  0  0  0  0  0  0  0  0  0
   -3.9509   -3.9511   -0.3200 H   0  0  0  0  0  0  0  0  0  0  0  0
   -3.1993   -4.2796   -2.6831 H   0  0  0  0  0  0  0  0  0  0  0  0
   -1.9499   -1.8378   -6.1411 H   0  0  0  0  0  0  0  0  0  0  0  0
   -1.3993   -0.8017   -4.7981 H   0  0  0  0  0  0  0  0  0  0  0  0
   -3.0964   -0.7175   -5.3589 H   0  0  0  0  0  0  0  0  0  0  0  0
   -2.8530   -0.0158   -3.1263 H   0  0  0  0  0  0  0  0  0  0  0  0
   -3.5800    0.3103   -0.8421 H   0  0  0  0  0  0  0  0  0  0  0  0
   -5.1751    0.2157    3.9643 S   0  0  2  0  0  0  0  0  0  0  0  0
   -6.6923   -0.5239    4.8076 C   0  0  0  0  0  0  0  0  0  0  0  0
   -4.4254    0.2566    1.3009 O   0  0  0  0  0  0  0  0  0  0  0  0
   -4.9609   -1.1200    3.0716 O   0  0  0  0  0  0  0  0  0  0  0  0
   -4.1411    0.3814    5.0196 O   0  0  0  0  0  0  0  0  0  0  0  0
   -7.1191    0.3546    5.7255 F   0  0  0  0  0  0  0  0  0  0  0  0
   -7.6552   -0.6906    3.8915 F   0  0  0  0  0  0  0  0  0  0  0  0
   -6.4326   -1.6846    5.4024 F   0  0  0  0  0  0  0  0  0  0  0  0
  1  2  1  0  0  0  0
  2  3  1  0  0  0  0
  3 21  1  0  0  0  0
  4  1  1  0  0  0  0
  4 11  1  0  0  0  0
  5  4  2  0  0  0  0
  6  9  2  0  0  0  0
  6  5  1  0  0  0  0
  7  6  1  0  0  0  0
  8 14  1  0  0  0  0
  8  7  1  0  0  0  0
  9 10  1  0  0  0  0
 10 17  1  0  0  0  0
 10  1  2  0  0  0  0
 12  5  1  0  0  0  0
 13  8  1  0  0  0  0
 15  8  1  0  0  0  0
 16  9  1  0  0  0  0
 18 21  1  6  0  0  0
 18 19  1  0  0  0  0
 18 22  1  0  0  0  0
 19 25  1  0  0  0  0
 19 23  1  0  0  0  0
 20  3  1  0  0  0  0
 24 19  1  0  0  0  0
M  RAD  3   2   2  20   2  22   2
M  END
