Coordinates from ORCA-job 4-MeOPhN2+~TfO-_B3LYPG-6-31G_dp-NX-Scan-d89-09-n800
 OpenBabel11261920223D

 25 24  0  0  0  0  0  0  0  0999 V2000
   -4.7142   -3.5685   -0.5281 C   0  0  0  0  0  0  0  0  0  0  0  0
   -5.5042   -4.3893    0.1953 N   0  0  0  0  0  0  0  0  0  0  0  0
   -6.1624   -5.0666    0.8012 N   0  0  0  0  0  0  0  0  0  0  0  0
   -3.4418   -4.0347   -0.9617 C   0  0  0  0  0  0  0  0  0  0  0  0
   -2.6153   -3.1444   -1.5930 C   0  0  0  0  0  0  0  0  0  0  0  0
   -3.0217   -1.7893   -1.7723 C   0  0  0  0  0  0  0  0  0  0  0  0
   -2.1061   -0.9955   -2.3204 O   0  0  0  0  0  0  0  0  0  0  0  0
   -2.3603    0.4217   -2.3931 C   0  0  0  0  0  0  0  0  0  0  0  0
   -4.3015   -1.3630   -1.3756 C   0  0  0  0  0  0  0  0  0  0  0  0
   -5.1521   -2.2404   -0.7364 C   0  0  0  0  0  0  0  0  0  0  0  0
   -3.1389   -5.0590   -0.7772 H   0  0  0  0  0  0  0  0  0  0  0  0
   -1.6281   -3.4351   -1.9319 H   0  0  0  0  0  0  0  0  0  0  0  0
   -1.4398    0.8573   -2.7790 H   0  0  0  0  0  0  0  0  0  0  0  0
   -2.5829    0.8158   -1.3987 H   0  0  0  0  0  0  0  0  0  0  0  0
   -3.1864    0.6306   -3.0793 H   0  0  0  0  0  0  0  0  0  0  0  0
   -4.6295   -0.3358   -1.4576 H   0  0  0  0  0  0  0  0  0  0  0  0
   -6.1073   -1.8906   -0.3720 H   0  0  0  0  0  0  0  0  0  0  0  0
   -5.7069   -0.1349    1.7776 S   0  0  0  0  0  0  0  0  0  0  0  0
   -4.0292    0.6547    1.9526 C   0  0  0  0  0  0  0  0  0  0  0  0
   -6.4723    0.4122    2.9028 O   0  0  0  0  0  0  0  0  0  0  0  0
   -5.3898   -1.5933    1.8504 O   0  0  0  0  0  0  0  0  0  0  0  0
   -6.1259    0.2972    0.4157 O   0  0  0  0  0  0  0  0  0  0  0  0
   -4.1094    1.9903    1.8820 F   0  0  0  0  0  0  0  0  0  0  0  0
   -3.4461    0.3235    3.1112 F   0  0  0  0  0  0  0  0  0  0  0  0
   -3.1948    0.2487    0.9516 F   0  0  0  0  0  0  0  0  0  0  0  0
  1  2  1  0  0  0  0
  2  3  1  0  0  0  0
  4 11  1  0  0  0  0
  4  1  2  0  0  0  0
  5  4  1  0  0  0  0
  6  5  2  0  0  0  0
  6  9  1  0  0  0  0
  7  6  1  0  0  0  0
  8  7  1  0  0  0  0
  8 14  1  0  0  0  0
  9 10  2  0  0  0  0
 10  1  1  0  0  0  0
 10 17  1  0  0  0  0
 12  5  1  0  0  0  0
 13  8  1  0  0  0  0
 15  8  1  0  0  0  0
 16  9  1  0  0  0  0
 18 21  2  0  0  0  0
 18 19  1  0  0  0  0
 18 20  1  0  0  0  0
 19 24  1  0  0  0  0
 22 18  2  0  0  0  0
 23 19  1  0  0  0  0
 25 19  1  0  0  0  0
M  RAD  3   2   2   3   3  20   2
M  END
