Coordinates from ORCA-job 4-MeOPhN2+~TfO-_B3LYPG-6-31G_dp-NX-Scan-d89-09-n800
 OpenBabel11261920223D

 25 24  0  0  0  0  0  0  0  0999 V2000
   -4.5101   -3.9451   -0.5827 C   0  0  0  0  0  0  0  0  0  0  0  0
   -5.1892   -4.9039    0.0800 N   0  0  0  0  0  0  0  0  0  0  0  0
   -5.7790   -5.6698    0.6529 N   0  0  0  0  0  0  0  0  0  0  0  0
   -3.4083   -4.3032   -1.4121 C   0  0  0  0  0  0  0  0  0  0  0  0
   -2.7156   -3.2924   -2.0236 C   0  0  0  0  0  0  0  0  0  0  0  0
   -3.0945   -1.9322   -1.8146 C   0  0  0  0  0  0  0  0  0  0  0  0
   -2.3217   -1.0257   -2.3946 O   0  0  0  0  0  0  0  0  0  0  0  0
   -2.5857    0.3777   -2.1441 C   0  0  0  0  0  0  0  0  0  0  0  0
   -4.2132   -1.6053   -1.0216 C   0  0  0  0  0  0  0  0  0  0  0  0
   -4.9197   -2.6022   -0.3895 C   0  0  0  0  0  0  0  0  0  0  0  0
   -3.1277   -5.3429   -1.5388 H   0  0  0  0  0  0  0  0  0  0  0  0
   -1.8582   -3.5006   -2.6533 H   0  0  0  0  0  0  0  0  0  0  0  0
   -1.7755    0.9086   -2.6405 H   0  0  0  0  0  0  0  0  0  0  0  0
   -2.5861    0.5796   -1.0707 H   0  0  0  0  0  0  0  0  0  0  0  0
   -3.5494    0.6662   -2.5701 H   0  0  0  0  0  0  0  0  0  0  0  0
   -4.5405   -0.5787   -0.8391 H   0  0  0  0  0  0  0  0  0  0  0  0
   -5.7233   -2.3174    0.2892 H   0  0  0  0  0  0  0  0  0  0  0  0
   -5.7248    0.5700    1.4242 S   0  0  0  0  0  0  0  0  0  0  0  0
   -4.0647    0.9549    2.1686 C   0  0  0  0  0  0  0  0  0  0  0  0
   -6.6668    1.4426    2.1291 O   0  0  0  0  0  0  0  0  0  0  0  0
   -5.8651   -0.8898    1.6935 O   0  0  0  0  0  0  0  0  0  0  0  0
   -5.4843    0.8874   -0.0149 O   0  0  0  0  0  0  0  0  0  0  0  0
   -3.7767    2.2599    2.0707 F   0  0  0  0  0  0  0  0  0  0  0  0
   -3.9987    0.6012    3.4585 F   0  0  0  0  0  0  0  0  0  0  0  0
   -3.0881    0.2731    1.5078 F   0  0  0  0  0  0  0  0  0  0  0  0
  1 10  1  0  0  0  0
  1  2  1  0  0  0  0
  2  3  1  0  0  0  0
  4  1  2  0  0  0  0
  5  6  2  0  0  0  0
  5  4  1  0  0  0  0
  6  9  1  0  0  0  0
  7  8  1  0  0  0  0
  7  6  1  0  0  0  0
  8 14  1  0  0  0  0
  9 16  1  0  0  0  0
  9 10  2  0  0  0  0
 10 17  1  0  0  0  0
 11  4  1  0  0  0  0
 12  5  1  0  0  0  0
 13  8  1  0  0  0  0
 15  8  1  0  0  0  0
 18 21  2  0  0  0  0
 18 20  1  0  0  0  0
 18 19  1  0  0  0  0
 19 24  1  0  0  0  0
 22 18  2  0  0  0  0
 23 19  1  0  0  0  0
 25 19  1  0  0  0  0
M  RAD  3   2   2   3   3  20   2
M  END
