Coordinates from ORCA-job 4-MeOPhN2+~TfO-_B3LYPG-6-31G_dp-NX-Scan-d89-09-n800
 OpenBabel11261920223D

 25 24  0  0  0  0  0  0  0  0999 V2000
   -4.1144   -2.5879   -0.4173 C   0  0  0  0  0  0  0  0  0  0  0  0
   -4.6735   -2.9336    0.8064 N   0  0  0  0  0  0  0  0  0  0  0  0
   -5.1406   -2.5745    1.8005 N   0  0  0  0  0  0  0  0  0  0  0  0
   -3.6662   -3.6426   -1.2354 C   0  0  0  0  0  0  0  0  0  0  0  0
   -3.0927   -3.3561   -2.4567 C   0  0  0  0  0  0  0  0  0  0  0  0
   -2.9585   -2.0150   -2.8746 C   0  0  0  0  0  0  0  0  0  0  0  0
   -2.3851   -1.8419   -4.0791 O   0  0  0  0  0  0  0  0  0  0  0  0
   -2.1928   -0.5168   -4.5782 C   0  0  0  0  0  0  0  0  0  0  0  0
   -3.4115   -0.9670   -2.0505 C   0  0  0  0  0  0  0  0  0  0  0  0
   -3.9917   -1.2457   -0.8216 C   0  0  0  0  0  0  0  0  0  0  0  0
   -3.7743   -4.6664   -0.8941 H   0  0  0  0  0  0  0  0  0  0  0  0
   -2.7345   -4.1410   -3.1126 H   0  0  0  0  0  0  0  0  0  0  0  0
   -1.7137   -0.6359   -5.5495 H   0  0  0  0  0  0  0  0  0  0  0  0
   -1.5410    0.0640   -3.9164 H   0  0  0  0  0  0  0  0  0  0  0  0
   -3.1495    0.0018   -4.7033 H   0  0  0  0  0  0  0  0  0  0  0  0
   -3.3150    0.0660   -2.3608 H   0  0  0  0  0  0  0  0  0  0  0  0
   -4.3492   -0.4592   -0.1686 H   0  0  0  0  0  0  0  0  0  0  0  0
   -4.7491   -0.0466    3.0817 S   0  0  0  0  0  0  0  0  0  0  0  0
   -6.2458   -0.1512    4.1789 C   0  0  0  0  0  0  0  0  0  0  0  0
   -5.2907   -0.7095    1.7817 O   0  0  0  0  0  0  0  0  0  0  0  0
   -3.7255   -0.8693    3.7269 O   0  0  0  0  0  0  0  0  0  0  0  0
   -4.5138    1.3777    2.8512 O   0  0  0  0  0  0  0  0  0  0  0  0
   -7.2688    0.5201    3.6402 F   0  0  0  0  0  0  0  0  0  0  0  0
   -6.6063   -1.4314    4.3406 F   0  0  0  0  0  0  0  0  0  0  0  0
   -5.9628    0.3738    5.3749 F   0  0  0  0  0  0  0  0  0  0  0  0
  1  2  1  0  0  0  0
  2  3  2  0  0  0  0
  4 11  1  0  0  0  0
  4  1  2  0  0  0  0
  5  4  1  0  0  0  0
  6  5  2  0  0  0  0
  6  9  1  0  0  0  0
  7  6  1  0  0  0  0
  8  7  1  0  0  0  0
  8 14  1  0  0  0  0
  9 10  2  0  0  0  0
 10  1  1  0  0  0  0
 10 17  1  0  0  0  0
 12  5  1  0  0  0  0
 13  8  1  0  0  0  0
 15  8  1  0  0  0  0
 16  9  1  0  0  0  0
 18 21  1  0  0  0  0
 18 19  1  0  0  0  0
 19 24  1  0  0  0  0
 19 25  1  0  0  0  0
 20 18  2  0  0  0  0
 22 18  2  0  0  0  0
 23 19  1  0  0  0  0
M  RAD  2   3   2  21   2
M  END
