Coordinates from ORCA-job 4-MeOPhN2+~TfO-_B3LYPG-6-31G_dp-NX-Scan-d89-09-n800
 OpenBabel11261920223D

 25 24  0  0  0  0  0  0  0  0999 V2000
   -3.9369   -2.8055   -0.2749 C   0  0  0  0  0  0  0  0  0  0  0  0
   -4.4051   -3.2297    0.9463 N   0  0  0  0  0  0  0  0  0  0  0  0
   -4.7309   -3.2757    2.0210 N   0  0  0  0  0  0  0  0  0  0  0  0
   -4.0024   -3.6812   -1.3768 C   0  0  0  0  0  0  0  0  0  0  0  0
   -3.5510   -3.2329   -2.5983 C   0  0  0  0  0  0  0  0  0  0  0  0
   -3.0413   -1.9200   -2.7298 C   0  0  0  0  0  0  0  0  0  0  0  0
   -2.6392   -1.5852   -3.9638 O   0  0  0  0  0  0  0  0  0  0  0  0
   -2.1351   -0.2666   -4.2064 C   0  0  0  0  0  0  0  0  0  0  0  0
   -2.9810   -1.0629   -1.6131 C   0  0  0  0  0  0  0  0  0  0  0  0
   -3.4276   -1.4975   -0.3765 C   0  0  0  0  0  0  0  0  0  0  0  0
   -4.4071   -4.6799   -1.2588 H   0  0  0  0  0  0  0  0  0  0  0  0
   -3.5836   -3.8649   -3.4781 H   0  0  0  0  0  0  0  0  0  0  0  0
   -1.8965   -0.2374   -5.2688 H   0  0  0  0  0  0  0  0  0  0  0  0
   -1.2287   -0.0790   -3.6218 H   0  0  0  0  0  0  0  0  0  0  0  0
   -2.8915    0.4909   -3.9766 H   0  0  0  0  0  0  0  0  0  0  0  0
   -2.5985   -0.0545   -1.6998 H   0  0  0  0  0  0  0  0  0  0  0  0
   -3.4008   -0.8534    0.4963 H   0  0  0  0  0  0  0  0  0  0  0  0
   -5.3315   -0.3363    2.3263 S   0  0  0  0  0  0  0  0  0  0  0  0
   -6.0867    0.2000    3.9345 C   0  0  0  0  0  0  0  0  0  0  0  0
   -6.3634   -1.1759    1.6748 O   0  0  0  0  0  0  0  0  0  0  0  0
   -4.1367   -1.1519    2.7570 O   0  0  0  0  0  0  0  0  0  0  0  0
   -4.9592    0.9115    1.6371 O   0  0  0  0  0  0  0  0  0  0  0  0
   -7.1891    0.9272    3.7094 F   0  0  0  0  0  0  0  0  0  0  0  0
   -6.4239   -0.8697    4.6706 F   0  0  0  0  0  0  0  0  0  0  0  0
   -5.2193    0.9423    4.6347 F   0  0  0  0  0  0  0  0  0  0  0  0
  1  2  1  0  0  0  0
  2  3  1  0  0  0  0
  4 11  1  0  0  0  0
  4  1  2  0  0  0  0
  5  4  1  0  0  0  0
  6  5  2  0  0  0  0
  6  9  1  0  0  0  0
  7  6  1  0  0  0  0
  8 15  1  0  0  0  0
  8  7  1  0  0  0  0
  8 14  1  0  0  0  0
  9 10  2  0  0  0  0
 10  1  1  0  0  0  0
 10 17  1  0  0  0  0
 12  5  1  0  0  0  0
 13  8  1  0  0  0  0
 16  9  1  0  0  0  0
 18 21  1  0  0  0  0
 18 19  1  0  0  0  0
 19 25  1  0  0  0  0
 19 24  1  0  0  0  0
 20 18  2  0  0  0  0
 22 18  2  0  0  0  0
 23 19  1  0  0  0  0
M  RAD  3   2   2   3   3  21   2
M  END
