Coordinates from ORCA-job 4-MeOPhN2+~TfO-_B3LYPG-6-31G_dp-NX-Scan-d89-09-n800
 OpenBabel11261920223D

 25 24  0  0  0  0  0  0  0  0999 V2000
   -4.0538   -4.1965   -0.2930 C   0  0  0  0  0  0  0  0  0  0  0  0
   -4.4289   -5.4523    0.0182 N   0  0  0  0  0  0  0  0  0  0  0  0
   -4.7312   -6.5092    0.2648 N   0  0  0  0  0  0  0  0  0  0  0  0
   -4.9488   -3.3469   -1.0123 C   0  0  0  0  0  0  0  0  0  0  0  0
   -4.5241   -2.0929   -1.3558 C   0  0  0  0  0  0  0  0  0  0  0  0
   -3.2248   -1.6539   -0.9729 C   0  0  0  0  0  0  0  0  0  0  0  0
   -2.9017   -0.4453   -1.3763 O   0  0  0  0  0  0  0  0  0  0  0  0
   -1.7709    0.2506   -0.8282 C   0  0  0  0  0  0  0  0  0  0  0  0
   -2.3608   -2.4950   -0.2156 C   0  0  0  0  0  0  0  0  0  0  0  0
   -2.7633   -3.7647    0.1157 C   0  0  0  0  0  0  0  0  0  0  0  0
   -5.9509   -3.6834   -1.2514 H   0  0  0  0  0  0  0  0  0  0  0  0
   -5.1768   -1.3497   -1.8207 H   0  0  0  0  0  0  0  0  0  0  0  0
   -1.8474    1.2608   -1.2244 H   0  0  0  0  0  0  0  0  0  0  0  0
   -0.8331   -0.2120   -1.1520 H   0  0  0  0  0  0  0  0  0  0  0  0
   -1.8481    0.2781    0.2606 H   0  0  0  0  0  0  0  0  0  0  0  0
   -1.3842   -2.1468    0.0944 H   0  0  0  0  0  0  0  0  0  0  0  0
   -2.1170   -4.4338    0.6731 H   0  0  0  0  0  0  0  0  0  0  0  0
   -6.4802    0.7103   -0.2979 S   0  0  0  0  0  0  0  0  0  0  0  0
   -5.0703    1.1826    0.8377 C   0  0  0  0  0  0  0  0  0  0  0  0
   -7.3786    1.8699   -0.2042 O   0  0  0  0  0  0  0  0  0  0  0  0
   -6.9440   -0.5654    0.2947 O   0  0  0  0  0  0  0  0  0  0  0  0
   -5.7851    0.5394   -1.6068 O   0  0  0  0  0  0  0  0  0  0  0  0
   -4.2858    2.1409    0.3051 F   0  0  0  0  0  0  0  0  0  0  0  0
   -5.5055    1.6157    2.0268 F   0  0  0  0  0  0  0  0  0  0  0  0
   -4.2516    0.1115    1.0846 F   0  0  0  0  0  0  0  0  0  0  0  0
  1  2  1  0  0  0  0
  1 10  2  0  0  0  0
  2  3  1  0  0  0  0
  4  1  1  0  0  0  0
  5  4  2  0  0  0  0
  5  6  1  0  0  0  0
  6  9  2  0  0  0  0
  7  6  1  0  0  0  0
  7  8  1  0  0  0  0
  8 15  1  0  0  0  0
  9 16  1  0  0  0  0
  9 10  1  0  0  0  0
 10 17  1  0  0  0  0
 11  4  1  0  0  0  0
 12  5  1  0  0  0  0
 13  8  1  0  0  0  0
 14  8  1  0  0  0  0
 18 20  2  0  0  0  0
 18 21  1  0  0  0  0
 18 19  1  0  0  0  0
 19 25  1  0  0  0  0
 19 24  1  0  0  0  0
 22 18  2  0  0  0  0
 23 19  1  0  0  0  0
M  RAD  3   2   2   3   3  21   2
M  END
