Coordinates from ORCA-job 4-MeOPhN2+~TfO-_B3LYPG-6-31G_dp-NX-Scan-d89-09-n800
 OpenBabel11261920223D

 25 24  0  0  0  0  0  0  0  0999 V2000
   -4.2407   -3.0208   -0.4492 C   0  0  0  0  0  0  0  0  0  0  0  0
   -4.9415   -3.6287    0.5589 N   0  0  0  0  0  0  0  0  0  0  0  0
   -5.5086   -4.1692    1.3543 N   0  0  0  0  0  0  0  0  0  0  0  0
   -3.4502   -3.8515   -1.2814 C   0  0  0  0  0  0  0  0  0  0  0  0
   -2.7489   -3.2647   -2.3067 C   0  0  0  0  0  0  0  0  0  0  0  0
   -2.8307   -1.8644   -2.5161 C   0  0  0  0  0  0  0  0  0  0  0  0
   -2.1079   -1.4027   -3.5417 O   0  0  0  0  0  0  0  0  0  0  0  0
   -2.1117    0.0016   -3.8324 C   0  0  0  0  0  0  0  0  0  0  0  0
   -3.6302   -1.0642   -1.6776 C   0  0  0  0  0  0  0  0  0  0  0  0
   -4.3422   -1.6293   -0.6329 C   0  0  0  0  0  0  0  0  0  0  0  0
   -3.3987   -4.9204   -1.1041 H   0  0  0  0  0  0  0  0  0  0  0  0
   -2.1243   -3.8518   -2.9700 H   0  0  0  0  0  0  0  0  0  0  0  0
   -1.4577    0.1207   -4.6952 H   0  0  0  0  0  0  0  0  0  0  0  0
   -1.7189    0.5762   -2.9876 H   0  0  0  0  0  0  0  0  0  0  0  0
   -3.1199    0.3464   -4.0829 H   0  0  0  0  0  0  0  0  0  0  0  0
   -3.7025    0.0065   -1.8213 H   0  0  0  0  0  0  0  0  0  0  0  0
   -4.9539   -1.0046    0.0251 H   0  0  0  0  0  0  0  0  0  0  0  0
   -6.0210   -0.4310    2.3431 S   0  0  0  0  0  0  0  0  0  0  0  0
   -5.0972    0.4564    3.6862 C   0  0  0  0  0  0  0  0  0  0  0  0
   -7.4165   -0.4587    2.7962 O   0  0  0  0  0  0  0  0  0  0  0  0
   -5.3389   -1.7628    2.2900 O   0  0  0  0  0  0  0  0  0  0  0  0
   -5.7319    0.3823    1.1289 O   0  0  0  0  0  0  0  0  0  0  0  0
   -5.5638    1.7043    3.8372 F   0  0  0  0  0  0  0  0  0  0  0  0
   -5.2226   -0.1895    4.8551 F   0  0  0  0  0  0  0  0  0  0  0  0
   -3.7868    0.5315    3.3883 F   0  0  0  0  0  0  0  0  0  0  0  0
  1  2  1  0  0  0  0
  2  3  1  0  0  0  0
  4 11  1  0  0  0  0
  4  1  2  0  0  0  0
  5  4  1  0  0  0  0
  6  5  2  0  0  0  0
  6  9  1  0  0  0  0
  7  6  1  0  0  0  0
  8  7  1  0  0  0  0
  8 14  1  0  0  0  0
  9 10  2  0  0  0  0
 10  1  1  0  0  0  0
 10 17  1  0  0  0  0
 12  5  1  0  0  0  0
 13  8  1  0  0  0  0
 15  8  1  0  0  0  0
 16  9  1  0  0  0  0
 18 20  1  0  0  0  0
 18 19  1  0  0  0  0
 19 23  1  0  0  0  0
 19 24  1  0  0  0  0
 21 18  2  0  0  0  0
 22 18  2  0  0  0  0
 25 19  1  0  0  0  0
M  RAD  3   2   2   3   3  20   2
M  END
