Coordinates from ORCA-job 4-MeOPhN2+~TfO-_B3LYPG-6-31G_dp-NX-Scan-d89-09-n800
 OpenBabel11261920223D

 25 24  0  0  0  0  0  0  0  0999 V2000
   -4.1538   -4.0344   -0.2298 C   0  0  0  0  0  0  0  0  0  0  0  0
   -4.6117   -5.2314    0.1853 N   0  0  0  0  0  0  0  0  0  0  0  0
   -4.9767   -6.2442    0.5172 N   0  0  0  0  0  0  0  0  0  0  0  0
   -4.9546   -3.2312   -1.0946 C   0  0  0  0  0  0  0  0  0  0  0  0
   -4.4382   -2.0465   -1.5445 C   0  0  0  0  0  0  0  0  0  0  0  0
   -3.1578   -1.6155   -1.1069 C   0  0  0  0  0  0  0  0  0  0  0  0
   -2.7541   -0.4601   -1.5953 O   0  0  0  0  0  0  0  0  0  0  0  0
   -1.6511    0.2473   -1.0074 C   0  0  0  0  0  0  0  0  0  0  0  0
   -2.3888   -2.4073   -0.2077 C   0  0  0  0  0  0  0  0  0  0  0  0
   -2.8731   -3.6164    0.2232 C   0  0  0  0  0  0  0  0  0  0  0  0
   -5.9599   -3.5374   -1.3561 H   0  0  0  0  0  0  0  0  0  0  0  0
   -5.0335   -1.3362   -2.1130 H   0  0  0  0  0  0  0  0  0  0  0  0
   -1.6045    1.1922   -1.5447 H   0  0  0  0  0  0  0  0  0  0  0  0
   -0.7130   -0.3019   -1.1403 H   0  0  0  0  0  0  0  0  0  0  0  0
   -1.8586    0.4316    0.0489 H   0  0  0  0  0  0  0  0  0  0  0  0
   -1.4235   -2.0655    0.1413 H   0  0  0  0  0  0  0  0  0  0  0  0
   -2.3008   -4.2468    0.8949 H   0  0  0  0  0  0  0  0  0  0  0  0
   -6.4294    0.5222   -0.2464 S   0  0  0  0  0  0  0  0  0  0  0  0
   -5.1184    0.9970    0.9942 C   0  0  0  0  0  0  0  0  0  0  0  0
   -7.4529    1.5611   -0.0610 O   0  0  0  0  0  0  0  0  0  0  0  0
   -6.7820   -0.8564    0.1766 O   0  0  0  0  0  0  0  0  0  0  0  0
   -5.6733    0.5780   -1.5284 O   0  0  0  0  0  0  0  0  0  0  0  0
   -4.5355    2.1679    0.6892 F   0  0  0  0  0  0  0  0  0  0  0  0
   -5.6084    1.0833    2.2373 F   0  0  0  0  0  0  0  0  0  0  0  0
   -4.1133    0.0624    1.0323 F   0  0  0  0  0  0  0  0  0  0  0  0
  1  2  1  0  0  0  0
  1 10  1  0  0  0  0
  2  3  1  0  0  0  0
  4  1  2  0  0  0  0
  5  6  2  0  0  0  0
  5  4  1  0  0  0  0
  6  9  1  0  0  0  0
  7  6  1  0  0  0  0
  7  8  1  0  0  0  0
  8 15  1  0  0  0  0
  9 16  1  0  0  0  0
  9 10  2  0  0  0  0
 10 17  1  0  0  0  0
 11  4  1  0  0  0  0
 12  5  1  0  0  0  0
 13  8  1  0  0  0  0
 14  8  1  0  0  0  0
 18 20  2  0  0  0  0
 18 21  1  0  0  0  0
 18 19  1  0  0  0  0
 19 25  1  0  0  0  0
 19 24  1  0  0  0  0
 22 18  2  0  0  0  0
 23 19  1  0  0  0  0
M  RAD  3   2   2   3   3  21   2
M  END
