Coordinates from ORCA-job 4-MeOPhN2+~TfO-_B3LYPG-6-31G_dp-NX-Scan-d89-09-n800
 OpenBabel11261920223D

 25 24  0  0  0  0  0  0  0  0999 V2000
   -4.4688   -4.0373   -0.5842 C   0  0  0  0  0  0  0  0  0  0  0  0
   -5.1155   -5.0420    0.0400 N   0  0  0  0  0  0  0  0  0  0  0  0
   -5.6710   -5.8610    0.5738 N   0  0  0  0  0  0  0  0  0  0  0  0
   -3.4246   -4.3466   -1.5040 C   0  0  0  0  0  0  0  0  0  0  0  0
   -2.7672   -3.3047   -2.1013 C   0  0  0  0  0  0  0  0  0  0  0  0
   -3.1287   -1.9584   -1.7958 C   0  0  0  0  0  0  0  0  0  0  0  0
   -2.4062   -1.0213   -2.3861 O   0  0  0  0  0  0  0  0  0  0  0  0
   -2.6590    0.3713   -2.0565 C   0  0  0  0  0  0  0  0  0  0  0  0
   -4.1870   -1.6758   -0.9045 C   0  0  0  0  0  0  0  0  0  0  0  0
   -4.8538   -2.7047   -0.2832 C   0  0  0  0  0  0  0  0  0  0  0  0
   -3.1614   -5.3778   -1.7106 H   0  0  0  0  0  0  0  0  0  0  0  0
   -1.9565   -3.4789   -2.7997 H   0  0  0  0  0  0  0  0  0  0  0  0
   -1.9072    0.9289   -2.6112 H   0  0  0  0  0  0  0  0  0  0  0  0
   -2.5547    0.5305   -0.9812 H   0  0  0  0  0  0  0  0  0  0  0  0
   -3.6653    0.6622   -2.3634 H   0  0  0  0  0  0  0  0  0  0  0  0
   -4.4990   -0.6529   -0.6742 H   0  0  0  0  0  0  0  0  0  0  0  0
   -5.6275   -2.4516    0.4397 H   0  0  0  0  0  0  0  0  0  0  0  0
   -5.6693    0.7283    1.2878 S   0  0  0  0  0  0  0  0  0  0  0  0
   -4.0794    1.0353    2.2018 C   0  0  0  0  0  0  0  0  0  0  0  0
   -6.6295    1.6659    1.8754 O   0  0  0  0  0  0  0  0  0  0  0  0
   -5.9168   -0.7169    1.5479 O   0  0  0  0  0  0  0  0  0  0  0  0
   -5.2554    1.0082   -0.1212 O   0  0  0  0  0  0  0  0  0  0  0  0
   -3.7068    2.3197    2.1165 F   0  0  0  0  0  0  0  0  0  0  0  0
   -4.1756    0.7065    3.4967 F   0  0  0  0  0  0  0  0  0  0  0  0
   -3.0807    0.2851    1.6617 F   0  0  0  0  0  0  0  0  0  0  0  0
  1 10  1  0  0  0  0
  1  2  1  0  0  0  0
  2  3  1  0  0  0  0
  4  1  2  0  0  0  0
  5  6  2  0  0  0  0
  5  4  1  0  0  0  0
  6  9  1  0  0  0  0
  7  8  1  0  0  0  0
  7  6  1  0  0  0  0
  8 14  1  0  0  0  0
  9 16  1  0  0  0  0
  9 10  2  0  0  0  0
 10 17  1  0  0  0  0
 11  4  1  0  0  0  0
 12  5  1  0  0  0  0
 13  8  1  0  0  0  0
 15  8  1  0  0  0  0
 18 21  2  0  0  0  0
 18 20  1  0  0  0  0
 18 19  1  0  0  0  0
 19 24  1  0  0  0  0
 22 18  2  0  0  0  0
 23 19  1  0  0  0  0
 25 19  1  0  0  0  0
M  RAD  3   2   2   3   3  20   2
M  END
