Coordinates from ORCA-job 4-MeOPhN2+~TfO-_B3LYPG-6-31G_dp-NX-Scan-d89-09-n800
 OpenBabel11261920223D

 25 25  0  0  0  0  0  0  0  0999 V2000
   -3.8400   -1.8077   -0.4106 C   0  0  0  0  0  0  0  0  0  0  0  0
   -4.2842   -1.8044    0.9518 N   0  0  0  0  0  0  0  0  0  0  0  0
   -4.4551   -0.6534    1.4490 N   0  0  0  0  0  0  0  0  0  0  0  0
   -3.7162   -3.1009   -0.9502 C   0  0  0  0  0  0  0  0  0  0  0  0
   -3.2935   -3.2855   -2.2541 C   0  0  0  0  0  0  0  0  0  0  0  0
   -2.9779   -2.1782   -3.0602 C   0  0  0  0  0  0  0  0  0  0  0  0
   -2.5706   -2.4649   -4.3253 O   0  0  0  0  0  0  0  0  0  0  0  0
   -2.2310   -1.3878   -5.1872 C   0  0  0  0  0  0  0  0  0  0  0  0
   -3.0959   -0.8885   -2.5310 C   0  0  0  0  0  0  0  0  0  0  0  0
   -3.5251   -0.7048   -1.2129 C   0  0  0  0  0  0  0  0  0  0  0  0
   -3.9607   -3.9475   -0.3182 H   0  0  0  0  0  0  0  0  0  0  0  0
   -3.1963   -4.2798   -2.6767 H   0  0  0  0  0  0  0  0  0  0  0  0
   -1.9345   -1.8421   -6.1330 H   0  0  0  0  0  0  0  0  0  0  0  0
   -1.3925   -0.8023   -4.7893 H   0  0  0  0  0  0  0  0  0  0  0  0
   -3.0869   -0.7225   -5.3586 H   0  0  0  0  0  0  0  0  0  0  0  0
   -2.8569   -0.0161   -3.1268 H   0  0  0  0  0  0  0  0  0  0  0  0
   -3.5974    0.3131   -0.8463 H   0  0  0  0  0  0  0  0  0  0  0  0
   -5.1780    0.2265    3.9569 S   0  0  2  0  0  0  0  0  0  0  0  0
   -6.6827   -0.5306    4.8088 C   0  0  0  0  0  0  0  0  0  0  0  0
   -4.4175    0.2736    1.2979 O   0  0  0  0  0  0  0  0  0  0  0  0
   -4.9791   -1.1113    3.0496 O   0  0  0  0  0  0  0  0  0  0  0  0
   -4.1290    0.3756    4.9989 O   0  0  0  0  0  0  0  0  0  0  0  0
   -7.0986    0.3366    5.7420 F   0  0  0  0  0  0  0  0  0  0  0  0
   -7.6561   -0.6887    3.9032 F   0  0  0  0  0  0  0  0  0  0  0  0
   -6.4113   -1.6967    5.3867 F   0  0  0  0  0  0  0  0  0  0  0  0
  1  2  1  0  0  0  0
  2  3  1  0  0  0  0
  3 21  1  0  0  0  0
  4  1  1  0  0  0  0
  4 11  1  0  0  0  0
  5  4  2  0  0  0  0
  6  9  2  0  0  0  0
  6  5  1  0  0  0  0
  7  6  1  0  0  0  0
  8 14  1  0  0  0  0
  8  7  1  0  0  0  0
  9 10  1  0  0  0  0
 10 17  1  0  0  0  0
 10  1  2  0  0  0  0
 12  5  1  0  0  0  0
 13  8  1  0  0  0  0
 15  8  1  0  0  0  0
 16  9  1  0  0  0  0
 18 21  1  6  0  0  0
 18 19  1  0  0  0  0
 18 22  1  0  0  0  0
 19 25  1  0  0  0  0
 19 23  1  0  0  0  0
 20  3  1  0  0  0  0
 24 19  1  0  0  0  0
M  RAD  3   2   2  20   2  22   2
M  END
