Coordinates from ORCA-job 4-MeOPhN2+~TfO-_B3LYPG-6-31G_dp-NX-Scan-d89-09-n800
 OpenBabel11261920223D

 25 24  0  0  0  0  0  0  0  0999 V2000
   -4.6525   -3.7053   -0.5626 C   0  0  0  0  0  0  0  0  0  0  0  0
   -5.4160   -4.5902    0.1131 N   0  0  0  0  0  0  0  0  0  0  0  0
   -6.0538   -5.3198    0.6806 N   0  0  0  0  0  0  0  0  0  0  0  0
   -3.4308   -4.1485   -1.1458 C   0  0  0  0  0  0  0  0  0  0  0  0
   -2.6409   -3.2150   -1.7606 C   0  0  0  0  0  0  0  0  0  0  0  0
   -3.0348   -1.8438   -1.7860 C   0  0  0  0  0  0  0  0  0  0  0  0
   -2.1582   -1.0151   -2.3421 O   0  0  0  0  0  0  0  0  0  0  0  0
   -2.4087    0.4060   -2.2907 C   0  0  0  0  0  0  0  0  0  0  0  0
   -4.2660   -1.4370   -1.2407 C   0  0  0  0  0  0  0  0  0  0  0  0
   -5.0790   -2.3567   -0.6133 C   0  0  0  0  0  0  0  0  0  0  0  0
   -3.1384   -5.1909   -1.0865 H   0  0  0  0  0  0  0  0  0  0  0  0
   -1.6925   -3.4879   -2.2082 H   0  0  0  0  0  0  0  0  0  0  0  0
   -1.5199    0.8669   -2.7189 H   0  0  0  0  0  0  0  0  0  0  0  0
   -2.5494    0.7275   -1.2564 H   0  0  0  0  0  0  0  0  0  0  0  0
   -3.2877    0.6617   -2.8890 H   0  0  0  0  0  0  0  0  0  0  0  0
   -4.5940   -0.4049   -1.2033 H   0  0  0  0  0  0  0  0  0  0  0  0
   -5.9848   -2.0274   -0.1218 H   0  0  0  0  0  0  0  0  0  0  0  0
   -5.7456    0.1058    1.7116 S   0  0  0  0  0  0  0  0  0  0  0  0
   -4.0400    0.7955    1.9999 C   0  0  0  0  0  0  0  0  0  0  0  0
   -6.5836    0.8033    2.6929 O   0  0  0  0  0  0  0  0  0  0  0  0
   -5.5486   -1.3561    1.9392 O   0  0  0  0  0  0  0  0  0  0  0  0
   -5.9854    0.4432    0.2802 O   0  0  0  0  0  0  0  0  0  0  0  0
   -4.0147    2.1243    1.8261 F   0  0  0  0  0  0  0  0  0  0  0  0
   -3.5935    0.5178    3.2304 F   0  0  0  0  0  0  0  0  0  0  0  0
   -3.1484    0.2586    1.1162 F   0  0  0  0  0  0  0  0  0  0  0  0
  1  2  1  0  0  0  0
  2  3  1  0  0  0  0
  4 11  1  0  0  0  0
  4  1  2  0  0  0  0
  5  4  1  0  0  0  0
  6  5  2  0  0  0  0
  6  9  1  0  0  0  0
  7  8  1  0  0  0  0
  7  6  1  0  0  0  0
  8 14  1  0  0  0  0
  9 16  1  0  0  0  0
  9 10  2  0  0  0  0
 10  1  1  0  0  0  0
 10 17  1  0  0  0  0
 12  5  1  0  0  0  0
 13  8  1  0  0  0  0
 15  8  1  0  0  0  0
 18 21  2  0  0  0  0
 18 19  1  0  0  0  0
 18 20  1  0  0  0  0
 19 24  1  0  0  0  0
 22 18  2  0  0  0  0
 23 19  1  0  0  0  0
 25 19  1  0  0  0  0
M  RAD  3   2   2   3   3  20   2
M  END
