Coordinates from ORCA-job 4-MeOPhN2+~TfO-_B3LYPG-6-31G_dp-NX-Scan-d89-09-n800
 OpenBabel11261920223D

 25 24  0  0  0  0  0  0  0  0999 V2000
   -4.4535   -2.7227   -0.5220 C   0  0  0  0  0  0  0  0  0  0  0  0
   -5.2377   -3.1500    0.5202 N   0  0  0  0  0  0  0  0  0  0  0  0
   -5.9144   -3.3790    1.3891 N   0  0  0  0  0  0  0  0  0  0  0  0
   -3.8122   -3.7047   -1.3084 C   0  0  0  0  0  0  0  0  0  0  0  0
   -3.0240   -3.2973   -2.3602 C   0  0  0  0  0  0  0  0  0  0  0  0
   -2.8714   -1.9187   -2.6388 C   0  0  0  0  0  0  0  0  0  0  0  0
   -2.0809   -1.6326   -3.6827 O   0  0  0  0  0  0  0  0  0  0  0  0
   -1.8491   -0.2646   -4.0362 C   0  0  0  0  0  0  0  0  0  0  0  0
   -3.5259   -0.9554   -1.8473 C   0  0  0  0  0  0  0  0  0  0  0  0
   -4.3171   -1.3446   -0.7789 C   0  0  0  0  0  0  0  0  0  0  0  0
   -3.9398   -4.7565   -1.0771 H   0  0  0  0  0  0  0  0  0  0  0  0
   -2.5076   -4.0133   -2.9887 H   0  0  0  0  0  0  0  0  0  0  0  0
   -1.1801   -0.2953   -4.8956 H   0  0  0  0  0  0  0  0  0  0  0  0
   -1.3695    0.2775   -3.2143 H   0  0  0  0  0  0  0  0  0  0  0  0
   -2.7836    0.2327   -4.3162 H   0  0  0  0  0  0  0  0  0  0  0  0
   -3.4150    0.1021   -2.0490 H   0  0  0  0  0  0  0  0  0  0  0  0
   -4.8100   -0.6022   -0.1553 H   0  0  0  0  0  0  0  0  0  0  0  0
   -5.4073   -0.5095    2.4121 S   0  0  0  0  0  0  0  0  0  0  0  0
   -5.4527    0.2527    4.1046 C   0  0  0  0  0  0  0  0  0  0  0  0
   -6.5396   -1.4963    2.4329 O   0  0  0  0  0  0  0  0  0  0  0  0
   -4.0815   -1.1629    2.3131 O   0  0  0  0  0  0  0  0  0  0  0  0
   -5.6141    0.6212    1.4792 O   0  0  0  0  0  0  0  0  0  0  0  0
   -6.6227    0.8698    4.3112 F   0  0  0  0  0  0  0  0  0  0  0  0
   -5.2917   -0.6891    5.0443 F   0  0  0  0  0  0  0  0  0  0  0  0
   -4.4657    1.1506    4.2283 F   0  0  0  0  0  0  0  0  0  0  0  0
  1  2  1  0  0  0  0
  2  3  1  0  0  0  0
  4 11  1  0  0  0  0
  4  1  2  0  0  0  0
  5  4  1  0  0  0  0
  6  5  2  0  0  0  0
  6  9  1  0  0  0  0
  7  6  1  0  0  0  0
  8  7  1  0  0  0  0
  8 14  1  0  0  0  0
  9 10  2  0  0  0  0
 10  1  1  0  0  0  0
 10 17  1  0  0  0  0
 12  5  1  0  0  0  0
 13  8  1  0  0  0  0
 15  8  1  0  0  0  0
 16  9  1  0  0  0  0
 18 20  1  0  0  0  0
 18 19  1  0  0  0  0
 19 25  1  0  0  0  0
 19 23  1  0  0  0  0
 19 24  1  0  0  0  0
 21 18  2  0  0  0  0
 22 18  2  0  0  0  0
M  RAD  3   2   2   3   3  20   2
M  END
