Coordinates from ORCA-job 4-MeOPhN2+~TfO-_B3LYPG-6-31G_dp-NX-Scan-d89-09-n800
 OpenBabel11261920223D

 25 25  0  0  0  0  0  0  0  0999 V2000
   -3.8778   -2.5359   -0.2541 C   0  0  0  0  0  0  0  0  0  0  0  0
   -4.2648   -2.9473    1.0237 N   0  0  0  0  0  0  0  0  0  0  0  0
   -4.5341   -2.4702    2.0782 N   0  0  0  0  0  0  0  0  0  0  0  0
   -3.6689   -3.5899   -1.1678 C   0  0  0  0  0  0  0  0  0  0  0  0
   -3.2774   -3.3253   -2.4645 C   0  0  0  0  0  0  0  0  0  0  0  0
   -3.0851   -1.9933   -2.8791 C   0  0  0  0  0  0  0  0  0  0  0  0
   -2.7022   -1.8328   -4.1628 O   0  0  0  0  0  0  0  0  0  0  0  0
   -2.4881   -0.5144   -4.6636 C   0  0  0  0  0  0  0  0  0  0  0  0
   -3.2932   -0.9391   -1.9723 C   0  0  0  0  0  0  0  0  0  0  0  0
   -3.6878   -1.2026   -0.6665 C   0  0  0  0  0  0  0  0  0  0  0  0
   -3.8216   -4.6089   -0.8290 H   0  0  0  0  0  0  0  0  0  0  0  0
   -3.1102   -4.1217   -3.1808 H   0  0  0  0  0  0  0  0  0  0  0  0
   -2.1880   -0.6390   -5.7039 H   0  0  0  0  0  0  0  0  0  0  0  0
   -1.6904   -0.0036   -4.1125 H   0  0  0  0  0  0  0  0  0  0  0  0
   -3.4062    0.0825   -4.6175 H   0  0  0  0  0  0  0  0  0  0  0  0
   -3.1490    0.0904   -2.2763 H   0  0  0  0  0  0  0  0  0  0  0  0
   -3.8463   -0.3912    0.0287 H   0  0  0  0  0  0  0  0  0  0  0  0
   -4.5988   -0.1568    3.4803 S   0  0  0  0  0  0  0  0  0  0  0  0
   -6.4537   -0.1695    3.6632 C   0  0  0  0  0  0  0  0  0  0  0  0
   -4.4549   -0.8417    2.0398 O   0  0  0  0  0  0  0  0  0  0  0  0
   -4.0688   -1.0042    4.5365 O   0  0  0  0  0  0  0  0  0  0  0  0
   -4.2017    1.2357    3.3298 O   0  0  0  0  0  0  0  0  0  0  0  0
   -7.0147    0.5352    2.6778 F   0  0  0  0  0  0  0  0  0  0  0  0
   -6.9096   -1.4235    3.6209 F   0  0  0  0  0  0  0  0  0  0  0  0
   -6.7737    0.3789    4.8362 F   0  0  0  0  0  0  0  0  0  0  0  0
  1  2  1  0  0  0  0
  2  3  1  0  0  0  0
  4 11  1  0  0  0  0
  4  1  2  0  0  0  0
  5  4  1  0  0  0  0
  6  5  2  0  0  0  0
  6  9  1  0  0  0  0
  7  6  1  0  0  0  0
  8 15  1  0  0  0  0
  8  7  1  0  0  0  0
  8 14  1  0  0  0  0
  9 10  2  0  0  0  0
 10  1  1  0  0  0  0
 10 17  1  0  0  0  0
 12  5  1  0  0  0  0
 13  8  1  0  0  0  0
 16  9  1  0  0  0  0
 18 19  1  0  0  0  0
 18 21  2  0  0  0  0
 19 25  1  0  0  0  0
 20  3  1  0  0  0  0
 20 18  1  0  0  0  0
 22 18  2  0  0  0  0
 23 19  1  0  0  0  0
 24 19  1  0  0  0  0
M  RAD  2   2   2   3   2
M  END
