Coordinates from ORCA-job 4-MeOPhN2+~TfO-_B3LYPG-6-31G_dp-NX-Scan-d89-09-n800
 OpenBabel11261920223D

 25 24  0  0  0  0  0  0  0  0999 V2000
   -4.1495   -2.9834   -0.4843 C   0  0  0  0  0  0  0  0  0  0  0  0
   -4.7929   -3.5122    0.6079 N   0  0  0  0  0  0  0  0  0  0  0  0
   -5.3116   -3.7282    1.5797 N   0  0  0  0  0  0  0  0  0  0  0  0
   -3.5967   -3.8636   -1.4401 C   0  0  0  0  0  0  0  0  0  0  0  0
   -2.9487   -3.3211   -2.5254 C   0  0  0  0  0  0  0  0  0  0  0  0
   -2.8573   -1.9145   -2.6694 C   0  0  0  0  0  0  0  0  0  0  0  0
   -2.2086   -1.4976   -3.7639 O   0  0  0  0  0  0  0  0  0  0  0  0
   -2.0589   -0.0925   -4.0023 C   0  0  0  0  0  0  0  0  0  0  0  0
   -3.4286   -1.0594   -1.7071 C   0  0  0  0  0  0  0  0  0  0  0  0
   -4.0796   -1.5822   -0.6016 C   0  0  0  0  0  0  0  0  0  0  0  0
   -3.6786   -4.9376   -1.3115 H   0  0  0  0  0  0  0  0  0  0  0  0
   -2.5004   -3.9484   -3.2869 H   0  0  0  0  0  0  0  0  0  0  0  0
   -1.5028   -0.0140   -4.9357 H   0  0  0  0  0  0  0  0  0  0  0  0
   -1.4944    0.3840   -3.1943 H   0  0  0  0  0  0  0  0  0  0  0  0
   -3.0341    0.3925   -4.1118 H   0  0  0  0  0  0  0  0  0  0  0  0
   -3.3745    0.0172   -1.8090 H   0  0  0  0  0  0  0  0  0  0  0  0
   -4.5438   -0.9278    0.1429 H   0  0  0  0  0  0  0  0  0  0  0  0
   -5.8397   -0.5167    2.4587 S   0  0  0  0  0  0  0  0  0  0  0  0
   -5.4591    0.5271    3.9471 C   0  0  0  0  0  0  0  0  0  0  0  0
   -7.2614   -0.8680    2.5806 O   0  0  0  0  0  0  0  0  0  0  0  0
   -4.8870   -1.6700    2.6161 O   0  0  0  0  0  0  0  0  0  0  0  0
   -5.4693    0.3529    1.3098 O   0  0  0  0  0  0  0  0  0  0  0  0
   -6.2193    1.6310    3.9455 F   0  0  0  0  0  0  0  0  0  0  0  0
   -5.7002   -0.1563    5.0742 F   0  0  0  0  0  0  0  0  0  0  0  0
   -4.1697    0.9003    3.9450 F   0  0  0  0  0  0  0  0  0  0  0  0
  1  2  1  0  0  0  0
  2  3  1  0  0  0  0
  4 11  1  0  0  0  0
  4  1  2  0  0  0  0
  5  4  1  0  0  0  0
  6  5  2  0  0  0  0
  6  9  1  0  0  0  0
  7  6  1  0  0  0  0
  8  7  1  0  0  0  0
  8 14  1  0  0  0  0
  9 10  2  0  0  0  0
 10  1  1  0  0  0  0
 10 17  1  0  0  0  0
 12  5  1  0  0  0  0
 13  8  1  0  0  0  0
 15  8  1  0  0  0  0
 16  9  1  0  0  0  0
 18 20  2  0  0  0  0
 18 21  1  0  0  0  0
 18 19  1  0  0  0  0
 19 24  1  0  0  0  0
 22 18  2  0  0  0  0
 23 19  1  0  0  0  0
 25 19  1  0  0  0  0
M  RAD  3   2   2   3   3  21   2
M  END
