Coordinates from ORCA-job 4-MeOPhN2+~TfO-_B3LYPG-6-31G_dp-NX-Scan-d89-09-n800
 OpenBabel11261920223D

 25 24  0  0  0  0  0  0  0  0999 V2000
   -4.0159   -2.5741   -0.3786 C   0  0  0  0  0  0  0  0  0  0  0  0
   -4.5097   -2.9275    0.8725 N   0  0  0  0  0  0  0  0  0  0  0  0
   -4.9033   -2.5397    1.8938 N   0  0  0  0  0  0  0  0  0  0  0  0
   -3.6564   -3.6329   -1.2348 C   0  0  0  0  0  0  0  0  0  0  0  0
   -3.1503   -3.3549   -2.4877 C   0  0  0  0  0  0  0  0  0  0  0  0
   -2.9959   -2.0157   -2.9026 C   0  0  0  0  0  0  0  0  0  0  0  0
   -2.4941   -1.8492   -4.1404 O   0  0  0  0  0  0  0  0  0  0  0  0
   -2.2954   -0.5263   -4.6415 C   0  0  0  0  0  0  0  0  0  0  0  0
   -3.3587   -0.9622   -2.0424 C   0  0  0  0  0  0  0  0  0  0  0  0
   -3.8699   -1.2334   -0.7811 C   0  0  0  0  0  0  0  0  0  0  0  0
   -3.7803   -4.6558   -0.8962 H   0  0  0  0  0  0  0  0  0  0  0  0
   -2.8623   -4.1454   -3.1710 H   0  0  0  0  0  0  0  0  0  0  0  0
   -1.8839   -0.6505   -5.6427 H   0  0  0  0  0  0  0  0  0  0  0  0
   -1.5854    0.0301   -4.0199 H   0  0  0  0  0  0  0  0  0  0  0  0
   -3.2424    0.0213   -4.7006 H   0  0  0  0  0  0  0  0  0  0  0  0
   -3.2456    0.0701   -2.3496 H   0  0  0  0  0  0  0  0  0  0  0  0
   -4.1551   -0.4390   -0.1036 H   0  0  0  0  0  0  0  0  0  0  0  0
   -4.6778   -0.0713    3.2737 S   0  0  0  0  0  0  0  0  0  0  0  0
   -6.3695   -0.1459    4.0419 C   0  0  0  0  0  0  0  0  0  0  0  0
   -4.9639   -0.7196    1.8787 O   0  0  0  0  0  0  0  0  0  0  0  0
   -3.8234   -0.9170    4.1033 O   0  0  0  0  0  0  0  0  0  0  0  0
   -4.3761    1.3463    3.0924 O   0  0  0  0  0  0  0  0  0  0  0  0
   -7.2453    0.5485    3.3084 F   0  0  0  0  0  0  0  0  0  0  0  0
   -6.7825   -1.4173    4.1203 F   0  0  0  0  0  0  0  0  0  0  0  0
   -6.3237    0.3730    5.2720 F   0  0  0  0  0  0  0  0  0  0  0  0
  1  2  1  0  0  0  0
  2  3  2  0  0  0  0
  4 11  1  0  0  0  0
  4  1  2  0  0  0  0
  5  4  1  0  0  0  0
  6  5  2  0  0  0  0
  6  9  1  0  0  0  0
  7  6  1  0  0  0  0
  8  7  1  0  0  0  0
  8 14  1  0  0  0  0
  9 10  2  0  0  0  0
 10  1  1  0  0  0  0
 10 17  1  0  0  0  0
 12  5  1  0  0  0  0
 13  8  1  0  0  0  0
 15  8  1  0  0  0  0
 16  9  1  0  0  0  0
 18 19  1  0  0  0  0
 18 21  1  0  0  0  0
 19 24  1  0  0  0  0
 19 25  1  0  0  0  0
 20 18  2  0  0  0  0
 22 18  2  0  0  0  0
 23 19  1  0  0  0  0
M  RAD  2   3   2  21   2
M  END
