Coordinates from ORCA-job 4-MeOPhN2+~TfO-_B3LYPG-6-31G_dp-NX-Scan-d89-09-n800
 OpenBabel11261920223D

 25 24  0  0  0  0  0  0  0  0999 V2000
   -4.0768   -4.1609   -0.2785 C   0  0  0  0  0  0  0  0  0  0  0  0
   -4.4685   -5.4056    0.0556 N   0  0  0  0  0  0  0  0  0  0  0  0
   -4.7833   -6.4544    0.3203 N   0  0  0  0  0  0  0  0  0  0  0  0
   -4.9513   -3.3210   -1.0329 C   0  0  0  0  0  0  0  0  0  0  0  0
   -4.5077   -2.0804   -1.4002 C   0  0  0  0  0  0  0  0  0  0  0  0
   -3.2134   -1.6421   -1.0023 C   0  0  0  0  0  0  0  0  0  0  0  0
   -2.8735   -0.4440   -1.4254 O   0  0  0  0  0  0  0  0  0  0  0  0
   -1.7509    0.2559   -0.8658 C   0  0  0  0  0  0  0  0  0  0  0  0
   -2.3705   -2.4724   -0.2105 C   0  0  0  0  0  0  0  0  0  0  0  0
   -2.7898   -3.7305    0.1430 C   0  0  0  0  0  0  0  0  0  0  0  0
   -5.9534   -3.6521   -1.2787 H   0  0  0  0  0  0  0  0  0  0  0  0
   -5.1481   -1.3435   -1.8885 H   0  0  0  0  0  0  0  0  0  0  0  0
   -1.7943    1.2498   -1.3059 H   0  0  0  0  0  0  0  0  0  0  0  0
   -0.8095   -0.2334   -1.1358 H   0  0  0  0  0  0  0  0  0  0  0  0
   -1.8674    0.3289    0.2174 H   0  0  0  0  0  0  0  0  0  0  0  0
   -1.3976   -2.1244    0.1109 H   0  0  0  0  0  0  0  0  0  0  0  0
   -2.1598   -4.3915    0.7281 H   0  0  0  0  0  0  0  0  0  0  0  0
   -6.4661    0.6661   -0.2866 S   0  0  0  0  0  0  0  0  0  0  0  0
   -5.0715    1.1342    0.8688 C   0  0  0  0  0  0  0  0  0  0  0  0
   -7.3937    1.7992   -0.1569 O   0  0  0  0  0  0  0  0  0  0  0  0
   -6.9014   -0.6397    0.2620 O   0  0  0  0  0  0  0  0  0  0  0  0
   -5.7627    0.5558   -1.5968 O   0  0  0  0  0  0  0  0  0  0  0  0
   -4.3140    2.1325    0.3745 F   0  0  0  0  0  0  0  0  0  0  0  0
   -5.5188    1.5083    2.0733 F   0  0  0  0  0  0  0  0  0  0  0  0
   -4.2229    0.0770    1.0753 F   0  0  0  0  0  0  0  0  0  0  0  0
  1  2  1  0  0  0  0
  1 10  2  0  0  0  0
  2  3  1  0  0  0  0
  4  1  1  0  0  0  0
  5  4  2  0  0  0  0
  5  6  1  0  0  0  0
  6  9  2  0  0  0  0
  7  6  1  0  0  0  0
  7  8  1  0  0  0  0
  8 15  1  0  0  0  0
  9 16  1  0  0  0  0
  9 10  1  0  0  0  0
 10 17  1  0  0  0  0
 11  4  1  0  0  0  0
 12  5  1  0  0  0  0
 13  8  1  0  0  0  0
 14  8  1  0  0  0  0
 18 20  2  0  0  0  0
 18 21  1  0  0  0  0
 18 19  1  0  0  0  0
 19 25  1  0  0  0  0
 19 24  1  0  0  0  0
 22 18  2  0  0  0  0
 23 19  1  0  0  0  0
M  RAD  3   2   2   3   3  21   2
M  END
