Coordinates from ORCA-job 4-MeOPhN2+~TfO-_B3LYPG-6-31G_dp-NX-Scan-d89-09-n800
 OpenBabel11261920223D

 25 24  0  0  0  0  0  0  0  0999 V2000
   -4.1549   -4.0318   -0.2290 C   0  0  0  0  0  0  0  0  0  0  0  0
   -4.6148   -5.2274    0.1879 N   0  0  0  0  0  0  0  0  0  0  0  0
   -4.9814   -6.2390    0.5211 N   0  0  0  0  0  0  0  0  0  0  0  0
   -4.9541   -3.2294   -1.0957 C   0  0  0  0  0  0  0  0  0  0  0  0
   -4.4364   -2.0459   -1.5470 C   0  0  0  0  0  0  0  0  0  0  0  0
   -3.1561   -1.6153   -1.1089 C   0  0  0  0  0  0  0  0  0  0  0  0
   -2.7512   -0.4607   -1.5984 O   0  0  0  0  0  0  0  0  0  0  0  0
   -1.6483    0.2466   -1.0102 C   0  0  0  0  0  0  0  0  0  0  0  0
   -2.3884   -2.4065   -0.2080 C   0  0  0  0  0  0  0  0  0  0  0  0
   -2.8742   -3.6144    0.2244 C   0  0  0  0  0  0  0  0  0  0  0  0
   -5.9597   -3.5349   -1.3574 H   0  0  0  0  0  0  0  0  0  0  0  0
   -5.0311   -1.3363   -2.1165 H   0  0  0  0  0  0  0  0  0  0  0  0
   -1.6007    1.1909   -1.5485 H   0  0  0  0  0  0  0  0  0  0  0  0
   -0.7103   -0.3031   -1.1418 H   0  0  0  0  0  0  0  0  0  0  0  0
   -1.8564    0.4320    0.0458 H   0  0  0  0  0  0  0  0  0  0  0  0
   -1.4232   -2.0649    0.1414 H   0  0  0  0  0  0  0  0  0  0  0  0
   -2.3031   -4.2443    0.8976 H   0  0  0  0  0  0  0  0  0  0  0  0
   -6.4297    0.5197   -0.2455 S   0  0  0  0  0  0  0  0  0  0  0  0
   -5.1203    0.9947    0.9966 C   0  0  0  0  0  0  0  0  0  0  0  0
   -7.4550    1.5565   -0.0591 O   0  0  0  0  0  0  0  0  0  0  0  0
   -6.7805   -0.8602    0.1751 O   0  0  0  0  0  0  0  0  0  0  0  0
   -5.6728    0.5787   -1.5268 O   0  0  0  0  0  0  0  0  0  0  0  0
   -4.5413    2.1683    0.6953 F   0  0  0  0  0  0  0  0  0  0  0  0
   -5.6106    1.0754    2.2400 F   0  0  0  0  0  0  0  0  0  0  0  0
   -4.1124    0.0630    1.0318 F   0  0  0  0  0  0  0  0  0  0  0  0
  1  2  1  0  0  0  0
  1 10  1  0  0  0  0
  2  3  1  0  0  0  0
  4  1  2  0  0  0  0
  5  6  2  0  0  0  0
  5  4  1  0  0  0  0
  6  9  1  0  0  0  0
  7  6  1  0  0  0  0
  7  8  1  0  0  0  0
  8 15  1  0  0  0  0
  9 16  1  0  0  0  0
  9 10  2  0  0  0  0
 10 17  1  0  0  0  0
 11  4  1  0  0  0  0
 12  5  1  0  0  0  0
 13  8  1  0  0  0  0
 14  8  1  0  0  0  0
 18 20  2  0  0  0  0
 18 21  1  0  0  0  0
 18 19  1  0  0  0  0
 19 25  1  0  0  0  0
 19 24  1  0  0  0  0
 22 18  2  0  0  0  0
 23 19  1  0  0  0  0
M  RAD  3   2   2   3   3  21   2
M  END
