Coordinates from ORCA-job 4-MeOPhN2+~TfO-_B3LYPG-6-31G_dp-NX-Scan-d89-09-n800
 OpenBabel11261920223D

 25 24  0  0  0  0  0  0  0  0999 V2000
   -4.6050   -3.7659   -0.5752 C   0  0  0  0  0  0  0  0  0  0  0  0
   -5.3472   -4.6635    0.1087 N   0  0  0  0  0  0  0  0  0  0  0  0
   -5.9734   -5.3928    0.6892 N   0  0  0  0  0  0  0  0  0  0  0  0
   -3.4435   -4.2070   -1.2717 C   0  0  0  0  0  0  0  0  0  0  0  0
   -2.6762   -3.2599   -1.8951 C   0  0  0  0  0  0  0  0  0  0  0  0
   -3.0353   -1.8807   -1.8215 C   0  0  0  0  0  0  0  0  0  0  0  0
   -2.1822   -1.0413   -2.3969 O   0  0  0  0  0  0  0  0  0  0  0  0
   -2.4018    0.3799   -2.2594 C   0  0  0  0  0  0  0  0  0  0  0  0
   -4.2119   -1.4751   -1.1643 C   0  0  0  0  0  0  0  0  0  0  0  0
   -5.0003   -2.4079   -0.5261 C   0  0  0  0  0  0  0  0  0  0  0  0
   -3.1765   -5.2578   -1.2900 H   0  0  0  0  0  0  0  0  0  0  0  0
   -1.7715   -3.5305   -2.4269 H   0  0  0  0  0  0  0  0  0  0  0  0
   -1.5381    0.8476   -2.7295 H   0  0  0  0  0  0  0  0  0  0  0  0
   -2.4614    0.6536   -1.2034 H   0  0  0  0  0  0  0  0  0  0  0  0
   -3.3179    0.6778   -2.7767 H   0  0  0  0  0  0  0  0  0  0  0  0
   -4.5225   -0.4403   -1.0619 H   0  0  0  0  0  0  0  0  0  0  0  0
   -5.8509   -2.0805    0.0628 H   0  0  0  0  0  0  0  0  0  0  0  0
   -5.7910    0.2143    1.6803 S   0  0  0  0  0  0  0  0  0  0  0  0
   -4.0930    0.8808    2.0525 C   0  0  0  0  0  0  0  0  0  0  0  0
   -6.6806    0.9634    2.5732 O   0  0  0  0  0  0  0  0  0  0  0  0
   -5.6422   -1.2405    1.9769 O   0  0  0  0  0  0  0  0  0  0  0  0
   -5.9239    0.5013    0.2238 O   0  0  0  0  0  0  0  0  0  0  0  0
   -4.0327    2.2041    1.8476 F   0  0  0  0  0  0  0  0  0  0  0  0
   -3.7227    0.6279    3.3135 F   0  0  0  0  0  0  0  0  0  0  0  0
   -3.1654    0.3046    1.2345 F   0  0  0  0  0  0  0  0  0  0  0  0
  1 10  1  0  0  0  0
  1  2  1  0  0  0  0
  2  3  1  0  0  0  0
  4  1  2  0  0  0  0
  5  6  2  0  0  0  0
  5  4  1  0  0  0  0
  6  9  1  0  0  0  0
  7  8  1  0  0  0  0
  7  6  1  0  0  0  0
  8 14  1  0  0  0  0
  9 16  1  0  0  0  0
  9 10  2  0  0  0  0
 10 17  1  0  0  0  0
 11  4  1  0  0  0  0
 12  5  1  0  0  0  0
 13  8  1  0  0  0  0
 15  8  1  0  0  0  0
 18 21  2  0  0  0  0
 18 19  1  0  0  0  0
 18 20  1  0  0  0  0
 19 24  1  0  0  0  0
 22 18  2  0  0  0  0
 23 19  1  0  0  0  0
 25 19  1  0  0  0  0
M  RAD  3   2   2   3   3  20   2
M  END
