Coordinates from ORCA-job 4-MeOPhN2+~TfO-_B3LYPG-6-31G_dp-NX-Scan-d89-09-n800
 OpenBabel11261920223D

 25 24  0  0  0  0  0  0  0  0999 V2000
   -4.1593   -4.0235   -0.2260 C   0  0  0  0  0  0  0  0  0  0  0  0
   -4.6239   -5.2155    0.1959 N   0  0  0  0  0  0  0  0  0  0  0  0
   -4.9943   -6.2243    0.5334 N   0  0  0  0  0  0  0  0  0  0  0  0
   -4.9542   -3.2230   -1.0983 C   0  0  0  0  0  0  0  0  0  0  0  0
   -4.4317   -2.0435   -1.5544 C   0  0  0  0  0  0  0  0  0  0  0  0
   -3.1519   -1.6139   -1.1147 C   0  0  0  0  0  0  0  0  0  0  0  0
   -2.7431   -0.4618   -1.6074 O   0  0  0  0  0  0  0  0  0  0  0  0
   -1.6406    0.2451   -1.0179 C   0  0  0  0  0  0  0  0  0  0  0  0
   -2.3882   -2.4033   -0.2089 C   0  0  0  0  0  0  0  0  0  0  0  0
   -2.8782   -3.6078    0.2280 C   0  0  0  0  0  0  0  0  0  0  0  0
   -5.9603   -3.5262   -1.3601 H   0  0  0  0  0  0  0  0  0  0  0  0
   -5.0239   -1.3352   -2.1278 H   0  0  0  0  0  0  0  0  0  0  0  0
   -1.5901    1.1883   -1.5580 H   0  0  0  0  0  0  0  0  0  0  0  0
   -0.7031   -0.3063   -1.1460 H   0  0  0  0  0  0  0  0  0  0  0  0
   -1.8508    0.4331    0.0373 H   0  0  0  0  0  0  0  0  0  0  0  0
   -1.4228   -2.0628    0.1411 H   0  0  0  0  0  0  0  0  0  0  0  0
   -2.3105   -4.2362    0.9054 H   0  0  0  0  0  0  0  0  0  0  0  0
   -6.4292    0.5107   -0.2434 S   0  0  0  0  0  0  0  0  0  0  0  0
   -5.1247    0.9865    1.0032 C   0  0  0  0  0  0  0  0  0  0  0  0
   -7.4602    1.5415   -0.0546 O   0  0  0  0  0  0  0  0  0  0  0  0
   -6.7747   -0.8727    0.1706 O   0  0  0  0  0  0  0  0  0  0  0  0
   -5.6700    0.5790   -1.5227 O   0  0  0  0  0  0  0  0  0  0  0  0
   -4.5576    2.1685    0.7130 F   0  0  0  0  0  0  0  0  0  0  0  0
   -5.6158    1.0504    2.2473 F   0  0  0  0  0  0  0  0  0  0  0  0
   -4.1078    0.0644    1.0292 F   0  0  0  0  0  0  0  0  0  0  0  0
  1  2  1  0  0  0  0
  1 10  1  0  0  0  0
  2  3  1  0  0  0  0
  4  1  2  0  0  0  0
  5  6  2  0  0  0  0
  5  4  1  0  0  0  0
  6  9  1  0  0  0  0
  7  6  1  0  0  0  0
  7  8  1  0  0  0  0
  8 15  1  0  0  0  0
  9 16  1  0  0  0  0
  9 10  2  0  0  0  0
 10 17  1  0  0  0  0
 11  4  1  0  0  0  0
 12  5  1  0  0  0  0
 13  8  1  0  0  0  0
 14  8  1  0  0  0  0
 18 20  2  0  0  0  0
 18 21  1  0  0  0  0
 18 19  1  0  0  0  0
 19 25  1  0  0  0  0
 19 24  1  0  0  0  0
 22 18  2  0  0  0  0
 23 19  1  0  0  0  0
M  RAD  3   2   2   3   3  21   2
M  END
