Coordinates from ORCA-job 4-MeOPhN2+~TfO-_B3LYPG-6-31G_dp-NX-Scan-d89-09-n800
 OpenBabel11261920223D

 25 24  0  0  0  0  0  0  0  0999 V2000
   -4.4653   -2.7273   -0.5297 C   0  0  0  0  0  0  0  0  0  0  0  0
   -5.2587   -3.1603    0.5021 N   0  0  0  0  0  0  0  0  0  0  0  0
   -5.9343   -3.4409    1.3536 N   0  0  0  0  0  0  0  0  0  0  0  0
   -3.8179   -3.7062   -1.3158 C   0  0  0  0  0  0  0  0  0  0  0  0
   -3.0214   -3.2919   -2.3582 C   0  0  0  0  0  0  0  0  0  0  0  0
   -2.8677   -1.9112   -2.6278 C   0  0  0  0  0  0  0  0  0  0  0  0
   -2.0693   -1.6194   -3.6634 O   0  0  0  0  0  0  0  0  0  0  0  0
   -1.8366   -0.2494   -4.0097 C   0  0  0  0  0  0  0  0  0  0  0  0
   -3.5290   -0.9525   -1.8363 C   0  0  0  0  0  0  0  0  0  0  0  0
   -4.3284   -1.3472   -0.7762 C   0  0  0  0  0  0  0  0  0  0  0  0
   -3.9468   -4.7595   -1.0917 H   0  0  0  0  0  0  0  0  0  0  0  0
   -2.4992   -4.0039   -2.9865 H   0  0  0  0  0  0  0  0  0  0  0  0
   -1.1612   -0.2759   -4.8642 H   0  0  0  0  0  0  0  0  0  0  0  0
   -1.3637    0.2896   -3.1819 H   0  0  0  0  0  0  0  0  0  0  0  0
   -2.7698    0.2477   -4.2944 H   0  0  0  0  0  0  0  0  0  0  0  0
   -3.4170    0.1061   -2.0316 H   0  0  0  0  0  0  0  0  0  0  0  0
   -4.8287   -0.6112   -0.1497 H   0  0  0  0  0  0  0  0  0  0  0  0
   -5.4508   -0.5484    2.4165 S   0  0  0  0  0  0  0  0  0  0  0  0
   -5.4116    0.2827    4.0761 C   0  0  0  0  0  0  0  0  0  0  0  0
   -6.5751   -1.5309    2.5277 O   0  0  0  0  0  0  0  0  0  0  0  0
   -4.1256   -1.2007    2.2796 O   0  0  0  0  0  0  0  0  0  0  0  0
   -5.6947    0.5483    1.4497 O   0  0  0  0  0  0  0  0  0  0  0  0
   -6.5657    0.9202    4.3104 F   0  0  0  0  0  0  0  0  0  0  0  0
   -5.2162   -0.6212    5.0461 F   0  0  0  0  0  0  0  0  0  0  0  0
   -4.4122    1.1751    4.1194 F   0  0  0  0  0  0  0  0  0  0  0  0
  1  2  1  0  0  0  0
  2  3  1  0  0  0  0
  4 11  1  0  0  0  0
  4  1  2  0  0  0  0
  5  4  1  0  0  0  0
  6  5  2  0  0  0  0
  6  9  1  0  0  0  0
  7  6  1  0  0  0  0
  8  7  1  0  0  0  0
  8 14  1  0  0  0  0
  9 10  2  0  0  0  0
 10  1  1  0  0  0  0
 10 17  1  0  0  0  0
 12  5  1  0  0  0  0
 13  8  1  0  0  0  0
 15  8  1  0  0  0  0
 16  9  1  0  0  0  0
 18 20  1  0  0  0  0
 18 19  1  0  0  0  0
 19 25  1  0  0  0  0
 19 23  1  0  0  0  0
 19 24  1  0  0  0  0
 21 18  2  0  0  0  0
 22 18  2  0  0  0  0
M  RAD  3   2   2   3   3  20   2
M  END
