Coordinates from ORCA-job 4-MeOPhN2+~TfO-_B3LYPG-6-31G_dp-NX-Scan-d89-09-n800
 OpenBabel11261920223D

 25 24  0  0  0  0  0  0  0  0999 V2000
   -4.7052   -3.6109   -0.5374 C   0  0  0  0  0  0  0  0  0  0  0  0
   -5.4916   -4.4616    0.1540 N   0  0  0  0  0  0  0  0  0  0  0  0
   -6.1433   -5.1702    0.7316 N   0  0  0  0  0  0  0  0  0  0  0  0
   -3.4359   -4.0639   -0.9968 C   0  0  0  0  0  0  0  0  0  0  0  0
   -2.6178   -3.1572   -1.6146 C   0  0  0  0  0  0  0  0  0  0  0  0
   -3.0302   -1.7994   -1.7595 C   0  0  0  0  0  0  0  0  0  0  0  0
   -2.1250   -0.9921   -2.3038 O   0  0  0  0  0  0  0  0  0  0  0  0
   -2.3880    0.4253   -2.3525 C   0  0  0  0  0  0  0  0  0  0  0  0
   -4.3053   -1.3849   -1.3366 C   0  0  0  0  0  0  0  0  0  0  0  0
   -5.1470   -2.2779   -0.7072 C   0  0  0  0  0  0  0  0  0  0  0  0
   -3.1305   -5.0926   -0.8426 H   0  0  0  0  0  0  0  0  0  0  0  0
   -1.6341   -3.4380   -1.9716 H   0  0  0  0  0  0  0  0  0  0  0  0
   -1.4757    0.8708   -2.7464 H   0  0  0  0  0  0  0  0  0  0  0  0
   -2.5978    0.8038   -1.3496 H   0  0  0  0  0  0  0  0  0  0  0  0
   -3.2258    0.6383   -3.0229 H   0  0  0  0  0  0  0  0  0  0  0  0
   -4.6388   -0.3571   -1.3889 H   0  0  0  0  0  0  0  0  0  0  0  0
   -6.0984   -1.9398   -0.3228 H   0  0  0  0  0  0  0  0  0  0  0  0
   -5.7021   -0.0631    1.7505 S   0  0  0  0  0  0  0  0  0  0  0  0
   -4.0109    0.6910    1.9499 C   0  0  0  0  0  0  0  0  0  0  0  0
   -6.4816    0.5280    2.8436 O   0  0  0  0  0  0  0  0  0  0  0  0
   -5.4210   -1.5262    1.8632 O   0  0  0  0  0  0  0  0  0  0  0  0
   -6.0779    0.3484    0.3698 O   0  0  0  0  0  0  0  0  0  0  0  0
   -4.0558    2.0259    1.8429 F   0  0  0  0  0  0  0  0  0  0  0  0
   -3.4655    0.3760    3.1308 F   0  0  0  0  0  0  0  0  0  0  0  0
   -3.1617    0.2391    0.9810 F   0  0  0  0  0  0  0  0  0  0  0  0
  1  2  1  0  0  0  0
  2  3  1  0  0  0  0
  4 11  1  0  0  0  0
  4  1  2  0  0  0  0
  5  4  1  0  0  0  0
  6  5  2  0  0  0  0
  6  9  1  0  0  0  0
  7  6  1  0  0  0  0
  8  7  1  0  0  0  0
  8 14  1  0  0  0  0
  9 10  2  0  0  0  0
 10  1  1  0  0  0  0
 10 17  1  0  0  0  0
 12  5  1  0  0  0  0
 13  8  1  0  0  0  0
 15  8  1  0  0  0  0
 16  9  1  0  0  0  0
 18 21  2  0  0  0  0
 18 19  1  0  0  0  0
 18 20  1  0  0  0  0
 19 24  1  0  0  0  0
 22 18  2  0  0  0  0
 23 19  1  0  0  0  0
 25 19  1  0  0  0  0
M  RAD  3   2   2   3   3  20   2
M  END
