Coordinates from ORCA-job 4-MeOPhN2+~TfO-_B3LYPG-6-31G_dp-NX-Scan-d89-09-n800
 OpenBabel11261920223D

 25 24  0  0  0  0  0  0  0  0999 V2000
   -3.8978   -2.8216   -0.2371 C   0  0  0  0  0  0  0  0  0  0  0  0
   -4.3305   -3.2602    0.9909 N   0  0  0  0  0  0  0  0  0  0  0  0
   -4.6251   -3.3292    2.0741 N   0  0  0  0  0  0  0  0  0  0  0  0
   -4.0055   -3.6830   -1.3474 C   0  0  0  0  0  0  0  0  0  0  0  0
   -3.5898   -3.2237   -2.5772 C   0  0  0  0  0  0  0  0  0  0  0  0
   -3.0722   -1.9138   -2.7087 C   0  0  0  0  0  0  0  0  0  0  0  0
   -2.7082   -1.5664   -3.9507 O   0  0  0  0  0  0  0  0  0  0  0  0
   -2.2055   -0.2472   -4.1942 C   0  0  0  0  0  0  0  0  0  0  0  0
   -2.9662   -1.0719   -1.5836 C   0  0  0  0  0  0  0  0  0  0  0  0
   -3.3788   -1.5174   -0.3396 C   0  0  0  0  0  0  0  0  0  0  0  0
   -4.4157   -4.6793   -1.2283 H   0  0  0  0  0  0  0  0  0  0  0  0
   -3.6574   -3.8439   -3.4633 H   0  0  0  0  0  0  0  0  0  0  0  0
   -2.0018   -0.2066   -5.2635 H   0  0  0  0  0  0  0  0  0  0  0  0
   -1.2794   -0.0708   -3.6377 H   0  0  0  0  0  0  0  0  0  0  0  0
   -2.9504    0.5107   -3.9308 H   0  0  0  0  0  0  0  0  0  0  0  0
   -2.5769   -0.0662   -1.6699 H   0  0  0  0  0  0  0  0  0  0  0  0
   -3.3163   -0.8813    0.5365 H   0  0  0  0  0  0  0  0  0  0  0  0
   -5.2441   -0.3219    2.3033 S   0  0  0  0  0  0  0  0  0  0  0  0
   -6.1370    0.1951    3.8462 C   0  0  0  0  0  0  0  0  0  0  0  0
   -6.2397   -1.0825    1.5160 O   0  0  0  0  0  0  0  0  0  0  0  0
   -4.1365   -1.2077    2.8227 O   0  0  0  0  0  0  0  0  0  0  0  0
   -4.7423    0.9290    1.7076 O   0  0  0  0  0  0  0  0  0  0  0  0
   -7.1741    0.9858    3.5379 F   0  0  0  0  0  0  0  0  0  0  0  0
   -6.6006   -0.8811    4.4989 F   0  0  0  0  0  0  0  0  0  0  0  0
   -5.3147    0.8670    4.6620 F   0  0  0  0  0  0  0  0  0  0  0  0
  1  2  1  0  0  0  0
  2  3  1  0  0  0  0
  4 11  1  0  0  0  0
  4  1  2  0  0  0  0
  5  4  1  0  0  0  0
  6  5  2  0  0  0  0
  6  9  1  0  0  0  0
  7  6  1  0  0  0  0
  8  7  1  0  0  0  0
  8 15  1  0  0  0  0
  8 14  1  0  0  0  0
  9 10  2  0  0  0  0
 10  1  1  0  0  0  0
 10 17  1  0  0  0  0
 12  5  1  0  0  0  0
 13  8  1  0  0  0  0
 16  9  1  0  0  0  0
 18 21  1  0  0  0  0
 18 19  1  0  0  0  0
 19 24  1  0  0  0  0
 19 25  1  0  0  0  0
 20 18  2  0  0  0  0
 22 18  2  0  0  0  0
 23 19  1  0  0  0  0
M  RAD  3   2   2   3   3  21   2
M  END
