Coordinates from ORCA-job 4-MeOPhN2+~TfO-_B3LYPG-6-31G_dp-NX-Scan-d89-09-n800
 OpenBabel11261920223D

 25 24  0  0  0  0  0  0  0  0999 V2000
   -4.6777   -3.6673   -0.5526 C   0  0  0  0  0  0  0  0  0  0  0  0
   -5.4530   -4.5425    0.1216 N   0  0  0  0  0  0  0  0  0  0  0  0
   -6.0974   -5.2688    0.6857 N   0  0  0  0  0  0  0  0  0  0  0  0
   -3.4306   -4.1127   -1.0774 C   0  0  0  0  0  0  0  0  0  0  0  0
   -2.6280   -3.1888   -1.6898 C   0  0  0  0  0  0  0  0  0  0  0  0
   -3.0340   -1.8233   -1.7686 C   0  0  0  0  0  0  0  0  0  0  0  0
   -2.1450   -1.0023   -2.3173 O   0  0  0  0  0  0  0  0  0  0  0  0
   -2.4049    0.4173   -2.3118 C   0  0  0  0  0  0  0  0  0  0  0  0
   -4.2882   -1.4150   -1.2806 C   0  0  0  0  0  0  0  0  0  0  0  0
   -5.1143   -2.3251   -0.6558 C   0  0  0  0  0  0  0  0  0  0  0  0
   -3.1301   -5.1494   -0.9764 H   0  0  0  0  0  0  0  0  0  0  0  0
   -1.6611   -3.4636   -2.0944 H   0  0  0  0  0  0  0  0  0  0  0  0
   -1.5061    0.8727   -2.7249 H   0  0  0  0  0  0  0  0  0  0  0  0
   -2.5779    0.7647   -1.2908 H   0  0  0  0  0  0  0  0  0  0  0  0
   -3.2664    0.6521   -2.9435 H   0  0  0  0  0  0  0  0  0  0  0  0
   -4.6207   -0.3846   -1.2818 H   0  0  0  0  0  0  0  0  0  0  0  0
   -6.0442   -1.9936   -0.2155 H   0  0  0  0  0  0  0  0  0  0  0  0
   -5.7222    0.0359    1.7278 S   0  0  0  0  0  0  0  0  0  0  0  0
   -4.0198    0.7507    1.9716 C   0  0  0  0  0  0  0  0  0  0  0  0
   -6.5324    0.6926    2.7595 O   0  0  0  0  0  0  0  0  0  0  0  0
   -5.4897   -1.4278    1.9093 O   0  0  0  0  0  0  0  0  0  0  0  0
   -6.0241    0.4038    0.3163 O   0  0  0  0  0  0  0  0  0  0  0  0
   -4.0223    2.0821    1.8187 F   0  0  0  0  0  0  0  0  0  0  0  0
   -3.5299    0.4613    3.1828 F   0  0  0  0  0  0  0  0  0  0  0  0
   -3.1468    0.2435    1.0521 F   0  0  0  0  0  0  0  0  0  0  0  0
  1  2  1  0  0  0  0
  2  3  1  0  0  0  0
  4 11  1  0  0  0  0
  4  1  2  0  0  0  0
  5  4  1  0  0  0  0
  6  5  2  0  0  0  0
  6  9  1  0  0  0  0
  7  8  1  0  0  0  0
  7  6  1  0  0  0  0
  8 14  1  0  0  0  0
  9 10  2  0  0  0  0
 10  1  1  0  0  0  0
 10 17  1  0  0  0  0
 12  5  1  0  0  0  0
 13  8  1  0  0  0  0
 15  8  1  0  0  0  0
 16  9  1  0  0  0  0
 18 21  2  0  0  0  0
 18 19  1  0  0  0  0
 18 20  1  0  0  0  0
 19 24  1  0  0  0  0
 22 18  2  0  0  0  0
 23 19  1  0  0  0  0
 25 19  1  0  0  0  0
M  RAD  3   2   2   3   3  20   2
M  END
