Coordinates from ORCA-job 4-MeOPhN2+~TfO-_B3LYPG-6-31G_dp-NX-Scan-d89-09-n800
 OpenBabel11261920223D

 25 24  0  0  0  0  0  0  0  0999 V2000
   -4.5106   -3.9382   -0.5825 C   0  0  0  0  0  0  0  0  0  0  0  0
   -5.1921   -4.8896    0.0886 N   0  0  0  0  0  0  0  0  0  0  0  0
   -5.7883   -5.6426    0.6717 N   0  0  0  0  0  0  0  0  0  0  0  0
   -3.4093   -4.3011   -1.4099 C   0  0  0  0  0  0  0  0  0  0  0  0
   -2.7152   -3.2928   -2.0241 C   0  0  0  0  0  0  0  0  0  0  0  0
   -3.0917   -1.9312   -1.8192 C   0  0  0  0  0  0  0  0  0  0  0  0
   -2.3160   -1.0278   -2.4008 O   0  0  0  0  0  0  0  0  0  0  0  0
   -2.5774    0.3764   -2.1538 C   0  0  0  0  0  0  0  0  0  0  0  0
   -4.2104   -1.6000   -1.0283 C   0  0  0  0  0  0  0  0  0  0  0  0
   -4.9186   -2.5944   -0.3941 C   0  0  0  0  0  0  0  0  0  0  0  0
   -3.1295   -5.3414   -1.5331 H   0  0  0  0  0  0  0  0  0  0  0  0
   -1.8576   -3.5038   -2.6528 H   0  0  0  0  0  0  0  0  0  0  0  0
   -1.7649    0.9047   -2.6492 H   0  0  0  0  0  0  0  0  0  0  0  0
   -2.5799    0.5807   -1.0808 H   0  0  0  0  0  0  0  0  0  0  0  0
   -3.5393    0.6663   -2.5831 H   0  0  0  0  0  0  0  0  0  0  0  0
   -4.5375   -0.5733   -0.8475 H   0  0  0  0  0  0  0  0  0  0  0  0
   -5.7207   -2.3089    0.2862 H   0  0  0  0  0  0  0  0  0  0  0  0
   -5.7294    0.5573    1.4311 S   0  0  0  0  0  0  0  0  0  0  0  0
   -4.0694    0.9498    2.1716 C   0  0  0  0  0  0  0  0  0  0  0  0
   -6.6755    1.4192    2.1437 O   0  0  0  0  0  0  0  0  0  0  0  0
   -5.8594   -0.9045    1.6954 O   0  0  0  0  0  0  0  0  0  0  0  0
   -5.4963    0.8820   -0.0072 O   0  0  0  0  0  0  0  0  0  0  0  0
   -3.7900    2.2569    2.0780 F   0  0  0  0  0  0  0  0  0  0  0  0
   -3.9968    0.5912    3.4597 F   0  0  0  0  0  0  0  0  0  0  0  0
   -3.0908    0.2767    1.5048 F   0  0  0  0  0  0  0  0  0  0  0  0
  1 10  1  0  0  0  0
  1  2  1  0  0  0  0
  2  3  1  0  0  0  0
  4  1  2  0  0  0  0
  5  6  2  0  0  0  0
  5  4  1  0  0  0  0
  6  9  1  0  0  0  0
  7  8  1  0  0  0  0
  7  6  1  0  0  0  0
  8 14  1  0  0  0  0
  9 16  1  0  0  0  0
  9 10  2  0  0  0  0
 10 17  1  0  0  0  0
 11  4  1  0  0  0  0
 12  5  1  0  0  0  0
 13  8  1  0  0  0  0
 15  8  1  0  0  0  0
 18 21  2  0  0  0  0
 18 20  1  0  0  0  0
 18 19  1  0  0  0  0
 19 24  1  0  0  0  0
 22 18  2  0  0  0  0
 23 19  1  0  0  0  0
 25 19  1  0  0  0  0
M  RAD  3   2   2   3   3  20   2
M  END
