Coordinates from ORCA-job 4-MeOPhN2+~TfO-_B3LYPG-6-31G_dp-NX-Scan-d89-09-n800
 OpenBabel11261920223D

 25 24  0  0  0  0  0  0  0  0999 V2000
   -3.9231   -2.8120   -0.2614 C   0  0  0  0  0  0  0  0  0  0  0  0
   -4.3780   -3.2424    0.9623 N   0  0  0  0  0  0  0  0  0  0  0  0
   -4.6916   -3.2952    2.0406 N   0  0  0  0  0  0  0  0  0  0  0  0
   -4.0045   -3.6816   -1.3672 C   0  0  0  0  0  0  0  0  0  0  0  0
   -3.5659   -3.2287   -2.5916 C   0  0  0  0  0  0  0  0  0  0  0  0
   -3.0525   -1.9171   -2.7221 C   0  0  0  0  0  0  0  0  0  0  0  0
   -2.6637   -1.5772   -3.9589 O   0  0  0  0  0  0  0  0  0  0  0  0
   -2.1585   -0.2588   -4.2006 C   0  0  0  0  0  0  0  0  0  0  0  0
   -2.9754   -1.0662   -1.6016 C   0  0  0  0  0  0  0  0  0  0  0  0
   -3.4097   -1.5054   -0.3624 C   0  0  0  0  0  0  0  0  0  0  0  0
   -4.4117   -4.6793   -1.2495 H   0  0  0  0  0  0  0  0  0  0  0  0
   -3.6116   -3.8558   -3.4743 H   0  0  0  0  0  0  0  0  0  0  0  0
   -1.9321   -0.2249   -5.2655 H   0  0  0  0  0  0  0  0  0  0  0  0
   -1.2449   -0.0768   -3.6256 H   0  0  0  0  0  0  0  0  0  0  0  0
   -2.9100    0.4996   -3.9584 H   0  0  0  0  0  0  0  0  0  0  0  0
   -2.5901   -0.0589   -1.6875 H   0  0  0  0  0  0  0  0  0  0  0  0
   -3.3701   -0.8647    0.5120 H   0  0  0  0  0  0  0  0  0  0  0  0
   -5.3045   -0.3340    2.3154 S   0  0  0  0  0  0  0  0  0  0  0  0
   -6.1030    0.1999    3.9034 C   0  0  0  0  0  0  0  0  0  0  0  0
   -6.3279   -1.1477    1.6210 O   0  0  0  0  0  0  0  0  0  0  0  0
   -4.1376   -1.1736    2.7778 O   0  0  0  0  0  0  0  0  0  0  0  0
   -4.8861    0.9138    1.6529 O   0  0  0  0  0  0  0  0  0  0  0  0
   -7.1876    0.9444    3.6493 F   0  0  0  0  0  0  0  0  0  0  0  0
   -6.4783   -0.8706    4.6194 F   0  0  0  0  0  0  0  0  0  0  0  0
   -5.2484    0.9246    4.6369 F   0  0  0  0  0  0  0  0  0  0  0  0
  1  2  1  0  0  0  0
  2  3  1  0  0  0  0
  4 11  1  0  0  0  0
  4  1  2  0  0  0  0
  5  4  1  0  0  0  0
  6  5  2  0  0  0  0
  6  9  1  0  0  0  0
  7  6  1  0  0  0  0
  8  7  1  0  0  0  0
  8 15  1  0  0  0  0
  8 14  1  0  0  0  0
  9 10  2  0  0  0  0
 10  1  1  0  0  0  0
 10 17  1  0  0  0  0
 12  5  1  0  0  0  0
 13  8  1  0  0  0  0
 16  9  1  0  0  0  0
 18 21  1  0  0  0  0
 18 19  1  0  0  0  0
 19 24  1  0  0  0  0
 19 25  1  0  0  0  0
 20 18  2  0  0  0  0
 22 18  2  0  0  0  0
 23 19  1  0  0  0  0
M  RAD  3   2   2   3   3  21   2
M  END
