Coordinates from ORCA-job 4-MeOPhN2+~TfO-_B3LYPG-6-31G_dp-NX-Scan-d89-09-n800
 OpenBabel11261920223D

 25 25  0  0  0  0  0  0  0  0999 V2000
   -3.9810   -2.5692   -0.3592 C   0  0  0  0  0  0  0  0  0  0  0  0
   -4.4506   -2.9276    0.9004 N   0  0  0  0  0  0  0  0  0  0  0  0
   -4.8152   -2.5297    1.9314 N   0  0  0  0  0  0  0  0  0  0  0  0
   -3.6528   -3.6283   -1.2279 C   0  0  0  0  0  0  0  0  0  0  0  0
   -3.1721   -3.3524   -2.4913 C   0  0  0  0  0  0  0  0  0  0  0  0
   -3.0125   -2.0140   -2.9059 C   0  0  0  0  0  0  0  0  0  0  0  0
   -2.5375   -1.8488   -4.1547 O   0  0  0  0  0  0  0  0  0  0  0  0
   -2.3386   -0.5265   -4.6567 C   0  0  0  0  0  0  0  0  0  0  0  0
   -3.3438   -0.9596   -2.0343 C   0  0  0  0  0  0  0  0  0  0  0  0
   -3.8287   -1.2293   -0.7622 C   0  0  0  0  0  0  0  0  0  0  0  0
   -3.7809   -4.6508   -0.8897 H   0  0  0  0  0  0  0  0  0  0  0  0
   -2.9087   -4.1441   -3.1832 H   0  0  0  0  0  0  0  0  0  0  0  0
   -1.9509   -0.6514   -5.6674 H   0  0  0  0  0  0  0  0  0  0  0  0
   -1.6098    0.0223   -4.0502 H   0  0  0  0  0  0  0  0  0  0  0  0
   -3.2819    0.0296   -4.6930 H   0  0  0  0  0  0  0  0  0  0  0  0
   -3.2265    0.0723   -2.3410 H   0  0  0  0  0  0  0  0  0  0  0  0
   -4.0883   -0.4325   -0.0776 H   0  0  0  0  0  0  0  0  0  0  0  0
   -4.6539   -0.0862    3.3388 S   0  0  0  0  0  0  0  0  0  0  0  0
   -6.4024   -0.1434    3.9709 C   0  0  0  0  0  0  0  0  0  0  0  0
   -4.8388   -0.7288    1.9204 O   0  0  0  0  0  0  0  0  0  0  0  0
   -3.8768   -0.9432    4.2290 O   0  0  0  0  0  0  0  0  0  0  0  0
   -4.3245    1.3274    3.1807 O   0  0  0  0  0  0  0  0  0  0  0  0
   -7.2091    0.5630    3.1725 F   0  0  0  0  0  0  0  0  0  0  0  0
   -6.8349   -1.4097    4.0123 F   0  0  0  0  0  0  0  0  0  0  0  0
   -6.4466    0.3725    5.2021 F   0  0  0  0  0  0  0  0  0  0  0  0
  1  2  1  0  0  0  0
  2  3  1  0  0  0  0
  4 11  1  0  0  0  0
  4  1  2  0  0  0  0
  5  4  1  0  0  0  0
  6  5  2  0  0  0  0
  6  9  1  0  0  0  0
  7  6  1  0  0  0  0
  8  7  1  0  0  0  0
  8 14  1  0  0  0  0
  9 10  2  0  0  0  0
 10  1  1  0  0  0  0
 10 17  1  0  0  0  0
 12  5  1  0  0  0  0
 13  8  1  0  0  0  0
 15  8  1  0  0  0  0
 16  9  1  0  0  0  0
 18 19  1  0  0  0  0
 18 21  2  0  0  0  0
 19 24  1  0  0  0  0
 19 25  1  0  0  0  0
 20  3  1  0  0  0  0
 20 18  1  0  0  0  0
 22 18  2  0  0  0  0
 23 19  1  0  0  0  0
M  RAD  2   2   2   3   2
M  END
