Coordinates from ORCA-job 4-MeOPhN2+~TfO-_B3LYPG-6-31G_dp-NX-Scan-d89-09-n800
 OpenBabel11261920223D

 25 24  0  0  0  0  0  0  0  0999 V2000
   -4.2087   -2.9850   -0.3715 C   0  0  0  0  0  0  0  0  0  0  0  0
   -4.8831   -3.6058    0.6493 N   0  0  0  0  0  0  0  0  0  0  0  0
   -5.3803   -4.2406    1.4222 N   0  0  0  0  0  0  0  0  0  0  0  0
   -3.3527   -3.8024   -1.1533 C   0  0  0  0  0  0  0  0  0  0  0  0
   -2.6668   -3.2209   -2.1915 C   0  0  0  0  0  0  0  0  0  0  0  0
   -2.8235   -1.8378   -2.4638 C   0  0  0  0  0  0  0  0  0  0  0  0
   -2.1077   -1.3795   -3.4958 O   0  0  0  0  0  0  0  0  0  0  0  0
   -2.1868    0.0088   -3.8476 C   0  0  0  0  0  0  0  0  0  0  0  0
   -3.6825   -1.0506   -1.6740 C   0  0  0  0  0  0  0  0  0  0  0  0
   -4.3830   -1.6121   -0.6195 C   0  0  0  0  0  0  0  0  0  0  0  0
   -3.2429   -4.8578   -0.9285 H   0  0  0  0  0  0  0  0  0  0  0  0
   -1.9970   -3.7996   -2.8172 H   0  0  0  0  0  0  0  0  0  0  0  0
   -1.5250    0.1288   -4.7042 H   0  0  0  0  0  0  0  0  0  0  0  0
   -1.8434    0.6407   -3.0226 H   0  0  0  0  0  0  0  0  0  0  0  0
   -3.2085    0.2830   -4.1288 H   0  0  0  0  0  0  0  0  0  0  0  0
   -3.8107    0.0080   -1.8607 H   0  0  0  0  0  0  0  0  0  0  0  0
   -5.0348   -0.9958    0.0017 H   0  0  0  0  0  0  0  0  0  0  0  0
   -6.1336   -0.2827    2.2316 S   0  0  0  0  0  0  0  0  0  0  0  0
   -5.0090    0.2576    3.6069 C   0  0  0  0  0  0  0  0  0  0  0  0
   -7.4880   -0.0201    2.7283 O   0  0  0  0  0  0  0  0  0  0  0  0
   -5.7763   -1.7303    2.0667 O   0  0  0  0  0  0  0  0  0  0  0  0
   -5.6748    0.5272    1.0707 O   0  0  0  0  0  0  0  0  0  0  0  0
   -5.1570    1.5657    3.8576 F   0  0  0  0  0  0  0  0  0  0  0  0
   -5.2700   -0.4243    4.7323 F   0  0  0  0  0  0  0  0  0  0  0  0
   -3.7210    0.0371    3.2761 F   0  0  0  0  0  0  0  0  0  0  0  0
  1  2  1  0  0  0  0
  2  3  1  0  0  0  0
  4 11  1  0  0  0  0
  4  1  2  0  0  0  0
  5  4  1  0  0  0  0
  6  5  2  0  0  0  0
  6  9  1  0  0  0  0
  7  6  1  0  0  0  0
  8  7  1  0  0  0  0
  8 14  1  0  0  0  0
  9 10  2  0  0  0  0
 10  1  1  0  0  0  0
 10 17  1  0  0  0  0
 12  5  1  0  0  0  0
 13  8  1  0  0  0  0
 15  8  1  0  0  0  0
 16  9  1  0  0  0  0
 18 20  1  0  0  0  0
 18 19  1  0  0  0  0
 19 23  1  0  0  0  0
 19 24  1  0  0  0  0
 21 18  2  0  0  0  0
 22 18  2  0  0  0  0
 25 19  1  0  0  0  0
M  RAD  3   2   2   3   3  20   2
M  END
