Coordinates from ORCA-job 4-MeOPhN2+~TfO-_B3LYPG-6-31G_dp-NX-Scan-d89-09-n800
 OpenBabel11261920223D

 25 24  0  0  0  0  0  0  0  0999 V2000
   -4.5219   -3.9015   -0.5770 C   0  0  0  0  0  0  0  0  0  0  0  0
   -5.2120   -4.8387    0.1061 N   0  0  0  0  0  0  0  0  0  0  0  0
   -5.8132   -5.5804    0.6982 N   0  0  0  0  0  0  0  0  0  0  0  0
   -3.4120   -4.2829   -1.3843 C   0  0  0  0  0  0  0  0  0  0  0  0
   -2.7064   -3.2877   -2.0066 C   0  0  0  0  0  0  0  0  0  0  0  0
   -3.0787   -1.9213   -1.8276 C   0  0  0  0  0  0  0  0  0  0  0  0
   -2.2884   -1.0313   -2.4118 O   0  0  0  0  0  0  0  0  0  0  0  0
   -2.5407    0.3769   -2.1857 C   0  0  0  0  0  0  0  0  0  0  0  0
   -4.2067   -1.5729   -1.0588 C   0  0  0  0  0  0  0  0  0  0  0  0
   -4.9282   -2.5539   -0.4175 C   0  0  0  0  0  0  0  0  0  0  0  0
   -3.1346   -5.3261   -1.4860 H   0  0  0  0  0  0  0  0  0  0  0  0
   -1.8416   -3.5122   -2.6204 H   0  0  0  0  0  0  0  0  0  0  0  0
   -1.7162    0.8930   -2.6743 H   0  0  0  0  0  0  0  0  0  0  0  0
   -2.5568    0.5941   -1.1152 H   0  0  0  0  0  0  0  0  0  0  0  0
   -3.4927    0.6704   -2.6348 H   0  0  0  0  0  0  0  0  0  0  0  0
   -4.5323   -0.5448   -0.8916 H   0  0  0  0  0  0  0  0  0  0  0  0
   -5.7342   -2.2578    0.2542 H   0  0  0  0  0  0  0  0  0  0  0  0
   -5.7573    0.4991    1.4792 S   0  0  0  0  0  0  0  0  0  0  0  0
   -4.0776    0.9214    2.1570 C   0  0  0  0  0  0  0  0  0  0  0  0
   -6.6897    1.3470    2.2260 O   0  0  0  0  0  0  0  0  0  0  0  0
   -5.8530   -0.9644    1.7531 O   0  0  0  0  0  0  0  0  0  0  0  0
   -5.5854    0.8223    0.0329 O   0  0  0  0  0  0  0  0  0  0  0  0
   -3.8226    2.2324    2.0482 F   0  0  0  0  0  0  0  0  0  0  0  0
   -3.9528    0.5698    3.4430 F   0  0  0  0  0  0  0  0  0  0  0  0
   -3.1119    0.2614    1.4582 F   0  0  0  0  0  0  0  0  0  0  0  0
  1 10  1  0  0  0  0
  1  2  1  0  0  0  0
  2  3  1  0  0  0  0
  4  1  2  0  0  0  0
  5  6  2  0  0  0  0
  5  4  1  0  0  0  0
  6  9  1  0  0  0  0
  7  8  1  0  0  0  0
  7  6  1  0  0  0  0
  8 14  1  0  0  0  0
  9 16  1  0  0  0  0
  9 10  2  0  0  0  0
 10 17  1  0  0  0  0
 11  4  1  0  0  0  0
 12  5  1  0  0  0  0
 13  8  1  0  0  0  0
 15  8  1  0  0  0  0
 18 21  2  0  0  0  0
 18 19  1  0  0  0  0
 18 20  1  0  0  0  0
 19 24  1  0  0  0  0
 22 18  2  0  0  0  0
 23 19  1  0  0  0  0
 25 19  1  0  0  0  0
M  RAD  3   2   2   3   3  20   2
M  END
