Coordinates from ORCA-job 4-MeOPhN2+~TfO-_B3LYPG-6-31G_dp-NX-Scan-d89-09-n800
 OpenBabel11261920223D

 25 24  0  0  0  0  0  0  0  0999 V2000
   -4.0860   -2.9146   -0.4417 C   0  0  0  0  0  0  0  0  0  0  0  0
   -4.6847   -3.4100    0.6930 N   0  0  0  0  0  0  0  0  0  0  0  0
   -5.1424   -3.5634    1.7091 N   0  0  0  0  0  0  0  0  0  0  0  0
   -3.7005   -3.8209   -1.4526 C   0  0  0  0  0  0  0  0  0  0  0  0
   -3.1005   -3.3208   -2.5856 C   0  0  0  0  0  0  0  0  0  0  0  0
   -2.8927   -1.9270   -2.7229 C   0  0  0  0  0  0  0  0  0  0  0  0
   -2.3078   -1.5498   -3.8675 O   0  0  0  0  0  0  0  0  0  0  0  0
   -2.0622   -0.1592   -4.1081 C   0  0  0  0  0  0  0  0  0  0  0  0
   -3.2947   -1.0421   -1.7036 C   0  0  0  0  0  0  0  0  0  0  0  0
   -3.8938   -1.5241   -0.5507 C   0  0  0  0  0  0  0  0  0  0  0  0
   -3.8729   -4.8846   -1.3297 H   0  0  0  0  0  0  0  0  0  0  0  0
   -2.7807   -3.9730   -3.3899 H   0  0  0  0  0  0  0  0  0  0  0  0
   -1.5865   -0.1133   -5.0871 H   0  0  0  0  0  0  0  0  0  0  0  0
   -1.3896    0.2572   -3.3512 H   0  0  0  0  0  0  0  0  0  0  0  0
   -2.9989    0.4069   -4.1262 H   0  0  0  0  0  0  0  0  0  0  0  0
   -3.1502    0.0266   -1.7994 H   0  0  0  0  0  0  0  0  0  0  0  0
   -4.2320   -0.8438    0.2333 H   0  0  0  0  0  0  0  0  0  0  0  0
   -5.7003   -0.5166    2.4615 S   0  0  0  0  0  0  0  0  0  0  0  0
   -5.6782    0.4757    4.0314 C   0  0  0  0  0  0  0  0  0  0  0  0
   -7.0646   -1.0577    2.3526 O   0  0  0  0  0  0  0  0  0  0  0  0
   -4.6427   -1.5603    2.7131 O   0  0  0  0  0  0  0  0  0  0  0  0
   -5.2857    0.4487    1.4126 O   0  0  0  0  0  0  0  0  0  0  0  0
   -6.5578    1.4834    3.9524 F   0  0  0  0  0  0  0  0  0  0  0  0
   -6.0033   -0.2960    5.0772 F   0  0  0  0  0  0  0  0  0  0  0  0
   -4.4584    0.9902    4.2444 F   0  0  0  0  0  0  0  0  0  0  0  0
  1  2  1  0  0  0  0
  2  3  1  0  0  0  0
  4 11  1  0  0  0  0
  4  1  2  0  0  0  0
  5  4  1  0  0  0  0
  6  5  2  0  0  0  0
  6  9  1  0  0  0  0
  7  6  1  0  0  0  0
  8  7  1  0  0  0  0
  8 14  1  0  0  0  0
  9 10  2  0  0  0  0
 10  1  1  0  0  0  0
 10 17  1  0  0  0  0
 12  5  1  0  0  0  0
 13  8  1  0  0  0  0
 15  8  1  0  0  0  0
 16  9  1  0  0  0  0
 18 21  1  0  0  0  0
 18 19  1  0  0  0  0
 19 25  1  0  0  0  0
 19 24  1  0  0  0  0
 20 18  2  0  0  0  0
 22 18  2  0  0  0  0
 23 19  1  0  0  0  0
M  RAD  3   2   2   3   3  21   2
M  END
