Coordinates from ORCA-job 4-MeOPhN2+~TfO-_B3LYPG-6-31G_dp-NX-Scan-d89-09-n800
 OpenBabel11261920223D

 25 24  0  0  0  0  0  0  0  0999 V2000
   -4.7146   -3.5707   -0.5285 C   0  0  0  0  0  0  0  0  0  0  0  0
   -5.5042   -4.3952    0.1912 N   0  0  0  0  0  0  0  0  0  0  0  0
   -6.1602   -5.0779    0.7936 N   0  0  0  0  0  0  0  0  0  0  0  0
   -3.4420   -4.0360   -0.9629 C   0  0  0  0  0  0  0  0  0  0  0  0
   -2.6155   -3.1447   -1.5929 C   0  0  0  0  0  0  0  0  0  0  0  0
   -3.0224   -1.7896   -1.7707 C   0  0  0  0  0  0  0  0  0  0  0  0
   -2.1071   -0.9951   -2.3184 O   0  0  0  0  0  0  0  0  0  0  0  0
   -2.3618    0.4221   -2.3903 C   0  0  0  0  0  0  0  0  0  0  0  0
   -4.3021   -1.3640   -1.3733 C   0  0  0  0  0  0  0  0  0  0  0  0
   -5.1526   -2.2421   -0.7347 C   0  0  0  0  0  0  0  0  0  0  0  0
   -3.1391   -5.0606   -0.7801 H   0  0  0  0  0  0  0  0  0  0  0  0
   -1.6283   -3.4349   -1.9321 H   0  0  0  0  0  0  0  0  0  0  0  0
   -1.4415    0.8581   -2.7762 H   0  0  0  0  0  0  0  0  0  0  0  0
   -2.5843    0.8156   -1.3958 H   0  0  0  0  0  0  0  0  0  0  0  0
   -3.1881    0.6310   -3.0763 H   0  0  0  0  0  0  0  0  0  0  0  0
   -4.6302   -0.3368   -1.4543 H   0  0  0  0  0  0  0  0  0  0  0  0
   -6.1078   -1.8926   -0.3698 H   0  0  0  0  0  0  0  0  0  0  0  0
   -5.7063   -0.1305    1.7769 S   0  0  0  0  0  0  0  0  0  0  0  0
   -4.0276    0.6572    1.9512 C   0  0  0  0  0  0  0  0  0  0  0  0
   -6.4710    0.4201    2.9010 O   0  0  0  0  0  0  0  0  0  0  0  0
   -5.3910   -1.5893    1.8522 O   0  0  0  0  0  0  0  0  0  0  0  0
   -6.1245    0.2996    0.4143 O   0  0  0  0  0  0  0  0  0  0  0  0
   -4.1058    1.9927    1.8774 F   0  0  0  0  0  0  0  0  0  0  0  0
   -3.4458    0.3279    3.1110 F   0  0  0  0  0  0  0  0  0  0  0  0
   -3.1929    0.2477    0.9519 F   0  0  0  0  0  0  0  0  0  0  0  0
  1  2  1  0  0  0  0
  2  3  1  0  0  0  0
  4 11  1  0  0  0  0
  4  1  2  0  0  0  0
  5  4  1  0  0  0  0
  6  5  2  0  0  0  0
  6  9  1  0  0  0  0
  7  6  1  0  0  0  0
  8  7  1  0  0  0  0
  8 14  1  0  0  0  0
  9 10  2  0  0  0  0
 10  1  1  0  0  0  0
 10 17  1  0  0  0  0
 12  5  1  0  0  0  0
 13  8  1  0  0  0  0
 15  8  1  0  0  0  0
 16  9  1  0  0  0  0
 18 21  2  0  0  0  0
 18 19  1  0  0  0  0
 18 20  1  0  0  0  0
 19 24  1  0  0  0  0
 22 18  2  0  0  0  0
 23 19  1  0  0  0  0
 25 19  1  0  0  0  0
M  RAD  3   2   2   3   3  20   2
M  END
