Coordinates from ORCA-job 4-MeOPhN2+~TfO-_B3LYPG-6-31G_dp-NX-Scan-d89-09-n800
 OpenBabel11261920223D

 25 24  0  0  0  0  0  0  0  0999 V2000
   -4.1564   -2.9976   -0.4862 C   0  0  0  0  0  0  0  0  0  0  0  0
   -4.8062   -3.5367    0.5961 N   0  0  0  0  0  0  0  0  0  0  0  0
   -5.3367   -3.7801    1.5540 N   0  0  0  0  0  0  0  0  0  0  0  0
   -3.5783   -3.8697   -1.4351 C   0  0  0  0  0  0  0  0  0  0  0  0
   -2.9246   -3.3172   -2.5115 C   0  0  0  0  0  0  0  0  0  0  0  0
   -2.8515   -1.9091   -2.6535 C   0  0  0  0  0  0  0  0  0  0  0  0
   -2.1952   -1.4824   -3.7393 O   0  0  0  0  0  0  0  0  0  0  0  0
   -2.0623   -0.0750   -3.9753 C   0  0  0  0  0  0  0  0  0  0  0  0
   -3.4469   -1.0630   -1.6979 C   0  0  0  0  0  0  0  0  0  0  0  0
   -4.1048   -1.5953   -0.6012 C   0  0  0  0  0  0  0  0  0  0  0  0
   -3.6461   -4.9448   -1.3079 H   0  0  0  0  0  0  0  0  0  0  0  0
   -2.4574   -3.9375   -3.2675 H   0  0  0  0  0  0  0  0  0  0  0  0
   -1.4967    0.0117   -4.9022 H   0  0  0  0  0  0  0  0  0  0  0  0
   -1.5138    0.4086   -3.1605 H   0  0  0  0  0  0  0  0  0  0  0  0
   -3.0429    0.3962   -4.0957 H   0  0  0  0  0  0  0  0  0  0  0  0
   -3.4063    0.0144   -1.7980 H   0  0  0  0  0  0  0  0  0  0  0  0
   -4.5858   -0.9462    0.1383 H   0  0  0  0  0  0  0  0  0  0  0  0
   -5.8796   -0.5185    2.4552 S   0  0  0  0  0  0  0  0  0  0  0  0
   -5.4112    0.5362    3.9104 C   0  0  0  0  0  0  0  0  0  0  0  0
   -7.3050   -0.8237    2.6383 O   0  0  0  0  0  0  0  0  0  0  0  0
   -4.9531   -1.6941    2.5933 O   0  0  0  0  0  0  0  0  0  0  0  0
   -5.5300    0.3249    1.2797 O   0  0  0  0  0  0  0  0  0  0  0  0
   -6.1343    1.6646    3.9190 F   0  0  0  0  0  0  0  0  0  0  0  0
   -5.6310   -0.1209    5.0577 F   0  0  0  0  0  0  0  0  0  0  0  0
   -4.1109    0.8670    3.8544 F   0  0  0  0  0  0  0  0  0  0  0  0
  1  2  1  0  0  0  0
  2  3  1  0  0  0  0
  4 11  1  0  0  0  0
  4  1  2  0  0  0  0
  5  4  1  0  0  0  0
  6  5  2  0  0  0  0
  6  9  1  0  0  0  0
  7  6  1  0  0  0  0
  8  7  1  0  0  0  0
  8 14  1  0  0  0  0
  9 10  2  0  0  0  0
 10  1  1  0  0  0  0
 10 17  1  0  0  0  0
 12  5  1  0  0  0  0
 13  8  1  0  0  0  0
 15  8  1  0  0  0  0
 16  9  1  0  0  0  0
 18 21  2  0  0  0  0
 18 20  1  0  0  0  0
 18 19  1  0  0  0  0
 19 23  1  0  0  0  0
 19 24  1  0  0  0  0
 22 18  2  0  0  0  0
 25 19  1  0  0  0  0
M  RAD  3   2   2   3   3  20   2
M  END
