Coordinates from ORCA-job 4-MeOPhN2+~TfO-_B3LYPG-6-31G_dp-NX-Scan-d89-09-n800
 OpenBabel11261920223D

 25 24  0  0  0  0  0  0  0  0999 V2000
   -4.1529   -2.9901   -0.4856 C   0  0  0  0  0  0  0  0  0  0  0  0
   -4.7993   -3.5237    0.6020 N   0  0  0  0  0  0  0  0  0  0  0  0
   -5.3236   -3.7512    1.5678 N   0  0  0  0  0  0  0  0  0  0  0  0
   -3.5880   -3.8666   -1.4381 C   0  0  0  0  0  0  0  0  0  0  0  0
   -2.9372   -3.3194   -2.5192 C   0  0  0  0  0  0  0  0  0  0  0  0
   -2.8544   -1.9120   -2.6622 C   0  0  0  0  0  0  0  0  0  0  0  0
   -2.2020   -1.4906   -3.7526 O   0  0  0  0  0  0  0  0  0  0  0  0
   -2.0602   -0.0843   -3.9898 C   0  0  0  0  0  0  0  0  0  0  0  0
   -3.4373   -1.0611   -1.7032 C   0  0  0  0  0  0  0  0  0  0  0  0
   -4.0917   -1.5884   -0.6018 C   0  0  0  0  0  0  0  0  0  0  0  0
   -3.6633   -4.9411   -1.3102 H   0  0  0  0  0  0  0  0  0  0  0  0
   -2.4799   -3.9435   -3.2781 H   0  0  0  0  0  0  0  0  0  0  0  0
   -1.4994   -0.0020   -4.9200 H   0  0  0  0  0  0  0  0  0  0  0  0
   -1.5033    0.3955   -3.1785 H   0  0  0  0  0  0  0  0  0  0  0  0
   -3.0379    0.3942   -4.1045 H   0  0  0  0  0  0  0  0  0  0  0  0
   -3.3896    0.0159   -1.8042 H   0  0  0  0  0  0  0  0  0  0  0  0
   -4.5640   -0.9365    0.1402 H   0  0  0  0  0  0  0  0  0  0  0  0
   -5.8587   -0.5180    2.4576 S   0  0  0  0  0  0  0  0  0  0  0  0
   -5.4366    0.5317    3.9305 C   0  0  0  0  0  0  0  0  0  0  0  0
   -7.2825   -0.8482    2.6085 O   0  0  0  0  0  0  0  0  0  0  0  0
   -4.9177   -1.6816    2.6061 O   0  0  0  0  0  0  0  0  0  0  0  0
   -5.4982    0.3390    1.2958 O   0  0  0  0  0  0  0  0  0  0  0  0
   -6.1798    1.6472    3.9337 F   0  0  0  0  0  0  0  0  0  0  0  0
   -5.6676   -0.1389    5.0675 F   0  0  0  0  0  0  0  0  0  0  0  0
   -4.1418    0.8854    3.9026 F   0  0  0  0  0  0  0  0  0  0  0  0
  1  2  1  0  0  0  0
  2  3  1  0  0  0  0
  4 11  1  0  0  0  0
  4  1  2  0  0  0  0
  5  4  1  0  0  0  0
  6  5  2  0  0  0  0
  6  9  1  0  0  0  0
  7  6  1  0  0  0  0
  8  7  1  0  0  0  0
  8 14  1  0  0  0  0
  9 10  2  0  0  0  0
 10  1  1  0  0  0  0
 10 17  1  0  0  0  0
 12  5  1  0  0  0  0
 13  8  1  0  0  0  0
 15  8  1  0  0  0  0
 16  9  1  0  0  0  0
 18 21  2  0  0  0  0
 18 20  1  0  0  0  0
 18 19  1  0  0  0  0
 19 23  1  0  0  0  0
 19 24  1  0  0  0  0
 22 18  2  0  0  0  0
 25 19  1  0  0  0  0
M  RAD  3   2   2   3   3  20   2
M  END
