Coordinates from ORCA-job 4-MeOPhN2+~TfO-_B3LYPG-6-31G_dp-NX-Scan-d89-09-n800
 OpenBabel11261920223D

 25 24  0  0  0  0  0  0  0  0999 V2000
   -4.2061   -2.9681   -0.3511 C   0  0  0  0  0  0  0  0  0  0  0  0
   -4.8754   -3.5883    0.6740 N   0  0  0  0  0  0  0  0  0  0  0  0
   -5.3531   -4.2392    1.4460 N   0  0  0  0  0  0  0  0  0  0  0  0
   -3.3253   -3.7809   -1.1104 C   0  0  0  0  0  0  0  0  0  0  0  0
   -2.6404   -3.2032   -2.1512 C   0  0  0  0  0  0  0  0  0  0  0  0
   -2.8212   -1.8280   -2.4480 C   0  0  0  0  0  0  0  0  0  0  0  0
   -2.1034   -1.3725   -3.4797 O   0  0  0  0  0  0  0  0  0  0  0  0
   -2.2052    0.0084   -3.8544 C   0  0  0  0  0  0  0  0  0  0  0  0
   -3.7035   -1.0453   -1.6799 C   0  0  0  0  0  0  0  0  0  0  0  0
   -4.4043   -1.6035   -0.6237 C   0  0  0  0  0  0  0  0  0  0  0  0
   -3.1968   -4.8300   -0.8669 H   0  0  0  0  0  0  0  0  0  0  0  0
   -1.9528   -3.7788   -2.7602 H   0  0  0  0  0  0  0  0  0  0  0  0
   -1.5367    0.1276   -4.7058 H   0  0  0  0  0  0  0  0  0  0  0  0
   -1.8829    0.6597   -3.0360 H   0  0  0  0  0  0  0  0  0  0  0  0
   -3.2289    0.2583   -4.1505 H   0  0  0  0  0  0  0  0  0  0  0  0
   -3.8493    0.0078   -1.8839 H   0  0  0  0  0  0  0  0  0  0  0  0
   -5.0715   -0.9892   -0.0182 H   0  0  0  0  0  0  0  0  0  0  0  0
   -6.1550   -0.2468    2.2061 S   0  0  0  0  0  0  0  0  0  0  0  0
   -4.9856    0.1900    3.5812 C   0  0  0  0  0  0  0  0  0  0  0  0
   -7.4848    0.0944    2.7214 O   0  0  0  0  0  0  0  0  0  0  0  0
   -5.8916   -1.7111    2.0096 O   0  0  0  0  0  0  0  0  0  0  0  0
   -5.6528    0.5562    1.0588 O   0  0  0  0  0  0  0  0  0  0  0  0
   -5.0378    1.5007    3.8547 F   0  0  0  0  0  0  0  0  0  0  0  0
   -5.2840   -0.4909    4.6979 F   0  0  0  0  0  0  0  0  0  0  0  0
   -3.7185   -0.1158    3.2345 F   0  0  0  0  0  0  0  0  0  0  0  0
  1  2  1  0  0  0  0
  2  3  1  0  0  0  0
  4 11  1  0  0  0  0
  4  1  2  0  0  0  0
  5  4  1  0  0  0  0
  6  5  2  0  0  0  0
  6  9  1  0  0  0  0
  7  6  1  0  0  0  0
  8  7  1  0  0  0  0
  8 14  1  0  0  0  0
  9 10  2  0  0  0  0
 10  1  1  0  0  0  0
 10 17  1  0  0  0  0
 12  5  1  0  0  0  0
 13  8  1  0  0  0  0
 15  8  1  0  0  0  0
 16  9  1  0  0  0  0
 18 20  1  0  0  0  0
 18 19  1  0  0  0  0
 19 23  1  0  0  0  0
 19 24  1  0  0  0  0
 21 18  2  0  0  0  0
 22 18  2  0  0  0  0
 25 19  1  0  0  0  0
M  RAD  3   2   2   3   3  20   2
M  END
