Coordinates from ORCA-job 4-MeOPhN2+~TfO-_B3LYPG-6-31G_dp-NX-Scan-d89-09-n800
 OpenBabel11261920223D

 25 25  0  0  0  0  0  0  0  0999 V2000
   -3.9477   -2.5572   -0.3272 C   0  0  0  0  0  0  0  0  0  0  0  0
   -4.3893   -2.9324    0.9397 N   0  0  0  0  0  0  0  0  0  0  0  0
   -4.7198   -2.5068    1.9798 N   0  0  0  0  0  0  0  0  0  0  0  0
   -3.6538   -3.6156   -1.2098 C   0  0  0  0  0  0  0  0  0  0  0  0
   -3.2008   -3.3445   -2.4846 C   0  0  0  0  0  0  0  0  0  0  0  0
   -3.0346   -2.0081   -2.9008 C   0  0  0  0  0  0  0  0  0  0  0  0
   -2.5878   -1.8454   -4.1614 O   0  0  0  0  0  0  0  0  0  0  0  0
   -2.3881   -0.5244   -4.6648 C   0  0  0  0  0  0  0  0  0  0  0  0
   -3.3313   -0.9527   -2.0189 C   0  0  0  0  0  0  0  0  0  0  0  0
   -3.7873   -1.2194   -0.7350 C   0  0  0  0  0  0  0  0  0  0  0  0
   -3.7870   -4.6371   -0.8702 H   0  0  0  0  0  0  0  0  0  0  0  0
   -2.9646   -4.1386   -3.1836 H   0  0  0  0  0  0  0  0  0  0  0  0
   -2.0263   -0.6500   -5.6850 H   0  0  0  0  0  0  0  0  0  0  0  0
   -1.6395    0.0163   -4.0752 H   0  0  0  0  0  0  0  0  0  0  0  0
   -3.3263    0.0415   -4.6769 H   0  0  0  0  0  0  0  0  0  0  0  0
   -3.2090    0.0785   -2.3262 H   0  0  0  0  0  0  0  0  0  0  0  0
   -4.0178   -0.4169   -0.0478 H   0  0  0  0  0  0  0  0  0  0  0  0
   -4.6279   -0.1146    3.3975 S   0  0  0  0  0  0  0  0  0  0  0  0
   -6.4268   -0.1470    3.8742 C   0  0  0  0  0  0  0  0  0  0  0  0
   -4.7002   -0.7659    1.9619 O   0  0  0  0  0  0  0  0  0  0  0  0
   -3.9388   -0.9756    4.3508 O   0  0  0  0  0  0  0  0  0  0  0  0
   -4.2689    1.2910    3.2459 O   0  0  0  0  0  0  0  0  0  0  0  0
   -7.1482    0.5676    3.0056 F   0  0  0  0  0  0  0  0  0  0  0  0
   -6.8777   -1.4063    3.8815 F   0  0  0  0  0  0  0  0  0  0  0  0
   -6.5674    0.3753    5.0949 F   0  0  0  0  0  0  0  0  0  0  0  0
  1  2  1  0  0  0  0
  2  3  1  0  0  0  0
  4 11  1  0  0  0  0
  4  1  2  0  0  0  0
  5  4  1  0  0  0  0
  6  5  2  0  0  0  0
  6  9  1  0  0  0  0
  7  6  1  0  0  0  0
  8  7  1  0  0  0  0
  8 14  1  0  0  0  0
  9 10  2  0  0  0  0
 10  1  1  0  0  0  0
 10 17  1  0  0  0  0
 12  5  1  0  0  0  0
 13  8  1  0  0  0  0
 15  8  1  0  0  0  0
 16  9  1  0  0  0  0
 18 19  1  0  0  0  0
 18 21  2  0  0  0  0
 19 24  1  0  0  0  0
 19 25  1  0  0  0  0
 20  3  1  0  0  0  0
 20 18  1  0  0  0  0
 22 18  2  0  0  0  0
 23 19  1  0  0  0  0
M  RAD  2   2   2   3   2
M  END
