Coordinates from ORCA-job 4-MeOPhN2+~TfO-_B3LYPG-6-31G_dp-NX-Scan-d89-09-n800
 OpenBabel11261920223D

 25 24  0  0  0  0  0  0  0  0999 V2000
   -4.4690   -4.0310   -0.5848 C   0  0  0  0  0  0  0  0  0  0  0  0
   -5.1204   -5.0271    0.0482 N   0  0  0  0  0  0  0  0  0  0  0  0
   -5.6859   -5.8305    0.5946 N   0  0  0  0  0  0  0  0  0  0  0  0
   -3.4269   -4.3460   -1.5046 C   0  0  0  0  0  0  0  0  0  0  0  0
   -2.7676   -3.3067   -2.1048 C   0  0  0  0  0  0  0  0  0  0  0  0
   -3.1251   -1.9586   -1.8018 C   0  0  0  0  0  0  0  0  0  0  0  0
   -2.4001   -1.0243   -2.3943 O   0  0  0  0  0  0  0  0  0  0  0  0
   -2.6503    0.3690   -2.0669 C   0  0  0  0  0  0  0  0  0  0  0  0
   -4.1817   -1.6710   -0.9106 C   0  0  0  0  0  0  0  0  0  0  0  0
   -4.8500   -2.6972   -0.2869 C   0  0  0  0  0  0  0  0  0  0  0  0
   -3.1662   -5.3783   -1.7090 H   0  0  0  0  0  0  0  0  0  0  0  0
   -1.9579   -3.4843   -2.8036 H   0  0  0  0  0  0  0  0  0  0  0  0
   -1.8966    0.9245   -2.6212 H   0  0  0  0  0  0  0  0  0  0  0  0
   -2.5471    0.5299   -0.9916 H   0  0  0  0  0  0  0  0  0  0  0  0
   -3.6555    0.6617   -2.3761 H   0  0  0  0  0  0  0  0  0  0  0  0
   -4.4923   -0.6477   -0.6803 H   0  0  0  0  0  0  0  0  0  0  0  0
   -5.6213   -2.4421    0.4381 H   0  0  0  0  0  0  0  0  0  0  0  0
   -5.6726    0.7136    1.2945 S   0  0  0  0  0  0  0  0  0  0  0  0
   -4.0854    1.0341    2.2083 C   0  0  0  0  0  0  0  0  0  0  0  0
   -6.6437    1.6367    1.8865 O   0  0  0  0  0  0  0  0  0  0  0  0
   -5.9049   -0.7349    1.5505 O   0  0  0  0  0  0  0  0  0  0  0  0
   -5.2631    1.0031   -0.1137 O   0  0  0  0  0  0  0  0  0  0  0  0
   -3.7276    2.3230    2.1287 F   0  0  0  0  0  0  0  0  0  0  0  0
   -4.1766    0.6981    3.5017 F   0  0  0  0  0  0  0  0  0  0  0  0
   -3.0792    0.2977    1.6635 F   0  0  0  0  0  0  0  0  0  0  0  0
  1 10  1  0  0  0  0
  1  2  1  0  0  0  0
  2  3  1  0  0  0  0
  4  1  2  0  0  0  0
  5  6  2  0  0  0  0
  5  4  1  0  0  0  0
  6  9  1  0  0  0  0
  7  8  1  0  0  0  0
  7  6  1  0  0  0  0
  8 14  1  0  0  0  0
  9 16  1  0  0  0  0
  9 10  2  0  0  0  0
 10 17  1  0  0  0  0
 11  4  1  0  0  0  0
 12  5  1  0  0  0  0
 13  8  1  0  0  0  0
 15  8  1  0  0  0  0
 18 21  2  0  0  0  0
 18 20  1  0  0  0  0
 18 19  1  0  0  0  0
 19 24  1  0  0  0  0
 22 18  2  0  0  0  0
 23 19  1  0  0  0  0
 25 19  1  0  0  0  0
M  RAD  3   2   2   3   3  20   2
M  END
