Coordinates from ORCA-job 4-MeOPhN2+~TfO-_B3LYPG-6-31G_dp-NX-Scan-d89-09-n800
 OpenBabel11261920223D

 25 25  0  0  0  0  0  0  0  0999 V2000
   -3.8868   -2.4943   -0.2097 C   0  0  0  0  0  0  0  0  0  0  0  0
   -4.2707   -2.9603    1.0613 N   0  0  0  0  0  0  0  0  0  0  0  0
   -4.5132   -2.3762    2.1093 N   0  0  0  0  0  0  0  0  0  0  0  0
   -3.7206   -3.5449   -1.1394 C   0  0  0  0  0  0  0  0  0  0  0  0
   -3.3388   -3.2972   -2.4429 C   0  0  0  0  0  0  0  0  0  0  0  0
   -3.1068   -1.9749   -2.8616 C   0  0  0  0  0  0  0  0  0  0  0  0
   -2.7353   -1.8249   -4.1539 O   0  0  0  0  0  0  0  0  0  0  0  0
   -2.4846   -0.5138   -4.6507 C   0  0  0  0  0  0  0  0  0  0  0  0
   -3.2663   -0.9187   -1.9502 C   0  0  0  0  0  0  0  0  0  0  0  0
   -3.6529   -1.1706   -0.6376 C   0  0  0  0  0  0  0  0  0  0  0  0
   -3.9027   -4.5579   -0.7971 H   0  0  0  0  0  0  0  0  0  0  0  0
   -3.2090   -4.1007   -3.1596 H   0  0  0  0  0  0  0  0  0  0  0  0
   -2.2020   -0.6414   -5.6958 H   0  0  0  0  0  0  0  0  0  0  0  0
   -1.6636   -0.0305   -4.1084 H   0  0  0  0  0  0  0  0  0  0  0  0
   -3.3812    0.1148   -4.5903 H   0  0  0  0  0  0  0  0  0  0  0  0
   -3.0906    0.1062   -2.2538 H   0  0  0  0  0  0  0  0  0  0  0  0
   -3.7662   -0.3403    0.0421 H   0  0  0  0  0  0  0  0  0  0  0  0
   -4.5919   -0.1768    3.4607 S   0  0  0  0  0  0  0  0  0  0  0  0
   -6.4562   -0.2421    3.6176 C   0  0  0  0  0  0  0  0  0  0  0  0
   -4.4016   -0.9532    2.0121 O   0  0  0  0  0  0  0  0  0  0  0  0
   -4.0284   -0.9496    4.5497 O   0  0  0  0  0  0  0  0  0  0  0  0
   -4.2273    1.1991    3.1780 O   0  0  0  0  0  0  0  0  0  0  0  0
   -7.0112    0.3225    2.5471 F   0  0  0  0  0  0  0  0  0  0  0  0
   -6.8646   -1.5017    3.7257 F   0  0  0  0  0  0  0  0  0  0  0  0
   -6.7943    0.4388    4.7118 F   0  0  0  0  0  0  0  0  0  0  0  0
  1  2  1  0  0  0  0
  2  3  1  0  0  0  0
  4 11  1  0  0  0  0
  4  1  2  0  0  0  0
  5  4  1  0  0  0  0
  6  5  2  0  0  0  0
  6  9  1  0  0  0  0
  7  6  1  0  0  0  0
  8 15  1  0  0  0  0
  8  7  1  0  0  0  0
  8 14  1  0  0  0  0
  9 10  2  0  0  0  0
 10  1  1  0  0  0  0
 10 17  1  0  0  0  0
 12  5  1  0  0  0  0
 13  8  1  0  0  0  0
 16  9  1  0  0  0  0
 18 19  1  0  0  0  0
 18 21  2  0  0  0  0
 19 24  1  0  0  0  0
 19 25  1  0  0  0  0
 20  3  1  0  0  0  0
 20 18  1  0  0  0  0
 22 18  2  0  0  0  0
 23 19  1  0  0  0  0
M  RAD  2   2   2   3   2
M  END
