Coordinates from ORCA-job 4-MeOPhN2+~TfO-_B3LYPG-6-31G_dp-NX-Scan-d89-09-n800
 OpenBabel11261920223D

 25 24  0  0  0  0  0  0  0  0999 V2000
   -4.4639   -4.0417   -0.5798 C   0  0  0  0  0  0  0  0  0  0  0  0
   -5.1058   -5.0505    0.0427 N   0  0  0  0  0  0  0  0  0  0  0  0
   -5.6561   -5.8750    0.5735 N   0  0  0  0  0  0  0  0  0  0  0  0
   -3.4222   -4.3468   -1.5039 C   0  0  0  0  0  0  0  0  0  0  0  0
   -2.7690   -3.3027   -2.1016 C   0  0  0  0  0  0  0  0  0  0  0  0
   -3.1325   -1.9577   -1.7929 C   0  0  0  0  0  0  0  0  0  0  0  0
   -2.4146   -1.0186   -2.3851 O   0  0  0  0  0  0  0  0  0  0  0  0
   -2.6683    0.3736   -2.0536 C   0  0  0  0  0  0  0  0  0  0  0  0
   -4.1884   -1.6787   -0.8969 C   0  0  0  0  0  0  0  0  0  0  0  0
   -4.8505   -2.7101   -0.2749 C   0  0  0  0  0  0  0  0  0  0  0  0
   -3.1577   -5.3771   -1.7134 H   0  0  0  0  0  0  0  0  0  0  0  0
   -1.9605   -3.4739   -2.8033 H   0  0  0  0  0  0  0  0  0  0  0  0
   -1.9202    0.9326   -2.6118 H   0  0  0  0  0  0  0  0  0  0  0  0
   -2.5593    0.5322   -0.9788 H   0  0  0  0  0  0  0  0  0  0  0  0
   -3.6768    0.6628   -2.3547 H   0  0  0  0  0  0  0  0  0  0  0  0
   -4.5015   -0.6564   -0.6661 H   0  0  0  0  0  0  0  0  0  0  0  0
   -5.6236   -2.4605    0.4498 H   0  0  0  0  0  0  0  0  0  0  0  0
   -5.6654    0.7460    1.2736 S   0  0  0  0  0  0  0  0  0  0  0  0
   -4.0790    1.0264    2.2023 C   0  0  0  0  0  0  0  0  0  0  0  0
   -6.6162    1.6956    1.8575 O   0  0  0  0  0  0  0  0  0  0  0  0
   -5.9356   -0.6966    1.5245 O   0  0  0  0  0  0  0  0  0  0  0  0
   -5.2356    1.0256   -0.1308 O   0  0  0  0  0  0  0  0  0  0  0  0
   -3.6876    2.3058    2.1269 F   0  0  0  0  0  0  0  0  0  0  0  0
   -4.1906    0.6923    3.4946 F   0  0  0  0  0  0  0  0  0  0  0  0
   -3.0862    0.2650    1.6667 F   0  0  0  0  0  0  0  0  0  0  0  0
  1 10  1  0  0  0  0
  1  2  1  0  0  0  0
  2  3  1  0  0  0  0
  4  1  2  0  0  0  0
  5  6  2  0  0  0  0
  5  4  1  0  0  0  0
  6  9  1  0  0  0  0
  7  8  1  0  0  0  0
  7  6  1  0  0  0  0
  8 14  1  0  0  0  0
  9 16  1  0  0  0  0
  9 10  2  0  0  0  0
 10 17  1  0  0  0  0
 11  4  1  0  0  0  0
 12  5  1  0  0  0  0
 13  8  1  0  0  0  0
 15  8  1  0  0  0  0
 18 21  2  0  0  0  0
 18 20  1  0  0  0  0
 18 19  1  0  0  0  0
 19 24  1  0  0  0  0
 22 18  2  0  0  0  0
 23 19  1  0  0  0  0
 25 19  1  0  0  0  0
M  RAD  3   2   2   3   3  20   2
M  END
