Coordinates from ORCA-job 4-MeOPhN2+~TfO-_B3LYPG-6-31G_dp-NX-Scan-d89-09-n800
 OpenBabel11261920223D

 25 24  0  0  0  0  0  0  0  0999 V2000
   -4.6663   -3.6895   -0.5592 C   0  0  0  0  0  0  0  0  0  0  0  0
   -5.4365   -4.5716    0.1121 N   0  0  0  0  0  0  0  0  0  0  0  0
   -6.0786   -5.3012    0.6749 N   0  0  0  0  0  0  0  0  0  0  0  0
   -3.4302   -4.1322   -1.1117 C   0  0  0  0  0  0  0  0  0  0  0  0
   -2.6337   -3.2021   -1.7228 C   0  0  0  0  0  0  0  0  0  0  0  0
   -3.0351   -1.8338   -1.7740 C   0  0  0  0  0  0  0  0  0  0  0  0
   -2.1524   -1.0079   -2.3250 O   0  0  0  0  0  0  0  0  0  0  0  0
   -2.4098    0.4123   -2.2974 C   0  0  0  0  0  0  0  0  0  0  0  0
   -4.2789   -1.4275   -1.2583 C   0  0  0  0  0  0  0  0  0  0  0  0
   -5.0988   -2.3440   -0.6347 C   0  0  0  0  0  0  0  0  0  0  0  0
   -3.1328   -5.1718   -1.0325 H   0  0  0  0  0  0  0  0  0  0  0  0
   -1.6750   -3.4748   -2.1479 H   0  0  0  0  0  0  0  0  0  0  0  0
   -1.5165    0.8713   -2.7183 H   0  0  0  0  0  0  0  0  0  0  0  0
   -2.5672    0.7472   -1.2698 H   0  0  0  0  0  0  0  0  0  0  0  0
   -3.2805    0.6560   -2.9128 H   0  0  0  0  0  0  0  0  0  0  0  0
   -4.6101   -0.3964   -1.2387 H   0  0  0  0  0  0  0  0  0  0  0  0
   -6.0184   -2.0149   -0.1705 H   0  0  0  0  0  0  0  0  0  0  0  0
   -5.7304    0.0736    1.7179 S   0  0  0  0  0  0  0  0  0  0  0  0
   -4.0266    0.7767    1.9835 C   0  0  0  0  0  0  0  0  0  0  0  0
   -6.5551    0.7501    2.7249 O   0  0  0  0  0  0  0  0  0  0  0  0
   -5.5141   -1.3892    1.9223 O   0  0  0  0  0  0  0  0  0  0  0  0
   -6.0020    0.4264    0.2962 O   0  0  0  0  0  0  0  0  0  0  0  0
   -4.0156    2.1067    1.8186 F   0  0  0  0  0  0  0  0  0  0  0  0
   -3.5585    0.4946    3.2050 F   0  0  0  0  0  0  0  0  0  0  0  0
   -3.1438    0.2537    1.0826 F   0  0  0  0  0  0  0  0  0  0  0  0
  1  2  1  0  0  0  0
  2  3  1  0  0  0  0
  4 11  1  0  0  0  0
  4  1  2  0  0  0  0
  5  4  1  0  0  0  0
  6  5  2  0  0  0  0
  6  9  1  0  0  0  0
  7  8  1  0  0  0  0
  7  6  1  0  0  0  0
  8 14  1  0  0  0  0
  9 16  1  0  0  0  0
  9 10  2  0  0  0  0
 10  1  1  0  0  0  0
 10 17  1  0  0  0  0
 12  5  1  0  0  0  0
 13  8  1  0  0  0  0
 15  8  1  0  0  0  0
 18 21  2  0  0  0  0
 18 19  1  0  0  0  0
 18 20  1  0  0  0  0
 19 24  1  0  0  0  0
 22 18  2  0  0  0  0
 23 19  1  0  0  0  0
 25 19  1  0  0  0  0
M  RAD  3   2   2   3   3  20   2
M  END
