Coordinates from ORCA-job 4-MeOPhN2+~TfO-_B3LYPG-6-31G_dp-NX-Scan-d89-09-n800
 OpenBabel11261920223D

 25 25  0  0  0  0  0  0  0  0999 V2000
   -3.9967   -2.4059   -0.2424 C   0  0  0  0  0  0  0  0  0  0  0  0
   -4.4527   -2.8649    1.0189 N   0  0  0  0  0  0  0  0  0  0  0  0
   -4.6424   -2.1686    2.0415 N   0  0  0  0  0  0  0  0  0  0  0  0
   -3.8827   -3.4660   -1.1699 C   0  0  0  0  0  0  0  0  0  0  0  0
   -3.4492   -3.2566   -2.4646 C   0  0  0  0  0  0  0  0  0  0  0  0
   -3.1095   -1.9593   -2.8847 C   0  0  0  0  0  0  0  0  0  0  0  0
   -2.6924   -1.8452   -4.1708 O   0  0  0  0  0  0  0  0  0  0  0  0
   -2.3281   -0.5597   -4.6584 C   0  0  0  0  0  0  0  0  0  0  0  0
   -3.2171   -0.8913   -1.9830 C   0  0  0  0  0  0  0  0  0  0  0  0
   -3.6551   -1.1081   -0.6774 C   0  0  0  0  0  0  0  0  0  0  0  0
   -4.1487   -4.4607   -0.8285 H   0  0  0  0  0  0  0  0  0  0  0  0
   -3.3614   -4.0734   -3.1730 H   0  0  0  0  0  0  0  0  0  0  0  0
   -2.0215   -0.7089   -5.6940 H   0  0  0  0  0  0  0  0  0  0  0  0
   -1.4913   -0.1368   -4.0897 H   0  0  0  0  0  0  0  0  0  0  0  0
   -3.1754    0.1366   -4.6276 H   0  0  0  0  0  0  0  0  0  0  0  0
   -2.9615    0.1173   -2.2850 H   0  0  0  0  0  0  0  0  0  0  0  0
   -3.7236   -0.2580   -0.0161 H   0  0  0  0  0  0  0  0  0  0  0  0
   -4.6064   -0.0972    3.4267 S   0  0  0  0  0  0  0  0  0  0  0  0
   -6.4270   -0.4562    3.7902 C   0  0  0  0  0  0  0  0  0  0  0  0
   -4.4259   -0.9414    1.9380 O   0  0  0  0  0  0  0  0  0  0  0  0
   -3.8013   -0.7280    4.4519 O   0  0  0  0  0  0  0  0  0  0  0  0
   -4.4844    1.2891    3.0240 O   0  0  0  0  0  0  0  0  0  0  0  0
   -7.1153   -0.4240    2.6551 F   0  0  0  0  0  0  0  0  0  0  0  0
   -6.5525   -1.6322    4.3791 F   0  0  0  0  0  0  0  0  0  0  0  0
   -6.8448    0.5113    4.6037 F   0  0  0  0  0  0  0  0  0  0  0  0
  1  2  1  0  0  0  0
  2  3  2  0  0  0  0
  4 11  1  0  0  0  0
  4  1  2  0  0  0  0
  5  4  1  0  0  0  0
  6  5  2  0  0  0  0
  6  9  1  0  0  0  0
  7  6  1  0  0  0  0
  8 15  1  0  0  0  0
  8  7  1  0  0  0  0
  8 14  1  0  0  0  0
  9 10  2  0  0  0  0
 10  1  1  0  0  0  0
 10 17  1  0  0  0  0
 12  5  1  0  0  0  0
 13  8  1  0  0  0  0
 16  9  1  0  0  0  0
 18 19  1  0  0  0  0
 18 21  2  0  0  0  0
 19 24  1  0  0  0  0
 19 25  1  0  0  0  0
 20  3  1  0  0  0  0
 20 18  1  0  0  0  0
 22 18  2  0  0  0  0
 23 19  1  0  0  0  0
M  END
