Coordinates from ORCA-job 4-MeOPhN2+~TfO-_B3LYPG-6-31G_dp-NX-Scan-d89-09-n800
 OpenBabel11261920223D

 25 24  0  0  0  0  0  0  0  0999 V2000
   -4.2431   -3.0260   -0.4775 C   0  0  0  0  0  0  0  0  0  0  0  0
   -4.9449   -3.6166    0.5394 N   0  0  0  0  0  0  0  0  0  0  0  0
   -5.5275   -4.0707    1.3771 N   0  0  0  0  0  0  0  0  0  0  0  0
   -3.4837   -3.8637   -1.3294 C   0  0  0  0  0  0  0  0  0  0  0  0
   -2.7805   -3.2792   -2.3549 C   0  0  0  0  0  0  0  0  0  0  0  0
   -2.8313   -1.8745   -2.5436 C   0  0  0  0  0  0  0  0  0  0  0  0
   -2.1100   -1.4156   -3.5718 O   0  0  0  0  0  0  0  0  0  0  0  0
   -2.0840   -0.0078   -3.8435 C   0  0  0  0  0  0  0  0  0  0  0  0
   -3.6021   -1.0669   -1.6853 C   0  0  0  0  0  0  0  0  0  0  0  0
   -4.3156   -1.6294   -0.6399 C   0  0  0  0  0  0  0  0  0  0  0  0
   -3.4557   -4.9358   -1.1667 H   0  0  0  0  0  0  0  0  0  0  0  0
   -2.1778   -3.8710   -3.0341 H   0  0  0  0  0  0  0  0  0  0  0  0
   -1.4368    0.1078   -4.7119 H   0  0  0  0  0  0  0  0  0  0  0  0
   -1.6687    0.5460   -2.9955 H   0  0  0  0  0  0  0  0  0  0  0  0
   -3.0865    0.3638   -4.0782 H   0  0  0  0  0  0  0  0  0  0  0  0
   -3.6517    0.0068   -1.8161 H   0  0  0  0  0  0  0  0  0  0  0  0
   -4.9115   -1.0010    0.0314 H   0  0  0  0  0  0  0  0  0  0  0  0
   -5.9846   -0.4830    2.3921 S   0  0  0  0  0  0  0  0  0  0  0  0
   -5.1481    0.5044    3.7228 C   0  0  0  0  0  0  0  0  0  0  0  0
   -7.3826   -0.5988    2.8246 O   0  0  0  0  0  0  0  0  0  0  0  0
   -5.2076   -1.7623    2.3843 O   0  0  0  0  0  0  0  0  0  0  0  0
   -5.7375    0.3189    1.1602 O   0  0  0  0  0  0  0  0  0  0  0  0
   -5.7074    1.7179    3.8335 F   0  0  0  0  0  0  0  0  0  0  0  0
   -5.2447   -0.1187    4.9066 F   0  0  0  0  0  0  0  0  0  0  0  0
   -3.8428    0.6674    3.4404 F   0  0  0  0  0  0  0  0  0  0  0  0
  1  2  1  0  0  0  0
  2  3  1  0  0  0  0
  4 11  1  0  0  0  0
  4  1  2  0  0  0  0
  5  4  1  0  0  0  0
  6  5  2  0  0  0  0
  6  9  1  0  0  0  0
  7  6  1  0  0  0  0
  8  7  1  0  0  0  0
  8 14  1  0  0  0  0
  9 10  2  0  0  0  0
 10  1  1  0  0  0  0
 10 17  1  0  0  0  0
 12  5  1  0  0  0  0
 13  8  1  0  0  0  0
 15  8  1  0  0  0  0
 16  9  1  0  0  0  0
 18 20  1  0  0  0  0
 18 19  1  0  0  0  0
 19 23  1  0  0  0  0
 19 24  1  0  0  0  0
 21 18  2  0  0  0  0
 22 18  2  0  0  0  0
 25 19  1  0  0  0  0
M  RAD  3   2   2   3   3  20   2
M  END
