Coordinates from ORCA-job 4-MeOPhN2+~TfO-_B3LYPG-6-31G_dp-NX-Scan-d89-09-n800
 OpenBabel11261920223D

 25 24  0  0  0  0  0  0  0  0999 V2000
   -4.2435   -3.0217   -0.4545 C   0  0  0  0  0  0  0  0  0  0  0  0
   -4.9456   -3.6271    0.5540 N   0  0  0  0  0  0  0  0  0  0  0  0
   -5.5168   -4.1566    1.3538 N   0  0  0  0  0  0  0  0  0  0  0  0
   -3.4570   -3.8535   -1.2892 C   0  0  0  0  0  0  0  0  0  0  0  0
   -2.7543   -3.2670   -2.3137 C   0  0  0  0  0  0  0  0  0  0  0  0
   -2.8309   -1.8659   -2.5196 C   0  0  0  0  0  0  0  0  0  0  0  0
   -2.1072   -1.4045   -3.5447 O   0  0  0  0  0  0  0  0  0  0  0  0
   -2.1056    0.0006   -3.8319 C   0  0  0  0  0  0  0  0  0  0  0  0
   -3.6268   -1.0645   -1.6787 C   0  0  0  0  0  0  0  0  0  0  0  0
   -4.3402   -1.6293   -0.6346 C   0  0  0  0  0  0  0  0  0  0  0  0
   -3.4094   -4.9230   -1.1143 H   0  0  0  0  0  0  0  0  0  0  0  0
   -2.1325   -3.8548   -2.9789 H   0  0  0  0  0  0  0  0  0  0  0  0
   -1.4517    0.1192   -4.6948 H   0  0  0  0  0  0  0  0  0  0  0  0
   -1.7100    0.5715   -2.9859 H   0  0  0  0  0  0  0  0  0  0  0  0
   -3.1126    0.3499   -4.0810 H   0  0  0  0  0  0  0  0  0  0  0  0
   -3.6952    0.0068   -1.8202 H   0  0  0  0  0  0  0  0  0  0  0  0
   -4.9498   -1.0042    0.0253 H   0  0  0  0  0  0  0  0  0  0  0  0
   -6.0137   -0.4422    2.3518 S   0  0  0  0  0  0  0  0  0  0  0  0
   -5.1035    0.4668    3.6899 C   0  0  0  0  0  0  0  0  0  0  0  0
   -7.4086   -0.4893    2.8052 O   0  0  0  0  0  0  0  0  0  0  0  0
   -5.3110   -1.7633    2.3052 O   0  0  0  0  0  0  0  0  0  0  0  0
   -5.7380    0.3697    1.1333 O   0  0  0  0  0  0  0  0  0  0  0  0
   -5.5904    1.7076    3.8351 F   0  0  0  0  0  0  0  0  0  0  0  0
   -5.2176   -0.1754    4.8620 F   0  0  0  0  0  0  0  0  0  0  0  0
   -3.7948    0.5618    3.3905 F   0  0  0  0  0  0  0  0  0  0  0  0
  1  2  1  0  0  0  0
  2  3  1  0  0  0  0
  4 11  1  0  0  0  0
  4  1  2  0  0  0  0
  5  4  1  0  0  0  0
  6  5  2  0  0  0  0
  6  9  1  0  0  0  0
  7  6  1  0  0  0  0
  8  7  1  0  0  0  0
  8 14  1  0  0  0  0
  9 10  2  0  0  0  0
 10  1  1  0  0  0  0
 10 17  1  0  0  0  0
 12  5  1  0  0  0  0
 13  8  1  0  0  0  0
 15  8  1  0  0  0  0
 16  9  1  0  0  0  0
 18 20  1  0  0  0  0
 18 19  1  0  0  0  0
 19 23  1  0  0  0  0
 19 24  1  0  0  0  0
 21 18  2  0  0  0  0
 22 18  2  0  0  0  0
 25 19  1  0  0  0  0
M  RAD  3   2   2   3   3  20   2
M  END
