Coordinates from ORCA-job 4-MeOPhN2+~TfO-_B3LYPG-6-31G_dp-NX-Scan-d89-09-n800
 OpenBabel11261920223D

 25 24  0  0  0  0  0  0  0  0999 V2000
   -4.4556   -4.0806   -0.5766 C   0  0  0  0  0  0  0  0  0  0  0  0
   -5.0728   -5.1262    0.0097 N   0  0  0  0  0  0  0  0  0  0  0  0
   -5.5801   -6.0085    0.4895 N   0  0  0  0  0  0  0  0  0  0  0  0
   -3.4129   -4.3552   -1.5107 C   0  0  0  0  0  0  0  0  0  0  0  0
   -2.7744   -3.2956   -2.0945 C   0  0  0  0  0  0  0  0  0  0  0  0
   -3.1535   -1.9603   -1.7646 C   0  0  0  0  0  0  0  0  0  0  0  0
   -2.4522   -1.0081   -2.3517 O   0  0  0  0  0  0  0  0  0  0  0  0
   -2.7119    0.3815   -2.0076 C   0  0  0  0  0  0  0  0  0  0  0  0
   -4.2090   -1.7082   -0.8568 C   0  0  0  0  0  0  0  0  0  0  0  0
   -4.8560   -2.7567   -0.2471 C   0  0  0  0  0  0  0  0  0  0  0  0
   -3.1383   -5.3791   -1.7380 H   0  0  0  0  0  0  0  0  0  0  0  0
   -1.9674   -3.4459   -2.8026 H   0  0  0  0  0  0  0  0  0  0  0  0
   -1.9757    0.9478   -2.5743 H   0  0  0  0  0  0  0  0  0  0  0  0
   -2.5879    0.5323   -0.9339 H   0  0  0  0  0  0  0  0  0  0  0  0
   -3.7274    0.6642   -2.2882 H   0  0  0  0  0  0  0  0  0  0  0  0
   -4.5299   -0.6904   -0.6194 H   0  0  0  0  0  0  0  0  0  0  0  0
   -5.6352   -2.5292    0.4776 H   0  0  0  0  0  0  0  0  0  0  0  0
   -5.6434    0.8344    1.2265 S   0  0  0  0  0  0  0  0  0  0  0  0
   -4.0606    1.0357    2.1826 C   0  0  0  0  0  0  0  0  0  0  0  0
   -6.5446    1.8456    1.7879 O   0  0  0  0  0  0  0  0  0  0  0  0
   -5.9935   -0.5906    1.4763 O   0  0  0  0  0  0  0  0  0  0  0  0
   -5.1745    1.0786   -0.1723 O   0  0  0  0  0  0  0  0  0  0  0  0
   -3.6009    2.2925    2.1116 F   0  0  0  0  0  0  0  0  0  0  0  0
   -4.2117    0.7117    3.4736 F   0  0  0  0  0  0  0  0  0  0  0  0
   -3.0976    0.2219    1.6674 F   0  0  0  0  0  0  0  0  0  0  0  0
  1 10  1  0  0  0  0
  1  2  1  0  0  0  0
  2  3  1  0  0  0  0
  4  1  2  0  0  0  0
  5  6  2  0  0  0  0
  5  4  1  0  0  0  0
  6  9  1  0  0  0  0
  7  8  1  0  0  0  0
  7  6  1  0  0  0  0
  8 14  1  0  0  0  0
  9 16  1  0  0  0  0
  9 10  2  0  0  0  0
 10 17  1  0  0  0  0
 11  4  1  0  0  0  0
 12  5  1  0  0  0  0
 13  8  1  0  0  0  0
 15  8  1  0  0  0  0
 18 21  2  0  0  0  0
 18 20  1  0  0  0  0
 18 19  1  0  0  0  0
 19 24  1  0  0  0  0
 22 18  2  0  0  0  0
 23 19  1  0  0  0  0
 25 19  1  0  0  0  0
M  RAD  3   2   2   3   3  20   2
M  END
