Coordinates from ORCA-job 4-MeOPhN2+~TfO-_B3LYPG-6-31G_dp-NX-Scan-d89-09-n800
 OpenBabel11261920223D

 25 24  0  0  0  0  0  0  0  0999 V2000
   -4.7124   -3.5789   -0.5305 C   0  0  0  0  0  0  0  0  0  0  0  0
   -5.5013   -4.4052    0.1876 N   0  0  0  0  0  0  0  0  0  0  0  0
   -6.1598   -5.0865    0.7891 N   0  0  0  0  0  0  0  0  0  0  0  0
   -3.4401   -4.0414   -0.9691 C   0  0  0  0  0  0  0  0  0  0  0  0
   -2.6158   -3.1468   -1.5972 C   0  0  0  0  0  0  0  0  0  0  0  0
   -3.0243   -1.7911   -1.7688 C   0  0  0  0  0  0  0  0  0  0  0  0
   -2.1109   -0.9936   -2.3149 O   0  0  0  0  0  0  0  0  0  0  0  0
   -2.3680    0.4235   -2.3823 C   0  0  0  0  0  0  0  0  0  0  0  0
   -4.3036   -1.3684   -1.3670 C   0  0  0  0  0  0  0  0  0  0  0  0
   -5.1520   -2.2500   -0.7307 C   0  0  0  0  0  0  0  0  0  0  0  0
   -3.1359   -5.0664   -0.7909 H   0  0  0  0  0  0  0  0  0  0  0  0
   -1.6290   -3.4346   -1.9396 H   0  0  0  0  0  0  0  0  0  0  0  0
   -1.4495    0.8619   -2.7696 H   0  0  0  0  0  0  0  0  0  0  0  0
   -2.5884    0.8139   -1.3861 H   0  0  0  0  0  0  0  0  0  0  0  0
   -3.1966    0.6328   -3.0654 H   0  0  0  0  0  0  0  0  0  0  0  0
   -4.6334   -0.3411   -1.4417 H   0  0  0  0  0  0  0  0  0  0  0  0
   -6.1070   -1.9037   -0.3628 H   0  0  0  0  0  0  0  0  0  0  0  0
   -5.7043   -0.1190    1.7685 S   0  0  0  0  0  0  0  0  0  0  0  0
   -4.0232    0.6618    1.9512 C   0  0  0  0  0  0  0  0  0  0  0  0
   -6.4738    0.4365    2.8867 O   0  0  0  0  0  0  0  0  0  0  0  0
   -5.3957   -1.5788    1.8490 O   0  0  0  0  0  0  0  0  0  0  0  0
   -6.1124    0.3105    0.4026 O   0  0  0  0  0  0  0  0  0  0  0  0
   -4.0949    1.9974    1.8725 F   0  0  0  0  0  0  0  0  0  0  0  0
   -3.4503    0.3336    3.1155 F   0  0  0  0  0  0  0  0  0  0  0  0
   -3.1843    0.2452    0.9583 F   0  0  0  0  0  0  0  0  0  0  0  0
  1  2  1  0  0  0  0
  2  3  1  0  0  0  0
  4 11  1  0  0  0  0
  4  1  2  0  0  0  0
  5  4  1  0  0  0  0
  6  5  2  0  0  0  0
  6  9  1  0  0  0  0
  7  6  1  0  0  0  0
  8  7  1  0  0  0  0
  8 14  1  0  0  0  0
  9 10  2  0  0  0  0
 10  1  1  0  0  0  0
 10 17  1  0  0  0  0
 12  5  1  0  0  0  0
 13  8  1  0  0  0  0
 15  8  1  0  0  0  0
 16  9  1  0  0  0  0
 18 21  2  0  0  0  0
 18 19  1  0  0  0  0
 18 20  1  0  0  0  0
 19 24  1  0  0  0  0
 22 18  2  0  0  0  0
 23 19  1  0  0  0  0
 25 19  1  0  0  0  0
M  RAD  3   2   2   3   3  20   2
M  END
