Coordinates from ORCA-job 4-MeOPhN2+~TfO-_B3LYPG-6-31G_dp-NX-Scan-d89-09-n800
 OpenBabel11261920223D

 25 24  0  0  0  0  0  0  0  0999 V2000
   -4.2159   -2.7800   -0.4595 C   0  0  0  0  0  0  0  0  0  0  0  0
   -4.8512   -3.2197    0.6749 N   0  0  0  0  0  0  0  0  0  0  0  0
   -5.3711   -3.4531    1.6380 N   0  0  0  0  0  0  0  0  0  0  0  0
   -3.8037   -3.7423   -1.4079 C   0  0  0  0  0  0  0  0  0  0  0  0
   -3.1665   -3.3074   -2.5469 C   0  0  0  0  0  0  0  0  0  0  0  0
   -2.9349   -1.9253   -2.7482 C   0  0  0  0  0  0  0  0  0  0  0  0
   -2.3064   -1.6147   -3.8895 O   0  0  0  0  0  0  0  0  0  0  0  0
   -2.0195   -0.2427   -4.1852 C   0  0  0  0  0  0  0  0  0  0  0  0
   -3.3541   -0.9858   -1.7869 C   0  0  0  0  0  0  0  0  0  0  0  0
   -4.0001   -1.3986   -0.6321 C   0  0  0  0  0  0  0  0  0  0  0  0
   -3.9891   -4.7968   -1.2353 H   0  0  0  0  0  0  0  0  0  0  0  0
   -2.8301   -4.0046   -3.3053 H   0  0  0  0  0  0  0  0  0  0  0  0
   -1.5085   -0.2535   -5.1471 H   0  0  0  0  0  0  0  0  0  0  0  0
   -1.3645    0.1938   -3.4241 H   0  0  0  0  0  0  0  0  0  0  0  0
   -2.9413    0.3426   -4.2641 H   0  0  0  0  0  0  0  0  0  0  0  0
   -3.1788    0.0733   -1.9256 H   0  0  0  0  0  0  0  0  0  0  0  0
   -4.3205   -0.6700    0.1163 H   0  0  0  0  0  0  0  0  0  0  0  0
   -5.2786   -0.5206    2.5549 S   0  0  0  0  0  0  0  0  0  0  0  0
   -5.8016    0.3421    4.1120 C   0  0  0  0  0  0  0  0  0  0  0  0
   -6.5046   -1.2207    2.0779 O   0  0  0  0  0  0  0  0  0  0  0  0
   -4.2006   -1.4527    2.9733 O   0  0  0  0  0  0  0  0  0  0  0  0
   -4.8265    0.5760    1.6602 O   0  0  0  0  0  0  0  0  0  0  0  0
   -6.7815    1.2194    3.8563 F   0  0  0  0  0  0  0  0  0  0  0  0
   -6.2505   -0.5485    5.0081 F   0  0  0  0  0  0  0  0  0  0  0  0
   -4.7666    1.0015    4.6501 F   0  0  0  0  0  0  0  0  0  0  0  0
  1  2  1  0  0  0  0
  2  3  1  0  0  0  0
  4 11  1  0  0  0  0
  4  1  2  0  0  0  0
  5  4  1  0  0  0  0
  6  5  2  0  0  0  0
  6  9  1  0  0  0  0
  7  6  1  0  0  0  0
  8  7  1  0  0  0  0
  8 14  1  0  0  0  0
  9 10  2  0  0  0  0
 10  1  1  0  0  0  0
 10 17  1  0  0  0  0
 12  5  1  0  0  0  0
 13  8  1  0  0  0  0
 15  8  1  0  0  0  0
 16  9  1  0  0  0  0
 18 21  1  0  0  0  0
 18 19  1  0  0  0  0
 19 25  1  0  0  0  0
 19 24  1  0  0  0  0
 20 18  2  0  0  0  0
 22 18  2  0  0  0  0
 23 19  1  0  0  0  0
M  RAD  3   2   2   3   3  21   2
M  END
