Coordinates from ORCA-job 4-MeOPhN2+~TfO-_B3LYPG-6-31G_dp-NX-Scan-d89-09-n800
 OpenBabel11261920223D

 25 24  0  0  0  0  0  0  0  0999 V2000
   -4.4743   -4.0238   -0.5890 C   0  0  0  0  0  0  0  0  0  0  0  0
   -5.1318   -5.0129    0.0487 N   0  0  0  0  0  0  0  0  0  0  0  0
   -5.7051   -5.8060    0.6019 N   0  0  0  0  0  0  0  0  0  0  0  0
   -3.4299   -4.3452   -1.5037 C   0  0  0  0  0  0  0  0  0  0  0  0
   -2.7655   -3.3094   -2.1047 C   0  0  0  0  0  0  0  0  0  0  0  0
   -3.1199   -1.9592   -1.8069 C   0  0  0  0  0  0  0  0  0  0  0  0
   -2.3889   -1.0284   -2.3984 O   0  0  0  0  0  0  0  0  0  0  0  0
   -2.6372    0.3658   -2.0750 C   0  0  0  0  0  0  0  0  0  0  0  0
   -4.1790   -1.6658   -0.9212 C   0  0  0  0  0  0  0  0  0  0  0  0
   -4.8528   -2.6883   -0.2972 C   0  0  0  0  0  0  0  0  0  0  0  0
   -3.1711   -5.3788   -1.7037 H   0  0  0  0  0  0  0  0  0  0  0  0
   -1.9536   -3.4915   -2.7998 H   0  0  0  0  0  0  0  0  0  0  0  0
   -1.8784    0.9186   -2.6252 H   0  0  0  0  0  0  0  0  0  0  0  0
   -2.5404    0.5288   -0.9994 H   0  0  0  0  0  0  0  0  0  0  0  0
   -3.6393    0.6608   -2.3923 H   0  0  0  0  0  0  0  0  0  0  0  0
   -4.4879   -0.6418   -0.6917 H   0  0  0  0  0  0  0  0  0  0  0  0
   -5.6241   -2.4290    0.4264 H   0  0  0  0  0  0  0  0  0  0  0  0
   -5.6782    0.6908    1.3124 S   0  0  0  0  0  0  0  0  0  0  0  0
   -4.0883    1.0414    2.2101 C   0  0  0  0  0  0  0  0  0  0  0  0
   -6.6608    1.5970    1.9111 O   0  0  0  0  0  0  0  0  0  0  0  0
   -5.8826   -0.7608    1.5755 O   0  0  0  0  0  0  0  0  0  0  0  0
   -5.2875    0.9839   -0.1004 O   0  0  0  0  0  0  0  0  0  0  0  0
   -3.7547    2.3364    2.1245 F   0  0  0  0  0  0  0  0  0  0  0  0
   -4.1611    0.7068    3.5050 F   0  0  0  0  0  0  0  0  0  0  0  0
   -3.0745    0.3221    1.6570 F   0  0  0  0  0  0  0  0  0  0  0  0
  1 10  1  0  0  0  0
  1  2  1  0  0  0  0
  2  3  1  0  0  0  0
  4  1  2  0  0  0  0
  5  6  2  0  0  0  0
  5  4  1  0  0  0  0
  6  9  1  0  0  0  0
  7  8  1  0  0  0  0
  7  6  1  0  0  0  0
  8 14  1  0  0  0  0
  9 16  1  0  0  0  0
  9 10  2  0  0  0  0
 10 17  1  0  0  0  0
 11  4  1  0  0  0  0
 12  5  1  0  0  0  0
 13  8  1  0  0  0  0
 15  8  1  0  0  0  0
 18 21  2  0  0  0  0
 18 20  1  0  0  0  0
 18 19  1  0  0  0  0
 19 24  1  0  0  0  0
 22 18  2  0  0  0  0
 23 19  1  0  0  0  0
 25 19  1  0  0  0  0
M  RAD  3   2   2   3   3  20   2
M  END
