Coordinates from ORCA-job 4-MeOPhN2+~TfO-_B3LYPG-6-31G_dp-NX-Scan-d89-09-n800
 OpenBabel11261920223D

 25 24  0  0  0  0  0  0  0  0999 V2000
   -4.4162   -3.0094   -0.3259 C   0  0  0  0  0  0  0  0  0  0  0  0
   -5.1811   -3.6852    0.5885 N   0  0  0  0  0  0  0  0  0  0  0  0
   -5.7304   -4.3716    1.2777 N   0  0  0  0  0  0  0  0  0  0  0  0
   -3.3120   -3.7101   -0.8750 C   0  0  0  0  0  0  0  0  0  0  0  0
   -2.5276   -3.0642   -1.7990 C   0  0  0  0  0  0  0  0  0  0  0  0
   -2.8281   -1.7325   -2.1841 C   0  0  0  0  0  0  0  0  0  0  0  0
   -1.9911   -1.2001   -3.0802 O   0  0  0  0  0  0  0  0  0  0  0  0
   -2.1867    0.1546   -3.5090 C   0  0  0  0  0  0  0  0  0  0  0  0
   -3.9366   -1.0642   -1.6309 C   0  0  0  0  0  0  0  0  0  0  0  0
   -4.7400   -1.6925   -0.6952 C   0  0  0  0  0  0  0  0  0  0  0  0
   -3.0925   -4.7245   -0.5617 H   0  0  0  0  0  0  0  0  0  0  0  0
   -1.6655   -3.5491   -2.2418 H   0  0  0  0  0  0  0  0  0  0  0  0
   -1.3790    0.3556   -4.2118 H   0  0  0  0  0  0  0  0  0  0  0  0
   -2.1217    0.8449   -2.6622 H   0  0  0  0  0  0  0  0  0  0  0  0
   -3.1519    0.2693   -4.0127 H   0  0  0  0  0  0  0  0  0  0  0  0
   -4.1738   -0.0431   -1.8993 H   0  0  0  0  0  0  0  0  0  0  0  0
   -5.5698   -1.1596   -0.2345 H   0  0  0  0  0  0  0  0  0  0  0  0
   -6.2035   -0.3131    2.1650 S   0  0  0  0  0  0  0  0  0  0  0  0
   -4.5532    0.0675    2.9287 C   0  0  0  0  0  0  0  0  0  0  0  0
   -7.1915    0.1505    3.1430 O   0  0  0  0  0  0  0  0  0  0  0  0
   -6.1158   -1.7979    1.9761 O   0  0  0  0  0  0  0  0  0  0  0  0
   -6.1426    0.4162    0.8696 O   0  0  0  0  0  0  0  0  0  0  0  0
   -4.3886    1.3840    3.1112 F   0  0  0  0  0  0  0  0  0  0  0  0
   -4.4087   -0.5473    4.1119 F   0  0  0  0  0  0  0  0  0  0  0  0
   -3.5591   -0.3665    2.1161 F   0  0  0  0  0  0  0  0  0  0  0  0
  1  2  1  0  0  0  0
  2  3  1  0  0  0  0
  4 11  1  0  0  0  0
  4  1  2  0  0  0  0
  5  4  1  0  0  0  0
  6  5  2  0  0  0  0
  6  9  1  0  0  0  0
  7  6  1  0  0  0  0
  8  7  1  0  0  0  0
  8 14  1  0  0  0  0
  9 10  2  0  0  0  0
 10  1  1  0  0  0  0
 10 17  1  0  0  0  0
 12  5  1  0  0  0  0
 13  8  1  0  0  0  0
 15  8  1  0  0  0  0
 16  9  1  0  0  0  0
 18 19  1  0  0  0  0
 18 20  1  0  0  0  0
 19 23  1  0  0  0  0
 19 24  1  0  0  0  0
 21 18  2  0  0  0  0
 22 18  2  0  0  0  0
 25 19  1  0  0  0  0
M  RAD  3   2   2   3   3  20   2
M  END
