Coordinates from ORCA-job 4-MeOPhN2+~TfO-_B3LYPG-6-31G_dp-NX-Scan-d89-09-n800
 OpenBabel11261920223D

 25 24  0  0  0  0  0  0  0  0999 V2000
   -4.5108   -3.9394   -0.5825 C   0  0  0  0  0  0  0  0  0  0  0  0
   -5.1912   -4.8928    0.0871 N   0  0  0  0  0  0  0  0  0  0  0  0
   -5.7858   -5.6485    0.6686 N   0  0  0  0  0  0  0  0  0  0  0  0
   -3.4094   -4.3015   -1.4103 C   0  0  0  0  0  0  0  0  0  0  0  0
   -2.7155   -3.2929   -2.0241 C   0  0  0  0  0  0  0  0  0  0  0  0
   -3.0922   -1.9315   -1.8186 C   0  0  0  0  0  0  0  0  0  0  0  0
   -2.3167   -1.0278   -2.4000 O   0  0  0  0  0  0  0  0  0  0  0  0
   -2.5783    0.3763   -2.1526 C   0  0  0  0  0  0  0  0  0  0  0  0
   -4.2109   -1.6007   -1.0276 C   0  0  0  0  0  0  0  0  0  0  0  0
   -4.9192   -2.5953   -0.3935 C   0  0  0  0  0  0  0  0  0  0  0  0
   -3.1295   -5.3416   -1.5341 H   0  0  0  0  0  0  0  0  0  0  0  0
   -1.8580   -3.5035   -2.6530 H   0  0  0  0  0  0  0  0  0  0  0  0
   -1.7659    0.9048   -2.6480 H   0  0  0  0  0  0  0  0  0  0  0  0
   -2.5806    0.5803   -1.0795 H   0  0  0  0  0  0  0  0  0  0  0  0
   -3.5403    0.6661   -2.5816 H   0  0  0  0  0  0  0  0  0  0  0  0
   -4.5377   -0.5739   -0.8468 H   0  0  0  0  0  0  0  0  0  0  0  0
   -5.7214   -2.3093    0.2868 H   0  0  0  0  0  0  0  0  0  0  0  0
   -5.7289    0.5597    1.4304 S   0  0  0  0  0  0  0  0  0  0  0  0
   -4.0689    0.9510    2.1715 C   0  0  0  0  0  0  0  0  0  0  0  0
   -6.6745    1.4230    2.1423 O   0  0  0  0  0  0  0  0  0  0  0  0
   -5.8599   -0.9023    1.6949 O   0  0  0  0  0  0  0  0  0  0  0  0
   -5.4950    0.8837   -0.0079 O   0  0  0  0  0  0  0  0  0  0  0  0
   -3.7884    2.2579    2.0776 F   0  0  0  0  0  0  0  0  0  0  0  0
   -3.9973    0.5929    3.4599 F   0  0  0  0  0  0  0  0  0  0  0  0
   -3.0906    0.2769    1.5055 F   0  0  0  0  0  0  0  0  0  0  0  0
  1 10  1  0  0  0  0
  1  2  1  0  0  0  0
  2  3  1  0  0  0  0
  4  1  2  0  0  0  0
  5  6  2  0  0  0  0
  5  4  1  0  0  0  0
  6  9  1  0  0  0  0
  7  8  1  0  0  0  0
  7  6  1  0  0  0  0
  8 14  1  0  0  0  0
  9 16  1  0  0  0  0
  9 10  2  0  0  0  0
 10 17  1  0  0  0  0
 11  4  1  0  0  0  0
 12  5  1  0  0  0  0
 13  8  1  0  0  0  0
 15  8  1  0  0  0  0
 18 21  2  0  0  0  0
 18 20  1  0  0  0  0
 18 19  1  0  0  0  0
 19 24  1  0  0  0  0
 22 18  2  0  0  0  0
 23 19  1  0  0  0  0
 25 19  1  0  0  0  0
M  RAD  3   2   2   3   3  20   2
M  END
