Coordinates from ORCA-job 4-MeOPhN2+~TfO-_B3LYPG-6-31G_dp-NX-Scan-d89-09-n800
 OpenBabel11261920223D

 25 24  0  0  0  0  0  0  0  0999 V2000
   -4.1041   -4.1204   -0.2651 C   0  0  0  0  0  0  0  0  0  0  0  0
   -4.5147   -5.3519    0.0941 N   0  0  0  0  0  0  0  0  0  0  0  0
   -4.8432   -6.3913    0.3783 N   0  0  0  0  0  0  0  0  0  0  0  0
   -4.9506   -3.2971   -1.0669 C   0  0  0  0  0  0  0  0  0  0  0  0
   -4.4851   -2.0729   -1.4612 C   0  0  0  0  0  0  0  0  0  0  0  0
   -3.2005   -1.6308   -1.0398 C   0  0  0  0  0  0  0  0  0  0  0  0
   -2.8395   -0.4472   -1.4875 O   0  0  0  0  0  0  0  0  0  0  0  0
   -1.7287    0.2604   -0.9136 C   0  0  0  0  0  0  0  0  0  0  0  0
   -2.3869   -2.4432   -0.2002 C   0  0  0  0  0  0  0  0  0  0  0  0
   -2.8256   -3.6868    0.1789 C   0  0  0  0  0  0  0  0  0  0  0  0
   -5.9496   -3.6260   -1.3271 H   0  0  0  0  0  0  0  0  0  0  0  0
   -5.1098   -1.3480   -1.9825 H   0  0  0  0  0  0  0  0  0  0  0  0
   -1.7275    1.2286   -1.4096 H   0  0  0  0  0  0  0  0  0  0  0  0
   -0.7860   -0.2611   -1.1095 H   0  0  0  0  0  0  0  0  0  0  0  0
   -1.8972    0.3942    0.1568 H   0  0  0  0  0  0  0  0  0  0  0  0
   -1.4219   -2.0919    0.1403 H   0  0  0  0  0  0  0  0  0  0  0  0
   -2.2177   -4.3338    0.8019 H   0  0  0  0  0  0  0  0  0  0  0  0
   -6.4477    0.6147   -0.2637 S   0  0  0  0  0  0  0  0  0  0  0  0
   -5.0714    1.0846    0.9110 C   0  0  0  0  0  0  0  0  0  0  0  0
   -7.4049    1.7195   -0.1067 O   0  0  0  0  0  0  0  0  0  0  0  0
   -6.8543   -0.7168    0.2457 O   0  0  0  0  0  0  0  0  0  0  0  0
   -5.7340    0.5595   -1.5710 O   0  0  0  0  0  0  0  0  0  0  0  0
   -4.3575    2.1341    0.4631 F   0  0  0  0  0  0  0  0  0  0  0  0
   -5.5295    1.3820    2.1326 F   0  0  0  0  0  0  0  0  0  0  0  0
   -4.1791    0.0534    1.0659 F   0  0  0  0  0  0  0  0  0  0  0  0
  1  2  1  0  0  0  0
  1 10  2  0  0  0  0
  2  3  1  0  0  0  0
  4  1  1  0  0  0  0
  5  4  2  0  0  0  0
  5  6  1  0  0  0  0
  6  9  2  0  0  0  0
  7  6  1  0  0  0  0
  7  8  1  0  0  0  0
  8 15  1  0  0  0  0
  9 16  1  0  0  0  0
  9 10  1  0  0  0  0
 10 17  1  0  0  0  0
 11  4  1  0  0  0  0
 12  5  1  0  0  0  0
 13  8  1  0  0  0  0
 14  8  1  0  0  0  0
 18 20  2  0  0  0  0
 18 21  1  0  0  0  0
 18 19  1  0  0  0  0
 19 25  1  0  0  0  0
 19 24  1  0  0  0  0
 22 18  2  0  0  0  0
 23 19  1  0  0  0  0
M  RAD  3   2   2   3   3  21   2
M  END
