Coordinates from ORCA-job 4-MeOPhN2+~TfO-_B3LYPG-6-31G_dp-NX-Scan-d89-09-n800
 OpenBabel11261920223D

 25 24  0  0  0  0  0  0  0  0999 V2000
   -4.1408   -4.0558   -0.2383 C   0  0  0  0  0  0  0  0  0  0  0  0
   -4.5892   -5.2602    0.1656 N   0  0  0  0  0  0  0  0  0  0  0  0
   -4.9486   -6.2780    0.4881 N   0  0  0  0  0  0  0  0  0  0  0  0
   -4.9541   -3.2460   -1.0856 C   0  0  0  0  0  0  0  0  0  0  0  0
   -4.4503   -2.0512   -1.5223 C   0  0  0  0  0  0  0  0  0  0  0  0
   -3.1679   -1.6187   -1.0904 C   0  0  0  0  0  0  0  0  0  0  0  0
   -2.7761   -0.4546   -1.5666 O   0  0  0  0  0  0  0  0  0  0  0  0
   -1.6732    0.2539   -0.9796 C   0  0  0  0  0  0  0  0  0  0  0  0
   -2.3859   -2.4179   -0.2091 C   0  0  0  0  0  0  0  0  0  0  0  0
   -2.8590   -3.6359    0.2093 C   0  0  0  0  0  0  0  0  0  0  0  0
   -5.9592   -3.5562   -1.3440 H   0  0  0  0  0  0  0  0  0  0  0  0
   -5.0543   -1.3356   -2.0760 H   0  0  0  0  0  0  0  0  0  0  0  0
   -1.6400    1.2062   -1.5046 H   0  0  0  0  0  0  0  0  0  0  0  0
   -0.7320   -0.2858   -1.1291 H   0  0  0  0  0  0  0  0  0  0  0  0
   -1.8722    0.4223    0.0808 H   0  0  0  0  0  0  0  0  0  0  0  0
   -1.4194   -2.0749    0.1354 H   0  0  0  0  0  0  0  0  0  0  0  0
   -2.2768   -4.2720    0.8670 H   0  0  0  0  0  0  0  0  0  0  0  0
   -6.4336    0.5433   -0.2536 S   0  0  0  0  0  0  0  0  0  0  0  0
   -5.1042    1.0156    0.9696 C   0  0  0  0  0  0  0  0  0  0  0  0
   -7.4419    1.5971   -0.0694 O   0  0  0  0  0  0  0  0  0  0  0  0
   -6.7975   -0.8260    0.1879 O   0  0  0  0  0  0  0  0  0  0  0  0
   -5.6903    0.5762   -1.5440 O   0  0  0  0  0  0  0  0  0  0  0  0
   -4.4790    2.1535    0.6229 F   0  0  0  0  0  0  0  0  0  0  0  0
   -5.5888    1.1643    2.2087 F   0  0  0  0  0  0  0  0  0  0  0  0
   -4.1327    0.0480    1.0416 F   0  0  0  0  0  0  0  0  0  0  0  0
  1  2  1  0  0  0  0
  1 10  1  0  0  0  0
  2  3  1  0  0  0  0
  4  1  2  0  0  0  0
  5  6  2  0  0  0  0
  5  4  1  0  0  0  0
  6  9  1  0  0  0  0
  7  6  1  0  0  0  0
  7  8  1  0  0  0  0
  8 15  1  0  0  0  0
  9 16  1  0  0  0  0
  9 10  2  0  0  0  0
 10 17  1  0  0  0  0
 11  4  1  0  0  0  0
 12  5  1  0  0  0  0
 13  8  1  0  0  0  0
 14  8  1  0  0  0  0
 18 20  2  0  0  0  0
 18 21  1  0  0  0  0
 18 19  1  0  0  0  0
 19 25  1  0  0  0  0
 19 24  1  0  0  0  0
 22 18  2  0  0  0  0
 23 19  1  0  0  0  0
M  RAD  3   2   2   3   3  21   2
M  END
