Coordinates from ORCA-job 4-MeOPhN2+~TfO-_B3LYPG-6-31G_dp-NX-Scan-d89-09-n800
 OpenBabel11261920223D

 25 24  0  0  0  0  0  0  0  0999 V2000
   -4.2277   -3.0307   -0.4872 C   0  0  0  0  0  0  0  0  0  0  0  0
   -4.9210   -3.6120    0.5413 N   0  0  0  0  0  0  0  0  0  0  0  0
   -5.4974   -4.0032    1.4154 N   0  0  0  0  0  0  0  0  0  0  0  0
   -3.4929   -3.8715   -1.3561 C   0  0  0  0  0  0  0  0  0  0  0  0
   -2.7967   -3.2885   -2.3876 C   0  0  0  0  0  0  0  0  0  0  0  0
   -2.8319   -1.8820   -2.5650 C   0  0  0  0  0  0  0  0  0  0  0  0
   -2.1200   -1.4245   -3.6005 O   0  0  0  0  0  0  0  0  0  0  0  0
   -2.0812   -0.0154   -3.8631 C   0  0  0  0  0  0  0  0  0  0  0  0
   -3.5799   -1.0709   -1.6899 C   0  0  0  0  0  0  0  0  0  0  0  0
   -4.2859   -1.6321   -0.6385 C   0  0  0  0  0  0  0  0  0  0  0  0
   -3.4771   -4.9451   -1.2016 H   0  0  0  0  0  0  0  0  0  0  0  0
   -2.2121   -3.8828   -3.0803 H   0  0  0  0  0  0  0  0  0  0  0  0
   -1.4454    0.0987   -4.7402 H   0  0  0  0  0  0  0  0  0  0  0  0
   -1.6472    0.5279   -3.0177 H   0  0  0  0  0  0  0  0  0  0  0  0
   -3.0826    0.3697   -4.0806 H   0  0  0  0  0  0  0  0  0  0  0  0
   -3.6188    0.0041   -1.8135 H   0  0  0  0  0  0  0  0  0  0  0  0
   -4.8681   -1.0006    0.0426 H   0  0  0  0  0  0  0  0  0  0  0  0
   -5.9729   -0.4891    2.4094 S   0  0  0  0  0  0  0  0  0  0  0  0
   -5.1888    0.5156    3.7593 C   0  0  0  0  0  0  0  0  0  0  0  0
   -7.3823   -0.6184    2.7997 O   0  0  0  0  0  0  0  0  0  0  0  0
   -5.1784   -1.7585    2.4341 O   0  0  0  0  0  0  0  0  0  0  0  0
   -5.6985    0.3082    1.1803 O   0  0  0  0  0  0  0  0  0  0  0  0
   -5.7678    1.7216    3.8457 F   0  0  0  0  0  0  0  0  0  0  0  0
   -5.3142   -0.1032    4.9425 F   0  0  0  0  0  0  0  0  0  0  0  0
   -3.8783    0.6943    3.5159 F   0  0  0  0  0  0  0  0  0  0  0  0
  1  2  1  0  0  0  0
  2  3  1  0  0  0  0
  4 11  1  0  0  0  0
  4  1  2  0  0  0  0
  5  4  1  0  0  0  0
  6  5  2  0  0  0  0
  6  9  1  0  0  0  0
  7  6  1  0  0  0  0
  8  7  1  0  0  0  0
  8 14  1  0  0  0  0
  9 10  2  0  0  0  0
 10  1  1  0  0  0  0
 10 17  1  0  0  0  0
 12  5  1  0  0  0  0
 13  8  1  0  0  0  0
 15  8  1  0  0  0  0
 16  9  1  0  0  0  0
 18 21  2  0  0  0  0
 18 20  1  0  0  0  0
 18 19  1  0  0  0  0
 19 23  1  0  0  0  0
 19 24  1  0  0  0  0
 22 18  2  0  0  0  0
 25 19  1  0  0  0  0
M  RAD  3   2   2   3   3  20   2
M  END
