Coordinates from ORCA-job 4-MeOPhN2+~TfO-_B3LYPG-6-31G_dp-NX-Scan-d89-09-n800
 OpenBabel11261920223D

 25 24  0  0  0  0  0  0  0  0999 V2000
   -4.2414   -3.0210   -0.4505 C   0  0  0  0  0  0  0  0  0  0  0  0
   -4.9426   -3.6283    0.5576 N   0  0  0  0  0  0  0  0  0  0  0  0
   -5.5108   -4.1662    1.3541 N   0  0  0  0  0  0  0  0  0  0  0  0
   -3.4519   -3.8520   -1.2834 C   0  0  0  0  0  0  0  0  0  0  0  0
   -2.7503   -3.2653   -2.3084 C   0  0  0  0  0  0  0  0  0  0  0  0
   -2.8308   -1.8648   -2.5169 C   0  0  0  0  0  0  0  0  0  0  0  0
   -2.1077   -1.4031   -3.5424 O   0  0  0  0  0  0  0  0  0  0  0  0
   -2.1101    0.0014   -3.8322 C   0  0  0  0  0  0  0  0  0  0  0  0
   -3.6294   -1.0643   -1.6779 C   0  0  0  0  0  0  0  0  0  0  0  0
   -4.3418   -1.6293   -0.6333 C   0  0  0  0  0  0  0  0  0  0  0  0
   -3.4014   -4.9211   -1.1066 H   0  0  0  0  0  0  0  0  0  0  0  0
   -2.1263   -3.8526   -2.9722 H   0  0  0  0  0  0  0  0  0  0  0  0
   -1.4561    0.1204   -4.6950 H   0  0  0  0  0  0  0  0  0  0  0  0
   -1.7166    0.5750   -2.9870 H   0  0  0  0  0  0  0  0  0  0  0  0
   -3.1181    0.3473   -4.0824 H   0  0  0  0  0  0  0  0  0  0  0  0
   -3.7007    0.0066   -1.8210 H   0  0  0  0  0  0  0  0  0  0  0  0
   -4.9529   -1.0046    0.0251 H   0  0  0  0  0  0  0  0  0  0  0  0
   -6.0192   -0.4339    2.3453 S   0  0  0  0  0  0  0  0  0  0  0  0
   -5.0987    0.4591    3.6870 C   0  0  0  0  0  0  0  0  0  0  0  0
   -7.4145   -0.4665    2.7986 O   0  0  0  0  0  0  0  0  0  0  0  0
   -5.3318   -1.7630    2.2938 O   0  0  0  0  0  0  0  0  0  0  0  0
   -5.7336    0.3791    1.1299 O   0  0  0  0  0  0  0  0  0  0  0  0
   -5.5705    1.7052    3.8366 F   0  0  0  0  0  0  0  0  0  0  0  0
   -5.2210   -0.1859    4.8568 F   0  0  0  0  0  0  0  0  0  0  0  0
   -3.7887    0.5394    3.3886 F   0  0  0  0  0  0  0  0  0  0  0  0
  1  2  1  0  0  0  0
  2  3  1  0  0  0  0
  4 11  1  0  0  0  0
  4  1  2  0  0  0  0
  5  4  1  0  0  0  0
  6  5  2  0  0  0  0
  6  9  1  0  0  0  0
  7  6  1  0  0  0  0
  8  7  1  0  0  0  0
  8 14  1  0  0  0  0
  9 10  2  0  0  0  0
 10  1  1  0  0  0  0
 10 17  1  0  0  0  0
 12  5  1  0  0  0  0
 13  8  1  0  0  0  0
 15  8  1  0  0  0  0
 16  9  1  0  0  0  0
 18 20  1  0  0  0  0
 18 19  1  0  0  0  0
 19 23  1  0  0  0  0
 19 24  1  0  0  0  0
 21 18  2  0  0  0  0
 22 18  2  0  0  0  0
 25 19  1  0  0  0  0
M  RAD  3   2   2   3   3  20   2
M  END
