Coordinates from ORCA-job 4-MeOPhN2+~TfO-_B3LYPG-6-31G_dp-NX-Scan-d89-09-n800
 OpenBabel11261920223D

 25 24  0  0  0  0  0  0  0  0999 V2000
   -4.4851   -4.0086   -0.5944 C   0  0  0  0  0  0  0  0  0  0  0  0
   -5.1516   -4.9880    0.0495 N   0  0  0  0  0  0  0  0  0  0  0  0
   -5.7340   -5.7691    0.6099 N   0  0  0  0  0  0  0  0  0  0  0  0
   -3.4326   -4.3410   -1.4956 C   0  0  0  0  0  0  0  0  0  0  0  0
   -2.7589   -3.3119   -2.0979 C   0  0  0  0  0  0  0  0  0  0  0  0
   -3.1108   -1.9583   -1.8132 C   0  0  0  0  0  0  0  0  0  0  0  0
   -2.3682   -1.0341   -2.4021 O   0  0  0  0  0  0  0  0  0  0  0  0
   -2.6151    0.3622   -2.0902 C   0  0  0  0  0  0  0  0  0  0  0  0
   -4.1780   -1.6544   -0.9421 C   0  0  0  0  0  0  0  0  0  0  0  0
   -4.8626   -2.6699   -0.3177 C   0  0  0  0  0  0  0  0  0  0  0  0
   -3.1747   -5.3770   -1.6845 H   0  0  0  0  0  0  0  0  0  0  0  0
   -1.9403   -3.5021   -2.7828 H   0  0  0  0  0  0  0  0  0  0  0  0
   -1.8450    0.9091   -2.6303 H   0  0  0  0  0  0  0  0  0  0  0  0
   -2.5354    0.5314   -1.0141 H   0  0  0  0  0  0  0  0  0  0  0  0
   -3.6099    0.6599   -2.4280 H   0  0  0  0  0  0  0  0  0  0  0  0
   -4.4855   -0.6290   -0.7165 H   0  0  0  0  0  0  0  0  0  0  0  0
   -5.6371   -2.4023    0.4002 H   0  0  0  0  0  0  0  0  0  0  0  0
   -5.6899    0.6522    1.3464 S   0  0  0  0  0  0  0  0  0  0  0  0
   -4.0902    1.0465    2.2078 C   0  0  0  0  0  0  0  0  0  0  0  0
   -6.6832    1.5343    1.9635 O   0  0  0  0  0  0  0  0  0  0  0  0
   -5.8510   -0.8033    1.6213 O   0  0  0  0  0  0  0  0  0  0  0  0
   -5.3391    0.9496   -0.0755 O   0  0  0  0  0  0  0  0  0  0  0  0
   -3.7925    2.3494    2.1116 F   0  0  0  0  0  0  0  0  0  0  0  0
   -4.1255    0.7140    3.5048 F   0  0  0  0  0  0  0  0  0  0  0  0
   -3.0706    0.3520    1.6340 F   0  0  0  0  0  0  0  0  0  0  0  0
  1 10  1  0  0  0  0
  1  2  1  0  0  0  0
  2  3  1  0  0  0  0
  4  1  2  0  0  0  0
  5  6  2  0  0  0  0
  5  4  1  0  0  0  0
  6  9  1  0  0  0  0
  7  8  1  0  0  0  0
  7  6  1  0  0  0  0
  8 14  1  0  0  0  0
  9 16  1  0  0  0  0
  9 10  2  0  0  0  0
 10 17  1  0  0  0  0
 11  4  1  0  0  0  0
 12  5  1  0  0  0  0
 13  8  1  0  0  0  0
 15  8  1  0  0  0  0
 18 21  2  0  0  0  0
 18 20  1  0  0  0  0
 18 19  1  0  0  0  0
 19 24  1  0  0  0  0
 22 18  2  0  0  0  0
 23 19  1  0  0  0  0
 25 19  1  0  0  0  0
M  RAD  3   2   2   3   3  20   2
M  END
