Coordinates from ORCA-job 4-MeOPhN2+~TfO-_B3LYPG-6-31G_dp-NX-Scan-d89-09-n800
 OpenBabel11261920223D

 25 24  0  0  0  0  0  0  0  0999 V2000
   -4.2113   -3.0120   -0.4974 C   0  0  0  0  0  0  0  0  0  0  0  0
   -4.8949   -3.5720    0.5506 N   0  0  0  0  0  0  0  0  0  0  0  0
   -5.4604   -3.8946    1.4609 N   0  0  0  0  0  0  0  0  0  0  0  0
   -3.5243   -3.8686   -1.3878 C   0  0  0  0  0  0  0  0  0  0  0  0
   -2.8362   -3.3005   -2.4336 C   0  0  0  0  0  0  0  0  0  0  0  0
   -2.8344   -1.8932   -2.6035 C   0  0  0  0  0  0  0  0  0  0  0  0
   -2.1353   -1.4508   -3.6549 O   0  0  0  0  0  0  0  0  0  0  0  0
   -2.0635   -0.0424   -3.9127 C   0  0  0  0  0  0  0  0  0  0  0  0
   -3.5369   -1.0649   -1.7068 C   0  0  0  0  0  0  0  0  0  0  0  0
   -4.2326   -1.6114   -0.6408 C   0  0  0  0  0  0  0  0  0  0  0  0
   -3.5369   -4.9430   -1.2388 H   0  0  0  0  0  0  0  0  0  0  0  0
   -2.2865   -3.9077   -3.1434 H   0  0  0  0  0  0  0  0  0  0  0  0
   -1.4459    0.0582   -4.8042 H   0  0  0  0  0  0  0  0  0  0  0  0
   -1.5946    0.4850   -3.0758 H   0  0  0  0  0  0  0  0  0  0  0  0
   -3.0586    0.3716   -4.1045 H   0  0  0  0  0  0  0  0  0  0  0  0
   -3.5488    0.0111   -1.8272 H   0  0  0  0  0  0  0  0  0  0  0  0
   -4.7869   -0.9702    0.0548 H   0  0  0  0  0  0  0  0  0  0  0  0
   -5.9340   -0.5161    2.4456 S   0  0  0  0  0  0  0  0  0  0  0  0
   -5.2712    0.5277    3.8309 C   0  0  0  0  0  0  0  0  0  0  0  0
   -7.3518   -0.7259    2.7648 O   0  0  0  0  0  0  0  0  0  0  0  0
   -5.0738   -1.7418    2.5147 O   0  0  0  0  0  0  0  0  0  0  0  0
   -5.6443    0.2952    1.2300 O   0  0  0  0  0  0  0  0  0  0  0  0
   -5.9178    1.7005    3.8850 F   0  0  0  0  0  0  0  0  0  0  0  0
   -5.4233   -0.0980    5.0069 F   0  0  0  0  0  0  0  0  0  0  0  0
   -3.9624    0.7754    3.6517 F   0  0  0  0  0  0  0  0  0  0  0  0
  1  2  1  0  0  0  0
  2  3  1  0  0  0  0
  4 11  1  0  0  0  0
  4  1  2  0  0  0  0
  5  4  1  0  0  0  0
  6  5  2  0  0  0  0
  6  9  1  0  0  0  0
  7  6  1  0  0  0  0
  8  7  1  0  0  0  0
  8 14  1  0  0  0  0
  9 10  2  0  0  0  0
 10  1  1  0  0  0  0
 10 17  1  0  0  0  0
 12  5  1  0  0  0  0
 13  8  1  0  0  0  0
 15  8  1  0  0  0  0
 16  9  1  0  0  0  0
 18 21  2  0  0  0  0
 18 20  1  0  0  0  0
 18 19  1  0  0  0  0
 19 23  1  0  0  0  0
 19 24  1  0  0  0  0
 22 18  2  0  0  0  0
 25 19  1  0  0  0  0
M  RAD  3   2   2   3   3  20   2
M  END
