Coordinates from ORCA-job 4-MeOPhN2+~TfO-_B3LYPG-6-31G_dp-NX-Scan-d89-09-n800
 OpenBabel11261920223D

 25 24  0  0  0  0  0  0  0  0999 V2000
   -4.5769   -3.7901   -0.5730 C   0  0  0  0  0  0  0  0  0  0  0  0
   -5.3054   -4.6913    0.1213 N   0  0  0  0  0  0  0  0  0  0  0  0
   -5.9229   -5.4181    0.7140 N   0  0  0  0  0  0  0  0  0  0  0  0
   -3.4472   -4.2281   -1.3217 C   0  0  0  0  0  0  0  0  0  0  0  0
   -2.6946   -3.2748   -1.9539 C   0  0  0  0  0  0  0  0  0  0  0  0
   -3.0381   -1.8944   -1.8401 C   0  0  0  0  0  0  0  0  0  0  0  0
   -2.1990   -1.0496   -2.4276 O   0  0  0  0  0  0  0  0  0  0  0  0
   -2.4079    0.3703   -2.2583 C   0  0  0  0  0  0  0  0  0  0  0  0
   -4.1863   -1.4917   -1.1328 C   0  0  0  0  0  0  0  0  0  0  0  0
   -4.9580   -2.4301   -0.4828 C   0  0  0  0  0  0  0  0  0  0  0  0
   -3.1916   -5.2807   -1.3722 H   0  0  0  0  0  0  0  0  0  0  0  0
   -1.8130   -3.5427   -2.5248 H   0  0  0  0  0  0  0  0  0  0  0  0
   -1.5491    0.8422   -2.7328 H   0  0  0  0  0  0  0  0  0  0  0  0
   -2.4505    0.6249   -1.1965 H   0  0  0  0  0  0  0  0  0  0  0  0
   -3.3308    0.6825   -2.7542 H   0  0  0  0  0  0  0  0  0  0  0  0
   -4.4913   -0.4569   -1.0056 H   0  0  0  0  0  0  0  0  0  0  0  0
   -5.7801   -2.1044    0.1506 H   0  0  0  0  0  0  0  0  0  0  0  0
   -5.8122    0.2720    1.6510 S   0  0  0  0  0  0  0  0  0  0  0  0
   -4.1152    0.8986    2.0902 C   0  0  0  0  0  0  0  0  0  0  0  0
   -6.7221    1.0507    2.4964 O   0  0  0  0  0  0  0  0  0  0  0  0
   -5.7142   -1.1832    1.9681 O   0  0  0  0  0  0  0  0  0  0  0  0
   -5.8717    0.5482    0.1876 O   0  0  0  0  0  0  0  0  0  0  0  0
   -4.0164    2.2199    1.8875 F   0  0  0  0  0  0  0  0  0  0  0  0
   -3.8009    0.6388    3.3651 F   0  0  0  0  0  0  0  0  0  0  0  0
   -3.1713    0.2998    1.3089 F   0  0  0  0  0  0  0  0  0  0  0  0
  1 10  1  0  0  0  0
  1  2  1  0  0  0  0
  2  3  1  0  0  0  0
  4  1  2  0  0  0  0
  5  6  2  0  0  0  0
  5  4  1  0  0  0  0
  6  9  1  0  0  0  0
  7  8  1  0  0  0  0
  7  6  1  0  0  0  0
  8 14  1  0  0  0  0
  9 16  1  0  0  0  0
  9 10  2  0  0  0  0
 10 17  1  0  0  0  0
 11  4  1  0  0  0  0
 12  5  1  0  0  0  0
 13  8  1  0  0  0  0
 15  8  1  0  0  0  0
 18 21  2  0  0  0  0
 18 19  1  0  0  0  0
 18 20  1  0  0  0  0
 19 24  1  0  0  0  0
 22 18  2  0  0  0  0
 23 19  1  0  0  0  0
 25 19  1  0  0  0  0
M  RAD  3   2   2   3   3  20   2
M  END
