Coordinates from ORCA-job 4-MeOPhN2+~TfO-_B3LYPG-6-31G_dp-NX-Scan-d89-09-n800
 OpenBabel11261920223D

 25 24  0  0  0  0  0  0  0  0999 V2000
   -4.0515   -4.2009   -0.2946 C   0  0  0  0  0  0  0  0  0  0  0  0
   -4.4234   -5.4584    0.0129 N   0  0  0  0  0  0  0  0  0  0  0  0
   -4.7208   -6.5172    0.2574 N   0  0  0  0  0  0  0  0  0  0  0  0
   -4.9484   -3.3509   -1.0113 C   0  0  0  0  0  0  0  0  0  0  0  0
   -4.5259   -2.0955   -1.3521 C   0  0  0  0  0  0  0  0  0  0  0  0
   -3.2263   -1.6558   -0.9702 C   0  0  0  0  0  0  0  0  0  0  0  0
   -2.9046   -0.4468   -1.3732 O   0  0  0  0  0  0  0  0  0  0  0  0
   -1.7734    0.2494   -0.8263 C   0  0  0  0  0  0  0  0  0  0  0  0
   -2.3608   -2.4970   -0.2147 C   0  0  0  0  0  0  0  0  0  0  0  0
   -2.7613   -3.7679    0.1142 C   0  0  0  0  0  0  0  0  0  0  0  0
   -5.9499   -3.6886   -1.2509 H   0  0  0  0  0  0  0  0  0  0  0  0
   -5.1788   -1.3520   -1.8163 H   0  0  0  0  0  0  0  0  0  0  0  0
   -1.8504    1.2595   -1.2226 H   0  0  0  0  0  0  0  0  0  0  0  0
   -0.8358   -0.2131   -1.1506 H   0  0  0  0  0  0  0  0  0  0  0  0
   -1.8500    0.2769    0.2626 H   0  0  0  0  0  0  0  0  0  0  0  0
   -1.3845   -2.1480    0.0954 H   0  0  0  0  0  0  0  0  0  0  0  0
   -2.1138   -4.4374    0.6697 H   0  0  0  0  0  0  0  0  0  0  0  0
   -6.4816    0.7170   -0.2978 S   0  0  0  0  0  0  0  0  0  0  0  0
   -5.0705    1.1884    0.8364 C   0  0  0  0  0  0  0  0  0  0  0  0
   -7.3749    1.8809   -0.2095 O   0  0  0  0  0  0  0  0  0  0  0  0
   -6.9510   -0.5540    0.2999 O   0  0  0  0  0  0  0  0  0  0  0  0
   -5.7869    0.5379   -1.6058 O   0  0  0  0  0  0  0  0  0  0  0  0
   -4.2838    2.1438    0.3015 F   0  0  0  0  0  0  0  0  0  0  0  0
   -5.5044    1.6251    2.0246 F   0  0  0  0  0  0  0  0  0  0  0  0
   -4.2540    0.1161    1.0856 F   0  0  0  0  0  0  0  0  0  0  0  0
  1  2  1  0  0  0  0
  1 10  2  0  0  0  0
  2  3  1  0  0  0  0
  4  1  1  0  0  0  0
  5  4  2  0  0  0  0
  5  6  1  0  0  0  0
  6  9  2  0  0  0  0
  7  6  1  0  0  0  0
  7  8  1  0  0  0  0
  8 15  1  0  0  0  0
  9 16  1  0  0  0  0
  9 10  1  0  0  0  0
 10 17  1  0  0  0  0
 11  4  1  0  0  0  0
 12  5  1  0  0  0  0
 13  8  1  0  0  0  0
 14  8  1  0  0  0  0
 18 20  2  0  0  0  0
 18 21  1  0  0  0  0
 18 19  1  0  0  0  0
 19 25  1  0  0  0  0
 19 24  1  0  0  0  0
 22 18  2  0  0  0  0
 23 19  1  0  0  0  0
M  RAD  3   2   2   3   3  21   2
M  END
