Coordinates from ORCA-job 4-MeOPhN2+~TfO-_B3LYPG-6-31G_dp-NX-Scan-d89-09-n800
 OpenBabel11261920223D

 25 24  0  0  0  0  0  0  0  0999 V2000
   -4.5442   -3.8316   -0.5678 C   0  0  0  0  0  0  0  0  0  0  0  0
   -5.2528   -4.7458    0.1296 N   0  0  0  0  0  0  0  0  0  0  0  0
   -5.8597   -5.4769    0.7283 N   0  0  0  0  0  0  0  0  0  0  0  0
   -3.4318   -4.2508   -1.3522 C   0  0  0  0  0  0  0  0  0  0  0  0
   -2.7017   -3.2828   -1.9890 C   0  0  0  0  0  0  0  0  0  0  0  0
   -3.0518   -1.9068   -1.8458 C   0  0  0  0  0  0  0  0  0  0  0  0
   -2.2361   -1.0454   -2.4408 O   0  0  0  0  0  0  0  0  0  0  0  0
   -2.4581    0.3703   -2.2461 C   0  0  0  0  0  0  0  0  0  0  0  0
   -4.1837   -1.5222   -1.1019 C   0  0  0  0  0  0  0  0  0  0  0  0
   -4.9316   -2.4752   -0.4464 C   0  0  0  0  0  0  0  0  0  0  0  0
   -3.1710   -5.3007   -1.4258 H   0  0  0  0  0  0  0  0  0  0  0  0
   -1.8337   -3.5362   -2.5868 H   0  0  0  0  0  0  0  0  0  0  0  0
   -1.6167    0.8590   -2.7343 H   0  0  0  0  0  0  0  0  0  0  0  0
   -2.4794    0.6093   -1.1800 H   0  0  0  0  0  0  0  0  0  0  0  0
   -3.3971    0.6774   -2.7139 H   0  0  0  0  0  0  0  0  0  0  0  0
   -4.4959   -0.4899   -0.9568 H   0  0  0  0  0  0  0  0  0  0  0  0
   -5.7384   -2.1573    0.2147 H   0  0  0  0  0  0  0  0  0  0  0  0
   -5.8080    0.3766    1.5779 S   0  0  0  0  0  0  0  0  0  0  0  0
   -4.1100    0.8950    2.1358 C   0  0  0  0  0  0  0  0  0  0  0  0
   -6.7274    1.1968    2.3714 O   0  0  0  0  0  0  0  0  0  0  0  0
   -5.8144   -1.0847    1.8839 O   0  0  0  0  0  0  0  0  0  0  0  0
   -5.7514    0.6724    0.1182 O   0  0  0  0  0  0  0  0  0  0  0  0
   -3.9263    2.2134    1.9800 F   0  0  0  0  0  0  0  0  0  0  0  0
   -3.8891    0.5836    3.4190 F   0  0  0  0  0  0  0  0  0  0  0  0
   -3.1568    0.2641    1.3933 F   0  0  0  0  0  0  0  0  0  0  0  0
  1 10  1  0  0  0  0
  1  2  1  0  0  0  0
  2  3  1  0  0  0  0
  4  1  2  0  0  0  0
  5  6  2  0  0  0  0
  5  4  1  0  0  0  0
  6  9  1  0  0  0  0
  7  8  1  0  0  0  0
  7  6  1  0  0  0  0
  8 14  1  0  0  0  0
  9 16  1  0  0  0  0
  9 10  2  0  0  0  0
 10 17  1  0  0  0  0
 11  4  1  0  0  0  0
 12  5  1  0  0  0  0
 13  8  1  0  0  0  0
 15  8  1  0  0  0  0
 18 21  2  0  0  0  0
 18 19  1  0  0  0  0
 18 20  1  0  0  0  0
 19 24  1  0  0  0  0
 22 18  2  0  0  0  0
 23 19  1  0  0  0  0
 25 19  1  0  0  0  0
M  RAD  3   2   2   3   3  20   2
M  END
