Coordinates from ORCA-job 4-MeOPhN2+~TfO-_B3LYPG-6-31G_dp-NX-Scan-d89-09-n800
 OpenBabel11261920223D

 25 25  0  0  0  0  0  0  0  0999 V2000
   -3.8935   -1.8001   -0.4132 C   0  0  0  0  0  0  0  0  0  0  0  0
   -4.3693   -1.7955    0.9259 N   0  0  0  0  0  0  0  0  0  0  0  0
   -4.5140   -0.6734    1.4791 N   0  0  0  0  0  0  0  0  0  0  0  0
   -3.7519   -3.0960   -0.9470 C   0  0  0  0  0  0  0  0  0  0  0  0
   -3.3000   -3.2861   -2.2396 C   0  0  0  0  0  0  0  0  0  0  0  0
   -2.9739   -2.1798   -3.0431 C   0  0  0  0  0  0  0  0  0  0  0  0
   -2.5386   -2.4691   -4.2976 O   0  0  0  0  0  0  0  0  0  0  0  0
   -2.1906   -1.3940   -5.1592 C   0  0  0  0  0  0  0  0  0  0  0  0
   -3.1108   -0.8874   -2.5225 C   0  0  0  0  0  0  0  0  0  0  0  0
   -3.5672   -0.6976   -1.2161 C   0  0  0  0  0  0  0  0  0  0  0  0
   -4.0066   -3.9407   -0.3163 H   0  0  0  0  0  0  0  0  0  0  0  0
   -3.1879   -4.2816   -2.6558 H   0  0  0  0  0  0  0  0  0  0  0  0
   -1.8735   -1.8515   -6.0967 H   0  0  0  0  0  0  0  0  0  0  0  0
   -1.3639   -0.8006   -4.7489 H   0  0  0  0  0  0  0  0  0  0  0  0
   -3.0477   -0.7358   -5.3497 H   0  0  0  0  0  0  0  0  0  0  0  0
   -2.8651   -0.0173   -3.1192 H   0  0  0  0  0  0  0  0  0  0  0  0
   -3.6587    0.3167   -0.8496 H   0  0  0  0  0  0  0  0  0  0  0  0
   -5.2002    0.2824    3.9118 S   0  0  2  0  0  0  0  0  0  0  0  0
   -6.6365   -0.5565    4.8132 C   0  0  0  0  0  0  0  0  0  0  0  0
   -4.3987    0.3419    1.2845 O   0  0  0  0  0  0  0  0  0  0  0  0
   -5.0686   -1.0753    2.9486 O   0  0  0  0  0  0  0  0  0  0  0  0
   -4.0833    0.3736    4.8817 O   0  0  0  0  0  0  0  0  0  0  0  0
   -6.9961    0.2623    5.8106 F   0  0  0  0  0  0  0  0  0  0  0  0
   -7.6627   -0.6860    3.9669 F   0  0  0  0  0  0  0  0  0  0  0  0
   -6.3077   -1.7407    5.3164 F   0  0  0  0  0  0  0  0  0  0  0  0
  1  2  1  0  0  0  0
  2  3  1  0  0  0  0
  3 21  1  0  0  0  0
  4  1  1  0  0  0  0
  4 11  1  0  0  0  0
  5  4  2  0  0  0  0
  6  9  2  0  0  0  0
  6  5  1  0  0  0  0
  7  6  1  0  0  0  0
  8 14  1  0  0  0  0
  8  7  1  0  0  0  0
  9 10  1  0  0  0  0
 10 17  1  0  0  0  0
 10  1  2  0  0  0  0
 12  5  1  0  0  0  0
 13  8  1  0  0  0  0
 15  8  1  0  0  0  0
 16  9  1  0  0  0  0
 18 21  1  6  0  0  0
 18 19  1  0  0  0  0
 18 22  1  0  0  0  0
 19 25  1  0  0  0  0
 19 23  1  0  0  0  0
 20  3  1  0  0  0  0
 24 19  1  0  0  0  0
M  RAD  3   2   2  20   2  22   2
M  END
