Coordinates from ORCA-job 4-MeOPhN2+~TfO-_B3LYPG-6-31G_dp-NX-Scan-d89-09-n800
 OpenBabel11261920223D

 25 24  0  0  0  0  0  0  0  0999 V2000
   -4.5779   -3.7863   -0.5739 C   0  0  0  0  0  0  0  0  0  0  0  0
   -5.3076   -4.6816    0.1268 N   0  0  0  0  0  0  0  0  0  0  0  0
   -5.9299   -5.3980    0.7271 N   0  0  0  0  0  0  0  0  0  0  0  0
   -3.4478   -4.2268   -1.3199 C   0  0  0  0  0  0  0  0  0  0  0  0
   -2.6943   -3.2749   -1.9535 C   0  0  0  0  0  0  0  0  0  0  0  0
   -3.0370   -1.8939   -1.8429 C   0  0  0  0  0  0  0  0  0  0  0  0
   -2.1962   -1.0507   -2.4306 O   0  0  0  0  0  0  0  0  0  0  0  0
   -2.4041    0.3695   -2.2633 C   0  0  0  0  0  0  0  0  0  0  0  0
   -4.1859   -1.4890   -1.1379 C   0  0  0  0  0  0  0  0  0  0  0  0
   -4.9588   -2.4261   -0.4877 C   0  0  0  0  0  0  0  0  0  0  0  0
   -3.1919   -5.2794   -1.3673 H   0  0  0  0  0  0  0  0  0  0  0  0
   -1.8121   -3.5441   -2.5228 H   0  0  0  0  0  0  0  0  0  0  0  0
   -1.5447    0.8402   -2.7379 H   0  0  0  0  0  0  0  0  0  0  0  0
   -2.4472    0.6256   -1.2019 H   0  0  0  0  0  0  0  0  0  0  0  0
   -3.3265    0.6818   -2.7602 H   0  0  0  0  0  0  0  0  0  0  0  0
   -4.4907   -0.4542   -1.0117 H   0  0  0  0  0  0  0  0  0  0  0  0
   -5.7810   -2.1015    0.1457 H   0  0  0  0  0  0  0  0  0  0  0  0
   -5.8116    0.2628    1.6534 S   0  0  0  0  0  0  0  0  0  0  0  0
   -4.1176    0.8967    2.0931 C   0  0  0  0  0  0  0  0  0  0  0  0
   -6.7258    1.0311    2.5035 O   0  0  0  0  0  0  0  0  0  0  0  0
   -5.7049   -1.1931    1.9642 O   0  0  0  0  0  0  0  0  0  0  0  0
   -5.8746    0.5452    0.1913 O   0  0  0  0  0  0  0  0  0  0  0  0
   -4.0251    2.2187    1.8923 F   0  0  0  0  0  0  0  0  0  0  0  0
   -3.8018    0.6365    3.3676 F   0  0  0  0  0  0  0  0  0  0  0  0
   -3.1715    0.3031    1.3108 F   0  0  0  0  0  0  0  0  0  0  0  0
  1 10  1  0  0  0  0
  1  2  1  0  0  0  0
  2  3  1  0  0  0  0
  4  1  2  0  0  0  0
  5  6  2  0  0  0  0
  5  4  1  0  0  0  0
  6  9  1  0  0  0  0
  7  8  1  0  0  0  0
  7  6  1  0  0  0  0
  8 14  1  0  0  0  0
  9 16  1  0  0  0  0
  9 10  2  0  0  0  0
 10 17  1  0  0  0  0
 11  4  1  0  0  0  0
 12  5  1  0  0  0  0
 13  8  1  0  0  0  0
 15  8  1  0  0  0  0
 18 21  2  0  0  0  0
 18 19  1  0  0  0  0
 18 20  1  0  0  0  0
 19 24  1  0  0  0  0
 22 18  2  0  0  0  0
 23 19  1  0  0  0  0
 25 19  1  0  0  0  0
M  RAD  3   2   2   3   3  20   2
M  END
