Coordinates from ORCA-job 4-MeOPhN2+~TfO-_B3LYPG-6-31G_dp-NX-Scan-d89-09-n800
 OpenBabel11261920223D

 25 24  0  0  0  0  0  0  0  0999 V2000
   -4.7103   -3.5902   -0.5327 C   0  0  0  0  0  0  0  0  0  0  0  0
   -5.4978   -4.4257    0.1761 N   0  0  0  0  0  0  0  0  0  0  0  0
   -6.1539   -5.1169    0.7692 N   0  0  0  0  0  0  0  0  0  0  0  0
   -3.4385   -4.0488   -0.9775 C   0  0  0  0  0  0  0  0  0  0  0  0
   -2.6164   -3.1498   -1.6018 C   0  0  0  0  0  0  0  0  0  0  0  0
   -3.0268   -1.7937   -1.7650 C   0  0  0  0  0  0  0  0  0  0  0  0
   -2.1162   -0.9927   -2.3103 O   0  0  0  0  0  0  0  0  0  0  0  0
   -2.3757    0.4244   -2.3722 C   0  0  0  0  0  0  0  0  0  0  0  0
   -4.3051   -1.3740   -1.3569 C   0  0  0  0  0  0  0  0  0  0  0  0
   -5.1512   -2.2597   -0.7232 C   0  0  0  0  0  0  0  0  0  0  0  0
   -3.1333   -5.0749   -0.8071 H   0  0  0  0  0  0  0  0  0  0  0  0
   -1.6303   -3.4349   -1.9486 H   0  0  0  0  0  0  0  0  0  0  0  0
   -1.4594    0.8653   -2.7617 H   0  0  0  0  0  0  0  0  0  0  0  0
   -2.5929    0.8112   -1.3739 H   0  0  0  0  0  0  0  0  0  0  0  0
   -3.2074    0.6343   -3.0513 H   0  0  0  0  0  0  0  0  0  0  0  0
   -4.6365   -0.3467   -1.4243 H   0  0  0  0  0  0  0  0  0  0  0  0
   -6.1056   -1.9167   -0.3506 H   0  0  0  0  0  0  0  0  0  0  0  0
   -5.7028   -0.0990    1.7610 S   0  0  0  0  0  0  0  0  0  0  0  0
   -4.0178    0.6712    1.9511 C   0  0  0  0  0  0  0  0  0  0  0  0
   -6.4762    0.4684    2.8708 O   0  0  0  0  0  0  0  0  0  0  0  0
   -5.4045   -1.5605    1.8515 O   0  0  0  0  0  0  0  0  0  0  0  0
   -6.0986    0.3257    0.3900 O   0  0  0  0  0  0  0  0  0  0  0  0
   -4.0795    2.0069    1.8648 F   0  0  0  0  0  0  0  0  0  0  0  0
   -3.4549    0.3451    3.1209 F   0  0  0  0  0  0  0  0  0  0  0  0
   -3.1753    0.2435    0.9659 F   0  0  0  0  0  0  0  0  0  0  0  0
  1  2  1  0  0  0  0
  2  3  1  0  0  0  0
  4 11  1  0  0  0  0
  4  1  2  0  0  0  0
  5  4  1  0  0  0  0
  6  5  2  0  0  0  0
  6  9  1  0  0  0  0
  7  6  1  0  0  0  0
  8  7  1  0  0  0  0
  8 14  1  0  0  0  0
  9 10  2  0  0  0  0
 10  1  1  0  0  0  0
 10 17  1  0  0  0  0
 12  5  1  0  0  0  0
 13  8  1  0  0  0  0
 15  8  1  0  0  0  0
 16  9  1  0  0  0  0
 18 21  2  0  0  0  0
 18 19  1  0  0  0  0
 18 20  1  0  0  0  0
 19 24  1  0  0  0  0
 22 18  2  0  0  0  0
 23 19  1  0  0  0  0
 25 19  1  0  0  0  0
M  RAD  3   2   2   3   3  20   2
M  END
