Coordinates from ORCA-job 4-MeOPhN2+~TfO-_B3LYPG-6-31G_dp-NX-Scan-d89-09-n800
 OpenBabel11261920223D

 25 24  0  0  0  0  0  0  0  0999 V2000
   -4.7099   -3.5895   -0.5325 C   0  0  0  0  0  0  0  0  0  0  0  0
   -5.4982   -4.4228    0.1778 N   0  0  0  0  0  0  0  0  0  0  0  0
   -6.1560   -5.1109    0.7725 N   0  0  0  0  0  0  0  0  0  0  0  0
   -3.4381   -4.0484   -0.9769 C   0  0  0  0  0  0  0  0  0  0  0  0
   -2.6161   -3.1497   -1.6018 C   0  0  0  0  0  0  0  0  0  0  0  0
   -3.0265   -1.7934   -1.7655 C   0  0  0  0  0  0  0  0  0  0  0  0
   -2.1158   -0.9926   -2.3109 O   0  0  0  0  0  0  0  0  0  0  0  0
   -2.3755    0.4245   -2.3729 C   0  0  0  0  0  0  0  0  0  0  0  0
   -4.3049   -1.3738   -1.3577 C   0  0  0  0  0  0  0  0  0  0  0  0
   -5.1509   -2.2594   -0.7238 C   0  0  0  0  0  0  0  0  0  0  0  0
   -3.1329   -5.0744   -0.8058 H   0  0  0  0  0  0  0  0  0  0  0  0
   -1.6300   -3.4348   -1.9484 H   0  0  0  0  0  0  0  0  0  0  0  0
   -1.4591    0.8655   -2.7624 H   0  0  0  0  0  0  0  0  0  0  0  0
   -2.5929    0.8113   -1.3747 H   0  0  0  0  0  0  0  0  0  0  0  0
   -3.2071    0.6343   -3.0522 H   0  0  0  0  0  0  0  0  0  0  0  0
   -4.6364   -0.3465   -1.4253 H   0  0  0  0  0  0  0  0  0  0  0  0
   -6.1053   -1.9165   -0.3514 H   0  0  0  0  0  0  0  0  0  0  0  0
   -5.7028   -0.1009    1.7609 S   0  0  0  0  0  0  0  0  0  0  0  0
   -4.0182    0.6700    1.9513 C   0  0  0  0  0  0  0  0  0  0  0  0
   -6.4765    0.4649    2.8710 O   0  0  0  0  0  0  0  0  0  0  0  0
   -5.4039   -1.5622    1.8505 O   0  0  0  0  0  0  0  0  0  0  0  0
   -6.0989    0.3247    0.3902 O   0  0  0  0  0  0  0  0  0  0  0  0
   -4.0805    2.0057    1.8661 F   0  0  0  0  0  0  0  0  0  0  0  0
   -3.4549    0.3432    3.1207 F   0  0  0  0  0  0  0  0  0  0  0  0
   -3.1757    0.2435    0.9656 F   0  0  0  0  0  0  0  0  0  0  0  0
  1  2  1  0  0  0  0
  2  3  1  0  0  0  0
  4 11  1  0  0  0  0
  4  1  2  0  0  0  0
  5  4  1  0  0  0  0
  6  5  2  0  0  0  0
  6  9  1  0  0  0  0
  7  6  1  0  0  0  0
  8  7  1  0  0  0  0
  8 14  1  0  0  0  0
  9 10  2  0  0  0  0
 10  1  1  0  0  0  0
 10 17  1  0  0  0  0
 12  5  1  0  0  0  0
 13  8  1  0  0  0  0
 15  8  1  0  0  0  0
 16  9  1  0  0  0  0
 18 21  2  0  0  0  0
 18 19  1  0  0  0  0
 18 20  1  0  0  0  0
 19 24  1  0  0  0  0
 22 18  2  0  0  0  0
 23 19  1  0  0  0  0
 25 19  1  0  0  0  0
M  RAD  3   2   2   3   3  20   2
M  END
