Coordinates from ORCA-job 4-MeOPhN2+~TfO-_B3LYPG-6-31G_dp-NX-Scan-d89-09-n800
 OpenBabel11261920223D

 25 24  0  0  0  0  0  0  0  0999 V2000
   -4.7015   -3.6183   -0.5395 C   0  0  0  0  0  0  0  0  0  0  0  0
   -5.4864   -4.4704    0.1521 N   0  0  0  0  0  0  0  0  0  0  0  0
   -6.1395   -5.1772    0.7306 N   0  0  0  0  0  0  0  0  0  0  0  0
   -3.4346   -4.0700   -1.0065 C   0  0  0  0  0  0  0  0  0  0  0  0
   -2.6189   -3.1610   -1.6240 C   0  0  0  0  0  0  0  0  0  0  0  0
   -3.0310   -1.8021   -1.7609 C   0  0  0  0  0  0  0  0  0  0  0  0
   -2.1276   -0.9930   -2.3053 O   0  0  0  0  0  0  0  0  0  0  0  0
   -2.3906    0.4247   -2.3475 C   0  0  0  0  0  0  0  0  0  0  0  0
   -4.3038   -1.3884   -1.3302 C   0  0  0  0  0  0  0  0  0  0  0  0
   -5.1435   -2.2841   -0.7019 C   0  0  0  0  0  0  0  0  0  0  0  0
   -3.1291   -5.0996   -0.8583 H   0  0  0  0  0  0  0  0  0  0  0  0
   -1.6370   -3.4407   -1.9867 H   0  0  0  0  0  0  0  0  0  0  0  0
   -1.4803    0.8715   -2.7443 H   0  0  0  0  0  0  0  0  0  0  0  0
   -2.5956    0.7995   -1.3423 H   0  0  0  0  0  0  0  0  0  0  0  0
   -3.2318    0.6401   -3.0130 H   0  0  0  0  0  0  0  0  0  0  0  0
   -4.6375   -0.3603   -1.3755 H   0  0  0  0  0  0  0  0  0  0  0  0
   -6.0928   -1.9473   -0.3111 H   0  0  0  0  0  0  0  0  0  0  0  0
   -5.7039   -0.0517    1.7459 S   0  0  0  0  0  0  0  0  0  0  0  0
   -4.0114    0.6973    1.9533 C   0  0  0  0  0  0  0  0  0  0  0  0
   -6.4888    0.5459    2.8316 O   0  0  0  0  0  0  0  0  0  0  0  0
   -5.4286   -1.5152    1.8657 O   0  0  0  0  0  0  0  0  0  0  0  0
   -6.0691    0.3564    0.3612 O   0  0  0  0  0  0  0  0  0  0  0  0
   -4.0511    2.0321    1.8419 F   0  0  0  0  0  0  0  0  0  0  0  0
   -3.4743    0.3840    3.1384 F   0  0  0  0  0  0  0  0  0  0  0  0
   -3.1581    0.2396    0.9908 F   0  0  0  0  0  0  0  0  0  0  0  0
  1  2  1  0  0  0  0
  2  3  1  0  0  0  0
  4 11  1  0  0  0  0
  4  1  2  0  0  0  0
  5  4  1  0  0  0  0
  6  5  2  0  0  0  0
  6  9  1  0  0  0  0
  7  6  1  0  0  0  0
  8  7  1  0  0  0  0
  8 14  1  0  0  0  0
  9 10  2  0  0  0  0
 10  1  1  0  0  0  0
 10 17  1  0  0  0  0
 12  5  1  0  0  0  0
 13  8  1  0  0  0  0
 15  8  1  0  0  0  0
 16  9  1  0  0  0  0
 18 21  2  0  0  0  0
 18 19  1  0  0  0  0
 18 20  1  0  0  0  0
 19 24  1  0  0  0  0
 22 18  2  0  0  0  0
 23 19  1  0  0  0  0
 25 19  1  0  0  0  0
M  RAD  3   2   2   3   3  20   2
M  END
