Coordinates from ORCA-job 4-MeOPhN2+~TfO-_B3LYPG-6-31G_dp-NX-Scan-d89-09-n800
 OpenBabel11261920223D

 25 24  0  0  0  0  0  0  0  0999 V2000
   -3.9157   -2.8158   -0.2546 C   0  0  0  0  0  0  0  0  0  0  0  0
   -4.3642   -3.2492    0.9702 N   0  0  0  0  0  0  0  0  0  0  0  0
   -4.6724   -3.3066    2.0501 N   0  0  0  0  0  0  0  0  0  0  0  0
   -4.0043   -3.6827   -1.3621 C   0  0  0  0  0  0  0  0  0  0  0  0
   -3.5722   -3.2274   -2.5878 C   0  0  0  0  0  0  0  0  0  0  0  0
   -3.0579   -1.9161   -2.7180 C   0  0  0  0  0  0  0  0  0  0  0  0
   -2.6760   -1.5735   -3.9561 O   0  0  0  0  0  0  0  0  0  0  0  0
   -2.1717   -0.2547   -4.1978 C   0  0  0  0  0  0  0  0  0  0  0  0
   -2.9729   -1.0681   -1.5958 C   0  0  0  0  0  0  0  0  0  0  0  0
   -3.4011   -1.5097   -0.3555 C   0  0  0  0  0  0  0  0  0  0  0  0
   -4.4121   -4.6801   -1.2444 H   0  0  0  0  0  0  0  0  0  0  0  0
   -3.6239   -3.8522   -3.4718 H   0  0  0  0  0  0  0  0  0  0  0  0
   -1.9516   -0.2185   -5.2640 H   0  0  0  0  0  0  0  0  0  0  0  0
   -1.2546   -0.0744   -3.6278 H   0  0  0  0  0  0  0  0  0  0  0  0
   -2.9216    0.5034   -3.9494 H   0  0  0  0  0  0  0  0  0  0  0  0
   -2.5868   -0.0611   -1.6814 H   0  0  0  0  0  0  0  0  0  0  0  0
   -3.3555   -0.8706    0.5198 H   0  0  0  0  0  0  0  0  0  0  0  0
   -5.2898   -0.3310    2.3101 S   0  0  0  0  0  0  0  0  0  0  0  0
   -6.1114    0.1999    3.8874 C   0  0  0  0  0  0  0  0  0  0  0  0
   -6.3083   -1.1286    1.5913 O   0  0  0  0  0  0  0  0  0  0  0  0
   -4.1394   -1.1847    2.7878 O   0  0  0  0  0  0  0  0  0  0  0  0
   -4.8462    0.9172    1.6648 O   0  0  0  0  0  0  0  0  0  0  0  0
   -7.1841    0.9566    3.6191 F   0  0  0  0  0  0  0  0  0  0  0  0
   -6.5099   -0.8718    4.5891 F   0  0  0  0  0  0  0  0  0  0  0  0
   -5.2634    0.9113    4.6412 F   0  0  0  0  0  0  0  0  0  0  0  0
  1  2  1  0  0  0  0
  2  3  1  0  0  0  0
  4 11  1  0  0  0  0
  4  1  2  0  0  0  0
  5  4  1  0  0  0  0
  6  5  2  0  0  0  0
  6  9  1  0  0  0  0
  7  6  1  0  0  0  0
  8  7  1  0  0  0  0
  8 15  1  0  0  0  0
  8 14  1  0  0  0  0
  9 10  2  0  0  0  0
 10  1  1  0  0  0  0
 10 17  1  0  0  0  0
 12  5  1  0  0  0  0
 13  8  1  0  0  0  0
 16  9  1  0  0  0  0
 18 21  1  0  0  0  0
 18 19  1  0  0  0  0
 19 24  1  0  0  0  0
 19 25  1  0  0  0  0
 20 18  2  0  0  0  0
 22 18  2  0  0  0  0
 23 19  1  0  0  0  0
M  RAD  3   2   2   3   3  21   2
M  END
