Coordinates from ORCA-job 4-MeOPhN2+~TfO-_B3LYPG-6-31G_dp-NX-Scan-d89-09-n800
 OpenBabel11261920223D

 25 24  0  0  0  0  0  0  0  0999 V2000
   -4.7015   -3.6193   -0.5397 C   0  0  0  0  0  0  0  0  0  0  0  0
   -5.4866   -4.4730    0.1497 N   0  0  0  0  0  0  0  0  0  0  0  0
   -6.1389   -5.1822    0.7260 N   0  0  0  0  0  0  0  0  0  0  0  0
   -3.4346   -4.0707   -1.0072 C   0  0  0  0  0  0  0  0  0  0  0  0
   -2.6189   -3.1612   -1.6240 C   0  0  0  0  0  0  0  0  0  0  0  0
   -3.0311   -1.8023   -1.7601 C   0  0  0  0  0  0  0  0  0  0  0  0
   -2.1280   -0.9929   -2.3045 O   0  0  0  0  0  0  0  0  0  0  0  0
   -2.3912    0.4248   -2.3463 C   0  0  0  0  0  0  0  0  0  0  0  0
   -4.3038   -1.3890   -1.3289 C   0  0  0  0  0  0  0  0  0  0  0  0
   -5.1434   -2.2849   -0.7008 C   0  0  0  0  0  0  0  0  0  0  0  0
   -3.1292   -5.1004   -0.8599 H   0  0  0  0  0  0  0  0  0  0  0  0
   -1.6370   -3.4407   -1.9870 H   0  0  0  0  0  0  0  0  0  0  0  0
   -1.4810    0.8719   -2.7431 H   0  0  0  0  0  0  0  0  0  0  0  0
   -2.5961    0.7993   -1.3409 H   0  0  0  0  0  0  0  0  0  0  0  0
   -3.2326    0.6403   -3.0115 H   0  0  0  0  0  0  0  0  0  0  0  0
   -4.6376   -0.3608   -1.3737 H   0  0  0  0  0  0  0  0  0  0  0  0
   -6.0925   -1.9482   -0.3095 H   0  0  0  0  0  0  0  0  0  0  0  0
   -5.7039   -0.0497    1.7461 S   0  0  0  0  0  0  0  0  0  0  0  0
   -4.0109    0.6985    1.9524 C   0  0  0  0  0  0  0  0  0  0  0  0
   -6.4880    0.5500    2.8312 O   0  0  0  0  0  0  0  0  0  0  0  0
   -5.4295   -1.5132    1.8677 O   0  0  0  0  0  0  0  0  0  0  0  0
   -6.0691    0.3568    0.3610 O   0  0  0  0  0  0  0  0  0  0  0  0
   -4.0497    2.0332    1.8388 F   0  0  0  0  0  0  0  0  0  0  0  0
   -3.4739    0.3868    3.1380 F   0  0  0  0  0  0  0  0  0  0  0  0
   -3.1578    0.2388    0.9906 F   0  0  0  0  0  0  0  0  0  0  0  0
  1  2  1  0  0  0  0
  2  3  1  0  0  0  0
  4 11  1  0  0  0  0
  4  1  2  0  0  0  0
  5  4  1  0  0  0  0
  6  5  2  0  0  0  0
  6  9  1  0  0  0  0
  7  6  1  0  0  0  0
  8  7  1  0  0  0  0
  8 14  1  0  0  0  0
  9 10  2  0  0  0  0
 10  1  1  0  0  0  0
 10 17  1  0  0  0  0
 12  5  1  0  0  0  0
 13  8  1  0  0  0  0
 15  8  1  0  0  0  0
 16  9  1  0  0  0  0
 18 21  2  0  0  0  0
 18 19  1  0  0  0  0
 18 20  1  0  0  0  0
 19 24  1  0  0  0  0
 22 18  2  0  0  0  0
 23 19  1  0  0  0  0
 25 19  1  0  0  0  0
M  RAD  3   2   2   3   3  20   2
M  END
