Coordinates from ORCA-job 4-MeOPhN2+~TfO-_B3LYPG-6-31G_dp-NX-Scan-d89-09-n800
 OpenBabel11261920223D

 25 24  0  0  0  0  0  0  0  0999 V2000
   -4.7080   -3.4883   -0.5064 C   0  0  0  0  0  0  0  0  0  0  0  0
   -5.4923   -4.2603    0.2789 N   0  0  0  0  0  0  0  0  0  0  0  0
   -6.1394   -4.8969    0.9359 N   0  0  0  0  0  0  0  0  0  0  0  0
   -3.4475   -3.9886   -0.9305 C   0  0  0  0  0  0  0  0  0  0  0  0
   -2.6125   -3.1339   -1.6017 C   0  0  0  0  0  0  0  0  0  0  0  0
   -2.9992   -1.7813   -1.8242 C   0  0  0  0  0  0  0  0  0  0  0  0
   -2.0716   -1.0146   -2.3931 O   0  0  0  0  0  0  0  0  0  0  0  0
   -2.2983    0.4052   -2.4825 C   0  0  0  0  0  0  0  0  0  0  0  0
   -4.2739   -1.3257   -1.4411 C   0  0  0  0  0  0  0  0  0  0  0  0
   -5.1340   -2.1681   -0.7694 C   0  0  0  0  0  0  0  0  0  0  0  0
   -3.1547   -5.0078   -0.7058 H   0  0  0  0  0  0  0  0  0  0  0  0
   -1.6310   -3.4506   -1.9335 H   0  0  0  0  0  0  0  0  0  0  0  0
   -1.3669    0.8206   -2.8645 H   0  0  0  0  0  0  0  0  0  0  0  0
   -2.5213    0.8145   -1.4937 H   0  0  0  0  0  0  0  0  0  0  0  0
   -3.1145    0.6242   -3.1777 H   0  0  0  0  0  0  0  0  0  0  0  0
   -4.5869   -0.2985   -1.5683 H   0  0  0  0  0  0  0  0  0  0  0  0
   -6.0793   -1.7866   -0.4069 H   0  0  0  0  0  0  0  0  0  0  0  0
   -5.7592   -0.2315    1.8485 S   0  0  0  0  0  0  0  0  0  0  0  0
   -4.0906    0.5852    1.9855 C   0  0  0  0  0  0  0  0  0  0  0  0
   -6.5002    0.2913    3.0015 O   0  0  0  0  0  0  0  0  0  0  0  0
   -5.4175   -1.6854    1.8923 O   0  0  0  0  0  0  0  0  0  0  0  0
   -6.2235    0.2099    0.5038 O   0  0  0  0  0  0  0  0  0  0  0  0
   -4.1991    1.9202    1.9532 F   0  0  0  0  0  0  0  0  0  0  0  0
   -3.4629    0.2367    3.1161 F   0  0  0  0  0  0  0  0  0  0  0  0
   -3.2829    0.2218    0.9480 F   0  0  0  0  0  0  0  0  0  0  0  0
  1  2  1  0  0  0  0
  2  3  1  0  0  0  0
  4 11  1  0  0  0  0
  4  1  2  0  0  0  0
  5  4  1  0  0  0  0
  6  5  2  0  0  0  0
  6  9  1  0  0  0  0
  7  6  1  0  0  0  0
  8  7  1  0  0  0  0
  8 14  1  0  0  0  0
  9 10  2  0  0  0  0
 10  1  1  0  0  0  0
 10 17  1  0  0  0  0
 12  5  1  0  0  0  0
 13  8  1  0  0  0  0
 15  8  1  0  0  0  0
 16  9  1  0  0  0  0
 18 21  2  0  0  0  0
 18 19  1  0  0  0  0
 18 20  1  0  0  0  0
 19 24  1  0  0  0  0
 22 18  2  0  0  0  0
 23 19  1  0  0  0  0
 25 19  1  0  0  0  0
M  RAD  3   2   2   3   3  20   2
M  END
