Coordinates from ORCA-job 4-MeOPhN2+~TfO-_B3LYPG-6-31G_dp-NX-Scan-d89-09-n800
 OpenBabel11261920223D

 25 24  0  0  0  0  0  0  0  0999 V2000
   -4.7146   -3.5694   -0.5283 C   0  0  0  0  0  0  0  0  0  0  0  0
   -5.5038   -4.3923    0.1937 N   0  0  0  0  0  0  0  0  0  0  0  0
   -6.1605   -5.0725    0.7982 N   0  0  0  0  0  0  0  0  0  0  0  0
   -3.4422   -4.0352   -0.9623 C   0  0  0  0  0  0  0  0  0  0  0  0
   -2.6156   -3.1446   -1.5931 C   0  0  0  0  0  0  0  0  0  0  0  0
   -3.0220   -1.7895   -1.7718 C   0  0  0  0  0  0  0  0  0  0  0  0
   -2.1065   -0.9955   -2.3197 O   0  0  0  0  0  0  0  0  0  0  0  0
   -2.3607    0.4217   -2.3920 C   0  0  0  0  0  0  0  0  0  0  0  0
   -4.3017   -1.3634   -1.3747 C   0  0  0  0  0  0  0  0  0  0  0  0
   -5.1524   -2.2409   -0.7357 C   0  0  0  0  0  0  0  0  0  0  0  0
   -3.1393   -5.0597   -0.7786 H   0  0  0  0  0  0  0  0  0  0  0  0
   -1.6284   -3.4351   -1.9322 H   0  0  0  0  0  0  0  0  0  0  0  0
   -1.4402    0.8574   -2.7779 H   0  0  0  0  0  0  0  0  0  0  0  0
   -2.5832    0.8156   -1.3976 H   0  0  0  0  0  0  0  0  0  0  0  0
   -3.1868    0.6307   -3.0782 H   0  0  0  0  0  0  0  0  0  0  0  0
   -4.6296   -0.3361   -1.4565 H   0  0  0  0  0  0  0  0  0  0  0  0
   -6.1076   -1.8910   -0.3711 H   0  0  0  0  0  0  0  0  0  0  0  0
   -5.7068   -0.1328    1.7774 S   0  0  0  0  0  0  0  0  0  0  0  0
   -4.0287    0.6560    1.9523 C   0  0  0  0  0  0  0  0  0  0  0  0
   -6.4719    0.4160    2.9022 O   0  0  0  0  0  0  0  0  0  0  0  0
   -5.3904   -1.5915    1.8513 O   0  0  0  0  0  0  0  0  0  0  0  0
   -6.1255    0.2983    0.4153 O   0  0  0  0  0  0  0  0  0  0  0  0
   -4.1081    1.9915    1.8805 F   0  0  0  0  0  0  0  0  0  0  0  0
   -3.4461    0.3254    3.1112 F   0  0  0  0  0  0  0  0  0  0  0  0
   -3.1942    0.2486    0.9519 F   0  0  0  0  0  0  0  0  0  0  0  0
  1  2  1  0  0  0  0
  2  3  1  0  0  0  0
  4 11  1  0  0  0  0
  4  1  2  0  0  0  0
  5  4  1  0  0  0  0
  6  5  2  0  0  0  0
  6  9  1  0  0  0  0
  7  6  1  0  0  0  0
  8  7  1  0  0  0  0
  8 14  1  0  0  0  0
  9 10  2  0  0  0  0
 10  1  1  0  0  0  0
 10 17  1  0  0  0  0
 12  5  1  0  0  0  0
 13  8  1  0  0  0  0
 15  8  1  0  0  0  0
 16  9  1  0  0  0  0
 18 21  2  0  0  0  0
 18 19  1  0  0  0  0
 18 20  1  0  0  0  0
 19 24  1  0  0  0  0
 22 18  2  0  0  0  0
 23 19  1  0  0  0  0
 25 19  1  0  0  0  0
M  RAD  3   2   2   3   3  20   2
M  END
