Coordinates from ORCA-job 4-MeOPhN2+~TfO-_B3LYPG-6-31G_dp-NX-Scan-d89-09-n800
 OpenBabel11261920223D

 25 25  0  0  0  0  0  0  0  0999 V2000
   -3.8771   -2.5321   -0.2480 C   0  0  0  0  0  0  0  0  0  0  0  0
   -4.2625   -2.9499    1.0291 N   0  0  0  0  0  0  0  0  0  0  0  0
   -4.5286   -2.4627    2.0837 N   0  0  0  0  0  0  0  0  0  0  0  0
   -3.6728   -3.5855   -1.1637 C   0  0  0  0  0  0  0  0  0  0  0  0
   -3.2834   -3.3225   -2.4614 C   0  0  0  0  0  0  0  0  0  0  0  0
   -3.0881   -1.9912   -2.8764 C   0  0  0  0  0  0  0  0  0  0  0  0
   -2.7074   -1.8314   -4.1613 O   0  0  0  0  0  0  0  0  0  0  0  0
   -2.4908   -0.5135   -4.6617 C   0  0  0  0  0  0  0  0  0  0  0  0
   -3.2910   -0.9369   -1.9688 C   0  0  0  0  0  0  0  0  0  0  0  0
   -3.6835   -1.1995   -0.6621 C   0  0  0  0  0  0  0  0  0  0  0  0
   -3.8279   -4.6041   -0.8246 H   0  0  0  0  0  0  0  0  0  0  0  0
   -3.1202   -4.1195   -3.1781 H   0  0  0  0  0  0  0  0  0  0  0  0
   -2.1935   -0.6381   -5.7028 H   0  0  0  0  0  0  0  0  0  0  0  0
   -1.6905   -0.0050   -4.1122 H   0  0  0  0  0  0  0  0  0  0  0  0
   -3.4072    0.0861   -4.6132 H   0  0  0  0  0  0  0  0  0  0  0  0
   -3.1443    0.0922   -2.2728 H   0  0  0  0  0  0  0  0  0  0  0  0
   -3.8373   -0.3862    0.0317 H   0  0  0  0  0  0  0  0  0  0  0  0
   -4.5972   -0.1611    3.4795 S   0  0  0  0  0  0  0  0  0  0  0  0
   -6.4536   -0.1750    3.6528 C   0  0  0  0  0  0  0  0  0  0  0  0
   -4.4454   -0.8546    2.0388 O   0  0  0  0  0  0  0  0  0  0  0  0
   -4.0695   -1.0025    4.5409 O   0  0  0  0  0  0  0  0  0  0  0  0
   -4.2000    1.2296    3.3176 O   0  0  0  0  0  0  0  0  0  0  0  0
   -7.0094    0.5181    2.6567 F   0  0  0  0  0  0  0  0  0  0  0  0
   -6.9071   -1.4296    3.6227 F   0  0  0  0  0  0  0  0  0  0  0  0
   -6.7784    0.3867    4.8180 F   0  0  0  0  0  0  0  0  0  0  0  0
  1  2  1  0  0  0  0
  2  3  1  0  0  0  0
  4 11  1  0  0  0  0
  4  1  2  0  0  0  0
  5  4  1  0  0  0  0
  6  5  2  0  0  0  0
  6  9  1  0  0  0  0
  7  6  1  0  0  0  0
  8 15  1  0  0  0  0
  8  7  1  0  0  0  0
  8 14  1  0  0  0  0
  9 10  2  0  0  0  0
 10  1  1  0  0  0  0
 10 17  1  0  0  0  0
 12  5  1  0  0  0  0
 13  8  1  0  0  0  0
 16  9  1  0  0  0  0
 18 19  1  0  0  0  0
 18 21  2  0  0  0  0
 19 25  1  0  0  0  0
 20  3  1  0  0  0  0
 20 18  1  0  0  0  0
 22 18  2  0  0  0  0
 23 19  1  0  0  0  0
 24 19  1  0  0  0  0
M  RAD  2   2   2   3   2
M  END
