Coordinates from ORCA-job 4-MeOPhN2+~TfO-_B3LYPG-6-31G_dp-NX-Scan-d89-09-n800
 OpenBabel11261920223D

 25 25  0  0  0  0  0  0  0  0999 V2000
   -3.9810   -2.4139   -0.2418 C   0  0  0  0  0  0  0  0  0  0  0  0
   -4.4301   -2.8812    1.0257 N   0  0  0  0  0  0  0  0  0  0  0  0
   -4.5997   -2.1240    2.0313 N   0  0  0  0  0  0  0  0  0  0  0  0
   -3.8748   -3.4694   -1.1750 C   0  0  0  0  0  0  0  0  0  0  0  0
   -3.4508   -3.2566   -2.4729 C   0  0  0  0  0  0  0  0  0  0  0  0
   -3.1120   -1.9596   -2.8935 C   0  0  0  0  0  0  0  0  0  0  0  0
   -2.7040   -1.8435   -4.1857 O   0  0  0  0  0  0  0  0  0  0  0  0
   -2.3426   -0.5574   -4.6689 C   0  0  0  0  0  0  0  0  0  0  0  0
   -3.2107   -0.8962   -1.9885 C   0  0  0  0  0  0  0  0  0  0  0  0
   -3.6398   -1.1179   -0.6782 C   0  0  0  0  0  0  0  0  0  0  0  0
   -4.1395   -4.4653   -0.8355 H   0  0  0  0  0  0  0  0  0  0  0  0
   -3.3700   -4.0723   -3.1836 H   0  0  0  0  0  0  0  0  0  0  0  0
   -2.0435   -0.7002   -5.7079 H   0  0  0  0  0  0  0  0  0  0  0  0
   -1.5012   -0.1366   -4.1047 H   0  0  0  0  0  0  0  0  0  0  0  0
   -3.1883    0.1410   -4.6284 H   0  0  0  0  0  0  0  0  0  0  0  0
   -2.9558    0.1135   -2.2881 H   0  0  0  0  0  0  0  0  0  0  0  0
   -3.6996   -0.2661   -0.0174 H   0  0  0  0  0  0  0  0  0  0  0  0
   -4.6087   -0.0888    3.4818 S   0  0  0  0  0  0  0  0  0  0  0  0
   -6.4506   -0.4429    3.7889 C   0  0  0  0  0  0  0  0  0  0  0  0
   -4.3991   -1.0053    1.9390 O   0  0  0  0  0  0  0  0  0  0  0  0
   -3.8324   -0.7339    4.5223 O   0  0  0  0  0  0  0  0  0  0  0  0
   -4.4567    1.2892    3.0589 O   0  0  0  0  0  0  0  0  0  0  0  0
   -7.0894   -0.4298    2.6269 F   0  0  0  0  0  0  0  0  0  0  0  0
   -6.5896   -1.6089    4.3908 F   0  0  0  0  0  0  0  0  0  0  0  0
   -6.8968    0.5375    4.5688 F   0  0  0  0  0  0  0  0  0  0  0  0
  1  2  1  0  0  0  0
  2  3  2  0  0  0  0
  4 11  1  0  0  0  0
  4  1  2  0  0  0  0
  5  4  1  0  0  0  0
  6  5  2  0  0  0  0
  6  9  1  0  0  0  0
  7  6  1  0  0  0  0
  8 15  1  0  0  0  0
  8  7  1  0  0  0  0
  8 14  1  0  0  0  0
  9 10  2  0  0  0  0
 10  1  1  0  0  0  0
 10 17  1  0  0  0  0
 12  5  1  0  0  0  0
 13  8  1  0  0  0  0
 16  9  1  0  0  0  0
 18 19  1  0  0  0  0
 18 21  2  0  0  0  0
 19 24  1  0  0  0  0
 19 25  1  0  0  0  0
 20  3  1  0  0  0  0
 20 18  1  0  0  0  0
 22 18  2  0  0  0  0
 23 19  1  0  0  0  0
M  END
