Coordinates from ORCA-job 4-MeOPhN2+~TfO-_B3LYPG-6-31G_dp-NX-Scan-d89-09-n800
 OpenBabel11261920223D

 25 25  0  0  0  0  0  0  0  0999 V2000
   -3.8775   -2.5299   -0.2453 C   0  0  0  0  0  0  0  0  0  0  0  0
   -4.2626   -2.9510    1.0314 N   0  0  0  0  0  0  0  0  0  0  0  0
   -4.5273   -2.4584    2.0857 N   0  0  0  0  0  0  0  0  0  0  0  0
   -3.6752   -3.5832   -1.1619 C   0  0  0  0  0  0  0  0  0  0  0  0
   -3.2863   -3.3210   -2.4599 C   0  0  0  0  0  0  0  0  0  0  0  0
   -3.0893   -1.9902   -2.8752 C   0  0  0  0  0  0  0  0  0  0  0  0
   -2.7093   -1.8308   -4.1605 O   0  0  0  0  0  0  0  0  0  0  0  0
   -2.4913   -0.5132   -4.6607 C   0  0  0  0  0  0  0  0  0  0  0  0
   -3.2899   -0.9358   -1.9673 C   0  0  0  0  0  0  0  0  0  0  0  0
   -3.6820   -1.1978   -0.6602 C   0  0  0  0  0  0  0  0  0  0  0  0
   -3.8315   -4.6015   -0.8225 H   0  0  0  0  0  0  0  0  0  0  0  0
   -3.1249   -4.1184   -3.1766 H   0  0  0  0  0  0  0  0  0  0  0  0
   -2.1949   -0.6379   -5.7021 H   0  0  0  0  0  0  0  0  0  0  0  0
   -1.6899   -0.0059   -4.1117 H   0  0  0  0  0  0  0  0  0  0  0  0
   -3.4068    0.0877   -4.6114 H   0  0  0  0  0  0  0  0  0  0  0  0
   -3.1419    0.0931   -2.2712 H   0  0  0  0  0  0  0  0  0  0  0  0
   -3.8336   -0.3835    0.0327 H   0  0  0  0  0  0  0  0  0  0  0  0
   -4.5964   -0.1629    3.4782 S   0  0  0  0  0  0  0  0  0  0  0  0
   -6.4534   -0.1783    3.6491 C   0  0  0  0  0  0  0  0  0  0  0  0
   -4.4422   -0.8606    2.0370 O   0  0  0  0  0  0  0  0  0  0  0  0
   -4.0681   -1.0010    4.5415 O   0  0  0  0  0  0  0  0  0  0  0  0
   -4.2001    1.2270    3.3100 O   0  0  0  0  0  0  0  0  0  0  0  0
   -7.0081    0.5081    2.6481 F   0  0  0  0  0  0  0  0  0  0  0  0
   -6.9052   -1.4333    3.6264 F   0  0  0  0  0  0  0  0  0  0  0  0
   -6.7793    0.3906    4.8104 F   0  0  0  0  0  0  0  0  0  0  0  0
  1  2  1  0  0  0  0
  2  3  1  0  0  0  0
  4 11  1  0  0  0  0
  4  1  2  0  0  0  0
  5  4  1  0  0  0  0
  6  5  2  0  0  0  0
  6  9  1  0  0  0  0
  7  6  1  0  0  0  0
  8 15  1  0  0  0  0
  8  7  1  0  0  0  0
  8 14  1  0  0  0  0
  9 10  2  0  0  0  0
 10  1  1  0  0  0  0
 10 17  1  0  0  0  0
 12  5  1  0  0  0  0
 13  8  1  0  0  0  0
 16  9  1  0  0  0  0
 18 19  1  0  0  0  0
 18 21  2  0  0  0  0
 19 25  1  0  0  0  0
 20  3  1  0  0  0  0
 20 18  1  0  0  0  0
 22 18  2  0  0  0  0
 23 19  1  0  0  0  0
 24 19  1  0  0  0  0
M  RAD  2   2   2   3   2
M  END
