Coordinates from ORCA-job 4-MeOPhN2+~TfO-_B3LYPG-6-31G_dp-NX-Scan-d89-09-n800
 OpenBabel11261920223D

 25 24  0  0  0  0  0  0  0  0999 V2000
   -4.0681   -4.1738   -0.2838 C   0  0  0  0  0  0  0  0  0  0  0  0
   -4.4507   -5.4237    0.0413 N   0  0  0  0  0  0  0  0  0  0  0  0
   -4.7586   -6.4766    0.2973 N   0  0  0  0  0  0  0  0  0  0  0  0
   -4.9485   -3.3340   -1.0313 C   0  0  0  0  0  0  0  0  0  0  0  0
   -4.5129   -2.0884   -1.3908 C   0  0  0  0  0  0  0  0  0  0  0  0
   -3.2193   -1.6461   -0.9936 C   0  0  0  0  0  0  0  0  0  0  0  0
   -2.8855   -0.4453   -1.4129 O   0  0  0  0  0  0  0  0  0  0  0  0
   -1.7620    0.2559   -0.8570 C   0  0  0  0  0  0  0  0  0  0  0  0
   -2.3709   -2.4762   -0.2074 C   0  0  0  0  0  0  0  0  0  0  0  0
   -2.7830   -3.7387    0.1389 C   0  0  0  0  0  0  0  0  0  0  0  0
   -5.9484   -3.6704   -1.2793 H   0  0  0  0  0  0  0  0  0  0  0  0
   -5.1564   -1.3511   -1.8751 H   0  0  0  0  0  0  0  0  0  0  0  0
   -1.8123    1.2520   -1.2912 H   0  0  0  0  0  0  0  0  0  0  0  0
   -0.8207   -0.2287   -1.1360 H   0  0  0  0  0  0  0  0  0  0  0  0
   -1.8715    0.3230    0.2273 H   0  0  0  0  0  0  0  0  0  0  0  0
   -1.3994   -2.1250    0.1145 H   0  0  0  0  0  0  0  0  0  0  0  0
   -2.1485   -4.3998    0.7189 H   0  0  0  0  0  0  0  0  0  0  0  0
   -6.4706    0.6862   -0.2865 S   0  0  0  0  0  0  0  0  0  0  0  0
   -5.0674    1.1461    0.8618 C   0  0  0  0  0  0  0  0  0  0  0  0
   -7.3774    1.8378   -0.1736 O   0  0  0  0  0  0  0  0  0  0  0  0
   -6.9284   -0.6034    0.2807 O   0  0  0  0  0  0  0  0  0  0  0  0
   -5.7694    0.5451   -1.5952 O   0  0  0  0  0  0  0  0  0  0  0  0
   -4.2939    2.1261    0.3545 F   0  0  0  0  0  0  0  0  0  0  0  0
   -5.5071    1.5428    2.0618 F   0  0  0  0  0  0  0  0  0  0  0  0
   -4.2359    0.0781    1.0809 F   0  0  0  0  0  0  0  0  0  0  0  0
  1  2  1  0  0  0  0
  1 10  2  0  0  0  0
  2  3  1  0  0  0  0
  4  1  1  0  0  0  0
  5  4  2  0  0  0  0
  5  6  1  0  0  0  0
  6  9  2  0  0  0  0
  7  6  1  0  0  0  0
  7  8  1  0  0  0  0
  8 15  1  0  0  0  0
  9 16  1  0  0  0  0
  9 10  1  0  0  0  0
 10 17  1  0  0  0  0
 11  4  1  0  0  0  0
 12  5  1  0  0  0  0
 13  8  1  0  0  0  0
 14  8  1  0  0  0  0
 18 20  2  0  0  0  0
 18 21  1  0  0  0  0
 18 19  1  0  0  0  0
 19 25  1  0  0  0  0
 19 24  1  0  0  0  0
 22 18  2  0  0  0  0
 23 19  1  0  0  0  0
M  RAD  3   2   2   3   3  21   2
M  END
