Coordinates from ORCA-job 4-MeOPhN2+~TfO-_B3LYPG-6-31G_dp-NX-Scan-d89-09-n800
 OpenBabel11261920223D

 25 24  0  0  0  0  0  0  0  0999 V2000
   -4.5050   -3.9577   -0.5855 C   0  0  0  0  0  0  0  0  0  0  0  0
   -5.1810   -4.9179    0.0781 N   0  0  0  0  0  0  0  0  0  0  0  0
   -5.7720   -5.6805    0.6545 N   0  0  0  0  0  0  0  0  0  0  0  0
   -3.4095   -4.3108   -1.4251 C   0  0  0  0  0  0  0  0  0  0  0  0
   -2.7217   -3.2960   -2.0355 C   0  0  0  0  0  0  0  0  0  0  0  0
   -3.0991   -1.9370   -1.8157 C   0  0  0  0  0  0  0  0  0  0  0  0
   -2.3316   -1.0269   -2.3967 O   0  0  0  0  0  0  0  0  0  0  0  0
   -2.5961    0.3753   -2.1375 C   0  0  0  0  0  0  0  0  0  0  0  0
   -4.2113   -1.6146   -1.0115 C   0  0  0  0  0  0  0  0  0  0  0  0
   -4.9126   -2.6157   -0.3807 C   0  0  0  0  0  0  0  0  0  0  0  0
   -3.1297   -5.3496   -1.5605 H   0  0  0  0  0  0  0  0  0  0  0  0
   -1.8691   -3.5002   -2.6732 H   0  0  0  0  0  0  0  0  0  0  0  0
   -1.7912    0.9097   -2.6386 H   0  0  0  0  0  0  0  0  0  0  0  0
   -2.5881    0.5724   -1.0632 H   0  0  0  0  0  0  0  0  0  0  0  0
   -3.5644    0.6637   -2.5530 H   0  0  0  0  0  0  0  0  0  0  0  0
   -4.5373   -0.5883   -0.8226 H   0  0  0  0  0  0  0  0  0  0  0  0
   -5.7124   -2.3356    0.3042 H   0  0  0  0  0  0  0  0  0  0  0  0
   -5.7132    0.5878    1.4059 S   0  0  0  0  0  0  0  0  0  0  0  0
   -4.0669    0.9682    2.1822 C   0  0  0  0  0  0  0  0  0  0  0  0
   -6.6682    1.4587    2.0951 O   0  0  0  0  0  0  0  0  0  0  0  0
   -5.8603   -0.8724    1.6680 O   0  0  0  0  0  0  0  0  0  0  0  0
   -5.4448    0.9091   -0.0276 O   0  0  0  0  0  0  0  0  0  0  0  0
   -3.7760    2.2731    2.0944 F   0  0  0  0  0  0  0  0  0  0  0  0
   -4.0256    0.6097    3.4719 F   0  0  0  0  0  0  0  0  0  0  0  0
   -3.0799    0.2874    1.5370 F   0  0  0  0  0  0  0  0  0  0  0  0
  1 10  1  0  0  0  0
  1  2  1  0  0  0  0
  2  3  1  0  0  0  0
  4  1  2  0  0  0  0
  5  6  2  0  0  0  0
  5  4  1  0  0  0  0
  6  9  1  0  0  0  0
  7  8  1  0  0  0  0
  7  6  1  0  0  0  0
  8 14  1  0  0  0  0
  9 16  1  0  0  0  0
  9 10  2  0  0  0  0
 10 17  1  0  0  0  0
 11  4  1  0  0  0  0
 12  5  1  0  0  0  0
 13  8  1  0  0  0  0
 15  8  1  0  0  0  0
 18 21  2  0  0  0  0
 18 20  1  0  0  0  0
 18 19  1  0  0  0  0
 19 24  1  0  0  0  0
 22 18  2  0  0  0  0
 23 19  1  0  0  0  0
 25 19  1  0  0  0  0
M  RAD  3   2   2   3   3  20   2
M  END
