Coordinates from ORCA-job 4-MeOPhN2+~TfO-_B3LYPG-6-31G_dp-NX-Scan-d89-09-n800
 OpenBabel11261920223D

 25 24  0  0  0  0  0  0  0  0999 V2000
   -4.1214   -4.0894   -0.2519 C   0  0  0  0  0  0  0  0  0  0  0  0
   -4.5518   -5.3071    0.1308 N   0  0  0  0  0  0  0  0  0  0  0  0
   -4.8972   -6.3352    0.4355 N   0  0  0  0  0  0  0  0  0  0  0  0
   -4.9530   -3.2708   -1.0731 C   0  0  0  0  0  0  0  0  0  0  0  0
   -4.4686   -2.0606   -1.4881 C   0  0  0  0  0  0  0  0  0  0  0  0
   -3.1837   -1.6249   -1.0640 C   0  0  0  0  0  0  0  0  0  0  0  0
   -2.8085   -0.4497   -1.5241 O   0  0  0  0  0  0  0  0  0  0  0  0
   -1.7029    0.2590   -0.9420 C   0  0  0  0  0  0  0  0  0  0  0  0
   -2.3836   -2.4332   -0.2076 C   0  0  0  0  0  0  0  0  0  0  0  0
   -2.8394   -3.6646    0.1905 C   0  0  0  0  0  0  0  0  0  0  0  0
   -5.9564   -3.5886   -1.3294 H   0  0  0  0  0  0  0  0  0  0  0  0
   -5.0841   -1.3383   -2.0223 H   0  0  0  0  0  0  0  0  0  0  0  0
   -1.6888    1.2213   -1.4493 H   0  0  0  0  0  0  0  0  0  0  0  0
   -0.7594   -0.2686   -1.1173 H   0  0  0  0  0  0  0  0  0  0  0  0
   -1.8862    0.4059    0.1244 H   0  0  0  0  0  0  0  0  0  0  0  0
   -1.4164   -2.0874    0.1323 H   0  0  0  0  0  0  0  0  0  0  0  0
   -2.2430   -4.3081    0.8280 H   0  0  0  0  0  0  0  0  0  0  0  0
   -6.4416    0.5794   -0.2616 S   0  0  0  0  0  0  0  0  0  0  0  0
   -5.0868    1.0500    0.9361 C   0  0  0  0  0  0  0  0  0  0  0  0
   -7.4253    1.6577   -0.0866 O   0  0  0  0  0  0  0  0  0  0  0  0
   -6.8250   -0.7729    0.2121 O   0  0  0  0  0  0  0  0  0  0  0  0
   -5.7150    0.5714   -1.5624 O   0  0  0  0  0  0  0  0  0  0  0  0
   -4.4100    2.1403    0.5333 F   0  0  0  0  0  0  0  0  0  0  0  0
   -5.5591    1.2818    2.1668 F   0  0  0  0  0  0  0  0  0  0  0  0
   -4.1597    0.0444    1.0542 F   0  0  0  0  0  0  0  0  0  0  0  0
  1  2  1  0  0  0  0
  1 10  2  0  0  0  0
  2  3  1  0  0  0  0
  4  1  1  0  0  0  0
  5  4  2  0  0  0  0
  5  6  1  0  0  0  0
  6  9  2  0  0  0  0
  7  6  1  0  0  0  0
  7  8  1  0  0  0  0
  8 15  1  0  0  0  0
  9 16  1  0  0  0  0
  9 10  1  0  0  0  0
 10 17  1  0  0  0  0
 11  4  1  0  0  0  0
 12  5  1  0  0  0  0
 13  8  1  0  0  0  0
 14  8  1  0  0  0  0
 18 20  2  0  0  0  0
 18 21  1  0  0  0  0
 18 19  1  0  0  0  0
 19 25  1  0  0  0  0
 19 24  1  0  0  0  0
 22 18  2  0  0  0  0
 23 19  1  0  0  0  0
M  RAD  3   2   2   3   3  21   2
M  END
