Coordinates from ORCA-job 4-MeOPhN2+~TfO-_B3LYPG-6-31G_dp-NX-Scan-d89-09-n800
 OpenBabel11261920223D

 25 25  0  0  0  0  0  0  0  0999 V2000
   -3.8448   -1.8061   -0.4105 C   0  0  0  0  0  0  0  0  0  0  0  0
   -4.2917   -1.8022    0.9497 N   0  0  0  0  0  0  0  0  0  0  0  0
   -4.4575   -0.6542    1.4534 N   0  0  0  0  0  0  0  0  0  0  0  0
   -3.7190   -3.0998   -0.9490 C   0  0  0  0  0  0  0  0  0  0  0  0
   -3.2939   -3.2853   -2.2519 C   0  0  0  0  0  0  0  0  0  0  0  0
   -2.9779   -2.1784   -3.0583 C   0  0  0  0  0  0  0  0  0  0  0  0
   -2.5681   -2.4657   -4.3224 O   0  0  0  0  0  0  0  0  0  0  0  0
   -2.2282   -1.3891   -5.1848 C   0  0  0  0  0  0  0  0  0  0  0  0
   -3.0980   -0.8883   -2.5305 C   0  0  0  0  0  0  0  0  0  0  0  0
   -3.5296   -0.7035   -1.2134 C   0  0  0  0  0  0  0  0  0  0  0  0
   -3.9640   -3.9460   -0.3166 H   0  0  0  0  0  0  0  0  0  0  0  0
   -3.1950   -4.2800   -2.6735 H   0  0  0  0  0  0  0  0  0  0  0  0
   -1.9297   -1.8440   -6.1297 H   0  0  0  0  0  0  0  0  0  0  0  0
   -1.3908   -0.8025   -4.7861 H   0  0  0  0  0  0  0  0  0  0  0  0
   -3.0843   -0.7247   -5.3581 H   0  0  0  0  0  0  0  0  0  0  0  0
   -2.8589   -0.0162   -3.1268 H   0  0  0  0  0  0  0  0  0  0  0  0
   -3.6043    0.3142   -0.8474 H   0  0  0  0  0  0  0  0  0  0  0  0
   -5.1789    0.2315    3.9539 S   0  0  2  0  0  0  0  0  0  0  0  0
   -6.6792   -0.5336    4.8073 C   0  0  0  0  0  0  0  0  0  0  0  0
   -4.4114    0.2819    1.2978 O   0  0  0  0  0  0  0  0  0  0  0  0
   -4.9863   -1.1073    3.0399 O   0  0  0  0  0  0  0  0  0  0  0  0
   -4.1246    0.3725    4.9910 O   0  0  0  0  0  0  0  0  0  0  0  0
   -7.0908    0.3280    5.7475 F   0  0  0  0  0  0  0  0  0  0  0  0
   -7.6564   -0.6870    3.9055 F   0  0  0  0  0  0  0  0  0  0  0  0
   -6.4035   -1.7026    5.3770 F   0  0  0  0  0  0  0  0  0  0  0  0
  1  2  1  0  0  0  0
  2  3  1  0  0  0  0
  3 21  1  0  0  0  0
  4  1  1  0  0  0  0
  4 11  1  0  0  0  0
  5  4  2  0  0  0  0
  6  9  2  0  0  0  0
  6  5  1  0  0  0  0
  7  6  1  0  0  0  0
  8 14  1  0  0  0  0
  8  7  1  0  0  0  0
  9 10  1  0  0  0  0
 10 17  1  0  0  0  0
 10  1  2  0  0  0  0
 12  5  1  0  0  0  0
 13  8  1  0  0  0  0
 15  8  1  0  0  0  0
 16  9  1  0  0  0  0
 18 21  1  6  0  0  0
 18 19  1  0  0  0  0
 18 22  1  0  0  0  0
 19 25  1  0  0  0  0
 19 23  1  0  0  0  0
 20  3  1  0  0  0  0
 24 19  1  0  0  0  0
M  RAD  3   2   2  20   2  22   2
M  END
