Coordinates from ORCA-job 4-MeOPhN2+~TfO-_B3LYPG-6-31G_dp-NX-Scan-d89-09-n800
 OpenBabel11261920223D

 25 24  0  0  0  0  0  0  0  0999 V2000
   -4.4855   -2.7358   -0.5405 C   0  0  0  0  0  0  0  0  0  0  0  0
   -5.2886   -3.1781    0.4789 N   0  0  0  0  0  0  0  0  0  0  0  0
   -5.9648   -3.5094    1.3088 N   0  0  0  0  0  0  0  0  0  0  0  0
   -3.8270   -3.7094   -1.3251 C   0  0  0  0  0  0  0  0  0  0  0  0
   -3.0195   -3.2854   -2.3545 C   0  0  0  0  0  0  0  0  0  0  0  0
   -2.8661   -1.9019   -2.6125 C   0  0  0  0  0  0  0  0  0  0  0  0
   -2.0556   -1.6015   -3.6355 O   0  0  0  0  0  0  0  0  0  0  0  0
   -1.8200   -0.2286   -3.9691 C   0  0  0  0  0  0  0  0  0  0  0  0
   -3.5401   -0.9502   -1.8232 C   0  0  0  0  0  0  0  0  0  0  0  0
   -4.3507   -1.3533   -0.7751 C   0  0  0  0  0  0  0  0  0  0  0  0
   -3.9554   -4.7645   -1.1097 H   0  0  0  0  0  0  0  0  0  0  0  0
   -2.4876   -3.9915   -2.9813 H   0  0  0  0  0  0  0  0  0  0  0  0
   -1.1331   -0.2485   -4.8144 H   0  0  0  0  0  0  0  0  0  0  0  0
   -1.3592    0.3050   -3.1311 H   0  0  0  0  0  0  0  0  0  0  0  0
   -2.7501    0.2690   -4.2631 H   0  0  0  0  0  0  0  0  0  0  0  0
   -3.4289    0.1099   -2.0105 H   0  0  0  0  0  0  0  0  0  0  0  0
   -4.8634   -0.6257   -0.1471 H   0  0  0  0  0  0  0  0  0  0  0  0
   -5.4933   -0.5959    2.4234 S   0  0  0  0  0  0  0  0  0  0  0  0
   -5.3576    0.3191    4.0329 C   0  0  0  0  0  0  0  0  0  0  0  0
   -6.6068   -1.5654    2.6398 O   0  0  0  0  0  0  0  0  0  0  0  0
   -4.1729   -1.2525    2.2461 O   0  0  0  0  0  0  0  0  0  0  0  0
   -5.7805    0.4569    1.4176 O   0  0  0  0  0  0  0  0  0  0  0  0
   -6.4978    0.9681    4.3030 F   0  0  0  0  0  0  0  0  0  0  0  0
   -5.1017   -0.5327    5.0354 F   0  0  0  0  0  0  0  0  0  0  0  0
   -4.3605    1.2139    3.9712 F   0  0  0  0  0  0  0  0  0  0  0  0
  1  2  1  0  0  0  0
  2  3  1  0  0  0  0
  4 11  1  0  0  0  0
  4  1  2  0  0  0  0
  5  4  1  0  0  0  0
  6  5  2  0  0  0  0
  6  9  1  0  0  0  0
  7  6  1  0  0  0  0
  8  7  1  0  0  0  0
  8 14  1  0  0  0  0
  9 10  2  0  0  0  0
 10  1  1  0  0  0  0
 10 17  1  0  0  0  0
 12  5  1  0  0  0  0
 13  8  1  0  0  0  0
 15  8  1  0  0  0  0
 16  9  1  0  0  0  0
 18 20  1  0  0  0  0
 18 19  1  0  0  0  0
 19 23  1  0  0  0  0
 19 24  1  0  0  0  0
 21 18  2  0  0  0  0
 22 18  2  0  0  0  0
 25 19  1  0  0  0  0
M  RAD  3   2   2   3   3  20   2
M  END
