Coordinates from ORCA-job 4-MeOPhN2+~TfO-_B3LYPG-6-31G_dp-NX-Scan-d89-09-n800
 OpenBabel11261920223D

 25 24  0  0  0  0  0  0  0  0999 V2000
   -4.7153   -3.5507   -0.5241 C   0  0  0  0  0  0  0  0  0  0  0  0
   -5.5049   -4.3588    0.2146 N   0  0  0  0  0  0  0  0  0  0  0  0
   -6.1631   -5.0237    0.8336 N   0  0  0  0  0  0  0  0  0  0  0  0
   -3.4442   -4.0240   -0.9521 C   0  0  0  0  0  0  0  0  0  0  0  0
   -2.6149   -3.1413   -1.5912 C   0  0  0  0  0  0  0  0  0  0  0  0
   -3.0173   -1.7868   -1.7818 C   0  0  0  0  0  0  0  0  0  0  0  0
   -2.0981   -0.9990   -2.3332 O   0  0  0  0  0  0  0  0  0  0  0  0
   -2.3468    0.4186   -2.4117 C   0  0  0  0  0  0  0  0  0  0  0  0
   -4.2970   -1.3543   -1.3911 C   0  0  0  0  0  0  0  0  0  0  0  0
   -5.1505   -2.2244   -0.7461 C   0  0  0  0  0  0  0  0  0  0  0  0
   -3.1432   -5.0469   -0.7571 H   0  0  0  0  0  0  0  0  0  0  0  0
   -1.6280   -3.4373   -1.9262 H   0  0  0  0  0  0  0  0  0  0  0  0
   -1.4234    0.8498   -2.7956 H   0  0  0  0  0  0  0  0  0  0  0  0
   -2.5716    0.8172   -1.4196 H   0  0  0  0  0  0  0  0  0  0  0  0
   -3.1695    0.6285   -3.1019 H   0  0  0  0  0  0  0  0  0  0  0  0
   -4.6219   -0.3271   -1.4838 H   0  0  0  0  0  0  0  0  0  0  0  0
   -6.1051   -1.8683   -0.3855 H   0  0  0  0  0  0  0  0  0  0  0  0
   -5.7139   -0.1612    1.7911 S   0  0  0  0  0  0  0  0  0  0  0  0
   -4.0410    0.6404    1.9580 C   0  0  0  0  0  0  0  0  0  0  0  0
   -6.4748    0.3727    2.9257 O   0  0  0  0  0  0  0  0  0  0  0  0
   -5.3852   -1.6176    1.8522 O   0  0  0  0  0  0  0  0  0  0  0  0
   -6.1466    0.2760    0.4352 O   0  0  0  0  0  0  0  0  0  0  0  0
   -4.1329    1.9758    1.8996 F   0  0  0  0  0  0  0  0  0  0  0  0
   -3.4454    0.3043    3.1088 F   0  0  0  0  0  0  0  0  0  0  0  0
   -3.2122    0.2497    0.9466 F   0  0  0  0  0  0  0  0  0  0  0  0
  1  2  1  0  0  0  0
  2  3  1  0  0  0  0
  4 11  1  0  0  0  0
  4  1  2  0  0  0  0
  5  4  1  0  0  0  0
  6  5  2  0  0  0  0
  6  9  1  0  0  0  0
  7  6  1  0  0  0  0
  8  7  1  0  0  0  0
  8 14  1  0  0  0  0
  9 10  2  0  0  0  0
 10  1  1  0  0  0  0
 10 17  1  0  0  0  0
 12  5  1  0  0  0  0
 13  8  1  0  0  0  0
 15  8  1  0  0  0  0
 16  9  1  0  0  0  0
 18 21  2  0  0  0  0
 18 19  1  0  0  0  0
 18 20  1  0  0  0  0
 19 24  1  0  0  0  0
 22 18  2  0  0  0  0
 23 19  1  0  0  0  0
 25 19  1  0  0  0  0
M  RAD  3   2   2   3   3  20   2
M  END
