Coordinates from ORCA-job 4-MeOPhN2+~TfO-_B3LYPG-6-31G_dp-NX-Scan-d89-09-n800
 OpenBabel11261920223D

 25 24  0  0  0  0  0  0  0  0999 V2000
   -4.4552   -4.0718   -0.5748 C   0  0  0  0  0  0  0  0  0  0  0  0
   -5.0763   -5.1091    0.0217 N   0  0  0  0  0  0  0  0  0  0  0  0
   -5.5931   -5.9780    0.5153 N   0  0  0  0  0  0  0  0  0  0  0  0
   -3.4152   -4.3531   -1.5096 C   0  0  0  0  0  0  0  0  0  0  0  0
   -2.7751   -3.2968   -2.0980 C   0  0  0  0  0  0  0  0  0  0  0  0
   -3.1498   -1.9594   -1.7718 C   0  0  0  0  0  0  0  0  0  0  0  0
   -2.4463   -1.0100   -2.3616 O   0  0  0  0  0  0  0  0  0  0  0  0
   -2.7045    0.3802   -2.0199 C   0  0  0  0  0  0  0  0  0  0  0  0
   -4.2030   -1.7013   -0.8637 C   0  0  0  0  0  0  0  0  0  0  0  0
   -4.8517   -2.7461   -0.2495 C   0  0  0  0  0  0  0  0  0  0  0  0
   -3.1435   -5.3784   -1.7342 H   0  0  0  0  0  0  0  0  0  0  0  0
   -1.9696   -3.4518   -2.8070 H   0  0  0  0  0  0  0  0  0  0  0  0
   -1.9676    0.9450   -2.5871 H   0  0  0  0  0  0  0  0  0  0  0  0
   -2.5809    0.5331   -0.9463 H   0  0  0  0  0  0  0  0  0  0  0  0
   -3.7194    0.6638   -2.3020 H   0  0  0  0  0  0  0  0  0  0  0  0
   -4.5220   -0.6826   -0.6277 H   0  0  0  0  0  0  0  0  0  0  0  0
   -5.6277   -2.5142    0.4774 H   0  0  0  0  0  0  0  0  0  0  0  0
   -5.6462    0.8189    1.2307 S   0  0  0  0  0  0  0  0  0  0  0  0
   -4.0669    1.0288    2.1905 C   0  0  0  0  0  0  0  0  0  0  0  0
   -6.5589    1.8176    1.7954 O   0  0  0  0  0  0  0  0  0  0  0  0
   -5.9848   -0.6102    1.4736 O   0  0  0  0  0  0  0  0  0  0  0  0
   -5.1769    1.0745   -0.1658 O   0  0  0  0  0  0  0  0  0  0  0  0
   -3.6180    2.2898    2.1268 F   0  0  0  0  0  0  0  0  0  0  0  0
   -4.2176    0.6969    3.4796 F   0  0  0  0  0  0  0  0  0  0  0  0
   -3.0968    0.2258    1.6725 F   0  0  0  0  0  0  0  0  0  0  0  0
  1 10  1  0  0  0  0
  1  2  1  0  0  0  0
  2  3  1  0  0  0  0
  4  1  2  0  0  0  0
  5  6  2  0  0  0  0
  5  4  1  0  0  0  0
  6  9  1  0  0  0  0
  7  8  1  0  0  0  0
  7  6  1  0  0  0  0
  8 14  1  0  0  0  0
  9 16  1  0  0  0  0
  9 10  2  0  0  0  0
 10 17  1  0  0  0  0
 11  4  1  0  0  0  0
 12  5  1  0  0  0  0
 13  8  1  0  0  0  0
 15  8  1  0  0  0  0
 18 21  2  0  0  0  0
 18 20  1  0  0  0  0
 18 19  1  0  0  0  0
 19 24  1  0  0  0  0
 22 18  2  0  0  0  0
 23 19  1  0  0  0  0
 25 19  1  0  0  0  0
M  RAD  3   2   2   3   3  20   2
M  END
