Coordinates from ORCA-job 4-MeOPhN2+~TfO-_B3LYPG-6-31G_dp-NX-Scan-d89-09-n800
 OpenBabel11261920223D

 25 24  0  0  0  0  0  0  0  0999 V2000
   -4.7103   -3.5916   -0.5330 C   0  0  0  0  0  0  0  0  0  0  0  0
   -5.4982   -4.4286    0.1735 N   0  0  0  0  0  0  0  0  0  0  0  0
   -6.1539   -5.1220    0.7645 N   0  0  0  0  0  0  0  0  0  0  0  0
   -3.4383   -4.0496   -0.9782 C   0  0  0  0  0  0  0  0  0  0  0  0
   -2.6163   -3.1500   -1.6017 C   0  0  0  0  0  0  0  0  0  0  0  0
   -3.0270   -1.7938   -1.7640 C   0  0  0  0  0  0  0  0  0  0  0  0
   -2.1167   -0.9924   -2.3091 O   0  0  0  0  0  0  0  0  0  0  0  0
   -2.3767    0.4247   -2.3705 C   0  0  0  0  0  0  0  0  0  0  0  0
   -4.3053   -1.3747   -1.3554 C   0  0  0  0  0  0  0  0  0  0  0  0
   -5.1513   -2.2609   -0.7221 C   0  0  0  0  0  0  0  0  0  0  0  0
   -3.1332   -5.0759   -0.8088 H   0  0  0  0  0  0  0  0  0  0  0  0
   -1.6302   -3.4347   -1.9487 H   0  0  0  0  0  0  0  0  0  0  0  0
   -1.4606    0.8659   -2.7603 H   0  0  0  0  0  0  0  0  0  0  0  0
   -2.5937    0.8111   -1.3721 H   0  0  0  0  0  0  0  0  0  0  0  0
   -3.2086    0.6345   -3.0494 H   0  0  0  0  0  0  0  0  0  0  0  0
   -4.6369   -0.3473   -1.4221 H   0  0  0  0  0  0  0  0  0  0  0  0
   -6.1056   -1.9183   -0.3491 H   0  0  0  0  0  0  0  0  0  0  0  0
   -5.7024   -0.0968    1.7607 S   0  0  0  0  0  0  0  0  0  0  0  0
   -4.0169    0.6725    1.9501 C   0  0  0  0  0  0  0  0  0  0  0  0
   -6.4753    0.4728    2.8698 O   0  0  0  0  0  0  0  0  0  0  0  0
   -5.4052   -1.5583    1.8530 O   0  0  0  0  0  0  0  0  0  0  0  0
   -6.0980    0.3266    0.3893 O   0  0  0  0  0  0  0  0  0  0  0  0
   -4.0775    2.0081    1.8615 F   0  0  0  0  0  0  0  0  0  0  0  0
   -3.4546    0.3479    3.1205 F   0  0  0  0  0  0  0  0  0  0  0  0
   -3.1743    0.2427    0.9658 F   0  0  0  0  0  0  0  0  0  0  0  0
  1  2  1  0  0  0  0
  2  3  1  0  0  0  0
  4 11  1  0  0  0  0
  4  1  2  0  0  0  0
  5  4  1  0  0  0  0
  6  5  2  0  0  0  0
  6  9  1  0  0  0  0
  7  6  1  0  0  0  0
  8  7  1  0  0  0  0
  8 14  1  0  0  0  0
  9 10  2  0  0  0  0
 10  1  1  0  0  0  0
 10 17  1  0  0  0  0
 12  5  1  0  0  0  0
 13  8  1  0  0  0  0
 15  8  1  0  0  0  0
 16  9  1  0  0  0  0
 18 21  2  0  0  0  0
 18 19  1  0  0  0  0
 18 20  1  0  0  0  0
 19 24  1  0  0  0  0
 22 18  2  0  0  0  0
 23 19  1  0  0  0  0
 25 19  1  0  0  0  0
M  RAD  3   2   2   3   3  20   2
M  END
