Coordinates from ORCA-job 4-MeOPhN2+~TfO-_B3LYPG-6-31G_dp-NX-Scan-d89-09-n800
 OpenBabel11261920223D

 25 24  0  0  0  0  0  0  0  0999 V2000
   -4.6299   -3.7335   -0.5719 C   0  0  0  0  0  0  0  0  0  0  0  0
   -5.3845   -4.6197    0.1127 N   0  0  0  0  0  0  0  0  0  0  0  0
   -6.0200   -5.3419    0.6920 N   0  0  0  0  0  0  0  0  0  0  0  0
   -3.4402   -4.1800   -1.2153 C   0  0  0  0  0  0  0  0  0  0  0  0
   -2.6600   -3.2412   -1.8349 C   0  0  0  0  0  0  0  0  0  0  0  0
   -3.0320   -1.8638   -1.8071 C   0  0  0  0  0  0  0  0  0  0  0  0
   -2.1652   -1.0323   -2.3742 O   0  0  0  0  0  0  0  0  0  0  0  0
   -2.3951    0.3901   -2.2756 C   0  0  0  0  0  0  0  0  0  0  0  0
   -4.2338   -1.4533   -1.2016 C   0  0  0  0  0  0  0  0  0  0  0  0
   -5.0367   -2.3782   -0.5698 C   0  0  0  0  0  0  0  0  0  0  0  0
   -3.1631   -5.2282   -1.1972 H   0  0  0  0  0  0  0  0  0  0  0  0
   -1.7348   -3.5161   -2.3278 H   0  0  0  0  0  0  0  0  0  0  0  0
   -1.5210    0.8516   -2.7322 H   0  0  0  0  0  0  0  0  0  0  0  0
   -2.4846    0.6867   -1.2280 H   0  0  0  0  0  0  0  0  0  0  0  0
   -3.2976    0.6714   -2.8253 H   0  0  0  0  0  0  0  0  0  0  0  0
   -4.5509   -0.4190   -1.1276 H   0  0  0  0  0  0  0  0  0  0  0  0
   -5.9144   -2.0492   -0.0270 H   0  0  0  0  0  0  0  0  0  0  0  0
   -5.7716    0.1496    1.7045 S   0  0  0  0  0  0  0  0  0  0  0  0
   -4.0747    0.8462    2.0249 C   0  0  0  0  0  0  0  0  0  0  0  0
   -6.6398    0.8659    2.6445 O   0  0  0  0  0  0  0  0  0  0  0  0
   -5.5815   -1.3065    1.9694 O   0  0  0  0  0  0  0  0  0  0  0  0
   -5.9682    0.4563    0.2593 O   0  0  0  0  0  0  0  0  0  0  0  0
   -4.0463    2.1720    1.8296 F   0  0  0  0  0  0  0  0  0  0  0  0
   -3.6585    0.5900    3.2707 F   0  0  0  0  0  0  0  0  0  0  0  0
   -3.1624    0.2949    1.1724 F   0  0  0  0  0  0  0  0  0  0  0  0
  1 10  1  0  0  0  0
  1  2  1  0  0  0  0
  2  3  1  0  0  0  0
  4 11  1  0  0  0  0
  4  1  2  0  0  0  0
  5  6  2  0  0  0  0
  5  4  1  0  0  0  0
  6  9  1  0  0  0  0
  7  8  1  0  0  0  0
  7  6  1  0  0  0  0
  8 14  1  0  0  0  0
  9 16  1  0  0  0  0
  9 10  2  0  0  0  0
 10 17  1  0  0  0  0
 12  5  1  0  0  0  0
 13  8  1  0  0  0  0
 15  8  1  0  0  0  0
 18 21  2  0  0  0  0
 18 19  1  0  0  0  0
 18 20  1  0  0  0  0
 19 24  1  0  0  0  0
 22 18  2  0  0  0  0
 23 19  1  0  0  0  0
 25 19  1  0  0  0  0
M  RAD  3   2   2   3   3  20   2
M  END
