Coordinates from ORCA-job 4-MeOPhN2+~TfO-_B3LYPG-6-31G_dp-NX-Scan-d89-09-n800
 OpenBabel11261920223D

 25 24  0  0  0  0  0  0  0  0999 V2000
   -4.4852   -4.0074   -0.5945 C   0  0  0  0  0  0  0  0  0  0  0  0
   -5.1523   -4.9855    0.0510 N   0  0  0  0  0  0  0  0  0  0  0  0
   -5.7362   -5.7640    0.6135 N   0  0  0  0  0  0  0  0  0  0  0  0
   -3.4330   -4.3409   -1.4955 C   0  0  0  0  0  0  0  0  0  0  0  0
   -2.7590   -3.3123   -2.0984 C   0  0  0  0  0  0  0  0  0  0  0  0
   -3.1102   -1.9583   -1.8143 C   0  0  0  0  0  0  0  0  0  0  0  0
   -2.3671   -1.0347   -2.4036 O   0  0  0  0  0  0  0  0  0  0  0  0
   -2.6134    0.3617   -2.0924 C   0  0  0  0  0  0  0  0  0  0  0  0
   -4.1772   -1.6535   -0.9433 C   0  0  0  0  0  0  0  0  0  0  0  0
   -4.8622   -2.6684   -0.3185 C   0  0  0  0  0  0  0  0  0  0  0  0
   -3.1755   -5.3770   -1.6839 H   0  0  0  0  0  0  0  0  0  0  0  0
   -1.9404   -3.5031   -2.7832 H   0  0  0  0  0  0  0  0  0  0  0  0
   -1.8427    0.9081   -2.6322 H   0  0  0  0  0  0  0  0  0  0  0  0
   -2.5343    0.5314   -1.0162 H   0  0  0  0  0  0  0  0  0  0  0  0
   -3.6079    0.6598   -2.4310 H   0  0  0  0  0  0  0  0  0  0  0  0
   -4.4844   -0.6280   -0.7180 H   0  0  0  0  0  0  0  0  0  0  0  0
   -5.6362   -2.4003    0.3998 H   0  0  0  0  0  0  0  0  0  0  0  0
   -5.6906    0.6498    1.3479 S   0  0  0  0  0  0  0  0  0  0  0  0
   -4.0914    1.0462    2.2091 C   0  0  0  0  0  0  0  0  0  0  0  0
   -6.6855    1.5294    1.9660 O   0  0  0  0  0  0  0  0  0  0  0  0
   -5.8491   -0.8062    1.6219 O   0  0  0  0  0  0  0  0  0  0  0  0
   -5.3409    0.9488   -0.0739 O   0  0  0  0  0  0  0  0  0  0  0  0
   -3.7961    2.3497    2.1140 F   0  0  0  0  0  0  0  0  0  0  0  0
   -4.1256    0.7123    3.5057 F   0  0  0  0  0  0  0  0  0  0  0  0
   -3.0707    0.3541    1.6342 F   0  0  0  0  0  0  0  0  0  0  0  0
  1 10  1  0  0  0  0
  1  2  1  0  0  0  0
  2  3  1  0  0  0  0
  4  1  2  0  0  0  0
  5  6  2  0  0  0  0
  5  4  1  0  0  0  0
  6  9  1  0  0  0  0
  7  8  1  0  0  0  0
  7  6  1  0  0  0  0
  8 14  1  0  0  0  0
  9 16  1  0  0  0  0
  9 10  2  0  0  0  0
 10 17  1  0  0  0  0
 11  4  1  0  0  0  0
 12  5  1  0  0  0  0
 13  8  1  0  0  0  0
 15  8  1  0  0  0  0
 18 21  2  0  0  0  0
 18 20  1  0  0  0  0
 18 19  1  0  0  0  0
 19 24  1  0  0  0  0
 22 18  2  0  0  0  0
 23 19  1  0  0  0  0
 25 19  1  0  0  0  0
M  RAD  3   2   2   3   3  20   2
M  END
