Coordinates from ORCA-job 4-MeOPhN2+~TfO-_B3LYPG-6-31G_dp-NX-Scan-d89-09-n800
 OpenBabel11261920223D

 25 24  0  0  0  0  0  0  0  0999 V2000
   -4.5101   -3.9426   -0.5826 C   0  0  0  0  0  0  0  0  0  0  0  0
   -5.1899   -4.8984    0.0839 N   0  0  0  0  0  0  0  0  0  0  0  0
   -5.7826   -5.6586    0.6616 N   0  0  0  0  0  0  0  0  0  0  0  0
   -3.4084   -4.3025   -1.4113 C   0  0  0  0  0  0  0  0  0  0  0  0
   -2.7155   -3.2925   -2.0238 C   0  0  0  0  0  0  0  0  0  0  0  0
   -3.0935   -1.9318   -1.8163 C   0  0  0  0  0  0  0  0  0  0  0  0
   -2.3195   -1.0265   -2.3972 O   0  0  0  0  0  0  0  0  0  0  0  0
   -2.5826    0.3772   -2.1482 C   0  0  0  0  0  0  0  0  0  0  0  0
   -4.2121   -1.6031   -1.0241 C   0  0  0  0  0  0  0  0  0  0  0  0
   -4.9192   -2.5992   -0.3913 C   0  0  0  0  0  0  0  0  0  0  0  0
   -3.1280   -5.3423   -1.5366 H   0  0  0  0  0  0  0  0  0  0  0  0
   -1.8580   -3.5016   -2.6531 H   0  0  0  0  0  0  0  0  0  0  0  0
   -1.7717    0.9071   -2.6445 H   0  0  0  0  0  0  0  0  0  0  0  0
   -2.5836    0.5803   -1.0750 H   0  0  0  0  0  0  0  0  0  0  0  0
   -3.5458    0.6660   -2.5752 H   0  0  0  0  0  0  0  0  0  0  0  0
   -4.5394   -0.5765   -0.8422 H   0  0  0  0  0  0  0  0  0  0  0  0
   -5.7224   -2.3147    0.2881 H   0  0  0  0  0  0  0  0  0  0  0  0
   -5.7266    0.5656    1.4263 S   0  0  0  0  0  0  0  0  0  0  0  0
   -4.0666    0.9523    2.1700 C   0  0  0  0  0  0  0  0  0  0  0  0
   -6.6700    1.4339    2.1348 O   0  0  0  0  0  0  0  0  0  0  0  0
   -5.8635   -0.8952    1.6925 O   0  0  0  0  0  0  0  0  0  0  0  0
   -5.4886    0.8869   -0.0121 O   0  0  0  0  0  0  0  0  0  0  0  0
   -3.7814    2.2580    2.0746 F   0  0  0  0  0  0  0  0  0  0  0  0
   -3.9987    0.5959    3.4590 F   0  0  0  0  0  0  0  0  0  0  0  0
   -3.0892    0.2738    1.5069 F   0  0  0  0  0  0  0  0  0  0  0  0
  1 10  1  0  0  0  0
  1  2  1  0  0  0  0
  2  3  1  0  0  0  0
  4  1  2  0  0  0  0
  5  6  2  0  0  0  0
  5  4  1  0  0  0  0
  6  9  1  0  0  0  0
  7  8  1  0  0  0  0
  7  6  1  0  0  0  0
  8 14  1  0  0  0  0
  9 16  1  0  0  0  0
  9 10  2  0  0  0  0
 10 17  1  0  0  0  0
 11  4  1  0  0  0  0
 12  5  1  0  0  0  0
 13  8  1  0  0  0  0
 15  8  1  0  0  0  0
 18 21  2  0  0  0  0
 18 20  1  0  0  0  0
 18 19  1  0  0  0  0
 19 24  1  0  0  0  0
 22 18  2  0  0  0  0
 23 19  1  0  0  0  0
 25 19  1  0  0  0  0
M  RAD  3   2   2   3   3  20   2
M  END
