Coordinates from ORCA-job 4-MeOPhN2+~TfO-_B3LYPG-6-31G_dp-NX-Scan-d89-09-n800
 OpenBabel11261920223D

 25 24  0  0  0  0  0  0  0  0999 V2000
   -4.1375   -2.9561   -0.4755 C   0  0  0  0  0  0  0  0  0  0  0  0
   -4.7714   -3.4671    0.6321 N   0  0  0  0  0  0  0  0  0  0  0  0
   -5.2687   -3.6427    1.6245 N   0  0  0  0  0  0  0  0  0  0  0  0
   -3.6295   -3.8501   -1.4424 C   0  0  0  0  0  0  0  0  0  0  0  0
   -2.9918   -3.3254   -2.5429 C   0  0  0  0  0  0  0  0  0  0  0  0
   -2.8681   -1.9222   -2.6916 C   0  0  0  0  0  0  0  0  0  0  0  0
   -2.2343   -1.5229   -3.8019 O   0  0  0  0  0  0  0  0  0  0  0  0
   -2.0576   -0.1224   -4.0473 C   0  0  0  0  0  0  0  0  0  0  0  0
   -3.3957   -1.0517   -1.7183 C   0  0  0  0  0  0  0  0  0  0  0  0
   -4.0339   -1.5574   -0.5975 C   0  0  0  0  0  0  0  0  0  0  0  0
   -3.7366   -4.9214   -1.3109 H   0  0  0  0  0  0  0  0  0  0  0  0
   -2.5768   -3.9650   -3.3131 H   0  0  0  0  0  0  0  0  0  0  0  0
   -1.5200   -0.0587   -4.9926 H   0  0  0  0  0  0  0  0  0  0  0  0
   -1.4650    0.3431   -3.2530 H   0  0  0  0  0  0  0  0  0  0  0  0
   -3.0235    0.3847   -4.1371 H   0  0  0  0  0  0  0  0  0  0  0  0
   -3.3170    0.0231   -1.8235 H   0  0  0  0  0  0  0  0  0  0  0  0
   -4.4662   -0.8938    0.1562 H   0  0  0  0  0  0  0  0  0  0  0  0
   -5.7678   -0.5095    2.4592 S   0  0  0  0  0  0  0  0  0  0  0  0
   -5.5405    0.5032    3.9993 C   0  0  0  0  0  0  0  0  0  0  0  0
   -7.1734   -0.9407    2.4736 O   0  0  0  0  0  0  0  0  0  0  0  0
   -4.7719   -1.6230    2.6472 O   0  0  0  0  0  0  0  0  0  0  0  0
   -5.3681    0.4100    1.3616 O   0  0  0  0  0  0  0  0  0  0  0  0
   -6.3545    1.5676    3.9767 F   0  0  0  0  0  0  0  0  0  0  0  0
   -5.8220   -0.2277    5.0864 F   0  0  0  0  0  0  0  0  0  0  0  0
   -4.2751    0.9378    4.0951 F   0  0  0  0  0  0  0  0  0  0  0  0
  1  2  1  0  0  0  0
  2  3  1  0  0  0  0
  4 11  1  0  0  0  0
  4  1  2  0  0  0  0
  5  4  1  0  0  0  0
  6  5  2  0  0  0  0
  6  9  1  0  0  0  0
  7  6  1  0  0  0  0
  8  7  1  0  0  0  0
  8 14  1  0  0  0  0
  9 10  2  0  0  0  0
 10  1  1  0  0  0  0
 10 17  1  0  0  0  0
 12  5  1  0  0  0  0
 13  8  1  0  0  0  0
 15  8  1  0  0  0  0
 16  9  1  0  0  0  0
 18 20  2  0  0  0  0
 18 21  1  0  0  0  0
 18 19  1  0  0  0  0
 19 25  1  0  0  0  0
 19 24  1  0  0  0  0
 22 18  2  0  0  0  0
 23 19  1  0  0  0  0
M  RAD  3   2   2   3   3  21   2
M  END
