Coordinates from ORCA-job 4-MeOPhN2+~TfO-_B3LYPG-6-31G_dp-NX-Scan-d89-09-n800
 OpenBabel11261920223D

 25 24  0  0  0  0  0  0  0  0999 V2000
   -4.1522   -2.9888   -0.4854 C   0  0  0  0  0  0  0  0  0  0  0  0
   -4.7979   -3.5214    0.6032 N   0  0  0  0  0  0  0  0  0  0  0  0
   -5.3211   -3.7465    1.5702 N   0  0  0  0  0  0  0  0  0  0  0  0
   -3.5898   -3.8660   -1.4385 C   0  0  0  0  0  0  0  0  0  0  0  0
   -2.9395   -3.3197   -2.5205 C   0  0  0  0  0  0  0  0  0  0  0  0
   -2.8550   -1.9125   -2.6637 C   0  0  0  0  0  0  0  0  0  0  0  0
   -2.2034   -1.4920   -3.7549 O   0  0  0  0  0  0  0  0  0  0  0  0
   -2.0599   -0.0860   -3.9923 C   0  0  0  0  0  0  0  0  0  0  0  0
   -3.4356   -1.0608   -1.7040 C   0  0  0  0  0  0  0  0  0  0  0  0
   -4.0893   -1.5871   -0.6018 C   0  0  0  0  0  0  0  0  0  0  0  0
   -3.6663   -4.9404   -1.3105 H   0  0  0  0  0  0  0  0  0  0  0  0
   -2.4840   -3.9445   -3.2799 H   0  0  0  0  0  0  0  0  0  0  0  0
   -1.5000   -0.0044   -4.9232 H   0  0  0  0  0  0  0  0  0  0  0  0
   -1.5015    0.3932   -3.1816 H   0  0  0  0  0  0  0  0  0  0  0  0
   -3.0371    0.3939   -4.1060 H   0  0  0  0  0  0  0  0  0  0  0  0
   -3.3866    0.0161   -1.8052 H   0  0  0  0  0  0  0  0  0  0  0  0
   -4.5600   -0.9348    0.1407 H   0  0  0  0  0  0  0  0  0  0  0  0
   -5.8550   -0.5178    2.4578 S   0  0  0  0  0  0  0  0  0  0  0  0
   -5.4411    0.5308    3.9339 C   0  0  0  0  0  0  0  0  0  0  0  0
   -7.2784   -0.8521    2.6030 O   0  0  0  0  0  0  0  0  0  0  0  0
   -4.9116   -1.6793    2.6081 O   0  0  0  0  0  0  0  0  0  0  0  0
   -5.4924    0.3418    1.2986 O   0  0  0  0  0  0  0  0  0  0  0  0
   -6.1877    1.6440    3.9362 F   0  0  0  0  0  0  0  0  0  0  0  0
   -5.6742   -0.1423    5.0689 F   0  0  0  0  0  0  0  0  0  0  0  0
   -4.1473    0.8884    3.9112 F   0  0  0  0  0  0  0  0  0  0  0  0
  1  2  1  0  0  0  0
  2  3  1  0  0  0  0
  4 11  1  0  0  0  0
  4  1  2  0  0  0  0
  5  4  1  0  0  0  0
  6  5  2  0  0  0  0
  6  9  1  0  0  0  0
  7  6  1  0  0  0  0
  8  7  1  0  0  0  0
  8 14  1  0  0  0  0
  9 10  2  0  0  0  0
 10  1  1  0  0  0  0
 10 17  1  0  0  0  0
 12  5  1  0  0  0  0
 13  8  1  0  0  0  0
 15  8  1  0  0  0  0
 16  9  1  0  0  0  0
 18 20  2  0  0  0  0
 18 21  1  0  0  0  0
 18 19  1  0  0  0  0
 19 23  1  0  0  0  0
 19 24  1  0  0  0  0
 22 18  2  0  0  0  0
 25 19  1  0  0  0  0
M  RAD  3   2   2   3   3  21   2
M  END
