Coordinates from ORCA-job 4-MeOPhN2+~TfO-_B3LYPG-6-31G_dp-NX-Scan-d89-09-n800
 OpenBabel11261920223D

 25 24  0  0  0  0  0  0  0  0999 V2000
   -4.1570   -2.9988   -0.4863 C   0  0  0  0  0  0  0  0  0  0  0  0
   -4.8074   -3.5389    0.5951 N   0  0  0  0  0  0  0  0  0  0  0  0
   -5.3389   -3.7853    1.5515 N   0  0  0  0  0  0  0  0  0  0  0  0
   -3.5768   -3.8702   -1.4345 C   0  0  0  0  0  0  0  0  0  0  0  0
   -2.9225   -3.3168   -2.5102 C   0  0  0  0  0  0  0  0  0  0  0  0
   -2.8510   -1.9086   -2.6520 C   0  0  0  0  0  0  0  0  0  0  0  0
   -2.1941   -1.4811   -3.7371 O   0  0  0  0  0  0  0  0  0  0  0  0
   -2.0627   -0.0735   -3.9729 C   0  0  0  0  0  0  0  0  0  0  0  0
   -3.4485   -1.0633   -1.6970 C   0  0  0  0  0  0  0  0  0  0  0  0
   -4.1070   -1.5964   -0.6010 C   0  0  0  0  0  0  0  0  0  0  0  0
   -3.6434   -4.9454   -1.3075 H   0  0  0  0  0  0  0  0  0  0  0  0
   -2.4538   -3.9365   -3.2657 H   0  0  0  0  0  0  0  0  0  0  0  0
   -1.4962    0.0139   -4.8992 H   0  0  0  0  0  0  0  0  0  0  0  0
   -1.5155    0.4107   -3.1575 H   0  0  0  0  0  0  0  0  0  0  0  0
   -3.0437    0.3966   -4.0942 H   0  0  0  0  0  0  0  0  0  0  0  0
   -3.4090    0.0142   -1.7969 H   0  0  0  0  0  0  0  0  0  0  0  0
   -4.5894   -0.9478    0.1380 H   0  0  0  0  0  0  0  0  0  0  0  0
   -5.8830   -0.5185    2.4547 S   0  0  0  0  0  0  0  0  0  0  0  0
   -5.4070    0.5369    3.9070 C   0  0  0  0  0  0  0  0  0  0  0  0
   -7.3084   -0.8198    2.6433 O   0  0  0  0  0  0  0  0  0  0  0  0
   -4.9586   -1.6959    2.5910 O   0  0  0  0  0  0  0  0  0  0  0  0
   -5.5354    0.3228    1.2770 O   0  0  0  0  0  0  0  0  0  0  0  0
   -6.1271    1.6673    3.9166 F   0  0  0  0  0  0  0  0  0  0  0  0
   -5.6246   -0.1180    5.0559 F   0  0  0  0  0  0  0  0  0  0  0  0
   -4.1060    0.8643    3.8462 F   0  0  0  0  0  0  0  0  0  0  0  0
  1  2  1  0  0  0  0
  2  3  1  0  0  0  0
  4 11  1  0  0  0  0
  4  1  2  0  0  0  0
  5  4  1  0  0  0  0
  6  5  2  0  0  0  0
  6  9  1  0  0  0  0
  7  6  1  0  0  0  0
  8  7  1  0  0  0  0
  8 14  1  0  0  0  0
  9 10  2  0  0  0  0
 10  1  1  0  0  0  0
 10 17  1  0  0  0  0
 12  5  1  0  0  0  0
 13  8  1  0  0  0  0
 15  8  1  0  0  0  0
 16  9  1  0  0  0  0
 18 21  2  0  0  0  0
 18 20  1  0  0  0  0
 18 19  1  0  0  0  0
 19 23  1  0  0  0  0
 19 24  1  0  0  0  0
 22 18  2  0  0  0  0
 25 19  1  0  0  0  0
M  RAD  3   2   2   3   3  20   2
M  END
