Coordinates from ORCA-job 4-MeOPhN2+~TfO-_B3LYPG-6-31G_dp-NX-Scan-d89-09-n800
 OpenBabel11261920223D

 25 24  0  0  0  0  0  0  0  0999 V2000
   -4.1427   -2.9677   -0.4800 C   0  0  0  0  0  0  0  0  0  0  0  0
   -4.7803   -3.4861    0.6214 N   0  0  0  0  0  0  0  0  0  0  0  0
   -5.2867   -3.6783    1.6056 N   0  0  0  0  0  0  0  0  0  0  0  0
   -3.6156   -3.8561   -1.4421 C   0  0  0  0  0  0  0  0  0  0  0  0
   -2.9734   -3.3240   -2.5363 C   0  0  0  0  0  0  0  0  0  0  0  0
   -2.8634   -1.9192   -2.6832 C   0  0  0  0  0  0  0  0  0  0  0  0
   -2.2231   -1.5127   -3.7868 O   0  0  0  0  0  0  0  0  0  0  0  0
   -2.0575   -0.1102   -4.0291 C   0  0  0  0  0  0  0  0  0  0  0  0
   -3.4099   -1.0551   -1.7146 C   0  0  0  0  0  0  0  0  0  0  0  0
   -4.0537   -1.5678   -0.6002 C   0  0  0  0  0  0  0  0  0  0  0  0
   -3.7119   -4.9285   -1.3117 H   0  0  0  0  0  0  0  0  0  0  0  0
   -2.5442   -3.9586   -3.3028 H   0  0  0  0  0  0  0  0  0  0  0  0
   -1.5116   -0.0404   -4.9692 H   0  0  0  0  0  0  0  0  0  0  0  0
   -1.4769    0.3599   -3.2287 H   0  0  0  0  0  0  0  0  0  0  0  0
   -3.0273    0.3877   -4.1275 H   0  0  0  0  0  0  0  0  0  0  0  0
   -3.3418    0.0205   -1.8186 H   0  0  0  0  0  0  0  0  0  0  0  0
   -4.4998   -0.9077    0.1493 H   0  0  0  0  0  0  0  0  0  0  0  0
   -5.7976   -0.5127    2.4598 S   0  0  0  0  0  0  0  0  0  0  0  0
   -5.5069    0.5141    3.9797 C   0  0  0  0  0  0  0  0  0  0  0  0
   -7.2117   -0.9100    2.5184 O   0  0  0  0  0  0  0  0  0  0  0  0
   -4.8198   -1.6434    2.6352 O   0  0  0  0  0  0  0  0  0  0  0  0
   -5.4082    0.3857    1.3405 O   0  0  0  0  0  0  0  0  0  0  0  0
   -6.3005    1.5941    3.9668 F   0  0  0  0  0  0  0  0  0  0  0  0
   -5.7711   -0.1975    5.0840 F   0  0  0  0  0  0  0  0  0  0  0  0
   -4.2310    0.9255    4.0348 F   0  0  0  0  0  0  0  0  0  0  0  0
  1  2  1  0  0  0  0
  2  3  1  0  0  0  0
  4 11  1  0  0  0  0
  4  1  2  0  0  0  0
  5  4  1  0  0  0  0
  6  5  2  0  0  0  0
  6  9  1  0  0  0  0
  7  6  1  0  0  0  0
  8  7  1  0  0  0  0
  8 14  1  0  0  0  0
  9 10  2  0  0  0  0
 10  1  1  0  0  0  0
 10 17  1  0  0  0  0
 12  5  1  0  0  0  0
 13  8  1  0  0  0  0
 15  8  1  0  0  0  0
 16  9  1  0  0  0  0
 18 20  2  0  0  0  0
 18 21  1  0  0  0  0
 18 19  1  0  0  0  0
 19 25  1  0  0  0  0
 19 24  1  0  0  0  0
 22 18  2  0  0  0  0
 23 19  1  0  0  0  0
M  RAD  3   2   2   3   3  21   2
M  END
