Coordinates from ORCA-job 4-MeOPhN2+~TfO-_B3LYPG-6-31G_dp-NX-Scan-d89-09-n800
 OpenBabel11261920223D

 25 24  0  0  0  0  0  0  0  0999 V2000
   -4.1794   -3.9935   -0.2175 C   0  0  0  0  0  0  0  0  0  0  0  0
   -4.6579   -5.1745    0.2191 N   0  0  0  0  0  0  0  0  0  0  0  0
   -5.0378   -6.1758    0.5680 N   0  0  0  0  0  0  0  0  0  0  0  0
   -4.9535   -3.2071   -1.1199 C   0  0  0  0  0  0  0  0  0  0  0  0
   -4.4149   -2.0412   -1.5923 C   0  0  0  0  0  0  0  0  0  0  0  0
   -3.1422   -1.6084   -1.1379 C   0  0  0  0  0  0  0  0  0  0  0  0
   -2.7180   -0.4678   -1.6452 O   0  0  0  0  0  0  0  0  0  0  0  0
   -1.6206    0.2416   -1.0495 C   0  0  0  0  0  0  0  0  0  0  0  0
   -2.3993   -2.3834   -0.2025 C   0  0  0  0  0  0  0  0  0  0  0  0
   -2.9041   -3.5756    0.2508 C   0  0  0  0  0  0  0  0  0  0  0  0
   -5.9568   -3.5097   -1.3926 H   0  0  0  0  0  0  0  0  0  0  0  0
   -4.9940   -1.3447   -2.1908 H   0  0  0  0  0  0  0  0  0  0  0  0
   -1.5582    1.1779   -1.6003 H   0  0  0  0  0  0  0  0  0  0  0  0
   -0.6838   -0.3153   -1.1585 H   0  0  0  0  0  0  0  0  0  0  0  0
   -1.8435    0.4429    0.0006 H   0  0  0  0  0  0  0  0  0  0  0  0
   -1.4388   -2.0406    0.1581 H   0  0  0  0  0  0  0  0  0  0  0  0
   -2.3524   -4.1925    0.9515 H   0  0  0  0  0  0  0  0  0  0  0  0
   -6.4164    0.4743   -0.2275 S   0  0  0  0  0  0  0  0  0  0  0  0
   -5.1291    0.9594    1.0321 C   0  0  0  0  0  0  0  0  0  0  0  0
   -7.4667    1.4847   -0.0357 O   0  0  0  0  0  0  0  0  0  0  0  0
   -6.7427   -0.9191    0.1702 O   0  0  0  0  0  0  0  0  0  0  0  0
   -5.6493    0.5685   -1.5001 O   0  0  0  0  0  0  0  0  0  0  0  0
   -4.6128    2.1726    0.7811 F   0  0  0  0  0  0  0  0  0  0  0  0
   -5.6187    0.9606    2.2787 F   0  0  0  0  0  0  0  0  0  0  0  0
   -4.0759    0.0788    1.0243 F   0  0  0  0  0  0  0  0  0  0  0  0
  1  2  1  0  0  0  0
  1 10  1  0  0  0  0
  2  3  1  0  0  0  0
  4  1  2  0  0  0  0
  5  6  2  0  0  0  0
  5  4  1  0  0  0  0
  6  9  1  0  0  0  0
  7  6  1  0  0  0  0
  7  8  1  0  0  0  0
  8 15  1  0  0  0  0
  9 16  1  0  0  0  0
  9 10  2  0  0  0  0
 10 17  1  0  0  0  0
 11  4  1  0  0  0  0
 12  5  1  0  0  0  0
 13  8  1  0  0  0  0
 14  8  1  0  0  0  0
 18 20  2  0  0  0  0
 18 21  1  0  0  0  0
 18 19  1  0  0  0  0
 19 24  1  0  0  0  0
 22 18  2  0  0  0  0
 23 19  1  0  0  0  0
 25 19  1  0  0  0  0
M  RAD  3   2   2   3   3  21   2
M  END
