Coordinates from ORCA-job 4-MeOPhN2+~TfO-_B3LYPG-6-31G_dp-NX-Scan-d89-09-n800
 OpenBabel11261920223D

 25 24  0  0  0  0  0  0  0  0999 V2000
   -4.7154   -3.5606   -0.5264 C   0  0  0  0  0  0  0  0  0  0  0  0
   -5.5047   -4.3773    0.2029 N   0  0  0  0  0  0  0  0  0  0  0  0
   -6.1616   -5.0514    0.8136 N   0  0  0  0  0  0  0  0  0  0  0  0
   -3.4435   -4.0299   -0.9575 C   0  0  0  0  0  0  0  0  0  0  0  0
   -2.6154   -3.1431   -1.5919 C   0  0  0  0  0  0  0  0  0  0  0  0
   -3.0198   -1.7882   -1.7762 C   0  0  0  0  0  0  0  0  0  0  0  0
   -2.1024   -0.9972   -2.3256 O   0  0  0  0  0  0  0  0  0  0  0  0
   -2.3538    0.4202   -2.4010 C   0  0  0  0  0  0  0  0  0  0  0  0
   -4.2995   -1.3590   -1.3823 C   0  0  0  0  0  0  0  0  0  0  0  0
   -5.1518   -2.2329   -0.7404 C   0  0  0  0  0  0  0  0  0  0  0  0
   -3.1417   -5.0538   -0.7686 H   0  0  0  0  0  0  0  0  0  0  0  0
   -1.6284   -3.4363   -1.9290 H   0  0  0  0  0  0  0  0  0  0  0  0
   -1.4318    0.8536   -2.7858 H   0  0  0  0  0  0  0  0  0  0  0  0
   -2.5775    0.8164   -1.4077 H   0  0  0  0  0  0  0  0  0  0  0  0
   -3.1782    0.6297   -3.0892 H   0  0  0  0  0  0  0  0  0  0  0  0
   -4.6257   -0.3317   -1.4693 H   0  0  0  0  0  0  0  0  0  0  0  0
   -6.1067   -1.8798   -0.3780 H   0  0  0  0  0  0  0  0  0  0  0  0
   -5.7100   -0.1464    1.7844 S   0  0  0  0  0  0  0  0  0  0  0  0
   -4.0346    0.6493    1.9543 C   0  0  0  0  0  0  0  0  0  0  0  0
   -6.4725    0.3954    2.9143 O   0  0  0  0  0  0  0  0  0  0  0  0
   -5.3869   -1.6039    1.8522 O   0  0  0  0  0  0  0  0  0  0  0  0
   -6.1364    0.2871    0.4254 O   0  0  0  0  0  0  0  0  0  0  0  0
   -4.1206    1.9847    1.8886 F   0  0  0  0  0  0  0  0  0  0  0  0
   -3.4451    0.3167    3.1093 F   0  0  0  0  0  0  0  0  0  0  0  0
   -3.2030    0.2500    0.9484 F   0  0  0  0  0  0  0  0  0  0  0  0
  1  2  1  0  0  0  0
  2  3  1  0  0  0  0
  4 11  1  0  0  0  0
  4  1  2  0  0  0  0
  5  4  1  0  0  0  0
  6  5  2  0  0  0  0
  6  9  1  0  0  0  0
  7  6  1  0  0  0  0
  8  7  1  0  0  0  0
  8 14  1  0  0  0  0
  9 10  2  0  0  0  0
 10  1  1  0  0  0  0
 10 17  1  0  0  0  0
 12  5  1  0  0  0  0
 13  8  1  0  0  0  0
 15  8  1  0  0  0  0
 16  9  1  0  0  0  0
 18 21  2  0  0  0  0
 18 19  1  0  0  0  0
 18 20  1  0  0  0  0
 19 24  1  0  0  0  0
 22 18  2  0  0  0  0
 23 19  1  0  0  0  0
 25 19  1  0  0  0  0
M  RAD  3   2   2   3   3  20   2
M  END
