Coordinates from ORCA-job 4-MeOPhN2+~TfO-_B3LYPG-6-31G_dp-NX-Scan-d89-09-n800
 OpenBabel11261920223D

 25 24  0  0  0  0  0  0  0  0999 V2000
   -4.2275   -3.0151   -0.4276 C   0  0  0  0  0  0  0  0  0  0  0  0
   -4.9231   -3.6303    0.5806 N   0  0  0  0  0  0  0  0  0  0  0  0
   -5.4729   -4.2061    1.3633 N   0  0  0  0  0  0  0  0  0  0  0  0
   -3.4217   -3.8419   -1.2499 C   0  0  0  0  0  0  0  0  0  0  0  0
   -2.7266   -3.2551   -2.2793 C   0  0  0  0  0  0  0  0  0  0  0  0
   -2.8287   -1.8584   -2.5033 C   0  0  0  0  0  0  0  0  0  0  0  0
   -2.1106   -1.3964   -3.5320 O   0  0  0  0  0  0  0  0  0  0  0  0
   -2.1362    0.0046   -3.8377 C   0  0  0  0  0  0  0  0  0  0  0  0
   -3.6419   -1.0621   -1.6745 C   0  0  0  0  0  0  0  0  0  0  0  0
   -4.3481   -1.6276   -0.6261 C   0  0  0  0  0  0  0  0  0  0  0  0
   -3.3551   -4.9082   -1.0623 H   0  0  0  0  0  0  0  0  0  0  0  0
   -2.0917   -3.8398   -2.9350 H   0  0  0  0  0  0  0  0  0  0  0  0
   -1.4828    0.1249   -4.7008 H   0  0  0  0  0  0  0  0  0  0  0  0
   -1.7539    0.5943   -2.9985 H   0  0  0  0  0  0  0  0  0  0  0  0
   -3.1494    0.3306   -4.0932 H   0  0  0  0  0  0  0  0  0  0  0  0
   -3.7294    0.0061   -1.8276 H   0  0  0  0  0  0  0  0  0  0  0  0
   -4.9681   -1.0052    0.0245 H   0  0  0  0  0  0  0  0  0  0  0  0
   -6.0515   -0.3867    2.3100 S   0  0  0  0  0  0  0  0  0  0  0  0
   -5.0749    0.4102    3.6727 C   0  0  0  0  0  0  0  0  0  0  0  0
   -7.4458   -0.3352    2.7629 O   0  0  0  0  0  0  0  0  0  0  0  0
   -5.4548   -1.7583    2.2296 O   0  0  0  0  0  0  0  0  0  0  0  0
   -5.7072    0.4303    1.1135 O   0  0  0  0  0  0  0  0  0  0  0  0
   -5.4524    1.6851    3.8432 F   0  0  0  0  0  0  0  0  0  0  0  0
   -5.2523   -0.2450    4.8298 F   0  0  0  0  0  0  0  0  0  0  0  0
   -3.7603    0.3969    3.3823 F   0  0  0  0  0  0  0  0  0  0  0  0
  1  2  1  0  0  0  0
  2  3  1  0  0  0  0
  4 11  1  0  0  0  0
  4  1  2  0  0  0  0
  5  4  1  0  0  0  0
  6  5  2  0  0  0  0
  6  9  1  0  0  0  0
  7  6  1  0  0  0  0
  8  7  1  0  0  0  0
  8 14  1  0  0  0  0
  9 10  2  0  0  0  0
 10  1  1  0  0  0  0
 10 17  1  0  0  0  0
 12  5  1  0  0  0  0
 13  8  1  0  0  0  0
 15  8  1  0  0  0  0
 16  9  1  0  0  0  0
 18 20  1  0  0  0  0
 18 19  1  0  0  0  0
 19 23  1  0  0  0  0
 19 24  1  0  0  0  0
 21 18  2  0  0  0  0
 22 18  2  0  0  0  0
 25 19  1  0  0  0  0
M  RAD  3   2   2   3   3  20   2
M  END
