Coordinates from ORCA-job 4-MeOPhN2+~TfO-_B3LYPG-6-31G_dp-NX-Scan-d89-09-n800
 OpenBabel11261920223D

 25 24  0  0  0  0  0  0  0  0999 V2000
   -4.4210   -3.0162   -0.3232 C   0  0  0  0  0  0  0  0  0  0  0  0
   -5.1868   -3.6994    0.5845 N   0  0  0  0  0  0  0  0  0  0  0  0
   -5.7310   -4.3988    1.2649 N   0  0  0  0  0  0  0  0  0  0  0  0
   -3.3073   -3.7085   -0.8647 C   0  0  0  0  0  0  0  0  0  0  0  0
   -2.5224   -3.0568   -1.7839 C   0  0  0  0  0  0  0  0  0  0  0  0
   -2.8309   -1.7274   -2.1715 C   0  0  0  0  0  0  0  0  0  0  0  0
   -1.9923   -1.1889   -3.0621 O   0  0  0  0  0  0  0  0  0  0  0  0
   -2.1954    0.1645   -3.4922 C   0  0  0  0  0  0  0  0  0  0  0  0
   -3.9481   -1.0678   -1.6256 C   0  0  0  0  0  0  0  0  0  0  0  0
   -4.7526   -1.7022   -0.6950 C   0  0  0  0  0  0  0  0  0  0  0  0
   -3.0820   -4.7210   -0.5496 H   0  0  0  0  0  0  0  0  0  0  0  0
   -1.6536   -3.5350   -2.2208 H   0  0  0  0  0  0  0  0  0  0  0  0
   -1.3848    0.3714   -4.1899 H   0  0  0  0  0  0  0  0  0  0  0  0
   -2.1409    0.8551   -2.6449 H   0  0  0  0  0  0  0  0  0  0  0  0
   -3.1582    0.2718   -4.0019 H   0  0  0  0  0  0  0  0  0  0  0  0
   -4.1912   -0.0481   -1.8941 H   0  0  0  0  0  0  0  0  0  0  0  0
   -5.5871   -1.1725   -0.2392 H   0  0  0  0  0  0  0  0  0  0  0  0
   -6.1997   -0.3013    2.1539 S   0  0  0  0  0  0  0  0  0  0  0  0
   -4.5375    0.0556    2.9038 C   0  0  0  0  0  0  0  0  0  0  0  0
   -7.1708    0.1970    3.1322 O   0  0  0  0  0  0  0  0  0  0  0  0
   -6.1408   -1.7890    1.9801 O   0  0  0  0  0  0  0  0  0  0  0  0
   -6.1329    0.4138    0.8504 O   0  0  0  0  0  0  0  0  0  0  0  0
   -4.3451    1.3707    3.0685 F   0  0  0  0  0  0  0  0  0  0  0  0
   -4.3980   -0.5469    4.0936 F   0  0  0  0  0  0  0  0  0  0  0  0
   -3.5564   -0.4084    2.0911 F   0  0  0  0  0  0  0  0  0  0  0  0
  1  2  1  0  0  0  0
  2  3  1  0  0  0  0
  4 11  1  0  0  0  0
  4  1  2  0  0  0  0
  5  4  1  0  0  0  0
  6  5  2  0  0  0  0
  6  9  1  0  0  0  0
  7  6  1  0  0  0  0
  8  7  1  0  0  0  0
  8 14  1  0  0  0  0
  9 10  2  0  0  0  0
 10  1  1  0  0  0  0
 10 17  1  0  0  0  0
 12  5  1  0  0  0  0
 13  8  1  0  0  0  0
 15  8  1  0  0  0  0
 16  9  1  0  0  0  0
 18 19  1  0  0  0  0
 18 20  1  0  0  0  0
 19 23  1  0  0  0  0
 19 24  1  0  0  0  0
 21 18  2  0  0  0  0
 22 18  2  0  0  0  0
 25 19  1  0  0  0  0
M  RAD  3   2   2   3   3  20   2
M  END
