Coordinates from ORCA-job 4-MeOPhN2+~TfO-_B3LYPG-6-31G_dp-NX-Scan-d89-09-n800
 OpenBabel11261920223D

 25 24  0  0  0  0  0  0  0  0999 V2000
   -4.2409   -3.0231   -0.4814 C   0  0  0  0  0  0  0  0  0  0  0  0
   -4.9406   -3.6087    0.5398 N   0  0  0  0  0  0  0  0  0  0  0  0
   -5.5231   -4.0483    1.3854 N   0  0  0  0  0  0  0  0  0  0  0  0
   -3.4915   -3.8643   -1.3383 C   0  0  0  0  0  0  0  0  0  0  0  0
   -2.7895   -3.2827   -2.3665 C   0  0  0  0  0  0  0  0  0  0  0  0
   -2.8319   -1.8775   -2.5525 C   0  0  0  0  0  0  0  0  0  0  0  0
   -2.1129   -1.4216   -3.5836 O   0  0  0  0  0  0  0  0  0  0  0  0
   -2.0792   -0.0137   -3.8534 C   0  0  0  0  0  0  0  0  0  0  0  0
   -3.5931   -1.0662   -1.6890 C   0  0  0  0  0  0  0  0  0  0  0  0
   -4.3050   -1.6257   -0.6411 C   0  0  0  0  0  0  0  0  0  0  0  0
   -3.4698   -4.9369   -1.1775 H   0  0  0  0  0  0  0  0  0  0  0  0
   -2.1943   -3.8773   -3.0497 H   0  0  0  0  0  0  0  0  0  0  0  0
   -1.4355    0.0992   -4.7247 H   0  0  0  0  0  0  0  0  0  0  0  0
   -1.6564    0.5363   -3.0067 H   0  0  0  0  0  0  0  0  0  0  0  0
   -3.0805    0.3646   -4.0827 H   0  0  0  0  0  0  0  0  0  0  0  0
   -3.6365    0.0080   -1.8184 H   0  0  0  0  0  0  0  0  0  0  0  0
   -4.8951   -0.9952    0.0338 H   0  0  0  0  0  0  0  0  0  0  0  0
   -5.9732   -0.4902    2.4008 S   0  0  0  0  0  0  0  0  0  0  0  0
   -5.1668    0.5105    3.7401 C   0  0  0  0  0  0  0  0  0  0  0  0
   -7.3740   -0.6284    2.8179 O   0  0  0  0  0  0  0  0  0  0  0  0
   -5.1763   -1.7575    2.4019 O   0  0  0  0  0  0  0  0  0  0  0  0
   -5.7259    0.3152    1.1712 O   0  0  0  0  0  0  0  0  0  0  0  0
   -5.7463    1.7151    3.8436 F   0  0  0  0  0  0  0  0  0  0  0  0
   -5.2673   -0.1137    4.9229 F   0  0  0  0  0  0  0  0  0  0  0  0
   -3.8612    0.6935    3.4723 F   0  0  0  0  0  0  0  0  0  0  0  0
  1  2  1  0  0  0  0
  2  3  1  0  0  0  0
  4 11  1  0  0  0  0
  4  1  2  0  0  0  0
  5  4  1  0  0  0  0
  6  5  2  0  0  0  0
  6  9  1  0  0  0  0
  7  6  1  0  0  0  0
  8  7  1  0  0  0  0
  8 14  1  0  0  0  0
  9 10  2  0  0  0  0
 10  1  1  0  0  0  0
 10 17  1  0  0  0  0
 12  5  1  0  0  0  0
 13  8  1  0  0  0  0
 15  8  1  0  0  0  0
 16  9  1  0  0  0  0
 18 21  2  0  0  0  0
 18 20  1  0  0  0  0
 18 19  1  0  0  0  0
 19 23  1  0  0  0  0
 19 24  1  0  0  0  0
 22 18  2  0  0  0  0
 25 19  1  0  0  0  0
M  RAD  3   2   2   3   3  20   2
M  END
