Coordinates from ORCA-job 4-MeOPhN2+~TfO-_B3LYPG-6-31G_dp-NX-Scan-d89-09-n800
 OpenBabel11261920223D

 25 24  0  0  0  0  0  0  0  0999 V2000
   -3.8933   -2.8245   -0.2334 C   0  0  0  0  0  0  0  0  0  0  0  0
   -4.3217   -3.2651    0.9952 N   0  0  0  0  0  0  0  0  0  0  0  0
   -4.6135   -3.3385    2.0789 N   0  0  0  0  0  0  0  0  0  0  0  0
   -4.0044   -3.6843   -1.3445 C   0  0  0  0  0  0  0  0  0  0  0  0
   -3.5928   -3.2233   -2.5750 C   0  0  0  0  0  0  0  0  0  0  0  0
   -3.0756   -1.9132   -2.7063 C   0  0  0  0  0  0  0  0  0  0  0  0
   -2.7156   -1.5640   -3.9489 O   0  0  0  0  0  0  0  0  0  0  0  0
   -2.2142   -0.2443   -4.1923 C   0  0  0  0  0  0  0  0  0  0  0  0
   -2.9657   -1.0730   -1.5804 C   0  0  0  0  0  0  0  0  0  0  0  0
   -3.3746   -1.5201   -0.3358 C   0  0  0  0  0  0  0  0  0  0  0  0
   -4.4141   -4.6808   -1.2256 H   0  0  0  0  0  0  0  0  0  0  0  0
   -3.6633   -3.8422   -3.4618 H   0  0  0  0  0  0  0  0  0  0  0  0
   -2.0139   -0.2022   -5.2622 H   0  0  0  0  0  0  0  0  0  0  0  0
   -1.2863   -0.0683   -3.6386 H   0  0  0  0  0  0  0  0  0  0  0  0
   -2.9585    0.5130   -3.9256 H   0  0  0  0  0  0  0  0  0  0  0  0
   -2.5766   -0.0671   -1.6664 H   0  0  0  0  0  0  0  0  0  0  0  0
   -3.3090   -0.8848    0.5407 H   0  0  0  0  0  0  0  0  0  0  0  0
   -5.2344   -0.3208    2.3017 S   0  0  0  0  0  0  0  0  0  0  0  0
   -6.1420    0.1967    3.8359 C   0  0  0  0  0  0  0  0  0  0  0  0
   -6.2261   -1.0706    1.4995 O   0  0  0  0  0  0  0  0  0  0  0  0
   -4.1391   -1.2158    2.8309 O   0  0  0  0  0  0  0  0  0  0  0  0
   -4.7167    0.9289    1.7169 O   0  0  0  0  0  0  0  0  0  0  0  0
   -7.1690    0.9969    3.5186 F   0  0  0  0  0  0  0  0  0  0  0  0
   -6.6221   -0.8788    4.4779 F   0  0  0  0  0  0  0  0  0  0  0  0
   -5.3246    0.8582    4.6649 F   0  0  0  0  0  0  0  0  0  0  0  0
  1  2  1  0  0  0  0
  2  3  1  0  0  0  0
  4 11  1  0  0  0  0
  4  1  2  0  0  0  0
  5  4  1  0  0  0  0
  6  5  2  0  0  0  0
  6  9  1  0  0  0  0
  7  6  1  0  0  0  0
  8  7  1  0  0  0  0
  8 15  1  0  0  0  0
  8 14  1  0  0  0  0
  9 10  2  0  0  0  0
 10  1  1  0  0  0  0
 10 17  1  0  0  0  0
 12  5  1  0  0  0  0
 13  8  1  0  0  0  0
 16  9  1  0  0  0  0
 18 21  1  0  0  0  0
 18 19  1  0  0  0  0
 19 24  1  0  0  0  0
 19 25  1  0  0  0  0
 20 18  2  0  0  0  0
 22 18  2  0  0  0  0
 23 19  1  0  0  0  0
M  RAD  3   2   2   3   3  21   2
M  END
