Coordinates from ORCA-job 4-MeOPhN2+~TfO-_B3LYPG-6-31G_dp-NX-Scan-d89-09-n800
 OpenBabel11261920223D

 25 24  0  0  0  0  0  0  0  0999 V2000
   -4.1047   -2.9380   -0.4578 C   0  0  0  0  0  0  0  0  0  0  0  0
   -4.7188   -3.4455    0.6625 N   0  0  0  0  0  0  0  0  0  0  0  0
   -5.1970   -3.6187    1.6653 N   0  0  0  0  0  0  0  0  0  0  0  0
   -3.6681   -3.8360   -1.4556 C   0  0  0  0  0  0  0  0  0  0  0  0
   -3.0518   -3.3215   -2.5730 C   0  0  0  0  0  0  0  0  0  0  0  0
   -2.8783   -1.9224   -2.7079 C   0  0  0  0  0  0  0  0  0  0  0  0
   -2.2726   -1.5316   -3.8367 O   0  0  0  0  0  0  0  0  0  0  0  0
   -2.0558   -0.1353   -4.0730 C   0  0  0  0  0  0  0  0  0  0  0  0
   -3.3323   -1.0469   -1.7024 C   0  0  0  0  0  0  0  0  0  0  0  0
   -3.9486   -1.5428   -0.5647 C   0  0  0  0  0  0  0  0  0  0  0  0
   -3.8141   -4.9039   -1.3345 H   0  0  0  0  0  0  0  0  0  0  0  0
   -2.6925   -3.9658   -3.3669 H   0  0  0  0  0  0  0  0  0  0  0  0
   -1.5534   -0.0785   -5.0380 H   0  0  0  0  0  0  0  0  0  0  0  0
   -1.4161    0.2990   -3.2977 H   0  0  0  0  0  0  0  0  0  0  0  0
   -3.0058    0.4065   -4.1189 H   0  0  0  0  0  0  0  0  0  0  0  0
   -3.2145    0.0252   -1.7970 H   0  0  0  0  0  0  0  0  0  0  0  0
   -4.3259   -0.8706    0.2098 H   0  0  0  0  0  0  0  0  0  0  0  0
   -5.7642   -0.5298    2.4680 S   0  0  0  0  0  0  0  0  0  0  0  0
   -5.6026    0.5029    4.0032 C   0  0  0  0  0  0  0  0  0  0  0  0
   -7.1527   -1.0139    2.4611 O   0  0  0  0  0  0  0  0  0  0  0  0
   -4.7312   -1.6045    2.6852 O   0  0  0  0  0  0  0  0  0  0  0  0
   -5.3789    0.3922    1.3684 O   0  0  0  0  0  0  0  0  0  0  0  0
   -6.4500    1.5399    3.9535 F   0  0  0  0  0  0  0  0  0  0  0  0
   -5.8829   -0.2272    5.0910 F   0  0  0  0  0  0  0  0  0  0  0  0
   -4.3540    0.9790    4.1203 F   0  0  0  0  0  0  0  0  0  0  0  0
  1  2  1  0  0  0  0
  2  3  1  0  0  0  0
  4 11  1  0  0  0  0
  4  1  2  0  0  0  0
  5  4  1  0  0  0  0
  6  5  2  0  0  0  0
  6  9  1  0  0  0  0
  7  6  1  0  0  0  0
  8  7  1  0  0  0  0
  8 14  1  0  0  0  0
  9 10  2  0  0  0  0
 10  1  1  0  0  0  0
 10 17  1  0  0  0  0
 12  5  1  0  0  0  0
 13  8  1  0  0  0  0
 15  8  1  0  0  0  0
 16  9  1  0  0  0  0
 18 21  1  0  0  0  0
 18 19  1  0  0  0  0
 19 25  1  0  0  0  0
 19 24  1  0  0  0  0
 20 18  2  0  0  0  0
 22 18  2  0  0  0  0
 23 19  1  0  0  0  0
M  RAD  3   2   2   3   3  21   2
M  END
