Coordinates from ORCA-job 4-MeOPhN2+~TfO-_B3LYPG-6-31G_dp-NX-Scan-d89-09-n800
 OpenBabel11261920223D

 25 24  0  0  0  0  0  0  0  0999 V2000
   -3.9028   -2.8190   -0.2414 C   0  0  0  0  0  0  0  0  0  0  0  0
   -4.3398   -3.2556    0.9860 N   0  0  0  0  0  0  0  0  0  0  0  0
   -4.6377   -3.3204    2.0684 N   0  0  0  0  0  0  0  0  0  0  0  0
   -4.0066   -3.6819   -1.3508 C   0  0  0  0  0  0  0  0  0  0  0  0
   -3.5865   -3.2241   -2.5798 C   0  0  0  0  0  0  0  0  0  0  0  0
   -3.0686   -1.9144   -2.7113 C   0  0  0  0  0  0  0  0  0  0  0  0
   -2.6999   -1.5687   -3.9524 O   0  0  0  0  0  0  0  0  0  0  0  0
   -2.1959   -0.2501   -4.1957 C   0  0  0  0  0  0  0  0  0  0  0  0
   -2.9670   -1.0709   -1.5870 C   0  0  0  0  0  0  0  0  0  0  0  0
   -3.3838   -1.5148   -0.3438 C   0  0  0  0  0  0  0  0  0  0  0  0
   -4.4170   -4.6781   -1.2319 H   0  0  0  0  0  0  0  0  0  0  0  0
   -3.6507   -3.8457   -3.4653 H   0  0  0  0  0  0  0  0  0  0  0  0
   -1.9881   -0.2109   -5.2643 H   0  0  0  0  0  0  0  0  0  0  0  0
   -1.2718   -0.0733   -3.6361 H   0  0  0  0  0  0  0  0  0  0  0  0
   -2.9414    0.5085   -3.9362 H   0  0  0  0  0  0  0  0  0  0  0  0
   -2.5776   -0.0651   -1.6734 H   0  0  0  0  0  0  0  0  0  0  0  0
   -3.3248   -0.8780    0.5321 H   0  0  0  0  0  0  0  0  0  0  0  0
   -5.2557   -0.3235    2.3049 S   0  0  0  0  0  0  0  0  0  0  0  0
   -6.1310    0.1944    3.8575 C   0  0  0  0  0  0  0  0  0  0  0  0
   -6.2562   -1.0957    1.5351 O   0  0  0  0  0  0  0  0  0  0  0  0
   -4.1348   -1.1991    2.8132 O   0  0  0  0  0  0  0  0  0  0  0  0
   -4.7714    0.9281    1.6965 O   0  0  0  0  0  0  0  0  0  0  0  0
   -7.1797    0.9737    3.5597 F   0  0  0  0  0  0  0  0  0  0  0  0
   -6.5751   -0.8821    4.5232 F   0  0  0  0  0  0  0  0  0  0  0  0
   -5.3030    0.8785    4.6572 F   0  0  0  0  0  0  0  0  0  0  0  0
  1  2  1  0  0  0  0
  2  3  1  0  0  0  0
  4 11  1  0  0  0  0
  4  1  2  0  0  0  0
  5  4  1  0  0  0  0
  6  5  2  0  0  0  0
  6  9  1  0  0  0  0
  7  6  1  0  0  0  0
  8  7  1  0  0  0  0
  8 15  1  0  0  0  0
  8 14  1  0  0  0  0
  9 10  2  0  0  0  0
 10  1  1  0  0  0  0
 10 17  1  0  0  0  0
 12  5  1  0  0  0  0
 13  8  1  0  0  0  0
 16  9  1  0  0  0  0
 18 21  1  0  0  0  0
 18 19  1  0  0  0  0
 19 24  1  0  0  0  0
 19 25  1  0  0  0  0
 20 18  2  0  0  0  0
 22 18  2  0  0  0  0
 23 19  1  0  0  0  0
M  RAD  3   2   2   3   3  21   2
M  END
