Coordinates from ORCA-job 4-MeOPhN2+~TfO-_B3LYPG-6-31G_dp-NX-Scan-d89-09-n800
 OpenBabel11261920223D

 25 24  0  0  0  0  0  0  0  0999 V2000
   -4.4564   -3.0006   -0.2849 C   0  0  0  0  0  0  0  0  0  0  0  0
   -5.2273   -3.6923    0.6053 N   0  0  0  0  0  0  0  0  0  0  0  0
   -5.7813   -4.3847    1.2861 N   0  0  0  0  0  0  0  0  0  0  0  0
   -3.2213   -3.5867   -0.6655 C   0  0  0  0  0  0  0  0  0  0  0  0
   -2.4362   -2.9110   -1.5655 C   0  0  0  0  0  0  0  0  0  0  0  0
   -2.8595   -1.6598   -2.0867 C   0  0  0  0  0  0  0  0  0  0  0  0
   -2.0052   -1.0863   -2.9394 O   0  0  0  0  0  0  0  0  0  0  0  0
   -2.3156    0.2031   -3.4868 C   0  0  0  0  0  0  0  0  0  0  0  0
   -4.0918   -1.1037   -1.6981 C   0  0  0  0  0  0  0  0  0  0  0  0
   -4.9005   -1.7672   -0.7937 C   0  0  0  0  0  0  0  0  0  0  0  0
   -2.9097   -4.5364   -0.2462 H   0  0  0  0  0  0  0  0  0  0  0  0
   -1.4790   -3.3058   -1.8846 H   0  0  0  0  0  0  0  0  0  0  0  0
   -1.4731    0.4549   -4.1298 H   0  0  0  0  0  0  0  0  0  0  0  0
   -2.4135    0.9495   -2.6927 H   0  0  0  0  0  0  0  0  0  0  0  0
   -3.2349    0.1640   -4.0797 H   0  0  0  0  0  0  0  0  0  0  0  0
   -4.4162   -0.1350   -2.0534 H   0  0  0  0  0  0  0  0  0  0  0  0
   -5.8203   -1.3243   -0.4353 H   0  0  0  0  0  0  0  0  0  0  0  0
   -6.0655   -0.1611    1.9884 S   0  0  0  0  0  0  0  0  0  0  0  0
   -4.4295   -0.2207    2.8688 C   0  0  0  0  0  0  0  0  0  0  0  0
   -6.9582    0.5626    2.9007 O   0  0  0  0  0  0  0  0  0  0  0  0
   -6.3514   -1.6205    1.7948 O   0  0  0  0  0  0  0  0  0  0  0  0
   -5.7271    0.5215    0.7112 O   0  0  0  0  0  0  0  0  0  0  0  0
   -3.9189    1.0044    3.0471 F   0  0  0  0  0  0  0  0  0  0  0  0
   -4.5380   -0.8147    4.0661 F   0  0  0  0  0  0  0  0  0  0  0  0
   -3.5366   -0.9376    2.1380 F   0  0  0  0  0  0  0  0  0  0  0  0
  1  2  1  0  0  0  0
  2  3  1  0  0  0  0
  4  1  1  0  0  0  0
  4 11  1  0  0  0  0
  5  4  2  0  0  0  0
  6  9  2  0  0  0  0
  6  5  1  0  0  0  0
  7  6  1  0  0  0  0
  8  7  1  0  0  0  0
  8 14  1  0  0  0  0
  9 10  1  0  0  0  0
 10 17  1  0  0  0  0
 10  1  2  0  0  0  0
 12  5  1  0  0  0  0
 13  8  1  0  0  0  0
 15  8  1  0  0  0  0
 16  9  1  0  0  0  0
 18 19  1  0  0  0  0
 18 20  1  0  0  0  0
 19 23  1  0  0  0  0
 19 24  1  0  0  0  0
 21 18  2  0  0  0  0
 22 18  2  0  0  0  0
 25 19  1  0  0  0  0
M  RAD  3   2   2   3   3  20   2
M  END
