Coordinates from ORCA-job 4-MeOPhN2+~TfO-_B3LYPG-6-31G_dp-NX-Scan-d89-09-n800
 OpenBabel11261920223D

 25 24  0  0  0  0  0  0  0  0999 V2000
   -3.8747   -2.8413   -0.2209 C   0  0  0  0  0  0  0  0  0  0  0  0
   -4.2852   -3.2928    1.0089 N   0  0  0  0  0  0  0  0  0  0  0  0
   -4.5675   -3.3899    2.0930 N   0  0  0  0  0  0  0  0  0  0  0  0
   -3.9971   -3.6936   -1.3370 C   0  0  0  0  0  0  0  0  0  0  0  0
   -3.6017   -3.2224   -2.5688 C   0  0  0  0  0  0  0  0  0  0  0  0
   -3.0879   -1.9104   -2.6963 C   0  0  0  0  0  0  0  0  0  0  0  0
   -2.7432   -1.5516   -3.9402 O   0  0  0  0  0  0  0  0  0  0  0  0
   -2.2466   -0.2293   -4.1799 C   0  0  0  0  0  0  0  0  0  0  0  0
   -2.9657   -1.0784   -1.5655 C   0  0  0  0  0  0  0  0  0  0  0  0
   -3.3598   -1.5349   -0.3199 C   0  0  0  0  0  0  0  0  0  0  0  0
   -4.4034   -4.6918   -1.2206 H   0  0  0  0  0  0  0  0  0  0  0  0
   -3.6820   -3.8347   -3.4593 H   0  0  0  0  0  0  0  0  0  0  0  0
   -2.0581   -0.1796   -5.2517 H   0  0  0  0  0  0  0  0  0  0  0  0
   -1.3130   -0.0557   -3.6352 H   0  0  0  0  0  0  0  0  0  0  0  0
   -2.9893    0.5247   -3.8999 H   0  0  0  0  0  0  0  0  0  0  0  0
   -2.5796   -0.0711   -1.6486 H   0  0  0  0  0  0  0  0  0  0  0  0
   -3.2850   -0.9045    0.5593 H   0  0  0  0  0  0  0  0  0  0  0  0
   -5.2066   -0.3181    2.2917 S   0  0  0  0  0  0  0  0  0  0  0  0
   -6.1550    0.2112    3.7967 C   0  0  0  0  0  0  0  0  0  0  0  0
   -6.1911   -1.0237    1.4424 O   0  0  0  0  0  0  0  0  0  0  0  0
   -4.1594   -1.2497    2.8521 O   0  0  0  0  0  0  0  0  0  0  0  0
   -4.6285    0.9213    1.7413 O   0  0  0  0  0  0  0  0  0  0  0  0
   -7.1476    1.0423    3.4508 F   0  0  0  0  0  0  0  0  0  0  0  0
   -6.6878   -0.8566    4.4100 F   0  0  0  0  0  0  0  0  0  0  0  0
   -5.3512    0.8422    4.6620 F   0  0  0  0  0  0  0  0  0  0  0  0
  1  2  1  0  0  0  0
  2  3  1  0  0  0  0
  4 11  1  0  0  0  0
  4  1  2  0  0  0  0
  5  4  1  0  0  0  0
  6  5  2  0  0  0  0
  6  9  1  0  0  0  0
  7  6  1  0  0  0  0
  8  7  1  0  0  0  0
  8 15  1  0  0  0  0
  8 14  1  0  0  0  0
  9 10  2  0  0  0  0
 10  1  1  0  0  0  0
 10 17  1  0  0  0  0
 12  5  1  0  0  0  0
 13  8  1  0  0  0  0
 16  9  1  0  0  0  0
 18 21  1  0  0  0  0
 18 19  1  0  0  0  0
 19 24  1  0  0  0  0
 19 25  1  0  0  0  0
 20 18  2  0  0  0  0
 22 18  2  0  0  0  0
 23 19  1  0  0  0  0
M  RAD  3   2   2   3   3  21   2
M  END
