Coordinates from ORCA-job 4-MeOPhN2+~TfO-_B3LYPG-6-31G_dp-NX-Scan-d89-09-n800
 OpenBabel11261920223D

 25 25  0  0  0  0  0  0  0  0999 V2000
   -3.9558   -2.5610   -0.3369 C   0  0  0  0  0  0  0  0  0  0  0  0
   -4.4052   -2.9303    0.9283 N   0  0  0  0  0  0  0  0  0  0  0  0
   -4.7453   -2.5140    1.9660 N   0  0  0  0  0  0  0  0  0  0  0  0
   -3.6524   -3.6198   -1.2156 C   0  0  0  0  0  0  0  0  0  0  0  0
   -3.1919   -3.3472   -2.4873 C   0  0  0  0  0  0  0  0  0  0  0  0
   -3.0280   -2.0101   -2.9031 C   0  0  0  0  0  0  0  0  0  0  0  0
   -2.5737   -1.8467   -4.1605 O   0  0  0  0  0  0  0  0  0  0  0  0
   -2.3752   -0.5254   -4.6639 C   0  0  0  0  0  0  0  0  0  0  0  0
   -3.3344   -0.9550   -2.0239 C   0  0  0  0  0  0  0  0  0  0  0  0
   -3.7981   -1.2226   -0.7431 C   0  0  0  0  0  0  0  0  0  0  0  0
   -3.7839   -4.6416   -0.8763 H   0  0  0  0  0  0  0  0  0  0  0  0
   -2.9481   -4.1406   -3.1845 H   0  0  0  0  0  0  0  0  0  0  0  0
   -2.0066   -0.6508   -5.6816 H   0  0  0  0  0  0  0  0  0  0  0  0
   -1.6320    0.0181   -4.0700 H   0  0  0  0  0  0  0  0  0  0  0  0
   -3.3152    0.0374   -4.6823 H   0  0  0  0  0  0  0  0  0  0  0  0
   -3.2139    0.0764   -2.3311 H   0  0  0  0  0  0  0  0  0  0  0  0
   -4.0368   -0.4219   -0.0561 H   0  0  0  0  0  0  0  0  0  0  0  0
   -4.6347   -0.1064    3.3838 S   0  0  0  0  0  0  0  0  0  0  0  0
   -6.4216   -0.1449    3.9017 C   0  0  0  0  0  0  0  0  0  0  0  0
   -4.7370   -0.7530    1.9518 O   0  0  0  0  0  0  0  0  0  0  0  0
   -3.9228   -0.9681    4.3205 O   0  0  0  0  0  0  0  0  0  0  0  0
   -4.2826    1.3016    3.2335 O   0  0  0  0  0  0  0  0  0  0  0  0
   -7.1655    0.5702    3.0523 F   0  0  0  0  0  0  0  0  0  0  0  0
   -6.8692   -1.4057    3.9153 F   0  0  0  0  0  0  0  0  0  0  0  0
   -6.5370    0.3730    5.1272 F   0  0  0  0  0  0  0  0  0  0  0  0
  1  2  1  0  0  0  0
  2  3  1  0  0  0  0
  4 11  1  0  0  0  0
  4  1  2  0  0  0  0
  5  4  1  0  0  0  0
  6  5  2  0  0  0  0
  6  9  1  0  0  0  0
  7  6  1  0  0  0  0
  8  7  1  0  0  0  0
  8 14  1  0  0  0  0
  9 10  2  0  0  0  0
 10  1  1  0  0  0  0
 10 17  1  0  0  0  0
 12  5  1  0  0  0  0
 13  8  1  0  0  0  0
 15  8  1  0  0  0  0
 16  9  1  0  0  0  0
 18 19  1  0  0  0  0
 18 21  2  0  0  0  0
 19 24  1  0  0  0  0
 19 25  1  0  0  0  0
 20  3  1  0  0  0  0
 20 18  1  0  0  0  0
 22 18  2  0  0  0  0
 23 19  1  0  0  0  0
M  RAD  2   2   2   3   2
M  END
