Coordinates from ORCA-job 4-MeOPhN2+~TfO-_B3LYPG-6-31G_dp-NX-Scan-d89-09-n800
 OpenBabel11261920223D

 25 24  0  0  0  0  0  0  0  0999 V2000
   -4.4738   -3.0370   -0.2901 C   0  0  0  0  0  0  0  0  0  0  0  0
   -5.2471   -3.7425    0.5845 N   0  0  0  0  0  0  0  0  0  0  0  0
   -5.8078   -4.4399    1.2553 N   0  0  0  0  0  0  0  0  0  0  0  0
   -3.2227   -3.6002   -0.6546 C   0  0  0  0  0  0  0  0  0  0  0  0
   -2.4357   -2.9048   -1.5371 C   0  0  0  0  0  0  0  0  0  0  0  0
   -2.8712   -1.6556   -2.0549 C   0  0  0  0  0  0  0  0  0  0  0  0
   -2.0121   -1.0609   -2.8873 O   0  0  0  0  0  0  0  0  0  0  0  0
   -2.3323    0.2304   -3.4255 C   0  0  0  0  0  0  0  0  0  0  0  0
   -4.1184   -1.1227   -1.6824 C   0  0  0  0  0  0  0  0  0  0  0  0
   -4.9303   -1.8069   -0.7971 C   0  0  0  0  0  0  0  0  0  0  0  0
   -2.9018   -4.5473   -0.2367 H   0  0  0  0  0  0  0  0  0  0  0  0
   -1.4670   -3.2808   -1.8438 H   0  0  0  0  0  0  0  0  0  0  0  0
   -1.4826    0.5017   -4.0509 H   0  0  0  0  0  0  0  0  0  0  0  0
   -2.4549    0.9656   -2.6246 H   0  0  0  0  0  0  0  0  0  0  0  0
   -3.2406    0.1844   -4.0345 H   0  0  0  0  0  0  0  0  0  0  0  0
   -4.4518   -0.1544   -2.0303 H   0  0  0  0  0  0  0  0  0  0  0  0
   -5.8622   -1.3823   -0.4490 H   0  0  0  0  0  0  0  0  0  0  0  0
   -6.0387   -0.1391    1.9522 S   0  0  0  0  0  0  0  0  0  0  0  0
   -4.3898   -0.2104    2.8080 C   0  0  0  0  0  0  0  0  0  0  0  0
   -6.9000    0.6261    2.8618 O   0  0  0  0  0  0  0  0  0  0  0  0
   -6.3552   -1.5959    1.7957 O   0  0  0  0  0  0  0  0  0  0  0  0
   -5.7071    0.5105    0.6556 O   0  0  0  0  0  0  0  0  0  0  0  0
   -3.8541    1.0088    2.9522 F   0  0  0  0  0  0  0  0  0  0  0  0
   -4.4888   -0.7770    4.0191 F   0  0  0  0  0  0  0  0  0  0  0  0
   -3.5207   -0.9581    2.0786 F   0  0  0  0  0  0  0  0  0  0  0  0
  1  2  1  0  0  0  0
  2  3  1  0  0  0  0
  4  1  1  0  0  0  0
  4 11  1  0  0  0  0
  5  4  2  0  0  0  0
  6  9  2  0  0  0  0
  6  5  1  0  0  0  0
  7  6  1  0  0  0  0
  8  7  1  0  0  0  0
  8 14  1  0  0  0  0
  9 10  1  0  0  0  0
 10 17  1  0  0  0  0
 10  1  2  0  0  0  0
 12  5  1  0  0  0  0
 13  8  1  0  0  0  0
 15  8  1  0  0  0  0
 16  9  1  0  0  0  0
 18 19  1  0  0  0  0
 18 20  1  0  0  0  0
 19 23  1  0  0  0  0
 19 24  1  0  0  0  0
 21 18  2  0  0  0  0
 22 18  2  0  0  0  0
 25 19  1  0  0  0  0
M  RAD  3   2   2   3   3  20   2
M  END
