Coordinates from ORCA-job 4-MeOPhN2+~TfO-_B3LYPG-6-31G_dp-NX-Scan-d89-09-n800
 OpenBabel11261920223D

 25 24  0  0  0  0  0  0  0  0999 V2000
   -4.2236   -3.0129   -0.4142 C   0  0  0  0  0  0  0  0  0  0  0  0
   -4.9127   -3.6321    0.5964 N   0  0  0  0  0  0  0  0  0  0  0  0
   -5.4495   -4.2229    1.3771 N   0  0  0  0  0  0  0  0  0  0  0  0
   -3.4033   -3.8350   -1.2273 C   0  0  0  0  0  0  0  0  0  0  0  0
   -2.7101   -3.2467   -2.2570 C   0  0  0  0  0  0  0  0  0  0  0  0
   -2.8274   -1.8527   -2.4904 C   0  0  0  0  0  0  0  0  0  0  0  0
   -2.1093   -1.3886   -3.5182 O   0  0  0  0  0  0  0  0  0  0  0  0
   -2.1499    0.0102   -3.8327 C   0  0  0  0  0  0  0  0  0  0  0  0
   -3.6539   -1.0610   -1.6705 C   0  0  0  0  0  0  0  0  0  0  0  0
   -4.3595   -1.6284   -0.6226 C   0  0  0  0  0  0  0  0  0  0  0  0
   -3.3244   -4.8991   -1.0322 H   0  0  0  0  0  0  0  0  0  0  0  0
   -2.0651   -3.8281   -2.9056 H   0  0  0  0  0  0  0  0  0  0  0  0
   -1.4938    0.1328   -4.6933 H   0  0  0  0  0  0  0  0  0  0  0  0
   -1.7787    0.6094   -2.9953 H   0  0  0  0  0  0  0  0  0  0  0  0
   -3.1657    0.3225   -4.0950 H   0  0  0  0  0  0  0  0  0  0  0  0
   -3.7529    0.0053   -1.8299 H   0  0  0  0  0  0  0  0  0  0  0  0
   -4.9889   -1.0089    0.0206 H   0  0  0  0  0  0  0  0  0  0  0  0
   -6.0784   -0.3599    2.2879 S   0  0  0  0  0  0  0  0  0  0  0  0
   -5.0507    0.3756    3.6477 C   0  0  0  0  0  0  0  0  0  0  0  0
   -7.4634   -0.2487    2.7587 O   0  0  0  0  0  0  0  0  0  0  0  0
   -5.5447   -1.7568    2.1862 O   0  0  0  0  0  0  0  0  0  0  0  0
   -5.7094    0.4527    1.0962 O   0  0  0  0  0  0  0  0  0  0  0  0
   -5.3619    1.6661    3.8324 F   0  0  0  0  0  0  0  0  0  0  0  0
   -5.2489   -0.2801    4.8012 F   0  0  0  0  0  0  0  0  0  0  0  0
   -3.7408    0.2990    3.3440 F   0  0  0  0  0  0  0  0  0  0  0  0
  1  2  1  0  0  0  0
  2  3  1  0  0  0  0
  4 11  1  0  0  0  0
  4  1  2  0  0  0  0
  5  4  1  0  0  0  0
  6  5  2  0  0  0  0
  6  9  1  0  0  0  0
  7  6  1  0  0  0  0
  8  7  1  0  0  0  0
  8 14  1  0  0  0  0
  9 10  2  0  0  0  0
 10  1  1  0  0  0  0
 10 17  1  0  0  0  0
 12  5  1  0  0  0  0
 13  8  1  0  0  0  0
 15  8  1  0  0  0  0
 16  9  1  0  0  0  0
 18 20  1  0  0  0  0
 18 19  1  0  0  0  0
 19 23  1  0  0  0  0
 19 24  1  0  0  0  0
 21 18  2  0  0  0  0
 22 18  2  0  0  0  0
 25 19  1  0  0  0  0
M  RAD  3   2   2   3   3  20   2
M  END
