Coordinates from ORCA-job 4-MeOPhN2+~TfO-_B3LYPG-6-31G_dp-NX-Scan-d89-09-n800
 OpenBabel11261920223D

 25 25  0  0  0  0  0  0  0  0999 V2000
   -3.8984   -2.4767   -0.2035 C   0  0  0  0  0  0  0  0  0  0  0  0
   -4.2901   -2.9548    1.0661 N   0  0  0  0  0  0  0  0  0  0  0  0
   -4.5203   -2.3273    2.1069 N   0  0  0  0  0  0  0  0  0  0  0  0
   -3.7452   -3.5273   -1.1360 C   0  0  0  0  0  0  0  0  0  0  0  0
   -3.3602   -3.2870   -2.4402 C   0  0  0  0  0  0  0  0  0  0  0  0
   -3.1106   -1.9690   -2.8609 C   0  0  0  0  0  0  0  0  0  0  0  0
   -2.7371   -1.8250   -4.1550 O   0  0  0  0  0  0  0  0  0  0  0  0
   -2.4695   -0.5178   -4.6506 C   0  0  0  0  0  0  0  0  0  0  0  0
   -3.2558   -0.9115   -1.9502 C   0  0  0  0  0  0  0  0  0  0  0  0
   -3.6456   -1.1578   -0.6362 C   0  0  0  0  0  0  0  0  0  0  0  0
   -3.9410   -4.5375   -0.7926 H   0  0  0  0  0  0  0  0  0  0  0  0
   -3.2417   -4.0935   -3.1556 H   0  0  0  0  0  0  0  0  0  0  0  0
   -2.1881   -0.6476   -5.6959 H   0  0  0  0  0  0  0  0  0  0  0  0
   -1.6426   -0.0446   -4.1080 H   0  0  0  0  0  0  0  0  0  0  0  0
   -3.3576    0.1231   -4.5902 H   0  0  0  0  0  0  0  0  0  0  0  0
   -3.0666    0.1110   -2.2539 H   0  0  0  0  0  0  0  0  0  0  0  0
   -3.7454   -0.3207    0.0372 H   0  0  0  0  0  0  0  0  0  0  0  0
   -4.5915   -0.1763    3.4583 S   0  0  0  0  0  0  0  0  0  0  0  0
   -6.4578   -0.2768    3.6270 C   0  0  0  0  0  0  0  0  0  0  0  0
   -4.3919   -0.9871    1.9999 O   0  0  0  0  0  0  0  0  0  0  0  0
   -3.9980   -0.9210    4.5493 O   0  0  0  0  0  0  0  0  0  0  0  0
   -4.2521    1.1939    3.1276 O   0  0  0  0  0  0  0  0  0  0  0  0
   -7.0235    0.2060    2.5243 F   0  0  0  0  0  0  0  0  0  0  0  0
   -6.8361   -1.5328    3.8210 F   0  0  0  0  0  0  0  0  0  0  0  0
   -6.8003    0.4699    4.6753 F   0  0  0  0  0  0  0  0  0  0  0  0
  1  2  1  0  0  0  0
  2  3  1  0  0  0  0
  4 11  1  0  0  0  0
  4  1  2  0  0  0  0
  5  4  1  0  0  0  0
  6  5  2  0  0  0  0
  6  9  1  0  0  0  0
  7  6  1  0  0  0  0
  8 15  1  0  0  0  0
  8  7  1  0  0  0  0
  8 14  1  0  0  0  0
  9 10  2  0  0  0  0
 10  1  1  0  0  0  0
 10 17  1  0  0  0  0
 12  5  1  0  0  0  0
 13  8  1  0  0  0  0
 16  9  1  0  0  0  0
 18 19  1  0  0  0  0
 18 21  2  0  0  0  0
 19 24  1  0  0  0  0
 19 25  1  0  0  0  0
 20  3  1  0  0  0  0
 20 18  1  0  0  0  0
 22 18  2  0  0  0  0
 23 19  1  0  0  0  0
M  RAD  2   2   2   3   2
M  END
