Coordinates from ORCA-job 4-MeOPhN2+~TfO-_B3LYPG-6-31G_dp-NX-Scan-d89-09-n800
 OpenBabel11261920223D

 25 24  0  0  0  0  0  0  0  0999 V2000
   -4.3537   -2.6242   -0.4483 C   0  0  0  0  0  0  0  0  0  0  0  0
   -5.0606   -2.9768    0.6892 N   0  0  0  0  0  0  0  0  0  0  0  0
   -5.6742   -2.6992    1.6166 N   0  0  0  0  0  0  0  0  0  0  0  0
   -3.6897   -3.6473   -1.1508 C   0  0  0  0  0  0  0  0  0  0  0  0
   -2.9671   -3.3253   -2.2802 C   0  0  0  0  0  0  0  0  0  0  0  0
   -2.9035   -1.9851   -2.7199 C   0  0  0  0  0  0  0  0  0  0  0  0
   -2.1697   -1.7779   -3.8265 O   0  0  0  0  0  0  0  0  0  0  0  0
   -2.0257   -0.4485   -4.3327 C   0  0  0  0  0  0  0  0  0  0  0  0
   -3.5822   -0.9725   -2.0140 C   0  0  0  0  0  0  0  0  0  0  0  0
   -4.3078   -1.2845   -0.8751 C   0  0  0  0  0  0  0  0  0  0  0  0
   -3.7463   -4.6697   -0.7939 H   0  0  0  0  0  0  0  0  0  0  0  0
   -2.4362   -4.0813   -2.8468 H   0  0  0  0  0  0  0  0  0  0  0  0
   -1.3856   -0.5370   -5.2100 H   0  0  0  0  0  0  0  0  0  0  0  0
   -1.5485    0.2053   -3.5943 H   0  0  0  0  0  0  0  0  0  0  0  0
   -2.9943   -0.0308   -4.6277 H   0  0  0  0  0  0  0  0  0  0  0  0
   -3.5436    0.0579   -2.3434 H   0  0  0  0  0  0  0  0  0  0  0  0
   -4.8403   -0.5272   -0.3127 H   0  0  0  0  0  0  0  0  0  0  0  0
   -4.9308   -0.0701    2.6000 S   0  0  0  0  0  0  0  0  0  0  0  0
   -5.8227   -0.1580    4.2269 C   0  0  0  0  0  0  0  0  0  0  0  0
   -5.9417   -0.7567    1.6592 O   0  0  0  0  0  0  0  0  0  0  0  0
   -3.7179   -0.8816    2.7705 O   0  0  0  0  0  0  0  0  0  0  0  0
   -4.8019    1.3539    2.2849 O   0  0  0  0  0  0  0  0  0  0  0  0
   -6.9720    0.5218    4.1691 F   0  0  0  0  0  0  0  0  0  0  0  0
   -6.0920   -1.4363    4.5309 F   0  0  0  0  0  0  0  0  0  0  0  0
   -5.0588    0.3628    5.1934 F   0  0  0  0  0  0  0  0  0  0  0  0
  1  2  1  0  0  0  0
  2  3  2  0  0  0  0
  4 11  1  0  0  0  0
  4  1  2  0  0  0  0
  5  4  1  0  0  0  0
  6  5  2  0  0  0  0
  6  9  1  0  0  0  0
  7  6  1  0  0  0  0
  8  7  1  0  0  0  0
  8 14  1  0  0  0  0
  9 10  2  0  0  0  0
 10  1  1  0  0  0  0
 10 17  1  0  0  0  0
 12  5  1  0  0  0  0
 13  8  1  0  0  0  0
 15  8  1  0  0  0  0
 16  9  1  0  0  0  0
 18 21  1  0  0  0  0
 18 19  1  0  0  0  0
 19 24  1  0  0  0  0
 19 25  1  0  0  0  0
 20 18  2  0  0  0  0
 22 18  2  0  0  0  0
 23 19  1  0  0  0  0
M  RAD  2   3   2  21   2
M  END
