Coordinates from ORCA-job 4-MeOPhN2+~TfO-_B3LYPG-6-31G_dp-NX-Scan-d89-09-n800
 OpenBabel11261920223D

 25 24  0  0  0  0  0  0  0  0999 V2000
   -4.2338   -3.0181   -0.4381 C   0  0  0  0  0  0  0  0  0  0  0  0
   -4.9312   -3.6301    0.5704 N   0  0  0  0  0  0  0  0  0  0  0  0
   -5.4888   -4.1906    1.3586 N   0  0  0  0  0  0  0  0  0  0  0  0
   -3.4357   -3.8468   -1.2656 C   0  0  0  0  0  0  0  0  0  0  0  0
   -2.7378   -3.2601   -2.2931 C   0  0  0  0  0  0  0  0  0  0  0  0
   -2.8299   -1.8615   -2.5098 C   0  0  0  0  0  0  0  0  0  0  0  0
   -2.1097   -1.3996   -3.5371 O   0  0  0  0  0  0  0  0  0  0  0  0
   -2.1246    0.0031   -3.8354 C   0  0  0  0  0  0  0  0  0  0  0  0
   -3.6360   -1.0632   -1.6759 C   0  0  0  0  0  0  0  0  0  0  0  0
   -4.3450   -1.6285   -0.6291 C   0  0  0  0  0  0  0  0  0  0  0  0
   -3.3764   -4.9144   -1.0830 H   0  0  0  0  0  0  0  0  0  0  0  0
   -2.1082   -3.8460   -2.9527 H   0  0  0  0  0  0  0  0  0  0  0  0
   -1.4712    0.1228   -4.6985 H   0  0  0  0  0  0  0  0  0  0  0  0
   -1.7368    0.5853   -2.9935 H   0  0  0  0  0  0  0  0  0  0  0  0
   -3.1355    0.3384   -4.0882 H   0  0  0  0  0  0  0  0  0  0  0  0
   -3.7160    0.0063   -1.8243 H   0  0  0  0  0  0  0  0  0  0  0  0
   -4.9604   -1.0047    0.0251 H   0  0  0  0  0  0  0  0  0  0  0  0
   -6.0362   -0.4075    2.3254 S   0  0  0  0  0  0  0  0  0  0  0  0
   -5.0863    0.4332    3.6804 C   0  0  0  0  0  0  0  0  0  0  0  0
   -7.4323   -0.3941    2.7763 O   0  0  0  0  0  0  0  0  0  0  0  0
   -5.3981   -1.7607    2.2588 O   0  0  0  0  0  0  0  0  0  0  0  0
   -5.7169    0.4084    1.1209 O   0  0  0  0  0  0  0  0  0  0  0  0
   -5.5080    1.6955    3.8418 F   0  0  0  0  0  0  0  0  0  0  0  0
   -5.2394   -0.2189    4.8426 F   0  0  0  0  0  0  0  0  0  0  0  0
   -3.7726    0.4637    3.3881 F   0  0  0  0  0  0  0  0  0  0  0  0
  1  2  1  0  0  0  0
  2  3  1  0  0  0  0
  4 11  1  0  0  0  0
  4  1  2  0  0  0  0
  5  4  1  0  0  0  0
  6  5  2  0  0  0  0
  6  9  1  0  0  0  0
  7  6  1  0  0  0  0
  8  7  1  0  0  0  0
  8 14  1  0  0  0  0
  9 10  2  0  0  0  0
 10  1  1  0  0  0  0
 10 17  1  0  0  0  0
 12  5  1  0  0  0  0
 13  8  1  0  0  0  0
 15  8  1  0  0  0  0
 16  9  1  0  0  0  0
 18 20  1  0  0  0  0
 18 19  1  0  0  0  0
 19 23  1  0  0  0  0
 19 24  1  0  0  0  0
 21 18  2  0  0  0  0
 22 18  2  0  0  0  0
 25 19  1  0  0  0  0
M  RAD  3   2   2   3   3  20   2
M  END
