Coordinates from ORCA-job 4-MeOPhN2+~TfO-_B3LYPG-6-31G_dp-NX-Scan-d89-09-n800
 OpenBabel11261920223D

 25 25  0  0  0  0  0  0  0  0999 V2000
   -3.8925   -2.4836   -0.2047 C   0  0  0  0  0  0  0  0  0  0  0  0
   -4.2800   -2.9581    1.0654 N   0  0  0  0  0  0  0  0  0  0  0  0
   -4.5155   -2.3471    2.1095 N   0  0  0  0  0  0  0  0  0  0  0  0
   -3.7343   -3.5342   -1.1363 C   0  0  0  0  0  0  0  0  0  0  0  0
   -3.3514   -3.2910   -2.4405 C   0  0  0  0  0  0  0  0  0  0  0  0
   -3.1093   -1.9713   -2.8607 C   0  0  0  0  0  0  0  0  0  0  0  0
   -2.7375   -1.8249   -4.1544 O   0  0  0  0  0  0  0  0  0  0  0  0
   -2.4772   -0.5162   -4.6507 C   0  0  0  0  0  0  0  0  0  0  0  0
   -3.2599   -0.9143   -1.9498 C   0  0  0  0  0  0  0  0  0  0  0  0
   -3.6477   -1.1627   -0.6361 C   0  0  0  0  0  0  0  0  0  0  0  0
   -3.9241   -4.5455   -0.7931 H   0  0  0  0  0  0  0  0  0  0  0  0
   -3.2286   -4.0964   -3.1564 H   0  0  0  0  0  0  0  0  0  0  0  0
   -2.1959   -0.6452   -5.6961 H   0  0  0  0  0  0  0  0  0  0  0  0
   -1.6523   -0.0387   -4.1088 H   0  0  0  0  0  0  0  0  0  0  0  0
   -3.3687    0.1196   -4.5899 H   0  0  0  0  0  0  0  0  0  0  0  0
   -3.0765    0.1092   -2.2536 H   0  0  0  0  0  0  0  0  0  0  0  0
   -3.7525   -0.3282    0.0396 H   0  0  0  0  0  0  0  0  0  0  0  0
   -4.5919   -0.1776    3.4593 S   0  0  0  0  0  0  0  0  0  0  0  0
   -6.4577   -0.2618    3.6209 C   0  0  0  0  0  0  0  0  0  0  0  0
   -4.3953   -0.9756    2.0055 O   0  0  0  0  0  0  0  0  0  0  0  0
   -4.0123   -0.9333    4.5507 O   0  0  0  0  0  0  0  0  0  0  0  0
   -4.2403    1.1942    3.1464 O   0  0  0  0  0  0  0  0  0  0  0  0
   -7.0175    0.2620    2.5333 F   0  0  0  0  0  0  0  0  0  0  0  0
   -6.8504   -1.5203    3.7723 F   0  0  0  0  0  0  0  0  0  0  0  0
   -6.7976    0.4527    4.6925 F   0  0  0  0  0  0  0  0  0  0  0  0
  1  2  1  0  0  0  0
  2  3  1  0  0  0  0
  4 11  1  0  0  0  0
  4  1  2  0  0  0  0
  5  4  1  0  0  0  0
  6  5  2  0  0  0  0
  6  9  1  0  0  0  0
  7  6  1  0  0  0  0
  8 15  1  0  0  0  0
  8  7  1  0  0  0  0
  8 14  1  0  0  0  0
  9 10  2  0  0  0  0
 10  1  1  0  0  0  0
 10 17  1  0  0  0  0
 12  5  1  0  0  0  0
 13  8  1  0  0  0  0
 16  9  1  0  0  0  0
 18 19  1  0  0  0  0
 18 21  2  0  0  0  0
 19 24  1  0  0  0  0
 19 25  1  0  0  0  0
 20  3  1  0  0  0  0
 20 18  1  0  0  0  0
 22 18  2  0  0  0  0
 23 19  1  0  0  0  0
M  RAD  2   2   2   3   2
M  END
