Coordinates from ORCA-job 4-MeOPhN2+~TfO-_B3LYPG-6-31G_dp-NX-Scan-d89-09-n800
 OpenBabel11261920223D

 25 25  0  0  0  0  0  0  0  0999 V2000
   -3.9518   -2.5597   -0.3324 C   0  0  0  0  0  0  0  0  0  0  0  0
   -4.3973   -2.9316    0.9337 N   0  0  0  0  0  0  0  0  0  0  0  0
   -4.7329   -2.5111    1.9728 N   0  0  0  0  0  0  0  0  0  0  0  0
   -3.6527   -3.6182   -1.2129 C   0  0  0  0  0  0  0  0  0  0  0  0
   -3.1959   -3.3459   -2.4861 C   0  0  0  0  0  0  0  0  0  0  0  0
   -3.0311   -2.0091   -2.9019 C   0  0  0  0  0  0  0  0  0  0  0  0
   -2.5804   -1.8458   -4.1609 O   0  0  0  0  0  0  0  0  0  0  0  0
   -2.3817   -0.5246   -4.6641 C   0  0  0  0  0  0  0  0  0  0  0  0
   -3.3332   -0.9540   -2.0213 C   0  0  0  0  0  0  0  0  0  0  0  0
   -3.7931   -1.2215   -0.7391 C   0  0  0  0  0  0  0  0  0  0  0  0
   -3.7849   -4.6399   -0.8737 H   0  0  0  0  0  0  0  0  0  0  0  0
   -2.9555   -4.1395   -3.1843 H   0  0  0  0  0  0  0  0  0  0  0  0
   -2.0163   -0.6499   -5.6831 H   0  0  0  0  0  0  0  0  0  0  0  0
   -1.6361    0.0178   -4.0723 H   0  0  0  0  0  0  0  0  0  0  0  0
   -3.3210    0.0394   -4.6795 H   0  0  0  0  0  0  0  0  0  0  0  0
   -3.2120    0.0774   -2.3285 H   0  0  0  0  0  0  0  0  0  0  0  0
   -4.0281   -0.4202   -0.0518 H   0  0  0  0  0  0  0  0  0  0  0  0
   -4.6313   -0.1106    3.3904 S   0  0  0  0  0  0  0  0  0  0  0  0
   -6.4241   -0.1452    3.8882 C   0  0  0  0  0  0  0  0  0  0  0  0
   -4.7192   -0.7601    1.9569 O   0  0  0  0  0  0  0  0  0  0  0  0
   -3.9308   -0.9719    4.3356 O   0  0  0  0  0  0  0  0  0  0  0  0
   -4.2752    1.2961    3.2391 O   0  0  0  0  0  0  0  0  0  0  0  0
   -7.1568    0.5699    3.0292 F   0  0  0  0  0  0  0  0  0  0  0  0
   -6.8739   -1.4051    3.8989 F   0  0  0  0  0  0  0  0  0  0  0  0
   -6.5516    0.3751    5.1113 F   0  0  0  0  0  0  0  0  0  0  0  0
  1  2  1  0  0  0  0
  2  3  1  0  0  0  0
  4 11  1  0  0  0  0
  4  1  2  0  0  0  0
  5  4  1  0  0  0  0
  6  5  2  0  0  0  0
  6  9  1  0  0  0  0
  7  6  1  0  0  0  0
  8  7  1  0  0  0  0
  8 14  1  0  0  0  0
  9 10  2  0  0  0  0
 10  1  1  0  0  0  0
 10 17  1  0  0  0  0
 12  5  1  0  0  0  0
 13  8  1  0  0  0  0
 15  8  1  0  0  0  0
 16  9  1  0  0  0  0
 18 19  1  0  0  0  0
 18 21  2  0  0  0  0
 19 24  1  0  0  0  0
 19 25  1  0  0  0  0
 20  3  1  0  0  0  0
 20 18  1  0  0  0  0
 22 18  2  0  0  0  0
 23 19  1  0  0  0  0
M  RAD  2   2   2   3   2
M  END
