Coordinates from ORCA-job 4-MeOPhN2+~TfO-_B3LYPG-6-31G_dp-NX-Scan-d89-09-n800
 OpenBabel11261920223D

 25 24  0  0  0  0  0  0  0  0999 V2000
   -4.4902   -3.9970   -0.5947 C   0  0  0  0  0  0  0  0  0  0  0  0
   -5.1612   -4.9705    0.0540 N   0  0  0  0  0  0  0  0  0  0  0  0
   -5.7483   -5.7445    0.6192 N   0  0  0  0  0  0  0  0  0  0  0  0
   -3.4321   -4.3363   -1.4865 C   0  0  0  0  0  0  0  0  0  0  0  0
   -2.7535   -3.3114   -2.0906 C   0  0  0  0  0  0  0  0  0  0  0  0
   -3.1055   -1.9557   -1.8161 C   0  0  0  0  0  0  0  0  0  0  0  0
   -2.3565   -1.0358   -2.4042 O   0  0  0  0  0  0  0  0  0  0  0  0
   -2.6034    0.3620   -2.1013 C   0  0  0  0  0  0  0  0  0  0  0  0
   -4.1787   -1.6454   -0.9550 C   0  0  0  0  0  0  0  0  0  0  0  0
   -4.8689   -2.6566   -0.3295 C   0  0  0  0  0  0  0  0  0  0  0  0
   -3.1734   -5.3736   -1.6668 H   0  0  0  0  0  0  0  0  0  0  0  0
   -1.9301   -3.5064   -2.7684 H   0  0  0  0  0  0  0  0  0  0  0  0
   -1.8261    0.9051   -2.6351 H   0  0  0  0  0  0  0  0  0  0  0  0
   -2.5351    0.5363   -1.0251 H   0  0  0  0  0  0  0  0  0  0  0  0
   -3.5934    0.6605   -2.4526 H   0  0  0  0  0  0  0  0  0  0  0  0
   -4.4867   -0.6195   -0.7339 H   0  0  0  0  0  0  0  0  0  0  0  0
   -5.6460   -2.3844    0.3842 H   0  0  0  0  0  0  0  0  0  0  0  0
   -5.6989    0.6312    1.3650 S   0  0  0  0  0  0  0  0  0  0  0  0
   -4.0906    1.0392    2.2038 C   0  0  0  0  0  0  0  0  0  0  0  0
   -6.6912    1.5039    1.9969 O   0  0  0  0  0  0  0  0  0  0  0  0
   -5.8432   -0.8257    1.6428 O   0  0  0  0  0  0  0  0  0  0  0  0
   -5.3715    0.9320   -0.0615 O   0  0  0  0  0  0  0  0  0  0  0  0
   -3.8058    2.3448    2.1044 F   0  0  0  0  0  0  0  0  0  0  0  0
   -4.1038    0.7053    3.5007 F   0  0  0  0  0  0  0  0  0  0  0  0
   -3.0729    0.3544    1.6146 F   0  0  0  0  0  0  0  0  0  0  0  0
  1 10  1  0  0  0  0
  1  2  1  0  0  0  0
  2  3  1  0  0  0  0
  4  1  2  0  0  0  0
  5  6  2  0  0  0  0
  5  4  1  0  0  0  0
  6  9  1  0  0  0  0
  7  8  1  0  0  0  0
  7  6  1  0  0  0  0
  8 14  1  0  0  0  0
  9 16  1  0  0  0  0
  9 10  2  0  0  0  0
 10 17  1  0  0  0  0
 11  4  1  0  0  0  0
 12  5  1  0  0  0  0
 13  8  1  0  0  0  0
 15  8  1  0  0  0  0
 18 21  2  0  0  0  0
 18 20  1  0  0  0  0
 18 19  1  0  0  0  0
 19 24  1  0  0  0  0
 22 18  2  0  0  0  0
 23 19  1  0  0  0  0
 25 19  1  0  0  0  0
M  RAD  3   2   2   3   3  20   2
M  END
