Coordinates from ORCA-job 4-MeOPhN2+~TfO-_B3LYPG-6-31G_dp-NX-Scan-d89-09-n800
 OpenBabel11261920223D

 25 25  0  0  0  0  0  0  0  0999 V2000
   -3.8792   -2.5396   -0.2607 C   0  0  0  0  0  0  0  0  0  0  0  0
   -4.2684   -2.9444    1.0177 N   0  0  0  0  0  0  0  0  0  0  0  0
   -4.5413   -2.4773    2.0720 N   0  0  0  0  0  0  0  0  0  0  0  0
   -3.6654   -3.5942   -1.1722 C   0  0  0  0  0  0  0  0  0  0  0  0
   -3.2714   -3.3282   -2.4678 C   0  0  0  0  0  0  0  0  0  0  0  0
   -3.0819   -1.9954   -2.8820 C   0  0  0  0  0  0  0  0  0  0  0  0
   -2.6962   -1.8343   -4.1644 O   0  0  0  0  0  0  0  0  0  0  0  0
   -2.4841   -0.5154   -4.6655 C   0  0  0  0  0  0  0  0  0  0  0  0
   -3.2953   -0.9412   -1.9761 C   0  0  0  0  0  0  0  0  0  0  0  0
   -3.6924   -1.2055   -0.6715 C   0  0  0  0  0  0  0  0  0  0  0  0
   -3.8161   -4.6137   -0.8338 H   0  0  0  0  0  0  0  0  0  0  0  0
   -3.0999   -4.1240   -3.1838 H   0  0  0  0  0  0  0  0  0  0  0  0
   -2.1810   -0.6401   -5.7049 H   0  0  0  0  0  0  0  0  0  0  0  0
   -1.6892   -0.0024   -4.1125 H   0  0  0  0  0  0  0  0  0  0  0  0
   -3.4040    0.0789   -4.6222 H   0  0  0  0  0  0  0  0  0  0  0  0
   -3.1534    0.0885   -2.2801 H   0  0  0  0  0  0  0  0  0  0  0  0
   -3.8559   -0.3960    0.0251 H   0  0  0  0  0  0  0  0  0  0  0  0
   -4.6006   -0.1519    3.4802 S   0  0  0  0  0  0  0  0  0  0  0  0
   -6.4537   -0.1646    3.6755 C   0  0  0  0  0  0  0  0  0  0  0  0
   -4.4662   -0.8284    2.0399 O   0  0  0  0  0  0  0  0  0  0  0  0
   -4.0662   -1.0047    4.5307 O   0  0  0  0  0  0  0  0  0  0  0  0
   -4.2047    1.2425    3.3402 O   0  0  0  0  0  0  0  0  0  0  0  0
   -7.0220    0.5497    2.7009 F   0  0  0  0  0  0  0  0  0  0  0  0
   -6.9111   -1.4183    3.6237 F   0  0  0  0  0  0  0  0  0  0  0  0
   -6.7675    0.3719    4.8559 F   0  0  0  0  0  0  0  0  0  0  0  0
  1  2  1  0  0  0  0
  2  3  1  0  0  0  0
  4 11  1  0  0  0  0
  4  1  2  0  0  0  0
  5  4  1  0  0  0  0
  6  5  2  0  0  0  0
  6  9  1  0  0  0  0
  7  6  1  0  0  0  0
  8 15  1  0  0  0  0
  8  7  1  0  0  0  0
  8 14  1  0  0  0  0
  9 10  2  0  0  0  0
 10  1  1  0  0  0  0
 10 17  1  0  0  0  0
 12  5  1  0  0  0  0
 13  8  1  0  0  0  0
 16  9  1  0  0  0  0
 18 19  1  0  0  0  0
 18 21  2  0  0  0  0
 19 25  1  0  0  0  0
 20  3  1  0  0  0  0
 20 18  1  0  0  0  0
 22 18  2  0  0  0  0
 23 19  1  0  0  0  0
 24 19  1  0  0  0  0
M  RAD  2   2   2   3   2
M  END
