Coordinates from ORCA-job 4-MeOPhN2+~TfO-_B3LYPG-6-31G_dp-NX-Scan-d89-09-n800
 OpenBabel11261920223D

 25 24  0  0  0  0  0  0  0  0999 V2000
   -4.5559   -3.8148   -0.5701 C   0  0  0  0  0  0  0  0  0  0  0  0
   -5.2726   -4.7238    0.1263 N   0  0  0  0  0  0  0  0  0  0  0  0
   -5.8835   -5.4533    0.7227 N   0  0  0  0  0  0  0  0  0  0  0  0
   -3.4412   -4.2432   -1.3461 C   0  0  0  0  0  0  0  0  0  0  0  0
   -2.7018   -3.2820   -1.9823 C   0  0  0  0  0  0  0  0  0  0  0  0
   -3.0451   -1.9035   -1.8465 C   0  0  0  0  0  0  0  0  0  0  0  0
   -2.2202   -1.0496   -2.4403 O   0  0  0  0  0  0  0  0  0  0  0  0
   -2.4328    0.3679   -2.2523 C   0  0  0  0  0  0  0  0  0  0  0  0
   -4.1795   -1.5101   -1.1115 C   0  0  0  0  0  0  0  0  0  0  0  0
   -4.9369   -2.4563   -0.4565 C   0  0  0  0  0  0  0  0  0  0  0  0
   -3.1859   -5.2949   -1.4139 H   0  0  0  0  0  0  0  0  0  0  0  0
   -1.8316   -3.5425   -2.5737 H   0  0  0  0  0  0  0  0  0  0  0  0
   -1.5849    0.8488   -2.7373 H   0  0  0  0  0  0  0  0  0  0  0  0
   -2.4580    0.6114   -1.1873 H   0  0  0  0  0  0  0  0  0  0  0  0
   -3.3663    0.6805   -2.7274 H   0  0  0  0  0  0  0  0  0  0  0  0
   -4.4862   -0.4764   -0.9713 H   0  0  0  0  0  0  0  0  0  0  0  0
   -5.7456   -2.1339    0.1986 H   0  0  0  0  0  0  0  0  0  0  0  0
   -5.8143    0.3331    1.6103 S   0  0  0  0  0  0  0  0  0  0  0  0
   -4.1173    0.9025    2.1203 C   0  0  0  0  0  0  0  0  0  0  0  0
   -6.7344    1.1358    2.4209 O   0  0  0  0  0  0  0  0  0  0  0  0
   -5.7741   -1.1253    1.9266 O   0  0  0  0  0  0  0  0  0  0  0  0
   -5.8039    0.6169    0.1472 O   0  0  0  0  0  0  0  0  0  0  0  0
   -3.9714    2.2227    1.9404 F   0  0  0  0  0  0  0  0  0  0  0  0
   -3.8586    0.6167    3.4023 F   0  0  0  0  0  0  0  0  0  0  0  0
   -3.1650    0.2850    1.3651 F   0  0  0  0  0  0  0  0  0  0  0  0
  1 10  1  0  0  0  0
  1  2  1  0  0  0  0
  2  3  1  0  0  0  0
  4  1  2  0  0  0  0
  5  6  2  0  0  0  0
  5  4  1  0  0  0  0
  6  9  1  0  0  0  0
  7  8  1  0  0  0  0
  7  6  1  0  0  0  0
  8 14  1  0  0  0  0
  9 16  1  0  0  0  0
  9 10  2  0  0  0  0
 10 17  1  0  0  0  0
 11  4  1  0  0  0  0
 12  5  1  0  0  0  0
 13  8  1  0  0  0  0
 15  8  1  0  0  0  0
 18 21  2  0  0  0  0
 18 19  1  0  0  0  0
 18 20  1  0  0  0  0
 19 24  1  0  0  0  0
 22 18  2  0  0  0  0
 23 19  1  0  0  0  0
 25 19  1  0  0  0  0
M  RAD  3   2   2   3   3  20   2
M  END
