Coordinates from ORCA-job 4-MeOPhN2+~TfO-_B3LYPG-6-31G_dp-NX-Scan-d89-09-n800
 OpenBabel11261920223D

 25 24  0  0  0  0  0  0  0  0999 V2000
   -4.5401   -3.8408   -0.5675 C   0  0  0  0  0  0  0  0  0  0  0  0
   -5.2452   -4.7592    0.1277 N   0  0  0  0  0  0  0  0  0  0  0  0
   -5.8499   -5.4936    0.7247 N   0  0  0  0  0  0  0  0  0  0  0  0
   -3.4269   -4.2544   -1.3540 C   0  0  0  0  0  0  0  0  0  0  0  0
   -2.7008   -3.2826   -1.9896 C   0  0  0  0  0  0  0  0  0  0  0  0
   -3.0557   -1.9081   -1.8432 C   0  0  0  0  0  0  0  0  0  0  0  0
   -2.2441   -1.0424   -2.4371 O   0  0  0  0  0  0  0  0  0  0  0  0
   -2.4721    0.3722   -2.2393 C   0  0  0  0  0  0  0  0  0  0  0  0
   -4.1881   -1.5291   -1.0971 C   0  0  0  0  0  0  0  0  0  0  0  0
   -4.9319   -2.4859   -0.4427 C   0  0  0  0  0  0  0  0  0  0  0  0
   -3.1627   -5.3033   -1.4301 H   0  0  0  0  0  0  0  0  0  0  0  0
   -1.8326   -3.5318   -2.5887 H   0  0  0  0  0  0  0  0  0  0  0  0
   -1.6332    0.8653   -2.7274 H   0  0  0  0  0  0  0  0  0  0  0  0
   -2.4936    0.6090   -1.1727 H   0  0  0  0  0  0  0  0  0  0  0  0
   -3.4129    0.6762   -2.7054 H   0  0  0  0  0  0  0  0  0  0  0  0
   -4.5034   -0.4974   -0.9502 H   0  0  0  0  0  0  0  0  0  0  0  0
   -5.7391   -2.1701    0.2193 H   0  0  0  0  0  0  0  0  0  0  0  0
   -5.8021    0.3975    1.5625 S   0  0  0  0  0  0  0  0  0  0  0  0
   -4.1039    0.8932    2.1395 C   0  0  0  0  0  0  0  0  0  0  0  0
   -6.7200    1.2259    2.3492 O   0  0  0  0  0  0  0  0  0  0  0  0
   -5.8289   -1.0645    1.8636 O   0  0  0  0  0  0  0  0  0  0  0  0
   -5.7265    0.6982    0.1045 O   0  0  0  0  0  0  0  0  0  0  0  0
   -3.9033    2.2101    1.9928 F   0  0  0  0  0  0  0  0  0  0  0  0
   -3.8988    0.5723    3.4230 F   0  0  0  0  0  0  0  0  0  0  0  0
   -3.1513    0.2551    1.4025 F   0  0  0  0  0  0  0  0  0  0  0  0
  1 10  1  0  0  0  0
  1  2  1  0  0  0  0
  2  3  1  0  0  0  0
  4  1  2  0  0  0  0
  5  6  2  0  0  0  0
  5  4  1  0  0  0  0
  6  9  1  0  0  0  0
  7  8  1  0  0  0  0
  7  6  1  0  0  0  0
  8 14  1  0  0  0  0
  9 16  1  0  0  0  0
  9 10  2  0  0  0  0
 10 17  1  0  0  0  0
 11  4  1  0  0  0  0
 12  5  1  0  0  0  0
 13  8  1  0  0  0  0
 15  8  1  0  0  0  0
 18 21  2  0  0  0  0
 18 19  1  0  0  0  0
 18 20  1  0  0  0  0
 19 24  1  0  0  0  0
 22 18  2  0  0  0  0
 23 19  1  0  0  0  0
 25 19  1  0  0  0  0
M  RAD  3   2   2   3   3  20   2
M  END
