Coordinates from ORCA-job 4-MeOPhN2+~TfO-_B3LYPG-6-31G_dp-NX-Scan-d89-09-n800
 OpenBabel11261920223D

 25 24  0  0  0  0  0  0  0  0999 V2000
   -4.4641   -4.0438   -0.5799 C   0  0  0  0  0  0  0  0  0  0  0  0
   -5.1043   -5.0556    0.0395 N   0  0  0  0  0  0  0  0  0  0  0  0
   -5.6510   -5.8855    0.5655 N   0  0  0  0  0  0  0  0  0  0  0  0
   -3.4218   -4.3471   -1.5042 C   0  0  0  0  0  0  0  0  0  0  0  0
   -2.7691   -3.3023   -2.1009 C   0  0  0  0  0  0  0  0  0  0  0  0
   -3.1336   -1.9579   -1.7910 C   0  0  0  0  0  0  0  0  0  0  0  0
   -2.4165   -1.0178   -2.3824 O   0  0  0  0  0  0  0  0  0  0  0  0
   -2.6708    0.3741   -2.0499 C   0  0  0  0  0  0  0  0  0  0  0  0
   -4.1899   -1.6807   -0.8949 C   0  0  0  0  0  0  0  0  0  0  0  0
   -4.8516   -2.7128   -0.2738 C   0  0  0  0  0  0  0  0  0  0  0  0
   -3.1568   -5.3772   -1.7145 H   0  0  0  0  0  0  0  0  0  0  0  0
   -1.9603   -3.4725   -2.8025 H   0  0  0  0  0  0  0  0  0  0  0  0
   -1.9230    0.9337   -2.6080 H   0  0  0  0  0  0  0  0  0  0  0  0
   -2.5616    0.5320   -0.9751 H   0  0  0  0  0  0  0  0  0  0  0  0
   -3.6795    0.6630   -2.3504 H   0  0  0  0  0  0  0  0  0  0  0  0
   -4.5034   -0.6584   -0.6643 H   0  0  0  0  0  0  0  0  0  0  0  0
   -5.6251   -2.4632    0.4506 H   0  0  0  0  0  0  0  0  0  0  0  0
   -5.6644    0.7505    1.2720 S   0  0  0  0  0  0  0  0  0  0  0  0
   -4.0772    1.0280    2.2003 C   0  0  0  0  0  0  0  0  0  0  0  0
   -6.6119    1.7048    1.8538 O   0  0  0  0  0  0  0  0  0  0  0  0
   -5.9390   -0.6907    1.5256 O   0  0  0  0  0  0  0  0  0  0  0  0
   -5.2336    1.0259   -0.1329 O   0  0  0  0  0  0  0  0  0  0  0  0
   -3.6818    2.3059    2.1223 F   0  0  0  0  0  0  0  0  0  0  0  0
   -4.1899    0.6969    3.4933 F   0  0  0  0  0  0  0  0  0  0  0  0
   -3.0867    0.2624    1.6664 F   0  0  0  0  0  0  0  0  0  0  0  0
  1 10  1  0  0  0  0
  1  2  1  0  0  0  0
  2  3  1  0  0  0  0
  4  1  2  0  0  0  0
  5  6  2  0  0  0  0
  5  4  1  0  0  0  0
  6  9  1  0  0  0  0
  7  8  1  0  0  0  0
  7  6  1  0  0  0  0
  8 14  1  0  0  0  0
  9 16  1  0  0  0  0
  9 10  2  0  0  0  0
 10 17  1  0  0  0  0
 11  4  1  0  0  0  0
 12  5  1  0  0  0  0
 13  8  1  0  0  0  0
 15  8  1  0  0  0  0
 18 21  2  0  0  0  0
 18 20  1  0  0  0  0
 18 19  1  0  0  0  0
 19 24  1  0  0  0  0
 22 18  2  0  0  0  0
 23 19  1  0  0  0  0
 25 19  1  0  0  0  0
M  RAD  3   2   2   3   3  20   2
M  END
