Coordinates from ORCA-job 4-MeOPhN2+~TfO-_B3LYPG-6-31G_dp-NX-Scan-d89-09-n800
 OpenBabel11261920223D

 25 24  0  0  0  0  0  0  0  0999 V2000
   -4.2102   -2.9789   -0.3620 C   0  0  0  0  0  0  0  0  0  0  0  0
   -4.8833   -3.6004    0.6595 N   0  0  0  0  0  0  0  0  0  0  0  0
   -5.3722   -4.2435    1.4309 N   0  0  0  0  0  0  0  0  0  0  0  0
   -3.3402   -3.7930   -1.1321 C   0  0  0  0  0  0  0  0  0  0  0  0
   -2.6535   -3.2120   -2.1699 C   0  0  0  0  0  0  0  0  0  0  0  0
   -2.8223   -1.8324   -2.4531 C   0  0  0  0  0  0  0  0  0  0  0  0
   -2.1040   -1.3741   -3.4833 O   0  0  0  0  0  0  0  0  0  0  0  0
   -2.1943    0.0110   -3.8450 C   0  0  0  0  0  0  0  0  0  0  0  0
   -3.6946   -1.0485   -1.6747 C   0  0  0  0  0  0  0  0  0  0  0  0
   -4.3967   -1.6099   -0.6212 C   0  0  0  0  0  0  0  0  0  0  0  0
   -3.2210   -4.8455   -0.8988 H   0  0  0  0  0  0  0  0  0  0  0  0
   -1.9735   -3.7882   -2.7868 H   0  0  0  0  0  0  0  0  0  0  0  0
   -1.5278    0.1317   -4.6979 H   0  0  0  0  0  0  0  0  0  0  0  0
   -1.8628    0.6517   -3.0220 H   0  0  0  0  0  0  0  0  0  0  0  0
   -3.2166    0.2731   -4.1350 H   0  0  0  0  0  0  0  0  0  0  0  0
   -3.8318    0.0075   -1.8691 H   0  0  0  0  0  0  0  0  0  0  0  0
   -5.0577   -0.9959   -0.0081 H   0  0  0  0  0  0  0  0  0  0  0  0
   -6.1469   -0.2672    2.2190 S   0  0  0  0  0  0  0  0  0  0  0  0
   -4.9912    0.2274    3.5859 C   0  0  0  0  0  0  0  0  0  0  0  0
   -7.4869    0.0326    2.7332 O   0  0  0  0  0  0  0  0  0  0  0  0
   -5.8341   -1.7236    2.0393 O   0  0  0  0  0  0  0  0  0  0  0  0
   -5.6760    0.5384    1.0601 O   0  0  0  0  0  0  0  0  0  0  0  0
   -5.0934    1.5377    3.8466 F   0  0  0  0  0  0  0  0  0  0  0  0
   -5.2614   -0.4533    4.7098 F   0  0  0  0  0  0  0  0  0  0  0  0
   -3.7144   -0.0328    3.2391 F   0  0  0  0  0  0  0  0  0  0  0  0
  1  2  1  0  0  0  0
  2  3  1  0  0  0  0
  4 11  1  0  0  0  0
  4  1  2  0  0  0  0
  5  4  1  0  0  0  0
  6  5  2  0  0  0  0
  6  9  1  0  0  0  0
  7  6  1  0  0  0  0
  8  7  1  0  0  0  0
  8 14  1  0  0  0  0
  9 10  2  0  0  0  0
 10  1  1  0  0  0  0
 10 17  1  0  0  0  0
 12  5  1  0  0  0  0
 13  8  1  0  0  0  0
 15  8  1  0  0  0  0
 16  9  1  0  0  0  0
 18 20  1  0  0  0  0
 18 19  1  0  0  0  0
 19 23  1  0  0  0  0
 19 24  1  0  0  0  0
 21 18  2  0  0  0  0
 22 18  2  0  0  0  0
 25 19  1  0  0  0  0
M  RAD  3   2   2   3   3  20   2
M  END
