Coordinates from ORCA-job 4-MeOPhN2+~TfO-_B3LYPG-6-31G_dp-NX-Scan-d89-09-n800
 OpenBabel11261920223D

 25 24  0  0  0  0  0  0  0  0999 V2000
   -4.5161   -3.9239   -0.5799 C   0  0  0  0  0  0  0  0  0  0  0  0
   -5.2007   -4.8726    0.0922 N   0  0  0  0  0  0  0  0  0  0  0  0
   -5.7961   -5.6274    0.6740 N   0  0  0  0  0  0  0  0  0  0  0  0
   -3.4094   -4.2930   -1.3975 C   0  0  0  0  0  0  0  0  0  0  0  0
   -2.7102   -3.2896   -2.0136 C   0  0  0  0  0  0  0  0  0  0  0  0
   -3.0865   -1.9264   -1.8198 C   0  0  0  0  0  0  0  0  0  0  0  0
   -2.3048   -1.0279   -2.4015 O   0  0  0  0  0  0  0  0  0  0  0  0
   -2.5639    0.3779   -2.1637 C   0  0  0  0  0  0  0  0  0  0  0  0
   -4.2106   -1.5891   -1.0397 C   0  0  0  0  0  0  0  0  0  0  0  0
   -4.9249   -2.5785   -0.4036 C   0  0  0  0  0  0  0  0  0  0  0  0
   -3.1297   -5.3344   -1.5116 H   0  0  0  0  0  0  0  0  0  0  0  0
   -1.8484   -3.5056   -2.6348 H   0  0  0  0  0  0  0  0  0  0  0  0
   -1.7464    0.9017   -2.6557 H   0  0  0  0  0  0  0  0  0  0  0  0
   -2.5731    0.5877   -1.0917 H   0  0  0  0  0  0  0  0  0  0  0  0
   -3.5216    0.6684   -2.6022 H   0  0  0  0  0  0  0  0  0  0  0  0
   -4.5377   -0.5619   -0.8649 H   0  0  0  0  0  0  0  0  0  0  0  0
   -5.7304   -2.2883    0.2709 H   0  0  0  0  0  0  0  0  0  0  0  0
   -5.7417    0.5358    1.4516 S   0  0  0  0  0  0  0  0  0  0  0  0
   -4.0698    0.9371    2.1605 C   0  0  0  0  0  0  0  0  0  0  0  0
   -6.6767    1.3972    2.1796 O   0  0  0  0  0  0  0  0  0  0  0  0
   -5.8612   -0.9260    1.7231 O   0  0  0  0  0  0  0  0  0  0  0  0
   -5.5374    0.8567    0.0084 O   0  0  0  0  0  0  0  0  0  0  0  0
   -3.7966    2.2448    2.0565 F   0  0  0  0  0  0  0  0  0  0  0  0
   -3.9728    0.5841    3.4485 F   0  0  0  0  0  0  0  0  0  0  0  0
   -3.1001    0.2649    1.4793 F   0  0  0  0  0  0  0  0  0  0  0  0
  1 10  1  0  0  0  0
  1  2  1  0  0  0  0
  2  3  1  0  0  0  0
  4  1  2  0  0  0  0
  5  6  2  0  0  0  0
  5  4  1  0  0  0  0
  6  9  1  0  0  0  0
  7  8  1  0  0  0  0
  7  6  1  0  0  0  0
  8 14  1  0  0  0  0
  9 16  1  0  0  0  0
  9 10  2  0  0  0  0
 10 17  1  0  0  0  0
 11  4  1  0  0  0  0
 12  5  1  0  0  0  0
 13  8  1  0  0  0  0
 15  8  1  0  0  0  0
 18 21  2  0  0  0  0
 18 19  1  0  0  0  0
 18 20  1  0  0  0  0
 19 24  1  0  0  0  0
 22 18  2  0  0  0  0
 23 19  1  0  0  0  0
 25 19  1  0  0  0  0
M  RAD  3   2   2   3   3  20   2
M  END
