Coordinates from ORCA-job 4-MeOPhN2+~TfO-_B3LYPG-6-31G_dp-NX-Scan-d89-09-n800
 OpenBabel11261920223D

 25 24  0  0  0  0  0  0  0  0999 V2000
   -4.2109   -2.9791   -0.3614 C   0  0  0  0  0  0  0  0  0  0  0  0
   -4.8833   -3.6015    0.6600 N   0  0  0  0  0  0  0  0  0  0  0  0
   -5.3700   -4.2483    1.4298 N   0  0  0  0  0  0  0  0  0  0  0  0
   -3.3395   -3.7926   -1.1307 C   0  0  0  0  0  0  0  0  0  0  0  0
   -2.6527   -3.2113   -2.1682 C   0  0  0  0  0  0  0  0  0  0  0  0
   -2.8226   -1.8319   -2.4519 C   0  0  0  0  0  0  0  0  0  0  0  0
   -2.1040   -1.3732   -3.4817 O   0  0  0  0  0  0  0  0  0  0  0  0
   -2.1953    0.0118   -3.8437 C   0  0  0  0  0  0  0  0  0  0  0  0
   -3.6961   -1.0487   -1.6743 C   0  0  0  0  0  0  0  0  0  0  0  0
   -4.3985   -1.6105   -0.6211 C   0  0  0  0  0  0  0  0  0  0  0  0
   -3.2193   -4.8449   -0.8970 H   0  0  0  0  0  0  0  0  0  0  0  0
   -1.9718   -3.7870   -2.7845 H   0  0  0  0  0  0  0  0  0  0  0  0
   -1.5283    0.1329   -4.6962 H   0  0  0  0  0  0  0  0  0  0  0  0
   -1.8648    0.6530   -3.0206 H   0  0  0  0  0  0  0  0  0  0  0  0
   -3.2176    0.2730   -4.1344 H   0  0  0  0  0  0  0  0  0  0  0  0
   -3.8341    0.0072   -1.8688 H   0  0  0  0  0  0  0  0  0  0  0  0
   -5.0601   -0.9964   -0.0086 H   0  0  0  0  0  0  0  0  0  0  0  0
   -6.1472   -0.2658    2.2174 S   0  0  0  0  0  0  0  0  0  0  0  0
   -4.9895    0.2260    3.5836 C   0  0  0  0  0  0  0  0  0  0  0  0
   -7.4860    0.0390    2.7318 O   0  0  0  0  0  0  0  0  0  0  0  0
   -5.8386   -1.7232    2.0384 O   0  0  0  0  0  0  0  0  0  0  0  0
   -5.6742    0.5380    1.0580 O   0  0  0  0  0  0  0  0  0  0  0  0
   -5.0874    1.5368    3.8436 F   0  0  0  0  0  0  0  0  0  0  0  0
   -5.2614   -0.4532    4.7081 F   0  0  0  0  0  0  0  0  0  0  0  0
   -3.7136   -0.0385    3.2366 F   0  0  0  0  0  0  0  0  0  0  0  0
  1  2  1  0  0  0  0
  2  3  1  0  0  0  0
  4 11  1  0  0  0  0
  4  1  2  0  0  0  0
  5  4  1  0  0  0  0
  6  5  2  0  0  0  0
  6  9  1  0  0  0  0
  7  6  1  0  0  0  0
  8  7  1  0  0  0  0
  8 14  1  0  0  0  0
  9 10  2  0  0  0  0
 10  1  1  0  0  0  0
 10 17  1  0  0  0  0
 12  5  1  0  0  0  0
 13  8  1  0  0  0  0
 15  8  1  0  0  0  0
 16  9  1  0  0  0  0
 18 20  1  0  0  0  0
 18 19  1  0  0  0  0
 19 23  1  0  0  0  0
 19 24  1  0  0  0  0
 21 18  2  0  0  0  0
 22 18  2  0  0  0  0
 25 19  1  0  0  0  0
M  RAD  3   2   2   3   3  20   2
M  END
