Coordinates from ORCA-job 4-MeOPhN2+~TfO-_B3LYPG-6-31G_dp-NX-Scan-d89-09-n800
 OpenBabel11261920223D

 25 24  0  0  0  0  0  0  0  0999 V2000
   -4.4570   -2.6120   -0.4515 C   0  0  0  0  0  0  0  0  0  0  0  0
   -5.2336   -2.9189    0.6430 N   0  0  0  0  0  0  0  0  0  0  0  0
   -5.9142   -2.7604    1.5326 N   0  0  0  0  0  0  0  0  0  0  0  0
   -3.7061   -3.6313   -1.0665 C   0  0  0  0  0  0  0  0  0  0  0  0
   -2.9220   -3.3075   -2.1523 C   0  0  0  0  0  0  0  0  0  0  0  0
   -2.8854   -1.9774   -2.6297 C   0  0  0  0  0  0  0  0  0  0  0  0
   -2.0848   -1.7718   -3.6862 O   0  0  0  0  0  0  0  0  0  0  0  0
   -1.9525   -0.4511   -4.2220 C   0  0  0  0  0  0  0  0  0  0  0  0
   -3.6560   -0.9739   -2.0085 C   0  0  0  0  0  0  0  0  0  0  0  0
   -4.4423   -1.2830   -0.9121 C   0  0  0  0  0  0  0  0  0  0  0  0
   -3.7421   -4.6439   -0.6805 H   0  0  0  0  0  0  0  0  0  0  0  0
   -2.3191   -4.0539   -2.6560 H   0  0  0  0  0  0  0  0  0  0  0  0
   -1.2474   -0.5407   -5.0477 H   0  0  0  0  0  0  0  0  0  0  0  0
   -1.5543    0.2395   -3.4708 H   0  0  0  0  0  0  0  0  0  0  0  0
   -2.9119   -0.0804   -4.5980 H   0  0  0  0  0  0  0  0  0  0  0  0
   -3.6369    0.0468   -2.3676 H   0  0  0  0  0  0  0  0  0  0  0  0
   -5.0462   -0.5402   -0.4043 H   0  0  0  0  0  0  0  0  0  0  0  0
   -5.0732    0.0148    2.4058 S   0  0  0  0  0  0  0  0  0  0  0  0
   -5.5866   -0.2519    4.1703 C   0  0  0  0  0  0  0  0  0  0  0  0
   -6.2321   -0.6047    1.6388 O   0  0  0  0  0  0  0  0  0  0  0  0
   -3.8366   -0.7781    2.2517 O   0  0  0  0  0  0  0  0  0  0  0  0
   -4.9866    1.4686    2.2349 O   0  0  0  0  0  0  0  0  0  0  0  0
   -6.7381    0.3778    4.4305 F   0  0  0  0  0  0  0  0  0  0  0  0
   -5.7563   -1.5650    4.4073 F   0  0  0  0  0  0  0  0  0  0  0  0
   -4.6456    0.2102    5.0031 F   0  0  0  0  0  0  0  0  0  0  0  0
  1  2  1  0  0  0  0
  2  3  1  0  0  0  0
  4 11  1  0  0  0  0
  4  1  2  0  0  0  0
  5  4  1  0  0  0  0
  6  5  2  0  0  0  0
  6  9  1  0  0  0  0
  7  6  1  0  0  0  0
  8  7  1  0  0  0  0
  8 14  1  0  0  0  0
  9 10  2  0  0  0  0
 10  1  1  0  0  0  0
 10 17  1  0  0  0  0
 12  5  1  0  0  0  0
 13  8  1  0  0  0  0
 15  8  1  0  0  0  0
 16  9  1  0  0  0  0
 18 19  1  0  0  0  0
 19 24  1  0  0  0  0
 19 23  1  0  0  0  0
 19 25  1  0  0  0  0
 20 18  2  0  0  0  0
 21 18  1  0  0  0  0
 22 18  2  0  0  0  0
M  RAD  3   2   2   3   3  21   2
M  END
