Coordinates from ORCA-job 4-MeOPhN2+~TfO-_B3LYPG-6-31G_dp-NX-Scan-d89-09-n800
 OpenBabel11261920223D

 25 24  0  0  0  0  0  0  0  0999 V2000
   -4.4299   -2.6139   -0.4508 C   0  0  0  0  0  0  0  0  0  0  0  0
   -5.1873   -2.9409    0.6563 N   0  0  0  0  0  0  0  0  0  0  0  0
   -5.8465   -2.7168    1.5570 N   0  0  0  0  0  0  0  0  0  0  0  0
   -3.7068   -3.6349   -1.0951 C   0  0  0  0  0  0  0  0  0  0  0  0
   -2.9385   -3.3134   -2.1934 C   0  0  0  0  0  0  0  0  0  0  0  0
   -2.8903   -1.9799   -2.6576 C   0  0  0  0  0  0  0  0  0  0  0  0
   -2.1082   -1.7745   -3.7294 O   0  0  0  0  0  0  0  0  0  0  0  0
   -1.9704   -0.4509   -4.2545 C   0  0  0  0  0  0  0  0  0  0  0  0
   -3.6319   -0.9724   -2.0092 C   0  0  0  0  0  0  0  0  0  0  0  0
   -4.4019   -1.2816   -0.9002 C   0  0  0  0  0  0  0  0  0  0  0  0
   -3.7524   -4.6511   -0.7195 H   0  0  0  0  0  0  0  0  0  0  0  0
   -2.3586   -4.0644   -2.7170 H   0  0  0  0  0  0  0  0  0  0  0  0
   -1.2853   -0.5406   -5.0970 H   0  0  0  0  0  0  0  0  0  0  0  0
   -1.5462    0.2273   -3.5060 H   0  0  0  0  0  0  0  0  0  0  0  0
   -2.9328   -0.0631   -4.6052 H   0  0  0  0  0  0  0  0  0  0  0  0
   -3.6051    0.0517   -2.3582 H   0  0  0  0  0  0  0  0  0  0  0  0
   -4.9836   -0.5314   -0.3784 H   0  0  0  0  0  0  0  0  0  0  0  0
   -5.0270   -0.0173    2.4604 S   0  0  0  0  0  0  0  0  0  0  0  0
   -5.6561   -0.2241    4.1957 C   0  0  0  0  0  0  0  0  0  0  0  0
   -6.1390   -0.6779    1.6413 O   0  0  0  0  0  0  0  0  0  0  0  0
   -3.7810   -0.8019    2.4073 O   0  0  0  0  0  0  0  0  0  0  0  0
   -4.9578    1.4280    2.2296 O   0  0  0  0  0  0  0  0  0  0  0  0
   -6.8214    0.4120    4.3552 F   0  0  0  0  0  0  0  0  0  0  0  0
   -5.8386   -1.5275    4.4647 F   0  0  0  0  0  0  0  0  0  0  0  0
   -4.7703    0.2714    5.0680 F   0  0  0  0  0  0  0  0  0  0  0  0
  1  2  1  0  0  0  0
  2  3  2  0  0  0  0
  4 11  1  0  0  0  0
  4  1  2  0  0  0  0
  5  4  1  0  0  0  0
  6  5  2  0  0  0  0
  6  9  1  0  0  0  0
  7  6  1  0  0  0  0
  8  7  1  0  0  0  0
  8 14  1  0  0  0  0
  9 10  2  0  0  0  0
 10  1  1  0  0  0  0
 10 17  1  0  0  0  0
 12  5  1  0  0  0  0
 13  8  1  0  0  0  0
 15  8  1  0  0  0  0
 16  9  1  0  0  0  0
 18 19  1  0  0  0  0
 19 23  1  0  0  0  0
 19 24  1  0  0  0  0
 19 25  1  0  0  0  0
 20 18  2  0  0  0  0
 21 18  1  0  0  0  0
 22 18  2  0  0  0  0
M  RAD  2   3   2  21   2
M  END
