Coordinates from ORCA-job 4-MeOPhN2+~TfO-_B3LYPG-6-31G_dp-NX-Scan-d89-09-n800
 OpenBabel11261920223D

 25 24  0  0  0  0  0  0  0  0999 V2000
   -4.1309   -2.5916   -0.4223 C   0  0  0  0  0  0  0  0  0  0  0  0
   -4.7023   -2.9368    0.7956 N   0  0  0  0  0  0  0  0  0  0  0  0
   -5.1826   -2.5845    1.7845 N   0  0  0  0  0  0  0  0  0  0  0  0
   -3.6640   -3.6445   -1.2322 C   0  0  0  0  0  0  0  0  0  0  0  0
   -3.0787   -3.3553   -2.4472 C   0  0  0  0  0  0  0  0  0  0  0  0
   -2.9518   -2.0139   -2.8667 C   0  0  0  0  0  0  0  0  0  0  0  0
   -2.3660   -1.8384   -4.0646 O   0  0  0  0  0  0  0  0  0  0  0  0
   -2.1798   -0.5127   -4.5648 C   0  0  0  0  0  0  0  0  0  0  0  0
   -3.4239   -0.9679   -2.0504 C   0  0  0  0  0  0  0  0  0  0  0  0
   -4.0157   -1.2491   -0.8277 C   0  0  0  0  0  0  0  0  0  0  0  0
   -3.7669   -4.6685   -0.8898 H   0  0  0  0  0  0  0  0  0  0  0  0
   -2.7057   -4.1383   -3.0970 H   0  0  0  0  0  0  0  0  0  0  0  0
   -1.6883   -0.6299   -5.5301 H   0  0  0  0  0  0  0  0  0  0  0  0
   -1.5412    0.0756   -3.8968 H   0  0  0  0  0  0  0  0  0  0  0  0
   -3.1397   -0.0033   -4.7025 H   0  0  0  0  0  0  0  0  0  0  0  0
   -3.3330    0.0652   -2.3619 H   0  0  0  0  0  0  0  0  0  0  0  0
   -4.3880   -0.4649   -0.1802 H   0  0  0  0  0  0  0  0  0  0  0  0
   -4.7604   -0.0484    3.0484 S   0  0  0  0  0  0  0  0  0  0  0  0
   -6.2209   -0.1478    4.1936 C   0  0  0  0  0  0  0  0  0  0  0  0
   -5.3445   -0.7104    1.7684 O   0  0  0  0  0  0  0  0  0  0  0  0
   -3.7186   -0.8740    3.6613 O   0  0  0  0  0  0  0  0  0  0  0  0
   -4.5268    1.3754    2.8118 O   0  0  0  0  0  0  0  0  0  0  0  0
   -7.2569    0.5312    3.6905 F   0  0  0  0  0  0  0  0  0  0  0  0
   -6.5837   -1.4266    4.3626 F   0  0  0  0  0  0  0  0  0  0  0  0
   -5.8968    0.3711    5.3819 F   0  0  0  0  0  0  0  0  0  0  0  0
  1  2  1  0  0  0  0
  2  3  2  0  0  0  0
  4 11  1  0  0  0  0
  4  1  2  0  0  0  0
  5  4  1  0  0  0  0
  6  5  2  0  0  0  0
  6  9  1  0  0  0  0
  7  6  1  0  0  0  0
  8  7  1  0  0  0  0
  8 14  1  0  0  0  0
  9 10  2  0  0  0  0
 10  1  1  0  0  0  0
 10 17  1  0  0  0  0
 12  5  1  0  0  0  0
 13  8  1  0  0  0  0
 15  8  1  0  0  0  0
 16  9  1  0  0  0  0
 18 21  1  0  0  0  0
 18 19  1  0  0  0  0
 19 24  1  0  0  0  0
 19 25  1  0  0  0  0
 20 18  2  0  0  0  0
 22 18  2  0  0  0  0
 23 19  1  0  0  0  0
M  RAD  2   3   2  21   2
M  END
