Coordinates from ORCA-job 4-MeOPhN2+~TfO-_B3LYPG-6-31G_dp-NX-Scan-d89-09-n800
 OpenBabel11261920223D

 25 24  0  0  0  0  0  0  0  0999 V2000
   -4.2175   -3.0031   -0.3954 C   0  0  0  0  0  0  0  0  0  0  0  0
   -4.8984   -3.6259    0.6192 N   0  0  0  0  0  0  0  0  0  0  0  0
   -5.4154   -4.2437    1.3925 N   0  0  0  0  0  0  0  0  0  0  0  0
   -3.3809   -3.8223   -1.1956 C   0  0  0  0  0  0  0  0  0  0  0  0
   -2.6912   -3.2359   -2.2286 C   0  0  0  0  0  0  0  0  0  0  0  0
   -2.8263   -1.8461   -2.4778 C   0  0  0  0  0  0  0  0  0  0  0  0
   -2.1095   -1.3833   -3.5070 O   0  0  0  0  0  0  0  0  0  0  0  0
   -2.1677    0.0114   -3.8365 C   0  0  0  0  0  0  0  0  0  0  0  0
   -3.6673   -1.0574   -1.6702 C   0  0  0  0  0  0  0  0  0  0  0  0
   -4.3706   -1.6234   -0.6199 C   0  0  0  0  0  0  0  0  0  0  0  0
   -3.2878   -4.8829   -0.9884 H   0  0  0  0  0  0  0  0  0  0  0  0
   -2.0351   -3.8156   -2.8677 H   0  0  0  0  0  0  0  0  0  0  0  0
   -1.5093    0.1339   -4.6954 H   0  0  0  0  0  0  0  0  0  0  0  0
   -1.8086    0.6245   -3.0039 H   0  0  0  0  0  0  0  0  0  0  0  0
   -3.1864    0.3070   -4.1067 H   0  0  0  0  0  0  0  0  0  0  0  0
   -3.7796    0.0059   -1.8403 H   0  0  0  0  0  0  0  0  0  0  0  0
   -5.0094   -1.0051    0.0140 H   0  0  0  0  0  0  0  0  0  0  0  0
   -6.1032   -0.3238    2.2604 S   0  0  0  0  0  0  0  0  0  0  0  0
   -5.0303    0.3267    3.6290 C   0  0  0  0  0  0  0  0  0  0  0  0
   -7.4769   -0.1415    2.7402 O   0  0  0  0  0  0  0  0  0  0  0  0
   -5.6487   -1.7466    2.1333 O   0  0  0  0  0  0  0  0  0  0  0  0
   -5.6922    0.4866    1.0815 O   0  0  0  0  0  0  0  0  0  0  0  0
   -5.2673    1.6288    3.8405 F   0  0  0  0  0  0  0  0  0  0  0  0
   -5.2594   -0.3393    4.7706 F   0  0  0  0  0  0  0  0  0  0  0  0
   -3.7277    0.1828    3.3166 F   0  0  0  0  0  0  0  0  0  0  0  0
  1  2  1  0  0  0  0
  2  3  1  0  0  0  0
  4 11  1  0  0  0  0
  4  1  2  0  0  0  0
  5  4  1  0  0  0  0
  6  5  2  0  0  0  0
  6  9  1  0  0  0  0
  7  6  1  0  0  0  0
  8  7  1  0  0  0  0
  8 14  1  0  0  0  0
  9 10  2  0  0  0  0
 10  1  1  0  0  0  0
 10 17  1  0  0  0  0
 12  5  1  0  0  0  0
 13  8  1  0  0  0  0
 15  8  1  0  0  0  0
 16  9  1  0  0  0  0
 18 20  1  0  0  0  0
 18 19  1  0  0  0  0
 19 23  1  0  0  0  0
 19 24  1  0  0  0  0
 21 18  2  0  0  0  0
 22 18  2  0  0  0  0
 25 19  1  0  0  0  0
M  RAD  3   2   2   3   3  20   2
M  END
