Coordinates from ORCA-job 4-MeOPhN2+~TfO-_B3LYPG-6-31G_dp-NX-Scan-d89-09-n800
 OpenBabel11261920223D

 25 24  0  0  0  0  0  0  0  0999 V2000
   -3.9907   -2.8798   -0.3615 C   0  0  0  0  0  0  0  0  0  0  0  0
   -4.5125   -3.3586    0.8167 N   0  0  0  0  0  0  0  0  0  0  0  0
   -4.9032   -3.5011    1.8620 N   0  0  0  0  0  0  0  0  0  0  0  0
   -3.8032   -3.7819   -1.4306 C   0  0  0  0  0  0  0  0  0  0  0  0
   -3.2865   -3.3011   -2.6120 C   0  0  0  0  0  0  0  0  0  0  0  0
   -2.9628   -1.9289   -2.7391 C   0  0  0  0  0  0  0  0  0  0  0  0
   -2.4741   -1.5679   -3.9328 O   0  0  0  0  0  0  0  0  0  0  0  0
   -2.1329   -0.1967   -4.1693 C   0  0  0  0  0  0  0  0  0  0  0  0
   -3.1620   -1.0464   -1.6594 C   0  0  0  0  0  0  0  0  0  0  0  0
   -3.6757   -1.5109   -0.4595 C   0  0  0  0  0  0  0  0  0  0  0  0
   -4.0647   -4.8278   -1.3155 H   0  0  0  0  0  0  0  0  0  0  0  0
   -3.1224   -3.9519   -3.4630 H   0  0  0  0  0  0  0  0  0  0  0  0
   -1.7729   -0.1601   -5.1967 H   0  0  0  0  0  0  0  0  0  0  0  0
   -1.3409    0.1335   -3.4894 H   0  0  0  0  0  0  0  0  0  0  0  0
   -3.0100    0.4494   -4.0620 H   0  0  0  0  0  0  0  0  0  0  0  0
   -2.9272    0.0067   -1.7447 H   0  0  0  0  0  0  0  0  0  0  0  0
   -3.8544   -0.8283    0.3696 H   0  0  0  0  0  0  0  0  0  0  0  0
   -5.4976   -0.4539    2.4078 S   0  0  0  0  0  0  0  0  0  0  0  0
   -5.9037    0.3978    4.0070 C   0  0  0  0  0  0  0  0  0  0  0  0
   -6.7593   -1.0666    1.9522 O   0  0  0  0  0  0  0  0  0  0  0  0
   -4.4529   -1.4617    2.8128 O   0  0  0  0  0  0  0  0  0  0  0  0
   -4.9362    0.6140    1.5479 O   0  0  0  0  0  0  0  0  0  0  0  0
   -6.8246    1.3495    3.8027 F   0  0  0  0  0  0  0  0  0  0  0  0
   -6.3881   -0.4830    4.8937 F   0  0  0  0  0  0  0  0  0  0  0  0
   -4.8085    0.9675    4.5275 F   0  0  0  0  0  0  0  0  0  0  0  0
  1  2  1  0  0  0  0
  2  3  1  0  0  0  0
  4 11  1  0  0  0  0
  4  1  2  0  0  0  0
  5  4  1  0  0  0  0
  6  5  2  0  0  0  0
  6  9  1  0  0  0  0
  7  6  1  0  0  0  0
  8 15  1  0  0  0  0
  8  7  1  0  0  0  0
  8 14  1  0  0  0  0
  9 10  2  0  0  0  0
 10  1  1  0  0  0  0
 10 17  1  0  0  0  0
 12  5  1  0  0  0  0
 13  8  1  0  0  0  0
 16  9  1  0  0  0  0
 18 21  1  0  0  0  0
 18 19  1  0  0  0  0
 19 25  1  0  0  0  0
 19 24  1  0  0  0  0
 20 18  2  0  0  0  0
 22 18  2  0  0  0  0
 23 19  1  0  0  0  0
M  RAD  3   2   2   3   3  21   2
M  END
