Coordinates from ORCA-job 4-MeOPhN2+~TfO-_B3LYPG-6-31G_dp-NX-Scan-d89-09-n800
 OpenBabel11261920223D

 25 24  0  0  0  0  0  0  0  0999 V2000
   -4.1383   -2.9578   -0.4761 C   0  0  0  0  0  0  0  0  0  0  0  0
   -4.7726   -3.4697    0.6307 N   0  0  0  0  0  0  0  0  0  0  0  0
   -5.2712   -3.6473    1.6221 N   0  0  0  0  0  0  0  0  0  0  0  0
   -3.6277   -3.8510   -1.4425 C   0  0  0  0  0  0  0  0  0  0  0  0
   -2.9893   -3.3252   -2.5421 C   0  0  0  0  0  0  0  0  0  0  0  0
   -2.8674   -1.9217   -2.6904 C   0  0  0  0  0  0  0  0  0  0  0  0
   -2.2327   -1.5213   -3.7997 O   0  0  0  0  0  0  0  0  0  0  0  0
   -2.0575   -0.1205   -4.0444 C   0  0  0  0  0  0  0  0  0  0  0  0
   -3.3976   -1.0522   -1.7175 C   0  0  0  0  0  0  0  0  0  0  0  0
   -4.0366   -1.5591   -0.5977 C   0  0  0  0  0  0  0  0  0  0  0  0
   -3.7334   -4.9225   -1.3112 H   0  0  0  0  0  0  0  0  0  0  0  0
   -2.5725   -3.9640   -3.3119 H   0  0  0  0  0  0  0  0  0  0  0  0
   -1.5187   -0.0558   -4.9889 H   0  0  0  0  0  0  0  0  0  0  0  0
   -1.4664    0.3454   -3.2492 H   0  0  0  0  0  0  0  0  0  0  0  0
   -3.0238    0.3854   -4.1353 H   0  0  0  0  0  0  0  0  0  0  0  0
   -3.3204    0.0227   -1.8224 H   0  0  0  0  0  0  0  0  0  0  0  0
   -4.4709   -0.8962    0.1555 H   0  0  0  0  0  0  0  0  0  0  0  0
   -5.7724   -0.5103    2.4592 S   0  0  0  0  0  0  0  0  0  0  0  0
   -5.5354    0.5050    3.9960 C   0  0  0  0  0  0  0  0  0  0  0  0
   -7.1789   -0.9376    2.4801 O   0  0  0  0  0  0  0  0  0  0  0  0
   -4.7795   -1.6260    2.6454 O   0  0  0  0  0  0  0  0  0  0  0  0
   -5.3747    0.4062    1.3582 O   0  0  0  0  0  0  0  0  0  0  0  0
   -6.3471    1.5713    3.9752 F   0  0  0  0  0  0  0  0  0  0  0  0
   -5.8133   -0.2231    5.0860 F   0  0  0  0  0  0  0  0  0  0  0  0
   -4.2685    0.9370    4.0851 F   0  0  0  0  0  0  0  0  0  0  0  0
  1  2  1  0  0  0  0
  2  3  1  0  0  0  0
  4 11  1  0  0  0  0
  4  1  2  0  0  0  0
  5  4  1  0  0  0  0
  6  5  2  0  0  0  0
  6  9  1  0  0  0  0
  7  6  1  0  0  0  0
  8  7  1  0  0  0  0
  8 14  1  0  0  0  0
  9 10  2  0  0  0  0
 10  1  1  0  0  0  0
 10 17  1  0  0  0  0
 12  5  1  0  0  0  0
 13  8  1  0  0  0  0
 15  8  1  0  0  0  0
 16  9  1  0  0  0  0
 18 20  2  0  0  0  0
 18 21  1  0  0  0  0
 18 19  1  0  0  0  0
 19 25  1  0  0  0  0
 19 24  1  0  0  0  0
 22 18  2  0  0  0  0
 23 19  1  0  0  0  0
M  RAD  3   2   2   3   3  21   2
M  END
