Coordinates from ORCA-job 4-MeOPhN2+~TfO-_B3LYPG-6-31G_dp-NX-Scan-d89-09-n800
 OpenBabel11261920223D

 25 24  0  0  0  0  0  0  0  0999 V2000
   -4.0817   -4.1538   -0.2758 C   0  0  0  0  0  0  0  0  0  0  0  0
   -4.4775   -5.3959    0.0632 N   0  0  0  0  0  0  0  0  0  0  0  0
   -4.7956   -6.4426    0.3323 N   0  0  0  0  0  0  0  0  0  0  0  0
   -4.9521   -3.3151   -1.0360 C   0  0  0  0  0  0  0  0  0  0  0  0
   -4.5041   -2.0774   -1.4080 C   0  0  0  0  0  0  0  0  0  0  0  0
   -3.2102   -1.6403   -1.0081 C   0  0  0  0  0  0  0  0  0  0  0  0
   -2.8668   -0.4441   -1.4342 O   0  0  0  0  0  0  0  0  0  0  0  0
   -1.7455    0.2559   -0.8721 C   0  0  0  0  0  0  0  0  0  0  0  0
   -2.3713   -2.4694   -0.2108 C   0  0  0  0  0  0  0  0  0  0  0  0
   -2.7946   -3.7249    0.1470 C   0  0  0  0  0  0  0  0  0  0  0  0
   -5.9548   -3.6441   -1.2821 H   0  0  0  0  0  0  0  0  0  0  0  0
   -5.1420   -1.3413   -1.9002 H   0  0  0  0  0  0  0  0  0  0  0  0
   -1.7846    1.2480   -1.3167 H   0  0  0  0  0  0  0  0  0  0  0  0
   -0.8036   -0.2363   -1.1355 H   0  0  0  0  0  0  0  0  0  0  0  0
   -1.8671    0.3334    0.2102 H   0  0  0  0  0  0  0  0  0  0  0  0
   -1.3985   -2.1223    0.1118 H   0  0  0  0  0  0  0  0  0  0  0  0
   -2.1678   -4.3849    0.7366 H   0  0  0  0  0  0  0  0  0  0  0  0
   -6.4637    0.6561   -0.2847 S   0  0  0  0  0  0  0  0  0  0  0  0
   -5.0732    1.1274    0.8741 C   0  0  0  0  0  0  0  0  0  0  0  0
   -7.4001    1.7811   -0.1483 O   0  0  0  0  0  0  0  0  0  0  0  0
   -6.8897   -0.6565    0.2555 O   0  0  0  0  0  0  0  0  0  0  0  0
   -5.7588    0.5591   -1.5950 O   0  0  0  0  0  0  0  0  0  0  0  0
   -4.3250    2.1361    0.3876 F   0  0  0  0  0  0  0  0  0  0  0  0
   -5.5236    1.4877    2.0816 F   0  0  0  0  0  0  0  0  0  0  0  0
   -4.2151    0.0761    1.0720 F   0  0  0  0  0  0  0  0  0  0  0  0
  1  2  1  0  0  0  0
  1 10  2  0  0  0  0
  2  3  1  0  0  0  0
  4  1  1  0  0  0  0
  5  4  2  0  0  0  0
  5  6  1  0  0  0  0
  6  9  2  0  0  0  0
  7  6  1  0  0  0  0
  7  8  1  0  0  0  0
  8 15  1  0  0  0  0
  9 16  1  0  0  0  0
  9 10  1  0  0  0  0
 10 17  1  0  0  0  0
 11  4  1  0  0  0  0
 12  5  1  0  0  0  0
 13  8  1  0  0  0  0
 14  8  1  0  0  0  0
 18 20  2  0  0  0  0
 18 21  1  0  0  0  0
 18 19  1  0  0  0  0
 19 25  1  0  0  0  0
 19 24  1  0  0  0  0
 22 18  2  0  0  0  0
 23 19  1  0  0  0  0
M  RAD  3   2   2   3   3  21   2
M  END
