Coordinates from ORCA-job 4-MeOPhN2+~TfO-_B3LYPG-6-31G_dp-NX-Scan-d89-09-n800
 OpenBabel11261920223D

 25 24  0  0  0  0  0  0  0  0999 V2000
   -4.1579   -3.0002   -0.4864 C   0  0  0  0  0  0  0  0  0  0  0  0
   -4.8091   -3.5411    0.5939 N   0  0  0  0  0  0  0  0  0  0  0  0
   -5.3417   -3.7909    1.5488 N   0  0  0  0  0  0  0  0  0  0  0  0
   -3.5753   -3.8708   -1.4340 C   0  0  0  0  0  0  0  0  0  0  0  0
   -2.9204   -3.3164   -2.5087 C   0  0  0  0  0  0  0  0  0  0  0  0
   -2.8506   -1.9080   -2.6502 C   0  0  0  0  0  0  0  0  0  0  0  0
   -2.1928   -1.4795   -3.7343 O   0  0  0  0  0  0  0  0  0  0  0  0
   -2.0629   -0.0717   -3.9698 C   0  0  0  0  0  0  0  0  0  0  0  0
   -3.4502   -1.0636   -1.6958 C   0  0  0  0  0  0  0  0  0  0  0  0
   -4.1095   -1.5977   -0.6007 C   0  0  0  0  0  0  0  0  0  0  0  0
   -3.6407   -4.9461   -1.3072 H   0  0  0  0  0  0  0  0  0  0  0  0
   -2.4500   -3.9353   -3.2637 H   0  0  0  0  0  0  0  0  0  0  0  0
   -1.4955    0.0166   -4.8955 H   0  0  0  0  0  0  0  0  0  0  0  0
   -1.5173    0.4131   -3.1538 H   0  0  0  0  0  0  0  0  0  0  0  0
   -3.0444    0.3972   -4.0921 H   0  0  0  0  0  0  0  0  0  0  0  0
   -3.4119    0.0140   -1.7954 H   0  0  0  0  0  0  0  0  0  0  0  0
   -4.5935   -0.9499    0.1380 H   0  0  0  0  0  0  0  0  0  0  0  0
   -5.8866   -0.5189    2.4542 S   0  0  0  0  0  0  0  0  0  0  0  0
   -5.4021    0.5379    3.9027 C   0  0  0  0  0  0  0  0  0  0  0  0
   -7.3119   -0.8165    2.6492 O   0  0  0  0  0  0  0  0  0  0  0  0
   -4.9643   -1.6980    2.5885 O   0  0  0  0  0  0  0  0  0  0  0  0
   -5.5420    0.3199    1.2738 O   0  0  0  0  0  0  0  0  0  0  0  0
   -6.1192    1.6701    3.9133 F   0  0  0  0  0  0  0  0  0  0  0  0
   -5.6166   -0.1144    5.0537 F   0  0  0  0  0  0  0  0  0  0  0  0
   -4.1005    0.8618    3.8359 F   0  0  0  0  0  0  0  0  0  0  0  0
  1  2  1  0  0  0  0
  2  3  1  0  0  0  0
  4 11  1  0  0  0  0
  4  1  2  0  0  0  0
  5  4  1  0  0  0  0
  6  5  2  0  0  0  0
  6  9  1  0  0  0  0
  7  6  1  0  0  0  0
  8  7  1  0  0  0  0
  8 14  1  0  0  0  0
  9 10  2  0  0  0  0
 10  1  1  0  0  0  0
 10 17  1  0  0  0  0
 12  5  1  0  0  0  0
 13  8  1  0  0  0  0
 15  8  1  0  0  0  0
 16  9  1  0  0  0  0
 18 21  2  0  0  0  0
 18 20  1  0  0  0  0
 18 19  1  0  0  0  0
 19 23  1  0  0  0  0
 19 24  1  0  0  0  0
 22 18  2  0  0  0  0
 25 19  1  0  0  0  0
M  RAD  3   2   2   3   3  20   2
M  END
