Coordinates from ORCA-job 4-MeOPhN2+~TfO-_B3LYPG-6-31G_dp-NX-Scan-d89-09-n800
 OpenBabel11261920223D

 25 24  0  0  0  0  0  0  0  0999 V2000
   -4.2474   -3.0244   -0.4655 C   0  0  0  0  0  0  0  0  0  0  0  0
   -4.9502   -3.6244    0.5453 N   0  0  0  0  0  0  0  0  0  0  0  0
   -5.5282   -4.1255    1.3586 N   0  0  0  0  0  0  0  0  0  0  0  0
   -3.4704   -3.8582   -1.3065 C   0  0  0  0  0  0  0  0  0  0  0  0
   -2.7658   -3.2718   -2.3298 C   0  0  0  0  0  0  0  0  0  0  0  0
   -2.8315   -1.8690   -2.5276 C   0  0  0  0  0  0  0  0  0  0  0  0
   -2.1068   -1.4078   -3.5522 O   0  0  0  0  0  0  0  0  0  0  0  0
   -2.0943   -0.0013   -3.8316 C   0  0  0  0  0  0  0  0  0  0  0  0
   -3.6188   -1.0657   -1.6804 C   0  0  0  0  0  0  0  0  0  0  0  0
   -4.3341   -1.6302   -0.6376 C   0  0  0  0  0  0  0  0  0  0  0  0
   -3.4310   -4.9290   -1.1372 H   0  0  0  0  0  0  0  0  0  0  0  0
   -2.1507   -3.8609   -3.0002 H   0  0  0  0  0  0  0  0  0  0  0  0
   -1.4413    0.1168   -4.6954 H   0  0  0  0  0  0  0  0  0  0  0  0
   -1.6920    0.5618   -2.9834 H   0  0  0  0  0  0  0  0  0  0  0  0
   -3.0989    0.3577   -4.0765 H   0  0  0  0  0  0  0  0  0  0  0  0
   -3.6793    0.0067   -1.8169 H   0  0  0  0  0  0  0  0  0  0  0  0
   -4.9391   -1.0039    0.0266 H   0  0  0  0  0  0  0  0  0  0  0  0
   -5.9997   -0.4640    2.3698 S   0  0  0  0  0  0  0  0  0  0  0  0
   -5.1182    0.4866    3.6980 C   0  0  0  0  0  0  0  0  0  0  0  0
   -7.3939   -0.5449    2.8212 O   0  0  0  0  0  0  0  0  0  0  0  0
   -5.2594   -1.7646    2.3392 O   0  0  0  0  0  0  0  0  0  0  0  0
   -5.7464    0.3421    1.1420 O   0  0  0  0  0  0  0  0  0  0  0  0
   -5.6415    1.7143    3.8282 F   0  0  0  0  0  0  0  0  0  0  0  0
   -5.2153   -0.1450    4.8772 F   0  0  0  0  0  0  0  0  0  0  0  0
   -3.8126    0.6163    3.3989 F   0  0  0  0  0  0  0  0  0  0  0  0
  1  2  1  0  0  0  0
  2  3  1  0  0  0  0
  4 11  1  0  0  0  0
  4  1  2  0  0  0  0
  5  4  1  0  0  0  0
  6  5  2  0  0  0  0
  6  9  1  0  0  0  0
  7  6  1  0  0  0  0
  8  7  1  0  0  0  0
  8 14  1  0  0  0  0
  9 10  2  0  0  0  0
 10  1  1  0  0  0  0
 10 17  1  0  0  0  0
 12  5  1  0  0  0  0
 13  8  1  0  0  0  0
 15  8  1  0  0  0  0
 16  9  1  0  0  0  0
 18 20  1  0  0  0  0
 18 19  1  0  0  0  0
 19 23  1  0  0  0  0
 19 24  1  0  0  0  0
 21 18  2  0  0  0  0
 22 18  2  0  0  0  0
 25 19  1  0  0  0  0
M  RAD  3   2   2   3   3  20   2
M  END
