Coordinates from ORCA-job 4-MeOPhN2+~TfO-_B3LYPG-6-31G_dp-NX-Scan-d89-09-n800
 OpenBabel11261920223D

 25 24  0  0  0  0  0  0  0  0999 V2000
   -4.6917   -3.4371   -0.4881 C   0  0  0  0  0  0  0  0  0  0  0  0
   -5.4733   -4.1882    0.3237 N   0  0  0  0  0  0  0  0  0  0  0  0
   -6.1110   -4.8147    0.9977 N   0  0  0  0  0  0  0  0  0  0  0  0
   -3.4424   -3.9595   -0.9156 C   0  0  0  0  0  0  0  0  0  0  0  0
   -2.6062   -3.1276   -1.6150 C   0  0  0  0  0  0  0  0  0  0  0  0
   -2.9817   -1.7772   -1.8618 C   0  0  0  0  0  0  0  0  0  0  0  0
   -2.0519   -1.0297   -2.4540 O   0  0  0  0  0  0  0  0  0  0  0  0
   -2.2634    0.3906   -2.5595 C   0  0  0  0  0  0  0  0  0  0  0  0
   -4.2487   -1.3021   -1.4753 C   0  0  0  0  0  0  0  0  0  0  0  0
   -5.1106   -2.1217   -0.7782 C   0  0  0  0  0  0  0  0  0  0  0  0
   -3.1560   -4.9759   -0.6712 H   0  0  0  0  0  0  0  0  0  0  0  0
   -1.6312   -3.4611   -1.9496 H   0  0  0  0  0  0  0  0  0  0  0  0
   -1.3299    0.7919   -2.9512 H   0  0  0  0  0  0  0  0  0  0  0  0
   -2.4763    0.8150   -1.5744 H   0  0  0  0  0  0  0  0  0  0  0  0
   -3.0811    0.6112   -3.2525 H   0  0  0  0  0  0  0  0  0  0  0  0
   -4.5529   -0.2756   -1.6276 H   0  0  0  0  0  0  0  0  0  0  0  0
   -6.0460   -1.7201   -0.4076 H   0  0  0  0  0  0  0  0  0  0  0  0
   -5.8098   -0.2692    1.8985 S   0  0  0  0  0  0  0  0  0  0  0  0
   -4.1338    0.5338    2.0298 C   0  0  0  0  0  0  0  0  0  0  0  0
   -6.5424    0.2644    3.0521 O   0  0  0  0  0  0  0  0  0  0  0  0
   -5.4816   -1.7260    1.9416 O   0  0  0  0  0  0  0  0  0  0  0  0
   -6.2736    0.1749    0.5539 O   0  0  0  0  0  0  0  0  0  0  0  0
   -4.2337    1.8699    2.0125 F   0  0  0  0  0  0  0  0  0  0  0  0
   -3.5006    0.1696    3.1528 F   0  0  0  0  0  0  0  0  0  0  0  0
   -3.3370    0.1761    0.9832 F   0  0  0  0  0  0  0  0  0  0  0  0
  1  2  1  0  0  0  0
  2  3  1  0  0  0  0
  4 11  1  0  0  0  0
  4  1  2  0  0  0  0
  5  4  1  0  0  0  0
  6  5  2  0  0  0  0
  6  9  1  0  0  0  0
  7  6  1  0  0  0  0
  8  7  1  0  0  0  0
  8 14  1  0  0  0  0
  9 10  2  0  0  0  0
 10  1  1  0  0  0  0
 10 17  1  0  0  0  0
 12  5  1  0  0  0  0
 13  8  1  0  0  0  0
 15  8  1  0  0  0  0
 16  9  1  0  0  0  0
 18 21  2  0  0  0  0
 18 19  1  0  0  0  0
 18 20  1  0  0  0  0
 19 24  1  0  0  0  0
 22 18  2  0  0  0  0
 23 19  1  0  0  0  0
 25 19  1  0  0  0  0
M  RAD  3   2   2   3   3  20   2
M  END
