Coordinates from ORCA-job 4-MeOPhN2+~TfO-_B3LYPG-6-31G_dp-NX-Scan-d89-09-n800
 OpenBabel11261920223D

 25 24  0  0  0  0  0  0  0  0999 V2000
   -4.4760   -2.7336   -0.5360 C   0  0  0  0  0  0  0  0  0  0  0  0
   -5.2749   -3.1729    0.4882 N   0  0  0  0  0  0  0  0  0  0  0  0
   -5.9522   -3.4839    1.3259 N   0  0  0  0  0  0  0  0  0  0  0  0
   -3.8219   -3.7089   -1.3219 C   0  0  0  0  0  0  0  0  0  0  0  0
   -3.0195   -3.2882   -2.3567 C   0  0  0  0  0  0  0  0  0  0  0  0
   -2.8665   -1.9057   -2.6190 C   0  0  0  0  0  0  0  0  0  0  0  0
   -2.0616   -1.6081   -3.6474 O   0  0  0  0  0  0  0  0  0  0  0  0
   -1.8281   -0.2362   -3.9861 C   0  0  0  0  0  0  0  0  0  0  0  0
   -3.5352   -0.9516   -1.8280 C   0  0  0  0  0  0  0  0  0  0  0  0
   -4.3406   -1.3518   -0.7748 C   0  0  0  0  0  0  0  0  0  0  0  0
   -3.9502   -4.7634   -1.1034 H   0  0  0  0  0  0  0  0  0  0  0  0
   -2.4916   -3.9963   -2.9847 H   0  0  0  0  0  0  0  0  0  0  0  0
   -1.1465   -0.2583   -4.8357 H   0  0  0  0  0  0  0  0  0  0  0  0
   -1.3618    0.2997   -3.1525 H   0  0  0  0  0  0  0  0  0  0  0  0
   -2.7599    0.2608   -4.2754 H   0  0  0  0  0  0  0  0  0  0  0  0
   -3.4240    0.1080   -2.0181 H   0  0  0  0  0  0  0  0  0  0  0  0
   -4.8479   -0.6209   -0.1467 H   0  0  0  0  0  0  0  0  0  0  0  0
   -5.4771   -0.5768    2.4208 S   0  0  0  0  0  0  0  0  0  0  0  0
   -5.3798    0.3058    4.0511 C   0  0  0  0  0  0  0  0  0  0  0  0
   -6.5981   -1.5492    2.5942 O   0  0  0  0  0  0  0  0  0  0  0  0
   -4.1558   -1.2347    2.2619 O   0  0  0  0  0  0  0  0  0  0  0  0
   -5.7422    0.4941    1.4292 O   0  0  0  0  0  0  0  0  0  0  0  0
   -6.5234    0.9558    4.3034 F   0  0  0  0  0  0  0  0  0  0  0  0
   -5.1554   -0.5674    5.0427 F   0  0  0  0  0  0  0  0  0  0  0  0
   -4.3766    1.1954    4.0335 F   0  0  0  0  0  0  0  0  0  0  0  0
  1  2  1  0  0  0  0
  2  3  1  0  0  0  0
  4 11  1  0  0  0  0
  4  1  2  0  0  0  0
  5  4  1  0  0  0  0
  6  5  2  0  0  0  0
  6  9  1  0  0  0  0
  7  6  1  0  0  0  0
  8  7  1  0  0  0  0
  8 14  1  0  0  0  0
  9 10  2  0  0  0  0
 10  1  1  0  0  0  0
 10 17  1  0  0  0  0
 12  5  1  0  0  0  0
 13  8  1  0  0  0  0
 15  8  1  0  0  0  0
 16  9  1  0  0  0  0
 18 20  1  0  0  0  0
 18 19  1  0  0  0  0
 19 23  1  0  0  0  0
 19 24  1  0  0  0  0
 21 18  2  0  0  0  0
 22 18  2  0  0  0  0
 25 19  1  0  0  0  0
M  RAD  3   2   2   3   3  20   2
M  END
