Coordinates from ORCA-job 4-MeOPhN2+~TfO-_B3LYPG-6-31G_dp-NX-Scan-d89-09-n800
 OpenBabel11261920223D

 25 24  0  0  0  0  0  0  0  0999 V2000
   -4.4293   -2.6121   -0.4505 C   0  0  0  0  0  0  0  0  0  0  0  0
   -5.1867   -2.9386    0.6571 N   0  0  0  0  0  0  0  0  0  0  0  0
   -5.8455   -2.7095    1.5573 N   0  0  0  0  0  0  0  0  0  0  0  0
   -3.7069   -3.6336   -1.0945 C   0  0  0  0  0  0  0  0  0  0  0  0
   -2.9388   -3.3129   -2.1934 C   0  0  0  0  0  0  0  0  0  0  0  0
   -2.8901   -1.9799   -2.6584 C   0  0  0  0  0  0  0  0  0  0  0  0
   -2.1083   -1.7755   -3.7308 O   0  0  0  0  0  0  0  0  0  0  0  0
   -1.9703   -0.4523   -4.2567 C   0  0  0  0  0  0  0  0  0  0  0  0
   -3.6310   -0.9716   -2.0104 C   0  0  0  0  0  0  0  0  0  0  0  0
   -4.4006   -1.2801   -0.9010 C   0  0  0  0  0  0  0  0  0  0  0  0
   -3.7528   -4.6496   -0.7184 H   0  0  0  0  0  0  0  0  0  0  0  0
   -2.3594   -4.0645   -2.7168 H   0  0  0  0  0  0  0  0  0  0  0  0
   -1.2855   -0.5428   -5.0994 H   0  0  0  0  0  0  0  0  0  0  0  0
   -1.5455    0.2262   -3.5088 H   0  0  0  0  0  0  0  0  0  0  0  0
   -2.9326   -0.0644   -4.6072 H   0  0  0  0  0  0  0  0  0  0  0  0
   -3.6040    0.0523   -2.3601 H   0  0  0  0  0  0  0  0  0  0  0  0
   -4.9823   -0.5301   -0.3791 H   0  0  0  0  0  0  0  0  0  0  0  0
   -5.0265   -0.0185    2.4628 S   0  0  0  0  0  0  0  0  0  0  0  0
   -5.6576   -0.2259    4.1973 C   0  0  0  0  0  0  0  0  0  0  0  0
   -6.1375   -0.6807    1.6422 O   0  0  0  0  0  0  0  0  0  0  0  0
   -3.7798   -0.8016    2.4107 O   0  0  0  0  0  0  0  0  0  0  0  0
   -4.9597    1.4267    2.2312 O   0  0  0  0  0  0  0  0  0  0  0  0
   -6.8238    0.4090    4.3550 F   0  0  0  0  0  0  0  0  0  0  0  0
   -5.8389   -1.5293    4.4661 F   0  0  0  0  0  0  0  0  0  0  0  0
   -4.7734    0.2710    5.0703 F   0  0  0  0  0  0  0  0  0  0  0  0
  1  2  1  0  0  0  0
  2  3  2  0  0  0  0
  4 11  1  0  0  0  0
  4  1  2  0  0  0  0
  5  4  1  0  0  0  0
  6  5  2  0  0  0  0
  6  9  1  0  0  0  0
  7  6  1  0  0  0  0
  8  7  1  0  0  0  0
  8 14  1  0  0  0  0
  9 10  2  0  0  0  0
 10  1  1  0  0  0  0
 10 17  1  0  0  0  0
 12  5  1  0  0  0  0
 13  8  1  0  0  0  0
 15  8  1  0  0  0  0
 16  9  1  0  0  0  0
 18 19  1  0  0  0  0
 19 23  1  0  0  0  0
 19 24  1  0  0  0  0
 19 25  1  0  0  0  0
 20 18  2  0  0  0  0
 21 18  1  0  0  0  0
 22 18  2  0  0  0  0
M  RAD  2   3   2  21   2
M  END
