Coordinates from ORCA-job 4-MeOPhN2+~TfO-_B3LYPG-6-31G_dp-NX-Scan-d89-09-n800
 OpenBabel11261920223D

 25 24  0  0  0  0  0  0  0  0999 V2000
   -4.7128   -3.5808   -0.5308 C   0  0  0  0  0  0  0  0  0  0  0  0
   -5.5013   -4.4108    0.1834 N   0  0  0  0  0  0  0  0  0  0  0  0
   -6.1576   -5.0976    0.7812 N   0  0  0  0  0  0  0  0  0  0  0  0
   -3.4403   -4.0424   -0.9700 C   0  0  0  0  0  0  0  0  0  0  0  0
   -2.6160   -3.1470   -1.5968 C   0  0  0  0  0  0  0  0  0  0  0  0
   -3.0248   -1.7914   -1.7672 C   0  0  0  0  0  0  0  0  0  0  0  0
   -2.1118   -0.9934   -2.3132 O   0  0  0  0  0  0  0  0  0  0  0  0
   -2.3693    0.4237   -2.3802 C   0  0  0  0  0  0  0  0  0  0  0  0
   -4.3041   -1.3692   -1.3649 C   0  0  0  0  0  0  0  0  0  0  0  0
   -5.1524   -2.2513   -0.7291 C   0  0  0  0  0  0  0  0  0  0  0  0
   -3.1360   -5.0678   -0.7934 H   0  0  0  0  0  0  0  0  0  0  0  0
   -1.6291   -3.4344   -1.9395 H   0  0  0  0  0  0  0  0  0  0  0  0
   -1.4509    0.8624   -2.7677 H   0  0  0  0  0  0  0  0  0  0  0  0
   -2.5895    0.8138   -1.3839 H   0  0  0  0  0  0  0  0  0  0  0  0
   -3.1981    0.6329   -3.0631 H   0  0  0  0  0  0  0  0  0  0  0  0
   -4.6340   -0.3419   -1.4389 H   0  0  0  0  0  0  0  0  0  0  0  0
   -6.1074   -1.9053   -0.3607 H   0  0  0  0  0  0  0  0  0  0  0  0
   -5.7039   -0.1148    1.7683 S   0  0  0  0  0  0  0  0  0  0  0  0
   -4.0219    0.6640    1.9501 C   0  0  0  0  0  0  0  0  0  0  0  0
   -6.4727    0.4442    2.8855 O   0  0  0  0  0  0  0  0  0  0  0  0
   -5.3972   -1.5750    1.8511 O   0  0  0  0  0  0  0  0  0  0  0  0
   -6.1113    0.3127    0.4016 O   0  0  0  0  0  0  0  0  0  0  0  0
   -4.0917    1.9996    1.8690 F   0  0  0  0  0  0  0  0  0  0  0  0
   -3.4497    0.3371    3.1152 F   0  0  0  0  0  0  0  0  0  0  0  0
   -3.1831    0.2446    0.9582 F   0  0  0  0  0  0  0  0  0  0  0  0
  1  2  1  0  0  0  0
  2  3  1  0  0  0  0
  4 11  1  0  0  0  0
  4  1  2  0  0  0  0
  5  4  1  0  0  0  0
  6  5  2  0  0  0  0
  6  9  1  0  0  0  0
  7  6  1  0  0  0  0
  8  7  1  0  0  0  0
  8 14  1  0  0  0  0
  9 10  2  0  0  0  0
 10  1  1  0  0  0  0
 10 17  1  0  0  0  0
 12  5  1  0  0  0  0
 13  8  1  0  0  0  0
 15  8  1  0  0  0  0
 16  9  1  0  0  0  0
 18 21  2  0  0  0  0
 18 19  1  0  0  0  0
 18 20  1  0  0  0  0
 19 24  1  0  0  0  0
 22 18  2  0  0  0  0
 23 19  1  0  0  0  0
 25 19  1  0  0  0  0
M  RAD  3   2   2   3   3  20   2
M  END
