Coordinates from ORCA-job 4-MeOPhN2+~TfO-_B3LYPG-6-31G_dp-NX-Scan-d89-09-n800
 OpenBabel11261920223D

 25 24  0  0  0  0  0  0  0  0999 V2000
   -4.1520   -4.0375   -0.2312 C   0  0  0  0  0  0  0  0  0  0  0  0
   -4.6086   -5.2356    0.1821 N   0  0  0  0  0  0  0  0  0  0  0  0
   -4.9726   -6.2491    0.5124 N   0  0  0  0  0  0  0  0  0  0  0  0
   -4.9541   -3.2337   -1.0941 C   0  0  0  0  0  0  0  0  0  0  0  0
   -4.4396   -2.0476   -1.5419 C   0  0  0  0  0  0  0  0  0  0  0  0
   -3.1591   -1.6161   -1.1048 C   0  0  0  0  0  0  0  0  0  0  0  0
   -2.7569   -0.4598   -1.5919 O   0  0  0  0  0  0  0  0  0  0  0  0
   -1.6536    0.2477   -1.0045 C   0  0  0  0  0  0  0  0  0  0  0  0
   -2.3887   -2.4086   -0.2073 C   0  0  0  0  0  0  0  0  0  0  0  0
   -2.8715   -3.6189    0.2219 C   0  0  0  0  0  0  0  0  0  0  0  0
   -5.9592   -3.5408   -1.3558 H   0  0  0  0  0  0  0  0  0  0  0  0
   -5.0360   -1.3369   -2.1088 H   0  0  0  0  0  0  0  0  0  0  0  0
   -1.6080    1.1930   -1.5413 H   0  0  0  0  0  0  0  0  0  0  0  0
   -0.7153   -0.3009   -1.1386 H   0  0  0  0  0  0  0  0  0  0  0  0
   -1.8604    0.4311    0.0521 H   0  0  0  0  0  0  0  0  0  0  0  0
   -1.4236   -2.0663    0.1417 H   0  0  0  0  0  0  0  0  0  0  0  0
   -2.2982   -4.2498    0.8922 H   0  0  0  0  0  0  0  0  0  0  0  0
   -6.4301    0.5253   -0.2467 S   0  0  0  0  0  0  0  0  0  0  0  0
   -5.1169    1.0004    0.9916 C   0  0  0  0  0  0  0  0  0  0  0  0
   -7.4517    1.5662   -0.0617 O   0  0  0  0  0  0  0  0  0  0  0  0
   -6.7841   -0.8520    0.1791 O   0  0  0  0  0  0  0  0  0  0  0  0
   -5.6756    0.5779   -1.5297 O   0  0  0  0  0  0  0  0  0  0  0  0
   -4.5296    2.1678    0.6816 F   0  0  0  0  0  0  0  0  0  0  0  0
   -5.6061    1.0937    2.2345 F   0  0  0  0  0  0  0  0  0  0  0  0
   -4.1153    0.0622    1.0334 F   0  0  0  0  0  0  0  0  0  0  0  0
  1  2  1  0  0  0  0
  1 10  1  0  0  0  0
  2  3  1  0  0  0  0
  4  1  2  0  0  0  0
  5  6  2  0  0  0  0
  5  4  1  0  0  0  0
  6  9  1  0  0  0  0
  7  6  1  0  0  0  0
  7  8  1  0  0  0  0
  8 15  1  0  0  0  0
  9 16  1  0  0  0  0
  9 10  2  0  0  0  0
 10 17  1  0  0  0  0
 11  4  1  0  0  0  0
 12  5  1  0  0  0  0
 13  8  1  0  0  0  0
 14  8  1  0  0  0  0
 18 20  2  0  0  0  0
 18 21  1  0  0  0  0
 18 19  1  0  0  0  0
 19 25  1  0  0  0  0
 19 24  1  0  0  0  0
 22 18  2  0  0  0  0
 23 19  1  0  0  0  0
M  RAD  3   2   2   3   3  21   2
M  END
