Coordinates from ORCA-job 4-MeOPhN2+~TfO-_B3LYPG-6-31G_dp-NX-Scan-d89-09-n800
 OpenBabel11261920223D

 25 24  0  0  0  0  0  0  0  0999 V2000
   -4.6895   -3.6440   -0.5465 C   0  0  0  0  0  0  0  0  0  0  0  0
   -5.4707   -4.5078    0.1351 N   0  0  0  0  0  0  0  0  0  0  0  0
   -6.1216   -5.2232    0.7055 N   0  0  0  0  0  0  0  0  0  0  0  0
   -3.4320   -4.0924   -1.0422 C   0  0  0  0  0  0  0  0  0  0  0  0
   -2.6230   -3.1752   -1.6564 C   0  0  0  0  0  0  0  0  0  0  0  0
   -3.0326   -1.8128   -1.7637 C   0  0  0  0  0  0  0  0  0  0  0  0
   -2.1365   -0.9973   -2.3099 O   0  0  0  0  0  0  0  0  0  0  0  0
   -2.3988    0.4214   -2.3283 C   0  0  0  0  0  0  0  0  0  0  0  0
   -4.2964   -1.4020   -1.3042 C   0  0  0  0  0  0  0  0  0  0  0  0
   -5.1292   -2.3057   -0.6785 C   0  0  0  0  0  0  0  0  0  0  0  0
   -3.1287   -5.1258   -0.9183 H   0  0  0  0  0  0  0  0  0  0  0  0
   -1.6482   -3.4522   -2.0401 H   0  0  0  0  0  0  0  0  0  0  0  0
   -1.4945    0.8728   -2.7337 H   0  0  0  0  0  0  0  0  0  0  0  0
   -2.5876    0.7825   -1.3149 H   0  0  0  0  0  0  0  0  0  0  0  0
   -3.2507    0.6461   -2.9766 H   0  0  0  0  0  0  0  0  0  0  0  0
   -4.6301   -0.3727   -1.3263 H   0  0  0  0  0  0  0  0  0  0  0  0
   -6.0694   -1.9723   -0.2630 H   0  0  0  0  0  0  0  0  0  0  0  0
   -5.7118   -0.0075    1.7361 S   0  0  0  0  0  0  0  0  0  0  0  0
   -4.0146    0.7254    1.9615 C   0  0  0  0  0  0  0  0  0  0  0  0
   -6.5105    0.6188    2.7951 O   0  0  0  0  0  0  0  0  0  0  0  0
   -5.4568   -1.4712    1.8870 O   0  0  0  0  0  0  0  0  0  0  0  0
   -6.0454    0.3808    0.3376 O   0  0  0  0  0  0  0  0  0  0  0  0
   -4.0362    2.0586    1.8275 F   0  0  0  0  0  0  0  0  0  0  0  0
   -3.5013    0.4254    3.1605 F   0  0  0  0  0  0  0  0  0  0  0  0
   -3.1507    0.2418    1.0210 F   0  0  0  0  0  0  0  0  0  0  0  0
  1  2  1  0  0  0  0
  2  3  1  0  0  0  0
  4 11  1  0  0  0  0
  4  1  2  0  0  0  0
  5  4  1  0  0  0  0
  6  5  2  0  0  0  0
  6  9  1  0  0  0  0
  7  6  1  0  0  0  0
  8  7  1  0  0  0  0
  8 14  1  0  0  0  0
  9 10  2  0  0  0  0
 10  1  1  0  0  0  0
 10 17  1  0  0  0  0
 12  5  1  0  0  0  0
 13  8  1  0  0  0  0
 15  8  1  0  0  0  0
 16  9  1  0  0  0  0
 18 21  2  0  0  0  0
 18 19  1  0  0  0  0
 18 20  1  0  0  0  0
 19 24  1  0  0  0  0
 22 18  2  0  0  0  0
 23 19  1  0  0  0  0
 25 19  1  0  0  0  0
M  RAD  3   2   2   3   3  20   2
M  END
