Coordinates from ORCA-job 4-MeOPhN2+~TfO-_B3LYPG-6-31G_dp-NX-Scan-d89-09-n800
 OpenBabel11261920223D

 25 24  0  0  0  0  0  0  0  0999 V2000
   -4.2173   -3.0027   -0.3959 C   0  0  0  0  0  0  0  0  0  0  0  0
   -4.8997   -3.6243    0.6184 N   0  0  0  0  0  0  0  0  0  0  0  0
   -5.4189   -4.2392    1.3927 N   0  0  0  0  0  0  0  0  0  0  0  0
   -3.3813   -3.8223   -1.1961 C   0  0  0  0  0  0  0  0  0  0  0  0
   -2.6914   -3.2360   -2.2291 C   0  0  0  0  0  0  0  0  0  0  0  0
   -2.8261   -1.8462   -2.4782 C   0  0  0  0  0  0  0  0  0  0  0  0
   -2.1091   -1.3837   -3.5075 O   0  0  0  0  0  0  0  0  0  0  0  0
   -2.1668    0.0110   -3.8371 C   0  0  0  0  0  0  0  0  0  0  0  0
   -3.6667   -1.0570   -1.6706 C   0  0  0  0  0  0  0  0  0  0  0  0
   -4.3699   -1.6229   -0.6202 C   0  0  0  0  0  0  0  0  0  0  0  0
   -3.2888   -4.8830   -0.9890 H   0  0  0  0  0  0  0  0  0  0  0  0
   -2.0356   -3.8158   -2.8683 H   0  0  0  0  0  0  0  0  0  0  0  0
   -1.5084    0.1332   -4.6960 H   0  0  0  0  0  0  0  0  0  0  0  0
   -1.8075    0.6240   -3.0045 H   0  0  0  0  0  0  0  0  0  0  0  0
   -3.1854    0.3069   -4.1073 H   0  0  0  0  0  0  0  0  0  0  0  0
   -3.7786    0.0063   -1.8407 H   0  0  0  0  0  0  0  0  0  0  0  0
   -5.0087   -1.0051    0.0142 H   0  0  0  0  0  0  0  0  0  0  0  0
   -6.1031   -0.3259    2.2619 S   0  0  0  0  0  0  0  0  0  0  0  0
   -5.0307    0.3275    3.6294 C   0  0  0  0  0  0  0  0  0  0  0  0
   -7.4772   -0.1476    2.7424 O   0  0  0  0  0  0  0  0  0  0  0  0
   -5.6458   -1.7479    2.1345 O   0  0  0  0  0  0  0  0  0  0  0  0
   -5.6944    0.4858    1.0830 O   0  0  0  0  0  0  0  0  0  0  0  0
   -5.2701    1.6292    3.8404 F   0  0  0  0  0  0  0  0  0  0  0  0
   -5.2575   -0.3383    4.7717 F   0  0  0  0  0  0  0  0  0  0  0  0
   -3.7280    0.1860    3.3161 F   0  0  0  0  0  0  0  0  0  0  0  0
  1  2  1  0  0  0  0
  2  3  1  0  0  0  0
  4 11  1  0  0  0  0
  4  1  2  0  0  0  0
  5  4  1  0  0  0  0
  6  5  2  0  0  0  0
  6  9  1  0  0  0  0
  7  6  1  0  0  0  0
  8  7  1  0  0  0  0
  8 14  1  0  0  0  0
  9 10  2  0  0  0  0
 10  1  1  0  0  0  0
 10 17  1  0  0  0  0
 12  5  1  0  0  0  0
 13  8  1  0  0  0  0
 15  8  1  0  0  0  0
 16  9  1  0  0  0  0
 18 20  1  0  0  0  0
 18 19  1  0  0  0  0
 19 23  1  0  0  0  0
 19 24  1  0  0  0  0
 21 18  2  0  0  0  0
 22 18  2  0  0  0  0
 25 19  1  0  0  0  0
M  RAD  3   2   2   3   3  20   2
M  END
