Coordinates from ORCA-job 4-MeOPhN2+~TfO-_B3LYPG-6-31G_dp-NX-Scan-d89-09-n800
 OpenBabel11261920223D

 25 24  0  0  0  0  0  0  0  0999 V2000
   -4.2148   -2.9990   -0.3897 C   0  0  0  0  0  0  0  0  0  0  0  0
   -4.8935   -3.6218    0.6266 N   0  0  0  0  0  0  0  0  0  0  0  0
   -5.4049   -4.2454    1.3991 N   0  0  0  0  0  0  0  0  0  0  0  0
   -3.3743   -3.8179   -1.1862 C   0  0  0  0  0  0  0  0  0  0  0  0
   -2.6859   -3.2328   -2.2208 C   0  0  0  0  0  0  0  0  0  0  0  0
   -2.8258   -1.8444   -2.4751 C   0  0  0  0  0  0  0  0  0  0  0  0
   -2.1098   -1.3827   -3.5052 O   0  0  0  0  0  0  0  0  0  0  0  0
   -2.1727    0.0107   -3.8398 C   0  0  0  0  0  0  0  0  0  0  0  0
   -3.6704   -1.0559   -1.6710 C   0  0  0  0  0  0  0  0  0  0  0  0
   -4.3726   -1.6207   -0.6193 C   0  0  0  0  0  0  0  0  0  0  0  0
   -3.2775   -4.8774   -0.9750 H   0  0  0  0  0  0  0  0  0  0  0  0
   -2.0271   -3.8124   -2.8571 H   0  0  0  0  0  0  0  0  0  0  0  0
   -1.5140    0.1325   -4.6985 H   0  0  0  0  0  0  0  0  0  0  0  0
   -1.8166    0.6280   -3.0091 H   0  0  0  0  0  0  0  0  0  0  0  0
   -3.1922    0.3015   -4.1120 H   0  0  0  0  0  0  0  0  0  0  0  0
   -3.7862    0.0064   -1.8447 H   0  0  0  0  0  0  0  0  0  0  0  0
   -5.0138   -1.0023    0.0117 H   0  0  0  0  0  0  0  0  0  0  0  0
   -6.1100   -0.3133    2.2531 S   0  0  0  0  0  0  0  0  0  0  0  0
   -5.0265    0.3109    3.6256 C   0  0  0  0  0  0  0  0  0  0  0  0
   -7.4803   -0.1111    2.7344 O   0  0  0  0  0  0  0  0  0  0  0  0
   -5.6785   -1.7427    2.1178 O   0  0  0  0  0  0  0  0  0  0  0  0
   -5.6855    0.4971    1.0791 O   0  0  0  0  0  0  0  0  0  0  0  0
   -5.2429    1.6150    3.8467 F   0  0  0  0  0  0  0  0  0  0  0  0
   -5.2649   -0.3596    4.7627 F   0  0  0  0  0  0  0  0  0  0  0  0
   -3.7263    0.1490    3.3111 F   0  0  0  0  0  0  0  0  0  0  0  0
  1  2  1  0  0  0  0
  2  3  1  0  0  0  0
  4 11  1  0  0  0  0
  4  1  2  0  0  0  0
  5  4  1  0  0  0  0
  6  5  2  0  0  0  0
  6  9  1  0  0  0  0
  7  6  1  0  0  0  0
  8  7  1  0  0  0  0
  8 14  1  0  0  0  0
  9 10  2  0  0  0  0
 10  1  1  0  0  0  0
 10 17  1  0  0  0  0
 12  5  1  0  0  0  0
 13  8  1  0  0  0  0
 15  8  1  0  0  0  0
 16  9  1  0  0  0  0
 18 20  1  0  0  0  0
 18 19  1  0  0  0  0
 19 23  1  0  0  0  0
 19 24  1  0  0  0  0
 21 18  2  0  0  0  0
 22 18  2  0  0  0  0
 25 19  1  0  0  0  0
M  RAD  3   2   2   3   3  20   2
M  END
