Coordinates from ORCA-job 4-MeOPhN2+~HSO4-_B3LYPG-6-31G_dp-NX-Scan-d89-09-n800
 OpenBabel11261921003D

 23 22  0  0  0  0  0  0  0  0999 V2000
   -1.8995   -0.1814   -0.0726 C   0  0  0  0  0  0  0  0  0  0  0  0
   -3.1647   -0.6426   -0.3308 N   0  0  0  0  0  0  0  0  0  0  0  0
   -4.0929   -1.2059   -0.6014 N   0  0  0  0  0  0  0  0  0  0  0  0
   -1.6925    1.0292    0.6198 C   0  0  0  0  0  0  0  0  0  0  0  0
   -0.3900    1.4217    0.8425 C   0  0  0  0  0  0  0  0  0  0  0  0
    0.6908    0.6362    0.3950 C   0  0  0  0  0  0  0  0  0  0  0  0
    1.9100    1.1154    0.6672 O   0  0  0  0  0  0  0  0  0  0  0  0
    3.0726    0.4021    0.2353 C   0  0  0  0  0  0  0  0  0  0  0  0
    0.4577   -0.5771   -0.3004 C   0  0  0  0  0  0  0  0  0  0  0  0
   -0.8359   -0.9899   -0.5386 C   0  0  0  0  0  0  0  0  0  0  0  0
   -2.5344    1.6484    0.9150 H   0  0  0  0  0  0  0  0  0  0  0  0
   -0.1899    2.3601    1.3465 H   0  0  0  0  0  0  0  0  0  0  0  0
    3.9204    0.9995    0.5680 H   0  0  0  0  0  0  0  0  0  0  0  0
    3.0948    0.3098   -0.8560 H   0  0  0  0  0  0  0  0  0  0  0  0
    3.1204   -0.5894    0.6974 H   0  0  0  0  0  0  0  0  0  0  0  0
    1.2798   -1.1858   -0.6529 H   0  0  0  0  0  0  0  0  0  0  0  0
   -1.0377   -1.9122   -1.0723 H   0  0  0  0  0  0  0  0  0  0  0  0
   -4.4724    3.1428    0.1998 S   0  0  0  0  0  0  0  0  0  0  0  0
   -4.6022    1.6517    0.2399 O   0  0  0  0  0  0  0  0  0  0  0  0
   -5.5392    3.9268    0.8469 O   0  0  0  0  0  0  0  0  0  0  0  0
   -3.0899    3.5714    0.5377 O   0  0  0  0  0  0  0  0  0  0  0  0
   -4.6566    3.4543   -1.4331 O   0  0  0  0  0  0  0  0  0  0  0  0
   -5.0703    4.3301   -1.4681 H   0  0  0  0  0  0  0  0  0  0  0  0
  1  4  2  0  0  0  0
  2  1  1  0  0  0  0
  3  2  1  0  0  0  0
  4  5  1  0  0  0  0
  4 11  1  0  0  0  0
  5 12  1  0  0  0  0
  6  7  1  0  0  0  0
  6  5  2  0  0  0  0
  8 13  1  0  0  0  0
  8  7  1  0  0  0  0
  8 15  1  0  0  0  0
  9  6  1  0  0  0  0
 10  9  2  0  0  0  0
 10  1  1  0  0  0  0
 14  8  1  0  0  0  0
 16  9  1  0  0  0  0
 17 10  1  0  0  0  0
 18 19  2  0  0  0  0
 18 21  2  0  0  0  0
 18 20  1  0  0  0  0
 22 18  1  0  0  0  0
 23 22  1  0  0  0  0
M  RAD  3   2   2   3   3  20   2
M  END
