Coordinates from ORCA-job 4-MeOPhN2+~HSO4-_B3LYPG-6-31G_dp-NX-Scan-d89-09-n800
 OpenBabel11261921003D

 23 22  0  0  0  0  0  0  0  0999 V2000
   -1.9180   -0.8648   -0.2730 C   0  0  0  0  0  0  0  0  0  0  0  0
   -3.0273   -1.6077   -0.5074 N   0  0  0  0  0  0  0  0  0  0  0  0
   -3.9339   -2.2386   -0.7069 N   0  0  0  0  0  0  0  0  0  0  0  0
   -2.0618    0.5052    0.0723 C   0  0  0  0  0  0  0  0  0  0  0  0
   -0.9083    1.2254    0.2925 C   0  0  0  0  0  0  0  0  0  0  0  0
    0.3573    0.6099    0.1771 C   0  0  0  0  0  0  0  0  0  0  0  0
    1.4049    1.3987    0.4101 O   0  0  0  0  0  0  0  0  0  0  0  0
    2.7383    0.8867    0.3125 C   0  0  0  0  0  0  0  0  0  0  0  0
    0.4737   -0.7657   -0.1682 C   0  0  0  0  0  0  0  0  0  0  0  0
   -0.6602   -1.5094   -0.3956 C   0  0  0  0  0  0  0  0  0  0  0  0
   -3.0425    1.0089    0.1632 H   0  0  0  0  0  0  0  0  0  0  0  0
   -1.0197    2.2808    0.5440 H   0  0  0  0  0  0  0  0  0  0  0  0
    3.3885    1.7287    0.5452 H   0  0  0  0  0  0  0  0  0  0  0  0
    2.9485    0.5303   -0.7012 H   0  0  0  0  0  0  0  0  0  0  0  0
    2.9046    0.0830    1.0375 H   0  0  0  0  0  0  0  0  0  0  0  0
    1.4432   -1.2391   -0.2569 H   0  0  0  0  0  0  0  0  0  0  0  0
   -0.6009   -2.5585   -0.6637 H   0  0  0  0  0  0  0  0  0  0  0  0
   -3.9191    3.6152    0.4926 S   0  0  0  0  0  0  0  0  0  0  0  0
   -4.4011    2.2036    0.4215 O   0  0  0  0  0  0  0  0  0  0  0  0
   -4.7345    4.5309    1.3067 O   0  0  0  0  0  0  0  0  0  0  0  0
   -2.4535    3.6988    0.7166 O   0  0  0  0  0  0  0  0  0  0  0  0
   -4.1460    4.1610   -1.0765 O   0  0  0  0  0  0  0  0  0  0  0  0
   -4.5540    5.0316   -0.9576 H   0  0  0  0  0  0  0  0  0  0  0  0
  1  4  1  0  0  0  0
  2  1  1  0  0  0  0
  3  2  1  0  0  0  0
  4 11  1  0  0  0  0
  4  5  2  0  0  0  0
  5 12  1  0  0  0  0
  6  5  1  0  0  0  0
  6  7  1  0  0  0  0
  8  7  1  0  0  0  0
  8 13  1  0  0  0  0
  8 15  1  0  0  0  0
  9  6  2  0  0  0  0
 10  1  2  0  0  0  0
 10  9  1  0  0  0  0
 14  8  1  0  0  0  0
 16  9  1  0  0  0  0
 17 10  1  0  0  0  0
 18 21  2  0  0  0  0
 18 20  1  0  0  0  0
 19 18  2  0  0  0  0
 22 23  1  0  0  0  0
 22 18  1  0  0  0  0
M  RAD  3   2   2   3   3  20   2
M  END
