Coordinates from ORCA-job 4-MeOPhN2+~HSO4-_B3LYPG-6-31G_dp-NX-Scan-d89-09-n800
 OpenBabel11261921003D

 23 22  0  0  0  0  0  0  0  0999 V2000
   -1.9562   -1.2613   -0.3348 C   0  0  0  0  0  0  0  0  0  0  0  0
   -2.8853   -2.2098   -0.5958 N   0  0  0  0  0  0  0  0  0  0  0  0
   -3.6021   -3.0474   -0.8265 N   0  0  0  0  0  0  0  0  0  0  0  0
   -2.3180    0.0788    0.0058 C   0  0  0  0  0  0  0  0  0  0  0  0
   -1.3063    0.9782    0.2437 C   0  0  0  0  0  0  0  0  0  0  0  0
    0.0476    0.5684    0.1531 C   0  0  0  0  0  0  0  0  0  0  0  0
    0.9429    1.5135    0.4050 O   0  0  0  0  0  0  0  0  0  0  0  0
    2.3457    1.2344    0.3388 C   0  0  0  0  0  0  0  0  0  0  0  0
    0.3932   -0.7686   -0.1853 C   0  0  0  0  0  0  0  0  0  0  0  0
   -0.6018   -1.6827   -0.4299 C   0  0  0  0  0  0  0  0  0  0  0  0
   -3.3464    0.4271    0.0809 H   0  0  0  0  0  0  0  0  0  0  0  0
   -1.5376    2.0313    0.4788 H   0  0  0  0  0  0  0  0  0  0  0  0
    2.8364    2.1754    0.5819 H   0  0  0  0  0  0  0  0  0  0  0  0
    2.6341    0.9175   -0.6685 H   0  0  0  0  0  0  0  0  0  0  0  0
    2.6277    0.4709    1.0713 H   0  0  0  0  0  0  0  0  0  0  0  0
    1.4278   -1.0803   -0.2561 H   0  0  0  0  0  0  0  0  0  0  0  0
   -0.3691   -2.7086   -0.6932 H   0  0  0  0  0  0  0  0  0  0  0  0
   -3.3808    3.9342    0.5847 S   0  0  0  0  0  0  0  0  0  0  0  0
   -4.0041    2.5942    0.7406 O   0  0  0  0  0  0  0  0  0  0  0  0
   -3.9255    5.0330    1.4057 O   0  0  0  0  0  0  0  0  0  0  0  0
   -1.8908    3.8516    0.5672 O   0  0  0  0  0  0  0  0  0  0  0  0
   -3.8029    4.3662   -0.9814 O   0  0  0  0  0  0  0  0  0  0  0  0
   -4.0502    5.2993   -0.9011 H   0  0  0  0  0  0  0  0  0  0  0  0
  1  4  1  0  0  0  0
  2  1  1  0  0  0  0
  3  2  1  0  0  0  0
  4 11  1  0  0  0  0
  4  5  2  0  0  0  0
  5 12  1  0  0  0  0
  6  5  1  0  0  0  0
  6  7  1  0  0  0  0
  8  7  1  0  0  0  0
  8 13  1  0  0  0  0
  8 15  1  0  0  0  0
  9  6  2  0  0  0  0
 10  1  2  0  0  0  0
 10  9  1  0  0  0  0
 14  8  1  0  0  0  0
 16  9  1  0  0  0  0
 17 10  1  0  0  0  0
 18 19  2  0  0  0  0
 18 20  1  0  0  0  0
 21 18  2  0  0  0  0
 22 23  1  0  0  0  0
 22 18  1  0  0  0  0
M  RAD  3   2   2   3   3  20   2
M  END
