Coordinates from ORCA-job 4-MeOPhN2+~HSO4-_B3LYPG-6-31G_dp-NX-Scan-d89-09-n800
 OpenBabel11261921003D

 23 22  0  0  0  0  0  0  0  0999 V2000
   -1.6653    0.3655   -0.1974 C   0  0  0  0  0  0  0  0  0  0  0  0
   -2.9995    0.0440   -0.3605 N   0  0  0  0  0  0  0  0  0  0  0  0
   -3.9968   -0.4650   -0.4727 N   0  0  0  0  0  0  0  0  0  0  0  0
   -1.2655    1.6808    0.1074 C   0  0  0  0  0  0  0  0  0  0  0  0
    0.0807    1.9223    0.2918 C   0  0  0  0  0  0  0  0  0  0  0  0
    1.0258    0.8824    0.1731 C   0  0  0  0  0  0  0  0  0  0  0  0
    2.3057    1.2377    0.3712 O   0  0  0  0  0  0  0  0  0  0  0  0
    3.3347    0.2524    0.2675 C   0  0  0  0  0  0  0  0  0  0  0  0
    0.6060   -0.4284   -0.1359 C   0  0  0  0  0  0  0  0  0  0  0  0
   -0.7414   -0.6887   -0.3182 C   0  0  0  0  0  0  0  0  0  0  0  0
   -2.0258    2.4533    0.1596 H   0  0  0  0  0  0  0  0  0  0  0  0
    0.4384    2.9182    0.5277 H   0  0  0  0  0  0  0  0  0  0  0  0
    4.2671    0.7805    0.4640 H   0  0  0  0  0  0  0  0  0  0  0  0
    3.3665   -0.1823   -0.7376 H   0  0  0  0  0  0  0  0  0  0  0  0
    3.2001   -0.5405    1.0116 H   0  0  0  0  0  0  0  0  0  0  0  0
    1.3186   -1.2372   -0.2322 H   0  0  0  0  0  0  0  0  0  0  0  0
   -1.0850   -1.6902   -0.5534 H   0  0  0  0  0  0  0  0  0  0  0  0
   -5.2198    2.4332   -0.3397 S   0  0  0  0  0  0  0  0  0  0  0  0
   -6.1451    3.4173   -0.9030 O   0  0  0  0  0  0  0  0  0  0  0  0
   -5.7201    1.0249   -0.3426 O   0  0  0  0  0  0  0  0  0  0  0  0
   -3.8073    2.4987   -0.7989 O   0  0  0  0  0  0  0  0  0  0  0  0
   -5.0647    2.8415    1.2707 O   0  0  0  0  0  0  0  0  0  0  0  0
   -5.9289    3.1949    1.5323 H   0  0  0  0  0  0  0  0  0  0  0  0
  1  4  1  0  0  0  0
  2  1  1  0  0  0  0
  3  2  1  0  0  0  0
  4 11  1  0  0  0  0
  4  5  2  0  0  0  0
  5 12  1  0  0  0  0
  6  5  1  0  0  0  0
  6  7  1  0  0  0  0
  8  7  1  0  0  0  0
  8 13  1  0  0  0  0
  8 15  1  0  0  0  0
  9  6  2  0  0  0  0
 10  1  2  0  0  0  0
 10  9  1  0  0  0  0
 14  8  1  0  0  0  0
 16  9  1  0  0  0  0
 17 10  1  0  0  0  0
 18 22  1  0  0  0  0
 19 18  2  0  0  0  0
 20 18  1  0  0  0  0
 21 18  2  0  0  0  0
 22 23  1  0  0  0  0
M  RAD  3   2   2   3   3  20   2
M  END
