Coordinates from ORCA-job 4-MeOPhN2+~HSO4-_B3LYPG-6-31G_dp-NX-Scan-d89-09-n800
 OpenBabel11261921003D

 23 22  0  0  0  0  0  0  0  0999 V2000
   -1.9409   -1.0328   -0.3080 C   0  0  0  0  0  0  0  0  0  0  0  0
   -2.9848   -1.8559   -0.5601 N   0  0  0  0  0  0  0  0  0  0  0  0
   -3.8350   -2.5587   -0.7757 N   0  0  0  0  0  0  0  0  0  0  0  0
   -2.1772    0.3230    0.0542 C   0  0  0  0  0  0  0  0  0  0  0  0
   -1.0816    1.1216    0.2922 C   0  0  0  0  0  0  0  0  0  0  0  0
    0.2249    0.5945    0.1768 C   0  0  0  0  0  0  0  0  0  0  0  0
    1.2125    1.4490    0.4283 O   0  0  0  0  0  0  0  0  0  0  0  0
    2.5798    1.0355    0.3322 C   0  0  0  0  0  0  0  0  0  0  0  0
    0.4396   -0.7646   -0.1861 C   0  0  0  0  0  0  0  0  0  0  0  0
   -0.6376   -1.5824   -0.4301 C   0  0  0  0  0  0  0  0  0  0  0  0
   -3.1706    0.7786    0.1512 H   0  0  0  0  0  0  0  0  0  0  0  0
   -1.2566    2.1763    0.5473 H   0  0  0  0  0  0  0  0  0  0  0  0
    3.1658    1.9195    0.5790 H   0  0  0  0  0  0  0  0  0  0  0  0
    2.8194    0.7078   -0.6844 H   0  0  0  0  0  0  0  0  0  0  0  0
    2.7994    0.2368    1.0484 H   0  0  0  0  0  0  0  0  0  0  0  0
    1.4403   -1.1682   -0.2756 H   0  0  0  0  0  0  0  0  0  0  0  0
   -0.5030   -2.6212   -0.7106 H   0  0  0  0  0  0  0  0  0  0  0  0
   -3.6763    3.7567    0.5402 S   0  0  0  0  0  0  0  0  0  0  0  0
   -4.1769    2.3570    0.6315 O   0  0  0  0  0  0  0  0  0  0  0  0
   -4.4038    4.7605    1.3343 O   0  0  0  0  0  0  0  0  0  0  0  0
   -2.1929    3.8384    0.6358 O   0  0  0  0  0  0  0  0  0  0  0  0
   -4.0276    4.1641   -1.0482 O   0  0  0  0  0  0  0  0  0  0  0  0
   -4.3385    5.0796   -0.9877 H   0  0  0  0  0  0  0  0  0  0  0  0
  1  4  1  0  0  0  0
  2  1  1  0  0  0  0
  3  2  1  0  0  0  0
  4 11  1  0  0  0  0
  4  5  2  0  0  0  0
  5 12  1  0  0  0  0
  6  5  1  0  0  0  0
  6  7  1  0  0  0  0
  8  7  1  0  0  0  0
  8 13  1  0  0  0  0
  8 15  1  0  0  0  0
  9  6  2  0  0  0  0
 10  1  2  0  0  0  0
 10  9  1  0  0  0  0
 14  8  1  0  0  0  0
 16  9  1  0  0  0  0
 17 10  1  0  0  0  0
 18 19  2  0  0  0  0
 18 21  2  0  0  0  0
 18 20  1  0  0  0  0
 22 23  1  0  0  0  0
 22 18  1  0  0  0  0
M  RAD  3   2   2   3   3  20   2
M  END
