Coordinates from ORCA-job 4-MeOPhN2+~HSO4-_B3LYPG-6-31G_dp-NX-Scan-d89-09-n800
 OpenBabel11261921003D

 23 22  0  0  0  0  0  0  0  0999 V2000
   -1.9009   -0.1884   -0.0737 C   0  0  0  0  0  0  0  0  0  0  0  0
   -3.1633   -0.6566   -0.3320 N   0  0  0  0  0  0  0  0  0  0  0  0
   -4.0851   -1.2300   -0.6040 N   0  0  0  0  0  0  0  0  0  0  0  0
   -1.6971    1.0236    0.6177 C   0  0  0  0  0  0  0  0  0  0  0  0
   -0.3951    1.4187    0.8405 C   0  0  0  0  0  0  0  0  0  0  0  0
    0.6879    0.6357    0.3942 C   0  0  0  0  0  0  0  0  0  0  0  0
    1.9057    1.1179    0.6667 O   0  0  0  0  0  0  0  0  0  0  0  0
    3.0703    0.4072    0.2357 C   0  0  0  0  0  0  0  0  0  0  0  0
    0.4579   -0.5785   -0.3006 C   0  0  0  0  0  0  0  0  0  0  0  0
   -0.8346   -0.9944   -0.5387 C   0  0  0  0  0  0  0  0  0  0  0  0
   -2.5370    1.6452    0.9142 H   0  0  0  0  0  0  0  0  0  0  0  0
   -0.1977    2.3582    1.3435 H   0  0  0  0  0  0  0  0  0  0  0  0
    3.9164    1.0070    0.5683 H   0  0  0  0  0  0  0  0  0  0  0  0
    3.0931    0.3143   -0.8555 H   0  0  0  0  0  0  0  0  0  0  0  0
    3.1204   -0.5839    0.6985 H   0  0  0  0  0  0  0  0  0  0  0  0
    1.2814   -1.1856   -0.6525 H   0  0  0  0  0  0  0  0  0  0  0  0
   -1.0340   -1.9177   -1.0716 H   0  0  0  0  0  0  0  0  0  0  0  0
   -4.4695    3.1499    0.2017 S   0  0  0  0  0  0  0  0  0  0  0  0
   -4.6106    1.6601    0.2452 O   0  0  0  0  0  0  0  0  0  0  0  0
   -5.5271    3.9452    0.8510 O   0  0  0  0  0  0  0  0  0  0  0  0
   -3.0823    3.5685    0.5337 O   0  0  0  0  0  0  0  0  0  0  0  0
   -4.6570    3.4599   -1.4312 O   0  0  0  0  0  0  0  0  0  0  0  0
   -5.0636    4.3390   -1.4661 H   0  0  0  0  0  0  0  0  0  0  0  0
  1  4  2  0  0  0  0
  2  1  1  0  0  0  0
  3  2  1  0  0  0  0
  4  5  1  0  0  0  0
  4 11  1  0  0  0  0
  5 12  1  0  0  0  0
  6  7  1  0  0  0  0
  6  5  2  0  0  0  0
  8 13  1  0  0  0  0
  8  7  1  0  0  0  0
  8 15  1  0  0  0  0
  9  6  1  0  0  0  0
 10  9  2  0  0  0  0
 10  1  1  0  0  0  0
 14  8  1  0  0  0  0
 16  9  1  0  0  0  0
 17 10  1  0  0  0  0
 18 19  2  0  0  0  0
 18 21  2  0  0  0  0
 18 20  1  0  0  0  0
 22 18  1  0  0  0  0
 23 22  1  0  0  0  0
M  RAD  3   2   2   3   3  20   2
M  END
