Coordinates from ORCA-job 4-MeOPhN2+~HSO4-_B3LYPG-6-31G_dp-NX-Scan-d89-09-n800
 OpenBabel11261921003D

 23 22  0  0  0  0  0  0  0  0999 V2000
   -1.9551   -1.1718   -0.3245 C   0  0  0  0  0  0  0  0  0  0  0  0
   -2.9290   -2.0747   -0.5818 N   0  0  0  0  0  0  0  0  0  0  0  0
   -3.6982   -2.8648   -0.8066 N   0  0  0  0  0  0  0  0  0  0  0  0
   -2.2682    0.1771    0.0209 C   0  0  0  0  0  0  0  0  0  0  0  0
   -1.2224    1.0384    0.2571 C   0  0  0  0  0  0  0  0  0  0  0  0
    0.1140    0.5811    0.1600 C   0  0  0  0  0  0  0  0  0  0  0  0
    1.0467    1.4924    0.4104 O   0  0  0  0  0  0  0  0  0  0  0  0
    2.4371    1.1592    0.3364 C   0  0  0  0  0  0  0  0  0  0  0  0
    0.4092   -0.7670   -0.1835 C   0  0  0  0  0  0  0  0  0  0  0  0
   -0.6189   -1.6445   -0.4271 C   0  0  0  0  0  0  0  0  0  0  0  0
   -3.2816    0.5718    0.1044 H   0  0  0  0  0  0  0  0  0  0  0  0
   -1.4301    2.0953    0.4965 H   0  0  0  0  0  0  0  0  0  0  0  0
    2.9659    2.0797    0.5785 H   0  0  0  0  0  0  0  0  0  0  0  0
    2.7082    0.8335   -0.6729 H   0  0  0  0  0  0  0  0  0  0  0  0
    2.6935    0.3840    1.0659 H   0  0  0  0  0  0  0  0  0  0  0  0
    1.4315   -1.1155   -0.2591 H   0  0  0  0  0  0  0  0  0  0  0  0
   -0.4245   -2.6773   -0.6944 H   0  0  0  0  0  0  0  0  0  0  0  0
   -3.4880    3.8605    0.5679 S   0  0  0  0  0  0  0  0  0  0  0  0
   -4.0437    2.4861    0.6861 O   0  0  0  0  0  0  0  0  0  0  0  0
   -4.1229    4.9097    1.3864 O   0  0  0  0  0  0  0  0  0  0  0  0
   -1.9972    3.8650    0.5991 O   0  0  0  0  0  0  0  0  0  0  0  0
   -3.8858    4.2858   -1.0054 O   0  0  0  0  0  0  0  0  0  0  0  0
   -4.1621    5.2112   -0.9296 H   0  0  0  0  0  0  0  0  0  0  0  0
  1  4  1  0  0  0  0
  2  1  1  0  0  0  0
  3  2  1  0  0  0  0
  4 11  1  0  0  0  0
  4  5  2  0  0  0  0
  5 12  1  0  0  0  0
  6  5  1  0  0  0  0
  6  7  1  0  0  0  0
  8  7  1  0  0  0  0
  8 13  1  0  0  0  0
  8 15  1  0  0  0  0
  9  6  2  0  0  0  0
 10  1  2  0  0  0  0
 10  9  1  0  0  0  0
 14  8  1  0  0  0  0
 16  9  1  0  0  0  0
 17 10  1  0  0  0  0
 18 21  2  0  0  0  0
 18 19  2  0  0  0  0
 18 20  1  0  0  0  0
 22 23  1  0  0  0  0
 22 18  1  0  0  0  0
M  RAD  3   2   2   3   3  20   2
M  END
