Coordinates from ORCA-job 4-MeOPhN2+~HSO4-_B3LYPG-6-31G_dp-NX-Scan-d89-09-n800
 OpenBabel11261921003D

 23 22  0  0  0  0  0  0  0  0999 V2000
   -1.6561    0.2032   -0.5688 C   0  0  0  0  0  0  0  0  0  0  0  0
   -2.9268   -0.0780   -1.0350 N   0  0  0  0  0  0  0  0  0  0  0  0
   -4.0060    0.0908   -1.3382 N   0  0  0  0  0  0  0  0  0  0  0  0
   -1.4132    1.4279    0.0918 C   0  0  0  0  0  0  0  0  0  0  0  0
   -0.1305    1.6644    0.5429 C   0  0  0  0  0  0  0  0  0  0  0  0
    0.8974    0.7182    0.3445 C   0  0  0  0  0  0  0  0  0  0  0  0
    2.1033    1.0672    0.8229 O   0  0  0  0  0  0  0  0  0  0  0  0
    3.2036    0.1672    0.6818 C   0  0  0  0  0  0  0  0  0  0  0  0
    0.6277   -0.5008   -0.3112 C   0  0  0  0  0  0  0  0  0  0  0  0
   -0.6563   -0.7614   -0.7609 C   0  0  0  0  0  0  0  0  0  0  0  0
   -2.2218    2.1368    0.2682 H   0  0  0  0  0  0  0  0  0  0  0  0
    0.1083    2.5839    1.0657 H   0  0  0  0  0  0  0  0  0  0  0  0
    4.0542    0.6695    1.1412 H   0  0  0  0  0  0  0  0  0  0  0  0
    3.4217   -0.0291   -0.3737 H   0  0  0  0  0  0  0  0  0  0  0  0
    3.0120   -0.7770    1.2031 H   0  0  0  0  0  0  0  0  0  0  0  0
    1.4052   -1.2376   -0.4664 H   0  0  0  0  0  0  0  0  0  0  0  0
   -0.8906   -1.6932   -1.2640 H   0  0  0  0  0  0  0  0  0  0  0  0
   -4.9661    2.4363    0.1574 S   0  0  0  0  0  0  0  0  0  0  0  0
   -5.7474    1.3001    0.6462 O   0  0  0  0  0  0  0  0  0  0  0  0
   -3.9385    2.9983    1.0663 O   0  0  0  0  0  0  0  0  0  0  0  0
   -4.3773    2.1982   -1.2216 O   0  0  0  0  0  0  0  0  0  0  0  0
   -6.0511    3.6589   -0.0675 O   0  0  0  0  0  0  0  0  0  0  0  0
   -5.5732    4.4715    0.1602 H   0  0  0  0  0  0  0  0  0  0  0  0
  1  4  1  0  0  0  0
  2  1  1  0  0  0  0
  3  2  1  0  0  0  0
  4 11  1  0  0  0  0
  4  5  2  0  0  0  0
  5 12  1  0  0  0  0
  6  5  1  0  0  0  0
  6  7  1  0  0  0  0
  8  7  1  0  0  0  0
  8 13  1  0  0  0  0
  8 15  1  0  0  0  0
  9  6  2  0  0  0  0
 10  1  2  0  0  0  0
 10  9  1  0  0  0  0
 14  8  1  0  0  0  0
 16  9  1  0  0  0  0
 17 10  1  0  0  0  0
 18 19  2  0  0  0  0
 18 20  1  0  0  0  0
 21 18  2  0  0  0  0
 22 18  1  0  0  0  0
 22 23  1  0  0  0  0
M  RAD  3   2   2   3   3  20   2
M  END
