Coordinates from ORCA-job 4-MeOPhN2+~HSO4-_B3LYPG-6-31G_dp-NX-Scan-d89-09-n800
 OpenBabel11261921003D

 23 22  0  0  0  0  0  0  0  0999 V2000
   -1.9001   -0.1850   -0.0733 C   0  0  0  0  0  0  0  0  0  0  0  0
   -3.1640   -0.6495   -0.3314 N   0  0  0  0  0  0  0  0  0  0  0  0
   -4.0892   -1.2176   -0.6026 N   0  0  0  0  0  0  0  0  0  0  0  0
   -1.6948    1.0263    0.6186 C   0  0  0  0  0  0  0  0  0  0  0  0
   -0.3926    1.4201    0.8415 C   0  0  0  0  0  0  0  0  0  0  0  0
    0.6894    0.6359    0.3946 C   0  0  0  0  0  0  0  0  0  0  0  0
    1.9079    1.1166    0.6670 O   0  0  0  0  0  0  0  0  0  0  0  0
    3.0715    0.4047    0.2356 C   0  0  0  0  0  0  0  0  0  0  0  0
    0.4579   -0.5779   -0.3006 C   0  0  0  0  0  0  0  0  0  0  0  0
   -0.8352   -0.9922   -0.5388 C   0  0  0  0  0  0  0  0  0  0  0  0
   -2.5358    1.6465    0.9143 H   0  0  0  0  0  0  0  0  0  0  0  0
   -0.1939    2.3591    1.3449 H   0  0  0  0  0  0  0  0  0  0  0  0
    3.9184    1.0033    0.5684 H   0  0  0  0  0  0  0  0  0  0  0  0
    3.0941    0.3121   -0.8556 H   0  0  0  0  0  0  0  0  0  0  0  0
    3.1204   -0.5866    0.6981 H   0  0  0  0  0  0  0  0  0  0  0  0
    1.2807   -1.1857   -0.6528 H   0  0  0  0  0  0  0  0  0  0  0  0
   -1.0357   -1.9150   -1.0721 H   0  0  0  0  0  0  0  0  0  0  0  0
   -4.4709    3.1464    0.2008 S   0  0  0  0  0  0  0  0  0  0  0  0
   -4.6067    1.6560    0.2430 O   0  0  0  0  0  0  0  0  0  0  0  0
   -5.5326    3.9366    0.8492 O   0  0  0  0  0  0  0  0  0  0  0  0
   -3.0858    3.5697    0.5352 O   0  0  0  0  0  0  0  0  0  0  0  0
   -4.6573    3.4569   -1.4321 O   0  0  0  0  0  0  0  0  0  0  0  0
   -5.0674    4.3344   -1.4670 H   0  0  0  0  0  0  0  0  0  0  0  0
  1  4  2  0  0  0  0
  2  1  1  0  0  0  0
  3  2  1  0  0  0  0
  4  5  1  0  0  0  0
  4 11  1  0  0  0  0
  5 12  1  0  0  0  0
  6  7  1  0  0  0  0
  6  5  2  0  0  0  0
  8 13  1  0  0  0  0
  8  7  1  0  0  0  0
  8 15  1  0  0  0  0
  9  6  1  0  0  0  0
 10  9  2  0  0  0  0
 10  1  1  0  0  0  0
 14  8  1  0  0  0  0
 16  9  1  0  0  0  0
 17 10  1  0  0  0  0
 18 19  2  0  0  0  0
 18 21  2  0  0  0  0
 18 20  1  0  0  0  0
 22 18  1  0  0  0  0
 23 22  1  0  0  0  0
M  RAD  3   2   2   3   3  20   2
M  END
