Coordinates from ORCA-job 4-MeOPhN2+~HSO4-_B3LYPG-6-31G_dp-NX-Scan-d89-09-n800
 OpenBabel11261921003D

 23 22  0  0  0  0  0  0  0  0999 V2000
   -1.6671    0.1534   -0.4836 C   0  0  0  0  0  0  0  0  0  0  0  0
   -2.9455   -0.1522   -0.9100 N   0  0  0  0  0  0  0  0  0  0  0  0
   -4.0294   -0.0018   -1.2063 N   0  0  0  0  0  0  0  0  0  0  0  0
   -1.4409    1.3766    0.1842 C   0  0  0  0  0  0  0  0  0  0  0  0
   -0.1528    1.6467    0.5988 C   0  0  0  0  0  0  0  0  0  0  0  0
    0.8955    0.7338    0.3550 C   0  0  0  0  0  0  0  0  0  0  0  0
    2.1058    1.1137    0.7977 O   0  0  0  0  0  0  0  0  0  0  0  0
    3.2276    0.2494    0.6081 C   0  0  0  0  0  0  0  0  0  0  0  0
    0.6410   -0.4862   -0.3050 C   0  0  0  0  0  0  0  0  0  0  0  0
   -0.6485   -0.7820   -0.7158 C   0  0  0  0  0  0  0  0  0  0  0  0
   -2.2791    2.0415    0.3936 H   0  0  0  0  0  0  0  0  0  0  0  0
    0.0774    2.5661    1.1257 H   0  0  0  0  0  0  0  0  0  0  0  0
    4.0780    0.7728    1.0437 H   0  0  0  0  0  0  0  0  0  0  0  0
    3.4143    0.0715   -0.4567 H   0  0  0  0  0  0  0  0  0  0  0  0
    3.0830   -0.7056    1.1247 H   0  0  0  0  0  0  0  0  0  0  0  0
    1.4353   -1.1970   -0.4933 H   0  0  0  0  0  0  0  0  0  0  0  0
   -0.8712   -1.7154   -1.2212 H   0  0  0  0  0  0  0  0  0  0  0  0
   -5.0986    2.4019    0.0483 S   0  0  0  0  0  0  0  0  0  0  0  0
   -6.2483    1.5381    0.2975 O   0  0  0  0  0  0  0  0  0  0  0  0
   -4.1034    2.5425    1.1421 O   0  0  0  0  0  0  0  0  0  0  0  0
   -4.3963    2.1136   -1.2679 O   0  0  0  0  0  0  0  0  0  0  0  0
   -5.7086    3.9224   -0.1667 O   0  0  0  0  0  0  0  0  0  0  0  0
   -5.0899    4.5114    0.2920 H   0  0  0  0  0  0  0  0  0  0  0  0
  1  4  1  0  0  0  0
  2  1  1  0  0  0  0
  3  2  1  0  0  0  0
  4 11  1  0  0  0  0
  4  5  2  0  0  0  0
  5 12  1  0  0  0  0
  6  5  1  0  0  0  0
  6  7  1  0  0  0  0
  8  7  1  0  0  0  0
  8 13  1  0  0  0  0
  8 15  1  0  0  0  0
  9  6  2  0  0  0  0
 10  1  2  0  0  0  0
 10  9  1  0  0  0  0
 14  8  1  0  0  0  0
 16  9  1  0  0  0  0
 17 10  1  0  0  0  0
 18 19  2  0  0  0  0
 18 20  1  0  0  0  0
 21 18  2  0  0  0  0
 22 18  1  0  0  0  0
 22 23  1  0  0  0  0
M  RAD  3   2   2   3   3  20   2
M  END
