Coordinates from ORCA-job 4-MeOPhN2+~HSO4-_B3LYPG-6-31G_dp-NX-Scan-d89-09-n800
 OpenBabel11261921003D

 23 22  0  0  0  0  0  0  0  0999 V2000
   -1.9570   -1.2127   -0.3294 C   0  0  0  0  0  0  0  0  0  0  0  0
   -2.9096   -2.1373   -0.5901 N   0  0  0  0  0  0  0  0  0  0  0  0
   -3.6536   -2.9506   -0.8195 N   0  0  0  0  0  0  0  0  0  0  0  0
   -2.2927    0.1315    0.0176 C   0  0  0  0  0  0  0  0  0  0  0  0
   -1.2625    1.0099    0.2566 C   0  0  0  0  0  0  0  0  0  0  0  0
    0.0822    0.5753    0.1602 C   0  0  0  0  0  0  0  0  0  0  0  0
    0.9978    1.5020    0.4131 O   0  0  0  0  0  0  0  0  0  0  0  0
    2.3942    1.1948    0.3390 C   0  0  0  0  0  0  0  0  0  0  0  0
    0.4009   -0.7669   -0.1848 C   0  0  0  0  0  0  0  0  0  0  0  0
   -0.6120   -1.6610   -0.4304 C   0  0  0  0  0  0  0  0  0  0  0  0
   -3.3128    0.5056    0.0978 H   0  0  0  0  0  0  0  0  0  0  0  0
   -1.4823    2.0644    0.4964 H   0  0  0  0  0  0  0  0  0  0  0  0
    2.9055    2.1246    0.5829 H   0  0  0  0  0  0  0  0  0  0  0  0
    2.6714    0.8759   -0.6709 H   0  0  0  0  0  0  0  0  0  0  0  0
    2.6645    0.4231    1.0672 H   0  0  0  0  0  0  0  0  0  0  0  0
    1.4291   -1.0979   -0.2599 H   0  0  0  0  0  0  0  0  0  0  0  0
   -0.3997   -2.6901   -0.6986 H   0  0  0  0  0  0  0  0  0  0  0  0
   -3.4338    3.8940    0.5722 S   0  0  0  0  0  0  0  0  0  0  0  0
   -4.0169    2.5336    0.7126 O   0  0  0  0  0  0  0  0  0  0  0  0
   -4.0241    4.9663    1.3955 O   0  0  0  0  0  0  0  0  0  0  0  0
   -1.9423    3.8617    0.5711 O   0  0  0  0  0  0  0  0  0  0  0  0
   -3.8545    4.3193   -0.9954 O   0  0  0  0  0  0  0  0  0  0  0  0
   -4.1132    5.2497   -0.9183 H   0  0  0  0  0  0  0  0  0  0  0  0
  1  4  1  0  0  0  0
  2  1  1  0  0  0  0
  3  2  1  0  0  0  0
  4 11  1  0  0  0  0
  4  5  2  0  0  0  0
  5 12  1  0  0  0  0
  6  5  1  0  0  0  0
  6  7  1  0  0  0  0
  8  7  1  0  0  0  0
  8 13  1  0  0  0  0
  8 15  1  0  0  0  0
  9  6  2  0  0  0  0
 10  1  2  0  0  0  0
 10  9  1  0  0  0  0
 14  8  1  0  0  0  0
 16  9  1  0  0  0  0
 17 10  1  0  0  0  0
 18 19  2  0  0  0  0
 18 20  1  0  0  0  0
 21 18  2  0  0  0  0
 22 23  1  0  0  0  0
 22 18  1  0  0  0  0
M  RAD  3   2   2   3   3  20   2
M  END
