Coordinates from ORCA-job 4-MeOPhN2+~HSO4-_B3LYPG-6-31G_dp-NX-Scan-d89-09-n800
 OpenBabel11261921003D

 23 22  0  0  0  0  0  0  0  0999 V2000
   -1.9571   -1.2337   -0.3312 C   0  0  0  0  0  0  0  0  0  0  0  0
   -2.8978   -2.1707   -0.5926 N   0  0  0  0  0  0  0  0  0  0  0  0
   -3.6248   -2.9992   -0.8235 N   0  0  0  0  0  0  0  0  0  0  0  0
   -2.3039    0.1087    0.0149 C   0  0  0  0  0  0  0  0  0  0  0  0
   -1.2810    0.9956    0.2534 C   0  0  0  0  0  0  0  0  0  0  0  0
    0.0677    0.5714    0.1581 C   0  0  0  0  0  0  0  0  0  0  0  0
    0.9747    1.5058    0.4109 O   0  0  0  0  0  0  0  0  0  0  0  0
    2.3739    1.2107    0.3387 C   0  0  0  0  0  0  0  0  0  0  0  0
    0.3977   -0.7681   -0.1858 C   0  0  0  0  0  0  0  0  0  0  0  0
   -0.6080   -1.6702   -0.4313 C   0  0  0  0  0  0  0  0  0  0  0  0
   -3.3275    0.4718    0.0950 H   0  0  0  0  0  0  0  0  0  0  0  0
   -1.5023    2.0504    0.4917 H   0  0  0  0  0  0  0  0  0  0  0  0
    2.8766    2.1451    0.5828 H   0  0  0  0  0  0  0  0  0  0  0  0
    2.6550    0.8938   -0.6707 H   0  0  0  0  0  0  0  0  0  0  0  0
    2.6499    0.4418    1.0676 H   0  0  0  0  0  0  0  0  0  0  0  0
    1.4286   -1.0910   -0.2603 H   0  0  0  0  0  0  0  0  0  0  0  0
   -0.3874   -2.6977   -0.6989 H   0  0  0  0  0  0  0  0  0  0  0  0
   -3.4144    3.9136    0.5769 S   0  0  0  0  0  0  0  0  0  0  0  0
   -4.0176    2.5630    0.7231 O   0  0  0  0  0  0  0  0  0  0  0  0
   -3.9825    4.9994    1.3990 O   0  0  0  0  0  0  0  0  0  0  0  0
   -1.9234    3.8564    0.5694 O   0  0  0  0  0  0  0  0  0  0  0  0
   -3.8343    4.3427   -0.9901 O   0  0  0  0  0  0  0  0  0  0  0  0
   -4.0836    5.2756   -0.9122 H   0  0  0  0  0  0  0  0  0  0  0  0
  1  4  1  0  0  0  0
  2  1  1  0  0  0  0
  3  2  1  0  0  0  0
  4 11  1  0  0  0  0
  4  5  2  0  0  0  0
  5 12  1  0  0  0  0
  6  5  1  0  0  0  0
  6  7  1  0  0  0  0
  8  7  1  0  0  0  0
  8 13  1  0  0  0  0
  8 15  1  0  0  0  0
  9  6  2  0  0  0  0
 10  1  2  0  0  0  0
 10  9  1  0  0  0  0
 14  8  1  0  0  0  0
 16  9  1  0  0  0  0
 17 10  1  0  0  0  0
 18 19  2  0  0  0  0
 18 20  1  0  0  0  0
 21 18  2  0  0  0  0
 22 23  1  0  0  0  0
 22 18  1  0  0  0  0
M  RAD  3   2   2   3   3  20   2
M  END
