Coordinates from ORCA-job 4-MeOPhN2+~HSO4-_B3LYPG-6-31G_dp-NX-Scan-d89-09-n800
 OpenBabel11261921003D

 23 22  0  0  0  0  0  0  0  0999 V2000
   -1.7536    0.5714   -0.4874 C   0  0  0  0  0  0  0  0  0  0  0  0
   -3.0706    0.4455   -0.8694 N   0  0  0  0  0  0  0  0  0  0  0  0
   -4.0836    0.2194   -1.2836 N   0  0  0  0  0  0  0  0  0  0  0  0
   -1.2251    1.8389   -0.1678 C   0  0  0  0  0  0  0  0  0  0  0  0
    0.1086    1.9028    0.1733 C   0  0  0  0  0  0  0  0  0  0  0  0
    0.9040    0.7372    0.2184 C   0  0  0  0  0  0  0  0  0  0  0  0
    2.1837    0.9262    0.5727 O   0  0  0  0  0  0  0  0  0  0  0  0
    3.0666   -0.1939    0.6606 C   0  0  0  0  0  0  0  0  0  0  0  0
    0.3483   -0.5205   -0.1001 C   0  0  0  0  0  0  0  0  0  0  0  0
   -0.9855   -0.6056   -0.4598 C   0  0  0  0  0  0  0  0  0  0  0  0
   -1.8822    2.7057   -0.2137 H   0  0  0  0  0  0  0  0  0  0  0  0
    0.5704    2.8502    0.4263 H   0  0  0  0  0  0  0  0  0  0  0  0
    4.0299    0.2156    0.9620 H   0  0  0  0  0  0  0  0  0  0  0  0
    3.1689   -0.6934   -0.3091 H   0  0  0  0  0  0  0  0  0  0  0  0
    2.7221   -0.9102    1.4145 H   0  0  0  0  0  0  0  0  0  0  0  0
    0.9460   -1.4224   -0.0691 H   0  0  0  0  0  0  0  0  0  0  0  0
   -1.4346   -1.5611   -0.7070 H   0  0  0  0  0  0  0  0  0  0  0  0
   -4.5554    2.8364    0.4713 S   0  0  0  0  0  0  0  0  0  0  0  0
   -3.8417    1.7805    1.2287 O   0  0  0  0  0  0  0  0  0  0  0  0
   -5.3111    3.8160    1.2450 O   0  0  0  0  0  0  0  0  0  0  0  0
   -3.7391    3.3835   -0.6505 O   0  0  0  0  0  0  0  0  0  0  0  0
   -5.7170    1.8957   -0.3292 O   0  0  0  0  0  0  0  0  0  0  0  0
   -6.1707    2.4972   -0.9413 H   0  0  0  0  0  0  0  0  0  0  0  0
  1 10  2  0  0  0  0
  1  4  1  0  0  0  0
  2  1  1  0  0  0  0
  3  2  1  0  0  0  0
  4  5  2  0  0  0  0
  5  6  1  0  0  0  0
  5 12  1  0  0  0  0
  6  7  1  0  0  0  0
  7  8  1  0  0  0  0
  8 13  1  0  0  0  0
  8 15  1  0  0  0  0
  9 16  1  0  0  0  0
  9  6  2  0  0  0  0
 10  9  1  0  0  0  0
 11  4  1  0  0  0  0
 14  8  1  0  0  0  0
 17 10  1  0  0  0  0
 18 19  2  0  0  0  0
 18 20  1  0  0  0  0
 21 18  2  0  0  0  0
 22 18  1  0  0  0  0
 23 22  1  0  0  0  0
M  RAD  3   2   2   3   3  20   2
M  END
