Coordinates from ORCA-job 4-MeOPhN2+~HSO4-_B3LYPG-6-31G_dp-NX-Scan-d89-09-n800
 OpenBabel11261921003D

 23 22  0  0  0  0  0  0  0  0999 V2000
   -1.6479    0.4534   -0.4318 C   0  0  0  0  0  0  0  0  0  0  0  0
   -2.9279    0.2513   -0.9150 N   0  0  0  0  0  0  0  0  0  0  0  0
   -3.8388   -0.0820   -1.4822 N   0  0  0  0  0  0  0  0  0  0  0  0
   -1.3285    1.5997    0.3209 C   0  0  0  0  0  0  0  0  0  0  0  0
   -0.0209    1.7606    0.7316 C   0  0  0  0  0  0  0  0  0  0  0  0
    0.9612    0.7993    0.4146 C   0  0  0  0  0  0  0  0  0  0  0  0
    2.1964    1.0608    0.8726 O   0  0  0  0  0  0  0  0  0  0  0  0
    3.2541    0.1357    0.6131 C   0  0  0  0  0  0  0  0  0  0  0  0
    0.6200   -0.3451   -0.3363 C   0  0  0  0  0  0  0  0  0  0  0  0
   -0.6855   -0.5166   -0.7648 C   0  0  0  0  0  0  0  0  0  0  0  0
   -2.1225    2.2925    0.5737 H   0  0  0  0  0  0  0  0  0  0  0  0
    0.2752    2.6260    1.3136 H   0  0  0  0  0  0  0  0  0  0  0  0
    4.1385    0.5618    1.0852 H   0  0  0  0  0  0  0  0  0  0  0  0
    3.4302    0.0276   -0.4627 H   0  0  0  0  0  0  0  0  0  0  0  0
    3.0398   -0.8436    1.0546 H   0  0  0  0  0  0  0  0  0  0  0  0
    1.3617   -1.0923   -0.5876 H   0  0  0  0  0  0  0  0  0  0  0  0
   -0.9675   -1.3871   -1.3472 H   0  0  0  0  0  0  0  0  0  0  0  0
   -5.2724    2.1589    0.1880 S   0  0  0  0  0  0  0  0  0  0  0  0
   -6.3840    2.5531    1.0545 O   0  0  0  0  0  0  0  0  0  0  0  0
   -4.0668    1.5994    0.8603 O   0  0  0  0  0  0  0  0  0  0  0  0
   -5.6471    1.3427   -1.0011 O   0  0  0  0  0  0  0  0  0  0  0  0
   -4.6614    3.5880   -0.4269 O   0  0  0  0  0  0  0  0  0  0  0  0
   -5.4276    4.1713   -0.5421 H   0  0  0  0  0  0  0  0  0  0  0  0
  1  4  1  0  0  0  0
  2  1  1  0  0  0  0
  3  2  1  0  0  0  0
  4 11  1  0  0  0  0
  4  5  2  0  0  0  0
  5 12  1  0  0  0  0
  6  5  1  0  0  0  0
  6  7  1  0  0  0  0
  8  7  1  0  0  0  0
  8 15  1  0  0  0  0
  8 13  1  0  0  0  0
  9  6  2  0  0  0  0
 10  1  2  0  0  0  0
 10  9  1  0  0  0  0
 14  8  1  0  0  0  0
 16  9  1  0  0  0  0
 17 10  1  0  0  0  0
 18 20  2  0  0  0  0
 18 19  1  0  0  0  0
 21 18  2  0  0  0  0
 22 18  1  0  0  0  0
 23 22  1  0  0  0  0
M  RAD  3   2   2   3   3  19   2
M  END
