Coordinates from ORCA-job 4-MeOPhN2+~HSO4-_B3LYPG-6-31G_dp-NX-Scan-d89-09-n800
 OpenBabel11261921003D

 23 22  0  0  0  0  0  0  0  0999 V2000
   -1.9568   -1.2109   -0.3292 C   0  0  0  0  0  0  0  0  0  0  0  0
   -2.9111   -2.1338   -0.5897 N   0  0  0  0  0  0  0  0  0  0  0  0
   -3.6579   -2.9446   -0.8186 N   0  0  0  0  0  0  0  0  0  0  0  0
   -2.2917    0.1332    0.0181 C   0  0  0  0  0  0  0  0  0  0  0  0
   -1.2611    1.0111    0.2573 C   0  0  0  0  0  0  0  0  0  0  0  0
    0.0833    0.5759    0.1606 C   0  0  0  0  0  0  0  0  0  0  0  0
    0.9994    1.5020    0.4136 O   0  0  0  0  0  0  0  0  0  0  0  0
    2.3956    1.1939    0.3390 C   0  0  0  0  0  0  0  0  0  0  0  0
    0.4012   -0.7664   -0.1849 C   0  0  0  0  0  0  0  0  0  0  0  0
   -0.6122   -1.6602   -0.4306 C   0  0  0  0  0  0  0  0  0  0  0  0
   -3.3117    0.5077    0.0983 H   0  0  0  0  0  0  0  0  0  0  0  0
   -1.4814    2.0653    0.4975 H   0  0  0  0  0  0  0  0  0  0  0  0
    2.9076    2.1233    0.5831 H   0  0  0  0  0  0  0  0  0  0  0  0
    2.6724    0.8751   -0.6710 H   0  0  0  0  0  0  0  0  0  0  0  0
    2.6657    0.4219    1.0670 H   0  0  0  0  0  0  0  0  0  0  0  0
    1.4291   -1.0980   -0.2603 H   0  0  0  0  0  0  0  0  0  0  0  0
   -0.4005   -2.6893   -0.6990 H   0  0  0  0  0  0  0  0  0  0  0  0
   -3.4348    3.8915    0.5716 S   0  0  0  0  0  0  0  0  0  0  0  0
   -4.0162    2.5304    0.7114 O   0  0  0  0  0  0  0  0  0  0  0  0
   -4.0274    4.9622    1.3949 O   0  0  0  0  0  0  0  0  0  0  0  0
   -1.9432    3.8615    0.5713 O   0  0  0  0  0  0  0  0  0  0  0  0
   -3.8552    4.3165   -0.9962 O   0  0  0  0  0  0  0  0  0  0  0  0
   -4.1146    5.2467   -0.9193 H   0  0  0  0  0  0  0  0  0  0  0  0
  1  4  1  0  0  0  0
  2  1  1  0  0  0  0
  3  2  1  0  0  0  0
  4 11  1  0  0  0  0
  4  5  2  0  0  0  0
  5 12  1  0  0  0  0
  6  5  1  0  0  0  0
  6  7  1  0  0  0  0
  8  7  1  0  0  0  0
  8 13  1  0  0  0  0
  8 15  1  0  0  0  0
  9  6  2  0  0  0  0
 10  1  2  0  0  0  0
 10  9  1  0  0  0  0
 14  8  1  0  0  0  0
 16  9  1  0  0  0  0
 17 10  1  0  0  0  0
 18 19  2  0  0  0  0
 18 20  1  0  0  0  0
 21 18  2  0  0  0  0
 22 23  1  0  0  0  0
 22 18  1  0  0  0  0
M  RAD  3   2   2   3   3  20   2
M  END
