Coordinates from ORCA-job 4-MeOPhN2+~HSO4-_B3LYPG-6-31G_dp-NX-Scan-d89-09-n800
 OpenBabel11261921003D

 23 22  0  0  0  0  0  0  0  0999 V2000
   -1.6914    0.3831   -0.4007 C   0  0  0  0  0  0  0  0  0  0  0  0
   -2.9651    0.1553   -0.8795 N   0  0  0  0  0  0  0  0  0  0  0  0
   -3.9120   -0.1412   -1.4087 N   0  0  0  0  0  0  0  0  0  0  0  0
   -1.4171    1.4846    0.4347 C   0  0  0  0  0  0  0  0  0  0  0  0
   -0.1132    1.6737    0.8446 C   0  0  0  0  0  0  0  0  0  0  0  0
    0.9091    0.7892    0.4423 C   0  0  0  0  0  0  0  0  0  0  0  0
    2.1366    1.0751    0.9045 O   0  0  0  0  0  0  0  0  0  0  0  0
    3.2358    0.2298    0.5583 C   0  0  0  0  0  0  0  0  0  0  0  0
    0.6128   -0.3104   -0.3916 C   0  0  0  0  0  0  0  0  0  0  0  0
   -0.6885   -0.5126   -0.8168 C   0  0  0  0  0  0  0  0  0  0  0  0
   -2.2412    2.1177    0.7477 H   0  0  0  0  0  0  0  0  0  0  0  0
    0.1499    2.5047    1.4894 H   0  0  0  0  0  0  0  0  0  0  0  0
    4.1057    0.6659    1.0476 H   0  0  0  0  0  0  0  0  0  0  0  0
    3.3958    0.2134   -0.5255 H   0  0  0  0  0  0  0  0  0  0  0  0
    3.0816   -0.7899    0.9271 H   0  0  0  0  0  0  0  0  0  0  0  0
    1.3864   -0.9978   -0.7080 H   0  0  0  0  0  0  0  0  0  0  0  0
   -0.9374   -1.3487   -1.4616 H   0  0  0  0  0  0  0  0  0  0  0  0
   -5.2360    2.2154    0.2275 S   0  0  0  0  0  0  0  0  0  0  0  0
   -6.3292    2.9040    0.9147 O   0  0  0  0  0  0  0  0  0  0  0  0
   -4.1826    1.5975    1.0735 O   0  0  0  0  0  0  0  0  0  0  0  0
   -5.6599    1.3024   -0.8763 O   0  0  0  0  0  0  0  0  0  0  0  0
   -4.3548    3.4250   -0.5314 O   0  0  0  0  0  0  0  0  0  0  0  0
   -5.0068    4.0790   -0.8269 H   0  0  0  0  0  0  0  0  0  0  0  0
  1  4  1  0  0  0  0
  2  1  1  0  0  0  0
  3  2  1  0  0  0  0
  4 11  1  0  0  0  0
  4  5  2  0  0  0  0
  5 12  1  0  0  0  0
  6  5  1  0  0  0  0
  6  7  1  0  0  0  0
  8  7  1  0  0  0  0
  8 15  1  0  0  0  0
  8 13  1  0  0  0  0
  9  6  2  0  0  0  0
 10  1  2  0  0  0  0
 10  9  1  0  0  0  0
 14  8  1  0  0  0  0
 16  9  1  0  0  0  0
 17 10  1  0  0  0  0
 18 19  2  0  0  0  0
 18 20  1  0  0  0  0
 21 18  2  0  0  0  0
 22 18  1  0  0  0  0
 23 22  1  0  0  0  0
M  RAD  3   2   2   3   3  20   2
M  END
