Coordinates from ORCA-job 4-MeOPhN2+~HSO4-_B3LYPG-6-31G_dp-NX-Scan-d89-09-n800
 OpenBabel11261921003D

 23 22  0  0  0  0  0  0  0  0999 V2000
   -1.8877   -0.6181   -0.1945 C   0  0  0  0  0  0  0  0  0  0  0  0
   -3.0931   -1.2045   -0.4206 N   0  0  0  0  0  0  0  0  0  0  0  0
   -4.0944   -1.6711   -0.6051 N   0  0  0  0  0  0  0  0  0  0  0  0
   -1.8936    0.7374    0.2116 C   0  0  0  0  0  0  0  0  0  0  0  0
   -0.6773    1.3477    0.4168 C   0  0  0  0  0  0  0  0  0  0  0  0
    0.5217    0.6270    0.2317 C   0  0  0  0  0  0  0  0  0  0  0  0
    1.6474    1.3070    0.4584 O   0  0  0  0  0  0  0  0  0  0  0  0
    2.9219    0.6771    0.2907 C   0  0  0  0  0  0  0  0  0  0  0  0
    0.4982   -0.7370   -0.1747 C   0  0  0  0  0  0  0  0  0  0  0  0
   -0.7051   -1.3695   -0.3938 C   0  0  0  0  0  0  0  0  0  0  0  0
   -2.8501    1.2692    0.3287 H   0  0  0  0  0  0  0  0  0  0  0  0
   -0.6703    2.3944    0.7026 H   0  0  0  0  0  0  0  0  0  0  0  0
    3.6571    1.4412    0.5395 H   0  0  0  0  0  0  0  0  0  0  0  0
    3.0666    0.3530   -0.7451 H   0  0  0  0  0  0  0  0  0  0  0  0
    3.0330   -0.1739    0.9709 H   0  0  0  0  0  0  0  0  0  0  0  0
    1.4179   -1.2881   -0.3210 H   0  0  0  0  0  0  0  0  0  0  0  0
   -0.7475   -2.4053   -0.7116 H   0  0  0  0  0  0  0  0  0  0  0  0
   -4.1800    3.3978    0.3528 S   0  0  0  0  0  0  0  0  0  0  0  0
   -4.5161    1.9532    0.1609 O   0  0  0  0  0  0  0  0  0  0  0  0
   -5.0796    4.1510    1.2407 O   0  0  0  0  0  0  0  0  0  0  0  0
   -2.7287    3.5952    0.5939 O   0  0  0  0  0  0  0  0  0  0  0  0
   -4.4696    4.0396   -1.1658 O   0  0  0  0  0  0  0  0  0  0  0  0
   -4.8922    4.8918   -0.9821 H   0  0  0  0  0  0  0  0  0  0  0  0
  1  4  1  0  0  0  0
  2  1  1  0  0  0  0
  3  2  1  0  0  0  0
  4 11  1  0  0  0  0
  4  5  2  0  0  0  0
  5 12  1  0  0  0  0
  6  5  1  0  0  0  0
  6  7  1  0  0  0  0
  8  7  1  0  0  0  0
  8 13  1  0  0  0  0
  8 15  1  0  0  0  0
  9  6  2  0  0  0  0
 10  1  2  0  0  0  0
 10  9  1  0  0  0  0
 14  8  1  0  0  0  0
 16  9  1  0  0  0  0
 17 10  1  0  0  0  0
 18 21  2  0  0  0  0
 18 20  1  0  0  0  0
 19 18  2  0  0  0  0
 22 23  1  0  0  0  0
 22 18  1  0  0  0  0
M  RAD  3   2   2   3   3  20   2
M  END
