Coordinates from ORCA-job 4-MeOPhN2+~HSO4-_B3LYPG-6-31G_dp-NX-Scan-d89-09-n800
 OpenBabel11261921003D

 23 22  0  0  0  0  0  0  0  0999 V2000
   -1.9454   -1.0699   -0.3129 C   0  0  0  0  0  0  0  0  0  0  0  0
   -2.9713   -1.9143   -0.5673 N   0  0  0  0  0  0  0  0  0  0  0  0
   -3.8011   -2.6406   -0.7861 N   0  0  0  0  0  0  0  0  0  0  0  0
   -2.2021    0.2841    0.0467 C   0  0  0  0  0  0  0  0  0  0  0  0
   -1.1194    1.0993    0.2855 C   0  0  0  0  0  0  0  0  0  0  0  0
    0.1953    0.5909    0.1740 C   0  0  0  0  0  0  0  0  0  0  0  0
    1.1688    1.4604    0.4263 O   0  0  0  0  0  0  0  0  0  0  0  0
    2.5426    1.0683    0.3340 C   0  0  0  0  0  0  0  0  0  0  0  0
    0.4315   -0.7654   -0.1856 C   0  0  0  0  0  0  0  0  0  0  0  0
   -0.6329   -1.5991   -0.4305 C   0  0  0  0  0  0  0  0  0  0  0  0
   -3.2000    0.7254    0.1405 H   0  0  0  0  0  0  0  0  0  0  0  0
   -1.3037    2.1548    0.5375 H   0  0  0  0  0  0  0  0  0  0  0  0
    3.1140    1.9621    0.5799 H   0  0  0  0  0  0  0  0  0  0  0  0
    2.7894    0.7420   -0.6814 H   0  0  0  0  0  0  0  0  0  0  0  0
    2.7733    0.2749    1.0525 H   0  0  0  0  0  0  0  0  0  0  0  0
    1.4382   -1.1542   -0.2721 H   0  0  0  0  0  0  0  0  0  0  0  0
   -0.4823   -2.6363   -0.7088 H   0  0  0  0  0  0  0  0  0  0  0  0
   -3.6246    3.7851    0.5467 S   0  0  0  0  0  0  0  0  0  0  0  0
   -4.1351    2.3904    0.6482 O   0  0  0  0  0  0  0  0  0  0  0  0
   -4.3296    4.7999    1.3482 O   0  0  0  0  0  0  0  0  0  0  0  0
   -2.1388    3.8522    0.6215 O   0  0  0  0  0  0  0  0  0  0  0  0
   -3.9941    4.1931   -1.0375 O   0  0  0  0  0  0  0  0  0  0  0  0
   -4.2944    5.1120   -0.9745 H   0  0  0  0  0  0  0  0  0  0  0  0
  1  4  1  0  0  0  0
  2  1  1  0  0  0  0
  3  2  1  0  0  0  0
  4 11  1  0  0  0  0
  4  5  2  0  0  0  0
  5 12  1  0  0  0  0
  6  5  1  0  0  0  0
  6  7  1  0  0  0  0
  8  7  1  0  0  0  0
  8 13  1  0  0  0  0
  8 15  1  0  0  0  0
  9  6  2  0  0  0  0
 10  1  2  0  0  0  0
 10  9  1  0  0  0  0
 14  8  1  0  0  0  0
 16  9  1  0  0  0  0
 17 10  1  0  0  0  0
 18 21  2  0  0  0  0
 18 19  2  0  0  0  0
 18 20  1  0  0  0  0
 22 23  1  0  0  0  0
 22 18  1  0  0  0  0
M  RAD  3   2   2   3   3  20   2
M  END
