Coordinates from ORCA-job 4-MeOPhN2+~HSO4-_B3LYPG-6-31G_dp-NX-Scan-d89-09-n800
 OpenBabel11261921003D

 23 22  0  0  0  0  0  0  0  0999 V2000
   -1.5289    0.8131   -0.5842 C   0  0  0  0  0  0  0  0  0  0  0  0
   -2.7132    0.8588   -1.3372 N   0  0  0  0  0  0  0  0  0  0  0  0
   -3.7504    1.4550   -0.8825 N   0  0  0  0  0  0  0  0  0  0  0  0
   -1.2712    1.3470    0.7019 C   0  0  0  0  0  0  0  0  0  0  0  0
   -0.0204    1.1905    1.2775 C   0  0  0  0  0  0  0  0  0  0  0  0
    1.0072    0.5085    0.6051 C   0  0  0  0  0  0  0  0  0  0  0  0
    2.1884    0.4210    1.2671 O   0  0  0  0  0  0  0  0  0  0  0  0
    3.2720   -0.2545    0.6403 C   0  0  0  0  0  0  0  0  0  0  0  0
    0.7642   -0.0259   -0.6695 C   0  0  0  0  0  0  0  0  0  0  0  0
   -0.4903    0.1307   -1.2443 C   0  0  0  0  0  0  0  0  0  0  0  0
   -2.0381    1.8765    1.2469 H   0  0  0  0  0  0  0  0  0  0  0  0
    0.1896    1.5931    2.2624 H   0  0  0  0  0  0  0  0  0  0  0  0
    4.1068   -0.1937    1.3396 H   0  0  0  0  0  0  0  0  0  0  0  0
    3.5544    0.2277   -0.3034 H   0  0  0  0  0  0  0  0  0  0  0  0
    3.0333   -1.3083    0.4511 H   0  0  0  0  0  0  0  0  0  0  0  0
    1.5370   -0.5567   -1.2121 H   0  0  0  0  0  0  0  0  0  0  0  0
   -0.6961   -0.2749   -2.2290 H   0  0  0  0  0  0  0  0  0  0  0  0
   -6.0222    2.8515    0.2387 S   0  0  0  0  0  0  0  0  0  0  0  0
   -5.6240    4.2445    0.3377 O   0  0  0  0  0  0  0  0  0  0  0  0
   -3.9238    2.0029    0.0907 O   0  0  0  0  0  0  0  0  0  0  0  0
   -6.4090    2.1112    1.4267 O   0  0  0  0  0  0  0  0  0  0  0  0
   -6.3460    2.2983   -1.0794 O   0  0  0  0  0  0  0  0  0  0  0  0
   -4.5411    1.3989   -1.5591 H   0  0  0  0  0  0  0  0  0  0  0  0
  1  4  2  0  0  0  0
  2  3  1  0  0  0  0
  2  1  1  0  0  0  0
  3 20  1  0  0  0  0
  4 11  1  0  0  0  0
  4  5  1  0  0  0  0
  5 12  1  0  0  0  0
  6  7  1  0  0  0  0
  6  5  2  0  0  0  0
  8  7  1  0  0  0  0
  8 13  1  0  0  0  0
  9  6  1  0  0  0  0
 10  9  2  0  0  0  0
 10  1  1  0  0  0  0
 14  8  1  0  0  0  0
 15  8  1  0  0  0  0
 16  9  1  0  0  0  0
 17 10  1  0  0  0  0
 18 19  2  0  0  0  0
 18 21  1  0  0  0  0
 22 18  1  0  0  0  0
 23  3  1  0  0  0  0
M  RAD  4   2   2  20   2  21   2  22   2
M  END
