Coordinates from ORCA-job 4-MeOPhN2+~HSO4-_B3LYPG-6-31G_dp-NX-Scan-d89-09-n800
 OpenBabel11261921003D

 23 22  0  0  0  0  0  0  0  0999 V2000
   -1.6510    0.3717   -0.1964 C   0  0  0  0  0  0  0  0  0  0  0  0
   -2.9861    0.0645   -0.3598 N   0  0  0  0  0  0  0  0  0  0  0  0
   -4.0206   -0.3733   -0.4827 N   0  0  0  0  0  0  0  0  0  0  0  0
   -1.2379    1.6866    0.0959 C   0  0  0  0  0  0  0  0  0  0  0  0
    0.1106    1.9206    0.2746 C   0  0  0  0  0  0  0  0  0  0  0  0
    1.0477    0.8728    0.1644 C   0  0  0  0  0  0  0  0  0  0  0  0
    2.3313    1.2211    0.3572 O   0  0  0  0  0  0  0  0  0  0  0  0
    3.3517    0.2268    0.2611 C   0  0  0  0  0  0  0  0  0  0  0  0
    0.6174   -0.4371   -0.1312 C   0  0  0  0  0  0  0  0  0  0  0  0
   -0.7328   -0.6880   -0.3093 C   0  0  0  0  0  0  0  0  0  0  0  0
   -1.9884    2.4687    0.1467 H   0  0  0  0  0  0  0  0  0  0  0  0
    0.4764    2.9160    0.5001 H   0  0  0  0  0  0  0  0  0  0  0  0
    4.2889    0.7487    0.4517 H   0  0  0  0  0  0  0  0  0  0  0  0
    3.3790   -0.2175   -0.7400 H   0  0  0  0  0  0  0  0  0  0  0  0
    3.2119   -0.5586    1.0122 H   0  0  0  0  0  0  0  0  0  0  0  0
    1.3238   -1.2523   -0.2210 H   0  0  0  0  0  0  0  0  0  0  0  0
   -1.0845   -1.6888   -0.5353 H   0  0  0  0  0  0  0  0  0  0  0  0
   -5.2279    2.4488   -0.3161 S   0  0  0  0  0  0  0  0  0  0  0  0
   -6.2318    3.3228   -0.9227 O   0  0  0  0  0  0  0  0  0  0  0  0
   -5.5898    0.9868   -0.3405 O   0  0  0  0  0  0  0  0  0  0  0  0
   -3.8159    2.6412   -0.7170 O   0  0  0  0  0  0  0  0  0  0  0  0
   -5.2010    2.8544    1.2966 O   0  0  0  0  0  0  0  0  0  0  0  0
   -6.0926    3.1791    1.4964 H   0  0  0  0  0  0  0  0  0  0  0  0
  1  4  1  0  0  0  0
  2  1  1  0  0  0  0
  3  2  1  0  0  0  0
  4 11  1  0  0  0  0
  4  5  2  0  0  0  0
  5 12  1  0  0  0  0
  6  5  1  0  0  0  0
  6  7  1  0  0  0  0
  8  7  1  0  0  0  0
  8 13  1  0  0  0  0
  8 15  1  0  0  0  0
  9  6  2  0  0  0  0
 10  1  2  0  0  0  0
 10  9  1  0  0  0  0
 14  8  1  0  0  0  0
 16  9  1  0  0  0  0
 17 10  1  0  0  0  0
 18 22  1  0  0  0  0
 19 18  2  0  0  0  0
 20 18  1  0  0  0  0
 21 18  2  0  0  0  0
 22 23  1  0  0  0  0
M  RAD  3   2   2   3   3  20   2
M  END
