Coordinates from ORCA-job 4-MeOPhN2+~HSO4-_B3LYPG-6-31G_dp-NX-Scan-d89-09-n800
 OpenBabel11261921003D

 23 22  0  0  0  0  0  0  0  0999 V2000
   -1.5262    0.8111   -0.5855 C   0  0  0  0  0  0  0  0  0  0  0  0
   -2.7113    0.8560   -1.3400 N   0  0  0  0  0  0  0  0  0  0  0  0
   -3.7485    1.4558   -0.8789 N   0  0  0  0  0  0  0  0  0  0  0  0
   -1.2684    1.3444    0.7004 C   0  0  0  0  0  0  0  0  0  0  0  0
   -0.0173    1.1884    1.2770 C   0  0  0  0  0  0  0  0  0  0  0  0
    1.0107    0.5073    0.6055 C   0  0  0  0  0  0  0  0  0  0  0  0
    2.1926    0.4200    1.2684 O   0  0  0  0  0  0  0  0  0  0  0  0
    3.2755   -0.2551    0.6410 C   0  0  0  0  0  0  0  0  0  0  0  0
    0.7681   -0.0267   -0.6690 C   0  0  0  0  0  0  0  0  0  0  0  0
   -0.4865    0.1296   -1.2444 C   0  0  0  0  0  0  0  0  0  0  0  0
   -2.0345    1.8737    1.2469 H   0  0  0  0  0  0  0  0  0  0  0  0
    0.1915    1.5911    2.2622 H   0  0  0  0  0  0  0  0  0  0  0  0
    4.1109   -0.1948    1.3399 H   0  0  0  0  0  0  0  0  0  0  0  0
    3.5578    0.2273   -0.3028 H   0  0  0  0  0  0  0  0  0  0  0  0
    3.0370   -1.3089    0.4512 H   0  0  0  0  0  0  0  0  0  0  0  0
    1.5411   -0.5571   -1.2116 H   0  0  0  0  0  0  0  0  0  0  0  0
   -0.6913   -0.2761   -2.2293 H   0  0  0  0  0  0  0  0  0  0  0  0
   -6.0461    2.8627    0.2426 S   0  0  0  0  0  0  0  0  0  0  0  0
   -5.6383    4.2528    0.3407 O   0  0  0  0  0  0  0  0  0  0  0  0
   -3.9193    1.9947    0.0767 O   0  0  0  0  0  0  0  0  0  0  0  0
   -6.4225    2.1202    1.4323 O   0  0  0  0  0  0  0  0  0  0  0  0
   -6.3623    2.3055   -1.0745 O   0  0  0  0  0  0  0  0  0  0  0  0
   -4.5342    1.3933   -1.5640 H   0  0  0  0  0  0  0  0  0  0  0  0
  1  4  2  0  0  0  0
  2  3  1  0  0  0  0
  2  1  1  0  0  0  0
  3 20  1  0  0  0  0
  4 11  1  0  0  0  0
  4  5  1  0  0  0  0
  5 12  1  0  0  0  0
  6  7  1  0  0  0  0
  6  5  2  0  0  0  0
  8  7  1  0  0  0  0
  8 13  1  0  0  0  0
  9  6  1  0  0  0  0
 10  9  2  0  0  0  0
 10  1  1  0  0  0  0
 14  8  1  0  0  0  0
 15  8  1  0  0  0  0
 16  9  1  0  0  0  0
 17 10  1  0  0  0  0
 18 19  2  0  0  0  0
 18 21  1  0  0  0  0
 22 18  1  0  0  0  0
 23  3  1  0  0  0  0
M  RAD  4   2   2  20   2  21   2  22   2
M  END
