Coordinates from ORCA-job 4-MeOPhN2+~HSO4-_B3LYPG-6-31G_dp-NX-Scan-d89-09-n800
 OpenBabel11261921003D

 23 22  0  0  0  0  0  0  0  0999 V2000
   -1.7591    0.5283   -0.5129 C   0  0  0  0  0  0  0  0  0  0  0  0
   -3.0717    0.3831   -0.9020 N   0  0  0  0  0  0  0  0  0  0  0  0
   -4.0754    0.1400   -1.3285 N   0  0  0  0  0  0  0  0  0  0  0  0
   -1.2462    1.8089   -0.2191 C   0  0  0  0  0  0  0  0  0  0  0  0
    0.0849    1.8925    0.1272 C   0  0  0  0  0  0  0  0  0  0  0  0
    0.8912    0.7359    0.2032 C   0  0  0  0  0  0  0  0  0  0  0  0
    2.1666    0.9452    0.5605 O   0  0  0  0  0  0  0  0  0  0  0  0
    3.0595   -0.1640    0.6813 C   0  0  0  0  0  0  0  0  0  0  0  0
    0.3497   -0.5346   -0.0895 C   0  0  0  0  0  0  0  0  0  0  0  0
   -0.9808   -0.6411   -0.4545 C   0  0  0  0  0  0  0  0  0  0  0  0
   -1.9120    2.6708   -0.2806 H   0  0  0  0  0  0  0  0  0  0  0  0
    0.5359    2.8497    0.3627 H   0  0  0  0  0  0  0  0  0  0  0  0
    4.0166    0.2620    0.9796 H   0  0  0  0  0  0  0  0  0  0  0  0
    3.1737   -0.6853   -0.2755 H   0  0  0  0  0  0  0  0  0  0  0  0
    2.7162   -0.8654    1.4496 H   0  0  0  0  0  0  0  0  0  0  0  0
    0.9558   -1.4296   -0.0339 H   0  0  0  0  0  0  0  0  0  0  0  0
   -1.4196   -1.6062   -0.6820 H   0  0  0  0  0  0  0  0  0  0  0  0
   -4.5370    2.8445    0.5092 S   0  0  0  0  0  0  0  0  0  0  0  0
   -3.8329    1.7197    1.1751 O   0  0  0  0  0  0  0  0  0  0  0  0
   -5.2827    3.7604    1.3710 O   0  0  0  0  0  0  0  0  0  0  0  0
   -3.7109    3.4852   -0.5540 O   0  0  0  0  0  0  0  0  0  0  0  0
   -5.6954    1.9812   -0.3724 O   0  0  0  0  0  0  0  0  0  0  0  0
   -6.1480    2.6341   -0.9299 H   0  0  0  0  0  0  0  0  0  0  0  0
  1 10  2  0  0  0  0
  1  4  1  0  0  0  0
  2  1  1  0  0  0  0
  3  2  1  0  0  0  0
  4  5  2  0  0  0  0
  5  6  1  0  0  0  0
  5 12  1  0  0  0  0
  6  7  1  0  0  0  0
  7  8  1  0  0  0  0
  8 13  1  0  0  0  0
  8 15  1  0  0  0  0
  9 16  1  0  0  0  0
  9  6  2  0  0  0  0
 10  9  1  0  0  0  0
 11  4  1  0  0  0  0
 14  8  1  0  0  0  0
 17 10  1  0  0  0  0
 18 19  2  0  0  0  0
 18 20  1  0  0  0  0
 21 18  2  0  0  0  0
 22 18  1  0  0  0  0
 23 22  1  0  0  0  0
M  RAD  3   2   2   3   3  20   2
M  END
