Coordinates from ORCA-job 4-MeOPhN2+~HSO4-_B3LYPG-6-31G_dp-NX-Scan-d89-09-n800
 OpenBabel11261921003D

 23 22  0  0  0  0  0  0  0  0999 V2000
   -1.9442   -1.0582   -0.3114 C   0  0  0  0  0  0  0  0  0  0  0  0
   -2.9749   -1.8971   -0.5651 N   0  0  0  0  0  0  0  0  0  0  0  0
   -3.8078   -2.6198   -0.7836 N   0  0  0  0  0  0  0  0  0  0  0  0
   -2.1943    0.2966    0.0477 C   0  0  0  0  0  0  0  0  0  0  0  0
   -1.1074    1.1066    0.2859 C   0  0  0  0  0  0  0  0  0  0  0  0
    0.2048    0.5920    0.1741 C   0  0  0  0  0  0  0  0  0  0  0  0
    1.1827    1.4570    0.4257 O   0  0  0  0  0  0  0  0  0  0  0  0
    2.5545    1.0578    0.3333 C   0  0  0  0  0  0  0  0  0  0  0  0
    0.4341   -0.7655   -0.1854 C   0  0  0  0  0  0  0  0  0  0  0  0
   -0.6344   -1.5941   -0.4296 C   0  0  0  0  0  0  0  0  0  0  0  0
   -3.1904    0.7430    0.1428 H   0  0  0  0  0  0  0  0  0  0  0  0
   -1.2882    2.1623    0.5377 H   0  0  0  0  0  0  0  0  0  0  0  0
    3.1305    1.9486    0.5788 H   0  0  0  0  0  0  0  0  0  0  0  0
    2.7994    0.7300   -0.6821 H   0  0  0  0  0  0  0  0  0  0  0  0
    2.7812    0.2633    1.0520 H   0  0  0  0  0  0  0  0  0  0  0  0
    1.4389   -1.1595   -0.2722 H   0  0  0  0  0  0  0  0  0  0  0  0
   -0.4892   -2.6321   -0.7078 H   0  0  0  0  0  0  0  0  0  0  0  0
   -3.6427    3.7769    0.5458 S   0  0  0  0  0  0  0  0  0  0  0  0
   -4.1530    2.3819    0.6438 O   0  0  0  0  0  0  0  0  0  0  0  0
   -4.3523    4.7899    1.3449 O   0  0  0  0  0  0  0  0  0  0  0  0
   -2.1573    3.8457    0.6271 O   0  0  0  0  0  0  0  0  0  0  0  0
   -4.0053    4.1856   -1.0399 O   0  0  0  0  0  0  0  0  0  0  0  0
   -4.3064    5.1043   -0.9777 H   0  0  0  0  0  0  0  0  0  0  0  0
  1  4  1  0  0  0  0
  2  1  1  0  0  0  0
  3  2  1  0  0  0  0
  4 11  1  0  0  0  0
  4  5  2  0  0  0  0
  5 12  1  0  0  0  0
  6  5  1  0  0  0  0
  6  7  1  0  0  0  0
  8  7  1  0  0  0  0
  8 13  1  0  0  0  0
  8 15  1  0  0  0  0
  9  6  2  0  0  0  0
 10  1  2  0  0  0  0
 10  9  1  0  0  0  0
 14  8  1  0  0  0  0
 16  9  1  0  0  0  0
 17 10  1  0  0  0  0
 18 21  2  0  0  0  0
 18 19  2  0  0  0  0
 18 20  1  0  0  0  0
 22 23  1  0  0  0  0
 22 18  1  0  0  0  0
M  RAD  3   2   2   3   3  20   2
M  END
