Coordinates from ORCA-job 4-MeOPhN2+~HSO4-_B3LYPG-6-31G_dp-NX-Scan-d89-09-n800
 OpenBabel11261921003D

 23 22  0  0  0  0  0  0  0  0999 V2000
   -1.6548    0.1985   -0.5585 C   0  0  0  0  0  0  0  0  0  0  0  0
   -2.9289   -0.0846   -1.0141 N   0  0  0  0  0  0  0  0  0  0  0  0
   -4.0105    0.0796   -1.3112 N   0  0  0  0  0  0  0  0  0  0  0  0
   -1.4141    1.4227    0.1034 C   0  0  0  0  0  0  0  0  0  0  0  0
   -0.1310    1.6634    0.5506 C   0  0  0  0  0  0  0  0  0  0  0  0
    0.8993    0.7211    0.3456 C   0  0  0  0  0  0  0  0  0  0  0  0
    2.1058    1.0728    0.8205 O   0  0  0  0  0  0  0  0  0  0  0  0
    3.2084    0.1763    0.6737 C   0  0  0  0  0  0  0  0  0  0  0  0
    0.6316   -0.4972   -0.3123 C   0  0  0  0  0  0  0  0  0  0  0  0
   -0.6531   -0.7626   -0.7572 C   0  0  0  0  0  0  0  0  0  0  0  0
   -2.2302    2.1232    0.2816 H   0  0  0  0  0  0  0  0  0  0  0  0
    0.1069    2.5824    1.0745 H   0  0  0  0  0  0  0  0  0  0  0  0
    4.0589    0.6799    1.1319 H   0  0  0  0  0  0  0  0  0  0  0  0
    3.4239   -0.0165   -0.3829 H   0  0  0  0  0  0  0  0  0  0  0  0
    3.0210   -0.7699    1.1930 H   0  0  0  0  0  0  0  0  0  0  0  0
    1.4117   -1.2303   -0.4726 H   0  0  0  0  0  0  0  0  0  0  0  0
   -0.8858   -1.6944   -1.2610 H   0  0  0  0  0  0  0  0  0  0  0  0
   -4.9907    2.4266    0.1442 S   0  0  0  0  0  0  0  0  0  0  0  0
   -5.8311    1.3209    0.6022 O   0  0  0  0  0  0  0  0  0  0  0  0
   -3.9500    2.9224    1.0773 O   0  0  0  0  0  0  0  0  0  0  0  0
   -4.3942    2.1888   -1.2317 O   0  0  0  0  0  0  0  0  0  0  0  0
   -6.0151    3.7019   -0.0719 O   0  0  0  0  0  0  0  0  0  0  0  0
   -5.4994    4.4899    0.1598 H   0  0  0  0  0  0  0  0  0  0  0  0
  1  4  1  0  0  0  0
  2  1  1  0  0  0  0
  3  2  1  0  0  0  0
  4 11  1  0  0  0  0
  4  5  2  0  0  0  0
  5 12  1  0  0  0  0
  6  5  1  0  0  0  0
  6  7  1  0  0  0  0
  8  7  1  0  0  0  0
  8 13  1  0  0  0  0
  8 15  1  0  0  0  0
  9  6  2  0  0  0  0
 10  1  2  0  0  0  0
 10  9  1  0  0  0  0
 14  8  1  0  0  0  0
 16  9  1  0  0  0  0
 17 10  1  0  0  0  0
 18 19  2  0  0  0  0
 18 20  1  0  0  0  0
 21 18  2  0  0  0  0
 22 18  1  0  0  0  0
 22 23  1  0  0  0  0
M  RAD  3   2   2   3   3  20   2
M  END
