Coordinates from ORCA-job 4-MeOPhN2+~HSO4-_B3LYPG-6-31G_dp-NX-Scan-d89-09-n800
 OpenBabel11261921003D

 23 22  0  0  0  0  0  0  0  0999 V2000
   -1.9015   -0.2309   -0.0827 C   0  0  0  0  0  0  0  0  0  0  0  0
   -3.1594   -0.7035   -0.3437 N   0  0  0  0  0  0  0  0  0  0  0  0
   -4.0983   -1.2513   -0.6095 N   0  0  0  0  0  0  0  0  0  0  0  0
   -1.7174    0.9883    0.6027 C   0  0  0  0  0  0  0  0  0  0  0  0
   -0.4232    1.4048    0.8270 C   0  0  0  0  0  0  0  0  0  0  0  0
    0.6717    0.6329    0.3899 C   0  0  0  0  0  0  0  0  0  0  0  0
    1.8816    1.1332    0.6628 O   0  0  0  0  0  0  0  0  0  0  0  0
    3.0580    0.4362    0.2411 C   0  0  0  0  0  0  0  0  0  0  0  0
    0.4614   -0.5901   -0.2975 C   0  0  0  0  0  0  0  0  0  0  0  0
   -0.8234   -1.0261   -0.5394 C   0  0  0  0  0  0  0  0  0  0  0  0
   -2.5732    1.5913    0.8907 H   0  0  0  0  0  0  0  0  0  0  0  0
   -0.2432    2.3522    1.3215 H   0  0  0  0  0  0  0  0  0  0  0  0
    3.8941    1.0506    0.5726 H   0  0  0  0  0  0  0  0  0  0  0  0
    3.0862    0.3360   -0.8493 H   0  0  0  0  0  0  0  0  0  0  0  0
    3.1205   -0.5506    0.7113 H   0  0  0  0  0  0  0  0  0  0  0  0
    1.2954   -1.1873   -0.6415 H   0  0  0  0  0  0  0  0  0  0  0  0
   -1.0078   -1.9549   -1.0680 H   0  0  0  0  0  0  0  0  0  0  0  0
   -4.4337    3.1785    0.2111 S   0  0  0  0  0  0  0  0  0  0  0  0
   -4.6041    1.6931    0.2737 O   0  0  0  0  0  0  0  0  0  0  0  0
   -5.4574    4.0005    0.8811 O   0  0  0  0  0  0  0  0  0  0  0  0
   -3.0297    3.5723    0.5001 O   0  0  0  0  0  0  0  0  0  0  0  0
   -4.6607    3.4782   -1.4193 O   0  0  0  0  0  0  0  0  0  0  0  0
   -5.0575    4.3619   -1.4498 H   0  0  0  0  0  0  0  0  0  0  0  0
  1  4  2  0  0  0  0
  2  1  1  0  0  0  0
  3  2  1  0  0  0  0
  4  5  1  0  0  0  0
  4 11  1  0  0  0  0
  5 12  1  0  0  0  0
  6  7  1  0  0  0  0
  6  5  2  0  0  0  0
  8 13  1  0  0  0  0
  8  7  1  0  0  0  0
  8 15  1  0  0  0  0
  9  6  1  0  0  0  0
 10  9  2  0  0  0  0
 10  1  1  0  0  0  0
 14  8  1  0  0  0  0
 16  9  1  0  0  0  0
 17 10  1  0  0  0  0
 18 19  2  0  0  0  0
 18 21  2  0  0  0  0
 18 20  1  0  0  0  0
 22 18  1  0  0  0  0
 23 22  1  0  0  0  0
M  RAD  3   2   2   3   3  20   2
M  END
