Coordinates from ORCA-job 4-MeOPhN2+~HSO4-_B3LYPG-6-31G_dp-NX-Scan-d89-09-n800
 OpenBabel11261921003D

 23 23  0  0  0  0  0  0  0  0999 V2000
   -1.5460    0.7510   -0.5639 C   0  0  0  0  0  0  0  0  0  0  0  0
   -2.7509    0.6977   -1.2834 N   0  0  0  0  0  0  0  0  0  0  0  0
   -3.8344    1.2310   -1.0859 N   0  0  0  0  0  0  0  0  0  0  0  0
   -1.2441    1.4821    0.6120 C   0  0  0  0  0  0  0  0  0  0  0  0
    0.0196    1.3940    1.1667 C   0  0  0  0  0  0  0  0  0  0  0  0
    1.0151    0.5881    0.5824 C   0  0  0  0  0  0  0  0  0  0  0  0
    2.2097    0.5847    1.2159 O   0  0  0  0  0  0  0  0  0  0  0  0
    3.2674   -0.2074    0.6845 C   0  0  0  0  0  0  0  0  0  0  0  0
    0.7271   -0.1396   -0.5828 C   0  0  0  0  0  0  0  0  0  0  0  0
   -0.5415   -0.0483   -1.1391 C   0  0  0  0  0  0  0  0  0  0  0  0
   -1.9876    2.1085    1.0802 H   0  0  0  0  0  0  0  0  0  0  0  0
    0.2692    1.9454    2.0667 H   0  0  0  0  0  0  0  0  0  0  0  0
    4.1167   -0.0551    1.3511 H   0  0  0  0  0  0  0  0  0  0  0  0
    3.5384    0.1145   -0.3279 H   0  0  0  0  0  0  0  0  0  0  0  0
    3.0017   -1.2713    0.6703 H   0  0  0  0  0  0  0  0  0  0  0  0
    1.4747   -0.7660   -1.0532 H   0  0  0  0  0  0  0  0  0  0  0  0
   -0.7867   -0.5994   -2.0406 H   0  0  0  0  0  0  0  0  0  0  0  0
   -5.4774    2.5344    0.3449 S   0  0  0  0  0  0  0  0  0  0  0  0
   -5.4009    3.7313    1.1455 O   0  0  0  0  0  0  0  0  0  0  0  0
   -3.8935    2.0888    0.0701 O   0  0  0  0  0  0  0  0  0  0  0  0
   -6.2174    1.3544    0.7443 O   0  0  0  0  0  0  0  0  0  0  0  0
   -5.9154    2.9821   -1.1436 O   0  0  0  0  0  0  0  0  0  0  0  0
   -5.7654    2.2142   -1.7294 H   0  0  0  0  0  0  0  0  0  0  0  0
  1  4  2  0  0  0  0
  2  3  2  0  0  0  0
  2  1  1  0  0  0  0
  3 20  1  0  0  0  0
  4 11  1  0  0  0  0
  4  5  1  0  0  0  0
  5 12  1  0  0  0  0
  6  5  2  0  0  0  0
  6  7  1  0  0  0  0
  8  7  1  0  0  0  0
  8 13  1  0  0  0  0
  9  6  1  0  0  0  0
 10  9  2  0  0  0  0
 10  1  1  0  0  0  0
 14  8  1  0  0  0  0
 15  8  1  0  0  0  0
 16  9  1  0  0  0  0
 17 10  1  0  0  0  0
 18 21  2  0  0  0  0
 18 19  2  0  0  0  0
 20 18  1  0  0  0  0
 22 18  1  0  0  0  0
 23 22  1  0  0  0  0
M  END
