Coordinates from ORCA-job 4-MeOPhN2+~HSO4-_B3LYPG-6-31G_dp-NX-Scan-d89-09-n800
 OpenBabel11261921003D

 23 22  0  0  0  0  0  0  0  0999 V2000
   -1.6724    0.3682   -0.1970 C   0  0  0  0  0  0  0  0  0  0  0  0
   -3.0070    0.0432   -0.3582 N   0  0  0  0  0  0  0  0  0  0  0  0
   -3.9916   -0.4898   -0.4644 N   0  0  0  0  0  0  0  0  0  0  0  0
   -1.2744    1.6830    0.1105 C   0  0  0  0  0  0  0  0  0  0  0  0
    0.0715    1.9252    0.2965 C   0  0  0  0  0  0  0  0  0  0  0  0
    1.0177    0.8867    0.1757 C   0  0  0  0  0  0  0  0  0  0  0  0
    2.2971    1.2428    0.3754 O   0  0  0  0  0  0  0  0  0  0  0  0
    3.3272    0.2587    0.2699 C   0  0  0  0  0  0  0  0  0  0  0  0
    0.5993   -0.4238   -0.1368 C   0  0  0  0  0  0  0  0  0  0  0  0
   -0.7477   -0.6851   -0.3197 C   0  0  0  0  0  0  0  0  0  0  0  0
   -2.0346    2.4553    0.1635 H   0  0  0  0  0  0  0  0  0  0  0  0
    0.4279    2.9209    0.5350 H   0  0  0  0  0  0  0  0  0  0  0  0
    4.2590    0.7873    0.4685 H   0  0  0  0  0  0  0  0  0  0  0  0
    3.3602   -0.1733   -0.7362 H   0  0  0  0  0  0  0  0  0  0  0  0
    3.1928   -0.5361    1.0119 H   0  0  0  0  0  0  0  0  0  0  0  0
    1.3127   -1.2317   -0.2350 H   0  0  0  0  0  0  0  0  0  0  0  0
   -1.0902   -1.6865   -0.5569 H   0  0  0  0  0  0  0  0  0  0  0  0
   -5.2134    2.4264   -0.3497 S   0  0  0  0  0  0  0  0  0  0  0  0
   -6.1170    3.4407   -0.8943 O   0  0  0  0  0  0  0  0  0  0  0  0
   -5.7519    1.0349   -0.3466 O   0  0  0  0  0  0  0  0  0  0  0  0
   -3.8055    2.4568   -0.8321 O   0  0  0  0  0  0  0  0  0  0  0  0
   -5.0135    2.8270    1.2590 O   0  0  0  0  0  0  0  0  0  0  0  0
   -5.8681    3.1844    1.5457 H   0  0  0  0  0  0  0  0  0  0  0  0
  1  4  1  0  0  0  0
  2  1  1  0  0  0  0
  3  2  1  0  0  0  0
  4 11  1  0  0  0  0
  4  5  2  0  0  0  0
  5 12  1  0  0  0  0
  6  5  1  0  0  0  0
  6  7  1  0  0  0  0
  8  7  1  0  0  0  0
  8 13  1  0  0  0  0
  8 15  1  0  0  0  0
  9  6  2  0  0  0  0
 10  1  2  0  0  0  0
 10  9  1  0  0  0  0
 14  8  1  0  0  0  0
 16  9  1  0  0  0  0
 17 10  1  0  0  0  0
 18 20  1  0  0  0  0
 18 22  1  0  0  0  0
 19 18  2  0  0  0  0
 21 18  2  0  0  0  0
 22 23  1  0  0  0  0
M  RAD  3   2   2   3   3  20   2
M  END
