Coordinates from ORCA-job 4-MeOPhN2+~HSO4-_B3LYPG-6-31G_dp-NX-Scan-d89-09-n800
 OpenBabel11261921003D

 23 22  0  0  0  0  0  0  0  0999 V2000
   -1.7628    0.4796   -0.5443 C   0  0  0  0  0  0  0  0  0  0  0  0
   -3.0703    0.3089   -0.9401 N   0  0  0  0  0  0  0  0  0  0  0  0
   -4.0564    0.0329   -1.3869 N   0  0  0  0  0  0  0  0  0  0  0  0
   -1.2681    1.7735   -0.2773 C   0  0  0  0  0  0  0  0  0  0  0  0
    0.0596    1.8799    0.0759 C   0  0  0  0  0  0  0  0  0  0  0  0
    0.8782    0.7346    0.1866 C   0  0  0  0  0  0  0  0  0  0  0  0
    2.1476    0.9667    0.5495 O   0  0  0  0  0  0  0  0  0  0  0  0
    3.0511   -0.1294    0.7078 C   0  0  0  0  0  0  0  0  0  0  0  0
    0.3536   -0.5491   -0.0791 C   0  0  0  0  0  0  0  0  0  0  0  0
   -0.9727   -0.6797   -0.4511 C   0  0  0  0  0  0  0  0  0  0  0  0
   -1.9416    2.6304   -0.3559 H   0  0  0  0  0  0  0  0  0  0  0  0
    0.4974    2.8475    0.2931 H   0  0  0  0  0  0  0  0  0  0  0  0
    4.0004    0.3145    1.0050 H   0  0  0  0  0  0  0  0  0  0  0  0
    3.1809   -0.6736   -0.2342 H   0  0  0  0  0  0  0  0  0  0  0  0
    2.7070   -0.8145    1.4903 H   0  0  0  0  0  0  0  0  0  0  0  0
    0.9689   -1.4356    0.0038 H   0  0  0  0  0  0  0  0  0  0  0  0
   -1.3992   -1.6551   -0.6575 H   0  0  0  0  0  0  0  0  0  0  0  0
   -4.5130    2.8522    0.5391 S   0  0  0  0  0  0  0  0  0  0  0  0
   -3.8310    1.6535    1.0971 O   0  0  0  0  0  0  0  0  0  0  0  0
   -5.2439    3.6943    1.4889 O   0  0  0  0  0  0  0  0  0  0  0  0
   -3.6644    3.5828   -0.4443 O   0  0  0  0  0  0  0  0  0  0  0  0
   -5.6761    2.0949   -0.4201 O   0  0  0  0  0  0  0  0  0  0  0  0
   -6.1667    2.8062   -0.8615 H   0  0  0  0  0  0  0  0  0  0  0  0
  1 10  2  0  0  0  0
  1  4  1  0  0  0  0
  2  1  1  0  0  0  0
  3  2  1  0  0  0  0
  4  5  2  0  0  0  0
  5  6  1  0  0  0  0
  5 12  1  0  0  0  0
  6  7  1  0  0  0  0
  7  8  1  0  0  0  0
  8 13  1  0  0  0  0
  8 15  1  0  0  0  0
  9 16  1  0  0  0  0
  9  6  2  0  0  0  0
 10  9  1  0  0  0  0
 11  4  1  0  0  0  0
 14  8  1  0  0  0  0
 17 10  1  0  0  0  0
 18 19  2  0  0  0  0
 18 20  1  0  0  0  0
 21 18  2  0  0  0  0
 22 18  1  0  0  0  0
 23 22  1  0  0  0  0
M  RAD  3   2   2   3   3  20   2
M  END
