Coordinates from ORCA-job 4-MeOPhN2+~HSO4-_B3LYPG-6-31G_dp-NX-Scan-d89-09-n800
 OpenBabel11261921003D

 23 22  0  0  0  0  0  0  0  0999 V2000
   -1.6714    0.1478   -0.4609 C   0  0  0  0  0  0  0  0  0  0  0  0
   -2.9514   -0.1622   -0.8771 N   0  0  0  0  0  0  0  0  0  0  0  0
   -4.0355   -0.0274   -1.1768 N   0  0  0  0  0  0  0  0  0  0  0  0
   -1.4452    1.3737    0.2014 C   0  0  0  0  0  0  0  0  0  0  0  0
   -0.1553    1.6506    0.6057 C   0  0  0  0  0  0  0  0  0  0  0  0
    0.8949    0.7412    0.3562 C   0  0  0  0  0  0  0  0  0  0  0  0
    2.1069    1.1274    0.7882 O   0  0  0  0  0  0  0  0  0  0  0  0
    3.2311    0.2676    0.5917 C   0  0  0  0  0  0  0  0  0  0  0  0
    0.6403   -0.4818   -0.2983 C   0  0  0  0  0  0  0  0  0  0  0  0
   -0.6510   -0.7845   -0.6982 C   0  0  0  0  0  0  0  0  0  0  0  0
   -2.2877    2.0313    0.4153 H   0  0  0  0  0  0  0  0  0  0  0  0
    0.0756    2.5722    1.1282 H   0  0  0  0  0  0  0  0  0  0  0  0
    4.0825    0.7958    1.0193 H   0  0  0  0  0  0  0  0  0  0  0  0
    3.4101    0.0880   -0.4741 H   0  0  0  0  0  0  0  0  0  0  0  0
    3.0949   -0.6867    1.1118 H   0  0  0  0  0  0  0  0  0  0  0  0
    1.4361   -1.1896   -0.4908 H   0  0  0  0  0  0  0  0  0  0  0  0
   -0.8736   -1.7202   -1.1992 H   0  0  0  0  0  0  0  0  0  0  0  0
   -5.1277    2.3934    0.0084 S   0  0  0  0  0  0  0  0  0  0  0  0
   -6.3511    1.6223    0.2021 O   0  0  0  0  0  0  0  0  0  0  0  0
   -4.1544    2.4152    1.1318 O   0  0  0  0  0  0  0  0  0  0  0  0
   -4.4149    2.0930   -1.2980 O   0  0  0  0  0  0  0  0  0  0  0  0
   -5.5993    3.9684   -0.1699 O   0  0  0  0  0  0  0  0  0  0  0  0
   -4.9753    4.4797    0.3679 H   0  0  0  0  0  0  0  0  0  0  0  0
  1  4  1  0  0  0  0
  2  1  1  0  0  0  0
  3  2  1  0  0  0  0
  4 11  1  0  0  0  0
  4  5  2  0  0  0  0
  5 12  1  0  0  0  0
  6  5  1  0  0  0  0
  6  7  1  0  0  0  0
  8  7  1  0  0  0  0
  8 13  1  0  0  0  0
  8 15  1  0  0  0  0
  9  6  2  0  0  0  0
 10  1  2  0  0  0  0
 10  9  1  0  0  0  0
 14  8  1  0  0  0  0
 16  9  1  0  0  0  0
 17 10  1  0  0  0  0
 18 19  2  0  0  0  0
 18 20  1  0  0  0  0
 21 18  2  0  0  0  0
 22 18  1  0  0  0  0
 22 23  1  0  0  0  0
M  RAD  3   2   2   3   3  20   2
M  END
