Coordinates from ORCA-job 4-MeOPhN2+~HSO4-_B3LYPG-6-31G_dp-NX-Scan-d89-09-n800
 OpenBabel11261921003D

 23 22  0  0  0  0  0  0  0  0999 V2000
   -1.7479    0.2166   -0.5976 C   0  0  0  0  0  0  0  0  0  0  0  0
   -3.0209   -0.0919   -1.0191 N   0  0  0  0  0  0  0  0  0  0  0  0
   -3.9527   -0.5312   -1.4510 N   0  0  0  0  0  0  0  0  0  0  0  0
   -1.3676    1.5531   -0.3579 C   0  0  0  0  0  0  0  0  0  0  0  0
   -0.0612    1.7757    0.0226 C   0  0  0  0  0  0  0  0  0  0  0  0
    0.8478    0.7077    0.1788 C   0  0  0  0  0  0  0  0  0  0  0  0
    2.0840    1.0514    0.5630 O   0  0  0  0  0  0  0  0  0  0  0  0
    3.0733    0.0388    0.7648 C   0  0  0  0  0  0  0  0  0  0  0  0
    0.4374   -0.6228   -0.0652 C   0  0  0  0  0  0  0  0  0  0  0  0
   -0.8630   -0.8720   -0.4603 C   0  0  0  0  0  0  0  0  0  0  0  0
   -2.0931    2.3702   -0.4516 H   0  0  0  0  0  0  0  0  0  0  0  0
    0.2844    2.7830    0.2267 H   0  0  0  0  0  0  0  0  0  0  0  0
    3.9741    0.5680    1.0729 H   0  0  0  0  0  0  0  0  0  0  0  0
    3.2711   -0.5102   -0.1625 H   0  0  0  0  0  0  0  0  0  0  0  0
    2.7695   -0.6572    1.5539 H   0  0  0  0  0  0  0  0  0  0  0  0
    1.1221   -1.4524    0.0543 H   0  0  0  0  0  0  0  0  0  0  0  0
   -1.2012   -1.8846   -0.6524 H   0  0  0  0  0  0  0  0  0  0  0  0
   -4.5003    2.9305    0.4515 S   0  0  0  0  0  0  0  0  0  0  0  0
   -4.1887    1.4715    0.5262 O   0  0  0  0  0  0  0  0  0  0  0  0
   -4.9825    3.5522    1.6931 O   0  0  0  0  0  0  0  0  0  0  0  0
   -3.4303    3.6796   -0.2623 O   0  0  0  0  0  0  0  0  0  0  0  0
   -5.8164    2.9488   -0.5750 O   0  0  0  0  0  0  0  0  0  0  0  0
   -6.3597    3.6907   -0.2680 H   0  0  0  0  0  0  0  0  0  0  0  0
  1 10  2  0  0  0  0
  1  4  1  0  0  0  0
  2  1  1  0  0  0  0
  3  2  1  0  0  0  0
  4  5  2  0  0  0  0
  5  6  1  0  0  0  0
  5 12  1  0  0  0  0
  6  7  1  0  0  0  0
  7  8  1  0  0  0  0
  8 13  1  0  0  0  0
  8 15  1  0  0  0  0
  9 16  1  0  0  0  0
  9  6  2  0  0  0  0
 10  9  1  0  0  0  0
 11  4  1  0  0  0  0
 14  8  1  0  0  0  0
 17 10  1  0  0  0  0
 18 19  2  0  0  0  0
 18 20  1  0  0  0  0
 21 18  2  0  0  0  0
 22 23  1  0  0  0  0
 22 18  1  0  0  0  0
M  RAD  3   2   2   3   3  20   2
M  END
