Coordinates from ORCA-job 4-MeOPhN2+~HSO4-_B3LYPG-6-31G_dp-NX-Scan-d89-09-n800
 OpenBabel11261921003D

 23 22  0  0  0  0  0  0  0  0999 V2000
   -1.7443    0.1829   -0.6850 C   0  0  0  0  0  0  0  0  0  0  0  0
   -3.0004   -0.1420   -1.1365 N   0  0  0  0  0  0  0  0  0  0  0  0
   -3.9236   -0.5757   -1.5926 N   0  0  0  0  0  0  0  0  0  0  0  0
   -1.3774    1.5298   -0.4825 C   0  0  0  0  0  0  0  0  0  0  0  0
   -0.0849    1.7725   -0.0690 C   0  0  0  0  0  0  0  0  0  0  0  0
    0.8220    0.7149    0.1562 C   0  0  0  0  0  0  0  0  0  0  0  0
    2.0438    1.0781    0.5660 O   0  0  0  0  0  0  0  0  0  0  0  0
    3.0282    0.0782    0.8435 C   0  0  0  0  0  0  0  0  0  0  0  0
    0.4240   -0.6264   -0.0493 C   0  0  0  0  0  0  0  0  0  0  0  0
   -0.8617   -0.8965   -0.4759 C   0  0  0  0  0  0  0  0  0  0  0  0
   -2.1038    2.3408   -0.6176 H   0  0  0  0  0  0  0  0  0  0  0  0
    0.2488    2.7882    0.1114 H   0  0  0  0  0  0  0  0  0  0  0  0
    3.9164    0.6234    1.1600 H   0  0  0  0  0  0  0  0  0  0  0  0
    3.2588   -0.5082   -0.0528 H   0  0  0  0  0  0  0  0  0  0  0  0
    2.6988   -0.5852    1.6502 H   0  0  0  0  0  0  0  0  0  0  0  0
    1.1075   -1.4472    0.1253 H   0  0  0  0  0  0  0  0  0  0  0  0
   -1.1912   -1.9171   -0.6385 H   0  0  0  0  0  0  0  0  0  0  0  0
   -4.4368    2.9151    0.4683 S   0  0  0  0  0  0  0  0  0  0  0  0
   -4.1757    1.4448    0.4662 O   0  0  0  0  0  0  0  0  0  0  0  0
   -4.7537    3.5208    1.7718 O   0  0  0  0  0  0  0  0  0  0  0  0
   -3.4214    3.6479   -0.3383 O   0  0  0  0  0  0  0  0  0  0  0  0
   -5.8558    3.0211   -0.4029 O   0  0  0  0  0  0  0  0  0  0  0  0
   -6.3389    3.7550    0.0068 H   0  0  0  0  0  0  0  0  0  0  0  0
  1  4  2  0  0  0  0
  1 10  1  0  0  0  0
  2  1  1  0  0  0  0
  3  2  1  0  0  0  0
  4  5  1  0  0  0  0
  5 12  1  0  0  0  0
  5  6  2  0  0  0  0
  6  7  1  0  0  0  0
  7  8  1  0  0  0  0
  8 13  1  0  0  0  0
  8 15  1  0  0  0  0
  9 16  1  0  0  0  0
  9  6  1  0  0  0  0
 10  9  2  0  0  0  0
 11  4  1  0  0  0  0
 14  8  1  0  0  0  0
 17 10  1  0  0  0  0
 18 20  1  0  0  0  0
 19 18  2  0  0  0  0
 21 18  2  0  0  0  0
 22 23  1  0  0  0  0
 22 18  1  0  0  0  0
M  RAD  3   2   2   3   3  20   2
M  END
