Coordinates from ORCA-job 4-MeOPhN2+~HSO4-_B3LYPG-6-31G_dp-NX-Scan-d89-09-n800
 OpenBabel11261921003D

 23 22  0  0  0  0  0  0  0  0999 V2000
   -1.6682    0.1528   -0.4756 C   0  0  0  0  0  0  0  0  0  0  0  0
   -2.9474   -0.1542   -0.8980 N   0  0  0  0  0  0  0  0  0  0  0  0
   -4.0314   -0.0096   -1.1956 N   0  0  0  0  0  0  0  0  0  0  0  0
   -1.4412    1.3775    0.1890 C   0  0  0  0  0  0  0  0  0  0  0  0
   -0.1523    1.6496    0.5997 C   0  0  0  0  0  0  0  0  0  0  0  0
    0.8961    0.7370    0.3548 C   0  0  0  0  0  0  0  0  0  0  0  0
    2.1073    1.1187    0.7935 O   0  0  0  0  0  0  0  0  0  0  0  0
    3.2292    0.2549    0.6027 C   0  0  0  0  0  0  0  0  0  0  0  0
    0.6408   -0.4845   -0.3021 C   0  0  0  0  0  0  0  0  0  0  0  0
   -0.6496   -0.7824   -0.7088 C   0  0  0  0  0  0  0  0  0  0  0  0
   -2.2807    2.0404    0.3995 H   0  0  0  0  0  0  0  0  0  0  0  0
    0.0788    2.5701    1.1242 H   0  0  0  0  0  0  0  0  0  0  0  0
    4.0803    0.7797    1.0351 H   0  0  0  0  0  0  0  0  0  0  0  0
    3.4134    0.0750   -0.4622 H   0  0  0  0  0  0  0  0  0  0  0  0
    3.0866   -0.6993    1.1215 H   0  0  0  0  0  0  0  0  0  0  0  0
    1.4351   -1.1949   -0.4911 H   0  0  0  0  0  0  0  0  0  0  0  0
   -0.8728   -1.7168   -1.2117 H   0  0  0  0  0  0  0  0  0  0  0  0
   -5.1110    2.3971    0.0339 S   0  0  0  0  0  0  0  0  0  0  0  0
   -6.2885    1.5656    0.2607 O   0  0  0  0  0  0  0  0  0  0  0  0
   -4.1227    2.4919    1.1393 O   0  0  0  0  0  0  0  0  0  0  0  0
   -4.4043    2.1074   -1.2792 O   0  0  0  0  0  0  0  0  0  0  0  0
   -5.6716    3.9391   -0.1652 O   0  0  0  0  0  0  0  0  0  0  0  0
   -5.0475    4.5000    0.3205 H   0  0  0  0  0  0  0  0  0  0  0  0
  1  4  1  0  0  0  0
  2  1  1  0  0  0  0
  3  2  1  0  0  0  0
  4 11  1  0  0  0  0
  4  5  2  0  0  0  0
  5 12  1  0  0  0  0
  6  5  1  0  0  0  0
  6  7  1  0  0  0  0
  8  7  1  0  0  0  0
  8 13  1  0  0  0  0
  8 15  1  0  0  0  0
  9  6  2  0  0  0  0
 10  1  2  0  0  0  0
 10  9  1  0  0  0  0
 14  8  1  0  0  0  0
 16  9  1  0  0  0  0
 17 10  1  0  0  0  0
 18 19  2  0  0  0  0
 18 20  1  0  0  0  0
 21 18  2  0  0  0  0
 22 18  1  0  0  0  0
 22 23  1  0  0  0  0
M  RAD  3   2   2   3   3  20   2
M  END
