Coordinates from ORCA-job 4-MeOPhN2+~HSO4-_B3LYPG-6-31G_dp-NX-Scan-d89-09-n800
 OpenBabel11261921003D

 23 22  0  0  0  0  0  0  0  0999 V2000
   -1.7450    0.1979   -0.6408 C   0  0  0  0  0  0  0  0  0  0  0  0
   -3.0107   -0.1179   -1.0745 N   0  0  0  0  0  0  0  0  0  0  0  0
   -3.9427   -0.5478   -1.5151 N   0  0  0  0  0  0  0  0  0  0  0  0
   -1.3717    1.5403   -0.4224 C   0  0  0  0  0  0  0  0  0  0  0  0
   -0.0720    1.7738   -0.0260 C   0  0  0  0  0  0  0  0  0  0  0  0
    0.8363    0.7111    0.1663 C   0  0  0  0  0  0  0  0  0  0  0  0
    2.0655    1.0652    0.5626 O   0  0  0  0  0  0  0  0  0  0  0  0
    3.0529    0.0590    0.8035 C   0  0  0  0  0  0  0  0  0  0  0  0
    0.4324   -0.6254   -0.0561 C   0  0  0  0  0  0  0  0  0  0  0  0
   -0.8610   -0.8860   -0.4659 C   0  0  0  0  0  0  0  0  0  0  0  0
   -2.0987    2.3536   -0.5377 H   0  0  0  0  0  0  0  0  0  0  0  0
    0.2674    2.7859    0.1646 H   0  0  0  0  0  0  0  0  0  0  0  0
    3.9474    0.5966    1.1150 H   0  0  0  0  0  0  0  0  0  0  0  0
    3.2670   -0.5102   -0.1079 H   0  0  0  0  0  0  0  0  0  0  0  0
    2.7366   -0.6198    1.6027 H   0  0  0  0  0  0  0  0  0  0  0  0
    1.1170   -1.4505    0.0923 H   0  0  0  0  0  0  0  0  0  0  0  0
   -1.1948   -1.9031   -0.6411 H   0  0  0  0  0  0  0  0  0  0  0  0
   -4.4715    2.9210    0.4598 S   0  0  0  0  0  0  0  0  0  0  0  0
   -4.1897    1.4547    0.4842 O   0  0  0  0  0  0  0  0  0  0  0  0
   -4.8775    3.5249    1.7378 O   0  0  0  0  0  0  0  0  0  0  0  0
   -3.4202    3.6645   -0.2877 O   0  0  0  0  0  0  0  0  0  0  0  0
   -5.8359    2.9971   -0.4981 O   0  0  0  0  0  0  0  0  0  0  0  0
   -6.3526    3.7303   -0.1305 H   0  0  0  0  0  0  0  0  0  0  0  0
  1 10  2  0  0  0  0
  1  4  1  0  0  0  0
  2  1  1  0  0  0  0
  3  2  1  0  0  0  0
  4  5  2  0  0  0  0
  5 12  1  0  0  0  0
  5  6  1  0  0  0  0
  6  7  1  0  0  0  0
  7  8  1  0  0  0  0
  8 13  1  0  0  0  0
  8 15  1  0  0  0  0
  9 16  1  0  0  0  0
  9  6  2  0  0  0  0
 10  9  1  0  0  0  0
 11  4  1  0  0  0  0
 14  8  1  0  0  0  0
 17 10  1  0  0  0  0
 18 19  2  0  0  0  0
 18 20  1  0  0  0  0
 21 18  2  0  0  0  0
 22 23  1  0  0  0  0
 22 18  1  0  0  0  0
M  RAD  3   2   2   3   3  20   2
M  END
