Coordinates from ORCA-job 4-MeOPhN2+~HSO4-_B3LYPG-6-31G_dp-NX-Scan-d89-09-n800
 OpenBabel11261921003D

 23 22  0  0  0  0  0  0  0  0999 V2000
   -1.6515    0.3661   -0.2017 C   0  0  0  0  0  0  0  0  0  0  0  0
   -2.9853    0.0578   -0.3674 N   0  0  0  0  0  0  0  0  0  0  0  0
   -4.0323   -0.3528   -0.4939 N   0  0  0  0  0  0  0  0  0  0  0  0
   -1.2389    1.6823    0.0869 C   0  0  0  0  0  0  0  0  0  0  0  0
    0.1091    1.9183    0.2669 C   0  0  0  0  0  0  0  0  0  0  0  0
    1.0471    0.8708    0.1625 C   0  0  0  0  0  0  0  0  0  0  0  0
    2.3303    1.2209    0.3566 O   0  0  0  0  0  0  0  0  0  0  0  0
    3.3513    0.2270    0.2658 C   0  0  0  0  0  0  0  0  0  0  0  0
    0.6184   -0.4403   -0.1291 C   0  0  0  0  0  0  0  0  0  0  0  0
   -0.7314   -0.6926   -0.3091 C   0  0  0  0  0  0  0  0  0  0  0  0
   -1.9891    2.4650    0.1331 H   0  0  0  0  0  0  0  0  0  0  0  0
    0.4737    2.9149    0.4891 H   0  0  0  0  0  0  0  0  0  0  0  0
    4.2880    0.7501    0.4560 H   0  0  0  0  0  0  0  0  0  0  0  0
    3.3806   -0.2210   -0.7336 H   0  0  0  0  0  0  0  0  0  0  0  0
    3.2109   -0.5559    1.0195 H   0  0  0  0  0  0  0  0  0  0  0  0
    1.3255   -1.2554   -0.2145 H   0  0  0  0  0  0  0  0  0  0  0  0
   -1.0822   -1.6943   -0.5324 H   0  0  0  0  0  0  0  0  0  0  0  0
   -5.2225    2.4582   -0.3108 S   0  0  0  0  0  0  0  0  0  0  0  0
   -6.2522    3.3044   -0.9129 O   0  0  0  0  0  0  0  0  0  0  0  0
   -5.5529    0.9847   -0.3346 O   0  0  0  0  0  0  0  0  0  0  0  0
   -3.8186    2.6801   -0.7176 O   0  0  0  0  0  0  0  0  0  0  0  0
   -5.2013    2.8596    1.3018 O   0  0  0  0  0  0  0  0  0  0  0  0
   -6.0984    3.1673    1.5044 H   0  0  0  0  0  0  0  0  0  0  0  0
  1  4  1  0  0  0  0
  2  1  1  0  0  0  0
  3  2  1  0  0  0  0
  4 11  1  0  0  0  0
  4  5  2  0  0  0  0
  5 12  1  0  0  0  0
  6  5  1  0  0  0  0
  6  7  1  0  0  0  0
  8  7  1  0  0  0  0
  8 13  1  0  0  0  0
  8 15  1  0  0  0  0
  9  6  2  0  0  0  0
 10  1  2  0  0  0  0
 10  9  1  0  0  0  0
 14  8  1  0  0  0  0
 16  9  1  0  0  0  0
 17 10  1  0  0  0  0
 18 22  1  0  0  0  0
 19 18  2  0  0  0  0
 20 18  1  0  0  0  0
 21 18  2  0  0  0  0
 22 23  1  0  0  0  0
M  RAD  3   2   2   3   3  20   2
M  END
