Coordinates from ORCA-job 4-MeOPhN2+~HSO4-_B3LYPG-6-31G_dp-NX-Scan-d89-09-n800
 OpenBabel11261921003D

 23 22  0  0  0  0  0  0  0  0999 V2000
   -1.9421   -1.4046   -0.3524 C   0  0  0  0  0  0  0  0  0  0  0  0
   -2.8101   -2.4088   -0.6151 N   0  0  0  0  0  0  0  0  0  0  0  0
   -3.4711   -3.2924   -0.8462 N   0  0  0  0  0  0  0  0  0  0  0  0
   -2.3815   -0.0854   -0.0127 C   0  0  0  0  0  0  0  0  0  0  0  0
   -1.4291    0.8733    0.2309 C   0  0  0  0  0  0  0  0  0  0  0  0
   -0.0507    0.5423    0.1458 C   0  0  0  0  0  0  0  0  0  0  0  0
    0.7829    1.5367    0.4030 O   0  0  0  0  0  0  0  0  0  0  0  0
    2.2011    1.3468    0.3442 C   0  0  0  0  0  0  0  0  0  0  0  0
    0.3740   -0.7718   -0.1927 C   0  0  0  0  0  0  0  0  0  0  0  0
   -0.5644   -1.7427   -0.4418 C   0  0  0  0  0  0  0  0  0  0  0  0
   -3.4319    0.1828    0.0530 H   0  0  0  0  0  0  0  0  0  0  0  0
   -1.6987    1.9161    0.4659 H   0  0  0  0  0  0  0  0  0  0  0  0
    2.6286    2.3169    0.5918 H   0  0  0  0  0  0  0  0  0  0  0  0
    2.5138    1.0511   -0.6623 H   0  0  0  0  0  0  0  0  0  0  0  0
    2.5259    0.6010    1.0769 H   0  0  0  0  0  0  0  0  0  0  0  0
    1.4255   -1.0213   -0.2601 H   0  0  0  0  0  0  0  0  0  0  0  0
   -0.2700   -2.7528   -0.7048 H   0  0  0  0  0  0  0  0  0  0  0  0
   -3.2256    4.0548    0.6057 S   0  0  0  0  0  0  0  0  0  0  0  0
   -3.9847    2.7990    0.8294 O   0  0  0  0  0  0  0  0  0  0  0  0
   -3.6058    5.2316    1.4150 O   0  0  0  0  0  0  0  0  0  0  0  0
   -1.7569    3.7983    0.5251 O   0  0  0  0  0  0  0  0  0  0  0  0
   -3.6574    4.5050   -0.9544 O   0  0  0  0  0  0  0  0  0  0  0  0
   -3.8935    5.4394   -0.8592 H   0  0  0  0  0  0  0  0  0  0  0  0
  1  4  1  0  0  0  0
  2  1  1  0  0  0  0
  3  2  1  0  0  0  0
  4 11  1  0  0  0  0
  4  5  2  0  0  0  0
  5 12  1  0  0  0  0
  6  5  1  0  0  0  0
  6  7  1  0  0  0  0
  8  7  1  0  0  0  0
  8 13  1  0  0  0  0
  8 15  1  0  0  0  0
  9  6  2  0  0  0  0
 10  1  2  0  0  0  0
 10  9  1  0  0  0  0
 14  8  1  0  0  0  0
 16  9  1  0  0  0  0
 17 10  1  0  0  0  0
 18 19  2  0  0  0  0
 18 20  1  0  0  0  0
 21 18  2  0  0  0  0
 22 23  1  0  0  0  0
 22 18  1  0  0  0  0
M  RAD  3   2   2   3   3  20   2
M  END
