Coordinates from ORCA-job 4-MeOPhN2+~HSO4-_B3LYPG-6-31G_dp-NX-Scan-d89-09-n800
 OpenBabel11261921003D

 23 22  0  0  0  0  0  0  0  0999 V2000
   -1.9382   -1.0075   -0.3040 C   0  0  0  0  0  0  0  0  0  0  0  0
   -2.9920   -1.8191   -0.5542 N   0  0  0  0  0  0  0  0  0  0  0  0
   -3.8503   -2.5120   -0.7680 N   0  0  0  0  0  0  0  0  0  0  0  0
   -2.1606    0.3502    0.0579 C   0  0  0  0  0  0  0  0  0  0  0  0
   -1.0557    1.1368    0.2939 C   0  0  0  0  0  0  0  0  0  0  0  0
    0.2451    0.5967    0.1771 C   0  0  0  0  0  0  0  0  0  0  0  0
    1.2419    1.4414    0.4270 O   0  0  0  0  0  0  0  0  0  0  0  0
    2.6046    1.0132    0.3298 C   0  0  0  0  0  0  0  0  0  0  0  0
    0.4450   -0.7647   -0.1857 C   0  0  0  0  0  0  0  0  0  0  0  0
   -0.6411   -1.5712   -0.4279 C   0  0  0  0  0  0  0  0  0  0  0  0
   -3.1510    0.8155    0.1570 H   0  0  0  0  0  0  0  0  0  0  0  0
   -1.2226    2.1915    0.5498 H   0  0  0  0  0  0  0  0  0  0  0  0
    3.2005    1.8907    0.5760 H   0  0  0  0  0  0  0  0  0  0  0  0
    2.8399    0.6828   -0.6871 H   0  0  0  0  0  0  0  0  0  0  0  0
    2.8163    0.2122    1.0458 H   0  0  0  0  0  0  0  0  0  0  0  0
    1.4412   -1.1787   -0.2764 H   0  0  0  0  0  0  0  0  0  0  0  0
   -0.5180   -2.6114   -0.7085 H   0  0  0  0  0  0  0  0  0  0  0  0
   -3.7141    3.7382    0.5368 S   0  0  0  0  0  0  0  0  0  0  0  0
   -4.2137    2.3367    0.6152 O   0  0  0  0  0  0  0  0  0  0  0  0
   -4.4556    4.7359    1.3251 O   0  0  0  0  0  0  0  0  0  0  0  0
   -2.2328    3.8228    0.6527 O   0  0  0  0  0  0  0  0  0  0  0  0
   -4.0449    4.1516   -1.0545 O   0  0  0  0  0  0  0  0  0  0  0  0
   -4.3654    5.0638   -0.9931 H   0  0  0  0  0  0  0  0  0  0  0  0
  1  4  1  0  0  0  0
  2  1  1  0  0  0  0
  3  2  1  0  0  0  0
  4 11  1  0  0  0  0
  4  5  2  0  0  0  0
  5 12  1  0  0  0  0
  6  5  1  0  0  0  0
  6  7  1  0  0  0  0
  8  7  1  0  0  0  0
  8 13  1  0  0  0  0
  8 15  1  0  0  0  0
  9  6  2  0  0  0  0
 10  1  2  0  0  0  0
 10  9  1  0  0  0  0
 14  8  1  0  0  0  0
 16  9  1  0  0  0  0
 17 10  1  0  0  0  0
 18 19  2  0  0  0  0
 18 21  2  0  0  0  0
 18 20  1  0  0  0  0
 22 23  1  0  0  0  0
 22 18  1  0  0  0  0
M  RAD  3   2   2   3   3  20   2
M  END
