Coordinates from ORCA-job 4-MeOPhN2+~HSO4-_B3LYPG-6-31G_dp-NX-Scan-d89-09-n800
 OpenBabel11261921003D

 23 22  0  0  0  0  0  0  0  0999 V2000
   -1.7576    0.5463   -0.5007 C   0  0  0  0  0  0  0  0  0  0  0  0
   -3.0738    0.4110   -0.8816 N   0  0  0  0  0  0  0  0  0  0  0  0
   -4.0859    0.1814   -1.2959 N   0  0  0  0  0  0  0  0  0  0  0  0
   -1.2359    1.8225   -0.2044 C   0  0  0  0  0  0  0  0  0  0  0  0
    0.0969    1.8982    0.1375 C   0  0  0  0  0  0  0  0  0  0  0  0
    0.8970    0.7369    0.2059 C   0  0  0  0  0  0  0  0  0  0  0  0
    2.1751    0.9379    0.5591 O   0  0  0  0  0  0  0  0  0  0  0  0
    3.0624   -0.1767    0.6710 C   0  0  0  0  0  0  0  0  0  0  0  0
    0.3475   -0.5292   -0.0900 C   0  0  0  0  0  0  0  0  0  0  0  0
   -0.9853   -0.6270   -0.4501 C   0  0  0  0  0  0  0  0  0  0  0  0
   -1.8978    2.6869   -0.2643 H   0  0  0  0  0  0  0  0  0  0  0  0
    0.5542    2.8521    0.3740 H   0  0  0  0  0  0  0  0  0  0  0  0
    4.0231    0.2426    0.9674 H   0  0  0  0  0  0  0  0  0  0  0  0
    3.1698   -0.6941   -0.2887 H   0  0  0  0  0  0  0  0  0  0  0  0
    2.7185   -0.8798    1.4374 H   0  0  0  0  0  0  0  0  0  0  0  0
    0.9490   -1.4276   -0.0406 H   0  0  0  0  0  0  0  0  0  0  0  0
   -1.4302   -1.5890   -0.6795 H   0  0  0  0  0  0  0  0  0  0  0  0
   -4.5470    2.8365    0.5008 S   0  0  0  0  0  0  0  0  0  0  0  0
   -3.8389    1.7332    1.1956 O   0  0  0  0  0  0  0  0  0  0  0  0
   -5.3194    3.7548    1.3331 O   0  0  0  0  0  0  0  0  0  0  0  0
   -3.7171    3.4670   -0.5650 O   0  0  0  0  0  0  0  0  0  0  0  0
   -5.6882    1.9462   -0.3800 O   0  0  0  0  0  0  0  0  0  0  0  0
   -6.1380    2.5849   -0.9560 H   0  0  0  0  0  0  0  0  0  0  0  0
  1 10  2  0  0  0  0
  1  4  1  0  0  0  0
  2  1  1  0  0  0  0
  3  2  1  0  0  0  0
  4  5  2  0  0  0  0
  5  6  1  0  0  0  0
  5 12  1  0  0  0  0
  6  7  1  0  0  0  0
  7  8  1  0  0  0  0
  8 13  1  0  0  0  0
  8 15  1  0  0  0  0
  9 16  1  0  0  0  0
  9  6  2  0  0  0  0
 10  9  1  0  0  0  0
 11  4  1  0  0  0  0
 14  8  1  0  0  0  0
 17 10  1  0  0  0  0
 18 19  2  0  0  0  0
 18 20  1  0  0  0  0
 21 18  2  0  0  0  0
 22 18  1  0  0  0  0
 23 22  1  0  0  0  0
M  RAD  3   2   2   3   3  20   2
M  END
