Coordinates from ORCA-job 4-MeOPhN2+~HSO4-_B3LYPG-6-31G_dp-NX-Scan-d89-09-n800
 OpenBabel11261921003D

 23 22  0  0  0  0  0  0  0  0999 V2000
   -1.6555    0.2115   -0.5996 C   0  0  0  0  0  0  0  0  0  0  0  0
   -2.9224   -0.0667   -1.0780 N   0  0  0  0  0  0  0  0  0  0  0  0
   -4.0003    0.1069   -1.3831 N   0  0  0  0  0  0  0  0  0  0  0  0
   -1.4092    1.4427    0.0480 C   0  0  0  0  0  0  0  0  0  0  0  0
   -0.1301    1.6746    0.5111 C   0  0  0  0  0  0  0  0  0  0  0  0
    0.8921    0.7175    0.3370 C   0  0  0  0  0  0  0  0  0  0  0  0
    2.0951    1.0632    0.8249 O   0  0  0  0  0  0  0  0  0  0  0  0
    3.1904    0.1539    0.7066 C   0  0  0  0  0  0  0  0  0  0  0  0
    0.6199   -0.5072   -0.3065 C   0  0  0  0  0  0  0  0  0  0  0  0
   -0.6608   -0.7627   -0.7685 C   0  0  0  0  0  0  0  0  0  0  0  0
   -2.2098    2.1643    0.2037 H   0  0  0  0  0  0  0  0  0  0  0  0
    0.1097    2.5991    1.0243 H   0  0  0  0  0  0  0  0  0  0  0  0
    4.0396    0.6560    1.1688 H   0  0  0  0  0  0  0  0  0  0  0  0
    3.4182   -0.0570   -0.3440 H   0  0  0  0  0  0  0  0  0  0  0  0
    2.9867   -0.7825    1.2375 H   0  0  0  0  0  0  0  0  0  0  0  0
    1.3929   -1.2525   -0.4431 H   0  0  0  0  0  0  0  0  0  0  0  0
   -0.8968   -1.6987   -1.2628 H   0  0  0  0  0  0  0  0  0  0  0  0
   -4.9257    2.4470    0.1810 S   0  0  0  0  0  0  0  0  0  0  0  0
   -5.6154    1.2713    0.7154 O   0  0  0  0  0  0  0  0  0  0  0  0
   -3.9136    3.0963    1.0474 O   0  0  0  0  0  0  0  0  0  0  0  0
   -4.3618    2.2122   -1.2090 O   0  0  0  0  0  0  0  0  0  0  0  0
   -6.0918    3.5940   -0.0387 O   0  0  0  0  0  0  0  0  0  0  0  0
   -5.6729    4.4319    0.2124 H   0  0  0  0  0  0  0  0  0  0  0  0
  1  4  1  0  0  0  0
  2  1  1  0  0  0  0
  3  2  1  0  0  0  0
  4 11  1  0  0  0  0
  4  5  2  0  0  0  0
  5 12  1  0  0  0  0
  6  5  1  0  0  0  0
  6  7  1  0  0  0  0
  8  7  1  0  0  0  0
  8 13  1  0  0  0  0
  8 15  1  0  0  0  0
  9  6  2  0  0  0  0
 10  1  2  0  0  0  0
 10  9  1  0  0  0  0
 14  8  1  0  0  0  0
 16  9  1  0  0  0  0
 17 10  1  0  0  0  0
 18 19  2  0  0  0  0
 18 20  1  0  0  0  0
 21 18  2  0  0  0  0
 22 18  1  0  0  0  0
 22 23  1  0  0  0  0
M  RAD  3   2   2   3   3  20   2
M  END
