Coordinates from ORCA-job 4-MeOPhN2+~HSO4-_B3LYPG-6-31G_dp-NX-Scan-d89-09-n800
 OpenBabel11261921003D

 23 22  0  0  0  0  0  0  0  0999 V2000
   -1.8897   -0.7094   -0.2422 C   0  0  0  0  0  0  0  0  0  0  0  0
   -3.0633   -1.3567   -0.4601 N   0  0  0  0  0  0  0  0  0  0  0  0
   -4.0366   -1.8826   -0.6405 N   0  0  0  0  0  0  0  0  0  0  0  0
   -1.9454    0.6695    0.0788 C   0  0  0  0  0  0  0  0  0  0  0  0
   -0.7500    1.3203    0.2866 C   0  0  0  0  0  0  0  0  0  0  0  0
    0.4725    0.6227    0.1829 C   0  0  0  0  0  0  0  0  0  0  0  0
    1.5713    1.3458    0.4036 O   0  0  0  0  0  0  0  0  0  0  0  0
    2.8669    0.7429    0.3189 C   0  0  0  0  0  0  0  0  0  0  0  0
    0.4985   -0.7635   -0.1395 C   0  0  0  0  0  0  0  0  0  0  0  0
   -0.6809   -1.4390   -0.3555 C   0  0  0  0  0  0  0  0  0  0  0  0
   -2.9143    1.1980    0.1504 H   0  0  0  0  0  0  0  0  0  0  0  0
   -0.7849    2.3805    0.5203 H   0  0  0  0  0  0  0  0  0  0  0  0
    3.5726    1.5411    0.5440 H   0  0  0  0  0  0  0  0  0  0  0  0
    3.0567    0.3599   -0.6893 H   0  0  0  0  0  0  0  0  0  0  0  0
    2.9756   -0.0612    1.0544 H   0  0  0  0  0  0  0  0  0  0  0  0
    1.4360   -1.2981   -0.2204 H   0  0  0  0  0  0  0  0  0  0  0  0
   -0.6883   -2.4937   -0.6074 H   0  0  0  0  0  0  0  0  0  0  0  0
   -4.0942    3.4696    0.4028 S   0  0  0  0  0  0  0  0  0  0  0  0
   -4.4914    2.0441    0.1890 O   0  0  0  0  0  0  0  0  0  0  0  0
   -4.9195    4.2253    1.3584 O   0  0  0  0  0  0  0  0  0  0  0  0
   -2.6267    3.6132    0.5706 O   0  0  0  0  0  0  0  0  0  0  0  0
   -4.4388    4.1700   -1.0776 O   0  0  0  0  0  0  0  0  0  0  0  0
   -4.8477    5.0166   -0.8435 H   0  0  0  0  0  0  0  0  0  0  0  0
  1  4  1  0  0  0  0
  2  1  1  0  0  0  0
  3  2  1  0  0  0  0
  4 11  1  0  0  0  0
  4  5  2  0  0  0  0
  5 12  1  0  0  0  0
  6  5  1  0  0  0  0
  6  7  1  0  0  0  0
  8  7  1  0  0  0  0
  8 13  1  0  0  0  0
  8 15  1  0  0  0  0
  9  6  2  0  0  0  0
 10  1  2  0  0  0  0
 10  9  1  0  0  0  0
 14  8  1  0  0  0  0
 16  9  1  0  0  0  0
 17 10  1  0  0  0  0
 18 21  2  0  0  0  0
 18 20  1  0  0  0  0
 19 18  2  0  0  0  0
 22 23  1  0  0  0  0
 22 18  1  0  0  0  0
M  RAD  3   2   2   3   3  20   2
M  END
