Coordinates from ORCA-job 4-MeOPhN2+~HSO4-_B3LYPG-6-31G_dp-NX-Scan-d89-09-n800
 OpenBabel11261921003D

 23 22  0  0  0  0  0  0  0  0999 V2000
   -1.5115    0.7903   -0.5981 C   0  0  0  0  0  0  0  0  0  0  0  0
   -2.6998    0.8283   -1.3607 N   0  0  0  0  0  0  0  0  0  0  0  0
   -3.7393    1.4509   -0.8691 N   0  0  0  0  0  0  0  0  0  0  0  0
   -1.2574    1.3196    0.6893 C   0  0  0  0  0  0  0  0  0  0  0  0
   -0.0062    1.1702    1.2734 C   0  0  0  0  0  0  0  0  0  0  0  0
    1.0285    0.4986    0.6077 C   0  0  0  0  0  0  0  0  0  0  0  0
    2.2124    0.4163    1.2771 O   0  0  0  0  0  0  0  0  0  0  0  0
    3.2965   -0.2506    0.6480 C   0  0  0  0  0  0  0  0  0  0  0  0
    0.7920   -0.0324   -0.6679 C   0  0  0  0  0  0  0  0  0  0  0  0
   -0.4622    0.1177   -1.2492 C   0  0  0  0  0  0  0  0  0  0  0  0
   -2.0223    1.8445    1.2430 H   0  0  0  0  0  0  0  0  0  0  0  0
    0.1931    1.5728    2.2608 H   0  0  0  0  0  0  0  0  0  0  0  0
    4.1329   -0.1903    1.3462 H   0  0  0  0  0  0  0  0  0  0  0  0
    3.5781    0.2351   -0.2949 H   0  0  0  0  0  0  0  0  0  0  0  0
    3.0643   -1.3053    0.4527 H   0  0  0  0  0  0  0  0  0  0  0  0
    1.5694   -0.5574   -1.2100 H   0  0  0  0  0  0  0  0  0  0  0  0
   -0.6581   -0.2881   -2.2360 H   0  0  0  0  0  0  0  0  0  0  0  0
   -6.1693    2.9368    0.2744 S   0  0  0  0  0  0  0  0  0  0  0  0
   -5.7136    4.3121    0.3650 O   0  0  0  0  0  0  0  0  0  0  0  0
   -3.8961    1.9475   -0.0036 O   0  0  0  0  0  0  0  0  0  0  0  0
   -6.5018    2.1882    1.4729 O   0  0  0  0  0  0  0  0  0  0  0  0
   -6.4479    2.3569   -1.0365 O   0  0  0  0  0  0  0  0  0  0  0  0
   -4.5032    1.3535   -1.5997 H   0  0  0  0  0  0  0  0  0  0  0  0
  1  4  2  0  0  0  0
  2  3  1  0  0  0  0
  2  1  1  0  0  0  0
  3 20  1  0  0  0  0
  4 11  1  0  0  0  0
  4  5  1  0  0  0  0
  5 12  1  0  0  0  0
  6  5  2  0  0  0  0
  6  7  1  0  0  0  0
  8  7  1  0  0  0  0
  8 13  1  0  0  0  0
  9  6  1  0  0  0  0
 10  9  2  0  0  0  0
 10  1  1  0  0  0  0
 14  8  1  0  0  0  0
 15  8  1  0  0  0  0
 16  9  1  0  0  0  0
 17 10  1  0  0  0  0
 18 19  2  0  0  0  0
 18 21  1  0  0  0  0
 22 18  1  0  0  0  0
 23  3  1  0  0  0  0
M  RAD  4   2   2  20   2  21   2  22   2
M  END
