Coordinates from ORCA-job 4-MeOPhN2+~HSO4-_B3LYPG-6-31G_dp-NX-Scan-d89-09-n800
 OpenBabel11261921003D

 23 22  0  0  0  0  0  0  0  0999 V2000
   -1.9564   -1.2629   -0.3351 C   0  0  0  0  0  0  0  0  0  0  0  0
   -2.8837   -2.2130   -0.5965 N   0  0  0  0  0  0  0  0  0  0  0  0
   -3.5977   -3.0529   -0.8276 N   0  0  0  0  0  0  0  0  0  0  0  0
   -2.3189    0.0774    0.0054 C   0  0  0  0  0  0  0  0  0  0  0  0
   -1.3073    0.9769    0.2433 C   0  0  0  0  0  0  0  0  0  0  0  0
    0.0468    0.5677    0.1529 C   0  0  0  0  0  0  0  0  0  0  0  0
    0.9416    1.5132    0.4048 O   0  0  0  0  0  0  0  0  0  0  0  0
    2.3446    1.2348    0.3389 C   0  0  0  0  0  0  0  0  0  0  0  0
    0.3930   -0.7691   -0.1852 C   0  0  0  0  0  0  0  0  0  0  0  0
   -0.6017   -1.6835   -0.4299 C   0  0  0  0  0  0  0  0  0  0  0  0
   -3.3472    0.4257    0.0807 H   0  0  0  0  0  0  0  0  0  0  0  0
   -1.5381    2.0302    0.4782 H   0  0  0  0  0  0  0  0  0  0  0  0
    2.8348    2.1761    0.5820 H   0  0  0  0  0  0  0  0  0  0  0  0
    2.6333    0.9180   -0.6683 H   0  0  0  0  0  0  0  0  0  0  0  0
    2.6268    0.4716    1.0715 H   0  0  0  0  0  0  0  0  0  0  0  0
    1.4277   -1.0804   -0.2559 H   0  0  0  0  0  0  0  0  0  0  0  0
   -0.3685   -2.7093   -0.6931 H   0  0  0  0  0  0  0  0  0  0  0  0
   -3.3800    3.9371    0.5851 S   0  0  0  0  0  0  0  0  0  0  0  0
   -4.0044    2.5976    0.7425 O   0  0  0  0  0  0  0  0  0  0  0  0
   -3.9224    5.0375    1.4059 O   0  0  0  0  0  0  0  0  0  0  0  0
   -1.8901    3.8525    0.5662 O   0  0  0  0  0  0  0  0  0  0  0  0
   -3.8034    4.3685   -0.9807 O   0  0  0  0  0  0  0  0  0  0  0  0
   -4.0504    5.3017   -0.9004 H   0  0  0  0  0  0  0  0  0  0  0  0
  1  4  1  0  0  0  0
  2  1  1  0  0  0  0
  3  2  1  0  0  0  0
  4 11  1  0  0  0  0
  4  5  2  0  0  0  0
  5 12  1  0  0  0  0
  6  5  1  0  0  0  0
  6  7  1  0  0  0  0
  8  7  1  0  0  0  0
  8 13  1  0  0  0  0
  8 15  1  0  0  0  0
  9  6  2  0  0  0  0
 10  1  2  0  0  0  0
 10  9  1  0  0  0  0
 14  8  1  0  0  0  0
 16  9  1  0  0  0  0
 17 10  1  0  0  0  0
 18 19  2  0  0  0  0
 18 20  1  0  0  0  0
 21 18  2  0  0  0  0
 22 23  1  0  0  0  0
 22 18  1  0  0  0  0
M  RAD  3   2   2   3   3  20   2
M  END
