Coordinates from ORCA-job 4-MeOPhN2+~HSO4-_B3LYPG-6-31G_dp-NX-Scan-d89-09-n800
 OpenBabel11261921003D

 23 22  0  0  0  0  0  0  0  0999 V2000
   -1.6523    0.3320   -0.7871 C   0  0  0  0  0  0  0  0  0  0  0  0
   -2.9067    0.0938   -1.3133 N   0  0  0  0  0  0  0  0  0  0  0  0
   -3.9787    0.3029   -1.6176 N   0  0  0  0  0  0  0  0  0  0  0  0
   -1.3373    1.6089   -0.2710 C   0  0  0  0  0  0  0  0  0  0  0  0
   -0.0749    1.7976    0.2513 C   0  0  0  0  0  0  0  0  0  0  0  0
    0.8682    0.7478    0.2671 C   0  0  0  0  0  0  0  0  0  0  0  0
    2.0618    1.0539    0.8018 O   0  0  0  0  0  0  0  0  0  0  0  0
    3.0754    0.0507    0.8816 C   0  0  0  0  0  0  0  0  0  0  0  0
    0.5332   -0.5187   -0.2533 C   0  0  0  0  0  0  0  0  0  0  0  0
   -0.7312   -0.7250   -0.7804 C   0  0  0  0  0  0  0  0  0  0  0  0
   -2.0733    2.4058   -0.2717 H   0  0  0  0  0  0  0  0  0  0  0  0
    0.2109    2.7562    0.6692 H   0  0  0  0  0  0  0  0  0  0  0  0
    3.9308    0.5348    1.3515 H   0  0  0  0  0  0  0  0  0  0  0  0
    3.3599   -0.3056   -0.1146 H   0  0  0  0  0  0  0  0  0  0  0  0
    2.7485   -0.7936    1.4987 H   0  0  0  0  0  0  0  0  0  0  0  0
    1.2453   -1.3339   -0.2456 H   0  0  0  0  0  0  0  0  0  0  0  0
   -1.0144   -1.6913   -1.1827 H   0  0  0  0  0  0  0  0  0  0  0  0
   -4.6862    2.4398    0.3129 S   0  0  0  0  0  0  0  0  0  0  0  0
   -4.7656    1.1117    0.9317 O   0  0  0  0  0  0  0  0  0  0  0  0
   -3.8329    3.4516    0.9636 O   0  0  0  0  0  0  0  0  0  0  0  0
   -4.3636    2.3540   -1.1710 O   0  0  0  0  0  0  0  0  0  0  0  0
   -6.2208    3.0408    0.3859 O   0  0  0  0  0  0  0  0  0  0  0  0
   -6.1178    4.0010    0.4777 H   0  0  0  0  0  0  0  0  0  0  0  0
  1 10  2  0  0  0  0
  1  4  1  0  0  0  0
  2  1  1  0  0  0  0
  3  2  1  0  0  0  0
  4  5  2  0  0  0  0
  5  6  1  0  0  0  0
  5 12  1  0  0  0  0
  6  7  1  0  0  0  0
  7  8  1  0  0  0  0
  8 13  1  0  0  0  0
  8 15  1  0  0  0  0
  9 16  1  0  0  0  0
  9  6  2  0  0  0  0
 10  9  1  0  0  0  0
 11  4  1  0  0  0  0
 14  8  1  0  0  0  0
 17 10  1  0  0  0  0
 18 22  1  0  0  0  0
 18 19  2  0  0  0  0
 18 20  1  0  0  0  0
 21 18  2  0  0  0  0
 22 23  1  0  0  0  0
M  RAD  3   2   2   3   3  20   2
M  END
