Coordinates from ORCA-job 4-MeOPhN2+~HSO4-_B3LYPG-6-31G_dp-NX-Scan-d89-09-n800
 OpenBabel11261921003D

 23 22  0  0  0  0  0  0  0  0999 V2000
   -1.7519    0.3159   -0.5824 C   0  0  0  0  0  0  0  0  0  0  0  0
   -3.0356    0.0536   -1.0096 N   0  0  0  0  0  0  0  0  0  0  0  0
   -3.9591   -0.3619   -1.4828 N   0  0  0  0  0  0  0  0  0  0  0  0
   -1.3304    1.6366   -0.3271 C   0  0  0  0  0  0  0  0  0  0  0  0
   -0.0159    1.8155    0.0482 C   0  0  0  0  0  0  0  0  0  0  0  0
    0.8604    0.7178    0.1881 C   0  0  0  0  0  0  0  0  0  0  0  0
    2.1090    1.0200    0.5688 O   0  0  0  0  0  0  0  0  0  0  0  0
    3.0681   -0.0246    0.7508 C   0  0  0  0  0  0  0  0  0  0  0  0
    0.4081   -0.5958   -0.0682 C   0  0  0  0  0  0  0  0  0  0  0  0
   -0.9017   -0.8002   -0.4605 C   0  0  0  0  0  0  0  0  0  0  0  0
   -2.0357    2.4698   -0.4179 H   0  0  0  0  0  0  0  0  0  0  0  0
    0.3643    2.8085    0.2598 H   0  0  0  0  0  0  0  0  0  0  0  0
    3.9876    0.4729    1.0563 H   0  0  0  0  0  0  0  0  0  0  0  0
    3.2404   -0.5695   -0.1840 H   0  0  0  0  0  0  0  0  0  0  0  0
    2.7500   -0.7196    1.5352 H   0  0  0  0  0  0  0  0  0  0  0  0
    1.0669   -1.4479    0.0386 H   0  0  0  0  0  0  0  0  0  0  0  0
   -1.2723   -1.7994   -0.6621 H   0  0  0  0  0  0  0  0  0  0  0  0
   -4.5017    2.8976    0.4825 S   0  0  0  0  0  0  0  0  0  0  0  0
   -4.0397    1.5020    0.7462 O   0  0  0  0  0  0  0  0  0  0  0  0
   -5.0134    3.6398    1.6419 O   0  0  0  0  0  0  0  0  0  0  0  0
   -3.5403    3.6438   -0.3751 O   0  0  0  0  0  0  0  0  0  0  0  0
   -5.8287    2.6115   -0.4926 O   0  0  0  0  0  0  0  0  0  0  0  0
   -6.3500    3.4288   -0.4693 H   0  0  0  0  0  0  0  0  0  0  0  0
  1 10  2  0  0  0  0
  1  4  1  0  0  0  0
  2  1  1  0  0  0  0
  3  2  1  0  0  0  0
  4  5  2  0  0  0  0
  5  6  1  0  0  0  0
  5 12  1  0  0  0  0
  6  7  1  0  0  0  0
  7  8  1  0  0  0  0
  8 13  1  0  0  0  0
  8 15  1  0  0  0  0
  9 16  1  0  0  0  0
  9  6  2  0  0  0  0
 10  9  1  0  0  0  0
 11  4  1  0  0  0  0
 14  8  1  0  0  0  0
 17 10  1  0  0  0  0
 18 19  2  0  0  0  0
 18 20  1  0  0  0  0
 21 18  2  0  0  0  0
 22 23  1  0  0  0  0
 22 18  1  0  0  0  0
M  RAD  3   2   2   3   3  20   2
M  END
