Coordinates from ORCA-job 4-MeOPhN2+~HSO4-_B3LYPG-6-31G_dp-NX-Scan-d89-09-n800
 OpenBabel11261921003D

 23 22  0  0  0  0  0  0  0  0999 V2000
   -1.7452    0.2000   -0.6346 C   0  0  0  0  0  0  0  0  0  0  0  0
   -3.0122   -0.1145   -1.0658 N   0  0  0  0  0  0  0  0  0  0  0  0
   -3.9457   -0.5436   -1.5041 N   0  0  0  0  0  0  0  0  0  0  0  0
   -1.3709    1.5417   -0.4138 C   0  0  0  0  0  0  0  0  0  0  0  0
   -0.0703    1.7740   -0.0198 C   0  0  0  0  0  0  0  0  0  0  0  0
    0.8382    0.7105    0.1677 C   0  0  0  0  0  0  0  0  0  0  0  0
    2.0684    1.0634    0.5620 O   0  0  0  0  0  0  0  0  0  0  0  0
    3.0562    0.0564    0.7978 C   0  0  0  0  0  0  0  0  0  0  0  0
    0.4334   -0.6253   -0.0572 C   0  0  0  0  0  0  0  0  0  0  0  0
   -0.8610   -0.8845   -0.4647 C   0  0  0  0  0  0  0  0  0  0  0  0
   -2.0980    2.3553   -0.5261 H   0  0  0  0  0  0  0  0  0  0  0  0
    0.2699    2.7855    0.1722 H   0  0  0  0  0  0  0  0  0  0  0  0
    3.9516    0.5930    1.1086 H   0  0  0  0  0  0  0  0  0  0  0  0
    3.2680   -0.5104   -0.1157 H   0  0  0  0  0  0  0  0  0  0  0  0
    2.7418   -0.6245    1.5959 H   0  0  0  0  0  0  0  0  0  0  0  0
    1.1182   -1.4509    0.0874 H   0  0  0  0  0  0  0  0  0  0  0  0
   -1.1954   -1.9011   -0.6417 H   0  0  0  0  0  0  0  0  0  0  0  0
   -4.4762    2.9219    0.4589 S   0  0  0  0  0  0  0  0  0  0  0  0
   -4.1912    1.4563    0.4879 O   0  0  0  0  0  0  0  0  0  0  0  0
   -4.8953    3.5258    1.7324 O   0  0  0  0  0  0  0  0  0  0  0  0
   -3.4200    3.6669   -0.2802 O   0  0  0  0  0  0  0  0  0  0  0  0
   -5.8320    2.9931   -0.5117 O   0  0  0  0  0  0  0  0  0  0  0  0
   -6.3537    3.7261   -0.1507 H   0  0  0  0  0  0  0  0  0  0  0  0
  1 10  2  0  0  0  0
  1  4  1  0  0  0  0
  2  1  1  0  0  0  0
  3  2  1  0  0  0  0
  4  5  2  0  0  0  0
  5  6  1  0  0  0  0
  5 12  1  0  0  0  0
  6  7  1  0  0  0  0
  7  8  1  0  0  0  0
  8 13  1  0  0  0  0
  8 15  1  0  0  0  0
  9 16  1  0  0  0  0
  9  6  2  0  0  0  0
 10  9  1  0  0  0  0
 11  4  1  0  0  0  0
 14  8  1  0  0  0  0
 17 10  1  0  0  0  0
 18 19  2  0  0  0  0
 18 20  1  0  0  0  0
 21 18  2  0  0  0  0
 22 23  1  0  0  0  0
 22 18  1  0  0  0  0
M  RAD  3   2   2   3   3  20   2
M  END
