Coordinates from ORCA-job 4-MeOPhN2+~HSO4-_B3LYPG-6-31G_dp-NX-Scan-d89-09-n800
 OpenBabel11261921003D

 23 22  0  0  0  0  0  0  0  0999 V2000
   -1.9327   -0.9568   -0.2946 C   0  0  0  0  0  0  0  0  0  0  0  0
   -3.0047   -1.7466   -0.5410 N   0  0  0  0  0  0  0  0  0  0  0  0
   -3.8771   -2.4217   -0.7517 N   0  0  0  0  0  0  0  0  0  0  0  0
   -2.1276    0.4041    0.0671 C   0  0  0  0  0  0  0  0  0  0  0  0
   -1.0044    1.1664    0.2988 C   0  0  0  0  0  0  0  0  0  0  0  0
    0.2847    0.6009    0.1786 C   0  0  0  0  0  0  0  0  0  0  0  0
    1.2995    1.4259    0.4249 O   0  0  0  0  0  0  0  0  0  0  0  0
    2.6526    0.9689    0.3244 C   0  0  0  0  0  0  0  0  0  0  0  0
    0.4553   -0.7645   -0.1840 C   0  0  0  0  0  0  0  0  0  0  0  0
   -0.6486   -1.5481   -0.4225 C   0  0  0  0  0  0  0  0  0  0  0  0
   -3.1127    0.8869    0.1689 H   0  0  0  0  0  0  0  0  0  0  0  0
   -1.1529    2.2204    0.5574 H   0  0  0  0  0  0  0  0  0  0  0  0
    3.2678    1.8335    0.5691 H   0  0  0  0  0  0  0  0  0  0  0  0
    2.8785    0.6336   -0.6929 H   0  0  0  0  0  0  0  0  0  0  0  0
    2.8491    0.1636    1.0400 H   0  0  0  0  0  0  0  0  0  0  0  0
    1.4424   -1.1992   -0.2774 H   0  0  0  0  0  0  0  0  0  0  0  0
   -0.5481   -2.5908   -0.7030 H   0  0  0  0  0  0  0  0  0  0  0  0
   -3.7882    3.6999    0.5261 S   0  0  0  0  0  0  0  0  0  0  0  0
   -4.2858    2.2950    0.5718 O   0  0  0  0  0  0  0  0  0  0  0  0
   -4.5546    4.6825    1.3093 O   0  0  0  0  0  0  0  0  0  0  0  0
   -2.3116    3.7862    0.6804 O   0  0  0  0  0  0  0  0  0  0  0  0
   -4.0806    4.1354   -1.0667 O   0  0  0  0  0  0  0  0  0  0  0  0
   -4.4219    5.0395   -0.9982 H   0  0  0  0  0  0  0  0  0  0  0  0
  1  4  1  0  0  0  0
  2  1  1  0  0  0  0
  3  2  1  0  0  0  0
  4 11  1  0  0  0  0
  4  5  2  0  0  0  0
  5 12  1  0  0  0  0
  6  5  1  0  0  0  0
  6  7  1  0  0  0  0
  8  7  1  0  0  0  0
  8 13  1  0  0  0  0
  8 15  1  0  0  0  0
  9  6  2  0  0  0  0
 10  1  2  0  0  0  0
 10  9  1  0  0  0  0
 14  8  1  0  0  0  0
 16  9  1  0  0  0  0
 17 10  1  0  0  0  0
 18 19  2  0  0  0  0
 18 21  2  0  0  0  0
 18 20  1  0  0  0  0
 22 23  1  0  0  0  0
 22 18  1  0  0  0  0
M  RAD  3   2   2   3   3  20   2
M  END
