Coordinates from ORCA-job 4-MeOPhN2+~HSO4-_B3LYPG-6-31G_dp-NX-Scan-d89-09-n800
 OpenBabel11261921003D

 23 22  0  0  0  0  0  0  0  0999 V2000
   -1.6503    0.3620   -0.2016 C   0  0  0  0  0  0  0  0  0  0  0  0
   -2.9840    0.0515   -0.3675 N   0  0  0  0  0  0  0  0  0  0  0  0
   -4.0258   -0.3683   -0.4945 N   0  0  0  0  0  0  0  0  0  0  0  0
   -1.2410    1.6785    0.0892 C   0  0  0  0  0  0  0  0  0  0  0  0
    0.1065    1.9166    0.2695 C   0  0  0  0  0  0  0  0  0  0  0  0
    1.0464    0.8709    0.1631 C   0  0  0  0  0  0  0  0  0  0  0  0
    2.3287    1.2227    0.3574 O   0  0  0  0  0  0  0  0  0  0  0  0
    3.3519    0.2310    0.2648 C   0  0  0  0  0  0  0  0  0  0  0  0
    0.6200   -0.4408   -0.1306 C   0  0  0  0  0  0  0  0  0  0  0  0
   -0.7291   -0.6956   -0.3109 C   0  0  0  0  0  0  0  0  0  0  0  0
   -1.9948    2.4579    0.1359 H   0  0  0  0  0  0  0  0  0  0  0  0
    0.4691    2.9135    0.4932 H   0  0  0  0  0  0  0  0  0  0  0  0
    4.2875    0.7560    0.4555 H   0  0  0  0  0  0  0  0  0  0  0  0
    3.3817   -0.2154   -0.7352 H   0  0  0  0  0  0  0  0  0  0  0  0
    3.2133   -0.5531    1.0175 H   0  0  0  0  0  0  0  0  0  0  0  0
    1.3286   -1.2544   -0.2173 H   0  0  0  0  0  0  0  0  0  0  0  0
   -1.0780   -1.6977   -0.5357 H   0  0  0  0  0  0  0  0  0  0  0  0
   -5.2254    2.4573   -0.3101 S   0  0  0  0  0  0  0  0  0  0  0  0
   -6.2362    3.3235   -0.9168 O   0  0  0  0  0  0  0  0  0  0  0  0
   -5.5791    0.9927   -0.3333 O   0  0  0  0  0  0  0  0  0  0  0  0
   -3.8155    2.6586   -0.7117 O   0  0  0  0  0  0  0  0  0  0  0  0
   -5.2013    2.8639    1.3023 O   0  0  0  0  0  0  0  0  0  0  0  0
   -6.0947    3.1839    1.5015 H   0  0  0  0  0  0  0  0  0  0  0  0
  1  4  1  0  0  0  0
  2  1  1  0  0  0  0
  3  2  1  0  0  0  0
  4 11  1  0  0  0  0
  4  5  2  0  0  0  0
  5 12  1  0  0  0  0
  6  5  1  0  0  0  0
  6  7  1  0  0  0  0
  8  7  1  0  0  0  0
  8 13  1  0  0  0  0
  8 15  1  0  0  0  0
  9  6  2  0  0  0  0
 10  1  2  0  0  0  0
 10  9  1  0  0  0  0
 14  8  1  0  0  0  0
 16  9  1  0  0  0  0
 17 10  1  0  0  0  0
 18 22  1  0  0  0  0
 19 18  2  0  0  0  0
 20 18  1  0  0  0  0
 21 18  2  0  0  0  0
 22 23  1  0  0  0  0
M  RAD  3   2   2   3   3  20   2
M  END
