Coordinates from ORCA-job 4-MeOPhN2+~HSO4-_B3LYPG-6-31G_dp-NX-Scan-d89-09-n800
 OpenBabel11261921003D

 23 22  0  0  0  0  0  0  0  0999 V2000
   -1.7507    0.5902   -0.4712 C   0  0  0  0  0  0  0  0  0  0  0  0
   -3.0708    0.4721   -0.8457 N   0  0  0  0  0  0  0  0  0  0  0  0
   -4.0910    0.2573   -1.2482 N   0  0  0  0  0  0  0  0  0  0  0  0
   -1.2147    1.8517   -0.1416 C   0  0  0  0  0  0  0  0  0  0  0  0
    0.1207    1.9067    0.1948 C   0  0  0  0  0  0  0  0  0  0  0  0
    0.9113    0.7375    0.2247 C   0  0  0  0  0  0  0  0  0  0  0  0
    2.1935    0.9174    0.5755 O   0  0  0  0  0  0  0  0  0  0  0  0
    3.0716   -0.2075    0.6476 C   0  0  0  0  0  0  0  0  0  0  0  0
    0.3487   -0.5143   -0.1043 C   0  0  0  0  0  0  0  0  0  0  0  0
   -0.9872   -0.5899   -0.4588 C   0  0  0  0  0  0  0  0  0  0  0  0
   -1.8683    2.7205   -0.1793 H   0  0  0  0  0  0  0  0  0  0  0  0
    0.5877    2.8497    0.4547 H   0  0  0  0  0  0  0  0  0  0  0  0
    4.0381    0.1944    0.9492 H   0  0  0  0  0  0  0  0  0  0  0  0
    3.1676   -0.6970   -0.3278 H   0  0  0  0  0  0  0  0  0  0  0  0
    2.7272   -0.9303    1.3953 H   0  0  0  0  0  0  0  0  0  0  0  0
    0.9427   -1.4190   -0.0853 H   0  0  0  0  0  0  0  0  0  0  0  0
   -1.4414   -1.5410   -0.7136 H   0  0  0  0  0  0  0  0  0  0  0  0
   -4.5658    2.8305    0.4503 S   0  0  0  0  0  0  0  0  0  0  0  0
   -3.8556    1.8050    1.2495 O   0  0  0  0  0  0  0  0  0  0  0  0
   -5.3380    3.8297    1.1775 O   0  0  0  0  0  0  0  0  0  0  0  0
   -3.7414    3.3418   -0.6826 O   0  0  0  0  0  0  0  0  0  0  0  0
   -5.7217    1.8624   -0.3272 O   0  0  0  0  0  0  0  0  0  0  0  0
   -6.1844    2.4474   -0.9486 H   0  0  0  0  0  0  0  0  0  0  0  0
  1 10  2  0  0  0  0
  1  4  1  0  0  0  0
  2  1  1  0  0  0  0
  3  2  1  0  0  0  0
  4  5  2  0  0  0  0
  5  6  1  0  0  0  0
  5 12  1  0  0  0  0
  6  7  1  0  0  0  0
  7  8  1  0  0  0  0
  8 13  1  0  0  0  0
  8 15  1  0  0  0  0
  9 16  1  0  0  0  0
  9  6  2  0  0  0  0
 10  9  1  0  0  0  0
 11  4  1  0  0  0  0
 14  8  1  0  0  0  0
 17 10  1  0  0  0  0
 18 20  2  0  0  0  0
 18 19  1  0  0  0  0
 21 18  2  0  0  0  0
 22 18  1  0  0  0  0
 23 22  1  0  0  0  0
M  RAD  3   2   2   3   3  19   2
M  END
