Coordinates from ORCA-job 4-MeOPhN2+~HSO4-_B3LYPG-6-31G_dp-NX-Scan-d89-09-n800
 OpenBabel11261921003D

 23 22  0  0  0  0  0  0  0  0999 V2000
   -1.9257   -0.9117   -0.2846 C   0  0  0  0  0  0  0  0  0  0  0  0
   -3.0176   -1.6767   -0.5251 N   0  0  0  0  0  0  0  0  0  0  0  0
   -3.9106   -2.3257   -0.7294 N   0  0  0  0  0  0  0  0  0  0  0  0
   -2.0958    0.4530    0.0727 C   0  0  0  0  0  0  0  0  0  0  0  0
   -0.9578    1.1951    0.2996 C   0  0  0  0  0  0  0  0  0  0  0  0
    0.3200    0.6058    0.1787 C   0  0  0  0  0  0  0  0  0  0  0  0
    1.3512    1.4128    0.4197 O   0  0  0  0  0  0  0  0  0  0  0  0
    2.6949    0.9293    0.3182 C   0  0  0  0  0  0  0  0  0  0  0  0
    0.4642   -0.7639   -0.1794 C   0  0  0  0  0  0  0  0  0  0  0  0
   -0.6542   -1.5284   -0.4132 C   0  0  0  0  0  0  0  0  0  0  0  0
   -3.0791    0.9458    0.1713 H   0  0  0  0  0  0  0  0  0  0  0  0
   -1.0907    2.2487    0.5581 H   0  0  0  0  0  0  0  0  0  0  0  0
    3.3274    1.7825    0.5590 H   0  0  0  0  0  0  0  0  0  0  0  0
    2.9126    0.5865   -0.6985 H   0  0  0  0  0  0  0  0  0  0  0  0
    2.8773    0.1226    1.0359 H   0  0  0  0  0  0  0  0  0  0  0  0
    1.4431   -1.2168   -0.2729 H   0  0  0  0  0  0  0  0  0  0  0  0
   -0.5735   -2.5736   -0.6904 H   0  0  0  0  0  0  0  0  0  0  0  0
   -3.8524    3.6590    0.5129 S   0  0  0  0  0  0  0  0  0  0  0  0
   -4.3412    2.2490    0.5104 O   0  0  0  0  0  0  0  0  0  0  0  0
   -4.6489    4.6141    1.2999 O   0  0  0  0  0  0  0  0  0  0  0  0
   -2.3820    3.7493    0.7084 O   0  0  0  0  0  0  0  0  0  0  0  0
   -4.1051    4.1342   -1.0754 O   0  0  0  0  0  0  0  0  0  0  0  0
   -4.4775    5.0245   -0.9910 H   0  0  0  0  0  0  0  0  0  0  0  0
  1  4  1  0  0  0  0
  2  1  1  0  0  0  0
  3  2  1  0  0  0  0
  4 11  1  0  0  0  0
  4  5  2  0  0  0  0
  5 12  1  0  0  0  0
  6  5  1  0  0  0  0
  6  7  1  0  0  0  0
  8  7  1  0  0  0  0
  8 13  1  0  0  0  0
  8 15  1  0  0  0  0
  9  6  2  0  0  0  0
 10  1  2  0  0  0  0
 10  9  1  0  0  0  0
 14  8  1  0  0  0  0
 16  9  1  0  0  0  0
 17 10  1  0  0  0  0
 18 21  2  0  0  0  0
 18 20  1  0  0  0  0
 19 18  2  0  0  0  0
 22 23  1  0  0  0  0
 22 18  1  0  0  0  0
M  RAD  3   2   2   3   3  20   2
M  END
