Coordinates from ORCA-job 4-MeOPhN2+~HSO4-_B3LYPG-6-31G_dp-NX-Scan-d89-09-n800
 OpenBabel11261921003D

 23 22  0  0  0  0  0  0  0  0999 V2000
   -1.9450   -1.0683   -0.3128 C   0  0  0  0  0  0  0  0  0  0  0  0
   -2.9725   -1.9108   -0.5668 N   0  0  0  0  0  0  0  0  0  0  0  0
   -3.8050   -2.6342   -0.7850 N   0  0  0  0  0  0  0  0  0  0  0  0
   -2.2009    0.2856    0.0470 C   0  0  0  0  0  0  0  0  0  0  0  0
   -1.1180    1.1004    0.2859 C   0  0  0  0  0  0  0  0  0  0  0  0
    0.1965    0.5913    0.1742 C   0  0  0  0  0  0  0  0  0  0  0  0
    1.1705    1.4602    0.4265 O   0  0  0  0  0  0  0  0  0  0  0  0
    2.5441    1.0672    0.3340 C   0  0  0  0  0  0  0  0  0  0  0  0
    0.4318   -0.7651   -0.1857 C   0  0  0  0  0  0  0  0  0  0  0  0
   -0.6329   -1.5984   -0.4306 C   0  0  0  0  0  0  0  0  0  0  0  0
   -3.1988    0.7270    0.1407 H   0  0  0  0  0  0  0  0  0  0  0  0
   -1.3023    2.1557    0.5383 H   0  0  0  0  0  0  0  0  0  0  0  0
    3.1160    1.9606    0.5799 H   0  0  0  0  0  0  0  0  0  0  0  0
    2.7905    0.7410   -0.6815 H   0  0  0  0  0  0  0  0  0  0  0  0
    2.7743    0.2735    1.0523 H   0  0  0  0  0  0  0  0  0  0  0  0
    1.4384   -1.1545   -0.2723 H   0  0  0  0  0  0  0  0  0  0  0  0
   -0.4830   -2.6356   -0.7091 H   0  0  0  0  0  0  0  0  0  0  0  0
   -3.6262    3.7831    0.5464 S   0  0  0  0  0  0  0  0  0  0  0  0
   -4.1351    2.3878    0.6474 O   0  0  0  0  0  0  0  0  0  0  0  0
   -4.3332    4.7964    1.3474 O   0  0  0  0  0  0  0  0  0  0  0  0
   -2.1404    3.8522    0.6223 O   0  0  0  0  0  0  0  0  0  0  0  0
   -3.9948    4.1906   -1.0382 O   0  0  0  0  0  0  0  0  0  0  0  0
   -4.2958    5.1093   -0.9755 H   0  0  0  0  0  0  0  0  0  0  0  0
  1  4  1  0  0  0  0
  2  1  1  0  0  0  0
  3  2  1  0  0  0  0
  4 11  1  0  0  0  0
  4  5  2  0  0  0  0
  5 12  1  0  0  0  0
  6  5  1  0  0  0  0
  6  7  1  0  0  0  0
  8  7  1  0  0  0  0
  8 13  1  0  0  0  0
  8 15  1  0  0  0  0
  9  6  2  0  0  0  0
 10  1  2  0  0  0  0
 10  9  1  0  0  0  0
 14  8  1  0  0  0  0
 16  9  1  0  0  0  0
 17 10  1  0  0  0  0
 18 21  2  0  0  0  0
 18 19  2  0  0  0  0
 18 20  1  0  0  0  0
 22 23  1  0  0  0  0
 22 18  1  0  0  0  0
M  RAD  3   2   2   3   3  20   2
M  END
