Coordinates from ORCA-job 4-MeOPhN2+~HSO4-_B3LYPG-6-31G_dp-NX-Scan-d89-09-n800
 OpenBabel11261921003D

 23 22  0  0  0  0  0  0  0  0999 V2000
   -1.9019   -0.2326   -0.0830 C   0  0  0  0  0  0  0  0  0  0  0  0
   -3.1590   -0.7071   -0.3440 N   0  0  0  0  0  0  0  0  0  0  0  0
   -4.0962   -1.2576   -0.6102 N   0  0  0  0  0  0  0  0  0  0  0  0
   -1.7185    0.9870    0.6021 C   0  0  0  0  0  0  0  0  0  0  0  0
   -0.4244    1.4041    0.8264 C   0  0  0  0  0  0  0  0  0  0  0  0
    0.6709    0.6328    0.3897 C   0  0  0  0  0  0  0  0  0  0  0  0
    1.8805    1.1338    0.6626 O   0  0  0  0  0  0  0  0  0  0  0  0
    3.0574    0.4375    0.2412 C   0  0  0  0  0  0  0  0  0  0  0  0
    0.4614   -0.5905   -0.2975 C   0  0  0  0  0  0  0  0  0  0  0  0
   -0.8231   -1.0272   -0.5393 C   0  0  0  0  0  0  0  0  0  0  0  0
   -2.5738    1.5906    0.8904 H   0  0  0  0  0  0  0  0  0  0  0  0
   -0.2451    2.3517    1.3207 H   0  0  0  0  0  0  0  0  0  0  0  0
    3.8930    1.0525    0.5726 H   0  0  0  0  0  0  0  0  0  0  0  0
    3.0858    0.3370   -0.8492 H   0  0  0  0  0  0  0  0  0  0  0  0
    3.1205   -0.5492    0.7116 H   0  0  0  0  0  0  0  0  0  0  0  0
    1.2958   -1.1873   -0.6413 H   0  0  0  0  0  0  0  0  0  0  0  0
   -1.0069   -1.9562   -1.0677 H   0  0  0  0  0  0  0  0  0  0  0  0
   -4.4330    3.1803    0.2116 S   0  0  0  0  0  0  0  0  0  0  0  0
   -4.6060    1.6952    0.2749 O   0  0  0  0  0  0  0  0  0  0  0  0
   -5.4547    4.0046    0.8820 O   0  0  0  0  0  0  0  0  0  0  0  0
   -3.0280    3.5717    0.4994 O   0  0  0  0  0  0  0  0  0  0  0  0
   -4.6606    3.4799   -1.4188 O   0  0  0  0  0  0  0  0  0  0  0  0
   -5.0555    4.3644   -1.4493 H   0  0  0  0  0  0  0  0  0  0  0  0
  1  4  2  0  0  0  0
  2  1  1  0  0  0  0
  3  2  1  0  0  0  0
  4  5  1  0  0  0  0
  4 11  1  0  0  0  0
  5 12  1  0  0  0  0
  6  7  1  0  0  0  0
  6  5  2  0  0  0  0
  8 13  1  0  0  0  0
  8  7  1  0  0  0  0
  8 15  1  0  0  0  0
  9  6  1  0  0  0  0
 10  9  2  0  0  0  0
 10  1  1  0  0  0  0
 14  8  1  0  0  0  0
 16  9  1  0  0  0  0
 17 10  1  0  0  0  0
 18 19  2  0  0  0  0
 18 21  2  0  0  0  0
 18 20  1  0  0  0  0
 22 18  1  0  0  0  0
 23 22  1  0  0  0  0
M  RAD  3   2   2   3   3  20   2
M  END
