Coordinates from ORCA-job 4-MeOPhN2+~HSO4-_B3LYPG-6-31G_dp-NX-Scan-d89-09-n800
 OpenBabel11261921003D

 23 22  0  0  0  0  0  0  0  0999 V2000
   -1.7633    0.3183   -0.3122 C   0  0  0  0  0  0  0  0  0  0  0  0
   -3.0394    0.0639   -0.7651 N   0  0  0  0  0  0  0  0  0  0  0  0
   -4.0217   -0.2237   -1.2306 N   0  0  0  0  0  0  0  0  0  0  0  0
   -1.5244    1.3168    0.6546 C   0  0  0  0  0  0  0  0  0  0  0  0
   -0.2192    1.5276    1.0491 C   0  0  0  0  0  0  0  0  0  0  0  0
    0.8372    0.7726    0.4986 C   0  0  0  0  0  0  0  0  0  0  0  0
    2.0628    1.0737    0.9558 O   0  0  0  0  0  0  0  0  0  0  0  0
    3.1982    0.3641    0.4562 C   0  0  0  0  0  0  0  0  0  0  0  0
    0.5751   -0.2244   -0.4659 C   0  0  0  0  0  0  0  0  0  0  0  0
   -0.7275   -0.4540   -0.8716 C   0  0  0  0  0  0  0  0  0  0  0  0
   -2.3739    1.8593    1.0626 H   0  0  0  0  0  0  0  0  0  0  0  0
    0.0197    2.2809    1.7917 H   0  0  0  0  0  0  0  0  0  0  0  0
    4.0589    0.7922    0.9680 H   0  0  0  0  0  0  0  0  0  0  0  0
    3.3088    0.5057   -0.6248 H   0  0  0  0  0  0  0  0  0  0  0  0
    3.1295   -0.7044    0.6873 H   0  0  0  0  0  0  0  0  0  0  0  0
    1.3752   -0.8131   -0.8943 H   0  0  0  0  0  0  0  0  0  0  0  0
   -0.9522   -1.2136   -1.6128 H   0  0  0  0  0  0  0  0  0  0  0  0
   -5.1592    2.3040    0.2053 S   0  0  0  0  0  0  0  0  0  0  0  0
   -6.0849    3.3662    0.6008 O   0  0  0  0  0  0  0  0  0  0  0  0
   -4.3379    1.6740    1.2672 O   0  0  0  0  0  0  0  0  0  0  0  0
   -5.7222    1.2947   -0.7424 O   0  0  0  0  0  0  0  0  0  0  0  0
   -3.9542    3.0727   -0.6910 O   0  0  0  0  0  0  0  0  0  0  0  0
   -4.4071    3.7615   -1.2016 H   0  0  0  0  0  0  0  0  0  0  0  0
  1  4  2  0  0  0  0
  2  1  1  0  0  0  0
  3  2  1  0  0  0  0
  4  5  1  0  0  0  0
  4 11  1  0  0  0  0
  5 12  1  0  0  0  0
  6  7  1  0  0  0  0
  6  5  2  0  0  0  0
  8 15  1  0  0  0  0
  8  7  1  0  0  0  0
  8 13  1  0  0  0  0
  9  6  1  0  0  0  0
 10  9  2  0  0  0  0
 10  1  1  0  0  0  0
 14  8  1  0  0  0  0
 16  9  1  0  0  0  0
 17 10  1  0  0  0  0
 18 19  2  0  0  0  0
 18 20  1  0  0  0  0
 21 18  2  0  0  0  0
 22 18  1  0  0  0  0
 23 22  1  0  0  0  0
M  RAD  3   2   2   3   3  20   2
M  END
