Coordinates from ORCA-job 4-MeOPhN2+~HSO4-_B3LYPG-6-31G_dp-NX-Scan-d89-09-n800
 OpenBabel11261921003D

 23 22  0  0  0  0  0  0  0  0999 V2000
   -1.8850   -0.6468   -0.2125 C   0  0  0  0  0  0  0  0  0  0  0  0
   -3.0828   -1.2502   -0.4310 N   0  0  0  0  0  0  0  0  0  0  0  0
   -4.0800   -1.7287   -0.6091 N   0  0  0  0  0  0  0  0  0  0  0  0
   -1.9054    0.7215    0.1497 C   0  0  0  0  0  0  0  0  0  0  0  0
   -0.6955    1.3449    0.3539 C   0  0  0  0  0  0  0  0  0  0  0  0
    0.5103    0.6265    0.2084 C   0  0  0  0  0  0  0  0  0  0  0  0
    1.6284    1.3202    0.4300 O   0  0  0  0  0  0  0  0  0  0  0  0
    2.9089    0.6933    0.3031 C   0  0  0  0  0  0  0  0  0  0  0  0
    0.5012   -0.7499   -0.1550 C   0  0  0  0  0  0  0  0  0  0  0  0
   -0.6949   -1.3968   -0.3703 C   0  0  0  0  0  0  0  0  0  0  0  0
   -2.8666    1.2536    0.2427 H   0  0  0  0  0  0  0  0  0  0  0  0
   -0.7020    2.3990    0.6129 H   0  0  0  0  0  0  0  0  0  0  0  0
    3.6356    1.4693    0.5396 H   0  0  0  0  0  0  0  0  0  0  0  0
    3.0726    0.3378   -0.7196 H   0  0  0  0  0  0  0  0  0  0  0  0
    3.0136   -0.1353    1.0114 H   0  0  0  0  0  0  0  0  0  0  0  0
    1.4262   -1.2994   -0.2698 H   0  0  0  0  0  0  0  0  0  0  0  0
   -0.7269   -2.4427   -0.6543 H   0  0  0  0  0  0  0  0  0  0  0  0
   -4.1594    3.4154    0.3659 S   0  0  0  0  0  0  0  0  0  0  0  0
   -4.5076    1.9794    0.1356 O   0  0  0  0  0  0  0  0  0  0  0  0
   -5.0351    4.1425    1.2985 O   0  0  0  0  0  0  0  0  0  0  0  0
   -2.7022    3.5991    0.5803 O   0  0  0  0  0  0  0  0  0  0  0  0
   -4.4797    4.1078   -1.1234 O   0  0  0  0  0  0  0  0  0  0  0  0
   -4.8954    4.9546   -0.9024 H   0  0  0  0  0  0  0  0  0  0  0  0
  1  4  1  0  0  0  0
  2  1  1  0  0  0  0
  3  2  1  0  0  0  0
  4 11  1  0  0  0  0
  4  5  2  0  0  0  0
  5 12  1  0  0  0  0
  6  5  1  0  0  0  0
  6  7  1  0  0  0  0
  8  7  1  0  0  0  0
  8 13  1  0  0  0  0
  8 15  1  0  0  0  0
  9  6  2  0  0  0  0
 10  1  2  0  0  0  0
 10  9  1  0  0  0  0
 14  8  1  0  0  0  0
 16  9  1  0  0  0  0
 17 10  1  0  0  0  0
 18 21  2  0  0  0  0
 18 20  1  0  0  0  0
 19 18  2  0  0  0  0
 22 23  1  0  0  0  0
 22 18  1  0  0  0  0
M  RAD  3   2   2   3   3  20   2
M  END
