Coordinates from ORCA-job 4-MeOPhN2+~HSO4-_B3LYPG-6-31G_dp-NX-Scan-d89-09-n800
 OpenBabel11261921003D

 23 22  0  0  0  0  0  0  0  0999 V2000
   -1.9570   -1.2279   -0.3308 C   0  0  0  0  0  0  0  0  0  0  0  0
   -2.9023   -2.1601   -0.5916 N   0  0  0  0  0  0  0  0  0  0  0  0
   -3.6373   -2.9816   -0.8213 N   0  0  0  0  0  0  0  0  0  0  0  0
   -2.3010    0.1147    0.0154 C   0  0  0  0  0  0  0  0  0  0  0  0
   -1.2766    0.9998    0.2543 C   0  0  0  0  0  0  0  0  0  0  0  0
    0.0711    0.5733    0.1587 C   0  0  0  0  0  0  0  0  0  0  0  0
    0.9802    1.5058    0.4115 O   0  0  0  0  0  0  0  0  0  0  0  0
    2.3788    1.2076    0.3387 C   0  0  0  0  0  0  0  0  0  0  0  0
    0.3983   -0.7670   -0.1856 C   0  0  0  0  0  0  0  0  0  0  0  0
   -0.6090   -1.6675   -0.4311 C   0  0  0  0  0  0  0  0  0  0  0  0
   -3.3238    0.4803    0.0949 H   0  0  0  0  0  0  0  0  0  0  0  0
   -1.4998    2.0538    0.4933 H   0  0  0  0  0  0  0  0  0  0  0  0
    2.8836    2.1409    0.5828 H   0  0  0  0  0  0  0  0  0  0  0  0
    2.6588    0.8903   -0.6708 H   0  0  0  0  0  0  0  0  0  0  0  0
    2.6534    0.4379    1.0674 H   0  0  0  0  0  0  0  0  0  0  0  0
    1.4285   -1.0918   -0.2602 H   0  0  0  0  0  0  0  0  0  0  0  0
   -0.3903   -2.6953   -0.6987 H   0  0  0  0  0  0  0  0  0  0  0  0
   -3.4172    3.9061    0.5756 S   0  0  0  0  0  0  0  0  0  0  0  0
   -4.0134    2.5521    0.7196 O   0  0  0  0  0  0  0  0  0  0  0  0
   -3.9941    4.9868    1.3976 O   0  0  0  0  0  0  0  0  0  0  0  0
   -1.9258    3.8578    0.5715 O   0  0  0  0  0  0  0  0  0  0  0  0
   -3.8359    4.3340   -0.9921 O   0  0  0  0  0  0  0  0  0  0  0  0
   -4.0908    5.2653   -0.9142 H   0  0  0  0  0  0  0  0  0  0  0  0
  1  4  1  0  0  0  0
  2  1  1  0  0  0  0
  3  2  1  0  0  0  0
  4 11  1  0  0  0  0
  4  5  2  0  0  0  0
  5 12  1  0  0  0  0
  6  5  1  0  0  0  0
  6  7  1  0  0  0  0
  8  7  1  0  0  0  0
  8 13  1  0  0  0  0
  8 15  1  0  0  0  0
  9  6  2  0  0  0  0
 10  1  2  0  0  0  0
 10  9  1  0  0  0  0
 14  8  1  0  0  0  0
 16  9  1  0  0  0  0
 17 10  1  0  0  0  0
 18 19  2  0  0  0  0
 18 20  1  0  0  0  0
 21 18  2  0  0  0  0
 22 23  1  0  0  0  0
 22 18  1  0  0  0  0
M  RAD  3   2   2   3   3  20   2
M  END
