Coordinates from ORCA-job 4-MeOPhN2+~HSO4-_B3LYPG-6-31G_dp-NX-Scan-d89-09-n800
 OpenBabel11261921003D

 23 22  0  0  0  0  0  0  0  0999 V2000
   -1.7198    0.2227   -0.7716 C   0  0  0  0  0  0  0  0  0  0  0  0
   -2.9754   -0.1210   -1.2245 N   0  0  0  0  0  0  0  0  0  0  0  0
   -4.0673   -0.0140   -1.4923 N   0  0  0  0  0  0  0  0  0  0  0  0
   -1.4739    1.5619   -0.3985 C   0  0  0  0  0  0  0  0  0  0  0  0
   -0.2134    1.8784    0.0610 C   0  0  0  0  0  0  0  0  0  0  0  0
    0.7908    0.8907    0.1569 C   0  0  0  0  0  0  0  0  0  0  0  0
    1.9756    1.3189    0.6229 O   0  0  0  0  0  0  0  0  0  0  0  0
    3.0505    0.3899    0.7727 C   0  0  0  0  0  0  0  0  0  0  0  0
    0.5223   -0.4402   -0.2224 C   0  0  0  0  0  0  0  0  0  0  0  0
   -0.7390   -0.7742   -0.6890 C   0  0  0  0  0  0  0  0  0  0  0  0
   -2.2647    2.3000   -0.4753 H   0  0  0  0  0  0  0  0  0  0  0  0
    0.0262    2.8898    0.3692 H   0  0  0  0  0  0  0  0  0  0  0  0
    3.8844    0.9681    1.1695 H   0  0  0  0  0  0  0  0  0  0  0  0
    3.3352   -0.0455   -0.1916 H   0  0  0  0  0  0  0  0  0  0  0  0
    2.7890   -0.4064    1.4781 H   0  0  0  0  0  0  0  0  0  0  0  0
    1.2830   -1.2068   -0.1511 H   0  0  0  0  0  0  0  0  0  0  0  0
   -0.9724   -1.7916   -0.9827 H   0  0  0  0  0  0  0  0  0  0  0  0
   -4.9695    2.1132    0.3228 S   0  0  0  0  0  0  0  0  0  0  0  0
   -6.3418    2.5669    0.5615 O   0  0  0  0  0  0  0  0  0  0  0  0
   -4.4984    0.8911    0.9956 O   0  0  0  0  0  0  0  0  0  0  0  0
   -4.5588    2.1105   -1.1380 O   0  0  0  0  0  0  0  0  0  0  0  0
   -4.0005    3.3211    0.9647 O   0  0  0  0  0  0  0  0  0  0  0  0
   -4.5835    4.0915    1.0468 H   0  0  0  0  0  0  0  0  0  0  0  0
  1 10  2  0  0  0  0
  1  4  1  0  0  0  0
  2  1  1  0  0  0  0
  3  2  1  0  0  0  0
  4  5  2  0  0  0  0
  5  6  1  0  0  0  0
  5 12  1  0  0  0  0
  6  7  1  0  0  0  0
  7  8  1  0  0  0  0
  8 13  1  0  0  0  0
  8 15  1  0  0  0  0
  9 16  1  0  0  0  0
  9  6  2  0  0  0  0
 10  9  1  0  0  0  0
 11  4  1  0  0  0  0
 14  8  1  0  0  0  0
 17 10  1  0  0  0  0
 18 19  2  0  0  0  0
 18 22  1  0  0  0  0
 18 20  1  0  0  0  0
 21 18  2  0  0  0  0
 22 23  1  0  0  0  0
M  RAD  3   2   2   3   3  20   2
M  END
