Coordinates from ORCA-job 4-MeOPhN2+~HSO4-_B3LYPG-6-31G_dp-NX-Scan-d89-09-n800
 OpenBabel11261921003D

 23 22  0  0  0  0  0  0  0  0999 V2000
   -1.9505   -1.3327   -0.3414 C   0  0  0  0  0  0  0  0  0  0  0  0
   -2.8488   -2.3113   -0.5989 N   0  0  0  0  0  0  0  0  0  0  0  0
   -3.5353   -3.1753   -0.8271 N   0  0  0  0  0  0  0  0  0  0  0  0
   -2.3497    0.0028   -0.0201 C   0  0  0  0  0  0  0  0  0  0  0  0
   -1.3660    0.9333    0.2118 C   0  0  0  0  0  0  0  0  0  0  0  0
    0.0002    0.5586    0.1356 C   0  0  0  0  0  0  0  0  0  0  0  0
    0.8661    1.5306    0.3803 O   0  0  0  0  0  0  0  0  0  0  0  0
    2.2770    1.2901    0.3336 C   0  0  0  0  0  0  0  0  0  0  0  0
    0.3841   -0.7730   -0.1823 C   0  0  0  0  0  0  0  0  0  0  0  0
   -0.5841   -1.7166   -0.4217 C   0  0  0  0  0  0  0  0  0  0  0  0
   -3.3891    0.3148    0.0442 H   0  0  0  0  0  0  0  0  0  0  0  0
   -1.6171    1.9848    0.4334 H   0  0  0  0  0  0  0  0  0  0  0  0
    2.7377    2.2477    0.5699 H   0  0  0  0  0  0  0  0  0  0  0  0
    2.5856    0.9685   -0.6663 H   0  0  0  0  0  0  0  0  0  0  0  0
    2.5711    0.5443    1.0793 H   0  0  0  0  0  0  0  0  0  0  0  0
    1.4272   -1.0572   -0.2421 H   0  0  0  0  0  0  0  0  0  0  0  0
   -0.3216   -2.7390   -0.6704 H   0  0  0  0  0  0  0  0  0  0  0  0
   -3.3140    3.9897    0.6087 S   0  0  0  0  0  0  0  0  0  0  0  0
   -4.0033    2.6839    0.7682 O   0  0  0  0  0  0  0  0  0  0  0  0
   -3.7996    5.1196    1.4263 O   0  0  0  0  0  0  0  0  0  0  0  0
   -1.8298    3.8280    0.5896 O   0  0  0  0  0  0  0  0  0  0  0  0
   -3.7110    4.4447   -0.9584 O   0  0  0  0  0  0  0  0  0  0  0  0
   -3.9505    5.3788   -0.8674 H   0  0  0  0  0  0  0  0  0  0  0  0
  1  4  1  0  0  0  0
  2  1  1  0  0  0  0
  3  2  1  0  0  0  0
  4 11  1  0  0  0  0
  4  5  2  0  0  0  0
  5 12  1  0  0  0  0
  6  5  1  0  0  0  0
  6  7  1  0  0  0  0
  8  7  1  0  0  0  0
  8 13  1  0  0  0  0
  8 15  1  0  0  0  0
  9  6  2  0  0  0  0
 10  1  2  0  0  0  0
 10  9  1  0  0  0  0
 14  8  1  0  0  0  0
 16  9  1  0  0  0  0
 17 10  1  0  0  0  0
 18 19  2  0  0  0  0
 18 20  1  0  0  0  0
 21 18  2  0  0  0  0
 22 23  1  0  0  0  0
 22 18  1  0  0  0  0
M  RAD  3   2   2   3   3  20   2
M  END
