Coordinates from ORCA-job 4-MeOPhN2+~HSO4-_B3LYPG-6-31G_dp-NX-Scan-d89-09-n800
 OpenBabel11261921003D

 23 22  0  0  0  0  0  0  0  0999 V2000
   -1.7594    0.4009   -0.5752 C   0  0  0  0  0  0  0  0  0  0  0  0
   -3.0557    0.1856   -0.9890 N   0  0  0  0  0  0  0  0  0  0  0  0
   -4.0064   -0.1602   -1.4636 N   0  0  0  0  0  0  0  0  0  0  0  0
   -1.2978    1.7101   -0.3267 C   0  0  0  0  0  0  0  0  0  0  0  0
    0.0236    1.8522    0.0379 C   0  0  0  0  0  0  0  0  0  0  0  0
    0.8670    0.7286    0.1784 C   0  0  0  0  0  0  0  0  0  0  0  0
    2.1266    0.9961    0.5500 O   0  0  0  0  0  0  0  0  0  0  0  0
    3.0534   -0.0759    0.7380 C   0  0  0  0  0  0  0  0  0  0  0  0
    0.3741   -0.5717   -0.0677 C   0  0  0  0  0  0  0  0  0  0  0  0
   -0.9443   -0.7391   -0.4512 C   0  0  0  0  0  0  0  0  0  0  0  0
   -1.9852    2.5567   -0.4177 H   0  0  0  0  0  0  0  0  0  0  0  0
    0.4358    2.8337    0.2427 H   0  0  0  0  0  0  0  0  0  0  0  0
    3.9891    0.3953    1.0358 H   0  0  0  0  0  0  0  0  0  0  0  0
    3.2051   -0.6346   -0.1923 H   0  0  0  0  0  0  0  0  0  0  0  0
    2.7169   -0.7538    1.5299 H   0  0  0  0  0  0  0  0  0  0  0  0
    1.0078   -1.4426    0.0399 H   0  0  0  0  0  0  0  0  0  0  0  0
   -1.3465   -1.7278   -0.6434 H   0  0  0  0  0  0  0  0  0  0  0  0
   -4.4955    2.8669    0.5329 S   0  0  0  0  0  0  0  0  0  0  0  0
   -3.9052    1.5576    0.9349 O   0  0  0  0  0  0  0  0  0  0  0  0
   -5.1322    3.6488    1.5983 O   0  0  0  0  0  0  0  0  0  0  0  0
   -3.5923    3.6365   -0.3671 O   0  0  0  0  0  0  0  0  0  0  0  0
   -5.7345    2.3341   -0.4649 O   0  0  0  0  0  0  0  0  0  0  0  0
   -6.2661    3.1178   -0.6750 H   0  0  0  0  0  0  0  0  0  0  0  0
  1 10  2  0  0  0  0
  1  4  1  0  0  0  0
  2  1  1  0  0  0  0
  3  2  1  0  0  0  0
  4  5  2  0  0  0  0
  5  6  1  0  0  0  0
  5 12  1  0  0  0  0
  6  7  1  0  0  0  0
  7  8  1  0  0  0  0
  8 13  1  0  0  0  0
  8 15  1  0  0  0  0
  9 16  1  0  0  0  0
  9  6  2  0  0  0  0
 10  9  1  0  0  0  0
 11  4  1  0  0  0  0
 14  8  1  0  0  0  0
 17 10  1  0  0  0  0
 18 19  2  0  0  0  0
 18 20  1  0  0  0  0
 21 18  2  0  0  0  0
 22 18  1  0  0  0  0
 23 22  1  0  0  0  0
M  RAD  3   2   2   3   3  20   2
M  END
