Coordinates from ORCA-job 4-MeOPhN2+~HSO4-_B3LYPG-6-31G_dp-NX-Scan-d89-09-n800
 OpenBabel11261921003D

 23 22  0  0  0  0  0  0  0  0999 V2000
   -1.9006   -0.7737   -0.2583 C   0  0  0  0  0  0  0  0  0  0  0  0
   -3.0472   -1.4631   -0.4836 N   0  0  0  0  0  0  0  0  0  0  0  0
   -3.9927   -2.0359   -0.6728 N   0  0  0  0  0  0  0  0  0  0  0  0
   -1.9930    0.6046    0.0642 C   0  0  0  0  0  0  0  0  0  0  0  0
   -0.8135    1.2833    0.2772 C   0  0  0  0  0  0  0  0  0  0  0  0
    0.4270    0.6173    0.1769 C   0  0  0  0  0  0  0  0  0  0  0  0
    1.5052    1.3683    0.4012 O   0  0  0  0  0  0  0  0  0  0  0  0
    2.8169    0.8008    0.3180 C   0  0  0  0  0  0  0  0  0  0  0  0
    0.4901   -0.7674   -0.1460 C   0  0  0  0  0  0  0  0  0  0  0  0
   -0.6711   -1.4710   -0.3665 C   0  0  0  0  0  0  0  0  0  0  0  0
   -2.9681    1.1250    0.1379 H   0  0  0  0  0  0  0  0  0  0  0  0
   -0.8809    2.3428    0.5128 H   0  0  0  0  0  0  0  0  0  0  0  0
    3.5002    1.6185    0.5425 H   0  0  0  0  0  0  0  0  0  0  0  0
    3.0175    0.4219   -0.6896 H   0  0  0  0  0  0  0  0  0  0  0  0
    2.9469    0.0011    1.0547 H   0  0  0  0  0  0  0  0  0  0  0  0
    1.4408   -1.2788   -0.2230 H   0  0  0  0  0  0  0  0  0  0  0  0
   -0.6516   -2.5256   -0.6181 H   0  0  0  0  0  0  0  0  0  0  0  0
   -4.0238    3.5314    0.4440 S   0  0  0  0  0  0  0  0  0  0  0  0
   -4.4624    2.1111    0.2873 O   0  0  0  0  0  0  0  0  0  0  0  0
   -4.8403    4.3559    1.3492 O   0  0  0  0  0  0  0  0  0  0  0  0
   -2.5554    3.6415    0.6278 O   0  0  0  0  0  0  0  0  0  0  0  0
   -4.3218    4.1784   -1.0720 O   0  0  0  0  0  0  0  0  0  0  0  0
   -4.7437    5.0288   -0.8789 H   0  0  0  0  0  0  0  0  0  0  0  0
  1  4  1  0  0  0  0
  2  1  1  0  0  0  0
  3  2  1  0  0  0  0
  4 11  1  0  0  0  0
  4  5  2  0  0  0  0
  5 12  1  0  0  0  0
  6  5  1  0  0  0  0
  6  7  1  0  0  0  0
  8  7  1  0  0  0  0
  8 13  1  0  0  0  0
  8 15  1  0  0  0  0
  9  6  2  0  0  0  0
 10  1  2  0  0  0  0
 10  9  1  0  0  0  0
 14  8  1  0  0  0  0
 16  9  1  0  0  0  0
 17 10  1  0  0  0  0
 18 21  2  0  0  0  0
 18 20  1  0  0  0  0
 19 18  2  0  0  0  0
 22 23  1  0  0  0  0
 22 18  1  0  0  0  0
M  RAD  3   2   2   3   3  20   2
M  END
