Coordinates from ORCA-job 4-MeOPhN2+~HSO4-_B3LYPG-6-31G_dp-NX-Scan-d89-09-n800
 OpenBabel11261921003D

 23 22  0  0  0  0  0  0  0  0999 V2000
   -1.8864   -0.6886   -0.2362 C   0  0  0  0  0  0  0  0  0  0  0  0
   -3.0684   -1.3217   -0.4520 N   0  0  0  0  0  0  0  0  0  0  0  0
   -4.0509   -1.8310   -0.6295 N   0  0  0  0  0  0  0  0  0  0  0  0
   -1.9296    0.6903    0.0863 C   0  0  0  0  0  0  0  0  0  0  0  0
   -0.7290    1.3319    0.2924 C   0  0  0  0  0  0  0  0  0  0  0  0
    0.4873    0.6243    0.1857 C   0  0  0  0  0  0  0  0  0  0  0  0
    1.5929    1.3377    0.4050 O   0  0  0  0  0  0  0  0  0  0  0  0
    2.8829    0.7234    0.3178 C   0  0  0  0  0  0  0  0  0  0  0  0
    0.5008   -0.7617   -0.1384 C   0  0  0  0  0  0  0  0  0  0  0  0
   -0.6843   -1.4280   -0.3530 C   0  0  0  0  0  0  0  0  0  0  0  0
   -2.8961    1.2216    0.1579 H   0  0  0  0  0  0  0  0  0  0  0  0
   -0.7540    2.3918    0.5272 H   0  0  0  0  0  0  0  0  0  0  0  0
    3.5960    1.5150    0.5434 H   0  0  0  0  0  0  0  0  0  0  0  0
    3.0682    0.3403   -0.6911 H   0  0  0  0  0  0  0  0  0  0  0  0
    2.9855   -0.0827    1.0520 H   0  0  0  0  0  0  0  0  0  0  0  0
    1.4338   -1.3035   -0.2221 H   0  0  0  0  0  0  0  0  0  0  0  0
   -0.7002   -2.4822   -0.6062 H   0  0  0  0  0  0  0  0  0  0  0  0
   -4.1175    3.4504    0.3901 S   0  0  0  0  0  0  0  0  0  0  0  0
   -4.4965    2.0225    0.1577 O   0  0  0  0  0  0  0  0  0  0  0  0
   -4.9518    4.1828    1.3563 O   0  0  0  0  0  0  0  0  0  0  0  0
   -2.6519    3.6096    0.5599 O   0  0  0  0  0  0  0  0  0  0  0  0
   -4.4724    4.1642   -1.0811 O   0  0  0  0  0  0  0  0  0  0  0  0
   -4.8801    5.0086   -0.8374 H   0  0  0  0  0  0  0  0  0  0  0  0
  1  4  1  0  0  0  0
  2  1  1  0  0  0  0
  3  2  1  0  0  0  0
  4 11  1  0  0  0  0
  4  5  2  0  0  0  0
  5 12  1  0  0  0  0
  6  5  1  0  0  0  0
  6  7  1  0  0  0  0
  8  7  1  0  0  0  0
  8 13  1  0  0  0  0
  8 15  1  0  0  0  0
  9  6  2  0  0  0  0
 10  1  2  0  0  0  0
 10  9  1  0  0  0  0
 14  8  1  0  0  0  0
 16  9  1  0  0  0  0
 17 10  1  0  0  0  0
 18 21  2  0  0  0  0
 18 20  1  0  0  0  0
 19 18  2  0  0  0  0
 22 23  1  0  0  0  0
 22 18  1  0  0  0  0
M  RAD  3   2   2   3   3  20   2
M  END
