Coordinates from ORCA-job 4-MeOPhN2+~HSO4-_B3LYPG-6-31G_dp-NX-Scan-d89-09-n800
 OpenBabel11261921003D

 23 22  0  0  0  0  0  0  0  0999 V2000
   -1.7626    0.4243   -0.5615 C   0  0  0  0  0  0  0  0  0  0  0  0
   -3.0633    0.2227   -0.9674 N   0  0  0  0  0  0  0  0  0  0  0  0
   -4.0258   -0.1018   -1.4334 N   0  0  0  0  0  0  0  0  0  0  0  0
   -1.2903    1.7295   -0.3101 C   0  0  0  0  0  0  0  0  0  0  0  0
    0.0338    1.8607    0.0483 C   0  0  0  0  0  0  0  0  0  0  0  0
    0.8697    0.7303    0.1797 C   0  0  0  0  0  0  0  0  0  0  0  0
    2.1333    0.9872    0.5454 O   0  0  0  0  0  0  0  0  0  0  0  0
    3.0533   -0.0922    0.7233 C   0  0  0  0  0  0  0  0  0  0  0  0
    0.3663   -0.5653   -0.0691 C   0  0  0  0  0  0  0  0  0  0  0  0
   -0.9554   -0.7218   -0.4464 C   0  0  0  0  0  0  0  0  0  0  0  0
   -1.9734    2.5796   -0.3972 H   0  0  0  0  0  0  0  0  0  0  0  0
    0.4546    2.8383    0.2545 H   0  0  0  0  0  0  0  0  0  0  0  0
    3.9942    0.3709    1.0177 H   0  0  0  0  0  0  0  0  0  0  0  0
    3.1955   -0.6479   -0.2102 H   0  0  0  0  0  0  0  0  0  0  0  0
    2.7166   -0.7712    1.5142 H   0  0  0  0  0  0  0  0  0  0  0  0
    0.9943   -1.4410    0.0312 H   0  0  0  0  0  0  0  0  0  0  0  0
   -1.3658   -1.7067   -0.6403 H   0  0  0  0  0  0  0  0  0  0  0  0
   -4.5013    2.8644    0.5409 S   0  0  0  0  0  0  0  0  0  0  0  0
   -3.8786    1.5872    0.9916 O   0  0  0  0  0  0  0  0  0  0  0  0
   -5.1939    3.6521    1.5662 O   0  0  0  0  0  0  0  0  0  0  0  0
   -3.6050    3.6405   -0.3605 O   0  0  0  0  0  0  0  0  0  0  0  0
   -5.6933    2.2568   -0.4764 O   0  0  0  0  0  0  0  0  0  0  0  0
   -6.2246    3.0188   -0.7558 H   0  0  0  0  0  0  0  0  0  0  0  0
  1 10  2  0  0  0  0
  1  4  1  0  0  0  0
  2  1  1  0  0  0  0
  3  2  1  0  0  0  0
  4  5  2  0  0  0  0
  5  6  1  0  0  0  0
  5 12  1  0  0  0  0
  6  7  1  0  0  0  0
  7  8  1  0  0  0  0
  8 13  1  0  0  0  0
  8 15  1  0  0  0  0
  9 16  1  0  0  0  0
  9  6  2  0  0  0  0
 10  9  1  0  0  0  0
 11  4  1  0  0  0  0
 14  8  1  0  0  0  0
 17 10  1  0  0  0  0
 18 19  2  0  0  0  0
 18 20  1  0  0  0  0
 21 18  2  0  0  0  0
 22 18  1  0  0  0  0
 23 22  1  0  0  0  0
M  RAD  3   2   2   3   3  20   2
M  END
