Coordinates from ORCA-job 4-MeOPhN2+~HSO4-_B3LYPG-6-31G_dp-NX-Scan-d89-09-n800
 OpenBabel11261921003D

 23 22  0  0  0  0  0  0  0  0999 V2000
   -1.9010   -0.3386   -0.1097 C   0  0  0  0  0  0  0  0  0  0  0  0
   -3.1468   -0.8277   -0.3774 N   0  0  0  0  0  0  0  0  0  0  0  0
   -4.1193   -1.3206   -0.6291 N   0  0  0  0  0  0  0  0  0  0  0  0
   -1.7685    0.9089    0.5398 C   0  0  0  0  0  0  0  0  0  0  0  0
   -0.4941    1.3792    0.7645 C   0  0  0  0  0  0  0  0  0  0  0  0
    0.6306    0.6278    0.3679 C   0  0  0  0  0  0  0  0  0  0  0  0
    1.8194    1.1764    0.6366 O   0  0  0  0  0  0  0  0  0  0  0  0
    3.0250    0.5067    0.2543 C   0  0  0  0  0  0  0  0  0  0  0  0
    0.4712   -0.6262   -0.2793 C   0  0  0  0  0  0  0  0  0  0  0  0
   -0.7931   -1.1145   -0.5263 C   0  0  0  0  0  0  0  0  0  0  0  0
   -2.6594    1.4769    0.7991 H   0  0  0  0  0  0  0  0  0  0  0  0
   -0.3588    2.3514    1.2237 H   0  0  0  0  0  0  0  0  0  0  0  0
    3.8345    1.1617    0.5740 H   0  0  0  0  0  0  0  0  0  0  0  0
    3.0714    0.3694   -0.8313 H   0  0  0  0  0  0  0  0  0  0  0  0
    3.1154   -0.4601    0.7603 H   0  0  0  0  0  0  0  0  0  0  0  0
    1.3310   -1.2050   -0.5898 H   0  0  0  0  0  0  0  0  0  0  0  0
   -0.9386   -2.0649   -1.0278 H   0  0  0  0  0  0  0  0  0  0  0  0
   -4.3532    3.2472    0.2453 S   0  0  0  0  0  0  0  0  0  0  0  0
   -4.5780    1.7698    0.3181 O   0  0  0  0  0  0  0  0  0  0  0  0
   -5.3188    4.1018    0.9589 O   0  0  0  0  0  0  0  0  0  0  0  0
   -2.9246    3.5892    0.4704 O   0  0  0  0  0  0  0  0  0  0  0  0
   -4.6420    3.5579   -1.3743 O   0  0  0  0  0  0  0  0  0  0  0  0
   -5.0241    4.4484   -1.3832 H   0  0  0  0  0  0  0  0  0  0  0  0
  1  4  2  0  0  0  0
  2  1  1  0  0  0  0
  3  2  1  0  0  0  0
  4  5  1  0  0  0  0
  4 11  1  0  0  0  0
  5 12  1  0  0  0  0
  6  7  1  0  0  0  0
  6  5  2  0  0  0  0
  8 13  1  0  0  0  0
  8  7  1  0  0  0  0
  8 15  1  0  0  0  0
  9  6  1  0  0  0  0
 10  9  2  0  0  0  0
 10  1  1  0  0  0  0
 14  8  1  0  0  0  0
 16  9  1  0  0  0  0
 17 10  1  0  0  0  0
 18 19  2  0  0  0  0
 18 21  2  0  0  0  0
 18 20  1  0  0  0  0
 22 18  1  0  0  0  0
 23 22  1  0  0  0  0
M  RAD  3   2   2   3   3  20   2
M  END
