Coordinates from ORCA-job 4-MeOPhN2+~HSO4-_B3LYPG-6-31G_dp-NX-Scan-d89-09-n800
 OpenBabel11261921003D

 23 22  0  0  0  0  0  0  0  0999 V2000
   -1.8972   -0.7540   -0.2535 C   0  0  0  0  0  0  0  0  0  0  0  0
   -3.0522   -1.4308   -0.4764 N   0  0  0  0  0  0  0  0  0  0  0  0
   -4.0057   -1.9906   -0.6632 N   0  0  0  0  0  0  0  0  0  0  0  0
   -1.9785    0.6247    0.0681 C   0  0  0  0  0  0  0  0  0  0  0  0
   -0.7941    1.2950    0.2795 C   0  0  0  0  0  0  0  0  0  0  0  0
    0.4410    0.6191    0.1787 C   0  0  0  0  0  0  0  0  0  0  0  0
    1.5256    1.3617    0.4017 O   0  0  0  0  0  0  0  0  0  0  0  0
    2.8324    0.7832    0.3185 C   0  0  0  0  0  0  0  0  0  0  0  0
    0.4928   -0.7663   -0.1436 C   0  0  0  0  0  0  0  0  0  0  0  0
   -0.6740   -1.4614   -0.3628 C   0  0  0  0  0  0  0  0  0  0  0  0
   -2.9519    1.1472    0.1413 H   0  0  0  0  0  0  0  0  0  0  0  0
   -0.8517    2.3549    0.5137 H   0  0  0  0  0  0  0  0  0  0  0  0
    3.5227    1.5950    0.5431 H   0  0  0  0  0  0  0  0  0  0  0  0
    3.0299    0.4028   -0.6891 H   0  0  0  0  0  0  0  0  0  0  0  0
    2.9557   -0.0177    1.0551 H   0  0  0  0  0  0  0  0  0  0  0  0
    1.4396   -1.2849   -0.2215 H   0  0  0  0  0  0  0  0  0  0  0  0
   -0.6628   -2.5161   -0.6143 H   0  0  0  0  0  0  0  0  0  0  0  0
   -4.0457    3.5122    0.4312 S   0  0  0  0  0  0  0  0  0  0  0  0
   -4.4744    2.0908    0.2571 O   0  0  0  0  0  0  0  0  0  0  0  0
   -4.8624    4.3169    1.3536 O   0  0  0  0  0  0  0  0  0  0  0  0
   -2.5769    3.6295    0.6078 O   0  0  0  0  0  0  0  0  0  0  0  0
   -4.3584    4.1773   -1.0734 O   0  0  0  0  0  0  0  0  0  0  0  0
   -4.7756    5.0269   -0.8667 H   0  0  0  0  0  0  0  0  0  0  0  0
  1  4  1  0  0  0  0
  2  1  1  0  0  0  0
  3  2  1  0  0  0  0
  4 11  1  0  0  0  0
  4  5  2  0  0  0  0
  5 12  1  0  0  0  0
  6  5  1  0  0  0  0
  6  7  1  0  0  0  0
  8  7  1  0  0  0  0
  8 13  1  0  0  0  0
  8 15  1  0  0  0  0
  9  6  2  0  0  0  0
 10  1  2  0  0  0  0
 10  9  1  0  0  0  0
 14  8  1  0  0  0  0
 16  9  1  0  0  0  0
 17 10  1  0  0  0  0
 18 21  2  0  0  0  0
 18 20  1  0  0  0  0
 19 18  2  0  0  0  0
 22 23  1  0  0  0  0
 22 18  1  0  0  0  0
M  RAD  3   2   2   3   3  20   2
M  END
