Coordinates from ORCA-job 4-MeOPhN2+~HSO4-_B3LYPG-6-31G_dp-NX-Scan-d89-09-n800
 OpenBabel11261921003D

 23 23  0  0  0  0  0  0  0  0999 V2000
   -1.4902    0.6946   -0.5934 C   0  0  0  0  0  0  0  0  0  0  0  0
   -2.7113    0.6569   -1.2695 N   0  0  0  0  0  0  0  0  0  0  0  0
   -3.7942    1.1300   -1.1929 N   0  0  0  0  0  0  0  0  0  0  0  0
   -1.2211    1.4578    0.5670 C   0  0  0  0  0  0  0  0  0  0  0  0
    0.0363    1.3906    1.1348 C   0  0  0  0  0  0  0  0  0  0  0  0
    1.0435    0.5794    0.5737 C   0  0  0  0  0  0  0  0  0  0  0  0
    2.2288    0.5987    1.2172 O   0  0  0  0  0  0  0  0  0  0  0  0
    3.3013   -0.1977    0.7190 C   0  0  0  0  0  0  0  0  0  0  0  0
    0.7754   -0.1769   -0.5801 C   0  0  0  0  0  0  0  0  0  0  0  0
   -0.4873   -0.1132   -1.1525 C   0  0  0  0  0  0  0  0  0  0  0  0
   -1.9927    2.0794    0.9977 H   0  0  0  0  0  0  0  0  0  0  0  0
    0.2739    1.9611    2.0259 H   0  0  0  0  0  0  0  0  0  0  0  0
    4.1381   -0.0237    1.3954 H   0  0  0  0  0  0  0  0  0  0  0  0
    3.5849    0.1053   -0.2956 H   0  0  0  0  0  0  0  0  0  0  0  0
    3.0424   -1.2631    0.7253 H   0  0  0  0  0  0  0  0  0  0  0  0
    1.5349   -0.8049   -1.0281 H   0  0  0  0  0  0  0  0  0  0  0  0
   -0.7180   -0.6878   -2.0430 H   0  0  0  0  0  0  0  0  0  0  0  0
   -5.4592    2.5632    0.3512 S   0  0  0  0  0  0  0  0  0  0  0  0
   -5.4755    3.6902    1.2601 O   0  0  0  0  0  0  0  0  0  0  0  0
   -3.9239    2.2068    0.0913 O   0  0  0  0  0  0  0  0  0  0  0  0
   -6.2242    1.3484    0.5982 O   0  0  0  0  0  0  0  0  0  0  0  0
   -5.9315    3.1409   -1.1029 O   0  0  0  0  0  0  0  0  0  0  0  0
   -6.2521    2.3792   -1.6139 H   0  0  0  0  0  0  0  0  0  0  0  0
  1  4  1  0  0  0  0
  2  3  1  0  0  0  0
  2  1  1  0  0  0  0
  3 20  1  0  0  0  0
  4 11  1  0  0  0  0
  4  5  2  0  0  0  0
  5 12  1  0  0  0  0
  6  5  1  0  0  0  0
  6  7  1  0  0  0  0
  8 15  1  0  0  0  0
  8  7  1  0  0  0  0
  8 13  1  0  0  0  0
  9  6  2  0  0  0  0
 10  1  2  0  0  0  0
 10  9  1  0  0  0  0
 14  8  1  0  0  0  0
 16  9  1  0  0  0  0
 17 10  1  0  0  0  0
 18 21  2  0  0  0  0
 18 19  2  0  0  0  0
 20 18  1  0  0  0  0
 22 18  1  0  0  0  0
 23 22  1  0  0  0  0
M  RAD  2   2   2   3   2
M  END
