Coordinates from ORCA-job 4-MeOPhN2+~HSO4-_B3LYPG-6-31G_dp-NX-Scan-d89-09-n800
 OpenBabel11261921003D

 23 22  0  0  0  0  0  0  0  0999 V2000
   -1.9416   -1.4085   -0.3528 C   0  0  0  0  0  0  0  0  0  0  0  0
   -2.8082   -2.4136   -0.6159 N   0  0  0  0  0  0  0  0  0  0  0  0
   -3.4684   -3.2978   -0.8472 N   0  0  0  0  0  0  0  0  0  0  0  0
   -2.3832   -0.0904   -0.0120 C   0  0  0  0  0  0  0  0  0  0  0  0
   -1.4326    0.8699    0.2321 C   0  0  0  0  0  0  0  0  0  0  0  0
   -0.0535    0.5414    0.1464 C   0  0  0  0  0  0  0  0  0  0  0  0
    0.7781    1.5371    0.4045 O   0  0  0  0  0  0  0  0  0  0  0  0
    2.1967    1.3502    0.3448 C   0  0  0  0  0  0  0  0  0  0  0  0
    0.3734   -0.7716   -0.1935 C   0  0  0  0  0  0  0  0  0  0  0  0
   -0.5633   -1.7441   -0.4430 C   0  0  0  0  0  0  0  0  0  0  0  0
   -3.4341    0.1753    0.0540 H   0  0  0  0  0  0  0  0  0  0  0  0
   -1.7035    1.9119    0.4681 H   0  0  0  0  0  0  0  0  0  0  0  0
    2.6223    2.3209    0.5932 H   0  0  0  0  0  0  0  0  0  0  0  0
    2.5096    1.0561   -0.6622 H   0  0  0  0  0  0  0  0  0  0  0  0
    2.5235    0.6043    1.0767 H   0  0  0  0  0  0  0  0  0  0  0  0
    1.4254   -1.0191   -0.2614 H   0  0  0  0  0  0  0  0  0  0  0  0
   -0.2672   -2.7534   -0.7067 H   0  0  0  0  0  0  0  0  0  0  0  0
   -3.2202    4.0579    0.6052 S   0  0  0  0  0  0  0  0  0  0  0  0
   -3.9827    2.8048    0.8319 O   0  0  0  0  0  0  0  0  0  0  0  0
   -3.5952    5.2367    1.4141 O   0  0  0  0  0  0  0  0  0  0  0  0
   -1.7526    3.7967    0.5215 O   0  0  0  0  0  0  0  0  0  0  0  0
   -3.6537    4.5084   -0.9545 O   0  0  0  0  0  0  0  0  0  0  0  0
   -3.8906    5.4425   -0.8585 H   0  0  0  0  0  0  0  0  0  0  0  0
  1  4  1  0  0  0  0
  2  1  1  0  0  0  0
  3  2  1  0  0  0  0
  4 11  1  0  0  0  0
  4  5  2  0  0  0  0
  5 12  1  0  0  0  0
  6  5  1  0  0  0  0
  6  7  1  0  0  0  0
  8  7  1  0  0  0  0
  8 13  1  0  0  0  0
  8 15  1  0  0  0  0
  9  6  2  0  0  0  0
 10  1  2  0  0  0  0
 10  9  1  0  0  0  0
 14  8  1  0  0  0  0
 16  9  1  0  0  0  0
 17 10  1  0  0  0  0
 18 19  2  0  0  0  0
 18 20  1  0  0  0  0
 21 18  2  0  0  0  0
 22 23  1  0  0  0  0
 22 18  1  0  0  0  0
M  RAD  3   2   2   3   3  20   2
M  END
