Coordinates from ORCA-job 4-MeOPhN2+~HSO4-_B3LYPG-6-31G_dp-NX-Scan-d89-09-n800
 OpenBabel11261921003D

 23 22  0  0  0  0  0  0  0  0999 V2000
   -1.6633    0.1605   -0.5131 C   0  0  0  0  0  0  0  0  0  0  0  0
   -2.9390   -0.1379   -0.9554 N   0  0  0  0  0  0  0  0  0  0  0  0
   -4.0215    0.0305   -1.2495 N   0  0  0  0  0  0  0  0  0  0  0  0
   -1.4372    1.3786    0.1646 C   0  0  0  0  0  0  0  0  0  0  0  0
   -0.1520    1.6389    0.5945 C   0  0  0  0  0  0  0  0  0  0  0  0
    0.8939    0.7219    0.3564 C   0  0  0  0  0  0  0  0  0  0  0  0
    2.1016    1.0926    0.8143 O   0  0  0  0  0  0  0  0  0  0  0  0
    3.2207    0.2240    0.6299 C   0  0  0  0  0  0  0  0  0  0  0  0
    0.6399   -0.4924   -0.3142 C   0  0  0  0  0  0  0  0  0  0  0  0
   -0.6469   -0.7782   -0.7407 C   0  0  0  0  0  0  0  0  0  0  0  0
   -2.2682    2.0549    0.3668 H   0  0  0  0  0  0  0  0  0  0  0  0
    0.0766    2.5543    1.1288 H   0  0  0  0  0  0  0  0  0  0  0  0
    4.0693    0.7399    1.0778 H   0  0  0  0  0  0  0  0  0  0  0  0
    3.4174    0.0526   -0.4342 H   0  0  0  0  0  0  0  0  0  0  0  0
    3.0662   -0.7340    1.1380 H   0  0  0  0  0  0  0  0  0  0  0  0
    1.4321   -1.2064   -0.4985 H   0  0  0  0  0  0  0  0  0  0  0  0
   -0.8692   -1.7072   -1.2543 H   0  0  0  0  0  0  0  0  0  0  0  0
   -5.0444    2.4234    0.0973 S   0  0  0  0  0  0  0  0  0  0  0  0
   -6.0648    1.4386    0.4471 O   0  0  0  0  0  0  0  0  0  0  0  0
   -4.0298    2.7498    1.1299 O   0  0  0  0  0  0  0  0  0  0  0  0
   -4.3698    2.1404   -1.2350 O   0  0  0  0  0  0  0  0  0  0  0  0
   -5.8517    3.8392   -0.1673 O   0  0  0  0  0  0  0  0  0  0  0  0
   -5.2814    4.5313    0.2016 H   0  0  0  0  0  0  0  0  0  0  0  0
  1  4  1  0  0  0  0
  2  1  1  0  0  0  0
  3  2  1  0  0  0  0
  4 11  1  0  0  0  0
  4  5  2  0  0  0  0
  5 12  1  0  0  0  0
  6  5  1  0  0  0  0
  6  7  1  0  0  0  0
  8  7  1  0  0  0  0
  8 13  1  0  0  0  0
  8 15  1  0  0  0  0
  9  6  2  0  0  0  0
 10  1  2  0  0  0  0
 10  9  1  0  0  0  0
 14  8  1  0  0  0  0
 16  9  1  0  0  0  0
 17 10  1  0  0  0  0
 18 19  2  0  0  0  0
 18 20  1  0  0  0  0
 21 18  2  0  0  0  0
 22 18  1  0  0  0  0
 22 23  1  0  0  0  0
M  RAD  3   2   2   3   3  20   2
M  END
