Coordinates from ORCA-job 4-MeOPhN2+~HSO4-_B3LYPG-6-31G_dp-NX-Scan-d89-09-n800
 OpenBabel11261921003D

 23 23  0  0  0  0  0  0  0  0999 V2000
   -1.4818    0.6881   -0.5999 C   0  0  0  0  0  0  0  0  0  0  0  0
   -2.7046    0.6539   -1.2714 N   0  0  0  0  0  0  0  0  0  0  0  0
   -3.7869    1.1192   -1.2095 N   0  0  0  0  0  0  0  0  0  0  0  0
   -1.2179    1.4555    0.5586 C   0  0  0  0  0  0  0  0  0  0  0  0
    0.0382    1.3906    1.1293 C   0  0  0  0  0  0  0  0  0  0  0  0
    1.0470    0.5782    0.5723 C   0  0  0  0  0  0  0  0  0  0  0  0
    2.2306    0.6000    1.2182 O   0  0  0  0  0  0  0  0  0  0  0  0
    3.3050   -0.1976    0.7253 C   0  0  0  0  0  0  0  0  0  0  0  0
    0.7823   -0.1818   -0.5801 C   0  0  0  0  0  0  0  0  0  0  0  0
   -0.4789   -0.1212   -1.1559 C   0  0  0  0  0  0  0  0  0  0  0  0
   -1.9932    2.0770    0.9834 H   0  0  0  0  0  0  0  0  0  0  0  0
    0.2736    1.9638    2.0193 H   0  0  0  0  0  0  0  0  0  0  0  0
    4.1397   -0.0211    1.4038 H   0  0  0  0  0  0  0  0  0  0  0  0
    3.5913    0.1026   -0.2892 H   0  0  0  0  0  0  0  0  0  0  0  0
    3.0464   -1.2630    0.7343 H   0  0  0  0  0  0  0  0  0  0  0  0
    1.5434   -0.8104   -1.0243 H   0  0  0  0  0  0  0  0  0  0  0  0
   -0.7072   -0.6987   -2.0451 H   0  0  0  0  0  0  0  0  0  0  0  0
   -5.4587    2.5670    0.3522 S   0  0  0  0  0  0  0  0  0  0  0  0
   -5.4869    3.6848    1.2738 O   0  0  0  0  0  0  0  0  0  0  0  0
   -3.9281    2.2236    0.0897 O   0  0  0  0  0  0  0  0  0  0  0  0
   -6.2229    1.3477    0.5852 O   0  0  0  0  0  0  0  0  0  0  0  0
   -5.9380    3.1540   -1.0985 O   0  0  0  0  0  0  0  0  0  0  0  0
   -6.3141    2.4032   -1.5867 H   0  0  0  0  0  0  0  0  0  0  0  0
  1  4  1  0  0  0  0
  2  3  1  0  0  0  0
  2  1  1  0  0  0  0
  3 20  1  0  0  0  0
  4 11  1  0  0  0  0
  4  5  2  0  0  0  0
  5 12  1  0  0  0  0
  6  5  1  0  0  0  0
  6  7  1  0  0  0  0
  8 15  1  0  0  0  0
  8  7  1  0  0  0  0
  8 13  1  0  0  0  0
  9  6  2  0  0  0  0
 10  1  2  0  0  0  0
 10  9  1  0  0  0  0
 14  8  1  0  0  0  0
 16  9  1  0  0  0  0
 17 10  1  0  0  0  0
 18 21  2  0  0  0  0
 18 19  2  0  0  0  0
 20 18  1  0  0  0  0
 22 18  1  0  0  0  0
 23 22  1  0  0  0  0
M  RAD  2   2   2   3   2
M  END
