Coordinates from ORCA-job 4-MeOPhN2+~HSO4-_B3LYPG-6-31G_dp-NX-Scan-d89-09-n800
 OpenBabel11261921003D

 23 22  0  0  0  0  0  0  0  0999 V2000
   -1.6521    0.3129   -0.7498 C   0  0  0  0  0  0  0  0  0  0  0  0
   -2.9090    0.0673   -1.2674 N   0  0  0  0  0  0  0  0  0  0  0  0
   -3.9827    0.2662   -1.5720 N   0  0  0  0  0  0  0  0  0  0  0  0
   -1.3511    1.5802   -0.2026 C   0  0  0  0  0  0  0  0  0  0  0  0
   -0.0850    1.7736    0.3095 C   0  0  0  0  0  0  0  0  0  0  0  0
    0.8751    0.7396    0.2834 C   0  0  0  0  0  0  0  0  0  0  0  0
    2.0708    1.0501    0.8106 O   0  0  0  0  0  0  0  0  0  0  0  0
    3.1022    0.0627    0.8462 C   0  0  0  0  0  0  0  0  0  0  0  0
    0.5532   -0.5176   -0.2672 C   0  0  0  0  0  0  0  0  0  0  0  0
   -0.7151   -0.7298   -0.7821 C   0  0  0  0  0  0  0  0  0  0  0  0
   -2.0987    2.3665   -0.1684 H   0  0  0  0  0  0  0  0  0  0  0  0
    0.1909    2.7247    0.7505 H   0  0  0  0  0  0  0  0  0  0  0  0
    3.9566    0.5479    1.3172 H   0  0  0  0  0  0  0  0  0  0  0  0
    3.3772   -0.2599   -0.1639 H   0  0  0  0  0  0  0  0  0  0  0  0
    2.7994   -0.8044    1.4435 H   0  0  0  0  0  0  0  0  0  0  0  0
    1.2780   -1.3212   -0.2918 H   0  0  0  0  0  0  0  0  0  0  0  0
   -0.9887   -1.6894   -1.2067 H   0  0  0  0  0  0  0  0  0  0  0  0
   -4.7297    2.4458    0.2954 S   0  0  0  0  0  0  0  0  0  0  0  0
   -4.9030    1.1317    0.9235 O   0  0  0  0  0  0  0  0  0  0  0  0
   -3.8376    3.4139    0.9626 O   0  0  0  0  0  0  0  0  0  0  0  0
   -4.3709    2.3295   -1.1772 O   0  0  0  0  0  0  0  0  0  0  0  0
   -6.2280    3.1342    0.3208 O   0  0  0  0  0  0  0  0  0  0  0  0
   -6.0735    4.0907    0.3707 H   0  0  0  0  0  0  0  0  0  0  0  0
  1  4  1  0  0  0  0
  2  1  1  0  0  0  0
  3  2  1  0  0  0  0
  4 11  1  0  0  0  0
  4  5  2  0  0  0  0
  5 12  1  0  0  0  0
  6  5  1  0  0  0  0
  6  7  1  0  0  0  0
  7  8  1  0  0  0  0
  8 13  1  0  0  0  0
  8 15  1  0  0  0  0
  9  6  2  0  0  0  0
 10  1  2  0  0  0  0
 10  9  1  0  0  0  0
 14  8  1  0  0  0  0
 16  9  1  0  0  0  0
 17 10  1  0  0  0  0
 18 22  1  0  0  0  0
 18 19  2  0  0  0  0
 18 20  1  0  0  0  0
 21 18  2  0  0  0  0
 22 23  1  0  0  0  0
M  RAD  3   2   2   3   3  20   2
M  END
