Coordinates from ORCA-job 4-MeOPhN2+~HSO4-_B3LYPG-6-31G_dp-NX-Scan-d89-09-n800
 OpenBabel11261921003D

 23 22  0  0  0  0  0  0  0  0999 V2000
   -1.8894   -0.7079   -0.2417 C   0  0  0  0  0  0  0  0  0  0  0  0
   -3.0640   -1.3535   -0.4592 N   0  0  0  0  0  0  0  0  0  0  0  0
   -4.0387   -1.8769   -0.6390 N   0  0  0  0  0  0  0  0  0  0  0  0
   -1.9439    0.6713    0.0795 C   0  0  0  0  0  0  0  0  0  0  0  0
   -0.7482    1.3215    0.2873 C   0  0  0  0  0  0  0  0  0  0  0  0
    0.4737    0.6230    0.1833 C   0  0  0  0  0  0  0  0  0  0  0  0
    1.5733    1.3451    0.4037 O   0  0  0  0  0  0  0  0  0  0  0  0
    2.8683    0.7412    0.3186 C   0  0  0  0  0  0  0  0  0  0  0  0
    0.4986   -0.7631   -0.1393 C   0  0  0  0  0  0  0  0  0  0  0  0
   -0.6811   -1.4381   -0.3552 C   0  0  0  0  0  0  0  0  0  0  0  0
   -2.9129    1.1997    0.1505 H   0  0  0  0  0  0  0  0  0  0  0  0
   -0.7828    2.3816    0.5214 H   0  0  0  0  0  0  0  0  0  0  0  0
    3.5748    1.5388    0.5437 H   0  0  0  0  0  0  0  0  0  0  0  0
    3.0575    0.3583   -0.6897 H   0  0  0  0  0  0  0  0  0  0  0  0
    2.9766   -0.0631    1.0539 H   0  0  0  0  0  0  0  0  0  0  0  0
    1.4357   -1.2982   -0.2205 H   0  0  0  0  0  0  0  0  0  0  0  0
   -0.6890   -2.4928   -0.6071 H   0  0  0  0  0  0  0  0  0  0  0  0
   -4.0961    3.4676    0.4017 S   0  0  0  0  0  0  0  0  0  0  0  0
   -4.4913    2.0418    0.1857 O   0  0  0  0  0  0  0  0  0  0  0  0
   -4.9229    4.2208    1.3580 O   0  0  0  0  0  0  0  0  0  0  0  0
   -2.6289    3.6129    0.5704 O   0  0  0  0  0  0  0  0  0  0  0  0
   -4.4407    4.1696   -1.0780 O   0  0  0  0  0  0  0  0  0  0  0  0
   -4.8501    5.0157   -0.8431 H   0  0  0  0  0  0  0  0  0  0  0  0
  1  4  1  0  0  0  0
  2  1  1  0  0  0  0
  3  2  1  0  0  0  0
  4 11  1  0  0  0  0
  4  5  2  0  0  0  0
  5 12  1  0  0  0  0
  6  5  1  0  0  0  0
  6  7  1  0  0  0  0
  8  7  1  0  0  0  0
  8 13  1  0  0  0  0
  8 15  1  0  0  0  0
  9  6  2  0  0  0  0
 10  1  2  0  0  0  0
 10  9  1  0  0  0  0
 14  8  1  0  0  0  0
 16  9  1  0  0  0  0
 17 10  1  0  0  0  0
 18 21  2  0  0  0  0
 18 20  1  0  0  0  0
 19 18  2  0  0  0  0
 22 23  1  0  0  0  0
 22 18  1  0  0  0  0
M  RAD  3   2   2   3   3  20   2
M  END
