Coordinates from ORCA-job 4-MeOPhN2+~HSO4-_B3LYPG-6-31G_dp-NX-Scan-d89-09-n800
 OpenBabel11261921003D

 23 23  0  0  0  0  0  0  0  0999 V2000
   -1.5588    0.8155   -0.5730 C   0  0  0  0  0  0  0  0  0  0  0  0
   -2.7395    0.8443   -1.3462 N   0  0  0  0  0  0  0  0  0  0  0  0
   -3.8076    1.4069   -1.0077 N   0  0  0  0  0  0  0  0  0  0  0  0
   -1.3058    1.3445    0.7164 C   0  0  0  0  0  0  0  0  0  0  0  0
   -0.0560    1.1927    1.2939 C   0  0  0  0  0  0  0  0  0  0  0  0
    0.9778    0.5207    0.6190 C   0  0  0  0  0  0  0  0  0  0  0  0
    2.1568    0.4387    1.2828 O   0  0  0  0  0  0  0  0  0  0  0  0
    3.2482   -0.2254    0.6558 C   0  0  0  0  0  0  0  0  0  0  0  0
    0.7413   -0.0096   -0.6582 C   0  0  0  0  0  0  0  0  0  0  0  0
   -0.5143    0.1418   -1.2321 C   0  0  0  0  0  0  0  0  0  0  0  0
   -2.0733    1.8661    1.2674 H   0  0  0  0  0  0  0  0  0  0  0  0
    0.1499    1.5908    2.2815 H   0  0  0  0  0  0  0  0  0  0  0  0
    4.0801   -0.1608    1.3583 H   0  0  0  0  0  0  0  0  0  0  0  0
    3.5289    0.2639   -0.2845 H   0  0  0  0  0  0  0  0  0  0  0  0
    3.0180   -1.2799    0.4615 H   0  0  0  0  0  0  0  0  0  0  0  0
    1.5183   -0.5329   -1.2017 H   0  0  0  0  0  0  0  0  0  0  0  0
   -0.7191   -0.2611   -2.2180 H   0  0  0  0  0  0  0  0  0  0  0  0
   -5.5563    2.7155    0.2656 S   0  0  0  0  0  0  0  0  0  0  0  0
   -5.3428    4.1456    0.2654 O   0  0  0  0  0  0  0  0  0  0  0  0
   -3.9070    1.9996    0.0660 O   0  0  0  0  0  0  0  0  0  0  0  0
   -6.1260    2.0208    1.3984 O   0  0  0  0  0  0  0  0  0  0  0  0
   -6.1220    2.1907   -1.1093 O   0  0  0  0  0  0  0  0  0  0  0  0
   -5.3126    1.6870   -1.5165 H   0  0  0  0  0  0  0  0  0  0  0  0
  1  4  2  0  0  0  0
  2  3  2  0  0  0  0
  2  1  1  0  0  0  0
  3 20  1  0  0  0  0
  4 11  1  0  0  0  0
  4  5  1  0  0  0  0
  5 12  1  0  0  0  0
  6  7  1  0  0  0  0
  6  5  2  0  0  0  0
  8  7  1  0  0  0  0
  8 13  1  0  0  0  0
  9  6  1  0  0  0  0
 10  9  2  0  0  0  0
 10  1  1  0  0  0  0
 14  8  1  0  0  0  0
 15  8  1  0  0  0  0
 16  9  1  0  0  0  0
 17 10  1  0  0  0  0
 18 21  2  0  0  0  0
 19 18  2  0  0  0  0
 20 18  1  0  0  0  0
 22 18  1  0  0  0  0
 23 22  1  0  0  0  0
M  END
