Coordinates from ORCA-job 4-MeOPhN2+~HSO4-_B3LYPG-6-31G_dp-NX-Scan-d89-09-n800
 OpenBabel11261921003D

 23 22  0  0  0  0  0  0  0  0999 V2000
   -1.7476    0.2184   -0.5956 C   0  0  0  0  0  0  0  0  0  0  0  0
   -3.0215   -0.0881   -1.0154 N   0  0  0  0  0  0  0  0  0  0  0  0
   -3.9552   -0.5245   -1.4460 N   0  0  0  0  0  0  0  0  0  0  0  0
   -1.3662    1.5545   -0.3559 C   0  0  0  0  0  0  0  0  0  0  0  0
   -0.0594    1.7764    0.0238 C   0  0  0  0  0  0  0  0  0  0  0  0
    0.8490    0.7077    0.1789 C   0  0  0  0  0  0  0  0  0  0  0  0
    2.0857    1.0505    0.5622 O   0  0  0  0  0  0  0  0  0  0  0  0
    3.0745    0.0371    0.7629 C   0  0  0  0  0  0  0  0  0  0  0  0
    0.4375   -0.6225   -0.0652 C   0  0  0  0  0  0  0  0  0  0  0  0
   -0.8633   -0.8708   -0.4593 C   0  0  0  0  0  0  0  0  0  0  0  0
   -2.0917    2.3716   -0.4491 H   0  0  0  0  0  0  0  0  0  0  0  0
    0.2870    2.7834    0.2278 H   0  0  0  0  0  0  0  0  0  0  0  0
    3.9759    0.5656    1.0704 H   0  0  0  0  0  0  0  0  0  0  0  0
    3.2711   -0.5118   -0.1647 H   0  0  0  0  0  0  0  0  0  0  0  0
    2.7709   -0.6589    1.5521 H   0  0  0  0  0  0  0  0  0  0  0  0
    1.1218   -1.4526    0.0536 H   0  0  0  0  0  0  0  0  0  0  0  0
   -1.2025   -1.8831   -0.6513 H   0  0  0  0  0  0  0  0  0  0  0  0
   -4.5023    2.9296    0.4513 S   0  0  0  0  0  0  0  0  0  0  0  0
   -4.1885    1.4712    0.5277 O   0  0  0  0  0  0  0  0  0  0  0  0
   -4.9907    3.5502    1.6907 O   0  0  0  0  0  0  0  0  0  0  0  0
   -3.4309    3.6806   -0.2583 O   0  0  0  0  0  0  0  0  0  0  0  0
   -5.8145    2.9451   -0.5804 O   0  0  0  0  0  0  0  0  0  0  0  0
   -6.3605    3.6858   -0.2752 H   0  0  0  0  0  0  0  0  0  0  0  0
  1 10  2  0  0  0  0
  1  4  1  0  0  0  0
  2  1  1  0  0  0  0
  3  2  1  0  0  0  0
  4  5  2  0  0  0  0
  5  6  1  0  0  0  0
  5 12  1  0  0  0  0
  6  7  1  0  0  0  0
  7  8  1  0  0  0  0
  8 13  1  0  0  0  0
  8 15  1  0  0  0  0
  9 16  1  0  0  0  0
  9  6  2  0  0  0  0
 10  9  1  0  0  0  0
 11  4  1  0  0  0  0
 14  8  1  0  0  0  0
 17 10  1  0  0  0  0
 18 19  2  0  0  0  0
 18 20  1  0  0  0  0
 21 18  2  0  0  0  0
 22 23  1  0  0  0  0
 22 18  1  0  0  0  0
M  RAD  3   2   2   3   3  20   2
M  END
