Coordinates from ORCA-job 4-MeOPhN2+~HSO4-_B3LYPG-6-31G_dp-NX-Scan-d89-09-n800
 OpenBabel11261921003D

 23 22  0  0  0  0  0  0  0  0999 V2000
   -1.9113   -0.8296   -0.2662 C   0  0  0  0  0  0  0  0  0  0  0  0
   -3.0341   -1.5542   -0.4971 N   0  0  0  0  0  0  0  0  0  0  0  0
   -3.9541   -2.1660   -0.6931 N   0  0  0  0  0  0  0  0  0  0  0  0
   -2.0353    0.5448    0.0691 C   0  0  0  0  0  0  0  0  0  0  0  0
   -0.8705    1.2483    0.2853 C   0  0  0  0  0  0  0  0  0  0  0  0
    0.3852    0.6125    0.1764 C   0  0  0  0  0  0  0  0  0  0  0  0
    1.4452    1.3868    0.4047 O   0  0  0  0  0  0  0  0  0  0  0  0
    2.7703    0.8527    0.3130 C   0  0  0  0  0  0  0  0  0  0  0  0
    0.4806   -0.7672   -0.1584 C   0  0  0  0  0  0  0  0  0  0  0  0
   -0.6643   -1.4951   -0.3823 C   0  0  0  0  0  0  0  0  0  0  0  0
   -3.0140    1.0567    0.1529 H   0  0  0  0  0  0  0  0  0  0  0  0
   -0.9641    2.3055    0.5297 H   0  0  0  0  0  0  0  0  0  0  0  0
    3.4338    1.6856    0.5410 H   0  0  0  0  0  0  0  0  0  0  0  0
    2.9765    0.4860   -0.6979 H   0  0  0  0  0  0  0  0  0  0  0  0
    2.9226    0.0514    1.0437 H   0  0  0  0  0  0  0  0  0  0  0  0
    1.4428   -1.2560   -0.2419 H   0  0  0  0  0  0  0  0  0  0  0  0
   -0.6206   -2.5468   -0.6428 H   0  0  0  0  0  0  0  0  0  0  0  0
   -3.9630    3.5832    0.4736 S   0  0  0  0  0  0  0  0  0  0  0  0
   -4.4300    2.1681    0.3603 O   0  0  0  0  0  0  0  0  0  0  0  0
   -4.7829    4.4622    1.3233 O   0  0  0  0  0  0  0  0  0  0  0  0
   -2.4974    3.6726    0.6902 O   0  0  0  0  0  0  0  0  0  0  0  0
   -4.2074    4.1775   -1.0744 O   0  0  0  0  0  0  0  0  0  0  0  0
   -4.6297    5.0364   -0.9242 H   0  0  0  0  0  0  0  0  0  0  0  0
  1  4  1  0  0  0  0
  2  1  1  0  0  0  0
  3  2  1  0  0  0  0
  4 11  1  0  0  0  0
  4  5  2  0  0  0  0
  5 12  1  0  0  0  0
  6  5  1  0  0  0  0
  6  7  1  0  0  0  0
  8  7  1  0  0  0  0
  8 13  1  0  0  0  0
  8 15  1  0  0  0  0
  9  6  2  0  0  0  0
 10  1  2  0  0  0  0
 10  9  1  0  0  0  0
 14  8  1  0  0  0  0
 16  9  1  0  0  0  0
 17 10  1  0  0  0  0
 18 21  2  0  0  0  0
 18 20  1  0  0  0  0
 19 18  2  0  0  0  0
 22 23  1  0  0  0  0
 22 18  1  0  0  0  0
M  RAD  3   2   2   3   3  20   2
M  END
