Coordinates from ORCA-job 4-MeOPhN2+~HSO4-_B3LYPG-6-31G_dp-NX-Scan-d89-09-n800
 OpenBabel11261921003D

 23 22  0  0  0  0  0  0  0  0999 V2000
   -1.9368   -0.9917   -0.3012 C   0  0  0  0  0  0  0  0  0  0  0  0
   -2.9958   -1.7971   -0.5507 N   0  0  0  0  0  0  0  0  0  0  0  0
   -3.8577   -2.4852   -0.7640 N   0  0  0  0  0  0  0  0  0  0  0  0
   -2.1507    0.3667    0.0613 C   0  0  0  0  0  0  0  0  0  0  0  0
   -1.0399    1.1454    0.2962 C   0  0  0  0  0  0  0  0  0  0  0  0
    0.2574    0.5977    0.1780 C   0  0  0  0  0  0  0  0  0  0  0  0
    1.2597    1.4364    0.4272 O   0  0  0  0  0  0  0  0  0  0  0  0
    2.6195    0.9995    0.3284 C   0  0  0  0  0  0  0  0  0  0  0  0
    0.4483   -0.7648   -0.1856 C   0  0  0  0  0  0  0  0  0  0  0  0
   -0.6436   -1.5639   -0.4269 C   0  0  0  0  0  0  0  0  0  0  0  0
   -3.1388    0.8387    0.1621 H   0  0  0  0  0  0  0  0  0  0  0  0
   -1.2007    2.1998    0.5536 H   0  0  0  0  0  0  0  0  0  0  0  0
    3.2214    1.8730    0.5745 H   0  0  0  0  0  0  0  0  0  0  0  0
    2.8517    0.6682   -0.6889 H   0  0  0  0  0  0  0  0  0  0  0  0
    2.8268    0.1968    1.0437 H   0  0  0  0  0  0  0  0  0  0  0  0
    1.4417   -1.1853   -0.2776 H   0  0  0  0  0  0  0  0  0  0  0  0
   -0.5277   -2.6048   -0.7081 H   0  0  0  0  0  0  0  0  0  0  0  0
   -3.7371    3.7272    0.5337 S   0  0  0  0  0  0  0  0  0  0  0  0
   -4.2367    2.3248    0.6046 O   0  0  0  0  0  0  0  0  0  0  0  0
   -4.4854    4.7217    1.3195 O   0  0  0  0  0  0  0  0  0  0  0  0
   -2.2571    3.8123    0.6601 O   0  0  0  0  0  0  0  0  0  0  0  0
   -4.0576    4.1447   -1.0586 O   0  0  0  0  0  0  0  0  0  0  0  0
   -4.3827    5.0552   -0.9963 H   0  0  0  0  0  0  0  0  0  0  0  0
  1  4  1  0  0  0  0
  2  1  1  0  0  0  0
  3  2  1  0  0  0  0
  4 11  1  0  0  0  0
  4  5  2  0  0  0  0
  5 12  1  0  0  0  0
  6  5  1  0  0  0  0
  6  7  1  0  0  0  0
  8  7  1  0  0  0  0
  8 13  1  0  0  0  0
  8 15  1  0  0  0  0
  9  6  2  0  0  0  0
 10  1  2  0  0  0  0
 10  9  1  0  0  0  0
 14  8  1  0  0  0  0
 16  9  1  0  0  0  0
 17 10  1  0  0  0  0
 18 19  2  0  0  0  0
 18 21  2  0  0  0  0
 18 20  1  0  0  0  0
 22 23  1  0  0  0  0
 22 18  1  0  0  0  0
M  RAD  3   2   2   3   3  20   2
M  END
