Coordinates from ORCA-job 4-MeOPhN2+~HSO4-_B3LYPG-6-31G_dp-NX-Scan-d89-09-n800
 OpenBabel11261921003D

 23 22  0  0  0  0  0  0  0  0999 V2000
   -1.8981   -0.7571   -0.2543 C   0  0  0  0  0  0  0  0  0  0  0  0
   -3.0505   -1.4378   -0.4781 N   0  0  0  0  0  0  0  0  0  0  0  0
   -4.0004   -2.0033   -0.6661 N   0  0  0  0  0  0  0  0  0  0  0  0
   -1.9812    0.6218    0.0666 C   0  0  0  0  0  0  0  0  0  0  0  0
   -0.7972    1.2930    0.2777 C   0  0  0  0  0  0  0  0  0  0  0  0
    0.4387    0.6186    0.1780 C   0  0  0  0  0  0  0  0  0  0  0  0
    1.5222    1.3628    0.4010 O   0  0  0  0  0  0  0  0  0  0  0  0
    2.8298    0.7860    0.3188 C   0  0  0  0  0  0  0  0  0  0  0  0
    0.4924   -0.7669   -0.1434 C   0  0  0  0  0  0  0  0  0  0  0  0
   -0.6737   -1.4629   -0.3626 C   0  0  0  0  0  0  0  0  0  0  0  0
   -2.9543    1.1450    0.1405 H   0  0  0  0  0  0  0  0  0  0  0  0
   -0.8549    2.3531    0.5111 H   0  0  0  0  0  0  0  0  0  0  0  0
    3.5189    1.5989    0.5430 H   0  0  0  0  0  0  0  0  0  0  0  0
    3.0282    0.4050   -0.6884 H   0  0  0  0  0  0  0  0  0  0  0  0
    2.9538   -0.0141    1.0561 H   0  0  0  0  0  0  0  0  0  0  0  0
    1.4397   -1.2847   -0.2205 H   0  0  0  0  0  0  0  0  0  0  0  0
   -0.6614   -2.5178   -0.6136 H   0  0  0  0  0  0  0  0  0  0  0  0
   -4.0426    3.5159    0.4329 S   0  0  0  0  0  0  0  0  0  0  0  0
   -4.4743    2.0951    0.2609 O   0  0  0  0  0  0  0  0  0  0  0  0
   -4.8565    4.3240    1.3550 O   0  0  0  0  0  0  0  0  0  0  0  0
   -2.5734    3.6302    0.6081 O   0  0  0  0  0  0  0  0  0  0  0  0
   -4.3554    4.1799   -1.0721 O   0  0  0  0  0  0  0  0  0  0  0  0
   -4.7712    5.0303   -0.8659 H   0  0  0  0  0  0  0  0  0  0  0  0
  1  4  1  0  0  0  0
  2  1  1  0  0  0  0
  3  2  1  0  0  0  0
  4 11  1  0  0  0  0
  4  5  2  0  0  0  0
  5 12  1  0  0  0  0
  6  5  1  0  0  0  0
  6  7  1  0  0  0  0
  8  7  1  0  0  0  0
  8 13  1  0  0  0  0
  8 15  1  0  0  0  0
  9  6  2  0  0  0  0
 10  1  2  0  0  0  0
 10  9  1  0  0  0  0
 14  8  1  0  0  0  0
 16  9  1  0  0  0  0
 17 10  1  0  0  0  0
 18 21  2  0  0  0  0
 18 20  1  0  0  0  0
 19 18  2  0  0  0  0
 22 23  1  0  0  0  0
 22 18  1  0  0  0  0
M  RAD  3   2   2   3   3  20   2
M  END
