Coordinates from ORCA-job 4-MeOPhN2+~HSO4-_B3LYPG-6-31G_dp-NX-Scan-d89-09-n800
 OpenBabel11261921003D

 23 23  0  0  0  0  0  0  0  0999 V2000
   -1.5204    0.7285   -0.5772 C   0  0  0  0  0  0  0  0  0  0  0  0
   -2.7330    0.6812   -1.2751 N   0  0  0  0  0  0  0  0  0  0  0  0
   -3.8170    1.1863   -1.1380 N   0  0  0  0  0  0  0  0  0  0  0  0
   -1.2319    1.4762    0.5902 C   0  0  0  0  0  0  0  0  0  0  0  0
    0.0290    1.3966    1.1504 C   0  0  0  0  0  0  0  0  0  0  0  0
    1.0284    0.5855    0.5775 C   0  0  0  0  0  0  0  0  0  0  0  0
    2.2188    0.5917    1.2153 O   0  0  0  0  0  0  0  0  0  0  0  0
    3.2818   -0.2059    0.7010 C   0  0  0  0  0  0  0  0  0  0  0  0
    0.7480   -0.1568   -0.5812 C   0  0  0  0  0  0  0  0  0  0  0  0
   -0.5181   -0.0771   -1.1443 C   0  0  0  0  0  0  0  0  0  0  0  0
   -1.9874    2.1021    1.0404 H   0  0  0  0  0  0  0  0  0  0  0  0
    0.2745    1.9578    2.0453 H   0  0  0  0  0  0  0  0  0  0  0  0
    4.1255   -0.0441    1.3722 H   0  0  0  0  0  0  0  0  0  0  0  0
    3.5595    0.1047   -0.3130 H   0  0  0  0  0  0  0  0  0  0  0  0
    3.0169   -1.2699    0.6983 H   0  0  0  0  0  0  0  0  0  0  0  0
    1.4999   -0.7860   -1.0405 H   0  0  0  0  0  0  0  0  0  0  0  0
   -0.7581   -0.6405   -2.0395 H   0  0  0  0  0  0  0  0  0  0  0  0
   -5.4649    2.5427    0.3512 S   0  0  0  0  0  0  0  0  0  0  0  0
   -5.4409    3.7065    1.2066 O   0  0  0  0  0  0  0  0  0  0  0  0
   -3.9050    2.1526    0.0846 O   0  0  0  0  0  0  0  0  0  0  0  0
   -6.2107    1.3383    0.6716 O   0  0  0  0  0  0  0  0  0  0  0  0
   -5.9258    3.0632   -1.1168 O   0  0  0  0  0  0  0  0  0  0  0  0
   -5.9908    2.2817   -1.6940 H   0  0  0  0  0  0  0  0  0  0  0  0
  1  4  2  0  0  0  0
  2  3  1  0  0  0  0
  2  1  1  0  0  0  0
  3 20  1  0  0  0  0
  4 11  1  0  0  0  0
  4  5  1  0  0  0  0
  5 12  1  0  0  0  0
  6  5  2  0  0  0  0
  6  7  1  0  0  0  0
  8  7  1  0  0  0  0
  8 13  1  0  0  0  0
  9  6  1  0  0  0  0
 10  9  2  0  0  0  0
 10  1  1  0  0  0  0
 14  8  1  0  0  0  0
 15  8  1  0  0  0  0
 16  9  1  0  0  0  0
 17 10  1  0  0  0  0
 18 21  2  0  0  0  0
 18 19  2  0  0  0  0
 20 18  1  0  0  0  0
 22 18  1  0  0  0  0
 23 22  1  0  0  0  0
M  RAD  2   2   2   3   2
M  END
