Coordinates from ORCA-job 4-MeOPhN2+~HSO4-_B3LYPG-6-31G_dp-NX-Scan-d89-09-n800
 OpenBabel11261921003D

 23 22  0  0  0  0  0  0  0  0999 V2000
   -1.6555    0.3588   -0.2060 C   0  0  0  0  0  0  0  0  0  0  0  0
   -2.9876    0.0471   -0.3749 N   0  0  0  0  0  0  0  0  0  0  0  0
   -4.0489   -0.3311   -0.5049 N   0  0  0  0  0  0  0  0  0  0  0  0
   -1.2447    1.6761    0.0817 C   0  0  0  0  0  0  0  0  0  0  0  0
    0.1025    1.9152    0.2636 C   0  0  0  0  0  0  0  0  0  0  0  0
    1.0427    0.8694    0.1628 C   0  0  0  0  0  0  0  0  0  0  0  0
    2.3252    1.2224    0.3586 O   0  0  0  0  0  0  0  0  0  0  0  0
    3.3478    0.2302    0.2706 C   0  0  0  0  0  0  0  0  0  0  0  0
    0.6169   -0.4428   -0.1273 C   0  0  0  0  0  0  0  0  0  0  0  0
   -0.7323   -0.6974   -0.3099 C   0  0  0  0  0  0  0  0  0  0  0  0
   -1.9956    2.4583    0.1239 H   0  0  0  0  0  0  0  0  0  0  0  0
    0.4648    2.9131    0.4842 H   0  0  0  0  0  0  0  0  0  0  0  0
    4.2835    0.7551    0.4610 H   0  0  0  0  0  0  0  0  0  0  0  0
    3.3790   -0.2195   -0.7280 H   0  0  0  0  0  0  0  0  0  0  0  0
    3.2080   -0.5518    1.0253 H   0  0  0  0  0  0  0  0  0  0  0  0
    1.3256   -1.2567   -0.2099 H   0  0  0  0  0  0  0  0  0  0  0  0
   -1.0809   -1.7001   -0.5325 H   0  0  0  0  0  0  0  0  0  0  0  0
   -5.2106    2.4666   -0.3098 S   0  0  0  0  0  0  0  0  0  0  0  0
   -6.2714    3.2812   -0.9004 O   0  0  0  0  0  0  0  0  0  0  0  0
   -5.5088    0.9814   -0.3253 O   0  0  0  0  0  0  0  0  0  0  0  0
   -3.8195    2.7169   -0.7356 O   0  0  0  0  0  0  0  0  0  0  0  0
   -5.1801    2.8682    1.3015 O   0  0  0  0  0  0  0  0  0  0  0  0
   -6.0816    3.1544    1.5160 H   0  0  0  0  0  0  0  0  0  0  0  0
  1  4  1  0  0  0  0
  2  1  1  0  0  0  0
  3  2  1  0  0  0  0
  4 11  1  0  0  0  0
  4  5  2  0  0  0  0
  5 12  1  0  0  0  0
  6  5  1  0  0  0  0
  6  7  1  0  0  0  0
  8  7  1  0  0  0  0
  8 13  1  0  0  0  0
  8 15  1  0  0  0  0
  9  6  2  0  0  0  0
 10  1  2  0  0  0  0
 10  9  1  0  0  0  0
 14  8  1  0  0  0  0
 16  9  1  0  0  0  0
 17 10  1  0  0  0  0
 18 22  1  0  0  0  0
 19 18  2  0  0  0  0
 20 18  1  0  0  0  0
 21 18  2  0  0  0  0
 22 23  1  0  0  0  0
M  RAD  3   2   2   3   3  20   2
M  END
