Coordinates from ORCA-job 4-MeOPhN2+~HSO4-_B3LYPG-6-31G_dp-NX-Scan-d89-09-n800
 OpenBabel11261921003D

 23 22  0  0  0  0  0  0  0  0999 V2000
   -1.6761    0.3679   -0.1962 C   0  0  0  0  0  0  0  0  0  0  0  0
   -3.0109    0.0376   -0.3564 N   0  0  0  0  0  0  0  0  0  0  0  0
   -3.9776   -0.5265   -0.4583 N   0  0  0  0  0  0  0  0  0  0  0  0
   -1.2807    1.6821    0.1160 C   0  0  0  0  0  0  0  0  0  0  0  0
    0.0647    1.9260    0.3027 C   0  0  0  0  0  0  0  0  0  0  0  0
    1.0129    0.8898    0.1774 C   0  0  0  0  0  0  0  0  0  0  0  0
    2.2916    1.2472    0.3776 O   0  0  0  0  0  0  0  0  0  0  0  0
    3.3235    0.2651    0.2695 C   0  0  0  0  0  0  0  0  0  0  0  0
    0.5967   -0.4203   -0.1401 C   0  0  0  0  0  0  0  0  0  0  0  0
   -0.7498   -0.6836   -0.3231 C   0  0  0  0  0  0  0  0  0  0  0  0
   -2.0431    2.4518    0.1719 H   0  0  0  0  0  0  0  0  0  0  0  0
    0.4193    2.9214    0.5451 H   0  0  0  0  0  0  0  0  0  0  0  0
    4.2541    0.7944    0.4711 H   0  0  0  0  0  0  0  0  0  0  0  0
    3.3581   -0.1629   -0.7383 H   0  0  0  0  0  0  0  0  0  0  0  0
    3.1895   -0.5326    1.0085 H   0  0  0  0  0  0  0  0  0  0  0  0
    1.3115   -1.2266   -0.2421 H   0  0  0  0  0  0  0  0  0  0  0  0
   -1.0903   -1.6849   -0.5639 H   0  0  0  0  0  0  0  0  0  0  0  0
   -5.2128    2.4221   -0.3535 S   0  0  0  0  0  0  0  0  0  0  0  0
   -6.0762    3.4692   -0.9016 O   0  0  0  0  0  0  0  0  0  0  0  0
   -5.7969    1.0528   -0.3432 O   0  0  0  0  0  0  0  0  0  0  0  0
   -3.8032    2.4067   -0.8392 O   0  0  0  0  0  0  0  0  0  0  0  0
   -4.9899    2.8243    1.2527 O   0  0  0  0  0  0  0  0  0  0  0  0
   -5.8363    3.1943    1.5480 H   0  0  0  0  0  0  0  0  0  0  0  0
  1  4  1  0  0  0  0
  2  1  1  0  0  0  0
  3  2  1  0  0  0  0
  4 11  1  0  0  0  0
  4  5  2  0  0  0  0
  5 12  1  0  0  0  0
  6  5  1  0  0  0  0
  6  7  1  0  0  0  0
  8  7  1  0  0  0  0
  8 13  1  0  0  0  0
  8 15  1  0  0  0  0
  9  6  2  0  0  0  0
 10  1  2  0  0  0  0
 10  9  1  0  0  0  0
 14  8  1  0  0  0  0
 16  9  1  0  0  0  0
 17 10  1  0  0  0  0
 18 20  1  0  0  0  0
 18 22  1  0  0  0  0
 19 18  2  0  0  0  0
 21 18  2  0  0  0  0
 22 23  1  0  0  0  0
M  RAD  3   2   2   3   3  20   2
M  END
