Coordinates from ORCA-job 4-MeOPhN2+~HSO4-_B3LYPG-6-31G_dp-NX-Scan-d89-09-n800
 OpenBabel11261921003D

 23 22  0  0  0  0  0  0  0  0999 V2000
   -1.9393   -1.0192   -0.3059 C   0  0  0  0  0  0  0  0  0  0  0  0
   -2.9890   -1.8356   -0.5569 N   0  0  0  0  0  0  0  0  0  0  0  0
   -3.8444   -2.5320   -0.7712 N   0  0  0  0  0  0  0  0  0  0  0  0
   -2.1680    0.3378    0.0560 C   0  0  0  0  0  0  0  0  0  0  0  0
   -1.0675    1.1300    0.2929 C   0  0  0  0  0  0  0  0  0  0  0  0
    0.2359    0.5958    0.1769 C   0  0  0  0  0  0  0  0  0  0  0  0
    1.2286    1.4449    0.4275 O   0  0  0  0  0  0  0  0  0  0  0  0
    2.5934    1.0233    0.3310 C   0  0  0  0  0  0  0  0  0  0  0  0
    0.4426   -0.7647   -0.1858 C   0  0  0  0  0  0  0  0  0  0  0  0
   -0.6394   -1.5764   -0.4289 C   0  0  0  0  0  0  0  0  0  0  0  0
   -3.1600    0.7983    0.1540 H   0  0  0  0  0  0  0  0  0  0  0  0
   -1.2384    2.1847    0.5484 H   0  0  0  0  0  0  0  0  0  0  0  0
    3.1848    1.9038    0.5774 H   0  0  0  0  0  0  0  0  0  0  0  0
    2.8307    0.6941   -0.6857 H   0  0  0  0  0  0  0  0  0  0  0  0
    2.8086    0.2234    1.0471 H   0  0  0  0  0  0  0  0  0  0  0  0
    1.4409   -1.1739   -0.2759 H   0  0  0  0  0  0  0  0  0  0  0  0
   -0.5109   -2.6160   -0.7094 H   0  0  0  0  0  0  0  0  0  0  0  0
   -3.6966    3.7465    0.5383 S   0  0  0  0  0  0  0  0  0  0  0  0
   -4.1961    2.3456    0.6226 O   0  0  0  0  0  0  0  0  0  0  0  0
   -4.4324    4.7466    1.3293 O   0  0  0  0  0  0  0  0  0  0  0  0
   -2.2144    3.8305    0.6452 O   0  0  0  0  0  0  0  0  0  0  0  0
   -4.0367    4.1571   -1.0517 O   0  0  0  0  0  0  0  0  0  0  0  0
   -4.3540    5.0704   -0.9904 H   0  0  0  0  0  0  0  0  0  0  0  0
  1  4  1  0  0  0  0
  2  1  1  0  0  0  0
  3  2  1  0  0  0  0
  4 11  1  0  0  0  0
  4  5  2  0  0  0  0
  5 12  1  0  0  0  0
  6  5  1  0  0  0  0
  6  7  1  0  0  0  0
  8  7  1  0  0  0  0
  8 13  1  0  0  0  0
  8 15  1  0  0  0  0
  9  6  2  0  0  0  0
 10  1  2  0  0  0  0
 10  9  1  0  0  0  0
 14  8  1  0  0  0  0
 16  9  1  0  0  0  0
 17 10  1  0  0  0  0
 18 19  2  0  0  0  0
 18 21  2  0  0  0  0
 18 20  1  0  0  0  0
 22 23  1  0  0  0  0
 22 18  1  0  0  0  0
M  RAD  3   2   2   3   3  20   2
M  END
