Coordinates from ORCA-job 4-MeOPhN2+~HSO4-_B3LYPG-6-31G_dp-NX-Scan-d89-09-n800
 OpenBabel11261921003D

 23 23  0  0  0  0  0  0  0  0999 V2000
   -1.5591    0.8172   -0.5708 C   0  0  0  0  0  0  0  0  0  0  0  0
   -2.7413    0.8468   -1.3420 N   0  0  0  0  0  0  0  0  0  0  0  0
   -3.8065    1.4128   -0.9954 N   0  0  0  0  0  0  0  0  0  0  0  0
   -1.3042    1.3462    0.7182 C   0  0  0  0  0  0  0  0  0  0  0  0
   -0.0538    1.1936    1.2944 C   0  0  0  0  0  0  0  0  0  0  0  0
    0.9787    0.5207    0.6186 C   0  0  0  0  0  0  0  0  0  0  0  0
    2.1585    0.4378    1.2811 O   0  0  0  0  0  0  0  0  0  0  0  0
    3.2483   -0.2276    0.6530 C   0  0  0  0  0  0  0  0  0  0  0  0
    0.7402   -0.0095   -0.6582 C   0  0  0  0  0  0  0  0  0  0  0  0
   -0.5159    0.1426   -1.2309 C   0  0  0  0  0  0  0  0  0  0  0  0
   -2.0707    1.8687    1.2700 H   0  0  0  0  0  0  0  0  0  0  0  0
    0.1535    1.5919    2.2817 H   0  0  0  0  0  0  0  0  0  0  0  0
    4.0812   -0.1638    1.3543 H   0  0  0  0  0  0  0  0  0  0  0  0
    3.5285    0.2613   -0.2878 H   0  0  0  0  0  0  0  0  0  0  0  0
    3.0168   -1.2819    0.4589 H   0  0  0  0  0  0  0  0  0  0  0  0
    1.5162   -0.5336   -1.2026 H   0  0  0  0  0  0  0  0  0  0  0  0
   -0.7221   -0.2603   -2.2165 H   0  0  0  0  0  0  0  0  0  0  0  0
   -5.5690    2.7166    0.2609 S   0  0  0  0  0  0  0  0  0  0  0  0
   -5.3571    4.1471    0.2634 O   0  0  0  0  0  0  0  0  0  0  0  0
   -3.9061    2.0019    0.0688 O   0  0  0  0  0  0  0  0  0  0  0  0
   -6.1398    2.0189    1.3916 O   0  0  0  0  0  0  0  0  0  0  0  0
   -6.1123    2.1860   -1.1171 O   0  0  0  0  0  0  0  0  0  0  0  0
   -5.2855    1.6817   -1.5089 H   0  0  0  0  0  0  0  0  0  0  0  0
  1  4  2  0  0  0  0
  2  3  2  0  0  0  0
  2  1  1  0  0  0  0
  3 20  1  0  0  0  0
  4 11  1  0  0  0  0
  4  5  1  0  0  0  0
  5 12  1  0  0  0  0
  6  7  1  0  0  0  0
  6  5  2  0  0  0  0
  8  7  1  0  0  0  0
  8 13  1  0  0  0  0
  9  6  1  0  0  0  0
 10  9  2  0  0  0  0
 10  1  1  0  0  0  0
 14  8  1  0  0  0  0
 15  8  1  0  0  0  0
 16  9  1  0  0  0  0
 17 10  1  0  0  0  0
 18 19  2  0  0  0  0
 18 21  2  0  0  0  0
 20 18  1  0  0  0  0
 22 18  1  0  0  0  0
 23 22  1  0  0  0  0
M  END
