Coordinates from ORCA-job 4-MeOPhN2+~HSO4-_B3LYPG-6-31G_dp-NX-Scan-d89-09-n800
 OpenBabel11261921003D

 23 22  0  0  0  0  0  0  0  0999 V2000
   -1.7531    0.5743   -0.4852 C   0  0  0  0  0  0  0  0  0  0  0  0
   -3.0706    0.4495   -0.8664 N   0  0  0  0  0  0  0  0  0  0  0  0
   -4.0845    0.2249   -1.2791 N   0  0  0  0  0  0  0  0  0  0  0  0
   -1.2233    1.8411   -0.1655 C   0  0  0  0  0  0  0  0  0  0  0  0
    0.1106    1.9037    0.1749 C   0  0  0  0  0  0  0  0  0  0  0  0
    0.9051    0.7375    0.2188 C   0  0  0  0  0  0  0  0  0  0  0  0
    2.1853    0.9252    0.5724 O   0  0  0  0  0  0  0  0  0  0  0  0
    3.0672   -0.1957    0.6589 C   0  0  0  0  0  0  0  0  0  0  0  0
    0.3481   -0.5196   -0.0999 C   0  0  0  0  0  0  0  0  0  0  0  0
   -0.9860   -0.6034   -0.4587 C   0  0  0  0  0  0  0  0  0  0  0  0
   -1.8802    2.7080   -0.2109 H   0  0  0  0  0  0  0  0  0  0  0  0
    0.5734    2.8506    0.4280 H   0  0  0  0  0  0  0  0  0  0  0  0
    4.0311    0.2128    0.9599 H   0  0  0  0  0  0  0  0  0  0  0  0
    3.1685   -0.6947   -0.3111 H   0  0  0  0  0  0  0  0  0  0  0  0
    2.7226   -0.9121    1.4127 H   0  0  0  0  0  0  0  0  0  0  0  0
    0.9451   -1.4220   -0.0697 H   0  0  0  0  0  0  0  0  0  0  0  0
   -1.4361   -1.5584   -0.7060 H   0  0  0  0  0  0  0  0  0  0  0  0
   -4.5572    2.8342    0.4693 S   0  0  0  0  0  0  0  0  0  0  0  0
   -3.8444    1.7804    1.2304 O   0  0  0  0  0  0  0  0  0  0  0  0
   -5.3151    3.8150    1.2390 O   0  0  0  0  0  0  0  0  0  0  0  0
   -3.7389    3.3790   -0.6524 O   0  0  0  0  0  0  0  0  0  0  0  0
   -5.7175    1.8922   -0.3310 O   0  0  0  0  0  0  0  0  0  0  0  0
   -6.1716    2.4928   -0.9436 H   0  0  0  0  0  0  0  0  0  0  0  0
  1 10  2  0  0  0  0
  1  4  1  0  0  0  0
  2  1  1  0  0  0  0
  3  2  1  0  0  0  0
  4  5  2  0  0  0  0
  5  6  1  0  0  0  0
  5 12  1  0  0  0  0
  6  7  1  0  0  0  0
  7  8  1  0  0  0  0
  8 13  1  0  0  0  0
  8 15  1  0  0  0  0
  9 16  1  0  0  0  0
  9  6  2  0  0  0  0
 10  9  1  0  0  0  0
 11  4  1  0  0  0  0
 14  8  1  0  0  0  0
 17 10  1  0  0  0  0
 18 19  2  0  0  0  0
 18 20  1  0  0  0  0
 21 18  2  0  0  0  0
 22 18  1  0  0  0  0
 23 22  1  0  0  0  0
M  RAD  3   2   2   3   3  20   2
M  END
