Coordinates from ORCA-job 4-MeOPhN2+~HSO4-_B3LYPG-6-31G_dp-NX-Scan-d89-09-n800
 OpenBabel11261921003D

 23 22  0  0  0  0  0  0  0  0999 V2000
   -1.6549    0.1996   -0.5607 C   0  0  0  0  0  0  0  0  0  0  0  0
   -2.9286   -0.0829   -1.0177 N   0  0  0  0  0  0  0  0  0  0  0  0
   -4.0098    0.0820   -1.3156 N   0  0  0  0  0  0  0  0  0  0  0  0
   -1.4138    1.4238    0.1011 C   0  0  0  0  0  0  0  0  0  0  0  0
   -0.1308    1.6637    0.5491 C   0  0  0  0  0  0  0  0  0  0  0  0
    0.8990    0.7206    0.3454 C   0  0  0  0  0  0  0  0  0  0  0  0
    2.1054    1.0716    0.8212 O   0  0  0  0  0  0  0  0  0  0  0  0
    3.2074    0.1744    0.6755 C   0  0  0  0  0  0  0  0  0  0  0  0
    0.6309   -0.4978   -0.3123 C   0  0  0  0  0  0  0  0  0  0  0  0
   -0.6536   -0.7623   -0.7582 C   0  0  0  0  0  0  0  0  0  0  0  0
   -2.2288    2.1257    0.2784 H   0  0  0  0  0  0  0  0  0  0  0  0
    0.1072    2.5828    1.0729 H   0  0  0  0  0  0  0  0  0  0  0  0
    4.0579    0.6775    1.1342 H   0  0  0  0  0  0  0  0  0  0  0  0
    3.4236   -0.0190   -0.3809 H   0  0  0  0  0  0  0  0  0  0  0  0
    3.0190   -0.7715    1.1950 H   0  0  0  0  0  0  0  0  0  0  0  0
    1.4105   -1.2315   -0.4717 H   0  0  0  0  0  0  0  0  0  0  0  0
   -0.8866   -1.6940   -1.2619 H   0  0  0  0  0  0  0  0  0  0  0  0
   -4.9860    2.4283    0.1467 S   0  0  0  0  0  0  0  0  0  0  0  0
   -5.8146    1.3163    0.6112 O   0  0  0  0  0  0  0  0  0  0  0  0
   -3.9466    2.9366    1.0743 O   0  0  0  0  0  0  0  0  0  0  0  0
   -4.3922    2.1909   -1.2304 O   0  0  0  0  0  0  0  0  0  0  0  0
   -6.0227    3.6935   -0.0697 O   0  0  0  0  0  0  0  0  0  0  0  0
   -5.5136    4.4867    0.1587 H   0  0  0  0  0  0  0  0  0  0  0  0
  1  4  1  0  0  0  0
  2  1  1  0  0  0  0
  3  2  1  0  0  0  0
  4 11  1  0  0  0  0
  4  5  2  0  0  0  0
  5 12  1  0  0  0  0
  6  5  1  0  0  0  0
  6  7  1  0  0  0  0
  8  7  1  0  0  0  0
  8 13  1  0  0  0  0
  8 15  1  0  0  0  0
  9  6  2  0  0  0  0
 10  1  2  0  0  0  0
 10  9  1  0  0  0  0
 14  8  1  0  0  0  0
 16  9  1  0  0  0  0
 17 10  1  0  0  0  0
 18 19  2  0  0  0  0
 18 20  1  0  0  0  0
 21 18  2  0  0  0  0
 22 18  1  0  0  0  0
 22 23  1  0  0  0  0
M  RAD  3   2   2   3   3  20   2
M  END
