Coordinates from ORCA-job 4-MeOPhN2+~HSO4-_B3LYPG-6-31G_dp-NX-Scan-d89-09-n800
 OpenBabel11261921003D

 23 22  0  0  0  0  0  0  0  0999 V2000
   -1.8877   -0.6159   -0.1929 C   0  0  0  0  0  0  0  0  0  0  0  0
   -3.0938   -1.2010   -0.4192 N   0  0  0  0  0  0  0  0  0  0  0  0
   -4.0959   -1.6660   -0.6037 N   0  0  0  0  0  0  0  0  0  0  0  0
   -1.8922    0.7397    0.2145 C   0  0  0  0  0  0  0  0  0  0  0  0
   -0.6753    1.3488    0.4191 C   0  0  0  0  0  0  0  0  0  0  0  0
    0.5229    0.6273    0.2325 C   0  0  0  0  0  0  0  0  0  0  0  0
    1.6495    1.3061    0.4587 O   0  0  0  0  0  0  0  0  0  0  0  0
    2.9233    0.6753    0.2894 C   0  0  0  0  0  0  0  0  0  0  0  0
    0.4980   -0.7363   -0.1750 C   0  0  0  0  0  0  0  0  0  0  0  0
   -0.7058   -1.3679   -0.3938 C   0  0  0  0  0  0  0  0  0  0  0  0
   -2.8488    1.2715    0.3323 H   0  0  0  0  0  0  0  0  0  0  0  0
   -0.6669    2.3952    0.7059 H   0  0  0  0  0  0  0  0  0  0  0  0
    3.6594    1.4386    0.5380 H   0  0  0  0  0  0  0  0  0  0  0  0
    3.0669    0.3519   -0.7468 H   0  0  0  0  0  0  0  0  0  0  0  0
    3.0344   -0.1763    0.9688 H   0  0  0  0  0  0  0  0  0  0  0  0
    1.4172   -1.2878   -0.3225 H   0  0  0  0  0  0  0  0  0  0  0  0
   -0.7490   -2.4033   -0.7124 H   0  0  0  0  0  0  0  0  0  0  0  0
   -4.1827    3.3954    0.3515 S   0  0  0  0  0  0  0  0  0  0  0  0
   -4.5155    1.9502    0.1562 O   0  0  0  0  0  0  0  0  0  0  0  0
   -5.0874    4.1460    1.2369 O   0  0  0  0  0  0  0  0  0  0  0  0
   -2.7328    3.5949    0.5989 O   0  0  0  0  0  0  0  0  0  0  0  0
   -4.4673    4.0387   -1.1673 O   0  0  0  0  0  0  0  0  0  0  0  0
   -4.8920    4.8901   -0.9843 H   0  0  0  0  0  0  0  0  0  0  0  0
  1  4  1  0  0  0  0
  2  1  1  0  0  0  0
  3  2  1  0  0  0  0
  4 11  1  0  0  0  0
  4  5  2  0  0  0  0
  5 12  1  0  0  0  0
  6  5  1  0  0  0  0
  6  7  1  0  0  0  0
  8  7  1  0  0  0  0
  8 13  1  0  0  0  0
  8 15  1  0  0  0  0
  9  6  2  0  0  0  0
 10  1  2  0  0  0  0
 10  9  1  0  0  0  0
 14  8  1  0  0  0  0
 16  9  1  0  0  0  0
 17 10  1  0  0  0  0
 18 21  2  0  0  0  0
 18 20  1  0  0  0  0
 19 18  2  0  0  0  0
 22 23  1  0  0  0  0
 22 18  1  0  0  0  0
M  RAD  3   2   2   3   3  20   2
M  END
