Coordinates from ORCA-job 4-MeOPhN2+~HSO4-_B3LYPG-6-31G_dp-NX-Scan-d89-09-n800
 OpenBabel11261921003D

 23 22  0  0  0  0  0  0  0  0999 V2000
   -1.7357    0.6437   -0.4929 C   0  0  0  0  0  0  0  0  0  0  0  0
   -3.0542    0.5539   -0.8786 N   0  0  0  0  0  0  0  0  0  0  0  0
   -4.0938    0.4006   -1.2582 N   0  0  0  0  0  0  0  0  0  0  0  0
   -1.1837    1.8909   -0.1362 C   0  0  0  0  0  0  0  0  0  0  0  0
    0.1483    1.9210    0.2161 C   0  0  0  0  0  0  0  0  0  0  0  0
    0.9212    0.7399    0.2342 C   0  0  0  0  0  0  0  0  0  0  0  0
    2.2022    0.8950    0.6026 O   0  0  0  0  0  0  0  0  0  0  0  0
    3.0622   -0.2442    0.6649 C   0  0  0  0  0  0  0  0  0  0  0  0
    0.3443   -0.4969   -0.1236 C   0  0  0  0  0  0  0  0  0  0  0  0
   -0.9888   -0.5462   -0.4947 C   0  0  0  0  0  0  0  0  0  0  0  0
   -1.8231    2.7675   -0.1674 H   0  0  0  0  0  0  0  0  0  0  0  0
    0.6259    2.8525    0.4972 H   0  0  0  0  0  0  0  0  0  0  0  0
    4.0312    0.1376    0.9843 H   0  0  0  0  0  0  0  0  0  0  0  0
    3.1620   -0.7185   -0.3174 H   0  0  0  0  0  0  0  0  0  0  0  0
    2.6984   -0.9745    1.3961 H   0  0  0  0  0  0  0  0  0  0  0  0
    0.9250   -1.4103   -0.1146 H   0  0  0  0  0  0  0  0  0  0  0  0
   -1.4536   -1.4858   -0.7718 H   0  0  0  0  0  0  0  0  0  0  0  0
   -4.5623    2.8105    0.4159 S   0  0  0  0  0  0  0  0  0  0  0  0
   -3.8034    1.9014    1.3009 O   0  0  0  0  0  0  0  0  0  0  0  0
   -5.3561    3.8609    1.0262 O   0  0  0  0  0  0  0  0  0  0  0  0
   -3.7835    3.2136   -0.7909 O   0  0  0  0  0  0  0  0  0  0  0  0
   -5.7306    1.7402   -0.1975 O   0  0  0  0  0  0  0  0  0  0  0  0
   -6.2735    2.2625   -0.8100 H   0  0  0  0  0  0  0  0  0  0  0  0
  1  4  1  0  0  0  0
  2  1  1  0  0  0  0
  3  2  1  0  0  0  0
  4  5  2  0  0  0  0
  5  6  1  0  0  0  0
  5 12  1  0  0  0  0
  6  7  1  0  0  0  0
  7  8  1  0  0  0  0
  8 13  1  0  0  0  0
  8 15  1  0  0  0  0
  9 16  1  0  0  0  0
  9  6  2  0  0  0  0
 10  1  2  0  0  0  0
 10  9  1  0  0  0  0
 11  4  1  0  0  0  0
 14  8  1  0  0  0  0
 17 10  1  0  0  0  0
 18 20  2  0  0  0  0
 18 19  1  0  0  0  0
 21 18  2  0  0  0  0
 22 18  1  0  0  0  0
 23 22  1  0  0  0  0
M  RAD  3   2   2   3   3  19   2
M  END
