Coordinates from ORCA-job 4-MeOPhN2+~HSO4-_B3LYPG-6-31G_dp-NX-Scan-d89-09-n800
 OpenBabel11261921003D

 23 22  0  0  0  0  0  0  0  0999 V2000
   -1.6589    0.3684   -0.1944 C   0  0  0  0  0  0  0  0  0  0  0  0
   -2.9939    0.0524   -0.3573 N   0  0  0  0  0  0  0  0  0  0  0  0
   -4.0019   -0.4368   -0.4726 N   0  0  0  0  0  0  0  0  0  0  0  0
   -1.2544    1.6832    0.1078 C   0  0  0  0  0  0  0  0  0  0  0  0
    0.0928    1.9215    0.2894 C   0  0  0  0  0  0  0  0  0  0  0  0
    1.0348    0.8789    0.1709 C   0  0  0  0  0  0  0  0  0  0  0  0
    2.3162    1.2312    0.3663 O   0  0  0  0  0  0  0  0  0  0  0  0
    3.3421    0.2428    0.2622 C   0  0  0  0  0  0  0  0  0  0  0  0
    0.6109   -0.4312   -0.1350 C   0  0  0  0  0  0  0  0  0  0  0  0
   -0.7375   -0.6879   -0.3149 C   0  0  0  0  0  0  0  0  0  0  0  0
   -2.0118    2.4587    0.1615 H   0  0  0  0  0  0  0  0  0  0  0  0
    0.4536    2.9167    0.5230 H   0  0  0  0  0  0  0  0  0  0  0  0
    4.2765    0.7685    0.4563 H   0  0  0  0  0  0  0  0  0  0  0  0
    3.3709   -0.1935   -0.7422 H   0  0  0  0  0  0  0  0  0  0  0  0
    3.2066   -0.5486    1.0077 H   0  0  0  0  0  0  0  0  0  0  0  0
    1.3212   -1.2422   -0.2309 H   0  0  0  0  0  0  0  0  0  0  0  0
   -1.0843   -1.6888   -0.5482 H   0  0  0  0  0  0  0  0  0  0  0  0
   -5.2254    2.4365   -0.3325 S   0  0  0  0  0  0  0  0  0  0  0  0
   -6.1730    3.3868   -0.9162 O   0  0  0  0  0  0  0  0  0  0  0  0
   -5.6825    1.0105   -0.3437 O   0  0  0  0  0  0  0  0  0  0  0  0
   -3.8088    2.5416   -0.7655 O   0  0  0  0  0  0  0  0  0  0  0  0
   -5.1205    2.8488    1.2792 O   0  0  0  0  0  0  0  0  0  0  0  0
   -5.9942    3.1978    1.5137 H   0  0  0  0  0  0  0  0  0  0  0  0
  1  4  1  0  0  0  0
  2  1  1  0  0  0  0
  3  2  1  0  0  0  0
  4 11  1  0  0  0  0
  4  5  2  0  0  0  0
  5 12  1  0  0  0  0
  6  5  1  0  0  0  0
  6  7  1  0  0  0  0
  8  7  1  0  0  0  0
  8 13  1  0  0  0  0
  8 15  1  0  0  0  0
  9  6  2  0  0  0  0
 10  1  2  0  0  0  0
 10  9  1  0  0  0  0
 14  8  1  0  0  0  0
 16  9  1  0  0  0  0
 17 10  1  0  0  0  0
 18 22  1  0  0  0  0
 19 18  2  0  0  0  0
 20 18  1  0  0  0  0
 21 18  2  0  0  0  0
 22 23  1  0  0  0  0
M  RAD  3   2   2   3   3  20   2
M  END
