Coordinates from ORCA-job 4-MeOPhN2+~HSO4-_B3LYPG-6-31G_dp-NX-Scan-d89-09-n800
 OpenBabel11261921003D

 23 22  0  0  0  0  0  0  0  0999 V2000
   -1.9342   -0.9725   -0.2978 C   0  0  0  0  0  0  0  0  0  0  0  0
   -3.0016   -1.7679   -0.5455 N   0  0  0  0  0  0  0  0  0  0  0  0
   -3.8714   -2.4464   -0.7570 N   0  0  0  0  0  0  0  0  0  0  0  0
   -2.1376    0.3874    0.0649 C   0  0  0  0  0  0  0  0  0  0  0  0
   -1.0202    1.1574    0.2986 C   0  0  0  0  0  0  0  0  0  0  0  0
    0.2724    0.5998    0.1788 C   0  0  0  0  0  0  0  0  0  0  0  0
    1.2819    1.4306    0.4266 O   0  0  0  0  0  0  0  0  0  0  0  0
    2.6380    0.9825    0.3263 C   0  0  0  0  0  0  0  0  0  0  0  0
    0.4521   -0.7642   -0.1850 C   0  0  0  0  0  0  0  0  0  0  0  0
   -0.6461   -1.5551   -0.4251 C   0  0  0  0  0  0  0  0  0  0  0  0
   -3.1247    0.8643    0.1661 H   0  0  0  0  0  0  0  0  0  0  0  0
   -1.1755    2.2114    0.5571 H   0  0  0  0  0  0  0  0  0  0  0  0
    3.2473    1.8510    0.5720 H   0  0  0  0  0  0  0  0  0  0  0  0
    2.8665    0.6496   -0.6912 H   0  0  0  0  0  0  0  0  0  0  0  0
    2.8395    0.1780    1.0413 H   0  0  0  0  0  0  0  0  0  0  0  0
    1.4421   -1.1923   -0.2781 H   0  0  0  0  0  0  0  0  0  0  0  0
   -0.5384   -2.5969   -0.7064 H   0  0  0  0  0  0  0  0  0  0  0  0
   -3.7647    3.7116    0.5295 S   0  0  0  0  0  0  0  0  0  0  0  0
   -4.2618    2.3074    0.5882 O   0  0  0  0  0  0  0  0  0  0  0  0
   -4.5242    4.6995    1.3130 O   0  0  0  0  0  0  0  0  0  0  0  0
   -2.2865    3.7995    0.6712 O   0  0  0  0  0  0  0  0  0  0  0  0
   -4.0699    4.1369   -1.0637 O   0  0  0  0  0  0  0  0  0  0  0  0
   -4.4046    5.0438   -0.9990 H   0  0  0  0  0  0  0  0  0  0  0  0
  1  4  1  0  0  0  0
  2  1  1  0  0  0  0
  3  2  1  0  0  0  0
  4 11  1  0  0  0  0
  4  5  2  0  0  0  0
  5 12  1  0  0  0  0
  6  5  1  0  0  0  0
  6  7  1  0  0  0  0
  8  7  1  0  0  0  0
  8 13  1  0  0  0  0
  8 15  1  0  0  0  0
  9  6  2  0  0  0  0
 10  1  2  0  0  0  0
 10  9  1  0  0  0  0
 14  8  1  0  0  0  0
 16  9  1  0  0  0  0
 17 10  1  0  0  0  0
 18 19  2  0  0  0  0
 18 21  2  0  0  0  0
 18 20  1  0  0  0  0
 22 23  1  0  0  0  0
 22 18  1  0  0  0  0
M  RAD  3   2   2   3   3  20   2
M  END
