Coordinates from ORCA-job 4-MeOPhN2+~HSO4-_B3LYPG-6-31G_dp-NX-Scan-d89-09-n800
 OpenBabel11261921003D

 23 22  0  0  0  0  0  0  0  0999 V2000
   -1.9540   -1.2953   -0.3392 C   0  0  0  0  0  0  0  0  0  0  0  0
   -2.8664   -2.2599   -0.6012 N   0  0  0  0  0  0  0  0  0  0  0  0
   -3.5627   -3.1140   -0.8361 N   0  0  0  0  0  0  0  0  0  0  0  0
   -2.3335    0.0409    0.0011 C   0  0  0  0  0  0  0  0  0  0  0  0
   -1.3344    0.9537    0.2397 C   0  0  0  0  0  0  0  0  0  0  0  0
    0.0255    0.5610    0.1510 C   0  0  0  0  0  0  0  0  0  0  0  0
    0.9069    1.5177    0.4042 O   0  0  0  0  0  0  0  0  0  0  0  0
    2.3138    1.2585    0.3411 C   0  0  0  0  0  0  0  0  0  0  0  0
    0.3892   -0.7712   -0.1866 C   0  0  0  0  0  0  0  0  0  0  0  0
   -0.5937   -1.6980   -0.4320 C   0  0  0  0  0  0  0  0  0  0  0  0
   -3.3670    0.3714    0.0747 H   0  0  0  0  0  0  0  0  0  0  0  0
   -1.5710    2.0058    0.4738 H   0  0  0  0  0  0  0  0  0  0  0  0
    2.7903    2.2063    0.5855 H   0  0  0  0  0  0  0  0  0  0  0  0
    2.6086    0.9461   -0.6658 H   0  0  0  0  0  0  0  0  0  0  0  0
    2.6047    0.4988    1.0739 H   0  0  0  0  0  0  0  0  0  0  0  0
    1.4278   -1.0693   -0.2563 H   0  0  0  0  0  0  0  0  0  0  0  0
   -0.3472   -2.7208   -0.6948 H   0  0  0  0  0  0  0  0  0  0  0  0
   -3.3462    3.9676    0.5894 S   0  0  0  0  0  0  0  0  0  0  0  0
   -4.0021    2.6463    0.7662 O   0  0  0  0  0  0  0  0  0  0  0  0
   -3.8472    5.0891    1.4091 O   0  0  0  0  0  0  0  0  0  0  0  0
   -1.8594    3.8425    0.5489 O   0  0  0  0  0  0  0  0  0  0  0  0
   -3.7786    4.4026   -0.9735 O   0  0  0  0  0  0  0  0  0  0  0  0
   -4.0251    5.3354   -0.8882 H   0  0  0  0  0  0  0  0  0  0  0  0
  1  4  1  0  0  0  0
  2  1  1  0  0  0  0
  3  2  1  0  0  0  0
  4 11  1  0  0  0  0
  4  5  2  0  0  0  0
  5 12  1  0  0  0  0
  6  5  1  0  0  0  0
  6  7  1  0  0  0  0
  8  7  1  0  0  0  0
  8 13  1  0  0  0  0
  8 15  1  0  0  0  0
  9  6  2  0  0  0  0
 10  1  2  0  0  0  0
 10  9  1  0  0  0  0
 14  8  1  0  0  0  0
 16  9  1  0  0  0  0
 17 10  1  0  0  0  0
 18 19  2  0  0  0  0
 18 20  1  0  0  0  0
 21 18  2  0  0  0  0
 22 23  1  0  0  0  0
 22 18  1  0  0  0  0
M  RAD  3   2   2   3   3  20   2
M  END
