Coordinates from ORCA-job 4-MeOPhN2+~HSO4-_B3LYPG-6-31G_dp-NX-Scan-d89-09-n800
 OpenBabel11261921003D

 23 22  0  0  0  0  0  0  0  0999 V2000
   -1.7446    0.1633   -0.7438 C   0  0  0  0  0  0  0  0  0  0  0  0
   -2.9882   -0.1736   -1.2164 N   0  0  0  0  0  0  0  0  0  0  0  0
   -3.9010   -0.6128   -1.6889 N   0  0  0  0  0  0  0  0  0  0  0  0
   -1.3873    1.5154   -0.5566 C   0  0  0  0  0  0  0  0  0  0  0  0
   -0.1046    1.7699   -0.1210 C   0  0  0  0  0  0  0  0  0  0  0  0
    0.8008    0.7198    0.1426 C   0  0  0  0  0  0  0  0  0  0  0  0
    2.0120    1.0948    0.5714 O   0  0  0  0  0  0  0  0  0  0  0  0
    2.9915    0.1041    0.8959 C   0  0  0  0  0  0  0  0  0  0  0  0
    0.4119   -0.6269   -0.0468 C   0  0  0  0  0  0  0  0  0  0  0  0
   -0.8632   -0.9095   -0.4955 C   0  0  0  0  0  0  0  0  0  0  0  0
   -2.1130    2.3233   -0.7136 H   0  0  0  0  0  0  0  0  0  0  0  0
    0.2207    2.7899    0.0504 H   0  0  0  0  0  0  0  0  0  0  0  0
    3.8699    0.6589    1.2226 H   0  0  0  0  0  0  0  0  0  0  0  0
    3.2462   -0.5013    0.0191 H   0  0  0  0  0  0  0  0  0  0  0  0
    2.6432   -0.5420    1.7087 H   0  0  0  0  0  0  0  0  0  0  0  0
    1.0943   -1.4415    0.1577 H   0  0  0  0  0  0  0  0  0  0  0  0
   -1.1861   -1.9340   -0.6462 H   0  0  0  0  0  0  0  0  0  0  0  0
   -4.3863    2.9112    0.4839 S   0  0  0  0  0  0  0  0  0  0  0  0
   -4.1410    1.4387    0.4718 O   0  0  0  0  0  0  0  0  0  0  0  0
   -4.5918    3.5349    1.8029 O   0  0  0  0  0  0  0  0  0  0  0  0
   -3.4298    3.6271   -0.4070 O   0  0  0  0  0  0  0  0  0  0  0  0
   -5.8688    3.0297   -0.2721 O   0  0  0  0  0  0  0  0  0  0  0  0
   -6.3062    3.7758    0.1657 H   0  0  0  0  0  0  0  0  0  0  0  0
  1  4  2  0  0  0  0
  1 10  1  0  0  0  0
  2  1  1  0  0  0  0
  3  2  1  0  0  0  0
  4  5  1  0  0  0  0
  5 12  1  0  0  0  0
  5  6  2  0  0  0  0
  6  7  1  0  0  0  0
  7  8  1  0  0  0  0
  8 13  1  0  0  0  0
  8 15  1  0  0  0  0
  9  6  1  0  0  0  0
  9 16  1  0  0  0  0
 10  9  2  0  0  0  0
 11  4  1  0  0  0  0
 14  8  1  0  0  0  0
 17 10  1  0  0  0  0
 18 20  1  0  0  0  0
 19 18  2  0  0  0  0
 21 18  2  0  0  0  0
 22 23  1  0  0  0  0
 22 18  1  0  0  0  0
M  RAD  3   2   2   3   3  20   2
M  END
