Coordinates from ORCA-job 4-MeOPhN2+~HSO4-_B3LYPG-6-31G_dp-NX-Scan-d89-09-n800
 OpenBabel11261921003D

 23 22  0  0  0  0  0  0  0  0999 V2000
   -1.9077   -0.8115   -0.2634 C   0  0  0  0  0  0  0  0  0  0  0  0
   -3.0385   -1.5245   -0.4925 N   0  0  0  0  0  0  0  0  0  0  0  0
   -3.9662   -2.1248   -0.6866 N   0  0  0  0  0  0  0  0  0  0  0  0
   -2.0214    0.5640    0.0674 C   0  0  0  0  0  0  0  0  0  0  0  0
   -0.8520    1.2596    0.2824 C   0  0  0  0  0  0  0  0  0  0  0  0
    0.3990    0.6140    0.1765 C   0  0  0  0  0  0  0  0  0  0  0  0
    1.4648    1.3810    0.4033 O   0  0  0  0  0  0  0  0  0  0  0  0
    2.7857    0.8360    0.3146 C   0  0  0  0  0  0  0  0  0  0  0  0
    0.4840   -0.7676   -0.1542 C   0  0  0  0  0  0  0  0  0  0  0  0
   -0.6663   -1.4876   -0.3769 C   0  0  0  0  0  0  0  0  0  0  0  0
   -2.9990    1.0781    0.1481 H   0  0  0  0  0  0  0  0  0  0  0  0
   -0.9375    2.3177    0.5235 H   0  0  0  0  0  0  0  0  0  0  0  0
    3.4556    1.6641    0.5412 H   0  0  0  0  0  0  0  0  0  0  0  0
    2.9901    0.4651   -0.6951 H   0  0  0  0  0  0  0  0  0  0  0  0
    2.9307    0.0354    1.0475 H   0  0  0  0  0  0  0  0  0  0  0  0
    1.4425   -1.2638   -0.2354 H   0  0  0  0  0  0  0  0  0  0  0  0
   -0.6307   -2.5404   -0.6344 H   0  0  0  0  0  0  0  0  0  0  0  0
   -3.9832    3.5663    0.4638 S   0  0  0  0  0  0  0  0  0  0  0  0
   -4.4430    2.1503    0.3357 O   0  0  0  0  0  0  0  0  0  0  0  0
   -4.8010    4.4282    1.3322 O   0  0  0  0  0  0  0  0  0  0  0  0
   -2.5163    3.6600    0.6696 O   0  0  0  0  0  0  0  0  0  0  0  0
   -4.2438    4.1799   -1.0737 O   0  0  0  0  0  0  0  0  0  0  0  0
   -4.6672    5.0354   -0.9087 H   0  0  0  0  0  0  0  0  0  0  0  0
  1  4  1  0  0  0  0
  2  1  1  0  0  0  0
  3  2  1  0  0  0  0
  4 11  1  0  0  0  0
  4  5  2  0  0  0  0
  5 12  1  0  0  0  0
  6  5  1  0  0  0  0
  6  7  1  0  0  0  0
  8  7  1  0  0  0  0
  8 13  1  0  0  0  0
  8 15  1  0  0  0  0
  9  6  2  0  0  0  0
 10  1  2  0  0  0  0
 10  9  1  0  0  0  0
 14  8  1  0  0  0  0
 16  9  1  0  0  0  0
 17 10  1  0  0  0  0
 18 21  2  0  0  0  0
 18 20  1  0  0  0  0
 19 18  2  0  0  0  0
 22 23  1  0  0  0  0
 22 18  1  0  0  0  0
M  RAD  3   2   2   3   3  20   2
M  END
