Coordinates from ORCA-job 4-MeOPhN2+~HSO4-_B3LYPG-6-31G_dp-NX-Scan-d89-09-n800
 OpenBabel11261921003D

 23 22  0  0  0  0  0  0  0  0999 V2000
   -1.5171    0.8016   -0.5914 C   0  0  0  0  0  0  0  0  0  0  0  0
   -2.7046    0.8435   -1.3506 N   0  0  0  0  0  0  0  0  0  0  0  0
   -3.7427    1.4555   -0.8703 N   0  0  0  0  0  0  0  0  0  0  0  0
   -1.2602    1.3329    0.6948 C   0  0  0  0  0  0  0  0  0  0  0  0
   -0.0088    1.1797    1.2751 C   0  0  0  0  0  0  0  0  0  0  0  0
    1.0219    0.5026    0.6069 C   0  0  0  0  0  0  0  0  0  0  0  0
    2.2054    0.4172    1.2730 O   0  0  0  0  0  0  0  0  0  0  0  0
    3.2877   -0.2548    0.6443 C   0  0  0  0  0  0  0  0  0  0  0  0
    0.7816   -0.0299   -0.6678 C   0  0  0  0  0  0  0  0  0  0  0  0
   -0.4731    0.1239   -1.2460 C   0  0  0  0  0  0  0  0  0  0  0  0
   -2.0246    1.8608    1.2456 H   0  0  0  0  0  0  0  0  0  0  0  0
    0.1955    1.5826    2.2613 H   0  0  0  0  0  0  0  0  0  0  0  0
    4.1243   -0.1953    1.3421 H   0  0  0  0  0  0  0  0  0  0  0  0
    3.5696    0.2286   -0.2995 H   0  0  0  0  0  0  0  0  0  0  0  0
    3.0514   -1.3089    0.4519 H   0  0  0  0  0  0  0  0  0  0  0  0
    1.5562   -0.5583   -1.2104 H   0  0  0  0  0  0  0  0  0  0  0  0
   -0.6736   -0.2821   -2.2318 H   0  0  0  0  0  0  0  0  0  0  0  0
   -6.1216    2.9029    0.2583 S   0  0  0  0  0  0  0  0  0  0  0  0
   -5.6853    4.2843    0.3533 O   0  0  0  0  0  0  0  0  0  0  0  0
   -3.9054    1.9679    0.0319 O   0  0  0  0  0  0  0  0  0  0  0  0
   -6.4704    2.1548    1.4525 O   0  0  0  0  0  0  0  0  0  0  0  0
   -6.4131    2.3328   -1.0559 O   0  0  0  0  0  0  0  0  0  0  0  0
   -4.5145    1.3729   -1.5823 H   0  0  0  0  0  0  0  0  0  0  0  0
  1  4  2  0  0  0  0
  2  3  1  0  0  0  0
  2  1  1  0  0  0  0
  3 20  1  0  0  0  0
  4 11  1  0  0  0  0
  4  5  1  0  0  0  0
  5 12  1  0  0  0  0
  6  7  1  0  0  0  0
  6  5  2  0  0  0  0
  8  7  1  0  0  0  0
  8 13  1  0  0  0  0
  9  6  1  0  0  0  0
 10  9  2  0  0  0  0
 10  1  1  0  0  0  0
 14  8  1  0  0  0  0
 15  8  1  0  0  0  0
 16  9  1  0  0  0  0
 17 10  1  0  0  0  0
 18 19  2  0  0  0  0
 18 21  1  0  0  0  0
 22 18  1  0  0  0  0
 23  3  1  0  0  0  0
M  RAD  4   2   2  20   2  21   2  22   2
M  END
