Coordinates from ORCA-job 4-MeOPhN2+~HSO4-_B3LYPG-6-31G_dp-NX-Scan-d89-09-n800
 OpenBabel11261921003D

 23 22  0  0  0  0  0  0  0  0999 V2000
   -1.9317   -0.9536   -0.2941 C   0  0  0  0  0  0  0  0  0  0  0  0
   -3.0068   -1.7395   -0.5397 N   0  0  0  0  0  0  0  0  0  0  0  0
   -3.8840   -2.4090   -0.7491 N   0  0  0  0  0  0  0  0  0  0  0  0
   -2.1247    0.4078    0.0678 C   0  0  0  0  0  0  0  0  0  0  0  0
   -1.0008    1.1691    0.2997 C   0  0  0  0  0  0  0  0  0  0  0  0
    0.2872    0.6017    0.1790 C   0  0  0  0  0  0  0  0  0  0  0  0
    1.3036    1.4250    0.4250 O   0  0  0  0  0  0  0  0  0  0  0  0
    2.6559    0.9659    0.3240 C   0  0  0  0  0  0  0  0  0  0  0  0
    0.4558   -0.7639   -0.1839 C   0  0  0  0  0  0  0  0  0  0  0  0
   -0.6487   -1.5466   -0.4224 C   0  0  0  0  0  0  0  0  0  0  0  0
   -3.1106    0.8899    0.1689 H   0  0  0  0  0  0  0  0  0  0  0  0
   -1.1498    2.2228    0.5587 H   0  0  0  0  0  0  0  0  0  0  0  0
    3.2725    1.8295    0.5686 H   0  0  0  0  0  0  0  0  0  0  0  0
    2.8810    0.6305   -0.6935 H   0  0  0  0  0  0  0  0  0  0  0  0
    2.8515    0.1602    1.0393 H   0  0  0  0  0  0  0  0  0  0  0  0
    1.4425   -1.1996   -0.2776 H   0  0  0  0  0  0  0  0  0  0  0  0
   -0.5493   -2.5894   -0.7029 H   0  0  0  0  0  0  0  0  0  0  0  0
   -3.7920    3.6959    0.5252 S   0  0  0  0  0  0  0  0  0  0  0  0
   -4.2867    2.2897    0.5681 O   0  0  0  0  0  0  0  0  0  0  0  0
   -4.5633    4.6754    1.3076 O   0  0  0  0  0  0  0  0  0  0  0  0
   -2.3162    3.7856    0.6835 O   0  0  0  0  0  0  0  0  0  0  0  0
   -4.0809    4.1326   -1.0680 O   0  0  0  0  0  0  0  0  0  0  0  0
   -4.4262    5.0352   -0.9993 H   0  0  0  0  0  0  0  0  0  0  0  0
  1  4  1  0  0  0  0
  2  1  1  0  0  0  0
  3  2  1  0  0  0  0
  4 11  1  0  0  0  0
  4  5  2  0  0  0  0
  5 12  1  0  0  0  0
  6  5  1  0  0  0  0
  6  7  1  0  0  0  0
  8  7  1  0  0  0  0
  8 13  1  0  0  0  0
  8 15  1  0  0  0  0
  9  6  2  0  0  0  0
 10  1  2  0  0  0  0
 10  9  1  0  0  0  0
 14  8  1  0  0  0  0
 16  9  1  0  0  0  0
 17 10  1  0  0  0  0
 18 19  2  0  0  0  0
 18 21  2  0  0  0  0
 18 20  1  0  0  0  0
 22 23  1  0  0  0  0
 22 18  1  0  0  0  0
M  RAD  3   2   2   3   3  20   2
M  END
