Coordinates from ORCA-job 4-MeOPhN2+~HSO4-_B3LYPG-6-31G_dp-NX-Scan-d89-09-n800
 OpenBabel11261921003D

 23 22  0  0  0  0  0  0  0  0999 V2000
   -1.8914   -0.7191   -0.2443 C   0  0  0  0  0  0  0  0  0  0  0  0
   -3.0610   -1.3729   -0.4634 N   0  0  0  0  0  0  0  0  0  0  0  0
   -4.0308   -1.9050   -0.6451 N   0  0  0  0  0  0  0  0  0  0  0  0
   -1.9526    0.6601    0.0777 C   0  0  0  0  0  0  0  0  0  0  0  0
   -0.7593    1.3149    0.2865 C   0  0  0  0  0  0  0  0  0  0  0  0
    0.4658    0.6219    0.1826 C   0  0  0  0  0  0  0  0  0  0  0  0
    1.5618    1.3489    0.4038 O   0  0  0  0  0  0  0  0  0  0  0  0
    2.8598    0.7513    0.3183 C   0  0  0  0  0  0  0  0  0  0  0  0
    0.4972   -0.7638   -0.1406 C   0  0  0  0  0  0  0  0  0  0  0  0
   -0.6793   -1.4437   -0.3574 C   0  0  0  0  0  0  0  0  0  0  0  0
   -2.9229    1.1872    0.1492 H   0  0  0  0  0  0  0  0  0  0  0  0
   -0.7994    2.3748    0.5212 H   0  0  0  0  0  0  0  0  0  0  0  0
    3.5623    1.5524    0.5436 H   0  0  0  0  0  0  0  0  0  0  0  0
    3.0507    0.3697   -0.6901 H   0  0  0  0  0  0  0  0  0  0  0  0
    2.9720   -0.0527    1.0534 H   0  0  0  0  0  0  0  0  0  0  0  0
    1.4367   -1.2948   -0.2215 H   0  0  0  0  0  0  0  0  0  0  0  0
   -0.6825   -2.4983   -0.6097 H   0  0  0  0  0  0  0  0  0  0  0  0
   -4.0838    3.4788    0.4087 S   0  0  0  0  0  0  0  0  0  0  0  0
   -4.4872    2.0536    0.2033 O   0  0  0  0  0  0  0  0  0  0  0  0
   -4.9087    4.2453    1.3563 O   0  0  0  0  0  0  0  0  0  0  0  0
   -2.6163    3.6171    0.5797 O   0  0  0  0  0  0  0  0  0  0  0  0
   -4.4201    4.1714   -1.0776 O   0  0  0  0  0  0  0  0  0  0  0  0
   -4.8326    5.0180   -0.8499 H   0  0  0  0  0  0  0  0  0  0  0  0
  1  4  1  0  0  0  0
  2  1  1  0  0  0  0
  3  2  1  0  0  0  0
  4 11  1  0  0  0  0
  4  5  2  0  0  0  0
  5 12  1  0  0  0  0
  6  5  1  0  0  0  0
  6  7  1  0  0  0  0
  8  7  1  0  0  0  0
  8 13  1  0  0  0  0
  8 15  1  0  0  0  0
  9  6  2  0  0  0  0
 10  1  2  0  0  0  0
 10  9  1  0  0  0  0
 14  8  1  0  0  0  0
 16  9  1  0  0  0  0
 17 10  1  0  0  0  0
 18 21  2  0  0  0  0
 18 20  1  0  0  0  0
 19 18  2  0  0  0  0
 22 23  1  0  0  0  0
 22 18  1  0  0  0  0
M  RAD  3   2   2   3   3  20   2
M  END
