Coordinates from ORCA-job 4-MeOPhN2+~HSO4-_B3LYPG-6-31G_dp-NX-Scan-d89-09-n800
 OpenBabel11261921003D

 23 22  0  0  0  0  0  0  0  0999 V2000
   -1.6646    0.3680   -0.1969 C   0  0  0  0  0  0  0  0  0  0  0  0
   -2.9991    0.0486   -0.3596 N   0  0  0  0  0  0  0  0  0  0  0  0
   -3.9990   -0.4560   -0.4719 N   0  0  0  0  0  0  0  0  0  0  0  0
   -1.2629    1.6829    0.1069 C   0  0  0  0  0  0  0  0  0  0  0  0
    0.0837    1.9230    0.2909 C   0  0  0  0  0  0  0  0  0  0  0  0
    1.0276    0.8820    0.1727 C   0  0  0  0  0  0  0  0  0  0  0  0
    2.3080    1.2360    0.3704 O   0  0  0  0  0  0  0  0  0  0  0  0
    3.3357    0.2494    0.2670 C   0  0  0  0  0  0  0  0  0  0  0  0
    0.6061   -0.4284   -0.1354 C   0  0  0  0  0  0  0  0  0  0  0  0
   -0.7416   -0.6871   -0.3172 C   0  0  0  0  0  0  0  0  0  0  0  0
   -2.0210    2.4575    0.1595 H   0  0  0  0  0  0  0  0  0  0  0  0
    0.4426    2.9186    0.5260 H   0  0  0  0  0  0  0  0  0  0  0  0
    4.2689    0.7764    0.4630 H   0  0  0  0  0  0  0  0  0  0  0  0
    3.3668   -0.1859   -0.7379 H   0  0  0  0  0  0  0  0  0  0  0  0
    3.2003   -0.5430    1.0115 H   0  0  0  0  0  0  0  0  0  0  0  0
    1.3177   -1.2383   -0.2314 H   0  0  0  0  0  0  0  0  0  0  0  0
   -1.0866   -1.6883   -0.5517 H   0  0  0  0  0  0  0  0  0  0  0  0
   -5.2205    2.4324   -0.3391 S   0  0  0  0  0  0  0  0  0  0  0  0
   -6.1550    3.4071   -0.9033 O   0  0  0  0  0  0  0  0  0  0  0  0
   -5.7087    1.0190   -0.3439 O   0  0  0  0  0  0  0  0  0  0  0  0
   -3.8083    2.5097   -0.7963 O   0  0  0  0  0  0  0  0  0  0  0  0
   -5.0728    2.8402    1.2716 O   0  0  0  0  0  0  0  0  0  0  0  0
   -5.9389    3.1914    1.5300 H   0  0  0  0  0  0  0  0  0  0  0  0
  1  4  1  0  0  0  0
  2  1  1  0  0  0  0
  3  2  1  0  0  0  0
  4 11  1  0  0  0  0
  4  5  2  0  0  0  0
  5 12  1  0  0  0  0
  6  5  1  0  0  0  0
  6  7  1  0  0  0  0
  8  7  1  0  0  0  0
  8 13  1  0  0  0  0
  8 15  1  0  0  0  0
  9  6  2  0  0  0  0
 10  1  2  0  0  0  0
 10  9  1  0  0  0  0
 14  8  1  0  0  0  0
 16  9  1  0  0  0  0
 17 10  1  0  0  0  0
 18 22  1  0  0  0  0
 19 18  2  0  0  0  0
 20 18  1  0  0  0  0
 21 18  2  0  0  0  0
 22 23  1  0  0  0  0
M  RAD  3   2   2   3   3  20   2
M  END
