Coordinates from ORCA-job 4-MeOPhN2+~HSO4-_B3LYPG-6-31G_dp-NX-Scan-d89-09-n800
 OpenBabel11261921003D

 23 22  0  0  0  0  0  0  0  0999 V2000
   -1.7722    0.0136   -0.1975 C   0  0  0  0  0  0  0  0  0  0  0  0
   -3.0471   -0.4238   -0.5402 N   0  0  0  0  0  0  0  0  0  0  0  0
   -4.1850   -0.2100   -0.5036 N   0  0  0  0  0  0  0  0  0  0  0  0
   -1.5480    1.2005    0.5347 C   0  0  0  0  0  0  0  0  0  0  0  0
   -0.2460    1.5610    0.8176 C   0  0  0  0  0  0  0  0  0  0  0  0
    0.8363    0.7650    0.3868 C   0  0  0  0  0  0  0  0  0  0  0  0
    2.0583    1.2216    0.7217 O   0  0  0  0  0  0  0  0  0  0  0  0
    3.2121    0.4859    0.3164 C   0  0  0  0  0  0  0  0  0  0  0  0
    0.6010   -0.4167   -0.3397 C   0  0  0  0  0  0  0  0  0  0  0  0
   -0.7045   -0.7863   -0.6284 C   0  0  0  0  0  0  0  0  0  0  0  0
   -2.3870    1.8031    0.8558 H   0  0  0  0  0  0  0  0  0  0  0  0
   -0.0285    2.4674    1.3716 H   0  0  0  0  0  0  0  0  0  0  0  0
    4.0666    1.0469    0.6937 H   0  0  0  0  0  0  0  0  0  0  0  0
    3.2744    0.4158   -0.7756 H   0  0  0  0  0  0  0  0  0  0  0  0
    3.2150   -0.5193    0.7522 H   0  0  0  0  0  0  0  0  0  0  0  0
    1.4191   -1.0387   -0.6784 H   0  0  0  0  0  0  0  0  0  0  0  0
   -0.9126   -1.6910   -1.1893 H   0  0  0  0  0  0  0  0  0  0  0  0
   -5.0327    2.4690   -0.4087 S   0  0  0  0  0  0  0  0  0  0  0  0
   -6.4449    2.7774   -0.1955 O   0  0  0  0  0  0  0  0  0  0  0  0
   -4.5439    1.2959    0.4931 O   0  0  0  0  0  0  0  0  0  0  0  0
   -4.5033    2.3242   -1.7601 O   0  0  0  0  0  0  0  0  0  0  0  0
   -4.1947    3.7236    0.2789 O   0  0  0  0  0  0  0  0  0  0  0  0
   -4.8541    4.2303    0.7794 H   0  0  0  0  0  0  0  0  0  0  0  0
  1  4  2  0  0  0  0
  2  3  2  0  0  0  0
  2  1  1  0  0  0  0
  4  5  1  0  0  0  0
  4 11  1  0  0  0  0
  5 12  1  0  0  0  0
  6  7  1  0  0  0  0
  6  5  2  0  0  0  0
  8 13  1  0  0  0  0
  8  7  1  0  0  0  0
  8 15  1  0  0  0  0
  9  6  1  0  0  0  0
 10  9  2  0  0  0  0
 10  1  1  0  0  0  0
 14  8  1  0  0  0  0
 16  9  1  0  0  0  0
 17 10  1  0  0  0  0
 18 19  2  0  0  0  0
 18 22  1  0  0  0  0
 18 20  1  0  0  0  0
 21 18  2  0  0  0  0
 22 23  1  0  0  0  0
M  RAD  2   3   2  20   2
M  END
