Coordinates from ORCA-job 4-MeOPhN2+~HSO4-_B3LYPG-6-31G_dp-NX-Scan-d89-09-n800
 OpenBabel11261921003D

 23 22  0  0  0  0  0  0  0  0999 V2000
   -1.9412   -1.4115   -0.3535 C   0  0  0  0  0  0  0  0  0  0  0  0
   -2.8064   -2.4178   -0.6168 N   0  0  0  0  0  0  0  0  0  0  0  0
   -3.4653   -3.3030   -0.8483 N   0  0  0  0  0  0  0  0  0  0  0  0
   -2.3845   -0.0939   -0.0126 C   0  0  0  0  0  0  0  0  0  0  0  0
   -1.4352    0.8676    0.2320 C   0  0  0  0  0  0  0  0  0  0  0  0
   -0.0557    0.5408    0.1466 C   0  0  0  0  0  0  0  0  0  0  0  0
    0.7746    1.5373    0.4051 O   0  0  0  0  0  0  0  0  0  0  0  0
    2.1935    1.3524    0.3456 C   0  0  0  0  0  0  0  0  0  0  0  0
    0.3730   -0.7717   -0.1935 C   0  0  0  0  0  0  0  0  0  0  0  0
   -0.5624   -1.7452   -0.4435 C   0  0  0  0  0  0  0  0  0  0  0  0
   -3.4359    0.1701    0.0530 H   0  0  0  0  0  0  0  0  0  0  0  0
   -1.7069    1.9093    0.4680 H   0  0  0  0  0  0  0  0  0  0  0  0
    2.6176    2.3236    0.5942 H   0  0  0  0  0  0  0  0  0  0  0  0
    2.5068    1.0589   -0.6615 H   0  0  0  0  0  0  0  0  0  0  0  0
    2.5212    0.6068    1.0773 H   0  0  0  0  0  0  0  0  0  0  0  0
    1.4253   -1.0178   -0.2613 H   0  0  0  0  0  0  0  0  0  0  0  0
   -0.2650   -2.7542   -0.7074 H   0  0  0  0  0  0  0  0  0  0  0  0
   -3.2161    4.0608    0.6052 S   0  0  0  0  0  0  0  0  0  0  0  0
   -3.9811    2.8101    0.8364 O   0  0  0  0  0  0  0  0  0  0  0  0
   -3.5851    5.2418    1.4139 O   0  0  0  0  0  0  0  0  0  0  0  0
   -1.7495    3.7954    0.5167 O   0  0  0  0  0  0  0  0  0  0  0  0
   -3.6535    4.5106   -0.9536 O   0  0  0  0  0  0  0  0  0  0  0  0
   -3.8900    5.4448   -0.8574 H   0  0  0  0  0  0  0  0  0  0  0  0
  1  4  1  0  0  0  0
  2  1  1  0  0  0  0
  3  2  1  0  0  0  0
  4 11  1  0  0  0  0
  4  5  2  0  0  0  0
  5 12  1  0  0  0  0
  6  5  1  0  0  0  0
  6  7  1  0  0  0  0
  8  7  1  0  0  0  0
  8 13  1  0  0  0  0
  8 15  1  0  0  0  0
  9  6  2  0  0  0  0
 10  1  2  0  0  0  0
 10  9  1  0  0  0  0
 14  8  1  0  0  0  0
 16  9  1  0  0  0  0
 17 10  1  0  0  0  0
 18 19  2  0  0  0  0
 18 20  1  0  0  0  0
 21 18  2  0  0  0  0
 22 23  1  0  0  0  0
 22 18  1  0  0  0  0
M  RAD  3   2   2   3   3  20   2
M  END
