Coordinates from ORCA-job 4-MeOPhN2+~HSO4-_B3LYPG-6-31G_dp-NX-Scan-d89-09-n800
 OpenBabel11261921003D

 23 22  0  0  0  0  0  0  0  0999 V2000
   -1.8881   -0.7019   -0.2405 C   0  0  0  0  0  0  0  0  0  0  0  0
   -3.0657   -1.3424   -0.4570 N   0  0  0  0  0  0  0  0  0  0  0  0
   -4.0443   -1.8588   -0.6354 N   0  0  0  0  0  0  0  0  0  0  0  0
   -1.9390    0.6772    0.0804 C   0  0  0  0  0  0  0  0  0  0  0  0
   -0.7420    1.3249    0.2879 C   0  0  0  0  0  0  0  0  0  0  0  0
    0.4782    0.6234    0.1837 C   0  0  0  0  0  0  0  0  0  0  0  0
    1.5796    1.3428    0.4038 O   0  0  0  0  0  0  0  0  0  0  0  0
    2.8731    0.7356    0.3186 C   0  0  0  0  0  0  0  0  0  0  0  0
    0.4995   -0.7629   -0.1388 C   0  0  0  0  0  0  0  0  0  0  0  0
   -0.6819   -1.4353   -0.3543 C   0  0  0  0  0  0  0  0  0  0  0  0
   -2.9076    1.2060    0.1507 H   0  0  0  0  0  0  0  0  0  0  0  0
   -0.7744    2.3849    0.5220 H   0  0  0  0  0  0  0  0  0  0  0  0
    3.5816    1.5314    0.5437 H   0  0  0  0  0  0  0  0  0  0  0  0
    3.0613    0.3521   -0.6897 H   0  0  0  0  0  0  0  0  0  0  0  0
    2.9793   -0.0690    1.0540 H   0  0  0  0  0  0  0  0  0  0  0  0
    1.4354   -1.3002   -0.2202 H   0  0  0  0  0  0  0  0  0  0  0  0
   -0.6923   -2.4900   -0.6060 H   0  0  0  0  0  0  0  0  0  0  0  0
   -4.1025    3.4619    0.3985 S   0  0  0  0  0  0  0  0  0  0  0  0
   -4.4918    2.0353    0.1773 O   0  0  0  0  0  0  0  0  0  0  0  0
   -4.9324    4.2076    1.3579 O   0  0  0  0  0  0  0  0  0  0  0  0
   -2.6358    3.6126    0.5676 O   0  0  0  0  0  0  0  0  0  0  0  0
   -4.4507    4.1676   -1.0785 O   0  0  0  0  0  0  0  0  0  0  0  0
   -4.8611    5.0124   -0.8407 H   0  0  0  0  0  0  0  0  0  0  0  0
  1  4  1  0  0  0  0
  2  1  1  0  0  0  0
  3  2  1  0  0  0  0
  4 11  1  0  0  0  0
  4  5  2  0  0  0  0
  5 12  1  0  0  0  0
  6  5  1  0  0  0  0
  6  7  1  0  0  0  0
  8  7  1  0  0  0  0
  8 13  1  0  0  0  0
  8 15  1  0  0  0  0
  9  6  2  0  0  0  0
 10  1  2  0  0  0  0
 10  9  1  0  0  0  0
 14  8  1  0  0  0  0
 16  9  1  0  0  0  0
 17 10  1  0  0  0  0
 18 21  2  0  0  0  0
 18 20  1  0  0  0  0
 19 18  2  0  0  0  0
 22 23  1  0  0  0  0
 22 18  1  0  0  0  0
M  RAD  3   2   2   3   3  20   2
M  END
