Coordinates from ORCA-job 4-MeOPhN2+~HSO4-_B3LYPG-6-31G_dp-NX-Scan-d89-09-n800
 OpenBabel11261921003D

 23 22  0  0  0  0  0  0  0  0999 V2000
   -1.9475   -1.0905   -0.3155 C   0  0  0  0  0  0  0  0  0  0  0  0
   -2.9642   -1.9456   -0.5704 N   0  0  0  0  0  0  0  0  0  0  0  0
   -3.7847   -2.6825   -0.7901 N   0  0  0  0  0  0  0  0  0  0  0  0
   -2.2157    0.2622    0.0419 C   0  0  0  0  0  0  0  0  0  0  0  0
   -1.1408    1.0872    0.2809 C   0  0  0  0  0  0  0  0  0  0  0  0
    0.1785    0.5893    0.1718 C   0  0  0  0  0  0  0  0  0  0  0  0
    1.1439    1.4674    0.4241 O   0  0  0  0  0  0  0  0  0  0  0  0
    2.5213    1.0874    0.3347 C   0  0  0  0  0  0  0  0  0  0  0  0
    0.4269   -0.7653   -0.1853 C   0  0  0  0  0  0  0  0  0  0  0  0
   -0.6301   -1.6083   -0.4303 C   0  0  0  0  0  0  0  0  0  0  0  0
   -3.2167    0.6941    0.1334 H   0  0  0  0  0  0  0  0  0  0  0  0
   -1.3307    2.1429    0.5310 H   0  0  0  0  0  0  0  0  0  0  0  0
    3.0841    1.9867    0.5799 H   0  0  0  0  0  0  0  0  0  0  0  0
    2.7725    0.7615   -0.6798 H   0  0  0  0  0  0  0  0  0  0  0  0
    2.7577    0.2973    1.0550 H   0  0  0  0  0  0  0  0  0  0  0  0
    1.4370   -1.1459   -0.2699 H   0  0  0  0  0  0  0  0  0  0  0  0
   -0.4704   -2.6446   -0.7069 H   0  0  0  0  0  0  0  0  0  0  0  0
   -3.5953    3.7992    0.5506 S   0  0  0  0  0  0  0  0  0  0  0  0
   -4.1113    2.4074    0.6559 O   0  0  0  0  0  0  0  0  0  0  0  0
   -4.2888    4.8190    1.3558 O   0  0  0  0  0  0  0  0  0  0  0  0
   -2.1082    3.8581    0.6162 O   0  0  0  0  0  0  0  0  0  0  0  0
   -3.9721    4.2090   -1.0315 O   0  0  0  0  0  0  0  0  0  0  0  0
   -4.2670    5.1295   -0.9668 H   0  0  0  0  0  0  0  0  0  0  0  0
  1  4  1  0  0  0  0
  2  1  1  0  0  0  0
  3  2  1  0  0  0  0
  4 11  1  0  0  0  0
  4  5  2  0  0  0  0
  5 12  1  0  0  0  0
  6  5  1  0  0  0  0
  6  7  1  0  0  0  0
  8  7  1  0  0  0  0
  8 13  1  0  0  0  0
  8 15  1  0  0  0  0
  9  6  2  0  0  0  0
 10  1  2  0  0  0  0
 10  9  1  0  0  0  0
 14  8  1  0  0  0  0
 16  9  1  0  0  0  0
 17 10  1  0  0  0  0
 18 21  2  0  0  0  0
 18 19  2  0  0  0  0
 18 20  1  0  0  0  0
 22 23  1  0  0  0  0
 22 18  1  0  0  0  0
M  RAD  3   2   2   3   3  20   2
M  END
