Coordinates from ORCA-job 4-MeOPhN2+~HSO4-_B3LYPG-6-31G_dp-NX-Scan-d89-09-n800
 OpenBabel11261921003D

 23 22  0  0  0  0  0  0  0  0999 V2000
   -1.9462   -1.0815   -0.3145 C   0  0  0  0  0  0  0  0  0  0  0  0
   -2.9691   -1.9292   -0.5688 N   0  0  0  0  0  0  0  0  0  0  0  0
   -3.7990   -2.6555   -0.7869 N   0  0  0  0  0  0  0  0  0  0  0  0
   -2.2096    0.2710    0.0448 C   0  0  0  0  0  0  0  0  0  0  0  0
   -1.1321    1.0925    0.2844 C   0  0  0  0  0  0  0  0  0  0  0  0
    0.1854    0.5905    0.1735 C   0  0  0  0  0  0  0  0  0  0  0  0
    1.1542    1.4649    0.4262 O   0  0  0  0  0  0  0  0  0  0  0  0
    2.5301    1.0801    0.3346 C   0  0  0  0  0  0  0  0  0  0  0  0
    0.4288   -0.7646   -0.1859 C   0  0  0  0  0  0  0  0  0  0  0  0
   -0.6310   -1.6041   -0.4313 C   0  0  0  0  0  0  0  0  0  0  0  0
   -3.2097    0.7057    0.1369 H   0  0  0  0  0  0  0  0  0  0  0  0
   -1.3210    2.1475    0.5365 H   0  0  0  0  0  0  0  0  0  0  0  0
    3.0965    1.9770    0.5806 H   0  0  0  0  0  0  0  0  0  0  0  0
    2.7790    0.7550   -0.6806 H   0  0  0  0  0  0  0  0  0  0  0  0
    2.7646    0.2880    1.0534 H   0  0  0  0  0  0  0  0  0  0  0  0
    1.4376   -1.1482   -0.2718 H   0  0  0  0  0  0  0  0  0  0  0  0
   -0.4750   -2.6406   -0.7094 H   0  0  0  0  0  0  0  0  0  0  0  0
   -3.6056    3.7909    0.5484 S   0  0  0  0  0  0  0  0  0  0  0  0
   -4.1153    2.3967    0.6529 O   0  0  0  0  0  0  0  0  0  0  0  0
   -4.3074    4.8060    1.3516 O   0  0  0  0  0  0  0  0  0  0  0  0
   -2.1191    3.8580    0.6180 O   0  0  0  0  0  0  0  0  0  0  0  0
   -3.9804    4.1975   -1.0350 O   0  0  0  0  0  0  0  0  0  0  0  0
   -4.2772    5.1176   -0.9724 H   0  0  0  0  0  0  0  0  0  0  0  0
  1  4  1  0  0  0  0
  2  1  1  0  0  0  0
  3  2  1  0  0  0  0
  4 11  1  0  0  0  0
  4  5  2  0  0  0  0
  5 12  1  0  0  0  0
  6  5  1  0  0  0  0
  6  7  1  0  0  0  0
  8  7  1  0  0  0  0
  8 13  1  0  0  0  0
  8 15  1  0  0  0  0
  9  6  2  0  0  0  0
 10  1  2  0  0  0  0
 10  9  1  0  0  0  0
 14  8  1  0  0  0  0
 16  9  1  0  0  0  0
 17 10  1  0  0  0  0
 18 21  2  0  0  0  0
 18 19  2  0  0  0  0
 18 20  1  0  0  0  0
 22 23  1  0  0  0  0
 22 18  1  0  0  0  0
M  RAD  3   2   2   3   3  20   2
M  END
