Coordinates from ORCA-job 4-MeOPhN2+~HSO4-_B3LYPG-6-31G_dp-NX-Scan-d89-09-n800
 OpenBabel11261921003D

 23 22  0  0  0  0  0  0  0  0999 V2000
   -1.9374   -1.0036   -0.3035 C   0  0  0  0  0  0  0  0  0  0  0  0
   -2.9941   -1.8117   -0.5531 N   0  0  0  0  0  0  0  0  0  0  0  0
   -3.8572   -2.4989   -0.7658 N   0  0  0  0  0  0  0  0  0  0  0  0
   -2.1577    0.3543    0.0589 C   0  0  0  0  0  0  0  0  0  0  0  0
   -1.0517    1.1394    0.2950 C   0  0  0  0  0  0  0  0  0  0  0  0
    0.2481    0.5974    0.1776 C   0  0  0  0  0  0  0  0  0  0  0  0
    1.2465    1.4403    0.4274 O   0  0  0  0  0  0  0  0  0  0  0  0
    2.6084    1.0098    0.3295 C   0  0  0  0  0  0  0  0  0  0  0  0
    0.4458   -0.7643   -0.1858 C   0  0  0  0  0  0  0  0  0  0  0  0
   -0.6415   -1.5694   -0.4280 C   0  0  0  0  0  0  0  0  0  0  0  0
   -3.1482    0.8201    0.1578 H   0  0  0  0  0  0  0  0  0  0  0  0
   -1.2182    2.1937    0.5517 H   0  0  0  0  0  0  0  0  0  0  0  0
    3.2059    1.8863    0.5758 H   0  0  0  0  0  0  0  0  0  0  0  0
    2.8428    0.6795   -0.6876 H   0  0  0  0  0  0  0  0  0  0  0  0
    2.8191    0.2082    1.0451 H   0  0  0  0  0  0  0  0  0  0  0  0
    1.4414   -1.1796   -0.2769 H   0  0  0  0  0  0  0  0  0  0  0  0
   -0.5197   -2.6097   -0.7089 H   0  0  0  0  0  0  0  0  0  0  0  0
   -3.7187    3.7341    0.5358 S   0  0  0  0  0  0  0  0  0  0  0  0
   -4.2151    2.3313    0.6124 O   0  0  0  0  0  0  0  0  0  0  0  0
   -4.4650    4.7291    1.3231 O   0  0  0  0  0  0  0  0  0  0  0  0
   -2.2380    3.8226    0.6552 O   0  0  0  0  0  0  0  0  0  0  0  0
   -4.0469    4.1475   -1.0560 O   0  0  0  0  0  0  0  0  0  0  0  0
   -4.3703    5.0587   -0.9948 H   0  0  0  0  0  0  0  0  0  0  0  0
  1  4  1  0  0  0  0
  2  1  1  0  0  0  0
  3  2  1  0  0  0  0
  4 11  1  0  0  0  0
  4  5  2  0  0  0  0
  5 12  1  0  0  0  0
  6  5  1  0  0  0  0
  6  7  1  0  0  0  0
  8  7  1  0  0  0  0
  8 13  1  0  0  0  0
  8 15  1  0  0  0  0
  9  6  2  0  0  0  0
 10  1  2  0  0  0  0
 10  9  1  0  0  0  0
 14  8  1  0  0  0  0
 16  9  1  0  0  0  0
 17 10  1  0  0  0  0
 18 19  2  0  0  0  0
 18 21  2  0  0  0  0
 18 20  1  0  0  0  0
 22 23  1  0  0  0  0
 22 18  1  0  0  0  0
M  RAD  3   2   2   3   3  20   2
M  END
