Coordinates from ORCA-job 4-MeOPhN2+~HSO4-_B3LYPG-6-31G_dp-NX-Scan-d89-09-n800
 OpenBabel11261921003D

 23 22  0  0  0  0  0  0  0  0999 V2000
   -1.7594    0.4557   -0.5597 C   0  0  0  0  0  0  0  0  0  0  0  0
   -3.0618    0.2704   -0.9670 N   0  0  0  0  0  0  0  0  0  0  0  0
   -4.0319   -0.0280   -1.4343 N   0  0  0  0  0  0  0  0  0  0  0  0
   -1.2761    1.7544   -0.2954 C   0  0  0  0  0  0  0  0  0  0  0  0
    0.0489    1.8715    0.0643 C   0  0  0  0  0  0  0  0  0  0  0  0
    0.8751    0.7328    0.1852 C   0  0  0  0  0  0  0  0  0  0  0  0
    2.1407    0.9757    0.5539 O   0  0  0  0  0  0  0  0  0  0  0  0
    3.0510   -0.1131    0.7239 C   0  0  0  0  0  0  0  0  0  0  0  0
    0.3611   -0.5560   -0.0764 C   0  0  0  0  0  0  0  0  0  0  0  0
   -0.9619   -0.6979   -0.4554 C   0  0  0  0  0  0  0  0  0  0  0  0
   -1.9549    2.6075   -0.3770 H   0  0  0  0  0  0  0  0  0  0  0  0
    0.4782    2.8433    0.2799 H   0  0  0  0  0  0  0  0  0  0  0  0
    3.9954    0.3392    1.0237 H   0  0  0  0  0  0  0  0  0  0  0  0
    3.1899   -0.6620   -0.2142 H   0  0  0  0  0  0  0  0  0  0  0  0
    2.7072   -0.7959    1.5084 H   0  0  0  0  0  0  0  0  0  0  0  0
    0.9820   -1.4377    0.0152 H   0  0  0  0  0  0  0  0  0  0  0  0
   -1.3803   -1.6773   -0.6593 H   0  0  0  0  0  0  0  0  0  0  0  0
   -4.5041    2.8566    0.5326 S   0  0  0  0  0  0  0  0  0  0  0  0
   -3.8467    1.6206    1.0411 O   0  0  0  0  0  0  0  0  0  0  0  0
   -5.1778    3.6972    1.5273 O   0  0  0  0  0  0  0  0  0  0  0  0
   -3.6525    3.5865   -0.4485 O   0  0  0  0  0  0  0  0  0  0  0  0
   -5.7146    2.1665   -0.4107 O   0  0  0  0  0  0  0  0  0  0  0  0
   -6.2292    2.9051   -0.7727 H   0  0  0  0  0  0  0  0  0  0  0  0
  1 10  2  0  0  0  0
  1  4  1  0  0  0  0
  2  1  1  0  0  0  0
  3  2  1  0  0  0  0
  4  5  2  0  0  0  0
  5  6  1  0  0  0  0
  5 12  1  0  0  0  0
  6  7  1  0  0  0  0
  7  8  1  0  0  0  0
  8 13  1  0  0  0  0
  8 15  1  0  0  0  0
  9 16  1  0  0  0  0
  9  6  2  0  0  0  0
 10  9  1  0  0  0  0
 11  4  1  0  0  0  0
 14  8  1  0  0  0  0
 17 10  1  0  0  0  0
 18 19  2  0  0  0  0
 18 20  1  0  0  0  0
 21 18  2  0  0  0  0
 22 18  1  0  0  0  0
 23 22  1  0  0  0  0
M  RAD  3   2   2   3   3  20   2
M  END
