Coordinates from ORCA-job 4-MeOPhN2+~HSO4-_B3LYPG-6-31G_dp-NX-Scan-d89-09-n800
 OpenBabel11261921003D

 23 22  0  0  0  0  0  0  0  0999 V2000
   -1.9338   -0.9707   -0.2975 C   0  0  0  0  0  0  0  0  0  0  0  0
   -3.0025   -1.7643   -0.5449 N   0  0  0  0  0  0  0  0  0  0  0  0
   -3.8747   -2.4400   -0.7557 N   0  0  0  0  0  0  0  0  0  0  0  0
   -2.1362    0.3893    0.0653 C   0  0  0  0  0  0  0  0  0  0  0  0
   -1.0183    1.1587    0.2990 C   0  0  0  0  0  0  0  0  0  0  0  0
    0.2738    0.6001    0.1789 C   0  0  0  0  0  0  0  0  0  0  0  0
    1.2841    1.4300    0.4267 O   0  0  0  0  0  0  0  0  0  0  0  0
    2.6398    0.9809    0.3261 C   0  0  0  0  0  0  0  0  0  0  0  0
    0.4524   -0.7640   -0.1850 C   0  0  0  0  0  0  0  0  0  0  0  0
   -0.6462   -1.5543   -0.4251 C   0  0  0  0  0  0  0  0  0  0  0  0
   -3.1234    0.8662    0.1663 H   0  0  0  0  0  0  0  0  0  0  0  0
   -1.1735    2.2125    0.5577 H   0  0  0  0  0  0  0  0  0  0  0  0
    3.2498    1.8489    0.5718 H   0  0  0  0  0  0  0  0  0  0  0  0
    2.8679    0.6479   -0.6915 H   0  0  0  0  0  0  0  0  0  0  0  0
    2.8407    0.1761    1.0410 H   0  0  0  0  0  0  0  0  0  0  0  0
    1.4422   -1.1926   -0.2782 H   0  0  0  0  0  0  0  0  0  0  0  0
   -0.5392   -2.5961   -0.7064 H   0  0  0  0  0  0  0  0  0  0  0  0
   -3.7668    3.7096    0.5291 S   0  0  0  0  0  0  0  0  0  0  0  0
   -4.2624    2.3047    0.5864 O   0  0  0  0  0  0  0  0  0  0  0  0
   -4.5287    4.6959    1.3121 O   0  0  0  0  0  0  0  0  0  0  0  0
   -2.2890    3.7992    0.6727 O   0  0  0  0  0  0  0  0  0  0  0  0
   -4.0705    4.1354   -1.0644 O   0  0  0  0  0  0  0  0  0  0  0  0
   -4.4070    5.0415   -0.9996 H   0  0  0  0  0  0  0  0  0  0  0  0
  1  4  1  0  0  0  0
  2  1  1  0  0  0  0
  3  2  1  0  0  0  0
  4 11  1  0  0  0  0
  4  5  2  0  0  0  0
  5 12  1  0  0  0  0
  6  5  1  0  0  0  0
  6  7  1  0  0  0  0
  8  7  1  0  0  0  0
  8 13  1  0  0  0  0
  8 15  1  0  0  0  0
  9  6  2  0  0  0  0
 10  1  2  0  0  0  0
 10  9  1  0  0  0  0
 14  8  1  0  0  0  0
 16  9  1  0  0  0  0
 17 10  1  0  0  0  0
 18 19  2  0  0  0  0
 18 21  2  0  0  0  0
 18 20  1  0  0  0  0
 22 23  1  0  0  0  0
 22 18  1  0  0  0  0
M  RAD  3   2   2   3   3  20   2
M  END
