Coordinates from ORCA-job 4-MeOPhN2+~HSO4-_B3LYPG-6-31G_dp-NX-Scan-d89-09-n800
 OpenBabel11261921003D

 23 22  0  0  0  0  0  0  0  0999 V2000
   -1.7599    0.4586   -0.5571 C   0  0  0  0  0  0  0  0  0  0  0  0
   -3.0630    0.2747   -0.9628 N   0  0  0  0  0  0  0  0  0  0  0  0
   -4.0345   -0.0231   -1.4275 N   0  0  0  0  0  0  0  0  0  0  0  0
   -1.2751    1.7567   -0.2926 C   0  0  0  0  0  0  0  0  0  0  0  0
    0.0503    1.8724    0.0660 C   0  0  0  0  0  0  0  0  0  0  0  0
    0.8757    0.7329    0.1854 C   0  0  0  0  0  0  0  0  0  0  0  0
    2.1419    0.9745    0.5532 O   0  0  0  0  0  0  0  0  0  0  0  0
    3.0514   -0.1152    0.7212 C   0  0  0  0  0  0  0  0  0  0  0  0
    0.3603   -0.5552   -0.0765 C   0  0  0  0  0  0  0  0  0  0  0  0
   -0.9631   -0.6957   -0.4544 C   0  0  0  0  0  0  0  0  0  0  0  0
   -1.9529    2.6106   -0.3736 H   0  0  0  0  0  0  0  0  0  0  0  0
    0.4807    2.8437    0.2818 H   0  0  0  0  0  0  0  0  0  0  0  0
    3.9965    0.3360    1.0203 H   0  0  0  0  0  0  0  0  0  0  0  0
    3.1888   -0.6634   -0.2174 H   0  0  0  0  0  0  0  0  0  0  0  0
    2.7079   -0.7984    1.5055 H   0  0  0  0  0  0  0  0  0  0  0  0
    0.9805   -1.4376    0.0138 H   0  0  0  0  0  0  0  0  0  0  0  0
   -1.3826   -1.6747   -0.6585 H   0  0  0  0  0  0  0  0  0  0  0  0
   -4.5056    2.8567    0.5329 S   0  0  0  0  0  0  0  0  0  0  0  0
   -3.8457    1.6249    1.0478 O   0  0  0  0  0  0  0  0  0  0  0  0
   -5.1896    3.6964    1.5211 O   0  0  0  0  0  0  0  0  0  0  0  0
   -3.6517    3.5879   -0.4452 O   0  0  0  0  0  0  0  0  0  0  0  0
   -5.7078    2.1587   -0.4161 O   0  0  0  0  0  0  0  0  0  0  0  0
   -6.2241    2.8939   -0.7824 H   0  0  0  0  0  0  0  0  0  0  0  0
  1 10  2  0  0  0  0
  1  4  1  0  0  0  0
  2  1  1  0  0  0  0
  3  2  1  0  0  0  0
  4  5  2  0  0  0  0
  5  6  1  0  0  0  0
  5 12  1  0  0  0  0
  6  7  1  0  0  0  0
  7  8  1  0  0  0  0
  8 13  1  0  0  0  0
  8 15  1  0  0  0  0
  9 16  1  0  0  0  0
  9  6  2  0  0  0  0
 10  9  1  0  0  0  0
 11  4  1  0  0  0  0
 14  8  1  0  0  0  0
 17 10  1  0  0  0  0
 18 19  2  0  0  0  0
 18 20  1  0  0  0  0
 21 18  2  0  0  0  0
 22 18  1  0  0  0  0
 23 22  1  0  0  0  0
M  RAD  3   2   2   3   3  20   2
M  END
