Coordinates from ORCA-job 4-MeOPhN2+~HSO4-_B3LYPG-6-31G_dp-NX-Scan-d89-09-n800
 OpenBabel11261921003D

 23 22  0  0  0  0  0  0  0  0999 V2000
   -1.9164   -0.8534   -0.2704 C   0  0  0  0  0  0  0  0  0  0  0  0
   -3.0280   -1.5936   -0.5045 N   0  0  0  0  0  0  0  0  0  0  0  0
   -3.9349   -2.2238   -0.7041 N   0  0  0  0  0  0  0  0  0  0  0  0
   -2.0540    0.5184    0.0708 C   0  0  0  0  0  0  0  0  0  0  0  0
   -0.8962    1.2324    0.2888 C   0  0  0  0  0  0  0  0  0  0  0  0
    0.3663    0.6102    0.1764 C   0  0  0  0  0  0  0  0  0  0  0  0
    1.4178    1.3948    0.4073 O   0  0  0  0  0  0  0  0  0  0  0  0
    2.7486    0.8757    0.3124 C   0  0  0  0  0  0  0  0  0  0  0  0
    0.4760   -0.7669   -0.1643 C   0  0  0  0  0  0  0  0  0  0  0  0
   -0.6619   -1.5049   -0.3903 C   0  0  0  0  0  0  0  0  0  0  0  0
   -3.0333    1.0267    0.1599 H   0  0  0  0  0  0  0  0  0  0  0  0
   -0.9996    2.2888    0.5371 H   0  0  0  0  0  0  0  0  0  0  0  0
    3.4030    1.7151    0.5429 H   0  0  0  0  0  0  0  0  0  0  0  0
    2.9577    0.5150   -0.7000 H   0  0  0  0  0  0  0  0  0  0  0  0
    2.9103    0.0734    1.0401 H   0  0  0  0  0  0  0  0  0  0  0  0
    1.4430   -1.2457   -0.2507 H   0  0  0  0  0  0  0  0  0  0  0  0
   -0.6080   -2.5551   -0.6552 H   0  0  0  0  0  0  0  0  0  0  0  0
   -3.9344    3.6063    0.4865 S   0  0  0  0  0  0  0  0  0  0  0  0
   -4.4141    2.1941    0.3994 O   0  0  0  0  0  0  0  0  0  0  0  0
   -4.7494    4.5112    1.3136 O   0  0  0  0  0  0  0  0  0  0  0  0
   -2.4688    3.6881    0.7082 O   0  0  0  0  0  0  0  0  0  0  0  0
   -4.1663    4.1709   -1.0749 O   0  0  0  0  0  0  0  0  0  0  0  0
   -4.5789    5.0376   -0.9443 H   0  0  0  0  0  0  0  0  0  0  0  0
  1  4  1  0  0  0  0
  2  1  1  0  0  0  0
  3  2  1  0  0  0  0
  4 11  1  0  0  0  0
  4  5  2  0  0  0  0
  5 12  1  0  0  0  0
  6  5  1  0  0  0  0
  6  7  1  0  0  0  0
  8  7  1  0  0  0  0
  8 13  1  0  0  0  0
  8 15  1  0  0  0  0
  9  6  2  0  0  0  0
 10  1  2  0  0  0  0
 10  9  1  0  0  0  0
 14  8  1  0  0  0  0
 16  9  1  0  0  0  0
 17 10  1  0  0  0  0
 18 21  2  0  0  0  0
 18 20  1  0  0  0  0
 19 18  2  0  0  0  0
 22 23  1  0  0  0  0
 22 18  1  0  0  0  0
M  RAD  3   2   2   3   3  20   2
M  END
