Coordinates from ORCA-job 4-MeOPhN2+~HSO4-_B3LYPG-6-31G_dp-NX-Scan-d89-09-n800
 OpenBabel11261921003D

 23 22  0  0  0  0  0  0  0  0999 V2000
   -1.5057    0.7510   -0.6109 C   0  0  0  0  0  0  0  0  0  0  0  0
   -2.6952    0.7743   -1.3782 N   0  0  0  0  0  0  0  0  0  0  0  0
   -3.7364    1.4282   -0.8731 N   0  0  0  0  0  0  0  0  0  0  0  0
   -1.2635    1.2687    0.6833 C   0  0  0  0  0  0  0  0  0  0  0  0
   -0.0125    1.1334    1.2751 C   0  0  0  0  0  0  0  0  0  0  0  0
    1.0364    0.4867    0.6103 C   0  0  0  0  0  0  0  0  0  0  0  0
    2.2206    0.4163    1.2866 O   0  0  0  0  0  0  0  0  0  0  0  0
    3.3155   -0.2263    0.6538 C   0  0  0  0  0  0  0  0  0  0  0  0
    0.8137   -0.0342   -0.6712 C   0  0  0  0  0  0  0  0  0  0  0  0
   -0.4398    0.1018   -1.2590 C   0  0  0  0  0  0  0  0  0  0  0  0
   -2.0354    1.7753    1.2460 H   0  0  0  0  0  0  0  0  0  0  0  0
    0.1727    1.5289    2.2683 H   0  0  0  0  0  0  0  0  0  0  0  0
    4.1498   -0.1616    1.3545 H   0  0  0  0  0  0  0  0  0  0  0  0
    3.5931    0.2732   -0.2834 H   0  0  0  0  0  0  0  0  0  0  0  0
    3.1010   -1.2825    0.4452 H   0  0  0  0  0  0  0  0  0  0  0  0
    1.6017   -0.5418   -1.2151 H   0  0  0  0  0  0  0  0  0  0  0  0
   -0.6223   -0.2984   -2.2507 H   0  0  0  0  0  0  0  0  0  0  0  0
   -6.2396    3.0231    0.3083 S   0  0  0  0  0  0  0  0  0  0  0  0
   -5.7509    4.3887    0.3721 O   0  0  0  0  0  0  0  0  0  0  0  0
   -3.8786    1.9080   -0.0773 O   0  0  0  0  0  0  0  0  0  0  0  0
   -6.5536    2.2938    1.5237 O   0  0  0  0  0  0  0  0  0  0  0  0
   -6.4990    2.4097   -0.9891 O   0  0  0  0  0  0  0  0  0  0  0  0
   -4.4932    1.2989   -1.6347 H   0  0  0  0  0  0  0  0  0  0  0  0
  1  4  2  0  0  0  0
  2  3  1  0  0  0  0
  2  1  1  0  0  0  0
  3 20  1  0  0  0  0
  4 11  1  0  0  0  0
  4  5  1  0  0  0  0
  5 12  1  0  0  0  0
  6  5  2  0  0  0  0
  6  7  1  0  0  0  0
  8  7  1  0  0  0  0
  8 13  1  0  0  0  0
  9  6  1  0  0  0  0
 10  9  2  0  0  0  0
 10  1  1  0  0  0  0
 14  8  1  0  0  0  0
 15  8  1  0  0  0  0
 16  9  1  0  0  0  0
 17 10  1  0  0  0  0
 18 19  2  0  0  0  0
 18 21  1  0  0  0  0
 22 18  1  0  0  0  0
 23  3  1  0  0  0  0
M  RAD  4   2   2  20   2  21   2  22   2
M  END
