Coordinates from ORCA-job 4-MeOPhN2+~HSO4-_B3LYPG-6-31G_dp-NX-Scan-d89-09-n800
 OpenBabel11261921003D

 23 22  0  0  0  0  0  0  0  0999 V2000
   -1.7526    0.3411   -0.5899 C   0  0  0  0  0  0  0  0  0  0  0  0
   -3.0394    0.0931   -1.0154 N   0  0  0  0  0  0  0  0  0  0  0  0
   -3.9705   -0.2987   -1.4939 N   0  0  0  0  0  0  0  0  0  0  0  0
   -1.3191    1.6595   -0.3408 C   0  0  0  0  0  0  0  0  0  0  0  0
   -0.0036    1.8280    0.0346 C   0  0  0  0  0  0  0  0  0  0  0  0
    0.8616    0.7223    0.1823 C   0  0  0  0  0  0  0  0  0  0  0  0
    2.1125    1.0148    0.5633 O   0  0  0  0  0  0  0  0  0  0  0  0
    3.0602   -0.0381    0.7561 C   0  0  0  0  0  0  0  0  0  0  0  0
    0.3970   -0.5882   -0.0667 C   0  0  0  0  0  0  0  0  0  0  0  0
   -0.9145   -0.7824   -0.4597 C   0  0  0  0  0  0  0  0  0  0  0  0
   -2.0193    2.4960   -0.4369 H   0  0  0  0  0  0  0  0  0  0  0  0
    0.3864    2.8182    0.2415 H   0  0  0  0  0  0  0  0  0  0  0  0
    3.9837    0.4520    1.0612 H   0  0  0  0  0  0  0  0  0  0  0  0
    3.2300   -0.5916   -0.1742 H   0  0  0  0  0  0  0  0  0  0  0  0
    2.7323   -0.7243    1.5443 H   0  0  0  0  0  0  0  0  0  0  0  0
    1.0474   -1.4459    0.0461 H   0  0  0  0  0  0  0  0  0  0  0  0
   -1.2948   -1.7791   -0.6551 H   0  0  0  0  0  0  0  0  0  0  0  0
   -4.4957    2.8821    0.5036 S   0  0  0  0  0  0  0  0  0  0  0  0
   -3.9948    1.5069    0.7987 O   0  0  0  0  0  0  0  0  0  0  0  0
   -5.0210    3.6396    1.6463 O   0  0  0  0  0  0  0  0  0  0  0  0
   -3.5630    3.6340   -0.3810 O   0  0  0  0  0  0  0  0  0  0  0  0
   -5.8162    2.5272   -0.4599 O   0  0  0  0  0  0  0  0  0  0  0  0
   -6.3281    3.3488   -0.5195 H   0  0  0  0  0  0  0  0  0  0  0  0
  1 10  2  0  0  0  0
  1  4  1  0  0  0  0
  2  1  1  0  0  0  0
  3  2  1  0  0  0  0
  4  5  2  0  0  0  0
  5  6  1  0  0  0  0
  5 12  1  0  0  0  0
  6  7  1  0  0  0  0
  7  8  1  0  0  0  0
  8 13  1  0  0  0  0
  8 15  1  0  0  0  0
  9 16  1  0  0  0  0
  9  6  2  0  0  0  0
 10  9  1  0  0  0  0
 11  4  1  0  0  0  0
 14  8  1  0  0  0  0
 17 10  1  0  0  0  0
 18 19  2  0  0  0  0
 18 20  1  0  0  0  0
 21 18  2  0  0  0  0
 22 18  1  0  0  0  0
 23 22  1  0  0  0  0
M  RAD  3   2   2   3   3  20   2
M  END
