Coordinates from ORCA-job 4-MeOPhN2+~HSO4-_B3LYPG-6-31G_dp-NX-Scan-d89-09-n800
 OpenBabel11261921003D

 23 22  0  0  0  0  0  0  0  0999 V2000
   -1.7340    0.6521   -0.4875 C   0  0  0  0  0  0  0  0  0  0  0  0
   -3.0535    0.5667   -0.8711 N   0  0  0  0  0  0  0  0  0  0  0  0
   -4.0966    0.4231   -1.2450 N   0  0  0  0  0  0  0  0  0  0  0  0
   -1.1784    1.8967   -0.1274 C   0  0  0  0  0  0  0  0  0  0  0  0
    0.1541    1.9226    0.2232 C   0  0  0  0  0  0  0  0  0  0  0  0
    0.9244    0.7397    0.2364 C   0  0  0  0  0  0  0  0  0  0  0  0
    2.2064    0.8909    0.6036 O   0  0  0  0  0  0  0  0  0  0  0  0
    3.0637   -0.2506    0.6609 C   0  0  0  0  0  0  0  0  0  0  0  0
    0.3442   -0.4943   -0.1249 C   0  0  0  0  0  0  0  0  0  0  0  0
   -0.9896   -0.5392   -0.4944 C   0  0  0  0  0  0  0  0  0  0  0  0
   -1.8151    2.7749   -0.1552 H   0  0  0  0  0  0  0  0  0  0  0  0
    0.6344    2.8521    0.5066 H   0  0  0  0  0  0  0  0  0  0  0  0
    4.0340    0.1276    0.9805 H   0  0  0  0  0  0  0  0  0  0  0  0
    3.1612   -0.7218   -0.3233 H   0  0  0  0  0  0  0  0  0  0  0  0
    2.6990   -0.9827    1.3899 H   0  0  0  0  0  0  0  0  0  0  0  0
    0.9227   -1.4091   -0.1198 H   0  0  0  0  0  0  0  0  0  0  0  0
   -1.4569   -1.4768   -0.7741 H   0  0  0  0  0  0  0  0  0  0  0  0
   -4.5658    2.8070    0.4058 S   0  0  0  0  0  0  0  0  0  0  0  0
   -3.8053    1.9156    1.3065 O   0  0  0  0  0  0  0  0  0  0  0  0
   -5.3719    3.8590    0.9930 O   0  0  0  0  0  0  0  0  0  0  0  0
   -3.7851    3.1984   -0.8033 O   0  0  0  0  0  0  0  0  0  0  0  0
   -5.7315    1.7241   -0.1919 O   0  0  0  0  0  0  0  0  0  0  0  0
   -6.2820    2.2391   -0.8038 H   0  0  0  0  0  0  0  0  0  0  0  0
  1  4  1  0  0  0  0
  2  1  1  0  0  0  0
  3  2  1  0  0  0  0
  4  5  2  0  0  0  0
  5  6  1  0  0  0  0
  5 12  1  0  0  0  0
  6  7  1  0  0  0  0
  7  8  1  0  0  0  0
  8 13  1  0  0  0  0
  8 15  1  0  0  0  0
  9 16  1  0  0  0  0
  9  6  2  0  0  0  0
 10  1  2  0  0  0  0
 10  9  1  0  0  0  0
 11  4  1  0  0  0  0
 14  8  1  0  0  0  0
 17 10  1  0  0  0  0
 18 20  2  0  0  0  0
 18 19  1  0  0  0  0
 21 18  2  0  0  0  0
 22 18  1  0  0  0  0
 23 22  1  0  0  0  0
M  RAD  3   2   2   3   3  19   2
M  END
