Coordinates from ORCA-job 4-MeOPhN2+~HSO4-_B3LYPG-6-31G_dp-NX-Scan-d89-09-n800
 OpenBabel11261921003D

 23 22  0  0  0  0  0  0  0  0999 V2000
   -1.7423    0.6310   -0.4659 C   0  0  0  0  0  0  0  0  0  0  0  0
   -3.0645    0.5316   -0.8380 N   0  0  0  0  0  0  0  0  0  0  0  0
   -4.0990    0.3492   -1.2195 N   0  0  0  0  0  0  0  0  0  0  0  0
   -1.1928    1.8801   -0.1124 C   0  0  0  0  0  0  0  0  0  0  0  0
    0.1425    1.9160    0.2269 C   0  0  0  0  0  0  0  0  0  0  0  0
    0.9213    0.7387    0.2356 C   0  0  0  0  0  0  0  0  0  0  0  0
    2.2051    0.8994    0.5917 O   0  0  0  0  0  0  0  0  0  0  0  0
    3.0713   -0.2357    0.6431 C   0  0  0  0  0  0  0  0  0  0  0  0
    0.3469   -0.5003   -0.1185 C   0  0  0  0  0  0  0  0  0  0  0  0
   -0.9895   -0.5555   -0.4760 C   0  0  0  0  0  0  0  0  0  0  0  0
   -1.8362    2.7543   -0.1382 H   0  0  0  0  0  0  0  0  0  0  0  0
    0.6185    2.8494    0.5043 H   0  0  0  0  0  0  0  0  0  0  0  0
    4.0415    0.1501    0.9541 H   0  0  0  0  0  0  0  0  0  0  0  0
    3.1639   -0.7073   -0.3413 H   0  0  0  0  0  0  0  0  0  0  0  0
    2.7182   -0.9694    1.3761 H   0  0  0  0  0  0  0  0  0  0  0  0
    0.9320   -1.4110   -0.1167 H   0  0  0  0  0  0  0  0  0  0  0  0
   -1.4526   -1.4970   -0.7496 H   0  0  0  0  0  0  0  0  0  0  0  0
   -4.5711    2.8187    0.4141 S   0  0  0  0  0  0  0  0  0  0  0  0
   -3.8425    1.8782    1.2929 O   0  0  0  0  0  0  0  0  0  0  0  0
   -5.3632    3.8621    1.0407 O   0  0  0  0  0  0  0  0  0  0  0  0
   -3.7622    3.2405   -0.7659 O   0  0  0  0  0  0  0  0  0  0  0  0
   -5.7334    1.7780   -0.2579 O   0  0  0  0  0  0  0  0  0  0  0  0
   -6.2334    2.3140   -0.8947 H   0  0  0  0  0  0  0  0  0  0  0  0
  1  4  1  0  0  0  0
  2  1  1  0  0  0  0
  3  2  1  0  0  0  0
  4  5  2  0  0  0  0
  5  6  1  0  0  0  0
  5 12  1  0  0  0  0
  6  7  1  0  0  0  0
  7  8  1  0  0  0  0
  8 13  1  0  0  0  0
  8 15  1  0  0  0  0
  9 16  1  0  0  0  0
  9  6  2  0  0  0  0
 10  1  2  0  0  0  0
 10  9  1  0  0  0  0
 11  4  1  0  0  0  0
 14  8  1  0  0  0  0
 17 10  1  0  0  0  0
 18 20  2  0  0  0  0
 18 19  1  0  0  0  0
 21 18  2  0  0  0  0
 22 18  1  0  0  0  0
 23 22  1  0  0  0  0
M  RAD  3   2   2   3   3  19   2
M  END
