Coordinates from ORCA-job 4-MeOPhN2+~HSO4-_B3LYPG-6-31G_dp-NX-Scan-d89-09-n800
 OpenBabel11261921003D

 23 23  0  0  0  0  0  0  0  0999 V2000
   -1.5157    0.7231   -0.5795 C   0  0  0  0  0  0  0  0  0  0  0  0
   -2.7298    0.6769   -1.2736 N   0  0  0  0  0  0  0  0  0  0  0  0
   -3.8136    1.1771   -1.1468 N   0  0  0  0  0  0  0  0  0  0  0  0
   -1.2302    1.4729    0.5872 C   0  0  0  0  0  0  0  0  0  0  0  0
    0.0301    1.3952    1.1484 C   0  0  0  0  0  0  0  0  0  0  0  0
    1.0309    0.5844    0.5770 C   0  0  0  0  0  0  0  0  0  0  0  0
    2.2204    0.5926    1.2157 O   0  0  0  0  0  0  0  0  0  0  0  0
    3.2850   -0.2046    0.7037 C   0  0  0  0  0  0  0  0  0  0  0  0
    0.7525   -0.1597   -0.5812 C   0  0  0  0  0  0  0  0  0  0  0  0
   -0.5132   -0.0826   -1.1456 C   0  0  0  0  0  0  0  0  0  0  0  0
   -1.9884    2.0978    1.0345 H   0  0  0  0  0  0  0  0  0  0  0  0
    0.2744    1.9575    2.0430 H   0  0  0  0  0  0  0  0  0  0  0  0
    4.1276   -0.0411    1.3758 H   0  0  0  0  0  0  0  0  0  0  0  0
    3.5637    0.1052   -0.3103 H   0  0  0  0  0  0  0  0  0  0  0  0
    3.0211   -1.2689    0.7020 H   0  0  0  0  0  0  0  0  0  0  0  0
    1.5056   -0.7885   -1.0390 H   0  0  0  0  0  0  0  0  0  0  0  0
   -0.7518   -0.6476   -2.0402 H   0  0  0  0  0  0  0  0  0  0  0  0
   -5.4631    2.5466    0.3511 S   0  0  0  0  0  0  0  0  0  0  0  0
   -5.4457    3.7052    1.2144 O   0  0  0  0  0  0  0  0  0  0  0  0
   -3.9076    2.1625    0.0857 O   0  0  0  0  0  0  0  0  0  0  0  0
   -6.2118    1.3401    0.6601 O   0  0  0  0  0  0  0  0  0  0  0  0
   -5.9273    3.0766   -1.1143 O   0  0  0  0  0  0  0  0  0  0  0  0
   -6.0347    2.2944   -1.6835 H   0  0  0  0  0  0  0  0  0  0  0  0
  1  4  2  0  0  0  0
  2  3  1  0  0  0  0
  2  1  1  0  0  0  0
  3 20  1  0  0  0  0
  4 11  1  0  0  0  0
  4  5  1  0  0  0  0
  5 12  1  0  0  0  0
  6  5  2  0  0  0  0
  6  7  1  0  0  0  0
  8  7  1  0  0  0  0
  8 13  1  0  0  0  0
  9  6  1  0  0  0  0
 10  9  2  0  0  0  0
 10  1  1  0  0  0  0
 14  8  1  0  0  0  0
 15  8  1  0  0  0  0
 16  9  1  0  0  0  0
 17 10  1  0  0  0  0
 18 21  2  0  0  0  0
 18 19  2  0  0  0  0
 20 18  1  0  0  0  0
 22 18  1  0  0  0  0
 23 22  1  0  0  0  0
M  RAD  2   2   2   3   2
M  END
