Coordinates from ORCA-job 4-MeOPhN2+~HSO4-_B3LYPG-6-31G_dp-NX-Scan-d89-09-n800
 OpenBabel11261921003D

 23 22  0  0  0  0  0  0  0  0999 V2000
   -1.9154   -0.8505   -0.2700 C   0  0  0  0  0  0  0  0  0  0  0  0
   -3.0298   -1.5867   -0.5030 N   0  0  0  0  0  0  0  0  0  0  0  0
   -3.9408   -2.2115   -0.7012 N   0  0  0  0  0  0  0  0  0  0  0  0
   -2.0511    0.5216    0.0709 C   0  0  0  0  0  0  0  0  0  0  0  0
   -0.8929    1.2348    0.2892 C   0  0  0  0  0  0  0  0  0  0  0  0
    0.3687    0.6109    0.1766 C   0  0  0  0  0  0  0  0  0  0  0  0
    1.4214    1.3940    0.4074 O   0  0  0  0  0  0  0  0  0  0  0  0
    2.7515    0.8729    0.3123 C   0  0  0  0  0  0  0  0  0  0  0  0
    0.4766   -0.7665   -0.1640 C   0  0  0  0  0  0  0  0  0  0  0  0
   -0.6619   -1.5036   -0.3898 C   0  0  0  0  0  0  0  0  0  0  0  0
   -3.0309    1.0290    0.1591 H   0  0  0  0  0  0  0  0  0  0  0  0
   -0.9966    2.2910    0.5376 H   0  0  0  0  0  0  0  0  0  0  0  0
    3.4072    1.7113    0.5427 H   0  0  0  0  0  0  0  0  0  0  0  0
    2.9600    0.5119   -0.7001 H   0  0  0  0  0  0  0  0  0  0  0  0
    2.9121    0.0704    1.0399 H   0  0  0  0  0  0  0  0  0  0  0  0
    1.4430   -1.2463   -0.2504 H   0  0  0  0  0  0  0  0  0  0  0  0
   -0.6091   -2.5539   -0.6545 H   0  0  0  0  0  0  0  0  0  0  0  0
   -3.9379    3.6022    0.4850 S   0  0  0  0  0  0  0  0  0  0  0  0
   -4.4150    2.1895    0.3950 O   0  0  0  0  0  0  0  0  0  0  0  0
   -4.7554    4.5034    1.3133 O   0  0  0  0  0  0  0  0  0  0  0  0
   -2.4725    3.6865    0.7081 O   0  0  0  0  0  0  0  0  0  0  0  0
   -4.1690    4.1697   -1.0755 O   0  0  0  0  0  0  0  0  0  0  0  0
   -4.5838    5.0351   -0.9436 H   0  0  0  0  0  0  0  0  0  0  0  0
  1  4  1  0  0  0  0
  2  1  1  0  0  0  0
  3  2  1  0  0  0  0
  4 11  1  0  0  0  0
  4  5  2  0  0  0  0
  5 12  1  0  0  0  0
  6  5  1  0  0  0  0
  6  7  1  0  0  0  0
  8  7  1  0  0  0  0
  8 13  1  0  0  0  0
  8 15  1  0  0  0  0
  9  6  2  0  0  0  0
 10  1  2  0  0  0  0
 10  9  1  0  0  0  0
 14  8  1  0  0  0  0
 16  9  1  0  0  0  0
 17 10  1  0  0  0  0
 18 21  2  0  0  0  0
 18 20  1  0  0  0  0
 19 18  2  0  0  0  0
 22 23  1  0  0  0  0
 22 18  1  0  0  0  0
M  RAD  3   2   2   3   3  20   2
M  END
