Coordinates from ORCA-job 4-MeOPhN2+~HSO4-_B3LYPG-6-31G_dp-NX-Scan-d89-09-n800
 OpenBabel11261921003D

 23 23  0  0  0  0  0  0  0  0999 V2000
   -1.5368    0.8178   -0.5824 C   0  0  0  0  0  0  0  0  0  0  0  0
   -2.7172    0.8658   -1.3307 N   0  0  0  0  0  0  0  0  0  0  0  0
   -3.7560    1.4497   -0.8983 N   0  0  0  0  0  0  0  0  0  0  0  0
   -1.2805    1.3541    0.7043 C   0  0  0  0  0  0  0  0  0  0  0  0
   -0.0307    1.1968    1.2776 C   0  0  0  0  0  0  0  0  0  0  0  0
    0.9961    0.5121    0.6030 C   0  0  0  0  0  0  0  0  0  0  0  0
    2.1746    0.4246    1.2630 O   0  0  0  0  0  0  0  0  0  0  0  0
    3.2613   -0.2520    0.6393 C   0  0  0  0  0  0  0  0  0  0  0  0
    0.7532   -0.0242   -0.6719 C   0  0  0  0  0  0  0  0  0  0  0  0
   -0.5004    0.1329   -1.2457 C   0  0  0  0  0  0  0  0  0  0  0  0
   -2.0506    1.8839    1.2442 H   0  0  0  0  0  0  0  0  0  0  0  0
    0.1820    1.5994    2.2618 H   0  0  0  0  0  0  0  0  0  0  0  0
    4.0936   -0.1885    1.3412 H   0  0  0  0  0  0  0  0  0  0  0  0
    3.5445    0.2297   -0.3040 H   0  0  0  0  0  0  0  0  0  0  0  0
    3.0226   -1.3058    0.4527 H   0  0  0  0  0  0  0  0  0  0  0  0
    1.5260   -0.5559   -1.2133 H   0  0  0  0  0  0  0  0  0  0  0  0
   -0.7085   -0.2727   -2.2298 H   0  0  0  0  0  0  0  0  0  0  0  0
   -5.9465    2.8180    0.2307 S   0  0  0  0  0  0  0  0  0  0  0  0
   -5.5810    4.2205    0.3317 O   0  0  0  0  0  0  0  0  0  0  0  0
   -3.9395    2.0291    0.1369 O   0  0  0  0  0  0  0  0  0  0  0  0
   -6.3689    2.0866    1.4128 O   0  0  0  0  0  0  0  0  0  0  0  0
   -6.2945    2.2774   -1.0910 O   0  0  0  0  0  0  0  0  0  0  0  0
   -4.5645    1.4158   -1.5472 H   0  0  0  0  0  0  0  0  0  0  0  0
  1  4  2  0  0  0  0
  2  3  1  0  0  0  0
  2  1  1  0  0  0  0
  3 20  1  0  0  0  0
  4 11  1  0  0  0  0
  4  5  1  0  0  0  0
  5 12  1  0  0  0  0
  6  7  1  0  0  0  0
  6  5  2  0  0  0  0
  8  7  1  0  0  0  0
  8 13  1  0  0  0  0
  9  6  1  0  0  0  0
 10  9  2  0  0  0  0
 10  1  1  0  0  0  0
 14  8  1  0  0  0  0
 15  8  1  0  0  0  0
 16  9  1  0  0  0  0
 17 10  1  0  0  0  0
 18 19  2  0  0  0  0
 18 21  1  0  0  0  0
 20 18  1  0  0  0  0
 22 18  2  0  0  0  0
 23  3  1  0  0  0  0
M  RAD  2   2   2  21   2
M  END
