Coordinates from ORCA-job 4-MeOPhN2+~HSO4-_B3LYPG-6-31G_dp-NX-Scan-d89-09-n800
 OpenBabel11261921003D

 23 22  0  0  0  0  0  0  0  0999 V2000
   -1.7189    0.2218   -0.7685 C   0  0  0  0  0  0  0  0  0  0  0  0
   -2.9754   -0.1221   -1.2192 N   0  0  0  0  0  0  0  0  0  0  0  0
   -4.0675   -0.0144   -1.4855 N   0  0  0  0  0  0  0  0  0  0  0  0
   -1.4728    1.5613   -0.3968 C   0  0  0  0  0  0  0  0  0  0  0  0
   -0.2117    1.8781    0.0613 C   0  0  0  0  0  0  0  0  0  0  0  0
    0.7927    0.8906    0.1566 C   0  0  0  0  0  0  0  0  0  0  0  0
    1.9779    1.3192    0.6209 O   0  0  0  0  0  0  0  0  0  0  0  0
    3.0532    0.3904    0.7698 C   0  0  0  0  0  0  0  0  0  0  0  0
    0.5237   -0.4406   -0.2215 C   0  0  0  0  0  0  0  0  0  0  0  0
   -0.7381   -0.7751   -0.6862 C   0  0  0  0  0  0  0  0  0  0  0  0
   -2.2639    2.2990   -0.4735 H   0  0  0  0  0  0  0  0  0  0  0  0
    0.0282    2.8898    0.3683 H   0  0  0  0  0  0  0  0  0  0  0  0
    3.8875    0.9688    1.1652 H   0  0  0  0  0  0  0  0  0  0  0  0
    3.3367   -0.0455   -0.1947 H   0  0  0  0  0  0  0  0  0  0  0  0
    2.7927   -0.4056    1.4759 H   0  0  0  0  0  0  0  0  0  0  0  0
    1.2846   -1.2071   -0.1506 H   0  0  0  0  0  0  0  0  0  0  0  0
   -0.9717   -1.7928   -0.9789 H   0  0  0  0  0  0  0  0  0  0  0  0
   -4.9746    2.1160    0.3169 S   0  0  0  0  0  0  0  0  0  0  0  0
   -6.3459    2.5773    0.5469 O   0  0  0  0  0  0  0  0  0  0  0  0
   -4.5165    0.8885    0.9892 O   0  0  0  0  0  0  0  0  0  0  0  0
   -4.5526    2.1149   -1.1406 O   0  0  0  0  0  0  0  0  0  0  0  0
   -4.0034    3.3164    0.9696 O   0  0  0  0  0  0  0  0  0  0  0  0
   -4.5858    4.0862    1.0601 H   0  0  0  0  0  0  0  0  0  0  0  0
  1 10  2  0  0  0  0
  1  4  1  0  0  0  0
  2  1  1  0  0  0  0
  3  2  1  0  0  0  0
  4  5  2  0  0  0  0
  5  6  1  0  0  0  0
  5 12  1  0  0  0  0
  6  7  1  0  0  0  0
  7  8  1  0  0  0  0
  8 13  1  0  0  0  0
  8 15  1  0  0  0  0
  9 16  1  0  0  0  0
  9  6  2  0  0  0  0
 10  9  1  0  0  0  0
 11  4  1  0  0  0  0
 14  8  1  0  0  0  0
 17 10  1  0  0  0  0
 18 19  2  0  0  0  0
 18 22  1  0  0  0  0
 18 20  1  0  0  0  0
 21 18  2  0  0  0  0
 22 23  1  0  0  0  0
M  RAD  3   2   2   3   3  20   2
M  END
