Coordinates from ORCA-job 4-MeOPhN2+~HSO4-_B3LYPG-6-31G_dp-NX-Scan-d89-09-n800
 OpenBabel11261921003D

 23 23  0  0  0  0  0  0  0  0999 V2000
   -1.5292    0.7363   -0.5722 C   0  0  0  0  0  0  0  0  0  0  0  0
   -2.7392    0.6859   -1.2772 N   0  0  0  0  0  0  0  0  0  0  0  0
   -3.8237    1.2004   -1.1202 N   0  0  0  0  0  0  0  0  0  0  0  0
   -1.2354    1.4795    0.5974 C   0  0  0  0  0  0  0  0  0  0  0  0
    0.0266    1.3973    1.1553 C   0  0  0  0  0  0  0  0  0  0  0  0
    1.0243    0.5870    0.5789 C   0  0  0  0  0  0  0  0  0  0  0  0
    2.2163    0.5903    1.2149 O   0  0  0  0  0  0  0  0  0  0  0  0
    3.2770   -0.2065    0.6953 C   0  0  0  0  0  0  0  0  0  0  0  0
    0.7407   -0.1514   -0.5811 C   0  0  0  0  0  0  0  0  0  0  0  0
   -0.5265   -0.0680   -1.1416 C   0  0  0  0  0  0  0  0  0  0  0  0
   -1.9864    2.1061    1.0532 H   0  0  0  0  0  0  0  0  0  0  0  0
    0.2741    1.9561    2.0512 H   0  0  0  0  0  0  0  0  0  0  0  0
    4.1228   -0.0476    1.3646 H   0  0  0  0  0  0  0  0  0  0  0  0
    3.5524    0.1067   -0.3185 H   0  0  0  0  0  0  0  0  0  0  0  0
    3.0114   -1.2704    0.6900 H   0  0  0  0  0  0  0  0  0  0  0  0
    1.4908   -0.7803   -1.0438 H   0  0  0  0  0  0  0  0  0  0  0  0
   -0.7688   -0.6281   -2.0383 H   0  0  0  0  0  0  0  0  0  0  0  0
   -5.4684    2.5379    0.3493 S   0  0  0  0  0  0  0  0  0  0  0  0
   -5.4270    3.7106    1.1900 O   0  0  0  0  0  0  0  0  0  0  0  0
   -3.9012    2.1301    0.0808 O   0  0  0  0  0  0  0  0  0  0  0  0
   -6.2137    1.3405    0.6911 O   0  0  0  0  0  0  0  0  0  0  0  0
   -5.9204    3.0409   -1.1241 O   0  0  0  0  0  0  0  0  0  0  0  0
   -5.9180    2.2622   -1.7102 H   0  0  0  0  0  0  0  0  0  0  0  0
  1  4  2  0  0  0  0
  2  3  1  0  0  0  0
  2  1  1  0  0  0  0
  3 20  1  0  0  0  0
  4 11  1  0  0  0  0
  4  5  1  0  0  0  0
  5 12  1  0  0  0  0
  6  5  2  0  0  0  0
  6  7  1  0  0  0  0
  8  7  1  0  0  0  0
  8 13  1  0  0  0  0
  9  6  1  0  0  0  0
 10  9  2  0  0  0  0
 10  1  1  0  0  0  0
 14  8  1  0  0  0  0
 15  8  1  0  0  0  0
 16  9  1  0  0  0  0
 17 10  1  0  0  0  0
 18 21  2  0  0  0  0
 18 19  2  0  0  0  0
 20 18  1  0  0  0  0
 22 18  1  0  0  0  0
 23 22  1  0  0  0  0
M  RAD  2   2   2   3   2
M  END
