Coordinates from ORCA-job 4-MeOPhN2+~HSO4-_B3LYPG-6-31G_dp-NX-Scan-d89-09-n800
 OpenBabel11261921003D

 23 22  0  0  0  0  0  0  0  0999 V2000
   -1.9495   -1.3413   -0.3432 C   0  0  0  0  0  0  0  0  0  0  0  0
   -2.8438   -2.3234   -0.6015 N   0  0  0  0  0  0  0  0  0  0  0  0
   -3.5266   -3.1904   -0.8301 N   0  0  0  0  0  0  0  0  0  0  0  0
   -2.3535   -0.0072   -0.0207 C   0  0  0  0  0  0  0  0  0  0  0  0
   -1.3732    0.9266    0.2127 C   0  0  0  0  0  0  0  0  0  0  0  0
   -0.0056    0.5566    0.1363 C   0  0  0  0  0  0  0  0  0  0  0  0
    0.8567    1.5312    0.3824 O   0  0  0  0  0  0  0  0  0  0  0  0
    2.2685    1.2962    0.3353 C   0  0  0  0  0  0  0  0  0  0  0  0
    0.3831   -0.7733   -0.1829 C   0  0  0  0  0  0  0  0  0  0  0  0
   -0.5817   -1.7201   -0.4235 C   0  0  0  0  0  0  0  0  0  0  0  0
   -3.3941    0.2999    0.0428 H   0  0  0  0  0  0  0  0  0  0  0  0
   -1.6260    1.9776    0.4351 H   0  0  0  0  0  0  0  0  0  0  0  0
    2.7255    2.2553    0.5726 H   0  0  0  0  0  0  0  0  0  0  0  0
    2.5782    0.9769   -0.6650 H   0  0  0  0  0  0  0  0  0  0  0  0
    2.5655    0.5506    1.0800 H   0  0  0  0  0  0  0  0  0  0  0  0
    1.4272   -1.0537   -0.2429 H   0  0  0  0  0  0  0  0  0  0  0  0
   -0.3154   -2.7413   -0.6731 H   0  0  0  0  0  0  0  0  0  0  0  0
   -3.3039    3.9985    0.6090 S   0  0  0  0  0  0  0  0  0  0  0  0
   -4.0019    2.6987    0.7789 O   0  0  0  0  0  0  0  0  0  0  0  0
   -3.7746    5.1354    1.4261 O   0  0  0  0  0  0  0  0  0  0  0  0
   -1.8211    3.8251    0.5790 O   0  0  0  0  0  0  0  0  0  0  0  0
   -3.7089    4.4515   -0.9568 O   0  0  0  0  0  0  0  0  0  0  0  0
   -3.9464    5.3860   -0.8658 H   0  0  0  0  0  0  0  0  0  0  0  0
  1  4  1  0  0  0  0
  2  1  1  0  0  0  0
  3  2  1  0  0  0  0
  4 11  1  0  0  0  0
  4  5  2  0  0  0  0
  5 12  1  0  0  0  0
  6  5  1  0  0  0  0
  6  7  1  0  0  0  0
  8  7  1  0  0  0  0
  8 13  1  0  0  0  0
  8 15  1  0  0  0  0
  9  6  2  0  0  0  0
 10  1  2  0  0  0  0
 10  9  1  0  0  0  0
 14  8  1  0  0  0  0
 16  9  1  0  0  0  0
 17 10  1  0  0  0  0
 18 19  2  0  0  0  0
 18 20  1  0  0  0  0
 21 18  2  0  0  0  0
 22 23  1  0  0  0  0
 22 18  1  0  0  0  0
M  RAD  3   2   2   3   3  20   2
M  END
