Coordinates from ORCA-job 4-MeOPhN2+~HSO4-_B3LYPG-6-31G_dp-NX-Scan-d89-09-n800
 OpenBabel11261921003D

 23 22  0  0  0  0  0  0  0  0999 V2000
   -1.7587    0.5377   -0.5059 C   0  0  0  0  0  0  0  0  0  0  0  0
   -3.0734    0.3982   -0.8900 N   0  0  0  0  0  0  0  0  0  0  0  0
   -4.0824    0.1631   -1.3087 N   0  0  0  0  0  0  0  0  0  0  0  0
   -1.2411    1.8160   -0.2110 C   0  0  0  0  0  0  0  0  0  0  0  0
    0.0910    1.8955    0.1326 C   0  0  0  0  0  0  0  0  0  0  0  0
    0.8941    0.7365    0.2045 C   0  0  0  0  0  0  0  0  0  0  0  0
    2.1709    0.9413    0.5594 O   0  0  0  0  0  0  0  0  0  0  0  0
    3.0609   -0.1707    0.6752 C   0  0  0  0  0  0  0  0  0  0  0  0
    0.3482   -0.5317   -0.0897 C   0  0  0  0  0  0  0  0  0  0  0  0
   -0.9836   -0.6337   -0.4518 C   0  0  0  0  0  0  0  0  0  0  0  0
   -1.9050    2.6791   -0.2719 H   0  0  0  0  0  0  0  0  0  0  0  0
    0.5454    2.8510    0.3684 H   0  0  0  0  0  0  0  0  0  0  0  0
    4.0200    0.2517    0.9724 H   0  0  0  0  0  0  0  0  0  0  0  0
    3.1713   -0.6899   -0.2832 H   0  0  0  0  0  0  0  0  0  0  0  0
    2.7175   -0.8730    1.4426 H   0  0  0  0  0  0  0  0  0  0  0  0
    0.9520   -1.4286   -0.0375 H   0  0  0  0  0  0  0  0  0  0  0  0
   -1.4256   -1.5972   -0.6802 H   0  0  0  0  0  0  0  0  0  0  0  0
   -4.5424    2.8406    0.5057 S   0  0  0  0  0  0  0  0  0  0  0  0
   -3.8353    1.7277    1.1869 O   0  0  0  0  0  0  0  0  0  0  0  0
   -5.3046    3.7559    1.3518 O   0  0  0  0  0  0  0  0  0  0  0  0
   -3.7144    3.4779   -0.5578 O   0  0  0  0  0  0  0  0  0  0  0  0
   -5.6895    1.9618   -0.3776 O   0  0  0  0  0  0  0  0  0  0  0  0
   -6.1370    2.6060   -0.9493 H   0  0  0  0  0  0  0  0  0  0  0  0
  1 10  2  0  0  0  0
  1  4  1  0  0  0  0
  2  1  1  0  0  0  0
  3  2  1  0  0  0  0
  4  5  2  0  0  0  0
  5  6  1  0  0  0  0
  5 12  1  0  0  0  0
  6  7  1  0  0  0  0
  7  8  1  0  0  0  0
  8 13  1  0  0  0  0
  8 15  1  0  0  0  0
  9 16  1  0  0  0  0
  9  6  2  0  0  0  0
 10  9  1  0  0  0  0
 11  4  1  0  0  0  0
 14  8  1  0  0  0  0
 17 10  1  0  0  0  0
 18 19  2  0  0  0  0
 18 20  1  0  0  0  0
 21 18  2  0  0  0  0
 22 18  1  0  0  0  0
 23 22  1  0  0  0  0
M  RAD  3   2   2   3   3  20   2
M  END
