Coordinates from ORCA-job 4-MeOPhN2+~HSO4-_B3LYPG-6-31G_dp-NX-Scan-d89-09-n800
 OpenBabel11261921003D

 23 22  0  0  0  0  0  0  0  0999 V2000
   -1.6534    0.3573   -0.2062 C   0  0  0  0  0  0  0  0  0  0  0  0
   -2.9856    0.0450   -0.3750 N   0  0  0  0  0  0  0  0  0  0  0  0
   -4.0423   -0.3422   -0.5050 N   0  0  0  0  0  0  0  0  0  0  0  0
   -1.2442    1.6748    0.0826 C   0  0  0  0  0  0  0  0  0  0  0  0
    0.1029    1.9144    0.2645 C   0  0  0  0  0  0  0  0  0  0  0  0
    1.0436    0.8692    0.1628 C   0  0  0  0  0  0  0  0  0  0  0  0
    2.3257    1.2227    0.3588 O   0  0  0  0  0  0  0  0  0  0  0  0
    3.3493    0.2315    0.2699 C   0  0  0  0  0  0  0  0  0  0  0  0
    0.6187   -0.4432   -0.1285 C   0  0  0  0  0  0  0  0  0  0  0  0
   -0.7302   -0.6988   -0.3112 C   0  0  0  0  0  0  0  0  0  0  0  0
   -1.9970    2.4554    0.1253 H   0  0  0  0  0  0  0  0  0  0  0  0
    0.4645    2.9123    0.4862 H   0  0  0  0  0  0  0  0  0  0  0  0
    4.2845    0.7571    0.4606 H   0  0  0  0  0  0  0  0  0  0  0  0
    3.3808   -0.2174   -0.7291 H   0  0  0  0  0  0  0  0  0  0  0  0
    3.2102   -0.5512    1.0240 H   0  0  0  0  0  0  0  0  0  0  0  0
    1.3281   -1.2564   -0.2118 H   0  0  0  0  0  0  0  0  0  0  0  0
   -1.0780   -1.7016   -0.5346 H   0  0  0  0  0  0  0  0  0  0  0  0
   -5.2155    2.4657   -0.3081 S   0  0  0  0  0  0  0  0  0  0  0  0
   -6.2629    3.2938   -0.9042 O   0  0  0  0  0  0  0  0  0  0  0  0
   -5.5284    0.9860   -0.3239 O   0  0  0  0  0  0  0  0  0  0  0  0
   -3.8190    2.7028   -0.7277 O   0  0  0  0  0  0  0  0  0  0  0  0
   -5.1872    2.8705    1.3031 O   0  0  0  0  0  0  0  0  0  0  0  0
   -6.0864    3.1675    1.5123 H   0  0  0  0  0  0  0  0  0  0  0  0
  1  4  1  0  0  0  0
  2  1  1  0  0  0  0
  3  2  1  0  0  0  0
  4 11  1  0  0  0  0
  4  5  2  0  0  0  0
  5 12  1  0  0  0  0
  6  5  1  0  0  0  0
  6  7  1  0  0  0  0
  8  7  1  0  0  0  0
  8 13  1  0  0  0  0
  8 15  1  0  0  0  0
  9  6  2  0  0  0  0
 10  1  2  0  0  0  0
 10  9  1  0  0  0  0
 14  8  1  0  0  0  0
 16  9  1  0  0  0  0
 17 10  1  0  0  0  0
 18 22  1  0  0  0  0
 19 18  2  0  0  0  0
 20 18  1  0  0  0  0
 21 18  2  0  0  0  0
 22 23  1  0  0  0  0
M  RAD  3   2   2   3   3  20   2
M  END
