Coordinates from ORCA-job 4-MeOPhN2+~HSO4-_B3LYPG-6-31G_dp-NX-Scan-d89-09-n800
 OpenBabel11261921003D

 23 22  0  0  0  0  0  0  0  0999 V2000
   -1.9045   -0.4770   -0.1327 C   0  0  0  0  0  0  0  0  0  0  0  0
   -3.1346   -0.9997   -0.3923 N   0  0  0  0  0  0  0  0  0  0  0  0
   -4.1338   -1.4527   -0.6140 N   0  0  0  0  0  0  0  0  0  0  0  0
   -1.8397    0.8070    0.4556 C   0  0  0  0  0  0  0  0  0  0  0  0
   -0.5934    1.3490    0.6712 C   0  0  0  0  0  0  0  0  0  0  0  0
    0.5688    0.6274    0.3287 C   0  0  0  0  0  0  0  0  0  0  0  0
    1.7280    1.2398    0.5835 O   0  0  0  0  0  0  0  0  0  0  0  0
    2.9688    0.6057    0.2560 C   0  0  0  0  0  0  0  0  0  0  0  0
    0.4759   -0.6659   -0.2555 C   0  0  0  0  0  0  0  0  0  0  0  0
   -0.7596   -1.2249   -0.4965 C   0  0  0  0  0  0  0  0  0  0  0  0
   -2.7680    1.3398    0.6785 H   0  0  0  0  0  0  0  0  0  0  0  0
   -0.5209    2.3517    1.0765 H   0  0  0  0  0  0  0  0  0  0  0  0
    3.7425    1.3111    0.5564 H   0  0  0  0  0  0  0  0  0  0  0  0
    3.0421    0.4176   -0.8203 H   0  0  0  0  0  0  0  0  0  0  0  0
    3.0911   -0.3301    0.8111 H   0  0  0  0  0  0  0  0  0  0  0  0
    1.3665   -1.2184   -0.5241 H   0  0  0  0  0  0  0  0  0  0  0  0
   -0.8545   -2.2039   -0.9525 H   0  0  0  0  0  0  0  0  0  0  0  0
   -4.2500    3.3194    0.2909 S   0  0  0  0  0  0  0  0  0  0  0  0
   -4.5472    1.8536    0.3149 O   0  0  0  0  0  0  0  0  0  0  0  0
   -5.1857    4.1865    1.0259 O   0  0  0  0  0  0  0  0  0  0  0  0
   -2.8097    3.5880    0.5350 O   0  0  0  0  0  0  0  0  0  0  0  0
   -4.5116    3.7002   -1.3189 O   0  0  0  0  0  0  0  0  0  0  0  0
   -4.8920    4.5909   -1.2928 H   0  0  0  0  0  0  0  0  0  0  0  0
  1  4  2  0  0  0  0
  2  1  1  0  0  0  0
  3  2  1  0  0  0  0
  4  5  1  0  0  0  0
  4 11  1  0  0  0  0
  5 12  1  0  0  0  0
  6  7  1  0  0  0  0
  6  5  2  0  0  0  0
  8 13  1  0  0  0  0
  8  7  1  0  0  0  0
  8 15  1  0  0  0  0
  9  6  1  0  0  0  0
 10  9  2  0  0  0  0
 10  1  1  0  0  0  0
 14  8  1  0  0  0  0
 16  9  1  0  0  0  0
 17 10  1  0  0  0  0
 18 19  2  0  0  0  0
 18 21  2  0  0  0  0
 18 20  1  0  0  0  0
 22 23  1  0  0  0  0
 22 18  1  0  0  0  0
M  RAD  3   2   2   3   3  20   2
M  END
