Coordinates from ORCA-job 4-MeOPhN2+~HSO4-_B3LYPG-6-31G_dp-NX-Scan-d89-09-n800
 OpenBabel11261921003D

 23 22  0  0  0  0  0  0  0  0999 V2000
   -1.6558    0.2025   -0.5672 C   0  0  0  0  0  0  0  0  0  0  0  0
   -2.9273   -0.0789   -1.0309 N   0  0  0  0  0  0  0  0  0  0  0  0
   -4.0071    0.0890   -1.3326 N   0  0  0  0  0  0  0  0  0  0  0  0
   -1.4132    1.4269    0.0940 C   0  0  0  0  0  0  0  0  0  0  0  0
   -0.1306    1.6640    0.5448 C   0  0  0  0  0  0  0  0  0  0  0  0
    0.8977    0.7185    0.3449 C   0  0  0  0  0  0  0  0  0  0  0  0
    2.1037    1.0677    0.8231 O   0  0  0  0  0  0  0  0  0  0  0  0
    3.2044    0.1683    0.6807 C   0  0  0  0  0  0  0  0  0  0  0  0
    0.6284   -0.5000   -0.3119 C   0  0  0  0  0  0  0  0  0  0  0  0
   -0.6556   -0.7614   -0.7609 C   0  0  0  0  0  0  0  0  0  0  0  0
   -2.2233    2.1345    0.2699 H   0  0  0  0  0  0  0  0  0  0  0  0
    0.1080    2.5833    1.0680 H   0  0  0  0  0  0  0  0  0  0  0  0
    4.0549    0.6706    1.1403 H   0  0  0  0  0  0  0  0  0  0  0  0
    3.4222   -0.0268   -0.3751 H   0  0  0  0  0  0  0  0  0  0  0  0
    3.0133   -0.7765    1.2011 H   0  0  0  0  0  0  0  0  0  0  0  0
    1.4065   -1.2360   -0.4683 H   0  0  0  0  0  0  0  0  0  0  0  0
   -0.8896   -1.6930   -1.2644 H   0  0  0  0  0  0  0  0  0  0  0  0
   -4.9697    2.4351    0.1552 S   0  0  0  0  0  0  0  0  0  0  0  0
   -5.7588    1.3030    0.6407 O   0  0  0  0  0  0  0  0  0  0  0  0
   -3.9392    2.9880    1.0664 O   0  0  0  0  0  0  0  0  0  0  0  0
   -4.3809    2.1967   -1.2237 O   0  0  0  0  0  0  0  0  0  0  0  0
   -6.0467    3.6650   -0.0676 O   0  0  0  0  0  0  0  0  0  0  0  0
   -5.5629    4.4746    0.1583 H   0  0  0  0  0  0  0  0  0  0  0  0
  1  4  1  0  0  0  0
  2  1  1  0  0  0  0
  3  2  1  0  0  0  0
  4 11  1  0  0  0  0
  4  5  2  0  0  0  0
  5 12  1  0  0  0  0
  6  5  1  0  0  0  0
  6  7  1  0  0  0  0
  8  7  1  0  0  0  0
  8 13  1  0  0  0  0
  8 15  1  0  0  0  0
  9  6  2  0  0  0  0
 10  1  2  0  0  0  0
 10  9  1  0  0  0  0
 14  8  1  0  0  0  0
 16  9  1  0  0  0  0
 17 10  1  0  0  0  0
 18 19  2  0  0  0  0
 18 20  1  0  0  0  0
 21 18  2  0  0  0  0
 22 18  1  0  0  0  0
 22 23  1  0  0  0  0
M  RAD  3   2   2   3   3  20   2
M  END
