Coordinates from ORCA-job 4-MeOPhN2+~HSO4-_B3LYPG-6-31G_dp-NX-Scan-d89-09-n800
 OpenBabel11261921003D

 23 22  0  0  0  0  0  0  0  0999 V2000
   -1.7524    0.3258   -0.5822 C   0  0  0  0  0  0  0  0  0  0  0  0
   -3.0381    0.0695   -1.0068 N   0  0  0  0  0  0  0  0  0  0  0  0
   -3.9654   -0.3384   -1.4789 N   0  0  0  0  0  0  0  0  0  0  0  0
   -1.3260    1.6453   -0.3278 C   0  0  0  0  0  0  0  0  0  0  0  0
   -0.0108    1.8199    0.0464 C   0  0  0  0  0  0  0  0  0  0  0  0
    0.8615    0.7190    0.1866 C   0  0  0  0  0  0  0  0  0  0  0  0
    2.1114    1.0170    0.5667 O   0  0  0  0  0  0  0  0  0  0  0  0
    3.0664   -0.0311    0.7500 C   0  0  0  0  0  0  0  0  0  0  0  0
    0.4044   -0.5931   -0.0688 C   0  0  0  0  0  0  0  0  0  0  0  0
   -0.9064   -0.7932   -0.4603 C   0  0  0  0  0  0  0  0  0  0  0  0
   -2.0298    2.4794   -0.4196 H   0  0  0  0  0  0  0  0  0  0  0  0
    0.3733    2.8116    0.2573 H   0  0  0  0  0  0  0  0  0  0  0  0
    3.9876    0.4632    1.0556 H   0  0  0  0  0  0  0  0  0  0  0  0
    3.2371   -0.5774   -0.1843 H   0  0  0  0  0  0  0  0  0  0  0  0
    2.7453   -0.7243    1.5348 H   0  0  0  0  0  0  0  0  0  0  0  0
    1.0604   -1.4474    0.0379 H   0  0  0  0  0  0  0  0  0  0  0  0
   -1.2807   -1.7912   -0.6608 H   0  0  0  0  0  0  0  0  0  0  0  0
   -4.5003    2.8952    0.4879 S   0  0  0  0  0  0  0  0  0  0  0  0
   -4.0211    1.5092    0.7697 O   0  0  0  0  0  0  0  0  0  0  0  0
   -5.0304    3.6425    1.6354 O   0  0  0  0  0  0  0  0  0  0  0  0
   -3.5443    3.6456   -0.3720 O   0  0  0  0  0  0  0  0  0  0  0  0
   -5.8163    2.5783   -0.4933 O   0  0  0  0  0  0  0  0  0  0  0  0
   -6.3470    3.3899   -0.4887 H   0  0  0  0  0  0  0  0  0  0  0  0
  1 10  2  0  0  0  0
  1  4  1  0  0  0  0
  2  1  1  0  0  0  0
  3  2  1  0  0  0  0
  4  5  2  0  0  0  0
  5  6  1  0  0  0  0
  5 12  1  0  0  0  0
  6  7  1  0  0  0  0
  7  8  1  0  0  0  0
  8 13  1  0  0  0  0
  8 15  1  0  0  0  0
  9 16  1  0  0  0  0
  9  6  2  0  0  0  0
 10  9  1  0  0  0  0
 11  4  1  0  0  0  0
 14  8  1  0  0  0  0
 17 10  1  0  0  0  0
 18 19  2  0  0  0  0
 18 20  1  0  0  0  0
 21 18  2  0  0  0  0
 22 23  1  0  0  0  0
 22 18  1  0  0  0  0
M  RAD  3   2   2   3   3  20   2
M  END
