Coordinates from ORCA-job 4-MeOPhN2+~HSO4-_B3LYPG-6-31G_dp-NX-Scan-d89-09-n800
 OpenBabel11261921003D

 23 22  0  0  0  0  0  0  0  0999 V2000
   -1.7527    0.3386   -0.5913 C   0  0  0  0  0  0  0  0  0  0  0  0
   -3.0389    0.0888   -1.0182 N   0  0  0  0  0  0  0  0  0  0  0  0
   -3.9674   -0.3063   -1.4991 N   0  0  0  0  0  0  0  0  0  0  0  0
   -1.3206    1.6572   -0.3422 C   0  0  0  0  0  0  0  0  0  0  0  0
   -0.0053    1.8271    0.0337 C   0  0  0  0  0  0  0  0  0  0  0  0
    0.8608    0.7223    0.1822 C   0  0  0  0  0  0  0  0  0  0  0  0
    2.1114    1.0160    0.5636 O   0  0  0  0  0  0  0  0  0  0  0  0
    3.0597   -0.0362    0.7574 C   0  0  0  0  0  0  0  0  0  0  0  0
    0.3974   -0.5887   -0.0666 C   0  0  0  0  0  0  0  0  0  0  0  0
   -0.9136   -0.7842   -0.4601 C   0  0  0  0  0  0  0  0  0  0  0  0
   -2.0209    2.4937   -0.4381 H   0  0  0  0  0  0  0  0  0  0  0  0
    0.3835    2.8178    0.2406 H   0  0  0  0  0  0  0  0  0  0  0  0
    3.9827    0.4547    1.0629 H   0  0  0  0  0  0  0  0  0  0  0  0
    3.2305   -0.5899   -0.1726 H   0  0  0  0  0  0  0  0  0  0  0  0
    2.7319   -0.7224    1.5457 H   0  0  0  0  0  0  0  0  0  0  0  0
    1.0484   -1.4459    0.0469 H   0  0  0  0  0  0  0  0  0  0  0  0
   -1.2930   -1.7812   -0.6555 H   0  0  0  0  0  0  0  0  0  0  0  0
   -4.4946    2.8829    0.5033 S   0  0  0  0  0  0  0  0  0  0  0  0
   -3.9972    1.5056    0.7946 O   0  0  0  0  0  0  0  0  0  0  0  0
   -5.0142    3.6398    1.6489 O   0  0  0  0  0  0  0  0  0  0  0  0
   -3.5619    3.6335   -0.3822 O   0  0  0  0  0  0  0  0  0  0  0  0
   -5.8190    2.5344   -0.4568 O   0  0  0  0  0  0  0  0  0  0  0  0
   -6.3287    3.3577   -0.5122 H   0  0  0  0  0  0  0  0  0  0  0  0
  1 10  2  0  0  0  0
  1  4  1  0  0  0  0
  2  1  1  0  0  0  0
  3  2  1  0  0  0  0
  4  5  2  0  0  0  0
  5  6  1  0  0  0  0
  5 12  1  0  0  0  0
  6  7  1  0  0  0  0
  7  8  1  0  0  0  0
  8 13  1  0  0  0  0
  8 15  1  0  0  0  0
  9 16  1  0  0  0  0
  9  6  2  0  0  0  0
 10  9  1  0  0  0  0
 11  4  1  0  0  0  0
 14  8  1  0  0  0  0
 17 10  1  0  0  0  0
 18 19  2  0  0  0  0
 18 20  1  0  0  0  0
 21 18  2  0  0  0  0
 22 18  1  0  0  0  0
 23 22  1  0  0  0  0
M  RAD  3   2   2   3   3  20   2
M  END
