Coordinates from ORCA-job 4-MeOPhN2+~HSO4-_B3LYPG-6-31G_dp-NX-Scan-d89-09-n800
 OpenBabel11261921003D

 23 22  0  0  0  0  0  0  0  0999 V2000
   -1.9370   -1.0021   -0.3034 C   0  0  0  0  0  0  0  0  0  0  0  0
   -2.9952   -1.8080   -0.5526 N   0  0  0  0  0  0  0  0  0  0  0  0
   -3.8607   -2.4922   -0.7646 N   0  0  0  0  0  0  0  0  0  0  0  0
   -2.1564    0.3555    0.0592 C   0  0  0  0  0  0  0  0  0  0  0  0
   -1.0503    1.1402    0.2954 C   0  0  0  0  0  0  0  0  0  0  0  0
    0.2492    0.5976    0.1778 C   0  0  0  0  0  0  0  0  0  0  0  0
    1.2481    1.4400    0.4277 O   0  0  0  0  0  0  0  0  0  0  0  0
    2.6098    1.0089    0.3295 C   0  0  0  0  0  0  0  0  0  0  0  0
    0.4462   -0.7642   -0.1859 C   0  0  0  0  0  0  0  0  0  0  0  0
   -0.6415   -1.5688   -0.4282 C   0  0  0  0  0  0  0  0  0  0  0  0
   -3.1469    0.8210    0.1580 H   0  0  0  0  0  0  0  0  0  0  0  0
   -1.2170    2.1944    0.5524 H   0  0  0  0  0  0  0  0  0  0  0  0
    3.2077    1.8850    0.5759 H   0  0  0  0  0  0  0  0  0  0  0  0
    2.8439    0.6787   -0.6877 H   0  0  0  0  0  0  0  0  0  0  0  0
    2.8201    0.2070    1.0449 H   0  0  0  0  0  0  0  0  0  0  0  0
    1.4416   -1.1799   -0.2772 H   0  0  0  0  0  0  0  0  0  0  0  0
   -0.5204   -2.6091   -0.7092 H   0  0  0  0  0  0  0  0  0  0  0  0
   -3.7201    3.7322    0.5353 S   0  0  0  0  0  0  0  0  0  0  0  0
   -4.2156    2.3292    0.6116 O   0  0  0  0  0  0  0  0  0  0  0  0
   -4.4679    4.7260    1.3223 O   0  0  0  0  0  0  0  0  0  0  0  0
   -2.2395    3.8219    0.6557 O   0  0  0  0  0  0  0  0  0  0  0  0
   -4.0477    4.1455   -1.0566 O   0  0  0  0  0  0  0  0  0  0  0  0
   -4.3719    5.0564   -0.9955 H   0  0  0  0  0  0  0  0  0  0  0  0
  1  4  1  0  0  0  0
  2  1  1  0  0  0  0
  3  2  1  0  0  0  0
  4 11  1  0  0  0  0
  4  5  2  0  0  0  0
  5 12  1  0  0  0  0
  6  5  1  0  0  0  0
  6  7  1  0  0  0  0
  8  7  1  0  0  0  0
  8 13  1  0  0  0  0
  8 15  1  0  0  0  0
  9  6  2  0  0  0  0
 10  1  2  0  0  0  0
 10  9  1  0  0  0  0
 14  8  1  0  0  0  0
 16  9  1  0  0  0  0
 17 10  1  0  0  0  0
 18 19  2  0  0  0  0
 18 21  2  0  0  0  0
 18 20  1  0  0  0  0
 22 23  1  0  0  0  0
 22 18  1  0  0  0  0
M  RAD  3   2   2   3   3  20   2
M  END
