Coordinates from ORCA-job 4-MeOPhN2+~HSO4-_B3LYPG-6-31G_dp-NX-Scan-d89-09-n800
 OpenBabel11261921003D

 23 22  0  0  0  0  0  0  0  0999 V2000
   -1.8911   -0.5826   -0.1723 C   0  0  0  0  0  0  0  0  0  0  0  0
   -3.1059   -1.1476   -0.4061 N   0  0  0  0  0  0  0  0  0  0  0  0
   -4.1122   -1.5996   -0.5981 N   0  0  0  0  0  0  0  0  0  0  0  0
   -1.8781    0.7574    0.2808 C   0  0  0  0  0  0  0  0  0  0  0  0
   -0.6541    1.3517    0.4851 C   0  0  0  0  0  0  0  0  0  0  0  0
    0.5356    0.6283    0.2564 C   0  0  0  0  0  0  0  0  0  0  0  0
    1.6709    1.2914    0.4866 O   0  0  0  0  0  0  0  0  0  0  0  0
    2.9368    0.6578    0.2744 C   0  0  0  0  0  0  0  0  0  0  0  0
    0.4934   -0.7208   -0.1950 C   0  0  0  0  0  0  0  0  0  0  0  0
   -0.7186   -1.3359   -0.4169 C   0  0  0  0  0  0  0  0  0  0  0  0
   -2.8290    1.2883    0.4243 H   0  0  0  0  0  0  0  0  0  0  0  0
   -0.6308    2.3892    0.8005 H   0  0  0  0  0  0  0  0  0  0  0  0
    3.6828    1.4078    0.5341 H   0  0  0  0  0  0  0  0  0  0  0  0
    3.0596    0.3667   -0.7740 H   0  0  0  0  0  0  0  0  0  0  0  0
    3.0537   -0.2157    0.9241 H   0  0  0  0  0  0  0  0  0  0  0  0
    1.4058   -1.2738   -0.3753 H   0  0  0  0  0  0  0  0  0  0  0  0
   -0.7746   -2.3593   -0.7702 H   0  0  0  0  0  0  0  0  0  0  0  0
   -4.2061    3.3724    0.3367 S   0  0  0  0  0  0  0  0  0  0  0  0
   -4.5221    1.9193    0.1751 O   0  0  0  0  0  0  0  0  0  0  0  0
   -5.1430    4.1433    1.1693 O   0  0  0  0  0  0  0  0  0  0  0  0
   -2.7660    3.5904    0.6229 O   0  0  0  0  0  0  0  0  0  0  0  0
   -4.4476    3.9659   -1.2102 O   0  0  0  0  0  0  0  0  0  0  0  0
   -4.8811    4.8205   -1.0672 H   0  0  0  0  0  0  0  0  0  0  0  0
  1  4  2  0  0  0  0
  2  1  1  0  0  0  0
  3  2  1  0  0  0  0
  4 11  1  0  0  0  0
  4  5  1  0  0  0  0
  5 12  1  0  0  0  0
  6  5  2  0  0  0  0
  6  7  1  0  0  0  0
  8  7  1  0  0  0  0
  8 13  1  0  0  0  0
  8 15  1  0  0  0  0
  9  6  1  0  0  0  0
 10  9  2  0  0  0  0
 10  1  1  0  0  0  0
 14  8  1  0  0  0  0
 16  9  1  0  0  0  0
 17 10  1  0  0  0  0
 18 21  2  0  0  0  0
 18 20  1  0  0  0  0
 19 18  2  0  0  0  0
 22 23  1  0  0  0  0
 22 18  1  0  0  0  0
M  RAD  3   2   2   3   3  20   2
M  END
