Coordinates from ORCA-job 4-MeOPhN2+~HSO4-_B3LYPG-6-31G_dp-NX-Scan-d89-09-n800
 OpenBabel11261921003D

 23 22  0  0  0  0  0  0  0  0999 V2000
   -1.9247   -0.9016   -0.2817 C   0  0  0  0  0  0  0  0  0  0  0  0
   -3.0183   -1.6650   -0.5213 N   0  0  0  0  0  0  0  0  0  0  0  0
   -3.9092   -2.3168   -0.7259 N   0  0  0  0  0  0  0  0  0  0  0  0
   -2.0891    0.4647    0.0725 C   0  0  0  0  0  0  0  0  0  0  0  0
   -0.9472    1.2015    0.2973 C   0  0  0  0  0  0  0  0  0  0  0  0
    0.3280    0.6064    0.1779 C   0  0  0  0  0  0  0  0  0  0  0  0
    1.3627    1.4098    0.4167 O   0  0  0  0  0  0  0  0  0  0  0  0
    2.7043    0.9200    0.3164 C   0  0  0  0  0  0  0  0  0  0  0  0
    0.4663   -0.7647   -0.1767 C   0  0  0  0  0  0  0  0  0  0  0  0
   -0.6558   -1.5243   -0.4087 C   0  0  0  0  0  0  0  0  0  0  0  0
   -3.0714    0.9611    0.1701 H   0  0  0  0  0  0  0  0  0  0  0  0
   -1.0739    2.2558    0.5537 H   0  0  0  0  0  0  0  0  0  0  0  0
    3.3406    1.7710    0.5550 H   0  0  0  0  0  0  0  0  0  0  0  0
    2.9204    0.5737   -0.6994 H   0  0  0  0  0  0  0  0  0  0  0  0
    2.8831    0.1144    1.0362 H   0  0  0  0  0  0  0  0  0  0  0  0
    1.4430   -1.2224   -0.2690 H   0  0  0  0  0  0  0  0  0  0  0  0
   -0.5800   -2.5706   -0.6835 H   0  0  0  0  0  0  0  0  0  0  0  0
   -3.8689    3.6510    0.5090 S   0  0  0  0  0  0  0  0  0  0  0  0
   -4.3606    2.2418    0.4901 O   0  0  0  0  0  0  0  0  0  0  0  0
   -4.6669    4.6004    1.3017 O   0  0  0  0  0  0  0  0  0  0  0  0
   -2.3996    3.7348    0.7124 O   0  0  0  0  0  0  0  0  0  0  0  0
   -4.1125    4.1438   -1.0753 O   0  0  0  0  0  0  0  0  0  0  0  0
   -4.4919    5.0303   -0.9827 H   0  0  0  0  0  0  0  0  0  0  0  0
  1  4  1  0  0  0  0
  2  1  1  0  0  0  0
  3  2  1  0  0  0  0
  4 11  1  0  0  0  0
  4  5  2  0  0  0  0
  5 12  1  0  0  0  0
  6  5  1  0  0  0  0
  6  7  1  0  0  0  0
  8  7  1  0  0  0  0
  8 13  1  0  0  0  0
  8 15  1  0  0  0  0
  9  6  2  0  0  0  0
 10  1  2  0  0  0  0
 10  9  1  0  0  0  0
 14  8  1  0  0  0  0
 16  9  1  0  0  0  0
 17 10  1  0  0  0  0
 18 21  2  0  0  0  0
 18 20  1  0  0  0  0
 19 18  2  0  0  0  0
 22 23  1  0  0  0  0
 22 18  1  0  0  0  0
M  RAD  3   2   2   3   3  20   2
M  END
