Coordinates from ORCA-job 4-MeOPhN2+~HSO4-_B3LYPG-6-31G_dp-NX-Scan-d89-09-n800
 OpenBabel11261921003D

 23 22  0  0  0  0  0  0  0  0999 V2000
   -1.9547   -1.2892   -0.3375 C   0  0  0  0  0  0  0  0  0  0  0  0
   -2.8707   -2.2504   -0.5987 N   0  0  0  0  0  0  0  0  0  0  0  0
   -3.5724   -3.1004   -0.8317 N   0  0  0  0  0  0  0  0  0  0  0  0
   -2.3312    0.0477    0.0024 C   0  0  0  0  0  0  0  0  0  0  0  0
   -1.3300    0.9585    0.2402 C   0  0  0  0  0  0  0  0  0  0  0  0
    0.0289    0.5633    0.1511 C   0  0  0  0  0  0  0  0  0  0  0  0
    0.9128    1.5181    0.4033 O   0  0  0  0  0  0  0  0  0  0  0  0
    2.3189    1.2554    0.3395 C   0  0  0  0  0  0  0  0  0  0  0  0
    0.3894   -0.7700   -0.1863 C   0  0  0  0  0  0  0  0  0  0  0  0
   -0.5954   -1.6949   -0.4311 C   0  0  0  0  0  0  0  0  0  0  0  0
   -3.3637    0.3817    0.0762 H   0  0  0  0  0  0  0  0  0  0  0  0
   -1.5678    2.0103    0.4739 H   0  0  0  0  0  0  0  0  0  0  0  0
    2.7980    2.2021    0.5833 H   0  0  0  0  0  0  0  0  0  0  0  0
    2.6125    0.9418   -0.6673 H   0  0  0  0  0  0  0  0  0  0  0  0
    2.6083    0.4953    1.0726 H   0  0  0  0  0  0  0  0  0  0  0  0
    1.4274   -1.0702   -0.2564 H   0  0  0  0  0  0  0  0  0  0  0  0
   -0.3511   -2.7183   -0.6937 H   0  0  0  0  0  0  0  0  0  0  0  0
   -3.3517    3.9587    0.5884 S   0  0  0  0  0  0  0  0  0  0  0  0
   -3.9996    2.6320    0.7542 O   0  0  0  0  0  0  0  0  0  0  0  0
   -3.8667    5.0721    1.4100 O   0  0  0  0  0  0  0  0  0  0  0  0
   -1.8637    3.8448    0.5583 O   0  0  0  0  0  0  0  0  0  0  0  0
   -3.7769    4.3967   -0.9754 O   0  0  0  0  0  0  0  0  0  0  0  0
   -4.0221    5.3299   -0.8903 H   0  0  0  0  0  0  0  0  0  0  0  0
  1  4  1  0  0  0  0
  2  1  1  0  0  0  0
  3  2  1  0  0  0  0
  4 11  1  0  0  0  0
  4  5  2  0  0  0  0
  5 12  1  0  0  0  0
  6  5  1  0  0  0  0
  6  7  1  0  0  0  0
  8  7  1  0  0  0  0
  8 13  1  0  0  0  0
  8 15  1  0  0  0  0
  9  6  2  0  0  0  0
 10  1  2  0  0  0  0
 10  9  1  0  0  0  0
 14  8  1  0  0  0  0
 16  9  1  0  0  0  0
 17 10  1  0  0  0  0
 18 19  2  0  0  0  0
 18 20  1  0  0  0  0
 21 18  2  0  0  0  0
 22 23  1  0  0  0  0
 22 18  1  0  0  0  0
M  RAD  3   2   2   3   3  20   2
M  END
