Coordinates from ORCA-job 4-MeOPhN2+~HSO4-_B3LYPG-6-31G_dp-NX-Scan-d89-09-n800
 OpenBabel11261921003D

 23 22  0  0  0  0  0  0  0  0999 V2000
   -1.9009   -0.2776   -0.0944 C   0  0  0  0  0  0  0  0  0  0  0  0
   -3.1543   -0.7551   -0.3582 N   0  0  0  0  0  0  0  0  0  0  0  0
   -4.1104   -1.2756   -0.6166 N   0  0  0  0  0  0  0  0  0  0  0  0
   -1.7389    0.9533    0.5769 C   0  0  0  0  0  0  0  0  0  0  0  0
   -0.4533    1.3936    0.8020 C   0  0  0  0  0  0  0  0  0  0  0  0
    0.6545    0.6307    0.3814 C   0  0  0  0  0  0  0  0  0  0  0  0
    1.8555    1.1515    0.6530 O   0  0  0  0  0  0  0  0  0  0  0  0
    3.0446    0.4666    0.2472 C   0  0  0  0  0  0  0  0  0  0  0  0
    0.4661   -0.6056   -0.2903 C   0  0  0  0  0  0  0  0  0  0  0  0
   -0.8100   -1.0642   -0.5352 C   0  0  0  0  0  0  0  0  0  0  0  0
   -2.6111    1.5391    0.8523 H   0  0  0  0  0  0  0  0  0  0  0  0
   -0.2927    2.3516    1.2823 H   0  0  0  0  0  0  0  0  0  0  0  0
    3.8694    1.0984    0.5742 H   0  0  0  0  0  0  0  0  0  0  0  0
    3.0801    0.3515   -0.8414 H   0  0  0  0  0  0  0  0  0  0  0  0
    3.1196   -0.5124    0.7318 H   0  0  0  0  0  0  0  0  0  0  0  0
    1.3114   -1.1945   -0.6206 H   0  0  0  0  0  0  0  0  0  0  0  0
   -0.9777   -2.0018   -1.0536 H   0  0  0  0  0  0  0  0  0  0  0  0
   -4.3990    3.2079    0.2250 S   0  0  0  0  0  0  0  0  0  0  0  0
   -4.5952    1.7264    0.2950 O   0  0  0  0  0  0  0  0  0  0  0  0
   -5.3946    4.0475    0.9148 O   0  0  0  0  0  0  0  0  0  0  0  0
   -2.9824    3.5774    0.4827 O   0  0  0  0  0  0  0  0  0  0  0  0
   -4.6559    3.5099   -1.4010 O   0  0  0  0  0  0  0  0  0  0  0  0
   -5.0464    4.3966   -1.4224 H   0  0  0  0  0  0  0  0  0  0  0  0
  1  4  2  0  0  0  0
  2  1  1  0  0  0  0
  3  2  1  0  0  0  0
  4  5  1  0  0  0  0
  4 11  1  0  0  0  0
  5 12  1  0  0  0  0
  6  7  1  0  0  0  0
  6  5  2  0  0  0  0
  8 13  1  0  0  0  0
  8  7  1  0  0  0  0
  8 15  1  0  0  0  0
  9  6  1  0  0  0  0
 10  9  2  0  0  0  0
 10  1  1  0  0  0  0
 14  8  1  0  0  0  0
 16  9  1  0  0  0  0
 17 10  1  0  0  0  0
 18 19  2  0  0  0  0
 18 21  2  0  0  0  0
 18 20  1  0  0  0  0
 22 18  1  0  0  0  0
 23 22  1  0  0  0  0
M  RAD  3   2   2   3   3  20   2
M  END
