Coordinates from ORCA-job 4-MeOPhN2+~HSO4-_B3LYPG-6-31G_dp-NX-Scan-d89-09-n800
 OpenBabel11261921003D

 23 22  0  0  0  0  0  0  0  0999 V2000
   -1.7616    0.5154   -0.5205 C   0  0  0  0  0  0  0  0  0  0  0  0
   -3.0740    0.3647   -0.9077 N   0  0  0  0  0  0  0  0  0  0  0  0
   -4.0763    0.1180   -1.3354 N   0  0  0  0  0  0  0  0  0  0  0  0
   -1.2523    1.8002   -0.2385 C   0  0  0  0  0  0  0  0  0  0  0  0
    0.0784    1.8900    0.1080 C   0  0  0  0  0  0  0  0  0  0  0  0
    0.8871    0.7359    0.1962 C   0  0  0  0  0  0  0  0  0  0  0  0
    2.1614    0.9513    0.5534 O   0  0  0  0  0  0  0  0  0  0  0  0
    3.0563   -0.1549    0.6871 C   0  0  0  0  0  0  0  0  0  0  0  0
    0.3489   -0.5386   -0.0851 C   0  0  0  0  0  0  0  0  0  0  0  0
   -0.9811   -0.6517   -0.4502 C   0  0  0  0  0  0  0  0  0  0  0  0
   -1.9195    2.6613   -0.3071 H   0  0  0  0  0  0  0  0  0  0  0  0
    0.5270    2.8504    0.3351 H   0  0  0  0  0  0  0  0  0  0  0  0
    4.0118    0.2759    0.9835 H   0  0  0  0  0  0  0  0  0  0  0  0
    3.1737   -0.6852   -0.2644 H   0  0  0  0  0  0  0  0  0  0  0  0
    2.7125   -0.8494    1.4614 H   0  0  0  0  0  0  0  0  0  0  0  0
    0.9569   -1.4316   -0.0202 H   0  0  0  0  0  0  0  0  0  0  0  0
   -1.4176   -1.6200   -0.6685 H   0  0  0  0  0  0  0  0  0  0  0  0
   -4.5313    2.8452    0.5245 S   0  0  0  0  0  0  0  0  0  0  0  0
   -3.8288    1.6997    1.1577 O   0  0  0  0  0  0  0  0  0  0  0  0
   -5.2895    3.7261    1.4124 O   0  0  0  0  0  0  0  0  0  0  0  0
   -3.6976    3.5282   -0.5053 O   0  0  0  0  0  0  0  0  0  0  0  0
   -5.6766    2.0074   -0.3969 O   0  0  0  0  0  0  0  0  0  0  0  0
   -6.1294    2.6767   -0.9344 H   0  0  0  0  0  0  0  0  0  0  0  0
  1 10  2  0  0  0  0
  1  4  1  0  0  0  0
  2  1  1  0  0  0  0
  3  2  1  0  0  0  0
  4  5  2  0  0  0  0
  5  6  1  0  0  0  0
  5 12  1  0  0  0  0
  6  7  1  0  0  0  0
  7  8  1  0  0  0  0
  8 13  1  0  0  0  0
  8 15  1  0  0  0  0
  9 16  1  0  0  0  0
  9  6  2  0  0  0  0
 10  9  1  0  0  0  0
 11  4  1  0  0  0  0
 14  8  1  0  0  0  0
 17 10  1  0  0  0  0
 18 19  2  0  0  0  0
 18 20  1  0  0  0  0
 21 18  2  0  0  0  0
 22 18  1  0  0  0  0
 23 22  1  0  0  0  0
M  RAD  3   2   2   3   3  20   2
M  END
