Coordinates from ORCA-job 4-MeOPhN2+~HSO4-_B3LYPG-6-31G_dp-NX-Scan-d89-09-n800
 OpenBabel11261921003D

 23 22  0  0  0  0  0  0  0  0999 V2000
   -1.9073   -0.8081   -0.2628 C   0  0  0  0  0  0  0  0  0  0  0  0
   -3.0387   -1.5204   -0.4920 N   0  0  0  0  0  0  0  0  0  0  0  0
   -3.9672   -2.1194   -0.6860 N   0  0  0  0  0  0  0  0  0  0  0  0
   -2.0192    0.5681    0.0674 C   0  0  0  0  0  0  0  0  0  0  0  0
   -0.8483    1.2618    0.2820 C   0  0  0  0  0  0  0  0  0  0  0  0
    0.4015    0.6141    0.1766 C   0  0  0  0  0  0  0  0  0  0  0  0
    1.4687    1.3796    0.4031 O   0  0  0  0  0  0  0  0  0  0  0  0
    2.7887    0.8325    0.3147 C   0  0  0  0  0  0  0  0  0  0  0  0
    0.4845   -0.7676   -0.1532 C   0  0  0  0  0  0  0  0  0  0  0  0
   -0.6669   -1.4860   -0.3757 C   0  0  0  0  0  0  0  0  0  0  0  0
   -2.9965    1.0837    0.1474 H   0  0  0  0  0  0  0  0  0  0  0  0
   -0.9314    2.3200    0.5226 H   0  0  0  0  0  0  0  0  0  0  0  0
    3.4599    1.6596    0.5410 H   0  0  0  0  0  0  0  0  0  0  0  0
    2.9927    0.4608   -0.6948 H   0  0  0  0  0  0  0  0  0  0  0  0
    2.9324    0.0319    1.0480 H   0  0  0  0  0  0  0  0  0  0  0  0
    1.4422   -1.2653   -0.2340 H   0  0  0  0  0  0  0  0  0  0  0  0
   -0.6326   -2.5390   -0.6326 H   0  0  0  0  0  0  0  0  0  0  0  0
   -3.9872    3.5639    0.4618 S   0  0  0  0  0  0  0  0  0  0  0  0
   -4.4445    2.1469    0.3303 O   0  0  0  0  0  0  0  0  0  0  0  0
   -4.8053    4.4222    1.3341 O   0  0  0  0  0  0  0  0  0  0  0  0
   -2.5203    3.6591    0.6660 O   0  0  0  0  0  0  0  0  0  0  0  0
   -4.2513    4.1811   -1.0734 O   0  0  0  0  0  0  0  0  0  0  0  0
   -4.6753    5.0358   -0.9055 H   0  0  0  0  0  0  0  0  0  0  0  0
  1  4  1  0  0  0  0
  2  1  1  0  0  0  0
  3  2  1  0  0  0  0
  4 11  1  0  0  0  0
  4  5  2  0  0  0  0
  5 12  1  0  0  0  0
  6  5  1  0  0  0  0
  6  7  1  0  0  0  0
  8  7  1  0  0  0  0
  8 13  1  0  0  0  0
  8 15  1  0  0  0  0
  9  6  2  0  0  0  0
 10  1  2  0  0  0  0
 10  9  1  0  0  0  0
 14  8  1  0  0  0  0
 16  9  1  0  0  0  0
 17 10  1  0  0  0  0
 18 21  2  0  0  0  0
 18 20  1  0  0  0  0
 19 18  2  0  0  0  0
 22 23  1  0  0  0  0
 22 18  1  0  0  0  0
M  RAD  3   2   2   3   3  20   2
M  END
