Coordinates from ORCA-job 4-MeOPhN2+~HSO4-_B3LYPG-6-31G_dp-NX-Scan-d89-09-n800
 OpenBabel11261921003D

 23 22  0  0  0  0  0  0  0  0999 V2000
   -1.6524    0.2798   -0.6952 C   0  0  0  0  0  0  0  0  0  0  0  0
   -2.9133    0.0242   -1.1994 N   0  0  0  0  0  0  0  0  0  0  0  0
   -3.9881    0.2156   -1.5046 N   0  0  0  0  0  0  0  0  0  0  0  0
   -1.3701    1.5346   -0.1100 C   0  0  0  0  0  0  0  0  0  0  0  0
   -0.0987    1.7385    0.3854 C   0  0  0  0  0  0  0  0  0  0  0  0
    0.8841    0.7291    0.3044 C   0  0  0  0  0  0  0  0  0  0  0  0
    2.0832    1.0495    0.8178 O   0  0  0  0  0  0  0  0  0  0  0  0
    3.1392    0.0882    0.7933 C   0  0  0  0  0  0  0  0  0  0  0  0
    0.5793   -0.5164   -0.2816 C   0  0  0  0  0  0  0  0  0  0  0  0
   -0.6944   -0.7411   -0.7777 C   0  0  0  0  0  0  0  0  0  0  0  0
   -2.1356    2.3015   -0.0314 H   0  0  0  0  0  0  0  0  0  0  0  0
    0.1644    2.6802    0.8538 H   0  0  0  0  0  0  0  0  0  0  0  0
    3.9928    0.5782    1.2607 H   0  0  0  0  0  0  0  0  0  0  0  0
    3.3967   -0.1915   -0.2340 H   0  0  0  0  0  0  0  0  0  0  0  0
    2.8733   -0.8070    1.3662 H   0  0  0  0  0  0  0  0  0  0  0  0
    1.3215   -1.3015   -0.3478 H   0  0  0  0  0  0  0  0  0  0  0  0
   -0.9550   -1.6923   -1.2286 H   0  0  0  0  0  0  0  0  0  0  0  0
   -4.7986    2.4496    0.2644 S   0  0  0  0  0  0  0  0  0  0  0  0
   -5.1413    1.1621    0.8759 O   0  0  0  0  0  0  0  0  0  0  0  0
   -3.8611    3.3286    0.9942 O   0  0  0  0  0  0  0  0  0  0  0  0
   -4.3577    2.2980   -1.1822 O   0  0  0  0  0  0  0  0  0  0  0  0
   -6.2182    3.2862    0.1931 O   0  0  0  0  0  0  0  0  0  0  0  0
   -5.9715    4.2214    0.2681 H   0  0  0  0  0  0  0  0  0  0  0  0
  1  4  1  0  0  0  0
  2  1  1  0  0  0  0
  3  2  1  0  0  0  0
  4 11  1  0  0  0  0
  4  5  2  0  0  0  0
  5 12  1  0  0  0  0
  6  5  1  0  0  0  0
  6  7  1  0  0  0  0
  8  7  1  0  0  0  0
  8 13  1  0  0  0  0
  8 15  1  0  0  0  0
  9  6  2  0  0  0  0
 10  1  2  0  0  0  0
 10  9  1  0  0  0  0
 14  8  1  0  0  0  0
 16  9  1  0  0  0  0
 17 10  1  0  0  0  0
 18 19  2  0  0  0  0
 18 20  1  0  0  0  0
 21 18  2  0  0  0  0
 22 18  1  0  0  0  0
 22 23  1  0  0  0  0
M  RAD  3   2   2   3   3  20   2
M  END
