Coordinates from ORCA-job 4-MeOPhN2+~HSO4-_B3LYPG-6-31G_dp-NX-Scan-d89-09-n800
 OpenBabel11261921003D

 23 22  0  0  0  0  0  0  0  0999 V2000
   -1.5300    0.8141   -0.5834 C   0  0  0  0  0  0  0  0  0  0  0  0
   -2.7138    0.8602   -1.3356 N   0  0  0  0  0  0  0  0  0  0  0  0
   -3.7510    1.4547   -0.8840 N   0  0  0  0  0  0  0  0  0  0  0  0
   -1.2723    1.3481    0.7028 C   0  0  0  0  0  0  0  0  0  0  0  0
   -0.0215    1.1913    1.2778 C   0  0  0  0  0  0  0  0  0  0  0  0
    1.0058    0.5089    0.6048 C   0  0  0  0  0  0  0  0  0  0  0  0
    2.1868    0.4212    1.2664 O   0  0  0  0  0  0  0  0  0  0  0  0
    3.2706   -0.2544    0.6397 C   0  0  0  0  0  0  0  0  0  0  0  0
    0.7626   -0.0256   -0.6698 C   0  0  0  0  0  0  0  0  0  0  0  0
   -0.4919    0.1313   -1.2442 C   0  0  0  0  0  0  0  0  0  0  0  0
   -2.0395    1.8777    1.2472 H   0  0  0  0  0  0  0  0  0  0  0  0
    0.1891    1.5938    2.2626 H   0  0  0  0  0  0  0  0  0  0  0  0
    4.1052   -0.1934    1.3393 H   0  0  0  0  0  0  0  0  0  0  0  0
    3.5530    0.2278   -0.3039 H   0  0  0  0  0  0  0  0  0  0  0  0
    3.0318   -1.3082    0.4508 H   0  0  0  0  0  0  0  0  0  0  0  0
    1.5352   -0.5564   -1.2124 H   0  0  0  0  0  0  0  0  0  0  0  0
   -0.6981   -0.2741   -2.2289 H   0  0  0  0  0  0  0  0  0  0  0  0
   -6.0122    2.8464    0.2366 S   0  0  0  0  0  0  0  0  0  0  0  0
   -5.6190    4.2409    0.3353 O   0  0  0  0  0  0  0  0  0  0  0  0
   -3.9258    2.0071    0.0982 O   0  0  0  0  0  0  0  0  0  0  0  0
   -6.4041    2.1079    1.4240 O   0  0  0  0  0  0  0  0  0  0  0  0
   -6.3383    2.2941   -1.0819 O   0  0  0  0  0  0  0  0  0  0  0  0
   -4.5440    1.4018   -1.5565 H   0  0  0  0  0  0  0  0  0  0  0  0
  1  4  2  0  0  0  0
  2  3  1  0  0  0  0
  2  1  1  0  0  0  0
  3 20  1  0  0  0  0
  4 11  1  0  0  0  0
  4  5  1  0  0  0  0
  5 12  1  0  0  0  0
  6  7  1  0  0  0  0
  6  5  2  0  0  0  0
  8  7  1  0  0  0  0
  8 13  1  0  0  0  0
  9  6  1  0  0  0  0
 10  9  2  0  0  0  0
 10  1  1  0  0  0  0
 14  8  1  0  0  0  0
 15  8  1  0  0  0  0
 16  9  1  0  0  0  0
 17 10  1  0  0  0  0
 18 19  2  0  0  0  0
 18 21  1  0  0  0  0
 22 18  1  0  0  0  0
 23  3  1  0  0  0  0
M  RAD  4   2   2  20   2  21   2  22   2
M  END
