Coordinates from ORCA-job 4-MeOPhN2+~HSO4-_B3LYPG-6-31G_dp-NX-Scan-d89-09-n800
 OpenBabel11261921003D

 23 22  0  0  0  0  0  0  0  0999 V2000
   -1.7442    0.1720   -0.7179 C   0  0  0  0  0  0  0  0  0  0  0  0
   -2.9935   -0.1592   -1.1813 N   0  0  0  0  0  0  0  0  0  0  0  0
   -3.9115   -0.5946   -1.6465 N   0  0  0  0  0  0  0  0  0  0  0  0
   -1.3822    1.5219   -0.5254 C   0  0  0  0  0  0  0  0  0  0  0  0
   -0.0952    1.7713   -0.0995 C   0  0  0  0  0  0  0  0  0  0  0  0
    0.8106    0.7178    0.1484 C   0  0  0  0  0  0  0  0  0  0  0  0
    2.0266    1.0876    0.5687 O   0  0  0  0  0  0  0  0  0  0  0  0
    3.0082    0.0928    0.8732 C   0  0  0  0  0  0  0  0  0  0  0  0
    0.4173   -0.6266   -0.0465 C   0  0  0  0  0  0  0  0  0  0  0  0
   -0.8626   -0.9038   -0.4854 C   0  0  0  0  0  0  0  0  0  0  0  0
   -2.1082    2.3310   -0.6738 H   0  0  0  0  0  0  0  0  0  0  0  0
    0.2341    2.7896    0.0748 H   0  0  0  0  0  0  0  0  0  0  0  0
    3.8914    0.6435    1.1944 H   0  0  0  0  0  0  0  0  0  0  0  0
    3.2518   -0.5054   -0.0118 H   0  0  0  0  0  0  0  0  0  0  0  0
    2.6685   -0.5598    1.6843 H   0  0  0  0  0  0  0  0  0  0  0  0
    1.1000   -1.4440    0.1461 H   0  0  0  0  0  0  0  0  0  0  0  0
   -1.1887   -1.9267   -0.6402 H   0  0  0  0  0  0  0  0  0  0  0  0
   -4.4094    2.9111    0.4754 S   0  0  0  0  0  0  0  0  0  0  0  0
   -4.1605    1.4390    0.4614 O   0  0  0  0  0  0  0  0  0  0  0  0
   -4.6617    3.5219    1.7916 O   0  0  0  0  0  0  0  0  0  0  0  0
   -3.4250    3.6357   -0.3766 O   0  0  0  0  0  0  0  0  0  0  0  0
   -5.8654    3.0312   -0.3302 O   0  0  0  0  0  0  0  0  0  0  0  0
   -6.3221    3.7691    0.1017 H   0  0  0  0  0  0  0  0  0  0  0  0
  1  4  2  0  0  0  0
  1 10  1  0  0  0  0
  2  1  1  0  0  0  0
  3  2  1  0  0  0  0
  4  5  1  0  0  0  0
  5 12  1  0  0  0  0
  5  6  2  0  0  0  0
  6  7  1  0  0  0  0
  7  8  1  0  0  0  0
  8 13  1  0  0  0  0
  8 15  1  0  0  0  0
  9 16  1  0  0  0  0
  9  6  1  0  0  0  0
 10  9  2  0  0  0  0
 11  4  1  0  0  0  0
 14  8  1  0  0  0  0
 17 10  1  0  0  0  0
 18 20  1  0  0  0  0
 19 18  2  0  0  0  0
 21 18  2  0  0  0  0
 22 23  1  0  0  0  0
 22 18  1  0  0  0  0
M  RAD  3   2   2   3   3  20   2
M  END
