Coordinates from ORCA-job 4-MeOPhN2+~HSO4-_B3LYPG-6-31G_dp-NX-Scan-d89-09-n800
 OpenBabel11261921003D

 23 22  0  0  0  0  0  0  0  0999 V2000
   -1.6735    0.1439   -0.4532 C   0  0  0  0  0  0  0  0  0  0  0  0
   -2.9538   -0.1683   -0.8661 N   0  0  0  0  0  0  0  0  0  0  0  0
   -4.0382   -0.0398   -1.1665 N   0  0  0  0  0  0  0  0  0  0  0  0
   -1.4485    1.3703    0.2088 C   0  0  0  0  0  0  0  0  0  0  0  0
   -0.1583    1.6501    0.6099 C   0  0  0  0  0  0  0  0  0  0  0  0
    0.8934    0.7434    0.3572 C   0  0  0  0  0  0  0  0  0  0  0  0
    2.1056    1.1324    0.7861 O   0  0  0  0  0  0  0  0  0  0  0  0
    3.2315    0.2757    0.5859 C   0  0  0  0  0  0  0  0  0  0  0  0
    0.6400   -0.4801   -0.2970 C   0  0  0  0  0  0  0  0  0  0  0  0
   -0.6516   -0.7860   -0.6934 C   0  0  0  0  0  0  0  0  0  0  0  0
   -2.2930    2.0246    0.4248 H   0  0  0  0  0  0  0  0  0  0  0  0
    0.0719    2.5721    1.1319 H   0  0  0  0  0  0  0  0  0  0  0  0
    4.0827    0.8060    1.0114 H   0  0  0  0  0  0  0  0  0  0  0  0
    3.4079    0.0973   -0.4806 H   0  0  0  0  0  0  0  0  0  0  0  0
    3.0994   -0.6793    1.1058 H   0  0  0  0  0  0  0  0  0  0  0  0
    1.4371   -1.1859   -0.4918 H   0  0  0  0  0  0  0  0  0  0  0  0
   -0.8731   -1.7220   -1.1942 H   0  0  0  0  0  0  0  0  0  0  0  0
   -5.1357    2.3928   -0.0053 S   0  0  0  0  0  0  0  0  0  0  0  0
   -6.3838    1.6587    0.1733 O   0  0  0  0  0  0  0  0  0  0  0  0
   -4.1713    2.3755    1.1265 O   0  0  0  0  0  0  0  0  0  0  0  0
   -4.4216    2.0825   -1.3082 O   0  0  0  0  0  0  0  0  0  0  0  0
   -5.5547    3.9841   -0.1738 O   0  0  0  0  0  0  0  0  0  0  0  0
   -4.9342    4.4671    0.3932 H   0  0  0  0  0  0  0  0  0  0  0  0
  1  4  1  0  0  0  0
  2  1  1  0  0  0  0
  3  2  1  0  0  0  0
  4 11  1  0  0  0  0
  4  5  2  0  0  0  0
  5 12  1  0  0  0  0
  6  5  1  0  0  0  0
  6  7  1  0  0  0  0
  8  7  1  0  0  0  0
  8 13  1  0  0  0  0
  8 15  1  0  0  0  0
  9  6  2  0  0  0  0
 10  1  2  0  0  0  0
 10  9  1  0  0  0  0
 14  8  1  0  0  0  0
 16  9  1  0  0  0  0
 17 10  1  0  0  0  0
 18 19  2  0  0  0  0
 18 20  1  0  0  0  0
 21 18  2  0  0  0  0
 22 18  1  0  0  0  0
 22 23  1  0  0  0  0
M  RAD  3   2   2   3   3  20   2
M  END
