Coordinates from ORCA-job 4-MeOPhN2+~HSO4-_B3LYPG-6-31G_dp-NX-Scan-d89-09-n800
 OpenBabel11261921003D

 23 22  0  0  0  0  0  0  0  0999 V2000
   -1.9548   -1.1697   -0.3245 C   0  0  0  0  0  0  0  0  0  0  0  0
   -2.9305   -2.0707   -0.5816 N   0  0  0  0  0  0  0  0  0  0  0  0
   -3.7024   -2.8582   -0.8061 N   0  0  0  0  0  0  0  0  0  0  0  0
   -2.2670    0.1791    0.0214 C   0  0  0  0  0  0  0  0  0  0  0  0
   -1.2207    1.0397    0.2580 C   0  0  0  0  0  0  0  0  0  0  0  0
    0.1153    0.5817    0.1605 C   0  0  0  0  0  0  0  0  0  0  0  0
    1.0487    1.4922    0.4112 O   0  0  0  0  0  0  0  0  0  0  0  0
    2.4388    1.1580    0.3366 C   0  0  0  0  0  0  0  0  0  0  0  0
    0.4095   -0.7667   -0.1836 C   0  0  0  0  0  0  0  0  0  0  0  0
   -0.6191   -1.6435   -0.4273 C   0  0  0  0  0  0  0  0  0  0  0  0
   -3.2803    0.5742    0.1048 H   0  0  0  0  0  0  0  0  0  0  0  0
   -1.4286    2.0964    0.4979 H   0  0  0  0  0  0  0  0  0  0  0  0
    2.9684    2.0780    0.5789 H   0  0  0  0  0  0  0  0  0  0  0  0
    2.7094    0.8324   -0.6729 H   0  0  0  0  0  0  0  0  0  0  0  0
    2.6950    0.3823    1.0657 H   0  0  0  0  0  0  0  0  0  0  0  0
    1.4316   -1.1158   -0.2594 H   0  0  0  0  0  0  0  0  0  0  0  0
   -0.4254   -2.6764   -0.6950 H   0  0  0  0  0  0  0  0  0  0  0  0
   -3.4894    3.8581    0.5673 S   0  0  0  0  0  0  0  0  0  0  0  0
   -4.0434    2.4832    0.6862 O   0  0  0  0  0  0  0  0  0  0  0  0
   -4.1258    4.9062    1.3857 O   0  0  0  0  0  0  0  0  0  0  0  0
   -1.9986    3.8649    0.5981 O   0  0  0  0  0  0  0  0  0  0  0  0
   -3.8883    4.2822   -1.0061 O   0  0  0  0  0  0  0  0  0  0  0  0
   -4.1640    5.2078   -0.9311 H   0  0  0  0  0  0  0  0  0  0  0  0
  1  4  1  0  0  0  0
  2  1  1  0  0  0  0
  3  2  1  0  0  0  0
  4 11  1  0  0  0  0
  4  5  2  0  0  0  0
  5 12  1  0  0  0  0
  6  5  1  0  0  0  0
  6  7  1  0  0  0  0
  8  7  1  0  0  0  0
  8 13  1  0  0  0  0
  8 15  1  0  0  0  0
  9  6  2  0  0  0  0
 10  1  2  0  0  0  0
 10  9  1  0  0  0  0
 14  8  1  0  0  0  0
 16  9  1  0  0  0  0
 17 10  1  0  0  0  0
 18 21  2  0  0  0  0
 18 19  2  0  0  0  0
 18 20  1  0  0  0  0
 22 23  1  0  0  0  0
 22 18  1  0  0  0  0
M  RAD  3   2   2   3   3  20   2
M  END
