Coordinates from ORCA-job 4-MeOPhN2+~HSO4-_B3LYPG-6-31G_dp-NX-Scan-d89-09-n800
 OpenBabel11261921003D

 23 23  0  0  0  0  0  0  0  0999 V2000
   -1.5441    0.7494   -0.5652 C   0  0  0  0  0  0  0  0  0  0  0  0
   -2.7496    0.6962   -1.2830 N   0  0  0  0  0  0  0  0  0  0  0  0
   -3.8331    1.2273   -1.0904 N   0  0  0  0  0  0  0  0  0  0  0  0
   -1.2431    1.4824    0.6097 C   0  0  0  0  0  0  0  0  0  0  0  0
    0.0204    1.3950    1.1648 C   0  0  0  0  0  0  0  0  0  0  0  0
    1.0161    0.5882    0.5818 C   0  0  0  0  0  0  0  0  0  0  0  0
    2.2103    0.5858    1.2157 O   0  0  0  0  0  0  0  0  0  0  0  0
    3.2682   -0.2073    0.6861 C   0  0  0  0  0  0  0  0  0  0  0  0
    0.7285   -0.1413   -0.5824 C   0  0  0  0  0  0  0  0  0  0  0  0
   -0.5399   -0.0509   -1.1394 C   0  0  0  0  0  0  0  0  0  0  0  0
   -1.9874    2.1091    1.0762 H   0  0  0  0  0  0  0  0  0  0  0  0
    0.2698    1.9477    2.0641 H   0  0  0  0  0  0  0  0  0  0  0  0
    4.1171   -0.0541    1.3530 H   0  0  0  0  0  0  0  0  0  0  0  0
    3.5399    0.1131   -0.3266 H   0  0  0  0  0  0  0  0  0  0  0  0
    3.0024   -1.2712    0.6734 H   0  0  0  0  0  0  0  0  0  0  0  0
    1.4764   -0.7682   -1.0517 H   0  0  0  0  0  0  0  0  0  0  0  0
   -0.7847   -0.6034   -2.0401 H   0  0  0  0  0  0  0  0  0  0  0  0
   -5.4754    2.5340    0.3458 S   0  0  0  0  0  0  0  0  0  0  0  0
   -5.4035    3.7272    1.1526 O   0  0  0  0  0  0  0  0  0  0  0  0
   -3.8936    2.0939    0.0714 O   0  0  0  0  0  0  0  0  0  0  0  0
   -6.2159    1.3511    0.7369 O   0  0  0  0  0  0  0  0  0  0  0  0
   -5.9155    2.9904   -1.1402 O   0  0  0  0  0  0  0  0  0  0  0  0
   -5.7847    2.2209   -1.7277 H   0  0  0  0  0  0  0  0  0  0  0  0
  1  4  2  0  0  0  0
  2  3  2  0  0  0  0
  2  1  1  0  0  0  0
  3 20  1  0  0  0  0
  4 11  1  0  0  0  0
  4  5  1  0  0  0  0
  5 12  1  0  0  0  0
  6  5  2  0  0  0  0
  6  7  1  0  0  0  0
  8  7  1  0  0  0  0
  8 13  1  0  0  0  0
  9  6  1  0  0  0  0
 10  9  2  0  0  0  0
 10  1  1  0  0  0  0
 14  8  1  0  0  0  0
 15  8  1  0  0  0  0
 16  9  1  0  0  0  0
 17 10  1  0  0  0  0
 18 21  2  0  0  0  0
 18 19  2  0  0  0  0
 20 18  1  0  0  0  0
 22 18  1  0  0  0  0
 23 22  1  0  0  0  0
M  END
