Coordinates from ORCA-job 4-MeOPhN2+~HSO4-_B3LYPG-6-31G_dp-NX-Scan-d89-09-n800
 OpenBabel11261921003D

 23 22  0  0  0  0  0  0  0  0999 V2000
   -1.6289    0.5066   -0.7683 C   0  0  0  0  0  0  0  0  0  0  0  0
   -2.9105    0.3679   -1.2714 N   0  0  0  0  0  0  0  0  0  0  0  0
   -3.9544    0.7721   -1.5038 N   0  0  0  0  0  0  0  0  0  0  0  0
   -1.1817    1.7628   -0.3044 C   0  0  0  0  0  0  0  0  0  0  0  0
    0.1028    1.8545    0.1876 C   0  0  0  0  0  0  0  0  0  0  0  0
    0.9406    0.7188    0.2332 C   0  0  0  0  0  0  0  0  0  0  0  0
    2.1680    0.9301    0.7396 O   0  0  0  0  0  0  0  0  0  0  0  0
    3.0819   -0.1620    0.8416 C   0  0  0  0  0  0  0  0  0  0  0  0
    0.4784   -0.5264   -0.2353 C   0  0  0  0  0  0  0  0  0  0  0  0
   -0.8092   -0.6286   -0.7398 C   0  0  0  0  0  0  0  0  0  0  0  0
   -1.8514    2.6125   -0.3513 H   0  0  0  0  0  0  0  0  0  0  0  0
    0.4915    2.7962    0.5582 H   0  0  0  0  0  0  0  0  0  0  0  0
    3.9874    0.2527    1.2832 H   0  0  0  0  0  0  0  0  0  0  0  0
    3.3149   -0.5777   -0.1450 H   0  0  0  0  0  0  0  0  0  0  0  0
    2.6861   -0.9503    1.4918 H   0  0  0  0  0  0  0  0  0  0  0  0
    1.1106   -1.4047   -0.2082 H   0  0  0  0  0  0  0  0  0  0  0  0
   -1.1892   -1.5762   -1.1047 H   0  0  0  0  0  0  0  0  0  0  0  0
   -4.6793    2.6520    0.4882 S   0  0  0  0  0  0  0  0  0  0  0  0
   -4.0663    1.5783    1.2726 O   0  0  0  0  0  0  0  0  0  0  0  0
   -4.7799    3.9964    1.0482 O   0  0  0  0  0  0  0  0  0  0  0  0
   -4.0758    2.7225   -0.9229 O   0  0  0  0  0  0  0  0  0  0  0  0
   -6.2229    2.1212    0.2389 O   0  0  0  0  0  0  0  0  0  0  0  0
   -6.7342    2.8964   -0.0433 H   0  0  0  0  0  0  0  0  0  0  0  0
  1 10  2  0  0  0  0
  1  4  1  0  0  0  0
  2  1  1  0  0  0  0
  3  2  2  0  0  0  0
  4  5  2  0  0  0  0
  5  6  1  0  0  0  0
  5 12  1  0  0  0  0
  6  7  1  0  0  0  0
  7  8  1  0  0  0  0
  8 13  1  0  0  0  0
  8 15  1  0  0  0  0
  9 16  1  0  0  0  0
  9  6  2  0  0  0  0
 10  9  1  0  0  0  0
 11  4  1  0  0  0  0
 14  8  1  0  0  0  0
 17 10  1  0  0  0  0
 18 20  2  0  0  0  0
 18 19  1  0  0  0  0
 21 18  2  0  0  0  0
 22 18  1  0  0  0  0
 23 22  1  0  0  0  0
M  RAD  2   3   2  19   2
M  END
