Coordinates from ORCA-job 4-MeOPhN2+~HSO4-_B3LYPG-6-31G_dp-NX-Scan-d89-09-n800
 OpenBabel11261921003D

 23 22  0  0  0  0  0  0  0  0999 V2000
   -1.6267    0.5069   -0.7902 C   0  0  0  0  0  0  0  0  0  0  0  0
   -2.9033    0.3767   -1.3034 N   0  0  0  0  0  0  0  0  0  0  0  0
   -3.9474    0.7569   -1.5585 N   0  0  0  0  0  0  0  0  0  0  0  0
   -1.1835    1.7651   -0.3279 C   0  0  0  0  0  0  0  0  0  0  0  0
    0.0969    1.8578    0.1736 C   0  0  0  0  0  0  0  0  0  0  0  0
    0.9323    0.7207    0.2317 C   0  0  0  0  0  0  0  0  0  0  0  0
    2.1553    0.9325    0.7473 O   0  0  0  0  0  0  0  0  0  0  0  0
    3.0669   -0.1604    0.8636 C   0  0  0  0  0  0  0  0  0  0  0  0
    0.4727   -0.5266   -0.2350 C   0  0  0  0  0  0  0  0  0  0  0  0
   -0.8102   -0.6301   -0.7505 C   0  0  0  0  0  0  0  0  0  0  0  0
   -1.8536    2.6141   -0.3843 H   0  0  0  0  0  0  0  0  0  0  0  0
    0.4836    2.8005    0.5435 H   0  0  0  0  0  0  0  0  0  0  0  0
    3.9689    0.2558    1.3109 H   0  0  0  0  0  0  0  0  0  0  0  0
    3.3081   -0.5818   -0.1185 H   0  0  0  0  0  0  0  0  0  0  0  0
    2.6641   -0.9443    1.5149 H   0  0  0  0  0  0  0  0  0  0  0  0
    1.1036   -1.4053   -0.1979 H   0  0  0  0  0  0  0  0  0  0  0  0
   -1.1880   -1.5790   -1.1144 H   0  0  0  0  0  0  0  0  0  0  0  0
   -4.6563    2.6558    0.4833 S   0  0  0  0  0  0  0  0  0  0  0  0
   -4.0021    1.5857    1.2419 O   0  0  0  0  0  0  0  0  0  0  0  0
   -4.7586    3.9939    1.0639 O   0  0  0  0  0  0  0  0  0  0  0  0
   -4.1056    2.7366   -0.9450 O   0  0  0  0  0  0  0  0  0  0  0  0
   -6.2026    2.1049    0.2890 O   0  0  0  0  0  0  0  0  0  0  0  0
   -6.7359    2.8788    0.0470 H   0  0  0  0  0  0  0  0  0  0  0  0
  1 10  2  0  0  0  0
  1  4  1  0  0  0  0
  2  1  1  0  0  0  0
  3  2  2  0  0  0  0
  4  5  2  0  0  0  0
  5  6  1  0  0  0  0
  5 12  1  0  0  0  0
  6  7  1  0  0  0  0
  7  8  1  0  0  0  0
  8 13  1  0  0  0  0
  8 15  1  0  0  0  0
  9 16  1  0  0  0  0
  9  6  2  0  0  0  0
 10  9  1  0  0  0  0
 11  4  1  0  0  0  0
 14  8  1  0  0  0  0
 17 10  1  0  0  0  0
 18 20  2  0  0  0  0
 18 19  1  0  0  0  0
 21 18  2  0  0  0  0
 22 18  1  0  0  0  0
 23 22  1  0  0  0  0
M  RAD  2   3   2  19   2
M  END
