Coordinates from ORCA-job 4-MeOPhN2+~HSO4-_B3LYPG-6-31G_dp-NX-Scan-d89-09-n800
 OpenBabel11261921003D

 23 22  0  0  0  0  0  0  0  0999 V2000
   -1.7076    0.2118   -0.7312 C   0  0  0  0  0  0  0  0  0  0  0  0
   -2.9739   -0.1307   -1.1582 N   0  0  0  0  0  0  0  0  0  0  0  0
   -4.0700   -0.0178   -1.4010 N   0  0  0  0  0  0  0  0  0  0  0  0
   -1.4572    1.5542   -0.3736 C   0  0  0  0  0  0  0  0  0  0  0  0
   -0.1899    1.8739    0.0663 C   0  0  0  0  0  0  0  0  0  0  0  0
    0.8159    0.8873    0.1542 C   0  0  0  0  0  0  0  0  0  0  0  0
    2.0080    1.3191    0.5988 O   0  0  0  0  0  0  0  0  0  0  0  0
    3.0859    0.3918    0.7349 C   0  0  0  0  0  0  0  0  0  0  0  0
    0.5416   -0.4463   -0.2107 C   0  0  0  0  0  0  0  0  0  0  0  0
   -0.7268   -0.7849   -0.6547 C   0  0  0  0  0  0  0  0  0  0  0  0
   -2.2515    2.2895   -0.4494 H   0  0  0  0  0  0  0  0  0  0  0  0
    0.0545    2.8879    0.3617 H   0  0  0  0  0  0  0  0  0  0  0  0
    3.9263    0.9725    1.1139 H   0  0  0  0  0  0  0  0  0  0  0  0
    3.3541   -0.0488   -0.2319 H   0  0  0  0  0  0  0  0  0  0  0  0
    2.8376   -0.4010    1.4490 H   0  0  0  0  0  0  0  0  0  0  0  0
    1.3035   -1.2123   -0.1453 H   0  0  0  0  0  0  0  0  0  0  0  0
   -0.9643   -1.8049   -0.9362 H   0  0  0  0  0  0  0  0  0  0  0  0
   -5.0306    2.1517    0.2482 S   0  0  0  0  0  0  0  0  0  0  0  0
   -6.3898    2.6817    0.3874 O   0  0  0  0  0  0  0  0  0  0  0  0
   -4.7038    0.8715    0.9056 O   0  0  0  0  0  0  0  0  0  0  0  0
   -4.4850    2.1689   -1.1640 O   0  0  0  0  0  0  0  0  0  0  0  0
   -4.0571    3.2732    1.0238 O   0  0  0  0  0  0  0  0  0  0  0  0
   -4.6415    4.0270    1.1974 H   0  0  0  0  0  0  0  0  0  0  0  0
  1 10  2  0  0  0  0
  1  4  1  0  0  0  0
  2  1  1  0  0  0  0
  3  2  1  0  0  0  0
  4  5  2  0  0  0  0
  5  6  1  0  0  0  0
  5 12  1  0  0  0  0
  6  7  1  0  0  0  0
  7  8  1  0  0  0  0
  8 13  1  0  0  0  0
  8 15  1  0  0  0  0
  9 16  1  0  0  0  0
  9  6  2  0  0  0  0
 10  9  1  0  0  0  0
 11  4  1  0  0  0  0
 14  8  1  0  0  0  0
 17 10  1  0  0  0  0
 18 19  2  0  0  0  0
 18 20  1  0  0  0  0
 18 22  1  0  0  0  0
 21 18  2  0  0  0  0
 22 23  1  0  0  0  0
M  RAD  3   2   2   3   3  20   2
M  END
