Coordinates from ORCA-job 4-MeOPhN2+~HSO4-_B3LYPG-6-31G_dp-NX-Scan-d89-09-n800
 OpenBabel11261921003D

 23 22  0  0  0  0  0  0  0  0999 V2000
   -1.8871   -0.6931   -0.2379 C   0  0  0  0  0  0  0  0  0  0  0  0
   -3.0673   -1.3293   -0.4539 N   0  0  0  0  0  0  0  0  0  0  0  0
   -4.0475   -1.8427   -0.6320 N   0  0  0  0  0  0  0  0  0  0  0  0
   -1.9331    0.6857    0.0834 C   0  0  0  0  0  0  0  0  0  0  0  0
   -0.7338    1.3294    0.2898 C   0  0  0  0  0  0  0  0  0  0  0  0
    0.4840    0.6240    0.1846 C   0  0  0  0  0  0  0  0  0  0  0  0
    1.5879    1.3398    0.4042 O   0  0  0  0  0  0  0  0  0  0  0  0
    2.8792    0.7280    0.3185 C   0  0  0  0  0  0  0  0  0  0  0  0
    0.5004   -0.7623   -0.1384 C   0  0  0  0  0  0  0  0  0  0  0  0
   -0.6835   -1.4306   -0.3533 C   0  0  0  0  0  0  0  0  0  0  0  0
   -2.8999    1.2164    0.1551 H   0  0  0  0  0  0  0  0  0  0  0  0
   -0.7609    2.3895    0.5237 H   0  0  0  0  0  0  0  0  0  0  0  0
    3.5906    1.5212    0.5438 H   0  0  0  0  0  0  0  0  0  0  0  0
    3.0659    0.3442   -0.6900 H   0  0  0  0  0  0  0  0  0  0  0  0
    2.9828   -0.0773    1.0535 H   0  0  0  0  0  0  0  0  0  0  0  0
    1.4344   -1.3027   -0.2209 H   0  0  0  0  0  0  0  0  0  0  0  0
   -0.6977   -2.4851   -0.6056 H   0  0  0  0  0  0  0  0  0  0  0  0
   -4.1122    3.4544    0.3931 S   0  0  0  0  0  0  0  0  0  0  0  0
   -4.4959    2.0274    0.1649 O   0  0  0  0  0  0  0  0  0  0  0  0
   -4.9433    4.1918    1.3579 O   0  0  0  0  0  0  0  0  0  0  0  0
   -2.6458    3.6096    0.5612 O   0  0  0  0  0  0  0  0  0  0  0  0
   -4.4658    4.1658   -1.0796 O   0  0  0  0  0  0  0  0  0  0  0  0
   -4.8728    5.0110   -0.8373 H   0  0  0  0  0  0  0  0  0  0  0  0
  1  4  1  0  0  0  0
  2  1  1  0  0  0  0
  3  2  1  0  0  0  0
  4 11  1  0  0  0  0
  4  5  2  0  0  0  0
  5 12  1  0  0  0  0
  6  5  1  0  0  0  0
  6  7  1  0  0  0  0
  8  7  1  0  0  0  0
  8 13  1  0  0  0  0
  8 15  1  0  0  0  0
  9  6  2  0  0  0  0
 10  1  2  0  0  0  0
 10  9  1  0  0  0  0
 14  8  1  0  0  0  0
 16  9  1  0  0  0  0
 17 10  1  0  0  0  0
 18 21  2  0  0  0  0
 18 20  1  0  0  0  0
 19 18  2  0  0  0  0
 22 23  1  0  0  0  0
 22 18  1  0  0  0  0
M  RAD  3   2   2   3   3  20   2
M  END
