Coordinates from ORCA-job 4-MeOPhN2+~HSO4-_B3LYPG-6-31G_dp-NX-Scan-d89-09-n800
 OpenBabel11261921003D

 23 22  0  0  0  0  0  0  0  0999 V2000
   -1.9001   -0.7722   -0.2581 C   0  0  0  0  0  0  0  0  0  0  0  0
   -3.0481   -1.4596   -0.4829 N   0  0  0  0  0  0  0  0  0  0  0  0
   -3.9953   -2.0297   -0.6714 N   0  0  0  0  0  0  0  0  0  0  0  0
   -1.9916    0.6060    0.0641 C   0  0  0  0  0  0  0  0  0  0  0  0
   -0.8120    1.2844    0.2772 C   0  0  0  0  0  0  0  0  0  0  0  0
    0.4281    0.6176    0.1769 C   0  0  0  0  0  0  0  0  0  0  0  0
    1.5069    1.3679    0.4012 O   0  0  0  0  0  0  0  0  0  0  0  0
    2.8181    0.7995    0.3180 C   0  0  0  0  0  0  0  0  0  0  0  0
    0.4904   -0.7672   -0.1459 C   0  0  0  0  0  0  0  0  0  0  0  0
   -0.6712   -1.4704   -0.3663 C   0  0  0  0  0  0  0  0  0  0  0  0
   -2.9667    1.1262    0.1373 H   0  0  0  0  0  0  0  0  0  0  0  0
   -0.8793    2.3438    0.5129 H   0  0  0  0  0  0  0  0  0  0  0  0
    3.5021    1.6167    0.5426 H   0  0  0  0  0  0  0  0  0  0  0  0
    3.0185    0.4205   -0.6895 H   0  0  0  0  0  0  0  0  0  0  0  0
    2.9476   -0.0003    1.0548 H   0  0  0  0  0  0  0  0  0  0  0  0
    1.4409   -1.2792   -0.2229 H   0  0  0  0  0  0  0  0  0  0  0  0
   -0.6523   -2.5250   -0.6178 H   0  0  0  0  0  0  0  0  0  0  0  0
   -4.0253    3.5295    0.4433 S   0  0  0  0  0  0  0  0  0  0  0  0
   -4.4627    2.1090    0.2854 O   0  0  0  0  0  0  0  0  0  0  0  0
   -4.8428    4.3520    1.3492 O   0  0  0  0  0  0  0  0  0  0  0  0
   -2.5569    3.6408    0.6272 O   0  0  0  0  0  0  0  0  0  0  0  0
   -4.3238    4.1775   -1.0721 O   0  0  0  0  0  0  0  0  0  0  0  0
   -4.7461    5.0276   -0.8784 H   0  0  0  0  0  0  0  0  0  0  0  0
  1  4  1  0  0  0  0
  2  1  1  0  0  0  0
  3  2  1  0  0  0  0
  4 11  1  0  0  0  0
  4  5  2  0  0  0  0
  5 12  1  0  0  0  0
  6  5  1  0  0  0  0
  6  7  1  0  0  0  0
  8  7  1  0  0  0  0
  8 13  1  0  0  0  0
  8 15  1  0  0  0  0
  9  6  2  0  0  0  0
 10  1  2  0  0  0  0
 10  9  1  0  0  0  0
 14  8  1  0  0  0  0
 16  9  1  0  0  0  0
 17 10  1  0  0  0  0
 18 21  2  0  0  0  0
 18 20  1  0  0  0  0
 19 18  2  0  0  0  0
 22 23  1  0  0  0  0
 22 18  1  0  0  0  0
M  RAD  3   2   2   3   3  20   2
M  END
