Coordinates from ORCA-job 4-MeOPhN2+~HSO4-_B3LYPG-6-31G_dp-NX-Scan-d89-09-n800
 OpenBabel11261921003D

 23 22  0  0  0  0  0  0  0  0999 V2000
   -1.9549   -1.2871   -0.3370 C   0  0  0  0  0  0  0  0  0  0  0  0
   -2.8721   -2.2471   -0.5979 N   0  0  0  0  0  0  0  0  0  0  0  0
   -3.5757   -3.0957   -0.8302 N   0  0  0  0  0  0  0  0  0  0  0  0
   -2.3303    0.0501    0.0026 C   0  0  0  0  0  0  0  0  0  0  0  0
   -1.3284    0.9602    0.2401 C   0  0  0  0  0  0  0  0  0  0  0  0
    0.0301    0.5640    0.1509 C   0  0  0  0  0  0  0  0  0  0  0  0
    0.9148    1.5183    0.4028 O   0  0  0  0  0  0  0  0  0  0  0  0
    2.3207    1.2542    0.3390 C   0  0  0  0  0  0  0  0  0  0  0  0
    0.3896   -0.7697   -0.1861 C   0  0  0  0  0  0  0  0  0  0  0  0
   -0.5960   -1.6939   -0.4306 C   0  0  0  0  0  0  0  0  0  0  0  0
   -3.3625    0.3853    0.0764 H   0  0  0  0  0  0  0  0  0  0  0  0
   -1.5665    2.0120    0.4736 H   0  0  0  0  0  0  0  0  0  0  0  0
    2.8007    2.2006    0.5824 H   0  0  0  0  0  0  0  0  0  0  0  0
    2.6140    0.9400   -0.6678 H   0  0  0  0  0  0  0  0  0  0  0  0
    2.6095    0.4941    1.0723 H   0  0  0  0  0  0  0  0  0  0  0  0
    1.4273   -1.0707   -0.2562 H   0  0  0  0  0  0  0  0  0  0  0  0
   -0.3525   -2.7176   -0.6931 H   0  0  0  0  0  0  0  0  0  0  0  0
   -3.3537    3.9558    0.5882 S   0  0  0  0  0  0  0  0  0  0  0  0
   -3.9991    2.6274    0.7504 O   0  0  0  0  0  0  0  0  0  0  0  0
   -3.8734    5.0666    1.4102 O   0  0  0  0  0  0  0  0  0  0  0  0
   -1.8654    3.8455    0.5617 O   0  0  0  0  0  0  0  0  0  0  0  0
   -3.7764    4.3948   -0.9760 O   0  0  0  0  0  0  0  0  0  0  0  0
   -4.0217    5.3280   -0.8908 H   0  0  0  0  0  0  0  0  0  0  0  0
  1  4  1  0  0  0  0
  2  1  1  0  0  0  0
  3  2  1  0  0  0  0
  4 11  1  0  0  0  0
  4  5  2  0  0  0  0
  5 12  1  0  0  0  0
  6  5  1  0  0  0  0
  6  7  1  0  0  0  0
  8  7  1  0  0  0  0
  8 13  1  0  0  0  0
  8 15  1  0  0  0  0
  9  6  2  0  0  0  0
 10  1  2  0  0  0  0
 10  9  1  0  0  0  0
 14  8  1  0  0  0  0
 16  9  1  0  0  0  0
 17 10  1  0  0  0  0
 18 19  2  0  0  0  0
 18 20  1  0  0  0  0
 21 18  2  0  0  0  0
 22 23  1  0  0  0  0
 22 18  1  0  0  0  0
M  RAD  3   2   2   3   3  20   2
M  END
