Coordinates from ORCA-job 4-MeOPhN2+~HSO4-_B3LYPG-6-31G_dp-NX-Scan-d89-09-n800
 OpenBabel11261921003D

 23 22  0  0  0  0  0  0  0  0999 V2000
   -1.7081    0.2122   -0.7355 C   0  0  0  0  0  0  0  0  0  0  0  0
   -2.9733   -0.1306   -1.1644 N   0  0  0  0  0  0  0  0  0  0  0  0
   -4.0694   -0.0204   -1.4093 N   0  0  0  0  0  0  0  0  0  0  0  0
   -1.4588    1.5543   -0.3755 C   0  0  0  0  0  0  0  0  0  0  0  0
   -0.1923    1.8738    0.0665 C   0  0  0  0  0  0  0  0  0  0  0  0
    0.8138    0.8875    0.1544 C   0  0  0  0  0  0  0  0  0  0  0  0
    2.0050    1.3191    0.6013 O   0  0  0  0  0  0  0  0  0  0  0  0
    3.0831    0.3920    0.7382 C   0  0  0  0  0  0  0  0  0  0  0  0
    0.5407   -0.4458   -0.2129 C   0  0  0  0  0  0  0  0  0  0  0  0
   -0.7269   -0.7843   -0.6592 C   0  0  0  0  0  0  0  0  0  0  0  0
   -2.2536    2.2892   -0.4508 H   0  0  0  0  0  0  0  0  0  0  0  0
    0.0513    2.8875    0.3639 H   0  0  0  0  0  0  0  0  0  0  0  0
    3.9225    0.9727    1.1193 H   0  0  0  0  0  0  0  0  0  0  0  0
    3.3531   -0.0472   -0.2287 H   0  0  0  0  0  0  0  0  0  0  0  0
    2.8338   -0.4017    1.4508 H   0  0  0  0  0  0  0  0  0  0  0  0
    1.3028   -1.2115   -0.1476 H   0  0  0  0  0  0  0  0  0  0  0  0
   -0.9635   -1.8040   -0.9424 H   0  0  0  0  0  0  0  0  0  0  0  0
   -5.0267    2.1487    0.2560 S   0  0  0  0  0  0  0  0  0  0  0  0
   -6.3864    2.6769    0.3973 O   0  0  0  0  0  0  0  0  0  0  0  0
   -4.6939    0.8742    0.9199 O   0  0  0  0  0  0  0  0  0  0  0  0
   -4.4881    2.1602   -1.1591 O   0  0  0  0  0  0  0  0  0  0  0  0
   -4.0517    3.2779    1.0191 O   0  0  0  0  0  0  0  0  0  0  0  0
   -4.6350    4.0345    1.1838 H   0  0  0  0  0  0  0  0  0  0  0  0
  1 10  2  0  0  0  0
  1  4  1  0  0  0  0
  2  1  1  0  0  0  0
  3  2  1  0  0  0  0
  4  5  2  0  0  0  0
  5  6  1  0  0  0  0
  5 12  1  0  0  0  0
  6  7  1  0  0  0  0
  7  8  1  0  0  0  0
  8 13  1  0  0  0  0
  8 15  1  0  0  0  0
  9 16  1  0  0  0  0
  9  6  2  0  0  0  0
 10  9  1  0  0  0  0
 11  4  1  0  0  0  0
 14  8  1  0  0  0  0
 17 10  1  0  0  0  0
 18 19  2  0  0  0  0
 18 20  1  0  0  0  0
 18 22  1  0  0  0  0
 21 18  2  0  0  0  0
 22 23  1  0  0  0  0
M  RAD  3   2   2   3   3  20   2
M  END
