Coordinates from ORCA-job 4-MeOPhN2+~HSO4-_B3LYPG-6-31G_dp-NX-Scan-d89-09-n800
 OpenBabel11261921003D

 23 22  0  0  0  0  0  0  0  0999 V2000
   -1.9512   -1.3267   -0.3404 C   0  0  0  0  0  0  0  0  0  0  0  0
   -2.8521   -2.3031   -0.5973 N   0  0  0  0  0  0  0  0  0  0  0  0
   -3.5410   -3.1652   -0.8251 N   0  0  0  0  0  0  0  0  0  0  0  0
   -2.3472    0.0099   -0.0205 C   0  0  0  0  0  0  0  0  0  0  0  0
   -1.3610    0.9381    0.2105 C   0  0  0  0  0  0  0  0  0  0  0  0
    0.0041    0.5601    0.1348 C   0  0  0  0  0  0  0  0  0  0  0  0
    0.8726    1.5302    0.3785 O   0  0  0  0  0  0  0  0  0  0  0  0
    2.2828    1.2858    0.3326 C   0  0  0  0  0  0  0  0  0  0  0  0
    0.3848   -0.7728   -0.1815 C   0  0  0  0  0  0  0  0  0  0  0  0
   -0.5858   -1.7143   -0.4201 C   0  0  0  0  0  0  0  0  0  0  0  0
   -3.3855    0.3254    0.0439 H   0  0  0  0  0  0  0  0  0  0  0  0
   -1.6109    1.9902    0.4310 H   0  0  0  0  0  0  0  0  0  0  0  0
    2.7462    2.2424    0.5680 H   0  0  0  0  0  0  0  0  0  0  0  0
    2.5910    0.9622   -0.6667 H   0  0  0  0  0  0  0  0  0  0  0  0
    2.5746    0.5400    1.0793 H   0  0  0  0  0  0  0  0  0  0  0  0
    1.4272   -1.0598   -0.2409 H   0  0  0  0  0  0  0  0  0  0  0  0
   -0.3258   -2.7376   -0.6678 H   0  0  0  0  0  0  0  0  0  0  0  0
   -3.3206    3.9838    0.6087 S   0  0  0  0  0  0  0  0  0  0  0  0
   -4.0039    2.6740    0.7621 O   0  0  0  0  0  0  0  0  0  0  0  0
   -3.8156    5.1090    1.4269 O   0  0  0  0  0  0  0  0  0  0  0  0
   -1.8355    3.8301    0.5956 O   0  0  0  0  0  0  0  0  0  0  0  0
   -3.7139    4.4399   -0.9590 O   0  0  0  0  0  0  0  0  0  0  0  0
   -3.9547    5.3736   -0.8680 H   0  0  0  0  0  0  0  0  0  0  0  0
  1  4  1  0  0  0  0
  2  1  1  0  0  0  0
  3  2  1  0  0  0  0
  4 11  1  0  0  0  0
  4  5  2  0  0  0  0
  5 12  1  0  0  0  0
  6  5  1  0  0  0  0
  6  7  1  0  0  0  0
  8  7  1  0  0  0  0
  8 13  1  0  0  0  0
  8 15  1  0  0  0  0
  9  6  2  0  0  0  0
 10  1  2  0  0  0  0
 10  9  1  0  0  0  0
 14  8  1  0  0  0  0
 16  9  1  0  0  0  0
 17 10  1  0  0  0  0
 18 19  2  0  0  0  0
 18 20  1  0  0  0  0
 21 18  2  0  0  0  0
 22 23  1  0  0  0  0
 22 18  1  0  0  0  0
M  RAD  3   2   2   3   3  20   2
M  END
