Coordinates from ORCA-job 4-MeOPhN2+~HSO4-_B3LYPG-6-31G_dp-NX-Scan-d89-09-n800
 OpenBabel11261921003D

 23 22  0  0  0  0  0  0  0  0999 V2000
   -1.6998    0.2051   -0.7012 C   0  0  0  0  0  0  0  0  0  0  0  0
   -2.9712   -0.1328   -1.1163 N   0  0  0  0  0  0  0  0  0  0  0  0
   -4.0683   -0.0306   -1.3530 N   0  0  0  0  0  0  0  0  0  0  0  0
   -1.4470    1.5486   -0.3494 C   0  0  0  0  0  0  0  0  0  0  0  0
   -0.1752    1.8694    0.0770 C   0  0  0  0  0  0  0  0  0  0  0  0
    0.8319    0.8835    0.1561 C   0  0  0  0  0  0  0  0  0  0  0  0
    2.0289    1.3169    0.5857 O   0  0  0  0  0  0  0  0  0  0  0  0
    3.1101    0.3914    0.7071 C   0  0  0  0  0  0  0  0  0  0  0  0
    0.5539   -0.4512   -0.2023 C   0  0  0  0  0  0  0  0  0  0  0  0
   -0.7188   -0.7919   -0.6323 C   0  0  0  0  0  0  0  0  0  0  0  0
   -2.2439    2.2821   -0.4224 H   0  0  0  0  0  0  0  0  0  0  0  0
    0.0723    2.8844    0.3662 H   0  0  0  0  0  0  0  0  0  0  0  0
    3.9551    0.9739    1.0728 H   0  0  0  0  0  0  0  0  0  0  0  0
    3.3646   -0.0500   -0.2631 H   0  0  0  0  0  0  0  0  0  0  0  0
    2.8737   -0.4009    1.4257 H   0  0  0  0  0  0  0  0  0  0  0  0
    1.3167   -1.2167   -0.1433 H   0  0  0  0  0  0  0  0  0  0  0  0
   -0.9584   -1.8127   -0.9088 H   0  0  0  0  0  0  0  0  0  0  0  0
   -5.0676    2.1792    0.2018 S   0  0  0  0  0  0  0  0  0  0  0  0
   -6.4159    2.7485    0.2828 O   0  0  0  0  0  0  0  0  0  0  0  0
   -4.8234    0.8698    0.8446 O   0  0  0  0  0  0  0  0  0  0  0  0
   -4.4418    2.2094   -1.1723 O   0  0  0  0  0  0  0  0  0  0  0  0
   -4.1064    3.2466    1.0639 O   0  0  0  0  0  0  0  0  0  0  0  0
   -4.6911    3.9931    1.2653 H   0  0  0  0  0  0  0  0  0  0  0  0
  1 10  2  0  0  0  0
  1  4  1  0  0  0  0
  2  1  1  0  0  0  0
  3  2  1  0  0  0  0
  4  5  2  0  0  0  0
  5  6  1  0  0  0  0
  5 12  1  0  0  0  0
  6  7  1  0  0  0  0
  7  8  1  0  0  0  0
  8 13  1  0  0  0  0
  8 15  1  0  0  0  0
  9 16  1  0  0  0  0
  9  6  2  0  0  0  0
 10  9  1  0  0  0  0
 11  4  1  0  0  0  0
 14  8  1  0  0  0  0
 17 10  1  0  0  0  0
 18 19  2  0  0  0  0
 18 20  1  0  0  0  0
 18 22  1  0  0  0  0
 21 18  2  0  0  0  0
 22 23  1  0  0  0  0
M  RAD  3   2   2   3   3  20   2
M  END
