Coordinates from ORCA-job 4-MeOPhN2+~HSO4-_B3LYPG-6-31G_dp-NX-Scan-d89-09-n800
 OpenBabel11261921003D

 23 22  0  0  0  0  0  0  0  0999 V2000
   -1.8844   -0.6765   -0.2314 C   0  0  0  0  0  0  0  0  0  0  0  0
   -3.0727   -1.2989   -0.4456 N   0  0  0  0  0  0  0  0  0  0  0  0
   -4.0619   -1.7953   -0.6208 N   0  0  0  0  0  0  0  0  0  0  0  0
   -1.9205    0.7009    0.0953 C   0  0  0  0  0  0  0  0  0  0  0  0
   -0.7176    1.3378    0.3007 C   0  0  0  0  0  0  0  0  0  0  0  0
    0.4954    0.6254    0.1889 C   0  0  0  0  0  0  0  0  0  0  0  0
    1.6048    1.3331    0.4079 O   0  0  0  0  0  0  0  0  0  0  0  0
    2.8918    0.7132    0.3159 C   0  0  0  0  0  0  0  0  0  0  0  0
    0.5019   -0.7598   -0.1398 C   0  0  0  0  0  0  0  0  0  0  0  0
   -0.6864   -1.4209   -0.3537 C   0  0  0  0  0  0  0  0  0  0  0  0
   -2.8859    1.2321    0.1692 H   0  0  0  0  0  0  0  0  0  0  0  0
   -0.7382    2.3971    0.5382 H   0  0  0  0  0  0  0  0  0  0  0  0
    3.6091    1.5007    0.5426 H   0  0  0  0  0  0  0  0  0  0  0  0
    3.0731    0.3326   -0.6948 H   0  0  0  0  0  0  0  0  0  0  0  0
    2.9921   -0.0959    1.0471 H   0  0  0  0  0  0  0  0  0  0  0  0
    1.4325   -1.3051   -0.2276 H   0  0  0  0  0  0  0  0  0  0  0  0
   -0.7073   -2.4743   -0.6103 H   0  0  0  0  0  0  0  0  0  0  0  0
   -4.1305    3.4380    0.3820 S   0  0  0  0  0  0  0  0  0  0  0  0
   -4.4986    2.0092    0.1404 O   0  0  0  0  0  0  0  0  0  0  0  0
   -4.9737    4.1581    1.3491 O   0  0  0  0  0  0  0  0  0  0  0  0
   -2.6665    3.6063    0.5587 O   0  0  0  0  0  0  0  0  0  0  0  0
   -4.4845    4.1571   -1.0867 O   0  0  0  0  0  0  0  0  0  0  0  0
   -4.8935    5.0002   -0.8406 H   0  0  0  0  0  0  0  0  0  0  0  0
  1  4  1  0  0  0  0
  2  1  1  0  0  0  0
  3  2  1  0  0  0  0
  4 11  1  0  0  0  0
  4  5  2  0  0  0  0
  5 12  1  0  0  0  0
  6  5  1  0  0  0  0
  6  7  1  0  0  0  0
  8  7  1  0  0  0  0
  8 13  1  0  0  0  0
  8 15  1  0  0  0  0
  9  6  2  0  0  0  0
 10  1  2  0  0  0  0
 10  9  1  0  0  0  0
 14  8  1  0  0  0  0
 16  9  1  0  0  0  0
 17 10  1  0  0  0  0
 18 21  2  0  0  0  0
 18 20  1  0  0  0  0
 19 18  2  0  0  0  0
 22 23  1  0  0  0  0
 22 18  1  0  0  0  0
M  RAD  3   2   2   3   3  20   2
M  END
