Coordinates from ORCA-job 4-MeOPhN2+~HSO4-_B3LYPG-6-31G_dp-NX-Scan-d89-09-n800
 OpenBabel11261921003D

 23 22  0  0  0  0  0  0  0  0999 V2000
   -1.9557   -1.2689   -0.3368 C   0  0  0  0  0  0  0  0  0  0  0  0
   -2.8798   -2.2223   -0.5988 N   0  0  0  0  0  0  0  0  0  0  0  0
   -3.5889   -3.0664   -0.8305 N   0  0  0  0  0  0  0  0  0  0  0  0
   -2.3214    0.0707    0.0039 C   0  0  0  0  0  0  0  0  0  0  0  0
   -1.3121    0.9725    0.2424 C   0  0  0  0  0  0  0  0  0  0  0  0
    0.0431    0.5659    0.1524 C   0  0  0  0  0  0  0  0  0  0  0  0
    0.9354    1.5134    0.4052 O   0  0  0  0  0  0  0  0  0  0  0  0
    2.3391    1.2386    0.3400 C   0  0  0  0  0  0  0  0  0  0  0  0
    0.3927   -0.7699   -0.1862 C   0  0  0  0  0  0  0  0  0  0  0  0
   -0.6001   -1.6862   -0.4314 C   0  0  0  0  0  0  0  0  0  0  0  0
   -3.3510    0.4147    0.0792 H   0  0  0  0  0  0  0  0  0  0  0  0
   -1.5410    2.0264    0.4778 H   0  0  0  0  0  0  0  0  0  0  0  0
    2.8267    2.1810    0.5838 H   0  0  0  0  0  0  0  0  0  0  0  0
    2.6292    0.9230   -0.6673 H   0  0  0  0  0  0  0  0  0  0  0  0
    2.6228    0.4757    1.0724 H   0  0  0  0  0  0  0  0  0  0  0  0
    1.4281   -1.0788   -0.2567 H   0  0  0  0  0  0  0  0  0  0  0  0
   -0.3646   -2.7115   -0.6949 H   0  0  0  0  0  0  0  0  0  0  0  0
   -3.3752    3.9452    0.5878 S   0  0  0  0  0  0  0  0  0  0  0  0
   -4.0093    2.6120    0.7560 O   0  0  0  0  0  0  0  0  0  0  0  0
   -3.9054    5.0555    1.4034 O   0  0  0  0  0  0  0  0  0  0  0  0
   -1.8860    3.8484    0.5635 O   0  0  0  0  0  0  0  0  0  0  0  0
   -3.7998    4.3716   -0.9794 O   0  0  0  0  0  0  0  0  0  0  0  0
   -4.0483    5.3045   -0.9009 H   0  0  0  0  0  0  0  0  0  0  0  0
  1  4  1  0  0  0  0
  2  1  1  0  0  0  0
  3  2  1  0  0  0  0
  4 11  1  0  0  0  0
  4  5  2  0  0  0  0
  5 12  1  0  0  0  0
  6  5  1  0  0  0  0
  6  7  1  0  0  0  0
  8  7  1  0  0  0  0
  8 13  1  0  0  0  0
  8 15  1  0  0  0  0
  9  6  2  0  0  0  0
 10  1  2  0  0  0  0
 10  9  1  0  0  0  0
 14  8  1  0  0  0  0
 16  9  1  0  0  0  0
 17 10  1  0  0  0  0
 18 19  2  0  0  0  0
 18 20  1  0  0  0  0
 21 18  2  0  0  0  0
 22 23  1  0  0  0  0
 22 18  1  0  0  0  0
M  RAD  3   2   2   3   3  20   2
M  END
