Coordinates from ORCA-job 4-MeOPhN2+~HSO4-_B3LYPG-6-31G_dp-NX-Scan-d89-09-n800
 OpenBabel11261921003D

 23 22  0  0  0  0  0  0  0  0999 V2000
   -1.7618    0.5100   -0.5234 C   0  0  0  0  0  0  0  0  0  0  0  0
   -3.0733    0.3561   -0.9125 N   0  0  0  0  0  0  0  0  0  0  0  0
   -4.0724    0.1037   -1.3444 N   0  0  0  0  0  0  0  0  0  0  0  0
   -1.2549    1.7961   -0.2427 C   0  0  0  0  0  0  0  0  0  0  0  0
    0.0754    1.8883    0.1047 C   0  0  0  0  0  0  0  0  0  0  0  0
    0.8858    0.7356    0.1953 C   0  0  0  0  0  0  0  0  0  0  0  0
    2.1594    0.9535    0.5534 O   0  0  0  0  0  0  0  0  0  0  0  0
    3.0558   -0.1512    0.6899 C   0  0  0  0  0  0  0  0  0  0  0  0
    0.3499   -0.5402   -0.0845 C   0  0  0  0  0  0  0  0  0  0  0  0
   -0.9796   -0.6559   -0.4507 C   0  0  0  0  0  0  0  0  0  0  0  0
   -1.9233    2.6564   -0.3120 H   0  0  0  0  0  0  0  0  0  0  0  0
    0.5222    2.8497    0.3310 H   0  0  0  0  0  0  0  0  0  0  0  0
    4.0103    0.2816    0.9867 H   0  0  0  0  0  0  0  0  0  0  0  0
    3.1751   -0.6829   -0.2605 H   0  0  0  0  0  0  0  0  0  0  0  0
    2.7122   -0.8449    1.4650 H   0  0  0  0  0  0  0  0  0  0  0  0
    0.9592   -1.4322   -0.0176 H   0  0  0  0  0  0  0  0  0  0  0  0
   -1.4144   -1.6252   -0.6680 H   0  0  0  0  0  0  0  0  0  0  0  0
   -4.5286    2.8471    0.5254 S   0  0  0  0  0  0  0  0  0  0  0  0
   -3.8289    1.6938    1.1483 O   0  0  0  0  0  0  0  0  0  0  0  0
   -5.2798    3.7248    1.4229 O   0  0  0  0  0  0  0  0  0  0  0  0
   -3.6939    3.5349   -0.5003 O   0  0  0  0  0  0  0  0  0  0  0  0
   -5.6785    2.0202   -0.3984 O   0  0  0  0  0  0  0  0  0  0  0  0
   -6.1374    2.6957   -0.9227 H   0  0  0  0  0  0  0  0  0  0  0  0
  1 10  2  0  0  0  0
  1  4  1  0  0  0  0
  2  1  1  0  0  0  0
  3  2  1  0  0  0  0
  4  5  2  0  0  0  0
  5  6  1  0  0  0  0
  5 12  1  0  0  0  0
  6  7  1  0  0  0  0
  7  8  1  0  0  0  0
  8 13  1  0  0  0  0
  8 15  1  0  0  0  0
  9 16  1  0  0  0  0
  9  6  2  0  0  0  0
 10  9  1  0  0  0  0
 11  4  1  0  0  0  0
 14  8  1  0  0  0  0
 17 10  1  0  0  0  0
 18 19  2  0  0  0  0
 18 20  1  0  0  0  0
 21 18  2  0  0  0  0
 22 18  1  0  0  0  0
 23 22  1  0  0  0  0
M  RAD  3   2   2   3   3  20   2
M  END
