Coordinates from ORCA-job 4-MeOPhN2+~HSO4-_B3LYPG-6-31G_dp-NX-Scan-d89-09-n800
 OpenBabel11261921003D

 23 22  0  0  0  0  0  0  0  0999 V2000
   -1.6510    0.3676   -0.2007 C   0  0  0  0  0  0  0  0  0  0  0  0
   -2.9852    0.0596   -0.3663 N   0  0  0  0  0  0  0  0  0  0  0  0
   -4.0298   -0.3562   -0.4927 N   0  0  0  0  0  0  0  0  0  0  0  0
   -1.2383    1.6835    0.0888 C   0  0  0  0  0  0  0  0  0  0  0  0
    0.1099    1.9189    0.2685 C   0  0  0  0  0  0  0  0  0  0  0  0
    1.0475    0.8712    0.1629 C   0  0  0  0  0  0  0  0  0  0  0  0
    2.3309    1.2207    0.3567 O   0  0  0  0  0  0  0  0  0  0  0  0
    3.3516    0.2267    0.2648 C   0  0  0  0  0  0  0  0  0  0  0  0
    0.6183   -0.4396   -0.1296 C   0  0  0  0  0  0  0  0  0  0  0  0
   -0.7316   -0.6915   -0.3093 C   0  0  0  0  0  0  0  0  0  0  0  0
   -1.9894    2.4655    0.1356 H   0  0  0  0  0  0  0  0  0  0  0  0
    0.4748    2.9153    0.4914 H   0  0  0  0  0  0  0  0  0  0  0  0
    4.2885    0.7494    0.4551 H   0  0  0  0  0  0  0  0  0  0  0  0
    3.3804   -0.2205   -0.7350 H   0  0  0  0  0  0  0  0  0  0  0  0
    3.2112   -0.5568    1.0180 H   0  0  0  0  0  0  0  0  0  0  0  0
    1.3252   -1.2547   -0.2158 H   0  0  0  0  0  0  0  0  0  0  0  0
   -1.0825   -1.6930   -0.5333 H   0  0  0  0  0  0  0  0  0  0  0  0
   -5.2241    2.4555   -0.3113 S   0  0  0  0  0  0  0  0  0  0  0  0
   -6.2478    3.3076   -0.9156 O   0  0  0  0  0  0  0  0  0  0  0  0
   -5.5609    0.9847   -0.3343 O   0  0  0  0  0  0  0  0  0  0  0  0
   -3.8182    2.6710   -0.7163 O   0  0  0  0  0  0  0  0  0  0  0  0
   -5.2026    2.8592    1.3011 O   0  0  0  0  0  0  0  0  0  0  0  0
   -6.0986    3.1711    1.5021 H   0  0  0  0  0  0  0  0  0  0  0  0
  1  4  1  0  0  0  0
  2  1  1  0  0  0  0
  3  2  1  0  0  0  0
  4 11  1  0  0  0  0
  4  5  2  0  0  0  0
  5 12  1  0  0  0  0
  6  5  1  0  0  0  0
  6  7  1  0  0  0  0
  8  7  1  0  0  0  0
  8 13  1  0  0  0  0
  8 15  1  0  0  0  0
  9  6  2  0  0  0  0
 10  1  2  0  0  0  0
 10  9  1  0  0  0  0
 14  8  1  0  0  0  0
 16  9  1  0  0  0  0
 17 10  1  0  0  0  0
 18 22  1  0  0  0  0
 19 18  2  0  0  0  0
 20 18  1  0  0  0  0
 21 18  2  0  0  0  0
 22 23  1  0  0  0  0
M  RAD  3   2   2   3   3  20   2
M  END
