Coordinates from ORCA-job 4-MeOPhN2+~HSO4-_B3LYPG-6-31G_dp-NX-Scan-d89-09-n800
 OpenBabel11261921003D

 23 22  0  0  0  0  0  0  0  0999 V2000
   -1.9015   -0.7792   -0.2590 C   0  0  0  0  0  0  0  0  0  0  0  0
   -3.0463   -1.4714   -0.4847 N   0  0  0  0  0  0  0  0  0  0  0  0
   -3.9896   -2.0475   -0.6744 N   0  0  0  0  0  0  0  0  0  0  0  0
   -1.9969    0.5986    0.0649 C   0  0  0  0  0  0  0  0  0  0  0  0
   -0.8191    1.2799    0.2783 C   0  0  0  0  0  0  0  0  0  0  0  0
    0.4230    0.6169    0.1770 C   0  0  0  0  0  0  0  0  0  0  0  0
    1.4995    1.3702    0.4016 O   0  0  0  0  0  0  0  0  0  0  0  0
    2.8124    0.8060    0.3174 C   0  0  0  0  0  0  0  0  0  0  0  0
    0.4893   -0.7674   -0.1473 C   0  0  0  0  0  0  0  0  0  0  0  0
   -0.6704   -1.4734   -0.3681 C   0  0  0  0  0  0  0  0  0  0  0  0
   -2.9725    1.1177    0.1396 H   0  0  0  0  0  0  0  0  0  0  0  0
   -0.8895    2.3392    0.5149 H   0  0  0  0  0  0  0  0  0  0  0  0
    3.4939    1.6251    0.5423 H   0  0  0  0  0  0  0  0  0  0  0  0
    3.0135    0.4284   -0.6906 H   0  0  0  0  0  0  0  0  0  0  0  0
    2.9447    0.0060    1.0535 H   0  0  0  0  0  0  0  0  0  0  0  0
    1.4412   -1.2766   -0.2251 H   0  0  0  0  0  0  0  0  0  0  0  0
   -0.6485   -2.5277   -0.6208 H   0  0  0  0  0  0  0  0  0  0  0  0
   -4.0180    3.5362    0.4468 S   0  0  0  0  0  0  0  0  0  0  0  0
   -4.4599    2.1166    0.2944 O   0  0  0  0  0  0  0  0  0  0  0  0
   -4.8350    4.3661    1.3464 O   0  0  0  0  0  0  0  0  0  0  0  0
   -2.5497    3.6437    0.6341 O   0  0  0  0  0  0  0  0  0  0  0  0
   -4.3098    4.1784   -1.0725 O   0  0  0  0  0  0  0  0  0  0  0  0
   -4.7324    5.0294   -0.8837 H   0  0  0  0  0  0  0  0  0  0  0  0
  1  4  1  0  0  0  0
  2  1  1  0  0  0  0
  3  2  1  0  0  0  0
  4 11  1  0  0  0  0
  4  5  2  0  0  0  0
  5 12  1  0  0  0  0
  6  5  1  0  0  0  0
  6  7  1  0  0  0  0
  8  7  1  0  0  0  0
  8 13  1  0  0  0  0
  8 15  1  0  0  0  0
  9  6  2  0  0  0  0
 10  1  2  0  0  0  0
 10  9  1  0  0  0  0
 14  8  1  0  0  0  0
 16  9  1  0  0  0  0
 17 10  1  0  0  0  0
 18 21  2  0  0  0  0
 18 20  1  0  0  0  0
 19 18  2  0  0  0  0
 22 23  1  0  0  0  0
 22 18  1  0  0  0  0
M  RAD  3   2   2   3   3  20   2
M  END
