Coordinates from ORCA-job 4-MeOPhN2+~HSO4-_B3LYPG-6-31G_dp-NX-Scan-d89-09-n800
 OpenBabel11261921003D

 23 22  0  0  0  0  0  0  0  0999 V2000
   -1.6508    0.3678   -0.1955 C   0  0  0  0  0  0  0  0  0  0  0  0
   -2.9857    0.0576   -0.3593 N   0  0  0  0  0  0  0  0  0  0  0  0
   -4.0147   -0.3899   -0.4823 N   0  0  0  0  0  0  0  0  0  0  0  0
   -1.2411    1.6828    0.1005 C   0  0  0  0  0  0  0  0  0  0  0  0
    0.1069    1.9189    0.2795 C   0  0  0  0  0  0  0  0  0  0  0  0
    1.0460    0.8732    0.1659 C   0  0  0  0  0  0  0  0  0  0  0  0
    2.3287    1.2233    0.3591 O   0  0  0  0  0  0  0  0  0  0  0  0
    3.3514    0.2314    0.2598 C   0  0  0  0  0  0  0  0  0  0  0  0
    0.6183   -0.4369   -0.1332 C   0  0  0  0  0  0  0  0  0  0  0  0
   -0.7312   -0.6905   -0.3117 C   0  0  0  0  0  0  0  0  0  0  0  0
   -1.9955    2.4614    0.1525 H   0  0  0  0  0  0  0  0  0  0  0  0
    0.4706    2.9145    0.5077 H   0  0  0  0  0  0  0  0  0  0  0  0
    4.2875    0.7551    0.4512 H   0  0  0  0  0  0  0  0  0  0  0  0
    3.3790   -0.2100   -0.7425 H   0  0  0  0  0  0  0  0  0  0  0  0
    3.2137   -0.5561    1.0090 H   0  0  0  0  0  0  0  0  0  0  0  0
    1.3263   -1.2504   -0.2254 H   0  0  0  0  0  0  0  0  0  0  0  0
   -1.0809   -1.6914   -0.5403 H   0  0  0  0  0  0  0  0  0  0  0  0
   -5.2296    2.4467   -0.3171 S   0  0  0  0  0  0  0  0  0  0  0  0
   -6.2149    3.3398   -0.9273 O   0  0  0  0  0  0  0  0  0  0  0  0
   -5.6159    0.9942   -0.3368 O   0  0  0  0  0  0  0  0  0  0  0  0
   -3.8130    2.6163   -0.7169 O   0  0  0  0  0  0  0  0  0  0  0  0
   -5.1947    2.8604    1.2946 O   0  0  0  0  0  0  0  0  0  0  0  0
   -6.0820    3.1971    1.4935 H   0  0  0  0  0  0  0  0  0  0  0  0
  1  4  1  0  0  0  0
  2  1  1  0  0  0  0
  3  2  1  0  0  0  0
  4 11  1  0  0  0  0
  4  5  2  0  0  0  0
  5 12  1  0  0  0  0
  6  5  1  0  0  0  0
  6  7  1  0  0  0  0
  8  7  1  0  0  0  0
  8 13  1  0  0  0  0
  8 15  1  0  0  0  0
  9  6  2  0  0  0  0
 10  1  2  0  0  0  0
 10  9  1  0  0  0  0
 14  8  1  0  0  0  0
 16  9  1  0  0  0  0
 17 10  1  0  0  0  0
 18 22  1  0  0  0  0
 19 18  2  0  0  0  0
 20 18  1  0  0  0  0
 21 18  2  0  0  0  0
 22 23  1  0  0  0  0
M  RAD  3   2   2   3   3  20   2
M  END
