Coordinates from ORCA-job 4-MeOPhN2+~HSO4-_B3LYPG-6-31G_dp-NX-Scan-d89-09-n800
 OpenBabel11261921003D

 23 22  0  0  0  0  0  0  0  0999 V2000
   -1.7558    0.3777   -0.5843 C   0  0  0  0  0  0  0  0  0  0  0  0
   -3.0488    0.1507   -1.0023 N   0  0  0  0  0  0  0  0  0  0  0  0
   -3.9934   -0.2113   -1.4773 N   0  0  0  0  0  0  0  0  0  0  0  0
   -1.3049    1.6908   -0.3367 C   0  0  0  0  0  0  0  0  0  0  0  0
    0.0139    1.8432    0.0333 C   0  0  0  0  0  0  0  0  0  0  0  0
    0.8652    0.7263    0.1788 C   0  0  0  0  0  0  0  0  0  0  0  0
    2.1211    1.0035    0.5554 O   0  0  0  0  0  0  0  0  0  0  0  0
    3.0553   -0.0612    0.7483 C   0  0  0  0  0  0  0  0  0  0  0  0
    0.3831   -0.5781   -0.0676 C   0  0  0  0  0  0  0  0  0  0  0  0
   -0.9324   -0.7561   -0.4559 C   0  0  0  0  0  0  0  0  0  0  0  0
   -1.9978    2.5330   -0.4313 H   0  0  0  0  0  0  0  0  0  0  0  0
    0.4176    2.8283    0.2383 H   0  0  0  0  0  0  0  0  0  0  0  0
    3.9860    0.4175    1.0497 H   0  0  0  0  0  0  0  0  0  0  0  0
    3.2153   -0.6193   -0.1809 H   0  0  0  0  0  0  0  0  0  0  0  0
    2.7206   -0.7410    1.5392 H   0  0  0  0  0  0  0  0  0  0  0  0
    1.0230   -1.4439    0.0437 H   0  0  0  0  0  0  0  0  0  0  0  0
   -1.3263   -1.7481   -0.6485 H   0  0  0  0  0  0  0  0  0  0  0  0
   -4.4937    2.8713    0.5217 S   0  0  0  0  0  0  0  0  0  0  0  0
   -3.9367    1.5345    0.8808 O   0  0  0  0  0  0  0  0  0  0  0  0
   -5.0844    3.6455    1.6196 O   0  0  0  0  0  0  0  0  0  0  0  0
   -3.5802    3.6342   -0.3736 O   0  0  0  0  0  0  0  0  0  0  0  0
   -5.7693    2.4089   -0.4613 O   0  0  0  0  0  0  0  0  0  0  0  0
   -6.2990    3.2088   -0.6042 H   0  0  0  0  0  0  0  0  0  0  0  0
  1 10  2  0  0  0  0
  1  4  1  0  0  0  0
  2  1  1  0  0  0  0
  3  2  1  0  0  0  0
  4  5  2  0  0  0  0
  5  6  1  0  0  0  0
  5 12  1  0  0  0  0
  6  7  1  0  0  0  0
  7  8  1  0  0  0  0
  8 13  1  0  0  0  0
  8 15  1  0  0  0  0
  9 16  1  0  0  0  0
  9  6  2  0  0  0  0
 10  9  1  0  0  0  0
 11  4  1  0  0  0  0
 14  8  1  0  0  0  0
 17 10  1  0  0  0  0
 18 19  2  0  0  0  0
 18 20  1  0  0  0  0
 21 18  2  0  0  0  0
 22 18  1  0  0  0  0
 23 22  1  0  0  0  0
M  RAD  3   2   2   3   3  20   2
M  END
