Coordinates from ORCA-job 4-MeOPhN2+~HSO4-_B3LYPG-6-31G_dp-NX-Scan-d89-09-n800
 OpenBabel11261921003D

 23 22  0  0  0  0  0  0  0  0999 V2000
   -1.7613    0.4125   -0.5684 C   0  0  0  0  0  0  0  0  0  0  0  0
   -3.0595    0.2034   -0.9793 N   0  0  0  0  0  0  0  0  0  0  0  0
   -4.0145   -0.1335   -1.4518 N   0  0  0  0  0  0  0  0  0  0  0  0
   -1.2945    1.7196   -0.3185 C   0  0  0  0  0  0  0  0  0  0  0  0
    0.0283    1.8564    0.0430 C   0  0  0  0  0  0  0  0  0  0  0  0
    0.8681    0.7295    0.1791 C   0  0  0  0  0  0  0  0  0  0  0  0
    2.1297    0.9918    0.5477 O   0  0  0  0  0  0  0  0  0  0  0  0
    3.0532   -0.0838    0.7308 C   0  0  0  0  0  0  0  0  0  0  0  0
    0.3700   -0.5686   -0.0682 C   0  0  0  0  0  0  0  0  0  0  0  0
   -0.9500   -0.7306   -0.4487 C   0  0  0  0  0  0  0  0  0  0  0  0
   -1.9795    2.5682   -0.4070 H   0  0  0  0  0  0  0  0  0  0  0  0
    0.4447    2.8360    0.2486 H   0  0  0  0  0  0  0  0  0  0  0  0
    3.9915    0.3834    1.0268 H   0  0  0  0  0  0  0  0  0  0  0  0
    3.2001   -0.6412   -0.2010 H   0  0  0  0  0  0  0  0  0  0  0  0
    2.7166   -0.7621    1.5223 H   0  0  0  0  0  0  0  0  0  0  0  0
    1.0008   -1.4418    0.0359 H   0  0  0  0  0  0  0  0  0  0  0  0
   -1.3563   -1.7174   -0.6418 H   0  0  0  0  0  0  0  0  0  0  0  0
   -4.4976    2.8662    0.5372 S   0  0  0  0  0  0  0  0  0  0  0  0
   -3.8907    1.5728    0.9636 O   0  0  0  0  0  0  0  0  0  0  0  0
   -5.1615    3.6515    1.5830 O   0  0  0  0  0  0  0  0  0  0  0  0
   -3.5984    3.6391   -0.3640 O   0  0  0  0  0  0  0  0  0  0  0  0
   -5.7140    2.2954   -0.4699 O   0  0  0  0  0  0  0  0  0  0  0  0
   -6.2465    3.0684   -0.7145 H   0  0  0  0  0  0  0  0  0  0  0  0
  1 10  2  0  0  0  0
  1  4  1  0  0  0  0
  2  1  1  0  0  0  0
  3  2  1  0  0  0  0
  4  5  2  0  0  0  0
  5  6  1  0  0  0  0
  5 12  1  0  0  0  0
  6  7  1  0  0  0  0
  7  8  1  0  0  0  0
  8 13  1  0  0  0  0
  8 15  1  0  0  0  0
  9 16  1  0  0  0  0
  9  6  2  0  0  0  0
 10  9  1  0  0  0  0
 11  4  1  0  0  0  0
 14  8  1  0  0  0  0
 17 10  1  0  0  0  0
 18 19  2  0  0  0  0
 18 20  1  0  0  0  0
 21 18  2  0  0  0  0
 22 18  1  0  0  0  0
 23 22  1  0  0  0  0
M  RAD  3   2   2   3   3  20   2
M  END
