Coordinates from ORCA-job 4-MeOPhN2+~HSO4-_B3LYPG-6-31G_dp-NX-Scan-d89-09-n800
 OpenBabel11261921003D

 23 22  0  0  0  0  0  0  0  0999 V2000
   -1.5102    0.7071   -0.6098 C   0  0  0  0  0  0  0  0  0  0  0  0
   -2.7029    0.7136   -1.3744 N   0  0  0  0  0  0  0  0  0  0  0  0
   -3.7385    1.4010   -0.8727 N   0  0  0  0  0  0  0  0  0  0  0  0
   -1.2801    1.2038    0.6948 C   0  0  0  0  0  0  0  0  0  0  0  0
   -0.0275    1.0841    1.2881 C   0  0  0  0  0  0  0  0  0  0  0  0
    1.0362    0.4733    0.6143 C   0  0  0  0  0  0  0  0  0  0  0  0
    2.2216    0.4159    1.2922 O   0  0  0  0  0  0  0  0  0  0  0  0
    3.3298   -0.1920    0.6495 C   0  0  0  0  0  0  0  0  0  0  0  0
    0.8263   -0.0283   -0.6769 C   0  0  0  0  0  0  0  0  0  0  0  0
   -0.4286    0.0921   -1.2655 C   0  0  0  0  0  0  0  0  0  0  0  0
   -2.0629    1.6807    1.2693 H   0  0  0  0  0  0  0  0  0  0  0  0
    0.1463    1.4641    2.2894 H   0  0  0  0  0  0  0  0  0  0  0  0
    4.1622   -0.1228    1.3520 H   0  0  0  0  0  0  0  0  0  0  0  0
    3.5982    0.3297   -0.2784 H   0  0  0  0  0  0  0  0  0  0  0  0
    3.1381   -1.2486    0.4211 H   0  0  0  0  0  0  0  0  0  0  0  0
    1.6256   -0.5094   -1.2283 H   0  0  0  0  0  0  0  0  0  0  0  0
   -0.6002   -0.2948   -2.2645 H   0  0  0  0  0  0  0  0  0  0  0  0
   -6.2571    3.0984    0.3147 S   0  0  0  0  0  0  0  0  0  0  0  0
   -5.7513    4.4592    0.3357 O   0  0  0  0  0  0  0  0  0  0  0  0
   -3.8667    1.8903   -0.1162 O   0  0  0  0  0  0  0  0  0  0  0  0
   -6.5682    2.4076    1.5534 O   0  0  0  0  0  0  0  0  0  0  0  0
   -6.5116    2.4423   -0.9618 O   0  0  0  0  0  0  0  0  0  0  0  0
   -4.4999    1.2476   -1.6412 H   0  0  0  0  0  0  0  0  0  0  0  0
  1  4  2  0  0  0  0
  2  3  1  0  0  0  0
  2  1  1  0  0  0  0
  3 20  1  0  0  0  0
  4 11  1  0  0  0  0
  4  5  1  0  0  0  0
  5 12  1  0  0  0  0
  6  5  2  0  0  0  0
  6  7  1  0  0  0  0
  8  7  1  0  0  0  0
  8 13  1  0  0  0  0
  9  6  1  0  0  0  0
 10  9  2  0  0  0  0
 10  1  1  0  0  0  0
 14  8  1  0  0  0  0
 15  8  1  0  0  0  0
 16  9  1  0  0  0  0
 17 10  1  0  0  0  0
 18 19  2  0  0  0  0
 18 21  1  0  0  0  0
 22 18  1  0  0  0  0
 23  3  1  0  0  0  0
M  RAD  4   2   2  20   2  21   2  22   2
M  END
