Coordinates from ORCA-job 4-MeOPhN2+~HSO4-_B3LYPG-6-31G_dp-NX-Scan-d89-09-n800
 OpenBabel11261921003D

 23 22  0  0  0  0  0  0  0  0999 V2000
   -1.9480   -1.3541   -0.3452 C   0  0  0  0  0  0  0  0  0  0  0  0
   -2.8370   -2.3407   -0.6044 N   0  0  0  0  0  0  0  0  0  0  0  0
   -3.5152   -3.2113   -0.8336 N   0  0  0  0  0  0  0  0  0  0  0  0
   -2.3590   -0.0228   -0.0194 C   0  0  0  0  0  0  0  0  0  0  0  0
   -1.3842    0.9160    0.2161 C   0  0  0  0  0  0  0  0  0  0  0  0
   -0.0143    0.5536    0.1381 C   0  0  0  0  0  0  0  0  0  0  0  0
    0.8423    1.5322    0.3864 O   0  0  0  0  0  0  0  0  0  0  0  0
    2.2554    1.3060    0.3371 C   0  0  0  0  0  0  0  0  0  0  0  0
    0.3815   -0.7733   -0.1848 C   0  0  0  0  0  0  0  0  0  0  0  0
   -0.5781   -1.7250   -0.4270 C   0  0  0  0  0  0  0  0  0  0  0  0
   -3.4017    0.2765    0.0441 H   0  0  0  0  0  0  0  0  0  0  0  0
   -1.6400    1.9655    0.4409 H   0  0  0  0  0  0  0  0  0  0  0  0
    2.7067    2.2674    0.5765 H   0  0  0  0  0  0  0  0  0  0  0  0
    2.5659    0.9914   -0.6644 H   0  0  0  0  0  0  0  0  0  0  0  0
    2.5579    0.5604    1.0796 H   0  0  0  0  0  0  0  0  0  0  0  0
    1.4272   -1.0477   -0.2462 H   0  0  0  0  0  0  0  0  0  0  0  0
   -0.3063   -2.7441   -0.6791 H   0  0  0  0  0  0  0  0  0  0  0  0
   -3.2890    4.0104    0.6087 S   0  0  0  0  0  0  0  0  0  0  0  0
   -3.9998    2.7194    0.7902 O   0  0  0  0  0  0  0  0  0  0  0  0
   -3.7409    5.1563    1.4242 O   0  0  0  0  0  0  0  0  0  0  0  0
   -1.8086    3.8199    0.5677 O   0  0  0  0  0  0  0  0  0  0  0  0
   -3.7000    4.4622   -0.9560 O   0  0  0  0  0  0  0  0  0  0  0  0
   -3.9363    5.3970   -0.8646 H   0  0  0  0  0  0  0  0  0  0  0  0
  1  4  1  0  0  0  0
  2  1  1  0  0  0  0
  3  2  1  0  0  0  0
  4 11  1  0  0  0  0
  4  5  2  0  0  0  0
  5 12  1  0  0  0  0
  6  5  1  0  0  0  0
  6  7  1  0  0  0  0
  8  7  1  0  0  0  0
  8 13  1  0  0  0  0
  8 15  1  0  0  0  0
  9  6  2  0  0  0  0
 10  1  2  0  0  0  0
 10  9  1  0  0  0  0
 14  8  1  0  0  0  0
 16  9  1  0  0  0  0
 17 10  1  0  0  0  0
 18 19  2  0  0  0  0
 18 20  1  0  0  0  0
 21 18  2  0  0  0  0
 22 23  1  0  0  0  0
 22 18  1  0  0  0  0
M  RAD  3   2   2   3   3  20   2
M  END
