Coordinates from ORCA-job 4-MeOPhN2+~HSO4-_B3LYPG-6-31G_dp-NX-Scan-d89-09-n800
 OpenBabel11261921003D

 23 22  0  0  0  0  0  0  0  0999 V2000
   -1.7018    0.4162   -0.5715 C   0  0  0  0  0  0  0  0  0  0  0  0
   -2.9633    0.1648   -1.0640 N   0  0  0  0  0  0  0  0  0  0  0  0
   -3.9397   -0.0864   -1.5543 N   0  0  0  0  0  0  0  0  0  0  0  0
   -1.4128    1.6435    0.0611 C   0  0  0  0  0  0  0  0  0  0  0  0
   -0.1218    1.8513    0.4996 C   0  0  0  0  0  0  0  0  0  0  0  0
    0.8699    0.8611    0.3331 C   0  0  0  0  0  0  0  0  0  0  0  0
    2.0847    1.1753    0.8106 O   0  0  0  0  0  0  0  0  0  0  0  0
    3.1509    0.2301    0.7017 C   0  0  0  0  0  0  0  0  0  0  0  0
    0.5584   -0.3597   -0.2997 C   0  0  0  0  0  0  0  0  0  0  0  0
   -0.7299   -0.5809   -0.7576 C   0  0  0  0  0  0  0  0  0  0  0  0
   -2.1975    2.3776    0.2003 H   0  0  0  0  0  0  0  0  0  0  0  0
    0.1529    2.7766    0.9930 H   0  0  0  0  0  0  0  0  0  0  0  0
    4.0148    0.7087    1.1615 H   0  0  0  0  0  0  0  0  0  0  0  0
    3.3736    0.0041   -0.3467 H   0  0  0  0  0  0  0  0  0  0  0  0
    2.9159   -0.6946    1.2397 H   0  0  0  0  0  0  0  0  0  0  0  0
    1.3079   -1.1287   -0.4360 H   0  0  0  0  0  0  0  0  0  0  0  0
   -0.9913   -1.5117   -1.2487 H   0  0  0  0  0  0  0  0  0  0  0  0
   -5.1440    2.0512    0.2850 S   0  0  0  0  0  0  0  0  0  0  0  0
   -6.2340    2.5032    1.1494 O   0  0  0  0  0  0  0  0  0  0  0  0
   -4.1176    1.1624    0.8807 O   0  0  0  0  0  0  0  0  0  0  0  0
   -5.5543    1.5752   -1.0683 O   0  0  0  0  0  0  0  0  0  0  0  0
   -4.2101    3.4252   -0.0116 O   0  0  0  0  0  0  0  0  0  0  0  0
   -4.8325    4.1507   -0.1723 H   0  0  0  0  0  0  0  0  0  0  0  0
  1  4  1  0  0  0  0
  2  1  1  0  0  0  0
  3  2  1  0  0  0  0
  4 11  1  0  0  0  0
  4  5  2  0  0  0  0
  5 12  1  0  0  0  0
  6  5  1  0  0  0  0
  6  7  1  0  0  0  0
  8  7  1  0  0  0  0
  8 13  1  0  0  0  0
  8 15  1  0  0  0  0
  9  6  2  0  0  0  0
 10  1  2  0  0  0  0
 10  9  1  0  0  0  0
 14  8  1  0  0  0  0
 16  9  1  0  0  0  0
 17 10  1  0  0  0  0
 18 20  2  0  0  0  0
 18 19  1  0  0  0  0
 21 18  2  0  0  0  0
 22 18  1  0  0  0  0
 23 22  1  0  0  0  0
M  RAD  3   2   2   3   3  19   2
M  END
