Coordinates from ORCA-job 4-MeOPhN2+~HSO4-_B3LYPG-6-31G_dp-NX-Scan-d89-09-n800
 OpenBabel11261921003D

 23 23  0  0  0  0  0  0  0  0999 V2000
   -1.5590    0.7929   -0.5709 C   0  0  0  0  0  0  0  0  0  0  0  0
   -2.7524    0.7657   -1.3214 N   0  0  0  0  0  0  0  0  0  0  0  0
   -3.8280    1.3276   -1.0472 N   0  0  0  0  0  0  0  0  0  0  0  0
   -1.2651    1.4605    0.6443 C   0  0  0  0  0  0  0  0  0  0  0  0
   -0.0062    1.3450    1.2084 C   0  0  0  0  0  0  0  0  0  0  0  0
    0.9961    0.5721    0.5951 C   0  0  0  0  0  0  0  0  0  0  0  0
    2.1862    0.5368    1.2405 O   0  0  0  0  0  0  0  0  0  0  0  0
    3.2485   -0.2238    0.6755 C   0  0  0  0  0  0  0  0  0  0  0  0
    0.7195   -0.0940   -0.6083 C   0  0  0  0  0  0  0  0  0  0  0  0
   -0.5439    0.0257   -1.1718 C   0  0  0  0  0  0  0  0  0  0  0  0
   -2.0073    2.0641    1.1434 H   0  0  0  0  0  0  0  0  0  0  0  0
    0.2323    1.8498    2.1383 H   0  0  0  0  0  0  0  0  0  0  0  0
    4.0942   -0.1042    1.3535 H   0  0  0  0  0  0  0  0  0  0  0  0
    3.5245    0.1495   -0.3179 H   0  0  0  0  0  0  0  0  0  0  0  0
    2.9868   -1.2866    0.6046 H   0  0  0  0  0  0  0  0  0  0  0  0
    1.4720   -0.6953   -1.1035 H   0  0  0  0  0  0  0  0  0  0  0  0
   -0.7791   -0.4780   -2.1032 H   0  0  0  0  0  0  0  0  0  0  0  0
   -5.5122    2.5801    0.3327 S   0  0  0  0  0  0  0  0  0  0  0  0
   -5.3700    3.9003    0.8946 O   0  0  0  0  0  0  0  0  0  0  0  0
   -3.8875    2.0455    0.0356 O   0  0  0  0  0  0  0  0  0  0  0  0
   -6.1824    1.4992    1.0226 O   0  0  0  0  0  0  0  0  0  0  0  0
   -5.9974    2.6929   -1.1870 O   0  0  0  0  0  0  0  0  0  0  0  0
   -5.4912    1.9893   -1.6733 H   0  0  0  0  0  0  0  0  0  0  0  0
  1  4  2  0  0  0  0
  2  3  2  0  0  0  0
  2  1  1  0  0  0  0
  3 20  1  0  0  0  0
  4 11  1  0  0  0  0
  4  5  1  0  0  0  0
  5 12  1  0  0  0  0
  6  5  2  0  0  0  0
  6  7  1  0  0  0  0
  8  7  1  0  0  0  0
  8 13  1  0  0  0  0
  9  6  1  0  0  0  0
 10  9  2  0  0  0  0
 10  1  1  0  0  0  0
 14  8  1  0  0  0  0
 15  8  1  0  0  0  0
 16  9  1  0  0  0  0
 17 10  1  0  0  0  0
 18 19  2  0  0  0  0
 18 21  2  0  0  0  0
 20 18  1  0  0  0  0
 22 18  1  0  0  0  0
 23 22  1  0  0  0  0
M  END
