Coordinates from ORCA-job 4-MeOPhN2+~HSO4-_B3LYPG-6-31G_dp-NX-Scan-d89-09-n800
 OpenBabel11261921003D

 23 22  0  0  0  0  0  0  0  0999 V2000
   -1.9480   -1.0937   -0.3157 C   0  0  0  0  0  0  0  0  0  0  0  0
   -2.9620   -1.9519   -0.5711 N   0  0  0  0  0  0  0  0  0  0  0  0
   -3.7766   -2.6950   -0.7921 N   0  0  0  0  0  0  0  0  0  0  0  0
   -2.2176    0.2591    0.0414 C   0  0  0  0  0  0  0  0  0  0  0  0
   -1.1436    1.0854    0.2803 C   0  0  0  0  0  0  0  0  0  0  0  0
    0.1763    0.5887    0.1716 C   0  0  0  0  0  0  0  0  0  0  0  0
    1.1406    1.4679    0.4238 O   0  0  0  0  0  0  0  0  0  0  0  0
    2.5185    1.0895    0.3347 C   0  0  0  0  0  0  0  0  0  0  0  0
    0.4262   -0.7657   -0.1852 C   0  0  0  0  0  0  0  0  0  0  0  0
   -0.6297   -1.6098   -0.4302 C   0  0  0  0  0  0  0  0  0  0  0  0
   -3.2191    0.6895    0.1331 H   0  0  0  0  0  0  0  0  0  0  0  0
   -1.3339    2.1414    0.5295 H   0  0  0  0  0  0  0  0  0  0  0  0
    3.0801    1.9896    0.5797 H   0  0  0  0  0  0  0  0  0  0  0  0
    2.7702    0.7636   -0.6796 H   0  0  0  0  0  0  0  0  0  0  0  0
    2.7557    0.3000    1.0554 H   0  0  0  0  0  0  0  0  0  0  0  0
    1.4367   -1.1452   -0.2694 H   0  0  0  0  0  0  0  0  0  0  0  0
   -0.4689   -2.6460   -0.7065 H   0  0  0  0  0  0  0  0  0  0  0  0
   -3.5929    3.8029    0.5512 S   0  0  0  0  0  0  0  0  0  0  0  0
   -4.1142    2.4131    0.6577 O   0  0  0  0  0  0  0  0  0  0  0  0
   -4.2800    4.8263    1.3576 O   0  0  0  0  0  0  0  0  0  0  0  0
   -2.1053    3.8556    0.6136 O   0  0  0  0  0  0  0  0  0  0  0  0
   -3.9710    4.2143   -1.0303 O   0  0  0  0  0  0  0  0  0  0  0  0
   -4.2632    5.1356   -0.9648 H   0  0  0  0  0  0  0  0  0  0  0  0
  1  4  1  0  0  0  0
  2  1  1  0  0  0  0
  3  2  1  0  0  0  0
  4 11  1  0  0  0  0
  4  5  2  0  0  0  0
  5 12  1  0  0  0  0
  6  5  1  0  0  0  0
  6  7  1  0  0  0  0
  8  7  1  0  0  0  0
  8 13  1  0  0  0  0
  8 15  1  0  0  0  0
  9  6  2  0  0  0  0
 10  1  2  0  0  0  0
 10  9  1  0  0  0  0
 14  8  1  0  0  0  0
 16  9  1  0  0  0  0
 17 10  1  0  0  0  0
 18 21  2  0  0  0  0
 18 19  2  0  0  0  0
 18 20  1  0  0  0  0
 22 23  1  0  0  0  0
 22 18  1  0  0  0  0
M  RAD  3   2   2   3   3  20   2
M  END
