Coordinates from ORCA-job 4-MeOPhN2+~HSO4-_B3LYPG-6-31G_dp-NX-Scan-d89-09-n800
 OpenBabel11261921003D

 23 22  0  0  0  0  0  0  0  0999 V2000
   -1.6556    0.2105   -0.5958 C   0  0  0  0  0  0  0  0  0  0  0  0
   -2.9229   -0.0681   -1.0728 N   0  0  0  0  0  0  0  0  0  0  0  0
   -4.0009    0.1054   -1.3777 N   0  0  0  0  0  0  0  0  0  0  0  0
   -1.4096    1.4411    0.0532 C   0  0  0  0  0  0  0  0  0  0  0  0
   -0.1300    1.6735    0.5148 C   0  0  0  0  0  0  0  0  0  0  0  0
    0.8929    0.7176    0.3379 C   0  0  0  0  0  0  0  0  0  0  0  0
    2.0962    1.0637    0.8245 O   0  0  0  0  0  0  0  0  0  0  0  0
    3.1921    0.1555    0.7035 C   0  0  0  0  0  0  0  0  0  0  0  0
    0.6208   -0.5066   -0.3068 C   0  0  0  0  0  0  0  0  0  0  0  0
   -0.6603   -0.7627   -0.7672 C   0  0  0  0  0  0  0  0  0  0  0  0
   -2.2112    2.1612    0.2115 H   0  0  0  0  0  0  0  0  0  0  0  0
    0.1098    2.5974    1.0289 H   0  0  0  0  0  0  0  0  0  0  0  0
    4.0416    0.6577    1.1650 H   0  0  0  0  0  0  0  0  0  0  0  0
    3.4186   -0.0539   -0.3477 H   0  0  0  0  0  0  0  0  0  0  0  0
    2.9899   -0.7817    1.2335 H   0  0  0  0  0  0  0  0  0  0  0  0
    1.3943   -1.2509   -0.4455 H   0  0  0  0  0  0  0  0  0  0  0  0
   -0.8961   -1.6983   -1.2624 H   0  0  0  0  0  0  0  0  0  0  0  0
   -4.9308    2.4455    0.1778 S   0  0  0  0  0  0  0  0  0  0  0  0
   -5.6320    1.2740    0.7059 O   0  0  0  0  0  0  0  0  0  0  0  0
   -3.9168    3.0839    1.0504 O   0  0  0  0  0  0  0  0  0  0  0  0
   -4.3633    2.2112   -1.2108 O   0  0  0  0  0  0  0  0  0  0  0  0
   -6.0871    3.6022   -0.0426 O   0  0  0  0  0  0  0  0  0  0  0  0
   -5.6613    4.4370    0.2071 H   0  0  0  0  0  0  0  0  0  0  0  0
  1  4  1  0  0  0  0
  2  1  1  0  0  0  0
  3  2  1  0  0  0  0
  4 11  1  0  0  0  0
  4  5  2  0  0  0  0
  5 12  1  0  0  0  0
  6  5  1  0  0  0  0
  6  7  1  0  0  0  0
  8  7  1  0  0  0  0
  8 13  1  0  0  0  0
  8 15  1  0  0  0  0
  9  6  2  0  0  0  0
 10  1  2  0  0  0  0
 10  9  1  0  0  0  0
 14  8  1  0  0  0  0
 16  9  1  0  0  0  0
 17 10  1  0  0  0  0
 18 19  2  0  0  0  0
 18 20  1  0  0  0  0
 21 18  2  0  0  0  0
 22 18  1  0  0  0  0
 22 23  1  0  0  0  0
M  RAD  3   2   2   3   3  20   2
M  END
