Coordinates from ORCA-job 4-MeOPhN2+~HSO4-_B3LYPG-6-31G_dp-NX-Scan-d89-09-n800
 OpenBabel11261921003D

 23 22  0  0  0  0  0  0  0  0999 V2000
   -1.9224   -0.8857   -0.2776 C   0  0  0  0  0  0  0  0  0  0  0  0
   -3.0210   -1.6429   -0.5155 N   0  0  0  0  0  0  0  0  0  0  0  0
   -3.9153   -2.2900   -0.7189 N   0  0  0  0  0  0  0  0  0  0  0  0
   -2.0781    0.4823    0.0725 C   0  0  0  0  0  0  0  0  0  0  0  0
   -0.9306    1.2113    0.2946 C   0  0  0  0  0  0  0  0  0  0  0  0
    0.3406    0.6075    0.1773 C   0  0  0  0  0  0  0  0  0  0  0  0
    1.3807    1.4050    0.4132 O   0  0  0  0  0  0  0  0  0  0  0  0
    2.7189    0.9059    0.3143 C   0  0  0  0  0  0  0  0  0  0  0  0
    0.4696   -0.7657   -0.1728 C   0  0  0  0  0  0  0  0  0  0  0  0
   -0.6580   -1.5179   -0.4025 C   0  0  0  0  0  0  0  0  0  0  0  0
   -3.0590    0.9834    0.1677 H   0  0  0  0  0  0  0  0  0  0  0  0
   -1.0491    2.2663    0.5487 H   0  0  0  0  0  0  0  0  0  0  0  0
    3.3610    1.7532    0.5499 H   0  0  0  0  0  0  0  0  0  0  0  0
    2.9325    0.5548   -0.7005 H   0  0  0  0  0  0  0  0  0  0  0  0
    2.8925    0.1014    1.0367 H   0  0  0  0  0  0  0  0  0  0  0  0
    1.4430   -1.2304   -0.2634 H   0  0  0  0  0  0  0  0  0  0  0  0
   -0.5897   -2.5655   -0.6742 H   0  0  0  0  0  0  0  0  0  0  0  0
   -3.8918    3.6368    0.5023 S   0  0  0  0  0  0  0  0  0  0  0  0
   -4.3821    2.2271    0.4595 O   0  0  0  0  0  0  0  0  0  0  0  0
   -4.6961    4.5735    1.3039 O   0  0  0  0  0  0  0  0  0  0  0  0
   -2.4242    3.7172    0.7162 O   0  0  0  0  0  0  0  0  0  0  0  0
   -4.1257    4.1539   -1.0756 O   0  0  0  0  0  0  0  0  0  0  0  0
   -4.5174    5.0337   -0.9712 H   0  0  0  0  0  0  0  0  0  0  0  0
  1  4  1  0  0  0  0
  2  1  1  0  0  0  0
  3  2  1  0  0  0  0
  4 11  1  0  0  0  0
  4  5  2  0  0  0  0
  5 12  1  0  0  0  0
  6  5  1  0  0  0  0
  6  7  1  0  0  0  0
  8  7  1  0  0  0  0
  8 13  1  0  0  0  0
  8 15  1  0  0  0  0
  9  6  2  0  0  0  0
 10  1  2  0  0  0  0
 10  9  1  0  0  0  0
 14  8  1  0  0  0  0
 16  9  1  0  0  0  0
 17 10  1  0  0  0  0
 18 21  2  0  0  0  0
 18 20  1  0  0  0  0
 19 18  2  0  0  0  0
 22 23  1  0  0  0  0
 22 18  1  0  0  0  0
M  RAD  3   2   2   3   3  20   2
M  END
