Coordinates from ORCA-job 4-MeOPhN2+~HSO4-_B3LYPG-6-31G_dp-NX-Scan-d89-09-n800
 OpenBabel11261921003D

 23 22  0  0  0  0  0  0  0  0999 V2000
   -1.7573    0.3908   -0.5802 C   0  0  0  0  0  0  0  0  0  0  0  0
   -3.0523    0.1709   -0.9956 N   0  0  0  0  0  0  0  0  0  0  0  0
   -4.0012   -0.1808   -1.4697 N   0  0  0  0  0  0  0  0  0  0  0  0
   -1.3003    1.7018   -0.3326 C   0  0  0  0  0  0  0  0  0  0  0  0
    0.0198    1.8485    0.0348 C   0  0  0  0  0  0  0  0  0  0  0  0
    0.8664    0.7277    0.1783 C   0  0  0  0  0  0  0  0  0  0  0  0
    2.1244    0.9994    0.5525 O   0  0  0  0  0  0  0  0  0  0  0  0
    3.0541   -0.0694    0.7436 C   0  0  0  0  0  0  0  0  0  0  0  0
    0.3782   -0.5745   -0.0675 C   0  0  0  0  0  0  0  0  0  0  0  0
   -0.9388   -0.7466   -0.4536 C   0  0  0  0  0  0  0  0  0  0  0  0
   -1.9904    2.5461   -0.4260 H   0  0  0  0  0  0  0  0  0  0  0  0
    0.4284    2.8316    0.2395 H   0  0  0  0  0  0  0  0  0  0  0  0
    3.9876    0.4051    1.0432 H   0  0  0  0  0  0  0  0  0  0  0  0
    3.2098   -0.6284   -0.1858 H   0  0  0  0  0  0  0  0  0  0  0  0
    2.7179   -0.7477    1.5353 H   0  0  0  0  0  0  0  0  0  0  0  0
    1.0145   -1.4431    0.0423 H   0  0  0  0  0  0  0  0  0  0  0  0
   -1.3375   -1.7367   -0.6456 H   0  0  0  0  0  0  0  0  0  0  0  0
   -4.4946    2.8677    0.5277 S   0  0  0  0  0  0  0  0  0  0  0  0
   -3.9191    1.5453    0.9093 O   0  0  0  0  0  0  0  0  0  0  0  0
   -5.1083    3.6464    1.6092 O   0  0  0  0  0  0  0  0  0  0  0  0
   -3.5877    3.6339   -0.3715 O   0  0  0  0  0  0  0  0  0  0  0  0
   -5.7523    2.3676   -0.4618 O   0  0  0  0  0  0  0  0  0  0  0  0
   -6.2829    3.1596   -0.6410 H   0  0  0  0  0  0  0  0  0  0  0  0
  1 10  2  0  0  0  0
  1  4  1  0  0  0  0
  2  1  1  0  0  0  0
  3  2  1  0  0  0  0
  4  5  2  0  0  0  0
  5  6  1  0  0  0  0
  5 12  1  0  0  0  0
  6  7  1  0  0  0  0
  7  8  1  0  0  0  0
  8 13  1  0  0  0  0
  8 15  1  0  0  0  0
  9 16  1  0  0  0  0
  9  6  2  0  0  0  0
 10  9  1  0  0  0  0
 11  4  1  0  0  0  0
 14  8  1  0  0  0  0
 17 10  1  0  0  0  0
 18 19  2  0  0  0  0
 18 20  1  0  0  0  0
 21 18  2  0  0  0  0
 22 18  1  0  0  0  0
 23 22  1  0  0  0  0
M  RAD  3   2   2   3   3  20   2
M  END
