Coordinates from ORCA-job 4-MeOPhN2+~HSO4-_B3LYPG-6-31G_dp-NX-Scan-d89-09-n800
 OpenBabel11261921003D

 23 22  0  0  0  0  0  0  0  0999 V2000
   -1.9536   -1.2991   -0.3403 C   0  0  0  0  0  0  0  0  0  0  0  0
   -2.8634   -2.2663   -0.6029 N   0  0  0  0  0  0  0  0  0  0  0  0
   -3.5561   -3.1229   -0.8392 N   0  0  0  0  0  0  0  0  0  0  0  0
   -2.3349    0.0368   -0.0007 C   0  0  0  0  0  0  0  0  0  0  0  0
   -1.3368    0.9507    0.2381 C   0  0  0  0  0  0  0  0  0  0  0  0
    0.0237    0.5594    0.1505 C   0  0  0  0  0  0  0  0  0  0  0  0
    0.9036    1.5173    0.4040 O   0  0  0  0  0  0  0  0  0  0  0  0
    2.3109    1.2600    0.3419 C   0  0  0  0  0  0  0  0  0  0  0  0
    0.3892   -0.7724   -0.1865 C   0  0  0  0  0  0  0  0  0  0  0  0
   -0.5927   -1.7002   -0.4321 C   0  0  0  0  0  0  0  0  0  0  0  0
   -3.3687    0.3663    0.0727 H   0  0  0  0  0  0  0  0  0  0  0  0
   -1.5723    2.0031    0.4720 H   0  0  0  0  0  0  0  0  0  0  0  0
    2.7859    2.2086    0.5864 H   0  0  0  0  0  0  0  0  0  0  0  0
    2.6069    0.9478   -0.6647 H   0  0  0  0  0  0  0  0  0  0  0  0
    2.6024    0.5010    1.0752 H   0  0  0  0  0  0  0  0  0  0  0  0
    1.4283   -1.0693   -0.2554 H   0  0  0  0  0  0  0  0  0  0  0  0
   -0.3450   -2.7229   -0.6942 H   0  0  0  0  0  0  0  0  0  0  0  0
   -3.3433    3.9737    0.5906 S   0  0  0  0  0  0  0  0  0  0  0  0
   -4.0041    2.6559    0.7745 O   0  0  0  0  0  0  0  0  0  0  0  0
   -3.8358    5.1003    1.4089 O   0  0  0  0  0  0  0  0  0  0  0  0
   -1.8574    3.8417    0.5438 O   0  0  0  0  0  0  0  0  0  0  0  0
   -3.7799    4.4066   -0.9718 O   0  0  0  0  0  0  0  0  0  0  0  0
   -4.0284    5.3389   -0.8862 H   0  0  0  0  0  0  0  0  0  0  0  0
  1  4  1  0  0  0  0
  2  1  1  0  0  0  0
  3  2  1  0  0  0  0
  4 11  1  0  0  0  0
  4  5  2  0  0  0  0
  5 12  1  0  0  0  0
  6  5  1  0  0  0  0
  6  7  1  0  0  0  0
  8  7  1  0  0  0  0
  8 13  1  0  0  0  0
  8 15  1  0  0  0  0
  9  6  2  0  0  0  0
 10  1  2  0  0  0  0
 10  9  1  0  0  0  0
 14  8  1  0  0  0  0
 16  9  1  0  0  0  0
 17 10  1  0  0  0  0
 18 19  2  0  0  0  0
 18 20  1  0  0  0  0
 21 18  2  0  0  0  0
 22 23  1  0  0  0  0
 22 18  1  0  0  0  0
M  RAD  3   2   2   3   3  20   2
M  END
