Coordinates from ORCA-job 4-MeOPhN2+~HSO4-_B3LYPG-6-31G_dp-NX-Scan-d89-09-n800
 OpenBabel11261921003D

 23 22  0  0  0  0  0  0  0  0999 V2000
   -1.9123   -0.8344   -0.2671 C   0  0  0  0  0  0  0  0  0  0  0  0
   -3.0331   -1.5618   -0.4984 N   0  0  0  0  0  0  0  0  0  0  0  0
   -3.9503   -2.1776   -0.6951 N   0  0  0  0  0  0  0  0  0  0  0  0
   -2.0389    0.5393    0.0691 C   0  0  0  0  0  0  0  0  0  0  0  0
   -0.8758    1.2452    0.2858 C   0  0  0  0  0  0  0  0  0  0  0  0
    0.3814    0.6121    0.1763 C   0  0  0  0  0  0  0  0  0  0  0  0
    1.4396    1.3886    0.4051 O   0  0  0  0  0  0  0  0  0  0  0  0
    2.7659    0.8575    0.3129 C   0  0  0  0  0  0  0  0  0  0  0  0
    0.4798   -0.7672   -0.1595 C   0  0  0  0  0  0  0  0  0  0  0  0
   -0.6637   -1.4972   -0.3839 C   0  0  0  0  0  0  0  0  0  0  0  0
   -3.0178    1.0499    0.1541 H   0  0  0  0  0  0  0  0  0  0  0  0
   -0.9717    2.3023    0.5307 H   0  0  0  0  0  0  0  0  0  0  0  0
    3.4275    1.6918    0.5413 H   0  0  0  0  0  0  0  0  0  0  0  0
    2.9727    0.4918   -0.6982 H   0  0  0  0  0  0  0  0  0  0  0  0
    2.9200    0.0561    1.0432 H   0  0  0  0  0  0  0  0  0  0  0  0
    1.4429   -1.2540   -0.2435 H   0  0  0  0  0  0  0  0  0  0  0  0
   -0.6180   -2.5487   -0.6452 H   0  0  0  0  0  0  0  0  0  0  0  0
   -3.9573    3.5875    0.4762 S   0  0  0  0  0  0  0  0  0  0  0  0
   -4.4279    2.1736    0.3681 O   0  0  0  0  0  0  0  0  0  0  0  0
   -4.7755    4.4721    1.3216 O   0  0  0  0  0  0  0  0  0  0  0  0
   -2.4915    3.6745    0.6936 O   0  0  0  0  0  0  0  0  0  0  0  0
   -4.1987    4.1766   -1.0745 O   0  0  0  0  0  0  0  0  0  0  0  0
   -4.6189    5.0371   -0.9280 H   0  0  0  0  0  0  0  0  0  0  0  0
  1  4  1  0  0  0  0
  2  1  1  0  0  0  0
  3  2  1  0  0  0  0
  4 11  1  0  0  0  0
  4  5  2  0  0  0  0
  5 12  1  0  0  0  0
  6  5  1  0  0  0  0
  6  7  1  0  0  0  0
  8  7  1  0  0  0  0
  8 13  1  0  0  0  0
  8 15  1  0  0  0  0
  9  6  2  0  0  0  0
 10  1  2  0  0  0  0
 10  9  1  0  0  0  0
 14  8  1  0  0  0  0
 16  9  1  0  0  0  0
 17 10  1  0  0  0  0
 18 21  2  0  0  0  0
 18 20  1  0  0  0  0
 19 18  2  0  0  0  0
 22 23  1  0  0  0  0
 22 18  1  0  0  0  0
M  RAD  3   2   2   3   3  20   2
M  END
