Coordinates from ORCA-job 4-MeOPhN2+~HSO4-_B3LYPG-6-31G_dp-NX-Scan-d89-09-n800
 OpenBabel11261921003D

 23 22  0  0  0  0  0  0  0  0999 V2000
   -1.6969    0.2009   -0.6874 C   0  0  0  0  0  0  0  0  0  0  0  0
   -2.9702   -0.1349   -1.0970 N   0  0  0  0  0  0  0  0  0  0  0  0
   -4.0679   -0.0459   -1.3320 N   0  0  0  0  0  0  0  0  0  0  0  0
   -1.4446    1.5447   -0.3357 C   0  0  0  0  0  0  0  0  0  0  0  0
   -0.1710    1.8663    0.0847 C   0  0  0  0  0  0  0  0  0  0  0  0
    0.8376    0.8816    0.1578 C   0  0  0  0  0  0  0  0  0  0  0  0
    2.0363    1.3160    0.5815 O   0  0  0  0  0  0  0  0  0  0  0  0
    3.1198    0.3921    0.6948 C   0  0  0  0  0  0  0  0  0  0  0  0
    0.5594   -0.4532   -0.2004 C   0  0  0  0  0  0  0  0  0  0  0  0
   -0.7148   -0.7955   -0.6245 C   0  0  0  0  0  0  0  0  0  0  0  0
   -2.2435    2.2768   -0.4061 H   0  0  0  0  0  0  0  0  0  0  0  0
    0.0769    2.8816    0.3731 H   0  0  0  0  0  0  0  0  0  0  0  0
    3.9661    0.9755    1.0560 H   0  0  0  0  0  0  0  0  0  0  0  0
    3.3689   -0.0474   -0.2776 H   0  0  0  0  0  0  0  0  0  0  0  0
    2.8893   -0.4016    1.4138 H   0  0  0  0  0  0  0  0  0  0  0  0
    1.3235   -1.2178   -0.1460 H   0  0  0  0  0  0  0  0  0  0  0  0
   -0.9543   -1.8164   -0.9008 H   0  0  0  0  0  0  0  0  0  0  0  0
   -5.0811    2.1931    0.1810 S   0  0  0  0  0  0  0  0  0  0  0  0
   -6.4238    2.7788    0.2394 O   0  0  0  0  0  0  0  0  0  0  0  0
   -4.8717    0.8728    0.8176 O   0  0  0  0  0  0  0  0  0  0  0  0
   -4.4235    2.2283   -1.1750 O   0  0  0  0  0  0  0  0  0  0  0  0
   -4.1259    3.2374    1.0785 O   0  0  0  0  0  0  0  0  0  0  0  0
   -4.7102    3.9816    1.2887 H   0  0  0  0  0  0  0  0  0  0  0  0
  1 10  2  0  0  0  0
  1  4  1  0  0  0  0
  2  1  1  0  0  0  0
  3  2  1  0  0  0  0
  4  5  2  0  0  0  0
  5  6  1  0  0  0  0
  5 12  1  0  0  0  0
  6  7  1  0  0  0  0
  7  8  1  0  0  0  0
  8 13  1  0  0  0  0
  8 15  1  0  0  0  0
  9 16  1  0  0  0  0
  9  6  2  0  0  0  0
 10  9  1  0  0  0  0
 11  4  1  0  0  0  0
 14  8  1  0  0  0  0
 17 10  1  0  0  0  0
 18 19  2  0  0  0  0
 18 20  1  0  0  0  0
 18 22  1  0  0  0  0
 21 18  2  0  0  0  0
 22 23  1  0  0  0  0
M  RAD  3   2   2   3   3  20   2
M  END
