Coordinates from ORCA-job 4-MeOPhN2+~HSO4-_B3LYPG-6-31G_dp-NX-Scan-d89-09-n800
 OpenBabel11261921003D

 23 22  0  0  0  0  0  0  0  0999 V2000
   -1.9064   -0.4036   -0.1148 C   0  0  0  0  0  0  0  0  0  0  0  0
   -3.1453   -0.9073   -0.3784 N   0  0  0  0  0  0  0  0  0  0  0  0
   -4.1305   -1.3819   -0.6161 N   0  0  0  0  0  0  0  0  0  0  0  0
   -1.8048    0.8558    0.5174 C   0  0  0  0  0  0  0  0  0  0  0  0
   -0.5433    1.3608    0.7372 C   0  0  0  0  0  0  0  0  0  0  0  0
    0.5989    0.6282    0.3549 C   0  0  0  0  0  0  0  0  0  0  0  0
    1.7743    1.2065    0.6176 O   0  0  0  0  0  0  0  0  0  0  0  0
    2.9961    0.5589    0.2489 C   0  0  0  0  0  0  0  0  0  0  0  0
    0.4700   -0.6399   -0.2740 C   0  0  0  0  0  0  0  0  0  0  0  0
   -0.7813   -1.1614   -0.5185 C   0  0  0  0  0  0  0  0  0  0  0  0
   -2.7123    1.4042    0.7680 H   0  0  0  0  0  0  0  0  0  0  0  0
   -0.4375    2.3451    1.1782 H   0  0  0  0  0  0  0  0  0  0  0  0
    3.7893    1.2366    0.5620 H   0  0  0  0  0  0  0  0  0  0  0  0
    3.0495    0.4074   -0.8344 H   0  0  0  0  0  0  0  0  0  0  0  0
    3.1065   -0.3984    0.7689 H   0  0  0  0  0  0  0  0  0  0  0  0
    1.3442   -1.2026   -0.5735 H   0  0  0  0  0  0  0  0  0  0  0  0
   -0.9038   -2.1214   -1.0075 H   0  0  0  0  0  0  0  0  0  0  0  0
   -4.3019    3.2780    0.2642 S   0  0  0  0  0  0  0  0  0  0  0  0
   -4.5721    1.8084    0.3245 O   0  0  0  0  0  0  0  0  0  0  0  0
   -5.2551    4.1535    0.9672 O   0  0  0  0  0  0  0  0  0  0  0  0
   -2.8678    3.5774    0.5133 O   0  0  0  0  0  0  0  0  0  0  0  0
   -4.5552    3.6093   -1.3579 O   0  0  0  0  0  0  0  0  0  0  0  0
   -4.9331    4.5015   -1.3622 H   0  0  0  0  0  0  0  0  0  0  0  0
  1  4  2  0  0  0  0
  2  1  1  0  0  0  0
  3  2  1  0  0  0  0
  4  5  1  0  0  0  0
  4 11  1  0  0  0  0
  5 12  1  0  0  0  0
  6  7  1  0  0  0  0
  6  5  2  0  0  0  0
  8 13  1  0  0  0  0
  8  7  1  0  0  0  0
  8 15  1  0  0  0  0
  9  6  1  0  0  0  0
 10  9  2  0  0  0  0
 10  1  1  0  0  0  0
 14  8  1  0  0  0  0
 16  9  1  0  0  0  0
 17 10  1  0  0  0  0
 18 19  2  0  0  0  0
 18 21  2  0  0  0  0
 18 20  1  0  0  0  0
 22 18  1  0  0  0  0
 23 22  1  0  0  0  0
M  RAD  3   2   2   3   3  20   2
M  END
