Coordinates from ORCA-job 4-MeOPhN2+~HSO4-_B3LYPG-6-31G_dp-NX-Scan-d89-09-n800
 OpenBabel11261921003D

 23 22  0  0  0  0  0  0  0  0999 V2000
   -1.7443    0.1680   -0.7298 C   0  0  0  0  0  0  0  0  0  0  0  0
   -2.9910   -0.1655   -1.1974 N   0  0  0  0  0  0  0  0  0  0  0  0
   -3.9071   -0.6019   -1.6657 N   0  0  0  0  0  0  0  0  0  0  0  0
   -1.3842    1.5190   -0.5402 C   0  0  0  0  0  0  0  0  0  0  0  0
   -0.0992    1.7708   -0.1098 C   0  0  0  0  0  0  0  0  0  0  0  0
    0.8062    0.7188    0.1458 C   0  0  0  0  0  0  0  0  0  0  0  0
    2.0200    1.0910    0.5700 O   0  0  0  0  0  0  0  0  0  0  0  0
    3.0007    0.0981    0.8838 C   0  0  0  0  0  0  0  0  0  0  0  0
    0.4147   -0.6266   -0.0462 C   0  0  0  0  0  0  0  0  0  0  0  0
   -0.8629   -0.9063   -0.4896 C   0  0  0  0  0  0  0  0  0  0  0  0
   -2.1102    2.3274   -0.6930 H   0  0  0  0  0  0  0  0  0  0  0  0
    0.2284    2.7899    0.0628 H   0  0  0  0  0  0  0  0  0  0  0  0
    3.8818    0.6507    1.2071 H   0  0  0  0  0  0  0  0  0  0  0  0
    3.2490   -0.5039    0.0027 H   0  0  0  0  0  0  0  0  0  0  0  0
    2.6571   -0.5512    1.6961 H   0  0  0  0  0  0  0  0  0  0  0  0
    1.0973   -1.4428    0.1523 H   0  0  0  0  0  0  0  0  0  0  0  0
   -1.1877   -1.9300   -0.6421 H   0  0  0  0  0  0  0  0  0  0  0  0
   -4.3990    2.9103    0.4786 S   0  0  0  0  0  0  0  0  0  0  0  0
   -4.1529    1.4379    0.4633 O   0  0  0  0  0  0  0  0  0  0  0  0
   -4.6286    3.5252    1.7974 O   0  0  0  0  0  0  0  0  0  0  0  0
   -3.4271    3.6315   -0.3909 O   0  0  0  0  0  0  0  0  0  0  0  0
   -5.8677    3.0320   -0.3033 O   0  0  0  0  0  0  0  0  0  0  0  0
   -6.3149    3.7730    0.1331 H   0  0  0  0  0  0  0  0  0  0  0  0
  1  4  2  0  0  0  0
  1 10  1  0  0  0  0
  2  1  1  0  0  0  0
  3  2  1  0  0  0  0
  4  5  1  0  0  0  0
  5 12  1  0  0  0  0
  5  6  2  0  0  0  0
  6  7  1  0  0  0  0
  7  8  1  0  0  0  0
  8 13  1  0  0  0  0
  8 15  1  0  0  0  0
  9  6  1  0  0  0  0
  9 16  1  0  0  0  0
 10  9  2  0  0  0  0
 11  4  1  0  0  0  0
 14  8  1  0  0  0  0
 17 10  1  0  0  0  0
 18 20  1  0  0  0  0
 19 18  2  0  0  0  0
 21 18  2  0  0  0  0
 22 23  1  0  0  0  0
 22 18  1  0  0  0  0
M  RAD  3   2   2   3   3  20   2
M  END
