Coordinates from ORCA-job 4-MeOPhN2+~HSO4-_B3LYPG-6-31G_dp-NX-Scan-d89-09-n800
 OpenBabel11261921003D

 23 22  0  0  0  0  0  0  0  0999 V2000
   -1.9007   -0.2256   -0.0815 C   0  0  0  0  0  0  0  0  0  0  0  0
   -3.1607   -0.6928   -0.3426 N   0  0  0  0  0  0  0  0  0  0  0  0
   -4.1038   -1.2334   -0.6077 N   0  0  0  0  0  0  0  0  0  0  0  0
   -1.7140    0.9926    0.6049 C   0  0  0  0  0  0  0  0  0  0  0  0
   -0.4192    1.4071    0.8290 C   0  0  0  0  0  0  0  0  0  0  0  0
    0.6739    0.6333    0.3907 C   0  0  0  0  0  0  0  0  0  0  0  0
    1.8850    1.1312    0.6633 O   0  0  0  0  0  0  0  0  0  0  0  0
    3.0598    0.4323    0.2405 C   0  0  0  0  0  0  0  0  0  0  0  0
    0.4611   -0.5888   -0.2973 C   0  0  0  0  0  0  0  0  0  0  0  0
   -0.8246   -1.0225   -0.5392 C   0  0  0  0  0  0  0  0  0  0  0  0
   -2.5710    1.5940    0.8922 H   0  0  0  0  0  0  0  0  0  0  0  0
   -0.2370    2.3535    1.3245 H   0  0  0  0  0  0  0  0  0  0  0  0
    3.8972    1.0448    0.5719 H   0  0  0  0  0  0  0  0  0  0  0  0
    3.0872    0.3328   -0.8500 H   0  0  0  0  0  0  0  0  0  0  0  0
    3.1207   -0.5550    0.7100 H   0  0  0  0  0  0  0  0  0  0  0  0
    1.2940   -1.1873   -0.6420 H   0  0  0  0  0  0  0  0  0  0  0  0
   -1.0109   -1.9505   -1.0686 H   0  0  0  0  0  0  0  0  0  0  0  0
   -4.4361    3.1731    0.2094 S   0  0  0  0  0  0  0  0  0  0  0  0
   -4.5978    1.6863    0.2691 O   0  0  0  0  0  0  0  0  0  0  0  0
   -5.4673    3.9866    0.8777 O   0  0  0  0  0  0  0  0  0  0  0  0
   -3.0355    3.5748    0.5034 O   0  0  0  0  0  0  0  0  0  0  0  0
   -4.6600    3.4736   -1.4212 O   0  0  0  0  0  0  0  0  0  0  0  0
   -5.0620    4.3549   -1.4517 H   0  0  0  0  0  0  0  0  0  0  0  0
  1  4  2  0  0  0  0
  2  1  1  0  0  0  0
  3  2  1  0  0  0  0
  4  5  1  0  0  0  0
  4 11  1  0  0  0  0
  5 12  1  0  0  0  0
  6  7  1  0  0  0  0
  6  5  2  0  0  0  0
  8 13  1  0  0  0  0
  8  7  1  0  0  0  0
  8 15  1  0  0  0  0
  9  6  1  0  0  0  0
 10  9  2  0  0  0  0
 10  1  1  0  0  0  0
 14  8  1  0  0  0  0
 16  9  1  0  0  0  0
 17 10  1  0  0  0  0
 18 19  2  0  0  0  0
 18 21  2  0  0  0  0
 18 20  1  0  0  0  0
 22 18  1  0  0  0  0
 23 22  1  0  0  0  0
M  RAD  3   2   2   3   3  20   2
M  END
