Coordinates from ORCA-job 4-MeOPhN2+~HSO4-_B3LYPG-6-31G_dp-NX-Scan-d89-09-n800
 OpenBabel11261921003D

 23 23  0  0  0  0  0  0  0  0999 V2000
   -1.5340    0.7403   -0.5701 C   0  0  0  0  0  0  0  0  0  0  0  0
   -2.7425    0.6887   -1.2789 N   0  0  0  0  0  0  0  0  0  0  0  0
   -3.8268    1.2081   -1.1113 N   0  0  0  0  0  0  0  0  0  0  0  0
   -1.2378    1.4809    0.6007 C   0  0  0  0  0  0  0  0  0  0  0  0
    0.0247    1.3972    1.1576 C   0  0  0  0  0  0  0  0  0  0  0  0
    1.0217    0.5876    0.5796 C   0  0  0  0  0  0  0  0  0  0  0  0
    2.2143    0.5893    1.2148 O   0  0  0  0  0  0  0  0  0  0  0  0
    3.2742   -0.2067    0.6926 C   0  0  0  0  0  0  0  0  0  0  0  0
    0.7367   -0.1486   -0.5814 C   0  0  0  0  0  0  0  0  0  0  0  0
   -0.5309   -0.0632   -1.1407 C   0  0  0  0  0  0  0  0  0  0  0  0
   -1.9866    2.1079    1.0596 H   0  0  0  0  0  0  0  0  0  0  0  0
    0.2729    1.9546    2.0543 H   0  0  0  0  0  0  0  0  0  0  0  0
    4.1209   -0.0493    1.3610 H   0  0  0  0  0  0  0  0  0  0  0  0
    3.5484    0.1082   -0.3211 H   0  0  0  0  0  0  0  0  0  0  0  0
    3.0083   -1.2706    0.6856 H   0  0  0  0  0  0  0  0  0  0  0  0
    1.4860   -0.7773   -1.0458 H   0  0  0  0  0  0  0  0  0  0  0  0
   -0.7741   -0.6213   -2.0383 H   0  0  0  0  0  0  0  0  0  0  0  0
   -5.4701    2.5359    0.3487 S   0  0  0  0  0  0  0  0  0  0  0  0
   -5.4204    3.7140    1.1806 O   0  0  0  0  0  0  0  0  0  0  0  0
   -3.8983    2.1194    0.0789 O   0  0  0  0  0  0  0  0  0  0  0  0
   -6.2139    1.3421    0.7034 O   0  0  0  0  0  0  0  0  0  0  0  0
   -5.9179    3.0272   -1.1281 O   0  0  0  0  0  0  0  0  0  0  0  0
   -5.8764    2.2510   -1.7170 H   0  0  0  0  0  0  0  0  0  0  0  0
  1  4  2  0  0  0  0
  2  3  1  0  0  0  0
  2  1  1  0  0  0  0
  3 20  1  0  0  0  0
  4 11  1  0  0  0  0
  4  5  1  0  0  0  0
  5 12  1  0  0  0  0
  6  5  2  0  0  0  0
  6  7  1  0  0  0  0
  8  7  1  0  0  0  0
  8 13  1  0  0  0  0
  9  6  1  0  0  0  0
 10  9  2  0  0  0  0
 10  1  1  0  0  0  0
 14  8  1  0  0  0  0
 15  8  1  0  0  0  0
 16  9  1  0  0  0  0
 17 10  1  0  0  0  0
 18 21  2  0  0  0  0
 18 19  2  0  0  0  0
 20 18  1  0  0  0  0
 22 18  1  0  0  0  0
 23 22  1  0  0  0  0
M  RAD  2   2   2   3   2
M  END
