Coordinates from ORCA-job 4-MeOPhN2+~HSO4-_B3LYPG-6-31G_dp-NX-Scan-d89-09-n800
 OpenBabel11261921003D

 23 22  0  0  0  0  0  0  0  0999 V2000
   -1.9029   -0.7857   -0.2598 C   0  0  0  0  0  0  0  0  0  0  0  0
   -3.0443   -1.4832   -0.4865 N   0  0  0  0  0  0  0  0  0  0  0  0
   -3.9835   -2.0657   -0.6776 N   0  0  0  0  0  0  0  0  0  0  0  0
   -2.0022    0.5917    0.0654 C   0  0  0  0  0  0  0  0  0  0  0  0
   -0.8258    1.2757    0.2789 C   0  0  0  0  0  0  0  0  0  0  0  0
    0.4181    0.6162    0.1769 C   0  0  0  0  0  0  0  0  0  0  0  0
    1.4924    1.3723    0.4019 O   0  0  0  0  0  0  0  0  0  0  0  0
    2.8070    0.8120    0.3168 C   0  0  0  0  0  0  0  0  0  0  0  0
    0.4882   -0.7675   -0.1485 C   0  0  0  0  0  0  0  0  0  0  0  0
   -0.6696   -1.4763   -0.3697 C   0  0  0  0  0  0  0  0  0  0  0  0
   -2.9780    1.1104    0.1415 H   0  0  0  0  0  0  0  0  0  0  0  0
   -0.8986    2.3348    0.5162 H   0  0  0  0  0  0  0  0  0  0  0  0
    3.4862    1.6330    0.5420 H   0  0  0  0  0  0  0  0  0  0  0  0
    3.0088    0.4356   -0.6914 H   0  0  0  0  0  0  0  0  0  0  0  0
    2.9419    0.0120    1.0524 H   0  0  0  0  0  0  0  0  0  0  0  0
    1.4414   -1.2742   -0.2269 H   0  0  0  0  0  0  0  0  0  0  0  0
   -0.6450   -2.5303   -0.6233 H   0  0  0  0  0  0  0  0  0  0  0  0
   -4.0111    3.5428    0.4502 S   0  0  0  0  0  0  0  0  0  0  0  0
   -4.4571    2.1239    0.3024 O   0  0  0  0  0  0  0  0  0  0  0  0
   -4.8277    4.3795    1.3440 O   0  0  0  0  0  0  0  0  0  0  0  0
   -2.5430    3.6468    0.6407 O   0  0  0  0  0  0  0  0  0  0  0  0
   -4.2971    4.1797   -1.0726 O   0  0  0  0  0  0  0  0  0  0  0  0
   -4.7198    5.0317   -0.8882 H   0  0  0  0  0  0  0  0  0  0  0  0
  1  4  1  0  0  0  0
  2  1  1  0  0  0  0
  3  2  1  0  0  0  0
  4 11  1  0  0  0  0
  4  5  2  0  0  0  0
  5 12  1  0  0  0  0
  6  5  1  0  0  0  0
  6  7  1  0  0  0  0
  8  7  1  0  0  0  0
  8 13  1  0  0  0  0
  8 15  1  0  0  0  0
  9  6  2  0  0  0  0
 10  1  2  0  0  0  0
 10  9  1  0  0  0  0
 14  8  1  0  0  0  0
 16  9  1  0  0  0  0
 17 10  1  0  0  0  0
 18 21  2  0  0  0  0
 18 20  1  0  0  0  0
 19 18  2  0  0  0  0
 22 23  1  0  0  0  0
 22 18  1  0  0  0  0
M  RAD  3   2   2   3   3  20   2
M  END
