Coordinates from ORCA-job 4-MeOPhN2+~HSO4-_B3LYPG-6-31G_dp-NX-Scan-d89-09-n800
 OpenBabel11261921003D

 23 22  0  0  0  0  0  0  0  0999 V2000
   -1.6750    0.3686   -0.1962 C   0  0  0  0  0  0  0  0  0  0  0  0
   -3.0098    0.0410   -0.3567 N   0  0  0  0  0  0  0  0  0  0  0  0
   -3.9851   -0.5084   -0.4601 N   0  0  0  0  0  0  0  0  0  0  0  0
   -1.2783    1.6832    0.1137 C   0  0  0  0  0  0  0  0  0  0  0  0
    0.0674    1.9260    0.3002 C   0  0  0  0  0  0  0  0  0  0  0  0
    1.0145    0.8886    0.1771 C   0  0  0  0  0  0  0  0  0  0  0  0
    2.2936    1.2453    0.3772 O   0  0  0  0  0  0  0  0  0  0  0  0
    3.3246    0.2623    0.2696 C   0  0  0  0  0  0  0  0  0  0  0  0
    0.5971   -0.4216   -0.1379 C   0  0  0  0  0  0  0  0  0  0  0  0
   -0.7497   -0.6839   -0.3210 C   0  0  0  0  0  0  0  0  0  0  0  0
   -2.0396    2.4541    0.1678 H   0  0  0  0  0  0  0  0  0  0  0  0
    0.4230    2.9215    0.5407 H   0  0  0  0  0  0  0  0  0  0  0  0
    4.2559    0.7914    0.4691 H   0  0  0  0  0  0  0  0  0  0  0  0
    3.3578   -0.1676   -0.7374 H   0  0  0  0  0  0  0  0  0  0  0  0
    3.1910   -0.5342    1.0100 H   0  0  0  0  0  0  0  0  0  0  0  0
    1.3112   -1.2288   -0.2381 H   0  0  0  0  0  0  0  0  0  0  0  0
   -1.0913   -1.6852   -0.5600 H   0  0  0  0  0  0  0  0  0  0  0  0
   -5.2119    2.4237   -0.3532 S   0  0  0  0  0  0  0  0  0  0  0  0
   -6.0951    3.4565   -0.8966 O   0  0  0  0  0  0  0  0  0  0  0  0
   -5.7749    1.0438   -0.3467 O   0  0  0  0  0  0  0  0  0  0  0  0
   -3.8038    2.4296   -0.8396 O   0  0  0  0  0  0  0  0  0  0  0  0
   -4.9966    2.8235    1.2545 O   0  0  0  0  0  0  0  0  0  0  0  0
   -5.8467    3.1858    1.5482 H   0  0  0  0  0  0  0  0  0  0  0  0
  1  4  1  0  0  0  0
  2  1  1  0  0  0  0
  3  2  1  0  0  0  0
  4 11  1  0  0  0  0
  4  5  2  0  0  0  0
  5 12  1  0  0  0  0
  6  5  1  0  0  0  0
  6  7  1  0  0  0  0
  8  7  1  0  0  0  0
  8 13  1  0  0  0  0
  8 15  1  0  0  0  0
  9  6  2  0  0  0  0
 10  1  2  0  0  0  0
 10  9  1  0  0  0  0
 14  8  1  0  0  0  0
 16  9  1  0  0  0  0
 17 10  1  0  0  0  0
 18 20  1  0  0  0  0
 18 22  1  0  0  0  0
 19 18  2  0  0  0  0
 21 18  2  0  0  0  0
 22 23  1  0  0  0  0
M  RAD  3   2   2   3   3  20   2
M  END
