Coordinates from ORCA-job 4-MeOPhN2+~HSO4-_B3LYPG-6-31G_dp-NX-Scan-d89-09-n800
 OpenBabel11261921003D

 23 22  0  0  0  0  0  0  0  0999 V2000
   -1.8866   -0.6548   -0.2165 C   0  0  0  0  0  0  0  0  0  0  0  0
   -3.0801   -1.2662   -0.4358 N   0  0  0  0  0  0  0  0  0  0  0  0
   -4.0703   -1.7582   -0.6164 N   0  0  0  0  0  0  0  0  0  0  0  0
   -1.9118    0.7147    0.1426 C   0  0  0  0  0  0  0  0  0  0  0  0
   -0.7037    1.3416    0.3477 C   0  0  0  0  0  0  0  0  0  0  0  0
    0.5044    0.6264    0.2060 C   0  0  0  0  0  0  0  0  0  0  0  0
    1.6200    1.3239    0.4281 O   0  0  0  0  0  0  0  0  0  0  0  0
    2.9027    0.7005    0.3052 C   0  0  0  0  0  0  0  0  0  0  0  0
    0.5002   -0.7507   -0.1543 C   0  0  0  0  0  0  0  0  0  0  0  0
   -0.6936   -1.4013   -0.3701 C   0  0  0  0  0  0  0  0  0  0  0  0
   -2.8731    1.2474    0.2349 H   0  0  0  0  0  0  0  0  0  0  0  0
   -0.7137    2.3962    0.6046 H   0  0  0  0  0  0  0  0  0  0  0  0
    3.6265    1.4792    0.5415 H   0  0  0  0  0  0  0  0  0  0  0  0
    3.0696    0.3433   -0.7163 H   0  0  0  0  0  0  0  0  0  0  0  0
    3.0083   -0.1262    1.0156 H   0  0  0  0  0  0  0  0  0  0  0  0
    1.4269   -1.2980   -0.2661 H   0  0  0  0  0  0  0  0  0  0  0  0
   -0.7222   -2.4480   -0.6517 H   0  0  0  0  0  0  0  0  0  0  0  0
   -4.1509    3.4234    0.3719 S   0  0  0  0  0  0  0  0  0  0  0  0
   -4.5111    1.9889    0.1515 O   0  0  0  0  0  0  0  0  0  0  0  0
   -5.0143    4.1630    1.3062 O   0  0  0  0  0  0  0  0  0  0  0  0
   -2.6909    3.5976    0.5755 O   0  0  0  0  0  0  0  0  0  0  0  0
   -4.4757    4.1103   -1.1192 O   0  0  0  0  0  0  0  0  0  0  0  0
   -4.8823    4.9620   -0.9002 H   0  0  0  0  0  0  0  0  0  0  0  0
  1  4  1  0  0  0  0
  2  1  1  0  0  0  0
  3  2  1  0  0  0  0
  4 11  1  0  0  0  0
  4  5  2  0  0  0  0
  5 12  1  0  0  0  0
  6  5  1  0  0  0  0
  6  7  1  0  0  0  0
  8  7  1  0  0  0  0
  8 13  1  0  0  0  0
  8 15  1  0  0  0  0
  9  6  2  0  0  0  0
 10  1  2  0  0  0  0
 10  9  1  0  0  0  0
 14  8  1  0  0  0  0
 16  9  1  0  0  0  0
 17 10  1  0  0  0  0
 18 21  2  0  0  0  0
 18 20  1  0  0  0  0
 19 18  2  0  0  0  0
 22 23  1  0  0  0  0
 22 18  1  0  0  0  0
M  RAD  3   2   2   3   3  20   2
M  END
