Coordinates from ORCA-job 4-MeOPhN2+~HSO4-_B3LYPG-6-31G_dp-NX-Scan-d89-09-n800
 OpenBabel11261921003D

 23 22  0  0  0  0  0  0  0  0999 V2000
   -1.7612    0.3209   -0.3097 C   0  0  0  0  0  0  0  0  0  0  0  0
   -3.0384    0.0691   -0.7621 N   0  0  0  0  0  0  0  0  0  0  0  0
   -4.0171   -0.2216   -1.2331 N   0  0  0  0  0  0  0  0  0  0  0  0
   -1.5193    1.3246    0.6507 C   0  0  0  0  0  0  0  0  0  0  0  0
   -0.2136    1.5350    1.0439 C   0  0  0  0  0  0  0  0  0  0  0  0
    0.8406    0.7740    0.4976 C   0  0  0  0  0  0  0  0  0  0  0  0
    2.0672    1.0748    0.9526 O   0  0  0  0  0  0  0  0  0  0  0  0
    3.2005    0.3592    0.4568 C   0  0  0  0  0  0  0  0  0  0  0  0
    0.5756   -0.2284   -0.4605 C   0  0  0  0  0  0  0  0  0  0  0  0
   -0.7276   -0.4572   -0.8648 C   0  0  0  0  0  0  0  0  0  0  0  0
   -2.3683    1.8700    1.0553 H   0  0  0  0  0  0  0  0  0  0  0  0
    0.0273    2.2922    1.7817 H   0  0  0  0  0  0  0  0  0  0  0  0
    4.0626    0.7883    0.9656 H   0  0  0  0  0  0  0  0  0  0  0  0
    3.3110    0.4938   -0.6250 H   0  0  0  0  0  0  0  0  0  0  0  0
    3.1293   -0.7077    0.6946 H   0  0  0  0  0  0  0  0  0  0  0  0
    1.3742   -0.8217   -0.8856 H   0  0  0  0  0  0  0  0  0  0  0  0
   -0.9543   -1.2207   -1.6014 H   0  0  0  0  0  0  0  0  0  0  0  0
   -5.1634    2.2969    0.1989 S   0  0  0  0  0  0  0  0  0  0  0  0
   -6.0947    3.3446    0.6187 O   0  0  0  0  0  0  0  0  0  0  0  0
   -4.3320    1.6529    1.2446 O   0  0  0  0  0  0  0  0  0  0  0  0
   -5.7234    1.2998   -0.7624 O   0  0  0  0  0  0  0  0  0  0  0  0
   -3.9684    3.0909   -0.6877 O   0  0  0  0  0  0  0  0  0  0  0  0
   -4.4281    3.7856   -1.1839 H   0  0  0  0  0  0  0  0  0  0  0  0
  1  4  2  0  0  0  0
  2  1  1  0  0  0  0
  3  2  1  0  0  0  0
  4  5  1  0  0  0  0
  4 11  1  0  0  0  0
  5 12  1  0  0  0  0
  6  7  1  0  0  0  0
  6  5  2  0  0  0  0
  8 15  1  0  0  0  0
  8  7  1  0  0  0  0
  8 13  1  0  0  0  0
  9  6  1  0  0  0  0
 10  9  2  0  0  0  0
 10  1  1  0  0  0  0
 14  8  1  0  0  0  0
 16  9  1  0  0  0  0
 17 10  1  0  0  0  0
 18 19  2  0  0  0  0
 18 20  1  0  0  0  0
 21 18  2  0  0  0  0
 22 18  1  0  0  0  0
 23 22  1  0  0  0  0
M  RAD  3   2   2   3   3  20   2
M  END
