Coordinates from ORCA-job 4-MeOPhN2+~HSO4-_B3LYPG-6-31G_dp-NX-Scan-d89-09-n800
 OpenBabel11261921003D

 23 22  0  0  0  0  0  0  0  0999 V2000
   -1.9015   -0.2811   -0.0952 C   0  0  0  0  0  0  0  0  0  0  0  0
   -3.1533   -0.7625   -0.3588 N   0  0  0  0  0  0  0  0  0  0  0  0
   -4.1066   -1.2881   -0.6177 N   0  0  0  0  0  0  0  0  0  0  0  0
   -1.7412    0.9505    0.5754 C   0  0  0  0  0  0  0  0  0  0  0  0
   -0.4560    1.3920    0.8005 C   0  0  0  0  0  0  0  0  0  0  0  0
    0.6529    0.6303    0.3808 C   0  0  0  0  0  0  0  0  0  0  0  0
    1.8532    1.1528    0.6525 O   0  0  0  0  0  0  0  0  0  0  0  0
    3.0433    0.4692    0.2475 C   0  0  0  0  0  0  0  0  0  0  0  0
    0.4662   -0.6064   -0.2904 C   0  0  0  0  0  0  0  0  0  0  0  0
   -0.8093   -1.0666   -0.5352 C   0  0  0  0  0  0  0  0  0  0  0  0
   -2.6125    1.5376    0.8513 H   0  0  0  0  0  0  0  0  0  0  0  0
   -0.2969    2.3507    1.2801 H   0  0  0  0  0  0  0  0  0  0  0  0
    3.8671    1.1023    0.5745 H   0  0  0  0  0  0  0  0  0  0  0  0
    3.0794    0.3536   -0.8410 H   0  0  0  0  0  0  0  0  0  0  0  0
    3.1194   -0.5094    0.7327 H   0  0  0  0  0  0  0  0  0  0  0  0
    1.3123   -1.1945   -0.6202 H   0  0  0  0  0  0  0  0  0  0  0  0
   -0.9757   -2.0048   -1.0529 H   0  0  0  0  0  0  0  0  0  0  0  0
   -4.3974    3.2115    0.2261 S   0  0  0  0  0  0  0  0  0  0  0  0
   -4.5992    1.7309    0.2975 O   0  0  0  0  0  0  0  0  0  0  0  0
   -5.3883    4.0561    0.9169 O   0  0  0  0  0  0  0  0  0  0  0  0
   -2.9788    3.5758    0.4811 O   0  0  0  0  0  0  0  0  0  0  0  0
   -4.6557    3.5136   -1.3997 O   0  0  0  0  0  0  0  0  0  0  0  0
   -5.0431    4.4016   -1.4210 H   0  0  0  0  0  0  0  0  0  0  0  0
  1  4  2  0  0  0  0
  2  1  1  0  0  0  0
  3  2  1  0  0  0  0
  4  5  1  0  0  0  0
  4 11  1  0  0  0  0
  5 12  1  0  0  0  0
  6  7  1  0  0  0  0
  6  5  2  0  0  0  0
  8 13  1  0  0  0  0
  8  7  1  0  0  0  0
  8 15  1  0  0  0  0
  9  6  1  0  0  0  0
 10  9  2  0  0  0  0
 10  1  1  0  0  0  0
 14  8  1  0  0  0  0
 16  9  1  0  0  0  0
 17 10  1  0  0  0  0
 18 19  2  0  0  0  0
 18 21  2  0  0  0  0
 18 20  1  0  0  0  0
 22 18  1  0  0  0  0
 23 22  1  0  0  0  0
M  RAD  3   2   2   3   3  20   2
M  END
