Coordinates from ORCA-job 4-MeOPhN2+~HSO4-_B3LYPG-6-31G_dp-NX-Scan-d89-09-n800
 OpenBabel11261921003D

 23 22  0  0  0  0  0  0  0  0999 V2000
   -1.6980    0.1925   -0.6704 C   0  0  0  0  0  0  0  0  0  0  0  0
   -2.9721   -0.1432   -1.0739 N   0  0  0  0  0  0  0  0  0  0  0  0
   -4.0727   -0.0970   -1.2955 N   0  0  0  0  0  0  0  0  0  0  0  0
   -1.4498    1.5360   -0.3142 C   0  0  0  0  0  0  0  0  0  0  0  0
   -0.1747    1.8601    0.0997 C   0  0  0  0  0  0  0  0  0  0  0  0
    0.8381    0.8791    0.1624 C   0  0  0  0  0  0  0  0  0  0  0  0
    2.0373    1.3157    0.5817 O   0  0  0  0  0  0  0  0  0  0  0  0
    3.1257    0.3960    0.6827 C   0  0  0  0  0  0  0  0  0  0  0  0
    0.5634   -0.4550   -0.2019 C   0  0  0  0  0  0  0  0  0  0  0  0
   -0.7114   -0.8006   -0.6211 C   0  0  0  0  0  0  0  0  0  0  0  0
   -2.2514    2.2657   -0.3812 H   0  0  0  0  0  0  0  0  0  0  0  0
    0.0710    2.8752    0.3903 H   0  0  0  0  0  0  0  0  0  0  0  0
    3.9714    0.9811    1.0426 H   0  0  0  0  0  0  0  0  0  0  0  0
    3.3710   -0.0361   -0.2939 H   0  0  0  0  0  0  0  0  0  0  0  0
    2.9031   -0.4032    1.3980 H   0  0  0  0  0  0  0  0  0  0  0  0
    1.3310   -1.2166   -0.1566 H   0  0  0  0  0  0  0  0  0  0  0  0
   -0.9475   -1.8209   -0.9026 H   0  0  0  0  0  0  0  0  0  0  0  0
   -5.0804    2.2177    0.1493 S   0  0  0  0  0  0  0  0  0  0  0  0
   -6.4230    2.8046    0.2074 O   0  0  0  0  0  0  0  0  0  0  0  0
   -4.8879    0.8845    0.7749 O   0  0  0  0  0  0  0  0  0  0  0  0
   -4.4050    2.2677   -1.1910 O   0  0  0  0  0  0  0  0  0  0  0  0
   -4.1347    3.2390    1.0845 O   0  0  0  0  0  0  0  0  0  0  0  0
   -4.7250    3.9728    1.3137 H   0  0  0  0  0  0  0  0  0  0  0  0
  1 10  2  0  0  0  0
  1  4  1  0  0  0  0
  2  1  1  0  0  0  0
  3  2  1  0  0  0  0
  4  5  2  0  0  0  0
  5  6  1  0  0  0  0
  5 12  1  0  0  0  0
  6  7  1  0  0  0  0
  7  8  1  0  0  0  0
  8 13  1  0  0  0  0
  8 15  1  0  0  0  0
  9 16  1  0  0  0  0
  9  6  2  0  0  0  0
 10  9  1  0  0  0  0
 11  4  1  0  0  0  0
 14  8  1  0  0  0  0
 17 10  1  0  0  0  0
 18 19  2  0  0  0  0
 18 20  1  0  0  0  0
 18 22  1  0  0  0  0
 21 18  2  0  0  0  0
 22 23  1  0  0  0  0
M  RAD  3   2   2   3   3  20   2
M  END
