Coordinates from ORCA-job 4-MeOPhN2+~HSO4-_B3LYPG-6-31G_dp-NX-Scan-d89-09-n800
 OpenBabel11261921003D

 23 22  0  0  0  0  0  0  0  0999 V2000
   -1.6561    0.2046   -0.5759 C   0  0  0  0  0  0  0  0  0  0  0  0
   -2.9258   -0.0760   -1.0451 N   0  0  0  0  0  0  0  0  0  0  0  0
   -4.0047    0.0941   -1.3487 N   0  0  0  0  0  0  0  0  0  0  0  0
   -1.4127    1.4306    0.0824 C   0  0  0  0  0  0  0  0  0  0  0  0
   -0.1309    1.6662    0.5363 C   0  0  0  0  0  0  0  0  0  0  0  0
    0.8960    0.7178    0.3429 C   0  0  0  0  0  0  0  0  0  0  0  0
    2.1011    1.0663    0.8236 O   0  0  0  0  0  0  0  0  0  0  0  0
    3.2006    0.1645    0.6873 C   0  0  0  0  0  0  0  0  0  0  0  0
    0.6260   -0.5022   -0.3104 C   0  0  0  0  0  0  0  0  0  0  0  0
   -0.6572   -0.7619   -0.7631 C   0  0  0  0  0  0  0  0  0  0  0  0
   -2.2197    2.1422    0.2545 H   0  0  0  0  0  0  0  0  0  0  0  0
    0.1078    2.5866    1.0573 H   0  0  0  0  0  0  0  0  0  0  0  0
    4.0508    0.6668    1.1474 H   0  0  0  0  0  0  0  0  0  0  0  0
    3.4209   -0.0346   -0.3672 H   0  0  0  0  0  0  0  0  0  0  0  0
    3.0066   -0.7782    1.2104 H   0  0  0  0  0  0  0  0  0  0  0  0
    1.4028   -1.2407   -0.4618 H   0  0  0  0  0  0  0  0  0  0  0  0
   -0.8915   -1.6944   -1.2646 H   0  0  0  0  0  0  0  0  0  0  0  0
   -4.9567    2.4390    0.1637 S   0  0  0  0  0  0  0  0  0  0  0  0
   -5.7177    1.2935    0.6634 O   0  0  0  0  0  0  0  0  0  0  0  0
   -3.9322    3.0217    1.0629 O   0  0  0  0  0  0  0  0  0  0  0  0
   -4.3730    2.2010   -1.2176 O   0  0  0  0  0  0  0  0  0  0  0  0
   -6.0606    3.6446   -0.0613 O   0  0  0  0  0  0  0  0  0  0  0  0
   -5.5954    4.4639    0.1686 H   0  0  0  0  0  0  0  0  0  0  0  0
  1  4  1  0  0  0  0
  2  1  1  0  0  0  0
  3  2  1  0  0  0  0
  4 11  1  0  0  0  0
  4  5  2  0  0  0  0
  5 12  1  0  0  0  0
  6  5  1  0  0  0  0
  6  7  1  0  0  0  0
  8  7  1  0  0  0  0
  8 13  1  0  0  0  0
  8 15  1  0  0  0  0
  9  6  2  0  0  0  0
 10  1  2  0  0  0  0
 10  9  1  0  0  0  0
 14  8  1  0  0  0  0
 16  9  1  0  0  0  0
 17 10  1  0  0  0  0
 18 19  2  0  0  0  0
 18 20  1  0  0  0  0
 21 18  2  0  0  0  0
 22 18  1  0  0  0  0
 22 23  1  0  0  0  0
M  RAD  3   2   2   3   3  20   2
M  END
