Coordinates from ORCA-job 4-MeOPhN2+~HSO4-_B3LYPG-6-31G_dp-NX-Scan-d89-09-n800
 OpenBabel11261921003D

 23 22  0  0  0  0  0  0  0  0999 V2000
   -1.4620    0.5993   -0.5929 C   0  0  0  0  0  0  0  0  0  0  0  0
   -2.6970    0.5478   -1.2348 N   0  0  0  0  0  0  0  0  0  0  0  0
   -3.7860    0.9617   -1.2190 N   0  0  0  0  0  0  0  0  0  0  0  0
   -1.2154    1.4073    0.5405 C   0  0  0  0  0  0  0  0  0  0  0  0
    0.0450    1.3862    1.1040 C   0  0  0  0  0  0  0  0  0  0  0  0
    1.0672    0.5788    0.5629 C   0  0  0  0  0  0  0  0  0  0  0  0
    2.2533    0.6449    1.1987 O   0  0  0  0  0  0  0  0  0  0  0  0
    3.3431   -0.1434    0.7233 C   0  0  0  0  0  0  0  0  0  0  0  0
    0.8129   -0.2216   -0.5655 C   0  0  0  0  0  0  0  0  0  0  0  0
   -0.4515   -0.2065   -1.1368 C   0  0  0  0  0  0  0  0  0  0  0  0
   -2.0093    2.0211    0.9443 H   0  0  0  0  0  0  0  0  0  0  0  0
    0.2738    1.9903    1.9750 H   0  0  0  0  0  0  0  0  0  0  0  0
    4.1766    0.0719    1.3916 H   0  0  0  0  0  0  0  0  0  0  0  0
    3.6172    0.1336   -0.3011 H   0  0  0  0  0  0  0  0  0  0  0  0
    3.1078   -1.2133    0.7658 H   0  0  0  0  0  0  0  0  0  0  0  0
    1.5857   -0.8457   -0.9953 H   0  0  0  0  0  0  0  0  0  0  0  0
   -0.6715   -0.8141   -2.0078 H   0  0  0  0  0  0  0  0  0  0  0  0
   -5.4799    2.5618    0.3307 S   0  0  0  0  0  0  0  0  0  0  0  0
   -5.5367    3.5787    1.3683 O   0  0  0  0  0  0  0  0  0  0  0  0
   -3.9814    2.1537    0.1439 O   0  0  0  0  0  0  0  0  0  0  0  0
   -6.3654    1.3998    0.3755 O   0  0  0  0  0  0  0  0  0  0  0  0
   -5.7916    3.2976   -1.1106 O   0  0  0  0  0  0  0  0  0  0  0  0
   -6.5565    2.8252   -1.4757 H   0  0  0  0  0  0  0  0  0  0  0  0
  1  4  1  0  0  0  0
  2  3  2  0  0  0  0
  2  1  1  0  0  0  0
  4 11  1  0  0  0  0
  4  5  2  0  0  0  0
  5 12  1  0  0  0  0
  6  5  1  0  0  0  0
  6  7  1  0  0  0  0
  8 15  1  0  0  0  0
  8  7  1  0  0  0  0
  8 13  1  0  0  0  0
  9  6  2  0  0  0  0
 10  1  2  0  0  0  0
 10  9  1  0  0  0  0
 14  8  1  0  0  0  0
 16  9  1  0  0  0  0
 17 10  1  0  0  0  0
 18 21  2  0  0  0  0
 18 19  1  0  0  0  0
 20 18  2  0  0  0  0
 22 18  1  0  0  0  0
 23 22  1  0  0  0  0
M  RAD  2   3   2  19   2
M  END
