Coordinates from ORCA-job 4-MeOPhN2+~HSO4-_B3LYPG-6-31G_dp-NX-Scan-d89-09-n800
 OpenBabel11261921003D

 23 22  0  0  0  0  0  0  0  0999 V2000
   -1.9569   -1.2358   -0.3312 C   0  0  0  0  0  0  0  0  0  0  0  0
   -2.8964   -2.1740   -0.5927 N   0  0  0  0  0  0  0  0  0  0  0  0
   -3.6204   -3.0050   -0.8240 N   0  0  0  0  0  0  0  0  0  0  0  0
   -2.3047    0.1063    0.0154 C   0  0  0  0  0  0  0  0  0  0  0  0
   -1.2825    0.9941    0.2540 C   0  0  0  0  0  0  0  0  0  0  0  0
    0.0664    0.5706    0.1582 C   0  0  0  0  0  0  0  0  0  0  0  0
    0.9728    1.5057    0.4112 O   0  0  0  0  0  0  0  0  0  0  0  0
    2.3723    1.2118    0.3387 C   0  0  0  0  0  0  0  0  0  0  0  0
    0.3976   -0.7684   -0.1861 C   0  0  0  0  0  0  0  0  0  0  0  0
   -0.6075   -1.6712   -0.4317 C   0  0  0  0  0  0  0  0  0  0  0  0
   -3.3288    0.4676    0.0958 H   0  0  0  0  0  0  0  0  0  0  0  0
   -1.5033    2.0491    0.4919 H   0  0  0  0  0  0  0  0  0  0  0  0
    2.8741    2.1466    0.5831 H   0  0  0  0  0  0  0  0  0  0  0  0
    2.6535    0.8955   -0.6709 H   0  0  0  0  0  0  0  0  0  0  0  0
    2.6490    0.4429    1.0673 H   0  0  0  0  0  0  0  0  0  0  0  0
    1.4286   -1.0904   -0.2609 H   0  0  0  0  0  0  0  0  0  0  0  0
   -0.3861   -2.6985   -0.6997 H   0  0  0  0  0  0  0  0  0  0  0  0
   -3.4141    3.9160    0.5770 S   0  0  0  0  0  0  0  0  0  0  0  0
   -4.0203    2.5669    0.7237 O   0  0  0  0  0  0  0  0  0  0  0  0
   -3.9781    5.0035    1.3999 O   0  0  0  0  0  0  0  0  0  0  0  0
   -1.9231    3.8552    0.5675 O   0  0  0  0  0  0  0  0  0  0  0  0
   -3.8351    4.3461   -0.9895 O   0  0  0  0  0  0  0  0  0  0  0  0
   -4.0787    5.2805   -0.9122 H   0  0  0  0  0  0  0  0  0  0  0  0
  1  4  1  0  0  0  0
  2  1  1  0  0  0  0
  3  2  1  0  0  0  0
  4 11  1  0  0  0  0
  4  5  2  0  0  0  0
  5 12  1  0  0  0  0
  6  5  1  0  0  0  0
  6  7  1  0  0  0  0
  8  7  1  0  0  0  0
  8 13  1  0  0  0  0
  8 15  1  0  0  0  0
  9  6  2  0  0  0  0
 10  1  2  0  0  0  0
 10  9  1  0  0  0  0
 14  8  1  0  0  0  0
 16  9  1  0  0  0  0
 17 10  1  0  0  0  0
 18 19  2  0  0  0  0
 18 20  1  0  0  0  0
 21 18  2  0  0  0  0
 22 23  1  0  0  0  0
 22 18  1  0  0  0  0
M  RAD  3   2   2   3   3  20   2
M  END
