Coordinates from ORCA-job 4-MeOPhN2+~HSO4-_B3LYPG-6-31G_dp-NX-Scan-d89-09-n800
 OpenBabel11261921003D

 23 22  0  0  0  0  0  0  0  0999 V2000
   -1.6711    0.1480   -0.4626 C   0  0  0  0  0  0  0  0  0  0  0  0
   -2.9507   -0.1618   -0.8802 N   0  0  0  0  0  0  0  0  0  0  0  0
   -4.0348   -0.0261   -1.1801 N   0  0  0  0  0  0  0  0  0  0  0  0
   -1.4451    1.3735    0.2002 C   0  0  0  0  0  0  0  0  0  0  0  0
   -0.1553    1.6500    0.6053 C   0  0  0  0  0  0  0  0  0  0  0  0
    0.8949    0.7406    0.3561 C   0  0  0  0  0  0  0  0  0  0  0  0
    2.1068    1.1264    0.7890 O   0  0  0  0  0  0  0  0  0  0  0  0
    3.2309    0.2664    0.5929 C   0  0  0  0  0  0  0  0  0  0  0  0
    0.6405   -0.4822   -0.2990 C   0  0  0  0  0  0  0  0  0  0  0  0
   -0.6507   -0.7844   -0.6997 C   0  0  0  0  0  0  0  0  0  0  0  0
   -2.2869    2.0318    0.4143 H   0  0  0  0  0  0  0  0  0  0  0  0
    0.0754    2.5714    1.1283 H   0  0  0  0  0  0  0  0  0  0  0  0
    4.0821    0.7944    1.0211 H   0  0  0  0  0  0  0  0  0  0  0  0
    3.4104    0.0871   -0.4729 H   0  0  0  0  0  0  0  0  0  0  0  0
    3.0941   -0.6880    1.1126 H   0  0  0  0  0  0  0  0  0  0  0  0
    1.4362   -1.1902   -0.4912 H   0  0  0  0  0  0  0  0  0  0  0  0
   -0.8732   -1.7198   -1.2013 H   0  0  0  0  0  0  0  0  0  0  0  0
   -5.1258    2.3942    0.0120 S   0  0  0  0  0  0  0  0  0  0  0  0
   -6.3445    1.6168    0.2097 O   0  0  0  0  0  0  0  0  0  0  0  0
   -4.1514    2.4254    1.1339 O   0  0  0  0  0  0  0  0  0  0  0  0
   -4.4130    2.0931   -1.2942 O   0  0  0  0  0  0  0  0  0  0  0  0
   -5.6067    3.9657   -0.1715 O   0  0  0  0  0  0  0  0  0  0  0  0
   -4.9838    4.4829    0.3619 H   0  0  0  0  0  0  0  0  0  0  0  0
  1  4  1  0  0  0  0
  2  1  1  0  0  0  0
  3  2  1  0  0  0  0
  4 11  1  0  0  0  0
  4  5  2  0  0  0  0
  5 12  1  0  0  0  0
  6  5  1  0  0  0  0
  6  7  1  0  0  0  0
  8  7  1  0  0  0  0
  8 13  1  0  0  0  0
  8 15  1  0  0  0  0
  9  6  2  0  0  0  0
 10  1  2  0  0  0  0
 10  9  1  0  0  0  0
 14  8  1  0  0  0  0
 16  9  1  0  0  0  0
 17 10  1  0  0  0  0
 18 19  2  0  0  0  0
 18 20  1  0  0  0  0
 21 18  2  0  0  0  0
 22 18  1  0  0  0  0
 22 23  1  0  0  0  0
M  RAD  3   2   2   3   3  20   2
M  END
