Coordinates from ORCA-job 4-MeOPhN2+~HSO4-_B3LYPG-6-31G_dp-NX-Scan-d89-09-n800
 OpenBabel11261921003D

 23 22  0  0  0  0  0  0  0  0999 V2000
   -1.6868    0.3893   -0.3977 C   0  0  0  0  0  0  0  0  0  0  0  0
   -2.9621    0.1641   -0.8752 N   0  0  0  0  0  0  0  0  0  0  0  0
   -3.9035   -0.1397   -1.4097 N   0  0  0  0  0  0  0  0  0  0  0  0
   -1.4065    1.4958    0.4291 C   0  0  0  0  0  0  0  0  0  0  0  0
   -0.1015    1.6821    0.8370 C   0  0  0  0  0  0  0  0  0  0  0  0
    0.9162    0.7895    0.4410 C   0  0  0  0  0  0  0  0  0  0  0  0
    2.1453    1.0728    0.9007 O   0  0  0  0  0  0  0  0  0  0  0  0
    3.2402    0.2195    0.5604 C   0  0  0  0  0  0  0  0  0  0  0  0
    0.6141   -0.3146   -0.3846 C   0  0  0  0  0  0  0  0  0  0  0  0
   -0.6884   -0.5140   -0.8077 C   0  0  0  0  0  0  0  0  0  0  0  0
   -2.2281    2.1343    0.7368 H   0  0  0  0  0  0  0  0  0  0  0  0
    0.1657    2.5167    1.4752 H   0  0  0  0  0  0  0  0  0  0  0  0
    4.1124    0.6544    1.0466 H   0  0  0  0  0  0  0  0  0  0  0  0
    3.4000    0.1946   -0.5233 H   0  0  0  0  0  0  0  0  0  0  0  0
    3.0807   -0.7968    0.9362 H   0  0  0  0  0  0  0  0  0  0  0  0
    1.3843   -1.0080   -0.6963 H   0  0  0  0  0  0  0  0  0  0  0  0
   -0.9415   -1.3537   -1.4461 H   0  0  0  0  0  0  0  0  0  0  0  0
   -5.2419    2.2101    0.2160 S   0  0  0  0  0  0  0  0  0  0  0  0
   -6.3413    2.8614    0.9291 O   0  0  0  0  0  0  0  0  0  0  0  0
   -4.1692    1.5940    1.0397 O   0  0  0  0  0  0  0  0  0  0  0  0
   -5.6573    1.3106   -0.9016 O   0  0  0  0  0  0  0  0  0  0  0  0
   -4.3925    3.4525   -0.5234 O   0  0  0  0  0  0  0  0  0  0  0  0
   -5.0599    4.1003   -0.7975 H   0  0  0  0  0  0  0  0  0  0  0  0
  1  4  1  0  0  0  0
  2  1  1  0  0  0  0
  3  2  1  0  0  0  0
  4 11  1  0  0  0  0
  4  5  2  0  0  0  0
  5 12  1  0  0  0  0
  6  5  1  0  0  0  0
  6  7  1  0  0  0  0
  8  7  1  0  0  0  0
  8 15  1  0  0  0  0
  8 13  1  0  0  0  0
  9  6  2  0  0  0  0
 10  1  2  0  0  0  0
 10  9  1  0  0  0  0
 14  8  1  0  0  0  0
 16  9  1  0  0  0  0
 17 10  1  0  0  0  0
 18 19  2  0  0  0  0
 18 20  1  0  0  0  0
 21 18  2  0  0  0  0
 22 18  1  0  0  0  0
 23 22  1  0  0  0  0
M  RAD  3   2   2   3   3  20   2
M  END
