Coordinates from ORCA-job 4-MeOPhN2+~HSO4-_B3LYPG-6-31G_dp-NX-Scan-d89-09-n800
 OpenBabel11261921003D

 23 22  0  0  0  0  0  0  0  0999 V2000
   -1.9082   -0.8130   -0.2636 C   0  0  0  0  0  0  0  0  0  0  0  0
   -3.0376   -1.5280   -0.4932 N   0  0  0  0  0  0  0  0  0  0  0  0
   -3.9633   -2.1312   -0.6879 N   0  0  0  0  0  0  0  0  0  0  0  0
   -2.0227    0.5627    0.0673 C   0  0  0  0  0  0  0  0  0  0  0  0
   -0.8535    1.2588    0.2823 C   0  0  0  0  0  0  0  0  0  0  0  0
    0.3979    0.6138    0.1764 C   0  0  0  0  0  0  0  0  0  0  0  0
    1.4633    1.3814    0.4032 O   0  0  0  0  0  0  0  0  0  0  0  0
    2.7844    0.8372    0.3145 C   0  0  0  0  0  0  0  0  0  0  0  0
    0.4837   -0.7676   -0.1542 C   0  0  0  0  0  0  0  0  0  0  0  0
   -0.6663   -1.4882   -0.3770 C   0  0  0  0  0  0  0  0  0  0  0  0
   -3.0003    1.0772    0.1484 H   0  0  0  0  0  0  0  0  0  0  0  0
   -0.9388    2.3169    0.5232 H   0  0  0  0  0  0  0  0  0  0  0  0
    3.4539    1.6657    0.5411 H   0  0  0  0  0  0  0  0  0  0  0  0
    2.9891    0.4663   -0.6952 H   0  0  0  0  0  0  0  0  0  0  0  0
    2.9299    0.0367    1.0475 H   0  0  0  0  0  0  0  0  0  0  0  0
    1.4424   -1.2634   -0.2354 H   0  0  0  0  0  0  0  0  0  0  0  0
   -0.6300   -2.5409   -0.6346 H   0  0  0  0  0  0  0  0  0  0  0  0
   -3.9819    3.5681    0.4644 S   0  0  0  0  0  0  0  0  0  0  0  0
   -4.4429    2.1523    0.3372 O   0  0  0  0  0  0  0  0  0  0  0  0
   -4.7986    4.4317    1.3325 O   0  0  0  0  0  0  0  0  0  0  0  0
   -2.5149    3.6606    0.6699 O   0  0  0  0  0  0  0  0  0  0  0  0
   -4.2422    4.1810   -1.0734 O   0  0  0  0  0  0  0  0  0  0  0  0
   -4.6649    5.0370   -0.9088 H   0  0  0  0  0  0  0  0  0  0  0  0
  1  4  1  0  0  0  0
  2  1  1  0  0  0  0
  3  2  1  0  0  0  0
  4 11  1  0  0  0  0
  4  5  2  0  0  0  0
  5 12  1  0  0  0  0
  6  5  1  0  0  0  0
  6  7  1  0  0  0  0
  8  7  1  0  0  0  0
  8 13  1  0  0  0  0
  8 15  1  0  0  0  0
  9  6  2  0  0  0  0
 10  1  2  0  0  0  0
 10  9  1  0  0  0  0
 14  8  1  0  0  0  0
 16  9  1  0  0  0  0
 17 10  1  0  0  0  0
 18 21  2  0  0  0  0
 18 20  1  0  0  0  0
 19 18  2  0  0  0  0
 22 23  1  0  0  0  0
 22 18  1  0  0  0  0
M  RAD  3   2   2   3   3  20   2
M  END
