Coordinates from ORCA-job 4-MeOPhN2+~HSO4-_B3LYPG-6-31G_dp-NX-Scan-d89-09-n800
 OpenBabel11261921003D

 23 22  0  0  0  0  0  0  0  0999 V2000
   -1.9401   -1.0224   -0.3063 C   0  0  0  0  0  0  0  0  0  0  0  0
   -2.9869   -1.8423   -0.5578 N   0  0  0  0  0  0  0  0  0  0  0  0
   -3.8368   -2.5450   -0.7735 N   0  0  0  0  0  0  0  0  0  0  0  0
   -2.1705    0.3343    0.0552 C   0  0  0  0  0  0  0  0  0  0  0  0
   -1.0708    1.1277    0.2920 C   0  0  0  0  0  0  0  0  0  0  0  0
    0.2335    0.5951    0.1765 C   0  0  0  0  0  0  0  0  0  0  0  0
    1.2247    1.4457    0.4272 O   0  0  0  0  0  0  0  0  0  0  0  0
    2.5901    1.0260    0.3312 C   0  0  0  0  0  0  0  0  0  0  0  0
    0.4420   -0.7651   -0.1857 C   0  0  0  0  0  0  0  0  0  0  0  0
   -0.6392   -1.5779   -0.4288 C   0  0  0  0  0  0  0  0  0  0  0  0
   -3.1621    0.7948    0.1537 H   0  0  0  0  0  0  0  0  0  0  0  0
   -1.2415    2.1827    0.5467 H   0  0  0  0  0  0  0  0  0  0  0  0
    3.1803    1.9074    0.5775 H   0  0  0  0  0  0  0  0  0  0  0  0
    2.8282    0.6967   -0.6853 H   0  0  0  0  0  0  0  0  0  0  0  0
    2.8063    0.2267    1.0477 H   0  0  0  0  0  0  0  0  0  0  0  0
    1.4407   -1.1734   -0.2756 H   0  0  0  0  0  0  0  0  0  0  0  0
   -0.5097   -2.6175   -0.7090 H   0  0  0  0  0  0  0  0  0  0  0  0
   -3.6933    3.7503    0.5391 S   0  0  0  0  0  0  0  0  0  0  0  0
   -4.1967    2.3510    0.6250 O   0  0  0  0  0  0  0  0  0  0  0  0
   -4.4238    4.7534    1.3312 O   0  0  0  0  0  0  0  0  0  0  0  0
   -2.2105    3.8297    0.6426 O   0  0  0  0  0  0  0  0  0  0  0  0
   -4.0357    4.1614   -1.0503 O   0  0  0  0  0  0  0  0  0  0  0  0
   -4.3498    5.0758   -0.9887 H   0  0  0  0  0  0  0  0  0  0  0  0
  1  4  1  0  0  0  0
  2  1  1  0  0  0  0
  3  2  1  0  0  0  0
  4 11  1  0  0  0  0
  4  5  2  0  0  0  0
  5 12  1  0  0  0  0
  6  5  1  0  0  0  0
  6  7  1  0  0  0  0
  8  7  1  0  0  0  0
  8 13  1  0  0  0  0
  8 15  1  0  0  0  0
  9  6  2  0  0  0  0
 10  1  2  0  0  0  0
 10  9  1  0  0  0  0
 14  8  1  0  0  0  0
 16  9  1  0  0  0  0
 17 10  1  0  0  0  0
 18 19  2  0  0  0  0
 18 21  2  0  0  0  0
 18 20  1  0  0  0  0
 22 23  1  0  0  0  0
 22 18  1  0  0  0  0
M  RAD  3   2   2   3   3  20   2
M  END
