Coordinates from ORCA-job 4-MeOPhN2+~HSO4-_B3LYPG-6-31G_dp-NX-Scan-d89-09-n800
 OpenBabel11261921003D

 23 22  0  0  0  0  0  0  0  0999 V2000
   -1.6266    0.4865   -0.7185 C   0  0  0  0  0  0  0  0  0  0  0  0
   -2.9171    0.3197   -1.1992 N   0  0  0  0  0  0  0  0  0  0  0  0
   -3.9628    0.7546   -1.3935 N   0  0  0  0  0  0  0  0  0  0  0  0
   -1.1789    1.7440   -0.2581 C   0  0  0  0  0  0  0  0  0  0  0  0
    0.1143    1.8451    0.2109 C   0  0  0  0  0  0  0  0  0  0  0  0
    0.9643    0.7184    0.2346 C   0  0  0  0  0  0  0  0  0  0  0  0
    2.2006    0.9399    0.7170 O   0  0  0  0  0  0  0  0  0  0  0  0
    3.1270   -0.1434    0.7909 C   0  0  0  0  0  0  0  0  0  0  0  0
    0.5039   -0.5284   -0.2295 C   0  0  0  0  0  0  0  0  0  0  0  0
   -0.7933   -0.6391   -0.7081 C   0  0  0  0  0  0  0  0  0  0  0  0
   -1.8532    2.5911   -0.2873 H   0  0  0  0  0  0  0  0  0  0  0  0
    0.5013    2.7892    0.5774 H   0  0  0  0  0  0  0  0  0  0  0  0
    4.0390    0.2775    1.2131 H   0  0  0  0  0  0  0  0  0  0  0  0
    3.3405   -0.5518   -0.2032 H   0  0  0  0  0  0  0  0  0  0  0  0
    2.7550   -0.9393    1.4460 H   0  0  0  0  0  0  0  0  0  0  0  0
    1.1439   -1.4014   -0.2190 H   0  0  0  0  0  0  0  0  0  0  0  0
   -1.1721   -1.5889   -1.0689 H   0  0  0  0  0  0  0  0  0  0  0  0
   -4.7612    2.6042    0.4949 S   0  0  0  0  0  0  0  0  0  0  0  0
   -4.3538    1.4421    1.2816 O   0  0  0  0  0  0  0  0  0  0  0  0
   -4.7320    3.9367    1.0815 O   0  0  0  0  0  0  0  0  0  0  0  0
   -4.0261    2.6506   -0.8614 O   0  0  0  0  0  0  0  0  0  0  0  0
   -6.3257    2.2838    0.0914 O   0  0  0  0  0  0  0  0  0  0  0  0
   -6.7086    3.1242   -0.2078 H   0  0  0  0  0  0  0  0  0  0  0  0
  1 10  2  0  0  0  0
  1  4  1  0  0  0  0
  2  1  1  0  0  0  0
  3  2  2  0  0  0  0
  4  5  2  0  0  0  0
  5  6  1  0  0  0  0
  5 12  1  0  0  0  0
  6  7  1  0  0  0  0
  7  8  1  0  0  0  0
  8 13  1  0  0  0  0
  8 15  1  0  0  0  0
  9 16  1  0  0  0  0
  9  6  2  0  0  0  0
 10  9  1  0  0  0  0
 11  4  1  0  0  0  0
 14  8  1  0  0  0  0
 17 10  1  0  0  0  0
 18 20  2  0  0  0  0
 18 19  1  0  0  0  0
 21 18  2  0  0  0  0
 22 18  1  0  0  0  0
 23 22  1  0  0  0  0
M  RAD  2   3   2  19   2
M  END
