Coordinates from ORCA-job 4-MeOPhN2+~HSO4-_B3LYPG-6-31G_dp-NX-Scan-d89-09-n800
 OpenBabel11261921003D

 23 22  0  0  0  0  0  0  0  0999 V2000
   -1.8850   -0.6704   -0.2267 C   0  0  0  0  0  0  0  0  0  0  0  0
   -3.0733   -1.2925   -0.4424 N   0  0  0  0  0  0  0  0  0  0  0  0
   -4.0609   -1.7912   -0.6194 N   0  0  0  0  0  0  0  0  0  0  0  0
   -1.9180    0.7057    0.1055 C   0  0  0  0  0  0  0  0  0  0  0  0
   -0.7130    1.3391    0.3091 C   0  0  0  0  0  0  0  0  0  0  0  0
    0.4986    0.6251    0.1919 C   0  0  0  0  0  0  0  0  0  0  0  0
    1.6096    1.3305    0.4108 O   0  0  0  0  0  0  0  0  0  0  0  0
    2.8954    0.7090    0.3133 C   0  0  0  0  0  0  0  0  0  0  0  0
    0.5020   -0.7588   -0.1416 C   0  0  0  0  0  0  0  0  0  0  0  0
   -0.6884   -1.4164   -0.3551 C   0  0  0  0  0  0  0  0  0  0  0  0
   -2.8812    1.2395    0.1839 H   0  0  0  0  0  0  0  0  0  0  0  0
   -0.7283    2.3979    0.5487 H   0  0  0  0  0  0  0  0  0  0  0  0
    3.6145    1.4945    0.5412 H   0  0  0  0  0  0  0  0  0  0  0  0
    3.0737    0.3318   -0.6991 H   0  0  0  0  0  0  0  0  0  0  0  0
    2.9962   -0.1030    1.0413 H   0  0  0  0  0  0  0  0  0  0  0  0
    1.4312   -1.3055   -0.2339 H   0  0  0  0  0  0  0  0  0  0  0  0
   -0.7119   -2.4686   -0.6161 H   0  0  0  0  0  0  0  0  0  0  0  0
   -4.1378    3.4343    0.3773 S   0  0  0  0  0  0  0  0  0  0  0  0
   -4.5021    2.0047    0.1313 O   0  0  0  0  0  0  0  0  0  0  0  0
   -4.9862    4.1523    1.3419 O   0  0  0  0  0  0  0  0  0  0  0  0
   -2.6750    3.6044    0.5613 O   0  0  0  0  0  0  0  0  0  0  0  0
   -4.4875    4.1542   -1.0919 O   0  0  0  0  0  0  0  0  0  0  0  0
   -4.8941    4.9987   -0.8466 H   0  0  0  0  0  0  0  0  0  0  0  0
  1  4  1  0  0  0  0
  2  1  1  0  0  0  0
  3  2  1  0  0  0  0
  4 11  1  0  0  0  0
  4  5  2  0  0  0  0
  5 12  1  0  0  0  0
  6  5  1  0  0  0  0
  6  7  1  0  0  0  0
  8  7  1  0  0  0  0
  8 13  1  0  0  0  0
  8 15  1  0  0  0  0
  9  6  2  0  0  0  0
 10  1  2  0  0  0  0
 10  9  1  0  0  0  0
 14  8  1  0  0  0  0
 16  9  1  0  0  0  0
 17 10  1  0  0  0  0
 18 21  2  0  0  0  0
 18 20  1  0  0  0  0
 19 18  2  0  0  0  0
 22 23  1  0  0  0  0
 22 18  1  0  0  0  0
M  RAD  3   2   2   3   3  20   2
M  END
