Coordinates from ORCA-job 4-MeOPhN2+~HSO4-_B3LYPG-6-31G_dp-NX-Scan-d89-09-n800
 OpenBabel11261921003D

 23 22  0  0  0  0  0  0  0  0999 V2000
   -1.7070    0.3855   -0.6065 C   0  0  0  0  0  0  0  0  0  0  0  0
   -2.9636    0.1208   -1.0968 N   0  0  0  0  0  0  0  0  0  0  0  0
   -3.9754   -0.1085   -1.5211 N   0  0  0  0  0  0  0  0  0  0  0  0
   -1.4296    1.6329   -0.0071 C   0  0  0  0  0  0  0  0  0  0  0  0
   -0.1443    1.8571    0.4393 C   0  0  0  0  0  0  0  0  0  0  0  0
    0.8527    0.8663    0.3097 C   0  0  0  0  0  0  0  0  0  0  0  0
    2.0617    1.1996    0.7875 O   0  0  0  0  0  0  0  0  0  0  0  0
    3.1343    0.2581    0.7124 C   0  0  0  0  0  0  0  0  0  0  0  0
    0.5520   -0.3742   -0.2899 C   0  0  0  0  0  0  0  0  0  0  0  0
   -0.7306   -0.6135   -0.7537 C   0  0  0  0  0  0  0  0  0  0  0  0
   -2.2160    2.3721    0.1034 H   0  0  0  0  0  0  0  0  0  0  0  0
    0.1219    2.7963    0.9104 H   0  0  0  0  0  0  0  0  0  0  0  0
    3.9937    0.7571    1.1588 H   0  0  0  0  0  0  0  0  0  0  0  0
    3.3616   -0.0004   -0.3274 H   0  0  0  0  0  0  0  0  0  0  0  0
    2.9035   -0.6499    1.2799 H   0  0  0  0  0  0  0  0  0  0  0  0
    1.3056   -1.1440   -0.3949 H   0  0  0  0  0  0  0  0  0  0  0  0
   -0.9847   -1.5594   -1.2192 H   0  0  0  0  0  0  0  0  0  0  0  0
   -5.1227    2.0562    0.3013 S   0  0  0  0  0  0  0  0  0  0  0  0
   -6.2929    2.4440    1.0879 O   0  0  0  0  0  0  0  0  0  0  0  0
   -4.1670    1.1036    0.9089 O   0  0  0  0  0  0  0  0  0  0  0  0
   -5.4031    1.7202   -1.1284 O   0  0  0  0  0  0  0  0  0  0  0  0
   -4.1507    3.4368    0.2188 O   0  0  0  0  0  0  0  0  0  0  0  0
   -4.7207    4.1584   -0.0886 H   0  0  0  0  0  0  0  0  0  0  0  0
  1  4  1  0  0  0  0
  2  1  1  0  0  0  0
  3  2  1  0  0  0  0
  4 11  1  0  0  0  0
  4  5  2  0  0  0  0
  5 12  1  0  0  0  0
  6  5  1  0  0  0  0
  6  7  1  0  0  0  0
  8  7  1  0  0  0  0
  8 13  1  0  0  0  0
  8 15  1  0  0  0  0
  9  6  2  0  0  0  0
 10  1  2  0  0  0  0
 10  9  1  0  0  0  0
 14  8  1  0  0  0  0
 16  9  1  0  0  0  0
 17 10  1  0  0  0  0
 18 20  2  0  0  0  0
 18 19  1  0  0  0  0
 21 18  2  0  0  0  0
 22 18  1  0  0  0  0
 23 22  1  0  0  0  0
M  RAD  3   2   2   3   3  19   2
M  END
