Coordinates from ORCA-job 4-MeOPhN2+~HSO4-_B3LYPG-6-31G_dp-NX-Scan-d89-09-n800
 OpenBabel11261921003D

 23 23  0  0  0  0  0  0  0  0999 V2000
   -1.5597    0.7667   -0.5589 C   0  0  0  0  0  0  0  0  0  0  0  0
   -2.7597    0.7195   -1.2946 N   0  0  0  0  0  0  0  0  0  0  0  0
   -3.8386    1.2741   -1.0518 N   0  0  0  0  0  0  0  0  0  0  0  0
   -1.2566    1.4715    0.6330 C   0  0  0  0  0  0  0  0  0  0  0  0
    0.0071    1.3734    1.1883 C   0  0  0  0  0  0  0  0  0  0  0  0
    1.0045    0.5823    0.5892 C   0  0  0  0  0  0  0  0  0  0  0  0
    2.1999    0.5676    1.2241 O   0  0  0  0  0  0  0  0  0  0  0  0
    3.2585   -0.2089    0.6735 C   0  0  0  0  0  0  0  0  0  0  0  0
    0.7179   -0.1206   -0.5909 C   0  0  0  0  0  0  0  0  0  0  0  0
   -0.5506   -0.0185   -1.1463 C   0  0  0  0  0  0  0  0  0  0  0  0
   -1.9964    2.0888    1.1183 H   0  0  0  0  0  0  0  0  0  0  0  0
    0.2542    1.9063    2.1001 H   0  0  0  0  0  0  0  0  0  0  0  0
    4.1092   -0.0686    1.3411 H   0  0  0  0  0  0  0  0  0  0  0  0
    3.5264    0.1355   -0.3325 H   0  0  0  0  0  0  0  0  0  0  0  0
    2.9970   -1.2733    0.6362 H   0  0  0  0  0  0  0  0  0  0  0  0
    1.4663   -0.7363   -1.0740 H   0  0  0  0  0  0  0  0  0  0  0  0
   -0.7940   -0.5505   -2.0597 H   0  0  0  0  0  0  0  0  0  0  0  0
   -5.4935    2.5519    0.3362 S   0  0  0  0  0  0  0  0  0  0  0  0
   -5.3733    3.7999    1.0467 O   0  0  0  0  0  0  0  0  0  0  0  0
   -3.8889    2.0525    0.0507 O   0  0  0  0  0  0  0  0  0  0  0  0
   -6.2151    1.4090    0.8535 O   0  0  0  0  0  0  0  0  0  0  0  0
   -5.9346    2.8705   -1.1760 O   0  0  0  0  0  0  0  0  0  0  0  0
   -5.6017    2.1225   -1.7214 H   0  0  0  0  0  0  0  0  0  0  0  0
  1  4  2  0  0  0  0
  2  3  2  0  0  0  0
  2  1  1  0  0  0  0
  3 20  1  0  0  0  0
  4 11  1  0  0  0  0
  4  5  1  0  0  0  0
  5 12  1  0  0  0  0
  6  5  2  0  0  0  0
  6  7  1  0  0  0  0
  8  7  1  0  0  0  0
  8 13  1  0  0  0  0
  9  6  1  0  0  0  0
 10  9  2  0  0  0  0
 10  1  1  0  0  0  0
 14  8  1  0  0  0  0
 15  8  1  0  0  0  0
 16  9  1  0  0  0  0
 17 10  1  0  0  0  0
 18 21  2  0  0  0  0
 18 19  2  0  0  0  0
 20 18  1  0  0  0  0
 22 18  1  0  0  0  0
 23 22  1  0  0  0  0
M  END
