Coordinates from ORCA-job 4-MeOPhN2+~HSO4-_B3LYPG-6-31G_dp-NX-Scan-d89-09-n800
 OpenBabel11261921003D

 23 23  0  0  0  0  0  0  0  0999 V2000
   -1.5478    0.7530   -0.5636 C   0  0  0  0  0  0  0  0  0  0  0  0
   -2.7521    0.7002   -1.2850 N   0  0  0  0  0  0  0  0  0  0  0  0
   -3.8351    1.2360   -1.0823 N   0  0  0  0  0  0  0  0  0  0  0  0
   -1.2457    1.4818    0.6138 C   0  0  0  0  0  0  0  0  0  0  0  0
    0.0181    1.3926    1.1685 C   0  0  0  0  0  0  0  0  0  0  0  0
    1.0136    0.5878    0.5829 C   0  0  0  0  0  0  0  0  0  0  0  0
    2.2083    0.5833    1.2166 O   0  0  0  0  0  0  0  0  0  0  0  0
    3.2659   -0.2075    0.6835 C   0  0  0  0  0  0  0  0  0  0  0  0
    0.7256   -0.1378   -0.5835 C   0  0  0  0  0  0  0  0  0  0  0  0
   -0.5430   -0.0452   -1.1398 C   0  0  0  0  0  0  0  0  0  0  0  0
   -1.9885    2.1075    1.0836 H   0  0  0  0  0  0  0  0  0  0  0  0
    0.2675    1.9424    2.0695 H   0  0  0  0  0  0  0  0  0  0  0  0
    4.1154   -0.0564    1.3501 H   0  0  0  0  0  0  0  0  0  0  0  0
    3.5367    0.1163   -0.3284 H   0  0  0  0  0  0  0  0  0  0  0  0
    3.0005   -1.2715    0.6673 H   0  0  0  0  0  0  0  0  0  0  0  0
    1.4732   -0.7634   -1.0550 H   0  0  0  0  0  0  0  0  0  0  0  0
   -0.7881   -0.5946   -2.0423 H   0  0  0  0  0  0  0  0  0  0  0  0
   -5.4783    2.5352    0.3445 S   0  0  0  0  0  0  0  0  0  0  0  0
   -5.3973    3.7371    1.1370 O   0  0  0  0  0  0  0  0  0  0  0  0
   -3.8922    2.0846    0.0682 O   0  0  0  0  0  0  0  0  0  0  0  0
   -6.2164    1.3581    0.7553 O   0  0  0  0  0  0  0  0  0  0  0  0
   -5.9163    2.9711   -1.1465 O   0  0  0  0  0  0  0  0  0  0  0  0
   -5.7457    2.2047   -1.7295 H   0  0  0  0  0  0  0  0  0  0  0  0
  1  4  2  0  0  0  0
  2  3  2  0  0  0  0
  2  1  1  0  0  0  0
  3 20  1  0  0  0  0
  4 11  1  0  0  0  0
  4  5  1  0  0  0  0
  5 12  1  0  0  0  0
  6  5  2  0  0  0  0
  6  7  1  0  0  0  0
  8  7  1  0  0  0  0
  8 13  1  0  0  0  0
  9  6  1  0  0  0  0
 10  9  2  0  0  0  0
 10  1  1  0  0  0  0
 14  8  1  0  0  0  0
 15  8  1  0  0  0  0
 16  9  1  0  0  0  0
 17 10  1  0  0  0  0
 18 21  2  0  0  0  0
 18 19  2  0  0  0  0
 20 18  1  0  0  0  0
 22 18  1  0  0  0  0
 23 22  1  0  0  0  0
M  END
