Coordinates from ORCA-job 4-MeOPhN2+~HSO4-_B3LYPG-6-31G_dp-NX-Scan-d89-09-n800
 OpenBabel11261921003D

 23 22  0  0  0  0  0  0  0  0999 V2000
   -1.8144   -0.0180   -0.1568 C   0  0  0  0  0  0  0  0  0  0  0  0
   -3.0899   -0.4715   -0.4653 N   0  0  0  0  0  0  0  0  0  0  0  0
   -4.2299   -0.2989   -0.4306 N   0  0  0  0  0  0  0  0  0  0  0  0
   -1.6020    1.1638    0.5860 C   0  0  0  0  0  0  0  0  0  0  0  0
   -0.3025    1.5459    0.8495 C   0  0  0  0  0  0  0  0  0  0  0  0
    0.7864    0.7781    0.3850 C   0  0  0  0  0  0  0  0  0  0  0  0
    2.0050    1.2544    0.7020 O   0  0  0  0  0  0  0  0  0  0  0  0
    3.1656    0.5487    0.2637 C   0  0  0  0  0  0  0  0  0  0  0  0
    0.5609   -0.3987   -0.3533 C   0  0  0  0  0  0  0  0  0  0  0  0
   -0.7420   -0.7931   -0.6191 C   0  0  0  0  0  0  0  0  0  0  0  0
   -2.4453    1.7448    0.9346 H   0  0  0  0  0  0  0  0  0  0  0  0
   -0.0925    2.4490    1.4115 H   0  0  0  0  0  0  0  0  0  0  0  0
    4.0155    1.1218    0.6329 H   0  0  0  0  0  0  0  0  0  0  0  0
    3.2078    0.4958   -0.8303 H   0  0  0  0  0  0  0  0  0  0  0  0
    3.1975   -0.4623    0.6846 H   0  0  0  0  0  0  0  0  0  0  0  0
    1.3846   -0.9987   -0.7168 H   0  0  0  0  0  0  0  0  0  0  0  0
   -0.9430   -1.6955   -1.1861 H   0  0  0  0  0  0  0  0  0  0  0  0
   -4.8841    2.4648   -0.4423 S   0  0  0  0  0  0  0  0  0  0  0  0
   -6.2797    2.8965   -0.4754 O   0  0  0  0  0  0  0  0  0  0  0  0
   -4.6561    1.2686    0.5184 O   0  0  0  0  0  0  0  0  0  0  0  0
   -4.1437    2.2667   -1.6858 O   0  0  0  0  0  0  0  0  0  0  0  0
   -4.0674    3.6630    0.3685 O   0  0  0  0  0  0  0  0  0  0  0  0
   -4.7524    4.1900    0.8099 H   0  0  0  0  0  0  0  0  0  0  0  0
  1  4  2  0  0  0  0
  2  3  2  0  0  0  0
  2  1  1  0  0  0  0
  4  5  1  0  0  0  0
  4 11  1  0  0  0  0
  5 12  1  0  0  0  0
  6  7  1  0  0  0  0
  6  5  2  0  0  0  0
  8 13  1  0  0  0  0
  8 15  1  0  0  0  0
  8  7  1  0  0  0  0
  9  6  1  0  0  0  0
 10  9  2  0  0  0  0
 10  1  1  0  0  0  0
 14  8  1  0  0  0  0
 16  9  1  0  0  0  0
 17 10  1  0  0  0  0
 18 22  1  0  0  0  0
 18 20  1  0  0  0  0
 19 18  2  0  0  0  0
 21 18  2  0  0  0  0
 22 23  1  0  0  0  0
M  RAD  2   3   2  20   2
M  END
