Coordinates from ORCA-job 4-MeOPhN2+~HSO4-_B3LYPG-6-31G_dp-NX-Scan-d89-09-n800
 OpenBabel11261921003D

 23 22  0  0  0  0  0  0  0  0999 V2000
   -1.9053   -0.7975   -0.2613 C   0  0  0  0  0  0  0  0  0  0  0  0
   -3.0410   -1.5036   -0.4895 N   0  0  0  0  0  0  0  0  0  0  0  0
   -3.9739   -2.0961   -0.6823 N   0  0  0  0  0  0  0  0  0  0  0  0
   -2.0112    0.5797    0.0663 C   0  0  0  0  0  0  0  0  0  0  0  0
   -0.8374    1.2686    0.2803 C   0  0  0  0  0  0  0  0  0  0  0  0
    0.4095    0.6150    0.1766 C   0  0  0  0  0  0  0  0  0  0  0  0
    1.4802    1.3760    0.4023 O   0  0  0  0  0  0  0  0  0  0  0  0
    2.7976    0.8224    0.3156 C   0  0  0  0  0  0  0  0  0  0  0  0
    0.4863   -0.7676   -0.1507 C   0  0  0  0  0  0  0  0  0  0  0  0
   -0.6682   -1.4814   -0.3725 C   0  0  0  0  0  0  0  0  0  0  0  0
   -2.9879    1.0972    0.1444 H   0  0  0  0  0  0  0  0  0  0  0  0
   -0.9151    2.3272    0.5191 H   0  0  0  0  0  0  0  0  0  0  0  0
    3.4727    1.6466    0.5413 H   0  0  0  0  0  0  0  0  0  0  0  0
    3.0005    0.4483   -0.6932 H   0  0  0  0  0  0  0  0  0  0  0  0
    2.9369    0.0223    1.0502 H   0  0  0  0  0  0  0  0  0  0  0  0
    1.4418   -1.2697   -0.2303 H   0  0  0  0  0  0  0  0  0  0  0  0
   -0.6385   -2.5349   -0.6277 H   0  0  0  0  0  0  0  0  0  0  0  0
   -3.9990    3.5542    0.4562 S   0  0  0  0  0  0  0  0  0  0  0  0
   -4.4511    2.1362    0.3161 O   0  0  0  0  0  0  0  0  0  0  0  0
   -4.8162    4.4022    1.3394 O   0  0  0  0  0  0  0  0  0  0  0  0
   -2.5316    3.6532    0.6537 O   0  0  0  0  0  0  0  0  0  0  0  0
   -4.2737    4.1818   -1.0728 O   0  0  0  0  0  0  0  0  0  0  0  0
   -4.6970    5.0351   -0.8965 H   0  0  0  0  0  0  0  0  0  0  0  0
  1  4  1  0  0  0  0
  2  1  1  0  0  0  0
  3  2  1  0  0  0  0
  4 11  1  0  0  0  0
  4  5  2  0  0  0  0
  5 12  1  0  0  0  0
  6  5  1  0  0  0  0
  6  7  1  0  0  0  0
  8  7  1  0  0  0  0
  8 13  1  0  0  0  0
  8 15  1  0  0  0  0
  9  6  2  0  0  0  0
 10  1  2  0  0  0  0
 10  9  1  0  0  0  0
 14  8  1  0  0  0  0
 16  9  1  0  0  0  0
 17 10  1  0  0  0  0
 18 21  2  0  0  0  0
 18 20  1  0  0  0  0
 19 18  2  0  0  0  0
 22 23  1  0  0  0  0
 22 18  1  0  0  0  0
M  RAD  3   2   2   3   3  20   2
M  END
