Coordinates from ORCA-job 4-MeOPhN2+~HSO4-_B3LYPG-6-31G_dp-NX-Scan-d89-09-n800
 OpenBabel11261921003D

 23 22  0  0  0  0  0  0  0  0999 V2000
   -1.9418   -1.0360   -0.3084 C   0  0  0  0  0  0  0  0  0  0  0  0
   -2.9825   -1.8631   -0.5612 N   0  0  0  0  0  0  0  0  0  0  0  0
   -3.8273   -2.5718   -0.7779 N   0  0  0  0  0  0  0  0  0  0  0  0
   -2.1799    0.3194    0.0534 C   0  0  0  0  0  0  0  0  0  0  0  0
   -1.0850    1.1189    0.2911 C   0  0  0  0  0  0  0  0  0  0  0  0
    0.2224    0.5937    0.1763 C   0  0  0  0  0  0  0  0  0  0  0  0
    1.2084    1.4498    0.4280 O   0  0  0  0  0  0  0  0  0  0  0  0
    2.5764    1.0384    0.3324 C   0  0  0  0  0  0  0  0  0  0  0  0
    0.4390   -0.7653   -0.1860 C   0  0  0  0  0  0  0  0  0  0  0  0
   -0.6375   -1.5839   -0.4299 C   0  0  0  0  0  0  0  0  0  0  0  0
   -3.1728    0.7757    0.1510 H   0  0  0  0  0  0  0  0  0  0  0  0
   -1.2594    2.1739    0.5458 H   0  0  0  0  0  0  0  0  0  0  0  0
    3.1610    1.9233    0.5790 H   0  0  0  0  0  0  0  0  0  0  0  0
    2.8167    0.7106   -0.6840 H   0  0  0  0  0  0  0  0  0  0  0  0
    2.7970    0.2403    1.0490 H   0  0  0  0  0  0  0  0  0  0  0  0
    1.4401   -1.1679   -0.2753 H   0  0  0  0  0  0  0  0  0  0  0  0
   -0.5020   -2.6226   -0.7102 H   0  0  0  0  0  0  0  0  0  0  0  0
   -3.6727    3.7607    0.5410 S   0  0  0  0  0  0  0  0  0  0  0  0
   -4.1766    2.3623    0.6338 O   0  0  0  0  0  0  0  0  0  0  0  0
   -4.3957    4.7671    1.3360 O   0  0  0  0  0  0  0  0  0  0  0  0
   -2.1890    3.8385    0.6336 O   0  0  0  0  0  0  0  0  0  0  0  0
   -4.0265    4.1683   -1.0467 O   0  0  0  0  0  0  0  0  0  0  0  0
   -4.3341    5.0850   -0.9860 H   0  0  0  0  0  0  0  0  0  0  0  0
  1  4  1  0  0  0  0
  2  1  1  0  0  0  0
  3  2  1  0  0  0  0
  4 11  1  0  0  0  0
  4  5  2  0  0  0  0
  5 12  1  0  0  0  0
  6  5  1  0  0  0  0
  6  7  1  0  0  0  0
  8  7  1  0  0  0  0
  8 13  1  0  0  0  0
  8 15  1  0  0  0  0
  9  6  2  0  0  0  0
 10  1  2  0  0  0  0
 10  9  1  0  0  0  0
 14  8  1  0  0  0  0
 16  9  1  0  0  0  0
 17 10  1  0  0  0  0
 18 21  2  0  0  0  0
 18 19  2  0  0  0  0
 18 20  1  0  0  0  0
 22 23  1  0  0  0  0
 22 18  1  0  0  0  0
M  RAD  3   2   2   3   3  20   2
M  END
