Coordinates from ORCA-job 4-MeOPhN2+~HSO4-_B3LYPG-6-31G_dp-NX-Scan-d89-09-n800
 OpenBabel11261921003D

 23 22  0  0  0  0  0  0  0  0999 V2000
   -1.7009    0.1950   -0.6785 C   0  0  0  0  0  0  0  0  0  0  0  0
   -2.9730   -0.1415   -1.0863 N   0  0  0  0  0  0  0  0  0  0  0  0
   -4.0729   -0.0971   -1.3127 N   0  0  0  0  0  0  0  0  0  0  0  0
   -1.4537    1.5385   -0.3215 C   0  0  0  0  0  0  0  0  0  0  0  0
   -0.1800    1.8624    0.0967 C   0  0  0  0  0  0  0  0  0  0  0  0
    0.8325    0.8813    0.1626 C   0  0  0  0  0  0  0  0  0  0  0  0
    2.0304    1.3178    0.5857 O   0  0  0  0  0  0  0  0  0  0  0  0
    3.1184    0.3981    0.6904 C   0  0  0  0  0  0  0  0  0  0  0  0
    0.5589   -0.4529   -0.2024 C   0  0  0  0  0  0  0  0  0  0  0  0
   -0.7145   -0.7983   -0.6256 C   0  0  0  0  0  0  0  0  0  0  0  0
   -2.2545    2.2688   -0.3896 H   0  0  0  0  0  0  0  0  0  0  0  0
    0.0646    2.8774    0.3887 H   0  0  0  0  0  0  0  0  0  0  0  0
    3.9630    0.9833    1.0526 H   0  0  0  0  0  0  0  0  0  0  0  0
    3.3667   -0.0344   -0.2853 H   0  0  0  0  0  0  0  0  0  0  0  0
    2.8935   -0.4008    1.4053 H   0  0  0  0  0  0  0  0  0  0  0  0
    1.3263   -1.2146   -0.1544 H   0  0  0  0  0  0  0  0  0  0  0  0
   -0.9500   -1.8186   -0.9076 H   0  0  0  0  0  0  0  0  0  0  0  0
   -5.0722    2.2089    0.1599 S   0  0  0  0  0  0  0  0  0  0  0  0
   -6.4127    2.7984    0.2372 O   0  0  0  0  0  0  0  0  0  0  0  0
   -4.8690    0.8807    0.7901 O   0  0  0  0  0  0  0  0  0  0  0  0
   -4.4207    2.2515   -1.1932 O   0  0  0  0  0  0  0  0  0  0  0  0
   -4.1081    3.2377    1.0692 O   0  0  0  0  0  0  0  0  0  0  0  0
   -4.6938    3.9735    1.3037 H   0  0  0  0  0  0  0  0  0  0  0  0
  1 10  2  0  0  0  0
  1  4  1  0  0  0  0
  2  1  1  0  0  0  0
  3  2  1  0  0  0  0
  4  5  2  0  0  0  0
  5  6  1  0  0  0  0
  5 12  1  0  0  0  0
  6  7  1  0  0  0  0
  7  8  1  0  0  0  0
  8 13  1  0  0  0  0
  8 15  1  0  0  0  0
  9 16  1  0  0  0  0
  9  6  2  0  0  0  0
 10  9  1  0  0  0  0
 11  4  1  0  0  0  0
 14  8  1  0  0  0  0
 17 10  1  0  0  0  0
 18 19  2  0  0  0  0
 18 20  1  0  0  0  0
 18 22  1  0  0  0  0
 21 18  2  0  0  0  0
 22 23  1  0  0  0  0
M  RAD  3   2   2   3   3  20   2
M  END
