Coordinates from ORCA-job 4-MeOPhN2+~HSO4-_B3LYPG-6-31G_dp-NX-Scan-d89-09-n800
 OpenBabel11261921003D

 23 22  0  0  0  0  0  0  0  0999 V2000
   -1.5090    0.7826   -0.6020 C   0  0  0  0  0  0  0  0  0  0  0  0
   -2.6975    0.8179   -1.3664 N   0  0  0  0  0  0  0  0  0  0  0  0
   -3.7379    1.4469   -0.8696 N   0  0  0  0  0  0  0  0  0  0  0  0
   -1.2571    1.3104    0.6864 C   0  0  0  0  0  0  0  0  0  0  0  0
   -0.0061    1.1637    1.2727 C   0  0  0  0  0  0  0  0  0  0  0  0
    1.0313    0.4962    0.6082 C   0  0  0  0  0  0  0  0  0  0  0  0
    2.2153    0.4162    1.2795 O   0  0  0  0  0  0  0  0  0  0  0  0
    3.3012   -0.2468    0.6501 C   0  0  0  0  0  0  0  0  0  0  0  0
    0.7977   -0.0336   -0.6682 C   0  0  0  0  0  0  0  0  0  0  0  0
   -0.4562    0.1138   -1.2513 C   0  0  0  0  0  0  0  0  0  0  0  0
   -2.0228    1.8326    1.2419 H   0  0  0  0  0  0  0  0  0  0  0  0
    0.1901    1.5656    2.2611 H   0  0  0  0  0  0  0  0  0  0  0  0
    4.1373   -0.1857    1.3488 H   0  0  0  0  0  0  0  0  0  0  0  0
    3.5824    0.2409   -0.2919 H   0  0  0  0  0  0  0  0  0  0  0  0
    3.0721   -1.3019    0.4526 H   0  0  0  0  0  0  0  0  0  0  0  0
    1.5771   -0.5559   -1.2102 H   0  0  0  0  0  0  0  0  0  0  0  0
   -0.6492   -0.2915   -2.2390 H   0  0  0  0  0  0  0  0  0  0  0  0
   -6.1918    2.9565    0.2839 S   0  0  0  0  0  0  0  0  0  0  0  0
   -5.7265    4.3289    0.3707 O   0  0  0  0  0  0  0  0  0  0  0  0
   -3.8915    1.9367   -0.0230 O   0  0  0  0  0  0  0  0  0  0  0  0
   -6.5173    2.2094    1.4853 O   0  0  0  0  0  0  0  0  0  0  0  0
   -6.4646    2.3706   -1.0249 O   0  0  0  0  0  0  0  0  0  0  0  0
   -4.4986    1.3417   -1.6097 H   0  0  0  0  0  0  0  0  0  0  0  0
  1  4  2  0  0  0  0
  2  3  1  0  0  0  0
  2  1  1  0  0  0  0
  3 20  1  0  0  0  0
  4 11  1  0  0  0  0
  4  5  1  0  0  0  0
  5 12  1  0  0  0  0
  6  5  2  0  0  0  0
  6  7  1  0  0  0  0
  8  7  1  0  0  0  0
  8 13  1  0  0  0  0
  9  6  1  0  0  0  0
 10  9  2  0  0  0  0
 10  1  1  0  0  0  0
 14  8  1  0  0  0  0
 15  8  1  0  0  0  0
 16  9  1  0  0  0  0
 17 10  1  0  0  0  0
 18 19  2  0  0  0  0
 18 21  1  0  0  0  0
 22 18  1  0  0  0  0
 23  3  1  0  0  0  0
M  RAD  4   2   2  20   2  21   2  22   2
M  END
