Coordinates from ORCA-job 4-MeOPhN2+~HSO4-_B3LYPG-6-31G_dp-NX-Scan-d89-09-n800
 OpenBabel11261921003D

 23 22  0  0  0  0  0  0  0  0999 V2000
   -1.6502    0.4552   -0.4170 C   0  0  0  0  0  0  0  0  0  0  0  0
   -2.9331    0.2515   -0.8938 N   0  0  0  0  0  0  0  0  0  0  0  0
   -3.8412   -0.0979   -1.4544 N   0  0  0  0  0  0  0  0  0  0  0  0
   -1.3258    1.6032    0.3309 C   0  0  0  0  0  0  0  0  0  0  0  0
   -0.0162    1.7637    0.7355 C   0  0  0  0  0  0  0  0  0  0  0  0
    0.9634    0.8007    0.4160 C   0  0  0  0  0  0  0  0  0  0  0  0
    2.2011    1.0619    0.8680 O   0  0  0  0  0  0  0  0  0  0  0  0
    3.2566    0.1354    0.6051 C   0  0  0  0  0  0  0  0  0  0  0  0
    0.6176   -0.3447   -0.3308 C   0  0  0  0  0  0  0  0  0  0  0  0
   -0.6904   -0.5162   -0.7523 C   0  0  0  0  0  0  0  0  0  0  0  0
   -2.1177    2.2979    0.5841 H   0  0  0  0  0  0  0  0  0  0  0  0
    0.2835    2.6301    1.3141 H   0  0  0  0  0  0  0  0  0  0  0  0
    4.1435    0.5610    1.0728 H   0  0  0  0  0  0  0  0  0  0  0  0
    3.4280    0.0257   -0.4713 H   0  0  0  0  0  0  0  0  0  0  0  0
    3.0433   -0.8432    1.0487 H   0  0  0  0  0  0  0  0  0  0  0  0
    1.3574   -1.0929   -0.5844 H   0  0  0  0  0  0  0  0  0  0  0  0
   -0.9759   -1.3877   -1.3313 H   0  0  0  0  0  0  0  0  0  0  0  0
   -5.2739    2.1553    0.1621 S   0  0  0  0  0  0  0  0  0  0  0  0
   -6.3827    2.5254    1.0424 O   0  0  0  0  0  0  0  0  0  0  0  0
   -4.0669    1.5778    0.8180 O   0  0  0  0  0  0  0  0  0  0  0  0
   -5.6470    1.3677   -1.0460 O   0  0  0  0  0  0  0  0  0  0  0  0
   -4.6642    3.5998   -0.4154 O   0  0  0  0  0  0  0  0  0  0  0  0
   -5.4307    4.1853   -0.5162 H   0  0  0  0  0  0  0  0  0  0  0  0
  1  4  1  0  0  0  0
  2  1  1  0  0  0  0
  3  2  1  0  0  0  0
  4 11  1  0  0  0  0
  4  5  2  0  0  0  0
  5 12  1  0  0  0  0
  6  5  1  0  0  0  0
  6  7  1  0  0  0  0
  8  7  1  0  0  0  0
  8 15  1  0  0  0  0
  8 13  1  0  0  0  0
  9  6  2  0  0  0  0
 10  1  2  0  0  0  0
 10  9  1  0  0  0  0
 14  8  1  0  0  0  0
 16  9  1  0  0  0  0
 17 10  1  0  0  0  0
 18 20  2  0  0  0  0
 18 19  1  0  0  0  0
 21 18  2  0  0  0  0
 22 18  1  0  0  0  0
 23 22  1  0  0  0  0
M  RAD  3   2   2   3   3  19   2
M  END
