Coordinates from ORCA-job 4-MeOPhN2+~HSO4-_B3LYPG-6-31G_dp-NX-Scan-d89-09-n800
 OpenBabel11261921003D

 23 22  0  0  0  0  0  0  0  0999 V2000
   -1.9560   -1.1870   -0.3273 C   0  0  0  0  0  0  0  0  0  0  0  0
   -2.9227   -2.0970   -0.5867 N   0  0  0  0  0  0  0  0  0  0  0  0
   -3.6843   -2.8940   -0.8139 N   0  0  0  0  0  0  0  0  0  0  0  0
   -2.2779    0.1596    0.0195 C   0  0  0  0  0  0  0  0  0  0  0  0
   -1.2384    1.0275    0.2582 C   0  0  0  0  0  0  0  0  0  0  0  0
    0.1013    0.5793    0.1613 C   0  0  0  0  0  0  0  0  0  0  0  0
    1.0272    1.4964    0.4137 O   0  0  0  0  0  0  0  0  0  0  0  0
    2.4200    1.1736    0.3388 C   0  0  0  0  0  0  0  0  0  0  0  0
    0.4057   -0.7664   -0.1838 C   0  0  0  0  0  0  0  0  0  0  0  0
   -0.6165   -1.6504   -0.4290 C   0  0  0  0  0  0  0  0  0  0  0  0
   -3.2939    0.5467    0.1007 H   0  0  0  0  0  0  0  0  0  0  0  0
   -1.4523    2.0828    0.4989 H   0  0  0  0  0  0  0  0  0  0  0  0
    2.9421    2.0976    0.5821 H   0  0  0  0  0  0  0  0  0  0  0  0
    2.6932    0.8513   -0.6711 H   0  0  0  0  0  0  0  0  0  0  0  0
    2.6824    0.3992    1.0671 H   0  0  0  0  0  0  0  0  0  0  0  0
    1.4303   -1.1081   -0.2590 H   0  0  0  0  0  0  0  0  0  0  0  0
   -0.4150   -2.6817   -0.6971 H   0  0  0  0  0  0  0  0  0  0  0  0
   -3.4633    3.8724    0.5688 S   0  0  0  0  0  0  0  0  0  0  0  0
   -4.0261    2.5027    0.7025 O   0  0  0  0  0  0  0  0  0  0  0  0
   -4.0779    4.9308    1.3909 O   0  0  0  0  0  0  0  0  0  0  0  0
   -1.9719    3.8660    0.5777 O   0  0  0  0  0  0  0  0  0  0  0  0
   -3.8813    4.2926   -1.0008 O   0  0  0  0  0  0  0  0  0  0  0  0
   -4.1462    5.2214   -0.9268 H   0  0  0  0  0  0  0  0  0  0  0  0
  1  4  1  0  0  0  0
  2  1  1  0  0  0  0
  3  2  1  0  0  0  0
  4 11  1  0  0  0  0
  4  5  2  0  0  0  0
  5 12  1  0  0  0  0
  6  5  1  0  0  0  0
  6  7  1  0  0  0  0
  8  7  1  0  0  0  0
  8 13  1  0  0  0  0
  8 15  1  0  0  0  0
  9  6  2  0  0  0  0
 10  1  2  0  0  0  0
 10  9  1  0  0  0  0
 14  8  1  0  0  0  0
 16  9  1  0  0  0  0
 17 10  1  0  0  0  0
 18 21  2  0  0  0  0
 18 19  2  0  0  0  0
 18 20  1  0  0  0  0
 22 23  1  0  0  0  0
 22 18  1  0  0  0  0
M  RAD  3   2   2   3   3  20   2
M  END
