Coordinates from ORCA-job 4-MeOPhN2+~HSO4-_B3LYPG-6-31G_dp-NX-Scan-d89-09-n800
 OpenBabel11261921003D

 23 23  0  0  0  0  0  0  0  0999 V2000
   -1.5575    0.8117   -0.5785 C   0  0  0  0  0  0  0  0  0  0  0  0
   -2.7341    0.8423   -1.3552 N   0  0  0  0  0  0  0  0  0  0  0  0
   -3.8087    1.3943   -1.0355 N   0  0  0  0  0  0  0  0  0  0  0  0
   -1.3125    1.3312    0.7166 C   0  0  0  0  0  0  0  0  0  0  0  0
   -0.0648    1.1794    1.2975 C   0  0  0  0  0  0  0  0  0  0  0  0
    0.9747    0.5172    0.6208 C   0  0  0  0  0  0  0  0  0  0  0  0
    2.1506    0.4347    1.2885 O   0  0  0  0  0  0  0  0  0  0  0  0
    3.2482   -0.2197    0.6613 C   0  0  0  0  0  0  0  0  0  0  0  0
    0.7459   -0.0038   -0.6617 C   0  0  0  0  0  0  0  0  0  0  0  0
   -0.5080    0.1469   -1.2392 C   0  0  0  0  0  0  0  0  0  0  0  0
   -2.0852    1.8447    1.2678 H   0  0  0  0  0  0  0  0  0  0  0  0
    0.1359    1.5699    2.2892 H   0  0  0  0  0  0  0  0  0  0  0  0
    4.0763   -0.1570    1.3684 H   0  0  0  0  0  0  0  0  0  0  0  0
    3.5310    0.2787   -0.2736 H   0  0  0  0  0  0  0  0  0  0  0  0
    3.0234   -1.2735    0.4575 H   0  0  0  0  0  0  0  0  0  0  0  0
    1.5273   -0.5195   -1.2062 H   0  0  0  0  0  0  0  0  0  0  0  0
   -0.7075   -0.2489   -2.2290 H   0  0  0  0  0  0  0  0  0  0  0  0
   -5.5282    2.7216    0.2709 S   0  0  0  0  0  0  0  0  0  0  0  0
   -5.3085    4.1500    0.2247 O   0  0  0  0  0  0  0  0  0  0  0  0
   -3.9114    1.9932    0.0688 O   0  0  0  0  0  0  0  0  0  0  0  0
   -6.0906    2.0669    1.4303 O   0  0  0  0  0  0  0  0  0  0  0  0
   -6.1496    2.1722   -1.0768 O   0  0  0  0  0  0  0  0  0  0  0  0
   -5.3686    1.6827   -1.5220 H   0  0  0  0  0  0  0  0  0  0  0  0
  1  4  2  0  0  0  0
  2  3  2  0  0  0  0
  2  1  1  0  0  0  0
  3 20  1  0  0  0  0
  4 11  1  0  0  0  0
  4  5  1  0  0  0  0
  5 12  1  0  0  0  0
  6  7  1  0  0  0  0
  6  5  2  0  0  0  0
  8  7  1  0  0  0  0
  8 13  1  0  0  0  0
  9  6  1  0  0  0  0
 10  9  2  0  0  0  0
 10  1  1  0  0  0  0
 14  8  1  0  0  0  0
 15  8  1  0  0  0  0
 16  9  1  0  0  0  0
 17 10  1  0  0  0  0
 18 21  2  0  0  0  0
 19 18  2  0  0  0  0
 20 18  1  0  0  0  0
 22 18  1  0  0  0  0
 23 22  1  0  0  0  0
M  END
