Coordinates from ORCA-job 4-MeOPhN2+~HSO4-_B3LYPG-6-31G_dp-NX-Scan-d89-09-n800
 OpenBabel11261921003D

 23 22  0  0  0  0  0  0  0  0999 V2000
   -1.7444    0.1646   -0.7399 C   0  0  0  0  0  0  0  0  0  0  0  0
   -2.9890   -0.1711   -1.2111 N   0  0  0  0  0  0  0  0  0  0  0  0
   -3.9030   -0.6091   -1.6823 N   0  0  0  0  0  0  0  0  0  0  0  0
   -1.3862    1.5164   -0.5523 C   0  0  0  0  0  0  0  0  0  0  0  0
   -0.1030    1.7702   -0.1181 C   0  0  0  0  0  0  0  0  0  0  0  0
    0.8023    0.7196    0.1435 C   0  0  0  0  0  0  0  0  0  0  0  0
    2.0143    1.0937    0.5711 O   0  0  0  0  0  0  0  0  0  0  0  0
    2.9941    0.1024    0.8926 C   0  0  0  0  0  0  0  0  0  0  0  0
    0.4126   -0.6268   -0.0464 C   0  0  0  0  0  0  0  0  0  0  0  0
   -0.8632   -0.9086   -0.4937 C   0  0  0  0  0  0  0  0  0  0  0  0
   -2.1121    2.3244   -0.7084 H   0  0  0  0  0  0  0  0  0  0  0  0
    0.2230    2.7900    0.0535 H   0  0  0  0  0  0  0  0  0  0  0  0
    3.8734    0.6567    1.2181 H   0  0  0  0  0  0  0  0  0  0  0  0
    3.2468   -0.5022    0.0147 H   0  0  0  0  0  0  0  0  0  0  0  0
    2.6472   -0.5443    1.7055 H   0  0  0  0  0  0  0  0  0  0  0  0
    1.0951   -1.4418    0.1567 H   0  0  0  0  0  0  0  0  0  0  0  0
   -1.1866   -1.9329   -0.6447 H   0  0  0  0  0  0  0  0  0  0  0  0
   -4.3899    2.9105    0.4820 S   0  0  0  0  0  0  0  0  0  0  0  0
   -4.1449    1.4380    0.4680 O   0  0  0  0  0  0  0  0  0  0  0  0
   -4.6013    3.5309    1.8016 O   0  0  0  0  0  0  0  0  0  0  0  0
   -3.4292    3.6282   -0.4029 O   0  0  0  0  0  0  0  0  0  0  0  0
   -5.8689    3.0309   -0.2805 O   0  0  0  0  0  0  0  0  0  0  0  0
   -6.3086    3.7754    0.1577 H   0  0  0  0  0  0  0  0  0  0  0  0
  1  4  2  0  0  0  0
  1 10  1  0  0  0  0
  2  1  1  0  0  0  0
  3  2  1  0  0  0  0
  4  5  1  0  0  0  0
  5 12  1  0  0  0  0
  5  6  2  0  0  0  0
  6  7  1  0  0  0  0
  7  8  1  0  0  0  0
  8 13  1  0  0  0  0
  8 15  1  0  0  0  0
  9  6  1  0  0  0  0
  9 16  1  0  0  0  0
 10  9  2  0  0  0  0
 11  4  1  0  0  0  0
 14  8  1  0  0  0  0
 17 10  1  0  0  0  0
 18 20  1  0  0  0  0
 19 18  2  0  0  0  0
 21 18  2  0  0  0  0
 22 23  1  0  0  0  0
 22 18  1  0  0  0  0
M  RAD  3   2   2   3   3  20   2
M  END
