Coordinates from ORCA-job 4-MeOPhN2+~HSO4-_B3LYPG-6-31G_dp-NX-Scan-d89-09-n800
 OpenBabel11261921003D

 23 22  0  0  0  0  0  0  0  0999 V2000
   -1.6697    0.3639   -0.1980 C   0  0  0  0  0  0  0  0  0  0  0  0
   -3.0040    0.0396   -0.3602 N   0  0  0  0  0  0  0  0  0  0  0  0
   -3.9933   -0.4845   -0.4691 N   0  0  0  0  0  0  0  0  0  0  0  0
   -1.2726    1.6795    0.1085 C   0  0  0  0  0  0  0  0  0  0  0  0
    0.0730    1.9230    0.2943 C   0  0  0  0  0  0  0  0  0  0  0  0
    1.0199    0.8849    0.1747 C   0  0  0  0  0  0  0  0  0  0  0  0
    2.2990    1.2419    0.3740 O   0  0  0  0  0  0  0  0  0  0  0  0
    3.3298    0.2584    0.2697 C   0  0  0  0  0  0  0  0  0  0  0  0
    0.6024   -0.4263   -0.1365 C   0  0  0  0  0  0  0  0  0  0  0  0
   -0.7442   -0.6889   -0.3196 C   0  0  0  0  0  0  0  0  0  0  0  0
   -2.0341    2.4507    0.1607 H   0  0  0  0  0  0  0  0  0  0  0  0
    0.4287    2.9192    0.5317 H   0  0  0  0  0  0  0  0  0  0  0  0
    4.2612    0.7879    0.4677 H   0  0  0  0  0  0  0  0  0  0  0  0
    3.3632   -0.1747   -0.7359 H   0  0  0  0  0  0  0  0  0  0  0  0
    3.1960   -0.5357    1.0126 H   0  0  0  0  0  0  0  0  0  0  0  0
    1.3165   -1.2338   -0.2337 H   0  0  0  0  0  0  0  0  0  0  0  0
   -1.0860   -1.6908   -0.5561 H   0  0  0  0  0  0  0  0  0  0  0  0
   -5.2156    2.4313   -0.3455 S   0  0  0  0  0  0  0  0  0  0  0  0
   -6.1248    3.4375   -0.8961 O   0  0  0  0  0  0  0  0  0  0  0  0
   -5.7442    1.0353   -0.3448 O   0  0  0  0  0  0  0  0  0  0  0  0
   -3.8061    2.4717   -0.8203 O   0  0  0  0  0  0  0  0  0  0  0  0
   -5.0295    2.8344    1.2639 O   0  0  0  0  0  0  0  0  0  0  0  0
   -5.8872    3.1906    1.5426 H   0  0  0  0  0  0  0  0  0  0  0  0
  1  4  1  0  0  0  0
  2  1  1  0  0  0  0
  3  2  1  0  0  0  0
  4 11  1  0  0  0  0
  4  5  2  0  0  0  0
  5 12  1  0  0  0  0
  6  5  1  0  0  0  0
  6  7  1  0  0  0  0
  8  7  1  0  0  0  0
  8 13  1  0  0  0  0
  8 15  1  0  0  0  0
  9  6  2  0  0  0  0
 10  1  2  0  0  0  0
 10  9  1  0  0  0  0
 14  8  1  0  0  0  0
 16  9  1  0  0  0  0
 17 10  1  0  0  0  0
 18 20  1  0  0  0  0
 18 22  1  0  0  0  0
 19 18  2  0  0  0  0
 21 18  2  0  0  0  0
 22 23  1  0  0  0  0
M  RAD  3   2   2   3   3  20   2
M  END
