Coordinates from ORCA-job 4-MeOPhN2+~HSO4-_B3LYPG-6-31G_dp-NX-Scan-d89-09-n800
 OpenBabel11261921003D

 23 22  0  0  0  0  0  0  0  0999 V2000
   -1.9079   -0.4094   -0.1151 C   0  0  0  0  0  0  0  0  0  0  0  0
   -3.1442   -0.9197   -0.3776 N   0  0  0  0  0  0  0  0  0  0  0  0
   -4.1248   -1.4032   -0.6165 N   0  0  0  0  0  0  0  0  0  0  0  0
   -1.8090    0.8508    0.5161 C   0  0  0  0  0  0  0  0  0  0  0  0
   -0.5483    1.3581    0.7355 C   0  0  0  0  0  0  0  0  0  0  0  0
    0.5957    0.6279    0.3539 C   0  0  0  0  0  0  0  0  0  0  0  0
    1.7696    1.2091    0.6165 O   0  0  0  0  0  0  0  0  0  0  0  0
    2.9931    0.5640    0.2482 C   0  0  0  0  0  0  0  0  0  0  0  0
    0.4696   -0.6408   -0.2742 C   0  0  0  0  0  0  0  0  0  0  0  0
   -0.7806   -1.1649   -0.5179 C   0  0  0  0  0  0  0  0  0  0  0  0
   -2.7146    1.4017    0.7680 H   0  0  0  0  0  0  0  0  0  0  0  0
   -0.4448    2.3432    1.1752 H   0  0  0  0  0  0  0  0  0  0  0  0
    3.7846    1.2437    0.5610 H   0  0  0  0  0  0  0  0  0  0  0  0
    3.0468    0.4123   -0.8351 H   0  0  0  0  0  0  0  0  0  0  0  0
    3.1055   -0.3928    0.7686 H   0  0  0  0  0  0  0  0  0  0  0  0
    1.3448   -1.2021   -0.5735 H   0  0  0  0  0  0  0  0  0  0  0  0
   -0.9013   -2.1256   -1.0060 H   0  0  0  0  0  0  0  0  0  0  0  0
   -4.2987    3.2827    0.2656 S   0  0  0  0  0  0  0  0  0  0  0  0
   -4.5773    1.8151    0.3253 O   0  0  0  0  0  0  0  0  0  0  0  0
   -5.2468    4.1642    0.9681 O   0  0  0  0  0  0  0  0  0  0  0  0
   -2.8628    3.5739    0.5160 O   0  0  0  0  0  0  0  0  0  0  0  0
   -4.5485    3.6165   -1.3566 O   0  0  0  0  0  0  0  0  0  0  0  0
   -4.9217    4.5106   -1.3607 H   0  0  0  0  0  0  0  0  0  0  0  0
  1  4  2  0  0  0  0
  2  1  1  0  0  0  0
  3  2  1  0  0  0  0
  4  5  1  0  0  0  0
  4 11  1  0  0  0  0
  5 12  1  0  0  0  0
  6  7  1  0  0  0  0
  6  5  2  0  0  0  0
  8 13  1  0  0  0  0
  8  7  1  0  0  0  0
  8 15  1  0  0  0  0
  9  6  1  0  0  0  0
 10  9  2  0  0  0  0
 10  1  1  0  0  0  0
 14  8  1  0  0  0  0
 16  9  1  0  0  0  0
 17 10  1  0  0  0  0
 18 19  2  0  0  0  0
 18 21  2  0  0  0  0
 18 20  1  0  0  0  0
 22 18  1  0  0  0  0
 23 22  1  0  0  0  0
M  RAD  3   2   2   3   3  20   2
M  END
