Coordinates from ORCA-job 4-MeOPhN2+~HSO4-_B3LYPG-6-31G_dp-NX-Scan-d89-09-n800
 OpenBabel11261921003D

 23 22  0  0  0  0  0  0  0  0999 V2000
   -1.9347   -0.9740   -0.2980 C   0  0  0  0  0  0  0  0  0  0  0  0
   -3.0004   -1.7714   -0.5461 N   0  0  0  0  0  0  0  0  0  0  0  0
   -3.8678   -2.4529   -0.7582 N   0  0  0  0  0  0  0  0  0  0  0  0
   -2.1390    0.3856    0.0646 C   0  0  0  0  0  0  0  0  0  0  0  0
   -1.0219    1.1560    0.2981 C   0  0  0  0  0  0  0  0  0  0  0  0
    0.2713    0.5993    0.1785 C   0  0  0  0  0  0  0  0  0  0  0  0
    1.2799    1.4310    0.4265 O   0  0  0  0  0  0  0  0  0  0  0  0
    2.6364    0.9839    0.3265 C   0  0  0  0  0  0  0  0  0  0  0  0
    0.4519   -0.7646   -0.1851 C   0  0  0  0  0  0  0  0  0  0  0  0
   -0.6461   -1.5558   -0.4251 C   0  0  0  0  0  0  0  0  0  0  0  0
   -3.1255    0.8632    0.1662 H   0  0  0  0  0  0  0  0  0  0  0  0
   -1.1766    2.2101    0.5564 H   0  0  0  0  0  0  0  0  0  0  0  0
    3.2450    1.8529    0.5721 H   0  0  0  0  0  0  0  0  0  0  0  0
    2.8653    0.6510   -0.6909 H   0  0  0  0  0  0  0  0  0  0  0  0
    2.8383    0.1797    1.0417 H   0  0  0  0  0  0  0  0  0  0  0  0
    1.4421   -1.1923   -0.2780 H   0  0  0  0  0  0  0  0  0  0  0  0
   -0.5381   -2.5975   -0.7063 H   0  0  0  0  0  0  0  0  0  0  0  0
   -3.7629    3.7137    0.5300 S   0  0  0  0  0  0  0  0  0  0  0  0
   -4.2616    2.3100    0.5897 O   0  0  0  0  0  0  0  0  0  0  0  0
   -4.5201    4.7029    1.3138 O   0  0  0  0  0  0  0  0  0  0  0  0
   -2.2845    3.7997    0.6698 O   0  0  0  0  0  0  0  0  0  0  0  0
   -4.0699    4.1386   -1.0630 O   0  0  0  0  0  0  0  0  0  0  0  0
   -4.4026    5.0461   -0.9983 H   0  0  0  0  0  0  0  0  0  0  0  0
  1  4  1  0  0  0  0
  2  1  1  0  0  0  0
  3  2  1  0  0  0  0
  4 11  1  0  0  0  0
  4  5  2  0  0  0  0
  5 12  1  0  0  0  0
  6  5  1  0  0  0  0
  6  7  1  0  0  0  0
  8  7  1  0  0  0  0
  8 13  1  0  0  0  0
  8 15  1  0  0  0  0
  9  6  2  0  0  0  0
 10  1  2  0  0  0  0
 10  9  1  0  0  0  0
 14  8  1  0  0  0  0
 16  9  1  0  0  0  0
 17 10  1  0  0  0  0
 18 19  2  0  0  0  0
 18 21  2  0  0  0  0
 18 20  1  0  0  0  0
 22 23  1  0  0  0  0
 22 18  1  0  0  0  0
M  RAD  3   2   2   3   3  20   2
M  END
