Coordinates from ORCA-job 4-MeOPhN2+~HSO4-_B3LYPG-6-31G_dp-NX-Scan-d89-09-n800
 OpenBabel11261921003D

 23 22  0  0  0  0  0  0  0  0999 V2000
   -1.7636    0.3169   -0.3142 C   0  0  0  0  0  0  0  0  0  0  0  0
   -3.0398    0.0621   -0.7663 N   0  0  0  0  0  0  0  0  0  0  0  0
   -4.0246   -0.2232   -1.2281 N   0  0  0  0  0  0  0  0  0  0  0  0
   -1.5263    1.3132    0.6555 C   0  0  0  0  0  0  0  0  0  0  0  0
   -0.2215    1.5245    1.0513 C   0  0  0  0  0  0  0  0  0  0  0  0
    0.8359    0.7722    0.4990 C   0  0  0  0  0  0  0  0  0  0  0  0
    2.0609    1.0732    0.9575 O   0  0  0  0  0  0  0  0  0  0  0  0
    3.1973    0.3661    0.4565 C   0  0  0  0  0  0  0  0  0  0  0  0
    0.5752   -0.2225   -0.4684 C   0  0  0  0  0  0  0  0  0  0  0  0
   -0.7268   -0.4527   -0.8753 C   0  0  0  0  0  0  0  0  0  0  0  0
   -2.3770    1.8536    1.0641 H   0  0  0  0  0  0  0  0  0  0  0  0
    0.0162    2.2760    1.7960 H   0  0  0  0  0  0  0  0  0  0  0  0
    4.0573    0.7937    0.9698 H   0  0  0  0  0  0  0  0  0  0  0  0
    3.3082    0.5107   -0.6240 H   0  0  0  0  0  0  0  0  0  0  0  0
    3.1295   -0.7031    0.6847 H   0  0  0  0  0  0  0  0  0  0  0  0
    1.3763   -0.8091   -0.8980 H   0  0  0  0  0  0  0  0  0  0  0  0
   -0.9503   -1.2108   -1.6185 H   0  0  0  0  0  0  0  0  0  0  0  0
   -5.1575    2.3072    0.2085 S   0  0  0  0  0  0  0  0  0  0  0  0
   -6.0797    3.3762    0.5937 O   0  0  0  0  0  0  0  0  0  0  0  0
   -4.3392    1.6833    1.2759 O   0  0  0  0  0  0  0  0  0  0  0  0
   -5.7236    1.2926   -0.7317 O   0  0  0  0  0  0  0  0  0  0  0  0
   -3.9491    3.0641   -0.6939 O   0  0  0  0  0  0  0  0  0  0  0  0
   -4.3993    3.7511   -1.2093 H   0  0  0  0  0  0  0  0  0  0  0  0
  1  4  2  0  0  0  0
  2  1  1  0  0  0  0
  3  2  1  0  0  0  0
  4  5  1  0  0  0  0
  4 11  1  0  0  0  0
  5 12  1  0  0  0  0
  6  7  1  0  0  0  0
  6  5  2  0  0  0  0
  8 15  1  0  0  0  0
  8  7  1  0  0  0  0
  8 13  1  0  0  0  0
  9  6  1  0  0  0  0
 10  9  2  0  0  0  0
 10  1  1  0  0  0  0
 14  8  1  0  0  0  0
 16  9  1  0  0  0  0
 17 10  1  0  0  0  0
 18 19  2  0  0  0  0
 18 20  1  0  0  0  0
 21 18  2  0  0  0  0
 22 18  1  0  0  0  0
 23 22  1  0  0  0  0
M  RAD  3   2   2   3   3  20   2
M  END
