Coordinates from ORCA-job 4-MeOPhN2+~HSO4-_B3LYPG-6-31G_dp-NX-Scan-d89-09-n800
 OpenBabel11261921003D

 23 23  0  0  0  0  0  0  0  0999 V2000
   -1.4787    0.6866   -0.6026 C   0  0  0  0  0  0  0  0  0  0  0  0
   -2.7019    0.6538   -1.2728 N   0  0  0  0  0  0  0  0  0  0  0  0
   -3.7841    1.1167   -1.2160 N   0  0  0  0  0  0  0  0  0  0  0  0
   -1.2165    1.4554    0.5552 C   0  0  0  0  0  0  0  0  0  0  0  0
    0.0390    1.3910    1.1272 C   0  0  0  0  0  0  0  0  0  0  0  0
    1.0482    0.5779    0.5718 C   0  0  0  0  0  0  0  0  0  0  0  0
    2.2311    0.6001    1.2187 O   0  0  0  0  0  0  0  0  0  0  0  0
    3.3060   -0.1982    0.7280 C   0  0  0  0  0  0  0  0  0  0  0  0
    0.7846   -0.1834   -0.5801 C   0  0  0  0  0  0  0  0  0  0  0  0
   -0.4760   -0.1235   -1.1573 C   0  0  0  0  0  0  0  0  0  0  0  0
   -1.9930    2.0771    0.9778 H   0  0  0  0  0  0  0  0  0  0  0  0
    0.2736    1.9650    2.0168 H   0  0  0  0  0  0  0  0  0  0  0  0
    4.1398   -0.0211    1.4073 H   0  0  0  0  0  0  0  0  0  0  0  0
    3.5935    0.1009   -0.2865 H   0  0  0  0  0  0  0  0  0  0  0  0
    3.0471   -1.2635    0.7379 H   0  0  0  0  0  0  0  0  0  0  0  0
    1.5462   -0.8125   -1.0229 H   0  0  0  0  0  0  0  0  0  0  0  0
   -0.7034   -0.7020   -2.0462 H   0  0  0  0  0  0  0  0  0  0  0  0
   -5.4584    2.5680    0.3528 S   0  0  0  0  0  0  0  0  0  0  0  0
   -5.4909    3.6827    1.2784 O   0  0  0  0  0  0  0  0  0  0  0  0
   -3.9293    2.2305    0.0879 O   0  0  0  0  0  0  0  0  0  0  0  0
   -6.2208    1.3464    0.5821 O   0  0  0  0  0  0  0  0  0  0  0  0
   -5.9420    3.1571   -1.0965 O   0  0  0  0  0  0  0  0  0  0  0  0
   -6.3358    2.4101   -1.5762 H   0  0  0  0  0  0  0  0  0  0  0  0
  1  4  1  0  0  0  0
  2  3  1  0  0  0  0
  2  1  1  0  0  0  0
  3 20  1  0  0  0  0
  4 11  1  0  0  0  0
  4  5  2  0  0  0  0
  5 12  1  0  0  0  0
  6  5  1  0  0  0  0
  6  7  1  0  0  0  0
  8 15  1  0  0  0  0
  8  7  1  0  0  0  0
  8 13  1  0  0  0  0
  9  6  2  0  0  0  0
 10  1  2  0  0  0  0
 10  9  1  0  0  0  0
 14  8  1  0  0  0  0
 16  9  1  0  0  0  0
 17 10  1  0  0  0  0
 18 21  2  0  0  0  0
 18 19  2  0  0  0  0
 20 18  1  0  0  0  0
 22 18  1  0  0  0  0
 23 22  1  0  0  0  0
M  RAD  2   2   2   3   2
M  END
