Coordinates from ORCA-job 4-MeOPhN2+~HSO4-_B3LYPG-6-31G_dp-NX-Scan-d89-09-n800
 OpenBabel11261921003D

 23 22  0  0  0  0  0  0  0  0999 V2000
   -1.9518   -1.1349   -0.3198 C   0  0  0  0  0  0  0  0  0  0  0  0
   -2.9459   -2.0162   -0.5742 N   0  0  0  0  0  0  0  0  0  0  0  0
   -3.7400   -2.7819   -0.7949 N   0  0  0  0  0  0  0  0  0  0  0  0
   -2.2444    0.2168    0.0277 C   0  0  0  0  0  0  0  0  0  0  0  0
   -1.1852    1.0624    0.2633 C   0  0  0  0  0  0  0  0  0  0  0  0
    0.1434    0.5858    0.1626 C   0  0  0  0  0  0  0  0  0  0  0  0
    1.0913    1.4825    0.4121 O   0  0  0  0  0  0  0  0  0  0  0  0
    2.4759    1.1269    0.3339 C   0  0  0  0  0  0  0  0  0  0  0  0
    0.4172   -0.7665   -0.1836 C   0  0  0  0  0  0  0  0  0  0  0  0
   -0.6241   -1.6288   -0.4264 C   0  0  0  0  0  0  0  0  0  0  0  0
   -3.2522    0.6287    0.1147 H   0  0  0  0  0  0  0  0  0  0  0  0
   -1.3846    2.1196    0.5053 H   0  0  0  0  0  0  0  0  0  0  0  0
    3.0205    2.0382    0.5758 H   0  0  0  0  0  0  0  0  0  0  0  0
    2.7392    0.7981   -0.6765 H   0  0  0  0  0  0  0  0  0  0  0  0
    2.7219    0.3466    1.0617 H   0  0  0  0  0  0  0  0  0  0  0  0
    1.4341   -1.1300   -0.2619 H   0  0  0  0  0  0  0  0  0  0  0  0
   -0.4456   -2.6640   -0.6955 H   0  0  0  0  0  0  0  0  0  0  0  0
   -3.5387    3.8304    0.5621 S   0  0  0  0  0  0  0  0  0  0  0  0
   -4.0749    2.4465    0.6634 O   0  0  0  0  0  0  0  0  0  0  0  0
   -4.2099    4.8615    1.3731 O   0  0  0  0  0  0  0  0  0  0  0  0
   -2.0498    3.8624    0.6225 O   0  0  0  0  0  0  0  0  0  0  0  0
   -3.9136    4.2550   -1.0169 O   0  0  0  0  0  0  0  0  0  0  0  0
   -4.2044    5.1761   -0.9438 H   0  0  0  0  0  0  0  0  0  0  0  0
  1  4  1  0  0  0  0
  2  1  1  0  0  0  0
  3  2  1  0  0  0  0
  4 11  1  0  0  0  0
  4  5  2  0  0  0  0
  5 12  1  0  0  0  0
  6  5  1  0  0  0  0
  6  7  1  0  0  0  0
  8  7  1  0  0  0  0
  8 13  1  0  0  0  0
  8 15  1  0  0  0  0
  9  6  2  0  0  0  0
 10  1  2  0  0  0  0
 10  9  1  0  0  0  0
 14  8  1  0  0  0  0
 16  9  1  0  0  0  0
 17 10  1  0  0  0  0
 18 21  2  0  0  0  0
 18 19  2  0  0  0  0
 18 20  1  0  0  0  0
 22 23  1  0  0  0  0
 22 18  1  0  0  0  0
M  RAD  3   2   2   3   3  20   2
M  END
