Coordinates from ORCA-job 4-MeOPhN2+~HSO4-_B3LYPG-6-31G_dp-NX-Scan-d89-09-n800
 OpenBabel11261921003D

 23 22  0  0  0  0  0  0  0  0999 V2000
   -1.6981    0.1922   -0.6726 C   0  0  0  0  0  0  0  0  0  0  0  0
   -2.9717   -0.1435   -1.0769 N   0  0  0  0  0  0  0  0  0  0  0  0
   -4.0723   -0.0980   -1.2994 N   0  0  0  0  0  0  0  0  0  0  0  0
   -1.4507    1.5357   -0.3153 C   0  0  0  0  0  0  0  0  0  0  0  0
   -0.1761    1.8600    0.0998 C   0  0  0  0  0  0  0  0  0  0  0  0
    0.8370    0.8792    0.1624 C   0  0  0  0  0  0  0  0  0  0  0  0
    2.0358    1.3160    0.5828 O   0  0  0  0  0  0  0  0  0  0  0  0
    3.1245    0.3967    0.6841 C   0  0  0  0  0  0  0  0  0  0  0  0
    0.5631   -0.4548   -0.2029 C   0  0  0  0  0  0  0  0  0  0  0  0
   -0.7112   -0.8007   -0.6232 C   0  0  0  0  0  0  0  0  0  0  0  0
   -2.2528    2.2650   -0.3821 H   0  0  0  0  0  0  0  0  0  0  0  0
    0.0690    2.8749    0.3915 H   0  0  0  0  0  0  0  0  0  0  0  0
    3.9696    0.9819    1.0450 H   0  0  0  0  0  0  0  0  0  0  0  0
    3.3707   -0.0348   -0.2926 H   0  0  0  0  0  0  0  0  0  0  0  0
    2.9016   -0.4030    1.3988 H   0  0  0  0  0  0  0  0  0  0  0  0
    1.3310   -1.2161   -0.1576 H   0  0  0  0  0  0  0  0  0  0  0  0
   -0.9468   -1.8208   -0.9054 H   0  0  0  0  0  0  0  0  0  0  0  0
   -5.0794    2.2161    0.1531 S   0  0  0  0  0  0  0  0  0  0  0  0
   -6.4212    2.8050    0.2100 O   0  0  0  0  0  0  0  0  0  0  0  0
   -4.8876    0.8849    0.7820 O   0  0  0  0  0  0  0  0  0  0  0  0
   -4.4056    2.2627   -1.1882 O   0  0  0  0  0  0  0  0  0  0  0  0
   -4.1311    3.2399    1.0835 O   0  0  0  0  0  0  0  0  0  0  0  0
   -4.7192    3.9768    1.3081 H   0  0  0  0  0  0  0  0  0  0  0  0
  1 10  2  0  0  0  0
  1  4  1  0  0  0  0
  2  1  1  0  0  0  0
  3  2  1  0  0  0  0
  4  5  2  0  0  0  0
  5  6  1  0  0  0  0
  5 12  1  0  0  0  0
  6  7  1  0  0  0  0
  7  8  1  0  0  0  0
  8 13  1  0  0  0  0
  8 15  1  0  0  0  0
  9 16  1  0  0  0  0
  9  6  2  0  0  0  0
 10  9  1  0  0  0  0
 11  4  1  0  0  0  0
 14  8  1  0  0  0  0
 17 10  1  0  0  0  0
 18 19  2  0  0  0  0
 18 20  1  0  0  0  0
 18 22  1  0  0  0  0
 21 18  2  0  0  0  0
 22 23  1  0  0  0  0
M  RAD  3   2   2   3   3  20   2
M  END
