Coordinates from ORCA-job 4-MeOPhN2+~HSO4-_B3LYPG-6-31G_dp-NX-Scan-d89-09-n800
 OpenBabel11261921003D

 23 22  0  0  0  0  0  0  0  0999 V2000
   -1.8223   -0.0266   -0.1497 C   0  0  0  0  0  0  0  0  0  0  0  0
   -3.0988   -0.4797   -0.4477 N   0  0  0  0  0  0  0  0  0  0  0  0
   -4.2389   -0.3301   -0.4191 N   0  0  0  0  0  0  0  0  0  0  0  0
   -1.6149    1.1552    0.5941 C   0  0  0  0  0  0  0  0  0  0  0  0
   -0.3166    1.5431    0.8537 C   0  0  0  0  0  0  0  0  0  0  0  0
    0.7742    0.7815    0.3834 C   0  0  0  0  0  0  0  0  0  0  0  0
    1.9914    1.2630    0.6967 O   0  0  0  0  0  0  0  0  0  0  0  0
    3.1543    0.5647    0.2524 C   0  0  0  0  0  0  0  0  0  0  0  0
    0.5523   -0.3953   -0.3564 C   0  0  0  0  0  0  0  0  0  0  0  0
   -0.7492   -0.7968   -0.6180 C   0  0  0  0  0  0  0  0  0  0  0  0
   -2.4604    1.7310    0.9468 H   0  0  0  0  0  0  0  0  0  0  0  0
   -0.1092    2.4464    1.4163 H   0  0  0  0  0  0  0  0  0  0  0  0
    4.0023    1.1418    0.6198 H   0  0  0  0  0  0  0  0  0  0  0  0
    3.1926    0.5145   -0.8418 H   0  0  0  0  0  0  0  0  0  0  0  0
    3.1933   -0.4470    0.6712 H   0  0  0  0  0  0  0  0  0  0  0  0
    1.3779   -0.9902   -0.7240 H   0  0  0  0  0  0  0  0  0  0  0  0
   -0.9475   -1.6993   -1.1857 H   0  0  0  0  0  0  0  0  0  0  0  0
   -4.8518    2.4633   -0.4448 S   0  0  0  0  0  0  0  0  0  0  0  0
   -6.2311    2.9373   -0.5414 O   0  0  0  0  0  0  0  0  0  0  0  0
   -4.6998    1.2673    0.5236 O   0  0  0  0  0  0  0  0  0  0  0  0
   -4.0636    2.2432   -1.6563 O   0  0  0  0  0  0  0  0  0  0  0  0
   -4.0344    3.6464    0.3916 O   0  0  0  0  0  0  0  0  0  0  0  0
   -4.7213    4.1814    0.8200 H   0  0  0  0  0  0  0  0  0  0  0  0
  1  4  2  0  0  0  0
  2  3  2  0  0  0  0
  2  1  1  0  0  0  0
  4  5  1  0  0  0  0
  4 11  1  0  0  0  0
  5 12  1  0  0  0  0
  6  7  1  0  0  0  0
  6  5  2  0  0  0  0
  8 13  1  0  0  0  0
  8 15  1  0  0  0  0
  8  7  1  0  0  0  0
  9  6  1  0  0  0  0
 10  9  2  0  0  0  0
 10  1  1  0  0  0  0
 14  8  1  0  0  0  0
 16  9  1  0  0  0  0
 17 10  1  0  0  0  0
 18 22  1  0  0  0  0
 18 20  1  0  0  0  0
 19 18  2  0  0  0  0
 21 18  2  0  0  0  0
 22 23  1  0  0  0  0
M  RAD  2   3   2  20   2
M  END
