Coordinates from ORCA-job 4-MeOPhN2+~HSO4-_B3LYPG-6-31G_dp-NX-Scan-d89-09-n800
 OpenBabel11261921003D

 23 22  0  0  0  0  0  0  0  0999 V2000
   -1.6249    0.2808   -0.3993 C   0  0  0  0  0  0  0  0  0  0  0  0
   -2.8964    0.0344   -0.8671 N   0  0  0  0  0  0  0  0  0  0  0  0
   -3.8949   -0.2085   -1.3245 N   0  0  0  0  0  0  0  0  0  0  0  0
   -1.3683    1.4027    0.4161 C   0  0  0  0  0  0  0  0  0  0  0  0
   -0.0686    1.6125    0.8289 C   0  0  0  0  0  0  0  0  0  0  0  0
    0.9656    0.7333    0.4445 C   0  0  0  0  0  0  0  0  0  0  0  0
    2.1880    1.0430    0.9029 O   0  0  0  0  0  0  0  0  0  0  0  0
    3.3006    0.2093    0.5699 C   0  0  0  0  0  0  0  0  0  0  0  0
    0.6851   -0.3868   -0.3684 C   0  0  0  0  0  0  0  0  0  0  0  0
   -0.6124   -0.6152   -0.7911 C   0  0  0  0  0  0  0  0  0  0  0  0
   -2.2068    2.0330    0.7092 H   0  0  0  0  0  0  0  0  0  0  0  0
    0.1823    2.4583    1.4592 H   0  0  0  0  0  0  0  0  0  0  0  0
    4.1635    0.6678    1.0509 H   0  0  0  0  0  0  0  0  0  0  0  0
    3.4596    0.1771   -0.5136 H   0  0  0  0  0  0  0  0  0  0  0  0
    3.1628   -0.8061    0.9566 H   0  0  0  0  0  0  0  0  0  0  0  0
    1.4683   -1.0706   -0.6686 H   0  0  0  0  0  0  0  0  0  0  0  0
   -0.8501   -1.4683   -1.4175 H   0  0  0  0  0  0  0  0  0  0  0  0
   -5.2827    2.3662    0.1460 S   0  0  0  0  0  0  0  0  0  0  0  0
   -6.5479    2.6328    0.8355 O   0  0  0  0  0  0  0  0  0  0  0  0
   -4.1262    1.9864    0.9966 O   0  0  0  0  0  0  0  0  0  0  0  0
   -5.4086    1.4768   -1.0536 O   0  0  0  0  0  0  0  0  0  0  0  0
   -4.7945    3.8406   -0.4619 O   0  0  0  0  0  0  0  0  0  0  0  0
   -5.6150    4.3155   -0.6658 H   0  0  0  0  0  0  0  0  0  0  0  0
  1  4  1  0  0  0  0
  2  1  1  0  0  0  0
  3  2  1  0  0  0  0
  4 11  1  0  0  0  0
  4  5  2  0  0  0  0
  5 12  1  0  0  0  0
  6  5  1  0  0  0  0
  6  7  1  0  0  0  0
  8  7  1  0  0  0  0
  8 15  1  0  0  0  0
  8 13  1  0  0  0  0
  9  6  2  0  0  0  0
 10  1  2  0  0  0  0
 10  9  1  0  0  0  0
 14  8  1  0  0  0  0
 16  9  1  0  0  0  0
 17 10  1  0  0  0  0
 18 19  2  0  0  0  0
 18 20  1  0  0  0  0
 21 18  2  0  0  0  0
 22 18  1  0  0  0  0
 23 22  1  0  0  0  0
M  RAD  3   2   2   3   3  20   2
M  END
