Coordinates from ORCA-job 4-MeOPhN2+~HSO4-_B3LYPG-6-31G_dp-NX-Scan-d89-09-n800
 OpenBabel11261921003D

 23 23  0  0  0  0  0  0  0  0999 V2000
   -1.5131    0.7207   -0.5818 C   0  0  0  0  0  0  0  0  0  0  0  0
   -2.7277    0.6757   -1.2743 N   0  0  0  0  0  0  0  0  0  0  0  0
   -3.8112    1.1737   -1.1530 N   0  0  0  0  0  0  0  0  0  0  0  0
   -1.2296    1.4717    0.5844 C   0  0  0  0  0  0  0  0  0  0  0  0
    0.0302    1.3947    1.1468 C   0  0  0  0  0  0  0  0  0  0  0  0
    1.0317    0.5839    0.5767 C   0  0  0  0  0  0  0  0  0  0  0  0
    2.2206    0.5929    1.2164 O   0  0  0  0  0  0  0  0  0  0  0  0
    3.2861   -0.2042    0.7060 C   0  0  0  0  0  0  0  0  0  0  0  0
    0.7547   -0.1613   -0.5813 C   0  0  0  0  0  0  0  0  0  0  0  0
   -0.5105   -0.0853   -1.1470 C   0  0  0  0  0  0  0  0  0  0  0  0
   -1.9893    2.0962    1.0298 H   0  0  0  0  0  0  0  0  0  0  0  0
    0.2735    1.9577    2.0412 H   0  0  0  0  0  0  0  0  0  0  0  0
    4.1278   -0.0399    1.3790 H   0  0  0  0  0  0  0  0  0  0  0  0
    3.5657    0.1051   -0.3078 H   0  0  0  0  0  0  0  0  0  0  0  0
    3.0225   -1.2686    0.7048 H   0  0  0  0  0  0  0  0  0  0  0  0
    1.5086   -0.7900   -1.0379 H   0  0  0  0  0  0  0  0  0  0  0  0
   -0.7480   -0.6511   -2.0413 H   0  0  0  0  0  0  0  0  0  0  0  0
   -5.4610    2.5482    0.3518 S   0  0  0  0  0  0  0  0  0  0  0  0
   -5.4469    3.7043    1.2190 O   0  0  0  0  0  0  0  0  0  0  0  0
   -3.9077    2.1688    0.0845 O   0  0  0  0  0  0  0  0  0  0  0  0
   -6.2093    1.3399    0.6563 O   0  0  0  0  0  0  0  0  0  0  0  0
   -5.9296    3.0822   -1.1117 O   0  0  0  0  0  0  0  0  0  0  0  0
   -6.0591    2.2999   -1.6758 H   0  0  0  0  0  0  0  0  0  0  0  0
  1  4  1  0  0  0  0
  2  3  1  0  0  0  0
  2  1  1  0  0  0  0
  3 20  1  0  0  0  0
  4 11  1  0  0  0  0
  4  5  2  0  0  0  0
  5 12  1  0  0  0  0
  6  5  1  0  0  0  0
  6  7  1  0  0  0  0
  8  7  1  0  0  0  0
  8 13  1  0  0  0  0
  9  6  2  0  0  0  0
 10  1  2  0  0  0  0
 10  9  1  0  0  0  0
 14  8  1  0  0  0  0
 15  8  1  0  0  0  0
 16  9  1  0  0  0  0
 17 10  1  0  0  0  0
 18 21  2  0  0  0  0
 18 19  2  0  0  0  0
 20 18  1  0  0  0  0
 22 18  1  0  0  0  0
 23 22  1  0  0  0  0
M  RAD  2   2   2   3   2
M  END
