Coordinates from ORCA-job 4-MeOPhN2+~HSO4-_B3LYPG-6-31G_dp-NX-Scan-d89-09-n800
 OpenBabel11261921003D

 23 22  0  0  0  0  0  0  0  0999 V2000
   -1.7259    0.2524   -0.2174 C   0  0  0  0  0  0  0  0  0  0  0  0
   -3.0363   -0.1254   -0.4116 N   0  0  0  0  0  0  0  0  0  0  0  0
   -4.1351   -0.3959   -0.5120 N   0  0  0  0  0  0  0  0  0  0  0  0
   -1.3814    1.5744    0.1358 C   0  0  0  0  0  0  0  0  0  0  0  0
   -0.0489    1.8668    0.3446 C   0  0  0  0  0  0  0  0  0  0  0  0
    0.9420    0.8735    0.2044 C   0  0  0  0  0  0  0  0  0  0  0  0
    2.2039    1.2787    0.4300 O   0  0  0  0  0  0  0  0  0  0  0  0
    3.2749    0.3433    0.3016 C   0  0  0  0  0  0  0  0  0  0  0  0
    0.5834   -0.4420   -0.1522 C   0  0  0  0  0  0  0  0  0  0  0  0
   -0.7505   -0.7506   -0.3605 C   0  0  0  0  0  0  0  0  0  0  0  0
   -2.1571    2.3286    0.1964 H   0  0  0  0  0  0  0  0  0  0  0  0
    0.2624    2.8698    0.6141 H   0  0  0  0  0  0  0  0  0  0  0  0
    4.1827    0.9040    0.5228 H   0  0  0  0  0  0  0  0  0  0  0  0
    3.3323   -0.0563   -0.7169 H   0  0  0  0  0  0  0  0  0  0  0  0
    3.1706   -0.4798    1.0173 H   0  0  0  0  0  0  0  0  0  0  0  0
    1.3315   -1.2157   -0.2664 H   0  0  0  0  0  0  0  0  0  0  0  0
   -1.0493   -1.7569   -0.6333 H   0  0  0  0  0  0  0  0  0  0  0  0
   -5.0860    2.4750   -0.3751 S   0  0  0  0  0  0  0  0  0  0  0  0
   -6.2085    3.3310   -0.7548 O   0  0  0  0  0  0  0  0  0  0  0  0
   -5.4688    1.0136   -0.2266 O   0  0  0  0  0  0  0  0  0  0  0  0
   -3.8107    2.6086   -1.1012 O   0  0  0  0  0  0  0  0  0  0  0  0
   -4.6657    2.9432    1.1692 O   0  0  0  0  0  0  0  0  0  0  0  0
   -5.4812    3.2751    1.5765 H   0  0  0  0  0  0  0  0  0  0  0  0
  1  4  1  0  0  0  0
  2  1  1  0  0  0  0
  3  2  1  0  0  0  0
  4 11  1  0  0  0  0
  4  5  2  0  0  0  0
  5 12  1  0  0  0  0
  6  5  1  0  0  0  0
  6  7  1  0  0  0  0
  8  7  1  0  0  0  0
  8 13  1  0  0  0  0
  8 15  1  0  0  0  0
  9  6  2  0  0  0  0
 10  1  2  0  0  0  0
 10  9  1  0  0  0  0
 14  8  1  0  0  0  0
 16  9  1  0  0  0  0
 17 10  1  0  0  0  0
 18 20  1  0  0  0  0
 18 22  1  0  0  0  0
 19 18  2  0  0  0  0
 21 18  2  0  0  0  0
 22 23  1  0  0  0  0
M  RAD  3   2   2   3   3  20   2
M  END
