Coordinates from ORCA-job 4-MeOPhN2+~HSO4-_B3LYPG-6-31G_dp-NX-Scan-d89-09-n800
 OpenBabel11261921003D

 23 22  0  0  0  0  0  0  0  0999 V2000
   -1.6652    0.3672   -0.1971 C   0  0  0  0  0  0  0  0  0  0  0  0
   -2.9996    0.0466   -0.3600 N   0  0  0  0  0  0  0  0  0  0  0  0
   -3.9980   -0.4607   -0.4722 N   0  0  0  0  0  0  0  0  0  0  0  0
   -1.2643    1.6823    0.1073 C   0  0  0  0  0  0  0  0  0  0  0  0
    0.0820    1.9229    0.2916 C   0  0  0  0  0  0  0  0  0  0  0  0
    1.0265    0.8824    0.1730 C   0  0  0  0  0  0  0  0  0  0  0  0
    2.3067    1.2369    0.3709 O   0  0  0  0  0  0  0  0  0  0  0  0
    3.3349    0.2508    0.2673 C   0  0  0  0  0  0  0  0  0  0  0  0
    0.6057   -0.4281   -0.1357 C   0  0  0  0  0  0  0  0  0  0  0  0
   -0.7419   -0.6875   -0.3177 C   0  0  0  0  0  0  0  0  0  0  0  0
   -2.0235    2.4559    0.1597 H   0  0  0  0  0  0  0  0  0  0  0  0
    0.4405    2.9186    0.5271 H   0  0  0  0  0  0  0  0  0  0  0  0
    4.2678    0.7783    0.4636 H   0  0  0  0  0  0  0  0  0  0  0  0
    3.3664   -0.1840   -0.7377 H   0  0  0  0  0  0  0  0  0  0  0  0
    3.1998   -0.5418    1.0115 H   0  0  0  0  0  0  0  0  0  0  0  0
    1.3178   -1.2375   -0.2319 H   0  0  0  0  0  0  0  0  0  0  0  0
   -1.0862   -1.6888   -0.5526 H   0  0  0  0  0  0  0  0  0  0  0  0
   -5.2198    2.4322   -0.3397 S   0  0  0  0  0  0  0  0  0  0  0  0
   -6.1494    3.4122   -0.9029 O   0  0  0  0  0  0  0  0  0  0  0  0
   -5.7147    1.0215   -0.3432 O   0  0  0  0  0  0  0  0  0  0  0  0
   -3.8076    2.5027   -0.7986 O   0  0  0  0  0  0  0  0  0  0  0  0
   -5.0673    2.8402    1.2708 O   0  0  0  0  0  0  0  0  0  0  0  0
   -5.9322    3.1927    1.5314 H   0  0  0  0  0  0  0  0  0  0  0  0
  1  4  1  0  0  0  0
  2  1  1  0  0  0  0
  3  2  1  0  0  0  0
  4 11  1  0  0  0  0
  4  5  2  0  0  0  0
  5 12  1  0  0  0  0
  6  5  1  0  0  0  0
  6  7  1  0  0  0  0
  8  7  1  0  0  0  0
  8 13  1  0  0  0  0
  8 15  1  0  0  0  0
  9  6  2  0  0  0  0
 10  1  2  0  0  0  0
 10  9  1  0  0  0  0
 14  8  1  0  0  0  0
 16  9  1  0  0  0  0
 17 10  1  0  0  0  0
 18 22  1  0  0  0  0
 19 18  2  0  0  0  0
 20 18  1  0  0  0  0
 21 18  2  0  0  0  0
 22 23  1  0  0  0  0
M  RAD  3   2   2   3   3  20   2
M  END
