Coordinates from ORCA-job 4-MeOPhN2+~HSO4-_B3LYPG-6-31G_dp-NX-Scan-d89-09-n800
 OpenBabel11261921003D

 23 22  0  0  0  0  0  0  0  0999 V2000
   -1.5315    0.8147   -0.5833 C   0  0  0  0  0  0  0  0  0  0  0  0
   -2.7147    0.8611   -1.3349 N   0  0  0  0  0  0  0  0  0  0  0  0
   -3.7521    1.4537   -0.8867 N   0  0  0  0  0  0  0  0  0  0  0  0
   -1.2740    1.3493    0.7029 C   0  0  0  0  0  0  0  0  0  0  0  0
   -0.0234    1.1925    1.2776 C   0  0  0  0  0  0  0  0  0  0  0  0
    1.0038    0.5097    0.6045 C   0  0  0  0  0  0  0  0  0  0  0  0
    2.1843    0.4221    1.2658 O   0  0  0  0  0  0  0  0  0  0  0  0
    3.2687   -0.2538    0.6398 C   0  0  0  0  0  0  0  0  0  0  0  0
    0.7607   -0.0253   -0.6701 C   0  0  0  0  0  0  0  0  0  0  0  0
   -0.4936    0.1315   -1.2445 C   0  0  0  0  0  0  0  0  0  0  0  0
   -2.0418    1.8789    1.2464 H   0  0  0  0  0  0  0  0  0  0  0  0
    0.1875    1.5951    2.2623 H   0  0  0  0  0  0  0  0  0  0  0  0
    4.1029   -0.1922    1.3398 H   0  0  0  0  0  0  0  0  0  0  0  0
    3.5512    0.2283   -0.3038 H   0  0  0  0  0  0  0  0  0  0  0  0
    3.0299   -1.3076    0.4514 H   0  0  0  0  0  0  0  0  0  0  0  0
    1.5334   -0.5564   -1.2124 H   0  0  0  0  0  0  0  0  0  0  0  0
   -0.7002   -0.2741   -2.2290 H   0  0  0  0  0  0  0  0  0  0  0  0
   -5.9992    2.8410    0.2358 S   0  0  0  0  0  0  0  0  0  0  0  0
   -5.6105    4.2368    0.3356 O   0  0  0  0  0  0  0  0  0  0  0  0
   -3.9283    2.0107    0.1042 O   0  0  0  0  0  0  0  0  0  0  0  0
   -6.3964    2.1031    1.4220 O   0  0  0  0  0  0  0  0  0  0  0  0
   -6.3303    2.2919   -1.0834 O   0  0  0  0  0  0  0  0  0  0  0  0
   -4.5478    1.4041   -1.5552 H   0  0  0  0  0  0  0  0  0  0  0  0
  1  4  2  0  0  0  0
  2  3  1  0  0  0  0
  2  1  1  0  0  0  0
  3 20  1  0  0  0  0
  4 11  1  0  0  0  0
  4  5  1  0  0  0  0
  5 12  1  0  0  0  0
  6  7  1  0  0  0  0
  6  5  2  0  0  0  0
  8  7  1  0  0  0  0
  8 13  1  0  0  0  0
  9  6  1  0  0  0  0
 10  9  2  0  0  0  0
 10  1  1  0  0  0  0
 14  8  1  0  0  0  0
 15  8  1  0  0  0  0
 16  9  1  0  0  0  0
 17 10  1  0  0  0  0
 18 19  2  0  0  0  0
 18 21  1  0  0  0  0
 22 18  1  0  0  0  0
 23  3  1  0  0  0  0
M  RAD  4   2   2  20   2  21   2  22   2
M  END
