Coordinates from ORCA-job 4-MeOPhN2+~HSO4-_B3LYPG-6-31G_dp-NX-Scan-d89-09-n800
 OpenBabel11261921003D

 23 22  0  0  0  0  0  0  0  0999 V2000
   -1.8875   -0.6943   -0.2382 C   0  0  0  0  0  0  0  0  0  0  0  0
   -3.0665   -1.3326   -0.4549 N   0  0  0  0  0  0  0  0  0  0  0  0
   -4.0450   -1.8489   -0.6336 N   0  0  0  0  0  0  0  0  0  0  0  0
   -1.9343    0.6847    0.0830 C   0  0  0  0  0  0  0  0  0  0  0  0
   -0.7351    1.3286    0.2891 C   0  0  0  0  0  0  0  0  0  0  0  0
    0.4831    0.6237    0.1843 C   0  0  0  0  0  0  0  0  0  0  0  0
    1.5866    1.3401    0.4040 O   0  0  0  0  0  0  0  0  0  0  0  0
    2.8782    0.7290    0.3187 C   0  0  0  0  0  0  0  0  0  0  0  0
    0.5002   -0.7626   -0.1383 C   0  0  0  0  0  0  0  0  0  0  0  0
   -0.6835   -1.4311   -0.3532 C   0  0  0  0  0  0  0  0  0  0  0  0
   -2.9010    1.2159    0.1550 H   0  0  0  0  0  0  0  0  0  0  0  0
   -0.7618    2.3888    0.5227 H   0  0  0  0  0  0  0  0  0  0  0  0
    3.5892    1.5227    0.5438 H   0  0  0  0  0  0  0  0  0  0  0  0
    3.0653    0.3451   -0.6896 H   0  0  0  0  0  0  0  0  0  0  0  0
    2.9821   -0.0760    1.0540 H   0  0  0  0  0  0  0  0  0  0  0  0
    1.4344   -1.3026   -0.2205 H   0  0  0  0  0  0  0  0  0  0  0  0
   -0.6973   -2.4857   -0.6054 H   0  0  0  0  0  0  0  0  0  0  0  0
   -4.1109    3.4563    0.3938 S   0  0  0  0  0  0  0  0  0  0  0  0
   -4.4960    2.0292    0.1667 O   0  0  0  0  0  0  0  0  0  0  0  0
   -4.9406    4.1954    1.3587 O   0  0  0  0  0  0  0  0  0  0  0  0
   -2.6444    3.6102    0.5609 O   0  0  0  0  0  0  0  0  0  0  0  0
   -4.4652    4.1669   -1.0791 O   0  0  0  0  0  0  0  0  0  0  0  0
   -4.8716    5.0125   -0.8370 H   0  0  0  0  0  0  0  0  0  0  0  0
  1  4  1  0  0  0  0
  2  1  1  0  0  0  0
  3  2  1  0  0  0  0
  4 11  1  0  0  0  0
  4  5  2  0  0  0  0
  5 12  1  0  0  0  0
  6  5  1  0  0  0  0
  6  7  1  0  0  0  0
  8  7  1  0  0  0  0
  8 13  1  0  0  0  0
  8 15  1  0  0  0  0
  9  6  2  0  0  0  0
 10  1  2  0  0  0  0
 10  9  1  0  0  0  0
 14  8  1  0  0  0  0
 16  9  1  0  0  0  0
 17 10  1  0  0  0  0
 18 21  2  0  0  0  0
 18 20  1  0  0  0  0
 19 18  2  0  0  0  0
 22 23  1  0  0  0  0
 22 18  1  0  0  0  0
M  RAD  3   2   2   3   3  20   2
M  END
