Coordinates from ORCA-job 4-MeOPhN2+~HSO4-_B3LYPG-6-31G_dp-NX-Scan-d89-09-n800
 OpenBabel11261921003D

 23 22  0  0  0  0  0  0  0  0999 V2000
   -1.8854   -0.6809   -0.2336 C   0  0  0  0  0  0  0  0  0  0  0  0
   -3.0706   -1.3087   -0.4489 N   0  0  0  0  0  0  0  0  0  0  0  0
   -4.0556   -1.8129   -0.6258 N   0  0  0  0  0  0  0  0  0  0  0  0
   -1.9244    0.6970    0.0913 C   0  0  0  0  0  0  0  0  0  0  0  0
   -0.7223    1.3354    0.2969 C   0  0  0  0  0  0  0  0  0  0  0  0
    0.4921    0.6248    0.1875 C   0  0  0  0  0  0  0  0  0  0  0  0
    1.5999    1.3349    0.4068 O   0  0  0  0  0  0  0  0  0  0  0  0
    2.8881    0.7172    0.3172 C   0  0  0  0  0  0  0  0  0  0  0  0
    0.5015   -0.7607   -0.1392 C   0  0  0  0  0  0  0  0  0  0  0  0
   -0.6857   -1.4235   -0.3535 C   0  0  0  0  0  0  0  0  0  0  0  0
   -2.8897    1.2289    0.1649 H   0  0  0  0  0  0  0  0  0  0  0  0
   -0.7434    2.3950    0.5330 H   0  0  0  0  0  0  0  0  0  0  0  0
    3.6037    1.5064    0.5435 H   0  0  0  0  0  0  0  0  0  0  0  0
    3.0713    0.3355   -0.6927 H   0  0  0  0  0  0  0  0  0  0  0  0
    2.9891   -0.0906    1.0497 H   0  0  0  0  0  0  0  0  0  0  0  0
    1.4329   -1.3048   -0.2251 H   0  0  0  0  0  0  0  0  0  0  0  0
   -0.7049   -2.4772   -0.6088 H   0  0  0  0  0  0  0  0  0  0  0  0
   -4.1254    3.4436    0.3855 S   0  0  0  0  0  0  0  0  0  0  0  0
   -4.4992    2.0151    0.1495 O   0  0  0  0  0  0  0  0  0  0  0  0
   -4.9624    4.1702    1.3532 O   0  0  0  0  0  0  0  0  0  0  0  0
   -2.6603    3.6073    0.5564 O   0  0  0  0  0  0  0  0  0  0  0  0
   -4.4824    4.1593   -1.0842 O   0  0  0  0  0  0  0  0  0  0  0  0
   -4.8886    5.0040   -0.8389 H   0  0  0  0  0  0  0  0  0  0  0  0
  1  4  1  0  0  0  0
  2  1  1  0  0  0  0
  3  2  1  0  0  0  0
  4 11  1  0  0  0  0
  4  5  2  0  0  0  0
  5 12  1  0  0  0  0
  6  5  1  0  0  0  0
  6  7  1  0  0  0  0
  8  7  1  0  0  0  0
  8 13  1  0  0  0  0
  8 15  1  0  0  0  0
  9  6  2  0  0  0  0
 10  1  2  0  0  0  0
 10  9  1  0  0  0  0
 14  8  1  0  0  0  0
 16  9  1  0  0  0  0
 17 10  1  0  0  0  0
 18 21  2  0  0  0  0
 18 20  1  0  0  0  0
 19 18  2  0  0  0  0
 22 23  1  0  0  0  0
 22 18  1  0  0  0  0
M  RAD  3   2   2   3   3  20   2
M  END
