Coordinates from ORCA-job 4-MeOPhN2+~HSO4-_B3LYPG-6-31G_dp-NX-Scan-d89-09-n800
 OpenBabel11261921003D

 23 22  0  0  0  0  0  0  0  0999 V2000
   -1.6658    0.1536   -0.4972 C   0  0  0  0  0  0  0  0  0  0  0  0
   -2.9428   -0.1497   -0.9313 N   0  0  0  0  0  0  0  0  0  0  0  0
   -4.0260    0.0105   -1.2260 N   0  0  0  0  0  0  0  0  0  0  0  0
   -1.4414    1.3742    0.1761 C   0  0  0  0  0  0  0  0  0  0  0  0
   -0.1549    1.6414    0.5977 C   0  0  0  0  0  0  0  0  0  0  0  0
    0.8936    0.7282    0.3557 C   0  0  0  0  0  0  0  0  0  0  0  0
    2.1022    1.1055    0.8053 O   0  0  0  0  0  0  0  0  0  0  0  0
    3.2241    0.2411    0.6171 C   0  0  0  0  0  0  0  0  0  0  0  0
    0.6408   -0.4892   -0.3097 C   0  0  0  0  0  0  0  0  0  0  0  0
   -0.6471   -0.7819   -0.7278 C   0  0  0  0  0  0  0  0  0  0  0  0
   -2.2774    2.0429    0.3832 H   0  0  0  0  0  0  0  0  0  0  0  0
    0.0734    2.5588    1.1286 H   0  0  0  0  0  0  0  0  0  0  0  0
    4.0731    0.7624    1.0579 H   0  0  0  0  0  0  0  0  0  0  0  0
    3.4150    0.0667   -0.4475 H   0  0  0  0  0  0  0  0  0  0  0  0
    3.0769   -0.7156    1.1298 H   0  0  0  0  0  0  0  0  0  0  0  0
    1.4351   -1.2003   -0.4964 H   0  0  0  0  0  0  0  0  0  0  0  0
   -0.8685   -1.7133   -1.2375 H   0  0  0  0  0  0  0  0  0  0  0  0
   -5.0750    2.4115    0.0725 S   0  0  0  0  0  0  0  0  0  0  0  0
   -6.1748    1.4960    0.3619 O   0  0  0  0  0  0  0  0  0  0  0  0
   -4.0710    2.6306    1.1441 O   0  0  0  0  0  0  0  0  0  0  0  0
   -4.3812    2.1236   -1.2488 O   0  0  0  0  0  0  0  0  0  0  0  0
   -5.7672    3.8917   -0.1687 O   0  0  0  0  0  0  0  0  0  0  0  0
   -5.1627    4.5265    0.2459 H   0  0  0  0  0  0  0  0  0  0  0  0
  1  4  1  0  0  0  0
  2  1  1  0  0  0  0
  3  2  1  0  0  0  0
  4 11  1  0  0  0  0
  4  5  2  0  0  0  0
  5 12  1  0  0  0  0
  6  5  1  0  0  0  0
  6  7  1  0  0  0  0
  8  7  1  0  0  0  0
  8 13  1  0  0  0  0
  8 15  1  0  0  0  0
  9  6  2  0  0  0  0
 10  1  2  0  0  0  0
 10  9  1  0  0  0  0
 14  8  1  0  0  0  0
 16  9  1  0  0  0  0
 17 10  1  0  0  0  0
 18 19  2  0  0  0  0
 18 20  1  0  0  0  0
 21 18  2  0  0  0  0
 22 18  1  0  0  0  0
 22 23  1  0  0  0  0
M  RAD  3   2   2   3   3  20   2
M  END
