Coordinates from ORCA-job 4-MeOPhN2+~HSO4-_B3LYPG-6-31G_dp-NX-Scan-d89-09-n800
 OpenBabel11261921003D

 23 23  0  0  0  0  0  0  0  0999 V2000
   -1.4748    0.6563   -0.5954 C   0  0  0  0  0  0  0  0  0  0  0  0
   -2.7025    0.6216   -1.2549 N   0  0  0  0  0  0  0  0  0  0  0  0
   -3.7866    1.0679   -1.2118 N   0  0  0  0  0  0  0  0  0  0  0  0
   -1.2154    1.4418    0.5513 C   0  0  0  0  0  0  0  0  0  0  0  0
    0.0432    1.3930    1.1178 C   0  0  0  0  0  0  0  0  0  0  0  0
    1.0548    0.5787    0.5681 C   0  0  0  0  0  0  0  0  0  0  0  0
    2.2405    0.6177    1.2080 O   0  0  0  0  0  0  0  0  0  0  0  0
    3.3195   -0.1780    0.7213 C   0  0  0  0  0  0  0  0  0  0  0  0
    0.7908   -0.2004   -0.5724 C   0  0  0  0  0  0  0  0  0  0  0  0
   -0.4720   -0.1557   -1.1459 C   0  0  0  0  0  0  0  0  0  0  0  0
   -1.9965    2.0632    0.9666 H   0  0  0  0  0  0  0  0  0  0  0  0
    0.2784    1.9805    1.9984 H   0  0  0  0  0  0  0  0  0  0  0  0
    4.1558    0.0160    1.3927 H   0  0  0  0  0  0  0  0  0  0  0  0
    3.5978    0.1101   -0.2990 H   0  0  0  0  0  0  0  0  0  0  0  0
    3.0700   -1.2452    0.7475 H   0  0  0  0  0  0  0  0  0  0  0  0
    1.5544   -0.8307   -1.0096 H   0  0  0  0  0  0  0  0  0  0  0  0
   -0.6993   -0.7466   -2.0266 H   0  0  0  0  0  0  0  0  0  0  0  0
   -5.4738    2.5638    0.3510 S   0  0  0  0  0  0  0  0  0  0  0  0
   -5.5205    3.6335    1.3296 O   0  0  0  0  0  0  0  0  0  0  0  0
   -3.9530    2.2004    0.1266 O   0  0  0  0  0  0  0  0  0  0  0  0
   -6.2838    1.3577    0.4893 O   0  0  0  0  0  0  0  0  0  0  0  0
   -5.8882    3.2314   -1.0897 O   0  0  0  0  0  0  0  0  0  0  0  0
   -6.3606    2.5380   -1.5782 H   0  0  0  0  0  0  0  0  0  0  0  0
  1  4  1  0  0  0  0
  2  3  1  0  0  0  0
  2  1  1  0  0  0  0
  3 20  1  0  0  0  0
  4 11  1  0  0  0  0
  4  5  2  0  0  0  0
  5 12  1  0  0  0  0
  6  5  1  0  0  0  0
  6  7  1  0  0  0  0
  8 15  1  0  0  0  0
  8  7  1  0  0  0  0
  8 13  1  0  0  0  0
  9  6  2  0  0  0  0
 10  1  2  0  0  0  0
 10  9  1  0  0  0  0
 14  8  1  0  0  0  0
 16  9  1  0  0  0  0
 17 10  1  0  0  0  0
 18 21  2  0  0  0  0
 18 19  2  0  0  0  0
 20 18  1  0  0  0  0
 22 18  1  0  0  0  0
 23 22  1  0  0  0  0
M  RAD  2   2   2   3   2
M  END
