Coordinates from ORCA-job 4-MeOPhN2+~HSO4-_B3LYPG-6-31G_dp-NX-Scan-d89-09-n800
 OpenBabel11261921003D

 23 22  0  0  0  0  0  0  0  0999 V2000
   -1.5201    0.8056   -0.5888 C   0  0  0  0  0  0  0  0  0  0  0  0
   -2.7070    0.8489   -1.3463 N   0  0  0  0  0  0  0  0  0  0  0  0
   -3.7446    1.4565   -0.8722 N   0  0  0  0  0  0  0  0  0  0  0  0
   -1.2625    1.3376    0.6972 C   0  0  0  0  0  0  0  0  0  0  0  0
   -0.0111    1.1831    1.2759 C   0  0  0  0  0  0  0  0  0  0  0  0
    1.0184    0.5043    0.6064 C   0  0  0  0  0  0  0  0  0  0  0  0
    2.2015    0.4179    1.2712 O   0  0  0  0  0  0  0  0  0  0  0  0
    3.2835   -0.2556    0.6428 C   0  0  0  0  0  0  0  0  0  0  0  0
    0.7768   -0.0288   -0.6680 C   0  0  0  0  0  0  0  0  0  0  0  0
   -0.4780    0.1263   -1.2451 C   0  0  0  0  0  0  0  0  0  0  0  0
   -2.0271    1.8663    1.2466 H   0  0  0  0  0  0  0  0  0  0  0  0
    0.1951    1.5860    2.2617 H   0  0  0  0  0  0  0  0  0  0  0  0
    4.1199   -0.1960    1.3407 H   0  0  0  0  0  0  0  0  0  0  0  0
    3.5655    0.2272   -0.3011 H   0  0  0  0  0  0  0  0  0  0  0  0
    3.0461   -1.3095    0.4514 H   0  0  0  0  0  0  0  0  0  0  0  0
    1.5505   -0.5581   -1.2108 H   0  0  0  0  0  0  0  0  0  0  0  0
   -0.6803   -0.2797   -2.2304 H   0  0  0  0  0  0  0  0  0  0  0  0
   -6.0967    2.8882    0.2518 S   0  0  0  0  0  0  0  0  0  0  0  0
   -5.6702    4.2726    0.3482 O   0  0  0  0  0  0  0  0  0  0  0  0
   -3.9101    1.9774    0.0480 O   0  0  0  0  0  0  0  0  0  0  0  0
   -6.4546    2.1415    1.4443 O   0  0  0  0  0  0  0  0  0  0  0  0
   -6.3958    2.3225   -1.0636 O   0  0  0  0  0  0  0  0  0  0  0  0
   -4.5207    1.3807   -1.5750 H   0  0  0  0  0  0  0  0  0  0  0  0
  1  4  2  0  0  0  0
  2  3  1  0  0  0  0
  2  1  1  0  0  0  0
  3 20  1  0  0  0  0
  4 11  1  0  0  0  0
  4  5  1  0  0  0  0
  5 12  1  0  0  0  0
  6  7  1  0  0  0  0
  6  5  2  0  0  0  0
  8  7  1  0  0  0  0
  8 13  1  0  0  0  0
  9  6  1  0  0  0  0
 10  9  2  0  0  0  0
 10  1  1  0  0  0  0
 14  8  1  0  0  0  0
 15  8  1  0  0  0  0
 16  9  1  0  0  0  0
 17 10  1  0  0  0  0
 18 19  2  0  0  0  0
 18 21  1  0  0  0  0
 22 18  1  0  0  0  0
 23  3  1  0  0  0  0
M  RAD  4   2   2  20   2  21   2  22   2
M  END
