Coordinates from ORCA-job 4-MeOPhN2+~HSO4-_B3LYPG-6-31G_dp-NX-Scan-d89-09-n800
 OpenBabel11261921003D

 23 22  0  0  0  0  0  0  0  0999 V2000
   -1.6628    0.1627   -0.5166 C   0  0  0  0  0  0  0  0  0  0  0  0
   -2.9382   -0.1348   -0.9609 N   0  0  0  0  0  0  0  0  0  0  0  0
   -4.0203    0.0354   -1.2554 N   0  0  0  0  0  0  0  0  0  0  0  0
   -1.4360    1.3802    0.1618 C   0  0  0  0  0  0  0  0  0  0  0  0
   -0.1509    1.6386    0.5934 C   0  0  0  0  0  0  0  0  0  0  0  0
    0.8942    0.7204    0.3564 C   0  0  0  0  0  0  0  0  0  0  0  0
    2.1017    1.0893    0.8162 O   0  0  0  0  0  0  0  0  0  0  0  0
    3.2199    0.2193    0.6330 C   0  0  0  0  0  0  0  0  0  0  0  0
    0.6395   -0.4932   -0.3151 C   0  0  0  0  0  0  0  0  0  0  0  0
   -0.6471   -0.7771   -0.7433 C   0  0  0  0  0  0  0  0  0  0  0  0
   -2.2651    2.0590    0.3632 H   0  0  0  0  0  0  0  0  0  0  0  0
    0.0780    2.5536    1.1283 H   0  0  0  0  0  0  0  0  0  0  0  0
    4.0685    0.7336    1.0827 H   0  0  0  0  0  0  0  0  0  0  0  0
    3.4181    0.0483   -0.4309 H   0  0  0  0  0  0  0  0  0  0  0  0
    3.0631   -0.7389    1.1401 H   0  0  0  0  0  0  0  0  0  0  0  0
    1.4310   -1.2081   -0.4989 H   0  0  0  0  0  0  0  0  0  0  0  0
   -0.8700   -1.7055   -1.2577 H   0  0  0  0  0  0  0  0  0  0  0  0
   -5.0363    2.4268    0.1020 S   0  0  0  0  0  0  0  0  0  0  0  0
   -6.0352    1.4254    0.4677 O   0  0  0  0  0  0  0  0  0  0  0  0
   -4.0209    2.7812    1.1242 O   0  0  0  0  0  0  0  0  0  0  0  0
   -4.3665    2.1441   -1.2326 O   0  0  0  0  0  0  0  0  0  0  0  0
   -5.8718    3.8249   -0.1688 O   0  0  0  0  0  0  0  0  0  0  0  0
   -5.3147    4.5297    0.1961 H   0  0  0  0  0  0  0  0  0  0  0  0
  1  4  1  0  0  0  0
  2  1  1  0  0  0  0
  3  2  1  0  0  0  0
  4 11  1  0  0  0  0
  4  5  2  0  0  0  0
  5 12  1  0  0  0  0
  6  5  1  0  0  0  0
  6  7  1  0  0  0  0
  8  7  1  0  0  0  0
  8 13  1  0  0  0  0
  8 15  1  0  0  0  0
  9  6  2  0  0  0  0
 10  1  2  0  0  0  0
 10  9  1  0  0  0  0
 14  8  1  0  0  0  0
 16  9  1  0  0  0  0
 17 10  1  0  0  0  0
 18 19  2  0  0  0  0
 18 20  1  0  0  0  0
 21 18  2  0  0  0  0
 22 18  1  0  0  0  0
 22 23  1  0  0  0  0
M  RAD  3   2   2   3   3  20   2
M  END
