Coordinates from ORCA-job 4-MeOPhN2+~HSO4-_B3LYPG-6-31G_dp-NX-Scan-d89-09-n800
 OpenBabel11261921003D

 23 23  0  0  0  0  0  0  0  0999 V2000
   -1.5530    0.7560   -0.5606 C   0  0  0  0  0  0  0  0  0  0  0  0
   -2.7560    0.7033   -1.2868 N   0  0  0  0  0  0  0  0  0  0  0  0
   -3.8382    1.2459   -1.0694 N   0  0  0  0  0  0  0  0  0  0  0  0
   -1.2495    1.4785    0.6205 C   0  0  0  0  0  0  0  0  0  0  0  0
    0.0147    1.3876    1.1746 C   0  0  0  0  0  0  0  0  0  0  0  0
    1.0106    0.5868    0.5849 C   0  0  0  0  0  0  0  0  0  0  0  0
    2.2061    0.5801    1.2180 O   0  0  0  0  0  0  0  0  0  0  0  0
    3.2638   -0.2064    0.6793 C   0  0  0  0  0  0  0  0  0  0  0  0
    0.7222   -0.1330   -0.5848 C   0  0  0  0  0  0  0  0  0  0  0  0
   -0.5468   -0.0384   -1.1401 C   0  0  0  0  0  0  0  0  0  0  0  0
   -1.9909    2.1021    1.0953 H   0  0  0  0  0  0  0  0  0  0  0  0
    0.2640    1.9333    2.0782 H   0  0  0  0  0  0  0  0  0  0  0  0
    4.1141   -0.0579    1.3454 H   0  0  0  0  0  0  0  0  0  0  0  0
    3.5327    0.1229   -0.3314 H   0  0  0  0  0  0  0  0  0  0  0  0
    2.9998   -1.2707    0.6577 H   0  0  0  0  0  0  0  0  0  0  0  0
    1.4699   -0.7557   -1.0600 H   0  0  0  0  0  0  0  0  0  0  0  0
   -0.7918   -0.5832   -2.0454 H   0  0  0  0  0  0  0  0  0  0  0  0
   -5.4824    2.5389    0.3414 S   0  0  0  0  0  0  0  0  0  0  0  0
   -5.3851    3.7520    1.1139 O   0  0  0  0  0  0  0  0  0  0  0  0
   -3.8915    2.0687    0.0628 O   0  0  0  0  0  0  0  0  0  0  0  0
   -6.2205    1.3723    0.7791 O   0  0  0  0  0  0  0  0  0  0  0  0
   -5.9161    2.9472   -1.1564 O   0  0  0  0  0  0  0  0  0  0  0  0
   -5.6977    2.1848   -1.7312 H   0  0  0  0  0  0  0  0  0  0  0  0
  1  4  2  0  0  0  0
  2  3  2  0  0  0  0
  2  1  1  0  0  0  0
  3 20  1  0  0  0  0
  4 11  1  0  0  0  0
  4  5  1  0  0  0  0
  5 12  1  0  0  0  0
  6  5  2  0  0  0  0
  6  7  1  0  0  0  0
  8  7  1  0  0  0  0
  8 13  1  0  0  0  0
  9  6  1  0  0  0  0
 10  9  2  0  0  0  0
 10  1  1  0  0  0  0
 14  8  1  0  0  0  0
 15  8  1  0  0  0  0
 16  9  1  0  0  0  0
 17 10  1  0  0  0  0
 18 21  2  0  0  0  0
 18 19  2  0  0  0  0
 20 18  1  0  0  0  0
 22 18  1  0  0  0  0
 23 22  1  0  0  0  0
M  END
