Coordinates from ORCA-job 4-MeOPhN2+~HSO4-_B3LYPG-6-31G_dp-NX-Scan-d89-09-n800
 OpenBabel11261921003D

 23 22  0  0  0  0  0  0  0  0999 V2000
   -1.8993   -0.1796   -0.0722 C   0  0  0  0  0  0  0  0  0  0  0  0
   -3.1651   -0.6391   -0.3304 N   0  0  0  0  0  0  0  0  0  0  0  0
   -4.0946   -1.2003   -0.6007 N   0  0  0  0  0  0  0  0  0  0  0  0
   -1.6914    1.0307    0.6205 C   0  0  0  0  0  0  0  0  0  0  0  0
   -0.3886    1.4225    0.8431 C   0  0  0  0  0  0  0  0  0  0  0  0
    0.6916    0.6364    0.3952 C   0  0  0  0  0  0  0  0  0  0  0  0
    1.9111    1.1147    0.6673 O   0  0  0  0  0  0  0  0  0  0  0  0
    3.0731    0.4008    0.2350 C   0  0  0  0  0  0  0  0  0  0  0  0
    0.4576   -0.5767   -0.3003 C   0  0  0  0  0  0  0  0  0  0  0  0
   -0.8364   -0.9887   -0.5384 C   0  0  0  0  0  0  0  0  0  0  0  0
   -2.5336    1.6495    0.9155 H   0  0  0  0  0  0  0  0  0  0  0  0
   -0.1878    2.3606    1.3473 H   0  0  0  0  0  0  0  0  0  0  0  0
    3.9214    0.9976    0.5676 H   0  0  0  0  0  0  0  0  0  0  0  0
    3.0951    0.3086   -0.8563 H   0  0  0  0  0  0  0  0  0  0  0  0
    3.1204   -0.5908    0.6970 H   0  0  0  0  0  0  0  0  0  0  0  0
    1.2793   -1.1858   -0.6530 H   0  0  0  0  0  0  0  0  0  0  0  0
   -1.0388   -1.9108   -1.0723 H   0  0  0  0  0  0  0  0  0  0  0  0
   -4.4732    3.1410    0.1993 S   0  0  0  0  0  0  0  0  0  0  0  0
   -4.5997    1.6495    0.2381 O   0  0  0  0  0  0  0  0  0  0  0  0
   -5.5428    3.9217    0.8456 O   0  0  0  0  0  0  0  0  0  0  0  0
   -3.0922    3.5723    0.5392 O   0  0  0  0  0  0  0  0  0  0  0  0
   -4.6561    3.4531   -1.4336 O   0  0  0  0  0  0  0  0  0  0  0  0
   -5.0715    4.3281   -1.4686 H   0  0  0  0  0  0  0  0  0  0  0  0
  1  4  2  0  0  0  0
  2  1  1  0  0  0  0
  3  2  1  0  0  0  0
  4  5  1  0  0  0  0
  4 11  1  0  0  0  0
  5 12  1  0  0  0  0
  6  7  1  0  0  0  0
  6  5  2  0  0  0  0
  8 13  1  0  0  0  0
  8  7  1  0  0  0  0
  8 15  1  0  0  0  0
  9  6  1  0  0  0  0
 10  9  2  0  0  0  0
 10  1  1  0  0  0  0
 14  8  1  0  0  0  0
 16  9  1  0  0  0  0
 17 10  1  0  0  0  0
 18 19  2  0  0  0  0
 18 21  2  0  0  0  0
 18 20  1  0  0  0  0
 22 18  1  0  0  0  0
 23 22  1  0  0  0  0
M  RAD  3   2   2   3   3  20   2
M  END
