Coordinates from ORCA-job 4-MeOPhN2+~HSO4-_B3LYPG-6-31G_dp-NX-Scan-d89-09-n800
 OpenBabel11261921003D

 23 22  0  0  0  0  0  0  0  0999 V2000
   -1.7521    0.3212   -0.5816 C   0  0  0  0  0  0  0  0  0  0  0  0
   -3.0367    0.0619   -1.0078 N   0  0  0  0  0  0  0  0  0  0  0  0
   -3.9620   -0.3498   -1.4808 N   0  0  0  0  0  0  0  0  0  0  0  0
   -1.3278    1.6415   -0.3271 C   0  0  0  0  0  0  0  0  0  0  0  0
   -0.0127    1.8178    0.0469 C   0  0  0  0  0  0  0  0  0  0  0  0
    0.8613    0.7183    0.1870 C   0  0  0  0  0  0  0  0  0  0  0  0
    2.1107    1.0183    0.5670 O   0  0  0  0  0  0  0  0  0  0  0  0
    3.0675   -0.0282    0.7500 C   0  0  0  0  0  0  0  0  0  0  0  0
    0.4062   -0.5944   -0.0683 C   0  0  0  0  0  0  0  0  0  0  0  0
   -0.9043   -0.7965   -0.4597 C   0  0  0  0  0  0  0  0  0  0  0  0
   -2.0322    2.4753   -0.4181 H   0  0  0  0  0  0  0  0  0  0  0  0
    0.3697    2.8102    0.2579 H   0  0  0  0  0  0  0  0  0  0  0  0
    3.9880    0.4675    1.0553 H   0  0  0  0  0  0  0  0  0  0  0  0
    3.2388   -0.5743   -0.1844 H   0  0  0  0  0  0  0  0  0  0  0  0
    2.7477   -0.7221    1.5348 H   0  0  0  0  0  0  0  0  0  0  0  0
    1.0635   -1.4477    0.0383 H   0  0  0  0  0  0  0  0  0  0  0  0
   -1.2769   -1.7951   -0.6606 H   0  0  0  0  0  0  0  0  0  0  0  0
   -4.5018    2.8964    0.4858 S   0  0  0  0  0  0  0  0  0  0  0  0
   -4.0307    1.5056    0.7579 O   0  0  0  0  0  0  0  0  0  0  0  0
   -5.0246    3.6405    1.6389 O   0  0  0  0  0  0  0  0  0  0  0  0
   -3.5427    3.6457   -0.3717 O   0  0  0  0  0  0  0  0  0  0  0  0
   -5.8220    2.5944   -0.4944 O   0  0  0  0  0  0  0  0  0  0  0  0
   -6.3487    3.4085   -0.4807 H   0  0  0  0  0  0  0  0  0  0  0  0
  1 10  2  0  0  0  0
  1  4  1  0  0  0  0
  2  1  1  0  0  0  0
  3  2  1  0  0  0  0
  4  5  2  0  0  0  0
  5  6  1  0  0  0  0
  5 12  1  0  0  0  0
  6  7  1  0  0  0  0
  7  8  1  0  0  0  0
  8 13  1  0  0  0  0
  8 15  1  0  0  0  0
  9 16  1  0  0  0  0
  9  6  2  0  0  0  0
 10  9  1  0  0  0  0
 11  4  1  0  0  0  0
 14  8  1  0  0  0  0
 17 10  1  0  0  0  0
 18 19  2  0  0  0  0
 18 20  1  0  0  0  0
 21 18  2  0  0  0  0
 22 23  1  0  0  0  0
 22 18  1  0  0  0  0
M  RAD  3   2   2   3   3  20   2
M  END
