Coordinates from ORCA-job 4-MeOPhN2+~HSO4-_B3LYPG-6-31G_dp-NX-Scan-d89-09-n800
 OpenBabel11261921003D

 23 22  0  0  0  0  0  0  0  0999 V2000
   -1.7619    0.4715   -0.5484 C   0  0  0  0  0  0  0  0  0  0  0  0
   -3.0680    0.2956   -0.9474 N   0  0  0  0  0  0  0  0  0  0  0  0
   -4.0485    0.0100   -1.4005 N   0  0  0  0  0  0  0  0  0  0  0  0
   -1.2710    1.7670   -0.2825 C   0  0  0  0  0  0  0  0  0  0  0  0
    0.0559    1.8770    0.0723 C   0  0  0  0  0  0  0  0  0  0  0  0
    0.8772    0.7339    0.1861 C   0  0  0  0  0  0  0  0  0  0  0  0
    2.1455    0.9696    0.5505 O   0  0  0  0  0  0  0  0  0  0  0  0
    3.0514   -0.1240    0.7122 C   0  0  0  0  0  0  0  0  0  0  0  0
    0.3560   -0.5515   -0.0781 C   0  0  0  0  0  0  0  0  0  0  0  0
   -0.9693   -0.6859   -0.4520 C   0  0  0  0  0  0  0  0  0  0  0  0
   -1.9461    2.6228   -0.3620 H   0  0  0  0  0  0  0  0  0  0  0  0
    0.4910    2.8460    0.2888 H   0  0  0  0  0  0  0  0  0  0  0  0
    3.9991    0.3227    1.0099 H   0  0  0  0  0  0  0  0  0  0  0  0
    3.1838   -0.6697   -0.2286 H   0  0  0  0  0  0  0  0  0  0  0  0
    2.7077   -0.8085    1.4954 H   0  0  0  0  0  0  0  0  0  0  0  0
    0.9733   -1.4364    0.0073 H   0  0  0  0  0  0  0  0  0  0  0  0
   -1.3932   -1.6627   -0.6573 H   0  0  0  0  0  0  0  0  0  0  0  0
   -4.5102    2.8545    0.5369 S   0  0  0  0  0  0  0  0  0  0  0  0
   -3.8363    1.6431    1.0788 O   0  0  0  0  0  0  0  0  0  0  0  0
   -5.2268    3.6940    1.5005 O   0  0  0  0  0  0  0  0  0  0  0  0
   -3.6580    3.5876   -0.4413 O   0  0  0  0  0  0  0  0  0  0  0  0
   -5.6851    2.1190   -0.4222 O   0  0  0  0  0  0  0  0  0  0  0  0
   -6.1881    2.8395   -0.8336 H   0  0  0  0  0  0  0  0  0  0  0  0
  1 10  2  0  0  0  0
  1  4  1  0  0  0  0
  2  1  1  0  0  0  0
  3  2  1  0  0  0  0
  4  5  2  0  0  0  0
  5  6  1  0  0  0  0
  5 12  1  0  0  0  0
  6  7  1  0  0  0  0
  7  8  1  0  0  0  0
  8 13  1  0  0  0  0
  8 15  1  0  0  0  0
  9 16  1  0  0  0  0
  9  6  2  0  0  0  0
 10  9  1  0  0  0  0
 11  4  1  0  0  0  0
 14  8  1  0  0  0  0
 17 10  1  0  0  0  0
 18 19  2  0  0  0  0
 18 20  1  0  0  0  0
 21 18  2  0  0  0  0
 22 18  1  0  0  0  0
 23 22  1  0  0  0  0
M  RAD  3   2   2   3   3  20   2
M  END
