Coordinates from ORCA-job 4-MeOPhN2+~HSO4-_B3LYPG-6-31G_dp-NX-Scan-d89-09-n800
 OpenBabel11261921003D

 23 22  0  0  0  0  0  0  0  0999 V2000
   -1.7641    0.3165   -0.3153 C   0  0  0  0  0  0  0  0  0  0  0  0
   -3.0399    0.0609   -0.7678 N   0  0  0  0  0  0  0  0  0  0  0  0
   -4.0255   -0.2235   -1.2283 N   0  0  0  0  0  0  0  0  0  0  0  0
   -1.5276    1.3115    0.6559 C   0  0  0  0  0  0  0  0  0  0  0  0
   -0.2230    1.5227    1.0522 C   0  0  0  0  0  0  0  0  0  0  0  0
    0.8350    0.7718    0.4990 C   0  0  0  0  0  0  0  0  0  0  0  0
    2.0597    1.0728    0.9584 O   0  0  0  0  0  0  0  0  0  0  0  0
    3.1966    0.3671    0.4567 C   0  0  0  0  0  0  0  0  0  0  0  0
    0.5751   -0.2215   -0.4699 C   0  0  0  0  0  0  0  0  0  0  0  0
   -0.7267   -0.4517   -0.8773 C   0  0  0  0  0  0  0  0  0  0  0  0
   -2.3782    1.8515    1.0654 H   0  0  0  0  0  0  0  0  0  0  0  0
    0.0142    2.2732    1.7980 H   0  0  0  0  0  0  0  0  0  0  0  0
    4.0562    0.7944    0.9710 H   0  0  0  0  0  0  0  0  0  0  0  0
    3.3079    0.5134   -0.6236 H   0  0  0  0  0  0  0  0  0  0  0  0
    3.1294   -0.7025    0.6833 H   0  0  0  0  0  0  0  0  0  0  0  0
    1.3766   -0.8070   -0.9003 H   0  0  0  0  0  0  0  0  0  0  0  0
   -0.9498   -1.2088   -1.6216 H   0  0  0  0  0  0  0  0  0  0  0  0
   -5.1564    2.3090    0.2108 S   0  0  0  0  0  0  0  0  0  0  0  0
   -6.0776    3.3814    0.5890 O   0  0  0  0  0  0  0  0  0  0  0  0
   -4.3407    1.6899    1.2829 O   0  0  0  0  0  0  0  0  0  0  0  0
   -5.7227    1.2905   -0.7254 O   0  0  0  0  0  0  0  0  0  0  0  0
   -3.9457    3.0593   -0.6943 O   0  0  0  0  0  0  0  0  0  0  0  0
   -4.3944    3.7440   -1.2139 H   0  0  0  0  0  0  0  0  0  0  0  0
  1  4  2  0  0  0  0
  2  1  1  0  0  0  0
  3  2  1  0  0  0  0
  4  5  1  0  0  0  0
  4 11  1  0  0  0  0
  5 12  1  0  0  0  0
  6  7  1  0  0  0  0
  6  5  2  0  0  0  0
  8 15  1  0  0  0  0
  8  7  1  0  0  0  0
  8 13  1  0  0  0  0
  9  6  1  0  0  0  0
 10  9  2  0  0  0  0
 10  1  1  0  0  0  0
 14  8  1  0  0  0  0
 16  9  1  0  0  0  0
 17 10  1  0  0  0  0
 18 19  2  0  0  0  0
 18 20  1  0  0  0  0
 21 18  2  0  0  0  0
 22 18  1  0  0  0  0
 23 22  1  0  0  0  0
M  RAD  3   2   2   3   3  20   2
M  END
