Coordinates from ORCA-job 4-MeOPhN2+~HSO4-_B3LYPG-6-31G_dp-NX-Scan-d89-09-n800
 OpenBabel11261921003D

 23 22  0  0  0  0  0  0  0  0999 V2000
   -1.9558   -1.1825   -0.3266 C   0  0  0  0  0  0  0  0  0  0  0  0
   -2.9255   -2.0891   -0.5860 N   0  0  0  0  0  0  0  0  0  0  0  0
   -3.6920   -2.8815   -0.8129 N   0  0  0  0  0  0  0  0  0  0  0  0
   -2.2753    0.1641    0.0222 C   0  0  0  0  0  0  0  0  0  0  0  0
   -1.2344    1.0301    0.2615 C   0  0  0  0  0  0  0  0  0  0  0  0
    0.1044    0.5801    0.1630 C   0  0  0  0  0  0  0  0  0  0  0  0
    1.0322    1.4953    0.4161 O   0  0  0  0  0  0  0  0  0  0  0  0
    2.4244    1.1702    0.3391 C   0  0  0  0  0  0  0  0  0  0  0  0
    0.4064   -0.7657   -0.1843 C   0  0  0  0  0  0  0  0  0  0  0  0
   -0.6171   -1.6480   -0.4300 C   0  0  0  0  0  0  0  0  0  0  0  0
   -3.2907    0.5529    0.1040 H   0  0  0  0  0  0  0  0  0  0  0  0
   -1.4483    2.0849    0.5038 H   0  0  0  0  0  0  0  0  0  0  0  0
    2.9483    2.0930    0.5832 H   0  0  0  0  0  0  0  0  0  0  0  0
    2.6958    0.8490   -0.6716 H   0  0  0  0  0  0  0  0  0  0  0  0
    2.6863    0.3942    1.0659 H   0  0  0  0  0  0  0  0  0  0  0  0
    1.4305   -1.1088   -0.2608 H   0  0  0  0  0  0  0  0  0  0  0  0
   -0.4174   -2.6792   -0.6996 H   0  0  0  0  0  0  0  0  0  0  0  0
   -3.4673    3.8678    0.5664 S   0  0  0  0  0  0  0  0  0  0  0  0
   -4.0260    2.4963    0.6995 O   0  0  0  0  0  0  0  0  0  0  0  0
   -4.0861    4.9234    1.3888 O   0  0  0  0  0  0  0  0  0  0  0  0
   -1.9758    3.8665    0.5761 O   0  0  0  0  0  0  0  0  0  0  0  0
   -3.8859    4.2868   -1.0032 O   0  0  0  0  0  0  0  0  0  0  0  0
   -4.1523    5.2153   -0.9296 H   0  0  0  0  0  0  0  0  0  0  0  0
  1  4  1  0  0  0  0
  2  1  1  0  0  0  0
  3  2  1  0  0  0  0
  4 11  1  0  0  0  0
  4  5  2  0  0  0  0
  5 12  1  0  0  0  0
  6  5  1  0  0  0  0
  6  7  1  0  0  0  0
  8  7  1  0  0  0  0
  8 13  1  0  0  0  0
  8 15  1  0  0  0  0
  9  6  2  0  0  0  0
 10  1  2  0  0  0  0
 10  9  1  0  0  0  0
 14  8  1  0  0  0  0
 16  9  1  0  0  0  0
 17 10  1  0  0  0  0
 18 21  2  0  0  0  0
 18 19  2  0  0  0  0
 18 20  1  0  0  0  0
 22 23  1  0  0  0  0
 22 18  1  0  0  0  0
M  RAD  3   2   2   3   3  20   2
M  END
