Coordinates from ORCA-job 4-MeOPhN2+~HSO4-_B3LYPG-6-31G_dp-NX-Scan-d89-09-n800
 OpenBabel11261921003D

 23 22  0  0  0  0  0  0  0  0999 V2000
   -1.7563    0.3291   -0.3142 C   0  0  0  0  0  0  0  0  0  0  0  0
   -3.0337    0.0811   -0.7690 N   0  0  0  0  0  0  0  0  0  0  0  0
   -4.0040   -0.2137   -1.2544 N   0  0  0  0  0  0  0  0  0  0  0  0
   -1.5104    1.3414    0.6357 C   0  0  0  0  0  0  0  0  0  0  0  0
   -0.2042    1.5493    1.0290 C   0  0  0  0  0  0  0  0  0  0  0  0
    0.8468    0.7762    0.4939 C   0  0  0  0  0  0  0  0  0  0  0  0
    2.0741    1.0749    0.9482 O   0  0  0  0  0  0  0  0  0  0  0  0
    3.2042    0.3468    0.4636 C   0  0  0  0  0  0  0  0  0  0  0  0
    0.5778   -0.2352   -0.4537 C   0  0  0  0  0  0  0  0  0  0  0  0
   -0.7257   -0.4607   -0.8586 C   0  0  0  0  0  0  0  0  0  0  0  0
   -2.3557    1.8959    1.0344 H   0  0  0  0  0  0  0  0  0  0  0  0
    0.0392    2.3133    1.7589 H   0  0  0  0  0  0  0  0  0  0  0  0
    4.0676    0.7764    0.9696 H   0  0  0  0  0  0  0  0  0  0  0  0
    3.3181    0.4682   -0.6195 H   0  0  0  0  0  0  0  0  0  0  0  0
    3.1258   -0.7168    0.7134 H   0  0  0  0  0  0  0  0  0  0  0  0
    1.3738   -0.8379   -0.8704 H   0  0  0  0  0  0  0  0  0  0  0  0
   -0.9552   -1.2306   -1.5876 H   0  0  0  0  0  0  0  0  0  0  0  0
   -5.1719    2.2855    0.2001 S   0  0  0  0  0  0  0  0  0  0  0  0
   -6.1187    3.3079    0.6469 O   0  0  0  0  0  0  0  0  0  0  0  0
   -4.3215    1.6369    1.2283 O   0  0  0  0  0  0  0  0  0  0  0  0
   -5.7212    1.2958   -0.7742 O   0  0  0  0  0  0  0  0  0  0  0  0
   -3.9979    3.1172   -0.6785 O   0  0  0  0  0  0  0  0  0  0  0  0
   -4.4727    3.8141   -1.1572 H   0  0  0  0  0  0  0  0  0  0  0  0
  1  4  2  0  0  0  0
  2  1  1  0  0  0  0
  3  2  1  0  0  0  0
  4  5  1  0  0  0  0
  4 11  1  0  0  0  0
  5 12  1  0  0  0  0
  6  7  1  0  0  0  0
  6  5  2  0  0  0  0
  8 15  1  0  0  0  0
  8  7  1  0  0  0  0
  8 13  1  0  0  0  0
  9  6  1  0  0  0  0
 10  9  2  0  0  0  0
 10  1  1  0  0  0  0
 14  8  1  0  0  0  0
 16  9  1  0  0  0  0
 17 10  1  0  0  0  0
 18 19  2  0  0  0  0
 18 20  1  0  0  0  0
 21 18  2  0  0  0  0
 22 18  1  0  0  0  0
 23 22  1  0  0  0  0
M  RAD  3   2   2   3   3  20   2
M  END
