Coordinates from ORCA-job 4-MeOPhN2+~HSO4-_B3LYPG-6-31G_dp-NX-Scan-d89-09-n800
 OpenBabel11261921003D

 23 22  0  0  0  0  0  0  0  0999 V2000
   -1.8926   -0.7251   -0.2459 C   0  0  0  0  0  0  0  0  0  0  0  0
   -3.0593   -1.3834   -0.4659 N   0  0  0  0  0  0  0  0  0  0  0  0
   -4.0252   -1.9222   -0.6489 N   0  0  0  0  0  0  0  0  0  0  0  0
   -1.9574    0.6536    0.0761 C   0  0  0  0  0  0  0  0  0  0  0  0
   -0.7657    1.3111    0.2852 C   0  0  0  0  0  0  0  0  0  0  0  0
    0.4613    0.6213    0.1819 C   0  0  0  0  0  0  0  0  0  0  0  0
    1.5551    1.3514    0.4036 O   0  0  0  0  0  0  0  0  0  0  0  0
    2.8547    0.7573    0.3186 C   0  0  0  0  0  0  0  0  0  0  0  0
    0.4965   -0.7644   -0.1413 C   0  0  0  0  0  0  0  0  0  0  0  0
   -0.6785   -1.4467   -0.3585 C   0  0  0  0  0  0  0  0  0  0  0  0
   -2.9279    1.1802    0.1489 H   0  0  0  0  0  0  0  0  0  0  0  0
   -0.8082    2.3711    0.5194 H   0  0  0  0  0  0  0  0  0  0  0  0
    3.5550    1.5603    0.5440 H   0  0  0  0  0  0  0  0  0  0  0  0
    3.0470    0.3760   -0.6896 H   0  0  0  0  0  0  0  0  0  0  0  0
    2.9689   -0.0461    1.0540 H   0  0  0  0  0  0  0  0  0  0  0  0
    1.4373   -1.2933   -0.2216 H   0  0  0  0  0  0  0  0  0  0  0  0
   -0.6794   -2.5013   -0.6109 H   0  0  0  0  0  0  0  0  0  0  0  0
   -4.0770    3.4848    0.4125 S   0  0  0  0  0  0  0  0  0  0  0  0
   -4.4867    2.0607    0.2136 O   0  0  0  0  0  0  0  0  0  0  0  0
   -4.8982    4.2593    1.3564 O   0  0  0  0  0  0  0  0  0  0  0  0
   -2.6088    3.6176    0.5825 O   0  0  0  0  0  0  0  0  0  0  0  0
   -4.4104    4.1725   -1.0768 O   0  0  0  0  0  0  0  0  0  0  0  0
   -4.8219    5.0204   -0.8525 H   0  0  0  0  0  0  0  0  0  0  0  0
  1  4  1  0  0  0  0
  2  1  1  0  0  0  0
  3  2  1  0  0  0  0
  4 11  1  0  0  0  0
  4  5  2  0  0  0  0
  5 12  1  0  0  0  0
  6  5  1  0  0  0  0
  6  7  1  0  0  0  0
  8  7  1  0  0  0  0
  8 13  1  0  0  0  0
  8 15  1  0  0  0  0
  9  6  2  0  0  0  0
 10  1  2  0  0  0  0
 10  9  1  0  0  0  0
 14  8  1  0  0  0  0
 16  9  1  0  0  0  0
 17 10  1  0  0  0  0
 18 21  2  0  0  0  0
 18 20  1  0  0  0  0
 19 18  2  0  0  0  0
 22 23  1  0  0  0  0
 22 18  1  0  0  0  0
M  RAD  3   2   2   3   3  20   2
M  END
