Coordinates from ORCA-job 4-MeOPhN2+~HSO4-_B3LYPG-6-31G_dp-NX-Scan-d89-09-n800
 OpenBabel11261921003D

 23 22  0  0  0  0  0  0  0  0999 V2000
   -1.7444    0.1873   -0.6719 C   0  0  0  0  0  0  0  0  0  0  0  0
   -3.0034   -0.1350   -1.1184 N   0  0  0  0  0  0  0  0  0  0  0  0
   -3.9288   -0.5679   -1.5703 N   0  0  0  0  0  0  0  0  0  0  0  0
   -1.3756    1.5329   -0.4649 C   0  0  0  0  0  0  0  0  0  0  0  0
   -0.0811    1.7729   -0.0564 C   0  0  0  0  0  0  0  0  0  0  0  0
    0.8263    0.7137    0.1592 C   0  0  0  0  0  0  0  0  0  0  0  0
    2.0503    1.0743    0.5651 O   0  0  0  0  0  0  0  0  0  0  0  0
    3.0357    0.0725    0.8317 C   0  0  0  0  0  0  0  0  0  0  0  0
    0.4266   -0.6262   -0.0510 C   0  0  0  0  0  0  0  0  0  0  0  0
   -0.8614   -0.8935   -0.4727 C   0  0  0  0  0  0  0  0  0  0  0  0
   -2.1022    2.3446   -0.5944 H   0  0  0  0  0  0  0  0  0  0  0  0
    0.2543    2.7876    0.1268 H   0  0  0  0  0  0  0  0  0  0  0  0
    3.9258    0.6154    1.1466 H   0  0  0  0  0  0  0  0  0  0  0  0
    3.2614   -0.5089   -0.0691 H   0  0  0  0  0  0  0  0  0  0  0  0
    2.7103   -0.5955    1.6363 H   0  0  0  0  0  0  0  0  0  0  0  0
    1.1104   -1.4483    0.1161 H   0  0  0  0  0  0  0  0  0  0  0  0
   -1.1921   -1.9131   -0.6389 H   0  0  0  0  0  0  0  0  0  0  0  0
   -4.4473    2.9169    0.4656 S   0  0  0  0  0  0  0  0  0  0  0  0
   -4.1804    1.4476    0.4704 O   0  0  0  0  0  0  0  0  0  0  0  0
   -4.7901    3.5217    1.7626 O   0  0  0  0  0  0  0  0  0  0  0  0
   -3.4208    3.6528   -0.3236 O   0  0  0  0  0  0  0  0  0  0  0  0
   -5.8510    3.0150   -0.4311 O   0  0  0  0  0  0  0  0  0  0  0  0
   -6.3440    3.7484   -0.0328 H   0  0  0  0  0  0  0  0  0  0  0  0
  1 10  2  0  0  0  0
  1  4  1  0  0  0  0
  2  1  1  0  0  0  0
  3  2  1  0  0  0  0
  4  5  2  0  0  0  0
  5 12  1  0  0  0  0
  5  6  1  0  0  0  0
  6  7  1  0  0  0  0
  7  8  1  0  0  0  0
  8 13  1  0  0  0  0
  8 15  1  0  0  0  0
  9 16  1  0  0  0  0
  9  6  2  0  0  0  0
 10  9  1  0  0  0  0
 11  4  1  0  0  0  0
 14  8  1  0  0  0  0
 17 10  1  0  0  0  0
 18 19  2  0  0  0  0
 18 20  1  0  0  0  0
 21 18  2  0  0  0  0
 22 23  1  0  0  0  0
 22 18  1  0  0  0  0
M  RAD  3   2   2   3   3  20   2
M  END
