Coordinates from ORCA-job 4-MeOPhN2+~HSO4-_B3LYPG-6-31G_dp-NX-Scan-d89-09-n800
 OpenBabel11261921003D

 23 22  0  0  0  0  0  0  0  0999 V2000
   -1.8996   -0.7679   -0.2576 C   0  0  0  0  0  0  0  0  0  0  0  0
   -3.0480   -1.4549   -0.4825 N   0  0  0  0  0  0  0  0  0  0  0  0
   -3.9953   -2.0248   -0.6711 N   0  0  0  0  0  0  0  0  0  0  0  0
   -1.9888    0.6114    0.0632 C   0  0  0  0  0  0  0  0  0  0  0  0
   -0.8073    1.2873    0.2757 C   0  0  0  0  0  0  0  0  0  0  0  0
    0.4313    0.6178    0.1767 C   0  0  0  0  0  0  0  0  0  0  0  0
    1.5116    1.3662    0.4004 O   0  0  0  0  0  0  0  0  0  0  0  0
    2.8217    0.7950    0.3186 C   0  0  0  0  0  0  0  0  0  0  0  0
    0.4909   -0.7673   -0.1443 C   0  0  0  0  0  0  0  0  0  0  0  0
   -0.6719   -1.4684   -0.3644 C   0  0  0  0  0  0  0  0  0  0  0  0
   -2.9633    1.1335    0.1356 H   0  0  0  0  0  0  0  0  0  0  0  0
   -0.8711    2.3471    0.5102 H   0  0  0  0  0  0  0  0  0  0  0  0
    3.5073    1.6109    0.5426 H   0  0  0  0  0  0  0  0  0  0  0  0
    3.0219    0.4144   -0.6885 H   0  0  0  0  0  0  0  0  0  0  0  0
    2.9491   -0.0043    1.0563 H   0  0  0  0  0  0  0  0  0  0  0  0
    1.4404   -1.2812   -0.2205 H   0  0  0  0  0  0  0  0  0  0  0  0
   -0.6547   -2.5233   -0.6147 H   0  0  0  0  0  0  0  0  0  0  0  0
   -4.0305    3.5265    0.4409 S   0  0  0  0  0  0  0  0  0  0  0  0
   -4.4655    2.1052    0.2788 O   0  0  0  0  0  0  0  0  0  0  0  0
   -4.8464    4.3447    1.3528 O   0  0  0  0  0  0  0  0  0  0  0  0
   -2.5619    3.6393    0.6207 O   0  0  0  0  0  0  0  0  0  0  0  0
   -4.3353    4.1792   -1.0710 O   0  0  0  0  0  0  0  0  0  0  0  0
   -4.7560    5.0292   -0.8731 H   0  0  0  0  0  0  0  0  0  0  0  0
  1  4  1  0  0  0  0
  2  1  1  0  0  0  0
  3  2  1  0  0  0  0
  4 11  1  0  0  0  0
  4  5  2  0  0  0  0
  5 12  1  0  0  0  0
  6  5  1  0  0  0  0
  6  7  1  0  0  0  0
  8  7  1  0  0  0  0
  8 13  1  0  0  0  0
  8 15  1  0  0  0  0
  9  6  2  0  0  0  0
 10  1  2  0  0  0  0
 10  9  1  0  0  0  0
 14  8  1  0  0  0  0
 16  9  1  0  0  0  0
 17 10  1  0  0  0  0
 18 21  2  0  0  0  0
 18 20  1  0  0  0  0
 19 18  2  0  0  0  0
 22 23  1  0  0  0  0
 22 18  1  0  0  0  0
M  RAD  3   2   2   3   3  20   2
M  END
