Coordinates from ORCA-job 4-MeOPhN2+~HSO4-_B3LYPG-6-31G_dp-NX-Scan-d89-09-n800
 OpenBabel11261921003D

 23 22  0  0  0  0  0  0  0  0999 V2000
   -1.7498    0.5959   -0.4675 C   0  0  0  0  0  0  0  0  0  0  0  0
   -3.0706    0.4801   -0.8402 N   0  0  0  0  0  0  0  0  0  0  0  0
   -4.0930    0.2691   -1.2394 N   0  0  0  0  0  0  0  0  0  0  0  0
   -1.2117    1.8554   -0.1340 C   0  0  0  0  0  0  0  0  0  0  0  0
    0.1240    1.9077    0.2016 C   0  0  0  0  0  0  0  0  0  0  0  0
    0.9132    0.7375    0.2268 C   0  0  0  0  0  0  0  0  0  0  0  0
    2.1960    0.9147    0.5773 O   0  0  0  0  0  0  0  0  0  0  0  0
    3.0727   -0.2116    0.6445 C   0  0  0  0  0  0  0  0  0  0  0  0
    0.3489   -0.5124   -0.1062 C   0  0  0  0  0  0  0  0  0  0  0  0
   -0.9875   -0.5850   -0.4599 C   0  0  0  0  0  0  0  0  0  0  0  0
   -1.8641    2.7248   -0.1692 H   0  0  0  0  0  0  0  0  0  0  0  0
    0.5924    2.8493    0.4642 H   0  0  0  0  0  0  0  0  0  0  0  0
    4.0399    0.1880    0.9469 H   0  0  0  0  0  0  0  0  0  0  0  0
    3.1673   -0.6977   -0.3326 H   0  0  0  0  0  0  0  0  0  0  0  0
    2.7279   -0.9367    1.3899 H   0  0  0  0  0  0  0  0  0  0  0  0
    0.9418   -1.4178   -0.0910 H   0  0  0  0  0  0  0  0  0  0  0  0
   -1.4430   -1.5347   -0.7176 H   0  0  0  0  0  0  0  0  0  0  0  0
   -4.5679    2.8293    0.4437 S   0  0  0  0  0  0  0  0  0  0  0  0
   -3.8577    1.8150    1.2565 O   0  0  0  0  0  0  0  0  0  0  0  0
   -5.3438    3.8358    1.1553 O   0  0  0  0  0  0  0  0  0  0  0  0
   -3.7429    3.3272   -0.6946 O   0  0  0  0  0  0  0  0  0  0  0  0
   -5.7238    1.8513   -0.3224 O   0  0  0  0  0  0  0  0  0  0  0  0
   -6.1898    2.4300   -0.9473 H   0  0  0  0  0  0  0  0  0  0  0  0
  1 10  2  0  0  0  0
  1  4  1  0  0  0  0
  2  1  1  0  0  0  0
  3  2  1  0  0  0  0
  4  5  2  0  0  0  0
  5  6  1  0  0  0  0
  5 12  1  0  0  0  0
  6  7  1  0  0  0  0
  7  8  1  0  0  0  0
  8 13  1  0  0  0  0
  8 15  1  0  0  0  0
  9 16  1  0  0  0  0
  9  6  2  0  0  0  0
 10  9  1  0  0  0  0
 11  4  1  0  0  0  0
 14  8  1  0  0  0  0
 17 10  1  0  0  0  0
 18 20  2  0  0  0  0
 18 19  1  0  0  0  0
 21 18  2  0  0  0  0
 22 18  1  0  0  0  0
 23 22  1  0  0  0  0
M  RAD  3   2   2   3   3  19   2
M  END
