Coordinates from ORCA-job 4-MeOPhN2+~HSO4-_B3LYPG-6-31G_dp-NX-Scan-d89-09-n800
 OpenBabel11261921003D

 23 22  0  0  0  0  0  0  0  0999 V2000
   -1.6727    0.3650   -0.1973 C   0  0  0  0  0  0  0  0  0  0  0  0
   -3.0072    0.0387   -0.3587 N   0  0  0  0  0  0  0  0  0  0  0  0
   -3.9892   -0.4988   -0.4646 N   0  0  0  0  0  0  0  0  0  0  0  0
   -1.2765    1.6803    0.1110 C   0  0  0  0  0  0  0  0  0  0  0  0
    0.0690    1.9242    0.2974 C   0  0  0  0  0  0  0  0  0  0  0  0
    1.0165    0.8869    0.1760 C   0  0  0  0  0  0  0  0  0  0  0  0
    2.2953    1.2442    0.3759 O   0  0  0  0  0  0  0  0  0  0  0  0
    3.3267    0.2615    0.2700 C   0  0  0  0  0  0  0  0  0  0  0  0
    0.5997   -0.4241   -0.1373 C   0  0  0  0  0  0  0  0  0  0  0  0
   -0.7468   -0.6873   -0.3205 C   0  0  0  0  0  0  0  0  0  0  0  0
   -2.0384    2.4509    0.1640 H   0  0  0  0  0  0  0  0  0  0  0  0
    0.4241    2.9202    0.5364 H   0  0  0  0  0  0  0  0  0  0  0  0
    4.2578    0.7912    0.4689 H   0  0  0  0  0  0  0  0  0  0  0  0
    3.3604   -0.1699   -0.7363 H   0  0  0  0  0  0  0  0  0  0  0  0
    3.1933   -0.5339    1.0116 H   0  0  0  0  0  0  0  0  0  0  0  0
    1.3142   -1.2310   -0.2359 H   0  0  0  0  0  0  0  0  0  0  0  0
   -1.0880   -1.6890   -0.5584 H   0  0  0  0  0  0  0  0  0  0  0  0
   -5.2133    2.4281   -0.3497 S   0  0  0  0  0  0  0  0  0  0  0  0
   -6.1079    3.4502   -0.8951 O   0  0  0  0  0  0  0  0  0  0  0  0
   -5.7624    1.0415   -0.3461 O   0  0  0  0  0  0  0  0  0  0  0  0
   -3.8049    2.4487   -0.8321 O   0  0  0  0  0  0  0  0  0  0  0  0
   -5.0091    2.8287    1.2587 O   0  0  0  0  0  0  0  0  0  0  0  0
   -5.8622    3.1886    1.5467 H   0  0  0  0  0  0  0  0  0  0  0  0
  1  4  1  0  0  0  0
  2  1  1  0  0  0  0
  3  2  1  0  0  0  0
  4 11  1  0  0  0  0
  4  5  2  0  0  0  0
  5 12  1  0  0  0  0
  6  5  1  0  0  0  0
  6  7  1  0  0  0  0
  8  7  1  0  0  0  0
  8 13  1  0  0  0  0
  8 15  1  0  0  0  0
  9  6  2  0  0  0  0
 10  1  2  0  0  0  0
 10  9  1  0  0  0  0
 14  8  1  0  0  0  0
 16  9  1  0  0  0  0
 17 10  1  0  0  0  0
 18 20  1  0  0  0  0
 18 22  1  0  0  0  0
 19 18  2  0  0  0  0
 21 18  2  0  0  0  0
 22 23  1  0  0  0  0
M  RAD  3   2   2   3   3  20   2
M  END
