Coordinates from ORCA-job 4-MeOPhN2+~HSO4-_B3LYPG-6-31G_dp-NX-Scan-d89-09-n800
 OpenBabel11261921003D

 23 23  0  0  0  0  0  0  0  0999 V2000
   -1.5401    0.7456   -0.5671 C   0  0  0  0  0  0  0  0  0  0  0  0
   -2.7468    0.6925   -1.2812 N   0  0  0  0  0  0  0  0  0  0  0  0
   -3.8308    1.2189   -1.0988 N   0  0  0  0  0  0  0  0  0  0  0  0
   -1.2409    1.4821    0.6059 C   0  0  0  0  0  0  0  0  0  0  0  0
    0.0222    1.3964    1.1616 C   0  0  0  0  0  0  0  0  0  0  0  0
    1.0184    0.5882    0.5808 C   0  0  0  0  0  0  0  0  0  0  0  0
    2.2120    0.5876    1.2152 O   0  0  0  0  0  0  0  0  0  0  0  0
    3.2706   -0.2069    0.6888 C   0  0  0  0  0  0  0  0  0  0  0  0
    0.7317   -0.1445   -0.5818 C   0  0  0  0  0  0  0  0  0  0  0  0
   -0.5364   -0.0562   -1.1395 C   0  0  0  0  0  0  0  0  0  0  0  0
   -1.9869    2.1091    1.0692 H   0  0  0  0  0  0  0  0  0  0  0  0
    0.2713    1.9513    2.0596 H   0  0  0  0  0  0  0  0  0  0  0  0
    4.1187   -0.0518    1.3562 H   0  0  0  0  0  0  0  0  0  0  0  0
    3.5433    0.1108   -0.3245 H   0  0  0  0  0  0  0  0  0  0  0  0
    3.0047   -1.2708    0.6788 H   0  0  0  0  0  0  0  0  0  0  0  0
    1.4801   -0.7723   -1.0489 H   0  0  0  0  0  0  0  0  0  0  0  0
   -0.7807   -0.6114   -2.0387 H   0  0  0  0  0  0  0  0  0  0  0  0
   -5.4728    2.5341    0.3470 S   0  0  0  0  0  0  0  0  0  0  0  0
   -5.4095    3.7201    1.1656 O   0  0  0  0  0  0  0  0  0  0  0  0
   -3.8952    2.1036    0.0743 O   0  0  0  0  0  0  0  0  0  0  0  0
   -6.2152    1.3464    0.7213 O   0  0  0  0  0  0  0  0  0  0  0  0
   -5.9157    3.0074   -1.1346 O   0  0  0  0  0  0  0  0  0  0  0  0
   -5.8236    2.2349   -1.7242 H   0  0  0  0  0  0  0  0  0  0  0  0
  1  4  2  0  0  0  0
  2  3  1  0  0  0  0
  2  1  1  0  0  0  0
  3 20  1  0  0  0  0
  4 11  1  0  0  0  0
  4  5  1  0  0  0  0
  5 12  1  0  0  0  0
  6  5  2  0  0  0  0
  6  7  1  0  0  0  0
  8  7  1  0  0  0  0
  8 13  1  0  0  0  0
  9  6  1  0  0  0  0
 10  9  2  0  0  0  0
 10  1  1  0  0  0  0
 14  8  1  0  0  0  0
 15  8  1  0  0  0  0
 16  9  1  0  0  0  0
 17 10  1  0  0  0  0
 18 21  2  0  0  0  0
 18 19  2  0  0  0  0
 20 18  1  0  0  0  0
 22 18  1  0  0  0  0
 23 22  1  0  0  0  0
M  RAD  2   2   2   3   2
M  END
