Coordinates from ORCA-job 4-MeOPhN2+~HSO4-_B3LYPG-6-31G_dp-NX-Scan-d89-09-n800
 OpenBabel11261921003D

 23 22  0  0  0  0  0  0  0  0999 V2000
   -1.9393   -1.4251   -0.3556 C   0  0  0  0  0  0  0  0  0  0  0  0
   -2.7989   -2.4358   -0.6198 N   0  0  0  0  0  0  0  0  0  0  0  0
   -3.4531   -3.3243   -0.8523 N   0  0  0  0  0  0  0  0  0  0  0  0
   -2.3902   -0.1109   -0.0110 C   0  0  0  0  0  0  0  0  0  0  0  0
   -1.4471    0.8559    0.2357 C   0  0  0  0  0  0  0  0  0  0  0  0
   -0.0654    0.5376    0.1486 C   0  0  0  0  0  0  0  0  0  0  0  0
    0.7587    1.5382    0.4095 O   0  0  0  0  0  0  0  0  0  0  0  0
    2.1787    1.3631    0.3477 C   0  0  0  0  0  0  0  0  0  0  0  0
    0.3710   -0.7713   -0.1954 C   0  0  0  0  0  0  0  0  0  0  0  0
   -0.5586   -1.7500   -0.4473 C   0  0  0  0  0  0  0  0  0  0  0  0
   -3.4435    0.1445    0.0554 H   0  0  0  0  0  0  0  0  0  0  0  0
   -1.7224    1.8958    0.4742 H   0  0  0  0  0  0  0  0  0  0  0  0
    2.5964    2.3366    0.5985 H   0  0  0  0  0  0  0  0  0  0  0  0
    2.4926    1.0746   -0.6606 H   0  0  0  0  0  0  0  0  0  0  0  0
    2.5124    0.6177    1.0769 H   0  0  0  0  0  0  0  0  0  0  0  0
    1.4247   -1.0108   -0.2646 H   0  0  0  0  0  0  0  0  0  0  0  0
   -0.2551   -2.7564   -0.7140 H   0  0  0  0  0  0  0  0  0  0  0  0
   -3.1991    4.0730    0.6043 S   0  0  0  0  0  0  0  0  0  0  0  0
   -3.9769    2.8328    0.8483 O   0  0  0  0  0  0  0  0  0  0  0  0
   -3.5468    5.2619    1.4110 O   0  0  0  0  0  0  0  0  0  0  0  0
   -1.7368    3.7890    0.5035 O   0  0  0  0  0  0  0  0  0  0  0  0
   -3.6440    4.5223   -0.9526 O   0  0  0  0  0  0  0  0  0  0  0  0
   -3.8790    5.4568   -0.8556 H   0  0  0  0  0  0  0  0  0  0  0  0
  1  4  1  0  0  0  0
  2  1  1  0  0  0  0
  3  2  1  0  0  0  0
  4 11  1  0  0  0  0
  4  5  2  0  0  0  0
  5 12  1  0  0  0  0
  6  5  1  0  0  0  0
  6  7  1  0  0  0  0
  8  7  1  0  0  0  0
  8 13  1  0  0  0  0
  8 15  1  0  0  0  0
  9  6  2  0  0  0  0
 10  1  2  0  0  0  0
 10  9  1  0  0  0  0
 14  8  1  0  0  0  0
 16  9  1  0  0  0  0
 17 10  1  0  0  0  0
 18 19  2  0  0  0  0
 18 20  1  0  0  0  0
 21 18  2  0  0  0  0
 22 23  1  0  0  0  0
 22 18  1  0  0  0  0
M  RAD  3   2   2   3   3  20   2
M  END
