Coordinates from ORCA-job 4-MeOPhN2+~HSO4-_B3LYPG-6-31G_dp-NX-Scan-d89-09-n800
 OpenBabel11261921003D

 23 22  0  0  0  0  0  0  0  0999 V2000
   -1.8858   -0.6339   -0.2048 C   0  0  0  0  0  0  0  0  0  0  0  0
   -3.0873   -1.2294   -0.4264 N   0  0  0  0  0  0  0  0  0  0  0  0
   -4.0866   -1.7021   -0.6071 N   0  0  0  0  0  0  0  0  0  0  0  0
   -1.8998    0.7293    0.1756 C   0  0  0  0  0  0  0  0  0  0  0  0
   -0.6871    1.3469    0.3803 C   0  0  0  0  0  0  0  0  0  0  0  0
    0.5156    0.6268    0.2183 C   0  0  0  0  0  0  0  0  0  0  0  0
    1.6371    1.3144    0.4421 O   0  0  0  0  0  0  0  0  0  0  0  0
    2.9150    0.6855    0.2985 C   0  0  0  0  0  0  0  0  0  0  0  0
    0.5001   -0.7446   -0.1630 C   0  0  0  0  0  0  0  0  0  0  0  0
   -0.6992   -1.3852   -0.3799 C   0  0  0  0  0  0  0  0  0  0  0  0
   -2.8594    1.2610    0.2782 H   0  0  0  0  0  0  0  0  0  0  0  0
   -0.6870    2.3979    0.6507 H   0  0  0  0  0  0  0  0  0  0  0  0
    3.6456    1.4562    0.5406 H   0  0  0  0  0  0  0  0  0  0  0  0
    3.0711    0.3432   -0.7298 H   0  0  0  0  0  0  0  0  0  0  0  0
    3.0218   -0.1527    0.9951 H   0  0  0  0  0  0  0  0  0  0  0  0
    1.4228   -1.2952   -0.2911 H   0  0  0  0  0  0  0  0  0  0  0  0
   -0.7359   -2.4270   -0.6780 H   0  0  0  0  0  0  0  0  0  0  0  0
   -4.1682    3.4071    0.3590 S   0  0  0  0  0  0  0  0  0  0  0  0
   -4.5102    1.9672    0.1442 O   0  0  0  0  0  0  0  0  0  0  0  0
   -5.0518    4.1430    1.2770 O   0  0  0  0  0  0  0  0  0  0  0  0
   -2.7129    3.5978    0.5800 O   0  0  0  0  0  0  0  0  0  0  0  0
   -4.4818    4.0793   -1.1411 O   0  0  0  0  0  0  0  0  0  0  0  0
   -4.8976    4.9296   -0.9336 H   0  0  0  0  0  0  0  0  0  0  0  0
  1  4  1  0  0  0  0
  2  1  1  0  0  0  0
  3  2  1  0  0  0  0
  4 11  1  0  0  0  0
  4  5  2  0  0  0  0
  5 12  1  0  0  0  0
  6  5  1  0  0  0  0
  6  7  1  0  0  0  0
  8  7  1  0  0  0  0
  8 13  1  0  0  0  0
  8 15  1  0  0  0  0
  9  6  2  0  0  0  0
 10  1  2  0  0  0  0
 10  9  1  0  0  0  0
 14  8  1  0  0  0  0
 16  9  1  0  0  0  0
 17 10  1  0  0  0  0
 18 21  2  0  0  0  0
 18 20  1  0  0  0  0
 19 18  2  0  0  0  0
 22 23  1  0  0  0  0
 22 18  1  0  0  0  0
M  RAD  3   2   2   3   3  20   2
M  END
