Coordinates from ORCA-job 4-MeOPhN2+~HSO4-_B3LYPG-6-31G_dp-NX-Scan-d89-09-n800
 OpenBabel11261921003D

 23 23  0  0  0  0  0  0  0  0999 V2000
   -1.5557    0.8139   -0.5821 C   0  0  0  0  0  0  0  0  0  0  0  0
   -2.7298    0.8482   -1.3618 N   0  0  0  0  0  0  0  0  0  0  0  0
   -3.8078    1.3937   -1.0474 N   0  0  0  0  0  0  0  0  0  0  0  0
   -1.3150    1.3256    0.7171 C   0  0  0  0  0  0  0  0  0  0  0  0
   -0.0687    1.1717    1.3002 C   0  0  0  0  0  0  0  0  0  0  0  0
    0.9734    0.5148    0.6221 C   0  0  0  0  0  0  0  0  0  0  0  0
    2.1474    0.4296    1.2924 O   0  0  0  0  0  0  0  0  0  0  0  0
    3.2476   -0.2198    0.6644 C   0  0  0  0  0  0  0  0  0  0  0  0
    0.7488    0.0015   -0.6643 C   0  0  0  0  0  0  0  0  0  0  0  0
   -0.5037    0.1544   -1.2441 C   0  0  0  0  0  0  0  0  0  0  0  0
   -2.0900    1.8345    1.2691 H   0  0  0  0  0  0  0  0  0  0  0  0
    0.1289    1.5562    2.2948 H   0  0  0  0  0  0  0  0  0  0  0  0
    4.0734   -0.1606    1.3744 H   0  0  0  0  0  0  0  0  0  0  0  0
    3.5326    0.2847   -0.2664 H   0  0  0  0  0  0  0  0  0  0  0  0
    3.0245   -1.2725    0.4535 H   0  0  0  0  0  0  0  0  0  0  0  0
    1.5323   -0.5099   -1.2098 H   0  0  0  0  0  0  0  0  0  0  0  0
   -0.7002   -0.2355   -2.2369 H   0  0  0  0  0  0  0  0  0  0  0  0
   -5.5170    2.7245    0.2723 S   0  0  0  0  0  0  0  0  0  0  0  0
   -5.2959    4.1510    0.1874 O   0  0  0  0  0  0  0  0  0  0  0  0
   -3.9147    1.9872    0.0708 O   0  0  0  0  0  0  0  0  0  0  0  0
   -6.0702    2.1009    1.4527 O   0  0  0  0  0  0  0  0  0  0  0  0
   -6.1668    2.1468   -1.0532 O   0  0  0  0  0  0  0  0  0  0  0  0
   -5.3949    1.6742   -1.5204 H   0  0  0  0  0  0  0  0  0  0  0  0
  1  4  2  0  0  0  0
  2  3  2  0  0  0  0
  2  1  1  0  0  0  0
  3 20  1  0  0  0  0
  4 11  1  0  0  0  0
  4  5  1  0  0  0  0
  5 12  1  0  0  0  0
  6  7  1  0  0  0  0
  6  5  2  0  0  0  0
  8  7  1  0  0  0  0
  8 13  1  0  0  0  0
  9  6  1  0  0  0  0
 10  9  2  0  0  0  0
 10  1  1  0  0  0  0
 14  8  1  0  0  0  0
 15  8  1  0  0  0  0
 16  9  1  0  0  0  0
 17 10  1  0  0  0  0
 18 21  2  0  0  0  0
 19 18  2  0  0  0  0
 20 18  1  0  0  0  0
 22 18  1  0  0  0  0
 23 22  1  0  0  0  0
M  END
