Coordinates from ORCA-job 4-MeOPhN2+~HSO4-_B3LYPG-6-31G_dp-NX-Scan-d89-09-n800
 OpenBabel11261921003D

 23 22  0  0  0  0  0  0  0  0999 V2000
   -1.6264    0.4879   -0.7156 C   0  0  0  0  0  0  0  0  0  0  0  0
   -2.9179    0.3209   -1.1931 N   0  0  0  0  0  0  0  0  0  0  0  0
   -3.9638    0.7570   -1.3857 N   0  0  0  0  0  0  0  0  0  0  0  0
   -1.1772    1.7453   -0.2562 C   0  0  0  0  0  0  0  0  0  0  0  0
    0.1165    1.8460    0.2114 C   0  0  0  0  0  0  0  0  0  0  0  0
    0.9659    0.7188    0.2344 C   0  0  0  0  0  0  0  0  0  0  0  0
    2.2030    0.9398    0.7153 O   0  0  0  0  0  0  0  0  0  0  0  0
    3.1288   -0.1440    0.7885 C   0  0  0  0  0  0  0  0  0  0  0  0
    0.5043   -0.5278   -0.2287 C   0  0  0  0  0  0  0  0  0  0  0  0
   -0.7936   -0.6382   -0.7055 C   0  0  0  0  0  0  0  0  0  0  0  0
   -1.8511    2.5926   -0.2852 H   0  0  0  0  0  0  0  0  0  0  0  0
    0.5045    2.7900    0.5770 H   0  0  0  0  0  0  0  0  0  0  0  0
    4.0416    0.2765    1.2094 H   0  0  0  0  0  0  0  0  0  0  0  0
    3.3408   -0.5530   -0.2057 H   0  0  0  0  0  0  0  0  0  0  0  0
    2.7571   -0.9395    1.4443 H   0  0  0  0  0  0  0  0  0  0  0  0
    1.1439   -1.4012   -0.2187 H   0  0  0  0  0  0  0  0  0  0  0  0
   -1.1735   -1.5880   -1.0652 H   0  0  0  0  0  0  0  0  0  0  0  0
   -4.7652    2.6004    0.4935 S   0  0  0  0  0  0  0  0  0  0  0  0
   -4.3649    1.4346    1.2782 O   0  0  0  0  0  0  0  0  0  0  0  0
   -4.7319    3.9311    1.0833 O   0  0  0  0  0  0  0  0  0  0  0  0
   -4.0251    2.6491   -0.8601 O   0  0  0  0  0  0  0  0  0  0  0  0
   -6.3295    2.2871    0.0838 O   0  0  0  0  0  0  0  0  0  0  0  0
   -6.7081    3.1297   -0.2147 H   0  0  0  0  0  0  0  0  0  0  0  0
  1 10  2  0  0  0  0
  1  4  1  0  0  0  0
  2  1  1  0  0  0  0
  3  2  2  0  0  0  0
  4  5  2  0  0  0  0
  5  6  1  0  0  0  0
  5 12  1  0  0  0  0
  6  7  1  0  0  0  0
  7  8  1  0  0  0  0
  8 13  1  0  0  0  0
  8 15  1  0  0  0  0
  9 16  1  0  0  0  0
  9  6  2  0  0  0  0
 10  9  1  0  0  0  0
 11  4  1  0  0  0  0
 14  8  1  0  0  0  0
 17 10  1  0  0  0  0
 18 20  2  0  0  0  0
 18 19  1  0  0  0  0
 21 18  2  0  0  0  0
 22 18  1  0  0  0  0
 23 22  1  0  0  0  0
M  RAD  2   3   2  19   2
M  END
