Coordinates from ORCA-job 4-MeOPhN2+~HSO4-_B3LYPG-6-31G_dp-NX-Scan-d89-09-n800
 OpenBabel11261921003D

 23 22  0  0  0  0  0  0  0  0999 V2000
   -1.6625    0.1643   -0.5197 C   0  0  0  0  0  0  0  0  0  0  0  0
   -2.9372   -0.1326   -0.9663 N   0  0  0  0  0  0  0  0  0  0  0  0
   -4.0190    0.0392   -1.2615 N   0  0  0  0  0  0  0  0  0  0  0  0
   -1.4351    1.3814    0.1592 C   0  0  0  0  0  0  0  0  0  0  0  0
   -0.1501    1.6382    0.5923 C   0  0  0  0  0  0  0  0  0  0  0  0
    0.8944    0.7191    0.3563 C   0  0  0  0  0  0  0  0  0  0  0  0
    2.1017    1.0866    0.8177 O   0  0  0  0  0  0  0  0  0  0  0  0
    3.2191    0.2153    0.6356 C   0  0  0  0  0  0  0  0  0  0  0  0
    0.6392   -0.4939   -0.3160 C   0  0  0  0  0  0  0  0  0  0  0  0
   -0.6473   -0.7762   -0.7457 C   0  0  0  0  0  0  0  0  0  0  0  0
   -2.2620    2.0628    0.3605 H   0  0  0  0  0  0  0  0  0  0  0  0
    0.0791    2.5529    1.1276 H   0  0  0  0  0  0  0  0  0  0  0  0
    4.0677    0.7284    1.0868 H   0  0  0  0  0  0  0  0  0  0  0  0
    3.4186    0.0447   -0.4280 H   0  0  0  0  0  0  0  0  0  0  0  0
    3.0606   -0.7430    1.1420 H   0  0  0  0  0  0  0  0  0  0  0  0
    1.4301   -1.2097   -0.4993 H   0  0  0  0  0  0  0  0  0  0  0  0
   -0.8707   -1.7041   -1.2606 H   0  0  0  0  0  0  0  0  0  0  0  0
   -5.0291    2.4302    0.1063 S   0  0  0  0  0  0  0  0  0  0  0  0
   -6.0094    1.4154    0.4859 O   0  0  0  0  0  0  0  0  0  0  0  0
   -4.0145    2.8101    1.1196 O   0  0  0  0  0  0  0  0  0  0  0  0
   -4.3622    2.1460   -1.2293 O   0  0  0  0  0  0  0  0  0  0  0  0
   -5.8879    3.8125   -0.1725 O   0  0  0  0  0  0  0  0  0  0  0  0
   -5.3450    4.5276    0.1938 H   0  0  0  0  0  0  0  0  0  0  0  0
  1  4  1  0  0  0  0
  2  1  1  0  0  0  0
  3  2  1  0  0  0  0
  4 11  1  0  0  0  0
  4  5  2  0  0  0  0
  5 12  1  0  0  0  0
  6  5  1  0  0  0  0
  6  7  1  0  0  0  0
  8  7  1  0  0  0  0
  8 13  1  0  0  0  0
  8 15  1  0  0  0  0
  9  6  2  0  0  0  0
 10  1  2  0  0  0  0
 10  9  1  0  0  0  0
 14  8  1  0  0  0  0
 16  9  1  0  0  0  0
 17 10  1  0  0  0  0
 18 19  2  0  0  0  0
 18 20  1  0  0  0  0
 21 18  2  0  0  0  0
 22 18  1  0  0  0  0
 22 23  1  0  0  0  0
M  RAD  3   2   2   3   3  20   2
M  END
