Coordinates from ORCA-job 4-MeOPhN2+~HSO4-_B3LYPG-6-31G_dp-NX-Scan-d89-09-n800
 OpenBabel11261921003D

 23 22  0  0  0  0  0  0  0  0999 V2000
   -1.9012   -0.3442   -0.1112 C   0  0  0  0  0  0  0  0  0  0  0  0
   -3.1462   -0.8357   -0.3771 N   0  0  0  0  0  0  0  0  0  0  0  0
   -4.1174   -1.3318   -0.6280 N   0  0  0  0  0  0  0  0  0  0  0  0
   -1.7716    0.9040    0.5366 C   0  0  0  0  0  0  0  0  0  0  0  0
   -0.4984    1.3776    0.7618 C   0  0  0  0  0  0  0  0  0  0  0  0
    0.6280    0.6281    0.3668 C   0  0  0  0  0  0  0  0  0  0  0  0
    1.8156    1.1790    0.6358 O   0  0  0  0  0  0  0  0  0  0  0  0
    3.0228    0.5112    0.2551 C   0  0  0  0  0  0  0  0  0  0  0  0
    0.4715   -0.6271   -0.2794 C   0  0  0  0  0  0  0  0  0  0  0  0
   -0.7915   -1.1184   -0.5268 C   0  0  0  0  0  0  0  0  0  0  0  0
   -2.6626    1.4715    0.7958 H   0  0  0  0  0  0  0  0  0  0  0  0
   -0.3666    2.3510    1.2195 H   0  0  0  0  0  0  0  0  0  0  0  0
    3.8307    1.1680    0.5749 H   0  0  0  0  0  0  0  0  0  0  0  0
    3.0703    0.3732   -0.8303 H   0  0  0  0  0  0  0  0  0  0  0  0
    3.1145   -0.4550    0.7619 H   0  0  0  0  0  0  0  0  0  0  0  0
    1.3326   -1.2043   -0.5891 H   0  0  0  0  0  0  0  0  0  0  0  0
   -0.9350   -2.0695   -1.0274 H   0  0  0  0  0  0  0  0  0  0  0  0
   -4.3500    3.2501    0.2468 S   0  0  0  0  0  0  0  0  0  0  0  0
   -4.5864    1.7752    0.3220 O   0  0  0  0  0  0  0  0  0  0  0  0
   -5.3059    4.1137    0.9620 O   0  0  0  0  0  0  0  0  0  0  0  0
   -2.9178    3.5809    0.4677 O   0  0  0  0  0  0  0  0  0  0  0  0
   -4.6402    3.5623   -1.3723 O   0  0  0  0  0  0  0  0  0  0  0  0
   -5.0167    4.4552   -1.3804 H   0  0  0  0  0  0  0  0  0  0  0  0
  1  4  2  0  0  0  0
  2  1  1  0  0  0  0
  3  2  1  0  0  0  0
  4  5  1  0  0  0  0
  4 11  1  0  0  0  0
  5 12  1  0  0  0  0
  6  7  1  0  0  0  0
  6  5  2  0  0  0  0
  8 13  1  0  0  0  0
  8  7  1  0  0  0  0
  8 15  1  0  0  0  0
  9  6  1  0  0  0  0
 10  9  2  0  0  0  0
 10  1  1  0  0  0  0
 14  8  1  0  0  0  0
 16  9  1  0  0  0  0
 17 10  1  0  0  0  0
 18 19  2  0  0  0  0
 18 21  2  0  0  0  0
 18 20  1  0  0  0  0
 22 18  1  0  0  0  0
 23 22  1  0  0  0  0
M  RAD  3   2   2   3   3  20   2
M  END
