Coordinates from ORCA-job 4-MeOPhN2+~HSO4-_B3LYPG-6-31G_dp-NX-Scan-d89-09-n800
 OpenBabel11261921003D

 23 22  0  0  0  0  0  0  0  0999 V2000
   -1.7170    0.2195   -0.7609 C   0  0  0  0  0  0  0  0  0  0  0  0
   -2.9757   -0.1248   -1.2061 N   0  0  0  0  0  0  0  0  0  0  0  0
   -4.0687   -0.0141   -1.4670 N   0  0  0  0  0  0  0  0  0  0  0  0
   -1.4699    1.5598   -0.3930 C   0  0  0  0  0  0  0  0  0  0  0  0
   -0.2076    1.8776    0.0613 C   0  0  0  0  0  0  0  0  0  0  0  0
    0.7972    0.8903    0.1557 C   0  0  0  0  0  0  0  0  0  0  0  0
    1.9838    1.3199    0.6158 O   0  0  0  0  0  0  0  0  0  0  0  0
    3.0596    0.3914    0.7628 C   0  0  0  0  0  0  0  0  0  0  0  0
    0.5271   -0.4416   -0.2189 C   0  0  0  0  0  0  0  0  0  0  0  0
   -0.7361   -0.7772   -0.6791 C   0  0  0  0  0  0  0  0  0  0  0  0
   -2.2616    2.2970   -0.4701 H   0  0  0  0  0  0  0  0  0  0  0  0
    0.0332    2.8899    0.3654 H   0  0  0  0  0  0  0  0  0  0  0  0
    3.8951    0.9706    1.1547 H   0  0  0  0  0  0  0  0  0  0  0  0
    3.3401   -0.0459   -0.2019 H   0  0  0  0  0  0  0  0  0  0  0  0
    2.8015   -0.4034    1.4710 H   0  0  0  0  0  0  0  0  0  0  0  0
    1.2882   -1.2079   -0.1487 H   0  0  0  0  0  0  0  0  0  0  0  0
   -0.9706   -1.7956   -0.9687 H   0  0  0  0  0  0  0  0  0  0  0  0
   -4.9861    2.1231    0.3015 S   0  0  0  0  0  0  0  0  0  0  0  0
   -6.3546    2.6021    0.5122 O   0  0  0  0  0  0  0  0  0  0  0  0
   -4.5584    0.8819    0.9699 O   0  0  0  0  0  0  0  0  0  0  0  0
   -4.5373    2.1261   -1.1472 O   0  0  0  0  0  0  0  0  0  0  0  0
   -4.0108    3.3050    0.9808 O   0  0  0  0  0  0  0  0  0  0  0  0
   -4.5931    4.0717    1.0951 H   0  0  0  0  0  0  0  0  0  0  0  0
  1 10  2  0  0  0  0
  1  4  1  0  0  0  0
  2  1  1  0  0  0  0
  3  2  1  0  0  0  0
  4  5  2  0  0  0  0
  5  6  1  0  0  0  0
  5 12  1  0  0  0  0
  6  7  1  0  0  0  0
  7  8  1  0  0  0  0
  8 13  1  0  0  0  0
  8 15  1  0  0  0  0
  9 16  1  0  0  0  0
  9  6  2  0  0  0  0
 10  9  1  0  0  0  0
 11  4  1  0  0  0  0
 14  8  1  0  0  0  0
 17 10  1  0  0  0  0
 18 19  2  0  0  0  0
 18 20  1  0  0  0  0
 18 22  1  0  0  0  0
 21 18  2  0  0  0  0
 22 23  1  0  0  0  0
M  RAD  3   2   2   3   3  20   2
M  END
