Coordinates from ORCA-job 4-MeOPhN2+~HSO4-_B3LYPG-6-31G_dp-NX-Scan-d89-09-n800
 OpenBabel11261921003D

 23 22  0  0  0  0  0  0  0  0999 V2000
   -1.6534    0.3687   -0.1930 C   0  0  0  0  0  0  0  0  0  0  0  0
   -2.9885    0.0569   -0.3557 N   0  0  0  0  0  0  0  0  0  0  0  0
   -4.0085   -0.4091   -0.4754 N   0  0  0  0  0  0  0  0  0  0  0  0
   -1.2453    1.6832    0.1066 C   0  0  0  0  0  0  0  0  0  0  0  0
    0.1026    1.9196    0.2859 C   0  0  0  0  0  0  0  0  0  0  0  0
    1.0426    0.8751    0.1683 C   0  0  0  0  0  0  0  0  0  0  0  0
    2.3251    1.2257    0.3617 O   0  0  0  0  0  0  0  0  0  0  0  0
    3.3487    0.2351    0.2585 C   0  0  0  0  0  0  0  0  0  0  0  0
    0.6160   -0.4346   -0.1347 C   0  0  0  0  0  0  0  0  0  0  0  0
   -0.7333   -0.6888   -0.3128 C   0  0  0  0  0  0  0  0  0  0  0  0
   -2.0000    2.4610    0.1611 H   0  0  0  0  0  0  0  0  0  0  0  0
    0.4656    2.9147    0.5171 H   0  0  0  0  0  0  0  0  0  0  0  0
    4.2844    0.7592    0.4509 H   0  0  0  0  0  0  0  0  0  0  0  0
    3.3759   -0.2031   -0.7451 H   0  0  0  0  0  0  0  0  0  0  0  0
    3.2124   -0.5548    1.0055 H   0  0  0  0  0  0  0  0  0  0  0  0
    1.3246   -1.2471   -0.2299 H   0  0  0  0  0  0  0  0  0  0  0  0
   -1.0823   -1.6894   -0.5441 H   0  0  0  0  0  0  0  0  0  0  0  0
   -5.2291    2.4417   -0.3237 S   0  0  0  0  0  0  0  0  0  0  0  0
   -6.1982    3.3566   -0.9278 O   0  0  0  0  0  0  0  0  0  0  0  0
   -5.6429    0.9991   -0.3401 O   0  0  0  0  0  0  0  0  0  0  0  0
   -3.8107    2.5857   -0.7321 O   0  0  0  0  0  0  0  0  0  0  0  0
   -5.1727    2.8575    1.2877 O   0  0  0  0  0  0  0  0  0  0  0  0
   -6.0547    3.2024    1.4959 H   0  0  0  0  0  0  0  0  0  0  0  0
  1  4  1  0  0  0  0
  2  1  1  0  0  0  0
  3  2  1  0  0  0  0
  4 11  1  0  0  0  0
  4  5  2  0  0  0  0
  5 12  1  0  0  0  0
  6  5  1  0  0  0  0
  6  7  1  0  0  0  0
  8  7  1  0  0  0  0
  8 13  1  0  0  0  0
  8 15  1  0  0  0  0
  9  6  2  0  0  0  0
 10  1  2  0  0  0  0
 10  9  1  0  0  0  0
 14  8  1  0  0  0  0
 16  9  1  0  0  0  0
 17 10  1  0  0  0  0
 18 22  1  0  0  0  0
 19 18  2  0  0  0  0
 20 18  1  0  0  0  0
 21 18  2  0  0  0  0
 22 23  1  0  0  0  0
M  RAD  3   2   2   3   3  20   2
M  END
