Coordinates from ORCA-job 4-MeOPhN2+~HSO4-_B3LYPG-6-31G_dp-NX-Scan-d89-09-n800
 OpenBabel11261921003D

 23 22  0  0  0  0  0  0  0  0999 V2000
   -1.6271    0.5074   -0.7864 C   0  0  0  0  0  0  0  0  0  0  0  0
   -2.9047    0.3760   -1.2975 N   0  0  0  0  0  0  0  0  0  0  0  0
   -3.9489    0.7603   -1.5484 N   0  0  0  0  0  0  0  0  0  0  0  0
   -1.1829    1.7652   -0.3242 C   0  0  0  0  0  0  0  0  0  0  0  0
    0.0983    1.8576    0.1757 C   0  0  0  0  0  0  0  0  0  0  0  0
    0.9338    0.7206    0.2318 C   0  0  0  0  0  0  0  0  0  0  0  0
    2.1577    0.9320    0.7458 O   0  0  0  0  0  0  0  0  0  0  0  0
    3.0693   -0.1610    0.8600 C   0  0  0  0  0  0  0  0  0  0  0  0
    0.4735   -0.5264   -0.2349 C   0  0  0  0  0  0  0  0  0  0  0  0
   -0.8103   -0.6295   -0.7484 C   0  0  0  0  0  0  0  0  0  0  0  0
   -1.8526    2.6146   -0.3792 H   0  0  0  0  0  0  0  0  0  0  0  0
    0.4856    2.8001    0.5454 H   0  0  0  0  0  0  0  0  0  0  0  0
    3.9721    0.2548    1.3063 H   0  0  0  0  0  0  0  0  0  0  0  0
    3.3091   -0.5817   -0.1228 H   0  0  0  0  0  0  0  0  0  0  0  0
    2.6675   -0.9454    1.5112 H   0  0  0  0  0  0  0  0  0  0  0  0
    1.1044   -1.4052   -0.1994 H   0  0  0  0  0  0  0  0  0  0  0  0
   -1.1888   -1.5782   -1.1122 H   0  0  0  0  0  0  0  0  0  0  0  0
   -4.6601    2.6546    0.4839 S   0  0  0  0  0  0  0  0  0  0  0  0
   -4.0123    1.5837    1.2464 O   0  0  0  0  0  0  0  0  0  0  0  0
   -4.7623    3.9935    1.0617 O   0  0  0  0  0  0  0  0  0  0  0  0
   -4.1009    2.7346   -0.9418 O   0  0  0  0  0  0  0  0  0  0  0  0
   -6.2060    2.1068    0.2805 O   0  0  0  0  0  0  0  0  0  0  0  0
   -6.7358    2.8808    0.0315 H   0  0  0  0  0  0  0  0  0  0  0  0
  1 10  2  0  0  0  0
  1  4  1  0  0  0  0
  2  1  1  0  0  0  0
  3  2  2  0  0  0  0
  4  5  2  0  0  0  0
  5  6  1  0  0  0  0
  5 12  1  0  0  0  0
  6  7  1  0  0  0  0
  7  8  1  0  0  0  0
  8 13  1  0  0  0  0
  8 15  1  0  0  0  0
  9 16  1  0  0  0  0
  9  6  2  0  0  0  0
 10  9  1  0  0  0  0
 11  4  1  0  0  0  0
 14  8  1  0  0  0  0
 17 10  1  0  0  0  0
 18 20  2  0  0  0  0
 18 19  1  0  0  0  0
 21 18  2  0  0  0  0
 22 18  1  0  0  0  0
 23 22  1  0  0  0  0
M  RAD  2   3   2  19   2
M  END
