Coordinates from ORCA-job 4-MeOPhN2+~HSO4-_B3LYPG-6-31G_dp-NX-Scan-d89-09-n800
 OpenBabel11261921003D

 23 22  0  0  0  0  0  0  0  0999 V2000
   -1.9009   -0.2274   -0.0820 C   0  0  0  0  0  0  0  0  0  0  0  0
   -3.1603   -0.6964   -0.3430 N   0  0  0  0  0  0  0  0  0  0  0  0
   -4.1020   -1.2392   -0.6083 N   0  0  0  0  0  0  0  0  0  0  0  0
   -1.7152    0.9911    0.6040 C   0  0  0  0  0  0  0  0  0  0  0  0
   -0.4205    1.4064    0.8283 C   0  0  0  0  0  0  0  0  0  0  0  0
    0.6732    0.6332    0.3905 C   0  0  0  0  0  0  0  0  0  0  0  0
    1.8839    1.1319    0.6632 O   0  0  0  0  0  0  0  0  0  0  0  0
    3.0592    0.4336    0.2408 C   0  0  0  0  0  0  0  0  0  0  0  0
    0.4613   -0.5893   -0.2974 C   0  0  0  0  0  0  0  0  0  0  0  0
   -0.8242   -1.0237   -0.5393 C   0  0  0  0  0  0  0  0  0  0  0  0
   -2.5718    1.5930    0.8915 H   0  0  0  0  0  0  0  0  0  0  0  0
   -0.2391    2.3531    1.3235 H   0  0  0  0  0  0  0  0  0  0  0  0
    3.8962    1.0468    0.5722 H   0  0  0  0  0  0  0  0  0  0  0  0
    3.0869    0.3339   -0.8497 H   0  0  0  0  0  0  0  0  0  0  0  0
    3.1206   -0.5535    0.7105 H   0  0  0  0  0  0  0  0  0  0  0  0
    1.2945   -1.1873   -0.6418 H   0  0  0  0  0  0  0  0  0  0  0  0
   -1.0098   -1.9520   -1.0685 H   0  0  0  0  0  0  0  0  0  0  0  0
   -4.4353    3.1749    0.2100 S   0  0  0  0  0  0  0  0  0  0  0  0
   -4.6000    1.6886    0.2708 O   0  0  0  0  0  0  0  0  0  0  0  0
   -5.4638    3.9914    0.8789 O   0  0  0  0  0  0  0  0  0  0  0  0
   -3.0334    3.5739    0.5021 O   0  0  0  0  0  0  0  0  0  0  0  0
   -4.6604    3.4751   -1.4205 O   0  0  0  0  0  0  0  0  0  0  0  0
   -5.0607    4.3572   -1.4510 H   0  0  0  0  0  0  0  0  0  0  0  0
  1  4  2  0  0  0  0
  2  1  1  0  0  0  0
  3  2  1  0  0  0  0
  4  5  1  0  0  0  0
  4 11  1  0  0  0  0
  5 12  1  0  0  0  0
  6  7  1  0  0  0  0
  6  5  2  0  0  0  0
  8 13  1  0  0  0  0
  8  7  1  0  0  0  0
  8 15  1  0  0  0  0
  9  6  1  0  0  0  0
 10  9  2  0  0  0  0
 10  1  1  0  0  0  0
 14  8  1  0  0  0  0
 16  9  1  0  0  0  0
 17 10  1  0  0  0  0
 18 19  2  0  0  0  0
 18 21  2  0  0  0  0
 18 20  1  0  0  0  0
 22 18  1  0  0  0  0
 23 22  1  0  0  0  0
M  RAD  3   2   2   3   3  20   2
M  END
