Coordinates from ORCA-job 4-MeOPhN2+~HSO4-_B3LYPG-6-31G_dp-NX-Scan-d89-09-n800
 OpenBabel11261921003D

 23 22  0  0  0  0  0  0  0  0999 V2000
   -1.9504   -1.1170   -0.3188 C   0  0  0  0  0  0  0  0  0  0  0  0
   -2.9543   -1.9870   -0.5739 N   0  0  0  0  0  0  0  0  0  0  0  0
   -3.7614   -2.7387   -0.7946 N   0  0  0  0  0  0  0  0  0  0  0  0
   -2.2336    0.2347    0.0339 C   0  0  0  0  0  0  0  0  0  0  0  0
   -1.1685    1.0722    0.2720 C   0  0  0  0  0  0  0  0  0  0  0  0
    0.1566    0.5876    0.1674 C   0  0  0  0  0  0  0  0  0  0  0  0
    1.1114    1.4769    0.4190 O   0  0  0  0  0  0  0  0  0  0  0  0
    2.4932    1.1120    0.3350 C   0  0  0  0  0  0  0  0  0  0  0  0
    0.4206   -0.7653   -0.1846 C   0  0  0  0  0  0  0  0  0  0  0  0
   -0.6267   -1.6201   -0.4290 C   0  0  0  0  0  0  0  0  0  0  0  0
   -3.2387    0.6546    0.1222 H   0  0  0  0  0  0  0  0  0  0  0  0
   -1.3649    2.1282    0.5189 H   0  0  0  0  0  0  0  0  0  0  0  0
    3.0450    2.0185    0.5788 H   0  0  0  0  0  0  0  0  0  0  0  0
    2.7511    0.7855   -0.6775 H   0  0  0  0  0  0  0  0  0  0  0  0
    2.7362    0.3271    1.0588 H   0  0  0  0  0  0  0  0  0  0  0  0
    1.4349   -1.1352   -0.2657 H   0  0  0  0  0  0  0  0  0  0  0  0
   -0.4553   -2.6555   -0.7019 H   0  0  0  0  0  0  0  0  0  0  0  0
   -3.5581    3.8171    0.5574 S   0  0  0  0  0  0  0  0  0  0  0  0
   -4.0822    2.4289    0.6658 O   0  0  0  0  0  0  0  0  0  0  0  0
   -4.2381    4.8438    1.3661 O   0  0  0  0  0  0  0  0  0  0  0  0
   -2.0698    3.8642    0.6145 O   0  0  0  0  0  0  0  0  0  0  0  0
   -3.9410    4.2298   -1.0226 O   0  0  0  0  0  0  0  0  0  0  0  0
   -4.2276    5.1529   -0.9564 H   0  0  0  0  0  0  0  0  0  0  0  0
  1  4  1  0  0  0  0
  2  1  1  0  0  0  0
  3  2  1  0  0  0  0
  4 11  1  0  0  0  0
  4  5  2  0  0  0  0
  5 12  1  0  0  0  0
  6  5  1  0  0  0  0
  6  7  1  0  0  0  0
  8  7  1  0  0  0  0
  8 13  1  0  0  0  0
  8 15  1  0  0  0  0
  9  6  2  0  0  0  0
 10  1  2  0  0  0  0
 10  9  1  0  0  0  0
 14  8  1  0  0  0  0
 16  9  1  0  0  0  0
 17 10  1  0  0  0  0
 18 21  2  0  0  0  0
 18 19  2  0  0  0  0
 18 20  1  0  0  0  0
 22 23  1  0  0  0  0
 22 18  1  0  0  0  0
M  RAD  3   2   2   3   3  20   2
M  END
