Coordinates from ORCA-job 4-MeOPhN2+~HSO4-_B3LYPG-6-31G_dp-NX-Scan-d89-09-n800
 OpenBabel11261921003D

 23 22  0  0  0  0  0  0  0  0999 V2000
   -1.7620    0.4210   -0.5633 C   0  0  0  0  0  0  0  0  0  0  0  0
   -3.0622    0.2175   -0.9703 N   0  0  0  0  0  0  0  0  0  0  0  0
   -4.0230   -0.1101   -1.4375 N   0  0  0  0  0  0  0  0  0  0  0  0
   -1.2912    1.7267   -0.3125 C   0  0  0  0  0  0  0  0  0  0  0  0
    0.0325    1.8595    0.0468 C   0  0  0  0  0  0  0  0  0  0  0  0
    0.8695    0.7301    0.1796 C   0  0  0  0  0  0  0  0  0  0  0  0
    2.1326    0.9884    0.5461 O   0  0  0  0  0  0  0  0  0  0  0  0
    3.0535   -0.0899    0.7254 C   0  0  0  0  0  0  0  0  0  0  0  0
    0.3675   -0.5662   -0.0689 C   0  0  0  0  0  0  0  0  0  0  0  0
   -0.9537   -0.7243   -0.4470 C   0  0  0  0  0  0  0  0  0  0  0  0
   -1.9750    2.5763   -0.4002 H   0  0  0  0  0  0  0  0  0  0  0  0
    0.4522    2.8377    0.2529 H   0  0  0  0  0  0  0  0  0  0  0  0
    3.9937    0.3743    1.0202 H   0  0  0  0  0  0  0  0  0  0  0  0
    3.1970   -0.6461   -0.2076 H   0  0  0  0  0  0  0  0  0  0  0  0
    2.7168   -0.7687    1.5165 H   0  0  0  0  0  0  0  0  0  0  0  0
    0.9964   -1.4412    0.0325 H   0  0  0  0  0  0  0  0  0  0  0  0
   -1.3630   -1.7098   -0.6406 H   0  0  0  0  0  0  0  0  0  0  0  0
   -4.5007    2.8646    0.5395 S   0  0  0  0  0  0  0  0  0  0  0  0
   -3.8827    1.5823    0.9827 O   0  0  0  0  0  0  0  0  0  0  0  0
   -5.1847    3.6516    1.5712 O   0  0  0  0  0  0  0  0  0  0  0  0
   -3.6034    3.6397   -0.3618 O   0  0  0  0  0  0  0  0  0  0  0  0
   -5.7000    2.2683   -0.4749 O   0  0  0  0  0  0  0  0  0  0  0  0
   -6.2316    3.0337   -0.7441 H   0  0  0  0  0  0  0  0  0  0  0  0
  1 10  2  0  0  0  0
  1  4  1  0  0  0  0
  2  1  1  0  0  0  0
  3  2  1  0  0  0  0
  4  5  2  0  0  0  0
  5  6  1  0  0  0  0
  5 12  1  0  0  0  0
  6  7  1  0  0  0  0
  7  8  1  0  0  0  0
  8 13  1  0  0  0  0
  8 15  1  0  0  0  0
  9 16  1  0  0  0  0
  9  6  2  0  0  0  0
 10  9  1  0  0  0  0
 11  4  1  0  0  0  0
 14  8  1  0  0  0  0
 17 10  1  0  0  0  0
 18 19  2  0  0  0  0
 18 20  1  0  0  0  0
 21 18  2  0  0  0  0
 22 18  1  0  0  0  0
 23 22  1  0  0  0  0
M  RAD  3   2   2   3   3  20   2
M  END
