Coordinates from ORCA-job 4-MeOPhN2+~HSO4-_B3LYPG-6-31G_dp-NX-Scan-d89-09-n800
 OpenBabel11261921003D

 23 22  0  0  0  0  0  0  0  0999 V2000
   -1.7119    0.2152   -0.7461 C   0  0  0  0  0  0  0  0  0  0  0  0
   -2.9748   -0.1289   -1.1808 N   0  0  0  0  0  0  0  0  0  0  0  0
   -4.0698   -0.0152   -1.4305 N   0  0  0  0  0  0  0  0  0  0  0  0
   -1.4630    1.5568   -0.3844 C   0  0  0  0  0  0  0  0  0  0  0  0
   -0.1982    1.8758    0.0624 C   0  0  0  0  0  0  0  0  0  0  0  0
    0.8071    0.8889    0.1542 C   0  0  0  0  0  0  0  0  0  0  0  0
    1.9965    1.3199    0.6063 O   0  0  0  0  0  0  0  0  0  0  0  0
    3.0733    0.3920    0.7487 C   0  0  0  0  0  0  0  0  0  0  0  0
    0.5349   -0.4441   -0.2147 C   0  0  0  0  0  0  0  0  0  0  0  0
   -0.7310   -0.7815   -0.6664 C   0  0  0  0  0  0  0  0  0  0  0  0
   -2.2561    2.2929   -0.4614 H   0  0  0  0  0  0  0  0  0  0  0  0
    0.0445    2.8892    0.3614 H   0  0  0  0  0  0  0  0  0  0  0  0
    3.9112    0.9721    1.1340 H   0  0  0  0  0  0  0  0  0  0  0  0
    3.3479   -0.0476   -0.2167 H   0  0  0  0  0  0  0  0  0  0  0  0
    2.8198   -0.4014    1.4602 H   0  0  0  0  0  0  0  0  0  0  0  0
    1.2964   -1.2102   -0.1465 H   0  0  0  0  0  0  0  0  0  0  0  0
   -0.9671   -1.8009   -0.9510 H   0  0  0  0  0  0  0  0  0  0  0  0
   -5.0100    2.1382    0.2731 S   0  0  0  0  0  0  0  0  0  0  0  0
   -6.3736    2.6465    0.4444 O   0  0  0  0  0  0  0  0  0  0  0  0
   -4.6384    0.8750    0.9366 O   0  0  0  0  0  0  0  0  0  0  0  0
   -4.5083    2.1483   -1.1569 O   0  0  0  0  0  0  0  0  0  0  0  0
   -4.0334    3.2877    1.0032 O   0  0  0  0  0  0  0  0  0  0  0  0
   -4.6175    4.0463    1.1558 H   0  0  0  0  0  0  0  0  0  0  0  0
  1 10  2  0  0  0  0
  1  4  1  0  0  0  0
  2  1  1  0  0  0  0
  3  2  1  0  0  0  0
  4  5  2  0  0  0  0
  5  6  1  0  0  0  0
  5 12  1  0  0  0  0
  6  7  1  0  0  0  0
  7  8  1  0  0  0  0
  8 13  1  0  0  0  0
  8 15  1  0  0  0  0
  9 16  1  0  0  0  0
  9  6  2  0  0  0  0
 10  9  1  0  0  0  0
 11  4  1  0  0  0  0
 14  8  1  0  0  0  0
 17 10  1  0  0  0  0
 18 19  2  0  0  0  0
 18 20  1  0  0  0  0
 18 22  1  0  0  0  0
 21 18  2  0  0  0  0
 22 23  1  0  0  0  0
M  RAD  3   2   2   3   3  20   2
M  END
