Coordinates from ORCA-job 4-MeOPhN2+~HSO4-_B3LYPG-6-31G_dp-NX-Scan-d89-09-n800
 OpenBabel11261921003D

 23 22  0  0  0  0  0  0  0  0999 V2000
   -1.9004   -0.2237   -0.0810 C   0  0  0  0  0  0  0  0  0  0  0  0
   -3.1612   -0.6892   -0.3421 N   0  0  0  0  0  0  0  0  0  0  0  0
   -4.1055   -1.2277   -0.6070 N   0  0  0  0  0  0  0  0  0  0  0  0
   -1.7129    0.9941    0.6057 C   0  0  0  0  0  0  0  0  0  0  0  0
   -0.4178    1.4079    0.8297 C   0  0  0  0  0  0  0  0  0  0  0  0
    0.6747    0.6335    0.3910 C   0  0  0  0  0  0  0  0  0  0  0  0
    1.8862    1.1306    0.6634 O   0  0  0  0  0  0  0  0  0  0  0  0
    3.0604    0.4310    0.2402 C   0  0  0  0  0  0  0  0  0  0  0  0
    0.4610   -0.5884   -0.2973 C   0  0  0  0  0  0  0  0  0  0  0  0
   -0.8251   -1.0212   -0.5390 C   0  0  0  0  0  0  0  0  0  0  0  0
   -2.5702    1.5950    0.8929 H   0  0  0  0  0  0  0  0  0  0  0  0
   -0.2349    2.3540    1.3256 H   0  0  0  0  0  0  0  0  0  0  0  0
    3.8983    1.0429    0.5715 H   0  0  0  0  0  0  0  0  0  0  0  0
    3.0875    0.3317   -0.8503 H   0  0  0  0  0  0  0  0  0  0  0  0
    3.1208   -0.5565    0.7094 H   0  0  0  0  0  0  0  0  0  0  0  0
    1.2934   -1.1872   -0.6422 H   0  0  0  0  0  0  0  0  0  0  0  0
   -1.0120   -1.9489   -1.0687 H   0  0  0  0  0  0  0  0  0  0  0  0
   -4.4370    3.1712    0.2087 S   0  0  0  0  0  0  0  0  0  0  0  0
   -4.5956    1.6840    0.2672 O   0  0  0  0  0  0  0  0  0  0  0  0
   -5.4710    3.9816    0.8763 O   0  0  0  0  0  0  0  0  0  0  0  0
   -3.0377    3.5757    0.5049 O   0  0  0  0  0  0  0  0  0  0  0  0
   -4.6595    3.4723   -1.4219 O   0  0  0  0  0  0  0  0  0  0  0  0
   -5.0632    4.3528   -1.4524 H   0  0  0  0  0  0  0  0  0  0  0  0
  1  4  2  0  0  0  0
  2  1  1  0  0  0  0
  3  2  1  0  0  0  0
  4  5  1  0  0  0  0
  4 11  1  0  0  0  0
  5 12  1  0  0  0  0
  6  7  1  0  0  0  0
  6  5  2  0  0  0  0
  8 13  1  0  0  0  0
  8  7  1  0  0  0  0
  8 15  1  0  0  0  0
  9  6  1  0  0  0  0
 10  9  2  0  0  0  0
 10  1  1  0  0  0  0
 14  8  1  0  0  0  0
 16  9  1  0  0  0  0
 17 10  1  0  0  0  0
 18 19  2  0  0  0  0
 18 21  2  0  0  0  0
 18 20  1  0  0  0  0
 22 18  1  0  0  0  0
 23 22  1  0  0  0  0
M  RAD  3   2   2   3   3  20   2
M  END
