Coordinates from ORCA-job 4-MeOPhN2+~HSO4-_B3LYPG-6-31G_dp-NX-Scan-d89-09-n800
 OpenBabel11261921003D

 23 22  0  0  0  0  0  0  0  0999 V2000
   -1.8954   -0.7408   -0.2499 C   0  0  0  0  0  0  0  0  0  0  0  0
   -3.0551   -1.4102   -0.4720 N   0  0  0  0  0  0  0  0  0  0  0  0
   -4.0133   -1.9620   -0.6576 N   0  0  0  0  0  0  0  0  0  0  0  0
   -1.9694    0.6378    0.0725 C   0  0  0  0  0  0  0  0  0  0  0  0
   -0.7814    1.3020    0.2828 C   0  0  0  0  0  0  0  0  0  0  0  0
    0.4501    0.6199    0.1805 C   0  0  0  0  0  0  0  0  0  0  0  0
    1.5387    1.3570    0.4030 O   0  0  0  0  0  0  0  0  0  0  0  0
    2.8424    0.7717    0.3186 C   0  0  0  0  0  0  0  0  0  0  0  0
    0.4945   -0.7655   -0.1428 C   0  0  0  0  0  0  0  0  0  0  0  0
   -0.6762   -1.4545   -0.3612 C   0  0  0  0  0  0  0  0  0  0  0  0
   -2.9413    1.1625    0.1463 H   0  0  0  0  0  0  0  0  0  0  0  0
   -0.8314    2.3619    0.5172 H   0  0  0  0  0  0  0  0  0  0  0  0
    3.5371    1.5795    0.5438 H   0  0  0  0  0  0  0  0  0  0  0  0
    3.0374    0.3913   -0.6895 H   0  0  0  0  0  0  0  0  0  0  0  0
    2.9618   -0.0308    1.0542 H   0  0  0  0  0  0  0  0  0  0  0  0
    1.4385   -1.2888   -0.2222 H   0  0  0  0  0  0  0  0  0  0  0  0
   -0.6706   -2.5091   -0.6136 H   0  0  0  0  0  0  0  0  0  0  0  0
   -4.0598    3.5003    0.4225 S   0  0  0  0  0  0  0  0  0  0  0  0
   -4.4809    2.0777    0.2385 O   0  0  0  0  0  0  0  0  0  0  0  0
   -4.8774    4.2928    1.3547 O   0  0  0  0  0  0  0  0  0  0  0  0
   -2.5911    3.6235    0.5951 O   0  0  0  0  0  0  0  0  0  0  0  0
   -4.3825    4.1749   -1.0754 O   0  0  0  0  0  0  0  0  0  0  0  0
   -4.7965    5.0242   -0.8609 H   0  0  0  0  0  0  0  0  0  0  0  0
  1  4  1  0  0  0  0
  2  1  1  0  0  0  0
  3  2  1  0  0  0  0
  4 11  1  0  0  0  0
  4  5  2  0  0  0  0
  5 12  1  0  0  0  0
  6  5  1  0  0  0  0
  6  7  1  0  0  0  0
  8  7  1  0  0  0  0
  8 13  1  0  0  0  0
  8 15  1  0  0  0  0
  9  6  2  0  0  0  0
 10  1  2  0  0  0  0
 10  9  1  0  0  0  0
 14  8  1  0  0  0  0
 16  9  1  0  0  0  0
 17 10  1  0  0  0  0
 18 21  2  0  0  0  0
 18 20  1  0  0  0  0
 19 18  2  0  0  0  0
 22 23  1  0  0  0  0
 22 18  1  0  0  0  0
M  RAD  3   2   2   3   3  20   2
M  END
