Coordinates from ORCA-job 4-MeOPhN2+~HSO4-_B3LYPG-6-31G_dp-NX-Scan-d89-09-n800
 OpenBabel11261921003D

 23 22  0  0  0  0  0  0  0  0999 V2000
   -1.6697    0.3662   -0.1975 C   0  0  0  0  0  0  0  0  0  0  0  0
   -3.0041    0.0425   -0.3597 N   0  0  0  0  0  0  0  0  0  0  0  0
   -3.9943   -0.4800   -0.4686 N   0  0  0  0  0  0  0  0  0  0  0  0
   -1.2715    1.6815    0.1087 C   0  0  0  0  0  0  0  0  0  0  0  0
    0.0744    1.9239    0.2942 C   0  0  0  0  0  0  0  0  0  0  0  0
    1.0205    0.8850    0.1746 C   0  0  0  0  0  0  0  0  0  0  0  0
    2.3000    1.2411    0.3738 O   0  0  0  0  0  0  0  0  0  0  0  0
    3.3299    0.2568    0.2694 C   0  0  0  0  0  0  0  0  0  0  0  0
    0.6019   -0.4258   -0.1362 C   0  0  0  0  0  0  0  0  0  0  0  0
   -0.7451   -0.6872   -0.3191 C   0  0  0  0  0  0  0  0  0  0  0  0
   -2.0322    2.4535    0.1610 H   0  0  0  0  0  0  0  0  0  0  0  0
    0.4310    2.9198    0.5315 H   0  0  0  0  0  0  0  0  0  0  0  0
    4.2618    0.7856    0.4672 H   0  0  0  0  0  0  0  0  0  0  0  0
    3.3627   -0.1765   -0.7362 H   0  0  0  0  0  0  0  0  0  0  0  0
    3.1956   -0.5371    1.0125 H   0  0  0  0  0  0  0  0  0  0  0  0
    1.3153   -1.2339   -0.2334 H   0  0  0  0  0  0  0  0  0  0  0  0
   -1.0877   -1.6888   -0.5554 H   0  0  0  0  0  0  0  0  0  0  0  0
   -5.2154    2.4298   -0.3458 S   0  0  0  0  0  0  0  0  0  0  0  0
   -6.1282    3.4328   -0.8963 O   0  0  0  0  0  0  0  0  0  0  0  0
   -5.7391    1.0315   -0.3451 O   0  0  0  0  0  0  0  0  0  0  0  0
   -3.8062    2.4739   -0.8205 O   0  0  0  0  0  0  0  0  0  0  0  0
   -5.0314    2.8329    1.2637 O   0  0  0  0  0  0  0  0  0  0  0  0
   -5.8899    3.1878    1.5418 H   0  0  0  0  0  0  0  0  0  0  0  0
  1  4  1  0  0  0  0
  2  1  1  0  0  0  0
  3  2  1  0  0  0  0
  4 11  1  0  0  0  0
  4  5  2  0  0  0  0
  5 12  1  0  0  0  0
  6  5  1  0  0  0  0
  6  7  1  0  0  0  0
  8  7  1  0  0  0  0
  8 13  1  0  0  0  0
  8 15  1  0  0  0  0
  9  6  2  0  0  0  0
 10  1  2  0  0  0  0
 10  9  1  0  0  0  0
 14  8  1  0  0  0  0
 16  9  1  0  0  0  0
 17 10  1  0  0  0  0
 18 20  1  0  0  0  0
 18 22  1  0  0  0  0
 19 18  2  0  0  0  0
 21 18  2  0  0  0  0
 22 23  1  0  0  0  0
M  RAD  3   2   2   3   3  20   2
M  END
