Coordinates from ORCA-job 4-MeOPhN2+~HSO4-_B3LYPG-6-31G_dp-NX-Scan-d89-09-n800
 OpenBabel11261921003D

 23 22  0  0  0  0  0  0  0  0999 V2000
   -1.9529   -1.1462   -0.3221 C   0  0  0  0  0  0  0  0  0  0  0  0
   -2.9431   -2.0305   -0.5800 N   0  0  0  0  0  0  0  0  0  0  0  0
   -3.7356   -2.7970   -0.8037 N   0  0  0  0  0  0  0  0  0  0  0  0
   -2.2525    0.2018    0.0327 C   0  0  0  0  0  0  0  0  0  0  0  0
   -1.1988    1.0523    0.2731 C   0  0  0  0  0  0  0  0  0  0  0  0
    0.1327    0.5843    0.1685 C   0  0  0  0  0  0  0  0  0  0  0  0
    1.0753    1.4849    0.4224 O   0  0  0  0  0  0  0  0  0  0  0  0
    2.4620    1.1390    0.3381 C   0  0  0  0  0  0  0  0  0  0  0  0
    0.4140   -0.7646   -0.1856 C   0  0  0  0  0  0  0  0  0  0  0  0
   -0.6224   -1.6318   -0.4320 C   0  0  0  0  0  0  0  0  0  0  0  0
   -3.2623    0.6070    0.1187 H   0  0  0  0  0  0  0  0  0  0  0  0
   -1.4047    2.1070    0.5204 H   0  0  0  0  0  0  0  0  0  0  0  0
    3.0012    2.0525    0.5838 H   0  0  0  0  0  0  0  0  0  0  0  0
    2.7244    0.8180   -0.6750 H   0  0  0  0  0  0  0  0  0  0  0  0
    2.7153    0.3561    1.0605 H   0  0  0  0  0  0  0  0  0  0  0  0
    1.4330   -1.1216   -0.2668 H   0  0  0  0  0  0  0  0  0  0  0  0
   -0.4381   -2.6646   -0.7064 H   0  0  0  0  0  0  0  0  0  0  0  0
   -3.5134    3.8386    0.5579 S   0  0  0  0  0  0  0  0  0  0  0  0
   -4.0498    2.4570    0.6811 O   0  0  0  0  0  0  0  0  0  0  0  0
   -4.1648    4.8770    1.3753 O   0  0  0  0  0  0  0  0  0  0  0  0
   -2.0231    3.8674    0.5868 O   0  0  0  0  0  0  0  0  0  0  0  0
   -3.9204    4.2515   -1.0161 O   0  0  0  0  0  0  0  0  0  0  0  0
   -4.1975    5.1772   -0.9468 H   0  0  0  0  0  0  0  0  0  0  0  0
  1  4  1  0  0  0  0
  2  1  1  0  0  0  0
  3  2  1  0  0  0  0
  4 11  1  0  0  0  0
  4  5  2  0  0  0  0
  5 12  1  0  0  0  0
  6  5  1  0  0  0  0
  6  7  1  0  0  0  0
  8  7  1  0  0  0  0
  8 13  1  0  0  0  0
  8 15  1  0  0  0  0
  9  6  2  0  0  0  0
 10  1  2  0  0  0  0
 10  9  1  0  0  0  0
 14  8  1  0  0  0  0
 16  9  1  0  0  0  0
 17 10  1  0  0  0  0
 18 21  2  0  0  0  0
 18 19  2  0  0  0  0
 18 20  1  0  0  0  0
 22 23  1  0  0  0  0
 22 18  1  0  0  0  0
M  RAD  3   2   2   3   3  20   2
M  END
