Coordinates from ORCA-job 4-MeOPhN2+~HSO4-_B3LYPG-6-31G_dp-NX-Scan-d89-09-n800
 OpenBabel11261921003D

 23 22  0  0  0  0  0  0  0  0999 V2000
   -1.9002   -0.3349   -0.1090 C   0  0  0  0  0  0  0  0  0  0  0  0
   -3.1479   -0.8195   -0.3760 N   0  0  0  0  0  0  0  0  0  0  0  0
   -4.1231   -1.3075   -0.6266 N   0  0  0  0  0  0  0  0  0  0  0  0
   -1.7660    0.9114    0.5413 C   0  0  0  0  0  0  0  0  0  0  0  0
   -0.4913    1.3807    0.7662 C   0  0  0  0  0  0  0  0  0  0  0  0
    0.6324    0.6282    0.3686 C   0  0  0  0  0  0  0  0  0  0  0  0
    1.8219    1.1751    0.6374 O   0  0  0  0  0  0  0  0  0  0  0  0
    3.0265    0.5041    0.2542 C   0  0  0  0  0  0  0  0  0  0  0  0
    0.4713   -0.6253   -0.2796 C   0  0  0  0  0  0  0  0  0  0  0  0
   -0.7937   -1.1120   -0.5268 C   0  0  0  0  0  0  0  0  0  0  0  0
   -2.6578    1.4777    0.8000 H   0  0  0  0  0  0  0  0  0  0  0  0
   -0.3549    2.3523    1.2263 H   0  0  0  0  0  0  0  0  0  0  0  0
    3.8369    1.1578    0.5741 H   0  0  0  0  0  0  0  0  0  0  0  0
    3.0723    0.3677   -0.8315 H   0  0  0  0  0  0  0  0  0  0  0  0
    3.1159   -0.4632    0.7593 H   0  0  0  0  0  0  0  0  0  0  0  0
    1.3303   -1.2047   -0.5909 H   0  0  0  0  0  0  0  0  0  0  0  0
   -0.9406   -2.0617   -1.0292 H   0  0  0  0  0  0  0  0  0  0  0  0
   -4.3554    3.2432    0.2440 S   0  0  0  0  0  0  0  0  0  0  0  0
   -4.5768    1.7653    0.3159 O   0  0  0  0  0  0  0  0  0  0  0  0
   -5.3239    4.0946    0.9567 O   0  0  0  0  0  0  0  0  0  0  0  0
   -2.9280    3.5887    0.4713 O   0  0  0  0  0  0  0  0  0  0  0  0
   -4.6427    3.5537   -1.3758 O   0  0  0  0  0  0  0  0  0  0  0  0
   -5.0266    4.4435   -1.3850 H   0  0  0  0  0  0  0  0  0  0  0  0
  1  4  2  0  0  0  0
  2  1  1  0  0  0  0
  3  2  1  0  0  0  0
  4  5  1  0  0  0  0
  4 11  1  0  0  0  0
  5 12  1  0  0  0  0
  6  7  1  0  0  0  0
  6  5  2  0  0  0  0
  8 13  1  0  0  0  0
  8  7  1  0  0  0  0
  8 15  1  0  0  0  0
  9  6  1  0  0  0  0
 10  9  2  0  0  0  0
 10  1  1  0  0  0  0
 14  8  1  0  0  0  0
 16  9  1  0  0  0  0
 17 10  1  0  0  0  0
 18 19  2  0  0  0  0
 18 21  2  0  0  0  0
 18 20  1  0  0  0  0
 22 18  1  0  0  0  0
 23 22  1  0  0  0  0
M  RAD  3   2   2   3   3  20   2
M  END
