Coordinates from ORCA-job 4-MeOPhN2+~HSO4-_B3LYPG-6-31G_dp-NX-Scan-d89-09-n800
 OpenBabel11261921003D

 23 22  0  0  0  0  0  0  0  0999 V2000
   -1.9040   -0.4730   -0.1312 C   0  0  0  0  0  0  0  0  0  0  0  0
   -3.1360   -0.9916   -0.3908 N   0  0  0  0  0  0  0  0  0  0  0  0
   -4.1372   -1.4402   -0.6119 N   0  0  0  0  0  0  0  0  0  0  0  0
   -1.8371    0.8100    0.4586 C   0  0  0  0  0  0  0  0  0  0  0  0
   -0.5901    1.3505    0.6741 C   0  0  0  0  0  0  0  0  0  0  0  0
    0.5708    0.6278    0.3297 C   0  0  0  0  0  0  0  0  0  0  0  0
    1.7311    1.2383    0.5843 O   0  0  0  0  0  0  0  0  0  0  0  0
    2.9707    0.6029    0.2550 C   0  0  0  0  0  0  0  0  0  0  0  0
    0.4758   -0.6647   -0.2560 C   0  0  0  0  0  0  0  0  0  0  0  0
   -0.7606   -1.2220   -0.4970 C   0  0  0  0  0  0  0  0  0  0  0  0
   -2.7656    1.3417    0.6820 H   0  0  0  0  0  0  0  0  0  0  0  0
   -0.5160    2.3526    1.0807 H   0  0  0  0  0  0  0  0  0  0  0  0
    3.7456    1.3068    0.5556 H   0  0  0  0  0  0  0  0  0  0  0  0
    3.0427    0.4160   -0.8216 H   0  0  0  0  0  0  0  0  0  0  0  0
    3.0921   -0.3337    0.8089 H   0  0  0  0  0  0  0  0  0  0  0  0
    1.3655   -1.2180   -0.5259 H   0  0  0  0  0  0  0  0  0  0  0  0
   -0.8571   -2.2003   -0.9543 H   0  0  0  0  0  0  0  0  0  0  0  0
   -4.2535    3.3152    0.2896 S   0  0  0  0  0  0  0  0  0  0  0  0
   -4.5464    1.8487    0.3119 O   0  0  0  0  0  0  0  0  0  0  0  0
   -5.1947    4.1788    1.0213 O   0  0  0  0  0  0  0  0  0  0  0  0
   -2.8149    3.5880    0.5392 O   0  0  0  0  0  0  0  0  0  0  0  0
   -4.5100    3.6957   -1.3211 O   0  0  0  0  0  0  0  0  0  0  0  0
   -4.8926    4.5856   -1.2963 H   0  0  0  0  0  0  0  0  0  0  0  0
  1  4  2  0  0  0  0
  2  1  1  0  0  0  0
  3  2  1  0  0  0  0
  4  5  1  0  0  0  0
  4 11  1  0  0  0  0
  5 12  1  0  0  0  0
  6  7  1  0  0  0  0
  6  5  2  0  0  0  0
  8 13  1  0  0  0  0
  8  7  1  0  0  0  0
  8 15  1  0  0  0  0
  9  6  1  0  0  0  0
 10  9  2  0  0  0  0
 10  1  1  0  0  0  0
 14  8  1  0  0  0  0
 16  9  1  0  0  0  0
 17 10  1  0  0  0  0
 18 19  2  0  0  0  0
 18 21  2  0  0  0  0
 18 20  1  0  0  0  0
 22 23  1  0  0  0  0
 22 18  1  0  0  0  0
M  RAD  3   2   2   3   3  20   2
M  END
