Coordinates from ORCA-job 4-MeOPhN2+~HSO4-_B3LYPG-6-31G_dp-NX-Scan-d89-09-n800
 OpenBabel11261921003D

 23 22  0  0  0  0  0  0  0  0999 V2000
   -1.9159   -0.8522   -0.2703 C   0  0  0  0  0  0  0  0  0  0  0  0
   -3.0290   -1.5902   -0.5037 N   0  0  0  0  0  0  0  0  0  0  0  0
   -3.9381   -2.2174   -0.7026 N   0  0  0  0  0  0  0  0  0  0  0  0
   -2.0527    0.5194    0.0708 C   0  0  0  0  0  0  0  0  0  0  0  0
   -0.8949    1.2333    0.2890 C   0  0  0  0  0  0  0  0  0  0  0  0
    0.3673    0.6106    0.1765 C   0  0  0  0  0  0  0  0  0  0  0  0
    1.4191    1.3946    0.4075 O   0  0  0  0  0  0  0  0  0  0  0  0
    2.7497    0.8748    0.3124 C   0  0  0  0  0  0  0  0  0  0  0  0
    0.4763   -0.7667   -0.1643 C   0  0  0  0  0  0  0  0  0  0  0  0
   -0.6618   -1.5044   -0.3903 C   0  0  0  0  0  0  0  0  0  0  0  0
   -3.0322    1.0270    0.1596 H   0  0  0  0  0  0  0  0  0  0  0  0
   -0.9989    2.2896    0.5374 H   0  0  0  0  0  0  0  0  0  0  0  0
    3.4046    1.7138    0.5430 H   0  0  0  0  0  0  0  0  0  0  0  0
    2.9586    0.5141   -0.7000 H   0  0  0  0  0  0  0  0  0  0  0  0
    2.9110    0.0724    1.0400 H   0  0  0  0  0  0  0  0  0  0  0  0
    1.4431   -1.2459   -0.2508 H   0  0  0  0  0  0  0  0  0  0  0  0
   -0.6084   -2.5546   -0.6552 H   0  0  0  0  0  0  0  0  0  0  0  0
   -3.9356    3.6043    0.4859 S   0  0  0  0  0  0  0  0  0  0  0  0
   -4.4143    2.1921    0.3981 O   0  0  0  0  0  0  0  0  0  0  0  0
   -4.7517    4.5077    1.3131 O   0  0  0  0  0  0  0  0  0  0  0  0
   -2.4700    3.6873    0.7083 O   0  0  0  0  0  0  0  0  0  0  0  0
   -4.1670    4.1697   -1.0753 O   0  0  0  0  0  0  0  0  0  0  0  0
   -4.5804    5.0360   -0.9444 H   0  0  0  0  0  0  0  0  0  0  0  0
  1  4  1  0  0  0  0
  2  1  1  0  0  0  0
  3  2  1  0  0  0  0
  4 11  1  0  0  0  0
  4  5  2  0  0  0  0
  5 12  1  0  0  0  0
  6  5  1  0  0  0  0
  6  7  1  0  0  0  0
  8  7  1  0  0  0  0
  8 13  1  0  0  0  0
  8 15  1  0  0  0  0
  9  6  2  0  0  0  0
 10  1  2  0  0  0  0
 10  9  1  0  0  0  0
 14  8  1  0  0  0  0
 16  9  1  0  0  0  0
 17 10  1  0  0  0  0
 18 21  2  0  0  0  0
 18 20  1  0  0  0  0
 19 18  2  0  0  0  0
 22 23  1  0  0  0  0
 22 18  1  0  0  0  0
M  RAD  3   2   2   3   3  20   2
M  END
