Coordinates from ORCA-job 4-MeOPhN2+~HSO4-_B3LYPG-6-31G_dp-NX-Scan-d89-09-n800
 OpenBabel11261921003D

 23 22  0  0  0  0  0  0  0  0999 V2000
   -1.7557    0.3298   -0.3139 C   0  0  0  0  0  0  0  0  0  0  0  0
   -3.0332    0.0813   -0.7686 N   0  0  0  0  0  0  0  0  0  0  0  0
   -4.0038   -0.2138   -1.2532 N   0  0  0  0  0  0  0  0  0  0  0  0
   -1.5092    1.3435    0.6346 C   0  0  0  0  0  0  0  0  0  0  0  0
   -0.2029    1.5511    1.0276 C   0  0  0  0  0  0  0  0  0  0  0  0
    0.8476    0.7765    0.4935 C   0  0  0  0  0  0  0  0  0  0  0  0
    2.0751    1.0751    0.9475 O   0  0  0  0  0  0  0  0  0  0  0  0
    3.2048    0.3456    0.4642 C   0  0  0  0  0  0  0  0  0  0  0  0
    0.5781   -0.2360   -0.4526 C   0  0  0  0  0  0  0  0  0  0  0  0
   -0.7256   -0.4613   -0.8572 C   0  0  0  0  0  0  0  0  0  0  0  0
   -2.3551    1.8982    1.0318 H   0  0  0  0  0  0  0  0  0  0  0  0
    0.0411    2.3160    1.7564 H   0  0  0  0  0  0  0  0  0  0  0  0
    4.0684    0.7754    0.9696 H   0  0  0  0  0  0  0  0  0  0  0  0
    3.3189    0.4652   -0.6191 H   0  0  0  0  0  0  0  0  0  0  0  0
    3.1257   -0.7176    0.7155 H   0  0  0  0  0  0  0  0  0  0  0  0
    1.3738   -0.8397   -0.8685 H   0  0  0  0  0  0  0  0  0  0  0  0
   -0.9555   -1.2322   -1.5850 H   0  0  0  0  0  0  0  0  0  0  0  0
   -5.1725    2.2840    0.1983 S   0  0  0  0  0  0  0  0  0  0  0  0
   -6.1194    3.3028    0.6529 O   0  0  0  0  0  0  0  0  0  0  0  0
   -4.3189    1.6313    1.2214 O   0  0  0  0  0  0  0  0  0  0  0  0
   -5.7227    1.2976   -0.7793 O   0  0  0  0  0  0  0  0  0  0  0  0
   -4.0020    3.1215   -0.6790 O   0  0  0  0  0  0  0  0  0  0  0  0
   -4.4789    3.8206   -1.1524 H   0  0  0  0  0  0  0  0  0  0  0  0
  1  4  2  0  0  0  0
  2  1  1  0  0  0  0
  3  2  1  0  0  0  0
  4  5  1  0  0  0  0
  4 11  1  0  0  0  0
  5 12  1  0  0  0  0
  6  7  1  0  0  0  0
  6  5  2  0  0  0  0
  8 15  1  0  0  0  0
  8  7  1  0  0  0  0
  8 13  1  0  0  0  0
  9  6  1  0  0  0  0
 10  9  2  0  0  0  0
 10  1  1  0  0  0  0
 14  8  1  0  0  0  0
 16  9  1  0  0  0  0
 17 10  1  0  0  0  0
 18 19  2  0  0  0  0
 18 20  1  0  0  0  0
 21 18  2  0  0  0  0
 22 18  1  0  0  0  0
 23 22  1  0  0  0  0
M  RAD  3   2   2   3   3  20   2
M  END
