Coordinates from ORCA-job 4-MeOPhN2+~HSO4-_B3LYPG-6-31G_dp-NX-Scan-d89-09-n800
 OpenBabel11261921003D

 23 22  0  0  0  0  0  0  0  0999 V2000
   -1.7626    0.3189   -0.3115 C   0  0  0  0  0  0  0  0  0  0  0  0
   -3.0393    0.0654   -0.7640 N   0  0  0  0  0  0  0  0  0  0  0  0
   -4.0206   -0.2230   -1.2308 N   0  0  0  0  0  0  0  0  0  0  0  0
   -1.5228    1.3190    0.6536 C   0  0  0  0  0  0  0  0  0  0  0  0
   -0.2175    1.5298    1.0478 C   0  0  0  0  0  0  0  0  0  0  0  0
    0.8382    0.7731    0.4984 C   0  0  0  0  0  0  0  0  0  0  0  0
    2.0641    1.0740    0.9549 O   0  0  0  0  0  0  0  0  0  0  0  0
    3.1989    0.3627    0.4563 C   0  0  0  0  0  0  0  0  0  0  0  0
    0.5752   -0.2255   -0.4642 C   0  0  0  0  0  0  0  0  0  0  0  0
   -0.7274   -0.4550   -0.8696 C   0  0  0  0  0  0  0  0  0  0  0  0
   -2.3725    1.8620    1.0605 H   0  0  0  0  0  0  0  0  0  0  0  0
    0.0220    2.2842    1.7891 H   0  0  0  0  0  0  0  0  0  0  0  0
    4.0600    0.7911    0.9672 H   0  0  0  0  0  0  0  0  0  0  0  0
    3.3094    0.5023   -0.6249 H   0  0  0  0  0  0  0  0  0  0  0  0
    3.1295   -0.7053    0.6893 H   0  0  0  0  0  0  0  0  0  0  0  0
    1.3750   -0.8155   -0.8917 H   0  0  0  0  0  0  0  0  0  0  0  0
   -0.9526   -1.2158   -1.6095 H   0  0  0  0  0  0  0  0  0  0  0  0
   -5.1605    2.3020    0.2033 S   0  0  0  0  0  0  0  0  0  0  0  0
   -6.0874    3.3602    0.6062 O   0  0  0  0  0  0  0  0  0  0  0  0
   -4.3360    1.6674    1.2600 O   0  0  0  0  0  0  0  0  0  0  0  0
   -5.7231    1.2964   -0.7484 O   0  0  0  0  0  0  0  0  0  0  0  0
   -3.9584    3.0779   -0.6905 O   0  0  0  0  0  0  0  0  0  0  0  0
   -4.4131    3.7688   -1.1965 H   0  0  0  0  0  0  0  0  0  0  0  0
  1  4  2  0  0  0  0
  2  1  1  0  0  0  0
  3  2  1  0  0  0  0
  4  5  1  0  0  0  0
  4 11  1  0  0  0  0
  5 12  1  0  0  0  0
  6  7  1  0  0  0  0
  6  5  2  0  0  0  0
  8 15  1  0  0  0  0
  8  7  1  0  0  0  0
  8 13  1  0  0  0  0
  9  6  1  0  0  0  0
 10  9  2  0  0  0  0
 10  1  1  0  0  0  0
 14  8  1  0  0  0  0
 16  9  1  0  0  0  0
 17 10  1  0  0  0  0
 18 19  2  0  0  0  0
 18 20  1  0  0  0  0
 21 18  2  0  0  0  0
 22 18  1  0  0  0  0
 23 22  1  0  0  0  0
M  RAD  3   2   2   3   3  20   2
M  END
