Coordinates from ORCA-job 4-MeOPhN2+~HSO4-_B3LYPG-6-31G_dp-NX-Scan-d89-09-n800
 OpenBabel11261921003D

 23 22  0  0  0  0  0  0  0  0999 V2000
   -1.9350   -0.9846   -0.3003 C   0  0  0  0  0  0  0  0  0  0  0  0
   -3.0001   -1.7823   -0.5484 N   0  0  0  0  0  0  0  0  0  0  0  0
   -3.8714   -2.4590   -0.7593 N   0  0  0  0  0  0  0  0  0  0  0  0
   -2.1449    0.3741    0.0630 C   0  0  0  0  0  0  0  0  0  0  0  0
   -1.0326    1.1504    0.2982 C   0  0  0  0  0  0  0  0  0  0  0  0
    0.2629    0.5991    0.1788 C   0  0  0  0  0  0  0  0  0  0  0  0
    1.2681    1.4345    0.4278 O   0  0  0  0  0  0  0  0  0  0  0  0
    2.6265    0.9935    0.3278 C   0  0  0  0  0  0  0  0  0  0  0  0
    0.4497   -0.7639   -0.1857 C   0  0  0  0  0  0  0  0  0  0  0  0
   -0.6440   -1.5607   -0.4270 C   0  0  0  0  0  0  0  0  0  0  0  0
   -3.1337    0.8454    0.1629 H   0  0  0  0  0  0  0  0  0  0  0  0
   -1.1936    2.2043    0.5566 H   0  0  0  0  0  0  0  0  0  0  0  0
    3.2312    1.8650    0.5741 H   0  0  0  0  0  0  0  0  0  0  0  0
    2.8571    0.6622   -0.6898 H   0  0  0  0  0  0  0  0  0  0  0  0
    2.8318    0.1897    1.0425 H   0  0  0  0  0  0  0  0  0  0  0  0
    1.4421   -1.1866   -0.2784 H   0  0  0  0  0  0  0  0  0  0  0  0
   -0.5306   -2.6017   -0.7087 H   0  0  0  0  0  0  0  0  0  0  0  0
   -3.7453    3.7191    0.5318 S   0  0  0  0  0  0  0  0  0  0  0  0
   -4.2395    2.3147    0.5990 O   0  0  0  0  0  0  0  0  0  0  0  0
   -4.5021    4.7082    1.3159 O   0  0  0  0  0  0  0  0  0  0  0  0
   -2.2663    3.8107    0.6646 O   0  0  0  0  0  0  0  0  0  0  0  0
   -4.0605    4.1374   -1.0614 O   0  0  0  0  0  0  0  0  0  0  0  0
   -4.3915    5.0457   -0.9992 H   0  0  0  0  0  0  0  0  0  0  0  0
  1  4  1  0  0  0  0
  2  1  1  0  0  0  0
  3  2  1  0  0  0  0
  4 11  1  0  0  0  0
  4  5  2  0  0  0  0
  5 12  1  0  0  0  0
  6  5  1  0  0  0  0
  6  7  1  0  0  0  0
  8  7  1  0  0  0  0
  8 13  1  0  0  0  0
  8 15  1  0  0  0  0
  9  6  2  0  0  0  0
 10  1  2  0  0  0  0
 10  9  1  0  0  0  0
 14  8  1  0  0  0  0
 16  9  1  0  0  0  0
 17 10  1  0  0  0  0
 18 19  2  0  0  0  0
 18 21  2  0  0  0  0
 18 20  1  0  0  0  0
 22 23  1  0  0  0  0
 22 18  1  0  0  0  0
M  RAD  3   2   2   3   3  20   2
M  END
