Coordinates from ORCA-job 4-MeOPhN2+~HSO4-_B3LYPG-6-31G_dp-NX-Scan-d89-09-n800
 OpenBabel11261921003D

 23 22  0  0  0  0  0  0  0  0999 V2000
   -1.8245   -0.0296   -0.1481 C   0  0  0  0  0  0  0  0  0  0  0  0
   -3.1009   -0.4838   -0.4445 N   0  0  0  0  0  0  0  0  0  0  0  0
   -4.2408   -0.3387   -0.4172 N   0  0  0  0  0  0  0  0  0  0  0  0
   -1.6188    1.1521    0.5959 C   0  0  0  0  0  0  0  0  0  0  0  0
   -0.3209    1.5418    0.8544 C   0  0  0  0  0  0  0  0  0  0  0  0
    0.7709    0.7822    0.3828 C   0  0  0  0  0  0  0  0  0  0  0  0
    1.9874    1.2656    0.6953 O   0  0  0  0  0  0  0  0  0  0  0  0
    3.1512    0.5694    0.2499 C   0  0  0  0  0  0  0  0  0  0  0  0
    0.5502   -0.3949   -0.3572 C   0  0  0  0  0  0  0  0  0  0  0  0
   -0.7508   -0.7982   -0.6177 C   0  0  0  0  0  0  0  0  0  0  0  0
   -2.4645    1.7268    0.9498 H   0  0  0  0  0  0  0  0  0  0  0  0
   -0.1145    2.4452    1.4171 H   0  0  0  0  0  0  0  0  0  0  0  0
    3.9985    1.1478    0.6168 H   0  0  0  0  0  0  0  0  0  0  0  0
    3.1887    0.5198   -0.8443 H   0  0  0  0  0  0  0  0  0  0  0  0
    3.1922   -0.4424    0.6682 H   0  0  0  0  0  0  0  0  0  0  0  0
    1.3765   -0.9882   -0.7259 H   0  0  0  0  0  0  0  0  0  0  0  0
   -0.9482   -1.7008   -1.1856 H   0  0  0  0  0  0  0  0  0  0  0  0
   -4.8435    2.4636   -0.4447 S   0  0  0  0  0  0  0  0  0  0  0  0
   -6.2182    2.9482   -0.5554 O   0  0  0  0  0  0  0  0  0  0  0  0
   -4.7093    1.2684    0.5257 O   0  0  0  0  0  0  0  0  0  0  0  0
   -4.0453    2.2372   -1.6488 O   0  0  0  0  0  0  0  0  0  0  0  0
   -4.0251    3.6430    0.3966 O   0  0  0  0  0  0  0  0  0  0  0  0
   -4.7118    4.1809    0.8216 H   0  0  0  0  0  0  0  0  0  0  0  0
  1  4  2  0  0  0  0
  2  3  2  0  0  0  0
  2  1  1  0  0  0  0
  4  5  1  0  0  0  0
  4 11  1  0  0  0  0
  5 12  1  0  0  0  0
  6  7  1  0  0  0  0
  6  5  2  0  0  0  0
  8 13  1  0  0  0  0
  8 15  1  0  0  0  0
  8  7  1  0  0  0  0
  9  6  1  0  0  0  0
 10  9  2  0  0  0  0
 10  1  1  0  0  0  0
 14  8  1  0  0  0  0
 16  9  1  0  0  0  0
 17 10  1  0  0  0  0
 18 22  1  0  0  0  0
 18 20  1  0  0  0  0
 19 18  2  0  0  0  0
 21 18  2  0  0  0  0
 22 23  1  0  0  0  0
M  RAD  2   3   2  20   2
M  END
