Coordinates from ORCA-job 4-MeOPhN2+~HSO4-_B3LYPG-6-31G_dp-NX-Scan-d89-09-n800
 OpenBabel11261921003D

 23 22  0  0  0  0  0  0  0  0999 V2000
   -1.9010   -0.7752   -0.2584 C   0  0  0  0  0  0  0  0  0  0  0  0
   -3.0463   -1.4669   -0.4842 N   0  0  0  0  0  0  0  0  0  0  0  0
   -3.9901   -2.0424   -0.6741 N   0  0  0  0  0  0  0  0  0  0  0  0
   -1.9943    0.6035    0.0643 C   0  0  0  0  0  0  0  0  0  0  0  0
   -0.8148    1.2826    0.2772 C   0  0  0  0  0  0  0  0  0  0  0  0
    0.4259    0.6171    0.1769 C   0  0  0  0  0  0  0  0  0  0  0  0
    1.5039    1.3686    0.4011 O   0  0  0  0  0  0  0  0  0  0  0  0
    2.8158    0.8018    0.3178 C   0  0  0  0  0  0  0  0  0  0  0  0
    0.4897   -0.7674   -0.1460 C   0  0  0  0  0  0  0  0  0  0  0  0
   -0.6710   -1.4716   -0.3665 C   0  0  0  0  0  0  0  0  0  0  0  0
   -2.9695    1.1244    0.1382 H   0  0  0  0  0  0  0  0  0  0  0  0
   -0.8821    2.3421    0.5128 H   0  0  0  0  0  0  0  0  0  0  0  0
    3.4988    1.6198    0.5423 H   0  0  0  0  0  0  0  0  0  0  0  0
    3.0166    0.4230   -0.6898 H   0  0  0  0  0  0  0  0  0  0  0  0
    2.9463    0.0021    1.0546 H   0  0  0  0  0  0  0  0  0  0  0  0
    1.4408   -1.2784   -0.2231 H   0  0  0  0  0  0  0  0  0  0  0  0
   -0.6507   -2.5261   -0.6182 H   0  0  0  0  0  0  0  0  0  0  0  0
   -4.0227    3.5334    0.4446 S   0  0  0  0  0  0  0  0  0  0  0  0
   -4.4621    2.1129    0.2883 O   0  0  0  0  0  0  0  0  0  0  0  0
   -4.8387    4.3593    1.3494 O   0  0  0  0  0  0  0  0  0  0  0  0
   -2.5543    3.6425    0.6286 O   0  0  0  0  0  0  0  0  0  0  0  0
   -4.3201    4.1798   -1.0717 O   0  0  0  0  0  0  0  0  0  0  0  0
   -4.7417    5.0305   -0.8792 H   0  0  0  0  0  0  0  0  0  0  0  0
  1  4  1  0  0  0  0
  2  1  1  0  0  0  0
  3  2  1  0  0  0  0
  4 11  1  0  0  0  0
  4  5  2  0  0  0  0
  5 12  1  0  0  0  0
  6  5  1  0  0  0  0
  6  7  1  0  0  0  0
  8  7  1  0  0  0  0
  8 13  1  0  0  0  0
  8 15  1  0  0  0  0
  9  6  2  0  0  0  0
 10  1  2  0  0  0  0
 10  9  1  0  0  0  0
 14  8  1  0  0  0  0
 16  9  1  0  0  0  0
 17 10  1  0  0  0  0
 18 21  2  0  0  0  0
 18 20  1  0  0  0  0
 19 18  2  0  0  0  0
 22 23  1  0  0  0  0
 22 18  1  0  0  0  0
M  RAD  3   2   2   3   3  20   2
M  END
