Coordinates from ORCA-job 4-MeOPhN2+~HSO4-_B3LYPG-6-31G_dp-NX-Scan-d89-09-n800
 OpenBabel11261921003D

 23 22  0  0  0  0  0  0  0  0999 V2000
   -1.9023   -0.2343   -0.0831 C   0  0  0  0  0  0  0  0  0  0  0  0
   -3.1586   -0.7109   -0.3443 N   0  0  0  0  0  0  0  0  0  0  0  0
   -4.0941   -1.2641   -0.6111 N   0  0  0  0  0  0  0  0  0  0  0  0
   -1.7197    0.9859    0.6017 C   0  0  0  0  0  0  0  0  0  0  0  0
   -0.4257    1.4035    0.8259 C   0  0  0  0  0  0  0  0  0  0  0  0
    0.6701    0.6327    0.3894 C   0  0  0  0  0  0  0  0  0  0  0  0
    1.8795    1.1344    0.6622 O   0  0  0  0  0  0  0  0  0  0  0  0
    3.0567    0.4387    0.2411 C   0  0  0  0  0  0  0  0  0  0  0  0
    0.4613   -0.5907   -0.2974 C   0  0  0  0  0  0  0  0  0  0  0  0
   -0.8229   -1.0283   -0.5392 C   0  0  0  0  0  0  0  0  0  0  0  0
   -2.5745    1.5902    0.8904 H   0  0  0  0  0  0  0  0  0  0  0  0
   -0.2468    2.3513    1.3199 H   0  0  0  0  0  0  0  0  0  0  0  0
    3.8920    1.0543    0.5724 H   0  0  0  0  0  0  0  0  0  0  0  0
    3.0853    0.3380   -0.8493 H   0  0  0  0  0  0  0  0  0  0  0  0
    3.1204   -0.5479    0.7117 H   0  0  0  0  0  0  0  0  0  0  0  0
    1.2961   -1.1872   -0.6410 H   0  0  0  0  0  0  0  0  0  0  0  0
   -1.0061   -1.9576   -1.0673 H   0  0  0  0  0  0  0  0  0  0  0  0
   -4.4323    3.1820    0.2120 S   0  0  0  0  0  0  0  0  0  0  0  0
   -4.6076    1.6971    0.2758 O   0  0  0  0  0  0  0  0  0  0  0  0
   -5.4524    4.0084    0.8829 O   0  0  0  0  0  0  0  0  0  0  0  0
   -3.0266    3.5713    0.4991 O   0  0  0  0  0  0  0  0  0  0  0  0
   -4.6602    3.4815   -1.4183 O   0  0  0  0  0  0  0  0  0  0  0  0
   -5.0531    4.3669   -1.4488 H   0  0  0  0  0  0  0  0  0  0  0  0
  1  4  2  0  0  0  0
  2  1  1  0  0  0  0
  3  2  1  0  0  0  0
  4  5  1  0  0  0  0
  4 11  1  0  0  0  0
  5 12  1  0  0  0  0
  6  7  1  0  0  0  0
  6  5  2  0  0  0  0
  8 13  1  0  0  0  0
  8  7  1  0  0  0  0
  8 15  1  0  0  0  0
  9  6  1  0  0  0  0
 10  9  2  0  0  0  0
 10  1  1  0  0  0  0
 14  8  1  0  0  0  0
 16  9  1  0  0  0  0
 17 10  1  0  0  0  0
 18 19  2  0  0  0  0
 18 21  2  0  0  0  0
 18 20  1  0  0  0  0
 22 18  1  0  0  0  0
 23 22  1  0  0  0  0
M  RAD  3   2   2   3   3  20   2
M  END
