Coordinates from ORCA-job 4-MeOPhN2+~HSO4-_B3LYPG-6-31G_dp-NX-Scan-d89-09-n800
 OpenBabel11261921003D

 23 22  0  0  0  0  0  0  0  0999 V2000
   -1.9362   -0.9902   -0.3011 C   0  0  0  0  0  0  0  0  0  0  0  0
   -2.9969   -1.7935   -0.5501 N   0  0  0  0  0  0  0  0  0  0  0  0
   -3.8615   -2.4787   -0.7628 N   0  0  0  0  0  0  0  0  0  0  0  0
   -2.1492    0.3685    0.0617 C   0  0  0  0  0  0  0  0  0  0  0  0
   -1.0382    1.1469    0.2968 C   0  0  0  0  0  0  0  0  0  0  0  0
    0.2586    0.5982    0.1782 C   0  0  0  0  0  0  0  0  0  0  0  0
    1.2617    1.4360    0.4273 O   0  0  0  0  0  0  0  0  0  0  0  0
    2.6212    0.9980    0.3282 C   0  0  0  0  0  0  0  0  0  0  0  0
    0.4485   -0.7644   -0.1856 C   0  0  0  0  0  0  0  0  0  0  0  0
   -0.6436   -1.5632   -0.4270 C   0  0  0  0  0  0  0  0  0  0  0  0
   -3.1379    0.8397    0.1621 H   0  0  0  0  0  0  0  0  0  0  0  0
   -1.1995    2.2011    0.5543 H   0  0  0  0  0  0  0  0  0  0  0  0
    3.2238    1.8710    0.5744 H   0  0  0  0  0  0  0  0  0  0  0  0
    2.8530    0.6668   -0.6891 H   0  0  0  0  0  0  0  0  0  0  0  0
    2.8280    0.1950    1.0434 H   0  0  0  0  0  0  0  0  0  0  0  0
    1.4417   -1.1853   -0.2777 H   0  0  0  0  0  0  0  0  0  0  0  0
   -0.5281   -2.6041   -0.7082 H   0  0  0  0  0  0  0  0  0  0  0  0
   -3.7389    3.7251    0.5333 S   0  0  0  0  0  0  0  0  0  0  0  0
   -4.2370    2.3222    0.6033 O   0  0  0  0  0  0  0  0  0  0  0  0
   -4.4894    4.7184    1.3187 O   0  0  0  0  0  0  0  0  0  0  0  0
   -2.2591    3.8121    0.6613 O   0  0  0  0  0  0  0  0  0  0  0  0
   -4.0578    4.1428   -1.0593 O   0  0  0  0  0  0  0  0  0  0  0  0
   -4.3848    5.0527   -0.9971 H   0  0  0  0  0  0  0  0  0  0  0  0
  1  4  1  0  0  0  0
  2  1  1  0  0  0  0
  3  2  1  0  0  0  0
  4 11  1  0  0  0  0
  4  5  2  0  0  0  0
  5 12  1  0  0  0  0
  6  5  1  0  0  0  0
  6  7  1  0  0  0  0
  8  7  1  0  0  0  0
  8 13  1  0  0  0  0
  8 15  1  0  0  0  0
  9  6  2  0  0  0  0
 10  1  2  0  0  0  0
 10  9  1  0  0  0  0
 14  8  1  0  0  0  0
 16  9  1  0  0  0  0
 17 10  1  0  0  0  0
 18 19  2  0  0  0  0
 18 21  2  0  0  0  0
 18 20  1  0  0  0  0
 22 23  1  0  0  0  0
 22 18  1  0  0  0  0
M  RAD  3   2   2   3   3  20   2
M  END
