Coordinates from ORCA-job 4-MeOPhN2+~HSO4-_B3LYPG-6-31G_dp-NX-Scan-d89-09-n800
 OpenBabel11261921003D

 23 22  0  0  0  0  0  0  0  0999 V2000
   -1.9500   -1.1071   -0.3176 C   0  0  0  0  0  0  0  0  0  0  0  0
   -2.9569   -1.9733   -0.5739 N   0  0  0  0  0  0  0  0  0  0  0  0
   -3.7655   -2.7227   -0.7956 N   0  0  0  0  0  0  0  0  0  0  0  0
   -2.2276    0.2443    0.0384 C   0  0  0  0  0  0  0  0  0  0  0  0
   -1.1582    1.0764    0.2774 C   0  0  0  0  0  0  0  0  0  0  0  0
    0.1649    0.5873    0.1703 C   0  0  0  0  0  0  0  0  0  0  0  0
    1.1233    1.4724    0.4230 O   0  0  0  0  0  0  0  0  0  0  0  0
    2.5036    1.1025    0.3355 C   0  0  0  0  0  0  0  0  0  0  0  0
    0.4230   -0.7658   -0.1853 C   0  0  0  0  0  0  0  0  0  0  0  0
   -0.6284   -1.6155   -0.4305 C   0  0  0  0  0  0  0  0  0  0  0  0
   -3.2301    0.6710    0.1290 H   0  0  0  0  0  0  0  0  0  0  0  0
   -1.3509    2.1321    0.5265 H   0  0  0  0  0  0  0  0  0  0  0  0
    3.0594    2.0062    0.5804 H   0  0  0  0  0  0  0  0  0  0  0  0
    2.7583    0.7775   -0.6784 H   0  0  0  0  0  0  0  0  0  0  0  0
    2.7451    0.3149    1.0569 H   0  0  0  0  0  0  0  0  0  0  0  0
    1.4357   -1.1398   -0.2684 H   0  0  0  0  0  0  0  0  0  0  0  0
   -0.4617   -2.6510   -0.7059 H   0  0  0  0  0  0  0  0  0  0  0  0
   -3.5720    3.8129    0.5541 S   0  0  0  0  0  0  0  0  0  0  0  0
   -4.0938    2.4238    0.6652 O   0  0  0  0  0  0  0  0  0  0  0  0
   -4.2534    4.8391    1.3620 O   0  0  0  0  0  0  0  0  0  0  0  0
   -2.0840    3.8631    0.6092 O   0  0  0  0  0  0  0  0  0  0  0  0
   -3.9582    4.2218   -1.0260 O   0  0  0  0  0  0  0  0  0  0  0  0
   -4.2444    5.1451   -0.9615 H   0  0  0  0  0  0  0  0  0  0  0  0
  1  4  1  0  0  0  0
  2  1  1  0  0  0  0
  3  2  1  0  0  0  0
  4 11  1  0  0  0  0
  4  5  2  0  0  0  0
  5 12  1  0  0  0  0
  6  5  1  0  0  0  0
  6  7  1  0  0  0  0
  8  7  1  0  0  0  0
  8 13  1  0  0  0  0
  8 15  1  0  0  0  0
  9  6  2  0  0  0  0
 10  1  2  0  0  0  0
 10  9  1  0  0  0  0
 14  8  1  0  0  0  0
 16  9  1  0  0  0  0
 17 10  1  0  0  0  0
 18 21  2  0  0  0  0
 18 19  2  0  0  0  0
 18 20  1  0  0  0  0
 22 23  1  0  0  0  0
 22 18  1  0  0  0  0
M  RAD  3   2   2   3   3  20   2
M  END
