Coordinates from ORCA-job 4-MeOPhN2+~HSO4-_B3LYPG-6-31G_dp-NX-Scan-d89-09-n800
 OpenBabel11261921003D

 23 22  0  0  0  0  0  0  0  0999 V2000
   -1.9447   -1.0663   -0.3125 C   0  0  0  0  0  0  0  0  0  0  0  0
   -2.9737   -1.9071   -0.5664 N   0  0  0  0  0  0  0  0  0  0  0  0
   -3.8087   -2.6275   -0.7841 N   0  0  0  0  0  0  0  0  0  0  0  0
   -2.1995    0.2877    0.0476 C   0  0  0  0  0  0  0  0  0  0  0  0
   -1.1160    1.1017    0.2867 C   0  0  0  0  0  0  0  0  0  0  0  0
    0.1980    0.5916    0.1745 C   0  0  0  0  0  0  0  0  0  0  0  0
    1.1729    1.4596    0.4269 O   0  0  0  0  0  0  0  0  0  0  0  0
    2.5461    1.0656    0.3339 C   0  0  0  0  0  0  0  0  0  0  0  0
    0.4322   -0.7649   -0.1858 C   0  0  0  0  0  0  0  0  0  0  0  0
   -0.6331   -1.5974   -0.4308 C   0  0  0  0  0  0  0  0  0  0  0  0
   -3.1973    0.7297    0.1414 H   0  0  0  0  0  0  0  0  0  0  0  0
   -1.3001    2.1569    0.5394 H   0  0  0  0  0  0  0  0  0  0  0  0
    3.1189    1.9584    0.5800 H   0  0  0  0  0  0  0  0  0  0  0  0
    2.7921    0.7394   -0.6817 H   0  0  0  0  0  0  0  0  0  0  0  0
    2.7758    0.2714    1.0520 H   0  0  0  0  0  0  0  0  0  0  0  0
    1.4385   -1.1549   -0.2727 H   0  0  0  0  0  0  0  0  0  0  0  0
   -0.4839   -2.6347   -0.7095 H   0  0  0  0  0  0  0  0  0  0  0  0
   -3.6284    3.7810    0.5459 S   0  0  0  0  0  0  0  0  0  0  0  0
   -4.1354    2.3850    0.6465 O   0  0  0  0  0  0  0  0  0  0  0  0
   -4.3379    4.7931    1.3465 O   0  0  0  0  0  0  0  0  0  0  0  0
   -2.1429    3.8526    0.6232 O   0  0  0  0  0  0  0  0  0  0  0  0
   -3.9963    4.1879   -1.0390 O   0  0  0  0  0  0  0  0  0  0  0  0
   -4.2981    5.1064   -0.9768 H   0  0  0  0  0  0  0  0  0  0  0  0
  1  4  1  0  0  0  0
  2  1  1  0  0  0  0
  3  2  1  0  0  0  0
  4 11  1  0  0  0  0
  4  5  2  0  0  0  0
  5 12  1  0  0  0  0
  6  5  1  0  0  0  0
  6  7  1  0  0  0  0
  8  7  1  0  0  0  0
  8 13  1  0  0  0  0
  8 15  1  0  0  0  0
  9  6  2  0  0  0  0
 10  1  2  0  0  0  0
 10  9  1  0  0  0  0
 14  8  1  0  0  0  0
 16  9  1  0  0  0  0
 17 10  1  0  0  0  0
 18 21  2  0  0  0  0
 18 19  2  0  0  0  0
 18 20  1  0  0  0  0
 22 23  1  0  0  0  0
 22 18  1  0  0  0  0
M  RAD  3   2   2   3   3  20   2
M  END
