Coordinates from ORCA-job 4-MeOPhN2+~HSO4-_B3LYPG-6-31G_dp-NX-Scan-d89-09-n800
 OpenBabel11261921003D

 23 22  0  0  0  0  0  0  0  0999 V2000
   -1.6690    0.1519   -0.4713 C   0  0  0  0  0  0  0  0  0  0  0  0
   -2.9485   -0.1560   -0.8918 N   0  0  0  0  0  0  0  0  0  0  0  0
   -4.0325   -0.0146   -1.1901 N   0  0  0  0  0  0  0  0  0  0  0  0
   -1.4420    1.3773    0.1920 C   0  0  0  0  0  0  0  0  0  0  0  0
   -0.1527    1.6506    0.6007 C   0  0  0  0  0  0  0  0  0  0  0  0
    0.8960    0.7386    0.3550 C   0  0  0  0  0  0  0  0  0  0  0  0
    2.1075    1.1215    0.7915 O   0  0  0  0  0  0  0  0  0  0  0  0
    3.2298    0.2583    0.5996 C   0  0  0  0  0  0  0  0  0  0  0  0
    0.6406   -0.4837   -0.3007 C   0  0  0  0  0  0  0  0  0  0  0  0
   -0.6501   -0.7828   -0.7052 C   0  0  0  0  0  0  0  0  0  0  0  0
   -2.2822    2.0388    0.4033 H   0  0  0  0  0  0  0  0  0  0  0  0
    0.0786    2.5716    1.1242 H   0  0  0  0  0  0  0  0  0  0  0  0
    4.0812    0.7841    1.0304 H   0  0  0  0  0  0  0  0  0  0  0  0
    3.4125    0.0780   -0.4655 H   0  0  0  0  0  0  0  0  0  0  0  0
    3.0888   -0.6955    1.1193 H   0  0  0  0  0  0  0  0  0  0  0  0
    1.4352   -1.1936   -0.4903 H   0  0  0  0  0  0  0  0  0  0  0  0
   -0.8733   -1.7178   -1.2072 H   0  0  0  0  0  0  0  0  0  0  0  0
   -5.1170    2.3952    0.0263 S   0  0  0  0  0  0  0  0  0  0  0  0
   -6.3093    1.5821    0.2418 O   0  0  0  0  0  0  0  0  0  0  0  0
   -4.1330    2.4659    1.1376 O   0  0  0  0  0  0  0  0  0  0  0  0
   -4.4082    2.1035   -1.2850 O   0  0  0  0  0  0  0  0  0  0  0  0
   -5.6502    3.9481   -0.1649 O   0  0  0  0  0  0  0  0  0  0  0  0
   -5.0239    4.4937    0.3351 H   0  0  0  0  0  0  0  0  0  0  0  0
  1  4  1  0  0  0  0
  2  1  1  0  0  0  0
  3  2  1  0  0  0  0
  4 11  1  0  0  0  0
  4  5  2  0  0  0  0
  5 12  1  0  0  0  0
  6  5  1  0  0  0  0
  6  7  1  0  0  0  0
  8  7  1  0  0  0  0
  8 13  1  0  0  0  0
  8 15  1  0  0  0  0
  9  6  2  0  0  0  0
 10  1  2  0  0  0  0
 10  9  1  0  0  0  0
 14  8  1  0  0  0  0
 16  9  1  0  0  0  0
 17 10  1  0  0  0  0
 18 19  2  0  0  0  0
 18 20  1  0  0  0  0
 21 18  2  0  0  0  0
 22 18  1  0  0  0  0
 22 23  1  0  0  0  0
M  RAD  3   2   2   3   3  20   2
M  END
