Coordinates from ORCA-job 4-MeOPhN2+~HSO4-_B3LYPG-6-31G_dp-NX-Scan-d89-09-n800
 OpenBabel11261921003D

 23 23  0  0  0  0  0  0  0  0999 V2000
   -1.4955    0.6993   -0.5899 C   0  0  0  0  0  0  0  0  0  0  0  0
   -2.7153    0.6595   -1.2693 N   0  0  0  0  0  0  0  0  0  0  0  0
   -3.7985    1.1379   -1.1831 N   0  0  0  0  0  0  0  0  0  0  0  0
   -1.2232    1.4598    0.5718 C   0  0  0  0  0  0  0  0  0  0  0  0
    0.0350    1.3909    1.1380 C   0  0  0  0  0  0  0  0  0  0  0  0
    1.0411    0.5803    0.5745 C   0  0  0  0  0  0  0  0  0  0  0  0
    2.2274    0.5978    1.2168 O   0  0  0  0  0  0  0  0  0  0  0  0
    3.2986   -0.1983    0.7154 C   0  0  0  0  0  0  0  0  0  0  0  0
    0.7710   -0.1735   -0.5802 C   0  0  0  0  0  0  0  0  0  0  0  0
   -0.4925   -0.1076   -1.1507 C   0  0  0  0  0  0  0  0  0  0  0  0
   -1.9922    2.0818    1.0060 H   0  0  0  0  0  0  0  0  0  0  0  0
    0.2738    1.9598    2.0298 H   0  0  0  0  0  0  0  0  0  0  0  0
    4.1366   -0.0261    1.3909 H   0  0  0  0  0  0  0  0  0  0  0  0
    3.5808    0.1064   -0.2990 H   0  0  0  0  0  0  0  0  0  0  0  0
    3.0391   -1.2636    0.7201 H   0  0  0  0  0  0  0  0  0  0  0  0
    1.5293   -0.8014   -1.0303 H   0  0  0  0  0  0  0  0  0  0  0  0
   -0.7248   -0.6803   -2.0420 H   0  0  0  0  0  0  0  0  0  0  0  0
   -5.4593    2.5603    0.3507 S   0  0  0  0  0  0  0  0  0  0  0  0
   -5.4677    3.6933    1.2513 O   0  0  0  0  0  0  0  0  0  0  0  0
   -3.9207    2.1969    0.0907 O   0  0  0  0  0  0  0  0  0  0  0  0
   -6.2231    1.3478    0.6082 O   0  0  0  0  0  0  0  0  0  0  0  0
   -5.9290    3.1310   -1.1052 O   0  0  0  0  0  0  0  0  0  0  0  0
   -6.2124    2.3633   -1.6296 H   0  0  0  0  0  0  0  0  0  0  0  0
  1  4  1  0  0  0  0
  2  3  1  0  0  0  0
  2  1  1  0  0  0  0
  3 20  1  0  0  0  0
  4 11  1  0  0  0  0
  4  5  2  0  0  0  0
  5 12  1  0  0  0  0
  6  5  1  0  0  0  0
  6  7  1  0  0  0  0
  8 15  1  0  0  0  0
  8  7  1  0  0  0  0
  8 13  1  0  0  0  0
  9  6  2  0  0  0  0
 10  1  2  0  0  0  0
 10  9  1  0  0  0  0
 14  8  1  0  0  0  0
 16  9  1  0  0  0  0
 17 10  1  0  0  0  0
 18 21  2  0  0  0  0
 18 19  2  0  0  0  0
 20 18  1  0  0  0  0
 22 18  1  0  0  0  0
 23 22  1  0  0  0  0
M  RAD  2   2   2   3   2
M  END
