Coordinates from ORCA-job 4-MeOPhN2+~HSO4-_B3LYPG-6-31G_dp-NX-Scan-d89-09-n800
 OpenBabel11261921003D

 23 22  0  0  0  0  0  0  0  0999 V2000
   -1.7547    0.3309   -0.3139 C   0  0  0  0  0  0  0  0  0  0  0  0
   -3.0319    0.0820   -0.7697 N   0  0  0  0  0  0  0  0  0  0  0  0
   -4.0012   -0.2144   -1.2557 N   0  0  0  0  0  0  0  0  0  0  0  0
   -1.5069    1.3480    0.6306 C   0  0  0  0  0  0  0  0  0  0  0  0
   -0.2003    1.5553    1.0227 C   0  0  0  0  0  0  0  0  0  0  0  0
    0.8494    0.7772    0.4921 C   0  0  0  0  0  0  0  0  0  0  0  0
    2.0770    1.0760    0.9454 O   0  0  0  0  0  0  0  0  0  0  0  0
    3.2059    0.3428    0.4656 C   0  0  0  0  0  0  0  0  0  0  0  0
    0.5787   -0.2386   -0.4500 C   0  0  0  0  0  0  0  0  0  0  0  0
   -0.7254   -0.4634   -0.8540 C   0  0  0  0  0  0  0  0  0  0  0  0
   -2.3518    1.9052    1.0262 H   0  0  0  0  0  0  0  0  0  0  0  0
    0.0447    2.3227    1.7486 H   0  0  0  0  0  0  0  0  0  0  0  0
    4.0699    0.7733    0.9698 H   0  0  0  0  0  0  0  0  0  0  0  0
    3.3208    0.4579   -0.6181 H   0  0  0  0  0  0  0  0  0  0  0  0
    3.1251   -0.7193    0.7212 H   0  0  0  0  0  0  0  0  0  0  0  0
    1.3736   -0.8450   -0.8635 H   0  0  0  0  0  0  0  0  0  0  0  0
   -0.9560   -1.2368   -1.5790 H   0  0  0  0  0  0  0  0  0  0  0  0
   -5.1743    2.2809    0.1963 S   0  0  0  0  0  0  0  0  0  0  0  0
   -6.1259    3.2899    0.6627 O   0  0  0  0  0  0  0  0  0  0  0  0
   -4.3155    1.6232    1.2120 O   0  0  0  0  0  0  0  0  0  0  0  0
   -5.7207    1.3000   -0.7892 O   0  0  0  0  0  0  0  0  0  0  0  0
   -4.0103    3.1330   -0.6749 O   0  0  0  0  0  0  0  0  0  0  0  0
   -4.4918    3.8344   -1.1401 H   0  0  0  0  0  0  0  0  0  0  0  0
  1  4  2  0  0  0  0
  2  1  1  0  0  0  0
  3  2  1  0  0  0  0
  4  5  1  0  0  0  0
  4 11  1  0  0  0  0
  5 12  1  0  0  0  0
  6  7  1  0  0  0  0
  6  5  2  0  0  0  0
  8 15  1  0  0  0  0
  8  7  1  0  0  0  0
  8 13  1  0  0  0  0
  9  6  1  0  0  0  0
 10  9  2  0  0  0  0
 10  1  1  0  0  0  0
 14  8  1  0  0  0  0
 16  9  1  0  0  0  0
 17 10  1  0  0  0  0
 18 19  2  0  0  0  0
 18 20  1  0  0  0  0
 21 18  2  0  0  0  0
 22 18  1  0  0  0  0
 23 22  1  0  0  0  0
M  RAD  3   2   2   3   3  20   2
M  END
