Coordinates from ORCA-job 4-MeOPhN2+~HSO4-_B3LYPG-6-31G_dp-NX-Scan-d89-09-n800
 OpenBabel11261921003D

 23 22  0  0  0  0  0  0  0  0999 V2000
   -1.9205   -0.8781   -0.2759 C   0  0  0  0  0  0  0  0  0  0  0  0
   -3.0240   -1.6289   -0.5123 N   0  0  0  0  0  0  0  0  0  0  0  0
   -3.9258   -2.2664   -0.7134 N   0  0  0  0  0  0  0  0  0  0  0  0
   -2.0719    0.4909    0.0733 C   0  0  0  0  0  0  0  0  0  0  0  0
   -0.9222    1.2168    0.2951 C   0  0  0  0  0  0  0  0  0  0  0  0
    0.3467    0.6086    0.1776 C   0  0  0  0  0  0  0  0  0  0  0  0
    1.3899    1.4025    0.4126 O   0  0  0  0  0  0  0  0  0  0  0  0
    2.7263    0.8986    0.3133 C   0  0  0  0  0  0  0  0  0  0  0  0
    0.4709   -0.7651   -0.1716 C   0  0  0  0  0  0  0  0  0  0  0  0
   -0.6587   -1.5146   -0.4007 C   0  0  0  0  0  0  0  0  0  0  0  0
   -3.0534    0.9925    0.1665 H   0  0  0  0  0  0  0  0  0  0  0  0
   -1.0392    2.2715    0.5493 H   0  0  0  0  0  0  0  0  0  0  0  0
    3.3716    1.7438    0.5482 H   0  0  0  0  0  0  0  0  0  0  0  0
    2.9382    0.5463   -0.7015 H   0  0  0  0  0  0  0  0  0  0  0  0
    2.8974    0.0939    1.0359 H   0  0  0  0  0  0  0  0  0  0  0  0
    1.4430   -1.2328   -0.2620 H   0  0  0  0  0  0  0  0  0  0  0  0
   -0.5932   -2.5626   -0.6715 H   0  0  0  0  0  0  0  0  0  0  0  0
   -3.9014    3.6283    0.4990 S   0  0  0  0  0  0  0  0  0  0  0  0
   -4.3859    2.2166    0.4461 O   0  0  0  0  0  0  0  0  0  0  0  0
   -4.7136    4.5563    1.3029 O   0  0  0  0  0  0  0  0  0  0  0  0
   -2.4353    3.7132    0.7194 O   0  0  0  0  0  0  0  0  0  0  0  0
   -4.1306    4.1539   -1.0768 O   0  0  0  0  0  0  0  0  0  0  0  0
   -4.5301    5.0298   -0.9688 H   0  0  0  0  0  0  0  0  0  0  0  0
  1  4  1  0  0  0  0
  2  1  1  0  0  0  0
  3  2  1  0  0  0  0
  4 11  1  0  0  0  0
  4  5  2  0  0  0  0
  5 12  1  0  0  0  0
  6  5  1  0  0  0  0
  6  7  1  0  0  0  0
  8  7  1  0  0  0  0
  8 13  1  0  0  0  0
  8 15  1  0  0  0  0
  9  6  2  0  0  0  0
 10  1  2  0  0  0  0
 10  9  1  0  0  0  0
 14  8  1  0  0  0  0
 16  9  1  0  0  0  0
 17 10  1  0  0  0  0
 18 21  2  0  0  0  0
 18 20  1  0  0  0  0
 19 18  2  0  0  0  0
 22 23  1  0  0  0  0
 22 18  1  0  0  0  0
M  RAD  3   2   2   3   3  20   2
M  END
