Coordinates from ORCA-job 4-MeOPhN2+~HSO4-_B3LYPG-6-31G_dp-NX-Scan-d89-09-n800
 OpenBabel11261921003D

 23 22  0  0  0  0  0  0  0  0999 V2000
   -1.6522    0.2914   -0.7099 C   0  0  0  0  0  0  0  0  0  0  0  0
   -2.9121    0.0403   -1.2183 N   0  0  0  0  0  0  0  0  0  0  0  0
   -3.9866    0.2348   -1.5228 N   0  0  0  0  0  0  0  0  0  0  0  0
   -1.3633    1.5494   -0.1349 C   0  0  0  0  0  0  0  0  0  0  0  0
   -0.0932    1.7488    0.3654 C   0  0  0  0  0  0  0  0  0  0  0  0
    0.8824    0.7313    0.2991 C   0  0  0  0  0  0  0  0  0  0  0  0
    2.0810    1.0475    0.8163 O   0  0  0  0  0  0  0  0  0  0  0  0
    3.1297    0.0778    0.8070 C   0  0  0  0  0  0  0  0  0  0  0  0
    0.5716   -0.5170   -0.2776 C   0  0  0  0  0  0  0  0  0  0  0  0
   -0.7009   -0.7367   -0.7789 C   0  0  0  0  0  0  0  0  0  0  0  0
   -2.1229    2.3229   -0.0692 H   0  0  0  0  0  0  0  0  0  0  0  0
    0.1744    2.6928    0.8265 H   0  0  0  0  0  0  0  0  0  0  0  0
    3.9840    0.5653    1.2756 H   0  0  0  0  0  0  0  0  0  0  0  0
    3.3915   -0.2128   -0.2162 H   0  0  0  0  0  0  0  0  0  0  0  0
    2.8530   -0.8102    1.3860 H   0  0  0  0  0  0  0  0  0  0  0  0
    1.3083   -1.3081   -0.3327 H   0  0  0  0  0  0  0  0  0  0  0  0
   -0.9660   -1.6898   -1.2230 H   0  0  0  0  0  0  0  0  0  0  0  0
   -4.7771    2.4505    0.2783 S   0  0  0  0  0  0  0  0  0  0  0  0
   -5.0629    1.1521    0.8965 O   0  0  0  0  0  0  0  0  0  0  0  0
   -3.8584    3.3630    0.9891 O   0  0  0  0  0  0  0  0  0  0  0  0
   -4.3567    2.3119   -1.1761 O   0  0  0  0  0  0  0  0  0  0  0  0
   -6.2287    3.2321    0.2324 O   0  0  0  0  0  0  0  0  0  0  0  0
   -6.0166    4.1779    0.2723 H   0  0  0  0  0  0  0  0  0  0  0  0
  1  4  1  0  0  0  0
  2  1  1  0  0  0  0
  3  2  1  0  0  0  0
  4 11  1  0  0  0  0
  4  5  2  0  0  0  0
  5 12  1  0  0  0  0
  6  5  1  0  0  0  0
  6  7  1  0  0  0  0
  8  7  1  0  0  0  0
  8 13  1  0  0  0  0
  8 15  1  0  0  0  0
  9  6  2  0  0  0  0
 10  1  2  0  0  0  0
 10  9  1  0  0  0  0
 14  8  1  0  0  0  0
 16  9  1  0  0  0  0
 17 10  1  0  0  0  0
 18 19  2  0  0  0  0
 18 20  1  0  0  0  0
 21 18  2  0  0  0  0
 22 23  1  0  0  0  0
 22 18  1  0  0  0  0
M  RAD  3   2   2   3   3  20   2
M  END
