Coordinates from ORCA-job 4-MeOPhN2+~HSO4-_B3LYPG-6-31G_dp-NX-Scan-d89-09-n800
 OpenBabel11261921003D

 23 22  0  0  0  0  0  0  0  0999 V2000
   -1.9023   -0.2844   -0.0956 C   0  0  0  0  0  0  0  0  0  0  0  0
   -3.1524   -0.7701   -0.3595 N   0  0  0  0  0  0  0  0  0  0  0  0
   -4.1025   -1.3013   -0.6193 N   0  0  0  0  0  0  0  0  0  0  0  0
   -1.7435    0.9482    0.5743 C   0  0  0  0  0  0  0  0  0  0  0  0
   -0.4585    1.3907    0.7993 C   0  0  0  0  0  0  0  0  0  0  0  0
    0.6513    0.6301    0.3801 C   0  0  0  0  0  0  0  0  0  0  0  0
    1.8510    1.1541    0.6518 O   0  0  0  0  0  0  0  0  0  0  0  0
    3.0420    0.4717    0.2475 C   0  0  0  0  0  0  0  0  0  0  0  0
    0.4661   -0.6071   -0.2902 C   0  0  0  0  0  0  0  0  0  0  0  0
   -0.8088   -1.0687   -0.5349 C   0  0  0  0  0  0  0  0  0  0  0  0
   -2.6138    1.5368    0.8508 H   0  0  0  0  0  0  0  0  0  0  0  0
   -0.3005    2.3499    1.2782 H   0  0  0  0  0  0  0  0  0  0  0  0
    3.8650    1.1059    0.5742 H   0  0  0  0  0  0  0  0  0  0  0  0
    3.0785    0.3554   -0.8410 H   0  0  0  0  0  0  0  0  0  0  0  0
    3.1192   -0.5066    0.7332 H   0  0  0  0  0  0  0  0  0  0  0  0
    1.3129   -1.1944   -0.6195 H   0  0  0  0  0  0  0  0  0  0  0  0
   -0.9740   -2.0075   -1.0519 H   0  0  0  0  0  0  0  0  0  0  0  0
   -4.3959    3.2149    0.2271 S   0  0  0  0  0  0  0  0  0  0  0  0
   -4.6025    1.7349    0.2992 O   0  0  0  0  0  0  0  0  0  0  0  0
   -5.3834    4.0635    0.9187 O   0  0  0  0  0  0  0  0  0  0  0  0
   -2.9758    3.5747    0.4805 O   0  0  0  0  0  0  0  0  0  0  0  0
   -4.6547    3.5175   -1.3986 O   0  0  0  0  0  0  0  0  0  0  0  0
   -5.0388    4.4070   -1.4197 H   0  0  0  0  0  0  0  0  0  0  0  0
  1  4  2  0  0  0  0
  2  1  1  0  0  0  0
  3  2  1  0  0  0  0
  4  5  1  0  0  0  0
  4 11  1  0  0  0  0
  5 12  1  0  0  0  0
  6  7  1  0  0  0  0
  6  5  2  0  0  0  0
  8 13  1  0  0  0  0
  8  7  1  0  0  0  0
  8 15  1  0  0  0  0
  9  6  1  0  0  0  0
 10  9  2  0  0  0  0
 10  1  1  0  0  0  0
 14  8  1  0  0  0  0
 16  9  1  0  0  0  0
 17 10  1  0  0  0  0
 18 19  2  0  0  0  0
 18 21  2  0  0  0  0
 18 20  1  0  0  0  0
 22 18  1  0  0  0  0
 23 22  1  0  0  0  0
M  RAD  3   2   2   3   3  20   2
M  END
