Coordinates from ORCA-job 4-MeOPhN2+~HSO4-_B3LYPG-6-31G_dp-NX-Scan-d89-09-n800
 OpenBabel11261921003D

 23 22  0  0  0  0  0  0  0  0999 V2000
   -1.7438    0.6197   -0.4795 C   0  0  0  0  0  0  0  0  0  0  0  0
   -3.0637    0.5157   -0.8574 N   0  0  0  0  0  0  0  0  0  0  0  0
   -4.0943    0.3270   -1.2462 N   0  0  0  0  0  0  0  0  0  0  0  0
   -1.1988    1.8732   -0.1343 C   0  0  0  0  0  0  0  0  0  0  0  0
    0.1351    1.9148    0.2092 C   0  0  0  0  0  0  0  0  0  0  0  0
    0.9165    0.7393    0.2305 C   0  0  0  0  0  0  0  0  0  0  0  0
    2.1986    0.9057    0.5895 O   0  0  0  0  0  0  0  0  0  0  0  0
    3.0673   -0.2268    0.6538 C   0  0  0  0  0  0  0  0  0  0  0  0
    0.3461   -0.5043   -0.1150 C   0  0  0  0  0  0  0  0  0  0  0  0
   -0.9888   -0.5655   -0.4769 C   0  0  0  0  0  0  0  0  0  0  0  0
   -1.8454    2.7458   -0.1676 H   0  0  0  0  0  0  0  0  0  0  0  0
    0.6081    2.8514    0.4810 H   0  0  0  0  0  0  0  0  0  0  0  0
    4.0355    0.1641    0.9645 H   0  0  0  0  0  0  0  0  0  0  0  0
    3.1643   -0.7067   -0.3262 H   0  0  0  0  0  0  0  0  0  0  0  0
    2.7135   -0.9549    1.3921 H   0  0  0  0  0  0  0  0  0  0  0  0
    0.9332   -1.4135   -0.1032 H   0  0  0  0  0  0  0  0  0  0  0  0
   -1.4488   -1.5103   -0.7443 H   0  0  0  0  0  0  0  0  0  0  0  0
   -4.5645    2.8199    0.4324 S   0  0  0  0  0  0  0  0  0  0  0  0
   -3.8338    1.8531    1.2816 O   0  0  0  0  0  0  0  0  0  0  0  0
   -5.3416    3.8540    1.0972 O   0  0  0  0  0  0  0  0  0  0  0  0
   -3.7622    3.2670   -0.7431 O   0  0  0  0  0  0  0  0  0  0  0  0
   -5.7311    1.7991   -0.2604 O   0  0  0  0  0  0  0  0  0  0  0  0
   -6.2230    2.3474   -0.8929 H   0  0  0  0  0  0  0  0  0  0  0  0
  1 10  2  0  0  0  0
  1  4  1  0  0  0  0
  2  1  1  0  0  0  0
  3  2  1  0  0  0  0
  4  5  2  0  0  0  0
  5  6  1  0  0  0  0
  5 12  1  0  0  0  0
  6  7  1  0  0  0  0
  7  8  1  0  0  0  0
  8 13  1  0  0  0  0
  8 15  1  0  0  0  0
  9 16  1  0  0  0  0
  9  6  2  0  0  0  0
 10  9  1  0  0  0  0
 11  4  1  0  0  0  0
 14  8  1  0  0  0  0
 17 10  1  0  0  0  0
 18 20  2  0  0  0  0
 18 19  1  0  0  0  0
 21 18  2  0  0  0  0
 22 18  1  0  0  0  0
 23 22  1  0  0  0  0
M  RAD  3   2   2   3   3  19   2
M  END
