Coordinates from ORCA-job 4-MeOPhN2+~HSO4-_B3LYPG-6-31G_dp-NX-Scan-d89-09-n800
 OpenBabel11261921003D

 23 22  0  0  0  0  0  0  0  0999 V2000
   -1.5337    0.8162   -0.5828 C   0  0  0  0  0  0  0  0  0  0  0  0
   -2.7158    0.8633   -1.3330 N   0  0  0  0  0  0  0  0  0  0  0  0
   -3.7536    1.4525   -0.8912 N   0  0  0  0  0  0  0  0  0  0  0  0
   -1.2766    1.3515    0.7035 C   0  0  0  0  0  0  0  0  0  0  0  0
   -0.0263    1.1944    1.2777 C   0  0  0  0  0  0  0  0  0  0  0  0
    1.0006    0.5107    0.6039 C   0  0  0  0  0  0  0  0  0  0  0  0
    2.1804    0.4231    1.2647 O   0  0  0  0  0  0  0  0  0  0  0  0
    3.2656   -0.2532    0.6395 C   0  0  0  0  0  0  0  0  0  0  0  0
    0.7575   -0.0249   -0.6708 C   0  0  0  0  0  0  0  0  0  0  0  0
   -0.4965    0.1322   -1.2448 C   0  0  0  0  0  0  0  0  0  0  0  0
   -2.0452    1.8813    1.2456 H   0  0  0  0  0  0  0  0  0  0  0  0
    0.1854    1.5970    2.2621 H   0  0  0  0  0  0  0  0  0  0  0  0
    4.0991   -0.1909    1.3402 H   0  0  0  0  0  0  0  0  0  0  0  0
    3.5483    0.2287   -0.3040 H   0  0  0  0  0  0  0  0  0  0  0  0
    3.0268   -1.3070    0.4519 H   0  0  0  0  0  0  0  0  0  0  0  0
    1.5301   -0.5563   -1.2128 H   0  0  0  0  0  0  0  0  0  0  0  0
   -0.7039   -0.2734   -2.2291 H   0  0  0  0  0  0  0  0  0  0  0  0
   -5.9778    2.8313    0.2335 S   0  0  0  0  0  0  0  0  0  0  0  0
   -5.5987    4.2298    0.3339 O   0  0  0  0  0  0  0  0  0  0  0  0
   -3.9327    2.0184    0.1174 O   0  0  0  0  0  0  0  0  0  0  0  0
   -6.3849    2.0958    1.4180 O   0  0  0  0  0  0  0  0  0  0  0  0
   -6.3153    2.2855   -1.0868 O   0  0  0  0  0  0  0  0  0  0  0  0
   -4.5544    1.4092   -1.5518 H   0  0  0  0  0  0  0  0  0  0  0  0
  1  4  2  0  0  0  0
  2  3  1  0  0  0  0
  2  1  1  0  0  0  0
  3 20  1  0  0  0  0
  4 11  1  0  0  0  0
  4  5  1  0  0  0  0
  5 12  1  0  0  0  0
  6  7  1  0  0  0  0
  6  5  2  0  0  0  0
  8  7  1  0  0  0  0
  8 13  1  0  0  0  0
  9  6  1  0  0  0  0
 10  9  2  0  0  0  0
 10  1  1  0  0  0  0
 14  8  1  0  0  0  0
 15  8  1  0  0  0  0
 16  9  1  0  0  0  0
 17 10  1  0  0  0  0
 18 19  2  0  0  0  0
 18 21  1  0  0  0  0
 22 18  1  0  0  0  0
 23  3  1  0  0  0  0
M  RAD  4   2   2  20   2  21   2  22   2
M  END
