Coordinates from ORCA-job 4-MeOPhN2+~HSO4-_B3LYPG-6-31G_dp-NX-Scan-d89-09-n800
 OpenBabel11261921003D

 23 22  0  0  0  0  0  0  0  0999 V2000
   -1.6848    0.3931   -0.3962 C   0  0  0  0  0  0  0  0  0  0  0  0
   -2.9611    0.1695   -0.8728 N   0  0  0  0  0  0  0  0  0  0  0  0
   -3.9005   -0.1369   -1.4093 N   0  0  0  0  0  0  0  0  0  0  0  0
   -1.4016    1.5017    0.4265 C   0  0  0  0  0  0  0  0  0  0  0  0
   -0.0961    1.6865    0.8335 C   0  0  0  0  0  0  0  0  0  0  0  0
    0.9193    0.7901    0.4404 C   0  0  0  0  0  0  0  0  0  0  0  0
    2.1492    1.0720    0.8990 O   0  0  0  0  0  0  0  0  0  0  0  0
    3.2418    0.2147    0.5614 C   0  0  0  0  0  0  0  0  0  0  0  0
    0.6144   -0.3161   -0.3812 C   0  0  0  0  0  0  0  0  0  0  0  0
   -0.6888   -0.5140   -0.8034 C   0  0  0  0  0  0  0  0  0  0  0  0
   -2.2222    2.1425    0.7314 H   0  0  0  0  0  0  0  0  0  0  0  0
    0.1733    2.5228    1.4687 H   0  0  0  0  0  0  0  0  0  0  0  0
    4.1152    0.6490    1.0462 H   0  0  0  0  0  0  0  0  0  0  0  0
    3.4016    0.1859   -0.5221 H   0  0  0  0  0  0  0  0  0  0  0  0
    3.0797   -0.7999    0.9406 H   0  0  0  0  0  0  0  0  0  0  0  0
    1.3829   -1.0124   -0.6907 H   0  0  0  0  0  0  0  0  0  0  0  0
   -0.9439   -1.3553   -1.4388 H   0  0  0  0  0  0  0  0  0  0  0  0
   -5.2445    2.2064    0.2104 S   0  0  0  0  0  0  0  0  0  0  0  0
   -6.3441    2.8422    0.9368 O   0  0  0  0  0  0  0  0  0  0  0  0
   -4.1629    1.5888    1.0216 O   0  0  0  0  0  0  0  0  0  0  0  0
   -5.6592    1.3145   -0.9131 O   0  0  0  0  0  0  0  0  0  0  0  0
   -4.4080    3.4621   -0.5201 O   0  0  0  0  0  0  0  0  0  0  0  0
   -5.0813    4.1081   -0.7841 H   0  0  0  0  0  0  0  0  0  0  0  0
  1  4  1  0  0  0  0
  2  1  1  0  0  0  0
  3  2  1  0  0  0  0
  4 11  1  0  0  0  0
  4  5  2  0  0  0  0
  5 12  1  0  0  0  0
  6  5  1  0  0  0  0
  6  7  1  0  0  0  0
  8  7  1  0  0  0  0
  8 15  1  0  0  0  0
  8 13  1  0  0  0  0
  9  6  2  0  0  0  0
 10  1  2  0  0  0  0
 10  9  1  0  0  0  0
 14  8  1  0  0  0  0
 16  9  1  0  0  0  0
 17 10  1  0  0  0  0
 18 19  2  0  0  0  0
 18 20  1  0  0  0  0
 21 18  2  0  0  0  0
 22 18  1  0  0  0  0
 23 22  1  0  0  0  0
M  RAD  3   2   2   3   3  20   2
M  END
