Coordinates from ORCA-job 4-MeOPhN2+~HSO4-_B3LYPG-6-31G_dp-NX-Scan-d89-09-n800
 OpenBabel11261921003D

 23 22  0  0  0  0  0  0  0  0999 V2000
   -1.9564   -1.1942   -0.3281 C   0  0  0  0  0  0  0  0  0  0  0  0
   -2.9183   -2.1094   -0.5873 N   0  0  0  0  0  0  0  0  0  0  0  0
   -3.6731   -2.9130   -0.8148 N   0  0  0  0  0  0  0  0  0  0  0  0
   -2.2819    0.1529    0.0157 C   0  0  0  0  0  0  0  0  0  0  0  0
   -1.2446    1.0237    0.2532 C   0  0  0  0  0  0  0  0  0  0  0  0
    0.0964    0.5783    0.1586 C   0  0  0  0  0  0  0  0  0  0  0  0
    1.0196    1.4982    0.4098 O   0  0  0  0  0  0  0  0  0  0  0  0
    2.4134    1.1787    0.3381 C   0  0  0  0  0  0  0  0  0  0  0  0
    0.4045   -0.7673   -0.1832 C   0  0  0  0  0  0  0  0  0  0  0  0
   -0.6153   -1.6540   -0.4275 C   0  0  0  0  0  0  0  0  0  0  0  0
   -3.2990    0.5367    0.0961 H   0  0  0  0  0  0  0  0  0  0  0  0
   -1.4585    2.0797    0.4915 H   0  0  0  0  0  0  0  0  0  0  0  0
    2.9326    2.1046    0.5803 H   0  0  0  0  0  0  0  0  0  0  0  0
    2.6891    0.8548   -0.6705 H   0  0  0  0  0  0  0  0  0  0  0  0
    2.6763    0.4066    1.0687 H   0  0  0  0  0  0  0  0  0  0  0  0
    1.4300   -1.1067   -0.2567 H   0  0  0  0  0  0  0  0  0  0  0  0
   -0.4111   -2.6854   -0.6933 H   0  0  0  0  0  0  0  0  0  0  0  0
   -3.4575    3.8793    0.5724 S   0  0  0  0  0  0  0  0  0  0  0  0
   -4.0270    2.5123    0.7056 O   0  0  0  0  0  0  0  0  0  0  0  0
   -4.0669    4.9422    1.3933 O   0  0  0  0  0  0  0  0  0  0  0  0
   -1.9660    3.8646    0.5830 O   0  0  0  0  0  0  0  0  0  0  0  0
   -3.8711    4.3020   -0.9977 O   0  0  0  0  0  0  0  0  0  0  0  0
   -4.1368    5.2305   -0.9224 H   0  0  0  0  0  0  0  0  0  0  0  0
  1  4  1  0  0  0  0
  2  1  1  0  0  0  0
  3  2  1  0  0  0  0
  4 11  1  0  0  0  0
  4  5  2  0  0  0  0
  5 12  1  0  0  0  0
  6  5  1  0  0  0  0
  6  7  1  0  0  0  0
  8  7  1  0  0  0  0
  8 13  1  0  0  0  0
  8 15  1  0  0  0  0
  9  6  2  0  0  0  0
 10  1  2  0  0  0  0
 10  9  1  0  0  0  0
 14  8  1  0  0  0  0
 16  9  1  0  0  0  0
 17 10  1  0  0  0  0
 18 21  2  0  0  0  0
 18 19  2  0  0  0  0
 18 20  1  0  0  0  0
 22 23  1  0  0  0  0
 22 18  1  0  0  0  0
M  RAD  3   2   2   3   3  20   2
M  END
