Coordinates from ORCA-job 4-MeOPhN2+~HSO4-_B3LYPG-6-31G_dp-NX-Scan-d89-09-n800
 OpenBabel11261921003D

 23 22  0  0  0  0  0  0  0  0999 V2000
   -1.9140   -0.8441   -0.2689 C   0  0  0  0  0  0  0  0  0  0  0  0
   -3.0318   -1.5755   -0.5009 N   0  0  0  0  0  0  0  0  0  0  0  0
   -3.9475   -2.1936   -0.6978 N   0  0  0  0  0  0  0  0  0  0  0  0
   -2.0462    0.5282    0.0708 C   0  0  0  0  0  0  0  0  0  0  0  0
   -0.8863    1.2387    0.2886 C   0  0  0  0  0  0  0  0  0  0  0  0
    0.3737    0.6115    0.1767 C   0  0  0  0  0  0  0  0  0  0  0  0
    1.4285    1.3919    0.4069 O   0  0  0  0  0  0  0  0  0  0  0  0
    2.7571    0.8671    0.3123 C   0  0  0  0  0  0  0  0  0  0  0  0
    0.4779   -0.7665   -0.1628 C   0  0  0  0  0  0  0  0  0  0  0  0
   -0.6625   -1.5011   -0.3881 C   0  0  0  0  0  0  0  0  0  0  0  0
   -3.0258    1.0364    0.1575 H   0  0  0  0  0  0  0  0  0  0  0  0
   -0.9879    2.2951    0.5364 H   0  0  0  0  0  0  0  0  0  0  0  0
    3.4151    1.7039    0.5422 H   0  0  0  0  0  0  0  0  0  0  0  0
    2.9648    0.5049   -0.6998 H   0  0  0  0  0  0  0  0  0  0  0  0
    2.9155    0.0647    1.0405 H   0  0  0  0  0  0  0  0  0  0  0  0
    1.4431   -1.2489   -0.2486 H   0  0  0  0  0  0  0  0  0  0  0  0
   -0.6124   -2.5517   -0.6519 H   0  0  0  0  0  0  0  0  0  0  0  0
   -3.9449    3.5959    0.4818 S   0  0  0  0  0  0  0  0  0  0  0  0
   -4.4179    2.1821    0.3852 O   0  0  0  0  0  0  0  0  0  0  0  0
   -4.7655    4.4899    1.3147 O   0  0  0  0  0  0  0  0  0  0  0  0
   -2.4799    3.6832    0.7052 O   0  0  0  0  0  0  0  0  0  0  0  0
   -4.1782    4.1700   -1.0758 O   0  0  0  0  0  0  0  0  0  0  0  0
   -4.5965    5.0331   -0.9396 H   0  0  0  0  0  0  0  0  0  0  0  0
  1  4  1  0  0  0  0
  2  1  1  0  0  0  0
  3  2  1  0  0  0  0
  4 11  1  0  0  0  0
  4  5  2  0  0  0  0
  5 12  1  0  0  0  0
  6  5  1  0  0  0  0
  6  7  1  0  0  0  0
  8  7  1  0  0  0  0
  8 13  1  0  0  0  0
  8 15  1  0  0  0  0
  9  6  2  0  0  0  0
 10  1  2  0  0  0  0
 10  9  1  0  0  0  0
 14  8  1  0  0  0  0
 16  9  1  0  0  0  0
 17 10  1  0  0  0  0
 18 21  2  0  0  0  0
 18 20  1  0  0  0  0
 19 18  2  0  0  0  0
 22 23  1  0  0  0  0
 22 18  1  0  0  0  0
M  RAD  3   2   2   3   3  20   2
M  END
