Coordinates from ORCA-job 4-MeOPhN2+~HSO4-_B3LYPG-6-31G_dp-NX-Scan-d89-09-n800
 OpenBabel11261921003D

 23 22  0  0  0  0  0  0  0  0999 V2000
   -1.9552   -1.2828   -0.3360 C   0  0  0  0  0  0  0  0  0  0  0  0
   -2.8750   -2.2405   -0.5962 N   0  0  0  0  0  0  0  0  0  0  0  0
   -3.5823   -3.0862   -0.8273 N   0  0  0  0  0  0  0  0  0  0  0  0
   -2.3284    0.0550    0.0027 C   0  0  0  0  0  0  0  0  0  0  0  0
   -1.3251    0.9637    0.2396 C   0  0  0  0  0  0  0  0  0  0  0  0
    0.0327    0.5655    0.1505 C   0  0  0  0  0  0  0  0  0  0  0  0
    0.9192    1.5185    0.4015 O   0  0  0  0  0  0  0  0  0  0  0  0
    2.3246    1.2518    0.3379 C   0  0  0  0  0  0  0  0  0  0  0  0
    0.3899   -0.7691   -0.1857 C   0  0  0  0  0  0  0  0  0  0  0  0
   -0.5970   -1.6920   -0.4296 C   0  0  0  0  0  0  0  0  0  0  0  0
   -3.3600    0.3927    0.0764 H   0  0  0  0  0  0  0  0  0  0  0  0
   -1.5637    2.0154    0.4725 H   0  0  0  0  0  0  0  0  0  0  0  0
    2.8063    2.1975    0.5807 H   0  0  0  0  0  0  0  0  0  0  0  0
    2.6173    0.9363   -0.6686 H   0  0  0  0  0  0  0  0  0  0  0  0
    2.6120    0.4917    1.0718 H   0  0  0  0  0  0  0  0  0  0  0  0
    1.4272   -1.0718   -0.2557 H   0  0  0  0  0  0  0  0  0  0  0  0
   -0.3552   -2.7162   -0.6915 H   0  0  0  0  0  0  0  0  0  0  0  0
   -3.3579    3.9501    0.5880 S   0  0  0  0  0  0  0  0  0  0  0  0
   -3.9983    2.6183    0.7431 O   0  0  0  0  0  0  0  0  0  0  0  0
   -3.8868    5.0557    1.4108 O   0  0  0  0  0  0  0  0  0  0  0  0
   -1.8690    3.8468    0.5686 O   0  0  0  0  0  0  0  0  0  0  0  0
   -3.7753    4.3911   -0.9770 O   0  0  0  0  0  0  0  0  0  0  0  0
   -4.0215    5.3240   -0.8916 H   0  0  0  0  0  0  0  0  0  0  0  0
  1  4  1  0  0  0  0
  2  1  1  0  0  0  0
  3  2  1  0  0  0  0
  4 11  1  0  0  0  0
  4  5  2  0  0  0  0
  5 12  1  0  0  0  0
  6  5  1  0  0  0  0
  6  7  1  0  0  0  0
  8  7  1  0  0  0  0
  8 13  1  0  0  0  0
  8 15  1  0  0  0  0
  9  6  2  0  0  0  0
 10  1  2  0  0  0  0
 10  9  1  0  0  0  0
 14  8  1  0  0  0  0
 16  9  1  0  0  0  0
 17 10  1  0  0  0  0
 18 19  2  0  0  0  0
 18 20  1  0  0  0  0
 21 18  2  0  0  0  0
 22 23  1  0  0  0  0
 22 18  1  0  0  0  0
M  RAD  3   2   2   3   3  20   2
M  END
