Coordinates from ORCA-job 4-MeOPhN2+~HSO4-_B3LYPG-6-31G_dp-NX-Scan-d89-09-n800
 OpenBabel11261921003D

 23 22  0  0  0  0  0  0  0  0999 V2000
   -1.6829    0.3992   -0.3942 C   0  0  0  0  0  0  0  0  0  0  0  0
   -2.9590    0.1773   -0.8725 N   0  0  0  0  0  0  0  0  0  0  0  0
   -3.8916   -0.1355   -1.4166 N   0  0  0  0  0  0  0  0  0  0  0  0
   -1.3951    1.5108    0.4222 C   0  0  0  0  0  0  0  0  0  0  0  0
   -0.0885    1.6929    0.8271 C   0  0  0  0  0  0  0  0  0  0  0  0
    0.9236    0.7906    0.4391 C   0  0  0  0  0  0  0  0  0  0  0  0
    2.1547    1.0708    0.8959 O   0  0  0  0  0  0  0  0  0  0  0  0
    3.2439    0.2075    0.5629 C   0  0  0  0  0  0  0  0  0  0  0  0
    0.6142   -0.3189   -0.3760 C   0  0  0  0  0  0  0  0  0  0  0  0
   -0.6901   -0.5136   -0.7965 C   0  0  0  0  0  0  0  0  0  0  0  0
   -2.2108    2.1586    0.7247 H   0  0  0  0  0  0  0  0  0  0  0  0
    0.1842    2.5319    1.4573 H   0  0  0  0  0  0  0  0  0  0  0  0
    4.1190    0.6408    1.0454 H   0  0  0  0  0  0  0  0  0  0  0  0
    3.4035    0.1722   -0.5204 H   0  0  0  0  0  0  0  0  0  0  0  0
    3.0778   -0.8046    0.9474 H   0  0  0  0  0  0  0  0  0  0  0  0
    1.3796   -1.0201   -0.6821 H   0  0  0  0  0  0  0  0  0  0  0  0
   -0.9487   -1.3572   -1.4275 H   0  0  0  0  0  0  0  0  0  0  0  0
   -5.2481    2.2012    0.2046 S   0  0  0  0  0  0  0  0  0  0  0  0
   -6.3525    2.8124    0.9447 O   0  0  0  0  0  0  0  0  0  0  0  0
   -4.1560    1.5862    1.0045 O   0  0  0  0  0  0  0  0  0  0  0  0
   -5.6551    1.3185   -0.9285 O   0  0  0  0  0  0  0  0  0  0  0  0
   -4.4306    3.4769   -0.5113 O   0  0  0  0  0  0  0  0  0  0  0  0
   -5.1130    4.1171   -0.7657 H   0  0  0  0  0  0  0  0  0  0  0  0
  1  4  1  0  0  0  0
  2  1  1  0  0  0  0
  3  2  1  0  0  0  0
  4 11  1  0  0  0  0
  4  5  2  0  0  0  0
  5 12  1  0  0  0  0
  6  5  1  0  0  0  0
  6  7  1  0  0  0  0
  8  7  1  0  0  0  0
  8 15  1  0  0  0  0
  8 13  1  0  0  0  0
  9  6  2  0  0  0  0
 10  1  2  0  0  0  0
 10  9  1  0  0  0  0
 14  8  1  0  0  0  0
 16  9  1  0  0  0  0
 17 10  1  0  0  0  0
 18 19  2  0  0  0  0
 18 20  1  0  0  0  0
 21 18  2  0  0  0  0
 22 18  1  0  0  0  0
 23 22  1  0  0  0  0
M  RAD  3   2   2   3   3  20   2
M  END
