Coordinates from ORCA-job 4-MeOPhN2+~HSO4-_B3LYPG-6-31G_dp-NX-Scan-d89-09-n800
 OpenBabel11261921003D

 23 22  0  0  0  0  0  0  0  0999 V2000
   -1.6751    0.1405   -0.4472 C   0  0  0  0  0  0  0  0  0  0  0  0
   -2.9554   -0.1736   -0.8581 N   0  0  0  0  0  0  0  0  0  0  0  0
   -4.0399   -0.0517   -1.1595 N   0  0  0  0  0  0  0  0  0  0  0  0
   -1.4513    1.3671    0.2144 C   0  0  0  0  0  0  0  0  0  0  0  0
   -0.1609    1.6495    0.6129 C   0  0  0  0  0  0  0  0  0  0  0  0
    0.8922    0.7450    0.3580 C   0  0  0  0  0  0  0  0  0  0  0  0
    2.1044    1.1364    0.7844 O   0  0  0  0  0  0  0  0  0  0  0  0
    3.2318    0.2823    0.5814 C   0  0  0  0  0  0  0  0  0  0  0  0
    0.6399   -0.4790   -0.2959 C   0  0  0  0  0  0  0  0  0  0  0  0
   -0.6519   -0.7874   -0.6897 C   0  0  0  0  0  0  0  0  0  0  0  0
   -2.2970    2.0191    0.4325 H   0  0  0  0  0  0  0  0  0  0  0  0
    0.0686    2.5719    1.1346 H   0  0  0  0  0  0  0  0  0  0  0  0
    4.0827    0.8144    1.0052 H   0  0  0  0  0  0  0  0  0  0  0  0
    3.4063    0.1048   -0.4856 H   0  0  0  0  0  0  0  0  0  0  0  0
    3.1029   -0.6732    1.1011 H   0  0  0  0  0  0  0  0  0  0  0  0
    1.4380   -1.1830   -0.4926 H   0  0  0  0  0  0  0  0  0  0  0  0
   -0.8725   -1.7237   -1.1903 H   0  0  0  0  0  0  0  0  0  0  0  0
   -5.1409    2.3933   -0.0166 S   0  0  0  0  0  0  0  0  0  0  0  0
   -6.4084    1.6908    0.1526 O   0  0  0  0  0  0  0  0  0  0  0  0
   -4.1843    2.3469    1.1213 O   0  0  0  0  0  0  0  0  0  0  0  0
   -4.4276    2.0717   -1.3164 O   0  0  0  0  0  0  0  0  0  0  0  0
   -5.5154    3.9969   -0.1809 O   0  0  0  0  0  0  0  0  0  0  0  0
   -4.9080    4.4561    0.4193 H   0  0  0  0  0  0  0  0  0  0  0  0
  1  4  1  0  0  0  0
  2  1  1  0  0  0  0
  3  2  1  0  0  0  0
  4 11  1  0  0  0  0
  4  5  2  0  0  0  0
  5 12  1  0  0  0  0
  6  5  1  0  0  0  0
  6  7  1  0  0  0  0
  8  7  1  0  0  0  0
  8 13  1  0  0  0  0
  8 15  1  0  0  0  0
  9  6  2  0  0  0  0
 10  1  2  0  0  0  0
 10  9  1  0  0  0  0
 14  8  1  0  0  0  0
 16  9  1  0  0  0  0
 17 10  1  0  0  0  0
 18 19  2  0  0  0  0
 18 20  1  0  0  0  0
 21 18  2  0  0  0  0
 22 18  1  0  0  0  0
 22 23  1  0  0  0  0
M  RAD  3   2   2   3   3  20   2
M  END
