Coordinates from ORCA-job 4-MeOPhN2+~HSO4-_B3LYPG-6-31G_dp-NX-Scan-d89-09-n800
 OpenBabel11261921003D

 23 22  0  0  0  0  0  0  0  0999 V2000
   -1.7522    0.2378   -0.5714 C   0  0  0  0  0  0  0  0  0  0  0  0
   -3.0316   -0.0585   -0.9825 N   0  0  0  0  0  0  0  0  0  0  0  0
   -3.9719   -0.4835   -1.4102 N   0  0  0  0  0  0  0  0  0  0  0  0
   -1.3622    1.5699   -0.3226 C   0  0  0  0  0  0  0  0  0  0  0  0
   -0.0508    1.7820    0.0464 C   0  0  0  0  0  0  0  0  0  0  0  0
    0.8539    0.7075    0.1823 C   0  0  0  0  0  0  0  0  0  0  0  0
    2.0961    1.0409    0.5564 O   0  0  0  0  0  0  0  0  0  0  0  0
    3.0823    0.0212    0.7362 C   0  0  0  0  0  0  0  0  0  0  0  0
    0.4337   -0.6182   -0.0703 C   0  0  0  0  0  0  0  0  0  0  0  0
   -0.8721   -0.8568   -0.4540 C   0  0  0  0  0  0  0  0  0  0  0  0
   -2.0854    2.3902   -0.4033 H   0  0  0  0  0  0  0  0  0  0  0  0
    0.3029    2.7853    0.2561 H   0  0  0  0  0  0  0  0  0  0  0  0
    3.9894    0.5424    1.0391 H   0  0  0  0  0  0  0  0  0  0  0  0
    3.2663   -0.5193   -0.1990 H   0  0  0  0  0  0  0  0  0  0  0  0
    2.7841   -0.6814    1.5216 H   0  0  0  0  0  0  0  0  0  0  0  0
    1.1152   -1.4526    0.0335 H   0  0  0  0  0  0  0  0  0  0  0  0
   -1.2178   -1.8655   -0.6525 H   0  0  0  0  0  0  0  0  0  0  0  0
   -4.5131    2.9330    0.4659 S   0  0  0  0  0  0  0  0  0  0  0  0
   -4.1609    1.4881    0.6033 O   0  0  0  0  0  0  0  0  0  0  0  0
   -5.0939    3.5715    1.6548 O   0  0  0  0  0  0  0  0  0  0  0  0
   -3.4265    3.6980   -0.2040 O   0  0  0  0  0  0  0  0  0  0  0  0
   -5.7619    2.8743   -0.6427 O   0  0  0  0  0  0  0  0  0  0  0  0
   -6.3453    3.6088   -0.3983 H   0  0  0  0  0  0  0  0  0  0  0  0
  1 10  2  0  0  0  0
  1  4  1  0  0  0  0
  2  1  1  0  0  0  0
  3  2  1  0  0  0  0
  4  5  2  0  0  0  0
  5  6  1  0  0  0  0
  5 12  1  0  0  0  0
  6  7  1  0  0  0  0
  7  8  1  0  0  0  0
  8 13  1  0  0  0  0
  8 15  1  0  0  0  0
  9 16  1  0  0  0  0
  9  6  2  0  0  0  0
 10  9  1  0  0  0  0
 11  4  1  0  0  0  0
 14  8  1  0  0  0  0
 17 10  1  0  0  0  0
 18 19  2  0  0  0  0
 18 20  1  0  0  0  0
 21 18  2  0  0  0  0
 22 23  1  0  0  0  0
 22 18  1  0  0  0  0
M  RAD  3   2   2   3   3  20   2
M  END
