Coordinates from ORCA-job 4-MeOPhN2+~HSO4-_B3LYPG-6-31G_dp-NX-Scan-d89-09-n800
 OpenBabel11261921003D

 23 22  0  0  0  0  0  0  0  0999 V2000
   -1.5216    0.8072   -0.5879 C   0  0  0  0  0  0  0  0  0  0  0  0
   -2.7081    0.8509   -1.3447 N   0  0  0  0  0  0  0  0  0  0  0  0
   -3.7455    1.4565   -0.8738 N   0  0  0  0  0  0  0  0  0  0  0  0
   -1.2639    1.3395    0.6980 C   0  0  0  0  0  0  0  0  0  0  0  0
   -0.0125    1.1846    1.2762 C   0  0  0  0  0  0  0  0  0  0  0  0
    1.0165    0.5051    0.6062 C   0  0  0  0  0  0  0  0  0  0  0  0
    2.1993    0.4184    1.2705 O   0  0  0  0  0  0  0  0  0  0  0  0
    3.2814   -0.2556    0.6423 C   0  0  0  0  0  0  0  0  0  0  0  0
    0.7745   -0.0282   -0.6682 C   0  0  0  0  0  0  0  0  0  0  0  0
   -0.4802    0.1272   -1.2448 C   0  0  0  0  0  0  0  0  0  0  0  0
   -2.0288    1.8685    1.2467 H   0  0  0  0  0  0  0  0  0  0  0  0
    0.1943    1.5875    2.2618 H   0  0  0  0  0  0  0  0  0  0  0  0
    4.1177   -0.1959    1.3404 H   0  0  0  0  0  0  0  0  0  0  0  0
    3.5635    0.2270   -0.3016 H   0  0  0  0  0  0  0  0  0  0  0  0
    3.0437   -1.3095    0.4514 H   0  0  0  0  0  0  0  0  0  0  0  0
    1.5480   -0.5579   -1.2110 H   0  0  0  0  0  0  0  0  0  0  0  0
   -0.6832   -0.2787   -2.2300 H   0  0  0  0  0  0  0  0  0  0  0  0
   -6.0842    2.8816    0.2493 S   0  0  0  0  0  0  0  0  0  0  0  0
   -5.6622    4.2673    0.3461 O   0  0  0  0  0  0  0  0  0  0  0  0
   -3.9123    1.9817    0.0553 O   0  0  0  0  0  0  0  0  0  0  0  0
   -6.4464    2.1357    1.4411 O   0  0  0  0  0  0  0  0  0  0  0  0
   -6.3877    2.3180   -1.0665 O   0  0  0  0  0  0  0  0  0  0  0  0
   -4.5241    1.3842   -1.5720 H   0  0  0  0  0  0  0  0  0  0  0  0
  1  4  2  0  0  0  0
  2  3  1  0  0  0  0
  2  1  1  0  0  0  0
  3 20  1  0  0  0  0
  4 11  1  0  0  0  0
  4  5  1  0  0  0  0
  5 12  1  0  0  0  0
  6  7  1  0  0  0  0
  6  5  2  0  0  0  0
  8  7  1  0  0  0  0
  8 13  1  0  0  0  0
  9  6  1  0  0  0  0
 10  9  2  0  0  0  0
 10  1  1  0  0  0  0
 14  8  1  0  0  0  0
 15  8  1  0  0  0  0
 16  9  1  0  0  0  0
 17 10  1  0  0  0  0
 18 19  2  0  0  0  0
 18 21  1  0  0  0  0
 22 18  1  0  0  0  0
 23  3  1  0  0  0  0
M  RAD  4   2   2  20   2  21   2  22   2
M  END
