Coordinates from ORCA-job 4-MeOPhN2+~HSO4-_B3LYPG-6-31G_dp-NX-Scan-d89-09-n800
 OpenBabel11261921003D

 23 22  0  0  0  0  0  0  0  0999 V2000
   -1.7576    0.3885   -0.5811 C   0  0  0  0  0  0  0  0  0  0  0  0
   -3.0518    0.1666   -0.9979 N   0  0  0  0  0  0  0  0  0  0  0  0
   -3.9985   -0.1885   -1.4738 N   0  0  0  0  0  0  0  0  0  0  0  0
   -1.3017    1.6998   -0.3335 C   0  0  0  0  0  0  0  0  0  0  0  0
    0.0182    1.8474    0.0342 C   0  0  0  0  0  0  0  0  0  0  0  0
    0.8658    0.7275    0.1782 C   0  0  0  0  0  0  0  0  0  0  0  0
    2.1234    1.0003    0.5527 O   0  0  0  0  0  0  0  0  0  0  0  0
    3.0540   -0.0678    0.7444 C   0  0  0  0  0  0  0  0  0  0  0  0
    0.3787   -0.5752   -0.0675 C   0  0  0  0  0  0  0  0  0  0  0  0
   -0.9381   -0.7483   -0.4540 C   0  0  0  0  0  0  0  0  0  0  0  0
   -1.9917    2.5443   -0.4264 H   0  0  0  0  0  0  0  0  0  0  0  0
    0.4259    2.8309    0.2389 H   0  0  0  0  0  0  0  0  0  0  0  0
    3.9870    0.4076    1.0442 H   0  0  0  0  0  0  0  0  0  0  0  0
    3.2104   -0.6268   -0.1849 H   0  0  0  0  0  0  0  0  0  0  0  0
    2.7180   -0.7461    1.5361 H   0  0  0  0  0  0  0  0  0  0  0  0
    1.0155   -1.4433    0.0427 H   0  0  0  0  0  0  0  0  0  0  0  0
   -1.3359   -1.7387   -0.6460 H   0  0  0  0  0  0  0  0  0  0  0  0
   -4.4937    2.8690    0.5277 S   0  0  0  0  0  0  0  0  0  0  0  0
   -3.9211    1.5446    0.9064 O   0  0  0  0  0  0  0  0  0  0  0  0
   -5.1047    3.6473    1.6110 O   0  0  0  0  0  0  0  0  0  0  0  0
   -3.5855    3.6350   -0.3703 O   0  0  0  0  0  0  0  0  0  0  0  0
   -5.7536    2.3741   -0.4614 O   0  0  0  0  0  0  0  0  0  0  0  0
   -6.2846    3.1670   -0.6351 H   0  0  0  0  0  0  0  0  0  0  0  0
  1 10  2  0  0  0  0
  1  4  1  0  0  0  0
  2  1  1  0  0  0  0
  3  2  1  0  0  0  0
  4  5  2  0  0  0  0
  5  6  1  0  0  0  0
  5 12  1  0  0  0  0
  6  7  1  0  0  0  0
  7  8  1  0  0  0  0
  8 13  1  0  0  0  0
  8 15  1  0  0  0  0
  9 16  1  0  0  0  0
  9  6  2  0  0  0  0
 10  9  1  0  0  0  0
 11  4  1  0  0  0  0
 14  8  1  0  0  0  0
 17 10  1  0  0  0  0
 18 19  2  0  0  0  0
 18 20  1  0  0  0  0
 21 18  2  0  0  0  0
 22 18  1  0  0  0  0
 23 22  1  0  0  0  0
M  RAD  3   2   2   3   3  20   2
M  END
