Coordinates from ORCA-job 4-MeOPhN2+~HSO4-_B3LYPG-6-31G_dp-NX-Scan-d89-09-n800
 OpenBabel11261921003D

 23 22  0  0  0  0  0  0  0  0999 V2000
   -1.9521   -1.1372   -0.3198 C   0  0  0  0  0  0  0  0  0  0  0  0
   -2.9445   -2.0205   -0.5743 N   0  0  0  0  0  0  0  0  0  0  0  0
   -3.7360   -2.7888   -0.7951 N   0  0  0  0  0  0  0  0  0  0  0  0
   -2.2459    0.2144    0.0271 C   0  0  0  0  0  0  0  0  0  0  0  0
   -1.1873    1.0608    0.2622 C   0  0  0  0  0  0  0  0  0  0  0  0
    0.1419    0.5853    0.1620 C   0  0  0  0  0  0  0  0  0  0  0  0
    1.0888    1.4830    0.4112 O   0  0  0  0  0  0  0  0  0  0  0  0
    2.4738    1.1286    0.3338 C   0  0  0  0  0  0  0  0  0  0  0  0
    0.4169   -0.7669   -0.1835 C   0  0  0  0  0  0  0  0  0  0  0  0
   -0.6238   -1.6299   -0.4260 C   0  0  0  0  0  0  0  0  0  0  0  0
   -3.2537    0.6258    0.1142 H   0  0  0  0  0  0  0  0  0  0  0  0
   -1.3866    2.1183    0.5036 H   0  0  0  0  0  0  0  0  0  0  0  0
    3.0175    2.0405    0.5755 H   0  0  0  0  0  0  0  0  0  0  0  0
    2.7378    0.7997   -0.6764 H   0  0  0  0  0  0  0  0  0  0  0  0
    2.7201    0.3489    1.0620 H   0  0  0  0  0  0  0  0  0  0  0  0
    1.4341   -1.1297   -0.2615 H   0  0  0  0  0  0  0  0  0  0  0  0
   -0.4445   -2.6651   -0.6948 H   0  0  0  0  0  0  0  0  0  0  0  0
   -3.5366    3.8326    0.5624 S   0  0  0  0  0  0  0  0  0  0  0  0
   -4.0753    2.4497    0.6628 O   0  0  0  0  0  0  0  0  0  0  0  0
   -4.2058    4.8647    1.3739 O   0  0  0  0  0  0  0  0  0  0  0  0
   -2.0476    3.8616    0.6231 O   0  0  0  0  0  0  0  0  0  0  0  0
   -3.9102    4.2594   -1.0163 O   0  0  0  0  0  0  0  0  0  0  0  0
   -4.2026    5.1800   -0.9416 H   0  0  0  0  0  0  0  0  0  0  0  0
  1  4  1  0  0  0  0
  2  1  1  0  0  0  0
  3  2  1  0  0  0  0
  4 11  1  0  0  0  0
  4  5  2  0  0  0  0
  5 12  1  0  0  0  0
  6  5  1  0  0  0  0
  6  7  1  0  0  0  0
  8  7  1  0  0  0  0
  8 13  1  0  0  0  0
  8 15  1  0  0  0  0
  9  6  2  0  0  0  0
 10  1  2  0  0  0  0
 10  9  1  0  0  0  0
 14  8  1  0  0  0  0
 16  9  1  0  0  0  0
 17 10  1  0  0  0  0
 18 21  2  0  0  0  0
 18 19  2  0  0  0  0
 18 20  1  0  0  0  0
 22 23  1  0  0  0  0
 22 18  1  0  0  0  0
M  RAD  3   2   2   3   3  20   2
M  END
