Coordinates from ORCA-job 4-MeOPhN2+~HSO4-_B3LYPG-6-31G_dp-NX-Scan-d89-09-n800
 OpenBabel11261921003D

 23 22  0  0  0  0  0  0  0  0999 V2000
   -1.9284   -0.9306   -0.2892 C   0  0  0  0  0  0  0  0  0  0  0  0
   -3.0133   -1.7042   -0.5319 N   0  0  0  0  0  0  0  0  0  0  0  0
   -3.9010   -2.3602   -0.7381 N   0  0  0  0  0  0  0  0  0  0  0  0
   -2.1089    0.4323    0.0710 C   0  0  0  0  0  0  0  0  0  0  0  0
   -0.9774    1.1832    0.3004 C   0  0  0  0  0  0  0  0  0  0  0  0
    0.3051    0.6040    0.1791 C   0  0  0  0  0  0  0  0  0  0  0  0
    1.3296    1.4183    0.4227 O   0  0  0  0  0  0  0  0  0  0  0  0
    2.6773    0.9461    0.3210 C   0  0  0  0  0  0  0  0  0  0  0  0
    0.4605   -0.7637   -0.1821 C   0  0  0  0  0  0  0  0  0  0  0  0
   -0.6517   -1.5365   -0.4183 C   0  0  0  0  0  0  0  0  0  0  0  0
   -3.0934    0.9200    0.1711 H   0  0  0  0  0  0  0  0  0  0  0  0
   -1.1184    2.2366    0.5598 H   0  0  0  0  0  0  0  0  0  0  0  0
    3.3026    1.8039    0.5639 H   0  0  0  0  0  0  0  0  0  0  0  0
    2.8983    0.6072   -0.6963 H   0  0  0  0  0  0  0  0  0  0  0  0
    2.8658    0.1394    1.0371 H   0  0  0  0  0  0  0  0  0  0  0  0
    1.4429   -1.2086   -0.2761 H   0  0  0  0  0  0  0  0  0  0  0  0
   -0.5623   -2.5805   -0.6976 H   0  0  0  0  0  0  0  0  0  0  0  0
   -3.8246    3.6756    0.5190 S   0  0  0  0  0  0  0  0  0  0  0  0
   -4.3148    2.2668    0.5396 O   0  0  0  0  0  0  0  0  0  0  0  0
   -4.6112    4.6422    1.3019 O   0  0  0  0  0  0  0  0  0  0  0  0
   -2.3517    3.7679    0.6982 O   0  0  0  0  0  0  0  0  0  0  0  0
   -4.0935    4.1297   -1.0728 O   0  0  0  0  0  0  0  0  0  0  0  0
   -4.4530    5.0262   -0.9974 H   0  0  0  0  0  0  0  0  0  0  0  0
  1  4  1  0  0  0  0
  2  1  1  0  0  0  0
  3  2  1  0  0  0  0
  4 11  1  0  0  0  0
  4  5  2  0  0  0  0
  5 12  1  0  0  0  0
  6  5  1  0  0  0  0
  6  7  1  0  0  0  0
  8  7  1  0  0  0  0
  8 13  1  0  0  0  0
  8 15  1  0  0  0  0
  9  6  2  0  0  0  0
 10  1  2  0  0  0  0
 10  9  1  0  0  0  0
 14  8  1  0  0  0  0
 16  9  1  0  0  0  0
 17 10  1  0  0  0  0
 18 19  2  0  0  0  0
 18 21  2  0  0  0  0
 18 20  1  0  0  0  0
 22 23  1  0  0  0  0
 22 18  1  0  0  0  0
M  RAD  3   2   2   3   3  20   2
M  END
