Coordinates from ORCA-job 4-MeOPhN2+~HSO4-_B3LYPG-6-31G_dp-NX-Scan-d89-09-n800
 OpenBabel11261921003D

 23 22  0  0  0  0  0  0  0  0999 V2000
   -1.7617    0.5051   -0.5265 C   0  0  0  0  0  0  0  0  0  0  0  0
   -3.0723    0.3480   -0.9177 N   0  0  0  0  0  0  0  0  0  0  0  0
   -4.0680    0.0900   -1.3540 N   0  0  0  0  0  0  0  0  0  0  0  0
   -1.2571    1.7922   -0.2466 C   0  0  0  0  0  0  0  0  0  0  0  0
    0.0727    1.8867    0.1019 C   0  0  0  0  0  0  0  0  0  0  0  0
    0.8847    0.7353    0.1947 C   0  0  0  0  0  0  0  0  0  0  0  0
    2.1576    0.9555    0.5538 O   0  0  0  0  0  0  0  0  0  0  0  0
    3.0554   -0.1477    0.6930 C   0  0  0  0  0  0  0  0  0  0  0  0
    0.3510   -0.5416   -0.0841 C   0  0  0  0  0  0  0  0  0  0  0  0
   -0.9779   -0.6597   -0.4515 C   0  0  0  0  0  0  0  0  0  0  0  0
   -1.9266    2.6519   -0.3165 H   0  0  0  0  0  0  0  0  0  0  0  0
    0.5177    2.8490    0.3277 H   0  0  0  0  0  0  0  0  0  0  0  0
    4.0090    0.2868    0.9902 H   0  0  0  0  0  0  0  0  0  0  0  0
    3.1766   -0.6806   -0.2566 H   0  0  0  0  0  0  0  0  0  0  0  0
    2.7119   -0.8408    1.4686 H   0  0  0  0  0  0  0  0  0  0  0  0
    0.9614   -1.4327   -0.0154 H   0  0  0  0  0  0  0  0  0  0  0  0
   -1.4111   -1.6299   -0.6680 H   0  0  0  0  0  0  0  0  0  0  0  0
   -4.5261    2.8487    0.5257 S   0  0  0  0  0  0  0  0  0  0  0  0
   -3.8293    1.6880    1.1390 O   0  0  0  0  0  0  0  0  0  0  0  0
   -5.2688    3.7251    1.4322 O   0  0  0  0  0  0  0  0  0  0  0  0
   -3.6908    3.5394   -0.4976 O   0  0  0  0  0  0  0  0  0  0  0  0
   -5.6821    2.0326   -0.3984 O   0  0  0  0  0  0  0  0  0  0  0  0
   -6.1476    2.7140   -0.9090 H   0  0  0  0  0  0  0  0  0  0  0  0
  1 10  2  0  0  0  0
  1  4  1  0  0  0  0
  2  1  1  0  0  0  0
  3  2  1  0  0  0  0
  4  5  2  0  0  0  0
  5  6  1  0  0  0  0
  5 12  1  0  0  0  0
  6  7  1  0  0  0  0
  7  8  1  0  0  0  0
  8 13  1  0  0  0  0
  8 15  1  0  0  0  0
  9 16  1  0  0  0  0
  9  6  2  0  0  0  0
 10  9  1  0  0  0  0
 11  4  1  0  0  0  0
 14  8  1  0  0  0  0
 17 10  1  0  0  0  0
 18 19  2  0  0  0  0
 18 20  1  0  0  0  0
 21 18  2  0  0  0  0
 22 18  1  0  0  0  0
 23 22  1  0  0  0  0
M  RAD  3   2   2   3   3  20   2
M  END
