Coordinates from ORCA-job 4-MeOPhN2+~HSO4-_B3LYPG-6-31G_dp-NX-Scan-d89-09-n800
 OpenBabel11261921003D

 23 22  0  0  0  0  0  0  0  0999 V2000
   -1.9472   -1.0886   -0.3153 C   0  0  0  0  0  0  0  0  0  0  0  0
   -2.9654   -1.9419   -0.5700 N   0  0  0  0  0  0  0  0  0  0  0  0
   -3.7885   -2.6759   -0.7892 N   0  0  0  0  0  0  0  0  0  0  0  0
   -2.2144    0.2642    0.0425 C   0  0  0  0  0  0  0  0  0  0  0  0
   -1.1389    1.0885    0.2817 C   0  0  0  0  0  0  0  0  0  0  0  0
    0.1800    0.5897    0.1722 C   0  0  0  0  0  0  0  0  0  0  0  0
    1.1461    1.4669    0.4246 O   0  0  0  0  0  0  0  0  0  0  0  0
    2.5232    1.0858    0.3346 C   0  0  0  0  0  0  0  0  0  0  0  0
    0.4272   -0.7651   -0.1855 C   0  0  0  0  0  0  0  0  0  0  0  0
   -0.6303   -1.6074   -0.4306 C   0  0  0  0  0  0  0  0  0  0  0  0
   -3.2153    0.6966    0.1341 H   0  0  0  0  0  0  0  0  0  0  0  0
   -1.3287    2.1440    0.5323 H   0  0  0  0  0  0  0  0  0  0  0  0
    3.0869    1.9845    0.5800 H   0  0  0  0  0  0  0  0  0  0  0  0
    2.7739    0.7601   -0.6800 H   0  0  0  0  0  0  0  0  0  0  0  0
    2.7592    0.2952    1.0546 H   0  0  0  0  0  0  0  0  0  0  0  0
    1.4371   -1.1462   -0.2703 H   0  0  0  0  0  0  0  0  0  0  0  0
   -0.4713   -2.6437   -0.7074 H   0  0  0  0  0  0  0  0  0  0  0  0
   -3.5973    3.7972    0.5501 S   0  0  0  0  0  0  0  0  0  0  0  0
   -4.1114    2.4045    0.6551 O   0  0  0  0  0  0  0  0  0  0  0  0
   -4.2934    4.8156    1.3549 O   0  0  0  0  0  0  0  0  0  0  0  0
   -2.1104    3.8585    0.6169 O   0  0  0  0  0  0  0  0  0  0  0  0
   -3.9736    4.2061   -1.0324 O   0  0  0  0  0  0  0  0  0  0  0  0
   -4.2692    5.1265   -0.9682 H   0  0  0  0  0  0  0  0  0  0  0  0
  1  4  1  0  0  0  0
  2  1  1  0  0  0  0
  3  2  1  0  0  0  0
  4 11  1  0  0  0  0
  4  5  2  0  0  0  0
  5 12  1  0  0  0  0
  6  5  1  0  0  0  0
  6  7  1  0  0  0  0
  8  7  1  0  0  0  0
  8 13  1  0  0  0  0
  8 15  1  0  0  0  0
  9  6  2  0  0  0  0
 10  1  2  0  0  0  0
 10  9  1  0  0  0  0
 14  8  1  0  0  0  0
 16  9  1  0  0  0  0
 17 10  1  0  0  0  0
 18 21  2  0  0  0  0
 18 19  2  0  0  0  0
 18 20  1  0  0  0  0
 22 23  1  0  0  0  0
 22 18  1  0  0  0  0
M  RAD  3   2   2   3   3  20   2
M  END
