Coordinates from ORCA-job 4-MeOPhN2+~HSO4-_B3LYPG-6-31G_dp-NX-Scan-d89-09-n800
 OpenBabel11261921003D

 23 22  0  0  0  0  0  0  0  0999 V2000
   -1.6508    0.3646   -0.1960 C   0  0  0  0  0  0  0  0  0  0  0  0
   -2.9854    0.0532   -0.3599 N   0  0  0  0  0  0  0  0  0  0  0  0
   -4.0139   -0.3945   -0.4831 N   0  0  0  0  0  0  0  0  0  0  0  0
   -1.2428    1.6799    0.1004 C   0  0  0  0  0  0  0  0  0  0  0  0
    0.1049    1.9175    0.2797 C   0  0  0  0  0  0  0  0  0  0  0  0
    1.0452    0.8729    0.1660 C   0  0  0  0  0  0  0  0  0  0  0  0
    2.3275    1.2243    0.3594 O   0  0  0  0  0  0  0  0  0  0  0  0
    3.3514    0.2337    0.2600 C   0  0  0  0  0  0  0  0  0  0  0  0
    0.6190   -0.4377   -0.1336 C   0  0  0  0  0  0  0  0  0  0  0  0
   -0.7301   -0.6927   -0.3124 C   0  0  0  0  0  0  0  0  0  0  0  0
   -1.9978    2.4577    0.1523 H   0  0  0  0  0  0  0  0  0  0  0  0
    0.4674    2.9134    0.5082 H   0  0  0  0  0  0  0  0  0  0  0  0
    4.2868    0.7584    0.4516 H   0  0  0  0  0  0  0  0  0  0  0  0
    3.3796   -0.2075   -0.7424 H   0  0  0  0  0  0  0  0  0  0  0  0
    3.2146   -0.5542    1.0091 H   0  0  0  0  0  0  0  0  0  0  0  0
    1.3280   -1.2504   -0.2260 H   0  0  0  0  0  0  0  0  0  0  0  0
   -1.0787   -1.6940   -0.5414 H   0  0  0  0  0  0  0  0  0  0  0  0
   -5.2295    2.4485   -0.3166 S   0  0  0  0  0  0  0  0  0  0  0  0
   -6.2111    3.3457   -0.9270 O   0  0  0  0  0  0  0  0  0  0  0  0
   -5.6212    0.9979   -0.3366 O   0  0  0  0  0  0  0  0  0  0  0  0
   -3.8120    2.6135   -0.7159 O   0  0  0  0  0  0  0  0  0  0  0  0
   -5.1930    2.8628    1.2950 O   0  0  0  0  0  0  0  0  0  0  0  0
   -6.0794    3.2020    1.4938 H   0  0  0  0  0  0  0  0  0  0  0  0
  1  4  1  0  0  0  0
  2  1  1  0  0  0  0
  3  2  1  0  0  0  0
  4 11  1  0  0  0  0
  4  5  2  0  0  0  0
  5 12  1  0  0  0  0
  6  5  1  0  0  0  0
  6  7  1  0  0  0  0
  8  7  1  0  0  0  0
  8 13  1  0  0  0  0
  8 15  1  0  0  0  0
  9  6  2  0  0  0  0
 10  1  2  0  0  0  0
 10  9  1  0  0  0  0
 14  8  1  0  0  0  0
 16  9  1  0  0  0  0
 17 10  1  0  0  0  0
 18 22  1  0  0  0  0
 19 18  2  0  0  0  0
 20 18  1  0  0  0  0
 21 18  2  0  0  0  0
 22 23  1  0  0  0  0
M  RAD  3   2   2   3   3  20   2
M  END
