Coordinates from ORCA-job 4-MeOPhN2+~HSO4-_B3LYPG-6-31G_dp-NX-Scan-d89-09-n800
 OpenBabel11261921003D

 23 22  0  0  0  0  0  0  0  0999 V2000
   -1.7454    0.2022   -0.6282 C   0  0  0  0  0  0  0  0  0  0  0  0
   -3.0137   -0.1111   -1.0569 N   0  0  0  0  0  0  0  0  0  0  0  0
   -3.9487   -0.5392   -1.4928 N   0  0  0  0  0  0  0  0  0  0  0  0
   -1.3703    1.5432   -0.4049 C   0  0  0  0  0  0  0  0  0  0  0  0
   -0.0687    1.7741   -0.0134 C   0  0  0  0  0  0  0  0  0  0  0  0
    0.8401    0.7100    0.1691 C   0  0  0  0  0  0  0  0  0  0  0  0
    2.0714    1.0616    0.5614 O   0  0  0  0  0  0  0  0  0  0  0  0
    3.0595    0.0537    0.7918 C   0  0  0  0  0  0  0  0  0  0  0  0
    0.4345   -0.6251   -0.0584 C   0  0  0  0  0  0  0  0  0  0  0  0
   -0.8610   -0.8830   -0.4634 C   0  0  0  0  0  0  0  0  0  0  0  0
   -2.0974    2.3572   -0.5141 H   0  0  0  0  0  0  0  0  0  0  0  0
    0.2723    2.7850    0.1802 H   0  0  0  0  0  0  0  0  0  0  0  0
    3.9558    0.5893    1.1019 H   0  0  0  0  0  0  0  0  0  0  0  0
    3.2689   -0.5104   -0.1238 H   0  0  0  0  0  0  0  0  0  0  0  0
    2.7470   -0.6294    1.5888 H   0  0  0  0  0  0  0  0  0  0  0  0
    1.1193   -1.4513    0.0823 H   0  0  0  0  0  0  0  0  0  0  0  0
   -1.1960   -1.8990   -0.6424 H   0  0  0  0  0  0  0  0  0  0  0  0
   -4.4810    2.9229    0.4580 S   0  0  0  0  0  0  0  0  0  0  0  0
   -4.1926    1.4580    0.4921 O   0  0  0  0  0  0  0  0  0  0  0  0
   -4.9138    3.5271    1.7266 O   0  0  0  0  0  0  0  0  0  0  0  0
   -3.4198    3.6693   -0.2721 O   0  0  0  0  0  0  0  0  0  0  0  0
   -5.8276    2.9887   -0.5257 O   0  0  0  0  0  0  0  0  0  0  0  0
   -6.3544    3.7215   -0.1717 H   0  0  0  0  0  0  0  0  0  0  0  0
  1 10  2  0  0  0  0
  1  4  1  0  0  0  0
  2  1  1  0  0  0  0
  3  2  1  0  0  0  0
  4  5  2  0  0  0  0
  5  6  1  0  0  0  0
  5 12  1  0  0  0  0
  6  7  1  0  0  0  0
  7  8  1  0  0  0  0
  8 13  1  0  0  0  0
  8 15  1  0  0  0  0
  9 16  1  0  0  0  0
  9  6  2  0  0  0  0
 10  9  1  0  0  0  0
 11  4  1  0  0  0  0
 14  8  1  0  0  0  0
 17 10  1  0  0  0  0
 18 19  2  0  0  0  0
 18 20  1  0  0  0  0
 21 18  2  0  0  0  0
 22 23  1  0  0  0  0
 22 18  1  0  0  0  0
M  RAD  3   2   2   3   3  20   2
M  END
