Coordinates from ORCA-job 4-MeOPhN2+~HSO4-_B3LYPG-6-31G_dp-NX-Scan-d89-09-n800
 OpenBabel11261921003D

 23 22  0  0  0  0  0  0  0  0999 V2000
   -1.7550    0.3619   -0.5873 C   0  0  0  0  0  0  0  0  0  0  0  0
   -3.0451    0.1252   -1.0092 N   0  0  0  0  0  0  0  0  0  0  0  0
   -3.9825   -0.2516   -1.4871 N   0  0  0  0  0  0  0  0  0  0  0  0
   -1.3116    1.6772   -0.3391 C   0  0  0  0  0  0  0  0  0  0  0  0
    0.0058    1.8366    0.0332 C   0  0  0  0  0  0  0  0  0  0  0  0
    0.8632    0.7246    0.1799 C   0  0  0  0  0  0  0  0  0  0  0  0
    2.1169    1.0085    0.5585 O   0  0  0  0  0  0  0  0  0  0  0  0
    3.0568   -0.0511    0.7520 C   0  0  0  0  0  0  0  0  0  0  0  0
    0.3886   -0.5825   -0.0676 C   0  0  0  0  0  0  0  0  0  0  0  0
   -0.9251   -0.7675   -0.4580 C   0  0  0  0  0  0  0  0  0  0  0  0
   -2.0072    2.5174   -0.4337 H   0  0  0  0  0  0  0  0  0  0  0  0
    0.4035    2.8239    0.2391 H   0  0  0  0  0  0  0  0  0  0  0  0
    3.9844    0.4326    1.0553 H   0  0  0  0  0  0  0  0  0  0  0  0
    3.2214   -0.6075   -0.1774 H   0  0  0  0  0  0  0  0  0  0  0  0
    2.7247   -0.7335    1.5418 H   0  0  0  0  0  0  0  0  0  0  0  0
    1.0330   -1.4449    0.0445 H   0  0  0  0  0  0  0  0  0  0  0  0
   -1.3131   -1.7615   -0.6518 H   0  0  0  0  0  0  0  0  0  0  0  0
   -4.4930    2.8773    0.5151 S   0  0  0  0  0  0  0  0  0  0  0  0
   -3.9583    1.5246    0.8490 O   0  0  0  0  0  0  0  0  0  0  0  0
   -5.0586    3.6453    1.6306 O   0  0  0  0  0  0  0  0  0  0  0  0
   -3.5709    3.6362   -0.3745 O   0  0  0  0  0  0  0  0  0  0  0  0
   -5.7866    2.4579   -0.4617 O   0  0  0  0  0  0  0  0  0  0  0  0
   -6.3126    3.2660   -0.5668 H   0  0  0  0  0  0  0  0  0  0  0  0
  1 10  2  0  0  0  0
  1  4  1  0  0  0  0
  2  1  1  0  0  0  0
  3  2  1  0  0  0  0
  4  5  2  0  0  0  0
  5  6  1  0  0  0  0
  5 12  1  0  0  0  0
  6  7  1  0  0  0  0
  7  8  1  0  0  0  0
  8 13  1  0  0  0  0
  8 15  1  0  0  0  0
  9 16  1  0  0  0  0
  9  6  2  0  0  0  0
 10  9  1  0  0  0  0
 11  4  1  0  0  0  0
 14  8  1  0  0  0  0
 17 10  1  0  0  0  0
 18 19  2  0  0  0  0
 18 20  1  0  0  0  0
 21 18  2  0  0  0  0
 22 18  1  0  0  0  0
 23 22  1  0  0  0  0
M  RAD  3   2   2   3   3  20   2
M  END
