Coordinates from ORCA-job 4-MeOPhN2+~HSO4-_B3LYPG-6-31G_dp-NX-Scan-d89-09-n800
 OpenBabel11261921003D

 23 22  0  0  0  0  0  0  0  0999 V2000
   -1.8909   -0.5807   -0.1715 C   0  0  0  0  0  0  0  0  0  0  0  0
   -3.1066   -1.1439   -0.4053 N   0  0  0  0  0  0  0  0  0  0  0  0
   -4.1141   -1.5933   -0.5969 N   0  0  0  0  0  0  0  0  0  0  0  0
   -1.8767    0.7589    0.2824 C   0  0  0  0  0  0  0  0  0  0  0  0
   -0.6525    1.3525    0.4865 C   0  0  0  0  0  0  0  0  0  0  0  0
    0.5366    0.6285    0.2570 C   0  0  0  0  0  0  0  0  0  0  0  0
    1.6725    1.2907    0.4870 O   0  0  0  0  0  0  0  0  0  0  0  0
    2.9379    0.6564    0.2738 C   0  0  0  0  0  0  0  0  0  0  0  0
    0.4935   -0.7204   -0.1952 C   0  0  0  0  0  0  0  0  0  0  0  0
   -0.7191   -1.3347   -0.4171 C   0  0  0  0  0  0  0  0  0  0  0  0
   -2.8279    1.2892    0.4261 H   0  0  0  0  0  0  0  0  0  0  0  0
   -0.6283    2.3898    0.8026 H   0  0  0  0  0  0  0  0  0  0  0  0
    3.6846    1.4057    0.5336 H   0  0  0  0  0  0  0  0  0  0  0  0
    3.0601    0.3658   -0.7748 H   0  0  0  0  0  0  0  0  0  0  0  0
    3.0545   -0.2176    0.9230 H   0  0  0  0  0  0  0  0  0  0  0  0
    1.4054   -1.2738   -0.3763 H   0  0  0  0  0  0  0  0  0  0  0  0
   -0.7757   -2.3579   -0.7711 H   0  0  0  0  0  0  0  0  0  0  0  0
   -4.2079    3.3704    0.3359 S   0  0  0  0  0  0  0  0  0  0  0  0
   -4.5216    1.9170    0.1733 O   0  0  0  0  0  0  0  0  0  0  0  0
   -5.1475    4.1395    1.1671 O   0  0  0  0  0  0  0  0  0  0  0  0
   -2.7686    3.5904    0.6247 O   0  0  0  0  0  0  0  0  0  0  0  0
   -4.4474    3.9642   -1.2112 O   0  0  0  0  0  0  0  0  0  0  0  0
   -4.8820    4.8183   -1.0688 H   0  0  0  0  0  0  0  0  0  0  0  0
  1  4  2  0  0  0  0
  2  1  1  0  0  0  0
  3  2  1  0  0  0  0
  4 11  1  0  0  0  0
  4  5  1  0  0  0  0
  5 12  1  0  0  0  0
  6  5  2  0  0  0  0
  6  7  1  0  0  0  0
  8  7  1  0  0  0  0
  8 13  1  0  0  0  0
  8 15  1  0  0  0  0
  9  6  1  0  0  0  0
 10  9  2  0  0  0  0
 10  1  1  0  0  0  0
 14  8  1  0  0  0  0
 16  9  1  0  0  0  0
 17 10  1  0  0  0  0
 18 21  2  0  0  0  0
 18 20  1  0  0  0  0
 19 18  2  0  0  0  0
 22 23  1  0  0  0  0
 22 18  1  0  0  0  0
M  RAD  3   2   2   3   3  20   2
M  END
