Coordinates from ORCA-job 4-MeOPhN2+~HSO4-_B3LYPG-6-31G_dp-NX-Scan-d89-09-n800
 OpenBabel11261921003D

 23 22  0  0  0  0  0  0  0  0999 V2000
   -1.6519    0.2649   -0.6819 C   0  0  0  0  0  0  0  0  0  0  0  0
   -2.9132    0.0039   -1.1822 N   0  0  0  0  0  0  0  0  0  0  0  0
   -3.9882    0.1831   -1.4922 N   0  0  0  0  0  0  0  0  0  0  0  0
   -1.3776    1.5189   -0.0918 C   0  0  0  0  0  0  0  0  0  0  0  0
   -0.1054    1.7299    0.3987 C   0  0  0  0  0  0  0  0  0  0  0  0
    0.8849    0.7286    0.3082 C   0  0  0  0  0  0  0  0  0  0  0  0
    2.0839    1.0560    0.8173 O   0  0  0  0  0  0  0  0  0  0  0  0
    3.1472    0.1029    0.7840 C   0  0  0  0  0  0  0  0  0  0  0  0
    0.5869   -0.5169   -0.2816 C   0  0  0  0  0  0  0  0  0  0  0  0
   -0.6873   -0.7492   -0.7728 C   0  0  0  0  0  0  0  0  0  0  0  0
   -2.1498    2.2787   -0.0026 H   0  0  0  0  0  0  0  0  0  0  0  0
    0.1527    2.6712    0.8705 H   0  0  0  0  0  0  0  0  0  0  0  0
    3.9996    0.5982    1.2479 H   0  0  0  0  0  0  0  0  0  0  0  0
    3.4009   -0.1718   -0.2457 H   0  0  0  0  0  0  0  0  0  0  0  0
    2.8915   -0.7959    1.3558 H   0  0  0  0  0  0  0  0  0  0  0  0
    1.3347   -1.2961   -0.3544 H   0  0  0  0  0  0  0  0  0  0  0  0
   -0.9427   -1.7004   -1.2266 H   0  0  0  0  0  0  0  0  0  0  0  0
   -4.8233    2.4478    0.2282 S   0  0  0  0  0  0  0  0  0  0  0  0
   -5.2319    1.1764    0.8339 O   0  0  0  0  0  0  0  0  0  0  0  0
   -3.8569    3.2799    0.9786 O   0  0  0  0  0  0  0  0  0  0  0  0
   -4.3748    2.2779   -1.2117 O   0  0  0  0  0  0  0  0  0  0  0  0
   -6.1924    3.3645    0.1375 O   0  0  0  0  0  0  0  0  0  0  0  0
   -5.9086    4.2629    0.3675 H   0  0  0  0  0  0  0  0  0  0  0  0
  1  4  1  0  0  0  0
  2  1  1  0  0  0  0
  3  2  1  0  0  0  0
  4 11  1  0  0  0  0
  4  5  2  0  0  0  0
  5 12  1  0  0  0  0
  6  5  1  0  0  0  0
  6  7  1  0  0  0  0
  8  7  1  0  0  0  0
  8 13  1  0  0  0  0
  8 15  1  0  0  0  0
  9  6  2  0  0  0  0
 10  1  2  0  0  0  0
 10  9  1  0  0  0  0
 14  8  1  0  0  0  0
 16  9  1  0  0  0  0
 17 10  1  0  0  0  0
 18 19  2  0  0  0  0
 18 20  1  0  0  0  0
 21 18  2  0  0  0  0
 22 18  1  0  0  0  0
 22 23  1  0  0  0  0
M  RAD  3   2   2   3   3  20   2
M  END
