Coordinates from ORCA-job 4-MeOPhN2+~HSO4-_B3LYPG-6-31G_dp-NX-Scan-d89-09-n800
 OpenBabel11261921003D

 23 22  0  0  0  0  0  0  0  0999 V2000
   -1.9479   -1.0921   -0.3156 C   0  0  0  0  0  0  0  0  0  0  0  0
   -2.9630   -1.9491   -0.5708 N   0  0  0  0  0  0  0  0  0  0  0  0
   -3.7806   -2.6889   -0.7911 N   0  0  0  0  0  0  0  0  0  0  0  0
   -2.2169    0.2607    0.0415 C   0  0  0  0  0  0  0  0  0  0  0  0
   -1.1422    1.0862    0.2804 C   0  0  0  0  0  0  0  0  0  0  0  0
    0.1774    0.5889    0.1716 C   0  0  0  0  0  0  0  0  0  0  0  0
    1.1422    1.4676    0.4239 O   0  0  0  0  0  0  0  0  0  0  0  0
    2.5198    1.0884    0.3347 C   0  0  0  0  0  0  0  0  0  0  0  0
    0.4265   -0.7656   -0.1852 C   0  0  0  0  0  0  0  0  0  0  0  0
   -0.6300   -1.6090   -0.4302 C   0  0  0  0  0  0  0  0  0  0  0  0
   -3.2179    0.6925    0.1332 H   0  0  0  0  0  0  0  0  0  0  0  0
   -1.3319    2.1420    0.5301 H   0  0  0  0  0  0  0  0  0  0  0  0
    3.0821    1.9881    0.5798 H   0  0  0  0  0  0  0  0  0  0  0  0
    2.7714    0.7625   -0.6796 H   0  0  0  0  0  0  0  0  0  0  0  0
    2.7567    0.2986    1.0552 H   0  0  0  0  0  0  0  0  0  0  0  0
    1.4368   -1.1457   -0.2696 H   0  0  0  0  0  0  0  0  0  0  0  0
   -0.4698   -2.6453   -0.7066 H   0  0  0  0  0  0  0  0  0  0  0  0
   -3.5939    3.8013    0.5509 S   0  0  0  0  0  0  0  0  0  0  0  0
   -4.1115    2.4100    0.6566 O   0  0  0  0  0  0  0  0  0  0  0  0
   -4.2852    4.8224    1.3566 O   0  0  0  0  0  0  0  0  0  0  0  0
   -2.1067    3.8580    0.6154 O   0  0  0  0  0  0  0  0  0  0  0  0
   -3.9714    4.2116   -1.0308 O   0  0  0  0  0  0  0  0  0  0  0  0
   -4.2656    5.1323   -0.9657 H   0  0  0  0  0  0  0  0  0  0  0  0
  1  4  1  0  0  0  0
  2  1  1  0  0  0  0
  3  2  1  0  0  0  0
  4 11  1  0  0  0  0
  4  5  2  0  0  0  0
  5 12  1  0  0  0  0
  6  5  1  0  0  0  0
  6  7  1  0  0  0  0
  8  7  1  0  0  0  0
  8 13  1  0  0  0  0
  8 15  1  0  0  0  0
  9  6  2  0  0  0  0
 10  1  2  0  0  0  0
 10  9  1  0  0  0  0
 14  8  1  0  0  0  0
 16  9  1  0  0  0  0
 17 10  1  0  0  0  0
 18 21  2  0  0  0  0
 18 19  2  0  0  0  0
 18 20  1  0  0  0  0
 22 23  1  0  0  0  0
 22 18  1  0  0  0  0
M  RAD  3   2   2   3   3  20   2
M  END
