Coordinates from ORCA-job 4-MeOPhN2+~HSO4-_B3LYPG-6-31G_dp-NX-Scan-d89-09-n800
 OpenBabel11261921003D

 23 22  0  0  0  0  0  0  0  0999 V2000
   -1.7591    0.5325   -0.5095 C   0  0  0  0  0  0  0  0  0  0  0  0
   -3.0728    0.3901   -0.8958 N   0  0  0  0  0  0  0  0  0  0  0  0
   -4.0795    0.1512   -1.3177 N   0  0  0  0  0  0  0  0  0  0  0  0
   -1.2440    1.8121   -0.2151 C   0  0  0  0  0  0  0  0  0  0  0  0
    0.0876    1.8938    0.1299 C   0  0  0  0  0  0  0  0  0  0  0  0
    0.8924    0.7361    0.2038 C   0  0  0  0  0  0  0  0  0  0  0  0
    2.1685    0.9434    0.5599 O   0  0  0  0  0  0  0  0  0  0  0  0
    3.0601   -0.1671    0.6782 C   0  0  0  0  0  0  0  0  0  0  0  0
    0.3490   -0.5333   -0.0898 C   0  0  0  0  0  0  0  0  0  0  0  0
   -0.9822   -0.6378   -0.4533 C   0  0  0  0  0  0  0  0  0  0  0  0
   -1.9090    2.6744   -0.2764 H   0  0  0  0  0  0  0  0  0  0  0  0
    0.5401    2.8502    0.3656 H   0  0  0  0  0  0  0  0  0  0  0  0
    4.0181    0.2573    0.9760 H   0  0  0  0  0  0  0  0  0  0  0  0
    3.1725   -0.6873   -0.2795 H   0  0  0  0  0  0  0  0  0  0  0  0
    2.7169   -0.8691    1.4460 H   0  0  0  0  0  0  0  0  0  0  0  0
    0.9540   -1.4291   -0.0360 H   0  0  0  0  0  0  0  0  0  0  0  0
   -1.4225   -1.6022   -0.6813 H   0  0  0  0  0  0  0  0  0  0  0  0
   -4.5395    2.8432    0.5080 S   0  0  0  0  0  0  0  0  0  0  0  0
   -3.8336    1.7245    1.1816 O   0  0  0  0  0  0  0  0  0  0  0  0
   -5.2945    3.7581    1.3619 O   0  0  0  0  0  0  0  0  0  0  0  0
   -3.7125    3.4831   -0.5549 O   0  0  0  0  0  0  0  0  0  0  0  0
   -5.6913    1.9715   -0.3752 O   0  0  0  0  0  0  0  0  0  0  0  0
   -6.1402    2.6195   -0.9415 H   0  0  0  0  0  0  0  0  0  0  0  0
  1 10  2  0  0  0  0
  1  4  1  0  0  0  0
  2  1  1  0  0  0  0
  3  2  1  0  0  0  0
  4  5  2  0  0  0  0
  5  6  1  0  0  0  0
  5 12  1  0  0  0  0
  6  7  1  0  0  0  0
  7  8  1  0  0  0  0
  8 13  1  0  0  0  0
  8 15  1  0  0  0  0
  9 16  1  0  0  0  0
  9  6  2  0  0  0  0
 10  9  1  0  0  0  0
 11  4  1  0  0  0  0
 14  8  1  0  0  0  0
 17 10  1  0  0  0  0
 18 19  2  0  0  0  0
 18 20  1  0  0  0  0
 21 18  2  0  0  0  0
 22 18  1  0  0  0  0
 23 22  1  0  0  0  0
M  RAD  3   2   2   3   3  20   2
M  END
