Coordinates from ORCA-job 4-MeOPhN2+~HSO4-_B3LYPG-6-31G_dp-NX-Scan-d89-09-n800
 OpenBabel11261921003D

 23 22  0  0  0  0  0  0  0  0999 V2000
   -1.6625    0.1646   -0.5210 C   0  0  0  0  0  0  0  0  0  0  0  0
   -2.9367   -0.1324   -0.9689 N   0  0  0  0  0  0  0  0  0  0  0  0
   -4.0183    0.0396   -1.2646 N   0  0  0  0  0  0  0  0  0  0  0  0
   -1.4350    1.3814    0.1584 C   0  0  0  0  0  0  0  0  0  0  0  0
   -0.1501    1.6377    0.5920 C   0  0  0  0  0  0  0  0  0  0  0  0
    0.8943    0.7185    0.3563 C   0  0  0  0  0  0  0  0  0  0  0  0
    2.1015    1.0856    0.8183 O   0  0  0  0  0  0  0  0  0  0  0  0
    3.2188    0.2142    0.6365 C   0  0  0  0  0  0  0  0  0  0  0  0
    0.6391   -0.4943   -0.3164 C   0  0  0  0  0  0  0  0  0  0  0  0
   -0.6473   -0.7759   -0.7467 C   0  0  0  0  0  0  0  0  0  0  0  0
   -2.2609    2.0639    0.3599 H   0  0  0  0  0  0  0  0  0  0  0  0
    0.0790    2.5522    1.1277 H   0  0  0  0  0  0  0  0  0  0  0  0
    4.0673    0.7269    1.0882 H   0  0  0  0  0  0  0  0  0  0  0  0
    3.4188    0.0438   -0.4271 H   0  0  0  0  0  0  0  0  0  0  0  0
    3.0598   -0.7443    1.1425 H   0  0  0  0  0  0  0  0  0  0  0  0
    1.4299   -1.2103   -0.4996 H   0  0  0  0  0  0  0  0  0  0  0  0
   -0.8707   -1.7036   -1.2622 H   0  0  0  0  0  0  0  0  0  0  0  0
   -5.0264    2.4319    0.1084 S   0  0  0  0  0  0  0  0  0  0  0  0
   -6.0004    1.4130    0.4935 O   0  0  0  0  0  0  0  0  0  0  0  0
   -4.0129    2.8218    1.1187 O   0  0  0  0  0  0  0  0  0  0  0  0
   -4.3598    2.1455   -1.2267 O   0  0  0  0  0  0  0  0  0  0  0  0
   -5.8929    3.8084   -0.1754 O   0  0  0  0  0  0  0  0  0  0  0  0
   -5.3560    4.5270    0.1930 H   0  0  0  0  0  0  0  0  0  0  0  0
  1  4  1  0  0  0  0
  2  1  1  0  0  0  0
  3  2  1  0  0  0  0
  4 11  1  0  0  0  0
  4  5  2  0  0  0  0
  5 12  1  0  0  0  0
  6  5  1  0  0  0  0
  6  7  1  0  0  0  0
  8  7  1  0  0  0  0
  8 13  1  0  0  0  0
  8 15  1  0  0  0  0
  9  6  2  0  0  0  0
 10  1  2  0  0  0  0
 10  9  1  0  0  0  0
 14  8  1  0  0  0  0
 16  9  1  0  0  0  0
 17 10  1  0  0  0  0
 18 19  2  0  0  0  0
 18 20  1  0  0  0  0
 21 18  2  0  0  0  0
 22 18  1  0  0  0  0
 22 23  1  0  0  0  0
M  RAD  3   2   2   3   3  20   2
M  END
