Coordinates from ORCA-job 4-MeOPhN2+~HSO4-_B3LYPG-6-31G_dp-NX-Scan-d89-09-n800
 OpenBabel11261921003D

 23 22  0  0  0  0  0  0  0  0999 V2000
   -1.7591    0.4032   -0.5741 C   0  0  0  0  0  0  0  0  0  0  0  0
   -3.0562    0.1899   -0.9865 N   0  0  0  0  0  0  0  0  0  0  0  0
   -4.0091   -0.1528   -1.4591 N   0  0  0  0  0  0  0  0  0  0  0  0
   -1.2964    1.7121   -0.3256 C   0  0  0  0  0  0  0  0  0  0  0  0
    0.0251    1.8532    0.0387 C   0  0  0  0  0  0  0  0  0  0  0  0
    0.8676    0.7288    0.1786 C   0  0  0  0  0  0  0  0  0  0  0  0
    2.1276    0.9951    0.5498 O   0  0  0  0  0  0  0  0  0  0  0  0
    3.0536   -0.0776    0.7371 C   0  0  0  0  0  0  0  0  0  0  0  0
    0.3737   -0.5710   -0.0678 C   0  0  0  0  0  0  0  0  0  0  0  0
   -0.9450   -0.7375   -0.4509 C   0  0  0  0  0  0  0  0  0  0  0  0
   -1.9840    2.5585   -0.4169 H   0  0  0  0  0  0  0  0  0  0  0  0
    0.4382    2.8343    0.2436 H   0  0  0  0  0  0  0  0  0  0  0  0
    3.9898    0.3928    1.0346 H   0  0  0  0  0  0  0  0  0  0  0  0
    3.2045   -0.6361   -0.1935 H   0  0  0  0  0  0  0  0  0  0  0  0
    2.7169   -0.7555    1.5288 H   0  0  0  0  0  0  0  0  0  0  0  0
    1.0068   -1.4423    0.0392 H   0  0  0  0  0  0  0  0  0  0  0  0
   -1.3480   -1.7258   -0.6431 H   0  0  0  0  0  0  0  0  0  0  0  0
   -4.4965    2.8658    0.5329 S   0  0  0  0  0  0  0  0  0  0  0  0
   -3.9034    1.5587    0.9379 O   0  0  0  0  0  0  0  0  0  0  0  0
   -5.1365    3.6481    1.5961 O   0  0  0  0  0  0  0  0  0  0  0  0
   -3.5944    3.6358   -0.3680 O   0  0  0  0  0  0  0  0  0  0  0  0
   -5.7329    2.3276   -0.4657 O   0  0  0  0  0  0  0  0  0  0  0  0
   -6.2640    3.1102   -0.6812 H   0  0  0  0  0  0  0  0  0  0  0  0
  1 10  2  0  0  0  0
  1  4  1  0  0  0  0
  2  1  1  0  0  0  0
  3  2  1  0  0  0  0
  4  5  2  0  0  0  0
  5  6  1  0  0  0  0
  5 12  1  0  0  0  0
  6  7  1  0  0  0  0
  7  8  1  0  0  0  0
  8 13  1  0  0  0  0
  8 15  1  0  0  0  0
  9 16  1  0  0  0  0
  9  6  2  0  0  0  0
 10  9  1  0  0  0  0
 11  4  1  0  0  0  0
 14  8  1  0  0  0  0
 17 10  1  0  0  0  0
 18 19  2  0  0  0  0
 18 20  1  0  0  0  0
 21 18  2  0  0  0  0
 22 18  1  0  0  0  0
 23 22  1  0  0  0  0
M  RAD  3   2   2   3   3  20   2
M  END
