Coordinates from ORCA-job 4-MeOPhN2+~HSO4-_B3LYPG-6-31G_dp-NX-Scan-d89-09-n800
 OpenBabel11261921003D

 23 22  0  0  0  0  0  0  0  0999 V2000
   -1.9002   -0.2719   -0.0929 C   0  0  0  0  0  0  0  0  0  0  0  0
   -3.1557   -0.7440   -0.3569 N   0  0  0  0  0  0  0  0  0  0  0  0
   -4.1155   -1.2578   -0.6149 N   0  0  0  0  0  0  0  0  0  0  0  0
   -1.7354    0.9578    0.5797 C   0  0  0  0  0  0  0  0  0  0  0  0
   -0.4490    1.3959    0.8045 C   0  0  0  0  0  0  0  0  0  0  0  0
    0.6569    0.6311    0.3824 C   0  0  0  0  0  0  0  0  0  0  0  0
    1.8592    1.1495    0.6536 O   0  0  0  0  0  0  0  0  0  0  0  0
    3.0466    0.4625    0.2464 C   0  0  0  0  0  0  0  0  0  0  0  0
    0.4657   -0.6042   -0.2902 C   0  0  0  0  0  0  0  0  0  0  0  0
   -0.8114   -1.0603   -0.5350 C   0  0  0  0  0  0  0  0  0  0  0  0
   -2.6087    1.5421    0.8546 H   0  0  0  0  0  0  0  0  0  0  0  0
   -0.2861    2.3530    1.2859 H   0  0  0  0  0  0  0  0  0  0  0  0
    3.8729    1.0924    0.5733 H   0  0  0  0  0  0  0  0  0  0  0  0
    3.0811    0.3482   -0.8424 H   0  0  0  0  0  0  0  0  0  0  0  0
    3.1200   -0.5170    0.7301 H   0  0  0  0  0  0  0  0  0  0  0  0
    1.3098   -1.1944   -0.6214 H   0  0  0  0  0  0  0  0  0  0  0  0
   -0.9811   -1.9971   -1.0542 H   0  0  0  0  0  0  0  0  0  0  0  0
   -4.4019    3.2023    0.2232 S   0  0  0  0  0  0  0  0  0  0  0  0
   -4.5892    1.7192    0.2899 O   0  0  0  0  0  0  0  0  0  0  0  0
   -5.4055    4.0334    0.9111 O   0  0  0  0  0  0  0  0  0  0  0  0
   -2.9887    3.5802    0.4864 O   0  0  0  0  0  0  0  0  0  0  0  0
   -4.6552    3.5049   -1.4033 O   0  0  0  0  0  0  0  0  0  0  0  0
   -5.0503    4.3896   -1.4249 H   0  0  0  0  0  0  0  0  0  0  0  0
  1  4  2  0  0  0  0
  2  1  1  0  0  0  0
  3  2  1  0  0  0  0
  4  5  1  0  0  0  0
  4 11  1  0  0  0  0
  5 12  1  0  0  0  0
  6  7  1  0  0  0  0
  6  5  2  0  0  0  0
  8 13  1  0  0  0  0
  8  7  1  0  0  0  0
  8 15  1  0  0  0  0
  9  6  1  0  0  0  0
 10  9  2  0  0  0  0
 10  1  1  0  0  0  0
 14  8  1  0  0  0  0
 16  9  1  0  0  0  0
 17 10  1  0  0  0  0
 18 19  2  0  0  0  0
 18 21  2  0  0  0  0
 18 20  1  0  0  0  0
 22 18  1  0  0  0  0
 23 22  1  0  0  0  0
M  RAD  3   2   2   3   3  20   2
M  END
