Coordinates from ORCA-job 4-MeOPhN2+~HSO4-_B3LYPG-6-31G_dp-NX-Scan-d89-09-n800
 OpenBabel11261921003D

 23 22  0  0  0  0  0  0  0  0999 V2000
   -1.7517    0.3111   -0.5819 C   0  0  0  0  0  0  0  0  0  0  0  0
   -3.0343    0.0455   -1.0103 N   0  0  0  0  0  0  0  0  0  0  0  0
   -3.9556   -0.3739   -1.4843 N   0  0  0  0  0  0  0  0  0  0  0  0
   -1.3323    1.6325   -0.3265 C   0  0  0  0  0  0  0  0  0  0  0  0
   -0.0180    1.8132    0.0487 C   0  0  0  0  0  0  0  0  0  0  0  0
    0.8602    0.7171    0.1886 C   0  0  0  0  0  0  0  0  0  0  0  0
    2.1083    1.0215    0.5693 O   0  0  0  0  0  0  0  0  0  0  0  0
    3.0694   -0.0214    0.7506 C   0  0  0  0  0  0  0  0  0  0  0  0
    0.4100   -0.5973   -0.0675 C   0  0  0  0  0  0  0  0  0  0  0  0
   -0.8994   -0.8036   -0.4599 C   0  0  0  0  0  0  0  0  0  0  0  0
   -2.0379    2.4657   -0.4161 H   0  0  0  0  0  0  0  0  0  0  0  0
    0.3606    2.8068    0.2605 H   0  0  0  0  0  0  0  0  0  0  0  0
    3.9882    0.4777    1.0554 H   0  0  0  0  0  0  0  0  0  0  0  0
    3.2419   -0.5660   -0.1844 H   0  0  0  0  0  0  0  0  0  0  0  0
    2.7531   -0.7170    1.5352 H   0  0  0  0  0  0  0  0  0  0  0  0
    1.0700   -1.4484    0.0393 H   0  0  0  0  0  0  0  0  0  0  0  0
   -1.2684   -1.8034   -0.6617 H   0  0  0  0  0  0  0  0  0  0  0  0
   -4.5038    2.8985    0.4807 S   0  0  0  0  0  0  0  0  0  0  0  0
   -4.0508    1.4979    0.7335 O   0  0  0  0  0  0  0  0  0  0  0  0
   -5.0077    3.6369    1.6460 O   0  0  0  0  0  0  0  0  0  0  0  0
   -3.5387    3.6437   -0.3736 O   0  0  0  0  0  0  0  0  0  0  0  0
   -5.8348    2.6285   -0.4933 O   0  0  0  0  0  0  0  0  0  0  0  0
   -6.3499    3.4496   -0.4633 H   0  0  0  0  0  0  0  0  0  0  0  0
  1 10  2  0  0  0  0
  1  4  1  0  0  0  0
  2  1  1  0  0  0  0
  3  2  1  0  0  0  0
  4  5  2  0  0  0  0
  5  6  1  0  0  0  0
  5 12  1  0  0  0  0
  6  7  1  0  0  0  0
  7  8  1  0  0  0  0
  8 13  1  0  0  0  0
  8 15  1  0  0  0  0
  9 16  1  0  0  0  0
  9  6  2  0  0  0  0
 10  9  1  0  0  0  0
 11  4  1  0  0  0  0
 14  8  1  0  0  0  0
 17 10  1  0  0  0  0
 18 19  2  0  0  0  0
 18 20  1  0  0  0  0
 21 18  2  0  0  0  0
 22 23  1  0  0  0  0
 22 18  1  0  0  0  0
M  RAD  3   2   2   3   3  20   2
M  END
