Coordinates from ORCA-job 4-MeOPhN2+~HSO4-_B3LYPG-6-31G_dp-NX-Scan-d89-09-n800
 OpenBabel11261921003D

 23 22  0  0  0  0  0  0  0  0999 V2000
   -1.5275    0.8122   -0.5847 C   0  0  0  0  0  0  0  0  0  0  0  0
   -2.7122    0.8576   -1.3384 N   0  0  0  0  0  0  0  0  0  0  0  0
   -3.7493    1.4556   -0.8804 N   0  0  0  0  0  0  0  0  0  0  0  0
   -1.2697    1.3457    0.7014 C   0  0  0  0  0  0  0  0  0  0  0  0
   -0.0187    1.1894    1.2774 C   0  0  0  0  0  0  0  0  0  0  0  0
    1.0091    0.5078    0.6053 C   0  0  0  0  0  0  0  0  0  0  0  0
    2.1907    0.4203    1.2677 O   0  0  0  0  0  0  0  0  0  0  0  0
    3.2738   -0.2549    0.6405 C   0  0  0  0  0  0  0  0  0  0  0  0
    0.7662   -0.0262   -0.6693 C   0  0  0  0  0  0  0  0  0  0  0  0
   -0.4884    0.1303   -1.2443 C   0  0  0  0  0  0  0  0  0  0  0  0
   -2.0361    1.8751    1.2472 H   0  0  0  0  0  0  0  0  0  0  0  0
    0.1908    1.5919    2.2625 H   0  0  0  0  0  0  0  0  0  0  0  0
    4.1090   -0.1945    1.3396 H   0  0  0  0  0  0  0  0  0  0  0  0
    3.5561    0.2274   -0.3032 H   0  0  0  0  0  0  0  0  0  0  0  0
    3.0352   -1.3087    0.4509 H   0  0  0  0  0  0  0  0  0  0  0  0
    1.5390   -0.5568   -1.2120 H   0  0  0  0  0  0  0  0  0  0  0  0
   -0.6937   -0.2753   -2.2291 H   0  0  0  0  0  0  0  0  0  0  0  0
   -6.0348    2.8571    0.2403 S   0  0  0  0  0  0  0  0  0  0  0  0
   -5.6319    4.2487    0.3382 O   0  0  0  0  0  0  0  0  0  0  0  0
   -3.9214    1.9990    0.0840 O   0  0  0  0  0  0  0  0  0  0  0  0
   -6.4162    2.1161    1.4294 O   0  0  0  0  0  0  0  0  0  0  0  0
   -6.3542    2.3011   -1.0771 O   0  0  0  0  0  0  0  0  0  0  0  0
   -4.5375    1.3963   -1.5612 H   0  0  0  0  0  0  0  0  0  0  0  0
  1  4  2  0  0  0  0
  2  3  1  0  0  0  0
  2  1  1  0  0  0  0
  3 20  1  0  0  0  0
  4 11  1  0  0  0  0
  4  5  1  0  0  0  0
  5 12  1  0  0  0  0
  6  7  1  0  0  0  0
  6  5  2  0  0  0  0
  8  7  1  0  0  0  0
  8 13  1  0  0  0  0
  9  6  1  0  0  0  0
 10  9  2  0  0  0  0
 10  1  1  0  0  0  0
 14  8  1  0  0  0  0
 15  8  1  0  0  0  0
 16  9  1  0  0  0  0
 17 10  1  0  0  0  0
 18 19  2  0  0  0  0
 18 21  1  0  0  0  0
 22 18  1  0  0  0  0
 23  3  1  0  0  0  0
M  RAD  4   2   2  20   2  21   2  22   2
M  END
