Coordinates from ORCA-job 4-MeOPhN2+~HSO4-_B3LYPG-6-31G_dp-NX-Scan-d89-09-n800
 OpenBabel11261921003D

 23 22  0  0  0  0  0  0  0  0999 V2000
   -1.6516    0.2579   -0.6657 C   0  0  0  0  0  0  0  0  0  0  0  0
   -2.9146   -0.0048   -1.1610 N   0  0  0  0  0  0  0  0  0  0  0  0
   -3.9901    0.1709   -1.4710 N   0  0  0  0  0  0  0  0  0  0  0  0
   -1.3807    1.5088   -0.0672 C   0  0  0  0  0  0  0  0  0  0  0  0
   -0.1067    1.7226    0.4175 C   0  0  0  0  0  0  0  0  0  0  0  0
    0.8882    0.7273    0.3131 C   0  0  0  0  0  0  0  0  0  0  0  0
    2.0887    1.0570    0.8174 O   0  0  0  0  0  0  0  0  0  0  0  0
    3.1568    0.1099    0.7699 C   0  0  0  0  0  0  0  0  0  0  0  0
    0.5931   -0.5153   -0.2843 C   0  0  0  0  0  0  0  0  0  0  0  0
   -0.6827   -0.7509   -0.7694 C   0  0  0  0  0  0  0  0  0  0  0  0
   -2.1579    2.2626    0.0344 H   0  0  0  0  0  0  0  0  0  0  0  0
    0.1493    2.6614    0.8955 H   0  0  0  0  0  0  0  0  0  0  0  0
    4.0095    0.6061    1.2321 H   0  0  0  0  0  0  0  0  0  0  0  0
    3.4052   -0.1557   -0.2634 H   0  0  0  0  0  0  0  0  0  0  0  0
    2.9095   -0.7946    1.3366 H   0  0  0  0  0  0  0  0  0  0  0  0
    1.3447   -1.2899   -0.3674 H   0  0  0  0  0  0  0  0  0  0  0  0
   -0.9359   -1.6999   -1.2289 H   0  0  0  0  0  0  0  0  0  0  0  0
   -4.8452    2.4447    0.2148 S   0  0  0  0  0  0  0  0  0  0  0  0
   -5.3070    1.1850    0.8064 O   0  0  0  0  0  0  0  0  0  0  0  0
   -3.8639    3.2393    0.9874 O   0  0  0  0  0  0  0  0  0  0  0  0
   -4.3785    2.2693   -1.2182 O   0  0  0  0  0  0  0  0  0  0  0  0
   -6.1806    3.4084    0.1067 O   0  0  0  0  0  0  0  0  0  0  0  0
   -5.8711    4.2948    0.3496 H   0  0  0  0  0  0  0  0  0  0  0  0
  1  4  1  0  0  0  0
  2  1  1  0  0  0  0
  3  2  1  0  0  0  0
  4 11  1  0  0  0  0
  4  5  2  0  0  0  0
  5 12  1  0  0  0  0
  6  5  1  0  0  0  0
  6  7  1  0  0  0  0
  8  7  1  0  0  0  0
  8 13  1  0  0  0  0
  8 15  1  0  0  0  0
  9  6  2  0  0  0  0
 10  1  2  0  0  0  0
 10  9  1  0  0  0  0
 14  8  1  0  0  0  0
 16  9  1  0  0  0  0
 17 10  1  0  0  0  0
 18 19  2  0  0  0  0
 18 20  1  0  0  0  0
 21 18  2  0  0  0  0
 22 18  1  0  0  0  0
 22 23  1  0  0  0  0
M  RAD  3   2   2   3   3  20   2
M  END
