Coordinates from ORCA-job 4-MeOPhN2+~HSO4-_B3LYPG-6-31G_dp-NX-Scan-d89-09-n800
 OpenBabel11261921003D

 23 22  0  0  0  0  0  0  0  0999 V2000
   -1.9468   -1.3642   -0.3465 C   0  0  0  0  0  0  0  0  0  0  0  0
   -2.8318   -2.3541   -0.6064 N   0  0  0  0  0  0  0  0  0  0  0  0
   -3.5067   -3.2273   -0.8360 N   0  0  0  0  0  0  0  0  0  0  0  0
   -2.3634   -0.0354   -0.0177 C   0  0  0  0  0  0  0  0  0  0  0  0
   -1.3930    0.9074    0.2194 C   0  0  0  0  0  0  0  0  0  0  0  0
   -0.0214    0.5512    0.1397 C   0  0  0  0  0  0  0  0  0  0  0  0
    0.8306    1.5330    0.3898 O   0  0  0  0  0  0  0  0  0  0  0  0
    2.2448    1.3142    0.3383 C   0  0  0  0  0  0  0  0  0  0  0  0
    0.3802   -0.7731   -0.1866 C   0  0  0  0  0  0  0  0  0  0  0  0
   -0.5753   -1.7286   -0.4302 C   0  0  0  0  0  0  0  0  0  0  0  0
   -3.4077    0.2575    0.0465 H   0  0  0  0  0  0  0  0  0  0  0  0
   -1.6515    1.9555    0.4466 H   0  0  0  0  0  0  0  0  0  0  0  0
    2.6913    2.2773    0.5795 H   0  0  0  0  0  0  0  0  0  0  0  0
    2.5557    1.0035   -0.6643 H   0  0  0  0  0  0  0  0  0  0  0  0
    2.5519    0.5683    1.0787 H   0  0  0  0  0  0  0  0  0  0  0  0
    1.4271   -1.0425   -0.2494 H   0  0  0  0  0  0  0  0  0  0  0  0
   -0.2991   -2.7459   -0.6846 H   0  0  0  0  0  0  0  0  0  0  0  0
   -3.2771    4.0193    0.6082 S   0  0  0  0  0  0  0  0  0  0  0  0
   -3.9979    2.7352    0.7974 O   0  0  0  0  0  0  0  0  0  0  0  0
   -3.7151    5.1717    1.4222 O   0  0  0  0  0  0  0  0  0  0  0  0
   -1.7986    3.8155    0.5603 O   0  0  0  0  0  0  0  0  0  0  0  0
   -3.6909    4.4709   -0.9560 O   0  0  0  0  0  0  0  0  0  0  0  0
   -3.9267    5.4057   -0.8641 H   0  0  0  0  0  0  0  0  0  0  0  0
  1  4  1  0  0  0  0
  2  1  1  0  0  0  0
  3  2  1  0  0  0  0
  4 11  1  0  0  0  0
  4  5  2  0  0  0  0
  5 12  1  0  0  0  0
  6  5  1  0  0  0  0
  6  7  1  0  0  0  0
  8  7  1  0  0  0  0
  8 13  1  0  0  0  0
  8 15  1  0  0  0  0
  9  6  2  0  0  0  0
 10  1  2  0  0  0  0
 10  9  1  0  0  0  0
 14  8  1  0  0  0  0
 16  9  1  0  0  0  0
 17 10  1  0  0  0  0
 18 19  2  0  0  0  0
 18 20  1  0  0  0  0
 21 18  2  0  0  0  0
 22 23  1  0  0  0  0
 22 18  1  0  0  0  0
M  RAD  3   2   2   3   3  20   2
M  END
