Coordinates from ORCA-job 4-MeOPhN2+~HSO4-_B3LYPG-6-31G_dp-NX-Scan-d89-09-n800
 OpenBabel11261921003D

 23 22  0  0  0  0  0  0  0  0999 V2000
   -1.6654    0.1540   -0.5037 C   0  0  0  0  0  0  0  0  0  0  0  0
   -2.9409   -0.1483   -0.9430 N   0  0  0  0  0  0  0  0  0  0  0  0
   -4.0238    0.0146   -1.2379 N   0  0  0  0  0  0  0  0  0  0  0  0
   -1.4418    1.3730    0.1725 C   0  0  0  0  0  0  0  0  0  0  0  0
   -0.1560    1.6384    0.5974 C   0  0  0  0  0  0  0  0  0  0  0  0
    0.8927    0.7253    0.3561 C   0  0  0  0  0  0  0  0  0  0  0  0
    2.1005    1.1012    0.8091 O   0  0  0  0  0  0  0  0  0  0  0  0
    3.2225    0.2369    0.6215 C   0  0  0  0  0  0  0  0  0  0  0  0
    0.6408   -0.4907   -0.3123 C   0  0  0  0  0  0  0  0  0  0  0  0
   -0.6464   -0.7814   -0.7340 C   0  0  0  0  0  0  0  0  0  0  0  0
   -2.2755    2.0444    0.3794 H   0  0  0  0  0  0  0  0  0  0  0  0
    0.0714    2.5548    1.1305 H   0  0  0  0  0  0  0  0  0  0  0  0
    4.0707    0.7570    1.0651 H   0  0  0  0  0  0  0  0  0  0  0  0
    3.4155    0.0646   -0.4431 H   0  0  0  0  0  0  0  0  0  0  0  0
    3.0739   -0.7209    1.1318 H   0  0  0  0  0  0  0  0  0  0  0  0
    1.4350   -1.2020   -0.4986 H   0  0  0  0  0  0  0  0  0  0  0  0
   -0.8673   -1.7115   -1.2461 H   0  0  0  0  0  0  0  0  0  0  0  0
   -5.0635    2.4170    0.0851 S   0  0  0  0  0  0  0  0  0  0  0  0
   -6.1381    1.4788    0.3960 O   0  0  0  0  0  0  0  0  0  0  0  0
   -4.0577    2.6773    1.1449 O   0  0  0  0  0  0  0  0  0  0  0  0
   -4.3727    2.1254   -1.2367 O   0  0  0  0  0  0  0  0  0  0  0  0
   -5.7941    3.8755   -0.1734 O   0  0  0  0  0  0  0  0  0  0  0  0
   -5.2012    4.5318    0.2240 H   0  0  0  0  0  0  0  0  0  0  0  0
  1  4  1  0  0  0  0
  2  1  1  0  0  0  0
  3  2  1  0  0  0  0
  4 11  1  0  0  0  0
  4  5  2  0  0  0  0
  5 12  1  0  0  0  0
  6  5  1  0  0  0  0
  6  7  1  0  0  0  0
  8  7  1  0  0  0  0
  8 13  1  0  0  0  0
  8 15  1  0  0  0  0
  9  6  2  0  0  0  0
 10  1  2  0  0  0  0
 10  9  1  0  0  0  0
 14  8  1  0  0  0  0
 16  9  1  0  0  0  0
 17 10  1  0  0  0  0
 18 19  2  0  0  0  0
 18 20  1  0  0  0  0
 21 18  2  0  0  0  0
 22 18  1  0  0  0  0
 22 23  1  0  0  0  0
M  RAD  3   2   2   3   3  20   2
M  END
