Coordinates from ORCA-job 4-MeOPhN2+~HSO4-_B3LYPG-6-31G_dp-NX-Scan-d89-09-n800
 OpenBabel11261921003D

 23 22  0  0  0  0  0  0  0  0999 V2000
   -1.7442    0.1762   -0.7049 C   0  0  0  0  0  0  0  0  0  0  0  0
   -2.9961   -0.1525   -1.1638 N   0  0  0  0  0  0  0  0  0  0  0  0
   -3.9161   -0.5872   -1.6256 N   0  0  0  0  0  0  0  0  0  0  0  0
   -1.3802    1.5250   -0.5088 C   0  0  0  0  0  0  0  0  0  0  0  0
   -0.0910    1.7718   -0.0878 C   0  0  0  0  0  0  0  0  0  0  0  0
    0.8151    0.7166    0.1514 C   0  0  0  0  0  0  0  0  0  0  0  0
    2.0335    1.0839    0.5675 O   0  0  0  0  0  0  0  0  0  0  0  0
    3.0162    0.0871    0.8615 C   0  0  0  0  0  0  0  0  0  0  0  0
    0.4200   -0.6265   -0.0473 C   0  0  0  0  0  0  0  0  0  0  0  0
   -0.8623   -0.9010   -0.4814 C   0  0  0  0  0  0  0  0  0  0  0  0
   -2.1063    2.3349   -0.6522 H   0  0  0  0  0  0  0  0  0  0  0  0
    0.2400    2.7891    0.0887 H   0  0  0  0  0  0  0  0  0  0  0  0
    3.9014    0.6356    1.1807 H   0  0  0  0  0  0  0  0  0  0  0  0
    3.2547   -0.5067   -0.0278 H   0  0  0  0  0  0  0  0  0  0  0  0
    2.6806   -0.5697    1.6711 H   0  0  0  0  0  0  0  0  0  0  0  0
    1.1029   -1.4453    0.1384 H   0  0  0  0  0  0  0  0  0  0  0  0
   -1.1897   -1.9230   -0.6390 H   0  0  0  0  0  0  0  0  0  0  0  0
   -4.4204    2.9125    0.4724 S   0  0  0  0  0  0  0  0  0  0  0  0
   -4.1673    1.4410    0.4620 O   0  0  0  0  0  0  0  0  0  0  0  0
   -4.6979    3.5205    1.7845 O   0  0  0  0  0  0  0  0  0  0  0  0
   -3.4232    3.6404   -0.3613 O   0  0  0  0  0  0  0  0  0  0  0  0
   -5.8621    3.0284   -0.3590 O   0  0  0  0  0  0  0  0  0  0  0  0
   -6.3293    3.7640    0.0655 H   0  0  0  0  0  0  0  0  0  0  0  0
  1  4  2  0  0  0  0
  1 10  1  0  0  0  0
  2  1  1  0  0  0  0
  3  2  1  0  0  0  0
  4  5  1  0  0  0  0
  5 12  1  0  0  0  0
  5  6  2  0  0  0  0
  6  7  1  0  0  0  0
  7  8  1  0  0  0  0
  8 13  1  0  0  0  0
  8 15  1  0  0  0  0
  9 16  1  0  0  0  0
  9  6  1  0  0  0  0
 10  9  2  0  0  0  0
 11  4  1  0  0  0  0
 14  8  1  0  0  0  0
 17 10  1  0  0  0  0
 18 20  1  0  0  0  0
 19 18  2  0  0  0  0
 21 18  2  0  0  0  0
 22 23  1  0  0  0  0
 22 18  1  0  0  0  0
M  RAD  3   2   2   3   3  20   2
M  END
