Coordinates from ORCA-job 4-MeOPhN2+~HSO4-_B3LYPG-6-31G_dp-NX-Scan-d89-09-n800
 OpenBabel11261921003D

 23 22  0  0  0  0  0  0  0  0999 V2000
   -1.8992   -0.7665   -0.2574 C   0  0  0  0  0  0  0  0  0  0  0  0
   -3.0490   -1.4511   -0.4818 N   0  0  0  0  0  0  0  0  0  0  0  0
   -3.9979   -2.0183   -0.6698 N   0  0  0  0  0  0  0  0  0  0  0  0
   -1.9875    0.6124    0.0634 C   0  0  0  0  0  0  0  0  0  0  0  0
   -0.8061    1.2880    0.2759 C   0  0  0  0  0  0  0  0  0  0  0  0
    0.4323    0.6180    0.1769 C   0  0  0  0  0  0  0  0  0  0  0  0
    1.5129    1.3659    0.4005 O   0  0  0  0  0  0  0  0  0  0  0  0
    2.8227    0.7941    0.3186 C   0  0  0  0  0  0  0  0  0  0  0  0
    0.4912   -0.7673   -0.1444 C   0  0  0  0  0  0  0  0  0  0  0  0
   -0.6721   -1.4678   -0.3644 C   0  0  0  0  0  0  0  0  0  0  0  0
   -2.9620    1.1339    0.1358 H   0  0  0  0  0  0  0  0  0  0  0  0
   -0.8700    2.3478    0.5104 H   0  0  0  0  0  0  0  0  0  0  0  0
    3.5087    1.6097    0.5427 H   0  0  0  0  0  0  0  0  0  0  0  0
    3.0227    0.4135   -0.6884 H   0  0  0  0  0  0  0  0  0  0  0  0
    2.9497   -0.0053    1.0563 H   0  0  0  0  0  0  0  0  0  0  0  0
    1.4404   -1.2816   -0.2206 H   0  0  0  0  0  0  0  0  0  0  0  0
   -0.6556   -2.5227   -0.6149 H   0  0  0  0  0  0  0  0  0  0  0  0
   -4.0316    3.5245    0.4402 S   0  0  0  0  0  0  0  0  0  0  0  0
   -4.4658    2.1034    0.2777 O   0  0  0  0  0  0  0  0  0  0  0  0
   -4.8481    4.3412    1.3524 O   0  0  0  0  0  0  0  0  0  0  0  0
   -2.5630    3.6382    0.6201 O   0  0  0  0  0  0  0  0  0  0  0  0
   -4.3368    4.1778   -1.0714 O   0  0  0  0  0  0  0  0  0  0  0  0
   -4.7576    5.0276   -0.8730 H   0  0  0  0  0  0  0  0  0  0  0  0
  1  4  1  0  0  0  0
  2  1  1  0  0  0  0
  3  2  1  0  0  0  0
  4 11  1  0  0  0  0
  4  5  2  0  0  0  0
  5 12  1  0  0  0  0
  6  5  1  0  0  0  0
  6  7  1  0  0  0  0
  8  7  1  0  0  0  0
  8 13  1  0  0  0  0
  8 15  1  0  0  0  0
  9  6  2  0  0  0  0
 10  1  2  0  0  0  0
 10  9  1  0  0  0  0
 14  8  1  0  0  0  0
 16  9  1  0  0  0  0
 17 10  1  0  0  0  0
 18 21  2  0  0  0  0
 18 20  1  0  0  0  0
 19 18  2  0  0  0  0
 22 23  1  0  0  0  0
 22 18  1  0  0  0  0
M  RAD  3   2   2   3   3  20   2
M  END
