Coordinates from ORCA-job 4-MeOPhN2+~HSO4-_B3LYPG-6-31G_dp-NX-Scan-d89-09-n800
 OpenBabel11261921003D

 23 23  0  0  0  0  0  0  0  0999 V2000
   -1.4716    0.6319   -0.5920 C   0  0  0  0  0  0  0  0  0  0  0  0
   -2.7022    0.5896   -1.2449 N   0  0  0  0  0  0  0  0  0  0  0  0
   -3.7886    1.0236   -1.2106 N   0  0  0  0  0  0  0  0  0  0  0  0
   -1.2157    1.4291    0.5472 C   0  0  0  0  0  0  0  0  0  0  0  0
    0.0445    1.3928    1.1110 C   0  0  0  0  0  0  0  0  0  0  0  0
    1.0596    0.5799    0.5655 C   0  0  0  0  0  0  0  0  0  0  0  0
    2.2465    0.6316    1.2020 O   0  0  0  0  0  0  0  0  0  0  0  0
    3.3294   -0.1618    0.7198 C   0  0  0  0  0  0  0  0  0  0  0  0
    0.7979   -0.2109   -0.5676 C   0  0  0  0  0  0  0  0  0  0  0  0
   -0.4663   -0.1790   -1.1389 C   0  0  0  0  0  0  0  0  0  0  0  0
   -2.0010    2.0488    0.9577 H   0  0  0  0  0  0  0  0  0  0  0  0
    0.2784    1.9894    1.9858 H   0  0  0  0  0  0  0  0  0  0  0  0
    4.1660    0.0433    1.3876 H   0  0  0  0  0  0  0  0  0  0  0  0
    3.6036    0.1191   -0.3036 H   0  0  0  0  0  0  0  0  0  0  0  0
    3.0864   -1.2302    0.7562 H   0  0  0  0  0  0  0  0  0  0  0  0
    1.5644   -0.8401   -1.0011 H   0  0  0  0  0  0  0  0  0  0  0  0
   -0.6919   -0.7786   -2.0141 H   0  0  0  0  0  0  0  0  0  0  0  0
   -5.4777    2.5609    0.3438 S   0  0  0  0  0  0  0  0  0  0  0  0
   -5.5245    3.5984    1.3581 O   0  0  0  0  0  0  0  0  0  0  0  0
   -3.9663    2.1713    0.1398 O   0  0  0  0  0  0  0  0  0  0  0  0
   -6.3262    1.3752    0.4249 O   0  0  0  0  0  0  0  0  0  0  0  0
   -5.8421    3.2775   -1.0896 O   0  0  0  0  0  0  0  0  0  0  0  0
   -6.4241    2.6533   -1.5522 H   0  0  0  0  0  0  0  0  0  0  0  0
  1  4  1  0  0  0  0
  2  3  1  0  0  0  0
  2  1  1  0  0  0  0
  3 20  1  0  0  0  0
  4 11  1  0  0  0  0
  4  5  2  0  0  0  0
  5 12  1  0  0  0  0
  6  5  1  0  0  0  0
  6  7  1  0  0  0  0
  8 15  1  0  0  0  0
  8  7  1  0  0  0  0
  8 13  1  0  0  0  0
  9  6  2  0  0  0  0
 10  1  2  0  0  0  0
 10  9  1  0  0  0  0
 14  8  1  0  0  0  0
 16  9  1  0  0  0  0
 17 10  1  0  0  0  0
 18 21  2  0  0  0  0
 18 19  2  0  0  0  0
 20 18  1  0  0  0  0
 22 18  1  0  0  0  0
 23 22  1  0  0  0  0
M  RAD  2   2   2   3   2
M  END
