Coordinates from ORCA-job 4-MeOPhN2+~HSO4-_B3LYPG-6-31G_dp-NX-Scan-d89-09-n800
 OpenBabel11261921003D

 23 22  0  0  0  0  0  0  0  0999 V2000
   -1.7579    0.5434   -0.5024 C   0  0  0  0  0  0  0  0  0  0  0  0
   -3.0737    0.4067   -0.8843 N   0  0  0  0  0  0  0  0  0  0  0  0
   -4.0847    0.1751   -1.3002 N   0  0  0  0  0  0  0  0  0  0  0  0
   -1.2376    1.8204   -0.2067 C   0  0  0  0  0  0  0  0  0  0  0  0
    0.0950    1.8973    0.1357 C   0  0  0  0  0  0  0  0  0  0  0  0
    0.8961    0.7368    0.2053 C   0  0  0  0  0  0  0  0  0  0  0  0
    2.1738    0.9391    0.5591 O   0  0  0  0  0  0  0  0  0  0  0  0
    3.0619   -0.1747    0.6724 C   0  0  0  0  0  0  0  0  0  0  0  0
    0.3477   -0.5300   -0.0898 C   0  0  0  0  0  0  0  0  0  0  0  0
   -0.9848   -0.6293   -0.4506 C   0  0  0  0  0  0  0  0  0  0  0  0
   -1.9002    2.6843   -0.2670 H   0  0  0  0  0  0  0  0  0  0  0  0
    0.5513    2.8518    0.3719 H   0  0  0  0  0  0  0  0  0  0  0  0
    4.0220    0.2457    0.9690 H   0  0  0  0  0  0  0  0  0  0  0  0
    3.1703   -0.6928   -0.2868 H   0  0  0  0  0  0  0  0  0  0  0  0
    2.7182   -0.8775    1.4392 H   0  0  0  0  0  0  0  0  0  0  0  0
    0.9500   -1.4280   -0.0394 H   0  0  0  0  0  0  0  0  0  0  0  0
   -1.4287   -1.5918   -0.6795 H   0  0  0  0  0  0  0  0  0  0  0  0
   -4.5455    2.8378    0.5025 S   0  0  0  0  0  0  0  0  0  0  0  0
   -3.8377    1.7311    1.1924 O   0  0  0  0  0  0  0  0  0  0  0  0
   -5.3146    3.7547    1.3397 O   0  0  0  0  0  0  0  0  0  0  0  0
   -3.7162    3.4711   -0.5623 O   0  0  0  0  0  0  0  0  0  0  0  0
   -5.6885    1.9516   -0.3796 O   0  0  0  0  0  0  0  0  0  0  0  0
   -6.1376    2.5923   -0.9539 H   0  0  0  0  0  0  0  0  0  0  0  0
  1 10  2  0  0  0  0
  1  4  1  0  0  0  0
  2  1  1  0  0  0  0
  3  2  1  0  0  0  0
  4  5  2  0  0  0  0
  5  6  1  0  0  0  0
  5 12  1  0  0  0  0
  6  7  1  0  0  0  0
  7  8  1  0  0  0  0
  8 13  1  0  0  0  0
  8 15  1  0  0  0  0
  9 16  1  0  0  0  0
  9  6  2  0  0  0  0
 10  9  1  0  0  0  0
 11  4  1  0  0  0  0
 14  8  1  0  0  0  0
 17 10  1  0  0  0  0
 18 19  2  0  0  0  0
 18 20  1  0  0  0  0
 21 18  2  0  0  0  0
 22 18  1  0  0  0  0
 23 22  1  0  0  0  0
M  RAD  3   2   2   3   3  20   2
M  END
