Coordinates from ORCA-job 4-MeOPhN2+~HSO4-_B3LYPG-6-31G_dp-NX-Scan-d89-09-n800
 OpenBabel11261921003D

 23 22  0  0  0  0  0  0  0  0999 V2000
   -1.5160    0.6778   -0.6049 C   0  0  0  0  0  0  0  0  0  0  0  0
   -2.7117    0.6734   -1.3653 N   0  0  0  0  0  0  0  0  0  0  0  0
   -3.7410    1.3828   -0.8701 N   0  0  0  0  0  0  0  0  0  0  0  0
   -1.2933    1.1579    0.7072 C   0  0  0  0  0  0  0  0  0  0  0  0
   -0.0391    1.0486    1.2996 C   0  0  0  0  0  0  0  0  0  0  0  0
    1.0339    0.4643    0.6174 C   0  0  0  0  0  0  0  0  0  0  0  0
    2.2204    0.4153    1.2948 O   0  0  0  0  0  0  0  0  0  0  0  0
    3.3372   -0.1669    0.6438 C   0  0  0  0  0  0  0  0  0  0  0  0
    0.8314   -0.0219   -0.6808 C   0  0  0  0  0  0  0  0  0  0  0  0
   -0.4252    0.0882   -1.2685 C   0  0  0  0  0  0  0  0  0  0  0  0
   -2.0838    1.6123    1.2898 H   0  0  0  0  0  0  0  0  0  0  0  0
    0.1285    1.4161    2.3067 H   0  0  0  0  0  0  0  0  0  0  0  0
    4.1687   -0.0951    1.3472 H   0  0  0  0  0  0  0  0  0  0  0  0
    3.5979    0.3715   -0.2769 H   0  0  0  0  0  0  0  0  0  0  0  0
    3.1614   -1.2230    0.4006 H   0  0  0  0  0  0  0  0  0  0  0  0
    1.6377   -0.4834   -1.2388 H   0  0  0  0  0  0  0  0  0  0  0  0
   -0.5908   -0.2878   -2.2727 H   0  0  0  0  0  0  0  0  0  0  0  0
   -6.2545    3.1435    0.3102 S   0  0  0  0  0  0  0  0  0  0  0  0
   -5.7393    4.5009    0.2997 O   0  0  0  0  0  0  0  0  0  0  0  0
   -3.8600    1.8842   -0.1322 O   0  0  0  0  0  0  0  0  0  0  0  0
   -6.5644    2.4818    1.5650 O   0  0  0  0  0  0  0  0  0  0  0  0
   -6.5118    2.4588   -0.9504 O   0  0  0  0  0  0  0  0  0  0  0  0
   -4.5077    1.2159   -1.6366 H   0  0  0  0  0  0  0  0  0  0  0  0
  1  4  2  0  0  0  0
  2  3  1  0  0  0  0
  2  1  1  0  0  0  0
  3 20  1  0  0  0  0
  4 11  1  0  0  0  0
  4  5  1  0  0  0  0
  5 12  1  0  0  0  0
  6  7  1  0  0  0  0
  6  5  2  0  0  0  0
  8  7  1  0  0  0  0
  8 13  1  0  0  0  0
  9  6  1  0  0  0  0
 10  9  2  0  0  0  0
 10  1  1  0  0  0  0
 14  8  1  0  0  0  0
 15  8  1  0  0  0  0
 16  9  1  0  0  0  0
 17 10  1  0  0  0  0
 18 21  1  0  0  0  0
 19 18  2  0  0  0  0
 22 18  1  0  0  0  0
 23  3  1  0  0  0  0
M  RAD  4   2   2  20   2  21   2  22   2
M  END
