Coordinates from ORCA-job 4-MeOPhN2+~HSO4-_B3LYPG-6-31G_dp-NX-Scan-d89-09-n800
 OpenBabel11261921003D

 23 22  0  0  0  0  0  0  0  0999 V2000
   -1.8877   -0.7003   -0.2402 C   0  0  0  0  0  0  0  0  0  0  0  0
   -3.0664   -1.3390   -0.4562 N   0  0  0  0  0  0  0  0  0  0  0  0
   -4.0465   -1.8527   -0.6340 N   0  0  0  0  0  0  0  0  0  0  0  0
   -1.9376    0.6786    0.0807 C   0  0  0  0  0  0  0  0  0  0  0  0
   -0.7404    1.3258    0.2882 C   0  0  0  0  0  0  0  0  0  0  0  0
    0.4793    0.6237    0.1838 C   0  0  0  0  0  0  0  0  0  0  0  0
    1.5813    1.3423    0.4039 O   0  0  0  0  0  0  0  0  0  0  0  0
    2.8743    0.7342    0.3185 C   0  0  0  0  0  0  0  0  0  0  0  0
    0.4997   -0.7627   -0.1388 C   0  0  0  0  0  0  0  0  0  0  0  0
   -0.6820   -1.4346   -0.3542 C   0  0  0  0  0  0  0  0  0  0  0  0
   -2.9061    1.2072    0.1506 H   0  0  0  0  0  0  0  0  0  0  0  0
   -0.7727    2.3859    0.5224 H   0  0  0  0  0  0  0  0  0  0  0  0
    3.5834    1.5295    0.5436 H   0  0  0  0  0  0  0  0  0  0  0  0
    3.0622    0.3507   -0.6898 H   0  0  0  0  0  0  0  0  0  0  0  0
    2.9800   -0.0705    1.0538 H   0  0  0  0  0  0  0  0  0  0  0  0
    1.4353   -1.3005   -0.2203 H   0  0  0  0  0  0  0  0  0  0  0  0
   -0.6931   -2.4893   -0.6059 H   0  0  0  0  0  0  0  0  0  0  0  0
   -4.1041    3.4600    0.3977 S   0  0  0  0  0  0  0  0  0  0  0  0
   -4.4918    2.0333    0.1752 O   0  0  0  0  0  0  0  0  0  0  0  0
   -4.9352    4.2036    1.3574 O   0  0  0  0  0  0  0  0  0  0  0  0
   -2.6376    3.6122    0.5675 O   0  0  0  0  0  0  0  0  0  0  0  0
   -4.4523    4.1667   -1.0788 O   0  0  0  0  0  0  0  0  0  0  0  0
   -4.8634    5.0110   -0.8405 H   0  0  0  0  0  0  0  0  0  0  0  0
  1  4  1  0  0  0  0
  2  1  1  0  0  0  0
  3  2  1  0  0  0  0
  4 11  1  0  0  0  0
  4  5  2  0  0  0  0
  5 12  1  0  0  0  0
  6  5  1  0  0  0  0
  6  7  1  0  0  0  0
  8  7  1  0  0  0  0
  8 13  1  0  0  0  0
  8 15  1  0  0  0  0
  9  6  2  0  0  0  0
 10  1  2  0  0  0  0
 10  9  1  0  0  0  0
 14  8  1  0  0  0  0
 16  9  1  0  0  0  0
 17 10  1  0  0  0  0
 18 21  2  0  0  0  0
 18 20  1  0  0  0  0
 19 18  2  0  0  0  0
 22 23  1  0  0  0  0
 22 18  1  0  0  0  0
M  RAD  3   2   2   3   3  20   2
M  END
