Coordinates from ORCA-job 4-MeOPhN2+~HSO4-_B3LYPG-6-31G_dp-NX-Scan-d89-09-n800
 OpenBabel11261921003D

 23 22  0  0  0  0  0  0  0  0999 V2000
   -1.9270   -0.9179   -0.2859 C   0  0  0  0  0  0  0  0  0  0  0  0
   -3.0151   -1.6879   -0.5274 N   0  0  0  0  0  0  0  0  0  0  0  0
   -3.9026   -2.3441   -0.7334 N   0  0  0  0  0  0  0  0  0  0  0  0
   -2.1004    0.4467    0.0718 C   0  0  0  0  0  0  0  0  0  0  0  0
   -0.9641    1.1913    0.2991 C   0  0  0  0  0  0  0  0  0  0  0  0
    0.3152    0.6051    0.1785 C   0  0  0  0  0  0  0  0  0  0  0  0
    1.3442    1.4145    0.4200 O   0  0  0  0  0  0  0  0  0  0  0  0
    2.6892    0.9345    0.3189 C   0  0  0  0  0  0  0  0  0  0  0  0
    0.4629   -0.7641   -0.1799 C   0  0  0  0  0  0  0  0  0  0  0  0
   -0.6536   -1.5310   -0.4142 C   0  0  0  0  0  0  0  0  0  0  0  0
   -3.0839    0.9386    0.1712 H   0  0  0  0  0  0  0  0  0  0  0  0
   -1.0986    2.2451    0.5573 H   0  0  0  0  0  0  0  0  0  0  0  0
    3.3194    1.7893    0.5600 H   0  0  0  0  0  0  0  0  0  0  0  0
    2.9081    0.5925   -0.6979 H   0  0  0  0  0  0  0  0  0  0  0  0
    2.8734    0.1282    1.0365 H   0  0  0  0  0  0  0  0  0  0  0  0
    1.4428   -1.2147   -0.2733 H   0  0  0  0  0  0  0  0  0  0  0  0
   -0.5703   -2.5760   -0.6916 H   0  0  0  0  0  0  0  0  0  0  0  0
   -3.8447    3.6654    0.5151 S   0  0  0  0  0  0  0  0  0  0  0  0
   -4.3369    2.2567    0.5189 O   0  0  0  0  0  0  0  0  0  0  0  0
   -4.6355    4.6260    1.3014 O   0  0  0  0  0  0  0  0  0  0  0  0
   -2.3734    3.7528    0.7052 O   0  0  0  0  0  0  0  0  0  0  0  0
   -4.1016    4.1358   -1.0740 O   0  0  0  0  0  0  0  0  0  0  0  0
   -4.4690    5.0284   -0.9916 H   0  0  0  0  0  0  0  0  0  0  0  0
  1  4  1  0  0  0  0
  2  1  1  0  0  0  0
  3  2  1  0  0  0  0
  4 11  1  0  0  0  0
  4  5  2  0  0  0  0
  5 12  1  0  0  0  0
  6  5  1  0  0  0  0
  6  7  1  0  0  0  0
  8  7  1  0  0  0  0
  8 13  1  0  0  0  0
  8 15  1  0  0  0  0
  9  6  2  0  0  0  0
 10  1  2  0  0  0  0
 10  9  1  0  0  0  0
 14  8  1  0  0  0  0
 16  9  1  0  0  0  0
 17 10  1  0  0  0  0
 18 19  2  0  0  0  0
 18 21  2  0  0  0  0
 18 20  1  0  0  0  0
 22 23  1  0  0  0  0
 22 18  1  0  0  0  0
M  RAD  3   2   2   3   3  20   2
M  END
