Coordinates from ORCA-job 4-MeOPhN2+~HSO4-_B3LYPG-6-31G_dp-NX-Scan-d89-09-n800
 OpenBabel11261921003D

 23 22  0  0  0  0  0  0  0  0999 V2000
   -1.7527    0.5768   -0.4828 C   0  0  0  0  0  0  0  0  0  0  0  0
   -3.0707    0.4531   -0.8628 N   0  0  0  0  0  0  0  0  0  0  0  0
   -4.0856    0.2300   -1.2737 N   0  0  0  0  0  0  0  0  0  0  0  0
   -1.2218    1.8429   -0.1618 C   0  0  0  0  0  0  0  0  0  0  0  0
    0.1124    1.9042    0.1777 C   0  0  0  0  0  0  0  0  0  0  0  0
    0.9062    0.7375    0.2196 C   0  0  0  0  0  0  0  0  0  0  0  0
    2.1868    0.9241    0.5725 O   0  0  0  0  0  0  0  0  0  0  0  0
    3.0680   -0.1976    0.6570 C   0  0  0  0  0  0  0  0  0  0  0  0
    0.3482   -0.5188   -0.1003 C   0  0  0  0  0  0  0  0  0  0  0  0
   -0.9863   -0.6013   -0.4583 C   0  0  0  0  0  0  0  0  0  0  0  0
   -1.8783    2.7100   -0.2061 H   0  0  0  0  0  0  0  0  0  0  0  0
    0.5759    2.8506    0.4316 H   0  0  0  0  0  0  0  0  0  0  0  0
    4.0324    0.2099    0.9578 H   0  0  0  0  0  0  0  0  0  0  0  0
    3.1683   -0.6953   -0.3138 H   0  0  0  0  0  0  0  0  0  0  0  0
    2.7235   -0.9148    1.4100 H   0  0  0  0  0  0  0  0  0  0  0  0
    0.9446   -1.4216   -0.0717 H   0  0  0  0  0  0  0  0  0  0  0  0
   -1.4371   -1.5557   -0.7064 H   0  0  0  0  0  0  0  0  0  0  0  0
   -4.5588    2.8333    0.4665 S   0  0  0  0  0  0  0  0  0  0  0  0
   -3.8468    1.7830    1.2330 O   0  0  0  0  0  0  0  0  0  0  0  0
   -5.3193    3.8163    1.2302 O   0  0  0  0  0  0  0  0  0  0  0  0
   -3.7391    3.3738   -0.6561 O   0  0  0  0  0  0  0  0  0  0  0  0
   -5.7180    1.8880   -0.3318 O   0  0  0  0  0  0  0  0  0  0  0  0
   -6.1732    2.4867   -0.9454 H   0  0  0  0  0  0  0  0  0  0  0  0
  1 10  2  0  0  0  0
  1  4  1  0  0  0  0
  2  1  1  0  0  0  0
  3  2  1  0  0  0  0
  4  5  2  0  0  0  0
  5  6  1  0  0  0  0
  5 12  1  0  0  0  0
  6  7  1  0  0  0  0
  7  8  1  0  0  0  0
  8 13  1  0  0  0  0
  8 15  1  0  0  0  0
  9 16  1  0  0  0  0
  9  6  2  0  0  0  0
 10  9  1  0  0  0  0
 11  4  1  0  0  0  0
 14  8  1  0  0  0  0
 17 10  1  0  0  0  0
 18 20  2  0  0  0  0
 18 19  1  0  0  0  0
 21 18  2  0  0  0  0
 22 18  1  0  0  0  0
 23 22  1  0  0  0  0
M  RAD  3   2   2   3   3  19   2
M  END
