Coordinates from ORCA-job 4-MeOPhN2+~HSO4-_B3LYPG-6-31G_dp-NX-Scan-d89-09-n800
 OpenBabel11261921003D

 23 22  0  0  0  0  0  0  0  0999 V2000
   -1.9007   -0.5440   -0.1514 C   0  0  0  0  0  0  0  0  0  0  0  0
   -3.1202   -1.0947   -0.3969 N   0  0  0  0  0  0  0  0  0  0  0  0
   -4.1213   -1.5515   -0.6034 N   0  0  0  0  0  0  0  0  0  0  0  0
   -1.8687    0.7717    0.3663 C   0  0  0  0  0  0  0  0  0  0  0  0
   -0.6365    1.3475    0.5738 C   0  0  0  0  0  0  0  0  0  0  0  0
    0.5437    0.6291    0.2889 C   0  0  0  0  0  0  0  0  0  0  0  0
    1.6877    1.2743    0.5283 O   0  0  0  0  0  0  0  0  0  0  0  0
    2.9448    0.6452    0.2581 C   0  0  0  0  0  0  0  0  0  0  0  0
    0.4832   -0.6961   -0.2254 C   0  0  0  0  0  0  0  0  0  0  0  0
   -0.7377   -1.2910   -0.4544 C   0  0  0  0  0  0  0  0  0  0  0  0
   -2.8101    1.3029    0.5487 H   0  0  0  0  0  0  0  0  0  0  0  0
   -0.5960    2.3707    0.9307 H   0  0  0  0  0  0  0  0  0  0  0  0
    3.7009    1.3786    0.5353 H   0  0  0  0  0  0  0  0  0  0  0  0
    3.0422    0.4024   -0.8052 H   0  0  0  0  0  0  0  0  0  0  0  0
    3.0711   -0.2581    0.8639 H   0  0  0  0  0  0  0  0  0  0  0  0
    1.3878   -1.2459   -0.4495 H   0  0  0  0  0  0  0  0  0  0  0  0
   -0.8076   -2.2954   -0.8565 H   0  0  0  0  0  0  0  0  0  0  0  0
   -4.2218    3.3525    0.3249 S   0  0  0  0  0  0  0  0  0  0  0  0
   -4.5378    1.8926    0.2468 O   0  0  0  0  0  0  0  0  0  0  0  0
   -5.1744    4.1802    1.0820 O   0  0  0  0  0  0  0  0  0  0  0  0
   -2.7879    3.5853    0.6321 O   0  0  0  0  0  0  0  0  0  0  0  0
   -4.4229    3.8438   -1.2639 O   0  0  0  0  0  0  0  0  0  0  0  0
   -4.8391    4.7154   -1.1888 H   0  0  0  0  0  0  0  0  0  0  0  0
  1  4  2  0  0  0  0
  2  1  1  0  0  0  0
  3  2  1  0  0  0  0
  4 11  1  0  0  0  0
  4  5  1  0  0  0  0
  5 12  1  0  0  0  0
  6  7  1  0  0  0  0
  6  5  2  0  0  0  0
  8  7  1  0  0  0  0
  8 13  1  0  0  0  0
  8 15  1  0  0  0  0
  9  6  1  0  0  0  0
 10  9  2  0  0  0  0
 10  1  1  0  0  0  0
 14  8  1  0  0  0  0
 16  9  1  0  0  0  0
 17 10  1  0  0  0  0
 18 21  2  0  0  0  0
 18 20  1  0  0  0  0
 19 18  2  0  0  0  0
 22 23  1  0  0  0  0
 22 18  1  0  0  0  0
M  RAD  3   2   2   3   3  20   2
M  END
