Coordinates from ORCA-job 4-MeOPhN2+~HSO4-_B3LYPG-6-31G_dp-NX-Scan-d89-09-n800
 OpenBabel11261921003D

 23 22  0  0  0  0  0  0  0  0999 V2000
   -1.7607    0.4960   -0.5339 C   0  0  0  0  0  0  0  0  0  0  0  0
   -3.0692    0.3331   -0.9301 N   0  0  0  0  0  0  0  0  0  0  0  0
   -4.0583    0.0654   -1.3755 N   0  0  0  0  0  0  0  0  0  0  0  0
   -1.2608    1.7852   -0.2549 C   0  0  0  0  0  0  0  0  0  0  0  0
    0.0679    1.8837    0.0966 C   0  0  0  0  0  0  0  0  0  0  0  0
    0.8830    0.7348    0.1937 C   0  0  0  0  0  0  0  0  0  0  0  0
    2.1542    0.9591    0.5558 O   0  0  0  0  0  0  0  0  0  0  0  0
    3.0546   -0.1414    0.7002 C   0  0  0  0  0  0  0  0  0  0  0  0
    0.3534   -0.5443   -0.0837 C   0  0  0  0  0  0  0  0  0  0  0  0
   -0.9740   -0.6667   -0.4542 C   0  0  0  0  0  0  0  0  0  0  0  0
   -1.9322    2.6435   -0.3257 H   0  0  0  0  0  0  0  0  0  0  0  0
    0.5097    2.8476    0.3222 H   0  0  0  0  0  0  0  0  0  0  0  0
    4.0062    0.2964    0.9990 H   0  0  0  0  0  0  0  0  0  0  0  0
    3.1799   -0.6764   -0.2477 H   0  0  0  0  0  0  0  0  0  0  0  0
    2.7107   -0.8334    1.4766 H   0  0  0  0  0  0  0  0  0  0  0  0
    0.9660   -1.4336   -0.0114 H   0  0  0  0  0  0  0  0  0  0  0  0
   -1.4041   -1.6385   -0.6700 H   0  0  0  0  0  0  0  0  0  0  0  0
   -4.5210    2.8512    0.5249 S   0  0  0  0  0  0  0  0  0  0  0  0
   -3.8305    1.6768    1.1208 O   0  0  0  0  0  0  0  0  0  0  0  0
   -5.2425    3.7291    1.4483 O   0  0  0  0  0  0  0  0  0  0  0  0
   -3.6862    3.5422   -0.4987 O   0  0  0  0  0  0  0  0  0  0  0  0
   -5.6939    2.0564   -0.3930 O   0  0  0  0  0  0  0  0  0  0  0  0
   -6.1737    2.7489   -0.8745 H   0  0  0  0  0  0  0  0  0  0  0  0
  1 10  2  0  0  0  0
  1  4  1  0  0  0  0
  2  1  1  0  0  0  0
  3  2  1  0  0  0  0
  4  5  2  0  0  0  0
  5  6  1  0  0  0  0
  5 12  1  0  0  0  0
  6  7  1  0  0  0  0
  7  8  1  0  0  0  0
  8 13  1  0  0  0  0
  8 15  1  0  0  0  0
  9 16  1  0  0  0  0
  9  6  2  0  0  0  0
 10  9  1  0  0  0  0
 11  4  1  0  0  0  0
 14  8  1  0  0  0  0
 17 10  1  0  0  0  0
 18 19  2  0  0  0  0
 18 20  1  0  0  0  0
 21 18  2  0  0  0  0
 22 18  1  0  0  0  0
 23 22  1  0  0  0  0
M  RAD  3   2   2   3   3  20   2
M  END
