Coordinates from ORCA-job 4-MeOPhN2+~HSO4-_B3LYPG-6-31G_dp-NX-Scan-d89-09-n800
 OpenBabel11261921003D

 23 22  0  0  0  0  0  0  0  0999 V2000
   -1.6537    0.3640   -0.1934 C   0  0  0  0  0  0  0  0  0  0  0  0
   -2.9882    0.0495   -0.3568 N   0  0  0  0  0  0  0  0  0  0  0  0
   -4.0072   -0.4172   -0.4771 N   0  0  0  0  0  0  0  0  0  0  0  0
   -1.2484    1.6789    0.1075 C   0  0  0  0  0  0  0  0  0  0  0  0
    0.0990    1.9178    0.2872 C   0  0  0  0  0  0  0  0  0  0  0  0
    1.0409    0.8751    0.1689 C   0  0  0  0  0  0  0  0  0  0  0  0
    2.3225    1.2276    0.3627 O   0  0  0  0  0  0  0  0  0  0  0  0
    3.3482    0.2391    0.2587 C   0  0  0  0  0  0  0  0  0  0  0  0
    0.6167   -0.4353   -0.1352 C   0  0  0  0  0  0  0  0  0  0  0  0
   -0.7320   -0.6921   -0.3139 C   0  0  0  0  0  0  0  0  0  0  0  0
   -2.0058    2.4543    0.1616 H   0  0  0  0  0  0  0  0  0  0  0  0
    0.4599    2.9135    0.5192 H   0  0  0  0  0  0  0  0  0  0  0  0
    4.2828    0.7650    0.4513 H   0  0  0  0  0  0  0  0  0  0  0  0
    3.3762   -0.1984   -0.7452 H   0  0  0  0  0  0  0  0  0  0  0  0
    3.2135   -0.5515    1.0052 H   0  0  0  0  0  0  0  0  0  0  0  0
    1.3269   -1.2464   -0.2309 H   0  0  0  0  0  0  0  0  0  0  0  0
   -1.0790   -1.6932   -0.5461 H   0  0  0  0  0  0  0  0  0  0  0  0
   -5.2288    2.4434   -0.3239 S   0  0  0  0  0  0  0  0  0  0  0  0
   -6.1893    3.3680   -0.9274 O   0  0  0  0  0  0  0  0  0  0  0  0
   -5.6551    1.0058   -0.3392 O   0  0  0  0  0  0  0  0  0  0  0  0
   -3.8090    2.5761   -0.7333 O   0  0  0  0  0  0  0  0  0  0  0  0
   -5.1659    2.8609    1.2874 O   0  0  0  0  0  0  0  0  0  0  0  0
   -6.0457    3.2103    1.4972 H   0  0  0  0  0  0  0  0  0  0  0  0
  1  4  1  0  0  0  0
  2  1  1  0  0  0  0
  3  2  1  0  0  0  0
  4 11  1  0  0  0  0
  4  5  2  0  0  0  0
  5 12  1  0  0  0  0
  6  5  1  0  0  0  0
  6  7  1  0  0  0  0
  8  7  1  0  0  0  0
  8 13  1  0  0  0  0
  8 15  1  0  0  0  0
  9  6  2  0  0  0  0
 10  1  2  0  0  0  0
 10  9  1  0  0  0  0
 14  8  1  0  0  0  0
 16  9  1  0  0  0  0
 17 10  1  0  0  0  0
 18 22  1  0  0  0  0
 19 18  2  0  0  0  0
 20 18  1  0  0  0  0
 21 18  2  0  0  0  0
 22 23  1  0  0  0  0
M  RAD  3   2   2   3   3  20   2
M  END
