Coordinates from ORCA-job 4-MeOPhN2+~HSO4-_B3LYPG-6-31G_dp-NX-Scan-d89-09-n800
 OpenBabel11261921003D

 23 23  0  0  0  0  0  0  0  0999 V2000
   -1.4984    0.7020   -0.5884 C   0  0  0  0  0  0  0  0  0  0  0  0
   -2.7175    0.6610   -1.2696 N   0  0  0  0  0  0  0  0  0  0  0  0
   -3.8007    1.1423   -1.1782 N   0  0  0  0  0  0  0  0  0  0  0  0
   -1.2245    1.4610    0.5740 C   0  0  0  0  0  0  0  0  0  0  0  0
    0.0340    1.3912    1.1395 C   0  0  0  0  0  0  0  0  0  0  0  0
    1.0396    0.5808    0.5748 C   0  0  0  0  0  0  0  0  0  0  0  0
    2.2263    0.5972    1.2167 O   0  0  0  0  0  0  0  0  0  0  0  0
    3.2968   -0.1987    0.7138 C   0  0  0  0  0  0  0  0  0  0  0  0
    0.7685   -0.1717   -0.5804 C   0  0  0  0  0  0  0  0  0  0  0  0
   -0.4953   -0.1046   -1.1500 C   0  0  0  0  0  0  0  0  0  0  0  0
   -1.9922    2.0831    1.0100 H   0  0  0  0  0  0  0  0  0  0  0  0
    0.2734    1.9591    2.0317 H   0  0  0  0  0  0  0  0  0  0  0  0
    4.1354   -0.0275    1.3889 H   0  0  0  0  0  0  0  0  0  0  0  0
    3.5785    0.1069   -0.3005 H   0  0  0  0  0  0  0  0  0  0  0  0
    3.0370   -1.2639    0.7175 H   0  0  0  0  0  0  0  0  0  0  0  0
    1.5263   -0.7995   -1.0316 H   0  0  0  0  0  0  0  0  0  0  0  0
   -0.7284   -0.6763   -2.0417 H   0  0  0  0  0  0  0  0  0  0  0  0
   -5.4590    2.5588    0.3507 S   0  0  0  0  0  0  0  0  0  0  0  0
   -5.4637    3.6951    1.2466 O   0  0  0  0  0  0  0  0  0  0  0  0
   -3.9184    2.1923    0.0903 O   0  0  0  0  0  0  0  0  0  0  0  0
   -6.2213    1.3472    0.6145 O   0  0  0  0  0  0  0  0  0  0  0  0
   -5.9281    3.1250   -1.1061 O   0  0  0  0  0  0  0  0  0  0  0  0
   -6.1899    2.3543   -1.6375 H   0  0  0  0  0  0  0  0  0  0  0  0
  1  4  1  0  0  0  0
  2  3  1  0  0  0  0
  2  1  1  0  0  0  0
  3 20  1  0  0  0  0
  4 11  1  0  0  0  0
  4  5  2  0  0  0  0
  5 12  1  0  0  0  0
  6  5  1  0  0  0  0
  6  7  1  0  0  0  0
  8 15  1  0  0  0  0
  8  7  1  0  0  0  0
  8 13  1  0  0  0  0
  9  6  2  0  0  0  0
 10  1  2  0  0  0  0
 10  9  1  0  0  0  0
 14  8  1  0  0  0  0
 16  9  1  0  0  0  0
 17 10  1  0  0  0  0
 18 21  2  0  0  0  0
 18 19  2  0  0  0  0
 20 18  1  0  0  0  0
 22 18  1  0  0  0  0
 23 22  1  0  0  0  0
M  RAD  2   2   2   3   2
M  END
