Coordinates from ORCA-job 4-MeOPhN2+~HSO4-_B3LYPG-6-31G_dp-NX-Scan-d89-09-n800
 OpenBabel11261921003D

 23 22  0  0  0  0  0  0  0  0999 V2000
   -1.9425   -1.0473   -0.3102 C   0  0  0  0  0  0  0  0  0  0  0  0
   -2.9804   -1.8778   -0.5629 N   0  0  0  0  0  0  0  0  0  0  0  0
   -3.8255   -2.5869   -0.7789 N   0  0  0  0  0  0  0  0  0  0  0  0
   -2.1869    0.3079    0.0506 C   0  0  0  0  0  0  0  0  0  0  0  0
   -1.0966    1.1133    0.2891 C   0  0  0  0  0  0  0  0  0  0  0  0
    0.2132    0.5935    0.1755 C   0  0  0  0  0  0  0  0  0  0  0  0
    1.1953    1.4540    0.4272 O   0  0  0  0  0  0  0  0  0  0  0  0
    2.5651    1.0487    0.3329 C   0  0  0  0  0  0  0  0  0  0  0  0
    0.4363   -0.7646   -0.1858 C   0  0  0  0  0  0  0  0  0  0  0  0
   -0.6356   -1.5890   -0.4302 C   0  0  0  0  0  0  0  0  0  0  0  0
   -3.1823    0.7580    0.1460 H   0  0  0  0  0  0  0  0  0  0  0  0
   -1.2757    2.1683    0.5431 H   0  0  0  0  0  0  0  0  0  0  0  0
    3.1455    1.9365    0.5791 H   0  0  0  0  0  0  0  0  0  0  0  0
    2.8076    0.7212   -0.6832 H   0  0  0  0  0  0  0  0  0  0  0  0
    2.7890    0.2522    1.0502 H   0  0  0  0  0  0  0  0  0  0  0  0
    1.4395   -1.1623   -0.2739 H   0  0  0  0  0  0  0  0  0  0  0  0
   -0.4946   -2.6272   -0.7095 H   0  0  0  0  0  0  0  0  0  0  0  0
   -3.6552    3.7667    0.5432 S   0  0  0  0  0  0  0  0  0  0  0  0
   -4.1568    2.3678    0.6382 O   0  0  0  0  0  0  0  0  0  0  0  0
   -4.3770    4.7729    1.3397 O   0  0  0  0  0  0  0  0  0  0  0  0
   -2.1710    3.8461    0.6320 O   0  0  0  0  0  0  0  0  0  0  0  0
   -4.0132    4.1731   -1.0440 O   0  0  0  0  0  0  0  0  0  0  0  0
   -4.3197    5.0901   -0.9833 H   0  0  0  0  0  0  0  0  0  0  0  0
  1  4  1  0  0  0  0
  2  1  1  0  0  0  0
  3  2  1  0  0  0  0
  4 11  1  0  0  0  0
  4  5  2  0  0  0  0
  5 12  1  0  0  0  0
  6  5  1  0  0  0  0
  6  7  1  0  0  0  0
  8  7  1  0  0  0  0
  8 13  1  0  0  0  0
  8 15  1  0  0  0  0
  9  6  2  0  0  0  0
 10  1  2  0  0  0  0
 10  9  1  0  0  0  0
 14  8  1  0  0  0  0
 16  9  1  0  0  0  0
 17 10  1  0  0  0  0
 18 21  2  0  0  0  0
 18 19  2  0  0  0  0
 18 20  1  0  0  0  0
 22 23  1  0  0  0  0
 22 18  1  0  0  0  0
M  RAD  3   2   2   3   3  20   2
M  END
