Coordinates from ORCA-job 4-MeOPhN2+~HSO4-_B3LYPG-6-31G_dp-NX-Scan-d89-09-n800
 OpenBabel11261921003D

 23 22  0  0  0  0  0  0  0  0999 V2000
   -1.9483   -1.3513   -0.3445 C   0  0  0  0  0  0  0  0  0  0  0  0
   -2.8387   -2.3366   -0.6035 N   0  0  0  0  0  0  0  0  0  0  0  0
   -3.5181   -3.2062   -0.8326 N   0  0  0  0  0  0  0  0  0  0  0  0
   -2.3577   -0.0196   -0.0189 C   0  0  0  0  0  0  0  0  0  0  0  0
   -1.3818    0.9181    0.2161 C   0  0  0  0  0  0  0  0  0  0  0  0
   -0.0124    0.5542    0.1379 C   0  0  0  0  0  0  0  0  0  0  0  0
    0.8453    1.5320    0.3858 O   0  0  0  0  0  0  0  0  0  0  0  0
    2.2582    1.3041    0.3365 C   0  0  0  0  0  0  0  0  0  0  0  0
    0.3819   -0.7732   -0.1847 C   0  0  0  0  0  0  0  0  0  0  0  0
   -0.5789   -1.7238   -0.4266 C   0  0  0  0  0  0  0  0  0  0  0  0
   -3.4000    0.2811    0.0452 H   0  0  0  0  0  0  0  0  0  0  0  0
   -1.6372    1.9677    0.4409 H   0  0  0  0  0  0  0  0  0  0  0  0
    2.7106    2.2650    0.5756 H   0  0  0  0  0  0  0  0  0  0  0  0
    2.5683    0.9888   -0.6650 H   0  0  0  0  0  0  0  0  0  0  0  0
    2.5598    0.5583    1.0791 H   0  0  0  0  0  0  0  0  0  0  0  0
    1.4272   -1.0488   -0.2462 H   0  0  0  0  0  0  0  0  0  0  0  0
   -0.3084   -2.7433   -0.6786 H   0  0  0  0  0  0  0  0  0  0  0  0
   -3.2925    4.0075    0.6085 S   0  0  0  0  0  0  0  0  0  0  0  0
   -4.0006    2.7144    0.7861 O   0  0  0  0  0  0  0  0  0  0  0  0
   -3.7496    5.1510    1.4242 O   0  0  0  0  0  0  0  0  0  0  0  0
   -1.8115    3.8208    0.5717 O   0  0  0  0  0  0  0  0  0  0  0  0
   -3.7002    4.4601   -0.9568 O   0  0  0  0  0  0  0  0  0  0  0  0
   -3.9370    5.3948   -0.8654 H   0  0  0  0  0  0  0  0  0  0  0  0
  1  4  1  0  0  0  0
  2  1  1  0  0  0  0
  3  2  1  0  0  0  0
  4 11  1  0  0  0  0
  4  5  2  0  0  0  0
  5 12  1  0  0  0  0
  6  5  1  0  0  0  0
  6  7  1  0  0  0  0
  8  7  1  0  0  0  0
  8 13  1  0  0  0  0
  8 15  1  0  0  0  0
  9  6  2  0  0  0  0
 10  1  2  0  0  0  0
 10  9  1  0  0  0  0
 14  8  1  0  0  0  0
 16  9  1  0  0  0  0
 17 10  1  0  0  0  0
 18 19  2  0  0  0  0
 18 20  1  0  0  0  0
 21 18  2  0  0  0  0
 22 23  1  0  0  0  0
 22 18  1  0  0  0  0
M  RAD  3   2   2   3   3  20   2
M  END
