Coordinates from ORCA-job 4-MeOPhN2+~HSO4-_B3LYPG-6-31G_dp-NX-Scan-d89-09-n800
 OpenBabel11261921003D

 23 22  0  0  0  0  0  0  0  0999 V2000
   -1.9049   -0.4789   -0.1331 C   0  0  0  0  0  0  0  0  0  0  0  0
   -3.1340   -1.0037   -0.3933 N   0  0  0  0  0  0  0  0  0  0  0  0
   -4.1320   -1.4591   -0.6156 N   0  0  0  0  0  0  0  0  0  0  0  0
   -1.8409    0.8059    0.4546 C   0  0  0  0  0  0  0  0  0  0  0  0
   -0.5948    1.3483    0.6701 C   0  0  0  0  0  0  0  0  0  0  0  0
    0.5679    0.6273    0.3282 C   0  0  0  0  0  0  0  0  0  0  0  0
    1.7267    1.2404    0.5830 O   0  0  0  0  0  0  0  0  0  0  0  0
    2.9679    0.6069    0.2562 C   0  0  0  0  0  0  0  0  0  0  0  0
    0.4759   -0.6663   -0.2552 C   0  0  0  0  0  0  0  0  0  0  0  0
   -0.7592   -1.2261   -0.4962 C   0  0  0  0  0  0  0  0  0  0  0  0
   -2.7691    1.3393    0.6776 H   0  0  0  0  0  0  0  0  0  0  0  0
   -0.5228    2.3513    1.0750 H   0  0  0  0  0  0  0  0  0  0  0  0
    3.7412    1.3129    0.5565 H   0  0  0  0  0  0  0  0  0  0  0  0
    3.0416    0.4183   -0.8199 H   0  0  0  0  0  0  0  0  0  0  0  0
    3.0906   -0.3285    0.8119 H   0  0  0  0  0  0  0  0  0  0  0  0
    1.3669   -1.2184   -0.5232 H   0  0  0  0  0  0  0  0  0  0  0  0
   -0.8533   -2.2055   -0.9516 H   0  0  0  0  0  0  0  0  0  0  0  0
   -4.2486    3.3215    0.2915 S   0  0  0  0  0  0  0  0  0  0  0  0
   -4.5472    1.8557    0.3162 O   0  0  0  0  0  0  0  0  0  0  0  0
   -5.1823    4.1901    1.0277 O   0  0  0  0  0  0  0  0  0  0  0  0
   -2.8077    3.5884    0.5338 O   0  0  0  0  0  0  0  0  0  0  0  0
   -4.5119    3.7021   -1.3179 O   0  0  0  0  0  0  0  0  0  0  0  0
   -4.8914    4.5933   -1.2915 H   0  0  0  0  0  0  0  0  0  0  0  0
  1  4  2  0  0  0  0
  2  1  1  0  0  0  0
  3  2  1  0  0  0  0
  4  5  1  0  0  0  0
  4 11  1  0  0  0  0
  5 12  1  0  0  0  0
  6  7  1  0  0  0  0
  6  5  2  0  0  0  0
  8 13  1  0  0  0  0
  8  7  1  0  0  0  0
  8 15  1  0  0  0  0
  9  6  1  0  0  0  0
 10  9  2  0  0  0  0
 10  1  1  0  0  0  0
 14  8  1  0  0  0  0
 16  9  1  0  0  0  0
 17 10  1  0  0  0  0
 18 19  2  0  0  0  0
 18 21  2  0  0  0  0
 18 20  1  0  0  0  0
 22 23  1  0  0  0  0
 22 18  1  0  0  0  0
M  RAD  3   2   2   3   3  20   2
M  END
