Coordinates from ORCA-job 4-MeOPhN2+~HSO4-_B3LYPG-6-31G_dp-NX-Scan-d89-09-n800
 OpenBabel11261921003D

 23 22  0  0  0  0  0  0  0  0999 V2000
   -1.9050   -0.3961   -0.1139 C   0  0  0  0  0  0  0  0  0  0  0  0
   -3.1461   -0.8942   -0.3786 N   0  0  0  0  0  0  0  0  0  0  0  0
   -4.1342   -1.3627   -0.6161 N   0  0  0  0  0  0  0  0  0  0  0  0
   -1.7998    0.8624    0.5195 C   0  0  0  0  0  0  0  0  0  0  0  0
   -0.5370    1.3637    0.7394 C   0  0  0  0  0  0  0  0  0  0  0  0
    0.6030    0.6282    0.3560 C   0  0  0  0  0  0  0  0  0  0  0  0
    1.7801    1.2032    0.6188 O   0  0  0  0  0  0  0  0  0  0  0  0
    3.0000    0.5523    0.2494 C   0  0  0  0  0  0  0  0  0  0  0  0
    0.4705   -0.6389   -0.2738 C   0  0  0  0  0  0  0  0  0  0  0  0
   -0.7824   -1.1568   -0.5185 C   0  0  0  0  0  0  0  0  0  0  0  0
   -2.7079    1.4100    0.7692 H   0  0  0  0  0  0  0  0  0  0  0  0
   -0.4275    2.3470    1.1818 H   0  0  0  0  0  0  0  0  0  0  0  0
    3.7952    1.2276    0.5626 H   0  0  0  0  0  0  0  0  0  0  0  0
    3.0527    0.4013   -0.8340 H   0  0  0  0  0  0  0  0  0  0  0  0
    3.1079   -0.4056    0.7688 H   0  0  0  0  0  0  0  0  0  0  0  0
    1.3430   -1.2038   -0.5738 H   0  0  0  0  0  0  0  0  0  0  0  0
   -0.9077   -2.1159   -1.0084 H   0  0  0  0  0  0  0  0  0  0  0  0
   -4.3072    3.2729    0.2619 S   0  0  0  0  0  0  0  0  0  0  0  0
   -4.5661    1.8008    0.3203 O   0  0  0  0  0  0  0  0  0  0  0  0
   -5.2675    4.1393    0.9665 O   0  0  0  0  0  0  0  0  0  0  0  0
   -2.8757    3.5831    0.5111 O   0  0  0  0  0  0  0  0  0  0  0  0
   -4.5639    3.6035   -1.3597 O   0  0  0  0  0  0  0  0  0  0  0  0
   -4.9458    4.4940   -1.3636 H   0  0  0  0  0  0  0  0  0  0  0  0
  1  4  2  0  0  0  0
  2  1  1  0  0  0  0
  3  2  1  0  0  0  0
  4  5  1  0  0  0  0
  4 11  1  0  0  0  0
  5 12  1  0  0  0  0
  6  7  1  0  0  0  0
  6  5  2  0  0  0  0
  8 13  1  0  0  0  0
  8  7  1  0  0  0  0
  8 15  1  0  0  0  0
  9  6  1  0  0  0  0
 10  9  2  0  0  0  0
 10  1  1  0  0  0  0
 14  8  1  0  0  0  0
 16  9  1  0  0  0  0
 17 10  1  0  0  0  0
 18 19  2  0  0  0  0
 18 21  2  0  0  0  0
 18 20  1  0  0  0  0
 22 18  1  0  0  0  0
 23 22  1  0  0  0  0
M  RAD  3   2   2   3   3  20   2
M  END
