Coordinates from ORCA-job 4-MeOPhN2+~HSO4-_B3LYPG-6-31G_dp-NX-Scan-d89-09-n800
 OpenBabel11261921003D

 23 22  0  0  0  0  0  0  0  0999 V2000
   -1.9570   -1.2445   -0.3321 C   0  0  0  0  0  0  0  0  0  0  0  0
   -2.8944   -2.1846   -0.5928 N   0  0  0  0  0  0  0  0  0  0  0  0
   -3.6212   -3.0135   -0.8229 N   0  0  0  0  0  0  0  0  0  0  0  0
   -2.3100    0.0964    0.0128 C   0  0  0  0  0  0  0  0  0  0  0  0
   -1.2920    0.9887    0.2514 C   0  0  0  0  0  0  0  0  0  0  0  0
    0.0589    0.5712    0.1568 C   0  0  0  0  0  0  0  0  0  0  0  0
    0.9611    1.5100    0.4094 O   0  0  0  0  0  0  0  0  0  0  0  0
    2.3618    1.2218    0.3383 C   0  0  0  0  0  0  0  0  0  0  0  0
    0.3954   -0.7671   -0.1861 C   0  0  0  0  0  0  0  0  0  0  0  0
   -0.6057   -1.6745   -0.4313 C   0  0  0  0  0  0  0  0  0  0  0  0
   -3.3354    0.4535    0.0911 H   0  0  0  0  0  0  0  0  0  0  0  0
   -1.5206    2.0416    0.4893 H   0  0  0  0  0  0  0  0  0  0  0  0
    2.8596    2.1588    0.5824 H   0  0  0  0  0  0  0  0  0  0  0  0
    2.6452    0.9058   -0.6707 H   0  0  0  0  0  0  0  0  0  0  0  0
    2.6410    0.4546    1.0678 H   0  0  0  0  0  0  0  0  0  0  0  0
    1.4278   -1.0849   -0.2600 H   0  0  0  0  0  0  0  0  0  0  0  0
   -0.3799   -2.7011   -0.6979 H   0  0  0  0  0  0  0  0  0  0  0  0
   -3.3980    3.9186    0.5789 S   0  0  0  0  0  0  0  0  0  0  0  0
   -4.0064    2.5705    0.7251 O   0  0  0  0  0  0  0  0  0  0  0  0
   -3.9625    5.0062    1.4007 O   0  0  0  0  0  0  0  0  0  0  0  0
   -1.9070    3.8553    0.5719 O   0  0  0  0  0  0  0  0  0  0  0  0
   -3.8151    4.3503   -0.9884 O   0  0  0  0  0  0  0  0  0  0  0  0
   -4.0672    5.2822   -0.9086 H   0  0  0  0  0  0  0  0  0  0  0  0
  1  4  1  0  0  0  0
  2  1  1  0  0  0  0
  3  2  1  0  0  0  0
  4 11  1  0  0  0  0
  4  5  2  0  0  0  0
  5 12  1  0  0  0  0
  6  5  1  0  0  0  0
  6  7  1  0  0  0  0
  8  7  1  0  0  0  0
  8 13  1  0  0  0  0
  8 15  1  0  0  0  0
  9  6  2  0  0  0  0
 10  1  2  0  0  0  0
 10  9  1  0  0  0  0
 14  8  1  0  0  0  0
 16  9  1  0  0  0  0
 17 10  1  0  0  0  0
 18 19  2  0  0  0  0
 18 20  1  0  0  0  0
 21 18  2  0  0  0  0
 22 23  1  0  0  0  0
 22 18  1  0  0  0  0
M  RAD  3   2   2   3   3  20   2
M  END
