Coordinates from ORCA-job 4-MeOPhN2+~HSO4-_B3LYPG-6-31G_dp-NX-Scan-d89-09-n800
 OpenBabel11261921003D

 23 22  0  0  0  0  0  0  0  0999 V2000
   -1.9171   -0.8602   -0.2720 C   0  0  0  0  0  0  0  0  0  0  0  0
   -3.0285   -1.6002   -0.5059 N   0  0  0  0  0  0  0  0  0  0  0  0
   -3.9380   -2.2270   -0.7045 N   0  0  0  0  0  0  0  0  0  0  0  0
   -2.0583    0.5103    0.0724 C   0  0  0  0  0  0  0  0  0  0  0  0
   -0.9034    1.2283    0.2921 C   0  0  0  0  0  0  0  0  0  0  0  0
    0.3609    0.6102    0.1772 C   0  0  0  0  0  0  0  0  0  0  0  0
    1.4102    1.3972    0.4095 O   0  0  0  0  0  0  0  0  0  0  0  0
    2.7426    0.8824    0.3123 C   0  0  0  0  0  0  0  0  0  0  0  0
    0.4747   -0.7658   -0.1672 C   0  0  0  0  0  0  0  0  0  0  0  0
   -0.6607   -1.5075   -0.3942 C   0  0  0  0  0  0  0  0  0  0  0  0
   -3.0389    1.0152    0.1623 H   0  0  0  0  0  0  0  0  0  0  0  0
   -1.0127    2.2838    0.5432 H   0  0  0  0  0  0  0  0  0  0  0  0
    3.3946    1.7232    0.5445 H   0  0  0  0  0  0  0  0  0  0  0  0
    2.9520    0.5250   -0.7012 H   0  0  0  0  0  0  0  0  0  0  0  0
    2.9073    0.0788    1.0377 H   0  0  0  0  0  0  0  0  0  0  0  0
    1.4432   -1.2411   -0.2555 H   0  0  0  0  0  0  0  0  0  0  0  0
   -0.6034   -2.5568   -0.6615 H   0  0  0  0  0  0  0  0  0  0  0  0
   -3.9248    3.6108    0.4904 S   0  0  0  0  0  0  0  0  0  0  0  0
   -4.4038    2.1982    0.4136 O   0  0  0  0  0  0  0  0  0  0  0  0
   -4.7429    4.5213    1.3075 O   0  0  0  0  0  0  0  0  0  0  0  0
   -2.4596    3.6963    0.7157 O   0  0  0  0  0  0  0  0  0  0  0  0
   -4.1519    4.1621   -1.0767 O   0  0  0  0  0  0  0  0  0  0  0  0
   -4.5630    5.0308   -0.9547 H   0  0  0  0  0  0  0  0  0  0  0  0
  1  4  1  0  0  0  0
  2  1  1  0  0  0  0
  3  2  1  0  0  0  0
  4 11  1  0  0  0  0
  4  5  2  0  0  0  0
  5 12  1  0  0  0  0
  6  5  1  0  0  0  0
  6  7  1  0  0  0  0
  8  7  1  0  0  0  0
  8 13  1  0  0  0  0
  8 15  1  0  0  0  0
  9  6  2  0  0  0  0
 10  1  2  0  0  0  0
 10  9  1  0  0  0  0
 14  8  1  0  0  0  0
 16  9  1  0  0  0  0
 17 10  1  0  0  0  0
 18 21  2  0  0  0  0
 18 20  1  0  0  0  0
 19 18  2  0  0  0  0
 22 23  1  0  0  0  0
 22 18  1  0  0  0  0
M  RAD  3   2   2   3   3  20   2
M  END
