Coordinates from ORCA-job 4-MeOPhN2+~HSO4-_B3LYPG-6-31G_dp-NX-Scan-d89-09-n800
 OpenBabel11261921003D

 23 22  0  0  0  0  0  0  0  0999 V2000
   -1.7919   -0.0014   -0.1814 C   0  0  0  0  0  0  0  0  0  0  0  0
   -3.0668   -0.4469   -0.5091 N   0  0  0  0  0  0  0  0  0  0  0  0
   -4.2059   -0.2537   -0.4731 N   0  0  0  0  0  0  0  0  0  0  0  0
   -1.5741    1.1851    0.5527 C   0  0  0  0  0  0  0  0  0  0  0  0
   -0.2735    1.5565    0.8268 C   0  0  0  0  0  0  0  0  0  0  0  0
    0.8125    0.7721    0.3841 C   0  0  0  0  0  0  0  0  0  0  0  0
    2.0327    1.2388    0.7106 O   0  0  0  0  0  0  0  0  0  0  0  0
    3.1902    0.5153    0.2940 C   0  0  0  0  0  0  0  0  0  0  0  0
    0.5827   -0.4095   -0.3446 C   0  0  0  0  0  0  0  0  0  0  0  0
   -0.7214   -0.7911   -0.6235 C   0  0  0  0  0  0  0  0  0  0  0  0
   -2.4157    1.7786    0.8842 H   0  0  0  0  0  0  0  0  0  0  0  0
   -0.0602    2.4630    1.3820 H   0  0  0  0  0  0  0  0  0  0  0  0
    4.0423    1.0833    0.6664 H   0  0  0  0  0  0  0  0  0  0  0  0
    3.2446    0.4491   -0.7987 H   0  0  0  0  0  0  0  0  0  0  0  0
    3.2060   -0.4910    0.7267 H   0  0  0  0  0  0  0  0  0  0  0  0
    1.4039   -1.0226   -0.6918 H   0  0  0  0  0  0  0  0  0  0  0  0
   -0.9254   -1.6964   -1.1849 H   0  0  0  0  0  0  0  0  0  0  0  0
   -4.9640    2.4678   -0.4221 S   0  0  0  0  0  0  0  0  0  0  0  0
   -6.3744    2.8363   -0.3224 O   0  0  0  0  0  0  0  0  0  0  0  0
   -4.5972    1.2780    0.5091 O   0  0  0  0  0  0  0  0  0  0  0  0
   -4.3341    2.3032   -1.7286 O   0  0  0  0  0  0  0  0  0  0  0  0
   -4.1306    3.6927    0.3264 O   0  0  0  0  0  0  0  0  0  0  0  0
   -4.8013    4.2080    0.8023 H   0  0  0  0  0  0  0  0  0  0  0  0
  1  4  2  0  0  0  0
  2  3  2  0  0  0  0
  2  1  1  0  0  0  0
  4  5  1  0  0  0  0
  4 11  1  0  0  0  0
  5 12  1  0  0  0  0
  6  7  1  0  0  0  0
  6  5  2  0  0  0  0
  8 13  1  0  0  0  0
  8  7  1  0  0  0  0
  8 15  1  0  0  0  0
  9  6  1  0  0  0  0
 10  9  2  0  0  0  0
 10  1  1  0  0  0  0
 14  8  1  0  0  0  0
 16  9  1  0  0  0  0
 17 10  1  0  0  0  0
 18 19  2  0  0  0  0
 18 22  1  0  0  0  0
 18 20  1  0  0  0  0
 21 18  2  0  0  0  0
 22 23  1  0  0  0  0
M  RAD  2   3   2  20   2
M  END
