Coordinates from ORCA-job 4-MeOPhN2+~HSO4-_B3LYPG-6-31G_dp-NX-Scan-d89-09-n800
 OpenBabel11261921003D

 23 22  0  0  0  0  0  0  0  0999 V2000
   -1.6502    0.4549   -0.4182 C   0  0  0  0  0  0  0  0  0  0  0  0
   -2.9325    0.2517   -0.8968 N   0  0  0  0  0  0  0  0  0  0  0  0
   -3.8379   -0.0982   -1.4619 N   0  0  0  0  0  0  0  0  0  0  0  0
   -1.3264    1.6021    0.3308 C   0  0  0  0  0  0  0  0  0  0  0  0
   -0.0169    1.7626    0.7358 C   0  0  0  0  0  0  0  0  0  0  0  0
    0.9631    0.8002    0.4160 C   0  0  0  0  0  0  0  0  0  0  0  0
    2.2005    1.0615    0.8686 O   0  0  0  0  0  0  0  0  0  0  0  0
    3.2564    0.1353    0.6054 C   0  0  0  0  0  0  0  0  0  0  0  0
    0.6178   -0.3449   -0.3317 C   0  0  0  0  0  0  0  0  0  0  0  0
   -0.6900   -0.5160   -0.7539 C   0  0  0  0  0  0  0  0  0  0  0  0
   -2.1177    2.2973    0.5850 H   0  0  0  0  0  0  0  0  0  0  0  0
    0.2823    2.6287    1.3150 H   0  0  0  0  0  0  0  0  0  0  0  0
    4.1431    0.5610    1.0736 H   0  0  0  0  0  0  0  0  0  0  0  0
    3.4280    0.0264   -0.4711 H   0  0  0  0  0  0  0  0  0  0  0  0
    3.0432   -0.8435    1.0484 H   0  0  0  0  0  0  0  0  0  0  0  0
    1.3578   -1.0929   -0.5855 H   0  0  0  0  0  0  0  0  0  0  0  0
   -0.9751   -1.3871   -1.3338 H   0  0  0  0  0  0  0  0  0  0  0  0
   -5.2738    2.1566    0.1666 S   0  0  0  0  0  0  0  0  0  0  0  0
   -6.3857    2.5300    1.0417 O   0  0  0  0  0  0  0  0  0  0  0  0
   -4.0678    1.5849    0.8295 O   0  0  0  0  0  0  0  0  0  0  0  0
   -5.6434    1.3630   -1.0383 O   0  0  0  0  0  0  0  0  0  0  0  0
   -4.6645    3.5990   -0.4168 O   0  0  0  0  0  0  0  0  0  0  0  0
   -5.4316    4.1826   -0.5235 H   0  0  0  0  0  0  0  0  0  0  0  0
  1  4  1  0  0  0  0
  2  1  1  0  0  0  0
  3  2  1  0  0  0  0
  4 11  1  0  0  0  0
  4  5  2  0  0  0  0
  5 12  1  0  0  0  0
  6  5  1  0  0  0  0
  6  7  1  0  0  0  0
  8  7  1  0  0  0  0
  8 15  1  0  0  0  0
  8 13  1  0  0  0  0
  9  6  2  0  0  0  0
 10  1  2  0  0  0  0
 10  9  1  0  0  0  0
 14  8  1  0  0  0  0
 16  9  1  0  0  0  0
 17 10  1  0  0  0  0
 18 20  2  0  0  0  0
 18 19  1  0  0  0  0
 21 18  2  0  0  0  0
 22 18  1  0  0  0  0
 23 22  1  0  0  0  0
M  RAD  3   2   2   3   3  19   2
M  END
