Coordinates from ORCA-job 4-MeOPhN2+~HSO4-_B3LYPG-6-31G_dp-NX-Scan-d89-09-n800
 OpenBabel11261921003D

 23 22  0  0  0  0  0  0  0  0999 V2000
   -1.8915   -0.5844   -0.1730 C   0  0  0  0  0  0  0  0  0  0  0  0
   -3.1052   -1.1514   -0.4069 N   0  0  0  0  0  0  0  0  0  0  0  0
   -4.1104   -1.6059   -0.5992 N   0  0  0  0  0  0  0  0  0  0  0  0
   -1.8794    0.7560    0.2794 C   0  0  0  0  0  0  0  0  0  0  0  0
   -0.6557    1.3509    0.4838 C   0  0  0  0  0  0  0  0  0  0  0  0
    0.5345    0.6281    0.2560 C   0  0  0  0  0  0  0  0  0  0  0  0
    1.6693    1.2921    0.4862 O   0  0  0  0  0  0  0  0  0  0  0  0
    2.9358    0.6592    0.2748 C   0  0  0  0  0  0  0  0  0  0  0  0
    0.4934   -0.7212   -0.1948 C   0  0  0  0  0  0  0  0  0  0  0  0
   -0.7183   -1.3370   -0.4167 C   0  0  0  0  0  0  0  0  0  0  0  0
   -2.8302    1.2875    0.4228 H   0  0  0  0  0  0  0  0  0  0  0  0
   -0.6331    2.3886    0.7987 H   0  0  0  0  0  0  0  0  0  0  0  0
    3.6812    1.4098    0.5344 H   0  0  0  0  0  0  0  0  0  0  0  0
    3.0592    0.3677   -0.7734 H   0  0  0  0  0  0  0  0  0  0  0  0
    3.0529   -0.2140    0.9250 H   0  0  0  0  0  0  0  0  0  0  0  0
    1.4061   -1.2737   -0.3745 H   0  0  0  0  0  0  0  0  0  0  0  0
   -0.7735   -2.3607   -0.7694 H   0  0  0  0  0  0  0  0  0  0  0  0
   -4.2044    3.3743    0.3374 S   0  0  0  0  0  0  0  0  0  0  0  0
   -4.5227    1.9214    0.1768 O   0  0  0  0  0  0  0  0  0  0  0  0
   -5.1389    4.1471    1.1713 O   0  0  0  0  0  0  0  0  0  0  0  0
   -2.7635    3.5904    0.6213 O   0  0  0  0  0  0  0  0  0  0  0  0
   -4.4475    3.9677   -1.2093 O   0  0  0  0  0  0  0  0  0  0  0  0
   -4.8799    4.8228   -1.0659 H   0  0  0  0  0  0  0  0  0  0  0  0
  1  4  2  0  0  0  0
  2  1  1  0  0  0  0
  3  2  1  0  0  0  0
  4 11  1  0  0  0  0
  4  5  1  0  0  0  0
  5 12  1  0  0  0  0
  6  5  2  0  0  0  0
  6  7  1  0  0  0  0
  8  7  1  0  0  0  0
  8 13  1  0  0  0  0
  8 15  1  0  0  0  0
  9  6  1  0  0  0  0
 10  9  2  0  0  0  0
 10  1  1  0  0  0  0
 14  8  1  0  0  0  0
 16  9  1  0  0  0  0
 17 10  1  0  0  0  0
 18 21  2  0  0  0  0
 18 20  1  0  0  0  0
 19 18  2  0  0  0  0
 22 23  1  0  0  0  0
 22 18  1  0  0  0  0
M  RAD  3   2   2   3   3  20   2
M  END
