Coordinates from ORCA-job 4-MeOPhN2+~HSO4-_B3LYPG-6-31G_dp-NX-Scan-d89-09-n800
 OpenBabel11261921003D

 23 22  0  0  0  0  0  0  0  0999 V2000
   -1.7536    0.3508   -0.5883 C   0  0  0  0  0  0  0  0  0  0  0  0
   -3.0423    0.1086   -1.0114 N   0  0  0  0  0  0  0  0  0  0  0  0
   -3.9769   -0.2769   -1.4880 N   0  0  0  0  0  0  0  0  0  0  0  0
   -1.3155    1.6676   -0.3391 C   0  0  0  0  0  0  0  0  0  0  0  0
    0.0009    1.8319    0.0349 C   0  0  0  0  0  0  0  0  0  0  0  0
    0.8625    0.7232    0.1815 C   0  0  0  0  0  0  0  0  0  0  0  0
    2.1147    1.0116    0.5616 O   0  0  0  0  0  0  0  0  0  0  0  0
    3.0588   -0.0446    0.7538 C   0  0  0  0  0  0  0  0  0  0  0  0
    0.3933   -0.5856   -0.0676 C   0  0  0  0  0  0  0  0  0  0  0  0
   -0.9192   -0.7755   -0.4594 C   0  0  0  0  0  0  0  0  0  0  0  0
   -2.0139    2.5055   -0.4348 H   0  0  0  0  0  0  0  0  0  0  0  0
    0.3944    2.8208    0.2418 H   0  0  0  0  0  0  0  0  0  0  0  0
    3.9843    0.4424    1.0583 H   0  0  0  0  0  0  0  0  0  0  0  0
    3.2261   -0.5988   -0.1765 H   0  0  0  0  0  0  0  0  0  0  0  0
    2.7292   -0.7296    1.5423 H   0  0  0  0  0  0  0  0  0  0  0  0
    1.0410   -1.4455    0.0442 H   0  0  0  0  0  0  0  0  0  0  0  0
   -1.3031   -1.7708   -0.6546 H   0  0  0  0  0  0  0  0  0  0  0  0
   -4.4945    2.8811    0.5080 S   0  0  0  0  0  0  0  0  0  0  0  0
   -3.9767    1.5170    0.8235 O   0  0  0  0  0  0  0  0  0  0  0  0
   -5.0418    3.6438    1.6364 O   0  0  0  0  0  0  0  0  0  0  0  0
   -3.5656    3.6365   -0.3775 O   0  0  0  0  0  0  0  0  0  0  0  0
   -5.8007    2.4942   -0.4636 O   0  0  0  0  0  0  0  0  0  0  0  0
   -6.3233    3.3076   -0.5403 H   0  0  0  0  0  0  0  0  0  0  0  0
  1 10  2  0  0  0  0
  1  4  1  0  0  0  0
  2  1  1  0  0  0  0
  3  2  1  0  0  0  0
  4  5  2  0  0  0  0
  5  6  1  0  0  0  0
  5 12  1  0  0  0  0
  6  7  1  0  0  0  0
  7  8  1  0  0  0  0
  8 13  1  0  0  0  0
  8 15  1  0  0  0  0
  9 16  1  0  0  0  0
  9  6  2  0  0  0  0
 10  9  1  0  0  0  0
 11  4  1  0  0  0  0
 14  8  1  0  0  0  0
 17 10  1  0  0  0  0
 18 19  2  0  0  0  0
 18 20  1  0  0  0  0
 21 18  2  0  0  0  0
 22 18  1  0  0  0  0
 23 22  1  0  0  0  0
M  RAD  3   2   2   3   3  20   2
M  END
