Coordinates from ORCA-job 4-MeOPhN2+~HSO4-_B3LYPG-6-31G_dp-NX-Scan-d89-09-n800
 OpenBabel11261921003D

 23 23  0  0  0  0  0  0  0  0999 V2000
   -1.5227    0.7311   -0.5767 C   0  0  0  0  0  0  0  0  0  0  0  0
   -2.7344    0.6833   -1.2765 N   0  0  0  0  0  0  0  0  0  0  0  0
   -3.8184    1.1911   -1.1343 N   0  0  0  0  0  0  0  0  0  0  0  0
   -1.2329    1.4776    0.5913 C   0  0  0  0  0  0  0  0  0  0  0  0
    0.0281    1.3971    1.1512 C   0  0  0  0  0  0  0  0  0  0  0  0
    1.0271    0.5860    0.5777 C   0  0  0  0  0  0  0  0  0  0  0  0
    2.2177    0.5912    1.2154 O   0  0  0  0  0  0  0  0  0  0  0  0
    3.2801   -0.2064    0.7001 C   0  0  0  0  0  0  0  0  0  0  0  0
    0.7460   -0.1554   -0.5813 C   0  0  0  0  0  0  0  0  0  0  0  0
   -0.5203   -0.0745   -1.1441 C   0  0  0  0  0  0  0  0  0  0  0  0
   -1.9873    2.1039    1.0427 H   0  0  0  0  0  0  0  0  0  0  0  0
    0.2741    1.9578    2.0464 H   0  0  0  0  0  0  0  0  0  0  0  0
    4.1242   -0.0455    1.3710 H   0  0  0  0  0  0  0  0  0  0  0  0
    3.5575    0.1047   -0.3139 H   0  0  0  0  0  0  0  0  0  0  0  0
    3.0147   -1.2704    0.6968 H   0  0  0  0  0  0  0  0  0  0  0  0
    1.4973   -0.7848   -1.0413 H   0  0  0  0  0  0  0  0  0  0  0  0
   -0.7608   -0.6371   -2.0397 H   0  0  0  0  0  0  0  0  0  0  0  0
   -5.4651    2.5410    0.3514 S   0  0  0  0  0  0  0  0  0  0  0  0
   -5.4374    3.7074    1.2027 O   0  0  0  0  0  0  0  0  0  0  0  0
   -3.9031    2.1480    0.0832 O   0  0  0  0  0  0  0  0  0  0  0  0
   -6.2092    1.3376    0.6782 O   0  0  0  0  0  0  0  0  0  0  0  0
   -5.9254    3.0563   -1.1177 O   0  0  0  0  0  0  0  0  0  0  0  0
   -5.9712    2.2752   -1.6977 H   0  0  0  0  0  0  0  0  0  0  0  0
  1  4  2  0  0  0  0
  2  3  1  0  0  0  0
  2  1  1  0  0  0  0
  3 20  1  0  0  0  0
  4 11  1  0  0  0  0
  4  5  1  0  0  0  0
  5 12  1  0  0  0  0
  6  5  2  0  0  0  0
  6  7  1  0  0  0  0
  8  7  1  0  0  0  0
  8 13  1  0  0  0  0
  9  6  1  0  0  0  0
 10  9  2  0  0  0  0
 10  1  1  0  0  0  0
 14  8  1  0  0  0  0
 15  8  1  0  0  0  0
 16  9  1  0  0  0  0
 17 10  1  0  0  0  0
 18 21  2  0  0  0  0
 18 19  2  0  0  0  0
 20 18  1  0  0  0  0
 22 18  1  0  0  0  0
 23 22  1  0  0  0  0
M  RAD  2   2   2   3   2
M  END
