Coordinates from ORCA-job 4-MeOPhN2+~HSO4-_B3LYPG-6-31G_dp-NX-Scan-d89-09-n800
 OpenBabel11261921003D

 23 22  0  0  0  0  0  0  0  0999 V2000
   -1.6777    0.4134   -0.3934 C   0  0  0  0  0  0  0  0  0  0  0  0
   -2.9564    0.1966   -0.8703 N   0  0  0  0  0  0  0  0  0  0  0  0
   -3.8794   -0.1286   -1.4229 N   0  0  0  0  0  0  0  0  0  0  0  0
   -1.3806    1.5326    0.4089 C   0  0  0  0  0  0  0  0  0  0  0  0
   -0.0728    1.7096    0.8122 C   0  0  0  0  0  0  0  0  0  0  0  0
    0.9317    0.7939    0.4361 C   0  0  0  0  0  0  0  0  0  0  0  0
    2.1652    1.0692    0.8898 O   0  0  0  0  0  0  0  0  0  0  0  0
    3.2467    0.1922    0.5684 C   0  0  0  0  0  0  0  0  0  0  0  0
    0.6131   -0.3230   -0.3650 C   0  0  0  0  0  0  0  0  0  0  0  0
   -0.6927   -0.5123   -0.7839 C   0  0  0  0  0  0  0  0  0  0  0  0
   -2.1914    2.1901    0.7019 H   0  0  0  0  0  0  0  0  0  0  0  0
    0.2068    2.5543    1.4316 H   0  0  0  0  0  0  0  0  0  0  0  0
    4.1254    0.6234    1.0462 H   0  0  0  0  0  0  0  0  0  0  0  0
    3.4069    0.1421   -0.5143 H   0  0  0  0  0  0  0  0  0  0  0  0
    3.0713   -0.8136    0.9651 H   0  0  0  0  0  0  0  0  0  0  0  0
    1.3727   -1.0345   -0.6618 H   0  0  0  0  0  0  0  0  0  0  0  0
   -0.9580   -1.3617   -1.4042 H   0  0  0  0  0  0  0  0  0  0  0  0
   -5.2540    2.1870    0.1909 S   0  0  0  0  0  0  0  0  0  0  0  0
   -6.3575    2.7506    0.9690 O   0  0  0  0  0  0  0  0  0  0  0  0
   -4.1373    1.5683    0.9549 O   0  0  0  0  0  0  0  0  0  0  0  0
   -5.6585    1.3300   -0.9614 O   0  0  0  0  0  0  0  0  0  0  0  0
   -4.4733    3.5010   -0.4936 O   0  0  0  0  0  0  0  0  0  0  0  0
   -5.1718    4.1347   -0.7192 H   0  0  0  0  0  0  0  0  0  0  0  0
  1  4  1  0  0  0  0
  2  1  1  0  0  0  0
  3  2  1  0  0  0  0
  4 11  1  0  0  0  0
  4  5  2  0  0  0  0
  5 12  1  0  0  0  0
  6  5  1  0  0  0  0
  6  7  1  0  0  0  0
  8  7  1  0  0  0  0
  8 15  1  0  0  0  0
  8 13  1  0  0  0  0
  9  6  2  0  0  0  0
 10  1  2  0  0  0  0
 10  9  1  0  0  0  0
 14  8  1  0  0  0  0
 16  9  1  0  0  0  0
 17 10  1  0  0  0  0
 18 20  2  0  0  0  0
 18 19  1  0  0  0  0
 21 18  2  0  0  0  0
 22 18  1  0  0  0  0
 23 22  1  0  0  0  0
M  RAD  3   2   2   3   3  19   2
M  END
