Coordinates from ORCA-job 4-MeOPhN2+~HSO4-_B3LYPG-6-31G_dp-NX-Scan-d89-09-n800
 OpenBabel11261921003D

 23 22  0  0  0  0  0  0  0  0999 V2000
   -1.9020   -0.7807   -0.2592 C   0  0  0  0  0  0  0  0  0  0  0  0
   -3.0455   -1.4749   -0.4854 N   0  0  0  0  0  0  0  0  0  0  0  0
   -3.9870   -2.0538   -0.6758 N   0  0  0  0  0  0  0  0  0  0  0  0
   -1.9984    0.5972    0.0649 C   0  0  0  0  0  0  0  0  0  0  0  0
   -0.8206    1.2789    0.2782 C   0  0  0  0  0  0  0  0  0  0  0  0
    0.4218    0.6166    0.1769 C   0  0  0  0  0  0  0  0  0  0  0  0
    1.4978    1.3706    0.4016 O   0  0  0  0  0  0  0  0  0  0  0  0
    2.8112    0.8073    0.3174 C   0  0  0  0  0  0  0  0  0  0  0  0
    0.4890   -0.7675   -0.1474 C   0  0  0  0  0  0  0  0  0  0  0  0
   -0.6703   -1.4741   -0.3683 C   0  0  0  0  0  0  0  0  0  0  0  0
   -2.9738    1.1166    0.1401 H   0  0  0  0  0  0  0  0  0  0  0  0
   -0.8911    2.3382    0.5147 H   0  0  0  0  0  0  0  0  0  0  0  0
    3.4921    1.6269    0.5423 H   0  0  0  0  0  0  0  0  0  0  0  0
    3.0125    0.4299   -0.6906 H   0  0  0  0  0  0  0  0  0  0  0  0
    2.9440    0.0074    1.0534 H   0  0  0  0  0  0  0  0  0  0  0  0
    1.4412   -1.2762   -0.2252 H   0  0  0  0  0  0  0  0  0  0  0  0
   -0.6478   -2.5283   -0.6211 H   0  0  0  0  0  0  0  0  0  0  0  0
   -4.0165    3.5381    0.4475 S   0  0  0  0  0  0  0  0  0  0  0  0
   -4.4597    2.1187    0.2962 O   0  0  0  0  0  0  0  0  0  0  0  0
   -4.8324    4.3699    1.3465 O   0  0  0  0  0  0  0  0  0  0  0  0
   -2.5481    3.6443    0.6346 O   0  0  0  0  0  0  0  0  0  0  0  0
   -4.3080    4.1793   -1.0723 O   0  0  0  0  0  0  0  0  0  0  0  0
   -4.7300    5.0307   -0.8841 H   0  0  0  0  0  0  0  0  0  0  0  0
  1  4  1  0  0  0  0
  2  1  1  0  0  0  0
  3  2  1  0  0  0  0
  4 11  1  0  0  0  0
  4  5  2  0  0  0  0
  5 12  1  0  0  0  0
  6  5  1  0  0  0  0
  6  7  1  0  0  0  0
  8  7  1  0  0  0  0
  8 13  1  0  0  0  0
  8 15  1  0  0  0  0
  9  6  2  0  0  0  0
 10  1  2  0  0  0  0
 10  9  1  0  0  0  0
 14  8  1  0  0  0  0
 16  9  1  0  0  0  0
 17 10  1  0  0  0  0
 18 21  2  0  0  0  0
 18 20  1  0  0  0  0
 19 18  2  0  0  0  0
 22 23  1  0  0  0  0
 22 18  1  0  0  0  0
M  RAD  3   2   2   3   3  20   2
M  END
