Coordinates from ORCA-job 4-MeOPhN2+~HSO4-_B3LYPG-6-31G_dp-NX-Scan-d89-09-n800
 OpenBabel11261921003D

 23 23  0  0  0  0  0  0  0  0999 V2000
   -1.5082    0.7142   -0.5837 C   0  0  0  0  0  0  0  0  0  0  0  0
   -2.7244    0.6701   -1.2722 N   0  0  0  0  0  0  0  0  0  0  0  0
   -3.8078    1.1628   -1.1614 N   0  0  0  0  0  0  0  0  0  0  0  0
   -1.2279    1.4677    0.5814 C   0  0  0  0  0  0  0  0  0  0  0  0
    0.0315    1.3931    1.1448 C   0  0  0  0  0  0  0  0  0  0  0  0
    1.0345    0.5827    0.5762 C   0  0  0  0  0  0  0  0  0  0  0  0
    2.2227    0.5943    1.2166 O   0  0  0  0  0  0  0  0  0  0  0  0
    3.2899   -0.2022    0.7085 C   0  0  0  0  0  0  0  0  0  0  0  0
    0.7595   -0.1647   -0.5810 C   0  0  0  0  0  0  0  0  0  0  0  0
   -0.5053   -0.0918   -1.1478 C   0  0  0  0  0  0  0  0  0  0  0  0
   -1.9903    2.0912    1.0239 H   0  0  0  0  0  0  0  0  0  0  0  0
    0.2734    1.9576    2.0386 H   0  0  0  0  0  0  0  0  0  0  0  0
    4.1306   -0.0357    1.3822 H   0  0  0  0  0  0  0  0  0  0  0  0
    3.5702    0.1062   -0.3054 H   0  0  0  0  0  0  0  0  0  0  0  0
    3.0278   -1.2669    0.7087 H   0  0  0  0  0  0  0  0  0  0  0  0
    1.5148   -0.7929   -1.0360 H   0  0  0  0  0  0  0  0  0  0  0  0
   -0.7414   -0.6595   -2.0413 H   0  0  0  0  0  0  0  0  0  0  0  0
   -5.4596    2.5521    0.3509 S   0  0  0  0  0  0  0  0  0  0  0  0
   -5.4513    3.7016    1.2280 O   0  0  0  0  0  0  0  0  0  0  0  0
   -3.9109    2.1771    0.0857 O   0  0  0  0  0  0  0  0  0  0  0  0
   -6.2130    1.3427    0.6414 O   0  0  0  0  0  0  0  0  0  0  0  0
   -5.9292    3.0977   -1.1100 O   0  0  0  0  0  0  0  0  0  0  0  0
   -6.1072    2.3177   -1.6633 H   0  0  0  0  0  0  0  0  0  0  0  0
  1  4  1  0  0  0  0
  2  3  1  0  0  0  0
  2  1  1  0  0  0  0
  3 20  1  0  0  0  0
  4 11  1  0  0  0  0
  4  5  2  0  0  0  0
  5 12  1  0  0  0  0
  6  5  1  0  0  0  0
  6  7  1  0  0  0  0
  8 15  1  0  0  0  0
  8  7  1  0  0  0  0
  8 13  1  0  0  0  0
  9  6  2  0  0  0  0
 10  1  2  0  0  0  0
 10  9  1  0  0  0  0
 14  8  1  0  0  0  0
 16  9  1  0  0  0  0
 17 10  1  0  0  0  0
 18 21  2  0  0  0  0
 18 19  2  0  0  0  0
 20 18  1  0  0  0  0
 22 18  1  0  0  0  0
 23 22  1  0  0  0  0
M  RAD  2   2   2   3   2
M  END
