Coordinates from ORCA-job 4-MeOPhN2+~HSO4-_B3LYPG-6-31G_dp-NX-Scan-d89-09-n800
 OpenBabel11261921003D

 23 22  0  0  0  0  0  0  0  0999 V2000
   -1.7442    0.1807   -0.6916 C   0  0  0  0  0  0  0  0  0  0  0  0
   -2.9990   -0.1455   -1.1457 N   0  0  0  0  0  0  0  0  0  0  0  0
   -3.9210   -0.5795   -1.6037 N   0  0  0  0  0  0  0  0  0  0  0  0
   -1.3783    1.5282   -0.4913 C   0  0  0  0  0  0  0  0  0  0  0  0
   -0.0869    1.7722   -0.0753 C   0  0  0  0  0  0  0  0  0  0  0  0
    0.8197    0.7154    0.1546 C   0  0  0  0  0  0  0  0  0  0  0  0
    2.0404    1.0801    0.5665 O   0  0  0  0  0  0  0  0  0  0  0  0
    3.0242    0.0812    0.8495 C   0  0  0  0  0  0  0  0  0  0  0  0
    0.4227   -0.6264   -0.0486 C   0  0  0  0  0  0  0  0  0  0  0  0
   -0.8619   -0.8980   -0.4776 C   0  0  0  0  0  0  0  0  0  0  0  0
   -2.1046    2.3389   -0.6292 H   0  0  0  0  0  0  0  0  0  0  0  0
    0.2459    2.7885    0.1037 H   0  0  0  0  0  0  0  0  0  0  0  0
    3.9115    0.6275    1.1668 H   0  0  0  0  0  0  0  0  0  0  0  0
    3.2575   -0.5077   -0.0445 H   0  0  0  0  0  0  0  0  0  0  0  0
    2.6928   -0.5800    1.6572 H   0  0  0  0  0  0  0  0  0  0  0  0
    1.1060   -1.4466    0.1299 H   0  0  0  0  0  0  0  0  0  0  0  0
   -1.1907   -1.9191   -0.6385 H   0  0  0  0  0  0  0  0  0  0  0  0
   -4.4314    2.9142    0.4696 S   0  0  0  0  0  0  0  0  0  0  0  0
   -4.1731    1.4435    0.4645 O   0  0  0  0  0  0  0  0  0  0  0  0
   -4.7352    3.5205    1.7762 O   0  0  0  0  0  0  0  0  0  0  0  0
   -3.4219    3.6454   -0.3459 O   0  0  0  0  0  0  0  0  0  0  0  0
   -5.8581    3.0239   -0.3884 O   0  0  0  0  0  0  0  0  0  0  0  0
   -6.3360    3.7581    0.0267 H   0  0  0  0  0  0  0  0  0  0  0  0
  1  4  2  0  0  0  0
  1 10  1  0  0  0  0
  2  1  1  0  0  0  0
  3  2  1  0  0  0  0
  4  5  1  0  0  0  0
  5 12  1  0  0  0  0
  5  6  2  0  0  0  0
  6  7  1  0  0  0  0
  7  8  1  0  0  0  0
  8 13  1  0  0  0  0
  8 15  1  0  0  0  0
  9 16  1  0  0  0  0
  9  6  1  0  0  0  0
 10  9  2  0  0  0  0
 11  4  1  0  0  0  0
 14  8  1  0  0  0  0
 17 10  1  0  0  0  0
 18 20  1  0  0  0  0
 19 18  2  0  0  0  0
 21 18  2  0  0  0  0
 22 23  1  0  0  0  0
 22 18  1  0  0  0  0
M  RAD  3   2   2   3   3  20   2
M  END
