Coordinates from ORCA-job 4-MeOPhN2+~HSO4-_B3LYPG-6-31G_dp-NX-Scan-d89-09-n800
 OpenBabel11261921003D

 23 22  0  0  0  0  0  0  0  0999 V2000
   -1.7418    0.6334   -0.4644 C   0  0  0  0  0  0  0  0  0  0  0  0
   -3.0643    0.5350   -0.8359 N   0  0  0  0  0  0  0  0  0  0  0  0
   -4.0997    0.3550   -1.2161 N   0  0  0  0  0  0  0  0  0  0  0  0
   -1.1915    1.8815   -0.1092 C   0  0  0  0  0  0  0  0  0  0  0  0
    0.1439    1.9163    0.2299 C   0  0  0  0  0  0  0  0  0  0  0  0
    0.9222    0.7386    0.2366 C   0  0  0  0  0  0  0  0  0  0  0  0
    2.2062    0.8981    0.5926 O   0  0  0  0  0  0  0  0  0  0  0  0
    3.0717   -0.2376    0.6420 C   0  0  0  0  0  0  0  0  0  0  0  0
    0.3470   -0.4995   -0.1194 C   0  0  0  0  0  0  0  0  0  0  0  0
   -0.9896   -0.5534   -0.4766 C   0  0  0  0  0  0  0  0  0  0  0  0
   -1.8342    2.7562   -0.1336 H   0  0  0  0  0  0  0  0  0  0  0  0
    0.6205    2.8491    0.5085 H   0  0  0  0  0  0  0  0  0  0  0  0
    4.0422    0.1472    0.9533 H   0  0  0  0  0  0  0  0  0  0  0  0
    3.1639   -0.7076   -0.3433 H   0  0  0  0  0  0  0  0  0  0  0  0
    2.7184   -0.9723    1.3738 H   0  0  0  0  0  0  0  0  0  0  0  0
    0.9317   -1.4105   -0.1192 H   0  0  0  0  0  0  0  0  0  0  0  0
   -1.4532   -1.4943   -0.7516 H   0  0  0  0  0  0  0  0  0  0  0  0
   -4.5719    2.8184    0.4107 S   0  0  0  0  0  0  0  0  0  0  0  0
   -3.8426    1.8841    1.2953 O   0  0  0  0  0  0  0  0  0  0  0  0
   -5.3668    3.8638    1.0295 O   0  0  0  0  0  0  0  0  0  0  0  0
   -3.7629    3.2348   -0.7711 O   0  0  0  0  0  0  0  0  0  0  0  0
   -5.7338    1.7730   -0.2550 O   0  0  0  0  0  0  0  0  0  0  0  0
   -6.2368    2.3060   -0.8919 H   0  0  0  0  0  0  0  0  0  0  0  0
  1  4  1  0  0  0  0
  2  1  1  0  0  0  0
  3  2  1  0  0  0  0
  4  5  2  0  0  0  0
  5  6  1  0  0  0  0
  5 12  1  0  0  0  0
  6  7  1  0  0  0  0
  7  8  1  0  0  0  0
  8 13  1  0  0  0  0
  8 15  1  0  0  0  0
  9 16  1  0  0  0  0
  9  6  2  0  0  0  0
 10  1  2  0  0  0  0
 10  9  1  0  0  0  0
 11  4  1  0  0  0  0
 14  8  1  0  0  0  0
 17 10  1  0  0  0  0
 18 20  2  0  0  0  0
 18 19  1  0  0  0  0
 21 18  2  0  0  0  0
 22 18  1  0  0  0  0
 23 22  1  0  0  0  0
M  RAD  3   2   2   3   3  19   2
M  END
