Coordinates from ORCA-job 4-MeOPhN2+~HSO4-_B3LYPG-6-31G_dp-NX-Scan-d89-09-n800
 OpenBabel11261921003D

 23 22  0  0  0  0  0  0  0  0999 V2000
   -1.6560    0.4508   -0.4045 C   0  0  0  0  0  0  0  0  0  0  0  0
   -2.9407    0.2432   -0.8764 N   0  0  0  0  0  0  0  0  0  0  0  0
   -3.8462   -0.1180   -1.4325 N   0  0  0  0  0  0  0  0  0  0  0  0
   -1.3309    1.6004    0.3397 C   0  0  0  0  0  0  0  0  0  0  0  0
   -0.0198    1.7642    0.7387 C   0  0  0  0  0  0  0  0  0  0  0  0
    0.9606    0.8029    0.4164 C   0  0  0  0  0  0  0  0  0  0  0  0
    2.1995    1.0674    0.8631 O   0  0  0  0  0  0  0  0  0  0  0  0
    3.2558    0.1427    0.5967 C   0  0  0  0  0  0  0  0  0  0  0  0
    0.6139   -0.3440   -0.3276 C   0  0  0  0  0  0  0  0  0  0  0  0
   -0.6958   -0.5189   -0.7426 C   0  0  0  0  0  0  0  0  0  0  0  0
   -2.1217    2.2955    0.5947 H   0  0  0  0  0  0  0  0  0  0  0  0
    0.2804    2.6321    1.3147 H   0  0  0  0  0  0  0  0  0  0  0  0
    4.1437    0.5702    1.0607 H   0  0  0  0  0  0  0  0  0  0  0  0
    3.4233    0.0328   -0.4804 H   0  0  0  0  0  0  0  0  0  0  0  0
    3.0460   -0.8360    1.0415 H   0  0  0  0  0  0  0  0  0  0  0  0
    1.3542   -1.0910   -0.5837 H   0  0  0  0  0  0  0  0  0  0  0  0
   -0.9820   -1.3917   -1.3193 H   0  0  0  0  0  0  0  0  0  0  0  0
   -5.2710    2.1527    0.1424 S   0  0  0  0  0  0  0  0  0  0  0  0
   -6.3817    2.5165    1.0229 O   0  0  0  0  0  0  0  0  0  0  0  0
   -4.0757    1.5479    0.7968 O   0  0  0  0  0  0  0  0  0  0  0  0
   -5.6407    1.3947   -1.0837 O   0  0  0  0  0  0  0  0  0  0  0  0
   -4.6391    3.6022   -0.3979 O   0  0  0  0  0  0  0  0  0  0  0  0
   -5.3977    4.1986   -0.4949 H   0  0  0  0  0  0  0  0  0  0  0  0
  1  4  1  0  0  0  0
  2  1  1  0  0  0  0
  3  2  1  0  0  0  0
  4 11  1  0  0  0  0
  4  5  2  0  0  0  0
  5 12  1  0  0  0  0
  6  5  1  0  0  0  0
  6  7  1  0  0  0  0
  8  7  1  0  0  0  0
  8 15  1  0  0  0  0
  8 13  1  0  0  0  0
  9  6  2  0  0  0  0
 10  1  2  0  0  0  0
 10  9  1  0  0  0  0
 14  8  1  0  0  0  0
 16  9  1  0  0  0  0
 17 10  1  0  0  0  0
 18 20  2  0  0  0  0
 18 19  1  0  0  0  0
 21 18  2  0  0  0  0
 22 18  1  0  0  0  0
 23 22  1  0  0  0  0
M  RAD  3   2   2   3   3  19   2
M  END
