Coordinates from ORCA-job PhN2+~TfO-_B3LYPG-6-31G_dp-NX-Scan-d89-09-n800
 OpenBabel11261920253D

 21 20  0  0  0  0  0  0  0  0999 V2000
   -1.4859   -0.3988   -0.3213 C   0  0  0  0  0  0  0  0  0  0  0  0
   -1.3996   -1.6871   -0.7025 N   0  0  0  0  0  0  0  0  0  0  0  0
   -1.3301   -2.7683   -1.0169 N   0  0  0  0  0  0  0  0  0  0  0  0
   -2.6023    0.0135    0.4650 C   0  0  0  0  0  0  0  0  0  0  0  0
   -2.6586    1.3241    0.8662 C   0  0  0  0  0  0  0  0  0  0  0  0
   -1.6403    2.2357    0.4914 C   0  0  0  0  0  0  0  0  0  0  0  0
   -0.5357    1.8009   -0.2783 C   0  0  0  0  0  0  0  0  0  0  0  0
   -0.4475    0.4974   -0.7030 C   0  0  0  0  0  0  0  0  0  0  0  0
   -3.3733   -0.7023    0.7276 H   0  0  0  0  0  0  0  0  0  0  0  0
   -3.5004    1.7055    1.4323 H   0  0  0  0  0  0  0  0  0  0  0  0
   -1.6389    3.2259    0.9205 H   0  0  0  0  0  0  0  0  0  0  0  0
    0.2387    2.5092   -0.5498 H   0  0  0  0  0  0  0  0  0  0  0  0
    0.3853    0.1402   -1.2987 H   0  0  0  0  0  0  0  0  0  0  0  0
   -3.8999    4.3813   -0.4041 S   0  0  0  0  0  0  0  0  0  0  0  0
   -2.9265    5.9228   -0.0411 C   0  0  0  0  0  0  0  0  0  0  0  0
   -2.8615    3.5144   -1.0775 O   0  0  0  0  0  0  0  0  0  0  0  0
   -4.9818    4.8118   -1.2940 O   0  0  0  0  0  0  0  0  0  0  0  0
   -4.2647    3.8927    0.9438 O   0  0  0  0  0  0  0  0  0  0  0  0
   -1.8492    5.6153    0.7254 F   0  0  0  0  0  0  0  0  0  0  0  0
   -2.4764    6.4928   -1.1656 F   0  0  0  0  0  0  0  0  0  0  0  0
   -3.6641    6.8156    0.6271 F   0  0  0  0  0  0  0  0  0  0  0  0
  1  4  1  0  0  0  0
  2  1  1  0  0  0  0
  3  2  1  0  0  0  0
  4  9  1  0  0  0  0
  4  5  2  0  0  0  0
  5 10  1  0  0  0  0
  6  5  1  0  0  0  0
  6 11  1  0  0  0  0
  7  6  2  0  0  0  0
  8  1  2  0  0  0  0
  8  7  1  0  0  0  0
 12  7  1  0  0  0  0
 13  8  1  0  0  0  0
 14 15  1  0  0  0  0
 14 18  1  0  0  0  0
 15 21  1  0  0  0  0
 15 19  1  0  0  0  0
 16 14  2  0  0  0  0
 17 14  2  0  0  0  0
 20 15  1  0  0  0  0
M  RAD  3   2   2   3   3  18   2
M  END
