Coordinates from ORCA-job PhN2+~TfO-_B3LYPG-6-31G_dp-NX-Scan-d89-09-n800
 OpenBabel11261920253D

 21 20  0  0  0  0  0  0  0  0999 V2000
   -1.5644   -0.7467   -0.1910 C   0  0  0  0  0  0  0  0  0  0  0  0
   -1.7670   -2.0622   -0.4621 N   0  0  0  0  0  0  0  0  0  0  0  0
   -1.9602   -3.1427   -0.6933 N   0  0  0  0  0  0  0  0  0  0  0  0
   -2.6322    0.1552   -0.4366 C   0  0  0  0  0  0  0  0  0  0  0  0
   -2.4079    1.4937   -0.1787 C   0  0  0  0  0  0  0  0  0  0  0  0
   -1.1557    1.9157    0.3101 C   0  0  0  0  0  0  0  0  0  0  0  0
   -0.1202    0.9975    0.5620 C   0  0  0  0  0  0  0  0  0  0  0  0
   -0.3005   -0.3501    0.3121 C   0  0  0  0  0  0  0  0  0  0  0  0
   -3.5802   -0.2086   -0.8181 H   0  0  0  0  0  0  0  0  0  0  0  0
   -3.1825    2.2506   -0.3631 H   0  0  0  0  0  0  0  0  0  0  0  0
   -1.0360    2.9899    0.4689 H   0  0  0  0  0  0  0  0  0  0  0  0
    0.8335    1.3456    0.9443 H   0  0  0  0  0  0  0  0  0  0  0  0
    0.4789   -1.0844    0.4822 H   0  0  0  0  0  0  0  0  0  0  0  0
   -3.0815    4.9987   -0.6363 S   0  0  0  0  0  0  0  0  0  0  0  0
   -3.9980    6.3915    0.1796 C   0  0  0  0  0  0  0  0  0  0  0  0
   -2.6948    5.5144   -1.9584 O   0  0  0  0  0  0  0  0  0  0  0  0
   -4.0924    3.9002   -0.6496 O   0  0  0  0  0  0  0  0  0  0  0  0
   -1.9540    4.7450    0.3065 O   0  0  0  0  0  0  0  0  0  0  0  0
   -3.2142    7.4750    0.2894 F   0  0  0  0  0  0  0  0  0  0  0  0
   -5.0840    6.7268   -0.5341 F   0  0  0  0  0  0  0  0  0  0  0  0
   -4.3994    6.0378    1.4126 F   0  0  0  0  0  0  0  0  0  0  0  0
  1  8  1  0  0  0  0
  2  1  1  0  0  0  0
  3  2  1  0  0  0  0
  4  1  2  0  0  0  0
  4  5  1  0  0  0  0
  5  6  2  0  0  0  0
  6 11  1  0  0  0  0
  6  7  1  0  0  0  0
  7 12  1  0  0  0  0
  8 13  1  0  0  0  0
  8  7  2  0  0  0  0
  9  4  1  0  0  0  0
 10  5  1  0  0  0  0
 14 15  1  0  0  0  0
 14 18  1  0  0  0  0
 15 19  1  0  0  0  0
 15 21  1  0  0  0  0
 16 14  2  0  0  0  0
 17 14  2  0  0  0  0
 20 15  1  0  0  0  0
M  RAD  3   2   2   3   3  18   2
M  END
