Coordinates from ORCA-job PhN2+~TfO-_B3LYPG-6-31G_dp-NX-Scan-d89-09-n800
 OpenBabel11261920253D

 21 21  0  0  0  0  0  0  0  0999 V2000
   -1.4392    1.3389   -0.0283 C   0  0  0  0  0  0  0  0  0  0  0  0
   -2.7237    1.0508   -0.5812 N   0  0  0  0  0  0  0  0  0  0  0  0
   -3.5426    1.9359   -0.9662 N   0  0  0  0  0  0  0  0  0  0  0  0
   -0.7612    2.5693    0.1166 C   0  0  0  0  0  0  0  0  0  0  0  0
    0.5168    2.5939    0.6768 C   0  0  0  0  0  0  0  0  0  0  0  0
    1.1387    1.4204    1.1042 C   0  0  0  0  0  0  0  0  0  0  0  0
    0.4753    0.1985    0.9645 C   0  0  0  0  0  0  0  0  0  0  0  0
   -0.7947    0.1622    0.4014 C   0  0  0  0  0  0  0  0  0  0  0  0
   -1.2057    3.4998   -0.2022 H   0  0  0  0  0  0  0  0  0  0  0  0
    1.0279    3.5468    0.7796 H   0  0  0  0  0  0  0  0  0  0  0  0
    2.1323    1.4575    1.5401 H   0  0  0  0  0  0  0  0  0  0  0  0
    0.9487   -0.7225    1.2909 H   0  0  0  0  0  0  0  0  0  0  0  0
   -1.3279   -0.7743    0.2755 H   0  0  0  0  0  0  0  0  0  0  0  0
   -4.5073    4.1734   -1.5080 S   0  0  0  0  0  0  0  0  0  0  0  0
   -5.9462    3.7083   -0.3583 C   0  0  0  0  0  0  0  0  0  0  0  0
   -3.2622    3.0572   -0.8642 O   0  0  0  0  0  0  0  0  0  0  0  0
   -3.9958    5.4729   -1.1241 O   0  0  0  0  0  0  0  0  0  0  0  0
   -4.8438    3.7742   -2.8594 O   0  0  0  0  0  0  0  0  0  0  0  0
   -6.5727    2.6481   -0.8316 F   0  0  0  0  0  0  0  0  0  0  0  0
   -5.4679    3.4734    0.8561 F   0  0  0  0  0  0  0  0  0  0  0  0
   -6.7616    4.7582   -0.3357 F   0  0  0  0  0  0  0  0  0  0  0  0
  1  4  2  0  0  0  0
  1  8  1  0  0  0  0
  2  1  1  0  0  0  0
  3 16  1  0  0  0  0
  3  2  2  0  0  0  0
  4  5  1  0  0  0  0
  5 10  1  0  0  0  0
  5  6  2  0  0  0  0
  6 11  1  0  0  0  0
  7  6  1  0  0  0  0
  7 12  1  0  0  0  0
  8  7  2  0  0  0  0
  9  4  1  0  0  0  0
 13  8  1  0  0  0  0
 14 17  2  0  0  0  0
 14 16  1  0  0  0  0
 14 15  1  0  0  0  0
 15 21  1  0  0  0  0
 15 20  1  0  0  0  0
 18 14  2  0  0  0  0
 19 15  1  0  0  0  0
M  END
