Coordinates from ORCA-job PhN2+~TfO-_B3LYPG-6-31G_dp-NX-Scan-d89-09-n800
 OpenBabel11261920253D

 21 21  0  0  0  0  0  0  0  0999 V2000
   -1.4281    1.3288   -0.0477 C   0  0  0  0  0  0  0  0  0  0  0  0
   -2.7013    1.0362   -0.6255 N   0  0  0  0  0  0  0  0  0  0  0  0
   -3.5150    1.9384   -1.0040 N   0  0  0  0  0  0  0  0  0  0  0  0
   -0.7608    2.5622    0.1166 C   0  0  0  0  0  0  0  0  0  0  0  0
    0.5079    2.5928    0.6982 C   0  0  0  0  0  0  0  0  0  0  0  0
    1.1313    1.4214    1.1285 C   0  0  0  0  0  0  0  0  0  0  0  0
    0.4784    0.1961    0.9694 C   0  0  0  0  0  0  0  0  0  0  0  0
   -0.7817    0.1541    0.3850 C   0  0  0  0  0  0  0  0  0  0  0  0
   -1.2056    3.4922   -0.2041 H   0  0  0  0  0  0  0  0  0  0  0  0
    1.0101    3.5488    0.8152 H   0  0  0  0  0  0  0  0  0  0  0  0
    2.1173    1.4626    1.5810 H   0  0  0  0  0  0  0  0  0  0  0  0
    0.9527   -0.7239    1.2975 H   0  0  0  0  0  0  0  0  0  0  0  0
   -1.3054   -0.7856    0.2441 H   0  0  0  0  0  0  0  0  0  0  0  0
   -4.5322    4.1763   -1.5291 S   0  0  0  0  0  0  0  0  0  0  0  0
   -5.9448    3.7289   -0.3360 C   0  0  0  0  0  0  0  0  0  0  0  0
   -3.2568    3.0323   -0.8847 O   0  0  0  0  0  0  0  0  0  0  0  0
   -4.0046    5.4786   -1.1733 O   0  0  0  0  0  0  0  0  0  0  0  0
   -4.9012    3.7553   -2.8664 O   0  0  0  0  0  0  0  0  0  0  0  0
   -6.5745    2.6565   -0.7765 F   0  0  0  0  0  0  0  0  0  0  0  0
   -5.4329    3.5168    0.8686 F   0  0  0  0  0  0  0  0  0  0  0  0
   -6.7655    4.7739   -0.3103 F   0  0  0  0  0  0  0  0  0  0  0  0
  1  4  2  0  0  0  0
  1  8  1  0  0  0  0
  2  1  1  0  0  0  0
  3 16  1  0  0  0  0
  3  2  2  0  0  0  0
  4  5  1  0  0  0  0
  5 10  1  0  0  0  0
  5  6  2  0  0  0  0
  6 11  1  0  0  0  0
  7  6  1  0  0  0  0
  7 12  1  0  0  0  0
  8  7  2  0  0  0  0
  9  4  1  0  0  0  0
 13  8  1  0  0  0  0
 14 17  2  0  0  0  0
 14 16  1  0  0  0  0
 14 15  1  0  0  0  0
 15 21  1  0  0  0  0
 15 20  1  0  0  0  0
 18 14  2  0  0  0  0
 19 15  1  0  0  0  0
M  END
