Coordinates from ORCA-job PhN2+~TfO-_B3LYPG-6-31G_dp-NX-Scan-d89-09-n800
 OpenBabel11261920253D

 21 20  0  0  0  0  0  0  0  0999 V2000
   -1.5235   -0.6686   -0.3586 C   0  0  0  0  0  0  0  0  0  0  0  0
   -1.6235   -1.9165   -0.8854 N   0  0  0  0  0  0  0  0  0  0  0  0
   -1.7269   -2.9423   -1.3271 N   0  0  0  0  0  0  0  0  0  0  0  0
   -2.6916    0.1363   -0.3237 C   0  0  0  0  0  0  0  0  0  0  0  0
   -2.5686    1.4153    0.1826 C   0  0  0  0  0  0  0  0  0  0  0  0
   -1.3178    1.8759    0.6405 C   0  0  0  0  0  0  0  0  0  0  0  0
   -0.1796    1.0494    0.6099 C   0  0  0  0  0  0  0  0  0  0  0  0
   -0.2571   -0.2356    0.1070 C   0  0  0  0  0  0  0  0  0  0  0  0
   -3.6336   -0.2476   -0.6996 H   0  0  0  0  0  0  0  0  0  0  0  0
   -3.4179    2.1070    0.1900 H   0  0  0  0  0  0  0  0  0  0  0  0
   -1.2656    2.9146    0.9740 H   0  0  0  0  0  0  0  0  0  0  0  0
    0.7728    1.4251    0.9679 H   0  0  0  0  0  0  0  0  0  0  0  0
    0.6027   -0.8941    0.0544 H   0  0  0  0  0  0  0  0  0  0  0  0
   -3.1307    4.7786   -0.3439 S   0  0  0  0  0  0  0  0  0  0  0  0
   -3.8522    6.4752   -0.1289 C   0  0  0  0  0  0  0  0  0  0  0  0
   -2.6682    4.7275   -1.7430 O   0  0  0  0  0  0  0  0  0  0  0  0
   -4.2769    3.8798   -0.0246 O   0  0  0  0  0  0  0  0  0  0  0  0
   -2.0465    4.7391    0.6797 O   0  0  0  0  0  0  0  0  0  0  0  0
   -2.9222    7.4163   -0.3541 F   0  0  0  0  0  0  0  0  0  0  0  0
   -4.8643    6.6694   -0.9885 F   0  0  0  0  0  0  0  0  0  0  0  0
   -4.3217    6.6380    1.1180 F   0  0  0  0  0  0  0  0  0  0  0  0
  1  4  2  0  0  0  0
  1  8  1  0  0  0  0
  2  1  1  0  0  0  0
  3  2  1  0  0  0  0
  4  5  1  0  0  0  0
  5 10  1  0  0  0  0
  5  6  2  0  0  0  0
  6 11  1  0  0  0  0
  7  6  1  0  0  0  0
  7 12  1  0  0  0  0
  8  7  2  0  0  0  0
  9  4  1  0  0  0  0
 13  8  1  0  0  0  0
 14 15  1  0  0  0  0
 14 17  2  0  0  0  0
 14 18  1  0  0  0  0
 15 21  1  0  0  0  0
 16 14  2  0  0  0  0
 19 15  1  0  0  0  0
 20 15  1  0  0  0  0
M  RAD  3   2   2   3   3  18   2
M  END
