Coordinates from ORCA-job PhN2+~TfO-_B3LYPG-6-31G_dp-NX-Scan-d89-09-n800
 OpenBabel11261920253D

 21 21  0  0  0  0  0  0  0  0999 V2000
   -1.1396    1.6305    0.0781 C   0  0  0  0  0  0  0  0  0  0  0  0
   -2.4424    1.9324   -0.4462 N   0  0  0  0  0  0  0  0  0  0  0  0
   -2.7537    3.1630   -0.3770 N   0  0  0  0  0  0  0  0  0  0  0  0
   -0.2081    2.5293    0.6203 C   0  0  0  0  0  0  0  0  0  0  0  0
    1.0204    2.0510    1.0830 C   0  0  0  0  0  0  0  0  0  0  0  0
    1.3300    0.6937    1.0124 C   0  0  0  0  0  0  0  0  0  0  0  0
    0.3993   -0.1979    0.4715 C   0  0  0  0  0  0  0  0  0  0  0  0
   -0.8271    0.2645    0.0064 C   0  0  0  0  0  0  0  0  0  0  0  0
   -0.4051    3.5934    0.6952 H   0  0  0  0  0  0  0  0  0  0  0  0
    1.7364    2.7530    1.4995 H   0  0  0  0  0  0  0  0  0  0  0  0
    2.2875    0.3332    1.3744 H   0  0  0  0  0  0  0  0  0  0  0  0
    0.6292   -1.2573    0.4093 H   0  0  0  0  0  0  0  0  0  0  0  0
   -1.5629   -0.4094   -0.4183 H   0  0  0  0  0  0  0  0  0  0  0  0
   -4.9755    4.5627   -1.2476 S   0  0  2  0  0  0  0  0  0  0  0  0
   -6.6999    3.9907   -0.7380 C   0  0  0  0  0  0  0  0  0  0  0  0
   -2.5098    4.0027   -0.1248 O   0  0  0  0  0  0  0  0  0  0  0  0
   -5.0745    5.0050   -2.6632 O   0  0  0  0  0  0  0  0  0  0  0  0
   -4.3757    3.0650   -1.0922 O   0  0  0  0  0  0  0  0  0  0  0  0
   -6.6543    3.5686    0.5321 F   0  0  0  0  0  0  0  0  0  0  0  0
   -7.5198    5.0481   -0.8109 F   0  0  0  0  0  0  0  0  0  0  0  0
   -7.1674    3.0205   -1.5176 F   0  0  0  0  0  0  0  0  0  0  0  0
  1  4  1  0  0  0  0
  2  3  1  0  0  0  0
  2  1  1  0  0  0  0
  3 16  1  0  0  0  0
  4  9  1  0  0  0  0
  4  5  2  0  0  0  0
  5 10  1  0  0  0  0
  6  5  1  0  0  0  0
  6 11  1  0  0  0  0
  7  6  2  0  0  0  0
  8  1  2  0  0  0  0
  8  7  1  0  0  0  0
 12  7  1  0  0  0  0
 13  8  1  0  0  0  0
 14 17  1  6  0  0  0
 14 18  1  0  0  0  0
 14 15  1  0  0  0  0
 15 19  1  0  0  0  0
 18  3  1  0  0  0  0
 20 15  1  0  0  0  0
 21 15  1  0  0  0  0
M  RAD  3   2   2  16   2  17   2
M  END
