Coordinates from ORCA-job PhN2+~TfO-_B3LYPG-6-31G_dp-NX-Scan-d89-09-n800
 OpenBabel11261920253D

 21 20  0  0  0  0  0  0  0  0999 V2000
   -1.4739    1.4057   -0.3114 C   0  0  0  0  0  0  0  0  0  0  0  0
   -2.4835    1.3096   -1.2643 N   0  0  0  0  0  0  0  0  0  0  0  0
   -3.2615    1.0242   -2.0199 N   0  0  0  0  0  0  0  0  0  0  0  0
   -1.1679    2.6429    0.2708 C   0  0  0  0  0  0  0  0  0  0  0  0
   -0.1523    2.6603    1.2228 C   0  0  0  0  0  0  0  0  0  0  0  0
    0.5180    1.4852    1.5722 C   0  0  0  0  0  0  0  0  0  0  0  0
    0.1890    0.2619    0.9731 C   0  0  0  0  0  0  0  0  0  0  0  0
   -0.8148    0.2058    0.0174 C   0  0  0  0  0  0  0  0  0  0  0  0
   -1.7179    3.5222   -0.0512 H   0  0  0  0  0  0  0  0  0  0  0  0
    0.1142    3.6004    1.6933 H   0  0  0  0  0  0  0  0  0  0  0  0
    1.3062    1.5183    2.3183 H   0  0  0  0  0  0  0  0  0  0  0  0
    0.7150   -0.6446    1.2520 H   0  0  0  0  0  0  0  0  0  0  0  0
   -1.0935   -0.7247   -0.4643 H   0  0  0  0  0  0  0  0  0  0  0  0
   -4.3686    4.0287   -1.7724 S   0  0  0  0  0  0  0  0  0  0  0  0
   -5.0264    3.7972   -0.0499 C   0  0  0  0  0  0  0  0  0  0  0  0
   -2.8982    4.0965   -1.5270 O   0  0  0  0  0  0  0  0  0  0  0  0
   -5.0061    5.2454   -2.2722 O   0  0  0  0  0  0  0  0  0  0  0  0
   -4.7665    2.7504   -2.4391 O   0  0  0  0  0  0  0  0  0  0  0  0
   -4.4579    2.6897    0.5017 F   0  0  0  0  0  0  0  0  0  0  0  0
   -4.7160    4.8391    0.7334 F   0  0  0  0  0  0  0  0  0  0  0  0
   -6.3502    3.6285   -0.0369 F   0  0  0  0  0  0  0  0  0  0  0  0
  1  8  2  0  0  0  0
  1  4  1  0  0  0  0
  2  1  1  0  0  0  0
  3  2  1  0  0  0  0
  4  5  2  0  0  0  0
  5  6  1  0  0  0  0
  5 10  1  0  0  0  0
  6 11  1  0  0  0  0
  7 12  1  0  0  0  0
  7  6  2  0  0  0  0
  8  7  1  0  0  0  0
  9  4  1  0  0  0  0
 13  8  1  0  0  0  0
 14 16  1  0  0  0  0
 14 15  1  0  0  0  0
 15 21  1  0  0  0  0
 15 19  1  0  0  0  0
 15 20  1  0  0  0  0
 17 14  2  0  0  0  0
 18 14  2  0  0  0  0
M  RAD  3   2   2   3   3  16   2
M  END
