Coordinates from ORCA-job PhN2+~TfO-_B3LYPG-6-31G_dp-NX-Scan-d89-09-n800
 OpenBabel11261920253D

 21 20  0  0  0  0  0  0  0  0999 V2000
   -1.1721    1.4080   -0.6917 C   0  0  0  0  0  0  0  0  0  0  0  0
   -1.7659    1.5416   -1.9356 N   0  0  0  0  0  0  0  0  0  0  0  0
   -2.3543    1.9083   -2.8177 N   0  0  0  0  0  0  0  0  0  0  0  0
   -1.3518    2.4534    0.2286 C   0  0  0  0  0  0  0  0  0  0  0  0
   -0.7512    2.3053    1.4734 C   0  0  0  0  0  0  0  0  0  0  0  0
   -0.0122    1.1557    1.7732 C   0  0  0  0  0  0  0  0  0  0  0  0
    0.1477    0.1305    0.8319 C   0  0  0  0  0  0  0  0  0  0  0  0
   -0.4340    0.2462   -0.4236 C   0  0  0  0  0  0  0  0  0  0  0  0
   -1.9396    3.3197   -0.0458 H   0  0  0  0  0  0  0  0  0  0  0  0
   -0.8737    3.0879    2.2145 H   0  0  0  0  0  0  0  0  0  0  0  0
    0.4438    1.0545    2.7531 H   0  0  0  0  0  0  0  0  0  0  0  0
    0.7213   -0.7558    1.0796 H   0  0  0  0  0  0  0  0  0  0  0  0
   -0.3359   -0.5291   -1.1753 H   0  0  0  0  0  0  0  0  0  0  0  0
   -4.5895    3.3380   -1.3359 S   0  0  0  0  0  0  0  0  0  0  0  0
   -4.7620    4.5956    0.0270 C   0  0  0  0  0  0  0  0  0  0  0  0
   -3.3386    3.8337   -2.0292 O   0  0  0  0  0  0  0  0  0  0  0  0
   -5.8280    3.4521   -2.1079 O   0  0  0  0  0  0  0  0  0  0  0  0
   -4.3372    2.0637   -0.6215 O   0  0  0  0  0  0  0  0  0  0  0  0
   -3.6415    4.6201    0.7939 F   0  0  0  0  0  0  0  0  0  0  0  0
   -4.9460    5.8231   -0.4672 F   0  0  0  0  0  0  0  0  0  0  0  0
   -5.7922    4.2904    0.8227 F   0  0  0  0  0  0  0  0  0  0  0  0
  1  8  2  0  0  0  0
  1  4  1  0  0  0  0
  2  1  1  0  0  0  0
  3  2  1  0  0  0  0
  4  5  2  0  0  0  0
  5  6  1  0  0  0  0
  5 10  1  0  0  0  0
  6 11  1  0  0  0  0
  7 12  1  0  0  0  0
  7  6  2  0  0  0  0
  8  7  1  0  0  0  0
  9  4  1  0  0  0  0
 13  8  1  0  0  0  0
 14 18  1  0  0  0  0
 14 15  1  0  0  0  0
 15 19  1  0  0  0  0
 15 21  1  0  0  0  0
 16 14  2  0  0  0  0
 17 14  2  0  0  0  0
 20 15  1  0  0  0  0
M  RAD  3   2   2   3   3  18   2
M  END
