Coordinates from ORCA-job PhN2+~TfO-_B3LYPG-6-31G_dp-NX-Scan-d89-09-n800
 OpenBabel11261920253D

 21 20  0  0  0  0  0  0  0  0999 V2000
   -1.4886   -0.3905   -0.3227 C   0  0  0  0  0  0  0  0  0  0  0  0
   -1.4111   -1.6735   -0.7214 N   0  0  0  0  0  0  0  0  0  0  0  0
   -1.3498   -2.7505   -1.0517 N   0  0  0  0  0  0  0  0  0  0  0  0
   -2.6025    0.0178    0.4695 C   0  0  0  0  0  0  0  0  0  0  0  0
   -2.6559    1.3258    0.8784 C   0  0  0  0  0  0  0  0  0  0  0  0
   -1.6381    2.2383    0.5048 C   0  0  0  0  0  0  0  0  0  0  0  0
   -0.5327    1.8059   -0.2656 C   0  0  0  0  0  0  0  0  0  0  0  0
   -0.4474    0.5052   -0.6984 C   0  0  0  0  0  0  0  0  0  0  0  0
   -3.3746   -0.6986    0.7272 H   0  0  0  0  0  0  0  0  0  0  0  0
   -3.4967    1.7059    1.4468 H   0  0  0  0  0  0  0  0  0  0  0  0
   -1.6367    3.2277    0.9361 H   0  0  0  0  0  0  0  0  0  0  0  0
    0.2418    2.5154   -0.5335 H   0  0  0  0  0  0  0  0  0  0  0  0
    0.3835    0.1496   -1.2978 H   0  0  0  0  0  0  0  0  0  0  0  0
   -3.8965    4.3688   -0.4019 S   0  0  0  0  0  0  0  0  0  0  0  0
   -2.9248    5.9146   -0.0524 C   0  0  0  0  0  0  0  0  0  0  0  0
   -2.8566    3.4973   -1.0679 O   0  0  0  0  0  0  0  0  0  0  0  0
   -4.9786    4.7898   -1.2960 O   0  0  0  0  0  0  0  0  0  0  0  0
   -4.2611    3.8913    0.9501 O   0  0  0  0  0  0  0  0  0  0  0  0
   -1.8465    5.6148    0.7156 F   0  0  0  0  0  0  0  0  0  0  0  0
   -2.4767    6.4759   -1.1820 F   0  0  0  0  0  0  0  0  0  0  0  0
   -3.6632    6.8116    0.6092 F   0  0  0  0  0  0  0  0  0  0  0  0
  1  4  1  0  0  0  0
  2  1  1  0  0  0  0
  3  2  1  0  0  0  0
  4  9  1  0  0  0  0
  4  5  2  0  0  0  0
  5 10  1  0  0  0  0
  6  5  1  0  0  0  0
  6 11  1  0  0  0  0
  7  6  2  0  0  0  0
  8  1  2  0  0  0  0
  8  7  1  0  0  0  0
 12  7  1  0  0  0  0
 13  8  1  0  0  0  0
 14 15  1  0  0  0  0
 14 18  1  0  0  0  0
 15 21  1  0  0  0  0
 15 19  1  0  0  0  0
 16 14  2  0  0  0  0
 17 14  2  0  0  0  0
 20 15  1  0  0  0  0
M  RAD  3   2   2   3   3  18   2
M  END
