Coordinates from ORCA-job PhN2+~TfO-_B3LYPG-6-31G_dp-NX-Scan-d89-09-n800
 OpenBabel11261920253D

 21 20  0  0  0  0  0  0  0  0999 V2000
   -1.6146   -0.0953   -0.3790 C   0  0  0  0  0  0  0  0  0  0  0  0
   -1.8321   -1.1178   -1.2276 N   0  0  0  0  0  0  0  0  0  0  0  0
   -2.0410   -1.9400   -1.9665 N   0  0  0  0  0  0  0  0  0  0  0  0
   -2.6060    0.1875    0.6000 C   0  0  0  0  0  0  0  0  0  0  0  0
   -2.4896    1.3669    1.2918 C   0  0  0  0  0  0  0  0  0  0  0  0
   -1.4376    2.2564    0.9826 C   0  0  0  0  0  0  0  0  0  0  0  0
   -0.3736    1.8746    0.1407 C   0  0  0  0  0  0  0  0  0  0  0  0
   -0.4614    0.7096   -0.5816 C   0  0  0  0  0  0  0  0  0  0  0  0
   -3.4483   -0.4819    0.7324 H   0  0  0  0  0  0  0  0  0  0  0  0
   -3.2659    1.6837    1.9761 H   0  0  0  0  0  0  0  0  0  0  0  0
   -1.4201    3.2285    1.4594 H   0  0  0  0  0  0  0  0  0  0  0  0
    0.4628    2.5465   -0.0134 H   0  0  0  0  0  0  0  0  0  0  0  0
    0.2840    0.4207   -1.3138 H   0  0  0  0  0  0  0  0  0  0  0  0
   -3.8150    3.9866   -0.5017 S   0  0  0  0  0  0  0  0  0  0  0  0
   -2.9397    5.6192   -0.3553 C   0  0  0  0  0  0  0  0  0  0  0  0
   -2.6997    3.0830   -0.9584 O   0  0  0  0  0  0  0  0  0  0  0  0
   -4.8631    4.2018   -1.5062 O   0  0  0  0  0  0  0  0  0  0  0  0
   -4.2468    3.7134    0.8874 O   0  0  0  0  0  0  0  0  0  0  0  0
   -1.9073    5.5158    0.5196 F   0  0  0  0  0  0  0  0  0  0  0  0
   -2.4350    6.0099   -1.5336 F   0  0  0  0  0  0  0  0  0  0  0  0
   -3.7626    6.5738    0.0934 F   0  0  0  0  0  0  0  0  0  0  0  0
  1  4  1  0  0  0  0
  2  1  1  0  0  0  0
  3  2  1  0  0  0  0
  4  9  1  0  0  0  0
  4  5  2  0  0  0  0
  5 10  1  0  0  0  0
  6  5  1  0  0  0  0
  6 11  1  0  0  0  0
  7  6  2  0  0  0  0
  8  1  2  0  0  0  0
  8  7  1  0  0  0  0
 12  7  1  0  0  0  0
 13  8  1  0  0  0  0
 14 15  1  0  0  0  0
 14 18  1  0  0  0  0
 15 21  1  0  0  0  0
 15 19  1  0  0  0  0
 16 14  2  0  0  0  0
 17 14  2  0  0  0  0
 20 15  1  0  0  0  0
M  RAD  3   2   2   3   3  18   2
M  END
