Coordinates from ORCA-job PhN2+~TfO-_B3LYPG-6-31G_dp-NX-Scan-d89-09-n800
 OpenBabel11261920253D

 21 20  0  0  0  0  0  0  0  0999 V2000
   -1.5030    1.4308   -0.2626 C   0  0  0  0  0  0  0  0  0  0  0  0
   -2.5540    1.3329   -1.1793 N   0  0  0  0  0  0  0  0  0  0  0  0
   -3.3085    0.9177   -1.8961 N   0  0  0  0  0  0  0  0  0  0  0  0
   -1.2946    2.6074    0.4651 C   0  0  0  0  0  0  0  0  0  0  0  0
   -0.2489    2.6113    1.3843 C   0  0  0  0  0  0  0  0  0  0  0  0
    0.5521    1.4798    1.5579 C   0  0  0  0  0  0  0  0  0  0  0  0
    0.3211    0.3156    0.8143 C   0  0  0  0  0  0  0  0  0  0  0  0
   -0.7154    0.2753   -0.1078 C   0  0  0  0  0  0  0  0  0  0  0  0
   -1.9271    3.4647    0.2744 H   0  0  0  0  0  0  0  0  0  0  0  0
   -0.0588    3.5082    1.9639 H   0  0  0  0  0  0  0  0  0  0  0  0
    1.3655    1.5020    2.2768 H   0  0  0  0  0  0  0  0  0  0  0  0
    0.9471   -0.5593    0.9545 H   0  0  0  0  0  0  0  0  0  0  0  0
   -0.9214   -0.6125   -0.6952 H   0  0  0  0  0  0  0  0  0  0  0  0
   -4.3651    3.8636   -1.8235 S   0  0  0  0  0  0  0  0  0  0  0  0
   -5.0321    3.9402   -0.0913 C   0  0  0  0  0  0  0  0  0  0  0  0
   -2.8968    3.7102   -1.5619 O   0  0  0  0  0  0  0  0  0  0  0  0
   -4.7744    5.1166   -2.4532 O   0  0  0  0  0  0  0  0  0  0  0  0
   -4.9514    2.6057   -2.3586 O   0  0  0  0  0  0  0  0  0  0  0  0
   -4.6814    2.8108    0.5757 F   0  0  0  0  0  0  0  0  0  0  0  0
   -4.5041    4.9787    0.5766 F   0  0  0  0  0  0  0  0  0  0  0  0
   -6.3615    4.0432   -0.0675 F   0  0  0  0  0  0  0  0  0  0  0  0
  1  8  2  0  0  0  0
  1  4  1  0  0  0  0
  2  1  1  0  0  0  0
  3  2  1  0  0  0  0
  4  5  2  0  0  0  0
  5  6  1  0  0  0  0
  5 10  1  0  0  0  0
  6 11  1  0  0  0  0
  7 12  1  0  0  0  0
  7  6  2  0  0  0  0
  8  7  1  0  0  0  0
  9  4  1  0  0  0  0
 13  8  1  0  0  0  0
 14 16  1  0  0  0  0
 14 15  1  0  0  0  0
 15 21  1  0  0  0  0
 15 19  1  0  0  0  0
 15 20  1  0  0  0  0
 17 14  2  0  0  0  0
 18 14  2  0  0  0  0
M  RAD  3   2   2   3   3  16   2
M  END
