Coordinates from ORCA-job PhN2+~TfO-_B3LYPG-6-31G_dp-NX-Scan-d89-09-n800
 OpenBabel11261920253D

 21 20  0  0  0  0  0  0  0  0999 V2000
   -1.5475   -0.7410   -0.2310 C   0  0  0  0  0  0  0  0  0  0  0  0
   -1.7241   -2.0460   -0.5637 N   0  0  0  0  0  0  0  0  0  0  0  0
   -1.8952   -3.1178   -0.8473 N   0  0  0  0  0  0  0  0  0  0  0  0
   -2.6394    0.1462   -0.4168 C   0  0  0  0  0  0  0  0  0  0  0  0
   -2.4403    1.4763   -0.1018 C   0  0  0  0  0  0  0  0  0  0  0  0
   -1.1891    1.9050    0.3838 C   0  0  0  0  0  0  0  0  0  0  0  0
   -0.1294    1.0000    0.5767 C   0  0  0  0  0  0  0  0  0  0  0  0
   -0.2843   -0.3387    0.2691 C   0  0  0  0  0  0  0  0  0  0  0  0
   -3.5850   -0.2211   -0.8009 H   0  0  0  0  0  0  0  0  0  0  0  0
   -3.2335    2.2221   -0.2448 H   0  0  0  0  0  0  0  0  0  0  0  0
   -1.0859    2.9748    0.5809 H   0  0  0  0  0  0  0  0  0  0  0  0
    0.8233    1.3526    0.9575 H   0  0  0  0  0  0  0  0  0  0  0  0
    0.5144   -1.0618    0.3923 H   0  0  0  0  0  0  0  0  0  0  0  0
   -3.1069    4.9434   -0.5648 S   0  0  0  0  0  0  0  0  0  0  0  0
   -3.9706    6.4407    0.1110 C   0  0  0  0  0  0  0  0  0  0  0  0
   -2.6972    5.3150   -1.9287 O   0  0  0  0  0  0  0  0  0  0  0  0
   -4.1582    3.8871   -0.4804 O   0  0  0  0  0  0  0  0  0  0  0  0
   -1.9906    4.7371    0.4026 O   0  0  0  0  0  0  0  0  0  0  0  0
   -3.1445    7.4984    0.1236 F   0  0  0  0  0  0  0  0  0  0  0  0
   -5.0398    6.7499   -0.6391 F   0  0  0  0  0  0  0  0  0  0  0  0
   -4.3892    6.2205    1.3683 F   0  0  0  0  0  0  0  0  0  0  0  0
  1  8  1  0  0  0  0
  2  1  1  0  0  0  0
  3  2  1  0  0  0  0
  4  1  2  0  0  0  0
  4  5  1  0  0  0  0
  5  6  2  0  0  0  0
  6  7  1  0  0  0  0
  6 11  1  0  0  0  0
  7 12  1  0  0  0  0
  8 13  1  0  0  0  0
  8  7  2  0  0  0  0
  9  4  1  0  0  0  0
 10  5  1  0  0  0  0
 14 17  2  0  0  0  0
 14 15  1  0  0  0  0
 14 18  1  0  0  0  0
 15 19  1  0  0  0  0
 15 21  1  0  0  0  0
 16 14  2  0  0  0  0
 20 15  1  0  0  0  0
M  RAD  3   2   2   3   3  18   2
M  END
