Coordinates from ORCA-job PhN2+~TfO-_B3LYPG-6-31G_dp-NX-Scan-d89-09-n800
 OpenBabel11261920253D

 21 20  0  0  0  0  0  0  0  0999 V2000
   -1.4995    1.4322   -0.2682 C   0  0  0  0  0  0  0  0  0  0  0  0
   -2.5462    1.3371   -1.1885 N   0  0  0  0  0  0  0  0  0  0  0  0
   -3.3089    0.9399   -1.9074 N   0  0  0  0  0  0  0  0  0  0  0  0
   -1.2694    2.6217    0.4329 C   0  0  0  0  0  0  0  0  0  0  0  0
   -0.2272    2.6253    1.3559 C   0  0  0  0  0  0  0  0  0  0  0  0
    0.5484    1.4811    1.5597 C   0  0  0  0  0  0  0  0  0  0  0  0
    0.2958    0.3046    0.8429 C   0  0  0  0  0  0  0  0  0  0  0  0
   -0.7369    0.2641   -0.0833 C   0  0  0  0  0  0  0  0  0  0  0  0
   -1.8860    3.4853    0.2173 H   0  0  0  0  0  0  0  0  0  0  0  0
   -0.0201    3.5313    1.9152 H   0  0  0  0  0  0  0  0  0  0  0  0
    1.3590    1.5027    2.2818 H   0  0  0  0  0  0  0  0  0  0  0  0
    0.9025   -0.5796    1.0073 H   0  0  0  0  0  0  0  0  0  0  0  0
   -0.9590   -0.6327   -0.6507 H   0  0  0  0  0  0  0  0  0  0  0  0
   -4.3634    3.8933   -1.8192 S   0  0  0  0  0  0  0  0  0  0  0  0
   -5.0318    3.9057   -0.0858 C   0  0  0  0  0  0  0  0  0  0  0  0
   -2.8928    3.7712   -1.5622 O   0  0  0  0  0  0  0  0  0  0  0  0
   -4.8100    5.1490   -2.4176 O   0  0  0  0  0  0  0  0  0  0  0  0
   -4.9201    2.6331   -2.3851 O   0  0  0  0  0  0  0  0  0  0  0  0
   -4.6463    2.7698    0.5516 F   0  0  0  0  0  0  0  0  0  0  0  0
   -4.5367    4.9417    0.6095 F   0  0  0  0  0  0  0  0  0  0  0  0
   -6.3640    3.9661   -0.0597 F   0  0  0  0  0  0  0  0  0  0  0  0
  1  8  2  0  0  0  0
  1  4  1  0  0  0  0
  2  1  1  0  0  0  0
  3  2  1  0  0  0  0
  4  5  2  0  0  0  0
  5  6  1  0  0  0  0
  5 10  1  0  0  0  0
  6 11  1  0  0  0  0
  7 12  1  0  0  0  0
  7  6  2  0  0  0  0
  8  7  1  0  0  0  0
  9  4  1  0  0  0  0
 13  8  1  0  0  0  0
 14 16  1  0  0  0  0
 14 15  1  0  0  0  0
 15 21  1  0  0  0  0
 15 19  1  0  0  0  0
 15 20  1  0  0  0  0
 17 14  2  0  0  0  0
 18 14  2  0  0  0  0
M  RAD  3   2   2   3   3  16   2
M  END
