Coordinates from ORCA-job PhN2+~TfO-_B3LYPG-6-31G_dp-NX-Scan-d89-09-n800
 OpenBabel11261920253D

 21 21  0  0  0  0  0  0  0  0999 V2000
   -1.4206    1.3045   -0.1243 C   0  0  0  0  0  0  0  0  0  0  0  0
   -2.6422    1.0050   -0.7868 N   0  0  0  0  0  0  0  0  0  0  0  0
   -3.5260    1.7839   -1.1690 N   0  0  0  0  0  0  0  0  0  0  0  0
   -0.8274    2.5569    0.1473 C   0  0  0  0  0  0  0  0  0  0  0  0
    0.4057    2.6028    0.7955 C   0  0  0  0  0  0  0  0  0  0  0  0
    1.0583    1.4316    1.1866 C   0  0  0  0  0  0  0  0  0  0  0  0
    0.4773    0.1900    0.9191 C   0  0  0  0  0  0  0  0  0  0  0  0
   -0.7471    0.1302    0.2636 C   0  0  0  0  0  0  0  0  0  0  0  0
   -1.3052    3.4788   -0.1449 H   0  0  0  0  0  0  0  0  0  0  0  0
    0.8583    3.5686    0.9984 H   0  0  0  0  0  0  0  0  0  0  0  0
    2.0171    1.4878    1.6929 H   0  0  0  0  0  0  0  0  0  0  0  0
    0.9788   -0.7259    1.2151 H   0  0  0  0  0  0  0  0  0  0  0  0
   -1.2170   -0.8196    0.0324 H   0  0  0  0  0  0  0  0  0  0  0  0
   -4.4959    4.1014   -1.5279 S   0  0  0  0  0  0  0  0  0  0  0  0
   -5.8435    3.8220   -0.2499 C   0  0  0  0  0  0  0  0  0  0  0  0
   -3.3053    3.0698   -0.9080 O   0  0  0  0  0  0  0  0  0  0  0  0
   -3.9358    5.4188   -1.3048 O   0  0  0  0  0  0  0  0  0  0  0  0
   -4.9734    3.6206   -2.8071 O   0  0  0  0  0  0  0  0  0  0  0  0
   -6.2922    2.5765   -0.3251 F   0  0  0  0  0  0  0  0  0  0  0  0
   -5.3517    4.0596    0.9618 F   0  0  0  0  0  0  0  0  0  0  0  0
   -6.8249    4.6795   -0.5186 F   0  0  0  0  0  0  0  0  0  0  0  0
  1  4  2  0  0  0  0
  1  8  1  0  0  0  0
  2  1  1  0  0  0  0
  3 16  1  0  0  0  0
  3  2  2  0  0  0  0
  4  5  1  0  0  0  0
  5 10  1  0  0  0  0
  5  6  2  0  0  0  0
  6 11  1  0  0  0  0
  7  6  1  0  0  0  0
  7 12  1  0  0  0  0
  8  7  2  0  0  0  0
  9  4  1  0  0  0  0
 13  8  1  0  0  0  0
 14 17  2  0  0  0  0
 14 16  1  0  0  0  0
 14 15  1  0  0  0  0
 15 20  1  0  0  0  0
 18 14  2  0  0  0  0
 19 15  1  0  0  0  0
 21 15  1  0  0  0  0
M  END
