Coordinates from ORCA-job PhN2+~TfO-_B3LYPG-6-31G_dp-NX-Scan-d89-09-n800
 OpenBabel11261920253D

 21 20  0  0  0  0  0  0  0  0999 V2000
   -1.5375   -0.5681   -0.4915 C   0  0  0  0  0  0  0  0  0  0  0  0
   -1.5673   -1.8029   -1.0503 N   0  0  0  0  0  0  0  0  0  0  0  0
   -1.5994   -2.8297   -1.5045 N   0  0  0  0  0  0  0  0  0  0  0  0
   -2.7703    0.0877   -0.2265 C   0  0  0  0  0  0  0  0  0  0  0  0
   -2.7176    1.3383    0.3509 C   0  0  0  0  0  0  0  0  0  0  0  0
   -1.4719    1.9227    0.6669 C   0  0  0  0  0  0  0  0  0  0  0  0
   -0.2656    1.2521    0.3897 C   0  0  0  0  0  0  0  0  0  0  0  0
   -0.2733    0.0020   -0.1960 C   0  0  0  0  0  0  0  0  0  0  0  0
   -3.7093   -0.3879   -0.4865 H   0  0  0  0  0  0  0  0  0  0  0  0
   -3.6273    1.9092    0.5308 H   0  0  0  0  0  0  0  0  0  0  0  0
   -1.4609    2.9026    1.1411 H   0  0  0  0  0  0  0  0  0  0  0  0
    0.6803    1.7232    0.6328 H   0  0  0  0  0  0  0  0  0  0  0  0
    0.6386   -0.5385   -0.4237 H   0  0  0  0  0  0  0  0  0  0  0  0
   -3.1733    4.6445    0.1590 S   0  0  0  0  0  0  0  0  0  0  0  0
   -3.6217    6.3657   -0.3770 C   0  0  0  0  0  0  0  0  0  0  0  0
   -2.3546    4.1165   -0.9692 O   0  0  0  0  0  0  0  0  0  0  0  0
   -4.4805    3.9622    0.3309 O   0  0  0  0  0  0  0  0  0  0  0  0
   -2.3983    4.8369    1.4107 O   0  0  0  0  0  0  0  0  0  0  0  0
   -2.5153    7.0915   -0.5994 F   0  0  0  0  0  0  0  0  0  0  0  0
   -4.3402    6.3352   -1.5101 F   0  0  0  0  0  0  0  0  0  0  0  0
   -4.3476    6.9797    0.5683 F   0  0  0  0  0  0  0  0  0  0  0  0
  1  4  2  0  0  0  0
  1  8  1  0  0  0  0
  2  1  1  0  0  0  0
  3  2  1  0  0  0  0
  4  5  1  0  0  0  0
  5 10  1  0  0  0  0
  5  6  2  0  0  0  0
  6 11  1  0  0  0  0
  7 12  1  0  0  0  0
  7  6  1  0  0  0  0
  8  7  2  0  0  0  0
  9  4  1  0  0  0  0
 13  8  1  0  0  0  0
 14 17  2  0  0  0  0
 14 18  1  0  0  0  0
 15 14  1  0  0  0  0
 15 21  1  0  0  0  0
 16 14  2  0  0  0  0
 19 15  1  0  0  0  0
 20 15  1  0  0  0  0
M  RAD  3   2   2   3   3  18   2
M  END
