Coordinates from ORCA-job PhN2+~TfO-_B3LYPG-6-31G_dp-NX-Scan-d89-09-n800
 OpenBabel11261920253D

 21 20  0  0  0  0  0  0  0  0999 V2000
   -1.5268   -0.7070   -0.3113 C   0  0  0  0  0  0  0  0  0  0  0  0
   -1.6492   -1.9811   -0.7659 N   0  0  0  0  0  0  0  0  0  0  0  0
   -1.7728   -3.0279   -1.1493 N   0  0  0  0  0  0  0  0  0  0  0  0
   -2.6715    0.1301   -0.3590 C   0  0  0  0  0  0  0  0  0  0  0  0
   -2.5260    1.4334    0.0746 C   0  0  0  0  0  0  0  0  0  0  0  0
   -1.2758    1.8856    0.5421 C   0  0  0  0  0  0  0  0  0  0  0  0
   -0.1618    1.0279    0.5954 C   0  0  0  0  0  0  0  0  0  0  0  0
   -0.2622   -0.2822    0.1664 C   0  0  0  0  0  0  0  0  0  0  0  0
   -3.6139   -0.2508   -0.7375 H   0  0  0  0  0  0  0  0  0  0  0  0
   -3.3575    2.1464    0.0243 H   0  0  0  0  0  0  0  0  0  0  0  0
   -1.2092    2.9395    0.8231 H   0  0  0  0  0  0  0  0  0  0  0  0
    0.7902    1.3974    0.9611 H   0  0  0  0  0  0  0  0  0  0  0  0
    0.5791   -0.9663    0.1796 H   0  0  0  0  0  0  0  0  0  0  0  0
   -3.1255    4.8413   -0.4226 S   0  0  0  0  0  0  0  0  0  0  0  0
   -3.8975    6.4846   -0.0373 C   0  0  0  0  0  0  0  0  0  0  0  0
   -2.6782    4.9415   -1.8229 O   0  0  0  0  0  0  0  0  0  0  0  0
   -4.2404    3.8801   -0.1808 O   0  0  0  0  0  0  0  0  0  0  0  0
   -2.0310    4.7382    0.5855 O   0  0  0  0  0  0  0  0  0  0  0  0
   -3.0002    7.4727   -0.1792 F   0  0  0  0  0  0  0  0  0  0  0  0
   -4.9262    6.7282   -0.8640 F   0  0  0  0  0  0  0  0  0  0  0  0
   -4.3563    6.5114    1.2241 F   0  0  0  0  0  0  0  0  0  0  0  0
  1  8  1  0  0  0  0
  2  1  1  0  0  0  0
  3  2  1  0  0  0  0
  4  1  2  0  0  0  0
  4  5  1  0  0  0  0
  5  6  2  0  0  0  0
  6  7  1  0  0  0  0
  6 11  1  0  0  0  0
  7 12  1  0  0  0  0
  8 13  1  0  0  0  0
  8  7  2  0  0  0  0
  9  4  1  0  0  0  0
 10  5  1  0  0  0  0
 14 17  2  0  0  0  0
 14 15  1  0  0  0  0
 14 18  1  0  0  0  0
 15 21  1  0  0  0  0
 16 14  2  0  0  0  0
 19 15  1  0  0  0  0
 20 15  1  0  0  0  0
M  RAD  3   2   2   3   3  18   2
M  END
