Coordinates from ORCA-job PhN2+~TfO-_B3LYPG-6-31G_dp-NX-Scan-d89-09-n800
 OpenBabel11261920253D

 21 20  0  0  0  0  0  0  0  0999 V2000
   -1.5684   -0.4798   -0.5355 C   0  0  0  0  0  0  0  0  0  0  0  0
   -1.5747   -1.6782   -1.1615 N   0  0  0  0  0  0  0  0  0  0  0  0
   -1.5832   -2.6796   -1.6741 N   0  0  0  0  0  0  0  0  0  0  0  0
   -2.8031    0.0571   -0.0752 C   0  0  0  0  0  0  0  0  0  0  0  0
   -2.7702    1.2649    0.5823 C   0  0  0  0  0  0  0  0  0  0  0  0
   -1.5429    1.9361    0.7858 C   0  0  0  0  0  0  0  0  0  0  0  0
   -0.3341    1.3857    0.3126 C   0  0  0  0  0  0  0  0  0  0  0  0
   -0.3240    0.1806   -0.3551 C   0  0  0  0  0  0  0  0  0  0  0  0
   -3.7298   -0.4770   -0.2524 H   0  0  0  0  0  0  0  0  0  0  0  0
   -3.6905    1.7410    0.9052 H   0  0  0  0  0  0  0  0  0  0  0  0
   -1.5376    2.8592    1.3577 H   0  0  0  0  0  0  0  0  0  0  0  0
    0.5961    1.9197    0.4702 H   0  0  0  0  0  0  0  0  0  0  0  0
    0.5903   -0.2668   -0.7283 H   0  0  0  0  0  0  0  0  0  0  0  0
   -3.1956    4.5588    0.2014 S   0  0  0  0  0  0  0  0  0  0  0  0
   -3.4672    6.2657   -0.4839 C   0  0  0  0  0  0  0  0  0  0  0  0
   -2.2206    3.9552   -0.7636 O   0  0  0  0  0  0  0  0  0  0  0  0
   -4.5345    3.9283    0.1822 O   0  0  0  0  0  0  0  0  0  0  0  0
   -2.6153    4.7814    1.5476 O   0  0  0  0  0  0  0  0  0  0  0  0
   -2.3095    6.9408   -0.5386 F   0  0  0  0  0  0  0  0  0  0  0  0
   -3.9777    6.2012   -1.7225 F   0  0  0  0  0  0  0  0  0  0  0  0
   -4.3202    6.9486    0.2923 F   0  0  0  0  0  0  0  0  0  0  0  0
  1  8  2  0  0  0  0
  1  4  1  0  0  0  0
  2  1  1  0  0  0  0
  3  2  1  0  0  0  0
  4  5  2  0  0  0  0
  5  6  1  0  0  0  0
  5 10  1  0  0  0  0
  6 11  1  0  0  0  0
  7 12  1  0  0  0  0
  7  6  2  0  0  0  0
  8  7  1  0  0  0  0
  9  4  1  0  0  0  0
 13  8  1  0  0  0  0
 14 18  1  0  0  0  0
 15 14  1  0  0  0  0
 15 21  1  0  0  0  0
 16 14  2  0  0  0  0
 17 14  2  0  0  0  0
 19 15  1  0  0  0  0
 20 15  1  0  0  0  0
M  RAD  3   2   2   3   3  18   2
M  END
