Coordinates from ORCA-job PhN2+~TfO-_B3LYPG-6-31G_dp-NX-Scan-d89-09-n800
 OpenBabel11261920253D

 21 20  0  0  0  0  0  0  0  0999 V2000
   -1.1676    1.4085   -0.6813 C   0  0  0  0  0  0  0  0  0  0  0  0
   -1.7687    1.5303   -1.9311 N   0  0  0  0  0  0  0  0  0  0  0  0
   -2.4468    2.0067   -2.7088 N   0  0  0  0  0  0  0  0  0  0  0  0
   -1.3667    2.4162    0.2755 C   0  0  0  0  0  0  0  0  0  0  0  0
   -0.7474    2.2540    1.5097 C   0  0  0  0  0  0  0  0  0  0  0  0
    0.0346    1.1234    1.7703 C   0  0  0  0  0  0  0  0  0  0  0  0
    0.2181    0.1344    0.7968 C   0  0  0  0  0  0  0  0  0  0  0  0
   -0.3826    0.2707   -0.4486 C   0  0  0  0  0  0  0  0  0  0  0  0
   -1.9821    3.2734    0.0395 H   0  0  0  0  0  0  0  0  0  0  0  0
   -0.8856    3.0116    2.2740 H   0  0  0  0  0  0  0  0  0  0  0  0
    0.5053    1.0108    2.7420 H   0  0  0  0  0  0  0  0  0  0  0  0
    0.8257   -0.7384    1.0101 H   0  0  0  0  0  0  0  0  0  0  0  0
   -0.2640   -0.4762   -1.2258 H   0  0  0  0  0  0  0  0  0  0  0  0
   -4.6471    3.2964   -1.3001 S   0  0  0  0  0  0  0  0  0  0  0  0
   -4.7810    4.6553   -0.0308 C   0  0  0  0  0  0  0  0  0  0  0  0
   -3.3118    3.6815   -1.9516 O   0  0  0  0  0  0  0  0  0  0  0  0
   -5.8148    3.4618   -2.1632 O   0  0  0  0  0  0  0  0  0  0  0  0
   -4.5087    2.0522   -0.5206 O   0  0  0  0  0  0  0  0  0  0  0  0
   -3.7063    4.6392    0.7916 F   0  0  0  0  0  0  0  0  0  0  0  0
   -4.8404    5.8532   -0.6156 F   0  0  0  0  0  0  0  0  0  0  0  0
   -5.8750    4.4779    0.7146 F   0  0  0  0  0  0  0  0  0  0  0  0
  1  8  2  0  0  0  0
  1  4  1  0  0  0  0
  2  1  1  0  0  0  0
  3  2  1  0  0  0  0
  4  5  2  0  0  0  0
  5  6  1  0  0  0  0
  5 10  1  0  0  0  0
  6 11  1  0  0  0  0
  7 12  1  0  0  0  0
  7  6  2  0  0  0  0
  8  7  1  0  0  0  0
  9  4  1  0  0  0  0
 13  8  1  0  0  0  0
 14 18  1  0  0  0  0
 14 15  1  0  0  0  0
 15 21  1  0  0  0  0
 15 19  1  0  0  0  0
 16 14  2  0  0  0  0
 17 14  2  0  0  0  0
 20 15  1  0  0  0  0
M  RAD  3   2   2   3   3  18   2
M  END
