Coordinates from ORCA-job PhN2+~TfO-_B3LYPG-6-31G_dp-NX-Scan-d89-09-n800
 OpenBabel11261920253D

 21 20  0  0  0  0  0  0  0  0999 V2000
   -1.3517    1.0730   -0.5684 C   0  0  0  0  0  0  0  0  0  0  0  0
   -2.2209    0.8982   -1.6336 N   0  0  0  0  0  0  0  0  0  0  0  0
   -2.8722    0.6832   -2.5104 N   0  0  0  0  0  0  0  0  0  0  0  0
   -1.1710    2.3564   -0.0317 C   0  0  0  0  0  0  0  0  0  0  0  0
   -0.2615    2.4637    1.0178 C   0  0  0  0  0  0  0  0  0  0  0  0
    0.4167    1.3412    1.4988 C   0  0  0  0  0  0  0  0  0  0  0  0
    0.2074    0.0721    0.9378 C   0  0  0  0  0  0  0  0  0  0  0  0
   -0.6818   -0.0813   -0.1138 C   0  0  0  0  0  0  0  0  0  0  0  0
   -1.7368    3.2189   -0.3999 H   0  0  0  0  0  0  0  0  0  0  0  0
   -0.0988    3.4385    1.4646 H   0  0  0  0  0  0  0  0  0  0  0  0
    1.1154    1.4489    2.3230 H   0  0  0  0  0  0  0  0  0  0  0  0
    0.7365   -0.7925    1.3229 H   0  0  0  0  0  0  0  0  0  0  0  0
   -0.8683   -1.0468   -0.5705 H   0  0  0  0  0  0  0  0  0  0  0  0
   -4.0845    4.1322   -1.2258 S   0  0  0  0  0  0  0  0  0  0  0  0
   -5.3991    4.4460    0.0465 C   0  0  0  0  0  0  0  0  0  0  0  0
   -2.8654    4.7411   -0.6250 O   0  0  0  0  0  0  0  0  0  0  0  0
   -4.5892    4.7475   -2.4573 O   0  0  0  0  0  0  0  0  0  0  0  0
   -3.9947    2.6355   -1.2495 O   0  0  0  0  0  0  0  0  0  0  0  0
   -5.0488    3.9018    1.2268 F   0  0  0  0  0  0  0  0  0  0  0  0
   -5.5791    5.7612    0.2280 F   0  0  0  0  0  0  0  0  0  0  0  0
   -6.5649    3.9039   -0.3339 F   0  0  0  0  0  0  0  0  0  0  0  0
  1  8  2  0  0  0  0
  1  4  1  0  0  0  0
  2  1  1  0  0  0  0
  3  2  1  0  0  0  0
  4  5  2  0  0  0  0
  5 10  1  0  0  0  0
  5  6  1  0  0  0  0
  6 11  1  0  0  0  0
  7 12  1  0  0  0  0
  7  6  2  0  0  0  0
  8  7  1  0  0  0  0
  9  4  1  0  0  0  0
 13  8  1  0  0  0  0
 14 16  1  0  0  0  0
 14 15  1  0  0  0  0
 15 20  1  0  0  0  0
 15 19  1  0  0  0  0
 17 14  2  0  0  0  0
 18 14  2  0  0  0  0
 21 15  1  0  0  0  0
M  RAD  3   2   2   3   3  16   2
M  END
