Coordinates from ORCA-job PhN2+~TfO-_B3LYPG-6-31G_dp-NX-Scan-d89-09-n800
 OpenBabel11261920253D

 21 20  0  0  0  0  0  0  0  0999 V2000
   -1.3269    1.0424   -0.3786 C   0  0  0  0  0  0  0  0  0  0  0  0
   -2.4089    0.9567   -1.2517 N   0  0  0  0  0  0  0  0  0  0  0  0
   -3.4073    1.1458   -1.7400 N   0  0  0  0  0  0  0  0  0  0  0  0
   -1.2381    2.1559    0.4730 C   0  0  0  0  0  0  0  0  0  0  0  0
   -0.1383    2.2033    1.3255 C   0  0  0  0  0  0  0  0  0  0  0  0
    0.8160    1.1816    1.3220 C   0  0  0  0  0  0  0  0  0  0  0  0
    0.6979    0.0865    0.4564 C   0  0  0  0  0  0  0  0  0  0  0  0
   -0.3793    0.0080   -0.4155 C   0  0  0  0  0  0  0  0  0  0  0  0
   -1.9824    2.9525    0.4455 H   0  0  0  0  0  0  0  0  0  0  0  0
   -0.0311    3.0513    1.9938 H   0  0  0  0  0  0  0  0  0  0  0  0
    1.6655    1.2394    1.9960 H   0  0  0  0  0  0  0  0  0  0  0  0
    1.4463   -0.6990    0.4602 H   0  0  0  0  0  0  0  0  0  0  0  0
   -0.5012   -0.8226   -1.1022 H   0  0  0  0  0  0  0  0  0  0  0  0
   -4.1828    3.9175   -0.8622 S   0  0  0  0  0  0  0  0  0  0  0  0
   -5.7803    4.7886   -0.4845 C   0  0  0  0  0  0  0  0  0  0  0  0
   -3.1695    4.6008   -0.0269 O   0  0  0  0  0  0  0  0  0  0  0  0
   -4.0093    4.0031   -2.3208 O   0  0  0  0  0  0  0  0  0  0  0  0
   -4.4549    2.5105   -0.3707 O   0  0  0  0  0  0  0  0  0  0  0  0
   -6.0481    4.7222    0.8260 F   0  0  0  0  0  0  0  0  0  0  0  0
   -5.6913    6.0757   -0.8411 F   0  0  0  0  0  0  0  0  0  0  0  0
   -6.7887    4.2226   -1.1583 F   0  0  0  0  0  0  0  0  0  0  0  0
  1  4  1  0  0  0  0
  2  1  1  0  0  0  0
  3  2  1  0  0  0  0
  4  5  2  0  0  0  0
  5 10  1  0  0  0  0
  6  5  1  0  0  0  0
  6 11  1  0  0  0  0
  7 12  1  0  0  0  0
  7  6  2  0  0  0  0
  8  1  2  0  0  0  0
  8  7  1  0  0  0  0
  9  4  1  0  0  0  0
 13  8  1  0  0  0  0
 14 15  1  0  0  0  0
 14 18  2  0  0  0  0
 14 16  1  0  0  0  0
 15 19  1  0  0  0  0
 17 14  2  0  0  0  0
 20 15  1  0  0  0  0
 21 15  1  0  0  0  0
M  RAD  3   2   2   3   3  16   2
M  END
