Coordinates from ORCA-job PhN2+~TfO-_B3LYPG-6-31G_dp-NX-Scan-d89-09-n800
 OpenBabel11261920253D

 21 20  0  0  0  0  0  0  0  0999 V2000
   -1.5235   -0.6630   -0.3647 C   0  0  0  0  0  0  0  0  0  0  0  0
   -1.6208   -1.9075   -0.9001 N   0  0  0  0  0  0  0  0  0  0  0  0
   -1.7217   -2.9306   -1.3486 N   0  0  0  0  0  0  0  0  0  0  0  0
   -2.6942    0.1374   -0.3196 C   0  0  0  0  0  0  0  0  0  0  0  0
   -2.5739    1.4130    0.1957 C   0  0  0  0  0  0  0  0  0  0  0  0
   -1.3231    1.8747    0.6524 C   0  0  0  0  0  0  0  0  0  0  0  0
   -0.1820    1.0527    0.6112 C   0  0  0  0  0  0  0  0  0  0  0  0
   -0.2569   -0.2288    0.0991 C   0  0  0  0  0  0  0  0  0  0  0  0
   -3.6362   -0.2470   -0.6950 H   0  0  0  0  0  0  0  0  0  0  0  0
   -3.4253    2.1017    0.2106 H   0  0  0  0  0  0  0  0  0  0  0  0
   -1.2726    2.9112    0.9929 H   0  0  0  0  0  0  0  0  0  0  0  0
    0.7705    1.4293    0.9681 H   0  0  0  0  0  0  0  0  0  0  0  0
    0.6052   -0.8837    0.0383 H   0  0  0  0  0  0  0  0  0  0  0  0
   -3.1311    4.7706   -0.3329 S   0  0  0  0  0  0  0  0  0  0  0  0
   -3.8461    6.4727   -0.1407 C   0  0  0  0  0  0  0  0  0  0  0  0
   -2.6661    4.7002   -1.7305 O   0  0  0  0  0  0  0  0  0  0  0  0
   -4.2813    3.8802   -0.0050 O   0  0  0  0  0  0  0  0  0  0  0  0
   -2.0488    4.7394    0.6929 O   0  0  0  0  0  0  0  0  0  0  0  0
   -2.9119    7.4071   -0.3762 F   0  0  0  0  0  0  0  0  0  0  0  0
   -4.8560    6.6600   -1.0045 F   0  0  0  0  0  0  0  0  0  0  0  0
   -4.3171    6.6532    1.1032 F   0  0  0  0  0  0  0  0  0  0  0  0
  1  4  2  0  0  0  0
  1  8  1  0  0  0  0
  2  1  1  0  0  0  0
  3  2  1  0  0  0  0
  4  5  1  0  0  0  0
  5 10  1  0  0  0  0
  5  6  2  0  0  0  0
  6 11  1  0  0  0  0
  7  6  1  0  0  0  0
  7 12  1  0  0  0  0
  8  7  2  0  0  0  0
  9  4  1  0  0  0  0
 13  8  1  0  0  0  0
 14 15  1  0  0  0  0
 14 17  2  0  0  0  0
 14 18  1  0  0  0  0
 15 21  1  0  0  0  0
 16 14  2  0  0  0  0
 19 15  1  0  0  0  0
 20 15  1  0  0  0  0
M  RAD  3   2   2   3   3  18   2
M  END
