Coordinates from ORCA-job PhN2+~TfO-_B3LYPG-6-31G_dp-NX-Scan-d89-09-n800
 OpenBabel11261920253D

 21 20  0  0  0  0  0  0  0  0999 V2000
   -1.5053   -0.3345   -0.3572 C   0  0  0  0  0  0  0  0  0  0  0  0
   -1.4334   -1.5784   -0.8570 N   0  0  0  0  0  0  0  0  0  0  0  0
   -1.3800   -2.6230   -1.2810 N   0  0  0  0  0  0  0  0  0  0  0  0
   -2.6133    0.0114    0.4735 C   0  0  0  0  0  0  0  0  0  0  0  0
   -2.6785    1.2902    0.9584 C   0  0  0  0  0  0  0  0  0  0  0  0
   -1.6861    2.2439    0.6101 C   0  0  0  0  0  0  0  0  0  0  0  0
   -0.5627    1.8601   -0.1651 C   0  0  0  0  0  0  0  0  0  0  0  0
   -0.4681    0.5903   -0.6734 C   0  0  0  0  0  0  0  0  0  0  0  0
   -3.3728   -0.7296    0.6972 H   0  0  0  0  0  0  0  0  0  0  0  0
   -3.5155    1.6196    1.5622 H   0  0  0  0  0  0  0  0  0  0  0  0
   -1.6968    3.2072    1.0979 H   0  0  0  0  0  0  0  0  0  0  0  0
    0.2061    2.5908   -0.3884 H   0  0  0  0  0  0  0  0  0  0  0  0
    0.3655    0.2770   -1.2922 H   0  0  0  0  0  0  0  0  0  0  0  0
   -3.8785    4.3153   -0.3502 S   0  0  0  0  0  0  0  0  0  0  0  0
   -2.8639    5.8625   -0.1704 C   0  0  0  0  0  0  0  0  0  0  0  0
   -2.8711    3.3626   -0.9652 O   0  0  0  0  0  0  0  0  0  0  0  0
   -4.9741    4.6722   -1.2544 O   0  0  0  0  0  0  0  0  0  0  0  0
   -4.2091    3.9608    1.0458 O   0  0  0  0  0  0  0  0  0  0  0  0
   -1.7635    5.6023    0.5777 F   0  0  0  0  0  0  0  0  0  0  0  0
   -2.4522    6.3146   -1.3609 F   0  0  0  0  0  0  0  0  0  0  0  0
   -3.5596    6.8275    0.4392 F   0  0  0  0  0  0  0  0  0  0  0  0
  1  4  1  0  0  0  0
  2  1  1  0  0  0  0
  3  2  1  0  0  0  0
  4  9  1  0  0  0  0
  4  5  2  0  0  0  0
  5 10  1  0  0  0  0
  6  5  1  0  0  0  0
  6 11  1  0  0  0  0
  7  6  2  0  0  0  0
  8  1  2  0  0  0  0
  8  7  1  0  0  0  0
 12  7  1  0  0  0  0
 13  8  1  0  0  0  0
 14 15  1  0  0  0  0
 14 18  1  0  0  0  0
 15 21  1  0  0  0  0
 15 19  1  0  0  0  0
 16 14  2  0  0  0  0
 17 14  2  0  0  0  0
 20 15  1  0  0  0  0
M  RAD  3   2   2   3   3  18   2
M  END
