Coordinates from ORCA-job PhN2+~TfO-_B3LYPG-6-31G_dp-NX-Scan-d89-09-n800
 OpenBabel11261920253D

 21 20  0  0  0  0  0  0  0  0999 V2000
   -1.4715    1.0955   -0.4905 C   0  0  0  0  0  0  0  0  0  0  0  0
   -2.4298    0.8696   -1.4756 N   0  0  0  0  0  0  0  0  0  0  0  0
   -3.0903    0.4369   -2.2635 N   0  0  0  0  0  0  0  0  0  0  0  0
   -1.1804    2.3924   -0.0500 C   0  0  0  0  0  0  0  0  0  0  0  0
   -0.1890    2.5136    0.9217 C   0  0  0  0  0  0  0  0  0  0  0  0
    0.4664    1.3879    1.4234 C   0  0  0  0  0  0  0  0  0  0  0  0
    0.1486    0.1017    0.9613 C   0  0  0  0  0  0  0  0  0  0  0  0
   -0.8268   -0.0639   -0.0083 C   0  0  0  0  0  0  0  0  0  0  0  0
   -1.7189    3.2597   -0.4298 H   0  0  0  0  0  0  0  0  0  0  0  0
    0.0550    3.5040    1.2897 H   0  0  0  0  0  0  0  0  0  0  0  0
    1.2315    1.5060    2.1849 H   0  0  0  0  0  0  0  0  0  0  0  0
    0.6608   -0.7674    1.3589 H   0  0  0  0  0  0  0  0  0  0  0  0
   -1.0962   -1.0438   -0.3863 H   0  0  0  0  0  0  0  0  0  0  0  0
   -3.9482    4.3491   -1.2203 S   0  0  0  0  0  0  0  0  0  0  0  0
   -5.3641    4.2315   -0.0244 C   0  0  0  0  0  0  0  0  0  0  0  0
   -2.8449    4.9141   -0.4020 O   0  0  0  0  0  0  0  0  0  0  0  0
   -4.4509    5.1663   -2.3273 O   0  0  0  0  0  0  0  0  0  0  0  0
   -3.7035    2.9039   -1.5683 O   0  0  0  0  0  0  0  0  0  0  0  0
   -5.0222    3.4610    1.0277 F   0  0  0  0  0  0  0  0  0  0  0  0
   -5.7001    5.4431    0.4343 F   0  0  0  0  0  0  0  0  0  0  0  0
   -6.4381    3.6816   -0.6093 F   0  0  0  0  0  0  0  0  0  0  0  0
  1  4  2  0  0  0  0
  1  8  1  0  0  0  0
  2  1  1  0  0  0  0
  3  2  1  0  0  0  0
  4  5  1  0  0  0  0
  5 10  1  0  0  0  0
  5  6  2  0  0  0  0
  6 11  1  0  0  0  0
  7 12  1  0  0  0  0
  7  6  1  0  0  0  0
  8  7  2  0  0  0  0
  9  4  1  0  0  0  0
 13  8  1  0  0  0  0
 14 16  1  0  0  0  0
 14 15  1  0  0  0  0
 15 20  1  0  0  0  0
 15 19  1  0  0  0  0
 17 14  2  0  0  0  0
 18 14  2  0  0  0  0
 21 15  1  0  0  0  0
M  RAD  3   2   2   3   3  16   2
M  END
