Coordinates from ORCA-job PhN2+~TfO-_B3LYPG-6-31G_dp-NX-Scan-d89-09-n800
 OpenBabel11261920253D

 21 20  0  0  0  0  0  0  0  0999 V2000
   -1.5239   -0.6807   -0.3449 C   0  0  0  0  0  0  0  0  0  0  0  0
   -1.6298   -1.9364   -0.8516 N   0  0  0  0  0  0  0  0  0  0  0  0
   -1.7388   -2.9685   -1.2772 N   0  0  0  0  0  0  0  0  0  0  0  0
   -2.6858    0.1338   -0.3334 C   0  0  0  0  0  0  0  0  0  0  0  0
   -2.5567    1.4203    0.1522 C   0  0  0  0  0  0  0  0  0  0  0  0
   -1.3061    1.8785    0.6126 C   0  0  0  0  0  0  0  0  0  0  0  0
   -0.1744    1.0426    0.6060 C   0  0  0  0  0  0  0  0  0  0  0  0
   -0.2581   -0.2501    0.1242 C   0  0  0  0  0  0  0  0  0  0  0  0
   -3.6278   -0.2493   -0.7101 H   0  0  0  0  0  0  0  0  0  0  0  0
   -3.4012    2.1184    0.1431 H   0  0  0  0  0  0  0  0  0  0  0  0
   -1.2500    2.9221    0.9306 H   0  0  0  0  0  0  0  0  0  0  0  0
    0.7779    1.4166    0.9662 H   0  0  0  0  0  0  0  0  0  0  0  0
    0.5968   -0.9162    0.0903 H   0  0  0  0  0  0  0  0  0  0  0  0
   -3.1295    4.7968   -0.3671 S   0  0  0  0  0  0  0  0  0  0  0  0
   -3.8656    6.4800   -0.1024 C   0  0  0  0  0  0  0  0  0  0  0  0
   -2.6714    4.7889   -1.7683 O   0  0  0  0  0  0  0  0  0  0  0  0
   -4.2669    3.8794   -0.0689 O   0  0  0  0  0  0  0  0  0  0  0  0
   -2.0422    4.7387    0.6523 O   0  0  0  0  0  0  0  0  0  0  0  0
   -2.9448    7.4355   -0.3041 F   0  0  0  0  0  0  0  0  0  0  0  0
   -4.8823    6.6890   -0.9530 F   0  0  0  0  0  0  0  0  0  0  0  0
   -4.3323    6.6035    1.1500 F   0  0  0  0  0  0  0  0  0  0  0  0
  1  4  2  0  0  0  0
  1  8  1  0  0  0  0
  2  1  1  0  0  0  0
  3  2  1  0  0  0  0
  4  5  1  0  0  0  0
  5  6  2  0  0  0  0
  6 11  1  0  0  0  0
  7  6  1  0  0  0  0
  7 12  1  0  0  0  0
  8  7  2  0  0  0  0
  9  4  1  0  0  0  0
 10  5  1  0  0  0  0
 13  8  1  0  0  0  0
 14 15  1  0  0  0  0
 14 17  2  0  0  0  0
 14 18  1  0  0  0  0
 15 21  1  0  0  0  0
 16 14  2  0  0  0  0
 19 15  1  0  0  0  0
 20 15  1  0  0  0  0
M  RAD  3   2   2   3   3  18   2
M  END
