Coordinates from ORCA-job PhN2+~TfO-_B3LYPG-6-31G_dp-NX-Scan-d89-09-n800
 OpenBabel11261920253D

 21 20  0  0  0  0  0  0  0  0999 V2000
   -1.5036   -0.3401   -0.3522 C   0  0  0  0  0  0  0  0  0  0  0  0
   -1.4349   -1.5871   -0.8454 N   0  0  0  0  0  0  0  0  0  0  0  0
   -1.3839   -2.6344   -1.2628 N   0  0  0  0  0  0  0  0  0  0  0  0
   -2.6118    0.0132    0.4752 C   0  0  0  0  0  0  0  0  0  0  0  0
   -2.6746    1.2955    0.9519 C   0  0  0  0  0  0  0  0  0  0  0  0
   -1.6788    2.2438    0.6001 C   0  0  0  0  0  0  0  0  0  0  0  0
   -0.5575    1.8540   -0.1745 C   0  0  0  0  0  0  0  0  0  0  0  0
   -0.4649    0.5807   -0.6747 C   0  0  0  0  0  0  0  0  0  0  0  0
   -3.3734   -0.7246    0.7021 H   0  0  0  0  0  0  0  0  0  0  0  0
   -3.5122    1.6322    1.5510 H   0  0  0  0  0  0  0  0  0  0  0  0
   -1.6880    3.2106    1.0808 H   0  0  0  0  0  0  0  0  0  0  0  0
    0.2114    2.5828   -0.4034 H   0  0  0  0  0  0  0  0  0  0  0  0
    0.3678    0.2619   -1.2921 H   0  0  0  0  0  0  0  0  0  0  0  0
   -3.8788    4.3180   -0.3570 S   0  0  0  0  0  0  0  0  0  0  0  0
   -2.8722    5.8680   -0.1578 C   0  0  0  0  0  0  0  0  0  0  0  0
   -2.8651    3.3757   -0.9765 O   0  0  0  0  0  0  0  0  0  0  0  0
   -4.9725    4.6793   -1.2619 O   0  0  0  0  0  0  0  0  0  0  0  0
   -4.2143    3.9499    1.0344 O   0  0  0  0  0  0  0  0  0  0  0  0
   -1.7741    5.6060    0.5935 F   0  0  0  0  0  0  0  0  0  0  0  0
   -2.4564    6.3332   -1.3419 F   0  0  0  0  0  0  0  0  0  0  0  0
   -3.5752    6.8241    0.4574 F   0  0  0  0  0  0  0  0  0  0  0  0
  1  4  1  0  0  0  0
  2  1  1  0  0  0  0
  3  2  1  0  0  0  0
  4  9  1  0  0  0  0
  4  5  2  0  0  0  0
  5 10  1  0  0  0  0
  6  5  1  0  0  0  0
  6 11  1  0  0  0  0
  7  6  2  0  0  0  0
  8  1  2  0  0  0  0
  8  7  1  0  0  0  0
 12  7  1  0  0  0  0
 13  8  1  0  0  0  0
 14 15  1  0  0  0  0
 14 18  1  0  0  0  0
 15 21  1  0  0  0  0
 15 19  1  0  0  0  0
 16 14  2  0  0  0  0
 17 14  2  0  0  0  0
 20 15  1  0  0  0  0
M  RAD  3   2   2   3   3  18   2
M  END
