Coordinates from ORCA-job PhN2+~TfO-_B3LYPG-6-31G_dp-NX-Scan-d89-09-n800
 OpenBabel11261920253D

 21 20  0  0  0  0  0  0  0  0999 V2000
   -1.5856   -0.4144   -0.5606 C   0  0  0  0  0  0  0  0  0  0  0  0
   -1.5830   -1.5773   -1.2441 N   0  0  0  0  0  0  0  0  0  0  0  0
   -1.5833   -2.5516   -1.8092 N   0  0  0  0  0  0  0  0  0  0  0  0
   -2.8081    0.0410    0.0103 C   0  0  0  0  0  0  0  0  0  0  0  0
   -2.7850    1.2175    0.7188 C   0  0  0  0  0  0  0  0  0  0  0  0
   -1.5816    1.9493    0.8584 C   0  0  0  0  0  0  0  0  0  0  0  0
   -0.3806    1.4719    0.2886 C   0  0  0  0  0  0  0  0  0  0  0  0
   -0.3625    0.2994   -0.4298 C   0  0  0  0  0  0  0  0  0  0  0  0
   -3.7185   -0.5321   -0.1249 H   0  0  0  0  0  0  0  0  0  0  0  0
   -3.7006    1.6242    1.1332 H   0  0  0  0  0  0  0  0  0  0  0  0
   -1.5751    2.8360    1.4831 H   0  0  0  0  0  0  0  0  0  0  0  0
    0.5317    2.0451    0.4073 H   0  0  0  0  0  0  0  0  0  0  0  0
    0.5440   -0.0881   -0.8811 H   0  0  0  0  0  0  0  0  0  0  0  0
   -3.2342    4.4999    0.2192 S   0  0  0  0  0  0  0  0  0  0  0  0
   -3.3618    6.1886   -0.5500 C   0  0  0  0  0  0  0  0  0  0  0  0
   -2.2106    3.8206   -0.6503 O   0  0  0  0  0  0  0  0  0  0  0  0
   -4.5905    3.9267    0.1101 O   0  0  0  0  0  0  0  0  0  0  0  0
   -2.7430    4.7444    1.5951 O   0  0  0  0  0  0  0  0  0  0  0  0
   -2.1691    6.8015   -0.5434 F   0  0  0  0  0  0  0  0  0  0  0  0
   -3.7841    6.0967   -1.8192 F   0  0  0  0  0  0  0  0  0  0  0  0
   -4.2314    6.9435    0.1350 F   0  0  0  0  0  0  0  0  0  0  0  0
  1  8  2  0  0  0  0
  1  4  1  0  0  0  0
  2  1  1  0  0  0  0
  3  2  1  0  0  0  0
  4  5  2  0  0  0  0
  5  6  1  0  0  0  0
  5 10  1  0  0  0  0
  6 11  1  0  0  0  0
  7 12  1  0  0  0  0
  7  6  2  0  0  0  0
  8  7  1  0  0  0  0
  9  4  1  0  0  0  0
 13  8  1  0  0  0  0
 14 18  1  0  0  0  0
 15 19  1  0  0  0  0
 15 21  1  0  0  0  0
 15 14  1  0  0  0  0
 16 14  2  0  0  0  0
 17 14  2  0  0  0  0
 20 15  1  0  0  0  0
M  RAD  3   2   2   3   3  18   2
M  END
