Coordinates from ORCA-job PhN2+~TfO-_B3LYPG-6-31G_dp-NX-Scan-d89-09-n800
 OpenBabel11261920253D

 21 20  0  0  0  0  0  0  0  0999 V2000
   -1.5362   -0.7311   -0.2645 C   0  0  0  0  0  0  0  0  0  0  0  0
   -1.6883   -2.0250   -0.6489 N   0  0  0  0  0  0  0  0  0  0  0  0
   -1.8382   -3.0876   -0.9755 N   0  0  0  0  0  0  0  0  0  0  0  0
   -2.6508    0.1373   -0.3963 C   0  0  0  0  0  0  0  0  0  0  0  0
   -2.4757    1.4581   -0.0320 C   0  0  0  0  0  0  0  0  0  0  0  0
   -1.2259    1.8964    0.4491 C   0  0  0  0  0  0  0  0  0  0  0  0
   -0.1432    1.0089    0.5877 C   0  0  0  0  0  0  0  0  0  0  0  0
   -0.2736   -0.3199    0.2298 C   0  0  0  0  0  0  0  0  0  0  0  0
   -3.5940   -0.2357   -0.7806 H   0  0  0  0  0  0  0  0  0  0  0  0
   -3.2852    2.1915   -0.1389 H   0  0  0  0  0  0  0  0  0  0  0  0
   -1.1392    2.9610    0.6804 H   0  0  0  0  0  0  0  0  0  0  0  0
    0.8084    1.3682    0.9648 H   0  0  0  0  0  0  0  0  0  0  0  0
    0.5433   -1.0284    0.3099 H   0  0  0  0  0  0  0  0  0  0  0  0
   -3.1189    4.9006   -0.5068 S   0  0  0  0  0  0  0  0  0  0  0  0
   -3.9407    6.4682    0.0516 C   0  0  0  0  0  0  0  0  0  0  0  0
   -2.6973    5.1563   -1.8942 O   0  0  0  0  0  0  0  0  0  0  0  0
   -4.1981    3.8823   -0.3474 O   0  0  0  0  0  0  0  0  0  0  0  0
   -2.0084    4.7366    0.4753 O   0  0  0  0  0  0  0  0  0  0  0  0
   -3.0834    7.4990   -0.0096 F   0  0  0  0  0  0  0  0  0  0  0  0
   -4.9969    6.7520   -0.7264 F   0  0  0  0  0  0  0  0  0  0  0  0
   -4.3707    6.3543    1.3188 F   0  0  0  0  0  0  0  0  0  0  0  0
  1  8  1  0  0  0  0
  2  1  1  0  0  0  0
  3  2  1  0  0  0  0
  4  1  2  0  0  0  0
  4  5  1  0  0  0  0
  5  6  2  0  0  0  0
  6  7  1  0  0  0  0
  6 11  1  0  0  0  0
  7 12  1  0  0  0  0
  8 13  1  0  0  0  0
  8  7  2  0  0  0  0
  9  4  1  0  0  0  0
 10  5  1  0  0  0  0
 14 17  2  0  0  0  0
 14 15  1  0  0  0  0
 14 18  1  0  0  0  0
 15 21  1  0  0  0  0
 16 14  2  0  0  0  0
 19 15  1  0  0  0  0
 20 15  1  0  0  0  0
M  RAD  3   2   2   3   3  18   2
M  END
