Coordinates from ORCA-job PhN2+~TfO-_B3LYPG-6-31G_dp-NX-Scan-d89-09-n800
 OpenBabel11261920253D

 21 20  0  0  0  0  0  0  0  0999 V2000
   -1.5600   -0.7457   -0.2007 C   0  0  0  0  0  0  0  0  0  0  0  0
   -1.7571   -2.0589   -0.4866 N   0  0  0  0  0  0  0  0  0  0  0  0
   -1.9458   -3.1374   -0.7306 N   0  0  0  0  0  0  0  0  0  0  0  0
   -2.6333    0.1535   -0.4316 C   0  0  0  0  0  0  0  0  0  0  0  0
   -2.4145    1.4901   -0.1600 C   0  0  0  0  0  0  0  0  0  0  0  0
   -1.1621    1.9131    0.3276 C   0  0  0  0  0  0  0  0  0  0  0  0
   -0.1210    0.9972    0.5649 C   0  0  0  0  0  0  0  0  0  0  0  0
   -0.2959   -0.3484    0.3012 C   0  0  0  0  0  0  0  0  0  0  0  0
   -3.5811   -0.2107   -0.8133 H   0  0  0  0  0  0  0  0  0  0  0  0
   -3.1934    2.2447   -0.3345 H   0  0  0  0  0  0  0  0  0  0  0  0
   -1.0459    2.9863    0.4958 H   0  0  0  0  0  0  0  0  0  0  0  0
    0.8327    1.3460    0.9465 H   0  0  0  0  0  0  0  0  0  0  0  0
    0.4880   -1.0806    0.4598 H   0  0  0  0  0  0  0  0  0  0  0  0
   -3.0889    4.9843   -0.6181 S   0  0  0  0  0  0  0  0  0  0  0  0
   -3.9927    6.4052    0.1627 C   0  0  0  0  0  0  0  0  0  0  0  0
   -2.6942    5.4640   -1.9517 O   0  0  0  0  0  0  0  0  0  0  0  0
   -4.1106    3.8959   -0.6076 O   0  0  0  0  0  0  0  0  0  0  0  0
   -1.9655    4.7416    0.3324 O   0  0  0  0  0  0  0  0  0  0  0  0
   -3.1973    7.4823    0.2502 F   0  0  0  0  0  0  0  0  0  0  0  0
   -5.0727    6.7360   -0.5622 F   0  0  0  0  0  0  0  0  0  0  0  0
   -4.4015    6.0841    1.4020 F   0  0  0  0  0  0  0  0  0  0  0  0
  1  8  1  0  0  0  0
  2  1  1  0  0  0  0
  3  2  1  0  0  0  0
  4  1  2  0  0  0  0
  4  5  1  0  0  0  0
  5  6  2  0  0  0  0
  6 11  1  0  0  0  0
  6  7  1  0  0  0  0
  7 12  1  0  0  0  0
  8 13  1  0  0  0  0
  8  7  2  0  0  0  0
  9  4  1  0  0  0  0
 10  5  1  0  0  0  0
 14 17  2  0  0  0  0
 14 15  1  0  0  0  0
 14 18  1  0  0  0  0
 15 19  1  0  0  0  0
 15 21  1  0  0  0  0
 16 14  2  0  0  0  0
 20 15  1  0  0  0  0
M  RAD  3   2   2   3   3  18   2
M  END
