Coordinates from ORCA-job PhN2+~TfO-_B3LYPG-6-31G_dp-NX-Scan-d89-09-n800
 OpenBabel11261920253D

 21 20  0  0  0  0  0  0  0  0999 V2000
   -1.5784   -0.1687   -0.3786 C   0  0  0  0  0  0  0  0  0  0  0  0
   -1.7172   -1.2472   -1.1652 N   0  0  0  0  0  0  0  0  0  0  0  0
   -1.8593   -2.1272   -1.8544 N   0  0  0  0  0  0  0  0  0  0  0  0
   -2.6022    0.1154    0.5711 C   0  0  0  0  0  0  0  0  0  0  0  0
   -2.5537    1.3248    1.2114 C   0  0  0  0  0  0  0  0  0  0  0  0
   -1.5423    2.2586    0.8761 C   0  0  0  0  0  0  0  0  0  0  0  0
   -0.4409    1.8835    0.0716 C   0  0  0  0  0  0  0  0  0  0  0  0
   -0.4622    0.6873   -0.5973 C   0  0  0  0  0  0  0  0  0  0  0  0
   -3.4076   -0.5930    0.7292 H   0  0  0  0  0  0  0  0  0  0  0  0
   -3.3464    1.6317    1.8820 H   0  0  0  0  0  0  0  0  0  0  0  0
   -1.5483    3.2274    1.3578 H   0  0  0  0  0  0  0  0  0  0  0  0
    0.3704    2.5835   -0.0910 H   0  0  0  0  0  0  0  0  0  0  0  0
    0.3157    0.3972   -1.2948 H   0  0  0  0  0  0  0  0  0  0  0  0
   -3.8270    4.0865   -0.4228 S   0  0  0  0  0  0  0  0  0  0  0  0
   -2.9014    5.6955   -0.3312 C   0  0  0  0  0  0  0  0  0  0  0  0
   -2.7431    3.1387   -0.8913 O   0  0  0  0  0  0  0  0  0  0  0  0
   -4.8853    4.3042   -1.4136 O   0  0  0  0  0  0  0  0  0  0  0  0
   -4.2262    3.8429    0.9790 O   0  0  0  0  0  0  0  0  0  0  0  0
   -1.8469    5.5729    0.5120 F   0  0  0  0  0  0  0  0  0  0  0  0
   -2.4257    6.0517   -1.5313 F   0  0  0  0  0  0  0  0  0  0  0  0
   -3.6847    6.6772    0.1277 F   0  0  0  0  0  0  0  0  0  0  0  0
  1  4  1  0  0  0  0
  2  1  1  0  0  0  0
  3  2  1  0  0  0  0
  4  9  1  0  0  0  0
  4  5  2  0  0  0  0
  5 10  1  0  0  0  0
  6  5  1  0  0  0  0
  6 11  1  0  0  0  0
  7  6  2  0  0  0  0
  8  1  2  0  0  0  0
  8  7  1  0  0  0  0
 12  7  1  0  0  0  0
 13  8  1  0  0  0  0
 14 15  1  0  0  0  0
 14 18  1  0  0  0  0
 15 21  1  0  0  0  0
 15 19  1  0  0  0  0
 16 14  2  0  0  0  0
 17 14  2  0  0  0  0
 20 15  1  0  0  0  0
M  RAD  3   2   2   3   3  18   2
M  END
