Coordinates from ORCA-job PhN2+~TfO-_B3LYPG-6-31G_dp-NX-Scan-d89-09-n800
 OpenBabel11261920253D

 21 20  0  0  0  0  0  0  0  0999 V2000
   -1.3837    1.0744   -0.5504 C   0  0  0  0  0  0  0  0  0  0  0  0
   -2.2706    0.8782   -1.5991 N   0  0  0  0  0  0  0  0  0  0  0  0
   -2.9105    0.5919   -2.4643 N   0  0  0  0  0  0  0  0  0  0  0  0
   -1.1749    2.3642   -0.0425 C   0  0  0  0  0  0  0  0  0  0  0  0
   -0.2438    2.4804    0.9873 C   0  0  0  0  0  0  0  0  0  0  0  0
    0.4287    1.3594    1.4788 C   0  0  0  0  0  0  0  0  0  0  0  0
    0.1914    0.0824    0.9476 C   0  0  0  0  0  0  0  0  0  0  0  0
   -0.7198   -0.0793   -0.0835 C   0  0  0  0  0  0  0  0  0  0  0  0
   -1.7330    3.2285   -0.4134 H   0  0  0  0  0  0  0  0  0  0  0  0
   -0.0606    3.4620    1.4103 H   0  0  0  0  0  0  0  0  0  0  0  0
    1.1443    1.4744    2.2873 H   0  0  0  0  0  0  0  0  0  0  0  0
    0.7160   -0.7819    1.3395 H   0  0  0  0  0  0  0  0  0  0  0  0
   -0.9271   -1.0512   -0.5171 H   0  0  0  0  0  0  0  0  0  0  0  0
   -4.0476    4.1906   -1.2248 S   0  0  0  0  0  0  0  0  0  0  0  0
   -5.3945    4.3931    0.0366 C   0  0  0  0  0  0  0  0  0  0  0  0
   -2.8554    4.7843   -0.5608 O   0  0  0  0  0  0  0  0  0  0  0  0
   -4.5436    4.8698   -2.4253 O   0  0  0  0  0  0  0  0  0  0  0  0
   -3.9249    2.6992   -1.3418 O   0  0  0  0  0  0  0  0  0  0  0  0
   -5.0620    3.7692    1.1823 F   0  0  0  0  0  0  0  0  0  0  0  0
   -5.5975    5.6891    0.3080 F   0  0  0  0  0  0  0  0  0  0  0  0
   -6.5434    3.8642   -0.4083 F   0  0  0  0  0  0  0  0  0  0  0  0
  1  8  2  0  0  0  0
  1  4  1  0  0  0  0
  2  1  1  0  0  0  0
  3  2  1  0  0  0  0
  4  5  2  0  0  0  0
  5 10  1  0  0  0  0
  5  6  1  0  0  0  0
  6 11  1  0  0  0  0
  7 12  1  0  0  0  0
  7  6  2  0  0  0  0
  8  7  1  0  0  0  0
  9  4  1  0  0  0  0
 13  8  1  0  0  0  0
 14 16  1  0  0  0  0
 14 15  1  0  0  0  0
 15 20  1  0  0  0  0
 15 19  1  0  0  0  0
 17 14  2  0  0  0  0
 18 14  2  0  0  0  0
 21 15  1  0  0  0  0
M  RAD  3   2   2   3   3  16   2
M  END
