Coordinates from ORCA-job PhN2+~TfO-_B3LYPG-6-31G_dp-NX-Scan-d89-09-n800
 OpenBabel11261920253D

 21 20  0  0  0  0  0  0  0  0999 V2000
   -1.4935    1.0966   -0.4953 C   0  0  0  0  0  0  0  0  0  0  0  0
   -2.4570    0.8535   -1.4745 N   0  0  0  0  0  0  0  0  0  0  0  0
   -3.1077    0.3699   -2.2423 N   0  0  0  0  0  0  0  0  0  0  0  0
   -1.1819    2.3974   -0.0810 C   0  0  0  0  0  0  0  0  0  0  0  0
   -0.1895    2.5254    0.8883 C   0  0  0  0  0  0  0  0  0  0  0  0
    0.4495    1.4012    1.4142 C   0  0  0  0  0  0  0  0  0  0  0  0
    0.1132    0.1107    0.9784 C   0  0  0  0  0  0  0  0  0  0  0  0
   -0.8646   -0.0612    0.0124 C   0  0  0  0  0  0  0  0  0  0  0  0
   -1.7076    3.2596   -0.4823 H   0  0  0  0  0  0  0  0  0  0  0  0
    0.0673    3.5200    1.2355 H   0  0  0  0  0  0  0  0  0  0  0  0
    1.2154    1.5241    2.1740 H   0  0  0  0  0  0  0  0  0  0  0  0
    0.6126   -0.7576    1.3939 H   0  0  0  0  0  0  0  0  0  0  0  0
   -1.1476   -1.0451   -0.3444 H   0  0  0  0  0  0  0  0  0  0  0  0
   -3.9156    4.4070   -1.2042 S   0  0  0  0  0  0  0  0  0  0  0  0
   -5.3307    4.1790   -0.0228 C   0  0  0  0  0  0  0  0  0  0  0  0
   -2.8528    5.0117   -0.3607 O   0  0  0  0  0  0  0  0  0  0  0  0
   -4.4547    5.2270   -2.2926 O   0  0  0  0  0  0  0  0  0  0  0  0
   -3.6089    2.9825   -1.5999 O   0  0  0  0  0  0  0  0  0  0  0  0
   -4.9591    3.3798    0.9985 F   0  0  0  0  0  0  0  0  0  0  0  0
   -5.7209    5.3539    0.4853 F   0  0  0  0  0  0  0  0  0  0  0  0
   -6.3787    3.6075   -0.6342 F   0  0  0  0  0  0  0  0  0  0  0  0
  1  4  2  0  0  0  0
  1  8  1  0  0  0  0
  2  1  1  0  0  0  0
  3  2  1  0  0  0  0
  4  5  1  0  0  0  0
  5 10  1  0  0  0  0
  5  6  2  0  0  0  0
  6 11  1  0  0  0  0
  7 12  1  0  0  0  0
  7  6  1  0  0  0  0
  8  7  2  0  0  0  0
  9  4  1  0  0  0  0
 13  8  1  0  0  0  0
 14 16  1  0  0  0  0
 14 15  1  0  0  0  0
 15 20  1  0  0  0  0
 15 19  1  0  0  0  0
 17 14  2  0  0  0  0
 18 14  2  0  0  0  0
 21 15  1  0  0  0  0
M  RAD  3   2   2   3   3  16   2
M  END
