Coordinates from ORCA-job PhN2+~TfO-_B3LYPG-6-31G_dp-NX-Scan-d89-09-n800
 OpenBabel11261920253D

 21 20  0  0  0  0  0  0  0  0999 V2000
   -1.5297   -0.7186   -0.2922 C   0  0  0  0  0  0  0  0  0  0  0  0
   -1.6633   -2.0015   -0.7179 N   0  0  0  0  0  0  0  0  0  0  0  0
   -1.7968   -3.0554   -1.0781 N   0  0  0  0  0  0  0  0  0  0  0  0
   -2.6631    0.1313   -0.3742 C   0  0  0  0  0  0  0  0  0  0  0  0
   -2.5065    1.4426    0.0307 C   0  0  0  0  0  0  0  0  0  0  0  0
   -1.2566    1.8898    0.5036 C   0  0  0  0  0  0  0  0  0  0  0  0
   -0.1544    1.0198    0.5915 C   0  0  0  0  0  0  0  0  0  0  0  0
   -0.2660   -0.2986    0.1918 C   0  0  0  0  0  0  0  0  0  0  0  0
   -3.6057   -0.2469   -0.7549 H   0  0  0  0  0  0  0  0  0  0  0  0
   -3.3296    2.1640   -0.0431 H   0  0  0  0  0  0  0  0  0  0  0  0
   -1.1827    2.9485    0.7643 H   0  0  0  0  0  0  0  0  0  0  0  0
    0.7974    1.3857    0.9616 H   0  0  0  0  0  0  0  0  0  0  0  0
    0.5661   -0.9928    0.2322 H   0  0  0  0  0  0  0  0  0  0  0  0
   -3.1232    4.8657   -0.4561 S   0  0  0  0  0  0  0  0  0  0  0  0
   -3.9152    6.4813   -0.0007 C   0  0  0  0  0  0  0  0  0  0  0  0
   -2.6857    5.0281   -1.8533 O   0  0  0  0  0  0  0  0  0  0  0  0
   -4.2242    3.8808   -0.2463 O   0  0  0  0  0  0  0  0  0  0  0  0
   -2.0224    4.7375    0.5421 O   0  0  0  0  0  0  0  0  0  0  0  0
   -3.0330    7.4869   -0.1094 F   0  0  0  0  0  0  0  0  0  0  0  0
   -4.9537    6.7429   -0.8096 F   0  0  0  0  0  0  0  0  0  0  0  0
   -4.3646    6.4514    1.2641 F   0  0  0  0  0  0  0  0  0  0  0  0
  1  8  1  0  0  0  0
  2  1  1  0  0  0  0
  3  2  1  0  0  0  0
  4  1  2  0  0  0  0
  4  5  1  0  0  0  0
  5  6  2  0  0  0  0
  6  7  1  0  0  0  0
  6 11  1  0  0  0  0
  7 12  1  0  0  0  0
  8 13  1  0  0  0  0
  8  7  2  0  0  0  0
  9  4  1  0  0  0  0
 10  5  1  0  0  0  0
 14 17  2  0  0  0  0
 14 15  1  0  0  0  0
 14 18  1  0  0  0  0
 15 21  1  0  0  0  0
 16 14  2  0  0  0  0
 19 15  1  0  0  0  0
 20 15  1  0  0  0  0
M  RAD  3   2   2   3   3  18   2
M  END
