Coordinates from ORCA-job PhN2+~TfO-_B3LYPG-6-31G_dp-NX-Scan-d89-09-n800
 OpenBabel11261920253D

 21 20  0  0  0  0  0  0  0  0999 V2000
   -1.4942    1.0931   -0.4968 C   0  0  0  0  0  0  0  0  0  0  0  0
   -2.4576    0.8467   -1.4756 N   0  0  0  0  0  0  0  0  0  0  0  0
   -3.1065    0.3570   -2.2414 N   0  0  0  0  0  0  0  0  0  0  0  0
   -1.1830    2.3948   -0.0844 C   0  0  0  0  0  0  0  0  0  0  0  0
   -0.1911    2.5249    0.8849 C   0  0  0  0  0  0  0  0  0  0  0  0
    0.4480    1.4019    1.4130 C   0  0  0  0  0  0  0  0  0  0  0  0
    0.1126    0.1105    0.9791 C   0  0  0  0  0  0  0  0  0  0  0  0
   -0.8648   -0.0636    0.0130 C   0  0  0  0  0  0  0  0  0  0  0  0
   -1.7093    3.2547   -0.4887 H   0  0  0  0  0  0  0  0  0  0  0  0
    0.0649    3.5203    1.2304 H   0  0  0  0  0  0  0  0  0  0  0  0
    1.2136    1.5263    2.1729 H   0  0  0  0  0  0  0  0  0  0  0  0
    0.6121   -0.7568    1.3962 H   0  0  0  0  0  0  0  0  0  0  0  0
   -1.1472   -1.0483   -0.3421 H   0  0  0  0  0  0  0  0  0  0  0  0
   -3.9128    4.4158   -1.1998 S   0  0  0  0  0  0  0  0  0  0  0  0
   -5.3299    4.1787   -0.0225 C   0  0  0  0  0  0  0  0  0  0  0  0
   -2.8570    5.0289   -0.3535 O   0  0  0  0  0  0  0  0  0  0  0  0
   -4.4542    5.2320   -2.2901 O   0  0  0  0  0  0  0  0  0  0  0  0
   -3.5982    2.9926   -1.5957 O   0  0  0  0  0  0  0  0  0  0  0  0
   -4.9567    3.3806    0.9990 F   0  0  0  0  0  0  0  0  0  0  0  0
   -5.7282    5.3509    0.4857 F   0  0  0  0  0  0  0  0  0  0  0  0
   -6.3731    3.6019   -0.6373 F   0  0  0  0  0  0  0  0  0  0  0  0
  1  4  2  0  0  0  0
  1  8  1  0  0  0  0
  2  1  1  0  0  0  0
  3  2  1  0  0  0  0
  4  5  1  0  0  0  0
  5 10  1  0  0  0  0
  5  6  2  0  0  0  0
  6 11  1  0  0  0  0
  7 12  1  0  0  0  0
  7  6  1  0  0  0  0
  8  7  2  0  0  0  0
  9  4  1  0  0  0  0
 13  8  1  0  0  0  0
 14 16  1  0  0  0  0
 14 15  1  0  0  0  0
 15 20  1  0  0  0  0
 15 19  1  0  0  0  0
 17 14  2  0  0  0  0
 18 14  2  0  0  0  0
 21 15  1  0  0  0  0
M  RAD  3   2   2   3   3  16   2
M  END
