Coordinates from ORCA-job PhN2+~TfO-_B3LYPG-6-31G_dp-NX-Scan-d89-09-n800
 OpenBabel11261920253D

 21 20  0  0  0  0  0  0  0  0999 V2000
   -1.3894    1.0745   -0.5443 C   0  0  0  0  0  0  0  0  0  0  0  0
   -2.2826    0.8768   -1.5881 N   0  0  0  0  0  0  0  0  0  0  0  0
   -2.9229    0.5784   -2.4491 N   0  0  0  0  0  0  0  0  0  0  0  0
   -1.1740    2.3650   -0.0410 C   0  0  0  0  0  0  0  0  0  0  0  0
   -0.2363    2.4819    0.9827 C   0  0  0  0  0  0  0  0  0  0  0  0
    0.4361    1.3605    1.4731 C   0  0  0  0  0  0  0  0  0  0  0  0
    0.1921    0.0827    0.9469 C   0  0  0  0  0  0  0  0  0  0  0  0
   -0.7258   -0.0797   -0.0781 C   0  0  0  0  0  0  0  0  0  0  0  0
   -1.7322    3.2289   -0.4117 H   0  0  0  0  0  0  0  0  0  0  0  0
   -0.0480    3.4643    1.4017 H   0  0  0  0  0  0  0  0  0  0  0  0
    1.1571    1.4757    2.2768 H   0  0  0  0  0  0  0  0  0  0  0  0
    0.7168   -0.7818    1.3381 H   0  0  0  0  0  0  0  0  0  0  0  0
   -0.9380   -1.0522   -0.5078 H   0  0  0  0  0  0  0  0  0  0  0  0
   -4.0412    4.2018   -1.2221 S   0  0  0  0  0  0  0  0  0  0  0  0
   -5.3994    4.3857    0.0300 C   0  0  0  0  0  0  0  0  0  0  0  0
   -2.8562    4.7910   -0.5419 O   0  0  0  0  0  0  0  0  0  0  0  0
   -4.5303    4.8920   -2.4191 O   0  0  0  0  0  0  0  0  0  0  0  0
   -3.9124    2.7116   -1.3546 O   0  0  0  0  0  0  0  0  0  0  0  0
   -5.0741    3.7509    1.1719 F   0  0  0  0  0  0  0  0  0  0  0  0
   -5.6098    5.6778    0.3133 F   0  0  0  0  0  0  0  0  0  0  0  0
   -6.5423    3.8569   -0.4303 F   0  0  0  0  0  0  0  0  0  0  0  0
  1  8  2  0  0  0  0
  1  4  1  0  0  0  0
  2  1  1  0  0  0  0
  3  2  1  0  0  0  0
  4  5  2  0  0  0  0
  5 10  1  0  0  0  0
  5  6  1  0  0  0  0
  6 11  1  0  0  0  0
  7 12  1  0  0  0  0
  7  6  2  0  0  0  0
  8  7  1  0  0  0  0
  9  4  1  0  0  0  0
 13  8  1  0  0  0  0
 14 16  1  0  0  0  0
 14 15  1  0  0  0  0
 15 20  1  0  0  0  0
 15 19  1  0  0  0  0
 17 14  2  0  0  0  0
 18 14  2  0  0  0  0
 21 15  1  0  0  0  0
M  RAD  3   2   2   3   3  16   2
M  END
