Coordinates from ORCA-job PhN2+~TfO-_B3LYPG-6-31G_dp-NX-Scan-d89-09-n800
 OpenBabel11261920253D

 21 20  0  0  0  0  0  0  0  0999 V2000
   -1.5047    1.4304   -0.2690 C   0  0  0  0  0  0  0  0  0  0  0  0
   -2.5475    1.3301   -1.1957 N   0  0  0  0  0  0  0  0  0  0  0  0
   -3.2834    0.9162   -1.9307 N   0  0  0  0  0  0  0  0  0  0  0  0
   -1.3293    2.5926    0.4896 C   0  0  0  0  0  0  0  0  0  0  0  0
   -0.2897    2.5982    1.4156 C   0  0  0  0  0  0  0  0  0  0  0  0
    0.5373    1.4820    1.5661 C   0  0  0  0  0  0  0  0  0  0  0  0
    0.3386    0.3321    0.7921 C   0  0  0  0  0  0  0  0  0  0  0  0
   -0.6912    0.2907   -0.1377 C   0  0  0  0  0  0  0  0  0  0  0  0
   -1.9798    3.4397    0.3181 H   0  0  0  0  0  0  0  0  0  0  0  0
   -0.1247    3.4845    2.0189 H   0  0  0  0  0  0  0  0  0  0  0  0
    1.3457    1.5057    2.2905 H   0  0  0  0  0  0  0  0  0  0  0  0
    0.9846   -0.5310    0.9142 H   0  0  0  0  0  0  0  0  0  0  0  0
   -0.8723   -0.5866   -0.7488 H   0  0  0  0  0  0  0  0  0  0  0  0
   -4.3778    3.8191   -1.8253 S   0  0  0  0  0  0  0  0  0  0  0  0
   -5.0060    3.9769   -0.0838 C   0  0  0  0  0  0  0  0  0  0  0  0
   -2.9094    3.6213   -1.5870 O   0  0  0  0  0  0  0  0  0  0  0  0
   -4.7504    5.0671   -2.4869 O   0  0  0  0  0  0  0  0  0  0  0  0
   -5.0149    2.5668   -2.3083 O   0  0  0  0  0  0  0  0  0  0  0  0
   -4.6862    2.8571    0.6129 F   0  0  0  0  0  0  0  0  0  0  0  0
   -4.4226    5.0147    0.5396 F   0  0  0  0  0  0  0  0  0  0  0  0
   -6.3290    4.1352   -0.0380 F   0  0  0  0  0  0  0  0  0  0  0  0
  1  8  2  0  0  0  0
  1  4  1  0  0  0  0
  2  1  1  0  0  0  0
  3  2  1  0  0  0  0
  4  5  2  0  0  0  0
  5  6  1  0  0  0  0
  5 10  1  0  0  0  0
  6 11  1  0  0  0  0
  7 12  1  0  0  0  0
  7  6  2  0  0  0  0
  8  7  1  0  0  0  0
  9  4  1  0  0  0  0
 13  8  1  0  0  0  0
 14 16  1  0  0  0  0
 14 15  1  0  0  0  0
 15 21  1  0  0  0  0
 15 20  1  0  0  0  0
 15 19  1  0  0  0  0
 17 14  2  0  0  0  0
 18 14  2  0  0  0  0
M  RAD  3   2   2   3   3  16   2
M  END
