Coordinates from ORCA-job PhN2+~TfO-_B3LYPG-6-31G_dp-NX-Scan-d89-09-n800
 OpenBabel11261920253D

 21 21  0  0  0  0  0  0  0  0999 V2000
   -1.4452    1.3420   -0.0191 C   0  0  0  0  0  0  0  0  0  0  0  0
   -2.7332    1.0555   -0.5606 N   0  0  0  0  0  0  0  0  0  0  0  0
   -3.5653    1.9129   -0.9501 N   0  0  0  0  0  0  0  0  0  0  0  0
   -0.7690    2.5736    0.1251 C   0  0  0  0  0  0  0  0  0  0  0  0
    0.5129    2.5965    0.6750 C   0  0  0  0  0  0  0  0  0  0  0  0
    1.1393    1.4210    1.0918 C   0  0  0  0  0  0  0  0  0  0  0  0
    0.4774    0.1985    0.9526 C   0  0  0  0  0  0  0  0  0  0  0  0
   -0.7973    0.1633    0.3998 C   0  0  0  0  0  0  0  0  0  0  0  0
   -1.2190    3.5037   -0.1859 H   0  0  0  0  0  0  0  0  0  0  0  0
    1.0243    3.5491    0.7783 H   0  0  0  0  0  0  0  0  0  0  0  0
    2.1364    1.4577    1.5198 H   0  0  0  0  0  0  0  0  0  0  0  0
    0.9548   -0.7230    1.2712 H   0  0  0  0  0  0  0  0  0  0  0  0
   -1.3309   -0.7728    0.2742 H   0  0  0  0  0  0  0  0  0  0  0  0
   -4.4873    4.1612   -1.4967 S   0  0  0  0  0  0  0  0  0  0  0  0
   -5.9396    3.7075   -0.3674 C   0  0  0  0  0  0  0  0  0  0  0  0
   -3.2696    3.0824   -0.8503 O   0  0  0  0  0  0  0  0  0  0  0  0
   -3.9875    5.4649   -1.1134 O   0  0  0  0  0  0  0  0  0  0  0  0
   -4.8121    3.7638   -2.8506 O   0  0  0  0  0  0  0  0  0  0  0  0
   -6.5596    2.6402   -0.8354 F   0  0  0  0  0  0  0  0  0  0  0  0
   -5.4845    3.4885    0.8597 F   0  0  0  0  0  0  0  0  0  0  0  0
   -6.7577    4.7564   -0.3717 F   0  0  0  0  0  0  0  0  0  0  0  0
  1  4  2  0  0  0  0
  1  8  1  0  0  0  0
  2  1  1  0  0  0  0
  3 16  1  0  0  0  0
  3  2  2  0  0  0  0
  4  5  1  0  0  0  0
  5 10  1  0  0  0  0
  5  6  2  0  0  0  0
  6 11  1  0  0  0  0
  7  6  1  0  0  0  0
  7 12  1  0  0  0  0
  8  7  2  0  0  0  0
  9  4  1  0  0  0  0
 13  8  1  0  0  0  0
 14 17  2  0  0  0  0
 14 16  1  0  0  0  0
 14 15  1  0  0  0  0
 15 20  1  0  0  0  0
 18 14  2  0  0  0  0
 19 15  1  0  0  0  0
 21 15  1  0  0  0  0
M  END
