Coordinates from ORCA-job PhN2+~TfO-_B3LYPG-6-31G_dp-NX-Scan-d89-09-n800
 OpenBabel11261920253D

 21 20  0  0  0  0  0  0  0  0999 V2000
   -1.5241   -0.6324   -0.3970 C   0  0  0  0  0  0  0  0  0  0  0  0
   -1.6079   -1.8594   -0.9735 N   0  0  0  0  0  0  0  0  0  0  0  0
   -1.6959   -2.8689   -1.4544 N   0  0  0  0  0  0  0  0  0  0  0  0
   -2.7085    0.1429   -0.3004 C   0  0  0  0  0  0  0  0  0  0  0  0
   -2.6020    1.4009    0.2592 C   0  0  0  0  0  0  0  0  0  0  0  0
   -1.3516    1.8701    0.7092 C   0  0  0  0  0  0  0  0  0  0  0  0
   -0.1959    1.0733    0.6140 C   0  0  0  0  0  0  0  0  0  0  0  0
   -0.2568   -0.1899    0.0569 C   0  0  0  0  0  0  0  0  0  0  0  0
   -3.6502   -0.2453   -0.6726 H   0  0  0  0  0  0  0  0  0  0  0  0
   -3.4644    2.0723    0.3123 H   0  0  0  0  0  0  0  0  0  0  0  0
   -1.3102    2.8939    1.0858 H   0  0  0  0  0  0  0  0  0  0  0  0
    0.7563    1.4560    0.9648 H   0  0  0  0  0  0  0  0  0  0  0  0
    0.6162   -0.8248   -0.0450 H   0  0  0  0  0  0  0  0  0  0  0  0
   -3.1324    4.7292   -0.2683 S   0  0  0  0  0  0  0  0  0  0  0  0
   -3.8122    6.4551   -0.2024 C   0  0  0  0  0  0  0  0  0  0  0  0
   -2.6485    4.5559   -1.6514 O   0  0  0  0  0  0  0  0  0  0  0  0
   -4.3046    3.8846    0.0978 O   0  0  0  0  0  0  0  0  0  0  0  0
   -2.0641    4.7438    0.7723 O   0  0  0  0  0  0  0  0  0  0  0  0
   -2.8558    7.3502   -0.4939 F   0  0  0  0  0  0  0  0  0  0  0  0
   -4.8104    6.6026   -1.0876 F   0  0  0  0  0  0  0  0  0  0  0  0
   -4.2898    6.7327    1.0206 F   0  0  0  0  0  0  0  0  0  0  0  0
  1  4  2  0  0  0  0
  1  8  1  0  0  0  0
  2  1  1  0  0  0  0
  3  2  1  0  0  0  0
  4  5  1  0  0  0  0
  5 10  1  0  0  0  0
  5  6  2  0  0  0  0
  6 11  1  0  0  0  0
  7  6  1  0  0  0  0
  7 12  1  0  0  0  0
  8  7  2  0  0  0  0
  9  4  1  0  0  0  0
 13  8  1  0  0  0  0
 14 15  1  0  0  0  0
 14 17  2  0  0  0  0
 14 18  1  0  0  0  0
 15 21  1  0  0  0  0
 16 14  2  0  0  0  0
 19 15  1  0  0  0  0
 20 15  1  0  0  0  0
M  RAD  3   2   2   3   3  18   2
M  END
