Coordinates from ORCA-job PhN2+~TfO-_B3LYPG-6-31G_dp-NX-Scan-d89-09-n800
 OpenBabel11261920253D

 21 20  0  0  0  0  0  0  0  0999 V2000
   -1.4713    1.3884   -0.3219 C   0  0  0  0  0  0  0  0  0  0  0  0
   -2.4713    1.2870   -1.2822 N   0  0  0  0  0  0  0  0  0  0  0  0
   -3.2520    1.0399   -2.0486 N   0  0  0  0  0  0  0  0  0  0  0  0
   -1.1564    2.6364    0.2329 C   0  0  0  0  0  0  0  0  0  0  0  0
   -0.1468    2.6653    1.1909 C   0  0  0  0  0  0  0  0  0  0  0  0
    0.5075    1.4913    1.5729 C   0  0  0  0  0  0  0  0  0  0  0  0
    0.1690    0.2574    1.0011 C   0  0  0  0  0  0  0  0  0  0  0  0
   -0.8280    0.1893    0.0392 C   0  0  0  0  0  0  0  0  0  0  0  0
   -1.6974    3.5137   -0.1122 H   0  0  0  0  0  0  0  0  0  0  0  0
    0.1269    3.6133    1.6410 H   0  0  0  0  0  0  0  0  0  0  0  0
    1.2907    1.5335    2.3239 H   0  0  0  0  0  0  0  0  0  0  0  0
    0.6829   -0.6476    1.3057 H   0  0  0  0  0  0  0  0  0  0  0  0
   -1.1135   -0.7490   -0.4228 H   0  0  0  0  0  0  0  0  0  0  0  0
   -4.3661    4.0627   -1.7576 S   0  0  0  0  0  0  0  0  0  0  0  0
   -5.0183    3.7782   -0.0410 C   0  0  0  0  0  0  0  0  0  0  0  0
   -2.9001    4.1777   -1.5111 O   0  0  0  0  0  0  0  0  0  0  0  0
   -5.0478    5.2638   -2.2372 O   0  0  0  0  0  0  0  0  0  0  0  0
   -4.7251    2.7835   -2.4468 O   0  0  0  0  0  0  0  0  0  0  0  0
   -4.4168    2.6775    0.4910 F   0  0  0  0  0  0  0  0  0  0  0  0
   -4.7428    4.8131    0.7633 F   0  0  0  0  0  0  0  0  0  0  0  0
   -6.3361    3.5672   -0.0341 F   0  0  0  0  0  0  0  0  0  0  0  0
  1  8  2  0  0  0  0
  1  4  1  0  0  0  0
  2  1  1  0  0  0  0
  3  2  1  0  0  0  0
  4  5  2  0  0  0  0
  5  6  1  0  0  0  0
  5 10  1  0  0  0  0
  6 11  1  0  0  0  0
  7 12  1  0  0  0  0
  7  6  2  0  0  0  0
  8  7  1  0  0  0  0
  9  4  1  0  0  0  0
 13  8  1  0  0  0  0
 14 16  1  0  0  0  0
 14 15  1  0  0  0  0
 15 21  1  0  0  0  0
 15 19  1  0  0  0  0
 15 20  1  0  0  0  0
 17 14  2  0  0  0  0
 18 14  2  0  0  0  0
M  RAD  3   2   2   3   3  16   2
M  END
