Coordinates from ORCA-job PhN2+~TfO-_B3LYPG-6-31G_dp-NX-Scan-d89-09-n800
 OpenBabel11261920253D

 21 21  0  0  0  0  0  0  0  0999 V2000
   -1.4228    1.3133   -0.1280 C   0  0  0  0  0  0  0  0  0  0  0  0
   -2.6463    1.0099   -0.7912 N   0  0  0  0  0  0  0  0  0  0  0  0
   -3.5167    1.8207   -1.1669 N   0  0  0  0  0  0  0  0  0  0  0  0
   -0.8147    2.5623    0.1263 C   0  0  0  0  0  0  0  0  0  0  0  0
    0.4179    2.6061    0.7766 C   0  0  0  0  0  0  0  0  0  0  0  0
    1.0576    1.4353    1.1882 C   0  0  0  0  0  0  0  0  0  0  0  0
    0.4630    0.1964    0.9384 C   0  0  0  0  0  0  0  0  0  0  0  0
   -0.7603    0.1396    0.2806 C   0  0  0  0  0  0  0  0  0  0  0  0
   -1.2791    3.4867   -0.1803 H   0  0  0  0  0  0  0  0  0  0  0  0
    0.8799    3.5706    0.9647 H   0  0  0  0  0  0  0  0  0  0  0  0
    2.0158    1.4892    1.6959 H   0  0  0  0  0  0  0  0  0  0  0  0
    0.9537   -0.7205    1.2496 H   0  0  0  0  0  0  0  0  0  0  0  0
   -1.2393   -0.8089    0.0626 H   0  0  0  0  0  0  0  0  0  0  0  0
   -4.5021    4.1073   -1.5272 S   0  0  0  0  0  0  0  0  0  0  0  0
   -5.8483    3.7981   -0.2487 C   0  0  0  0  0  0  0  0  0  0  0  0
   -3.2945    3.0468   -0.9193 O   0  0  0  0  0  0  0  0  0  0  0  0
   -3.9312    5.4141   -1.2752 O   0  0  0  0  0  0  0  0  0  0  0  0
   -4.9729    3.6458   -2.8154 O   0  0  0  0  0  0  0  0  0  0  0  0
   -6.3320    2.5729   -0.3854 F   0  0  0  0  0  0  0  0  0  0  0  0
   -5.3363    3.9596    0.9661 F   0  0  0  0  0  0  0  0  0  0  0  0
   -6.8043    4.6976   -0.4651 F   0  0  0  0  0  0  0  0  0  0  0  0
  1  4  2  0  0  0  0
  1  8  1  0  0  0  0
  2  1  1  0  0  0  0
  3 16  1  0  0  0  0
  3  2  2  0  0  0  0
  4  5  1  0  0  0  0
  5 10  1  0  0  0  0
  5  6  2  0  0  0  0
  6 11  1  0  0  0  0
  7  6  1  0  0  0  0
  7 12  1  0  0  0  0
  8  7  2  0  0  0  0
  9  4  1  0  0  0  0
 13  8  1  0  0  0  0
 14 17  2  0  0  0  0
 14 16  1  0  0  0  0
 14 15  1  0  0  0  0
 15 20  1  0  0  0  0
 18 14  2  0  0  0  0
 19 15  1  0  0  0  0
 21 15  1  0  0  0  0
M  END
