Coordinates from ORCA-job PhN2+~TfO-_B3LYPG-6-31G_dp-NX-Scan-d89-09-n800
 OpenBabel11261920253D

 21 20  0  0  0  0  0  0  0  0999 V2000
   -1.2335    1.2243   -0.5070 C   0  0  0  0  0  0  0  0  0  0  0  0
   -2.0598    1.1541   -1.6364 N   0  0  0  0  0  0  0  0  0  0  0  0
   -2.8944    1.6341   -2.2669 N   0  0  0  0  0  0  0  0  0  0  0  0
   -1.3931    2.2443    0.4458 C   0  0  0  0  0  0  0  0  0  0  0  0
   -0.5459    2.2318    1.5496 C   0  0  0  0  0  0  0  0  0  0  0  0
    0.4308    1.2399    1.6894 C   0  0  0  0  0  0  0  0  0  0  0  0
    0.5718    0.2342    0.7278 C   0  0  0  0  0  0  0  0  0  0  0  0
   -0.2677    0.2161   -0.3801 C   0  0  0  0  0  0  0  0  0  0  0  0
   -2.1621    2.9935    0.3119 H   0  0  0  0  0  0  0  0  0  0  0  0
   -0.6495    3.0041    2.3051 H   0  0  0  0  0  0  0  0  0  0  0  0
    1.0842    1.2492    2.5567 H   0  0  0  0  0  0  0  0  0  0  0  0
    1.3292   -0.5339    0.8445 H   0  0  0  0  0  0  0  0  0  0  0  0
   -0.1914   -0.5531   -1.1410 H   0  0  0  0  0  0  0  0  0  0  0  0
   -4.8592    3.5581   -1.5684 S   0  0  0  0  0  0  0  0  0  0  0  0
   -4.9488    4.6537   -0.0610 C   0  0  0  0  0  0  0  0  0  0  0  0
   -3.3164    3.3351   -1.5831 O   0  0  0  0  0  0  0  0  0  0  0  0
   -5.3257    4.3785   -2.6825 O   0  0  0  0  0  0  0  0  0  0  0  0
   -5.5709    2.3274   -1.2154 O   0  0  0  0  0  0  0  0  0  0  0  0
   -4.3719    4.0409    0.9927 F   0  0  0  0  0  0  0  0  0  0  0  0
   -4.3139    5.8090   -0.2755 F   0  0  0  0  0  0  0  0  0  0  0  0
   -6.2246    4.9017    0.2403 F   0  0  0  0  0  0  0  0  0  0  0  0
  1  8  2  0  0  0  0
  1  4  1  0  0  0  0
  2  1  1  0  0  0  0
  3  2  2  0  0  0  0
  4  5  2  0  0  0  0
  5  6  1  0  0  0  0
  5 10  1  0  0  0  0
  6 11  1  0  0  0  0
  7 12  1  0  0  0  0
  7  6  2  0  0  0  0
  8  7  1  0  0  0  0
  9  4  1  0  0  0  0
 13  8  1  0  0  0  0
 14 18  1  0  0  0  0
 14 15  1  0  0  0  0
 15 21  1  0  0  0  0
 15 19  1  0  0  0  0
 16 14  2  0  0  0  0
 17 14  2  0  0  0  0
 20 15  1  0  0  0  0
M  RAD  2   3   2  18   2
M  END
