Coordinates from ORCA-job PhN2+~TfO-_B3LYPG-6-31G_dp-NX-Scan-d89-09-n800
 OpenBabel11261920253D

 21 20  0  0  0  0  0  0  0  0999 V2000
   -1.4895   -0.3884   -0.3236 C   0  0  0  0  0  0  0  0  0  0  0  0
   -1.4137   -1.6701   -0.7264 N   0  0  0  0  0  0  0  0  0  0  0  0
   -1.3539   -2.7460   -1.0603 N   0  0  0  0  0  0  0  0  0  0  0  0
   -2.6027    0.0187    0.4702 C   0  0  0  0  0  0  0  0  0  0  0  0
   -2.6553    1.3259    0.8817 C   0  0  0  0  0  0  0  0  0  0  0  0
   -1.6377    2.2389    0.5085 C   0  0  0  0  0  0  0  0  0  0  0  0
   -0.5323    1.8073   -0.2622 C   0  0  0  0  0  0  0  0  0  0  0  0
   -0.4478    0.5075   -0.6976 C   0  0  0  0  0  0  0  0  0  0  0  0
   -3.3750   -0.6978    0.7267 H   0  0  0  0  0  0  0  0  0  0  0  0
   -3.4958    1.7053    1.4511 H   0  0  0  0  0  0  0  0  0  0  0  0
   -1.6362    3.2278    0.9411 H   0  0  0  0  0  0  0  0  0  0  0  0
    0.2425    2.5170   -0.5289 H   0  0  0  0  0  0  0  0  0  0  0  0
    0.3827    0.1526   -1.2979 H   0  0  0  0  0  0  0  0  0  0  0  0
   -3.8957    4.3658   -0.4011 S   0  0  0  0  0  0  0  0  0  0  0  0
   -2.9242    5.9126   -0.0556 C   0  0  0  0  0  0  0  0  0  0  0  0
   -2.8556    3.4927   -1.0649 O   0  0  0  0  0  0  0  0  0  0  0  0
   -4.9778    4.7842   -1.2964 O   0  0  0  0  0  0  0  0  0  0  0  0
   -4.2602    3.8916    0.9520 O   0  0  0  0  0  0  0  0  0  0  0  0
   -1.8456    5.6149    0.7129 F   0  0  0  0  0  0  0  0  0  0  0  0
   -2.4764    6.4712   -1.1867 F   0  0  0  0  0  0  0  0  0  0  0  0
   -3.6626    6.8111    0.6040 F   0  0  0  0  0  0  0  0  0  0  0  0
  1  4  1  0  0  0  0
  2  1  1  0  0  0  0
  3  2  1  0  0  0  0
  4  9  1  0  0  0  0
  4  5  2  0  0  0  0
  5 10  1  0  0  0  0
  6  5  1  0  0  0  0
  6 11  1  0  0  0  0
  7  6  2  0  0  0  0
  8  1  2  0  0  0  0
  8  7  1  0  0  0  0
 12  7  1  0  0  0  0
 13  8  1  0  0  0  0
 14 15  1  0  0  0  0
 14 18  1  0  0  0  0
 15 21  1  0  0  0  0
 15 19  1  0  0  0  0
 16 14  2  0  0  0  0
 17 14  2  0  0  0  0
 20 15  1  0  0  0  0
M  RAD  3   2   2   3   3  18   2
M  END
