Coordinates from ORCA-job PhN2+~TfO-_B3LYPG-6-31G_dp-NX-Scan-d89-09-n800
 OpenBabel11261920253D

 21 20  0  0  0  0  0  0  0  0999 V2000
   -1.1737    1.3983   -0.6679 C   0  0  0  0  0  0  0  0  0  0  0  0
   -1.7945    1.4980   -1.9139 N   0  0  0  0  0  0  0  0  0  0  0  0
   -2.5156    2.0107   -2.6404 N   0  0  0  0  0  0  0  0  0  0  0  0
   -1.3734    2.3913    0.3047 C   0  0  0  0  0  0  0  0  0  0  0  0
   -0.7280    2.2320    1.5262 C   0  0  0  0  0  0  0  0  0  0  0  0
    0.0845    1.1177    1.7625 C   0  0  0  0  0  0  0  0  0  0  0  0
    0.2704    0.1427    0.7764 C   0  0  0  0  0  0  0  0  0  0  0  0
   -0.3582    0.2779   -0.4556 C   0  0  0  0  0  0  0  0  0  0  0  0
   -2.0105    3.2378    0.0905 H   0  0  0  0  0  0  0  0  0  0  0  0
   -0.8672    2.9802    2.2996 H   0  0  0  0  0  0  0  0  0  0  0  0
    0.5764    1.0077    2.7240 H   0  0  0  0  0  0  0  0  0  0  0  0
    0.9016   -0.7183    0.9691 H   0  0  0  0  0  0  0  0  0  0  0  0
   -0.2378   -0.4590   -1.2422 H   0  0  0  0  0  0  0  0  0  0  0  0
   -4.6818    3.2971   -1.2986 S   0  0  0  0  0  0  0  0  0  0  0  0
   -4.8053    4.6822   -0.0554 C   0  0  0  0  0  0  0  0  0  0  0  0
   -3.2759    3.6076   -1.8647 O   0  0  0  0  0  0  0  0  0  0  0  0
   -5.7689    3.5238   -2.2471 O   0  0  0  0  0  0  0  0  0  0  0  0
   -4.6593    2.0558   -0.5097 O   0  0  0  0  0  0  0  0  0  0  0  0
   -3.7835    4.6136    0.8251 F   0  0  0  0  0  0  0  0  0  0  0  0
   -4.7624    5.8705   -0.6594 F   0  0  0  0  0  0  0  0  0  0  0  0
   -5.9500    4.5756    0.6232 F   0  0  0  0  0  0  0  0  0  0  0  0
  1  8  2  0  0  0  0
  1  4  1  0  0  0  0
  2  1  1  0  0  0  0
  3  2  2  0  0  0  0
  4  5  2  0  0  0  0
  5  6  1  0  0  0  0
  5 10  1  0  0  0  0
  6 11  1  0  0  0  0
  7 12  1  0  0  0  0
  7  6  2  0  0  0  0
  8  7  1  0  0  0  0
  9  4  1  0  0  0  0
 13  8  1  0  0  0  0
 14 18  1  0  0  0  0
 14 15  1  0  0  0  0
 15 21  1  0  0  0  0
 15 19  1  0  0  0  0
 16 14  2  0  0  0  0
 17 14  2  0  0  0  0
 20 15  1  0  0  0  0
M  RAD  2   3   2  18   2
M  END
