Coordinates from ORCA-job PhN2+~TfO-_B3LYPG-6-31G_dp-NX-Scan-d89-09-n800
 OpenBabel11261920253D

 21 20  0  0  0  0  0  0  0  0999 V2000
   -1.5250   -0.6153   -0.4136 C   0  0  0  0  0  0  0  0  0  0  0  0
   -1.6019   -1.8331   -1.0102 N   0  0  0  0  0  0  0  0  0  0  0  0
   -1.6834   -2.8354   -1.5070 N   0  0  0  0  0  0  0  0  0  0  0  0
   -2.7160    0.1464   -0.2925 C   0  0  0  0  0  0  0  0  0  0  0  0
   -2.6165    1.3952    0.2885 C   0  0  0  0  0  0  0  0  0  0  0  0
   -1.3666    1.8686    0.7356 C   0  0  0  0  0  0  0  0  0  0  0  0
   -0.2041    1.0855    0.6150 C   0  0  0  0  0  0  0  0  0  0  0  0
   -0.2579   -0.1682    0.0361 C   0  0  0  0  0  0  0  0  0  0  0  0
   -3.6571   -0.2441   -0.6635 H   0  0  0  0  0  0  0  0  0  0  0  0
   -3.4842    2.0570    0.3603 H   0  0  0  0  0  0  0  0  0  0  0  0
   -1.3296    2.8858    1.1300 H   0  0  0  0  0  0  0  0  0  0  0  0
    0.7477    1.4717    0.9633 H   0  0  0  0  0  0  0  0  0  0  0  0
    0.6203   -0.7925   -0.0852 H   0  0  0  0  0  0  0  0  0  0  0  0
   -3.1328    4.7079   -0.2320 S   0  0  0  0  0  0  0  0  0  0  0  0
   -3.7935    6.4425   -0.2341 C   0  0  0  0  0  0  0  0  0  0  0  0
   -2.6389    4.4800   -1.6042 O   0  0  0  0  0  0  0  0  0  0  0  0
   -4.3165    3.8883    0.1523 O   0  0  0  0  0  0  0  0  0  0  0  0
   -2.0721    4.7480    0.8155 O   0  0  0  0  0  0  0  0  0  0  0  0
   -2.8263    7.3149   -0.5571 F   0  0  0  0  0  0  0  0  0  0  0  0
   -4.7879    6.5674   -1.1270 F   0  0  0  0  0  0  0  0  0  0  0  0
   -4.2706    6.7720    0.9760 F   0  0  0  0  0  0  0  0  0  0  0  0
  1  4  2  0  0  0  0
  1  8  1  0  0  0  0
  2  1  1  0  0  0  0
  3  2  1  0  0  0  0
  4  5  1  0  0  0  0
  5 10  1  0  0  0  0
  5  6  2  0  0  0  0
  6 11  1  0  0  0  0
  7  6  1  0  0  0  0
  7 12  1  0  0  0  0
  8  7  2  0  0  0  0
  9  4  1  0  0  0  0
 13  8  1  0  0  0  0
 14 17  2  0  0  0  0
 14 18  1  0  0  0  0
 15 14  1  0  0  0  0
 15 21  1  0  0  0  0
 16 14  2  0  0  0  0
 19 15  1  0  0  0  0
 20 15  1  0  0  0  0
M  RAD  3   2   2   3   3  18   2
M  END
