Coordinates from ORCA-job PhN2+~TfO-_B3LYPG-6-31G_dp-NX-Scan-d89-09-n800
 OpenBabel11261920253D

 21 20  0  0  0  0  0  0  0  0999 V2000
   -1.2536    1.3022   -0.5797 C   0  0  0  0  0  0  0  0  0  0  0  0
   -2.0150    1.3126   -1.7387 N   0  0  0  0  0  0  0  0  0  0  0  0
   -2.7579    1.4987   -2.5534 N   0  0  0  0  0  0  0  0  0  0  0  0
   -1.3221    2.4365    0.2454 C   0  0  0  0  0  0  0  0  0  0  0  0
   -0.5600    2.4085    1.4093 C   0  0  0  0  0  0  0  0  0  0  0  0
    0.2256    1.2943    1.7208 C   0  0  0  0  0  0  0  0  0  0  0  0
    0.2720    0.1812    0.8708 C   0  0  0  0  0  0  0  0  0  0  0  0
   -0.4696    0.1721   -0.3029 C   0  0  0  0  0  0  0  0  0  0  0  0
   -1.9471    3.2734   -0.0524 H   0  0  0  0  0  0  0  0  0  0  0  0
   -0.5871    3.2631    2.0771 H   0  0  0  0  0  0  0  0  0  0  0  0
    0.8088    1.2899    2.6363 H   0  0  0  0  0  0  0  0  0  0  0  0
    0.8845   -0.6770    1.1249 H   0  0  0  0  0  0  0  0  0  0  0  0
   -0.4593   -0.6735   -0.9816 H   0  0  0  0  0  0  0  0  0  0  0  0
   -4.5425    3.6370   -1.5706 S   0  0  0  0  0  0  0  0  0  0  0  0
   -4.9096    4.4118    0.0816 C   0  0  0  0  0  0  0  0  0  0  0  0
   -3.0977    3.9694   -1.7766 O   0  0  0  0  0  0  0  0  0  0  0  0
   -5.4928    4.2558   -2.4966 O   0  0  0  0  0  0  0  0  0  0  0  0
   -4.7214    2.1765   -1.2974 O   0  0  0  0  0  0  0  0  0  0  0  0
   -4.0345    3.9598    1.0144 F   0  0  0  0  0  0  0  0  0  0  0  0
   -4.7899    5.7430    0.0213 F   0  0  0  0  0  0  0  0  0  0  0  0
   -6.1435    4.1075    0.4945 F   0  0  0  0  0  0  0  0  0  0  0  0
  1  8  2  0  0  0  0
  1  4  1  0  0  0  0
  2  1  1  0  0  0  0
  3  2  1  0  0  0  0
  4  5  2  0  0  0  0
  5  6  1  0  0  0  0
  5 10  1  0  0  0  0
  6 11  1  0  0  0  0
  7 12  1  0  0  0  0
  7  6  2  0  0  0  0
  8  7  1  0  0  0  0
  9  4  1  0  0  0  0
 13  8  1  0  0  0  0
 14 18  1  0  0  0  0
 14 15  1  0  0  0  0
 15 21  1  0  0  0  0
 15 19  1  0  0  0  0
 16 14  2  0  0  0  0
 17 14  2  0  0  0  0
 20 15  1  0  0  0  0
M  RAD  3   2   2   3   3  18   2
M  END
