Coordinates from ORCA-job PhN2+~TfO-_B3LYPG-6-31G_dp-NX-Scan-d89-09-n800
 OpenBabel11261920253D

 21 20  0  0  0  0  0  0  0  0999 V2000
   -1.2792    1.0651   -0.4313 C   0  0  0  0  0  0  0  0  0  0  0  0
   -2.2993    0.9982   -1.3773 N   0  0  0  0  0  0  0  0  0  0  0  0
   -3.2638    1.1954   -1.9262 N   0  0  0  0  0  0  0  0  0  0  0  0
   -1.2190    2.1978    0.3960 C   0  0  0  0  0  0  0  0  0  0  0  0
   -0.1843    2.2344    1.3269 C   0  0  0  0  0  0  0  0  0  0  0  0
    0.7336    1.1838    1.4184 C   0  0  0  0  0  0  0  0  0  0  0  0
    0.6451    0.0704    0.5724 C   0  0  0  0  0  0  0  0  0  0  0  0
   -0.3655    0.0015   -0.3766 C   0  0  0  0  0  0  0  0  0  0  0  0
   -1.9395    3.0107    0.2809 H   0  0  0  0  0  0  0  0  0  0  0  0
   -0.0986    3.0952    1.9819 H   0  0  0  0  0  0  0  0  0  0  0  0
    1.5322    1.2326    2.1528 H   0  0  0  0  0  0  0  0  0  0  0  0
    1.3654   -0.7371    0.6517 H   0  0  0  0  0  0  0  0  0  0  0  0
   -0.4633   -0.8426   -1.0504 H   0  0  0  0  0  0  0  0  0  0  0  0
   -4.2397    3.8961   -1.0491 S   0  0  0  0  0  0  0  0  0  0  0  0
   -5.7192    4.7574   -0.3238 C   0  0  0  0  0  0  0  0  0  0  0  0
   -3.0704    4.5269   -0.3908 O   0  0  0  0  0  0  0  0  0  0  0  0
   -4.3488    4.0635   -2.5038 O   0  0  0  0  0  0  0  0  0  0  0  0
   -4.4421    2.4718   -0.5741 O   0  0  0  0  0  0  0  0  0  0  0  0
   -5.7302    4.6247    1.0098 F   0  0  0  0  0  0  0  0  0  0  0  0
   -5.6775    6.0609   -0.6248 F   0  0  0  0  0  0  0  0  0  0  0  0
   -6.8486    4.2362   -0.8164 F   0  0  0  0  0  0  0  0  0  0  0  0
  1  8  2  0  0  0  0
  1  4  1  0  0  0  0
  2  1  1  0  0  0  0
  3  2  1  0  0  0  0
  4  5  2  0  0  0  0
  5  6  1  0  0  0  0
  5 10  1  0  0  0  0
  6 11  1  0  0  0  0
  7 12  1  0  0  0  0
  7  6  2  0  0  0  0
  8  7  1  0  0  0  0
  9  4  1  0  0  0  0
 13  8  1  0  0  0  0
 14 18  2  0  0  0  0
 14 16  1  0  0  0  0
 14 15  1  0  0  0  0
 15 19  1  0  0  0  0
 17 14  2  0  0  0  0
 20 15  1  0  0  0  0
 21 15  1  0  0  0  0
M  RAD  3   2   2   3   3  16   2
M  END
