Coordinates from ORCA-job PhN2+~TfO-_B3LYPG-6-31G_dp-NX-Scan-d89-09-n800
 OpenBabel11261920253D

 21 20  0  0  0  0  0  0  0  0999 V2000
   -1.5592   -0.7455   -0.2023 C   0  0  0  0  0  0  0  0  0  0  0  0
   -1.7554   -2.0583   -0.4907 N   0  0  0  0  0  0  0  0  0  0  0  0
   -1.9432   -3.1364   -0.7369 N   0  0  0  0  0  0  0  0  0  0  0  0
   -2.6335    0.1532   -0.4307 C   0  0  0  0  0  0  0  0  0  0  0  0
   -2.4157    1.4895   -0.1569 C   0  0  0  0  0  0  0  0  0  0  0  0
   -1.1633    1.9127    0.3306 C   0  0  0  0  0  0  0  0  0  0  0  0
   -0.1212    0.9973    0.5655 C   0  0  0  0  0  0  0  0  0  0  0  0
   -0.2951   -0.3481    0.2994 C   0  0  0  0  0  0  0  0  0  0  0  0
   -3.5812   -0.2111   -0.8125 H   0  0  0  0  0  0  0  0  0  0  0  0
   -3.1953    2.2437   -0.3296 H   0  0  0  0  0  0  0  0  0  0  0  0
   -1.0478    2.9857    0.5003 H   0  0  0  0  0  0  0  0  0  0  0  0
    0.8325    1.3461    0.9470 H   0  0  0  0  0  0  0  0  0  0  0  0
    0.4895   -1.0799    0.4561 H   0  0  0  0  0  0  0  0  0  0  0  0
   -3.0900    4.9820   -0.6151 S   0  0  0  0  0  0  0  0  0  0  0  0
   -3.9917    6.4074    0.1599 C   0  0  0  0  0  0  0  0  0  0  0  0
   -2.6942    5.4556   -1.9505 O   0  0  0  0  0  0  0  0  0  0  0  0
   -4.1136    3.8953   -0.6005 O   0  0  0  0  0  0  0  0  0  0  0  0
   -1.9673    4.7412    0.3366 O   0  0  0  0  0  0  0  0  0  0  0  0
   -3.1945    7.4835    0.2435 F   0  0  0  0  0  0  0  0  0  0  0  0
   -5.0708    6.7373   -0.5667 F   0  0  0  0  0  0  0  0  0  0  0  0
   -4.4016    6.0917    1.4002 F   0  0  0  0  0  0  0  0  0  0  0  0
  1  8  1  0  0  0  0
  2  1  1  0  0  0  0
  3  2  1  0  0  0  0
  4  1  2  0  0  0  0
  4  5  1  0  0  0  0
  5  6  2  0  0  0  0
  6 11  1  0  0  0  0
  6  7  1  0  0  0  0
  7 12  1  0  0  0  0
  8 13  1  0  0  0  0
  8  7  2  0  0  0  0
  9  4  1  0  0  0  0
 10  5  1  0  0  0  0
 14 17  2  0  0  0  0
 14 15  1  0  0  0  0
 14 18  1  0  0  0  0
 15 19  1  0  0  0  0
 15 21  1  0  0  0  0
 16 14  2  0  0  0  0
 20 15  1  0  0  0  0
M  RAD  3   2   2   3   3  18   2
M  END
