Coordinates from ORCA-job PhN2+~TfO-_B3LYPG-6-31G_dp-NX-Scan-d89-09-n800
 OpenBabel11261920253D

 21 20  0  0  0  0  0  0  0  0999 V2000
   -1.5659   -0.7469   -0.1879 C   0  0  0  0  0  0  0  0  0  0  0  0
   -1.7702   -2.0632   -0.4540 N   0  0  0  0  0  0  0  0  0  0  0  0
   -1.9647   -3.1444   -0.6810 N   0  0  0  0  0  0  0  0  0  0  0  0
   -2.6319    0.1557   -0.4383 C   0  0  0  0  0  0  0  0  0  0  0  0
   -2.4060    1.4947   -0.1848 C   0  0  0  0  0  0  0  0  0  0  0  0
   -1.1539    1.9165    0.3043 C   0  0  0  0  0  0  0  0  0  0  0  0
   -0.1201    0.9977    0.5610 C   0  0  0  0  0  0  0  0  0  0  0  0
   -0.3021   -0.3505    0.3157 C   0  0  0  0  0  0  0  0  0  0  0  0
   -3.5800   -0.2081   -0.8197 H   0  0  0  0  0  0  0  0  0  0  0  0
   -3.1792    2.2523   -0.3725 H   0  0  0  0  0  0  0  0  0  0  0  0
   -1.0331    2.9912    0.4600 H   0  0  0  0  0  0  0  0  0  0  0  0
    0.8334    1.3458    0.9437 H   0  0  0  0  0  0  0  0  0  0  0  0
    0.4759   -1.0854    0.4897 H   0  0  0  0  0  0  0  0  0  0  0  0
   -3.0788    5.0036   -0.6423 S   0  0  0  0  0  0  0  0  0  0  0  0
   -3.9995    6.3867    0.1852 C   0  0  0  0  0  0  0  0  0  0  0  0
   -2.6951    5.5313   -1.9605 O   0  0  0  0  0  0  0  0  0  0  0  0
   -4.0860    3.9017   -0.6636 O   0  0  0  0  0  0  0  0  0  0  0  0
   -1.9499    4.7463    0.2977 O   0  0  0  0  0  0  0  0  0  0  0  0
   -3.2197    7.4723    0.3023 F   0  0  0  0  0  0  0  0  0  0  0  0
   -5.0877    6.7234   -0.5246 F   0  0  0  0  0  0  0  0  0  0  0  0
   -4.3982    6.0223    1.4161 F   0  0  0  0  0  0  0  0  0  0  0  0
  1  8  1  0  0  0  0
  2  1  1  0  0  0  0
  3  2  1  0  0  0  0
  4  1  2  0  0  0  0
  4  5  1  0  0  0  0
  5  6  2  0  0  0  0
  6 11  1  0  0  0  0
  6  7  1  0  0  0  0
  7 12  1  0  0  0  0
  8 13  1  0  0  0  0
  8  7  2  0  0  0  0
  9  4  1  0  0  0  0
 10  5  1  0  0  0  0
 14 15  1  0  0  0  0
 14 18  1  0  0  0  0
 15 19  1  0  0  0  0
 15 21  1  0  0  0  0
 16 14  2  0  0  0  0
 17 14  2  0  0  0  0
 20 15  1  0  0  0  0
M  RAD  3   2   2   3   3  18   2
M  END
