Coordinates from ORCA-job PhN2+~TfO-_B3LYPG-6-31G_dp-NX-Scan-d89-09-n800
 OpenBabel11261920253D

 21 20  0  0  0  0  0  0  0  0999 V2000
   -1.5237   -0.6443   -0.3848 C   0  0  0  0  0  0  0  0  0  0  0  0
   -1.6126   -1.8779   -0.9462 N   0  0  0  0  0  0  0  0  0  0  0  0
   -1.7055   -2.8926   -1.4152 N   0  0  0  0  0  0  0  0  0  0  0  0
   -2.7031    0.1407   -0.3071 C   0  0  0  0  0  0  0  0  0  0  0  0
   -2.5913    1.4054    0.2363 C   0  0  0  0  0  0  0  0  0  0  0  0
   -1.3407    1.8715    0.6887 C   0  0  0  0  0  0  0  0  0  0  0  0
   -0.1904    1.0649    0.6134 C   0  0  0  0  0  0  0  0  0  0  0  0
   -0.2565   -0.2052    0.0728 C   0  0  0  0  0  0  0  0  0  0  0  0
   -3.6449   -0.2458   -0.6805 H   0  0  0  0  0  0  0  0  0  0  0  0
   -3.4496    2.0836    0.2750 H   0  0  0  0  0  0  0  0  0  0  0  0
   -1.2958    2.9003    1.0518 H   0  0  0  0  0  0  0  0  0  0  0  0
    0.7621    1.4451    0.9665 H   0  0  0  0  0  0  0  0  0  0  0  0
    0.6125   -0.8479   -0.0140 H   0  0  0  0  0  0  0  0  0  0  0  0
   -3.1320    4.7449   -0.2940 S   0  0  0  0  0  0  0  0  0  0  0  0
   -3.8255    6.4627   -0.1791 C   0  0  0  0  0  0  0  0  0  0  0  0
   -2.6559    4.6110   -1.6838 O   0  0  0  0  0  0  0  0  0  0  0  0
   -4.2957    3.8825    0.0585 O   0  0  0  0  0  0  0  0  0  0  0  0
   -2.0578    4.7416    0.7407 O   0  0  0  0  0  0  0  0  0  0  0  0
   -2.8775    7.3736   -0.4486 F   0  0  0  0  0  0  0  0  0  0  0  0
   -4.8277    6.6260   -1.0568 F   0  0  0  0  0  0  0  0  0  0  0  0
   -4.3014    6.7027    1.0527 F   0  0  0  0  0  0  0  0  0  0  0  0
  1  4  2  0  0  0  0
  1  8  1  0  0  0  0
  2  1  1  0  0  0  0
  3  2  1  0  0  0  0
  4  5  1  0  0  0  0
  5 10  1  0  0  0  0
  5  6  2  0  0  0  0
  6 11  1  0  0  0  0
  7  6  1  0  0  0  0
  7 12  1  0  0  0  0
  8  7  2  0  0  0  0
  9  4  1  0  0  0  0
 13  8  1  0  0  0  0
 14 15  1  0  0  0  0
 14 17  2  0  0  0  0
 14 18  1  0  0  0  0
 15 21  1  0  0  0  0
 16 14  2  0  0  0  0
 19 15  1  0  0  0  0
 20 15  1  0  0  0  0
M  RAD  3   2   2   3   3  18   2
M  END
