Coordinates from ORCA-job PhN2+~TfO-_B3LYPG-6-31G_dp-NX-Scan-d89-09-n800
 OpenBabel11261920253D

 21 20  0  0  0  0  0  0  0  0999 V2000
   -1.1757    1.4113   -0.7234 C   0  0  0  0  0  0  0  0  0  0  0  0
   -1.7560    1.5234   -1.9721 N   0  0  0  0  0  0  0  0  0  0  0  0
   -2.3157    1.7802   -2.9023 N   0  0  0  0  0  0  0  0  0  0  0  0
   -1.3296    2.4998    0.1510 C   0  0  0  0  0  0  0  0  0  0  0  0
   -0.7531    2.3762    1.4095 C   0  0  0  0  0  0  0  0  0  0  0  0
   -0.0611    1.2126    1.7622 C   0  0  0  0  0  0  0  0  0  0  0  0
    0.0749    0.1461    0.8625 C   0  0  0  0  0  0  0  0  0  0  0  0
   -0.4844    0.2323   -0.4047 C   0  0  0  0  0  0  0  0  0  0  0  0
   -1.8844    3.3723   -0.1736 H   0  0  0  0  0  0  0  0  0  0  0  0
   -0.8603    3.1891    2.1195 H   0  0  0  0  0  0  0  0  0  0  0  0
    0.3769    1.1313    2.7520 H   0  0  0  0  0  0  0  0  0  0  0  0
    0.6119   -0.7500    1.1530 H   0  0  0  0  0  0  0  0  0  0  0  0
   -0.4062   -0.5754   -1.1238 H   0  0  0  0  0  0  0  0  0  0  0  0
   -4.5264    3.3687   -1.3394 S   0  0  0  0  0  0  0  0  0  0  0  0
   -4.7464    4.5180    0.1082 C   0  0  0  0  0  0  0  0  0  0  0  0
   -3.2791    3.9191   -1.9763 O   0  0  0  0  0  0  0  0  0  0  0  0
   -5.7605    3.5120   -2.1159 O   0  0  0  0  0  0  0  0  0  0  0  0
   -4.2728    2.0496   -0.7039 O   0  0  0  0  0  0  0  0  0  0  0  0
   -3.6333    4.5165    0.8890 F   0  0  0  0  0  0  0  0  0  0  0  0
   -4.9557    5.7746   -0.2972 F   0  0  0  0  0  0  0  0  0  0  0  0
   -5.7759    4.1351    0.8719 F   0  0  0  0  0  0  0  0  0  0  0  0
  1  8  2  0  0  0  0
  1  4  1  0  0  0  0
  2  1  1  0  0  0  0
  3  2  1  0  0  0  0
  4  5  2  0  0  0  0
  5  6  1  0  0  0  0
  5 10  1  0  0  0  0
  6 11  1  0  0  0  0
  7 12  1  0  0  0  0
  7  6  2  0  0  0  0
  8  7  1  0  0  0  0
  9  4  1  0  0  0  0
 13  8  1  0  0  0  0
 14 18  1  0  0  0  0
 14 15  1  0  0  0  0
 15 21  1  0  0  0  0
 15 19  1  0  0  0  0
 16 14  2  0  0  0  0
 17 14  2  0  0  0  0
 20 15  1  0  0  0  0
M  RAD  3   2   2   3   3  18   2
M  END
