Coordinates from ORCA-job PhN2+~TfO-_B3LYPG-6-31G_dp-NX-Scan-d89-09-n800
 OpenBabel11261920253D

 21 20  0  0  0  0  0  0  0  0999 V2000
   -1.4940    1.0943   -0.4963 C   0  0  0  0  0  0  0  0  0  0  0  0
   -2.4575    0.8488   -1.4751 N   0  0  0  0  0  0  0  0  0  0  0  0
   -3.1070    0.3609   -2.2415 N   0  0  0  0  0  0  0  0  0  0  0  0
   -1.1826    2.3957   -0.0834 C   0  0  0  0  0  0  0  0  0  0  0  0
   -0.1905    2.5251    0.8859 C   0  0  0  0  0  0  0  0  0  0  0  0
    0.4486    1.4017    1.4133 C   0  0  0  0  0  0  0  0  0  0  0  0
    0.1128    0.1106    0.9789 C   0  0  0  0  0  0  0  0  0  0  0  0
   -0.8647   -0.0628    0.0129 C   0  0  0  0  0  0  0  0  0  0  0  0
   -1.7086    3.2565   -0.4866 H   0  0  0  0  0  0  0  0  0  0  0  0
    0.0658    3.5203    1.2318 H   0  0  0  0  0  0  0  0  0  0  0  0
    1.2143    1.5258    2.1731 H   0  0  0  0  0  0  0  0  0  0  0  0
    0.6123   -0.7570    1.3955 H   0  0  0  0  0  0  0  0  0  0  0  0
   -1.1474   -1.0472   -0.3427 H   0  0  0  0  0  0  0  0  0  0  0  0
   -3.9137    4.4128   -1.2011 S   0  0  0  0  0  0  0  0  0  0  0  0
   -5.3304    4.1788   -0.0227 C   0  0  0  0  0  0  0  0  0  0  0  0
   -2.8555    5.0226   -0.3553 O   0  0  0  0  0  0  0  0  0  0  0  0
   -4.4538    5.2308   -2.2906 O   0  0  0  0  0  0  0  0  0  0  0  0
   -3.6020    2.9892   -1.5973 O   0  0  0  0  0  0  0  0  0  0  0  0
   -4.9580    3.3799    0.9986 F   0  0  0  0  0  0  0  0  0  0  0  0
   -5.7257    5.3519    0.4857 F   0  0  0  0  0  0  0  0  0  0  0  0
   -6.3752    3.6042   -0.6367 F   0  0  0  0  0  0  0  0  0  0  0  0
  1  4  2  0  0  0  0
  1  8  1  0  0  0  0
  2  1  1  0  0  0  0
  3  2  1  0  0  0  0
  4  5  1  0  0  0  0
  5 10  1  0  0  0  0
  5  6  2  0  0  0  0
  6 11  1  0  0  0  0
  7 12  1  0  0  0  0
  7  6  1  0  0  0  0
  8  7  2  0  0  0  0
  9  4  1  0  0  0  0
 13  8  1  0  0  0  0
 14 16  1  0  0  0  0
 14 15  1  0  0  0  0
 15 20  1  0  0  0  0
 15 19  1  0  0  0  0
 17 14  2  0  0  0  0
 18 14  2  0  0  0  0
 21 15  1  0  0  0  0
M  RAD  3   2   2   3   3  16   2
M  END
