Coordinates from ORCA-job PhN2+~TfO-_B3LYPG-6-31G_dp-NX-Scan-d89-09-n800
 OpenBabel11261920253D

 21 20  0  0  0  0  0  0  0  0999 V2000
   -1.5015   -0.3491   -0.3476 C   0  0  0  0  0  0  0  0  0  0  0  0
   -1.4308   -1.6032   -0.8235 N   0  0  0  0  0  0  0  0  0  0  0  0
   -1.3774   -2.6566   -1.2249 N   0  0  0  0  0  0  0  0  0  0  0  0
   -2.6105    0.0141    0.4742 C   0  0  0  0  0  0  0  0  0  0  0  0
   -2.6716    1.3010    0.9394 C   0  0  0  0  0  0  0  0  0  0  0  0
   -1.6718    2.2432    0.5837 C   0  0  0  0  0  0  0  0  0  0  0  0
   -0.5538    1.8460   -0.1912 C   0  0  0  0  0  0  0  0  0  0  0  0
   -0.4626    0.5677   -0.6800 C   0  0  0  0  0  0  0  0  0  0  0  0
   -3.3738   -0.7202    0.7070 H   0  0  0  0  0  0  0  0  0  0  0  0
   -3.5094    1.6452    1.5338 H   0  0  0  0  0  0  0  0  0  0  0  0
   -1.6781    3.2135    1.0571 H   0  0  0  0  0  0  0  0  0  0  0  0
    0.2160    2.5715   -0.4273 H   0  0  0  0  0  0  0  0  0  0  0  0
    0.3695    0.2426   -1.2947 H   0  0  0  0  0  0  0  0  0  0  0  0
   -3.8809    4.3261   -0.3652 S   0  0  0  0  0  0  0  0  0  0  0  0
   -2.8815    5.8771   -0.1389 C   0  0  0  0  0  0  0  0  0  0  0  0
   -2.8614    3.3964   -0.9921 O   0  0  0  0  0  0  0  0  0  0  0  0
   -4.9717    4.6970   -1.2699 O   0  0  0  0  0  0  0  0  0  0  0  0
   -4.2228    3.9387    1.0197 O   0  0  0  0  0  0  0  0  0  0  0  0
   -1.7871    5.6095    0.6161 F   0  0  0  0  0  0  0  0  0  0  0  0
   -2.4596    6.3599   -1.3138 F   0  0  0  0  0  0  0  0  0  0  0  0
   -3.5919    6.8224    0.4845 F   0  0  0  0  0  0  0  0  0  0  0  0
  1  4  1  0  0  0  0
  2  1  1  0  0  0  0
  3  2  1  0  0  0  0
  4  9  1  0  0  0  0
  4  5  2  0  0  0  0
  5 10  1  0  0  0  0
  6  5  1  0  0  0  0
  6 11  1  0  0  0  0
  7  6  2  0  0  0  0
  8  1  2  0  0  0  0
  8  7  1  0  0  0  0
 12  7  1  0  0  0  0
 13  8  1  0  0  0  0
 14 15  1  0  0  0  0
 14 18  1  0  0  0  0
 15 21  1  0  0  0  0
 15 19  1  0  0  0  0
 16 14  2  0  0  0  0
 17 14  2  0  0  0  0
 20 15  1  0  0  0  0
M  RAD  3   2   2   3   3  18   2
M  END
