Coordinates from ORCA-job PhN2+~TfO-_B3LYPG-6-31G_dp-NX-Scan-d89-09-n800
 OpenBabel11261920253D

 21 21  0  0  0  0  0  0  0  0999 V2000
   -1.3565    1.1918   -0.0092 C   0  0  0  0  0  0  0  0  0  0  0  0
   -2.6220    0.9990   -0.5846 N   0  0  0  0  0  0  0  0  0  0  0  0
   -3.5797    1.5476   -0.9565 N   0  0  0  0  0  0  0  0  0  0  0  0
   -0.8629    2.4628    0.3376 C   0  0  0  0  0  0  0  0  0  0  0  0
    0.4092    2.5376    0.8974 C   0  0  0  0  0  0  0  0  0  0  0  0
    1.1667    1.3809    1.1086 C   0  0  0  0  0  0  0  0  0  0  0  0
    0.6608    0.1251    0.7594 C   0  0  0  0  0  0  0  0  0  0  0  0
   -0.6064    0.0242    0.1969 C   0  0  0  0  0  0  0  0  0  0  0  0
   -1.4674    3.3428    0.1646 H   0  0  0  0  0  0  0  0  0  0  0  0
    0.8101    3.5078    1.1717 H   0  0  0  0  0  0  0  0  0  0  0  0
    2.1565    1.4593    1.5474 H   0  0  0  0  0  0  0  0  0  0  0  0
    1.2517   -0.7694    0.9249 H   0  0  0  0  0  0  0  0  0  0  0  0
   -1.0277   -0.9336   -0.0876 H   0  0  0  0  0  0  0  0  0  0  0  0
   -4.4933    4.1404   -1.5074 S   0  0  0  0  0  0  0  0  0  0  0  0
   -5.9671    4.0263   -0.3769 C   0  0  0  0  0  0  0  0  0  0  0  0
   -3.4427    3.3025   -0.6850 O   0  0  0  0  0  0  0  0  0  0  0  0
   -4.0788    5.5389   -1.5028 O   0  0  0  0  0  0  0  0  0  0  0  0
   -4.8773    3.4674   -2.7426 O   0  0  0  0  0  0  0  0  0  0  0  0
   -6.2980    2.7430   -0.1863 F   0  0  0  0  0  0  0  0  0  0  0  0
   -5.6881    4.5818    0.8059 F   0  0  0  0  0  0  0  0  0  0  0  0
   -6.9999    4.6664   -0.9292 F   0  0  0  0  0  0  0  0  0  0  0  0
  1  8  2  0  0  0  0
  1  4  1  0  0  0  0
  2  1  1  0  0  0  0
  3 16  1  0  0  0  0
  3  2  1  0  0  0  0
  4  5  2  0  0  0  0
  5  6  1  0  0  0  0
  5 10  1  0  0  0  0
  6 11  1  0  0  0  0
  7 12  1  0  0  0  0
  7  6  2  0  0  0  0
  8  7  1  0  0  0  0
  9  4  1  0  0  0  0
 13  8  1  0  0  0  0
 14 17  2  0  0  0  0
 14 16  1  0  0  0  0
 14 15  1  0  0  0  0
 15 19  1  0  0  0  0
 15 20  1  0  0  0  0
 18 14  2  0  0  0  0
 21 15  1  0  0  0  0
M  RAD  2   2   2   3   2
M  END
