Coordinates from ORCA-job PhN2+~TfO-_B3LYPG-6-31G_dp-NX-Scan-d89-09-n800
 OpenBabel11261920253D

 21 21  0  0  0  0  0  0  0  0999 V2000
   -1.1614    1.6455    0.0955 C   0  0  0  0  0  0  0  0  0  0  0  0
   -2.4662    1.9521   -0.3947 N   0  0  0  0  0  0  0  0  0  0  0  0
   -2.8037    3.1693   -0.3613 N   0  0  0  0  0  0  0  0  0  0  0  0
   -0.2002    2.5417    0.5926 C   0  0  0  0  0  0  0  0  0  0  0  0
    1.0330    2.0524    1.0283 C   0  0  0  0  0  0  0  0  0  0  0  0
    1.3207    0.6887    0.9769 C   0  0  0  0  0  0  0  0  0  0  0  0
    0.3627   -0.2004    0.4818 C   0  0  0  0  0  0  0  0  0  0  0  0
   -0.8691    0.2726    0.0434 C   0  0  0  0  0  0  0  0  0  0  0  0
   -0.3861    3.6071    0.6479 H   0  0  0  0  0  0  0  0  0  0  0  0
    1.7720    2.7505    1.4098 H   0  0  0  0  0  0  0  0  0  0  0  0
    2.2831    0.3214    1.3190 H   0  0  0  0  0  0  0  0  0  0  0  0
    0.5759   -1.2642    0.4350 H   0  0  0  0  0  0  0  0  0  0  0  0
   -1.6270   -0.3981   -0.3463 H   0  0  0  0  0  0  0  0  0  0  0  0
   -4.9650    4.6219   -1.1515 S   0  0  2  0  0  0  0  0  0  0  0  0
   -6.6859    3.9362   -0.7731 C   0  0  0  0  0  0  0  0  0  0  0  0
   -2.4760    4.0765   -0.0971 O   0  0  0  0  0  0  0  0  0  0  0  0
   -4.9813    5.0620   -2.5675 O   0  0  0  0  0  0  0  0  0  0  0  0
   -4.3407    3.0953   -0.9858 O   0  0  0  0  0  0  0  0  0  0  0  0
   -6.7082    3.4966    0.4890 F   0  0  0  0  0  0  0  0  0  0  0  0
   -7.5470    4.9550   -0.8938 F   0  0  0  0  0  0  0  0  0  0  0  0
   -7.0424    2.9610   -1.6014 F   0  0  0  0  0  0  0  0  0  0  0  0
  1  4  1  0  0  0  0
  2  3  1  0  0  0  0
  2  1  1  0  0  0  0
  3 16  1  0  0  0  0
  4  9  1  0  0  0  0
  4  5  2  0  0  0  0
  5 10  1  0  0  0  0
  6  5  1  0  0  0  0
  6 11  1  0  0  0  0
  7  6  2  0  0  0  0
  8  1  2  0  0  0  0
  8  7  1  0  0  0  0
 12  7  1  0  0  0  0
 13  8  1  0  0  0  0
 14 17  1  6  0  0  0
 14 18  1  0  0  0  0
 14 15  1  0  0  0  0
 15 19  1  0  0  0  0
 18  3  1  0  0  0  0
 20 15  1  0  0  0  0
 21 15  1  0  0  0  0
M  RAD  3   2   2  16   2  17   2
M  END
