Coordinates from ORCA-job PhN2+~TfO-_B3LYPG-6-31G_dp-NX-Scan-d89-09-n800
 OpenBabel11261920253D

 21 20  0  0  0  0  0  0  0  0999 V2000
   -1.3166    1.0454   -0.3865 C   0  0  0  0  0  0  0  0  0  0  0  0
   -2.3872    0.9672   -1.2745 N   0  0  0  0  0  0  0  0  0  0  0  0
   -3.3790    1.1604   -1.7747 N   0  0  0  0  0  0  0  0  0  0  0  0
   -1.2375    2.1596    0.4648 C   0  0  0  0  0  0  0  0  0  0  0  0
   -0.1491    2.2066    1.3316 C   0  0  0  0  0  0  0  0  0  0  0  0
    0.8030    1.1829    1.3412 C   0  0  0  0  0  0  0  0  0  0  0  0
    0.6941    0.0867    0.4754 C   0  0  0  0  0  0  0  0  0  0  0  0
   -0.3712    0.0088   -0.4110 C   0  0  0  0  0  0  0  0  0  0  0  0
   -1.9842    2.9538    0.4207 H   0  0  0  0  0  0  0  0  0  0  0  0
   -0.0489    3.0549    2.0006 H   0  0  0  0  0  0  0  0  0  0  0  0
    1.6439    1.2396    2.0260 H   0  0  0  0  0  0  0  0  0  0  0  0
    1.4411   -0.7000    0.4904 H   0  0  0  0  0  0  0  0  0  0  0  0
   -0.4853   -0.8221   -1.0986 H   0  0  0  0  0  0  0  0  0  0  0  0
   -4.1986    3.9029   -0.9003 S   0  0  0  0  0  0  0  0  0  0  0  0
   -5.7692    4.7911   -0.4545 C   0  0  0  0  0  0  0  0  0  0  0  0
   -3.1437    4.5680   -0.1012 O   0  0  0  0  0  0  0  0  0  0  0  0
   -4.0808    3.9991   -2.3633 O   0  0  0  0  0  0  0  0  0  0  0  0
   -4.4691    2.4966   -0.4067 O   0  0  0  0  0  0  0  0  0  0  0  0
   -5.9860    4.7214    0.8654 F   0  0  0  0  0  0  0  0  0  0  0  0
   -5.6781    6.0788   -0.8082 F   0  0  0  0  0  0  0  0  0  0  0  0
   -6.8103    4.2412   -1.0903 F   0  0  0  0  0  0  0  0  0  0  0  0
  1  4  1  0  0  0  0
  2  1  1  0  0  0  0
  3  2  1  0  0  0  0
  4  5  2  0  0  0  0
  5  6  1  0  0  0  0
  5 10  1  0  0  0  0
  6 11  1  0  0  0  0
  7 12  1  0  0  0  0
  7  6  2  0  0  0  0
  8  1  2  0  0  0  0
  8  7  1  0  0  0  0
  9  4  1  0  0  0  0
 13  8  1  0  0  0  0
 14 15  1  0  0  0  0
 14 18  2  0  0  0  0
 14 16  1  0  0  0  0
 15 19  1  0  0  0  0
 17 14  2  0  0  0  0
 20 15  1  0  0  0  0
 21 15  1  0  0  0  0
M  RAD  3   2   2   3   3  16   2
M  END
