Coordinates from ORCA-job PhN2+~TfO-_B3LYPG-6-31G_dp-NX-Scan-d89-09-n800
 OpenBabel11261920253D

 21 20  0  0  0  0  0  0  0  0999 V2000
   -1.5239   -0.6369   -0.3924 C   0  0  0  0  0  0  0  0  0  0  0  0
   -1.6096   -1.8664   -0.9633 N   0  0  0  0  0  0  0  0  0  0  0  0
   -1.6994   -2.8778   -1.4398 N   0  0  0  0  0  0  0  0  0  0  0  0
   -2.7065    0.1420   -0.3028 C   0  0  0  0  0  0  0  0  0  0  0  0
   -2.5980    1.4025    0.2508 C   0  0  0  0  0  0  0  0  0  0  0  0
   -1.3475    1.8706    0.7017 C   0  0  0  0  0  0  0  0  0  0  0  0
   -0.1938    1.0701    0.6138 C   0  0  0  0  0  0  0  0  0  0  0  0
   -0.2567   -0.1957    0.0628 C   0  0  0  0  0  0  0  0  0  0  0  0
   -3.6482   -0.2455   -0.6754 H   0  0  0  0  0  0  0  0  0  0  0  0
   -3.4589    2.0765    0.2985 H   0  0  0  0  0  0  0  0  0  0  0  0
   -1.3048    2.8963    1.0733 H   0  0  0  0  0  0  0  0  0  0  0  0
    0.7586    1.4518    0.9654 H   0  0  0  0  0  0  0  0  0  0  0  0
    0.6149   -0.8336   -0.0335 H   0  0  0  0  0  0  0  0  0  0  0  0
   -3.1322    4.7350   -0.2780 S   0  0  0  0  0  0  0  0  0  0  0  0
   -3.8172    6.4581   -0.1937 C   0  0  0  0  0  0  0  0  0  0  0  0
   -2.6513    4.5766   -1.6638 O   0  0  0  0  0  0  0  0  0  0  0  0
   -4.3013    3.8837    0.0830 O   0  0  0  0  0  0  0  0  0  0  0  0
   -2.0617    4.7429    0.7603 O   0  0  0  0  0  0  0  0  0  0  0  0
   -2.8640    7.3592   -0.4768 F   0  0  0  0  0  0  0  0  0  0  0  0
   -4.8168    6.6116   -1.0762 F   0  0  0  0  0  0  0  0  0  0  0  0
   -4.2944    6.7216    1.0326 F   0  0  0  0  0  0  0  0  0  0  0  0
  1  4  2  0  0  0  0
  1  8  1  0  0  0  0
  2  1  1  0  0  0  0
  3  2  1  0  0  0  0
  4  5  1  0  0  0  0
  5 10  1  0  0  0  0
  5  6  2  0  0  0  0
  6 11  1  0  0  0  0
  7  6  1  0  0  0  0
  7 12  1  0  0  0  0
  8  7  2  0  0  0  0
  9  4  1  0  0  0  0
 13  8  1  0  0  0  0
 14 15  1  0  0  0  0
 14 17  2  0  0  0  0
 14 18  1  0  0  0  0
 15 21  1  0  0  0  0
 16 14  2  0  0  0  0
 19 15  1  0  0  0  0
 20 15  1  0  0  0  0
M  RAD  3   2   2   3   3  18   2
M  END
