Coordinates from ORCA-job PhN2+~TfO-_B3LYPG-6-31G_dp-NX-Scan-d89-09-n800
 OpenBabel11261920253D

 21 20  0  0  0  0  0  0  0  0999 V2000
   -1.2514    1.0908   -0.4780 C   0  0  0  0  0  0  0  0  0  0  0  0
   -2.2090    1.0270   -1.4862 N   0  0  0  0  0  0  0  0  0  0  0  0
   -3.1346    1.2103   -2.1005 N   0  0  0  0  0  0  0  0  0  0  0  0
   -1.2232    2.2400    0.3276 C   0  0  0  0  0  0  0  0  0  0  0  0
   -0.2537    2.2746    1.3266 C   0  0  0  0  0  0  0  0  0  0  0  0
    0.6316    1.2068    1.5019 C   0  0  0  0  0  0  0  0  0  0  0  0
    0.5769    0.0776    0.6737 C   0  0  0  0  0  0  0  0  0  0  0  0
   -0.3672    0.0094   -0.3414 C   0  0  0  0  0  0  0  0  0  0  0  0
   -1.9169    3.0632    0.1379 H   0  0  0  0  0  0  0  0  0  0  0  0
   -0.1930    3.1466    1.9695 H   0  0  0  0  0  0  0  0  0  0  0  0
    1.3782    1.2539    2.2892 H   0  0  0  0  0  0  0  0  0  0  0  0
    1.2716   -0.7429    0.8189 H   0  0  0  0  0  0  0  0  0  0  0  0
   -0.4379   -0.8470   -1.0030 H   0  0  0  0  0  0  0  0  0  0  0  0
   -4.2985    3.8759   -1.2196 S   0  0  0  0  0  0  0  0  0  0  0  0
   -5.5978    4.7000   -0.1748 C   0  0  0  0  0  0  0  0  0  0  0  0
   -3.0132    4.4495   -0.7454 O   0  0  0  0  0  0  0  0  0  0  0  0
   -4.6703    4.1527   -2.6104 O   0  0  0  0  0  0  0  0  0  0  0  0
   -4.4465    2.4287   -0.7985 O   0  0  0  0  0  0  0  0  0  0  0  0
   -5.3557    4.4879    1.1278 F   0  0  0  0  0  0  0  0  0  0  0  0
   -5.5918    6.0195   -0.4001 F   0  0  0  0  0  0  0  0  0  0  0  0
   -6.8104    4.2181   -0.4688 F   0  0  0  0  0  0  0  0  0  0  0  0
  1  8  2  0  0  0  0
  1  4  1  0  0  0  0
  2  1  1  0  0  0  0
  3  2  1  0  0  0  0
  4  5  2  0  0  0  0
  5  6  1  0  0  0  0
  5 10  1  0  0  0  0
  6 11  1  0  0  0  0
  7 12  1  0  0  0  0
  7  6  2  0  0  0  0
  8  7  1  0  0  0  0
  9  4  1  0  0  0  0
 13  8  1  0  0  0  0
 14 18  2  0  0  0  0
 14 16  1  0  0  0  0
 14 15  1  0  0  0  0
 15 19  1  0  0  0  0
 17 14  2  0  0  0  0
 20 15  1  0  0  0  0
 21 15  1  0  0  0  0
M  RAD  3   2   2   3   3  16   2
M  END
