Coordinates from ORCA-job PhN2+~TfO-_B3LYPG-6-31G_dp-NX-Scan-d89-09-n800
 OpenBabel11261920253D

 21 21  0  0  0  0  0  0  0  0999 V2000
   -1.1767    1.6486    0.1083 C   0  0  0  0  0  0  0  0  0  0  0  0
   -2.4850    1.9518   -0.3574 N   0  0  0  0  0  0  0  0  0  0  0  0
   -2.8418    3.1604   -0.3481 N   0  0  0  0  0  0  0  0  0  0  0  0
   -0.1986    2.5478    0.5688 C   0  0  0  0  0  0  0  0  0  0  0  0
    1.0400    2.0569    0.9853 C   0  0  0  0  0  0  0  0  0  0  0  0
    1.3182    0.6903    0.9517 C   0  0  0  0  0  0  0  0  0  0  0  0
    0.3447   -0.2018    0.4935 C   0  0  0  0  0  0  0  0  0  0  0  0
   -0.8930    0.2723    0.0742 C   0  0  0  0  0  0  0  0  0  0  0  0
   -0.3820    3.6133    0.6069 H   0  0  0  0  0  0  0  0  0  0  0  0
    1.7922    2.7560    1.3383 H   0  0  0  0  0  0  0  0  0  0  0  0
    2.2857    0.3229    1.2793 H   0  0  0  0  0  0  0  0  0  0  0  0
    0.5507   -1.2676    0.4612 H   0  0  0  0  0  0  0  0  0  0  0  0
   -1.6635   -0.4000   -0.2872 H   0  0  0  0  0  0  0  0  0  0  0  0
   -4.9592    4.6571   -1.0731 S   0  0  2  0  0  0  0  0  0  0  0  0
   -6.6762    3.9070   -0.8021 C   0  0  0  0  0  0  0  0  0  0  0  0
   -2.4620    4.1146   -0.0847 O   0  0  0  0  0  0  0  0  0  0  0  0
   -4.9132    5.1171   -2.4795 O   0  0  0  0  0  0  0  0  0  0  0  0
   -4.3254    3.1053   -0.9163 O   0  0  0  0  0  0  0  0  0  0  0  0
   -6.7539    3.4405    0.4470 F   0  0  0  0  0  0  0  0  0  0  0  0
   -7.5547    4.9071   -0.9499 F   0  0  0  0  0  0  0  0  0  0  0  0
   -6.9593    2.9432   -1.6699 F   0  0  0  0  0  0  0  0  0  0  0  0
  1  4  1  0  0  0  0
  2  3  1  0  0  0  0
  2  1  1  0  0  0  0
  3 16  1  0  0  0  0
  4  9  1  0  0  0  0
  4  5  2  0  0  0  0
  5 10  1  0  0  0  0
  6  5  1  0  0  0  0
  6 11  1  0  0  0  0
  7  6  2  0  0  0  0
  8  1  2  0  0  0  0
  8  7  1  0  0  0  0
 12  7  1  0  0  0  0
 13  8  1  0  0  0  0
 14 17  1  6  0  0  0
 14 18  1  0  0  0  0
 14 15  1  0  0  0  0
 15 19  1  0  0  0  0
 18  3  1  0  0  0  0
 20 15  1  0  0  0  0
 21 15  1  0  0  0  0
M  RAD  3   2   2  16   2  17   2
M  END
