Coordinates from ORCA-job PhN2+~TfO-_B3LYPG-6-31G_dp-NX-Scan-d89-09-n800
 OpenBabel11261920253D

 21 20  0  0  0  0  0  0  0  0999 V2000
   -1.5392   -0.7346   -0.2546 C   0  0  0  0  0  0  0  0  0  0  0  0
   -1.6984   -2.0320   -0.6239 N   0  0  0  0  0  0  0  0  0  0  0  0
   -1.8547   -3.0975   -0.9381 N   0  0  0  0  0  0  0  0  0  0  0  0
   -2.6468    0.1399   -0.4033 C   0  0  0  0  0  0  0  0  0  0  0  0
   -2.4647    1.4637   -0.0536 C   0  0  0  0  0  0  0  0  0  0  0  0
   -1.2146    1.8989    0.4297 C   0  0  0  0  0  0  0  0  0  0  0  0
   -0.1390    1.0056    0.5854 C   0  0  0  0  0  0  0  0  0  0  0  0
   -0.2767   -0.3264    0.2425 C   0  0  0  0  0  0  0  0  0  0  0  0
   -3.5906   -0.2312   -0.7882 H   0  0  0  0  0  0  0  0  0  0  0  0
   -3.2693    2.2011   -0.1716 H   0  0  0  0  0  0  0  0  0  0  0  0
   -1.1230    2.9652    0.6505 H   0  0  0  0  0  0  0  0  0  0  0  0
    0.8127    1.3627    0.9643 H   0  0  0  0  0  0  0  0  0  0  0  0
    0.5346   -1.0397    0.3361 H   0  0  0  0  0  0  0  0  0  0  0  0
   -3.1162    4.9132   -0.5245 S   0  0  0  0  0  0  0  0  0  0  0  0
   -3.9498    6.4613    0.0697 C   0  0  0  0  0  0  0  0  0  0  0  0
   -2.6990    5.2031   -1.9063 O   0  0  0  0  0  0  0  0  0  0  0  0
   -4.1874    3.8832   -0.3859 O   0  0  0  0  0  0  0  0  0  0  0  0
   -2.0034    4.7365    0.4527 O   0  0  0  0  0  0  0  0  0  0  0  0
   -3.1019    7.5008    0.0279 F   0  0  0  0  0  0  0  0  0  0  0  0
   -5.0113    6.7523   -0.6984 F   0  0  0  0  0  0  0  0  0  0  0  0
   -4.3743    6.3166    1.3357 F   0  0  0  0  0  0  0  0  0  0  0  0
  1  8  1  0  0  0  0
  2  1  1  0  0  0  0
  3  2  1  0  0  0  0
  4  1  2  0  0  0  0
  4  5  1  0  0  0  0
  5  6  2  0  0  0  0
  6  7  1  0  0  0  0
  6 11  1  0  0  0  0
  7 12  1  0  0  0  0
  8 13  1  0  0  0  0
  8  7  2  0  0  0  0
  9  4  1  0  0  0  0
 10  5  1  0  0  0  0
 14 17  2  0  0  0  0
 14 15  1  0  0  0  0
 14 18  1  0  0  0  0
 15 21  1  0  0  0  0
 16 14  2  0  0  0  0
 19 15  1  0  0  0  0
 20 15  1  0  0  0  0
M  RAD  3   2   2   3   3  18   2
M  END
