Coordinates from ORCA-job PhN2+~TfO-_B3LYPG-6-31G_dp-NX-Scan-d89-09-n800
 OpenBabel11261920253D

 21 20  0  0  0  0  0  0  0  0999 V2000
   -1.3403    1.0728   -0.5705 C   0  0  0  0  0  0  0  0  0  0  0  0
   -2.2068    0.9057   -1.6384 N   0  0  0  0  0  0  0  0  0  0  0  0
   -2.8661    0.7197   -2.5158 N   0  0  0  0  0  0  0  0  0  0  0  0
   -1.1662    2.3535   -0.0247 C   0  0  0  0  0  0  0  0  0  0  0  0
   -0.2602    2.4563    1.0283 C   0  0  0  0  0  0  0  0  0  0  0  0
    0.4202    1.3327    1.5040 C   0  0  0  0  0  0  0  0  0  0  0  0
    0.2171    0.0667    0.9336 C   0  0  0  0  0  0  0  0  0  0  0  0
   -0.6681   -0.0822   -0.1219 C   0  0  0  0  0  0  0  0  0  0  0  0
   -1.7329    3.2176   -0.3891 H   0  0  0  0  0  0  0  0  0  0  0  0
   -0.1018    3.4285    1.4823 H   0  0  0  0  0  0  0  0  0  0  0  0
    1.1157    1.4374    2.3312 H   0  0  0  0  0  0  0  0  0  0  0  0
    0.7480   -0.7987    1.3144 H   0  0  0  0  0  0  0  0  0  0  0  0
   -0.8500   -1.0449   -0.5861 H   0  0  0  0  0  0  0  0  0  0  0  0
   -4.0983    4.1111   -1.2234 S   0  0  0  0  0  0  0  0  0  0  0  0
   -5.4092    4.4661    0.0417 C   0  0  0  0  0  0  0  0  0  0  0  0
   -2.8741    4.7264   -0.6391 O   0  0  0  0  0  0  0  0  0  0  0  0
   -4.5991    4.7006   -2.4694 O   0  0  0  0  0  0  0  0  0  0  0  0
   -4.0199    2.6140   -1.2112 O   0  0  0  0  0  0  0  0  0  0  0  0
   -5.0560    3.9606    1.2380 F   0  0  0  0  0  0  0  0  0  0  0  0
   -5.5886    5.7865    0.1807 F   0  0  0  0  0  0  0  0  0  0  0  0
   -6.5761    3.9123   -0.3180 F   0  0  0  0  0  0  0  0  0  0  0  0
  1  8  2  0  0  0  0
  1  4  1  0  0  0  0
  2  1  1  0  0  0  0
  3  2  1  0  0  0  0
  4  5  2  0  0  0  0
  5 10  1  0  0  0  0
  5  6  1  0  0  0  0
  6 11  1  0  0  0  0
  7 12  1  0  0  0  0
  7  6  2  0  0  0  0
  8  7  1  0  0  0  0
  9  4  1  0  0  0  0
 13  8  1  0  0  0  0
 14 18  2  0  0  0  0
 14 16  1  0  0  0  0
 14 15  1  0  0  0  0
 15 20  1  0  0  0  0
 15 19  1  0  0  0  0
 17 14  2  0  0  0  0
 21 15  1  0  0  0  0
M  RAD  3   2   2   3   3  16   2
M  END
