Coordinates from ORCA-job PhN2+~TfO-_B3LYPG-6-31G_dp-NX-Scan-d89-09-n800
 OpenBabel11261920253D

 21 20  0  0  0  0  0  0  0  0999 V2000
   -1.5258   -0.7016   -0.3190 C   0  0  0  0  0  0  0  0  0  0  0  0
   -1.6441   -1.9717   -0.7856 N   0  0  0  0  0  0  0  0  0  0  0  0
   -1.7642   -3.0153   -1.1788 N   0  0  0  0  0  0  0  0  0  0  0  0
   -2.6749    0.1303   -0.3529 C   0  0  0  0  0  0  0  0  0  0  0  0
   -2.5334    1.4300    0.0925 C   0  0  0  0  0  0  0  0  0  0  0  0
   -1.2831    1.8839    0.5582 C   0  0  0  0  0  0  0  0  0  0  0  0
   -0.1647    1.0311    0.5975 C   0  0  0  0  0  0  0  0  0  0  0  0
   -0.2609   -0.2752    0.1565 C   0  0  0  0  0  0  0  0  0  0  0  0
   -3.6171   -0.2512   -0.7309 H   0  0  0  0  0  0  0  0  0  0  0  0
   -3.3682    2.1396    0.0518 H   0  0  0  0  0  0  0  0  0  0  0  0
   -1.2192    2.9356    0.8475 H   0  0  0  0  0  0  0  0  0  0  0  0
    0.7874    1.4019    0.9618 H   0  0  0  0  0  0  0  0  0  0  0  0
    0.5837   -0.9552    0.1587 H   0  0  0  0  0  0  0  0  0  0  0  0
   -3.1265    4.8312   -0.4095 S   0  0  0  0  0  0  0  0  0  0  0  0
   -3.8902    6.4847   -0.0523 C   0  0  0  0  0  0  0  0  0  0  0  0
   -2.6761    4.9062   -1.8106 O   0  0  0  0  0  0  0  0  0  0  0  0
   -4.2468    3.8798   -0.1546 O   0  0  0  0  0  0  0  0  0  0  0  0
   -2.0340    4.7384    0.6018 O   0  0  0  0  0  0  0  0  0  0  0  0
   -2.9873    7.4655   -0.2080 F   0  0  0  0  0  0  0  0  0  0  0  0
   -4.9157    6.7205   -0.8852 F   0  0  0  0  0  0  0  0  0  0  0  0
   -4.3516    6.5341    1.2074 F   0  0  0  0  0  0  0  0  0  0  0  0
  1  8  1  0  0  0  0
  2  1  1  0  0  0  0
  3  2  1  0  0  0  0
  4  1  2  0  0  0  0
  4  5  1  0  0  0  0
  5  6  2  0  0  0  0
  6  7  1  0  0  0  0
  6 11  1  0  0  0  0
  7 12  1  0  0  0  0
  8 13  1  0  0  0  0
  8  7  2  0  0  0  0
  9  4  1  0  0  0  0
 10  5  1  0  0  0  0
 14 17  2  0  0  0  0
 14 15  1  0  0  0  0
 14 18  1  0  0  0  0
 15 21  1  0  0  0  0
 16 14  2  0  0  0  0
 19 15  1  0  0  0  0
 20 15  1  0  0  0  0
M  RAD  3   2   2   3   3  18   2
M  END
