Coordinates from ORCA-job PhN2+~TfO-_B3LYPG-6-31G_dp-NX-Scan-d89-09-n800
 OpenBabel11261920253D

 21 20  0  0  0  0  0  0  0  0999 V2000
   -1.4800    1.3254   -0.3205 C   0  0  0  0  0  0  0  0  0  0  0  0
   -2.4790    1.1981   -1.2749 N   0  0  0  0  0  0  0  0  0  0  0  0
   -3.2811    1.0346   -2.0421 N   0  0  0  0  0  0  0  0  0  0  0  0
   -1.1686    2.5960    0.1858 C   0  0  0  0  0  0  0  0  0  0  0  0
   -0.1523    2.6627    1.1348 C   0  0  0  0  0  0  0  0  0  0  0  0
    0.5097    1.5056    1.5538 C   0  0  0  0  0  0  0  0  0  0  0  0
    0.1731    0.2497    1.0300 C   0  0  0  0  0  0  0  0  0  0  0  0
   -0.8300    0.1423    0.0782 C   0  0  0  0  0  0  0  0  0  0  0  0
   -1.7180    3.4610   -0.1838 H   0  0  0  0  0  0  0  0  0  0  0  0
    0.1201    3.6273    1.5488 H   0  0  0  0  0  0  0  0  0  0  0  0
    1.2981    1.5784    2.2969 H   0  0  0  0  0  0  0  0  0  0  0  0
    0.6937   -0.6410    1.3638 H   0  0  0  0  0  0  0  0  0  0  0  0
   -1.1140   -0.8128   -0.3490 H   0  0  0  0  0  0  0  0  0  0  0  0
   -4.3374    4.1490   -1.7278 S   0  0  0  0  0  0  0  0  0  0  0  0
   -5.0242    3.7704   -0.0430 C   0  0  0  0  0  0  0  0  0  0  0  0
   -2.8931    4.3604   -1.4340 O   0  0  0  0  0  0  0  0  0  0  0  0
   -5.0897    5.3110   -2.1998 O   0  0  0  0  0  0  0  0  0  0  0  0
   -4.5996    2.8674   -2.4604 O   0  0  0  0  0  0  0  0  0  0  0  0
   -4.3775    2.6856    0.4723 F   0  0  0  0  0  0  0  0  0  0  0  0
   -4.8361    4.7888    0.8048 F   0  0  0  0  0  0  0  0  0  0  0  0
   -6.3271    3.4830   -0.0874 F   0  0  0  0  0  0  0  0  0  0  0  0
  1  8  2  0  0  0  0
  1  4  1  0  0  0  0
  2  1  1  0  0  0  0
  3  2  1  0  0  0  0
  4  5  2  0  0  0  0
  5 10  1  0  0  0  0
  5  6  1  0  0  0  0
  6 11  1  0  0  0  0
  7 12  1  0  0  0  0
  7  6  2  0  0  0  0
  8  7  1  0  0  0  0
  9  4  1  0  0  0  0
 13  8  1  0  0  0  0
 14 16  1  0  0  0  0
 14 15  1  0  0  0  0
 15 19  1  0  0  0  0
 15 20  1  0  0  0  0
 17 14  2  0  0  0  0
 18 14  2  0  0  0  0
 21 15  1  0  0  0  0
M  RAD  3   2   2   3   3  16   2
M  END
