Coordinates from ORCA-job PhN2+~TfO-_B3LYPG-6-31G_dp-NX-Scan-d89-09-n800
 OpenBabel11261920253D

 21 20  0  0  0  0  0  0  0  0999 V2000
   -1.5977    1.0468   -0.1243 C   0  0  0  0  0  0  0  0  0  0  0  0
   -2.8726    0.9788   -0.6815 N   0  0  0  0  0  0  0  0  0  0  0  0
   -3.9539    1.2826   -0.8251 N   0  0  0  0  0  0  0  0  0  0  0  0
   -1.3925    1.8910    0.9793 C   0  0  0  0  0  0  0  0  0  0  0  0
   -0.1102    1.9356    1.5149 C   0  0  0  0  0  0  0  0  0  0  0  0
    0.9194    1.1691    0.9578 C   0  0  0  0  0  0  0  0  0  0  0  0
    0.6848    0.3365   -0.1426 C   0  0  0  0  0  0  0  0  0  0  0  0
   -0.5878    0.2625   -0.6961 C   0  0  0  0  0  0  0  0  0  0  0  0
   -2.2204    2.4705    1.3713 H   0  0  0  0  0  0  0  0  0  0  0  0
    0.0861    2.5781    2.3665 H   0  0  0  0  0  0  0  0  0  0  0  0
    1.9161    1.2213    1.3849 H   0  0  0  0  0  0  0  0  0  0  0  0
    1.4919   -0.2505   -0.5667 H   0  0  0  0  0  0  0  0  0  0  0  0
   -0.8053   -0.3693   -1.5499 H   0  0  0  0  0  0  0  0  0  0  0  0
   -3.9722    4.1804   -0.2545 S   0  0  0  0  0  0  0  0  0  0  0  0
   -5.5641    4.5536   -1.1348 C   0  0  0  0  0  0  0  0  0  0  0  0
   -3.7305    5.3127    0.6407 O   0  0  0  0  0  0  0  0  0  0  0  0
   -2.9975    3.9099   -1.3279 O   0  0  0  0  0  0  0  0  0  0  0  0
   -4.3274    2.9063    0.5120 O   0  0  0  0  0  0  0  0  0  0  0  0
   -6.5497    4.7659   -0.2569 F   0  0  0  0  0  0  0  0  0  0  0  0
   -5.4243    5.6422   -1.8999 F   0  0  0  0  0  0  0  0  0  0  0  0
   -5.9052    3.5187   -1.9210 F   0  0  0  0  0  0  0  0  0  0  0  0
  1  4  2  0  0  0  0
  2  1  1  0  0  0  0
  3  2  1  0  0  0  0
  4  9  1  0  0  0  0
  4  5  1  0  0  0  0
  5 10  1  0  0  0  0
  6 11  1  0  0  0  0
  6  5  2  0  0  0  0
  7  6  1  0  0  0  0
  8  7  2  0  0  0  0
  8  1  1  0  0  0  0
 12  7  1  0  0  0  0
 13  8  1  0  0  0  0
 14 18  2  0  0  0  0
 14 16  1  0  0  0  0
 15 19  1  0  0  0  0
 15 14  1  0  0  0  0
 17 14  2  0  0  0  0
 20 15  1  0  0  0  0
 21 15  1  0  0  0  0
M  RAD  3   2   2   3   3  16   2
M  END
