Coordinates from ORCA-job PhN2+~TfO-_B3LYPG-6-31G_dp-NX-Scan-d89-09-n800
 OpenBabel11261920253D

 21 20  0  0  0  0  0  0  0  0999 V2000
   -1.5844   -0.1603   -0.3803 C   0  0  0  0  0  0  0  0  0  0  0  0
   -1.7310   -1.2373   -1.1688 N   0  0  0  0  0  0  0  0  0  0  0  0
   -1.8809   -2.1146   -1.8591 N   0  0  0  0  0  0  0  0  0  0  0  0
   -2.6035    0.1263    0.5726 C   0  0  0  0  0  0  0  0  0  0  0  0
   -2.5442    1.3322    1.2195 C   0  0  0  0  0  0  0  0  0  0  0  0
   -1.5254    2.2583    0.8884 C   0  0  0  0  0  0  0  0  0  0  0  0
   -0.4307    1.8806    0.0777 C   0  0  0  0  0  0  0  0  0  0  0  0
   -0.4627    0.6879   -0.5981 C   0  0  0  0  0  0  0  0  0  0  0  0
   -3.4147   -0.5760    0.7283 H   0  0  0  0  0  0  0  0  0  0  0  0
   -3.3340    1.6406    1.8926 H   0  0  0  0  0  0  0  0  0  0  0  0
   -1.5267    3.2278    1.3689 H   0  0  0  0  0  0  0  0  0  0  0  0
    0.3862    2.5745   -0.0837 H   0  0  0  0  0  0  0  0  0  0  0  0
    0.3107    0.3964   -1.2998 H   0  0  0  0  0  0  0  0  0  0  0  0
   -3.8254    4.0754   -0.4353 S   0  0  0  0  0  0  0  0  0  0  0  0
   -2.9097    5.6891   -0.3301 C   0  0  0  0  0  0  0  0  0  0  0  0
   -2.7348    3.1366   -0.9022 O   0  0  0  0  0  0  0  0  0  0  0  0
   -4.8806    4.2938   -1.4297 O   0  0  0  0  0  0  0  0  0  0  0  0
   -4.2320    3.8238    0.9633 O   0  0  0  0  0  0  0  0  0  0  0  0
   -1.8603    5.5694    0.5201 F   0  0  0  0  0  0  0  0  0  0  0  0
   -2.4271    6.0534   -1.5252 F   0  0  0  0  0  0  0  0  0  0  0  0
   -3.7014    6.6649    0.1273 F   0  0  0  0  0  0  0  0  0  0  0  0
  1  4  1  0  0  0  0
  2  1  1  0  0  0  0
  3  2  1  0  0  0  0
  4  9  1  0  0  0  0
  4  5  2  0  0  0  0
  5 10  1  0  0  0  0
  6  5  1  0  0  0  0
  6 11  1  0  0  0  0
  7  6  2  0  0  0  0
  8  1  2  0  0  0  0
  8  7  1  0  0  0  0
 12  7  1  0  0  0  0
 13  8  1  0  0  0  0
 14 15  1  0  0  0  0
 14 18  1  0  0  0  0
 15 21  1  0  0  0  0
 15 19  1  0  0  0  0
 16 14  2  0  0  0  0
 17 14  2  0  0  0  0
 20 15  1  0  0  0  0
M  RAD  3   2   2   3   3  18   2
M  END
