Coordinates from ORCA-job PhN2+~TfO-_B3LYPG-6-31G_dp-NX-Scan-d89-09-n800
 OpenBabel11261920253D

 21 20  0  0  0  0  0  0  0  0999 V2000
   -1.5287   -0.2593   -0.3748 C   0  0  0  0  0  0  0  0  0  0  0  0
   -1.5259   -1.4339   -1.0197 N   0  0  0  0  0  0  0  0  0  0  0  0
   -1.5391   -2.4146   -1.5779 N   0  0  0  0  0  0  0  0  0  0  0  0
   -2.6080    0.0338    0.5123 C   0  0  0  0  0  0  0  0  0  0  0  0
   -2.6517    1.2796    1.0751 C   0  0  0  0  0  0  0  0  0  0  0  0
   -1.6753    2.2533    0.7336 C   0  0  0  0  0  0  0  0  0  0  0  0
   -0.5449    1.8981   -0.0465 C   0  0  0  0  0  0  0  0  0  0  0  0
   -0.4734    0.6634   -0.6344 C   0  0  0  0  0  0  0  0  0  0  0  0
   -3.3694   -0.7145    0.7027 H   0  0  0  0  0  0  0  0  0  0  0  0
   -3.4737    1.5766    1.7150 H   0  0  0  0  0  0  0  0  0  0  0  0
   -1.6988    3.2086    1.2382 H   0  0  0  0  0  0  0  0  0  0  0  0
    0.2281    2.6348   -0.2324 H   0  0  0  0  0  0  0  0  0  0  0  0
    0.3459    0.3781   -1.2848 H   0  0  0  0  0  0  0  0  0  0  0  0
   -3.8609    4.2292   -0.3436 S   0  0  0  0  0  0  0  0  0  0  0  0
   -2.8396    5.7811   -0.2768 C   0  0  0  0  0  0  0  0  0  0  0  0
   -2.8529    3.2295   -0.8860 O   0  0  0  0  0  0  0  0  0  0  0  0
   -4.9514    4.5188   -1.2771 O   0  0  0  0  0  0  0  0  0  0  0  0
   -4.1945    3.9757    1.0723 O   0  0  0  0  0  0  0  0  0  0  0  0
   -1.7385    5.5696    0.4846 F   0  0  0  0  0  0  0  0  0  0  0  0
   -2.4300    6.1458   -1.4977 F   0  0  0  0  0  0  0  0  0  0  0  0
   -3.5302    6.7892    0.2643 F   0  0  0  0  0  0  0  0  0  0  0  0
  1  4  1  0  0  0  0
  2  1  1  0  0  0  0
  3  2  1  0  0  0  0
  4  9  1  0  0  0  0
  4  5  2  0  0  0  0
  5 10  1  0  0  0  0
  6  5  1  0  0  0  0
  6 11  1  0  0  0  0
  7  6  2  0  0  0  0
  8  1  2  0  0  0  0
  8  7  1  0  0  0  0
 12  7  1  0  0  0  0
 13  8  1  0  0  0  0
 14 15  1  0  0  0  0
 14 18  1  0  0  0  0
 15 21  1  0  0  0  0
 15 19  1  0  0  0  0
 16 14  2  0  0  0  0
 17 14  2  0  0  0  0
 20 15  1  0  0  0  0
M  RAD  3   2   2   3   3  18   2
M  END
