Coordinates from ORCA-job PhN2+~TfO-_B3LYPG-6-31G_dp-NX-Scan-d89-09-n800
 OpenBabel11261920253D

 21 20  0  0  0  0  0  0  0  0999 V2000
   -1.1807    1.4070   -0.7174 C   0  0  0  0  0  0  0  0  0  0  0  0
   -1.7661    1.5187   -1.9643 N   0  0  0  0  0  0  0  0  0  0  0  0
   -2.3113    1.7964   -2.8975 N   0  0  0  0  0  0  0  0  0  0  0  0
   -1.3306    2.4962    0.1567 C   0  0  0  0  0  0  0  0  0  0  0  0
   -0.7454    2.3751    1.4115 C   0  0  0  0  0  0  0  0  0  0  0  0
   -0.0506    1.2123    1.7617 C   0  0  0  0  0  0  0  0  0  0  0  0
    0.0797    0.1444    0.8631 C   0  0  0  0  0  0  0  0  0  0  0  0
   -0.4883    0.2285   -0.4006 C   0  0  0  0  0  0  0  0  0  0  0  0
   -1.8877    3.3683   -0.1645 H   0  0  0  0  0  0  0  0  0  0  0  0
   -0.8480    3.1893    2.1207 H   0  0  0  0  0  0  0  0  0  0  0  0
    0.3938    1.1329    2.7488 H   0  0  0  0  0  0  0  0  0  0  0  0
    0.6187   -0.7512    1.1514 H   0  0  0  0  0  0  0  0  0  0  0  0
   -0.4150   -0.5805   -1.1187 H   0  0  0  0  0  0  0  0  0  0  0  0
   -4.5293    3.3722   -1.3460 S   0  0  0  0  0  0  0  0  0  0  0  0
   -4.7513    4.5176    0.1044 C   0  0  0  0  0  0  0  0  0  0  0  0
   -3.2802    3.9242   -1.9788 O   0  0  0  0  0  0  0  0  0  0  0  0
   -5.7616    3.5188   -2.1245 O   0  0  0  0  0  0  0  0  0  0  0  0
   -4.2776    2.0509   -0.7142 O   0  0  0  0  0  0  0  0  0  0  0  0
   -3.6399    4.5127    0.8876 F   0  0  0  0  0  0  0  0  0  0  0  0
   -4.9585    5.7755   -0.2978 F   0  0  0  0  0  0  0  0  0  0  0  0
   -5.7828    4.1333    0.8646 F   0  0  0  0  0  0  0  0  0  0  0  0
  1  8  2  0  0  0  0
  1  4  1  0  0  0  0
  2  1  1  0  0  0  0
  3  2  1  0  0  0  0
  4  5  2  0  0  0  0
  5  6  1  0  0  0  0
  5 10  1  0  0  0  0
  6 11  1  0  0  0  0
  7 12  1  0  0  0  0
  7  6  2  0  0  0  0
  8  7  1  0  0  0  0
  9  4  1  0  0  0  0
 13  8  1  0  0  0  0
 14 18  1  0  0  0  0
 14 15  1  0  0  0  0
 15 21  1  0  0  0  0
 15 19  1  0  0  0  0
 16 14  2  0  0  0  0
 17 14  2  0  0  0  0
 20 15  1  0  0  0  0
M  RAD  3   2   2   3   3  18   2
M  END
