Coordinates from ORCA-job PhN2+~TfO-_B3LYPG-6-31G_dp-NX-Scan-d89-09-n800
 OpenBabel11261920253D

 21 20  0  0  0  0  0  0  0  0999 V2000
   -1.1662    1.4073   -0.6854 C   0  0  0  0  0  0  0  0  0  0  0  0
   -1.7626    1.5384   -1.9332 N   0  0  0  0  0  0  0  0  0  0  0  0
   -2.4075    1.9749   -2.7523 N   0  0  0  0  0  0  0  0  0  0  0  0
   -1.3661    2.4254    0.2600 C   0  0  0  0  0  0  0  0  0  0  0  0
   -0.7578    2.2666    1.5000 C   0  0  0  0  0  0  0  0  0  0  0  0
    0.0118    1.1307    1.7740 C   0  0  0  0  0  0  0  0  0  0  0  0
    0.1947    0.1320    0.8096 C   0  0  0  0  0  0  0  0  0  0  0  0
   -0.3947    0.2625   -0.4415 C   0  0  0  0  0  0  0  0  0  0  0  0
   -1.9737    3.2847    0.0104 H   0  0  0  0  0  0  0  0  0  0  0  0
   -0.8964    3.0304    2.2579 H   0  0  0  0  0  0  0  0  0  0  0  0
    0.4737    1.0206    2.7502 H   0  0  0  0  0  0  0  0  0  0  0  0
    0.7926   -0.7443    1.0349 H   0  0  0  0  0  0  0  0  0  0  0  0
   -0.2775   -0.4919   -1.2115 H   0  0  0  0  0  0  0  0  0  0  0  0
   -4.6277    3.3107   -1.3117 S   0  0  0  0  0  0  0  0  0  0  0  0
   -4.7691    4.6397   -0.0131 C   0  0  0  0  0  0  0  0  0  0  0  0
   -3.3363    3.7402   -2.0009 O   0  0  0  0  0  0  0  0  0  0  0  0
   -5.8365    3.4450   -2.1238 O   0  0  0  0  0  0  0  0  0  0  0  0
   -4.4285    2.0602   -0.5495 O   0  0  0  0  0  0  0  0  0  0  0  0
   -3.6673    4.6482    0.7764 F   0  0  0  0  0  0  0  0  0  0  0  0
   -4.8871    5.8469   -0.5708 F   0  0  0  0  0  0  0  0  0  0  0  0
   -5.8306    4.4147    0.7666 F   0  0  0  0  0  0  0  0  0  0  0  0
  1  8  2  0  0  0  0
  1  4  1  0  0  0  0
  2  1  1  0  0  0  0
  3  2  1  0  0  0  0
  4  5  2  0  0  0  0
  5  6  1  0  0  0  0
  5 10  1  0  0  0  0
  6 11  1  0  0  0  0
  7 12  1  0  0  0  0
  7  6  2  0  0  0  0
  8  7  1  0  0  0  0
  9  4  1  0  0  0  0
 13  8  1  0  0  0  0
 14 18  1  0  0  0  0
 14 15  1  0  0  0  0
 15 21  1  0  0  0  0
 15 19  1  0  0  0  0
 16 14  2  0  0  0  0
 17 14  2  0  0  0  0
 20 15  1  0  0  0  0
M  RAD  3   2   2   3   3  18   2
M  END
