Coordinates from ORCA-job PhN2+~TfO-_B3LYPG-6-31G_dp-NX-Scan-d89-09-n800
 OpenBabel11261920253D

 21 20  0  0  0  0  0  0  0  0999 V2000
   -1.5263   -0.6008   -0.4270 C   0  0  0  0  0  0  0  0  0  0  0  0
   -1.5976   -1.8111   -1.0391 N   0  0  0  0  0  0  0  0  0  0  0  0
   -1.6740   -2.8076   -1.5484 N   0  0  0  0  0  0  0  0  0  0  0  0
   -2.7223    0.1494   -0.2864 C   0  0  0  0  0  0  0  0  0  0  0  0
   -2.6284    1.3907    0.3110 C   0  0  0  0  0  0  0  0  0  0  0  0
   -1.3790    1.8680    0.7556 C   0  0  0  0  0  0  0  0  0  0  0  0
   -0.2111    1.0965    0.6146 C   0  0  0  0  0  0  0  0  0  0  0  0
   -0.2592   -0.1494    0.0188 C   0  0  0  0  0  0  0  0  0  0  0  0
   -3.6630   -0.2434   -0.6560 H   0  0  0  0  0  0  0  0  0  0  0  0
   -3.5004    2.0445    0.3978 H   0  0  0  0  0  0  0  0  0  0  0  0
   -1.3456    2.8795    1.1643 H   0  0  0  0  0  0  0  0  0  0  0  0
    0.7401    1.4859    0.9606 H   0  0  0  0  0  0  0  0  0  0  0  0
    0.6230   -0.7647   -0.1179 H   0  0  0  0  0  0  0  0  0  0  0  0
   -3.1324    4.6909   -0.2005 S   0  0  0  0  0  0  0  0  0  0  0  0
   -3.7776    6.4304   -0.2599 C   0  0  0  0  0  0  0  0  0  0  0  0
   -2.6298    4.4174   -1.5617 O   0  0  0  0  0  0  0  0  0  0  0  0
   -4.3255    3.8922    0.1975 O   0  0  0  0  0  0  0  0  0  0  0  0
   -2.0785    4.7531    0.8525 O   0  0  0  0  0  0  0  0  0  0  0  0
   -2.8014    7.2835   -0.6067 F   0  0  0  0  0  0  0  0  0  0  0  0
   -4.7677    6.5360   -1.1603 F   0  0  0  0  0  0  0  0  0  0  0  0
   -4.2560    6.8018    0.9373 F   0  0  0  0  0  0  0  0  0  0  0  0
  1  4  2  0  0  0  0
  1  8  1  0  0  0  0
  2  1  1  0  0  0  0
  3  2  1  0  0  0  0
  4  5  1  0  0  0  0
  5 10  1  0  0  0  0
  5  6  2  0  0  0  0
  6 11  1  0  0  0  0
  7  6  1  0  0  0  0
  7 12  1  0  0  0  0
  8  7  2  0  0  0  0
  9  4  1  0  0  0  0
 13  8  1  0  0  0  0
 14 17  2  0  0  0  0
 14 18  1  0  0  0  0
 15 14  1  0  0  0  0
 15 21  1  0  0  0  0
 16 14  2  0  0  0  0
 19 15  1  0  0  0  0
 20 15  1  0  0  0  0
M  RAD  3   2   2   3   3  18   2
M  END
