Coordinates from ORCA-job PhN2+~TfO-_B3LYPG-6-31G_dp-NX-Scan-d89-09-n800
 OpenBabel11261920253D

 21 20  0  0  0  0  0  0  0  0999 V2000
   -1.5236   -0.6727   -0.3540 C   0  0  0  0  0  0  0  0  0  0  0  0
   -1.6255   -1.9232   -0.8743 N   0  0  0  0  0  0  0  0  0  0  0  0
   -1.7308   -2.9511   -1.3108 N   0  0  0  0  0  0  0  0  0  0  0  0
   -2.6896    0.1354   -0.3269 C   0  0  0  0  0  0  0  0  0  0  0  0
   -2.5646    1.4170    0.1726 C   0  0  0  0  0  0  0  0  0  0  0  0
   -1.3139    1.8767    0.6313 C   0  0  0  0  0  0  0  0  0  0  0  0
   -0.1779    1.0470    0.6088 C   0  0  0  0  0  0  0  0  0  0  0  0
   -0.2574   -0.2405    0.1128 C   0  0  0  0  0  0  0  0  0  0  0  0
   -3.6316   -0.2482   -0.7031 H   0  0  0  0  0  0  0  0  0  0  0  0
   -3.4123    2.1108    0.1745 H   0  0  0  0  0  0  0  0  0  0  0  0
   -1.2604    2.9171    0.9596 H   0  0  0  0  0  0  0  0  0  0  0  0
    0.7746    1.4221    0.9675 H   0  0  0  0  0  0  0  0  0  0  0  0
    0.6008   -0.9016    0.0665 H   0  0  0  0  0  0  0  0  0  0  0  0
   -3.1304    4.7847   -0.3519 S   0  0  0  0  0  0  0  0  0  0  0  0
   -3.8567    6.4770   -0.1201 C   0  0  0  0  0  0  0  0  0  0  0  0
   -2.6695    4.7480   -1.7518 O   0  0  0  0  0  0  0  0  0  0  0  0
   -4.2736    3.8796   -0.0393 O   0  0  0  0  0  0  0  0  0  0  0  0
   -2.0450    4.7389    0.6703 O   0  0  0  0  0  0  0  0  0  0  0  0
   -2.9298    7.4230   -0.3375 F   0  0  0  0  0  0  0  0  0  0  0  0
   -4.8705    6.6762   -0.9766 F   0  0  0  0  0  0  0  0  0  0  0  0
   -4.3252    6.6265    1.1289 F   0  0  0  0  0  0  0  0  0  0  0  0
  1  4  2  0  0  0  0
  1  8  1  0  0  0  0
  2  1  1  0  0  0  0
  3  2  1  0  0  0  0
  4  5  1  0  0  0  0
  5 10  1  0  0  0  0
  5  6  2  0  0  0  0
  6 11  1  0  0  0  0
  7  6  1  0  0  0  0
  7 12  1  0  0  0  0
  8  7  2  0  0  0  0
  9  4  1  0  0  0  0
 13  8  1  0  0  0  0
 14 15  1  0  0  0  0
 14 17  2  0  0  0  0
 14 18  1  0  0  0  0
 15 21  1  0  0  0  0
 16 14  2  0  0  0  0
 19 15  1  0  0  0  0
 20 15  1  0  0  0  0
M  RAD  3   2   2   3   3  18   2
M  END
