Coordinates from ORCA-job PhN2+~TfO-_B3LYPG-6-31G_dp-NX-Scan-d89-09-n800
 OpenBabel11261920253D

 21 20  0  0  0  0  0  0  0  0999 V2000
   -1.6128    1.0497   -0.1145 C   0  0  0  0  0  0  0  0  0  0  0  0
   -2.8961    0.9783   -0.6495 N   0  0  0  0  0  0  0  0  0  0  0  0
   -3.9823    1.2640   -0.7835 N   0  0  0  0  0  0  0  0  0  0  0  0
   -1.3965    1.8909    0.9893 C   0  0  0  0  0  0  0  0  0  0  0  0
   -0.1074    1.9387    1.5076 C   0  0  0  0  0  0  0  0  0  0  0  0
    0.9176    1.1793    0.9325 C   0  0  0  0  0  0  0  0  0  0  0  0
    0.6717    0.3504   -0.1682 C   0  0  0  0  0  0  0  0  0  0  0  0
   -0.6081    0.2722   -0.7042 C   0  0  0  0  0  0  0  0  0  0  0  0
   -2.2221    2.4649    1.3938 H   0  0  0  0  0  0  0  0  0  0  0  0
    0.0980    2.5785    2.3591 H   0  0  0  0  0  0  0  0  0  0  0  0
    1.9200    1.2342    1.3459 H   0  0  0  0  0  0  0  0  0  0  0  0
    1.4757   -0.2309   -0.6060 H   0  0  0  0  0  0  0  0  0  0  0  0
   -0.8345   -0.3573   -1.5574 H   0  0  0  0  0  0  0  0  0  0  0  0
   -3.9743    4.1823   -0.2106 S   0  0  0  0  0  0  0  0  0  0  0  0
   -5.5293    4.5365   -1.1620 C   0  0  0  0  0  0  0  0  0  0  0  0
   -3.7778    5.3283    0.6791 O   0  0  0  0  0  0  0  0  0  0  0  0
   -2.9543    3.9089   -1.2413 O   0  0  0  0  0  0  0  0  0  0  0  0
   -4.3517    2.9136    0.5508 O   0  0  0  0  0  0  0  0  0  0  0  0
   -6.5537    4.7502   -0.3300 F   0  0  0  0  0  0  0  0  0  0  0  0
   -5.3644    5.6184   -1.9317 F   0  0  0  0  0  0  0  0  0  0  0  0
   -5.8304    3.4917   -1.9526 F   0  0  0  0  0  0  0  0  0  0  0  0
  1  4  2  0  0  0  0
  2  1  1  0  0  0  0
  3  2  1  0  0  0  0
  4  9  1  0  0  0  0
  4  5  1  0  0  0  0
  5 10  1  0  0  0  0
  6 11  1  0  0  0  0
  6  5  2  0  0  0  0
  7  6  1  0  0  0  0
  8  7  2  0  0  0  0
  8  1  1  0  0  0  0
 12  7  1  0  0  0  0
 13  8  1  0  0  0  0
 14 18  2  0  0  0  0
 14 16  1  0  0  0  0
 15 19  1  0  0  0  0
 15 14  1  0  0  0  0
 17 14  2  0  0  0  0
 20 15  1  0  0  0  0
 21 15  1  0  0  0  0
M  RAD  3   2   2   3   3  16   2
M  END
