Coordinates from ORCA-job PhN2+~TfO-_B3LYPG-6-31G_dp-NX-Scan-d89-09-n800
 OpenBabel11261920253D

 21 20  0  0  0  0  0  0  0  0999 V2000
   -1.5048    1.4292   -0.2639 C   0  0  0  0  0  0  0  0  0  0  0  0
   -2.5518    1.3304   -1.1859 N   0  0  0  0  0  0  0  0  0  0  0  0
   -3.2947    0.9177   -1.9149 N   0  0  0  0  0  0  0  0  0  0  0  0
   -1.3230    2.5935    0.4899 C   0  0  0  0  0  0  0  0  0  0  0  0
   -0.2797    2.5997    1.4117 C   0  0  0  0  0  0  0  0  0  0  0  0
    0.5445    1.4815    1.5624 C   0  0  0  0  0  0  0  0  0  0  0  0
    0.3394    0.3294    0.7932 C   0  0  0  0  0  0  0  0  0  0  0  0
   -0.6942    0.2875   -0.1323 C   0  0  0  0  0  0  0  0  0  0  0  0
   -1.9724    3.4412    0.3163 H   0  0  0  0  0  0  0  0  0  0  0  0
   -0.1097    3.4875    2.0112 H   0  0  0  0  0  0  0  0  0  0  0  0
    1.3561    1.5052    2.2834 H   0  0  0  0  0  0  0  0  0  0  0  0
    0.9836   -0.5349    0.9157 H   0  0  0  0  0  0  0  0  0  0  0  0
   -0.8802   -0.5913   -0.7397 H   0  0  0  0  0  0  0  0  0  0  0  0
   -4.3742    3.8274   -1.8263 S   0  0  0  0  0  0  0  0  0  0  0  0
   -5.0158    3.9716   -0.0886 C   0  0  0  0  0  0  0  0  0  0  0  0
   -2.9074    3.6319   -1.5777 O   0  0  0  0  0  0  0  0  0  0  0  0
   -4.7462    5.0784   -2.4825 O   0  0  0  0  0  0  0  0  0  0  0  0
   -5.0040    2.5767   -2.3230 O   0  0  0  0  0  0  0  0  0  0  0  0
   -4.6952    2.8492    0.6038 F   0  0  0  0  0  0  0  0  0  0  0  0
   -4.4428    5.0086    0.5450 F   0  0  0  0  0  0  0  0  0  0  0  0
   -6.3402    4.1224   -0.0515 F   0  0  0  0  0  0  0  0  0  0  0  0
  1  8  2  0  0  0  0
  1  4  1  0  0  0  0
  2  1  1  0  0  0  0
  3  2  1  0  0  0  0
  4  5  2  0  0  0  0
  5  6  1  0  0  0  0
  5 10  1  0  0  0  0
  6 11  1  0  0  0  0
  7 12  1  0  0  0  0
  7  6  2  0  0  0  0
  8  7  1  0  0  0  0
  9  4  1  0  0  0  0
 13  8  1  0  0  0  0
 14 16  1  0  0  0  0
 14 15  1  0  0  0  0
 15 21  1  0  0  0  0
 15 20  1  0  0  0  0
 15 19  1  0  0  0  0
 17 14  2  0  0  0  0
 18 14  2  0  0  0  0
M  RAD  3   2   2   3   3  16   2
M  END
