Coordinates from ORCA-job PhN2+~TfO-_B3LYPG-6-31G_dp-NX-Scan-d89-09-n800
 OpenBabel11261920253D

 21 20  0  0  0  0  0  0  0  0999 V2000
   -1.2614    1.0783   -0.4568 C   0  0  0  0  0  0  0  0  0  0  0  0
   -2.2497    1.0149   -1.4356 N   0  0  0  0  0  0  0  0  0  0  0  0
   -3.1953    1.2067   -2.0173 N   0  0  0  0  0  0  0  0  0  0  0  0
   -1.2145    2.2213    0.3568 C   0  0  0  0  0  0  0  0  0  0  0  0
   -0.2134    2.2552    1.3240 C   0  0  0  0  0  0  0  0  0  0  0  0
    0.6846    1.1926    1.4621 C   0  0  0  0  0  0  0  0  0  0  0  0
    0.6104    0.0694    0.6274 C   0  0  0  0  0  0  0  0  0  0  0  0
   -0.3661    0.0024   -0.3567 C   0  0  0  0  0  0  0  0  0  0  0  0
   -1.9191    3.0420    0.2006 H   0  0  0  0  0  0  0  0  0  0  0  0
   -0.1381    3.1230    1.9711 H   0  0  0  0  0  0  0  0  0  0  0  0
    1.4565    1.2392    2.2246 H   0  0  0  0  0  0  0  0  0  0  0  0
    1.3151   -0.7472    0.7434 H   0  0  0  0  0  0  0  0  0  0  0  0
   -0.4523   -0.8493   -1.0226 H   0  0  0  0  0  0  0  0  0  0  0  0
   -4.2693    3.8869   -1.1360 S   0  0  0  0  0  0  0  0  0  0  0  0
   -5.6677    4.7301   -0.2462 C   0  0  0  0  0  0  0  0  0  0  0  0
   -3.0388    4.4908   -0.5671 O   0  0  0  0  0  0  0  0  0  0  0  0
   -4.5119    4.1075   -2.5659 O   0  0  0  0  0  0  0  0  0  0  0  0
   -4.4401    2.4507   -0.6858 O   0  0  0  0  0  0  0  0  0  0  0  0
   -5.5526    4.5554    1.0783 F   0  0  0  0  0  0  0  0  0  0  0  0
   -5.6458    6.0425   -0.5081 F   0  0  0  0  0  0  0  0  0  0  0  0
   -6.8432    4.2304   -0.6438 F   0  0  0  0  0  0  0  0  0  0  0  0
  1  8  2  0  0  0  0
  1  4  1  0  0  0  0
  2  1  1  0  0  0  0
  3  2  1  0  0  0  0
  4  5  2  0  0  0  0
  5  6  1  0  0  0  0
  5 10  1  0  0  0  0
  6 11  1  0  0  0  0
  7 12  1  0  0  0  0
  7  6  2  0  0  0  0
  8  7  1  0  0  0  0
  9  4  1  0  0  0  0
 13  8  1  0  0  0  0
 14 18  2  0  0  0  0
 14 16  1  0  0  0  0
 14 15  1  0  0  0  0
 15 19  1  0  0  0  0
 17 14  2  0  0  0  0
 20 15  1  0  0  0  0
 21 15  1  0  0  0  0
M  RAD  3   2   2   3   3  16   2
M  END
