Coordinates from ORCA-job PhN2+~TfO-_B3LYPG-6-31G_dp-NX-Scan-d89-09-n800
 OpenBabel11261920253D

 21 20  0  0  0  0  0  0  0  0999 V2000
   -1.5353   -0.7299   -0.2678 C   0  0  0  0  0  0  0  0  0  0  0  0
   -1.6850   -2.0225   -0.6572 N   0  0  0  0  0  0  0  0  0  0  0  0
   -1.8330   -3.0842   -0.9878 N   0  0  0  0  0  0  0  0  0  0  0  0
   -2.6521    0.1364   -0.3938 C   0  0  0  0  0  0  0  0  0  0  0  0
   -2.4794    1.4562   -0.0247 C   0  0  0  0  0  0  0  0  0  0  0  0
   -1.2296    1.8956    0.4556 C   0  0  0  0  0  0  0  0  0  0  0  0
   -0.1445    1.0101    0.5883 C   0  0  0  0  0  0  0  0  0  0  0  0
   -0.2726   -0.3176    0.2255 C   0  0  0  0  0  0  0  0  0  0  0  0
   -3.5952   -0.2372   -0.7778 H   0  0  0  0  0  0  0  0  0  0  0  0
   -3.2905    2.1883   -0.1278 H   0  0  0  0  0  0  0  0  0  0  0  0
   -1.1445    2.9595    0.6904 H   0  0  0  0  0  0  0  0  0  0  0  0
    0.8070    1.3702    0.9647 H   0  0  0  0  0  0  0  0  0  0  0  0
    0.5462   -1.0245    0.3010 H   0  0  0  0  0  0  0  0  0  0  0  0
   -3.1196    4.8964   -0.5008 S   0  0  0  0  0  0  0  0  0  0  0  0
   -3.9376    6.4702    0.0455 C   0  0  0  0  0  0  0  0  0  0  0  0
   -2.6964    5.1409   -1.8899 O   0  0  0  0  0  0  0  0  0  0  0  0
   -4.2015    3.8820   -0.3349 O   0  0  0  0  0  0  0  0  0  0  0  0
   -2.0101    4.7367    0.4830 O   0  0  0  0  0  0  0  0  0  0  0  0
   -3.0773    7.4981   -0.0217 F   0  0  0  0  0  0  0  0  0  0  0  0
   -4.9919    6.7517   -0.7360 F   0  0  0  0  0  0  0  0  0  0  0  0
   -4.3698    6.3665    1.3127 F   0  0  0  0  0  0  0  0  0  0  0  0
  1  8  1  0  0  0  0
  2  1  1  0  0  0  0
  3  2  1  0  0  0  0
  4  1  2  0  0  0  0
  4  5  1  0  0  0  0
  5  6  2  0  0  0  0
  6  7  1  0  0  0  0
  6 11  1  0  0  0  0
  7 12  1  0  0  0  0
  8 13  1  0  0  0  0
  8  7  2  0  0  0  0
  9  4  1  0  0  0  0
 10  5  1  0  0  0  0
 14 17  2  0  0  0  0
 14 15  1  0  0  0  0
 14 18  1  0  0  0  0
 15 21  1  0  0  0  0
 16 14  2  0  0  0  0
 19 15  1  0  0  0  0
 20 15  1  0  0  0  0
M  RAD  3   2   2   3   3  18   2
M  END
