Coordinates from ORCA-job PhN2+~TfO-_B3LYPG-6-31G_dp-NX-Scan-d89-09-n800
 OpenBabel11261920253D

 21 20  0  0  0  0  0  0  0  0999 V2000
   -1.5331   -0.6017   -0.4668 C   0  0  0  0  0  0  0  0  0  0  0  0
   -1.5779   -1.8538   -0.9875 N   0  0  0  0  0  0  0  0  0  0  0  0
   -1.6231   -2.8918   -1.4131 N   0  0  0  0  0  0  0  0  0  0  0  0
   -2.7559    0.0932   -0.2657 C   0  0  0  0  0  0  0  0  0  0  0  0
   -2.6891    1.3608    0.2743 C   0  0  0  0  0  0  0  0  0  0  0  0
   -1.4391    1.9217    0.6131 C   0  0  0  0  0  0  0  0  0  0  0  0
   -0.2429    1.2117    0.3997 C   0  0  0  0  0  0  0  0  0  0  0  0
   -0.2644   -0.0572   -0.1450 C   0  0  0  0  0  0  0  0  0  0  0  0
   -3.6981   -0.3669   -0.5414 H   0  0  0  0  0  0  0  0  0  0  0  0
   -3.5887    1.9612    0.4126 H   0  0  0  0  0  0  0  0  0  0  0  0
   -1.4201    2.9196    1.0508 H   0  0  0  0  0  0  0  0  0  0  0  0
    0.7069    1.6653    0.6607 H   0  0  0  0  0  0  0  0  0  0  0  0
    0.6394   -0.6290   -0.3231 H   0  0  0  0  0  0  0  0  0  0  0  0
   -3.1612    4.6742    0.1136 S   0  0  0  0  0  0  0  0  0  0  0  0
   -3.6766    6.4043   -0.3222 C   0  0  0  0  0  0  0  0  0  0  0  0
   -2.3704    4.2182   -1.0608 O   0  0  0  0  0  0  0  0  0  0  0  0
   -4.4460    3.9505    0.2998 O   0  0  0  0  0  0  0  0  0  0  0  0
   -2.3528    4.8315    1.3499 O   0  0  0  0  0  0  0  0  0  0  0  0
   -2.6000    7.1735   -0.5456 F   0  0  0  0  0  0  0  0  0  0  0  0
   -4.4323    6.4061   -1.4316 F   0  0  0  0  0  0  0  0  0  0  0  0
   -4.3874    6.9515    0.6746 F   0  0  0  0  0  0  0  0  0  0  0  0
  1  4  2  0  0  0  0
  1  8  1  0  0  0  0
  2  1  1  0  0  0  0
  3  2  1  0  0  0  0
  4  5  1  0  0  0  0
  5 10  1  0  0  0  0
  5  6  2  0  0  0  0
  6 11  1  0  0  0  0
  7  6  1  0  0  0  0
  7 12  1  0  0  0  0
  8  7  2  0  0  0  0
  9  4  1  0  0  0  0
 13  8  1  0  0  0  0
 14 17  2  0  0  0  0
 14 18  1  0  0  0  0
 15 14  1  0  0  0  0
 15 21  1  0  0  0  0
 16 14  2  0  0  0  0
 19 15  1  0  0  0  0
 20 15  1  0  0  0  0
M  RAD  3   2   2   3   3  18   2
M  END
