Coordinates from ORCA-job PhN2+~TfO-_B3LYPG-6-31G_dp-NX-Scan-d89-09-n800
 OpenBabel11261920253D

 21 20  0  0  0  0  0  0  0  0999 V2000
   -1.3490    1.0746   -0.5723 C   0  0  0  0  0  0  0  0  0  0  0  0
   -2.2133    0.9023   -1.6417 N   0  0  0  0  0  0  0  0  0  0  0  0
   -2.8616    0.6918   -2.5218 N   0  0  0  0  0  0  0  0  0  0  0  0
   -1.1700    2.3577   -0.0346 C   0  0  0  0  0  0  0  0  0  0  0  0
   -0.2655    2.4644    1.0191 C   0  0  0  0  0  0  0  0  0  0  0  0
    0.4094    1.3412    1.5032 C   0  0  0  0  0  0  0  0  0  0  0  0
    0.2019    0.0723    0.9409 C   0  0  0  0  0  0  0  0  0  0  0  0
   -0.6822   -0.0803   -0.1150 C   0  0  0  0  0  0  0  0  0  0  0  0
   -1.7341    3.2198   -0.4064 H   0  0  0  0  0  0  0  0  0  0  0  0
   -0.1042    3.4390    1.4668 H   0  0  0  0  0  0  0  0  0  0  0  0
    1.1040    1.4482    2.3310 H   0  0  0  0  0  0  0  0  0  0  0  0
    0.7285   -0.7927    1.3284 H   0  0  0  0  0  0  0  0  0  0  0  0
   -0.8672   -1.0455   -0.5729 H   0  0  0  0  0  0  0  0  0  0  0  0
   -4.0875    4.1273   -1.2289 S   0  0  0  0  0  0  0  0  0  0  0  0
   -5.3925    4.4457    0.0522 C   0  0  0  0  0  0  0  0  0  0  0  0
   -2.8645    4.7405   -0.6405 O   0  0  0  0  0  0  0  0  0  0  0  0
   -4.6024    4.7366   -2.4592 O   0  0  0  0  0  0  0  0  0  0  0  0
   -3.9971    2.6307   -1.2467 O   0  0  0  0  0  0  0  0  0  0  0  0
   -5.0292    3.9135    1.2341 F   0  0  0  0  0  0  0  0  0  0  0  0
   -5.5776    5.7614    0.2239 F   0  0  0  0  0  0  0  0  0  0  0  0
   -6.5589    3.8944   -0.3131 F   0  0  0  0  0  0  0  0  0  0  0  0
  1  8  2  0  0  0  0
  1  4  1  0  0  0  0
  2  1  1  0  0  0  0
  3  2  1  0  0  0  0
  4  5  2  0  0  0  0
  5 10  1  0  0  0  0
  5  6  1  0  0  0  0
  6 11  1  0  0  0  0
  7 12  1  0  0  0  0
  7  6  2  0  0  0  0
  8  7  1  0  0  0  0
  9  4  1  0  0  0  0
 13  8  1  0  0  0  0
 14 16  1  0  0  0  0
 14 15  1  0  0  0  0
 15 20  1  0  0  0  0
 15 19  1  0  0  0  0
 17 14  2  0  0  0  0
 18 14  2  0  0  0  0
 21 15  1  0  0  0  0
M  RAD  3   2   2   3   3  16   2
M  END
