Coordinates from ORCA-job PhN2+~TfO-_B3LYPG-6-31G_dp-NX-Scan-d89-09-n800
 OpenBabel11261920253D

 21 20  0  0  0  0  0  0  0  0999 V2000
   -1.5397   -0.7351   -0.2529 C   0  0  0  0  0  0  0  0  0  0  0  0
   -1.7002   -2.0331   -0.6197 N   0  0  0  0  0  0  0  0  0  0  0  0
   -1.8575   -3.0990   -0.9317 N   0  0  0  0  0  0  0  0  0  0  0  0
   -2.6462    0.1403   -0.4043 C   0  0  0  0  0  0  0  0  0  0  0  0
   -2.4629    1.4647   -0.0571 C   0  0  0  0  0  0  0  0  0  0  0  0
   -1.2128    1.8994    0.4264 C   0  0  0  0  0  0  0  0  0  0  0  0
   -0.1383    1.0051    0.5849 C   0  0  0  0  0  0  0  0  0  0  0  0
   -0.2772   -0.3274    0.2445 C   0  0  0  0  0  0  0  0  0  0  0  0
   -3.5901   -0.2304   -0.7893 H   0  0  0  0  0  0  0  0  0  0  0  0
   -3.2666    2.2027   -0.1770 H   0  0  0  0  0  0  0  0  0  0  0  0
   -1.1203    2.9659    0.6455 H   0  0  0  0  0  0  0  0  0  0  0  0
    0.8134    1.3618    0.9641 H   0  0  0  0  0  0  0  0  0  0  0  0
    0.5332   -1.0415    0.3404 H   0  0  0  0  0  0  0  0  0  0  0  0
   -3.1157    4.9154   -0.5274 S   0  0  0  0  0  0  0  0  0  0  0  0
   -3.9513    6.4600    0.0727 C   0  0  0  0  0  0  0  0  0  0  0  0
   -2.6991    5.2110   -1.9081 O   0  0  0  0  0  0  0  0  0  0  0  0
   -4.1855    3.8834   -0.3924 O   0  0  0  0  0  0  0  0  0  0  0  0
   -2.0025    4.7366    0.4490 O   0  0  0  0  0  0  0  0  0  0  0  0
   -3.1050    7.5009    0.0343 F   0  0  0  0  0  0  0  0  0  0  0  0
   -5.0135    6.7522   -0.6939 F   0  0  0  0  0  0  0  0  0  0  0  0
   -4.3751    6.3101    1.3384 F   0  0  0  0  0  0  0  0  0  0  0  0
  1  8  1  0  0  0  0
  2  1  1  0  0  0  0
  3  2  1  0  0  0  0
  4  1  2  0  0  0  0
  4  5  1  0  0  0  0
  5  6  2  0  0  0  0
  6  7  1  0  0  0  0
  6 11  1  0  0  0  0
  7 12  1  0  0  0  0
  8 13  1  0  0  0  0
  8  7  2  0  0  0  0
  9  4  1  0  0  0  0
 10  5  1  0  0  0  0
 14 17  2  0  0  0  0
 14 15  1  0  0  0  0
 14 18  1  0  0  0  0
 15 21  1  0  0  0  0
 16 14  2  0  0  0  0
 19 15  1  0  0  0  0
 20 15  1  0  0  0  0
M  RAD  3   2   2   3   3  18   2
M  END
