Coordinates from ORCA-job PhN2+~TfO-_B3LYPG-6-31G_dp-NX-Scan-d89-09-n800
 OpenBabel11261920253D

 21 20  0  0  0  0  0  0  0  0999 V2000
   -1.5266   -0.7059   -0.3128 C   0  0  0  0  0  0  0  0  0  0  0  0
   -1.6481   -1.9793   -0.7698 N   0  0  0  0  0  0  0  0  0  0  0  0
   -1.7711   -3.0255   -1.1552 N   0  0  0  0  0  0  0  0  0  0  0  0
   -2.6722    0.1301   -0.3578 C   0  0  0  0  0  0  0  0  0  0  0  0
   -2.5275    1.4327    0.0782 C   0  0  0  0  0  0  0  0  0  0  0  0
   -1.2773    1.8852    0.5453 C   0  0  0  0  0  0  0  0  0  0  0  0
   -0.1624    1.0285    0.5958 C   0  0  0  0  0  0  0  0  0  0  0  0
   -0.2619   -0.2808    0.1644 C   0  0  0  0  0  0  0  0  0  0  0  0
   -3.6145   -0.2509   -0.7362 H   0  0  0  0  0  0  0  0  0  0  0  0
   -3.3597    2.1450    0.0298 H   0  0  0  0  0  0  0  0  0  0  0  0
   -1.2113    2.9387    0.8279 H   0  0  0  0  0  0  0  0  0  0  0  0
    0.7896    1.3983    0.9612 H   0  0  0  0  0  0  0  0  0  0  0  0
    0.5801   -0.9641    0.1754 H   0  0  0  0  0  0  0  0  0  0  0  0
   -3.1257    4.8393   -0.4199 S   0  0  0  0  0  0  0  0  0  0  0  0
   -3.8960    6.4847   -0.0403 C   0  0  0  0  0  0  0  0  0  0  0  0
   -2.6777    4.9344   -1.8204 O   0  0  0  0  0  0  0  0  0  0  0  0
   -4.2417    3.8800   -0.1755 O   0  0  0  0  0  0  0  0  0  0  0  0
   -2.0316    4.7382    0.5888 O   0  0  0  0  0  0  0  0  0  0  0  0
   -2.9976    7.4713   -0.1849 F   0  0  0  0  0  0  0  0  0  0  0  0
   -4.9240    6.7267   -0.8683 F   0  0  0  0  0  0  0  0  0  0  0  0
   -4.3554    6.5160    1.2208 F   0  0  0  0  0  0  0  0  0  0  0  0
  1  8  1  0  0  0  0
  2  1  1  0  0  0  0
  3  2  1  0  0  0  0
  4  1  2  0  0  0  0
  4  5  1  0  0  0  0
  5  6  2  0  0  0  0
  6  7  1  0  0  0  0
  6 11  1  0  0  0  0
  7 12  1  0  0  0  0
  8 13  1  0  0  0  0
  8  7  2  0  0  0  0
  9  4  1  0  0  0  0
 10  5  1  0  0  0  0
 14 17  2  0  0  0  0
 14 15  1  0  0  0  0
 14 18  1  0  0  0  0
 15 21  1  0  0  0  0
 16 14  2  0  0  0  0
 19 15  1  0  0  0  0
 20 15  1  0  0  0  0
M  RAD  3   2   2   3   3  18   2
M  END
