Coordinates from ORCA-job PhN2+~TfO-_B3LYPG-6-31G_dp-NX-Scan-d89-09-n800
 OpenBabel11261920253D

 21 21  0  0  0  0  0  0  0  0999 V2000
   -1.3843    1.2389   -0.0716 C   0  0  0  0  0  0  0  0  0  0  0  0
   -2.6197    1.0027   -0.7046 N   0  0  0  0  0  0  0  0  0  0  0  0
   -3.5466    1.6284   -1.1059 N   0  0  0  0  0  0  0  0  0  0  0  0
   -0.8654    2.5041    0.2670 C   0  0  0  0  0  0  0  0  0  0  0  0
    0.3812    2.5666    0.8837 C   0  0  0  0  0  0  0  0  0  0  0  0
    1.1020    1.4020    1.1651 C   0  0  0  0  0  0  0  0  0  0  0  0
    0.5806    0.1505    0.8269 C   0  0  0  0  0  0  0  0  0  0  0  0
   -0.6608    0.0669    0.2069 C   0  0  0  0  0  0  0  0  0  0  0  0
   -1.4242    3.4015    0.0476 H   0  0  0  0  0  0  0  0  0  0  0  0
    0.7917    3.5359    1.1479 H   0  0  0  0  0  0  0  0  0  0  0  0
    2.0721    1.4715    1.6473 H   0  0  0  0  0  0  0  0  0  0  0  0
    1.1394   -0.7537    1.0442 H   0  0  0  0  0  0  0  0  0  0  0  0
   -1.0915   -0.8883   -0.0722 H   0  0  0  0  0  0  0  0  0  0  0  0
   -4.5036    4.1132   -1.5470 S   0  0  0  0  0  0  0  0  0  0  0  0
   -5.8746    3.9502   -0.2935 C   0  0  0  0  0  0  0  0  0  0  0  0
   -3.3715    3.2175   -0.8390 O   0  0  0  0  0  0  0  0  0  0  0  0
   -4.0403    5.4913   -1.4899 O   0  0  0  0  0  0  0  0  0  0  0  0
   -4.9807    3.5013   -2.7763 O   0  0  0  0  0  0  0  0  0  0  0  0
   -6.2245    2.6684   -0.1655 F   0  0  0  0  0  0  0  0  0  0  0  0
   -5.4685    4.4159    0.8887 F   0  0  0  0  0  0  0  0  0  0  0  0
   -6.9236    4.6579   -0.7132 F   0  0  0  0  0  0  0  0  0  0  0  0
  1  8  2  0  0  0  0
  1  4  1  0  0  0  0
  2  1  1  0  0  0  0
  3 16  1  0  0  0  0
  3  2  1  0  0  0  0
  4  5  2  0  0  0  0
  5 10  1  0  0  0  0
  5  6  1  0  0  0  0
  6 11  1  0  0  0  0
  7 12  1  0  0  0  0
  7  6  2  0  0  0  0
  8  7  1  0  0  0  0
  9  4  1  0  0  0  0
 13  8  1  0  0  0  0
 14 17  2  0  0  0  0
 14 16  1  0  0  0  0
 14 15  1  0  0  0  0
 15 19  1  0  0  0  0
 15 20  1  0  0  0  0
 18 14  2  0  0  0  0
 21 15  1  0  0  0  0
M  RAD  2   2   2   3   2
M  END
