Coordinates from ORCA-job PhN2+~TfO-_B3LYPG-6-31G_dp-NX-Scan-d89-09-n800
 OpenBabel11261920253D

 21 20  0  0  0  0  0  0  0  0999 V2000
   -1.4909    1.4268   -0.2828 C   0  0  0  0  0  0  0  0  0  0  0  0
   -2.5271    1.3341   -1.2119 N   0  0  0  0  0  0  0  0  0  0  0  0
   -3.2998    0.9699   -1.9385 N   0  0  0  0  0  0  0  0  0  0  0  0
   -1.2225    2.6381    0.3655 C   0  0  0  0  0  0  0  0  0  0  0  0
   -0.1892    2.6443    1.2987 C   0  0  0  0  0  0  0  0  0  0  0  0
    0.5387    1.4816    1.5639 C   0  0  0  0  0  0  0  0  0  0  0  0
    0.2481    0.2832    0.8987 C   0  0  0  0  0  0  0  0  0  0  0  0
   -0.7752    0.2397   -0.0371 C   0  0  0  0  0  0  0  0  0  0  0  0
   -1.8071    3.5130    0.1044 H   0  0  0  0  0  0  0  0  0  0  0  0
    0.0474    3.5663    1.8185 H   0  0  0  0  0  0  0  0  0  0  0  0
    1.3418    1.5053    2.2943 H   0  0  0  0  0  0  0  0  0  0  0  0
    0.8181   -0.6148    1.1111 H   0  0  0  0  0  0  0  0  0  0  0  0
   -1.0262   -0.6728   -0.5661 H   0  0  0  0  0  0  0  0  0  0  0  0
   -4.3627    3.9558   -1.8048 S   0  0  0  0  0  0  0  0  0  0  0  0
   -5.0305    3.8504   -0.0740 C   0  0  0  0  0  0  0  0  0  0  0  0
   -2.8888    3.9192   -1.5535 O   0  0  0  0  0  0  0  0  0  0  0  0
   -4.8969    5.2001   -2.3539 O   0  0  0  0  0  0  0  0  0  0  0  0
   -4.8473    2.6865   -2.4201 O   0  0  0  0  0  0  0  0  0  0  0  0
   -4.5606    2.7197    0.5183 F   0  0  0  0  0  0  0  0  0  0  0  0
   -4.6186    4.8902    0.6663 F   0  0  0  0  0  0  0  0  0  0  0  0
   -6.3637    3.8063   -0.0504 F   0  0  0  0  0  0  0  0  0  0  0  0
  1  8  2  0  0  0  0
  1  4  1  0  0  0  0
  2  1  1  0  0  0  0
  3  2  1  0  0  0  0
  4  5  2  0  0  0  0
  5  6  1  0  0  0  0
  5 10  1  0  0  0  0
  6 11  1  0  0  0  0
  7 12  1  0  0  0  0
  7  6  2  0  0  0  0
  8  7  1  0  0  0  0
  9  4  1  0  0  0  0
 13  8  1  0  0  0  0
 14 16  1  0  0  0  0
 14 15  1  0  0  0  0
 15 21  1  0  0  0  0
 15 19  1  0  0  0  0
 15 20  1  0  0  0  0
 17 14  2  0  0  0  0
 18 14  2  0  0  0  0
M  RAD  3   2   2   3   3  16   2
M  END
