Coordinates from ORCA-job PhN2+~TfO-_B3LYPG-6-31G_dp-NX-Scan-d89-09-n800
 OpenBabel11261920253D

 21 20  0  0  0  0  0  0  0  0999 V2000
   -1.5519   -0.5211   -0.5163 C   0  0  0  0  0  0  0  0  0  0  0  0
   -1.5688   -1.7349   -1.1158 N   0  0  0  0  0  0  0  0  0  0  0  0
   -1.5880   -2.7466   -1.6056 N   0  0  0  0  0  0  0  0  0  0  0  0
   -2.7899    0.0741   -0.1483 C   0  0  0  0  0  0  0  0  0  0  0  0
   -2.7486    1.3013    0.4751 C   0  0  0  0  0  0  0  0  0  0  0  0
   -1.5094    1.9271    0.7358 C   0  0  0  0  0  0  0  0  0  0  0  0
   -0.2977    1.3179    0.3553 C   0  0  0  0  0  0  0  0  0  0  0  0
   -0.2949    0.0926   -0.2782 C   0  0  0  0  0  0  0  0  0  0  0  0
   -3.7245   -0.4293   -0.3686 H   0  0  0  0  0  0  0  0  0  0  0  0
   -3.6662    1.8266    0.7274 H   0  0  0  0  0  0  0  0  0  0  0  0
   -1.5040    2.8788    1.2615 H   0  0  0  0  0  0  0  0  0  0  0  0
    0.6422    1.8195    0.5562 H   0  0  0  0  0  0  0  0  0  0  0  0
    0.6210   -0.4006   -0.5836 H   0  0  0  0  0  0  0  0  0  0  0  0
   -3.1847    4.5995    0.1857 S   0  0  0  0  0  0  0  0  0  0  0  0
   -3.5430    6.3129   -0.4386 C   0  0  0  0  0  0  0  0  0  0  0  0
   -2.2863    4.0243   -0.8608 O   0  0  0  0  0  0  0  0  0  0  0  0
   -4.5143    3.9492    0.2673 O   0  0  0  0  0  0  0  0  0  0  0  0
   -2.5044    4.8116    1.4872 O   0  0  0  0  0  0  0  0  0  0  0  0
   -2.4044    7.0061   -0.5894 F   0  0  0  0  0  0  0  0  0  0  0  0
   -4.1665    6.2625   -1.6253 F   0  0  0  0  0  0  0  0  0  0  0  0
   -4.3284    6.9712    0.4256 F   0  0  0  0  0  0  0  0  0  0  0  0
  1  8  2  0  0  0  0
  1  4  1  0  0  0  0
  2  1  1  0  0  0  0
  3  2  1  0  0  0  0
  4  5  2  0  0  0  0
  5 10  1  0  0  0  0
  5  6  1  0  0  0  0
  6 11  1  0  0  0  0
  7 12  1  0  0  0  0
  7  6  2  0  0  0  0
  8  7  1  0  0  0  0
  9  4  1  0  0  0  0
 13  8  1  0  0  0  0
 14 17  2  0  0  0  0
 14 18  1  0  0  0  0
 15 14  1  0  0  0  0
 15 21  1  0  0  0  0
 16 14  2  0  0  0  0
 19 15  1  0  0  0  0
 20 15  1  0  0  0  0
M  RAD  3   2   2   3   3  18   2
M  END
