Coordinates from ORCA-job PhN2+~TfO-_B3LYPG-6-31G_dp-NX-Scan-d89-09-n800
 OpenBabel11261920253D

 21 20  0  0  0  0  0  0  0  0999 V2000
   -1.5039    1.4295   -0.2609 C   0  0  0  0  0  0  0  0  0  0  0  0
   -2.5548    1.3316   -1.1782 N   0  0  0  0  0  0  0  0  0  0  0  0
   -3.3062    0.9186   -1.8990 N   0  0  0  0  0  0  0  0  0  0  0  0
   -1.3071    2.6004    0.4789 C   0  0  0  0  0  0  0  0  0  0  0  0
   -0.2609    2.6056    1.3976 C   0  0  0  0  0  0  0  0  0  0  0  0
    0.5516    1.4804    1.5585 C   0  0  0  0  0  0  0  0  0  0  0  0
    0.3318    0.3218    0.8030 C   0  0  0  0  0  0  0  0  0  0  0  0
   -0.7049    0.2805   -0.1188 C   0  0  0  0  0  0  0  0  0  0  0  0
   -1.9483    3.4527    0.2969 H   0  0  0  0  0  0  0  0  0  0  0  0
   -0.0795    3.4983    1.9864 H   0  0  0  0  0  0  0  0  0  0  0  0
    1.3655    1.5034    2.2769 H   0  0  0  0  0  0  0  0  0  0  0  0
    0.9670   -0.5480    0.9336 H   0  0  0  0  0  0  0  0  0  0  0  0
   -0.9023   -0.6031   -0.7155 H   0  0  0  0  0  0  0  0  0  0  0  0
   -4.3683    3.8473   -1.8254 S   0  0  0  0  0  0  0  0  0  0  0  0
   -5.0285    3.9552   -0.0921 C   0  0  0  0  0  0  0  0  0  0  0  0
   -2.9017    3.6715   -1.5656 O   0  0  0  0  0  0  0  0  0  0  0  0
   -4.7563    5.1007   -2.4674 O   0  0  0  0  0  0  0  0  0  0  0  0
   -4.9751    2.5939   -2.3458 O   0  0  0  0  0  0  0  0  0  0  0  0
   -4.6952    2.8280    0.5869 F   0  0  0  0  0  0  0  0  0  0  0  0
   -4.4800    4.9923    0.5618 F   0  0  0  0  0  0  0  0  0  0  0  0
   -6.3558    4.0820   -0.0656 F   0  0  0  0  0  0  0  0  0  0  0  0
  1  8  2  0  0  0  0
  1  4  1  0  0  0  0
  2  1  1  0  0  0  0
  3  2  1  0  0  0  0
  4  5  2  0  0  0  0
  5  6  1  0  0  0  0
  5 10  1  0  0  0  0
  6 11  1  0  0  0  0
  7 12  1  0  0  0  0
  7  6  2  0  0  0  0
  8  7  1  0  0  0  0
  9  4  1  0  0  0  0
 13  8  1  0  0  0  0
 14 16  1  0  0  0  0
 14 15  1  0  0  0  0
 15 21  1  0  0  0  0
 15 20  1  0  0  0  0
 15 19  1  0  0  0  0
 17 14  2  0  0  0  0
 18 14  2  0  0  0  0
M  RAD  3   2   2   3   3  16   2
M  END
