Coordinates from ORCA-job PhN2+~TfO-_B3LYPG-6-31G_dp-NX-Scan-d89-09-n800
 OpenBabel11261920253D

 21 20  0  0  0  0  0  0  0  0999 V2000
   -1.5048    1.4292   -0.2615 C   0  0  0  0  0  0  0  0  0  0  0  0
   -2.5544    1.3309   -1.1805 N   0  0  0  0  0  0  0  0  0  0  0  0
   -3.3019    0.9167   -1.9044 N   0  0  0  0  0  0  0  0  0  0  0  0
   -1.3157    2.5965    0.4860 C   0  0  0  0  0  0  0  0  0  0  0  0
   -0.2704    2.6022    1.4055 C   0  0  0  0  0  0  0  0  0  0  0  0
    0.5489    1.4810    1.5599 C   0  0  0  0  0  0  0  0  0  0  0  0
    0.3367    0.3260    0.7968 C   0  0  0  0  0  0  0  0  0  0  0  0
   -0.6991    0.2843   -0.1261 C   0  0  0  0  0  0  0  0  0  0  0  0
   -1.9618    3.4461    0.3091 H   0  0  0  0  0  0  0  0  0  0  0  0
   -0.0949    3.4923    2.0002 H   0  0  0  0  0  0  0  0  0  0  0  0
    1.3622    1.5044    2.2790 H   0  0  0  0  0  0  0  0  0  0  0  0
    0.9771   -0.5407    0.9223 H   0  0  0  0  0  0  0  0  0  0  0  0
   -0.8906   -0.5966   -0.7286 H   0  0  0  0  0  0  0  0  0  0  0  0
   -4.3707    3.8369   -1.8261 S   0  0  0  0  0  0  0  0  0  0  0  0
   -5.0229    3.9642   -0.0912 C   0  0  0  0  0  0  0  0  0  0  0  0
   -2.9043    3.6502   -1.5707 O   0  0  0  0  0  0  0  0  0  0  0  0
   -4.7490    5.0893   -2.4760 O   0  0  0  0  0  0  0  0  0  0  0  0
   -4.9896    2.5852   -2.3348 O   0  0  0  0  0  0  0  0  0  0  0  0
   -4.6976    2.8392    0.5951 F   0  0  0  0  0  0  0  0  0  0  0  0
   -4.4615    5.0010    0.5528 F   0  0  0  0  0  0  0  0  0  0  0  0
   -6.3486    4.1044   -0.0603 F   0  0  0  0  0  0  0  0  0  0  0  0
  1  8  2  0  0  0  0
  1  4  1  0  0  0  0
  2  1  1  0  0  0  0
  3  2  1  0  0  0  0
  4  5  2  0  0  0  0
  5  6  1  0  0  0  0
  5 10  1  0  0  0  0
  6 11  1  0  0  0  0
  7 12  1  0  0  0  0
  7  6  2  0  0  0  0
  8  7  1  0  0  0  0
  9  4  1  0  0  0  0
 13  8  1  0  0  0  0
 14 16  1  0  0  0  0
 14 15  1  0  0  0  0
 15 21  1  0  0  0  0
 15 20  1  0  0  0  0
 15 19  1  0  0  0  0
 17 14  2  0  0  0  0
 18 14  2  0  0  0  0
M  RAD  3   2   2   3   3  16   2
M  END
