Coordinates from ORCA-job PhN2+~TfO-_B3LYPG-6-31G_dp-NX-Scan-d89-09-n800
 OpenBabel11261920253D

 21 20  0  0  0  0  0  0  0  0999 V2000
   -1.4729    1.0950   -0.4891 C   0  0  0  0  0  0  0  0  0  0  0  0
   -2.4332    0.8679   -1.4722 N   0  0  0  0  0  0  0  0  0  0  0  0
   -3.0939    0.4311   -2.2578 N   0  0  0  0  0  0  0  0  0  0  0  0
   -1.1813    2.3919   -0.0489 C   0  0  0  0  0  0  0  0  0  0  0  0
   -0.1882    2.5133    0.9210 C   0  0  0  0  0  0  0  0  0  0  0  0
    0.4686    1.3877    1.4214 C   0  0  0  0  0  0  0  0  0  0  0  0
    0.1503    0.1015    0.9596 C   0  0  0  0  0  0  0  0  0  0  0  0
   -0.8269   -0.0643   -0.0081 C   0  0  0  0  0  0  0  0  0  0  0  0
   -1.7205    3.2588   -0.4279 H   0  0  0  0  0  0  0  0  0  0  0  0
    0.0562    3.5037    1.2886 H   0  0  0  0  0  0  0  0  0  0  0  0
    1.2350    1.5060    2.1815 H   0  0  0  0  0  0  0  0  0  0  0  0
    0.6635   -0.7675    1.3562 H   0  0  0  0  0  0  0  0  0  0  0  0
   -1.0966   -1.0442   -0.3856 H   0  0  0  0  0  0  0  0  0  0  0  0
   -3.9461    4.3522   -1.2180 S   0  0  0  0  0  0  0  0  0  0  0  0
   -5.3659    4.2314   -0.0270 C   0  0  0  0  0  0  0  0  0  0  0  0
   -2.8467    4.9187   -0.3955 O   0  0  0  0  0  0  0  0  0  0  0  0
   -4.4463    5.1691   -2.3263 O   0  0  0  0  0  0  0  0  0  0  0  0
   -3.6989    2.9072   -1.5666 O   0  0  0  0  0  0  0  0  0  0  0  0
   -5.0266    3.4604    1.0255 F   0  0  0  0  0  0  0  0  0  0  0  0
   -5.7051    5.4421    0.4316 F   0  0  0  0  0  0  0  0  0  0  0  0
   -6.4373    3.6806   -0.6160 F   0  0  0  0  0  0  0  0  0  0  0  0
  1  4  2  0  0  0  0
  1  8  1  0  0  0  0
  2  1  1  0  0  0  0
  3  2  1  0  0  0  0
  4  5  1  0  0  0  0
  5 10  1  0  0  0  0
  5  6  2  0  0  0  0
  6 11  1  0  0  0  0
  7 12  1  0  0  0  0
  7  6  1  0  0  0  0
  8  7  2  0  0  0  0
  9  4  1  0  0  0  0
 13  8  1  0  0  0  0
 14 16  1  0  0  0  0
 14 15  1  0  0  0  0
 15 20  1  0  0  0  0
 15 19  1  0  0  0  0
 17 14  2  0  0  0  0
 18 14  2  0  0  0  0
 21 15  1  0  0  0  0
M  RAD  3   2   2   3   3  16   2
M  END
