Coordinates from ORCA-job PhN2+~TfO-_B3LYPG-6-31G_dp-NX-Scan-d89-09-n800
 OpenBabel11261920253D

 21 21  0  0  0  0  0  0  0  0999 V2000
   -1.4183    1.2975   -0.1187 C   0  0  0  0  0  0  0  0  0  0  0  0
   -2.6402    1.0025   -0.7781 N   0  0  0  0  0  0  0  0  0  0  0  0
   -3.5318    1.7604   -1.1641 N   0  0  0  0  0  0  0  0  0  0  0  0
   -0.8347    2.5520    0.1631 C   0  0  0  0  0  0  0  0  0  0  0  0
    0.3999    2.5996    0.8075 C   0  0  0  0  0  0  0  0  0  0  0  0
    1.0620    1.4285    1.1836 C   0  0  0  0  0  0  0  0  0  0  0  0
    0.4894    0.1852    0.9058 C   0  0  0  0  0  0  0  0  0  0  0  0
   -0.7370    0.1231    0.2544 C   0  0  0  0  0  0  0  0  0  0  0  0
   -1.3225    3.4718   -0.1188 H   0  0  0  0  0  0  0  0  0  0  0  0
    0.8465    3.5661    1.0194 H   0  0  0  0  0  0  0  0  0  0  0  0
    2.0221    1.4862    1.6873 H   0  0  0  0  0  0  0  0  0  0  0  0
    0.9988   -0.7298    1.1908 H   0  0  0  0  0  0  0  0  0  0  0  0
   -1.2014   -0.8275    0.0157 H   0  0  0  0  0  0  0  0  0  0  0  0
   -4.4936    4.0997   -1.5293 S   0  0  0  0  0  0  0  0  0  0  0  0
   -5.8441    3.8385   -0.2539 C   0  0  0  0  0  0  0  0  0  0  0  0
   -3.3127    3.0869   -0.8981 O   0  0  0  0  0  0  0  0  0  0  0  0
   -3.9435    5.4253   -1.3261 O   0  0  0  0  0  0  0  0  0  0  0  0
   -4.9725    3.6036   -2.8026 O   0  0  0  0  0  0  0  0  0  0  0  0
   -6.2754    2.5842   -0.2959 F   0  0  0  0  0  0  0  0  0  0  0  0
   -5.3658    4.1160    0.9553 F   0  0  0  0  0  0  0  0  0  0  0  0
   -6.8378    4.6729   -0.5508 F   0  0  0  0  0  0  0  0  0  0  0  0
  1  4  2  0  0  0  0
  1  8  1  0  0  0  0
  2  1  1  0  0  0  0
  3 16  1  0  0  0  0
  3  2  1  0  0  0  0
  4  5  1  0  0  0  0
  5 10  1  0  0  0  0
  5  6  2  0  0  0  0
  6 11  1  0  0  0  0
  7  6  1  0  0  0  0
  7 12  1  0  0  0  0
  8  7  2  0  0  0  0
  9  4  1  0  0  0  0
 13  8  1  0  0  0  0
 14 17  2  0  0  0  0
 14 16  1  0  0  0  0
 14 15  1  0  0  0  0
 15 20  1  0  0  0  0
 18 14  2  0  0  0  0
 19 15  1  0  0  0  0
 21 15  1  0  0  0  0
M  RAD  2   2   2   3   2
M  END
