Coordinates from ORCA-job PhN2+~TfO-_B3LYPG-6-31G_dp-NX-Scan-d89-09-n800
 OpenBabel11261920253D

 21 20  0  0  0  0  0  0  0  0999 V2000
   -1.5247   -0.6921   -0.3312 C   0  0  0  0  0  0  0  0  0  0  0  0
   -1.6370   -1.9556   -0.8170 N   0  0  0  0  0  0  0  0  0  0  0  0
   -1.7516   -2.9939   -1.2256 N   0  0  0  0  0  0  0  0  0  0  0  0
   -2.6800    0.1316   -0.3436 C   0  0  0  0  0  0  0  0  0  0  0  0
   -2.5447    1.4253    0.1209 C   0  0  0  0  0  0  0  0  0  0  0  0
   -1.2942    1.8813    0.5839 C   0  0  0  0  0  0  0  0  0  0  0  0
   -0.1693    1.0364    0.6015 C   0  0  0  0  0  0  0  0  0  0  0  0
   -0.2594   -0.2637    0.1411 C   0  0  0  0  0  0  0  0  0  0  0  0
   -3.6222   -0.2508   -0.7208 H   0  0  0  0  0  0  0  0  0  0  0  0
   -3.3841    2.1295    0.0951 H   0  0  0  0  0  0  0  0  0  0  0  0
   -1.2341    2.9294    0.8866 H   0  0  0  0  0  0  0  0  0  0  0  0
    0.7829    1.4088    0.9637 H   0  0  0  0  0  0  0  0  0  0  0  0
    0.5903   -0.9372    0.1262 H   0  0  0  0  0  0  0  0  0  0  0  0
   -3.1280    4.8150   -0.3894 S   0  0  0  0  0  0  0  0  0  0  0  0
   -3.8787    6.4833   -0.0760 C   0  0  0  0  0  0  0  0  0  0  0  0
   -2.6736    4.8507   -1.7910 O   0  0  0  0  0  0  0  0  0  0  0  0
   -4.2565    3.8795   -0.1138 O   0  0  0  0  0  0  0  0  0  0  0  0
   -2.0382    4.7385    0.6261 O   0  0  0  0  0  0  0  0  0  0  0  0
   -2.9671    7.4524   -0.2535 F   0  0  0  0  0  0  0  0  0  0  0  0
   -4.8998    6.7066   -0.9176 F   0  0  0  0  0  0  0  0  0  0  0  0
   -4.3429    6.5679    1.1807 F   0  0  0  0  0  0  0  0  0  0  0  0
  1  8  1  0  0  0  0
  2  1  1  0  0  0  0
  3  2  1  0  0  0  0
  4  1  2  0  0  0  0
  4  5  1  0  0  0  0
  5  6  2  0  0  0  0
  6  7  1  0  0  0  0
  6 11  1  0  0  0  0
  7 12  1  0  0  0  0
  8  7  2  0  0  0  0
  9  4  1  0  0  0  0
 10  5  1  0  0  0  0
 13  8  1  0  0  0  0
 14 17  2  0  0  0  0
 14 15  1  0  0  0  0
 14 18  1  0  0  0  0
 15 21  1  0  0  0  0
 16 14  2  0  0  0  0
 19 15  1  0  0  0  0
 20 15  1  0  0  0  0
M  RAD  3   2   2   3   3  18   2
M  END
