Coordinates from ORCA-job PhN2+~TfO-_B3LYPG-6-31G_dp-NX-Scan-d89-09-n800
 OpenBabel11261920253D

 21 21  0  0  0  0  0  0  0  0999 V2000
   -1.3933    1.2524   -0.0833 C   0  0  0  0  0  0  0  0  0  0  0  0
   -2.6240    1.0016   -0.7240 N   0  0  0  0  0  0  0  0  0  0  0  0
   -3.5444    1.6532   -1.1250 N   0  0  0  0  0  0  0  0  0  0  0  0
   -0.8630    2.5155    0.2483 C   0  0  0  0  0  0  0  0  0  0  0  0
    0.3801    2.5744    0.8728 C   0  0  0  0  0  0  0  0  0  0  0  0
    1.0903    1.4078    1.1712 C   0  0  0  0  0  0  0  0  0  0  0  0
    0.5607    0.1578    0.8410 C   0  0  0  0  0  0  0  0  0  0  0  0
   -0.6768    0.0795    0.2126 C   0  0  0  0  0  0  0  0  0  0  0  0
   -1.4077    3.4184    0.0184 H   0  0  0  0  0  0  0  0  0  0  0  0
    0.7962    3.5432    1.1299 H   0  0  0  0  0  0  0  0  0  0  0  0
    2.0577    1.4747    1.6594 H   0  0  0  0  0  0  0  0  0  0  0  0
    1.1103   -0.7492    1.0703 H   0  0  0  0  0  0  0  0  0  0  0  0
   -1.1130   -0.8747   -0.0613 H   0  0  0  0  0  0  0  0  0  0  0  0
   -4.5008    4.1066   -1.5469 S   0  0  0  0  0  0  0  0  0  0  0  0
   -5.8613    3.9285   -0.2813 C   0  0  0  0  0  0  0  0  0  0  0  0
   -3.3572    3.1896   -0.8567 O   0  0  0  0  0  0  0  0  0  0  0  0
   -4.0183    5.4755   -1.4647 O   0  0  0  0  0  0  0  0  0  0  0  0
   -4.9852    3.5157   -2.7819 O   0  0  0  0  0  0  0  0  0  0  0  0
   -6.2213    2.6489   -0.1766 F   0  0  0  0  0  0  0  0  0  0  0  0
   -5.4372    4.3679    0.9037 F   0  0  0  0  0  0  0  0  0  0  0  0
   -6.9048    4.6557   -0.6793 F   0  0  0  0  0  0  0  0  0  0  0  0
  1  8  2  0  0  0  0
  1  4  1  0  0  0  0
  2  1  1  0  0  0  0
  3 16  1  0  0  0  0
  3  2  1  0  0  0  0
  4  5  2  0  0  0  0
  5 10  1  0  0  0  0
  5  6  1  0  0  0  0
  6 11  1  0  0  0  0
  7 12  1  0  0  0  0
  7  6  2  0  0  0  0
  8  7  1  0  0  0  0
  9  4  1  0  0  0  0
 13  8  1  0  0  0  0
 14 17  2  0  0  0  0
 14 16  1  0  0  0  0
 14 15  1  0  0  0  0
 15 19  1  0  0  0  0
 15 20  1  0  0  0  0
 18 14  2  0  0  0  0
 21 15  1  0  0  0  0
M  RAD  2   2   2   3   2
M  END
