Coordinates from ORCA-job PhN2+~TfO-_B3LYPG-6-31G_dp-NX-Scan-d89-09-n800
 OpenBabel11261920253D

 21 20  0  0  0  0  0  0  0  0999 V2000
   -1.3932    1.0757   -0.5429 C   0  0  0  0  0  0  0  0  0  0  0  0
   -2.2895    0.8757   -1.5842 N   0  0  0  0  0  0  0  0  0  0  0  0
   -2.9279    0.5667   -2.4430 N   0  0  0  0  0  0  0  0  0  0  0  0
   -1.1741    2.3662   -0.0421 C   0  0  0  0  0  0  0  0  0  0  0  0
   -0.2341    2.4834    0.9794 C   0  0  0  0  0  0  0  0  0  0  0  0
    0.4375    1.3617    1.4702 C   0  0  0  0  0  0  0  0  0  0  0  0
    0.1901    0.0835    0.9466 C   0  0  0  0  0  0  0  0  0  0  0  0
   -0.7304   -0.0789   -0.0761 C   0  0  0  0  0  0  0  0  0  0  0  0
   -1.7313    3.2305   -0.4126 H   0  0  0  0  0  0  0  0  0  0  0  0
   -0.0433    3.4662    1.3961 H   0  0  0  0  0  0  0  0  0  0  0  0
    1.1604    1.4769    2.2723 H   0  0  0  0  0  0  0  0  0  0  0  0
    0.7142   -0.7814    1.3378 H   0  0  0  0  0  0  0  0  0  0  0  0
   -0.9453   -1.0518   -0.5036 H   0  0  0  0  0  0  0  0  0  0  0  0
   -4.0354    4.2081   -1.2191 S   0  0  0  0  0  0  0  0  0  0  0  0
   -5.3997    4.3804    0.0278 C   0  0  0  0  0  0  0  0  0  0  0  0
   -2.8559    4.7995   -0.5320 O   0  0  0  0  0  0  0  0  0  0  0  0
   -4.5229    4.9006   -2.4155 O   0  0  0  0  0  0  0  0  0  0  0  0
   -3.9002    2.7190   -1.3574 O   0  0  0  0  0  0  0  0  0  0  0  0
   -5.0763    3.7421    1.1684 F   0  0  0  0  0  0  0  0  0  0  0  0
   -5.6173    5.6703    0.3158 F   0  0  0  0  0  0  0  0  0  0  0  0
   -6.5382    3.8482   -0.4395 F   0  0  0  0  0  0  0  0  0  0  0  0
  1  8  2  0  0  0  0
  1  4  1  0  0  0  0
  2  1  1  0  0  0  0
  3  2  1  0  0  0  0
  4  5  2  0  0  0  0
  5 10  1  0  0  0  0
  5  6  1  0  0  0  0
  6 11  1  0  0  0  0
  7 12  1  0  0  0  0
  7  6  2  0  0  0  0
  8  7  1  0  0  0  0
  9  4  1  0  0  0  0
 13  8  1  0  0  0  0
 14 16  1  0  0  0  0
 14 15  1  0  0  0  0
 15 20  1  0  0  0  0
 15 19  1  0  0  0  0
 17 14  2  0  0  0  0
 18 14  2  0  0  0  0
 21 15  1  0  0  0  0
M  RAD  3   2   2   3   3  16   2
M  END
