Coordinates from ORCA-job PhN2+~TfO-_B3LYPG-6-31G_dp-NX-Scan-d89-09-n800
 OpenBabel11261920253D

 21 20  0  0  0  0  0  0  0  0999 V2000
   -1.4716    1.3773   -0.3243 C   0  0  0  0  0  0  0  0  0  0  0  0
   -2.4693    1.2716   -1.2856 N   0  0  0  0  0  0  0  0  0  0  0  0
   -3.2529    1.0431   -2.0550 N   0  0  0  0  0  0  0  0  0  0  0  0
   -1.1546    2.6304    0.2182 C   0  0  0  0  0  0  0  0  0  0  0  0
   -0.1456    2.6663    1.1766 C   0  0  0  0  0  0  0  0  0  0  0  0
    0.5053    1.4945    1.5710 C   0  0  0  0  0  0  0  0  0  0  0  0
    0.1643    0.2556    1.0115 C   0  0  0  0  0  0  0  0  0  0  0  0
   -0.8319    0.1801    0.0493 C   0  0  0  0  0  0  0  0  0  0  0  0
   -1.6941    3.5057   -0.1357 H   0  0  0  0  0  0  0  0  0  0  0  0
    0.1300    3.6181    1.6174 H   0  0  0  0  0  0  0  0  0  0  0  0
    1.2879    1.5423    2.3222 H   0  0  0  0  0  0  0  0  0  0  0  0
    0.6758   -0.6475    1.3258 H   0  0  0  0  0  0  0  0  0  0  0  0
   -1.1191   -0.7620   -0.4038 H   0  0  0  0  0  0  0  0  0  0  0  0
   -4.3623    4.0810   -1.7507 S   0  0  0  0  0  0  0  0  0  0  0  0
   -5.0170    3.7722   -0.0391 C   0  0  0  0  0  0  0  0  0  0  0  0
   -2.8998    4.2184   -1.4985 O   0  0  0  0  0  0  0  0  0  0  0  0
   -5.0629    5.2739   -2.2238 O   0  0  0  0  0  0  0  0  0  0  0  0
   -4.7010    2.8015   -2.4508 O   0  0  0  0  0  0  0  0  0  0  0  0
   -4.4025    2.6747    0.4855 F   0  0  0  0  0  0  0  0  0  0  0  0
   -4.7596    4.8031    0.7759 F   0  0  0  0  0  0  0  0  0  0  0  0
   -6.3318    3.5425   -0.0396 F   0  0  0  0  0  0  0  0  0  0  0  0
  1  8  2  0  0  0  0
  1  4  1  0  0  0  0
  2  1  1  0  0  0  0
  3  2  1  0  0  0  0
  4  5  2  0  0  0  0
  5  6  1  0  0  0  0
  5 10  1  0  0  0  0
  6 11  1  0  0  0  0
  7 12  1  0  0  0  0
  7  6  2  0  0  0  0
  8  7  1  0  0  0  0
  9  4  1  0  0  0  0
 13  8  1  0  0  0  0
 14 16  1  0  0  0  0
 14 15  1  0  0  0  0
 15 19  1  0  0  0  0
 15 20  1  0  0  0  0
 17 14  2  0  0  0  0
 18 14  2  0  0  0  0
 21 15  1  0  0  0  0
M  RAD  3   2   2   3   3  16   2
M  END
