Coordinates from ORCA-job PhN2+~TfO-_B3LYPG-6-31G_dp-NX-Scan-d89-09-n800
 OpenBabel11261920253D

 21 20  0  0  0  0  0  0  0  0999 V2000
   -1.2773    1.2902   -0.5552 C   0  0  0  0  0  0  0  0  0  0  0  0
   -2.0653    1.2748   -1.6966 N   0  0  0  0  0  0  0  0  0  0  0  0
   -2.8223    1.4004   -2.5102 N   0  0  0  0  0  0  0  0  0  0  0  0
   -1.3275    2.4329    0.2590 C   0  0  0  0  0  0  0  0  0  0  0  0
   -0.5328    2.4211    1.4015 C   0  0  0  0  0  0  0  0  0  0  0  0
    0.2649    1.3136    1.7050 C   0  0  0  0  0  0  0  0  0  0  0  0
    0.2923    0.1909    0.8667 C   0  0  0  0  0  0  0  0  0  0  0  0
   -0.4796    0.1665   -0.2868 C   0  0  0  0  0  0  0  0  0  0  0  0
   -1.9603    3.2659   -0.0350 H   0  0  0  0  0  0  0  0  0  0  0  0
   -0.5433    3.2842    2.0588 H   0  0  0  0  0  0  0  0  0  0  0  0
    0.8733    1.3221    2.6041 H   0  0  0  0  0  0  0  0  0  0  0  0
    0.9148   -0.6622    1.1137 H   0  0  0  0  0  0  0  0  0  0  0  0
   -0.4827   -0.6863   -0.9566 H   0  0  0  0  0  0  0  0  0  0  0  0
   -4.5157    3.6854   -1.5921 S   0  0  0  0  0  0  0  0  0  0  0  0
   -4.9385    4.3881    0.0782 C   0  0  0  0  0  0  0  0  0  0  0  0
   -3.0578    3.9843   -1.7199 O   0  0  0  0  0  0  0  0  0  0  0  0
   -5.4102    4.3691   -2.5277 O   0  0  0  0  0  0  0  0  0  0  0  0
   -4.7491    2.2173   -1.3942 O   0  0  0  0  0  0  0  0  0  0  0  0
   -4.1139    3.8714    1.0229 F   0  0  0  0  0  0  0  0  0  0  0  0
   -4.7861    5.7175    0.0865 F   0  0  0  0  0  0  0  0  0  0  0  0
   -6.1956    4.0956    0.4245 F   0  0  0  0  0  0  0  0  0  0  0  0
  1  8  2  0  0  0  0
  1  4  1  0  0  0  0
  2  1  1  0  0  0  0
  3  2  1  0  0  0  0
  4  5  2  0  0  0  0
  5  6  1  0  0  0  0
  5 10  1  0  0  0  0
  6 11  1  0  0  0  0
  7 12  1  0  0  0  0
  7  6  2  0  0  0  0
  8  7  1  0  0  0  0
  9  4  1  0  0  0  0
 13  8  1  0  0  0  0
 14 18  1  0  0  0  0
 14 15  1  0  0  0  0
 15 20  1  0  0  0  0
 15 21  1  0  0  0  0
 15 19  1  0  0  0  0
 16 14  2  0  0  0  0
 17 14  2  0  0  0  0
M  RAD  3   2   2   3   3  18   2
M  END
