Coordinates from ORCA-job PhN2+~TfO-_B3LYPG-6-31G_dp-NX-Scan-d89-09-n800
 OpenBabel11261920253D

 21 20  0  0  0  0  0  0  0  0999 V2000
   -1.5414   -0.7367   -0.2479 C   0  0  0  0  0  0  0  0  0  0  0  0
   -1.7055   -2.0364   -0.6070 N   0  0  0  0  0  0  0  0  0  0  0  0
   -1.8660   -3.1037   -0.9125 N   0  0  0  0  0  0  0  0  0  0  0  0
   -2.6445    0.1417   -0.4075 C   0  0  0  0  0  0  0  0  0  0  0  0
   -2.4575    1.4674   -0.0677 C   0  0  0  0  0  0  0  0  0  0  0  0
   -1.2072    1.9006    0.4166 C   0  0  0  0  0  0  0  0  0  0  0  0
   -0.1362    1.0037    0.5833 C   0  0  0  0  0  0  0  0  0  0  0  0
   -0.2788   -0.3303    0.2505 C   0  0  0  0  0  0  0  0  0  0  0  0
   -3.5886   -0.2282   -0.7925 H   0  0  0  0  0  0  0  0  0  0  0  0
   -3.2588    2.2073   -0.1929 H   0  0  0  0  0  0  0  0  0  0  0  0
   -1.1122    2.9680    0.6305 H   0  0  0  0  0  0  0  0  0  0  0  0
    0.8157    1.3594    0.9631 H   0  0  0  0  0  0  0  0  0  0  0  0
    0.5288   -1.0466    0.3528 H   0  0  0  0  0  0  0  0  0  0  0  0
   -3.1140    4.9218   -0.5360 S   0  0  0  0  0  0  0  0  0  0  0  0
   -3.9558    6.4560    0.0816 C   0  0  0  0  0  0  0  0  0  0  0  0
   -2.6991    5.2347   -1.9134 O   0  0  0  0  0  0  0  0  0  0  0  0
   -4.1796    3.8841   -0.4122 O   0  0  0  0  0  0  0  0  0  0  0  0
   -2.0000    4.7366    0.4382 O   0  0  0  0  0  0  0  0  0  0  0  0
   -3.1142    7.5011    0.0541 F   0  0  0  0  0  0  0  0  0  0  0  0
   -5.0201    6.7520   -0.6807 F   0  0  0  0  0  0  0  0  0  0  0  0
   -4.3778    6.2903    1.3460 F   0  0  0  0  0  0  0  0  0  0  0  0
  1  8  1  0  0  0  0
  2  1  1  0  0  0  0
  3  2  1  0  0  0  0
  4  1  2  0  0  0  0
  4  5  1  0  0  0  0
  5  6  2  0  0  0  0
  6  7  1  0  0  0  0
  6 11  1  0  0  0  0
  7 12  1  0  0  0  0
  8 13  1  0  0  0  0
  8  7  2  0  0  0  0
  9  4  1  0  0  0  0
 10  5  1  0  0  0  0
 14 17  2  0  0  0  0
 14 15  1  0  0  0  0
 14 18  1  0  0  0  0
 15 21  1  0  0  0  0
 16 14  2  0  0  0  0
 19 15  1  0  0  0  0
 20 15  1  0  0  0  0
M  RAD  3   2   2   3   3  18   2
M  END
