Coordinates from ORCA-job PhN2+~TfO-_B3LYPG-6-31G_dp-NX-Scan-d89-09-n800
 OpenBabel11261920253D

 21 20  0  0  0  0  0  0  0  0999 V2000
   -1.4313    1.0806   -0.5125 C   0  0  0  0  0  0  0  0  0  0  0  0
   -2.3617    0.8658   -1.5232 N   0  0  0  0  0  0  0  0  0  0  0  0
   -3.0110    0.4925   -2.3486 N   0  0  0  0  0  0  0  0  0  0  0  0
   -1.1768    2.3751   -0.0413 C   0  0  0  0  0  0  0  0  0  0  0  0
   -0.2057    2.4961    0.9505 C   0  0  0  0  0  0  0  0  0  0  0  0
    0.4630    1.3734    1.4423 C   0  0  0  0  0  0  0  0  0  0  0  0
    0.1803    0.0904    0.9494 C   0  0  0  0  0  0  0  0  0  0  0  0
   -0.7726   -0.0754   -0.0423 C   0  0  0  0  0  0  0  0  0  0  0  0
   -1.7283    3.2406   -0.4118 H   0  0  0  0  0  0  0  0  0  0  0  0
    0.0118    3.4834    1.3429 H   0  0  0  0  0  0  0  0  0  0  0  0
    1.2111    1.4916    2.2204 H   0  0  0  0  0  0  0  0  0  0  0  0
    0.7024   -0.7758    1.3405 H   0  0  0  0  0  0  0  0  0  0  0  0
   -1.0147   -1.0525   -0.4453 H   0  0  0  0  0  0  0  0  0  0  0  0
   -3.9919    4.2801   -1.2150 S   0  0  0  0  0  0  0  0  0  0  0  0
   -5.3984    4.3163   -0.0036 C   0  0  0  0  0  0  0  0  0  0  0  0
   -2.8525    4.8481   -0.4480 O   0  0  0  0  0  0  0  0  0  0  0  0
   -4.4663    5.0438   -2.3721 O   0  0  0  0  0  0  0  0  0  0  0  0
   -3.8112    2.8072   -1.4601 O   0  0  0  0  0  0  0  0  0  0  0  0
   -5.0835    3.6119    1.1006 F   0  0  0  0  0  0  0  0  0  0  0  0
   -5.6739    5.5737    0.3651 F   0  0  0  0  0  0  0  0  0  0  0  0
   -6.5014    3.7760   -0.5414 F   0  0  0  0  0  0  0  0  0  0  0  0
  1  8  2  0  0  0  0
  1  4  1  0  0  0  0
  2  1  1  0  0  0  0
  3  2  1  0  0  0  0
  4  5  2  0  0  0  0
  5 10  1  0  0  0  0
  5  6  1  0  0  0  0
  6 11  1  0  0  0  0
  7 12  1  0  0  0  0
  7  6  2  0  0  0  0
  8  7  1  0  0  0  0
  9  4  1  0  0  0  0
 13  8  1  0  0  0  0
 14 16  1  0  0  0  0
 14 15  1  0  0  0  0
 15 20  1  0  0  0  0
 15 19  1  0  0  0  0
 17 14  2  0  0  0  0
 18 14  2  0  0  0  0
 21 15  1  0  0  0  0
M  RAD  3   2   2   3   3  16   2
M  END
