Coordinates from ORCA-job PhN2+~TfO-_B3LYPG-6-31G_dp-NX-Scan-d89-09-n800
 OpenBabel11261920253D

 21 20  0  0  0  0  0  0  0  0999 V2000
   -1.5622    1.0421   -0.1464 C   0  0  0  0  0  0  0  0  0  0  0  0
   -2.8177    0.9841   -0.7505 N   0  0  0  0  0  0  0  0  0  0  0  0
   -3.8888    1.3141   -0.9217 N   0  0  0  0  0  0  0  0  0  0  0  0
   -1.3819    1.8928    0.9569 C   0  0  0  0  0  0  0  0  0  0  0  0
   -0.1156    1.9293    1.5309 C   0  0  0  0  0  0  0  0  0  0  0  0
    0.9224    1.1466    1.0135 C   0  0  0  0  0  0  0  0  0  0  0  0
    0.7127    0.3068   -0.0863 C   0  0  0  0  0  0  0  0  0  0  0  0
   -0.5427    0.2427   -0.6791 C   0  0  0  0  0  0  0  0  0  0  0  0
   -2.2143    2.4854    1.3189 H   0  0  0  0  0  0  0  0  0  0  0  0
    0.0609    2.5774    2.3826 H   0  0  0  0  0  0  0  0  0  0  0  0
    1.9058    1.1920    1.4711 H   0  0  0  0  0  0  0  0  0  0  0  0
    1.5259   -0.2930   -0.4799 H   0  0  0  0  0  0  0  0  0  0  0  0
   -0.7402   -0.3934   -1.5345 H   0  0  0  0  0  0  0  0  0  0  0  0
   -3.9767    4.1732   -0.3492 S   0  0  0  0  0  0  0  0  0  0  0  0
   -5.6351    4.5916   -1.0717 C   0  0  0  0  0  0  0  0  0  0  0  0
   -3.6299    5.2778    0.5447 O   0  0  0  0  0  0  0  0  0  0  0  0
   -3.1091    3.9062   -1.5108 O   0  0  0  0  0  0  0  0  0  0  0  0
   -4.2862    2.8909    0.4264 O   0  0  0  0  0  0  0  0  0  0  0  0
   -6.5312    4.8027   -0.1021 F   0  0  0  0  0  0  0  0  0  0  0  0
   -5.5442    5.6939   -1.8244 F   0  0  0  0  0  0  0  0  0  0  0  0
   -6.0649    3.5796   -1.8420 F   0  0  0  0  0  0  0  0  0  0  0  0
  1  4  1  0  0  0  0
  2  1  1  0  0  0  0
  3  2  2  0  0  0  0
  4  9  1  0  0  0  0
  4  5  2  0  0  0  0
  5 10  1  0  0  0  0
  6 11  1  0  0  0  0
  6  5  1  0  0  0  0
  7  6  2  0  0  0  0
  8  1  2  0  0  0  0
  8  7  1  0  0  0  0
 12  7  1  0  0  0  0
 13  8  1  0  0  0  0
 14 18  2  0  0  0  0
 14 16  1  0  0  0  0
 15 14  1  0  0  0  0
 15 19  1  0  0  0  0
 17 14  2  0  0  0  0
 20 15  1  0  0  0  0
 21 15  1  0  0  0  0
M  RAD  2   3   2  16   2
M  END
