Coordinates from ORCA-job PhN2+~TfO-_B3LYPG-6-31G_dp-NX-Scan-d89-09-n800
 OpenBabel11261920253D

 21 21  0  0  0  0  0  0  0  0999 V2000
   -1.4213    1.3059   -0.1257 C   0  0  0  0  0  0  0  0  0  0  0  0
   -2.6427    1.0054   -0.7890 N   0  0  0  0  0  0  0  0  0  0  0  0
   -3.5243    1.7897   -1.1700 N   0  0  0  0  0  0  0  0  0  0  0  0
   -0.8259    2.5579    0.1434 C   0  0  0  0  0  0  0  0  0  0  0  0
    0.4068    2.6036    0.7925 C   0  0  0  0  0  0  0  0  0  0  0  0
    1.0573    1.4326    1.1873 C   0  0  0  0  0  0  0  0  0  0  0  0
    0.4743    0.1913    0.9224 C   0  0  0  0  0  0  0  0  0  0  0  0
   -0.7495    0.1319    0.2659 C   0  0  0  0  0  0  0  0  0  0  0  0
   -1.3014    3.4802   -0.1514 H   0  0  0  0  0  0  0  0  0  0  0  0
    0.8607    3.5693    0.9932 H   0  0  0  0  0  0  0  0  0  0  0  0
    2.0157    1.4885    1.6944 H   0  0  0  0  0  0  0  0  0  0  0  0
    0.9741   -0.7247    1.2211 H   0  0  0  0  0  0  0  0  0  0  0  0
   -1.2206   -0.8178    0.0365 H   0  0  0  0  0  0  0  0  0  0  0  0
   -4.4965    4.1020   -1.5278 S   0  0  0  0  0  0  0  0  0  0  0  0
   -5.8431    3.8180   -0.2488 C   0  0  0  0  0  0  0  0  0  0  0  0
   -3.3031    3.0654   -0.9104 O   0  0  0  0  0  0  0  0  0  0  0  0
   -3.9339    5.4174   -1.2999 O   0  0  0  0  0  0  0  0  0  0  0  0
   -4.9737    3.6247   -2.8082 O   0  0  0  0  0  0  0  0  0  0  0  0
   -6.2966    2.5751   -0.3327 F   0  0  0  0  0  0  0  0  0  0  0  0
   -5.3476    4.0448    0.9632 F   0  0  0  0  0  0  0  0  0  0  0  0
   -6.8212    4.6816   -0.5097 F   0  0  0  0  0  0  0  0  0  0  0  0
  1  4  2  0  0  0  0
  1  8  1  0  0  0  0
  2  1  1  0  0  0  0
  3 16  1  0  0  0  0
  3  2  2  0  0  0  0
  4  5  1  0  0  0  0
  5 10  1  0  0  0  0
  5  6  2  0  0  0  0
  6 11  1  0  0  0  0
  7  6  1  0  0  0  0
  7 12  1  0  0  0  0
  8  7  2  0  0  0  0
  9  4  1  0  0  0  0
 13  8  1  0  0  0  0
 14 17  2  0  0  0  0
 14 16  1  0  0  0  0
 14 15  1  0  0  0  0
 15 20  1  0  0  0  0
 18 14  2  0  0  0  0
 19 15  1  0  0  0  0
 21 15  1  0  0  0  0
M  END
