Coordinates from ORCA-job PhN2+~TfO-_B3LYPG-6-31G_dp-NX-Scan-d89-09-n800
 OpenBabel11261920253D

 21 20  0  0  0  0  0  0  0  0999 V2000
   -1.5255   -0.6993   -0.3221 C   0  0  0  0  0  0  0  0  0  0  0  0
   -1.6423   -1.9678   -0.7935 N   0  0  0  0  0  0  0  0  0  0  0  0
   -1.7609   -3.0101   -1.1905 N   0  0  0  0  0  0  0  0  0  0  0  0
   -2.6762    0.1306   -0.3506 C   0  0  0  0  0  0  0  0  0  0  0  0
   -2.5363    1.4288    0.0997 C   0  0  0  0  0  0  0  0  0  0  0  0
   -1.2859    1.8832    0.5646 C   0  0  0  0  0  0  0  0  0  0  0  0
   -0.1659    1.0325    0.5985 C   0  0  0  0  0  0  0  0  0  0  0  0
   -0.2605   -0.2724    0.1526 C   0  0  0  0  0  0  0  0  0  0  0  0
   -3.6184   -0.2512   -0.7283 H   0  0  0  0  0  0  0  0  0  0  0  0
   -3.3723    2.1371    0.0627 H   0  0  0  0  0  0  0  0  0  0  0  0
   -1.2230    2.9341    0.8573 H   0  0  0  0  0  0  0  0  0  0  0  0
    0.7862    1.4036    0.9622 H   0  0  0  0  0  0  0  0  0  0  0  0
    0.5854   -0.9507    0.1505 H   0  0  0  0  0  0  0  0  0  0  0  0
   -3.1269    4.8272   -0.4044 S   0  0  0  0  0  0  0  0  0  0  0  0
   -3.8873    6.4845   -0.0582 C   0  0  0  0  0  0  0  0  0  0  0  0
   -2.6753    4.8923   -1.8057 O   0  0  0  0  0  0  0  0  0  0  0  0
   -4.2493    3.8797   -0.1443 O   0  0  0  0  0  0  0  0  0  0  0  0
   -2.0351    4.7384    0.6081 O   0  0  0  0  0  0  0  0  0  0  0  0
   -2.9822    7.4624   -0.2194 F   0  0  0  0  0  0  0  0  0  0  0  0
   -4.9116    6.7172   -0.8934 F   0  0  0  0  0  0  0  0  0  0  0  0
   -4.3495    6.5428    1.2008 F   0  0  0  0  0  0  0  0  0  0  0  0
  1  8  1  0  0  0  0
  2  1  1  0  0  0  0
  3  2  1  0  0  0  0
  4  1  2  0  0  0  0
  4  5  1  0  0  0  0
  5  6  2  0  0  0  0
  6  7  1  0  0  0  0
  6 11  1  0  0  0  0
  7 12  1  0  0  0  0
  8  7  2  0  0  0  0
  9  4  1  0  0  0  0
 10  5  1  0  0  0  0
 13  8  1  0  0  0  0
 14 17  2  0  0  0  0
 14 15  1  0  0  0  0
 14 18  1  0  0  0  0
 15 21  1  0  0  0  0
 16 14  2  0  0  0  0
 19 15  1  0  0  0  0
 20 15  1  0  0  0  0
M  RAD  3   2   2   3   3  18   2
M  END
