Coordinates from ORCA-job PhN2+~TfO-_B3LYPG-6-31G_dp-NX-Scan-d89-09-n800
 OpenBabel11261920253D

 21 20  0  0  0  0  0  0  0  0999 V2000
   -1.5079   -0.3243   -0.3584 C   0  0  0  0  0  0  0  0  0  0  0  0
   -1.4475   -1.5585   -0.8819 N   0  0  0  0  0  0  0  0  0  0  0  0
   -1.4048   -2.5947   -1.3273 N   0  0  0  0  0  0  0  0  0  0  0  0
   -2.6125    0.0147    0.4799 C   0  0  0  0  0  0  0  0  0  0  0  0
   -2.6750    1.2894    0.9751 C   0  0  0  0  0  0  0  0  0  0  0  0
   -1.6845    2.2456    0.6275 C   0  0  0  0  0  0  0  0  0  0  0  0
   -0.5596    1.8656   -0.1475 C   0  0  0  0  0  0  0  0  0  0  0  0
   -0.4677    0.6002   -0.6663 C   0  0  0  0  0  0  0  0  0  0  0  0
   -3.3725   -0.7274    0.6982 H   0  0  0  0  0  0  0  0  0  0  0  0
   -3.5106    1.6161    1.5822 H   0  0  0  0  0  0  0  0  0  0  0  0
   -1.6974    3.2081    1.1170 H   0  0  0  0  0  0  0  0  0  0  0  0
    0.2088    2.5981   -0.3661 H   0  0  0  0  0  0  0  0  0  0  0  0
    0.3640    0.2902   -1.2894 H   0  0  0  0  0  0  0  0  0  0  0  0
   -3.8751    4.3021   -0.3484 S   0  0  0  0  0  0  0  0  0  0  0  0
   -2.8609    5.8514   -0.1858 C   0  0  0  0  0  0  0  0  0  0  0  0
   -2.8670    3.3431   -0.9535 O   0  0  0  0  0  0  0  0  0  0  0  0
   -4.9708    4.6480   -1.2567 O   0  0  0  0  0  0  0  0  0  0  0  0
   -4.2052    3.9622    1.0511 O   0  0  0  0  0  0  0  0  0  0  0  0
   -1.7597    5.5992    0.5637 F   0  0  0  0  0  0  0  0  0  0  0  0
   -2.4507    6.2911   -1.3815 F   0  0  0  0  0  0  0  0  0  0  0  0
   -3.5563    6.8224    0.4145 F   0  0  0  0  0  0  0  0  0  0  0  0
  1  4  1  0  0  0  0
  2  1  1  0  0  0  0
  3  2  1  0  0  0  0
  4  9  1  0  0  0  0
  4  5  2  0  0  0  0
  5 10  1  0  0  0  0
  6  5  1  0  0  0  0
  6 11  1  0  0  0  0
  7  6  2  0  0  0  0
  8  1  2  0  0  0  0
  8  7  1  0  0  0  0
 12  7  1  0  0  0  0
 13  8  1  0  0  0  0
 14 15  1  0  0  0  0
 14 18  1  0  0  0  0
 15 21  1  0  0  0  0
 15 19  1  0  0  0  0
 16 14  2  0  0  0  0
 17 14  2  0  0  0  0
 20 15  1  0  0  0  0
M  RAD  3   2   2   3   3  18   2
M  END
