Coordinates from ORCA-job PhN2+~TfO-_B3LYPG-6-31G_dp-NX-Scan-d89-09-n800
 OpenBabel11261920253D

 21 20  0  0  0  0  0  0  0  0999 V2000
   -1.2867    1.0604   -0.4229 C   0  0  0  0  0  0  0  0  0  0  0  0
   -2.3201    0.9905   -1.3545 N   0  0  0  0  0  0  0  0  0  0  0  0
   -3.2926    1.1879   -1.8892 N   0  0  0  0  0  0  0  0  0  0  0  0
   -1.2162    2.1925    0.4045 C   0  0  0  0  0  0  0  0  0  0  0  0
   -0.1682    2.2302    1.3203 C   0  0  0  0  0  0  0  0  0  0  0  0
    0.7529    1.1813    1.3979 C   0  0  0  0  0  0  0  0  0  0  0  0
    0.6540    0.0684    0.5524 C   0  0  0  0  0  0  0  0  0  0  0  0
   -0.3703   -0.0015   -0.3816 C   0  0  0  0  0  0  0  0  0  0  0  0
   -1.9388    3.0051    0.3039 H   0  0  0  0  0  0  0  0  0  0  0  0
   -0.0749    3.0908    1.9746 H   0  0  0  0  0  0  0  0  0  0  0  0
    1.5619    1.2311    2.1207 H   0  0  0  0  0  0  0  0  0  0  0  0
    1.3767   -0.7379    0.6206 H   0  0  0  0  0  0  0  0  0  0  0  0
   -0.4763   -0.8452   -1.0547 H   0  0  0  0  0  0  0  0  0  0  0  0
   -4.2248    3.9046   -1.0050 S   0  0  0  0  0  0  0  0  0  0  0  0
   -5.7413    4.7625   -0.3569 C   0  0  0  0  0  0  0  0  0  0  0  0
   -3.0916    4.5492   -0.2998 O   0  0  0  0  0  0  0  0  0  0  0  0
   -4.2679    4.0566   -2.4655 O   0  0  0  0  0  0  0  0  0  0  0  0
   -4.4383    2.4821   -0.5293 O   0  0  0  0  0  0  0  0  0  0  0  0
   -5.8130    4.6416    0.9756 F   0  0  0  0  0  0  0  0  0  0  0  0
   -5.6940    6.0634   -0.6681 F   0  0  0  0  0  0  0  0  0  0  0  0
   -6.8434    4.2291   -0.8963 F   0  0  0  0  0  0  0  0  0  0  0  0
  1  8  2  0  0  0  0
  1  4  1  0  0  0  0
  2  1  1  0  0  0  0
  3  2  1  0  0  0  0
  4  5  2  0  0  0  0
  5  6  1  0  0  0  0
  5 10  1  0  0  0  0
  6 11  1  0  0  0  0
  7 12  1  0  0  0  0
  7  6  2  0  0  0  0
  8  7  1  0  0  0  0
  9  4  1  0  0  0  0
 13  8  1  0  0  0  0
 14 18  2  0  0  0  0
 14 15  1  0  0  0  0
 14 16  1  0  0  0  0
 15 19  1  0  0  0  0
 17 14  2  0  0  0  0
 20 15  1  0  0  0  0
 21 15  1  0  0  0  0
M  RAD  3   2   2   3   3  16   2
M  END
