Coordinates from ORCA-job PhN2+~TfO-_B3LYPG-6-31G_dp-NX-Scan-d89-09-n800
 OpenBabel11261920253D

 21 20  0  0  0  0  0  0  0  0999 V2000
   -1.5379   -0.5660   -0.4919 C   0  0  0  0  0  0  0  0  0  0  0  0
   -1.5683   -1.7989   -1.0547 N   0  0  0  0  0  0  0  0  0  0  0  0
   -1.6016   -2.8241   -1.5125 N   0  0  0  0  0  0  0  0  0  0  0  0
   -2.7706    0.0892   -0.2249 C   0  0  0  0  0  0  0  0  0  0  0  0
   -2.7176    1.3390    0.3542 C   0  0  0  0  0  0  0  0  0  0  0  0
   -1.4717    1.9230    0.6699 C   0  0  0  0  0  0  0  0  0  0  0  0
   -0.2656    1.2525    0.3919 C   0  0  0  0  0  0  0  0  0  0  0  0
   -0.2735    0.0033   -0.1958 C   0  0  0  0  0  0  0  0  0  0  0  0
   -3.7096   -0.3861   -0.4853 H   0  0  0  0  0  0  0  0  0  0  0  0
   -3.6274    1.9096    0.5348 H   0  0  0  0  0  0  0  0  0  0  0  0
   -1.4600    2.9029    1.1441 H   0  0  0  0  0  0  0  0  0  0  0  0
    0.6804    1.7232    0.6354 H   0  0  0  0  0  0  0  0  0  0  0  0
    0.6382   -0.5369   -0.4250 H   0  0  0  0  0  0  0  0  0  0  0  0
   -3.1730    4.6426    0.1601 S   0  0  0  0  0  0  0  0  0  0  0  0
   -3.6210    6.3627   -0.3797 C   0  0  0  0  0  0  0  0  0  0  0  0
   -2.3548    4.1115   -0.9672 O   0  0  0  0  0  0  0  0  0  0  0  0
   -4.4804    3.9612    0.3336 O   0  0  0  0  0  0  0  0  0  0  0  0
   -2.3976    4.8374    1.4111 O   0  0  0  0  0  0  0  0  0  0  0  0
   -2.5145    7.0879   -0.6036 F   0  0  0  0  0  0  0  0  0  0  0  0
   -4.3395    6.3300   -1.5126 F   0  0  0  0  0  0  0  0  0  0  0  0
   -4.3468    6.9787    0.5644 F   0  0  0  0  0  0  0  0  0  0  0  0
  1  4  2  0  0  0  0
  1  8  1  0  0  0  0
  2  1  1  0  0  0  0
  3  2  1  0  0  0  0
  4  5  1  0  0  0  0
  5 10  1  0  0  0  0
  5  6  2  0  0  0  0
  6 11  1  0  0  0  0
  7 12  1  0  0  0  0
  7  6  1  0  0  0  0
  8  7  2  0  0  0  0
  9  4  1  0  0  0  0
 13  8  1  0  0  0  0
 14 17  2  0  0  0  0
 14 18  1  0  0  0  0
 15 14  1  0  0  0  0
 15 21  1  0  0  0  0
 16 14  2  0  0  0  0
 19 15  1  0  0  0  0
 20 15  1  0  0  0  0
M  RAD  3   2   2   3   3  18   2
M  END
