Coordinates from ORCA-job PhN2+~TfO-_B3LYPG-6-31G_dp-NX-Scan-d89-09-n800
 OpenBabel11261920253D

 21 20  0  0  0  0  0  0  0  0999 V2000
   -1.5101   -0.3149   -0.3621 C   0  0  0  0  0  0  0  0  0  0  0  0
   -1.4533   -1.5416   -0.9023 N   0  0  0  0  0  0  0  0  0  0  0  0
   -1.4144   -2.5711   -1.3634 N   0  0  0  0  0  0  0  0  0  0  0  0
   -2.6126    0.0149    0.4827 C   0  0  0  0  0  0  0  0  0  0  0  0
   -2.6758    1.2851    0.9883 C   0  0  0  0  0  0  0  0  0  0  0  0
   -1.6894    2.2468    0.6428 C   0  0  0  0  0  0  0  0  0  0  0  0
   -0.5622    1.8731   -0.1326 C   0  0  0  0  0  0  0  0  0  0  0  0
   -0.4699    0.6125   -0.6620 C   0  0  0  0  0  0  0  0  0  0  0  0
   -3.3709   -0.7302    0.6966 H   0  0  0  0  0  0  0  0  0  0  0  0
   -3.5103    1.6048    1.6008 H   0  0  0  0  0  0  0  0  0  0  0  0
   -1.7048    3.2065    1.1378 H   0  0  0  0  0  0  0  0  0  0  0  0
    0.2054    2.6082   -0.3454 H   0  0  0  0  0  0  0  0  0  0  0  0
    0.3614    0.3082   -1.2883 H   0  0  0  0  0  0  0  0  0  0  0  0
   -3.8738    4.2938   -0.3433 S   0  0  0  0  0  0  0  0  0  0  0  0
   -2.8529    5.8409   -0.2021 C   0  0  0  0  0  0  0  0  0  0  0  0
   -2.8702    3.3235   -0.9397 O   0  0  0  0  0  0  0  0  0  0  0  0
   -4.9700    4.6323   -1.2536 O   0  0  0  0  0  0  0  0  0  0  0  0
   -4.2012    3.9709    1.0607 O   0  0  0  0  0  0  0  0  0  0  0  0
   -1.7500    5.5926    0.5461 F   0  0  0  0  0  0  0  0  0  0  0  0
   -2.4455    6.2651   -1.4042 F   0  0  0  0  0  0  0  0  0  0  0  0
   -3.5423    6.8213    0.3895 F   0  0  0  0  0  0  0  0  0  0  0  0
  1  4  1  0  0  0  0
  2  1  1  0  0  0  0
  3  2  1  0  0  0  0
  4  9  1  0  0  0  0
  4  5  2  0  0  0  0
  5 10  1  0  0  0  0
  6  5  1  0  0  0  0
  6 11  1  0  0  0  0
  7  6  2  0  0  0  0
  8  1  2  0  0  0  0
  8  7  1  0  0  0  0
 12  7  1  0  0  0  0
 13  8  1  0  0  0  0
 14 15  1  0  0  0  0
 14 18  1  0  0  0  0
 15 21  1  0  0  0  0
 15 19  1  0  0  0  0
 16 14  2  0  0  0  0
 17 14  2  0  0  0  0
 20 15  1  0  0  0  0
M  RAD  3   2   2   3   3  18   2
M  END
