Coordinates from ORCA-job PhN2+~TfO-_B3LYPG-6-31G_dp-NX-Scan-d89-09-n800
 OpenBabel11261920253D

 21 20  0  0  0  0  0  0  0  0999 V2000
   -1.1743    1.4076   -0.7030 C   0  0  0  0  0  0  0  0  0  0  0  0
   -1.7633    1.5339   -1.9483 N   0  0  0  0  0  0  0  0  0  0  0  0
   -2.3315    1.8647   -2.8539 N   0  0  0  0  0  0  0  0  0  0  0  0
   -1.3426    2.4715    0.1983 C   0  0  0  0  0  0  0  0  0  0  0  0
   -0.7499    2.3339    1.4480 C   0  0  0  0  0  0  0  0  0  0  0  0
   -0.0303    1.1779    1.7693 C   0  0  0  0  0  0  0  0  0  0  0  0
    0.1180    0.1346    0.8455 C   0  0  0  0  0  0  0  0  0  0  0  0
   -0.4563    0.2378   -0.4142 C   0  0  0  0  0  0  0  0  0  0  0  0
   -1.9168    3.3411   -0.0958 H   0  0  0  0  0  0  0  0  0  0  0  0
   -0.8647    3.1298    2.1760 H   0  0  0  0  0  0  0  0  0  0  0  0
    0.4197    1.0852    2.7527 H   0  0  0  0  0  0  0  0  0  0  0  0
    0.6764   -0.7563    1.1107 H   0  0  0  0  0  0  0  0  0  0  0  0
   -0.3679   -0.5517   -1.1521 H   0  0  0  0  0  0  0  0  0  0  0  0
   -4.5647    3.3516   -1.3403 S   0  0  0  0  0  0  0  0  0  0  0  0
   -4.7571    4.5646    0.0592 C   0  0  0  0  0  0  0  0  0  0  0  0
   -3.3195    3.8747   -2.0144 O   0  0  0  0  0  0  0  0  0  0  0  0
   -5.8047    3.4726   -2.1099 O   0  0  0  0  0  0  0  0  0  0  0  0
   -4.3057    2.0592   -0.6581 O   0  0  0  0  0  0  0  0  0  0  0  0
   -3.6369    4.5829    0.8283 F   0  0  0  0  0  0  0  0  0  0  0  0
   -4.9578    5.8043   -0.3975 F   0  0  0  0  0  0  0  0  0  0  0  0
   -5.7830    4.2230    0.8461 F   0  0  0  0  0  0  0  0  0  0  0  0
  1  8  2  0  0  0  0
  1  4  1  0  0  0  0
  2  1  1  0  0  0  0
  3  2  1  0  0  0  0
  4  5  2  0  0  0  0
  5  6  1  0  0  0  0
  5 10  1  0  0  0  0
  6 11  1  0  0  0  0
  7 12  1  0  0  0  0
  7  6  2  0  0  0  0
  8  7  1  0  0  0  0
  9  4  1  0  0  0  0
 13  8  1  0  0  0  0
 14 18  1  0  0  0  0
 14 15  1  0  0  0  0
 15 19  1  0  0  0  0
 15 21  1  0  0  0  0
 16 14  2  0  0  0  0
 17 14  2  0  0  0  0
 20 15  1  0  0  0  0
M  RAD  3   2   2   3   3  18   2
M  END
