Coordinates from ORCA-job PhN2+~TfO-_B3LYPG-6-31G_dp-NX-Scan-d89-09-n800
 OpenBabel11261920253D

 21 20  0  0  0  0  0  0  0  0999 V2000
   -1.5348   -0.5800   -0.4800 C   0  0  0  0  0  0  0  0  0  0  0  0
   -1.5773   -1.8174   -1.0333 N   0  0  0  0  0  0  0  0  0  0  0  0
   -1.6230   -2.8439   -1.4863 N   0  0  0  0  0  0  0  0  0  0  0  0
   -2.7601    0.1024   -0.2517 C   0  0  0  0  0  0  0  0  0  0  0  0
   -2.6960    1.3598    0.3108 C   0  0  0  0  0  0  0  0  0  0  0  0
   -1.4461    1.9235    0.6459 C   0  0  0  0  0  0  0  0  0  0  0  0
   -0.2478    1.2235    0.4112 C   0  0  0  0  0  0  0  0  0  0  0  0
   -0.2666   -0.0344   -0.1583 C   0  0  0  0  0  0  0  0  0  0  0  0
   -3.7019   -0.3580   -0.5282 H   0  0  0  0  0  0  0  0  0  0  0  0
   -3.5989    1.9505    0.4649 H   0  0  0  0  0  0  0  0  0  0  0  0
   -1.4257    2.9157    1.0948 H   0  0  0  0  0  0  0  0  0  0  0  0
    0.7015    1.6782    0.6720 H   0  0  0  0  0  0  0  0  0  0  0  0
    0.6390   -0.5965   -0.3569 H   0  0  0  0  0  0  0  0  0  0  0  0
   -3.1714    4.6550    0.1426 S   0  0  0  0  0  0  0  0  0  0  0  0
   -3.6561    6.3772   -0.3563 C   0  0  0  0  0  0  0  0  0  0  0  0
   -2.3830    4.1467   -1.0138 O   0  0  0  0  0  0  0  0  0  0  0  0
   -4.4670    3.9571    0.3459 O   0  0  0  0  0  0  0  0  0  0  0  0
   -2.3637    4.8410    1.3748 O   0  0  0  0  0  0  0  0  0  0  0  0
   -2.5656    7.1195   -0.6021 F   0  0  0  0  0  0  0  0  0  0  0  0
   -4.4078    6.3527   -1.4678 F   0  0  0  0  0  0  0  0  0  0  0  0
   -4.3606    6.9703    0.6182 F   0  0  0  0  0  0  0  0  0  0  0  0
  1  4  2  0  0  0  0
  1  8  1  0  0  0  0
  2  1  1  0  0  0  0
  3  2  1  0  0  0  0
  4  5  1  0  0  0  0
  5 10  1  0  0  0  0
  5  6  2  0  0  0  0
  6 11  1  0  0  0  0
  7  6  1  0  0  0  0
  7 12  1  0  0  0  0
  8  7  2  0  0  0  0
  9  4  1  0  0  0  0
 13  8  1  0  0  0  0
 14 17  2  0  0  0  0
 14 18  1  0  0  0  0
 15 14  1  0  0  0  0
 15 21  1  0  0  0  0
 16 14  2  0  0  0  0
 19 15  1  0  0  0  0
 20 15  1  0  0  0  0
M  RAD  3   2   2   3   3  18   2
M  END
