Coordinates from ORCA-job PhN2+~TfO-_B3LYPG-6-31G_dp-NX-Scan-d89-09-n800
 OpenBabel11261920253D

 21 20  0  0  0  0  0  0  0  0999 V2000
   -1.1674    1.4064   -0.6872 C   0  0  0  0  0  0  0  0  0  0  0  0
   -1.7622    1.5407   -1.9335 N   0  0  0  0  0  0  0  0  0  0  0  0
   -2.3839    1.9493   -2.7793 N   0  0  0  0  0  0  0  0  0  0  0  0
   -1.3642    2.4327    0.2504 C   0  0  0  0  0  0  0  0  0  0  0  0
   -0.7602    2.2770    1.4928 C   0  0  0  0  0  0  0  0  0  0  0  0
    0.0006    1.1373    1.7753 C   0  0  0  0  0  0  0  0  0  0  0  0
    0.1791    0.1309    0.8178 C   0  0  0  0  0  0  0  0  0  0  0  0
   -0.4058    0.2565   -0.4356 C   0  0  0  0  0  0  0  0  0  0  0  0
   -1.9661    3.2937   -0.0076 H   0  0  0  0  0  0  0  0  0  0  0  0
   -0.8960    3.0462    2.2457 H   0  0  0  0  0  0  0  0  0  0  0  0
    0.4591    1.0298    2.7533 H   0  0  0  0  0  0  0  0  0  0  0  0
    0.7701   -0.7481    1.0507 H   0  0  0  0  0  0  0  0  0  0  0  0
   -0.2925   -0.5041   -1.2001 H   0  0  0  0  0  0  0  0  0  0  0  0
   -4.6143    3.3220   -1.3213 S   0  0  0  0  0  0  0  0  0  0  0  0
   -4.7640    4.6273   -0.0003 C   0  0  0  0  0  0  0  0  0  0  0  0
   -3.3466    3.7796   -2.0239 O   0  0  0  0  0  0  0  0  0  0  0  0
   -5.8423    3.4404   -2.1078 O   0  0  0  0  0  0  0  0  0  0  0  0
   -4.3839    2.0656   -0.5740 O   0  0  0  0  0  0  0  0  0  0  0  0
   -3.6493    4.6484    0.7726 F   0  0  0  0  0  0  0  0  0  0  0  0
   -4.9159    5.8411   -0.5361 F   0  0  0  0  0  0  0  0  0  0  0  0
   -5.8072    4.3700    0.7947 F   0  0  0  0  0  0  0  0  0  0  0  0
  1  8  2  0  0  0  0
  1  4  1  0  0  0  0
  2  1  1  0  0  0  0
  3  2  1  0  0  0  0
  4  5  2  0  0  0  0
  5  6  1  0  0  0  0
  5 10  1  0  0  0  0
  6 11  1  0  0  0  0
  7 12  1  0  0  0  0
  7  6  2  0  0  0  0
  8  7  1  0  0  0  0
  9  4  1  0  0  0  0
 13  8  1  0  0  0  0
 14 18  1  0  0  0  0
 14 15  1  0  0  0  0
 15 19  1  0  0  0  0
 15 21  1  0  0  0  0
 16 14  2  0  0  0  0
 17 14  2  0  0  0  0
 20 15  1  0  0  0  0
M  RAD  3   2   2   3   3  18   2
M  END
