Coordinates from ORCA-job PhN2+~TfO-_B3LYPG-6-31G_dp-NX-Scan-d89-09-n800
 OpenBabel11261920253D

 21 20  0  0  0  0  0  0  0  0999 V2000
   -1.4919    1.4286   -0.2807 C   0  0  0  0  0  0  0  0  0  0  0  0
   -2.5290    1.3354   -1.2093 N   0  0  0  0  0  0  0  0  0  0  0  0
   -3.2992    0.9686   -1.9369 N   0  0  0  0  0  0  0  0  0  0  0  0
   -1.2302    2.6364    0.3773 C   0  0  0  0  0  0  0  0  0  0  0  0
   -0.1956    2.6417    1.3088 C   0  0  0  0  0  0  0  0  0  0  0  0
    0.5401    1.4815    1.5636 C   0  0  0  0  0  0  0  0  0  0  0  0
    0.2560    0.2868    0.8895 C   0  0  0  0  0  0  0  0  0  0  0  0
   -0.7685    0.2442   -0.0452 C   0  0  0  0  0  0  0  0  0  0  0  0
   -1.8207    3.5091    0.1234 H   0  0  0  0  0  0  0  0  0  0  0  0
    0.0360    3.5609    1.8357 H   0  0  0  0  0  0  0  0  0  0  0  0
    1.3443    1.5044    2.2929 H   0  0  0  0  0  0  0  0  0  0  0  0
    0.8321   -0.6093    1.0939 H   0  0  0  0  0  0  0  0  0  0  0  0
   -1.0144   -0.6657   -0.5810 H   0  0  0  0  0  0  0  0  0  0  0  0
   -4.3634    3.9434   -1.8072 S   0  0  0  0  0  0  0  0  0  0  0  0
   -5.0310    3.8599   -0.0752 C   0  0  0  0  0  0  0  0  0  0  0  0
   -2.8898    3.8881   -1.5561 O   0  0  0  0  0  0  0  0  0  0  0  0
   -4.8801    5.1911   -2.3650 O   0  0  0  0  0  0  0  0  0  0  0  0
   -4.8633    2.6753   -2.4131 O   0  0  0  0  0  0  0  0  0  0  0  0
   -4.5772    2.7271    0.5245 F   0  0  0  0  0  0  0  0  0  0  0  0
   -4.6022    4.8990    0.6567 F   0  0  0  0  0  0  0  0  0  0  0  0
   -6.3647    3.8363   -0.0500 F   0  0  0  0  0  0  0  0  0  0  0  0
  1  8  2  0  0  0  0
  1  4  1  0  0  0  0
  2  1  1  0  0  0  0
  3  2  1  0  0  0  0
  4  5  2  0  0  0  0
  5  6  1  0  0  0  0
  5 10  1  0  0  0  0
  6 11  1  0  0  0  0
  7 12  1  0  0  0  0
  7  6  2  0  0  0  0
  8  7  1  0  0  0  0
  9  4  1  0  0  0  0
 13  8  1  0  0  0  0
 14 16  1  0  0  0  0
 14 15  1  0  0  0  0
 15 21  1  0  0  0  0
 15 19  1  0  0  0  0
 15 20  1  0  0  0  0
 17 14  2  0  0  0  0
 18 14  2  0  0  0  0
M  RAD  3   2   2   3   3  16   2
M  END
