Coordinates from ORCA-job PhN2+~TfO-_B3LYPG-6-31G_dp-NX-Scan-d89-09-n800
 OpenBabel11261920253D

 21 20  0  0  0  0  0  0  0  0999 V2000
   -1.5247   -0.6200   -0.4091 C   0  0  0  0  0  0  0  0  0  0  0  0
   -1.6035   -1.8403   -1.0002 N   0  0  0  0  0  0  0  0  0  0  0  0
   -1.6867   -2.8446   -1.4928 N   0  0  0  0  0  0  0  0  0  0  0  0
   -2.7139    0.1454   -0.2945 C   0  0  0  0  0  0  0  0  0  0  0  0
   -2.6125    1.3967    0.2807 C   0  0  0  0  0  0  0  0  0  0  0  0
   -1.3625    1.8689    0.7286 C   0  0  0  0  0  0  0  0  0  0  0  0
   -0.2018    1.0821    0.6147 C   0  0  0  0  0  0  0  0  0  0  0  0
   -0.2575   -0.1742    0.0417 C   0  0  0  0  0  0  0  0  0  0  0  0
   -3.6552   -0.2445   -0.6658 H   0  0  0  0  0  0  0  0  0  0  0  0
   -3.4789    2.0611    0.3475 H   0  0  0  0  0  0  0  0  0  0  0  0
   -1.3244    2.8880    1.1182 H   0  0  0  0  0  0  0  0  0  0  0  0
    0.7501    1.4673    0.9637 H   0  0  0  0  0  0  0  0  0  0  0  0
    0.6193   -0.8014   -0.0745 H   0  0  0  0  0  0  0  0  0  0  0  0
   -3.1328    4.7137   -0.2420 S   0  0  0  0  0  0  0  0  0  0  0  0
   -3.7986    6.4462   -0.2255 C   0  0  0  0  0  0  0  0  0  0  0  0
   -2.6415    4.5007   -1.6173 O   0  0  0  0  0  0  0  0  0  0  0  0
   -4.3134    3.8872    0.1374 O   0  0  0  0  0  0  0  0  0  0  0  0
   -2.0700    4.7467    0.8038 O   0  0  0  0  0  0  0  0  0  0  0  0
   -2.8343    7.3249   -0.5399 F   0  0  0  0  0  0  0  0  0  0  0  0
   -4.7940    6.5773   -1.1165 F   0  0  0  0  0  0  0  0  0  0  0  0
   -4.2760    6.7616    0.9882 F   0  0  0  0  0  0  0  0  0  0  0  0
  1  4  2  0  0  0  0
  1  8  1  0  0  0  0
  2  1  1  0  0  0  0
  3  2  1  0  0  0  0
  4  5  1  0  0  0  0
  5 10  1  0  0  0  0
  5  6  2  0  0  0  0
  6 11  1  0  0  0  0
  7  6  1  0  0  0  0
  7 12  1  0  0  0  0
  8  7  2  0  0  0  0
  9  4  1  0  0  0  0
 13  8  1  0  0  0  0
 14 15  1  0  0  0  0
 14 17  2  0  0  0  0
 14 18  1  0  0  0  0
 15 21  1  0  0  0  0
 16 14  2  0  0  0  0
 19 15  1  0  0  0  0
 20 15  1  0  0  0  0
M  RAD  3   2   2   3   3  18   2
M  END
