Coordinates from ORCA-job PhN2+~TfO-_B3LYPG-6-31G_dp-NX-Scan-d89-09-n800
 OpenBabel11261920253D

 21 20  0  0  0  0  0  0  0  0999 V2000
   -1.5004   -0.3533   -0.3467 C   0  0  0  0  0  0  0  0  0  0  0  0
   -1.4255   -1.6109   -0.8131 N   0  0  0  0  0  0  0  0  0  0  0  0
   -1.3682   -2.6673   -1.2060 N   0  0  0  0  0  0  0  0  0  0  0  0
   -2.6106    0.0129    0.4720 C   0  0  0  0  0  0  0  0  0  0  0  0
   -2.6726    1.3015    0.9328 C   0  0  0  0  0  0  0  0  0  0  0  0
   -1.6721    2.2425    0.5763 C   0  0  0  0  0  0  0  0  0  0  0  0
   -0.5549    1.8436   -0.1987 C   0  0  0  0  0  0  0  0  0  0  0  0
   -0.4627    0.5635   -0.6828 C   0  0  0  0  0  0  0  0  0  0  0  0
   -3.3736   -0.7208    0.7073 H   0  0  0  0  0  0  0  0  0  0  0  0
   -3.5110    1.6470    1.5258 H   0  0  0  0  0  0  0  0  0  0  0  0
   -1.6775    3.2134    1.0486 H   0  0  0  0  0  0  0  0  0  0  0  0
    0.2151    2.5683   -0.4370 H   0  0  0  0  0  0  0  0  0  0  0  0
    0.3701    0.2369   -1.2958 H   0  0  0  0  0  0  0  0  0  0  0  0
   -3.8824    4.3315   -0.3666 S   0  0  0  0  0  0  0  0  0  0  0  0
   -2.8830    5.8812   -0.1322 C   0  0  0  0  0  0  0  0  0  0  0  0
   -2.8630    3.4047   -0.9974 O   0  0  0  0  0  0  0  0  0  0  0  0
   -4.9727    4.7072   -1.2699 O   0  0  0  0  0  0  0  0  0  0  0  0
   -4.2253    3.9377    1.0163 O   0  0  0  0  0  0  0  0  0  0  0  0
   -1.7893    5.6100    0.6227 F   0  0  0  0  0  0  0  0  0  0  0  0
   -2.4598    6.3694   -1.3043 F   0  0  0  0  0  0  0  0  0  0  0  0
   -3.5938    6.8237    0.4950 F   0  0  0  0  0  0  0  0  0  0  0  0
  1  4  1  0  0  0  0
  2  1  1  0  0  0  0
  3  2  1  0  0  0  0
  4  9  1  0  0  0  0
  4  5  2  0  0  0  0
  5 10  1  0  0  0  0
  6  5  1  0  0  0  0
  6 11  1  0  0  0  0
  7  6  2  0  0  0  0
  8  1  2  0  0  0  0
  8  7  1  0  0  0  0
 12  7  1  0  0  0  0
 13  8  1  0  0  0  0
 14 15  1  0  0  0  0
 14 18  1  0  0  0  0
 15 21  1  0  0  0  0
 15 19  1  0  0  0  0
 16 14  2  0  0  0  0
 17 14  2  0  0  0  0
 20 15  1  0  0  0  0
M  RAD  3   2   2   3   3  18   2
M  END
