Coordinates from ORCA-job PhN2+~TfO-_B3LYPG-6-31G_dp-NX-Scan-d89-09-n800
 OpenBabel11261920253D

 21 21  0  0  0  0  0  0  0  0999 V2000
   -1.4447    1.3424   -0.0196 C   0  0  0  0  0  0  0  0  0  0  0  0
   -2.7328    1.0561   -0.5615 N   0  0  0  0  0  0  0  0  0  0  0  0
   -3.5620    1.9189   -0.9506 N   0  0  0  0  0  0  0  0  0  0  0  0
   -0.7671    2.5733    0.1234 C   0  0  0  0  0  0  0  0  0  0  0  0
    0.5146    2.5959    0.6740 C   0  0  0  0  0  0  0  0  0  0  0  0
    1.1398    1.4205    1.0928 C   0  0  0  0  0  0  0  0  0  0  0  0
    0.4766    0.1985    0.9548 C   0  0  0  0  0  0  0  0  0  0  0  0
   -0.7978    0.1638    0.4014 C   0  0  0  0  0  0  0  0  0  0  0  0
   -1.2157    3.5037   -0.1890 H   0  0  0  0  0  0  0  0  0  0  0  0
    1.0267    3.5482    0.7763 H   0  0  0  0  0  0  0  0  0  0  0  0
    2.1367    1.4568    1.5212 H   0  0  0  0  0  0  0  0  0  0  0  0
    0.9529   -0.7231    1.2748 H   0  0  0  0  0  0  0  0  0  0  0  0
   -1.3322   -0.7721    0.2767 H   0  0  0  0  0  0  0  0  0  0  0  0
   -4.4903    4.1638   -1.4981 S   0  0  0  0  0  0  0  0  0  0  0  0
   -5.9412    3.7059   -0.3670 C   0  0  0  0  0  0  0  0  0  0  0  0
   -3.2681    3.0786   -0.8521 O   0  0  0  0  0  0  0  0  0  0  0  0
   -3.9893    5.4665   -1.1129 O   0  0  0  0  0  0  0  0  0  0  0  0
   -4.8154    3.7671   -2.8523 O   0  0  0  0  0  0  0  0  0  0  0  0
   -6.5622    2.6410   -0.8385 F   0  0  0  0  0  0  0  0  0  0  0  0
   -5.4829    3.4818    0.8578 F   0  0  0  0  0  0  0  0  0  0  0  0
   -6.7586    4.7552   -0.3653 F   0  0  0  0  0  0  0  0  0  0  0  0
  1  4  2  0  0  0  0
  1  8  1  0  0  0  0
  2  1  1  0  0  0  0
  3 16  1  0  0  0  0
  3  2  2  0  0  0  0
  4  5  1  0  0  0  0
  5 10  1  0  0  0  0
  5  6  2  0  0  0  0
  6 11  1  0  0  0  0
  7  6  1  0  0  0  0
  7 12  1  0  0  0  0
  8  7  2  0  0  0  0
  9  4  1  0  0  0  0
 13  8  1  0  0  0  0
 14 17  2  0  0  0  0
 14 16  1  0  0  0  0
 14 15  1  0  0  0  0
 15 21  1  0  0  0  0
 15 20  1  0  0  0  0
 18 14  2  0  0  0  0
 19 15  1  0  0  0  0
M  END
