Coordinates from ORCA-job PhN2+~TfO-_B3LYPG-6-31G_dp-NX-Scan-d89-09-n800
 OpenBabel11261920253D

 21 20  0  0  0  0  0  0  0  0999 V2000
   -1.5271   -0.5943   -0.4330 C   0  0  0  0  0  0  0  0  0  0  0  0
   -1.5959   -1.8015   -1.0515 N   0  0  0  0  0  0  0  0  0  0  0  0
   -1.6700   -2.7955   -1.5659 N   0  0  0  0  0  0  0  0  0  0  0  0
   -2.7255    0.1504   -0.2833 C   0  0  0  0  0  0  0  0  0  0  0  0
   -2.6340    1.3885    0.3210 C   0  0  0  0  0  0  0  0  0  0  0  0
   -1.3848    1.8681    0.7636 C   0  0  0  0  0  0  0  0  0  0  0  0
   -0.2144    1.1021    0.6131 C   0  0  0  0  0  0  0  0  0  0  0  0
   -0.2600   -0.1403    0.0103 C   0  0  0  0  0  0  0  0  0  0  0  0
   -3.6660   -0.2439   -0.6517 H   0  0  0  0  0  0  0  0  0  0  0  0
   -3.5080    2.0384    0.4146 H   0  0  0  0  0  0  0  0  0  0  0  0
   -1.3530    2.8770    1.1789 H   0  0  0  0  0  0  0  0  0  0  0  0
    0.7366    1.4934    0.9576 H   0  0  0  0  0  0  0  0  0  0  0  0
    0.6241   -0.7513   -0.1337 H   0  0  0  0  0  0  0  0  0  0  0  0
   -3.1318    4.6835   -0.1850 S   0  0  0  0  0  0  0  0  0  0  0  0
   -3.7702    6.4244   -0.2717 C   0  0  0  0  0  0  0  0  0  0  0  0
   -2.6238    4.3893   -1.5402 O   0  0  0  0  0  0  0  0  0  0  0  0
   -4.3293    3.8942    0.2178 O   0  0  0  0  0  0  0  0  0  0  0  0
   -2.0820    4.7562    0.8713 O   0  0  0  0  0  0  0  0  0  0  0  0
   -2.7894    7.2689   -0.6267 F   0  0  0  0  0  0  0  0  0  0  0  0
   -4.7563    6.5210   -1.1773 F   0  0  0  0  0  0  0  0  0  0  0  0
   -4.2516    6.8143    0.9183 F   0  0  0  0  0  0  0  0  0  0  0  0
  1  4  2  0  0  0  0
  1  8  1  0  0  0  0
  2  1  1  0  0  0  0
  3  2  1  0  0  0  0
  4  5  1  0  0  0  0
  5 10  1  0  0  0  0
  5  6  2  0  0  0  0
  6 11  1  0  0  0  0
  7  6  1  0  0  0  0
  7 12  1  0  0  0  0
  8  7  2  0  0  0  0
  9  4  1  0  0  0  0
 13  8  1  0  0  0  0
 14 17  2  0  0  0  0
 14 18  1  0  0  0  0
 15 14  1  0  0  0  0
 15 21  1  0  0  0  0
 16 14  2  0  0  0  0
 19 15  1  0  0  0  0
 20 15  1  0  0  0  0
M  RAD  3   2   2   3   3  18   2
M  END
