Coordinates from ORCA-job PhN2+~TfO-_B3LYPG-6-31G_dp-NX-Scan-d89-09-n800
 OpenBabel11261920253D

 21 20  0  0  0  0  0  0  0  0999 V2000
   -1.1715    1.4027   -0.6729 C   0  0  0  0  0  0  0  0  0  0  0  0
   -1.7853    1.5091   -1.9210 N   0  0  0  0  0  0  0  0  0  0  0  0
   -2.4960    2.0149   -2.6595 N   0  0  0  0  0  0  0  0  0  0  0  0
   -1.3715    2.3991    0.2962 C   0  0  0  0  0  0  0  0  0  0  0  0
   -0.7348    2.2377    1.5218 C   0  0  0  0  0  0  0  0  0  0  0  0
    0.0684    1.1182    1.7649 C   0  0  0  0  0  0  0  0  0  0  0  0
    0.2543    0.1401    0.7817 C   0  0  0  0  0  0  0  0  0  0  0  0
   -0.3650    0.2770   -0.4547 C   0  0  0  0  0  0  0  0  0  0  0  0
   -2.0017    3.2493    0.0759 H   0  0  0  0  0  0  0  0  0  0  0  0
   -0.8741    2.9881    2.2932 H   0  0  0  0  0  0  0  0  0  0  0  0
    0.5533    1.0063    2.7297 H   0  0  0  0  0  0  0  0  0  0  0  0
    0.8784   -0.7246    0.9801 H   0  0  0  0  0  0  0  0  0  0  0  0
   -0.2445   -0.4620   -1.2392 H   0  0  0  0  0  0  0  0  0  0  0  0
   -4.6715    3.2937   -1.2959 S   0  0  0  0  0  0  0  0  0  0  0  0
   -4.7974    4.6752   -0.0493 C   0  0  0  0  0  0  0  0  0  0  0  0
   -3.2844    3.6248   -1.8887 O   0  0  0  0  0  0  0  0  0  0  0  0
   -5.7824    3.5015   -2.2212 O   0  0  0  0  0  0  0  0  0  0  0  0
   -4.6151    2.0529   -0.5063 O   0  0  0  0  0  0  0  0  0  0  0  0
   -3.7587    4.6249    0.8134 F   0  0  0  0  0  0  0  0  0  0  0  0
   -4.7860    5.8648   -0.6523 F   0  0  0  0  0  0  0  0  0  0  0  0
   -5.9274    4.5488    0.6505 F   0  0  0  0  0  0  0  0  0  0  0  0
  1  8  2  0  0  0  0
  1  4  1  0  0  0  0
  2  1  1  0  0  0  0
  3  2  2  0  0  0  0
  4  5  2  0  0  0  0
  5  6  1  0  0  0  0
  5 10  1  0  0  0  0
  6 11  1  0  0  0  0
  7 12  1  0  0  0  0
  7  6  2  0  0  0  0
  8  7  1  0  0  0  0
  9  4  1  0  0  0  0
 13  8  1  0  0  0  0
 14 18  1  0  0  0  0
 14 15  1  0  0  0  0
 15 21  1  0  0  0  0
 15 19  1  0  0  0  0
 16 14  2  0  0  0  0
 17 14  2  0  0  0  0
 20 15  1  0  0  0  0
M  RAD  2   3   2  18   2
M  END
