Coordinates from ORCA-job PhN2+~TfO-_B3LYPG-6-31G_dp-NX-Scan-d89-09-n800
 OpenBabel11261920253D

 21 20  0  0  0  0  0  0  0  0999 V2000
   -1.5055    1.4299   -0.2642 C   0  0  0  0  0  0  0  0  0  0  0  0
   -2.5527    1.3300   -1.1859 N   0  0  0  0  0  0  0  0  0  0  0  0
   -3.2948    0.9133   -1.9135 N   0  0  0  0  0  0  0  0  0  0  0  0
   -1.3224    2.5945    0.4889 C   0  0  0  0  0  0  0  0  0  0  0  0
   -0.2791    2.6000    1.4106 C   0  0  0  0  0  0  0  0  0  0  0  0
    0.5444    1.4814    1.5620 C   0  0  0  0  0  0  0  0  0  0  0  0
    0.3383    0.3290    0.7934 C   0  0  0  0  0  0  0  0  0  0  0  0
   -0.6956    0.2877   -0.1318 C   0  0  0  0  0  0  0  0  0  0  0  0
   -1.9706    3.4433    0.3160 H   0  0  0  0  0  0  0  0  0  0  0  0
   -0.1083    3.4880    2.0097 H   0  0  0  0  0  0  0  0  0  0  0  0
    1.3560    1.5048    2.2830 H   0  0  0  0  0  0  0  0  0  0  0  0
    0.9816   -0.5359    0.9163 H   0  0  0  0  0  0  0  0  0  0  0  0
   -0.8825   -0.5914   -0.7385 H   0  0  0  0  0  0  0  0  0  0  0  0
   -4.3728    3.8291   -1.8260 S   0  0  0  0  0  0  0  0  0  0  0  0
   -5.0160    3.9705   -0.0886 C   0  0  0  0  0  0  0  0  0  0  0  0
   -2.9057    3.6375   -1.5770 O   0  0  0  0  0  0  0  0  0  0  0  0
   -4.7479    5.0793   -2.4817 O   0  0  0  0  0  0  0  0  0  0  0  0
   -4.9997    2.5767   -2.3232 O   0  0  0  0  0  0  0  0  0  0  0  0
   -4.6933    2.8483    0.6032 F   0  0  0  0  0  0  0  0  0  0  0  0
   -4.4457    5.0084    0.5462 F   0  0  0  0  0  0  0  0  0  0  0  0
   -6.3406    4.1183   -0.0523 F   0  0  0  0  0  0  0  0  0  0  0  0
  1  8  2  0  0  0  0
  1  4  1  0  0  0  0
  2  1  1  0  0  0  0
  3  2  1  0  0  0  0
  4  5  2  0  0  0  0
  5  6  1  0  0  0  0
  5 10  1  0  0  0  0
  6 11  1  0  0  0  0
  7 12  1  0  0  0  0
  7  6  2  0  0  0  0
  8  7  1  0  0  0  0
  9  4  1  0  0  0  0
 13  8  1  0  0  0  0
 14 16  1  0  0  0  0
 14 15  1  0  0  0  0
 15 21  1  0  0  0  0
 15 20  1  0  0  0  0
 15 19  1  0  0  0  0
 17 14  2  0  0  0  0
 18 14  2  0  0  0  0
M  RAD  3   2   2   3   3  16   2
M  END
