Coordinates from ORCA-job PhN2+~TfO-_B3LYPG-6-31G_dp-NX-Scan-d89-09-n800
 OpenBabel11261920253D

 21 20  0  0  0  0  0  0  0  0999 V2000
   -1.5226   -0.2769   -0.3716 C   0  0  0  0  0  0  0  0  0  0  0  0
   -1.5008   -1.4692   -0.9838 N   0  0  0  0  0  0  0  0  0  0  0  0
   -1.4956   -2.4668   -1.5114 N   0  0  0  0  0  0  0  0  0  0  0  0
   -2.6100    0.0270    0.5021 C   0  0  0  0  0  0  0  0  0  0  0  0
   -2.6613    1.2803    1.0475 C   0  0  0  0  0  0  0  0  0  0  0  0
   -1.6825    2.2515    0.7052 C   0  0  0  0  0  0  0  0  0  0  0  0
   -0.5524    1.8916   -0.0732 C   0  0  0  0  0  0  0  0  0  0  0  0
   -0.4730    0.6488   -0.6431 C   0  0  0  0  0  0  0  0  0  0  0  0
   -3.3696   -0.7213    0.6995 H   0  0  0  0  0  0  0  0  0  0  0  0
   -3.4876    1.5836    1.6788 H   0  0  0  0  0  0  0  0  0  0  0  0
   -1.7036    3.2073    1.2086 H   0  0  0  0  0  0  0  0  0  0  0  0
    0.2183    2.6288   -0.2669 H   0  0  0  0  0  0  0  0  0  0  0  0
    0.3508    0.3583   -1.2857 H   0  0  0  0  0  0  0  0  0  0  0  0
   -3.8648    4.2504   -0.3411 S   0  0  0  0  0  0  0  0  0  0  0  0
   -2.8419    5.8002   -0.2549 C   0  0  0  0  0  0  0  0  0  0  0  0
   -2.8596    3.2576   -0.9002 O   0  0  0  0  0  0  0  0  0  0  0  0
   -4.9579    4.5546   -1.2670 O   0  0  0  0  0  0  0  0  0  0  0  0
   -4.1948    3.9774    1.0723 O   0  0  0  0  0  0  0  0  0  0  0  0
   -1.7391    5.5767    0.5007 F   0  0  0  0  0  0  0  0  0  0  0  0
   -2.4349    6.1816   -1.4715 F   0  0  0  0  0  0  0  0  0  0  0  0
   -3.5300    6.8013    0.3022 F   0  0  0  0  0  0  0  0  0  0  0  0
  1  4  1  0  0  0  0
  2  1  1  0  0  0  0
  3  2  1  0  0  0  0
  4  9  1  0  0  0  0
  4  5  2  0  0  0  0
  5 10  1  0  0  0  0
  6  5  1  0  0  0  0
  6 11  1  0  0  0  0
  7  6  2  0  0  0  0
  8  1  2  0  0  0  0
  8  7  1  0  0  0  0
 12  7  1  0  0  0  0
 13  8  1  0  0  0  0
 14 15  1  0  0  0  0
 14 18  1  0  0  0  0
 15 21  1  0  0  0  0
 15 19  1  0  0  0  0
 16 14  2  0  0  0  0
 17 14  2  0  0  0  0
 20 15  1  0  0  0  0
M  RAD  3   2   2   3   3  18   2
M  END
