Coordinates from ORCA-job PhN2+~TfO-_B3LYPG-6-31G_dp-NX-Scan-d89-09-n800
 OpenBabel11261920253D

 21 20  0  0  0  0  0  0  0  0999 V2000
   -1.5444   -0.7390   -0.2395 C   0  0  0  0  0  0  0  0  0  0  0  0
   -1.7147   -2.0414   -0.5854 N   0  0  0  0  0  0  0  0  0  0  0  0
   -1.8804   -3.1110   -0.8801 N   0  0  0  0  0  0  0  0  0  0  0  0
   -2.6418    0.1439   -0.4124 C   0  0  0  0  0  0  0  0  0  0  0  0
   -2.4488    1.4719   -0.0849 C   0  0  0  0  0  0  0  0  0  0  0  0
   -1.1980    1.9028    0.4001 C   0  0  0  0  0  0  0  0  0  0  0  0
   -0.1328    1.0017    0.5802 C   0  0  0  0  0  0  0  0  0  0  0  0
   -0.2815   -0.3348    0.2600 C   0  0  0  0  0  0  0  0  0  0  0  0
   -3.5866   -0.2246   -0.7970 H   0  0  0  0  0  0  0  0  0  0  0  0
   -3.2460    2.2148   -0.2191 H   0  0  0  0  0  0  0  0  0  0  0  0
   -1.0989    2.9714    0.6056 H   0  0  0  0  0  0  0  0  0  0  0  0
    0.8195    1.3557    0.9606 H   0  0  0  0  0  0  0  0  0  0  0  0
    0.5216   -1.0546    0.3729 H   0  0  0  0  0  0  0  0  0  0  0  0
   -3.1107    4.9325   -0.5504 S   0  0  0  0  0  0  0  0  0  0  0  0
   -3.9633    6.4488    0.0964 C   0  0  0  0  0  0  0  0  0  0  0  0
   -2.6984    5.2746   -1.9214 O   0  0  0  0  0  0  0  0  0  0  0  0
   -4.1693    3.8855   -0.4459 O   0  0  0  0  0  0  0  0  0  0  0  0
   -1.9955    4.7368    0.4204 O   0  0  0  0  0  0  0  0  0  0  0  0
   -3.1294    7.5004    0.0883 F   0  0  0  0  0  0  0  0  0  0  0  0
   -5.0303    6.7512   -0.6596 F   0  0  0  0  0  0  0  0  0  0  0  0
   -4.3832    6.2561    1.3577 F   0  0  0  0  0  0  0  0  0  0  0  0
  1  8  1  0  0  0  0
  2  1  1  0  0  0  0
  3  2  1  0  0  0  0
  4  1  2  0  0  0  0
  4  5  1  0  0  0  0
  5  6  2  0  0  0  0
  6  7  1  0  0  0  0
  6 11  1  0  0  0  0
  7 12  1  0  0  0  0
  8 13  1  0  0  0  0
  8  7  2  0  0  0  0
  9  4  1  0  0  0  0
 10  5  1  0  0  0  0
 14 17  2  0  0  0  0
 14 15  1  0  0  0  0
 14 18  1  0  0  0  0
 15 21  1  0  0  0  0
 16 14  2  0  0  0  0
 19 15  1  0  0  0  0
 20 15  1  0  0  0  0
M  RAD  3   2   2   3   3  18   2
M  END
