Coordinates from ORCA-job PhN2+~TfO-_B3LYPG-6-31G_dp-NX-Scan-d89-09-n800
 OpenBabel11261920253D

 21 20  0  0  0  0  0  0  0  0999 V2000
   -1.5387   -0.7341   -0.2563 C   0  0  0  0  0  0  0  0  0  0  0  0
   -1.6967   -2.0309   -0.6281 N   0  0  0  0  0  0  0  0  0  0  0  0
   -1.8518   -3.0959   -0.9443 N   0  0  0  0  0  0  0  0  0  0  0  0
   -2.6475    0.1394   -0.4021 C   0  0  0  0  0  0  0  0  0  0  0  0
   -2.4665    1.4628   -0.0500 C   0  0  0  0  0  0  0  0  0  0  0  0
   -1.2165    1.8985    0.4329 C   0  0  0  0  0  0  0  0  0  0  0  0
   -0.1397    1.0061    0.5858 C   0  0  0  0  0  0  0  0  0  0  0  0
   -0.2762   -0.3254    0.2404 C   0  0  0  0  0  0  0  0  0  0  0  0
   -3.5911   -0.2320   -0.7870 H   0  0  0  0  0  0  0  0  0  0  0  0
   -3.2719    2.1995   -0.1662 H   0  0  0  0  0  0  0  0  0  0  0  0
   -1.1257    2.9645    0.6555 H   0  0  0  0  0  0  0  0  0  0  0  0
    0.8119    1.3636    0.9645 H   0  0  0  0  0  0  0  0  0  0  0  0
    0.5361   -1.0379    0.3318 H   0  0  0  0  0  0  0  0  0  0  0  0
   -3.1167    4.9111   -0.5215 S   0  0  0  0  0  0  0  0  0  0  0  0
   -3.9482    6.4625    0.0667 C   0  0  0  0  0  0  0  0  0  0  0  0
   -2.6987    5.1952   -1.9043 O   0  0  0  0  0  0  0  0  0  0  0  0
   -4.1893    3.8831   -0.3794 O   0  0  0  0  0  0  0  0  0  0  0  0
   -2.0042    4.7365    0.4564 O   0  0  0  0  0  0  0  0  0  0  0  0
   -3.0988    7.5006    0.0215 F   0  0  0  0  0  0  0  0  0  0  0  0
   -5.0089    6.7523   -0.7029 F   0  0  0  0  0  0  0  0  0  0  0  0
   -4.3736    6.3230    1.3330 F   0  0  0  0  0  0  0  0  0  0  0  0
  1  8  1  0  0  0  0
  2  1  1  0  0  0  0
  3  2  1  0  0  0  0
  4  1  2  0  0  0  0
  4  5  1  0  0  0  0
  5  6  2  0  0  0  0
  6  7  1  0  0  0  0
  6 11  1  0  0  0  0
  7 12  1  0  0  0  0
  8 13  1  0  0  0  0
  8  7  2  0  0  0  0
  9  4  1  0  0  0  0
 10  5  1  0  0  0  0
 14 17  2  0  0  0  0
 14 15  1  0  0  0  0
 14 18  1  0  0  0  0
 15 21  1  0  0  0  0
 16 14  2  0  0  0  0
 19 15  1  0  0  0  0
 20 15  1  0  0  0  0
M  RAD  3   2   2   3   3  18   2
M  END
