Coordinates from ORCA-job PhN2+~TfO-_B3LYPG-6-31G_dp-NX-Scan-d89-09-n800
 OpenBabel11261920253D

 21 20  0  0  0  0  0  0  0  0999 V2000
   -1.4724    1.3986   -0.3184 C   0  0  0  0  0  0  0  0  0  0  0  0
   -2.4762    1.2997   -1.2758 N   0  0  0  0  0  0  0  0  0  0  0  0
   -3.2547    1.0315   -2.0371 N   0  0  0  0  0  0  0  0  0  0  0  0
   -1.1609    2.6411    0.2490 C   0  0  0  0  0  0  0  0  0  0  0  0
   -0.1496    2.6635    1.2055 C   0  0  0  0  0  0  0  0  0  0  0  0
    0.5105    1.4883    1.5737 C   0  0  0  0  0  0  0  0  0  0  0  0
    0.1756    0.2594    0.9891 C   0  0  0  0  0  0  0  0  0  0  0  0
   -0.8235    0.1982    0.0289 C   0  0  0  0  0  0  0  0  0  0  0  0
   -1.7035    3.5210   -0.0848 H   0  0  0  0  0  0  0  0  0  0  0  0
    0.1213    3.6077    1.6651 H   0  0  0  0  0  0  0  0  0  0  0  0
    1.2950    1.5257    2.3235 H   0  0  0  0  0  0  0  0  0  0  0  0
    0.6935   -0.6471    1.2824 H   0  0  0  0  0  0  0  0  0  0  0  0
   -1.1066   -0.7362   -0.4424 H   0  0  0  0  0  0  0  0  0  0  0  0
   -4.3681    4.0462   -1.7650 S   0  0  0  0  0  0  0  0  0  0  0  0
   -5.0191    3.7852   -0.0442 C   0  0  0  0  0  0  0  0  0  0  0  0
   -2.8995    4.1421   -1.5223 O   0  0  0  0  0  0  0  0  0  0  0  0
   -5.0327    5.2535   -2.2524 O   0  0  0  0  0  0  0  0  0  0  0  0
   -4.7445    2.7669   -2.4427 O   0  0  0  0  0  0  0  0  0  0  0  0
   -4.4308    2.6815    0.4955 F   0  0  0  0  0  0  0  0  0  0  0  0
   -4.7268    4.8235    0.7503 F   0  0  0  0  0  0  0  0  0  0  0  0
   -6.3397    3.5925   -0.0315 F   0  0  0  0  0  0  0  0  0  0  0  0
  1  8  2  0  0  0  0
  1  4  1  0  0  0  0
  2  1  1  0  0  0  0
  3  2  1  0  0  0  0
  4  5  2  0  0  0  0
  5  6  1  0  0  0  0
  5 10  1  0  0  0  0
  6 11  1  0  0  0  0
  7 12  1  0  0  0  0
  7  6  2  0  0  0  0
  8  7  1  0  0  0  0
  9  4  1  0  0  0  0
 13  8  1  0  0  0  0
 14 16  1  0  0  0  0
 14 15  1  0  0  0  0
 15 21  1  0  0  0  0
 15 19  1  0  0  0  0
 15 20  1  0  0  0  0
 17 14  2  0  0  0  0
 18 14  2  0  0  0  0
M  RAD  3   2   2   3   3  16   2
M  END
