Coordinates from ORCA-job PhN2+~TfO-_B3LYPG-6-31G_dp-NX-Scan-d89-09-n800
 OpenBabel11261920253D

 21 20  0  0  0  0  0  0  0  0999 V2000
   -1.5336   -0.5960   -0.4690 C   0  0  0  0  0  0  0  0  0  0  0  0
   -1.5786   -1.8434   -1.0005 N   0  0  0  0  0  0  0  0  0  0  0  0
   -1.6258   -2.8775   -1.4352 N   0  0  0  0  0  0  0  0  0  0  0  0
   -2.7568    0.0965   -0.2617 C   0  0  0  0  0  0  0  0  0  0  0  0
   -2.6903    1.3616    0.2839 C   0  0  0  0  0  0  0  0  0  0  0  0
   -1.4401    1.9225    0.6220 C   0  0  0  0  0  0  0  0  0  0  0  0
   -0.2437    1.2137    0.4052 C   0  0  0  0  0  0  0  0  0  0  0  0
   -0.2649   -0.0525   -0.1457 C   0  0  0  0  0  0  0  0  0  0  0  0
   -3.6989   -0.3631   -0.5386 H   0  0  0  0  0  0  0  0  0  0  0  0
   -3.5907    1.9602    0.4249 H   0  0  0  0  0  0  0  0  0  0  0  0
   -1.4201    2.9203    1.0597 H   0  0  0  0  0  0  0  0  0  0  0  0
    0.7060    1.6670    0.6670 H   0  0  0  0  0  0  0  0  0  0  0  0
    0.6391   -0.6226   -0.3283 H   0  0  0  0  0  0  0  0  0  0  0  0
   -3.1623    4.6686    0.1188 S   0  0  0  0  0  0  0  0  0  0  0  0
   -3.6728    6.3968   -0.3304 C   0  0  0  0  0  0  0  0  0  0  0  0
   -2.3738    4.2006   -1.0529 O   0  0  0  0  0  0  0  0  0  0  0  0
   -4.4488    3.9500    0.3115 O   0  0  0  0  0  0  0  0  0  0  0  0
   -2.3522    4.8331    1.3529 O   0  0  0  0  0  0  0  0  0  0  0  0
   -2.5941    7.1607   -0.5612 F   0  0  0  0  0  0  0  0  0  0  0  0
   -4.4299    6.3920   -1.4388 F   0  0  0  0  0  0  0  0  0  0  0  0
   -4.3806    6.9539    0.6629 F   0  0  0  0  0  0  0  0  0  0  0  0
  1  4  2  0  0  0  0
  1  8  1  0  0  0  0
  2  1  1  0  0  0  0
  3  2  1  0  0  0  0
  4  5  1  0  0  0  0
  5 10  1  0  0  0  0
  5  6  2  0  0  0  0
  6 11  1  0  0  0  0
  7  6  1  0  0  0  0
  7 12  1  0  0  0  0
  8  7  2  0  0  0  0
  9  4  1  0  0  0  0
 13  8  1  0  0  0  0
 14 17  2  0  0  0  0
 14 18  1  0  0  0  0
 15 14  1  0  0  0  0
 15 21  1  0  0  0  0
 16 14  2  0  0  0  0
 19 15  1  0  0  0  0
 20 15  1  0  0  0  0
M  RAD  3   2   2   3   3  18   2
M  END
