Coordinates from ORCA-job PhN2+~TfO-_B3LYPG-6-31G_dp-NX-Scan-d89-09-n800
 OpenBabel11261920253D

 21 20  0  0  0  0  0  0  0  0999 V2000
   -1.6138    1.0477   -0.1152 C   0  0  0  0  0  0  0  0  0  0  0  0
   -2.8976    0.9734   -0.6487 N   0  0  0  0  0  0  0  0  0  0  0  0
   -3.9844    1.2564   -0.7822 N   0  0  0  0  0  0  0  0  0  0  0  0
   -1.3981    1.8910    0.9871 C   0  0  0  0  0  0  0  0  0  0  0  0
   -0.1088    1.9408    1.5048 C   0  0  0  0  0  0  0  0  0  0  0  0
    0.9168    1.1814    0.9306 C   0  0  0  0  0  0  0  0  0  0  0  0
    0.6713    0.3505   -0.1688 C   0  0  0  0  0  0  0  0  0  0  0  0
   -0.6086    0.2702   -0.7040 C   0  0  0  0  0  0  0  0  0  0  0  0
   -2.2239    2.4652    1.3909 H   0  0  0  0  0  0  0  0  0  0  0  0
    0.0963    2.5822    2.3551 H   0  0  0  0  0  0  0  0  0  0  0  0
    1.9192    1.2381    1.3435 H   0  0  0  0  0  0  0  0  0  0  0  0
    1.4757   -0.2307   -0.6059 H   0  0  0  0  0  0  0  0  0  0  0  0
   -0.8348   -0.3612   -1.5560 H   0  0  0  0  0  0  0  0  0  0  0  0
   -3.9738    4.1838   -0.2064 S   0  0  0  0  0  0  0  0  0  0  0  0
   -5.5263    4.5370   -1.1622 C   0  0  0  0  0  0  0  0  0  0  0  0
   -3.7817    5.3301    0.6841 O   0  0  0  0  0  0  0  0  0  0  0  0
   -2.9500    3.9120   -1.2339 O   0  0  0  0  0  0  0  0  0  0  0  0
   -4.3523    2.9137    0.5519 O   0  0  0  0  0  0  0  0  0  0  0  0
   -6.5534    4.7487   -0.3330 F   0  0  0  0  0  0  0  0  0  0  0  0
   -5.3606    5.6198   -1.9305 F   0  0  0  0  0  0  0  0  0  0  0  0
   -5.8239    3.4926   -1.9547 F   0  0  0  0  0  0  0  0  0  0  0  0
  1  4  2  0  0  0  0
  2  1  1  0  0  0  0
  3  2  1  0  0  0  0
  4  9  1  0  0  0  0
  4  5  1  0  0  0  0
  5 10  1  0  0  0  0
  6 11  1  0  0  0  0
  6  5  2  0  0  0  0
  7  6  1  0  0  0  0
  8  7  2  0  0  0  0
  8  1  1  0  0  0  0
 12  7  1  0  0  0  0
 13  8  1  0  0  0  0
 14 18  2  0  0  0  0
 14 16  1  0  0  0  0
 15 19  1  0  0  0  0
 15 14  1  0  0  0  0
 17 14  2  0  0  0  0
 20 15  1  0  0  0  0
 21 15  1  0  0  0  0
M  RAD  3   2   2   3   3  16   2
M  END
