Coordinates from ORCA-job PhN2+~TfO-_B3LYPG-6-31G_dp-NX-Scan-d89-09-n800
 OpenBabel11261920253D

 21 20  0  0  0  0  0  0  0  0999 V2000
   -1.4980   -0.3639   -0.3421 C   0  0  0  0  0  0  0  0  0  0  0  0
   -1.4188   -1.6301   -0.7859 N   0  0  0  0  0  0  0  0  0  0  0  0
   -1.3572   -2.6935   -1.1582 N   0  0  0  0  0  0  0  0  0  0  0  0
   -2.6091    0.0134    0.4699 C   0  0  0  0  0  0  0  0  0  0  0  0
   -2.6694    1.3071    0.9175 C   0  0  0  0  0  0  0  0  0  0  0  0
   -1.6649    2.2415    0.5565 C   0  0  0  0  0  0  0  0  0  0  0  0
   -0.5515    1.8343   -0.2190 C   0  0  0  0  0  0  0  0  0  0  0  0
   -0.4608    0.5487   -0.6899 C   0  0  0  0  0  0  0  0  0  0  0  0
   -3.3737   -0.7163    0.7125 H   0  0  0  0  0  0  0  0  0  0  0  0
   -3.5080    1.6603    1.5057 H   0  0  0  0  0  0  0  0  0  0  0  0
   -1.6669    3.2161    1.0208 H   0  0  0  0  0  0  0  0  0  0  0  0
    0.2198    2.5549   -0.4653 H   0  0  0  0  0  0  0  0  0  0  0  0
    0.3716    0.2152   -1.2997 H   0  0  0  0  0  0  0  0  0  0  0  0
   -3.8858    4.3426   -0.3761 S   0  0  0  0  0  0  0  0  0  0  0  0
   -2.8930    5.8915   -0.1099 C   0  0  0  0  0  0  0  0  0  0  0  0
   -2.8608    3.4297   -1.0157 O   0  0  0  0  0  0  0  0  0  0  0  0
   -4.9726    4.7311   -1.2785 O   0  0  0  0  0  0  0  0  0  0  0  0
   -4.2361    3.9263    0.9986 O   0  0  0  0  0  0  0  0  0  0  0  0
   -1.8041    5.6122    0.6494 F   0  0  0  0  0  0  0  0  0  0  0  0
   -2.4620    6.3995   -1.2708 F   0  0  0  0  0  0  0  0  0  0  0  0
   -3.6113    6.8222    0.5264 F   0  0  0  0  0  0  0  0  0  0  0  0
  1  4  1  0  0  0  0
  2  1  1  0  0  0  0
  3  2  1  0  0  0  0
  4  9  1  0  0  0  0
  4  5  2  0  0  0  0
  5 10  1  0  0  0  0
  6  5  1  0  0  0  0
  6 11  1  0  0  0  0
  7  6  2  0  0  0  0
  8  1  2  0  0  0  0
  8  7  1  0  0  0  0
 12  7  1  0  0  0  0
 13  8  1  0  0  0  0
 14 15  1  0  0  0  0
 14 18  1  0  0  0  0
 15 21  1  0  0  0  0
 15 19  1  0  0  0  0
 16 14  2  0  0  0  0
 17 14  2  0  0  0  0
 20 15  1  0  0  0  0
M  RAD  3   2   2   3   3  18   2
M  END
