Coordinates from ORCA-job PhN2+~TfO-_B3LYPG-6-31G_dp-NX-Scan-d89-09-n800
 OpenBabel11261920253D

 21 20  0  0  0  0  0  0  0  0999 V2000
   -1.5043   -0.3379   -0.3529 C   0  0  0  0  0  0  0  0  0  0  0  0
   -1.4374   -1.5831   -0.8506 N   0  0  0  0  0  0  0  0  0  0  0  0
   -1.3881   -2.6289   -1.2720 N   0  0  0  0  0  0  0  0  0  0  0  0
   -2.6119    0.0138    0.4760 C   0  0  0  0  0  0  0  0  0  0  0  0
   -2.6741    1.2951    0.9553 C   0  0  0  0  0  0  0  0  0  0  0  0
   -1.6787    2.2441    0.6040 C   0  0  0  0  0  0  0  0  0  0  0  0
   -0.5571    1.8553   -0.1707 C   0  0  0  0  0  0  0  0  0  0  0  0
   -0.4650    0.5829   -0.6735 C   0  0  0  0  0  0  0  0  0  0  0  0
   -3.3735   -0.7243    0.7018 H   0  0  0  0  0  0  0  0  0  0  0  0
   -3.5113    1.6310    1.5554 H   0  0  0  0  0  0  0  0  0  0  0  0
   -1.6882    3.2105    1.0855 H   0  0  0  0  0  0  0  0  0  0  0  0
    0.2119    2.5844   -0.3983 H   0  0  0  0  0  0  0  0  0  0  0  0
    0.3673    0.2651   -1.2918 H   0  0  0  0  0  0  0  0  0  0  0  0
   -3.8781    4.3154   -0.3563 S   0  0  0  0  0  0  0  0  0  0  0  0
   -2.8713    5.8658   -0.1613 C   0  0  0  0  0  0  0  0  0  0  0  0
   -2.8645    3.3715   -0.9737 O   0  0  0  0  0  0  0  0  0  0  0  0
   -4.9719    4.6743   -1.2619 O   0  0  0  0  0  0  0  0  0  0  0  0
   -4.2132    3.9507    1.0361 O   0  0  0  0  0  0  0  0  0  0  0  0
   -1.7730    5.6056    0.5902 F   0  0  0  0  0  0  0  0  0  0  0  0
   -2.4561    6.3281   -1.3467 F   0  0  0  0  0  0  0  0  0  0  0  0
   -3.5740    6.8235    0.4518 F   0  0  0  0  0  0  0  0  0  0  0  0
  1  4  1  0  0  0  0
  2  1  1  0  0  0  0
  3  2  1  0  0  0  0
  4  9  1  0  0  0  0
  4  5  2  0  0  0  0
  5 10  1  0  0  0  0
  6  5  1  0  0  0  0
  6 11  1  0  0  0  0
  7  6  2  0  0  0  0
  8  1  2  0  0  0  0
  8  7  1  0  0  0  0
 12  7  1  0  0  0  0
 13  8  1  0  0  0  0
 14 15  1  0  0  0  0
 14 18  1  0  0  0  0
 15 21  1  0  0  0  0
 15 19  1  0  0  0  0
 16 14  2  0  0  0  0
 17 14  2  0  0  0  0
 20 15  1  0  0  0  0
M  RAD  3   2   2   3   3  18   2
M  END
