Coordinates from ORCA-job PhN2+~TfO-_B3LYPG-6-31G_dp-NX-Scan-d89-09-n800
 OpenBabel11261920253D

 21 21  0  0  0  0  0  0  0  0999 V2000
   -1.1541    1.6416    0.0896 C   0  0  0  0  0  0  0  0  0  0  0  0
   -2.4580    1.9475   -0.4124 N   0  0  0  0  0  0  0  0  0  0  0  0
   -2.7858    3.1693   -0.3693 N   0  0  0  0  0  0  0  0  0  0  0  0
   -0.2032    2.5377    0.6047 C   0  0  0  0  0  0  0  0  0  0  0  0
    1.0280    2.0511    1.0499 C   0  0  0  0  0  0  0  0  0  0  0  0
    1.3230    0.6896    0.9896 C   0  0  0  0  0  0  0  0  0  0  0  0
    0.3745   -0.1994    0.4763 C   0  0  0  0  0  0  0  0  0  0  0  0
   -0.8551    0.2711    0.0286 C   0  0  0  0  0  0  0  0  0  0  0  0
   -0.3925    3.6026    0.6688 H   0  0  0  0  0  0  0  0  0  0  0  0
    1.7590    2.7498    1.4454 H   0  0  0  0  0  0  0  0  0  0  0  0
    2.2835    0.3239    1.3387 H   0  0  0  0  0  0  0  0  0  0  0  0
    0.5932   -1.2617    0.4225 H   0  0  0  0  0  0  0  0  0  0  0  0
   -1.6054   -0.4000   -0.3749 H   0  0  0  0  0  0  0  0  0  0  0  0
   -4.9680    4.6016   -1.1890 S   0  0  2  0  0  0  0  0  0  0  0  0
   -6.6902    3.9543   -0.7590 C   0  0  0  0  0  0  0  0  0  0  0  0
   -2.4846    4.0541   -0.1095 O   0  0  0  0  0  0  0  0  0  0  0  0
   -5.0155    5.0359   -2.6073 O   0  0  0  0  0  0  0  0  0  0  0  0
   -4.3510    3.0860   -1.0221 O   0  0  0  0  0  0  0  0  0  0  0  0
   -6.6856    3.5249    0.5076 F   0  0  0  0  0  0  0  0  0  0  0  0
   -7.5388    4.9855   -0.8639 F   0  0  0  0  0  0  0  0  0  0  0  0
   -7.0864    2.9774   -1.5677 F   0  0  0  0  0  0  0  0  0  0  0  0
  1  4  1  0  0  0  0
  2  3  1  0  0  0  0
  2  1  1  0  0  0  0
  3 16  1  0  0  0  0
  4  9  1  0  0  0  0
  4  5  2  0  0  0  0
  5 10  1  0  0  0  0
  6  5  1  0  0  0  0
  6 11  1  0  0  0  0
  7  6  2  0  0  0  0
  8  1  2  0  0  0  0
  8  7  1  0  0  0  0
 12  7  1  0  0  0  0
 13  8  1  0  0  0  0
 14 17  1  6  0  0  0
 14 18  1  0  0  0  0
 14 15  1  0  0  0  0
 15 19  1  0  0  0  0
 18  3  1  0  0  0  0
 20 15  1  0  0  0  0
 21 15  1  0  0  0  0
M  RAD  3   2   2  16   2  17   2
M  END
