Coordinates from ORCA-job PhN2+~TfO-_B3LYPG-6-31G_dp-NX-Scan-d89-09-n800
 OpenBabel11261920253D

 21 20  0  0  0  0  0  0  0  0999 V2000
   -1.5688   -0.1855   -0.3786 C   0  0  0  0  0  0  0  0  0  0  0  0
   -1.6825   -1.2808   -1.1443 N   0  0  0  0  0  0  0  0  0  0  0  0
   -1.8022   -2.1788   -1.8150 N   0  0  0  0  0  0  0  0  0  0  0  0
   -2.6025    0.0983    0.5613 C   0  0  0  0  0  0  0  0  0  0  0  0
   -2.5727    1.3144    1.1887 C   0  0  0  0  0  0  0  0  0  0  0  0
   -1.5704    2.2585    0.8505 C   0  0  0  0  0  0  0  0  0  0  0  0
   -0.4613    1.8881    0.0526 C   0  0  0  0  0  0  0  0  0  0  0  0
   -0.4640    0.6848   -0.6027 C   0  0  0  0  0  0  0  0  0  0  0  0
   -3.3983   -0.6197    0.7251 H   0  0  0  0  0  0  0  0  0  0  0  0
   -3.3705    1.6179    1.8549 H   0  0  0  0  0  0  0  0  0  0  0  0
   -1.5815    3.2247    1.3366 H   0  0  0  0  0  0  0  0  0  0  0  0
    0.3425    2.5962   -0.1127 H   0  0  0  0  0  0  0  0  0  0  0  0
    0.3222    0.3963   -1.2914 H   0  0  0  0  0  0  0  0  0  0  0  0
   -3.8329    4.1129   -0.4044 S   0  0  0  0  0  0  0  0  0  0  0  0
   -2.8877    5.7112   -0.3248 C   0  0  0  0  0  0  0  0  0  0  0  0
   -2.7634    3.1514   -0.8833 O   0  0  0  0  0  0  0  0  0  0  0  0
   -4.8975    4.3399   -1.3858 O   0  0  0  0  0  0  0  0  0  0  0  0
   -4.2190    3.8738    1.0014 O   0  0  0  0  0  0  0  0  0  0  0  0
   -1.8248    5.5761    0.5053 F   0  0  0  0  0  0  0  0  0  0  0  0
   -2.4230    6.0615   -1.5307 F   0  0  0  0  0  0  0  0  0  0  0  0
   -3.6544    6.7014    0.1435 F   0  0  0  0  0  0  0  0  0  0  0  0
  1  4  1  0  0  0  0
  2  1  1  0  0  0  0
  3  2  1  0  0  0  0
  4  9  1  0  0  0  0
  4  5  2  0  0  0  0
  5 10  1  0  0  0  0
  6  5  1  0  0  0  0
  6 11  1  0  0  0  0
  7  6  2  0  0  0  0
  8  1  2  0  0  0  0
  8  7  1  0  0  0  0
 12  7  1  0  0  0  0
 13  8  1  0  0  0  0
 14 15  1  0  0  0  0
 14 18  1  0  0  0  0
 15 21  1  0  0  0  0
 15 19  1  0  0  0  0
 16 14  2  0  0  0  0
 17 14  2  0  0  0  0
 20 15  1  0  0  0  0
M  RAD  3   2   2   3   3  18   2
M  END
