Coordinates from ORCA-job PhN2+~TfO-_B3LYPG-6-31G_dp-NX-Scan-d89-09-n800
 OpenBabel11261920253D

 21 20  0  0  0  0  0  0  0  0999 V2000
   -1.1679    1.4061   -0.6880 C   0  0  0  0  0  0  0  0  0  0  0  0
   -1.7621    1.5407   -1.9340 N   0  0  0  0  0  0  0  0  0  0  0  0
   -2.3774    1.9416   -2.7870 N   0  0  0  0  0  0  0  0  0  0  0  0
   -1.3632    2.4352    0.2468 C   0  0  0  0  0  0  0  0  0  0  0  0
   -0.7604    2.2808    1.4899 C   0  0  0  0  0  0  0  0  0  0  0  0
   -0.0025    1.1399    1.7753 C   0  0  0  0  0  0  0  0  0  0  0  0
    0.1744    0.1307    0.8202 C   0  0  0  0  0  0  0  0  0  0  0  0
   -0.4094    0.2547   -0.4338 C   0  0  0  0  0  0  0  0  0  0  0  0
   -1.9633    3.2968   -0.0138 H   0  0  0  0  0  0  0  0  0  0  0  0
   -0.8950    3.0519    2.2410 H   0  0  0  0  0  0  0  0  0  0  0  0
    0.4552    1.0335    2.7538 H   0  0  0  0  0  0  0  0  0  0  0  0
    0.7630   -0.7491    1.0556 H   0  0  0  0  0  0  0  0  0  0  0  0
   -0.2976   -0.5081   -1.1964 H   0  0  0  0  0  0  0  0  0  0  0  0
   -4.6103    3.3252   -1.3237 S   0  0  0  0  0  0  0  0  0  0  0  0
   -4.7630    4.6231    0.0040 C   0  0  0  0  0  0  0  0  0  0  0  0
   -3.3477    3.7903   -2.0277 O   0  0  0  0  0  0  0  0  0  0  0  0
   -5.8421    3.4406   -2.1049 O   0  0  0  0  0  0  0  0  0  0  0  0
   -4.3731    2.0665   -0.5812 O   0  0  0  0  0  0  0  0  0  0  0  0
   -3.6457    4.6465    0.7738 F   0  0  0  0  0  0  0  0  0  0  0  0
   -4.9226    5.8389   -0.5250 F   0  0  0  0  0  0  0  0  0  0  0  0
   -5.8021    4.3571    0.8016 F   0  0  0  0  0  0  0  0  0  0  0  0
  1  8  2  0  0  0  0
  1  4  1  0  0  0  0
  2  1  1  0  0  0  0
  3  2  1  0  0  0  0
  4  5  2  0  0  0  0
  5  6  1  0  0  0  0
  5 10  1  0  0  0  0
  6 11  1  0  0  0  0
  7 12  1  0  0  0  0
  7  6  2  0  0  0  0
  8  7  1  0  0  0  0
  9  4  1  0  0  0  0
 13  8  1  0  0  0  0
 14 18  1  0  0  0  0
 14 15  1  0  0  0  0
 15 19  1  0  0  0  0
 15 21  1  0  0  0  0
 16 14  2  0  0  0  0
 17 14  2  0  0  0  0
 20 15  1  0  0  0  0
M  RAD  3   2   2   3   3  18   2
M  END
