Coordinates from ORCA-job PhN2+~TfO-_B3LYPG-6-31G_dp-NX-Scan-d89-09-n800
 OpenBabel11261920253D

 21 20  0  0  0  0  0  0  0  0999 V2000
   -1.5932   -0.1357   -0.3802 C   0  0  0  0  0  0  0  0  0  0  0  0
   -1.7687   -1.1827   -1.2040 N   0  0  0  0  0  0  0  0  0  0  0  0
   -1.9437   -2.0296   -1.9251 N   0  0  0  0  0  0  0  0  0  0  0  0
   -2.6031    0.1422    0.5840 C   0  0  0  0  0  0  0  0  0  0  0  0
   -2.5277    1.3372    1.2506 C   0  0  0  0  0  0  0  0  0  0  0  0
   -1.5007    2.2555    0.9285 C   0  0  0  0  0  0  0  0  0  0  0  0
   -0.4119    1.8800    0.1111 C   0  0  0  0  0  0  0  0  0  0  0  0
   -0.4602    0.6994   -0.5858 C   0  0  0  0  0  0  0  0  0  0  0  0
   -3.4239   -0.5515    0.7273 H   0  0  0  0  0  0  0  0  0  0  0  0
   -3.3141    1.6455    1.9276 H   0  0  0  0  0  0  0  0  0  0  0  0
   -1.5016    3.2263    1.4071 H   0  0  0  0  0  0  0  0  0  0  0  0
    0.4103    2.5691   -0.0434 H   0  0  0  0  0  0  0  0  0  0  0  0
    0.3047    0.4126   -1.2985 H   0  0  0  0  0  0  0  0  0  0  0  0
   -3.8204    4.0420   -0.4479 S   0  0  0  0  0  0  0  0  0  0  0  0
   -2.9153    5.6622   -0.3533 C   0  0  0  0  0  0  0  0  0  0  0  0
   -2.7256    3.1083   -0.9088 O   0  0  0  0  0  0  0  0  0  0  0  0
   -4.8799    4.2489   -1.4408 O   0  0  0  0  0  0  0  0  0  0  0  0
   -4.2255    3.7990    0.9533 O   0  0  0  0  0  0  0  0  0  0  0  0
   -1.8649    5.5556    0.4977 F   0  0  0  0  0  0  0  0  0  0  0  0
   -2.4347    6.0220   -1.5508 F   0  0  0  0  0  0  0  0  0  0  0  0
   -3.7129    6.6366    0.0975 F   0  0  0  0  0  0  0  0  0  0  0  0
  1  4  1  0  0  0  0
  2  1  1  0  0  0  0
  3  2  1  0  0  0  0
  4  9  1  0  0  0  0
  4  5  2  0  0  0  0
  5 10  1  0  0  0  0
  6  5  1  0  0  0  0
  6 11  1  0  0  0  0
  7  6  2  0  0  0  0
  8  1  2  0  0  0  0
  8  7  1  0  0  0  0
 12  7  1  0  0  0  0
 13  8  1  0  0  0  0
 14 15  1  0  0  0  0
 14 18  1  0  0  0  0
 15 21  1  0  0  0  0
 15 19  1  0  0  0  0
 16 14  2  0  0  0  0
 17 14  2  0  0  0  0
 20 15  1  0  0  0  0
M  RAD  3   2   2   3   3  18   2
M  END
