Coordinates from ORCA-job PhN2+~TfO-_B3LYPG-6-31G_dp-NX-Scan-d89-09-n800
 OpenBabel11261920253D

 21 20  0  0  0  0  0  0  0  0999 V2000
   -1.5773   -0.1710   -0.3785 C   0  0  0  0  0  0  0  0  0  0  0  0
   -1.7130   -1.2521   -1.1619 N   0  0  0  0  0  0  0  0  0  0  0  0
   -1.8524   -2.1348   -1.8482 N   0  0  0  0  0  0  0  0  0  0  0  0
   -2.6023    0.1136    0.5698 C   0  0  0  0  0  0  0  0  0  0  0  0
   -2.5558    1.3240    1.2083 C   0  0  0  0  0  0  0  0  0  0  0  0
   -1.5452    2.2586    0.8726 C   0  0  0  0  0  0  0  0  0  0  0  0
   -0.4431    1.8838    0.0688 C   0  0  0  0  0  0  0  0  0  0  0  0
   -0.4623    0.6865   -0.5982 C   0  0  0  0  0  0  0  0  0  0  0  0
   -3.4067   -0.5957    0.7287 H   0  0  0  0  0  0  0  0  0  0  0  0
   -3.3492    1.6309    1.8781 H   0  0  0  0  0  0  0  0  0  0  0  0
   -1.5515    3.2272    1.3545 H   0  0  0  0  0  0  0  0  0  0  0  0
    0.3675    2.5846   -0.0944 H   0  0  0  0  0  0  0  0  0  0  0  0
    0.3165    0.3963   -1.2946 H   0  0  0  0  0  0  0  0  0  0  0  0
   -3.8277    4.0898   -0.4211 S   0  0  0  0  0  0  0  0  0  0  0  0
   -2.9003    5.6977   -0.3296 C   0  0  0  0  0  0  0  0  0  0  0  0
   -2.7452    3.1409   -0.8911 O   0  0  0  0  0  0  0  0  0  0  0  0
   -4.8865    4.3090   -1.4110 O   0  0  0  0  0  0  0  0  0  0  0  0
   -4.2258    3.8458    0.9809 O   0  0  0  0  0  0  0  0  0  0  0  0
   -1.8451    5.5735    0.5125 F   0  0  0  0  0  0  0  0  0  0  0  0
   -2.4253    6.0540   -1.5300 F   0  0  0  0  0  0  0  0  0  0  0  0
   -3.6821    6.6800    0.1306 F   0  0  0  0  0  0  0  0  0  0  0  0
  1  4  1  0  0  0  0
  2  1  1  0  0  0  0
  3  2  1  0  0  0  0
  4  9  1  0  0  0  0
  4  5  2  0  0  0  0
  5 10  1  0  0  0  0
  6  5  1  0  0  0  0
  6 11  1  0  0  0  0
  7  6  2  0  0  0  0
  8  1  2  0  0  0  0
  8  7  1  0  0  0  0
 12  7  1  0  0  0  0
 13  8  1  0  0  0  0
 14 15  1  0  0  0  0
 14 18  1  0  0  0  0
 15 21  1  0  0  0  0
 15 19  1  0  0  0  0
 16 14  2  0  0  0  0
 17 14  2  0  0  0  0
 20 15  1  0  0  0  0
M  RAD  3   2   2   3   3  18   2
M  END
