Coordinates from ORCA-job PhN2+~TfO-_B3LYPG-6-31G_dp-NX-Scan-d89-09-n800
 OpenBabel11261920253D

 21 20  0  0  0  0  0  0  0  0999 V2000
   -1.3313    1.0382   -0.3750 C   0  0  0  0  0  0  0  0  0  0  0  0
   -2.4168    0.9491   -1.2433 N   0  0  0  0  0  0  0  0  0  0  0  0
   -3.4165    1.1367   -1.7295 N   0  0  0  0  0  0  0  0  0  0  0  0
   -1.2416    2.1521    0.4762 C   0  0  0  0  0  0  0  0  0  0  0  0
   -0.1377    2.2029    1.3231 C   0  0  0  0  0  0  0  0  0  0  0  0
    0.8196    1.1841    1.3151 C   0  0  0  0  0  0  0  0  0  0  0  0
    0.7004    0.0884    0.4504 C   0  0  0  0  0  0  0  0  0  0  0  0
   -0.3809    0.0064   -0.4161 C   0  0  0  0  0  0  0  0  0  0  0  0
   -1.9883    2.9463    0.4533 H   0  0  0  0  0  0  0  0  0  0  0  0
   -0.0298    3.0514    1.9908 H   0  0  0  0  0  0  0  0  0  0  0  0
    1.6722    1.2445    1.9849 H   0  0  0  0  0  0  0  0  0  0  0  0
    1.4511   -0.6949    0.4508 H   0  0  0  0  0  0  0  0  0  0  0  0
   -0.5038   -0.8246   -1.1019 H   0  0  0  0  0  0  0  0  0  0  0  0
   -4.1774    3.9224   -0.8521 S   0  0  0  0  0  0  0  0  0  0  0  0
   -5.7813    4.7893   -0.4923 C   0  0  0  0  0  0  0  0  0  0  0  0
   -3.1758    4.6083   -0.0051 O   0  0  0  0  0  0  0  0  0  0  0  0
   -3.9877    4.0082   -2.3087 O   0  0  0  0  0  0  0  0  0  0  0  0
   -4.4512    2.5146   -0.3641 O   0  0  0  0  0  0  0  0  0  0  0  0
   -6.0648    4.7200    0.8147 F   0  0  0  0  0  0  0  0  0  0  0  0
   -5.6911    6.0772   -0.8456 F   0  0  0  0  0  0  0  0  0  0  0  0
   -6.7801    4.2221   -1.1793 F   0  0  0  0  0  0  0  0  0  0  0  0
  1  4  1  0  0  0  0
  2  1  1  0  0  0  0
  3  2  1  0  0  0  0
  4  5  2  0  0  0  0
  5 10  1  0  0  0  0
  6  5  1  0  0  0  0
  6 11  1  0  0  0  0
  7 12  1  0  0  0  0
  7  6  2  0  0  0  0
  8  1  2  0  0  0  0
  8  7  1  0  0  0  0
  9  4  1  0  0  0  0
 13  8  1  0  0  0  0
 14 15  1  0  0  0  0
 14 18  2  0  0  0  0
 14 16  1  0  0  0  0
 15 19  1  0  0  0  0
 17 14  2  0  0  0  0
 20 15  1  0  0  0  0
 21 15  1  0  0  0  0
M  RAD  3   2   2   3   3  16   2
M  END
