Coordinates from ORCA-job PhN2+~TfO-_B3LYPG-6-31G_dp-NX-Scan-d89-09-n800
 OpenBabel11261920253D

 21 20  0  0  0  0  0  0  0  0999 V2000
   -1.4004    1.0748   -0.5342 C   0  0  0  0  0  0  0  0  0  0  0  0
   -2.3040    0.8733   -1.5690 N   0  0  0  0  0  0  0  0  0  0  0  0
   -2.9477    0.5572   -2.4215 N   0  0  0  0  0  0  0  0  0  0  0  0
   -1.1752    2.3663   -0.0390 C   0  0  0  0  0  0  0  0  0  0  0  0
   -0.2273    2.4850    0.9752 C   0  0  0  0  0  0  0  0  0  0  0  0
    0.4457    1.3636    1.4645 C   0  0  0  0  0  0  0  0  0  0  0  0
    0.1918    0.0842    0.9467 C   0  0  0  0  0  0  0  0  0  0  0  0
   -0.7364   -0.0796   -0.0686 C   0  0  0  0  0  0  0  0  0  0  0  0
   -1.7330    3.2302   -0.4089 H   0  0  0  0  0  0  0  0  0  0  0  0
   -0.0315    3.4688    1.3874 H   0  0  0  0  0  0  0  0  0  0  0  0
    1.1750    1.4799    2.2606 H   0  0  0  0  0  0  0  0  0  0  0  0
    0.7173   -0.7804    1.3367 H   0  0  0  0  0  0  0  0  0  0  0  0
   -0.9562   -1.0534   -0.4917 H   0  0  0  0  0  0  0  0  0  0  0  0
   -4.0291    4.2223   -1.2209 S   0  0  0  0  0  0  0  0  0  0  0  0
   -5.4019    4.3695    0.0200 C   0  0  0  0  0  0  0  0  0  0  0  0
   -2.8553    4.8030   -0.5161 O   0  0  0  0  0  0  0  0  0  0  0  0
   -4.5110    4.9337   -2.4081 O   0  0  0  0  0  0  0  0  0  0  0  0
   -3.8887    2.7360   -1.3837 O   0  0  0  0  0  0  0  0  0  0  0  0
   -5.0829    3.7150    1.1527 F   0  0  0  0  0  0  0  0  0  0  0  0
   -5.6269    5.6538    0.3264 F   0  0  0  0  0  0  0  0  0  0  0  0
   -6.5351    3.8396   -0.4626 F   0  0  0  0  0  0  0  0  0  0  0  0
  1  8  2  0  0  0  0
  1  4  1  0  0  0  0
  2  1  1  0  0  0  0
  3  2  1  0  0  0  0
  4  5  2  0  0  0  0
  5 10  1  0  0  0  0
  5  6  1  0  0  0  0
  6 11  1  0  0  0  0
  7 12  1  0  0  0  0
  7  6  2  0  0  0  0
  8  7  1  0  0  0  0
  9  4  1  0  0  0  0
 13  8  1  0  0  0  0
 14 16  1  0  0  0  0
 14 15  1  0  0  0  0
 15 20  1  0  0  0  0
 15 19  1  0  0  0  0
 17 14  2  0  0  0  0
 18 14  2  0  0  0  0
 21 15  1  0  0  0  0
M  RAD  3   2   2   3   3  16   2
M  END
