Coordinates from ORCA-job PhN2+~TfO-_B3LYPG-6-31G_dp-NX-Scan-d89-09-n800
 OpenBabel11261920253D

 21 20  0  0  0  0  0  0  0  0999 V2000
   -1.5364   -0.2398   -0.3775 C   0  0  0  0  0  0  0  0  0  0  0  0
   -1.5580   -1.3938   -1.0579 N   0  0  0  0  0  0  0  0  0  0  0  0
   -1.5945   -2.3541   -1.6491 N   0  0  0  0  0  0  0  0  0  0  0  0
   -2.6057    0.0439    0.5243 C   0  0  0  0  0  0  0  0  0  0  0  0
   -2.6379    1.2813    1.1058 C   0  0  0  0  0  0  0  0  0  0  0  0
   -1.6615    2.2549    0.7651 C   0  0  0  0  0  0  0  0  0  0  0  0
   -0.5324    1.9023   -0.0176 C   0  0  0  0  0  0  0  0  0  0  0  0
   -0.4727    0.6764   -0.6247 C   0  0  0  0  0  0  0  0  0  0  0  0
   -3.3711   -0.7023    0.7070 H   0  0  0  0  0  0  0  0  0  0  0  0
   -3.4546    1.5737    1.7544 H   0  0  0  0  0  0  0  0  0  0  0  0
   -1.6865    3.2109    1.2686 H   0  0  0  0  0  0  0  0  0  0  0  0
    0.2447    2.6366   -0.1957 H   0  0  0  0  0  0  0  0  0  0  0  0
    0.3406    0.3951   -1.2844 H   0  0  0  0  0  0  0  0  0  0  0  0
   -3.8558    4.2037   -0.3502 S   0  0  0  0  0  0  0  0  0  0  0  0
   -2.8414    5.7606   -0.2980 C   0  0  0  0  0  0  0  0  0  0  0  0
   -2.8412    3.2014   -0.8747 O   0  0  0  0  0  0  0  0  0  0  0  0
   -4.9429    4.4769   -1.2929 O   0  0  0  0  0  0  0  0  0  0  0  0
   -4.1958    3.9668    1.0671 O   0  0  0  0  0  0  0  0  0  0  0  0
   -1.7445    5.5648    0.4734 F   0  0  0  0  0  0  0  0  0  0  0  0
   -2.4253    6.1104   -1.5211 F   0  0  0  0  0  0  0  0  0  0  0  0
   -3.5401    6.7730    0.2245 F   0  0  0  0  0  0  0  0  0  0  0  0
  1  4  1  0  0  0  0
  2  1  1  0  0  0  0
  3  2  1  0  0  0  0
  4  9  1  0  0  0  0
  4  5  2  0  0  0  0
  5 10  1  0  0  0  0
  6  5  1  0  0  0  0
  6 11  1  0  0  0  0
  7  6  2  0  0  0  0
  8  1  2  0  0  0  0
  8  7  1  0  0  0  0
 12  7  1  0  0  0  0
 13  8  1  0  0  0  0
 14 15  1  0  0  0  0
 14 18  1  0  0  0  0
 15 21  1  0  0  0  0
 15 19  1  0  0  0  0
 16 14  2  0  0  0  0
 17 14  2  0  0  0  0
 20 15  1  0  0  0  0
M  RAD  3   2   2   3   3  18   2
M  END
