Coordinates from ORCA-job PhN2+~TfO-_B3LYPG-6-31G_dp-NX-Scan-d89-09-n800
 OpenBabel11261920253D

 21 20  0  0  0  0  0  0  0  0999 V2000
   -1.5235   -0.6699   -0.3570 C   0  0  0  0  0  0  0  0  0  0  0  0
   -1.6241   -1.9187   -0.8817 N   0  0  0  0  0  0  0  0  0  0  0  0
   -1.7282   -2.9452   -1.3217 N   0  0  0  0  0  0  0  0  0  0  0  0
   -2.6909    0.1360   -0.3248 C   0  0  0  0  0  0  0  0  0  0  0  0
   -2.5672    1.4159    0.1793 C   0  0  0  0  0  0  0  0  0  0  0  0
   -1.3165    1.8761    0.6374 C   0  0  0  0  0  0  0  0  0  0  0  0
   -0.1790    1.0486    0.6096 C   0  0  0  0  0  0  0  0  0  0  0  0
   -0.2572   -0.2373    0.1089 C   0  0  0  0  0  0  0  0  0  0  0  0
   -3.6329   -0.2478   -0.7008 H   0  0  0  0  0  0  0  0  0  0  0  0
   -3.4160    2.1083    0.1849 H   0  0  0  0  0  0  0  0  0  0  0  0
   -1.2638    2.9154    0.9692 H   0  0  0  0  0  0  0  0  0  0  0  0
    0.7734    1.4241    0.9678 H   0  0  0  0  0  0  0  0  0  0  0  0
    0.6021   -0.8966    0.0585 H   0  0  0  0  0  0  0  0  0  0  0  0
   -3.1306    4.7807   -0.3466 S   0  0  0  0  0  0  0  0  0  0  0  0
   -3.8537    6.4758   -0.1260 C   0  0  0  0  0  0  0  0  0  0  0  0
   -2.6687    4.7343   -1.7460 O   0  0  0  0  0  0  0  0  0  0  0  0
   -4.2758    3.8798   -0.0295 O   0  0  0  0  0  0  0  0  0  0  0  0
   -2.0460    4.7390    0.6765 O   0  0  0  0  0  0  0  0  0  0  0  0
   -2.9247    7.4186   -0.3486 F   0  0  0  0  0  0  0  0  0  0  0  0
   -4.8664    6.6717   -0.9845 F   0  0  0  0  0  0  0  0  0  0  0  0
   -4.3229    6.6342    1.1216 F   0  0  0  0  0  0  0  0  0  0  0  0
  1  4  2  0  0  0  0
  1  8  1  0  0  0  0
  2  1  1  0  0  0  0
  3  2  1  0  0  0  0
  4  5  1  0  0  0  0
  5 10  1  0  0  0  0
  5  6  2  0  0  0  0
  6 11  1  0  0  0  0
  7  6  1  0  0  0  0
  7 12  1  0  0  0  0
  8  7  2  0  0  0  0
  9  4  1  0  0  0  0
 13  8  1  0  0  0  0
 14 15  1  0  0  0  0
 14 17  2  0  0  0  0
 14 18  1  0  0  0  0
 15 21  1  0  0  0  0
 16 14  2  0  0  0  0
 19 15  1  0  0  0  0
 20 15  1  0  0  0  0
M  RAD  3   2   2   3   3  18   2
M  END
