Coordinates from ORCA-job PhN2+~TfO-_B3LYPG-6-31G_dp-NX-Scan-d89-09-n800
 OpenBabel11261920253D

 21 20  0  0  0  0  0  0  0  0999 V2000
   -1.4971    1.4331   -0.2735 C   0  0  0  0  0  0  0  0  0  0  0  0
   -2.5402    1.3391   -1.1973 N   0  0  0  0  0  0  0  0  0  0  0  0
   -3.3041    0.9489   -1.9189 N   0  0  0  0  0  0  0  0  0  0  0  0
   -1.2559    2.6288    0.4130 C   0  0  0  0  0  0  0  0  0  0  0  0
   -0.2171    2.6322    1.3398 C   0  0  0  0  0  0  0  0  0  0  0  0
    0.5438    1.4815    1.5619 C   0  0  0  0  0  0  0  0  0  0  0  0
    0.2801    0.2986    0.8595 C   0  0  0  0  0  0  0  0  0  0  0  0
   -0.7490    0.2584   -0.0705 C   0  0  0  0  0  0  0  0  0  0  0  0
   -1.8626    3.4964    0.1840 H   0  0  0  0  0  0  0  0  0  0  0  0
   -0.0015    3.5428    1.8882 H   0  0  0  0  0  0  0  0  0  0  0  0
    1.3515    1.5029    2.2872 H   0  0  0  0  0  0  0  0  0  0  0  0
    0.8754   -0.5904    1.0382 H   0  0  0  0  0  0  0  0  0  0  0  0
   -0.9795   -0.6430   -0.6272 H   0  0  0  0  0  0  0  0  0  0  0  0
   -4.3637    3.9094   -1.8158 S   0  0  0  0  0  0  0  0  0  0  0  0
   -5.0289    3.8879   -0.0812 C   0  0  0  0  0  0  0  0  0  0  0  0
   -2.8911    3.8100   -1.5637 O   0  0  0  0  0  0  0  0  0  0  0  0
   -4.8352    5.1633   -2.3986 O   0  0  0  0  0  0  0  0  0  0  0  0
   -4.9020    2.6464   -2.3948 O   0  0  0  0  0  0  0  0  0  0  0  0
   -4.6198    2.7514    0.5413 F   0  0  0  0  0  0  0  0  0  0  0  0
   -4.5538    4.9244    0.6267 F   0  0  0  0  0  0  0  0  0  0  0  0
   -6.3620    3.9209   -0.0520 F   0  0  0  0  0  0  0  0  0  0  0  0
  1  8  2  0  0  0  0
  1  4  1  0  0  0  0
  2  1  1  0  0  0  0
  3  2  1  0  0  0  0
  4  5  2  0  0  0  0
  5  6  1  0  0  0  0
  5 10  1  0  0  0  0
  6 11  1  0  0  0  0
  7 12  1  0  0  0  0
  7  6  2  0  0  0  0
  8  7  1  0  0  0  0
  9  4  1  0  0  0  0
 13  8  1  0  0  0  0
 14 16  1  0  0  0  0
 14 15  1  0  0  0  0
 15 21  1  0  0  0  0
 15 19  1  0  0  0  0
 15 20  1  0  0  0  0
 17 14  2  0  0  0  0
 18 14  2  0  0  0  0
M  RAD  3   2   2   3   3  16   2
M  END
