Coordinates from ORCA-job PhN2+~TfO-_B3LYPG-6-31G_dp-NX-Scan-d89-09-n800
 OpenBabel11261920253D

 21 20  0  0  0  0  0  0  0  0999 V2000
   -1.5266   -0.5976   -0.4300 C   0  0  0  0  0  0  0  0  0  0  0  0
   -1.5968   -1.8063   -1.0454 N   0  0  0  0  0  0  0  0  0  0  0  0
   -1.6720   -2.8015   -1.5573 N   0  0  0  0  0  0  0  0  0  0  0  0
   -2.7239    0.1499   -0.2849 C   0  0  0  0  0  0  0  0  0  0  0  0
   -2.6312    1.3896    0.3160 C   0  0  0  0  0  0  0  0  0  0  0  0
   -1.3819    1.8680    0.7597 C   0  0  0  0  0  0  0  0  0  0  0  0
   -0.2128    1.0992    0.6140 C   0  0  0  0  0  0  0  0  0  0  0  0
   -0.2596   -0.1449    0.0147 C   0  0  0  0  0  0  0  0  0  0  0  0
   -3.6645   -0.2435   -0.6539 H   0  0  0  0  0  0  0  0  0  0  0  0
   -3.5042    2.0415    0.4062 H   0  0  0  0  0  0  0  0  0  0  0  0
   -1.3493    2.8782    1.1717 H   0  0  0  0  0  0  0  0  0  0  0  0
    0.7384    1.4895    0.9593 H   0  0  0  0  0  0  0  0  0  0  0  0
    0.6235   -0.7581   -0.1256 H   0  0  0  0  0  0  0  0  0  0  0  0
   -3.1321    4.6872   -0.1929 S   0  0  0  0  0  0  0  0  0  0  0  0
   -3.7740    6.4274   -0.2658 C   0  0  0  0  0  0  0  0  0  0  0  0
   -2.6270    4.4034   -1.5512 O   0  0  0  0  0  0  0  0  0  0  0  0
   -4.3274    3.8932    0.2076 O   0  0  0  0  0  0  0  0  0  0  0  0
   -2.0801    4.7546    0.8616 O   0  0  0  0  0  0  0  0  0  0  0  0
   -2.7955    7.2762   -0.6169 F   0  0  0  0  0  0  0  0  0  0  0  0
   -4.7623    6.5286   -1.1685 F   0  0  0  0  0  0  0  0  0  0  0  0
   -4.2536    6.8081    0.9280 F   0  0  0  0  0  0  0  0  0  0  0  0
  1  4  2  0  0  0  0
  1  8  1  0  0  0  0
  2  1  1  0  0  0  0
  3  2  1  0  0  0  0
  4  5  1  0  0  0  0
  5 10  1  0  0  0  0
  5  6  2  0  0  0  0
  6 11  1  0  0  0  0
  7  6  1  0  0  0  0
  7 12  1  0  0  0  0
  8  7  2  0  0  0  0
  9  4  1  0  0  0  0
 13  8  1  0  0  0  0
 14 17  2  0  0  0  0
 14 18  1  0  0  0  0
 15 14  1  0  0  0  0
 15 21  1  0  0  0  0
 16 14  2  0  0  0  0
 19 15  1  0  0  0  0
 20 15  1  0  0  0  0
M  RAD  3   2   2   3   3  18   2
M  END
