Coordinates from ORCA-job PhN2+~TfO-_B3LYPG-6-31G_dp-NX-Scan-d89-09-n800
 OpenBabel11261920253D

 21 20  0  0  0  0  0  0  0  0999 V2000
   -1.5690   -0.4770   -0.5362 C   0  0  0  0  0  0  0  0  0  0  0  0
   -1.5762   -1.6730   -1.1667 N   0  0  0  0  0  0  0  0  0  0  0  0
   -1.5859   -2.6725   -1.6831 N   0  0  0  0  0  0  0  0  0  0  0  0
   -2.8035    0.0582   -0.0733 C   0  0  0  0  0  0  0  0  0  0  0  0
   -2.7702    1.2646    0.5869 C   0  0  0  0  0  0  0  0  0  0  0  0
   -1.5429    1.9358    0.7899 C   0  0  0  0  0  0  0  0  0  0  0  0
   -0.3342    1.3865    0.3153 C   0  0  0  0  0  0  0  0  0  0  0  0
   -0.3245    0.1829   -0.3553 C   0  0  0  0  0  0  0  0  0  0  0  0
   -3.7301   -0.4758   -0.2510 H   0  0  0  0  0  0  0  0  0  0  0  0
   -3.6903    1.7399    0.9117 H   0  0  0  0  0  0  0  0  0  0  0  0
   -1.5377    2.8588    1.3621 H   0  0  0  0  0  0  0  0  0  0  0  0
    0.5959    1.9206    0.4732 H   0  0  0  0  0  0  0  0  0  0  0  0
    0.5894   -0.2636   -0.7304 H   0  0  0  0  0  0  0  0  0  0  0  0
   -3.1949    4.5568    0.2018 S   0  0  0  0  0  0  0  0  0  0  0  0
   -3.4661    6.2622   -0.4871 C   0  0  0  0  0  0  0  0  0  0  0  0
   -2.2198    3.9510   -0.7617 O   0  0  0  0  0  0  0  0  0  0  0  0
   -4.5339    3.9266    0.1837 O   0  0  0  0  0  0  0  0  0  0  0  0
   -2.6149    4.7819    1.5477 O   0  0  0  0  0  0  0  0  0  0  0  0
   -2.3084    6.9371   -0.5429 F   0  0  0  0  0  0  0  0  0  0  0  0
   -3.9763    6.1951   -1.7257 F   0  0  0  0  0  0  0  0  0  0  0  0
   -4.3193    6.9469    0.2874 F   0  0  0  0  0  0  0  0  0  0  0  0
  1  8  2  0  0  0  0
  1  4  1  0  0  0  0
  2  1  1  0  0  0  0
  3  2  1  0  0  0  0
  4  5  2  0  0  0  0
  5  6  1  0  0  0  0
  5 10  1  0  0  0  0
  6 11  1  0  0  0  0
  7 12  1  0  0  0  0
  7  6  2  0  0  0  0
  8  7  1  0  0  0  0
  9  4  1  0  0  0  0
 13  8  1  0  0  0  0
 14 18  1  0  0  0  0
 15 14  1  0  0  0  0
 15 21  1  0  0  0  0
 16 14  2  0  0  0  0
 17 14  2  0  0  0  0
 19 15  1  0  0  0  0
 20 15  1  0  0  0  0
M  RAD  3   2   2   3   3  18   2
M  END
