Coordinates from ORCA-job PhN2+~TfO-_B3LYPG-6-31G_dp-NX-Scan-d89-09-n800
 OpenBabel11261920253D

 21 21  0  0  0  0  0  0  0  0999 V2000
   -1.3580    1.1946   -0.0131 C   0  0  0  0  0  0  0  0  0  0  0  0
   -2.6216    0.9996   -0.5926 N   0  0  0  0  0  0  0  0  0  0  0  0
   -3.5772    1.5526   -0.9671 N   0  0  0  0  0  0  0  0  0  0  0  0
   -0.8633    2.4653    0.3339 C   0  0  0  0  0  0  0  0  0  0  0  0
    0.4071    2.5392    0.8975 C   0  0  0  0  0  0  0  0  0  0  0  0
    1.1627    1.3820    1.1127 C   0  0  0  0  0  0  0  0  0  0  0  0
    0.6562    0.1265    0.7635 C   0  0  0  0  0  0  0  0  0  0  0  0
   -0.6095    0.0267    0.1971 C   0  0  0  0  0  0  0  0  0  0  0  0
   -1.4653    3.3462    0.1582 H   0  0  0  0  0  0  0  0  0  0  0  0
    0.8083    3.5093    1.1718 H   0  0  0  0  0  0  0  0  0  0  0  0
    2.1512    1.4597    1.5544 H   0  0  0  0  0  0  0  0  0  0  0  0
    1.2453   -0.7687    0.9319 H   0  0  0  0  0  0  0  0  0  0  0  0
   -1.0310   -0.9309   -0.0875 H   0  0  0  0  0  0  0  0  0  0  0  0
   -4.4944    4.1386   -1.5109 S   0  0  0  0  0  0  0  0  0  0  0  0
   -5.9610    4.0221   -0.3711 C   0  0  0  0  0  0  0  0  0  0  0  0
   -3.4379    3.2974   -0.6963 O   0  0  0  0  0  0  0  0  0  0  0  0
   -4.0773    5.5360   -1.5040 O   0  0  0  0  0  0  0  0  0  0  0  0
   -4.8856    3.4688   -2.7454 O   0  0  0  0  0  0  0  0  0  0  0  0
   -6.2918    2.7387   -0.1827 F   0  0  0  0  0  0  0  0  0  0  0  0
   -5.6734    4.5737    0.8113 F   0  0  0  0  0  0  0  0  0  0  0  0
   -6.9962    4.6653   -0.9152 F   0  0  0  0  0  0  0  0  0  0  0  0
  1  8  2  0  0  0  0
  1  4  1  0  0  0  0
  2  1  1  0  0  0  0
  3 16  1  0  0  0  0
  3  2  1  0  0  0  0
  4  5  2  0  0  0  0
  5  6  1  0  0  0  0
  5 10  1  0  0  0  0
  6 11  1  0  0  0  0
  7 12  1  0  0  0  0
  7  6  2  0  0  0  0
  8  7  1  0  0  0  0
  9  4  1  0  0  0  0
 13  8  1  0  0  0  0
 14 17  2  0  0  0  0
 14 16  1  0  0  0  0
 14 15  1  0  0  0  0
 15 19  1  0  0  0  0
 15 20  1  0  0  0  0
 18 14  2  0  0  0  0
 21 15  1  0  0  0  0
M  RAD  2   2   2   3   2
M  END
