Coordinates from ORCA-job PhN2+~TfO-_B3LYPG-6-31G_dp-NX-Scan-d89-09-n800
 OpenBabel11261920253D

 21 20  0  0  0  0  0  0  0  0999 V2000
   -1.5236   -0.6487   -0.3801 C   0  0  0  0  0  0  0  0  0  0  0  0
   -1.6144   -1.8848   -0.9358 N   0  0  0  0  0  0  0  0  0  0  0  0
   -1.7092   -2.9013   -1.4003 N   0  0  0  0  0  0  0  0  0  0  0  0
   -2.7010    0.1399   -0.3098 C   0  0  0  0  0  0  0  0  0  0  0  0
   -2.5873    1.4072    0.2272 C   0  0  0  0  0  0  0  0  0  0  0  0
   -1.3366    1.8722    0.6807 C   0  0  0  0  0  0  0  0  0  0  0  0
   -0.1884    1.0619    0.6131 C   0  0  0  0  0  0  0  0  0  0  0  0
   -0.2565   -0.2109    0.0789 C   0  0  0  0  0  0  0  0  0  0  0  0
   -3.6429   -0.2460   -0.6837 H   0  0  0  0  0  0  0  0  0  0  0  0
   -3.4440    2.0879    0.2605 H   0  0  0  0  0  0  0  0  0  0  0  0
   -1.2904    2.9027    1.0386 H   0  0  0  0  0  0  0  0  0  0  0  0
    0.7642    1.4412    0.9671 H   0  0  0  0  0  0  0  0  0  0  0  0
    0.6109   -0.8564   -0.0020 H   0  0  0  0  0  0  0  0  0  0  0  0
   -3.1318    4.7508   -0.3034 S   0  0  0  0  0  0  0  0  0  0  0  0
   -3.8304    6.4653   -0.1702 C   0  0  0  0  0  0  0  0  0  0  0  0
   -2.6586    4.6317   -1.6954 O   0  0  0  0  0  0  0  0  0  0  0  0
   -4.2923    3.8818    0.0439 O   0  0  0  0  0  0  0  0  0  0  0  0
   -2.0555    4.7410    0.7290 O   0  0  0  0  0  0  0  0  0  0  0  0
   -2.8856    7.3818   -0.4318 F   0  0  0  0  0  0  0  0  0  0  0  0
   -4.8343    6.6343   -1.0448 F   0  0  0  0  0  0  0  0  0  0  0  0
   -4.3052    6.6913    1.0646 F   0  0  0  0  0  0  0  0  0  0  0  0
  1  4  2  0  0  0  0
  1  8  1  0  0  0  0
  2  1  1  0  0  0  0
  3  2  1  0  0  0  0
  4  5  1  0  0  0  0
  5 10  1  0  0  0  0
  5  6  2  0  0  0  0
  6 11  1  0  0  0  0
  7  6  1  0  0  0  0
  7 12  1  0  0  0  0
  8  7  2  0  0  0  0
  9  4  1  0  0  0  0
 13  8  1  0  0  0  0
 14 15  1  0  0  0  0
 14 17  2  0  0  0  0
 14 18  1  0  0  0  0
 15 21  1  0  0  0  0
 16 14  2  0  0  0  0
 19 15  1  0  0  0  0
 20 15  1  0  0  0  0
M  RAD  3   2   2   3   3  18   2
M  END
