Coordinates from ORCA-job PhN2+~TfO-_B3LYPG-6-31G_dp-NX-Scan-d89-09-n800
 OpenBabel11261920253D

 21 20  0  0  0  0  0  0  0  0999 V2000
   -1.4938    1.0955   -0.4958 C   0  0  0  0  0  0  0  0  0  0  0  0
   -2.4572    0.8514   -1.4749 N   0  0  0  0  0  0  0  0  0  0  0  0
   -3.1075    0.3659   -2.2422 N   0  0  0  0  0  0  0  0  0  0  0  0
   -1.1821    2.3966   -0.0822 C   0  0  0  0  0  0  0  0  0  0  0  0
   -0.1900    2.5253    0.8872 C   0  0  0  0  0  0  0  0  0  0  0  0
    0.4488    1.4014    1.4139 C   0  0  0  0  0  0  0  0  0  0  0  0
    0.1127    0.1106    0.9788 C   0  0  0  0  0  0  0  0  0  0  0  0
   -0.8649   -0.0620    0.0127 C   0  0  0  0  0  0  0  0  0  0  0  0
   -1.7080    3.2580   -0.4847 H   0  0  0  0  0  0  0  0  0  0  0  0
    0.0666    3.5201    1.2337 H   0  0  0  0  0  0  0  0  0  0  0  0
    1.2146    1.5248    2.1738 H   0  0  0  0  0  0  0  0  0  0  0  0
    0.6120   -0.7573    1.3950 H   0  0  0  0  0  0  0  0  0  0  0  0
   -1.1478   -1.0462   -0.3435 H   0  0  0  0  0  0  0  0  0  0  0  0
   -3.9147    4.4101   -1.2029 S   0  0  0  0  0  0  0  0  0  0  0  0
   -5.3301    4.1786   -0.0226 C   0  0  0  0  0  0  0  0  0  0  0  0
   -2.8542    5.0179   -0.3587 O   0  0  0  0  0  0  0  0  0  0  0  0
   -4.4551    5.2286   -2.2918 O   0  0  0  0  0  0  0  0  0  0  0  0
   -3.6049    2.9862   -1.5988 O   0  0  0  0  0  0  0  0  0  0  0  0
   -4.9575    3.3797    0.9986 F   0  0  0  0  0  0  0  0  0  0  0  0
   -5.7232    5.3524    0.4858 F   0  0  0  0  0  0  0  0  0  0  0  0
   -6.3766    3.6051   -0.6349 F   0  0  0  0  0  0  0  0  0  0  0  0
  1  4  2  0  0  0  0
  1  8  1  0  0  0  0
  2  1  1  0  0  0  0
  3  2  1  0  0  0  0
  4  5  1  0  0  0  0
  5 10  1  0  0  0  0
  5  6  2  0  0  0  0
  6 11  1  0  0  0  0
  7 12  1  0  0  0  0
  7  6  1  0  0  0  0
  8  7  2  0  0  0  0
  9  4  1  0  0  0  0
 13  8  1  0  0  0  0
 14 16  1  0  0  0  0
 14 15  1  0  0  0  0
 15 20  1  0  0  0  0
 15 19  1  0  0  0  0
 17 14  2  0  0  0  0
 18 14  2  0  0  0  0
 21 15  1  0  0  0  0
M  RAD  3   2   2   3   3  16   2
M  END
