Coordinates from ORCA-job PhN2+~TfO-_B3LYPG-6-31G_dp-NX-Scan-d89-09-n800
 OpenBabel11261920253D

 21 20  0  0  0  0  0  0  0  0999 V2000
   -1.4917    1.0740   -0.5009 C   0  0  0  0  0  0  0  0  0  0  0  0
   -2.4552    0.8160   -1.4771 N   0  0  0  0  0  0  0  0  0  0  0  0
   -3.1019    0.3135   -2.2371 N   0  0  0  0  0  0  0  0  0  0  0  0
   -1.1875    2.3791   -0.0928 C   0  0  0  0  0  0  0  0  0  0  0  0
   -0.1968    2.5191    0.8760 C   0  0  0  0  0  0  0  0  0  0  0  0
    0.4489    1.4014    1.4079 C   0  0  0  0  0  0  0  0  0  0  0  0
    0.1216    0.1065    0.9779 C   0  0  0  0  0  0  0  0  0  0  0  0
   -0.8546   -0.0773    0.0127 C   0  0  0  0  0  0  0  0  0  0  0  0
   -1.7213    3.2295   -0.5050 H   0  0  0  0  0  0  0  0  0  0  0  0
    0.0527    3.5173    1.2178 H   0  0  0  0  0  0  0  0  0  0  0  0
    1.2133    1.5330    2.1677 H   0  0  0  0  0  0  0  0  0  0  0  0
    0.6265   -0.7563    1.3980 H   0  0  0  0  0  0  0  0  0  0  0  0
   -1.1307   -1.0651   -0.3388 H   0  0  0  0  0  0  0  0  0  0  0  0
   -3.9076    4.4460   -1.1823 S   0  0  0  0  0  0  0  0  0  0  0  0
   -5.3382    4.1914   -0.0249 C   0  0  0  0  0  0  0  0  0  0  0  0
   -2.8766    5.0847   -0.3243 O   0  0  0  0  0  0  0  0  0  0  0  0
   -4.4470    5.2480   -2.2849 O   0  0  0  0  0  0  0  0  0  0  0  0
   -3.5719    3.0244   -1.5699 O   0  0  0  0  0  0  0  0  0  0  0  0
   -4.9688    3.4016    1.0049 F   0  0  0  0  0  0  0  0  0  0  0  0
   -5.7618    5.3587    0.4743 F   0  0  0  0  0  0  0  0  0  0  0  0
   -6.3642    3.5971   -0.6526 F   0  0  0  0  0  0  0  0  0  0  0  0
  1  4  2  0  0  0  0
  1  8  1  0  0  0  0
  2  1  1  0  0  0  0
  3  2  1  0  0  0  0
  4  5  1  0  0  0  0
  5 10  1  0  0  0  0
  5  6  2  0  0  0  0
  6 11  1  0  0  0  0
  7 12  1  0  0  0  0
  7  6  1  0  0  0  0
  8  7  2  0  0  0  0
  9  4  1  0  0  0  0
 13  8  1  0  0  0  0
 14 16  1  0  0  0  0
 14 15  1  0  0  0  0
 15 20  1  0  0  0  0
 15 19  1  0  0  0  0
 17 14  2  0  0  0  0
 18 14  2  0  0  0  0
 21 15  1  0  0  0  0
M  RAD  3   2   2   3   3  16   2
M  END
