Coordinates from ORCA-job PhN2+~TfO-_B3LYPG-6-31G_dp-NX-Scan-d89-09-n800
 OpenBabel11261920253D

 21 20  0  0  0  0  0  0  0  0999 V2000
   -1.5281   -0.5878   -0.4393 C   0  0  0  0  0  0  0  0  0  0  0  0
   -1.5944   -1.7923   -1.0633 N   0  0  0  0  0  0  0  0  0  0  0  0
   -1.6659   -2.7843   -1.5820 N   0  0  0  0  0  0  0  0  0  0  0  0
   -2.7292    0.1508   -0.2799 C   0  0  0  0  0  0  0  0  0  0  0  0
   -2.6403    1.3859    0.3308 C   0  0  0  0  0  0  0  0  0  0  0  0
   -1.3912    1.8685    0.7706 C   0  0  0  0  0  0  0  0  0  0  0  0
   -0.2181    1.1089    0.6097 C   0  0  0  0  0  0  0  0  0  0  0  0
   -0.2610   -0.1303    0.0001 C   0  0  0  0  0  0  0  0  0  0  0  0
   -3.6696   -0.2456   -0.6461 H   0  0  0  0  0  0  0  0  0  0  0  0
   -3.5164    2.0315    0.4319 H   0  0  0  0  0  0  0  0  0  0  0  0
   -1.3613    2.8745    1.1928 H   0  0  0  0  0  0  0  0  0  0  0  0
    0.7328    1.5027    0.9518 H   0  0  0  0  0  0  0  0  0  0  0  0
    0.6252   -0.7365   -0.1514 H   0  0  0  0  0  0  0  0  0  0  0  0
   -3.1307    4.6762   -0.1674 S   0  0  0  0  0  0  0  0  0  0  0  0
   -3.7620    6.4179   -0.2839 C   0  0  0  0  0  0  0  0  0  0  0  0
   -2.6149    4.3605   -1.5152 O   0  0  0  0  0  0  0  0  0  0  0  0
   -4.3334    3.8965    0.2384 O   0  0  0  0  0  0  0  0  0  0  0  0
   -2.0868    4.7601    0.8937 O   0  0  0  0  0  0  0  0  0  0  0  0
   -2.7758    7.2536   -0.6446 F   0  0  0  0  0  0  0  0  0  0  0  0
   -4.7417    6.5049   -1.1974 F   0  0  0  0  0  0  0  0  0  0  0  0
   -4.2500    6.8270    0.8970 F   0  0  0  0  0  0  0  0  0  0  0  0
  1  4  2  0  0  0  0
  1  8  1  0  0  0  0
  2  1  1  0  0  0  0
  3  2  1  0  0  0  0
  4  5  1  0  0  0  0
  5 10  1  0  0  0  0
  5  6  2  0  0  0  0
  6 11  1  0  0  0  0
  7  6  1  0  0  0  0
  7 12  1  0  0  0  0
  8  7  2  0  0  0  0
  9  4  1  0  0  0  0
 13  8  1  0  0  0  0
 14 17  2  0  0  0  0
 14 18  1  0  0  0  0
 15 14  1  0  0  0  0
 15 21  1  0  0  0  0
 16 14  2  0  0  0  0
 19 15  1  0  0  0  0
 20 15  1  0  0  0  0
M  RAD  3   2   2   3   3  18   2
M  END
