Coordinates from ORCA-job PhN2+~TfO-_B3LYPG-6-31G_dp-NX-Scan-d89-09-n800
 OpenBabel11261920253D

 21 21  0  0  0  0  0  0  0  0999 V2000
   -1.4013    1.2646   -0.0945 C   0  0  0  0  0  0  0  0  0  0  0  0
   -2.6278    1.0000   -0.7423 N   0  0  0  0  0  0  0  0  0  0  0  0
   -3.5417    1.6778   -1.1424 N   0  0  0  0  0  0  0  0  0  0  0  0
   -0.8591    2.5260    0.2281 C   0  0  0  0  0  0  0  0  0  0  0  0
    0.3807    2.5819    0.8598 C   0  0  0  0  0  0  0  0  0  0  0  0
    1.0797    1.4137    1.1766 C   0  0  0  0  0  0  0  0  0  0  0  0
    0.5414    0.1652    0.8562 C   0  0  0  0  0  0  0  0  0  0  0  0
   -0.6924    0.0913    0.2200 C   0  0  0  0  0  0  0  0  0  0  0  0
   -1.3897    3.4338   -0.0138 H   0  0  0  0  0  0  0  0  0  0  0  0
    0.8029    3.5504    1.1083 H   0  0  0  0  0  0  0  0  0  0  0  0
    2.0444    1.4783    1.6704 H   0  0  0  0  0  0  0  0  0  0  0  0
    1.0815   -0.7442    1.0986 H   0  0  0  0  0  0  0  0  0  0  0  0
   -1.1343   -0.8622   -0.0475 H   0  0  0  0  0  0  0  0  0  0  0  0
   -4.4984    4.1019   -1.5448 S   0  0  0  0  0  0  0  0  0  0  0  0
   -5.8507    3.9066   -0.2703 C   0  0  0  0  0  0  0  0  0  0  0  0
   -3.3444    3.1614   -0.8728 O   0  0  0  0  0  0  0  0  0  0  0  0
   -3.9961    5.4604   -1.4351 O   0  0  0  0  0  0  0  0  0  0  0  0
   -4.9875    3.5343   -2.7874 O   0  0  0  0  0  0  0  0  0  0  0  0
   -6.2234    2.6304   -0.1930 F   0  0  0  0  0  0  0  0  0  0  0  0
   -5.4101    4.3156    0.9185 F   0  0  0  0  0  0  0  0  0  0  0  0
   -6.8865    4.6557   -0.6461 F   0  0  0  0  0  0  0  0  0  0  0  0
  1  8  2  0  0  0  0
  1  4  1  0  0  0  0
  2  1  1  0  0  0  0
  3 16  1  0  0  0  0
  3  2  1  0  0  0  0
  4  5  2  0  0  0  0
  5 10  1  0  0  0  0
  5  6  1  0  0  0  0
  6 11  1  0  0  0  0
  7 12  1  0  0  0  0
  7  6  2  0  0  0  0
  8  7  1  0  0  0  0
  9  4  1  0  0  0  0
 13  8  1  0  0  0  0
 14 17  2  0  0  0  0
 14 16  1  0  0  0  0
 14 15  1  0  0  0  0
 15 19  1  0  0  0  0
 15 20  1  0  0  0  0
 18 14  2  0  0  0  0
 21 15  1  0  0  0  0
M  RAD  2   2   2   3   2
M  END
