Coordinates from ORCA-job PhN2+~TfO-_B3LYPG-6-31G_dp-NX-Scan-d89-09-n800
 OpenBabel11261920253D

 21 20  0  0  0  0  0  0  0  0999 V2000
   -1.5332   -0.7265   -0.2760 C   0  0  0  0  0  0  0  0  0  0  0  0
   -1.6773   -2.0160   -0.6776 N   0  0  0  0  0  0  0  0  0  0  0  0
   -1.8202   -3.0752   -1.0182 N   0  0  0  0  0  0  0  0  0  0  0  0
   -2.6557    0.1344   -0.3874 C   0  0  0  0  0  0  0  0  0  0  0  0
   -2.4886    1.4515   -0.0063 C   0  0  0  0  0  0  0  0  0  0  0  0
   -1.2388    1.8936    0.4717 C   0  0  0  0  0  0  0  0  0  0  0  0
   -0.1479    1.0132    0.5895 C   0  0  0  0  0  0  0  0  0  0  0  0
   -0.2702   -0.3116    0.2143 C   0  0  0  0  0  0  0  0  0  0  0  0
   -3.5986   -0.2408   -0.7704 H   0  0  0  0  0  0  0  0  0  0  0  0
   -3.3038    2.1801   -0.0998 H   0  0  0  0  0  0  0  0  0  0  0  0
   -1.1577    2.9559    0.7152 H   0  0  0  0  0  0  0  0  0  0  0  0
    0.8037    1.3753    0.9639 H   0  0  0  0  0  0  0  0  0  0  0  0
    0.5532   -1.0143    0.2782 H   0  0  0  0  0  0  0  0  0  0  0  0
   -3.1211    4.8861   -0.4858 S   0  0  0  0  0  0  0  0  0  0  0  0
   -3.9301    6.4748    0.0301 C   0  0  0  0  0  0  0  0  0  0  0  0
   -2.6933    5.1027   -1.8783 O   0  0  0  0  0  0  0  0  0  0  0  0
   -4.2095    3.8815   -0.3044 O   0  0  0  0  0  0  0  0  0  0  0  0
   -2.0142    4.7369    0.5026 O   0  0  0  0  0  0  0  0  0  0  0  0
   -3.0622    7.4952   -0.0513 F   0  0  0  0  0  0  0  0  0  0  0  0
   -4.9791    6.7500   -0.7606 F   0  0  0  0  0  0  0  0  0  0  0  0
   -4.3682    6.3960    1.2971 F   0  0  0  0  0  0  0  0  0  0  0  0
  1  8  1  0  0  0  0
  2  1  1  0  0  0  0
  3  2  1  0  0  0  0
  4  1  2  0  0  0  0
  4  5  1  0  0  0  0
  5  6  2  0  0  0  0
  6  7  1  0  0  0  0
  6 11  1  0  0  0  0
  7 12  1  0  0  0  0
  8 13  1  0  0  0  0
  8  7  2  0  0  0  0
  9  4  1  0  0  0  0
 10  5  1  0  0  0  0
 14 17  2  0  0  0  0
 14 15  1  0  0  0  0
 14 18  1  0  0  0  0
 15 21  1  0  0  0  0
 16 14  2  0  0  0  0
 19 15  1  0  0  0  0
 20 15  1  0  0  0  0
M  RAD  3   2   2   3   3  18   2
M  END
