Coordinates from ORCA-job PhN2+~TfO-_B3LYPG-6-31G_dp-NX-Scan-d89-09-n800
 OpenBabel11261920253D

 21 20  0  0  0  0  0  0  0  0999 V2000
   -1.3239    1.0434   -0.3807 C   0  0  0  0  0  0  0  0  0  0  0  0
   -2.4025    0.9608   -1.2584 N   0  0  0  0  0  0  0  0  0  0  0  0
   -3.3990    1.1515   -1.7499 N   0  0  0  0  0  0  0  0  0  0  0  0
   -1.2377    2.1570    0.4709 C   0  0  0  0  0  0  0  0  0  0  0  0
   -0.1409    2.2044    1.3272 C   0  0  0  0  0  0  0  0  0  0  0  0
    0.8127    1.1822    1.3271 C   0  0  0  0  0  0  0  0  0  0  0  0
    0.6970    0.0867    0.4616 C   0  0  0  0  0  0  0  0  0  0  0  0
   -0.3769    0.0083   -0.4144 C   0  0  0  0  0  0  0  0  0  0  0  0
   -1.9836    2.9522    0.4389 H   0  0  0  0  0  0  0  0  0  0  0  0
   -0.0356    3.0525    1.9958 H   0  0  0  0  0  0  0  0  0  0  0  0
    1.6600    1.2397    2.0040 H   0  0  0  0  0  0  0  0  0  0  0  0
    1.4450   -0.6992    0.4686 H   0  0  0  0  0  0  0  0  0  0  0  0
   -0.4966   -0.8223   -1.1013 H   0  0  0  0  0  0  0  0  0  0  0  0
   -4.1880    3.9117   -0.8720 S   0  0  0  0  0  0  0  0  0  0  0  0
   -5.7773    4.7899   -0.4764 C   0  0  0  0  0  0  0  0  0  0  0  0
   -3.1625    4.5889   -0.0462 O   0  0  0  0  0  0  0  0  0  0  0  0
   -4.0287    3.9998   -2.3320 O   0  0  0  0  0  0  0  0  0  0  0  0
   -4.4615    2.5053   -0.3800 O   0  0  0  0  0  0  0  0  0  0  0  0
   -6.0317    4.7234    0.8368 F   0  0  0  0  0  0  0  0  0  0  0  0
   -5.6858    6.0769   -0.8326 F   0  0  0  0  0  0  0  0  0  0  0  0
   -6.7954    4.2295   -1.1402 F   0  0  0  0  0  0  0  0  0  0  0  0
  1  4  1  0  0  0  0
  2  1  1  0  0  0  0
  3  2  1  0  0  0  0
  4  5  2  0  0  0  0
  5 10  1  0  0  0  0
  6  5  1  0  0  0  0
  6 11  1  0  0  0  0
  7 12  1  0  0  0  0
  7  6  2  0  0  0  0
  8  1  2  0  0  0  0
  8  7  1  0  0  0  0
  9  4  1  0  0  0  0
 13  8  1  0  0  0  0
 14 15  1  0  0  0  0
 14 18  2  0  0  0  0
 14 16  1  0  0  0  0
 15 19  1  0  0  0  0
 17 14  2  0  0  0  0
 20 15  1  0  0  0  0
 21 15  1  0  0  0  0
M  RAD  3   2   2   3   3  16   2
M  END
