Coordinates from ORCA-job PhN2+~TfO-_B3LYPG-6-31G_dp-NX-Scan-d89-09-n800
 OpenBabel11261920253D

 21 20  0  0  0  0  0  0  0  0999 V2000
   -1.5254   -0.6981   -0.3236 C   0  0  0  0  0  0  0  0  0  0  0  0
   -1.6414   -1.9658   -0.7974 N   0  0  0  0  0  0  0  0  0  0  0  0
   -1.7593   -3.0075   -1.1963 N   0  0  0  0  0  0  0  0  0  0  0  0
   -2.6768    0.1307   -0.3494 C   0  0  0  0  0  0  0  0  0  0  0  0
   -2.5377    1.4282    0.1032 C   0  0  0  0  0  0  0  0  0  0  0  0
   -1.2874    1.8830    0.5678 C   0  0  0  0  0  0  0  0  0  0  0  0
   -0.1665    1.0332    0.5989 C   0  0  0  0  0  0  0  0  0  0  0  0
   -0.2603   -0.2709    0.1506 C   0  0  0  0  0  0  0  0  0  0  0  0
   -3.6190   -0.2512   -0.7270 H   0  0  0  0  0  0  0  0  0  0  0  0
   -3.3743    2.1358    0.0681 H   0  0  0  0  0  0  0  0  0  0  0  0
   -1.2249    2.9334    0.8622 H   0  0  0  0  0  0  0  0  0  0  0  0
    0.7857    1.4045    0.9624 H   0  0  0  0  0  0  0  0  0  0  0  0
    0.5863   -0.9485    0.1464 H   0  0  0  0  0  0  0  0  0  0  0  0
   -3.1270    4.8251   -0.4019 S   0  0  0  0  0  0  0  0  0  0  0  0
   -3.8859    6.4843   -0.0612 C   0  0  0  0  0  0  0  0  0  0  0  0
   -2.6749    4.8853   -1.8032 O   0  0  0  0  0  0  0  0  0  0  0  0
   -4.2505    3.8796   -0.1392 O   0  0  0  0  0  0  0  0  0  0  0  0
   -2.0357    4.7384    0.6112 O   0  0  0  0  0  0  0  0  0  0  0  0
   -2.9796    7.4607   -0.2251 F   0  0  0  0  0  0  0  0  0  0  0  0
   -4.9096    6.7154   -0.8975 F   0  0  0  0  0  0  0  0  0  0  0  0
   -4.3484    6.5470    1.1975 F   0  0  0  0  0  0  0  0  0  0  0  0
  1  8  1  0  0  0  0
  2  1  1  0  0  0  0
  3  2  1  0  0  0  0
  4  1  2  0  0  0  0
  4  5  1  0  0  0  0
  5  6  2  0  0  0  0
  6  7  1  0  0  0  0
  6 11  1  0  0  0  0
  7 12  1  0  0  0  0
  8  7  2  0  0  0  0
  9  4  1  0  0  0  0
 10  5  1  0  0  0  0
 13  8  1  0  0  0  0
 14 17  2  0  0  0  0
 14 15  1  0  0  0  0
 14 18  1  0  0  0  0
 15 21  1  0  0  0  0
 16 14  2  0  0  0  0
 19 15  1  0  0  0  0
 20 15  1  0  0  0  0
M  RAD  3   2   2   3   3  18   2
M  END
