Coordinates from ORCA-job PhN2+~TfO-_B3LYPG-6-31G_dp-NX-Scan-d89-09-n800
 OpenBabel11261920253D

 21 20  0  0  0  0  0  0  0  0999 V2000
   -1.5235   -0.6616   -0.3662 C   0  0  0  0  0  0  0  0  0  0  0  0
   -1.6201   -1.9052   -0.9037 N   0  0  0  0  0  0  0  0  0  0  0  0
   -1.7205   -2.9277   -1.3539 N   0  0  0  0  0  0  0  0  0  0  0  0
   -2.6949    0.1376   -0.3186 C   0  0  0  0  0  0  0  0  0  0  0  0
   -2.5752    1.4124    0.1990 C   0  0  0  0  0  0  0  0  0  0  0  0
   -1.3244    1.8744    0.6553 C   0  0  0  0  0  0  0  0  0  0  0  0
   -0.1826    1.0535    0.6115 C   0  0  0  0  0  0  0  0  0  0  0  0
   -0.2568   -0.2271    0.0971 C   0  0  0  0  0  0  0  0  0  0  0  0
   -3.6369   -0.2469   -0.6938 H   0  0  0  0  0  0  0  0  0  0  0  0
   -3.4272    2.1003    0.2157 H   0  0  0  0  0  0  0  0  0  0  0  0
   -1.2744    2.9103    0.9976 H   0  0  0  0  0  0  0  0  0  0  0  0
    0.7699    1.4304    0.9681 H   0  0  0  0  0  0  0  0  0  0  0  0
    0.6058   -0.8811    0.0343 H   0  0  0  0  0  0  0  0  0  0  0  0
   -3.1312    4.7686   -0.3301 S   0  0  0  0  0  0  0  0  0  0  0  0
   -3.8446    6.4720   -0.1437 C   0  0  0  0  0  0  0  0  0  0  0  0
   -2.6655    4.6934   -1.7273 O   0  0  0  0  0  0  0  0  0  0  0  0
   -4.2824    3.8803   -0.0001 O   0  0  0  0  0  0  0  0  0  0  0  0
   -2.0494    4.7396    0.6963 O   0  0  0  0  0  0  0  0  0  0  0  0
   -2.9093    7.4047   -0.3818 F   0  0  0  0  0  0  0  0  0  0  0  0
   -4.8538    6.6576   -1.0086 F   0  0  0  0  0  0  0  0  0  0  0  0
   -4.3160    6.6570    1.0994 F   0  0  0  0  0  0  0  0  0  0  0  0
  1  4  2  0  0  0  0
  1  8  1  0  0  0  0
  2  1  1  0  0  0  0
  3  2  1  0  0  0  0
  4  5  1  0  0  0  0
  5 10  1  0  0  0  0
  5  6  2  0  0  0  0
  6 11  1  0  0  0  0
  7  6  1  0  0  0  0
  7 12  1  0  0  0  0
  8  7  2  0  0  0  0
  9  4  1  0  0  0  0
 13  8  1  0  0  0  0
 14 15  1  0  0  0  0
 14 17  2  0  0  0  0
 14 18  1  0  0  0  0
 15 21  1  0  0  0  0
 16 14  2  0  0  0  0
 19 15  1  0  0  0  0
 20 15  1  0  0  0  0
M  RAD  3   2   2   3   3  18   2
M  END
