Coordinates from ORCA-job PhN2+~TfO-_B3LYPG-6-31G_dp-NX-Scan-d89-09-n800
 OpenBabel11261920253D

 21 20  0  0  0  0  0  0  0  0999 V2000
   -1.4734    1.3588   -0.3251 C   0  0  0  0  0  0  0  0  0  0  0  0
   -2.4696    1.2459   -1.2859 N   0  0  0  0  0  0  0  0  0  0  0  0
   -3.2589    1.0441   -2.0570 N   0  0  0  0  0  0  0  0  0  0  0  0
   -1.1558    2.6191    0.2010 C   0  0  0  0  0  0  0  0  0  0  0  0
   -0.1457    2.6663    1.1578 C   0  0  0  0  0  0  0  0  0  0  0  0
    0.5049    1.4990    1.5661 C   0  0  0  0  0  0  0  0  0  0  0  0
    0.1628    0.2531    1.0227 C   0  0  0  0  0  0  0  0  0  0  0  0
   -0.8342    0.1659    0.0624 C   0  0  0  0  0  0  0  0  0  0  0  0
   -1.6962    3.4908   -0.1625 H   0  0  0  0  0  0  0  0  0  0  0  0
    0.1309    3.6233    1.5864 H   0  0  0  0  0  0  0  0  0  0  0  0
    1.2883    1.5558    2.3158 H   0  0  0  0  0  0  0  0  0  0  0  0
    0.6743   -0.6461    1.3481 H   0  0  0  0  0  0  0  0  0  0  0  0
   -1.1222   -0.7815   -0.3789 H   0  0  0  0  0  0  0  0  0  0  0  0
   -4.3548    4.1077   -1.7409 S   0  0  0  0  0  0  0  0  0  0  0  0
   -5.0181    3.7676   -0.0387 C   0  0  0  0  0  0  0  0  0  0  0  0
   -2.8985    4.2755   -1.4758 O   0  0  0  0  0  0  0  0  0  0  0  0
   -5.0786    5.2888   -2.2093 O   0  0  0  0  0  0  0  0  0  0  0  0
   -4.6639    2.8278   -2.4557 O   0  0  0  0  0  0  0  0  0  0  0  0
   -4.3883    2.6749    0.4788 F   0  0  0  0  0  0  0  0  0  0  0  0
   -4.7876    4.7929    0.7908 F   0  0  0  0  0  0  0  0  0  0  0  0
   -6.3284    3.5132   -0.0538 F   0  0  0  0  0  0  0  0  0  0  0  0
  1  8  2  0  0  0  0
  1  4  1  0  0  0  0
  2  1  1  0  0  0  0
  3  2  1  0  0  0  0
  4  5  2  0  0  0  0
  5  6  1  0  0  0  0
  5 10  1  0  0  0  0
  6 11  1  0  0  0  0
  7 12  1  0  0  0  0
  7  6  2  0  0  0  0
  8  7  1  0  0  0  0
  9  4  1  0  0  0  0
 13  8  1  0  0  0  0
 14 16  1  0  0  0  0
 14 15  1  0  0  0  0
 15 19  1  0  0  0  0
 15 20  1  0  0  0  0
 17 14  2  0  0  0  0
 18 14  2  0  0  0  0
 21 15  1  0  0  0  0
M  RAD  3   2   2   3   3  16   2
M  END
