Coordinates from ORCA-job PhN2+~TfO-_B3LYPG-6-31G_dp-NX-Scan-d89-09-n800
 OpenBabel11261920253D

 21 20  0  0  0  0  0  0  0  0999 V2000
   -1.5328   -0.7258   -0.2776 C   0  0  0  0  0  0  0  0  0  0  0  0
   -1.6758   -2.0147   -0.6817 N   0  0  0  0  0  0  0  0  0  0  0  0
   -1.8178   -3.0733   -1.0242 N   0  0  0  0  0  0  0  0  0  0  0  0
   -2.6565    0.1340   -0.3861 C   0  0  0  0  0  0  0  0  0  0  0  0
   -2.4904    1.4506   -0.0026 C   0  0  0  0  0  0  0  0  0  0  0  0
   -1.2407    1.8932    0.4749 C   0  0  0  0  0  0  0  0  0  0  0  0
   -0.1485    1.0138    0.5897 C   0  0  0  0  0  0  0  0  0  0  0  0
   -0.2697   -0.3103    0.2121 C   0  0  0  0  0  0  0  0  0  0  0  0
   -3.5993   -0.2415   -0.7688 H   0  0  0  0  0  0  0  0  0  0  0  0
   -3.3065    2.1785   -0.0942 H   0  0  0  0  0  0  0  0  0  0  0  0
   -1.1603    2.9552    0.7201 H   0  0  0  0  0  0  0  0  0  0  0  0
    0.8031    1.3763    0.9637 H   0  0  0  0  0  0  0  0  0  0  0  0
    0.5545   -1.0122    0.2736 H   0  0  0  0  0  0  0  0  0  0  0  0
   -3.1214    4.8841   -0.4828 S   0  0  0  0  0  0  0  0  0  0  0  0
   -3.9286    6.4756    0.0270 C   0  0  0  0  0  0  0  0  0  0  0  0
   -2.6926    5.0951   -1.8759 O   0  0  0  0  0  0  0  0  0  0  0  0
   -4.2111    3.8814   -0.2984 O   0  0  0  0  0  0  0  0  0  0  0  0
   -2.0151    4.7370    0.5066 O   0  0  0  0  0  0  0  0  0  0  0  0
   -3.0592    7.4945   -0.0571 F   0  0  0  0  0  0  0  0  0  0  0  0
   -4.9765    6.7495   -0.7655 F   0  0  0  0  0  0  0  0  0  0  0  0
   -4.3679    6.4017    1.2938 F   0  0  0  0  0  0  0  0  0  0  0  0
  1  8  1  0  0  0  0
  2  1  1  0  0  0  0
  3  2  1  0  0  0  0
  4  1  2  0  0  0  0
  4  5  1  0  0  0  0
  5  6  2  0  0  0  0
  6  7  1  0  0  0  0
  6 11  1  0  0  0  0
  7 12  1  0  0  0  0
  8 13  1  0  0  0  0
  8  7  2  0  0  0  0
  9  4  1  0  0  0  0
 10  5  1  0  0  0  0
 14 17  2  0  0  0  0
 14 15  1  0  0  0  0
 14 18  1  0  0  0  0
 15 21  1  0  0  0  0
 16 14  2  0  0  0  0
 19 15  1  0  0  0  0
 20 15  1  0  0  0  0
M  RAD  3   2   2   3   3  18   2
M  END
