Coordinates from ORCA-job PhN2+~TfO-_B3LYPG-6-31G_dp-NX-Scan-d89-09-n800
 OpenBabel11261920253D

 21 20  0  0  0  0  0  0  0  0999 V2000
   -1.5738   -0.1803   -0.3801 C   0  0  0  0  0  0  0  0  0  0  0  0
   -1.6933   -1.2761   -1.1453 N   0  0  0  0  0  0  0  0  0  0  0  0
   -1.8191   -2.1733   -1.8154 N   0  0  0  0  0  0  0  0  0  0  0  0
   -2.6036    0.1069    0.5622 C   0  0  0  0  0  0  0  0  0  0  0  0
   -2.5646    1.3211    1.1937 C   0  0  0  0  0  0  0  0  0  0  0  0
   -1.5562    2.2586    0.8579 C   0  0  0  0  0  0  0  0  0  0  0  0
   -0.4524    1.8846    0.0554 C   0  0  0  0  0  0  0  0  0  0  0  0
   -0.4643    0.6833   -0.6042 C   0  0  0  0  0  0  0  0  0  0  0  0
   -3.4042   -0.6059    0.7251 H   0  0  0  0  0  0  0  0  0  0  0  0
   -3.3600    1.6265    1.8618 H   0  0  0  0  0  0  0  0  0  0  0  0
   -1.5629    3.2258    1.3424 H   0  0  0  0  0  0  0  0  0  0  0  0
    0.3563    2.5871   -0.1094 H   0  0  0  0  0  0  0  0  0  0  0  0
    0.3185    0.3926   -1.2958 H   0  0  0  0  0  0  0  0  0  0  0  0
   -3.8311    4.1051   -0.4147 S   0  0  0  0  0  0  0  0  0  0  0  0
   -2.8961    5.7085   -0.3214 C   0  0  0  0  0  0  0  0  0  0  0  0
   -2.7542    3.1526   -0.8915 O   0  0  0  0  0  0  0  0  0  0  0  0
   -4.8919    4.3319   -1.4006 O   0  0  0  0  0  0  0  0  0  0  0  0
   -4.2251    3.8580    0.9878 O   0  0  0  0  0  0  0  0  0  0  0  0
   -1.8386    5.5768    0.5163 F   0  0  0  0  0  0  0  0  0  0  0  0
   -2.4240    6.0664   -1.5224 F   0  0  0  0  0  0  0  0  0  0  0  0
   -3.6720    6.6927    0.1447 F   0  0  0  0  0  0  0  0  0  0  0  0
  1  4  1  0  0  0  0
  2  1  1  0  0  0  0
  3  2  1  0  0  0  0
  4  9  1  0  0  0  0
  4  5  2  0  0  0  0
  5 10  1  0  0  0  0
  6  5  1  0  0  0  0
  6 11  1  0  0  0  0
  7  6  2  0  0  0  0
  8  1  2  0  0  0  0
  8  7  1  0  0  0  0
 12  7  1  0  0  0  0
 13  8  1  0  0  0  0
 14 15  1  0  0  0  0
 14 18  1  0  0  0  0
 15 21  1  0  0  0  0
 15 19  1  0  0  0  0
 16 14  2  0  0  0  0
 17 14  2  0  0  0  0
 20 15  1  0  0  0  0
M  RAD  3   2   2   3   3  18   2
M  END
