Coordinates from ORCA-job PhN2+~TfO-_B3LYPG-6-31G_dp-NX-Scan-d89-09-n800
 OpenBabel11261920253D

 21 20  0  0  0  0  0  0  0  0999 V2000
   -1.5753   -0.1753   -0.3785 C   0  0  0  0  0  0  0  0  0  0  0  0
   -1.7048   -1.2618   -1.1552 N   0  0  0  0  0  0  0  0  0  0  0  0
   -1.8388   -2.1500   -1.8356 N   0  0  0  0  0  0  0  0  0  0  0  0
   -2.6025    0.1104    0.5672 C   0  0  0  0  0  0  0  0  0  0  0  0
   -2.5598    1.3226    1.2021 C   0  0  0  0  0  0  0  0  0  0  0  0
   -1.5503    2.2587    0.8659 C   0  0  0  0  0  0  0  0  0  0  0  0
   -0.4472    1.8842    0.0632 C   0  0  0  0  0  0  0  0  0  0  0  0
   -0.4627    0.6849   -0.6002 C   0  0  0  0  0  0  0  0  0  0  0  0
   -3.4053   -0.6006    0.7277 H   0  0  0  0  0  0  0  0  0  0  0  0
   -3.3543    1.6294    1.8706 H   0  0  0  0  0  0  0  0  0  0  0  0
   -1.5573    3.2269    1.3485 H   0  0  0  0  0  0  0  0  0  0  0  0
    0.3621    2.5863   -0.1011 H   0  0  0  0  0  0  0  0  0  0  0  0
    0.3178    0.3945   -1.2944 H   0  0  0  0  0  0  0  0  0  0  0  0
   -3.8291    4.0962   -0.4180 S   0  0  0  0  0  0  0  0  0  0  0  0
   -2.8982    5.7021   -0.3262 C   0  0  0  0  0  0  0  0  0  0  0  0
   -2.7491    3.1456   -0.8911 O   0  0  0  0  0  0  0  0  0  0  0  0
   -4.8889    4.3185   -1.4061 O   0  0  0  0  0  0  0  0  0  0  0  0
   -4.2252    3.8512    0.9842 O   0  0  0  0  0  0  0  0  0  0  0  0
   -1.8419    5.5747    0.5138 F   0  0  0  0  0  0  0  0  0  0  0  0
   -2.4247    6.0589   -1.5270 F   0  0  0  0  0  0  0  0  0  0  0  0
   -3.6773    6.6854    0.1365 F   0  0  0  0  0  0  0  0  0  0  0  0
  1  4  1  0  0  0  0
  2  1  1  0  0  0  0
  3  2  1  0  0  0  0
  4  9  1  0  0  0  0
  4  5  2  0  0  0  0
  5 10  1  0  0  0  0
  6  5  1  0  0  0  0
  6 11  1  0  0  0  0
  7  6  2  0  0  0  0
  8  1  2  0  0  0  0
  8  7  1  0  0  0  0
 12  7  1  0  0  0  0
 13  8  1  0  0  0  0
 14 15  1  0  0  0  0
 14 18  1  0  0  0  0
 15 21  1  0  0  0  0
 15 19  1  0  0  0  0
 16 14  2  0  0  0  0
 17 14  2  0  0  0  0
 20 15  1  0  0  0  0
M  RAD  3   2   2   3   3  18   2
M  END
