Coordinates from ORCA-job PhN2+~TfO-_B3LYPG-6-31G_dp-NX-Scan-d89-09-n800
 OpenBabel11261920253D

 21 20  0  0  0  0  0  0  0  0999 V2000
   -1.5168   -0.2948   -0.3675 C   0  0  0  0  0  0  0  0  0  0  0  0
   -1.4781   -1.5038   -0.9462 N   0  0  0  0  0  0  0  0  0  0  0  0
   -1.4566   -2.5171   -1.4427 N   0  0  0  0  0  0  0  0  0  0  0  0
   -2.6116    0.0213    0.4925 C   0  0  0  0  0  0  0  0  0  0  0  0
   -2.6687    1.2825    1.0197 C   0  0  0  0  0  0  0  0  0  0  0  0
   -1.6863    2.2494    0.6762 C   0  0  0  0  0  0  0  0  0  0  0  0
   -0.5573    1.8833   -0.1007 C   0  0  0  0  0  0  0  0  0  0  0  0
   -0.4717    0.6321   -0.6519 C   0  0  0  0  0  0  0  0  0  0  0  0
   -3.3705   -0.7257    0.6974 H   0  0  0  0  0  0  0  0  0  0  0  0
   -3.4990    1.5936    1.6420 H   0  0  0  0  0  0  0  0  0  0  0  0
   -1.7046    3.2068    1.1763 H   0  0  0  0  0  0  0  0  0  0  0  0
    0.2118    2.6197   -0.3030 H   0  0  0  0  0  0  0  0  0  0  0  0
    0.3558    0.3352   -1.2867 H   0  0  0  0  0  0  0  0  0  0  0  0
   -3.8687    4.2707   -0.3412 S   0  0  0  0  0  0  0  0  0  0  0  0
   -2.8468    5.8196   -0.2308 C   0  0  0  0  0  0  0  0  0  0  0  0
   -2.8643    3.2880   -0.9178 O   0  0  0  0  0  0  0  0  0  0  0  0
   -4.9636    4.5902   -1.2597 O   0  0  0  0  0  0  0  0  0  0  0  0
   -4.1968    3.9751    1.0683 O   0  0  0  0  0  0  0  0  0  0  0  0
   -1.7435    5.5849    0.5210 F   0  0  0  0  0  0  0  0  0  0  0  0
   -2.4404    6.2204   -1.4412 F   0  0  0  0  0  0  0  0  0  0  0  0
   -3.5352    6.8114    0.3425 F   0  0  0  0  0  0  0  0  0  0  0  0
  1  4  1  0  0  0  0
  2  1  1  0  0  0  0
  3  2  1  0  0  0  0
  4  9  1  0  0  0  0
  4  5  2  0  0  0  0
  5 10  1  0  0  0  0
  6  5  1  0  0  0  0
  6 11  1  0  0  0  0
  7  6  2  0  0  0  0
  8  1  2  0  0  0  0
  8  7  1  0  0  0  0
 12  7  1  0  0  0  0
 13  8  1  0  0  0  0
 14 15  1  0  0  0  0
 14 18  1  0  0  0  0
 15 21  1  0  0  0  0
 15 19  1  0  0  0  0
 16 14  2  0  0  0  0
 17 14  2  0  0  0  0
 20 15  1  0  0  0  0
M  RAD  3   2   2   3   3  18   2
M  END
