Coordinates from ORCA-job PhN2+~TfO-_B3LYPG-6-31G_dp-NX-Scan-d89-09-n800
 OpenBabel11261920253D

 21 21  0  0  0  0  0  0  0  0999 V2000
   -1.4221    1.3088   -0.1277 C   0  0  0  0  0  0  0  0  0  0  0  0
   -2.6437    1.0067   -0.7920 N   0  0  0  0  0  0  0  0  0  0  0  0
   -3.5211    1.8015   -1.1710 N   0  0  0  0  0  0  0  0  0  0  0  0
   -0.8223    2.5598    0.1367 C   0  0  0  0  0  0  0  0  0  0  0  0
    0.4099    2.6049    0.7872 C   0  0  0  0  0  0  0  0  0  0  0  0
    1.0562    1.4339    1.1885 C   0  0  0  0  0  0  0  0  0  0  0  0
    0.4693    0.1934    0.9285 C   0  0  0  0  0  0  0  0  0  0  0  0
   -0.7537    0.1349    0.2706 C   0  0  0  0  0  0  0  0  0  0  0  0
   -1.2934    3.4830   -0.1627 H   0  0  0  0  0  0  0  0  0  0  0  0
    0.8665    3.5702    0.9837 H   0  0  0  0  0  0  0  0  0  0  0  0
    2.0142    1.4891    1.6966 H   0  0  0  0  0  0  0  0  0  0  0  0
    0.9656   -0.7229    1.2320 H   0  0  0  0  0  0  0  0  0  0  0  0
   -1.2275   -0.8143    0.0448 H   0  0  0  0  0  0  0  0  0  0  0  0
   -4.4985    4.1033   -1.5279 S   0  0  0  0  0  0  0  0  0  0  0  0
   -5.8436    3.8106   -0.2475 C   0  0  0  0  0  0  0  0  0  0  0  0
   -3.2997    3.0572   -0.9152 O   0  0  0  0  0  0  0  0  0  0  0  0
   -3.9315    5.4150   -1.2914 O   0  0  0  0  0  0  0  0  0  0  0  0
   -4.9749    3.6322   -2.8107 O   0  0  0  0  0  0  0  0  0  0  0  0
   -6.3071    2.5733   -0.3486 F   0  0  0  0  0  0  0  0  0  0  0  0
   -5.3409    4.0158    0.9652 F   0  0  0  0  0  0  0  0  0  0  0  0
   -6.8147    4.6864   -0.4927 F   0  0  0  0  0  0  0  0  0  0  0  0
  1  4  2  0  0  0  0
  1  8  1  0  0  0  0
  2  1  1  0  0  0  0
  3 16  1  0  0  0  0
  3  2  2  0  0  0  0
  4  5  1  0  0  0  0
  5 10  1  0  0  0  0
  5  6  2  0  0  0  0
  6 11  1  0  0  0  0
  7  6  1  0  0  0  0
  7 12  1  0  0  0  0
  8  7  2  0  0  0  0
  9  4  1  0  0  0  0
 13  8  1  0  0  0  0
 14 17  2  0  0  0  0
 14 16  1  0  0  0  0
 14 15  1  0  0  0  0
 15 20  1  0  0  0  0
 18 14  2  0  0  0  0
 19 15  1  0  0  0  0
 21 15  1  0  0  0  0
M  END
