Coordinates from ORCA-job PhN2+~TfO-_B3LYPG-6-31G_dp-NX-Scan-d89-09-n800
 OpenBabel11261920253D

 21 20  0  0  0  0  0  0  0  0999 V2000
   -1.2558    1.0816   -0.4708 C   0  0  0  0  0  0  0  0  0  0  0  0
   -2.2269    1.0146   -1.4659 N   0  0  0  0  0  0  0  0  0  0  0  0
   -3.1613    1.2012   -2.0664 N   0  0  0  0  0  0  0  0  0  0  0  0
   -1.2166    2.2325    0.3319 C   0  0  0  0  0  0  0  0  0  0  0  0
   -0.2335    2.2693    1.3175 C   0  0  0  0  0  0  0  0  0  0  0  0
    0.6545    1.2022    1.4830 C   0  0  0  0  0  0  0  0  0  0  0  0
    0.5886    0.0713    0.6581 C   0  0  0  0  0  0  0  0  0  0  0  0
   -0.3696    0.0008   -0.3436 C   0  0  0  0  0  0  0  0  0  0  0  0
   -1.9124    3.0563    0.1537 H   0  0  0  0  0  0  0  0  0  0  0  0
   -0.1645    3.1430    1.9573 H   0  0  0  0  0  0  0  0  0  0  0  0
    1.4119    1.2513    2.2597 H   0  0  0  0  0  0  0  0  0  0  0  0
    1.2854   -0.7488    0.7955 H   0  0  0  0  0  0  0  0  0  0  0  0
   -0.4493   -0.8570   -1.0024 H   0  0  0  0  0  0  0  0  0  0  0  0
   -4.2795    3.8905   -1.1807 S   0  0  0  0  0  0  0  0  0  0  0  0
   -5.6331    4.7094   -0.2030 C   0  0  0  0  0  0  0  0  0  0  0  0
   -3.0231    4.4813   -0.6553 O   0  0  0  0  0  0  0  0  0  0  0  0
   -4.5915    4.1493   -2.5899 O   0  0  0  0  0  0  0  0  0  0  0  0
   -4.4311    2.4448   -0.7555 O   0  0  0  0  0  0  0  0  0  0  0  0
   -5.4502    4.5073    1.1105 F   0  0  0  0  0  0  0  0  0  0  0  0
   -5.6282    6.0273   -0.4369 F   0  0  0  0  0  0  0  0  0  0  0  0
   -6.8263    4.2144   -0.5503 F   0  0  0  0  0  0  0  0  0  0  0  0
  1  8  2  0  0  0  0
  1  4  1  0  0  0  0
  2  1  1  0  0  0  0
  3  2  1  0  0  0  0
  4  5  2  0  0  0  0
  5  6  1  0  0  0  0
  5 10  1  0  0  0  0
  6 11  1  0  0  0  0
  7 12  1  0  0  0  0
  7  6  2  0  0  0  0
  8  7  1  0  0  0  0
  9  4  1  0  0  0  0
 13  8  1  0  0  0  0
 14 18  2  0  0  0  0
 14 16  1  0  0  0  0
 14 15  1  0  0  0  0
 15 19  1  0  0  0  0
 17 14  2  0  0  0  0
 20 15  1  0  0  0  0
 21 15  1  0  0  0  0
M  RAD  3   2   2   3   3  16   2
M  END
