Coordinates from ORCA-job PhN2+~TfO-_B3LYPG-6-31G_dp-NX-Scan-d89-09-n800
 OpenBabel11261920253D

 21 20  0  0  0  0  0  0  0  0999 V2000
   -1.4982   -0.3621   -0.3416 C   0  0  0  0  0  0  0  0  0  0  0  0
   -1.4218   -1.6264   -0.7909 N   0  0  0  0  0  0  0  0  0  0  0  0
   -1.3628   -2.6884   -1.1680 N   0  0  0  0  0  0  0  0  0  0  0  0
   -2.6088    0.0140    0.4717 C   0  0  0  0  0  0  0  0  0  0  0  0
   -2.6688    1.3073    0.9205 C   0  0  0  0  0  0  0  0  0  0  0  0
   -1.6646    2.2420    0.5594 C   0  0  0  0  0  0  0  0  0  0  0  0
   -0.5507    1.8354   -0.2157 C   0  0  0  0  0  0  0  0  0  0  0  0
   -0.4602    0.5503   -0.6880 C   0  0  0  0  0  0  0  0  0  0  0  0
   -3.3735   -0.7159    0.7131 H   0  0  0  0  0  0  0  0  0  0  0  0
   -3.5074    1.6604    1.5088 H   0  0  0  0  0  0  0  0  0  0  0  0
   -1.6673    3.2167    1.0235 H   0  0  0  0  0  0  0  0  0  0  0  0
    0.2201    2.5566   -0.4616 H   0  0  0  0  0  0  0  0  0  0  0  0
    0.3718    0.2172   -1.2985 H   0  0  0  0  0  0  0  0  0  0  0  0
   -3.8850    4.3398   -0.3756 S   0  0  0  0  0  0  0  0  0  0  0  0
   -2.8926    5.8895   -0.1126 C   0  0  0  0  0  0  0  0  0  0  0  0
   -2.8598    3.4259   -1.0137 O   0  0  0  0  0  0  0  0  0  0  0  0
   -4.9720    4.7261   -1.2788 O   0  0  0  0  0  0  0  0  0  0  0  0
   -4.2350    3.9261    0.9999 O   0  0  0  0  0  0  0  0  0  0  0  0
   -1.8033    5.6119    0.6468 F   0  0  0  0  0  0  0  0  0  0  0  0
   -2.4620    6.3954   -1.2746 F   0  0  0  0  0  0  0  0  0  0  0  0
   -3.6110    6.8212    0.5222 F   0  0  0  0  0  0  0  0  0  0  0  0
  1  4  1  0  0  0  0
  2  1  1  0  0  0  0
  3  2  1  0  0  0  0
  4  9  1  0  0  0  0
  4  5  2  0  0  0  0
  5 10  1  0  0  0  0
  6  5  1  0  0  0  0
  6 11  1  0  0  0  0
  7  6  2  0  0  0  0
  8  1  2  0  0  0  0
  8  7  1  0  0  0  0
 12  7  1  0  0  0  0
 13  8  1  0  0  0  0
 14 15  1  0  0  0  0
 14 18  1  0  0  0  0
 15 21  1  0  0  0  0
 15 19  1  0  0  0  0
 16 14  2  0  0  0  0
 17 14  2  0  0  0  0
 20 15  1  0  0  0  0
M  RAD  3   2   2   3   3  18   2
M  END
