Coordinates from ORCA-job PhN2+~TfO-_B3LYPG-6-31G_dp-NX-Scan-d89-09-n800
 OpenBabel11261920253D

 21 20  0  0  0  0  0  0  0  0999 V2000
   -1.4919    1.0726   -0.5011 C   0  0  0  0  0  0  0  0  0  0  0  0
   -2.4549    0.8134   -1.4775 N   0  0  0  0  0  0  0  0  0  0  0  0
   -3.0999    0.3077   -2.2369 N   0  0  0  0  0  0  0  0  0  0  0  0
   -1.1891    2.3778   -0.0923 C   0  0  0  0  0  0  0  0  0  0  0  0
   -0.1987    2.5182    0.8766 C   0  0  0  0  0  0  0  0  0  0  0  0
    0.4487    1.4012    1.4077 C   0  0  0  0  0  0  0  0  0  0  0  0
    0.1227    0.1061    0.9772 C   0  0  0  0  0  0  0  0  0  0  0  0
   -0.8534   -0.0781    0.0120 C   0  0  0  0  0  0  0  0  0  0  0  0
   -1.7234    3.2280   -0.5044 H   0  0  0  0  0  0  0  0  0  0  0  0
    0.0499    3.5166    1.2189 H   0  0  0  0  0  0  0  0  0  0  0  0
    1.2132    1.5336    2.1674 H   0  0  0  0  0  0  0  0  0  0  0  0
    0.6285   -0.7565    1.3968 H   0  0  0  0  0  0  0  0  0  0  0  0
   -1.1286   -1.0661   -0.3398 H   0  0  0  0  0  0  0  0  0  0  0  0
   -3.9075    4.4483   -1.1821 S   0  0  0  0  0  0  0  0  0  0  0  0
   -5.3381    4.1931   -0.0247 C   0  0  0  0  0  0  0  0  0  0  0  0
   -2.8779    5.0899   -0.3242 O   0  0  0  0  0  0  0  0  0  0  0  0
   -4.4473    5.2484   -2.2858 O   0  0  0  0  0  0  0  0  0  0  0  0
   -3.5708    3.0264   -1.5683 O   0  0  0  0  0  0  0  0  0  0  0  0
   -4.9681    3.4043    1.0057 F   0  0  0  0  0  0  0  0  0  0  0  0
   -5.7629    5.3603    0.4737 F   0  0  0  0  0  0  0  0  0  0  0  0
   -6.3634    3.5974   -0.6523 F   0  0  0  0  0  0  0  0  0  0  0  0
  1  4  2  0  0  0  0
  1  8  1  0  0  0  0
  2  1  1  0  0  0  0
  3  2  1  0  0  0  0
  4  5  1  0  0  0  0
  5 10  1  0  0  0  0
  5  6  2  0  0  0  0
  6 11  1  0  0  0  0
  7 12  1  0  0  0  0
  7  6  1  0  0  0  0
  8  7  2  0  0  0  0
  9  4  1  0  0  0  0
 13  8  1  0  0  0  0
 14 16  1  0  0  0  0
 14 15  1  0  0  0  0
 15 20  1  0  0  0  0
 15 19  1  0  0  0  0
 17 14  2  0  0  0  0
 18 14  2  0  0  0  0
 21 15  1  0  0  0  0
M  RAD  3   2   2   3   3  16   2
M  END
