Coordinates from ORCA-job PhN2+~TfO-_B3LYPG-6-31G_dp-NX-Scan-d89-09-n800
 OpenBabel11261920253D

 21 20  0  0  0  0  0  0  0  0999 V2000
   -1.4877   -0.3926   -0.3219 C   0  0  0  0  0  0  0  0  0  0  0  0
   -1.4085   -1.6768   -0.7165 N   0  0  0  0  0  0  0  0  0  0  0  0
   -1.3454   -2.7549   -1.0430 N   0  0  0  0  0  0  0  0  0  0  0  0
   -2.6023    0.0168    0.4687 C   0  0  0  0  0  0  0  0  0  0  0  0
   -2.6565    1.3256    0.8752 C   0  0  0  0  0  0  0  0  0  0  0  0
   -1.6385    2.2377    0.5011 C   0  0  0  0  0  0  0  0  0  0  0  0
   -0.5333    1.8046   -0.2689 C   0  0  0  0  0  0  0  0  0  0  0  0
   -0.4472    0.5030   -0.6993 C   0  0  0  0  0  0  0  0  0  0  0  0
   -3.3741   -0.6994    0.7276 H   0  0  0  0  0  0  0  0  0  0  0  0
   -3.4977    1.7063    1.4426 H   0  0  0  0  0  0  0  0  0  0  0  0
   -1.6373    3.2275    0.9313 H   0  0  0  0  0  0  0  0  0  0  0  0
    0.2410    2.5139   -0.5380 H   0  0  0  0  0  0  0  0  0  0  0  0
    0.3842    0.1469   -1.2977 H   0  0  0  0  0  0  0  0  0  0  0  0
   -3.8973    4.3718   -0.4026 S   0  0  0  0  0  0  0  0  0  0  0  0
   -2.9253    5.9166   -0.0493 C   0  0  0  0  0  0  0  0  0  0  0  0
   -2.8577    3.5018   -1.0707 O   0  0  0  0  0  0  0  0  0  0  0  0
   -4.9794    4.7954   -1.2955 O   0  0  0  0  0  0  0  0  0  0  0  0
   -4.2620    3.8911    0.9482 O   0  0  0  0  0  0  0  0  0  0  0  0
   -1.8472    5.6147    0.7183 F   0  0  0  0  0  0  0  0  0  0  0  0
   -2.4768    6.4804   -1.1774 F   0  0  0  0  0  0  0  0  0  0  0  0
   -3.6637    6.8122    0.6143 F   0  0  0  0  0  0  0  0  0  0  0  0
  1  4  1  0  0  0  0
  2  1  1  0  0  0  0
  3  2  1  0  0  0  0
  4  9  1  0  0  0  0
  4  5  2  0  0  0  0
  5 10  1  0  0  0  0
  6  5  1  0  0  0  0
  6 11  1  0  0  0  0
  7  6  2  0  0  0  0
  8  1  2  0  0  0  0
  8  7  1  0  0  0  0
 12  7  1  0  0  0  0
 13  8  1  0  0  0  0
 14 15  1  0  0  0  0
 14 18  1  0  0  0  0
 15 21  1  0  0  0  0
 15 19  1  0  0  0  0
 16 14  2  0  0  0  0
 17 14  2  0  0  0  0
 20 15  1  0  0  0  0
M  RAD  3   2   2   3   3  18   2
M  END
