Coordinates from ORCA-job PhN2+~TfO-_B3LYPG-6-31G_dp-NX-Scan-d89-09-n800
 OpenBabel11261920253D

 21 21  0  0  0  0  0  0  0  0999 V2000
   -1.4149    1.2896   -0.1126 C   0  0  0  0  0  0  0  0  0  0  0  0
   -2.6375    1.0007   -0.7690 N   0  0  0  0  0  0  0  0  0  0  0  0
   -3.5361    1.7372   -1.1589 N   0  0  0  0  0  0  0  0  0  0  0  0
   -0.8421    2.5461    0.1806 C   0  0  0  0  0  0  0  0  0  0  0  0
    0.3940    2.5955    0.8215 C   0  0  0  0  0  0  0  0  0  0  0  0
    1.0662    1.4247    1.1813 C   0  0  0  0  0  0  0  0  0  0  0  0
    0.5029    0.1799    0.8916 C   0  0  0  0  0  0  0  0  0  0  0  0
   -0.7256    0.1152    0.2443 C   0  0  0  0  0  0  0  0  0  0  0  0
   -1.3409    3.4634   -0.0899 H   0  0  0  0  0  0  0  0  0  0  0  0
    0.8340    3.5627    1.0435 H   0  0  0  0  0  0  0  0  0  0  0  0
    2.0276    1.4842    1.6822 H   0  0  0  0  0  0  0  0  0  0  0  0
    1.0206   -0.7339    1.1647 H   0  0  0  0  0  0  0  0  0  0  0  0
   -1.1840   -0.8362   -0.0025 H   0  0  0  0  0  0  0  0  0  0  0  0
   -4.4932    4.0987   -1.5324 S   0  0  0  0  0  0  0  0  0  0  0  0
   -5.8452    3.8568   -0.2579 C   0  0  0  0  0  0  0  0  0  0  0  0
   -3.3210    3.1051   -0.8895 O   0  0  0  0  0  0  0  0  0  0  0  0
   -3.9540    5.4330   -1.3528 O   0  0  0  0  0  0  0  0  0  0  0  0
   -4.9746    3.5845   -2.7983 O   0  0  0  0  0  0  0  0  0  0  0  0
   -6.2584    2.5944   -0.2646 F   0  0  0  0  0  0  0  0  0  0  0  0
   -5.3790    4.1750    0.9466 F   0  0  0  0  0  0  0  0  0  0  0  0
   -6.8515    4.6663   -0.5815 F   0  0  0  0  0  0  0  0  0  0  0  0
  1  4  2  0  0  0  0
  1  8  1  0  0  0  0
  2  1  1  0  0  0  0
  3 16  1  0  0  0  0
  3  2  1  0  0  0  0
  4  5  1  0  0  0  0
  5 10  1  0  0  0  0
  5  6  2  0  0  0  0
  6 11  1  0  0  0  0
  7 12  1  0  0  0  0
  7  6  1  0  0  0  0
  8  7  2  0  0  0  0
  9  4  1  0  0  0  0
 13  8  1  0  0  0  0
 14 17  2  0  0  0  0
 14 16  1  0  0  0  0
 14 15  1  0  0  0  0
 15 20  1  0  0  0  0
 18 14  2  0  0  0  0
 19 15  1  0  0  0  0
 21 15  1  0  0  0  0
M  RAD  2   2   2   3   2
M  END
