Coordinates from ORCA-job PhN2+~TfO-_B3LYPG-6-31G_dp-NX-Scan-d89-09-n800
 OpenBabel11261920253D

 21 20  0  0  0  0  0  0  0  0999 V2000
   -1.5345   -0.5820   -0.4790 C   0  0  0  0  0  0  0  0  0  0  0  0
   -1.5772   -1.8209   -1.0290 N   0  0  0  0  0  0  0  0  0  0  0  0
   -1.6226   -2.8487   -1.4791 N   0  0  0  0  0  0  0  0  0  0  0  0
   -2.7597    0.1016   -0.2533 C   0  0  0  0  0  0  0  0  0  0  0  0
   -2.6954    1.3599    0.3072 C   0  0  0  0  0  0  0  0  0  0  0  0
   -1.4454    1.9233    0.6428 C   0  0  0  0  0  0  0  0  0  0  0  0
   -0.2473    1.2225    0.4099 C   0  0  0  0  0  0  0  0  0  0  0  0
   -0.2663   -0.0364   -0.1574 C   0  0  0  0  0  0  0  0  0  0  0  0
   -3.7015   -0.3588   -0.5297 H   0  0  0  0  0  0  0  0  0  0  0  0
   -3.5979    1.9514    0.4601 H   0  0  0  0  0  0  0  0  0  0  0  0
   -1.4253    2.9158    1.0912 H   0  0  0  0  0  0  0  0  0  0  0  0
    0.7020    1.6770    0.6708 H   0  0  0  0  0  0  0  0  0  0  0  0
    0.6391   -0.5994   -0.3541 H   0  0  0  0  0  0  0  0  0  0  0  0
   -3.1709    4.6568    0.1405 S   0  0  0  0  0  0  0  0  0  0  0  0
   -3.6578    6.3798   -0.3533 C   0  0  0  0  0  0  0  0  0  0  0  0
   -2.3821    4.1528   -1.0174 O   0  0  0  0  0  0  0  0  0  0  0  0
   -4.4657    3.9569    0.3422 O   0  0  0  0  0  0  0  0  0  0  0  0
   -2.3633    4.8403    1.3731 O   0  0  0  0  0  0  0  0  0  0  0  0
   -2.5683    7.1241   -0.5975 F   0  0  0  0  0  0  0  0  0  0  0  0
   -4.4099    6.3575   -1.4646 F   0  0  0  0  0  0  0  0  0  0  0  0
   -4.3626    6.9694    0.6231 F   0  0  0  0  0  0  0  0  0  0  0  0
  1  4  2  0  0  0  0
  1  8  1  0  0  0  0
  2  1  1  0  0  0  0
  3  2  1  0  0  0  0
  4  5  1  0  0  0  0
  5 10  1  0  0  0  0
  5  6  2  0  0  0  0
  6 11  1  0  0  0  0
  7  6  1  0  0  0  0
  7 12  1  0  0  0  0
  8  7  2  0  0  0  0
  9  4  1  0  0  0  0
 13  8  1  0  0  0  0
 14 17  2  0  0  0  0
 14 18  1  0  0  0  0
 15 14  1  0  0  0  0
 15 21  1  0  0  0  0
 16 14  2  0  0  0  0
 19 15  1  0  0  0  0
 20 15  1  0  0  0  0
M  RAD  3   2   2   3   3  18   2
M  END
