Coordinates from ORCA-job PhN2+~TfO-_B3LYPG-6-31G_dp-NX-Scan-d89-09-n800
 OpenBabel11261920253D

 21 21  0  0  0  0  0  0  0  0999 V2000
   -1.3898    1.2472   -0.0788 C   0  0  0  0  0  0  0  0  0  0  0  0
   -2.6223    1.0021   -0.7166 N   0  0  0  0  0  0  0  0  0  0  0  0
   -3.5452    1.6434   -1.1179 N   0  0  0  0  0  0  0  0  0  0  0  0
   -0.8641    2.5111    0.2559 C   0  0  0  0  0  0  0  0  0  0  0  0
    0.3803    2.5713    0.8774 C   0  0  0  0  0  0  0  0  0  0  0  0
    1.0947    1.4055    1.1690 C   0  0  0  0  0  0  0  0  0  0  0  0
    0.5685    0.1549    0.8354 C   0  0  0  0  0  0  0  0  0  0  0  0
   -0.6705    0.0746    0.2101 C   0  0  0  0  0  0  0  0  0  0  0  0
   -1.4144    3.4118    0.0302 H   0  0  0  0  0  0  0  0  0  0  0  0
    0.7940    3.5403    1.1376 H   0  0  0  0  0  0  0  0  0  0  0  0
    2.0631    1.4733    1.6550 H   0  0  0  0  0  0  0  0  0  0  0  0
    1.1217   -0.7511    1.0598 H   0  0  0  0  0  0  0  0  0  0  0  0
   -1.1045   -0.8800   -0.0660 H   0  0  0  0  0  0  0  0  0  0  0  0
   -4.5020    4.1091   -1.5473 S   0  0  0  0  0  0  0  0  0  0  0  0
   -5.8660    3.9370   -0.2858 C   0  0  0  0  0  0  0  0  0  0  0  0
   -3.3626    3.2009   -0.8503 O   0  0  0  0  0  0  0  0  0  0  0  0
   -4.0274    5.4818   -1.4756 O   0  0  0  0  0  0  0  0  0  0  0  0
   -4.9840    3.5095   -2.7798 O   0  0  0  0  0  0  0  0  0  0  0  0
   -6.2216    2.6565   -0.1714 F   0  0  0  0  0  0  0  0  0  0  0  0
   -5.4486    4.3873    0.8978 F   0  0  0  0  0  0  0  0  0  0  0  0
   -6.9121    4.6562   -0.6922 F   0  0  0  0  0  0  0  0  0  0  0  0
  1  8  2  0  0  0  0
  1  4  1  0  0  0  0
  2  1  1  0  0  0  0
  3 16  1  0  0  0  0
  3  2  1  0  0  0  0
  4  5  2  0  0  0  0
  5 10  1  0  0  0  0
  5  6  1  0  0  0  0
  6 11  1  0  0  0  0
  7 12  1  0  0  0  0
  7  6  2  0  0  0  0
  8  7  1  0  0  0  0
  9  4  1  0  0  0  0
 13  8  1  0  0  0  0
 14 17  2  0  0  0  0
 14 16  1  0  0  0  0
 14 15  1  0  0  0  0
 15 19  1  0  0  0  0
 15 20  1  0  0  0  0
 18 14  2  0  0  0  0
 21 15  1  0  0  0  0
M  RAD  2   2   2   3   2
M  END
