Coordinates from ORCA-job PhN2+~TfO-_B3LYPG-6-31G_dp-NX-Scan-d89-09-n800
 OpenBabel11261920253D

 21 20  0  0  0  0  0  0  0  0999 V2000
   -1.1671    1.4077   -0.6824 C   0  0  0  0  0  0  0  0  0  0  0  0
   -1.7676    1.5315   -1.9317 N   0  0  0  0  0  0  0  0  0  0  0  0
   -2.4394    2.0003   -2.7176 N   0  0  0  0  0  0  0  0  0  0  0  0
   -1.3669    2.4178    0.2715 C   0  0  0  0  0  0  0  0  0  0  0  0
   -0.7500    2.2568    1.5072 C   0  0  0  0  0  0  0  0  0  0  0  0
    0.0298    1.1254    1.7709 C   0  0  0  0  0  0  0  0  0  0  0  0
    0.2136    0.1341    0.7995 C   0  0  0  0  0  0  0  0  0  0  0  0
   -0.3847    0.2687   -0.4471 C   0  0  0  0  0  0  0  0  0  0  0  0
   -1.9811    3.2749    0.0322 H   0  0  0  0  0  0  0  0  0  0  0  0
   -0.8887    3.0158    2.2699 H   0  0  0  0  0  0  0  0  0  0  0  0
    0.4985    1.0137    2.7436 H   0  0  0  0  0  0  0  0  0  0  0  0
    0.8194   -0.7392    1.0156 H   0  0  0  0  0  0  0  0  0  0  0  0
   -0.2661   -0.4799   -1.2227 H   0  0  0  0  0  0  0  0  0  0  0  0
   -4.6427    3.2994   -1.3022 S   0  0  0  0  0  0  0  0  0  0  0  0
   -4.7783    4.6520   -0.0266 C   0  0  0  0  0  0  0  0  0  0  0  0
   -3.3163    3.6937   -1.9615 O   0  0  0  0  0  0  0  0  0  0  0  0
   -5.8192    3.4591   -2.1549 O   0  0  0  0  0  0  0  0  0  0  0  0
   -4.4921    2.0535   -0.5266 O   0  0  0  0  0  0  0  0  0  0  0  0
   -3.6990    4.6396    0.7904 F   0  0  0  0  0  0  0  0  0  0  0  0
   -4.8478    5.8522   -0.6058 F   0  0  0  0  0  0  0  0  0  0  0  0
   -5.8670    4.4659    0.7247 F   0  0  0  0  0  0  0  0  0  0  0  0
  1  8  2  0  0  0  0
  1  4  1  0  0  0  0
  2  1  1  0  0  0  0
  3  2  1  0  0  0  0
  4  5  2  0  0  0  0
  5  6  1  0  0  0  0
  5 10  1  0  0  0  0
  6 11  1  0  0  0  0
  7 12  1  0  0  0  0
  7  6  2  0  0  0  0
  8  7  1  0  0  0  0
  9  4  1  0  0  0  0
 13  8  1  0  0  0  0
 14 18  1  0  0  0  0
 14 15  1  0  0  0  0
 15 21  1  0  0  0  0
 15 19  1  0  0  0  0
 16 14  2  0  0  0  0
 17 14  2  0  0  0  0
 20 15  1  0  0  0  0
M  RAD  3   2   2   3   3  18   2
M  END
