Coordinates from ORCA-job PhN2+~TfO-_B3LYPG-6-31G_dp-NX-Scan-d89-09-n800
 OpenBabel11261920253D

 21 20  0  0  0  0  0  0  0  0999 V2000
   -1.5796   -0.1664   -0.3786 C   0  0  0  0  0  0  0  0  0  0  0  0
   -1.7214   -1.2422   -1.1684 N   0  0  0  0  0  0  0  0  0  0  0  0
   -1.8662   -2.1196   -1.8604 N   0  0  0  0  0  0  0  0  0  0  0  0
   -2.6021    0.1172    0.5724 C   0  0  0  0  0  0  0  0  0  0  0  0
   -2.5516    1.3256    1.2146 C   0  0  0  0  0  0  0  0  0  0  0  0
   -1.5394    2.2585    0.8797 C   0  0  0  0  0  0  0  0  0  0  0  0
   -0.4388    1.8832    0.0745 C   0  0  0  0  0  0  0  0  0  0  0  0
   -0.4620    0.6881   -0.5965 C   0  0  0  0  0  0  0  0  0  0  0  0
   -3.4085   -0.5903    0.7296 H   0  0  0  0  0  0  0  0  0  0  0  0
   -3.3437    1.6326    1.8859 H   0  0  0  0  0  0  0  0  0  0  0  0
   -1.5450    3.2274    1.3611 H   0  0  0  0  0  0  0  0  0  0  0  0
    0.3734    2.5825   -0.0876 H   0  0  0  0  0  0  0  0  0  0  0  0
    0.3149    0.3982   -1.2950 H   0  0  0  0  0  0  0  0  0  0  0  0
   -3.8263    4.0832   -0.4245 S   0  0  0  0  0  0  0  0  0  0  0  0
   -2.9025    5.6932   -0.3328 C   0  0  0  0  0  0  0  0  0  0  0  0
   -2.7411    3.1364   -0.8917 O   0  0  0  0  0  0  0  0  0  0  0  0
   -4.8841    4.2995   -1.4163 O   0  0  0  0  0  0  0  0  0  0  0  0
   -4.2266    3.8399    0.9770 O   0  0  0  0  0  0  0  0  0  0  0  0
   -1.8487    5.5722    0.5114 F   0  0  0  0  0  0  0  0  0  0  0  0
   -2.4260    6.0493   -1.5326 F   0  0  0  0  0  0  0  0  0  0  0  0
   -3.6873    6.6744    0.1248 F   0  0  0  0  0  0  0  0  0  0  0  0
  1  4  1  0  0  0  0
  2  1  1  0  0  0  0
  3  2  1  0  0  0  0
  4  9  1  0  0  0  0
  4  5  2  0  0  0  0
  5 10  1  0  0  0  0
  6  5  1  0  0  0  0
  6 11  1  0  0  0  0
  7  6  2  0  0  0  0
  8  1  2  0  0  0  0
  8  7  1  0  0  0  0
 12  7  1  0  0  0  0
 13  8  1  0  0  0  0
 14 15  1  0  0  0  0
 14 18  1  0  0  0  0
 15 21  1  0  0  0  0
 15 19  1  0  0  0  0
 16 14  2  0  0  0  0
 17 14  2  0  0  0  0
 20 15  1  0  0  0  0
M  RAD  3   2   2   3   3  18   2
M  END
