Coordinates from ORCA-job PhN2+~TfO-_B3LYPG-6-31G_dp-NX-Scan-d89-09-n800
 OpenBabel11261920253D

 21 20  0  0  0  0  0  0  0  0999 V2000
   -1.1668    1.4071   -0.6858 C   0  0  0  0  0  0  0  0  0  0  0  0
   -1.7626    1.5403   -1.9328 N   0  0  0  0  0  0  0  0  0  0  0  0
   -2.3970    1.9647   -2.7639 N   0  0  0  0  0  0  0  0  0  0  0  0
   -1.3654    2.4284    0.2566 C   0  0  0  0  0  0  0  0  0  0  0  0
   -0.7590    2.2706    1.4976 C   0  0  0  0  0  0  0  0  0  0  0  0
    0.0069    1.1330    1.7748 C   0  0  0  0  0  0  0  0  0  0  0  0
    0.1879    0.1313    0.8131 C   0  0  0  0  0  0  0  0  0  0  0  0
   -0.3996    0.2601   -0.4390 C   0  0  0  0  0  0  0  0  0  0  0  0
   -1.9707    3.2885    0.0037 H   0  0  0  0  0  0  0  0  0  0  0  0
   -0.8964    3.0365    2.2536 H   0  0  0  0  0  0  0  0  0  0  0  0
    0.4674    1.0238    2.7518 H   0  0  0  0  0  0  0  0  0  0  0  0
    0.7828   -0.7462    1.0414 H   0  0  0  0  0  0  0  0  0  0  0  0
   -0.2841   -0.4968   -1.2069 H   0  0  0  0  0  0  0  0  0  0  0  0
   -4.6219    3.3155   -1.3163 S   0  0  0  0  0  0  0  0  0  0  0  0
   -4.7666    4.6346   -0.0082 C   0  0  0  0  0  0  0  0  0  0  0  0
   -3.3422    3.7579   -2.0134 O   0  0  0  0  0  0  0  0  0  0  0  0
   -5.8405    3.4415   -2.1156 O   0  0  0  0  0  0  0  0  0  0  0  0
   -4.4070    2.0628   -0.5602 O   0  0  0  0  0  0  0  0  0  0  0  0
   -3.6581    4.6498    0.7727 F   0  0  0  0  0  0  0  0  0  0  0  0
   -4.9010    5.8445   -0.5567 F   0  0  0  0  0  0  0  0  0  0  0  0
   -5.8189    4.3949    0.7797 F   0  0  0  0  0  0  0  0  0  0  0  0
  1  8  2  0  0  0  0
  1  4  1  0  0  0  0
  2  1  1  0  0  0  0
  3  2  1  0  0  0  0
  4  5  2  0  0  0  0
  5  6  1  0  0  0  0
  5 10  1  0  0  0  0
  6 11  1  0  0  0  0
  7 12  1  0  0  0  0
  7  6  2  0  0  0  0
  8  7  1  0  0  0  0
  9  4  1  0  0  0  0
 13  8  1  0  0  0  0
 14 18  1  0  0  0  0
 14 15  1  0  0  0  0
 15 19  1  0  0  0  0
 15 21  1  0  0  0  0
 16 14  2  0  0  0  0
 17 14  2  0  0  0  0
 20 15  1  0  0  0  0
M  RAD  3   2   2   3   3  18   2
M  END
