Coordinates from ORCA-job PhN2+~TfO-_B3LYPG-6-31G_dp-NX-Scan-d89-09-n800
 OpenBabel11261920253D

 21 20  0  0  0  0  0  0  0  0999 V2000
   -1.1728    1.4071   -0.6978 C   0  0  0  0  0  0  0  0  0  0  0  0
   -1.7637    1.5370   -1.9426 N   0  0  0  0  0  0  0  0  0  0  0  0
   -2.3412    1.8844   -2.8376 N   0  0  0  0  0  0  0  0  0  0  0  0
   -1.3481    2.4618    0.2128 C   0  0  0  0  0  0  0  0  0  0  0  0
   -0.7522    2.3193    1.4604 C   0  0  0  0  0  0  0  0  0  0  0  0
   -0.0225    1.1668    1.7715 C   0  0  0  0  0  0  0  0  0  0  0  0
    0.1329    0.1325    0.8391 C   0  0  0  0  0  0  0  0  0  0  0  0
   -0.4443    0.2415   -0.4189 C   0  0  0  0  0  0  0  0  0  0  0  0
   -1.9292    3.3296   -0.0718 H   0  0  0  0  0  0  0  0  0  0  0  0
   -0.8718    3.1085    2.1949 H   0  0  0  0  0  0  0  0  0  0  0  0
    0.4299    1.0701    2.7535 H   0  0  0  0  0  0  0  0  0  0  0  0
    0.6993   -0.7559    1.0959 H   0  0  0  0  0  0  0  0  0  0  0  0
   -0.3501   -0.5409   -1.1637 H   0  0  0  0  0  0  0  0  0  0  0  0
   -4.5769    3.3458   -1.3383 S   0  0  0  0  0  0  0  0  0  0  0  0
   -4.7588    4.5806    0.0437 C   0  0  0  0  0  0  0  0  0  0  0  0
   -3.3309    3.8567   -2.0241 O   0  0  0  0  0  0  0  0  0  0  0  0
   -5.8179    3.4615   -2.1065 O   0  0  0  0  0  0  0  0  0  0  0  0
   -4.3185    2.0627   -0.6400 O   0  0  0  0  0  0  0  0  0  0  0  0
   -3.6371    4.6035    0.8099 F   0  0  0  0  0  0  0  0  0  0  0  0
   -4.9537    5.8143   -0.4310 F   0  0  0  0  0  0  0  0  0  0  0  0
   -5.7851    4.2557    0.8370 F   0  0  0  0  0  0  0  0  0  0  0  0
  1  8  2  0  0  0  0
  1  4  1  0  0  0  0
  2  1  1  0  0  0  0
  3  2  1  0  0  0  0
  4  5  2  0  0  0  0
  5  6  1  0  0  0  0
  5 10  1  0  0  0  0
  6 11  1  0  0  0  0
  7 12  1  0  0  0  0
  7  6  2  0  0  0  0
  8  7  1  0  0  0  0
  9  4  1  0  0  0  0
 13  8  1  0  0  0  0
 14 18  1  0  0  0  0
 14 15  1  0  0  0  0
 15 19  1  0  0  0  0
 15 21  1  0  0  0  0
 16 14  2  0  0  0  0
 17 14  2  0  0  0  0
 20 15  1  0  0  0  0
M  RAD  3   2   2   3   3  18   2
M  END
