Coordinates from ORCA-job PhN2+~TfO-_B3LYPG-6-31G_dp-NX-Scan-d89-09-n800
 OpenBabel11261920253D

 21 20  0  0  0  0  0  0  0  0999 V2000
   -1.5782   -0.4460   -0.5504 C   0  0  0  0  0  0  0  0  0  0  0  0
   -1.5805   -1.6251   -1.2096 N   0  0  0  0  0  0  0  0  0  0  0  0
   -1.5859   -2.6116   -1.7515 N   0  0  0  0  0  0  0  0  0  0  0  0
   -2.8089    0.0528   -0.0381 C   0  0  0  0  0  0  0  0  0  0  0  0
   -2.7806    1.2432    0.6490 C   0  0  0  0  0  0  0  0  0  0  0  0
   -1.5625    1.9391    0.8279 C   0  0  0  0  0  0  0  0  0  0  0  0
   -0.3562    1.4233    0.3089 C   0  0  0  0  0  0  0  0  0  0  0  0
   -0.3423    0.2362   -0.3883 C   0  0  0  0  0  0  0  0  0  0  0  0
   -3.7292   -0.4970   -0.2002 H   0  0  0  0  0  0  0  0  0  0  0  0
   -3.7002    1.6882    1.0136 H   0  0  0  0  0  0  0  0  0  0  0  0
   -1.5571    2.8443    1.4268 H   0  0  0  0  0  0  0  0  0  0  0  0
    0.5668    1.9734    0.4525 H   0  0  0  0  0  0  0  0  0  0  0  0
    0.5693   -0.1831   -0.7988 H   0  0  0  0  0  0  0  0  0  0  0  0
   -3.2012    4.5324    0.2153 S   0  0  0  0  0  0  0  0  0  0  0  0
   -3.4226    6.2253   -0.5218 C   0  0  0  0  0  0  0  0  0  0  0  0
   -2.2037    3.8933   -0.7070 O   0  0  0  0  0  0  0  0  0  0  0  0
   -4.5461    3.9194    0.1667 O   0  0  0  0  0  0  0  0  0  0  0  0
   -2.6571    4.7779    1.5717 O   0  0  0  0  0  0  0  0  0  0  0  0
   -2.2530    6.8804   -0.5574 F   0  0  0  0  0  0  0  0  0  0  0  0
   -3.8959    6.1360   -1.7734 F   0  0  0  0  0  0  0  0  0  0  0  0
   -4.2878    6.9405    0.2103 F   0  0  0  0  0  0  0  0  0  0  0  0
  1  8  2  0  0  0  0
  1  4  1  0  0  0  0
  2  1  1  0  0  0  0
  3  2  1  0  0  0  0
  4  5  2  0  0  0  0
  5  6  1  0  0  0  0
  5 10  1  0  0  0  0
  6 11  1  0  0  0  0
  7 12  1  0  0  0  0
  7  6  2  0  0  0  0
  8  7  1  0  0  0  0
  9  4  1  0  0  0  0
 13  8  1  0  0  0  0
 14 18  1  0  0  0  0
 15 21  1  0  0  0  0
 15 14  1  0  0  0  0
 16 14  2  0  0  0  0
 17 14  2  0  0  0  0
 19 15  1  0  0  0  0
 20 15  1  0  0  0  0
M  RAD  3   2   2   3   3  18   2
M  END
