Coordinates from ORCA-job PhN2+~TfO-_B3LYPG-6-31G_dp-NX-Scan-d89-09-n800
 OpenBabel11261920253D

 21 20  0  0  0  0  0  0  0  0999 V2000
   -1.5489   -0.2142   -0.3795 C   0  0  0  0  0  0  0  0  0  0  0  0
   -1.6091   -1.3398   -1.1042 N   0  0  0  0  0  0  0  0  0  0  0  0
   -1.6815   -2.2711   -1.7363 N   0  0  0  0  0  0  0  0  0  0  0  0
   -2.6032    0.0629    0.5410 C   0  0  0  0  0  0  0  0  0  0  0  0
   -2.6133    1.2897    1.1456 C   0  0  0  0  0  0  0  0  0  0  0  0
   -1.6309    2.2566    0.8060 C   0  0  0  0  0  0  0  0  0  0  0  0
   -0.5070    1.9015    0.0185 C   0  0  0  0  0  0  0  0  0  0  0  0
   -0.4698    0.6869   -0.6129 C   0  0  0  0  0  0  0  0  0  0  0  0
   -3.3784   -0.6754    0.7141 H   0  0  0  0  0  0  0  0  0  0  0  0
   -3.4220    1.5817    1.8042 H   0  0  0  0  0  0  0  0  0  0  0  0
   -1.6542    3.2157    1.3044 H   0  0  0  0  0  0  0  0  0  0  0  0
    0.2792    2.6281   -0.1512 H   0  0  0  0  0  0  0  0  0  0  0  0
    0.3333    0.4065   -1.2853 H   0  0  0  0  0  0  0  0  0  0  0  0
   -3.8470    4.1653   -0.3667 S   0  0  0  0  0  0  0  0  0  0  0  0
   -2.8535    5.7356   -0.3188 C   0  0  0  0  0  0  0  0  0  0  0  0
   -2.8152    3.1707   -0.8689 O   0  0  0  0  0  0  0  0  0  0  0  0
   -4.9271    4.4163   -1.3240 O   0  0  0  0  0  0  0  0  0  0  0  0
   -4.2014    3.9395    1.0490 O   0  0  0  0  0  0  0  0  0  0  0  0
   -1.7675    5.5660    0.4739 F   0  0  0  0  0  0  0  0  0  0  0  0
   -2.4209    6.0742   -1.5395 F   0  0  0  0  0  0  0  0  0  0  0  0
   -3.5744    6.7460    0.1771 F   0  0  0  0  0  0  0  0  0  0  0  0
  1  4  1  0  0  0  0
  2  1  1  0  0  0  0
  3  2  1  0  0  0  0
  4  9  1  0  0  0  0
  4  5  2  0  0  0  0
  5 10  1  0  0  0  0
  6  5  1  0  0  0  0
  6 11  1  0  0  0  0
  7  6  2  0  0  0  0
  8  1  2  0  0  0  0
  8  7  1  0  0  0  0
 12  7  1  0  0  0  0
 13  8  1  0  0  0  0
 14 15  1  0  0  0  0
 14 18  1  0  0  0  0
 15 21  1  0  0  0  0
 15 19  1  0  0  0  0
 16 14  2  0  0  0  0
 17 14  2  0  0  0  0
 20 15  1  0  0  0  0
M  RAD  3   2   2   3   3  18   2
M  END
