Coordinates from ORCA-job PhN2+~TfO-_B3LYPG-6-31G_dp-NX-Scan-d89-09-n800
 OpenBabel11261920253D

 21 20  0  0  0  0  0  0  0  0999 V2000
   -1.1718    1.4081   -0.6897 C   0  0  0  0  0  0  0  0  0  0  0  0
   -1.7664    1.5428   -1.9335 N   0  0  0  0  0  0  0  0  0  0  0  0
   -2.3595    1.9176   -2.8099 N   0  0  0  0  0  0  0  0  0  0  0  0
   -1.3537    2.4497    0.2344 C   0  0  0  0  0  0  0  0  0  0  0  0
   -0.7515    2.2997    1.4782 C   0  0  0  0  0  0  0  0  0  0  0  0
   -0.0086    1.1516    1.7738 C   0  0  0  0  0  0  0  0  0  0  0  0
    0.1537    0.1300    0.8291 C   0  0  0  0  0  0  0  0  0  0  0  0
   -0.4295    0.2481   -0.4256 C   0  0  0  0  0  0  0  0  0  0  0  0
   -1.9442    3.3153   -0.0361 H   0  0  0  0  0  0  0  0  0  0  0  0
   -0.8756    3.0796    2.2218 H   0  0  0  0  0  0  0  0  0  0  0  0
    0.4487    1.0487    2.7530 H   0  0  0  0  0  0  0  0  0  0  0  0
    0.7305   -0.7553    1.0733 H   0  0  0  0  0  0  0  0  0  0  0  0
   -0.3295   -0.5243   -1.1800 H   0  0  0  0  0  0  0  0  0  0  0  0
   -4.5945    3.3349   -1.3344 S   0  0  0  0  0  0  0  0  0  0  0  0
   -4.7629    4.6016    0.0206 C   0  0  0  0  0  0  0  0  0  0  0  0
   -3.3413    3.8241   -2.0305 O   0  0  0  0  0  0  0  0  0  0  0  0
   -5.8318    3.4488   -2.1082 O   0  0  0  0  0  0  0  0  0  0  0  0
   -4.3450    2.0642   -0.6136 O   0  0  0  0  0  0  0  0  0  0  0  0
   -3.6429    4.6264    0.7880 F   0  0  0  0  0  0  0  0  0  0  0  0
   -4.9421    5.8265   -0.4814 F   0  0  0  0  0  0  0  0  0  0  0  0
   -5.7948    4.3047    0.8171 F   0  0  0  0  0  0  0  0  0  0  0  0
  1  8  2  0  0  0  0
  1  4  1  0  0  0  0
  2  1  1  0  0  0  0
  3  2  1  0  0  0  0
  4  5  2  0  0  0  0
  5  6  1  0  0  0  0
  5 10  1  0  0  0  0
  6 11  1  0  0  0  0
  7 12  1  0  0  0  0
  7  6  2  0  0  0  0
  8  7  1  0  0  0  0
  9  4  1  0  0  0  0
 13  8  1  0  0  0  0
 14 18  1  0  0  0  0
 14 15  1  0  0  0  0
 15 19  1  0  0  0  0
 15 21  1  0  0  0  0
 16 14  2  0  0  0  0
 17 14  2  0  0  0  0
 20 15  1  0  0  0  0
M  RAD  3   2   2   3   3  18   2
M  END
