Coordinates from ORCA-job PhN2+~TfO-_B3LYPG-6-31G_dp-NX-Scan-d89-09-n800
 OpenBabel11261920253D

 21 20  0  0  0  0  0  0  0  0999 V2000
   -1.4767    1.3392   -0.3239 C   0  0  0  0  0  0  0  0  0  0  0  0
   -2.4733    1.2169   -1.2821 N   0  0  0  0  0  0  0  0  0  0  0  0
   -3.2692    1.0399   -2.0527 N   0  0  0  0  0  0  0  0  0  0  0  0
   -1.1622    2.6060    0.1897 C   0  0  0  0  0  0  0  0  0  0  0  0
   -0.1494    2.6645    1.1429 C   0  0  0  0  0  0  0  0  0  0  0  0
    0.5063    1.5031    1.5597 C   0  0  0  0  0  0  0  0  0  0  0  0
    0.1669    0.2510    1.0289 C   0  0  0  0  0  0  0  0  0  0  0  0
   -0.8327    0.1519    0.0724 C   0  0  0  0  0  0  0  0  0  0  0  0
   -1.7067    3.4739   -0.1789 H   0  0  0  0  0  0  0  0  0  0  0  0
    0.1251    3.6262    1.5622 H   0  0  0  0  0  0  0  0  0  0  0  0
    1.2918    1.5694    2.3065 H   0  0  0  0  0  0  0  0  0  0  0  0
    0.6825   -0.6433    1.3609 H   0  0  0  0  0  0  0  0  0  0  0  0
   -1.1187   -0.8003   -0.3599 H   0  0  0  0  0  0  0  0  0  0  0  0
   -4.3453    4.1326   -1.7324 S   0  0  0  0  0  0  0  0  0  0  0  0
   -5.0205    3.7682   -0.0398 C   0  0  0  0  0  0  0  0  0  0  0  0
   -2.8958    4.3278   -1.4522 O   0  0  0  0  0  0  0  0  0  0  0  0
   -5.0879    5.3018   -2.2017 O   0  0  0  0  0  0  0  0  0  0  0  0
   -4.6265    2.8511   -2.4578 O   0  0  0  0  0  0  0  0  0  0  0  0
   -4.3792    2.6804    0.4749 F   0  0  0  0  0  0  0  0  0  0  0  0
   -4.8151    4.7893    0.8009 F   0  0  0  0  0  0  0  0  0  0  0  0
   -6.3264    3.4932   -0.0710 F   0  0  0  0  0  0  0  0  0  0  0  0
  1  8  2  0  0  0  0
  1  4  1  0  0  0  0
  2  1  1  0  0  0  0
  3  2  1  0  0  0  0
  4  5  2  0  0  0  0
  5  6  1  0  0  0  0
  5 10  1  0  0  0  0
  6 11  1  0  0  0  0
  7 12  1  0  0  0  0
  7  6  2  0  0  0  0
  8  7  1  0  0  0  0
  9  4  1  0  0  0  0
 13  8  1  0  0  0  0
 14 16  1  0  0  0  0
 14 15  1  0  0  0  0
 15 19  1  0  0  0  0
 15 20  1  0  0  0  0
 17 14  2  0  0  0  0
 18 14  2  0  0  0  0
 21 15  1  0  0  0  0
M  RAD  3   2   2   3   3  16   2
M  END
