Coordinates from ORCA-job PhN2+~TfO-_B3LYPG-6-31G_dp-NX-Scan-d89-09-n800
 OpenBabel11261920253D

 21 20  0  0  0  0  0  0  0  0999 V2000
   -1.3602    1.0386   -0.3378 C   0  0  0  0  0  0  0  0  0  0  0  0
   -2.4780    0.9486   -1.1630 N   0  0  0  0  0  0  0  0  0  0  0  0
   -3.4929    1.1256   -1.6196 N   0  0  0  0  0  0  0  0  0  0  0  0
   -1.2623    2.1257    0.5467 C   0  0  0  0  0  0  0  0  0  0  0  0
   -0.1238    2.1802    1.3463 C   0  0  0  0  0  0  0  0  0  0  0  0
    0.8592    1.1898    1.2621 C   0  0  0  0  0  0  0  0  0  0  0  0
    0.7304    0.1195    0.3676 C   0  0  0  0  0  0  0  0  0  0  0  0
   -0.3861    0.0349   -0.4529 C   0  0  0  0  0  0  0  0  0  0  0  0
   -2.0288    2.8994    0.5838 H   0  0  0  0  0  0  0  0  0  0  0  0
   -0.0088    3.0097    2.0363 H   0  0  0  0  0  0  0  0  0  0  0  0
    1.7392    1.2528    1.8952 H   0  0  0  0  0  0  0  0  0  0  0  0
    1.5011   -0.6418    0.3085 H   0  0  0  0  0  0  0  0  0  0  0  0
   -0.5168   -0.7765   -1.1604 H   0  0  0  0  0  0  0  0  0  0  0  0
   -4.1726    3.8928   -0.7521 S   0  0  0  0  0  0  0  0  0  0  0  0
   -5.7795    4.8103   -0.5889 C   0  0  0  0  0  0  0  0  0  0  0  0
   -3.2351    4.5951    0.1511 O   0  0  0  0  0  0  0  0  0  0  0  0
   -3.8440    3.9071   -2.1889 O   0  0  0  0  0  0  0  0  0  0  0  0
   -4.5196    2.5123   -0.2385 O   0  0  0  0  0  0  0  0  0  0  0  0
   -6.1891    4.8110    0.6857 F   0  0  0  0  0  0  0  0  0  0  0  0
   -5.6236    6.0772   -0.9922 F   0  0  0  0  0  0  0  0  0  0  0  0
   -6.7217    4.2305   -1.3427 F   0  0  0  0  0  0  0  0  0  0  0  0
  1  4  1  0  0  0  0
  2  1  1  0  0  0  0
  3  2  1  0  0  0  0
  4  9  1  0  0  0  0
  4  5  2  0  0  0  0
  5 10  1  0  0  0  0
  6  5  1  0  0  0  0
  6 11  1  0  0  0  0
  7  6  2  0  0  0  0
  8  1  2  0  0  0  0
  8  7  1  0  0  0  0
 12  7  1  0  0  0  0
 13  8  1  0  0  0  0
 14 15  1  0  0  0  0
 14 18  2  0  0  0  0
 14 16  1  0  0  0  0
 15 19  1  0  0  0  0
 17 14  2  0  0  0  0
 20 15  1  0  0  0  0
 21 15  1  0  0  0  0
M  RAD  3   2   2   3   3  16   2
M  END
