Coordinates from ORCA-job PhN2+~TfO-_B3LYPG-6-31G_dp-NX-Scan-d89-09-n800
 OpenBabel11261920253D

 21 20  0  0  0  0  0  0  0  0999 V2000
   -1.4956   -0.3708   -0.3365 C   0  0  0  0  0  0  0  0  0  0  0  0
   -1.4173   -1.6414   -0.7689 N   0  0  0  0  0  0  0  0  0  0  0  0
   -1.3561   -2.7085   -1.1306 N   0  0  0  0  0  0  0  0  0  0  0  0
   -2.6069    0.0145    0.4711 C   0  0  0  0  0  0  0  0  0  0  0  0
   -2.6655    1.3123    0.9082 C   0  0  0  0  0  0  0  0  0  0  0  0
   -1.6580    2.2411    0.5427 C   0  0  0  0  0  0  0  0  0  0  0  0
   -0.5472    1.8274   -0.2323 C   0  0  0  0  0  0  0  0  0  0  0  0
   -0.4578    0.5376   -0.6928 C   0  0  0  0  0  0  0  0  0  0  0  0
   -3.3730   -0.7119    0.7186 H   0  0  0  0  0  0  0  0  0  0  0  0
   -3.5045    1.6726    1.4917 H   0  0  0  0  0  0  0  0  0  0  0  0
   -1.6587    3.2197    0.9985 H   0  0  0  0  0  0  0  0  0  0  0  0
    0.2242    2.5456   -0.4853 H   0  0  0  0  0  0  0  0  0  0  0  0
    0.3738    0.1983   -1.3005 H   0  0  0  0  0  0  0  0  0  0  0  0
   -3.8881    4.3488   -0.3840 S   0  0  0  0  0  0  0  0  0  0  0  0
   -2.9012    5.8973   -0.0939 C   0  0  0  0  0  0  0  0  0  0  0  0
   -2.8584    3.4468   -1.0297 O   0  0  0  0  0  0  0  0  0  0  0  0
   -4.9722    4.7462   -1.2860 O   0  0  0  0  0  0  0  0  0  0  0  0
   -4.2443    3.9160    0.9843 O   0  0  0  0  0  0  0  0  0  0  0  0
   -1.8162    5.6125    0.6693 F   0  0  0  0  0  0  0  0  0  0  0  0
   -2.4639    6.4199   -1.2459 F   0  0  0  0  0  0  0  0  0  0  0  0
   -3.6259    6.8189    0.5485 F   0  0  0  0  0  0  0  0  0  0  0  0
  1  4  1  0  0  0  0
  2  1  1  0  0  0  0
  3  2  1  0  0  0  0
  4  9  1  0  0  0  0
  4  5  2  0  0  0  0
  5 10  1  0  0  0  0
  6  5  1  0  0  0  0
  6 11  1  0  0  0  0
  7  6  2  0  0  0  0
  8  1  2  0  0  0  0
  8  7  1  0  0  0  0
 12  7  1  0  0  0  0
 13  8  1  0  0  0  0
 14 15  1  0  0  0  0
 14 18  1  0  0  0  0
 15 21  1  0  0  0  0
 15 19  1  0  0  0  0
 16 14  2  0  0  0  0
 17 14  2  0  0  0  0
 20 15  1  0  0  0  0
M  RAD  3   2   2   3   3  18   2
M  END
