Coordinates from ORCA-job PhN2+~TfO-_B3LYPG-6-31G_dp-NX-Scan-d89-09-n800
 OpenBabel11261920253D

 21 20  0  0  0  0  0  0  0  0999 V2000
   -1.3820    1.0741   -0.5502 C   0  0  0  0  0  0  0  0  0  0  0  0
   -2.2681    0.8806   -1.6002 N   0  0  0  0  0  0  0  0  0  0  0  0
   -2.9090    0.5993   -2.4665 N   0  0  0  0  0  0  0  0  0  0  0  0
   -1.1737    2.3638   -0.0413 C   0  0  0  0  0  0  0  0  0  0  0  0
   -0.2431    2.4796    0.9889 C   0  0  0  0  0  0  0  0  0  0  0  0
    0.4291    1.3582    1.4798 C   0  0  0  0  0  0  0  0  0  0  0  0
    0.1921    0.0815    0.9477 C   0  0  0  0  0  0  0  0  0  0  0  0
   -0.7184   -0.0799   -0.0840 C   0  0  0  0  0  0  0  0  0  0  0  0
   -1.7325    3.2274   -0.4131 H   0  0  0  0  0  0  0  0  0  0  0  0
   -0.0601    3.4610    1.4126 H   0  0  0  0  0  0  0  0  0  0  0  0
    1.1445    1.4726    2.2887 H   0  0  0  0  0  0  0  0  0  0  0  0
    0.7167   -0.7828    1.3394 H   0  0  0  0  0  0  0  0  0  0  0  0
   -0.9252   -1.0515   -0.5185 H   0  0  0  0  0  0  0  0  0  0  0  0
   -4.0504    4.1882   -1.2257 S   0  0  0  0  0  0  0  0  0  0  0  0
   -5.3955    4.3954    0.0367 C   0  0  0  0  0  0  0  0  0  0  0  0
   -2.8563    4.7816   -0.5648 O   0  0  0  0  0  0  0  0  0  0  0  0
   -4.5475    4.8650   -2.4272 O   0  0  0  0  0  0  0  0  0  0  0  0
   -3.9286    2.6964   -1.3390 O   0  0  0  0  0  0  0  0  0  0  0  0
   -5.0623    3.7740    1.1837 F   0  0  0  0  0  0  0  0  0  0  0  0
   -5.5970    5.6922    0.3051 F   0  0  0  0  0  0  0  0  0  0  0  0
   -6.5455    3.8664   -0.4055 F   0  0  0  0  0  0  0  0  0  0  0  0
  1  8  2  0  0  0  0
  1  4  1  0  0  0  0
  2  1  1  0  0  0  0
  3  2  1  0  0  0  0
  4  5  2  0  0  0  0
  5 10  1  0  0  0  0
  5  6  1  0  0  0  0
  6 11  1  0  0  0  0
  7 12  1  0  0  0  0
  7  6  2  0  0  0  0
  8  7  1  0  0  0  0
  9  4  1  0  0  0  0
 13  8  1  0  0  0  0
 14 16  1  0  0  0  0
 14 15  1  0  0  0  0
 15 20  1  0  0  0  0
 15 19  1  0  0  0  0
 17 14  2  0  0  0  0
 18 14  2  0  0  0  0
 21 15  1  0  0  0  0
M  RAD  3   2   2   3   3  16   2
M  END
