Coordinates from ORCA-job PhN2+~TfO-_B3LYPG-6-31G_dp-NX-Scan-d89-09-n800
 OpenBabel11261920253D

 21 20  0  0  0  0  0  0  0  0999 V2000
   -1.5647   -0.4900   -0.5298 C   0  0  0  0  0  0  0  0  0  0  0  0
   -1.5747   -1.6921   -1.1498 N   0  0  0  0  0  0  0  0  0  0  0  0
   -1.5870   -2.6960   -1.6571 N   0  0  0  0  0  0  0  0  0  0  0  0
   -2.8003    0.0612   -0.0900 C   0  0  0  0  0  0  0  0  0  0  0  0
   -2.7645    1.2740    0.5590 C   0  0  0  0  0  0  0  0  0  0  0  0
   -1.5334    1.9339    0.7740 C   0  0  0  0  0  0  0  0  0  0  0  0
   -0.3238    1.3692    0.3214 C   0  0  0  0  0  0  0  0  0  0  0  0
   -0.3164    0.1588   -0.3379 C   0  0  0  0  0  0  0  0  0  0  0  0
   -3.7295   -0.4654   -0.2761 H   0  0  0  0  0  0  0  0  0  0  0  0
   -3.6843    1.7628    0.8655 H   0  0  0  0  0  0  0  0  0  0  0  0
   -1.5283    2.8652    1.3332 H   0  0  0  0  0  0  0  0  0  0  0  0
    0.6093    1.8955    0.4876 H   0  0  0  0  0  0  0  0  0  0  0  0
    0.5982   -0.3000   -0.6963 H   0  0  0  0  0  0  0  0  0  0  0  0
   -3.1932    4.5676    0.1954 S   0  0  0  0  0  0  0  0  0  0  0  0
   -3.4859    6.2777   -0.4725 C   0  0  0  0  0  0  0  0  0  0  0  0
   -2.2325    3.9741   -0.7881 O   0  0  0  0  0  0  0  0  0  0  0  0
   -4.5302    3.9315    0.1955 O   0  0  0  0  0  0  0  0  0  0  0  0
   -2.5928    4.7849    1.5340 O   0  0  0  0  0  0  0  0  0  0  0  0
   -2.3328    6.9595   -0.5423 F   0  0  0  0  0  0  0  0  0  0  0  0
   -4.0174    6.2195   -1.7025 F   0  0  0  0  0  0  0  0  0  0  0  0
   -4.3288    6.9509    0.3231 F   0  0  0  0  0  0  0  0  0  0  0  0
  1  8  2  0  0  0  0
  1  4  1  0  0  0  0
  2  1  1  0  0  0  0
  3  2  1  0  0  0  0
  4  5  2  0  0  0  0
  5  6  1  0  0  0  0
  5 10  1  0  0  0  0
  6 11  1  0  0  0  0
  7 12  1  0  0  0  0
  7  6  2  0  0  0  0
  8  7  1  0  0  0  0
  9  4  1  0  0  0  0
 13  8  1  0  0  0  0
 14 17  2  0  0  0  0
 14 18  1  0  0  0  0
 15 14  1  0  0  0  0
 15 21  1  0  0  0  0
 16 14  2  0  0  0  0
 19 15  1  0  0  0  0
 20 15  1  0  0  0  0
M  RAD  3   2   2   3   3  18   2
M  END
