Coordinates from ORCA-job PhN2+~TfO-_B3LYPG-6-31G_dp-NX-Scan-d89-09-n800
 OpenBabel11261920253D

 21 20  0  0  0  0  0  0  0  0999 V2000
   -1.1700    1.4027   -0.6753 C   0  0  0  0  0  0  0  0  0  0  0  0
   -1.7814    1.5136   -1.9233 N   0  0  0  0  0  0  0  0  0  0  0  0
   -2.4825    2.0090   -2.6741 N   0  0  0  0  0  0  0  0  0  0  0  0
   -1.3696    2.4037    0.2883 C   0  0  0  0  0  0  0  0  0  0  0  0
   -0.7378    2.2432    1.5167 C   0  0  0  0  0  0  0  0  0  0  0  0
    0.0591    1.1206    1.7662 C   0  0  0  0  0  0  0  0  0  0  0  0
    0.2441    0.1379    0.7869 C   0  0  0  0  0  0  0  0  0  0  0  0
   -0.3701    0.2733   -0.4521 C   0  0  0  0  0  0  0  0  0  0  0  0
   -1.9956    3.2556    0.0625 H   0  0  0  0  0  0  0  0  0  0  0  0
   -0.8768    2.9966    2.2850 H   0  0  0  0  0  0  0  0  0  0  0  0
    0.5399    1.0096    2.7331 H   0  0  0  0  0  0  0  0  0  0  0  0
    0.8632   -0.7291    0.9905 H   0  0  0  0  0  0  0  0  0  0  0  0
   -0.2506   -0.4690   -1.2337 H   0  0  0  0  0  0  0  0  0  0  0  0
   -4.6626    3.2969   -1.2983 S   0  0  0  0  0  0  0  0  0  0  0  0
   -4.7943    4.6691   -0.0424 C   0  0  0  0  0  0  0  0  0  0  0  0
   -3.2909    3.6468   -1.9062 O   0  0  0  0  0  0  0  0  0  0  0  0
   -5.7907    3.4924   -2.2059 O   0  0  0  0  0  0  0  0  0  0  0  0
   -4.5818    2.0534   -0.5133 O   0  0  0  0  0  0  0  0  0  0  0  0
   -3.7458    4.6278    0.8101 F   0  0  0  0  0  0  0  0  0  0  0  0
   -4.8036    5.8628   -0.6378 F   0  0  0  0  0  0  0  0  0  0  0  0
   -5.9149    4.5259    0.6695 F   0  0  0  0  0  0  0  0  0  0  0  0
  1  8  2  0  0  0  0
  1  4  1  0  0  0  0
  2  1  1  0  0  0  0
  3  2  2  0  0  0  0
  4  5  2  0  0  0  0
  5  6  1  0  0  0  0
  5 10  1  0  0  0  0
  6 11  1  0  0  0  0
  7 12  1  0  0  0  0
  7  6  2  0  0  0  0
  8  7  1  0  0  0  0
  9  4  1  0  0  0  0
 13  8  1  0  0  0  0
 14 18  1  0  0  0  0
 14 15  1  0  0  0  0
 15 21  1  0  0  0  0
 15 19  1  0  0  0  0
 16 14  2  0  0  0  0
 17 14  2  0  0  0  0
 20 15  1  0  0  0  0
M  RAD  2   3   2  18   2
M  END
