Coordinates from ORCA-job PhN2+~TfO-_B3LYPG-6-31G_dp-NX-Scan-d89-09-n800
 OpenBabel11261920253D

 21 20  0  0  0  0  0  0  0  0999 V2000
   -1.2517    1.1989   -0.4743 C   0  0  0  0  0  0  0  0  0  0  0  0
   -2.1122    1.0949   -1.5769 N   0  0  0  0  0  0  0  0  0  0  0  0
   -2.9713    1.5822   -2.1763 N   0  0  0  0  0  0  0  0  0  0  0  0
   -1.4003    2.2179    0.4818 C   0  0  0  0  0  0  0  0  0  0  0  0
   -0.5157    2.2295    1.5560 C   0  0  0  0  0  0  0  0  0  0  0  0
    0.4888    1.2619    1.6654 C   0  0  0  0  0  0  0  0  0  0  0  0
    0.6188    0.2558    0.7031 C   0  0  0  0  0  0  0  0  0  0  0  0
   -0.2594    0.2136   -0.3739 C   0  0  0  0  0  0  0  0  0  0  0  0
   -2.1901    2.9491    0.3748 H   0  0  0  0  0  0  0  0  0  0  0  0
   -0.6111    3.0023    2.3121 H   0  0  0  0  0  0  0  0  0  0  0  0
    1.1721    1.2906    2.5090 H   0  0  0  0  0  0  0  0  0  0  0  0
    1.3974   -0.4943    0.7955 H   0  0  0  0  0  0  0  0  0  0  0  0
   -0.1928   -0.5577   -1.1336 H   0  0  0  0  0  0  0  0  0  0  0  0
   -4.8655    3.5934   -1.6046 S   0  0  0  0  0  0  0  0  0  0  0  0
   -4.9823    4.6500   -0.0707 C   0  0  0  0  0  0  0  0  0  0  0  0
   -3.3392    3.2581   -1.5083 O   0  0  0  0  0  0  0  0  0  0  0  0
   -5.1757    4.4767   -2.7243 O   0  0  0  0  0  0  0  0  0  0  0  0
   -5.6875    2.4105   -1.3480 O   0  0  0  0  0  0  0  0  0  0  0  0
   -4.5190    3.9698    0.9953 F   0  0  0  0  0  0  0  0  0  0  0  0
   -4.2595    5.7645   -0.2077 F   0  0  0  0  0  0  0  0  0  0  0  0
   -6.2566    4.9754    0.1520 F   0  0  0  0  0  0  0  0  0  0  0  0
  1  8  2  0  0  0  0
  1  4  1  0  0  0  0
  2  1  1  0  0  0  0
  3  2  2  0  0  0  0
  4  5  2  0  0  0  0
  5  6  1  0  0  0  0
  5 10  1  0  0  0  0
  6 11  1  0  0  0  0
  7 12  1  0  0  0  0
  7  6  2  0  0  0  0
  8  7  1  0  0  0  0
  9  4  1  0  0  0  0
 13  8  1  0  0  0  0
 14 16  2  0  0  0  0
 14 18  1  0  0  0  0
 14 15  1  0  0  0  0
 15 21  1  0  0  0  0
 15 19  1  0  0  0  0
 17 14  2  0  0  0  0
 20 15  1  0  0  0  0
M  RAD  2   3   2  18   2
M  END
