Coordinates from ORCA-job PhN2+~TfO-_B3LYPG-6-31G_dp-NX-Scan-d89-09-n800
 OpenBabel11261920253D

 21 21  0  0  0  0  0  0  0  0999 V2000
   -1.1690    1.6479    0.1023 C   0  0  0  0  0  0  0  0  0  0  0  0
   -2.4756    1.9538   -0.3749 N   0  0  0  0  0  0  0  0  0  0  0  0
   -2.8228    3.1667   -0.3524 N   0  0  0  0  0  0  0  0  0  0  0  0
   -0.1979    2.5452    0.5794 C   0  0  0  0  0  0  0  0  0  0  0  0
    1.0380    2.0543    1.0048 C   0  0  0  0  0  0  0  0  0  0  0  0
    1.3194    0.6888    0.9633 C   0  0  0  0  0  0  0  0  0  0  0  0
    0.3523   -0.2014    0.4883 C   0  0  0  0  0  0  0  0  0  0  0  0
   -0.8824    0.2730    0.0600 C   0  0  0  0  0  0  0  0  0  0  0  0
   -0.3813    3.6109    0.6253 H   0  0  0  0  0  0  0  0  0  0  0  0
    1.7847    2.7526    1.3707 H   0  0  0  0  0  0  0  0  0  0  0  0
    2.2844    0.3208    1.2976 H   0  0  0  0  0  0  0  0  0  0  0  0
    0.5608   -1.2664    0.4495 H   0  0  0  0  0  0  0  0  0  0  0  0
   -1.6477   -0.3981   -0.3143 H   0  0  0  0  0  0  0  0  0  0  0  0
   -4.9625    4.6411   -1.1100 S   0  0  2  0  0  0  0  0  0  0  0  0
   -6.6819    3.9196   -0.7892 C   0  0  0  0  0  0  0  0  0  0  0  0
   -2.4685    4.0969   -0.0870 O   0  0  0  0  0  0  0  0  0  0  0  0
   -4.9450    5.0918   -2.5214 O   0  0  0  0  0  0  0  0  0  0  0  0
   -4.3323    3.1024   -0.9486 O   0  0  0  0  0  0  0  0  0  0  0  0
   -6.7339    3.4656    0.4664 F   0  0  0  0  0  0  0  0  0  0  0  0
   -7.5533    4.9276   -0.9244 F   0  0  0  0  0  0  0  0  0  0  0  0
   -6.9983    2.9499   -1.6392 F   0  0  0  0  0  0  0  0  0  0  0  0
  1  4  1  0  0  0  0
  2  3  1  0  0  0  0
  2  1  1  0  0  0  0
  3 16  1  0  0  0  0
  4  9  1  0  0  0  0
  4  5  2  0  0  0  0
  5 10  1  0  0  0  0
  6  5  1  0  0  0  0
  6 11  1  0  0  0  0
  7  6  2  0  0  0  0
  8  1  2  0  0  0  0
  8  7  1  0  0  0  0
 12  7  1  0  0  0  0
 13  8  1  0  0  0  0
 14 17  1  6  0  0  0
 14 18  1  0  0  0  0
 14 15  1  0  0  0  0
 15 19  1  0  0  0  0
 18  3  1  0  0  0  0
 20 15  1  0  0  0  0
 21 15  1  0  0  0  0
M  RAD  3   2   2  16   2  17   2
M  END
