Coordinates from ORCA-job PhN2+~TfO-_B3LYPG-6-31G_dp-NX-Scan-d89-09-n800
 OpenBabel11261920253D

 21 20  0  0  0  0  0  0  0  0999 V2000
   -1.2454    1.3072   -0.5910 C   0  0  0  0  0  0  0  0  0  0  0  0
   -1.9953    1.3251   -1.7574 N   0  0  0  0  0  0  0  0  0  0  0  0
   -2.7357    1.5253   -2.5710 N   0  0  0  0  0  0  0  0  0  0  0  0
   -1.3193    2.4402    0.2353 C   0  0  0  0  0  0  0  0  0  0  0  0
   -0.5710    2.4073    1.4078 C   0  0  0  0  0  0  0  0  0  0  0  0
    0.2075    1.2899    1.7256 C   0  0  0  0  0  0  0  0  0  0  0  0
    0.2600    0.1784    0.8737 C   0  0  0  0  0  0  0  0  0  0  0  0
   -0.4685    0.1739   -0.3082 C   0  0  0  0  0  0  0  0  0  0  0  0
   -1.9392    3.2793   -0.0667 H   0  0  0  0  0  0  0  0  0  0  0  0
   -0.6035    3.2604    2.0774 H   0  0  0  0  0  0  0  0  0  0  0  0
    0.7804    1.2816    2.6476 H   0  0  0  0  0  0  0  0  0  0  0  0
    0.8669   -0.6822    1.1332 H   0  0  0  0  0  0  0  0  0  0  0  0
   -0.4535   -0.6704   -0.9884 H   0  0  0  0  0  0  0  0  0  0  0  0
   -4.5470    3.6211   -1.5599 S   0  0  0  0  0  0  0  0  0  0  0  0
   -4.8981    4.4166    0.0861 C   0  0  0  0  0  0  0  0  0  0  0  0
   -3.1090    3.9694   -1.7925 O   0  0  0  0  0  0  0  0  0  0  0  0
   -5.5181    4.2157   -2.4803 O   0  0  0  0  0  0  0  0  0  0  0  0
   -4.7021    2.1634   -1.2640 O   0  0  0  0  0  0  0  0  0  0  0  0
   -4.0061    3.9866    1.0135 F   0  0  0  0  0  0  0  0  0  0  0  0
   -4.7925    5.7478    0.0053 F   0  0  0  0  0  0  0  0  0  0  0  0
   -6.1233    4.1062    0.5204 F   0  0  0  0  0  0  0  0  0  0  0  0
  1  8  2  0  0  0  0
  1  4  1  0  0  0  0
  2  1  1  0  0  0  0
  3  2  1  0  0  0  0
  4  5  2  0  0  0  0
  5  6  1  0  0  0  0
  5 10  1  0  0  0  0
  6 11  1  0  0  0  0
  7 12  1  0  0  0  0
  7  6  2  0  0  0  0
  8  7  1  0  0  0  0
  9  4  1  0  0  0  0
 13  8  1  0  0  0  0
 14 18  1  0  0  0  0
 14 15  1  0  0  0  0
 15 21  1  0  0  0  0
 15 19  1  0  0  0  0
 16 14  2  0  0  0  0
 17 14  2  0  0  0  0
 20 15  1  0  0  0  0
M  RAD  3   2   2   3   3  18   2
M  END
