Coordinates from ORCA-job PhN2+~TfO-_B3LYPG-6-31G_dp-NX-Scan-d89-09-n800
 OpenBabel11261920253D

 21 20  0  0  0  0  0  0  0  0999 V2000
   -1.5420   -0.7372   -0.2462 C   0  0  0  0  0  0  0  0  0  0  0  0
   -1.7074   -2.0374   -0.6027 N   0  0  0  0  0  0  0  0  0  0  0  0
   -1.8688   -3.1052   -0.9061 N   0  0  0  0  0  0  0  0  0  0  0  0
   -2.6439    0.1421   -0.4085 C   0  0  0  0  0  0  0  0  0  0  0  0
   -2.4557    1.4683   -0.0712 C   0  0  0  0  0  0  0  0  0  0  0  0
   -1.2053    1.9011    0.4133 C   0  0  0  0  0  0  0  0  0  0  0  0
   -0.1355    1.0033    0.5827 C   0  0  0  0  0  0  0  0  0  0  0  0
   -0.2793   -0.3313    0.2524 C   0  0  0  0  0  0  0  0  0  0  0  0
   -3.5882   -0.2275   -0.7934 H   0  0  0  0  0  0  0  0  0  0  0  0
   -3.2562    2.2089   -0.1982 H   0  0  0  0  0  0  0  0  0  0  0  0
   -1.1095    2.9687    0.6255 H   0  0  0  0  0  0  0  0  0  0  0  0
    0.8164    1.3586    0.9627 H   0  0  0  0  0  0  0  0  0  0  0  0
    0.5274   -1.0483    0.3569 H   0  0  0  0  0  0  0  0  0  0  0  0
   -3.1133    4.9239   -0.5389 S   0  0  0  0  0  0  0  0  0  0  0  0
   -3.9573    6.4547    0.0846 C   0  0  0  0  0  0  0  0  0  0  0  0
   -2.6990    5.2426   -1.9151 O   0  0  0  0  0  0  0  0  0  0  0  0
   -4.1776    3.8844   -0.4189 O   0  0  0  0  0  0  0  0  0  0  0  0
   -1.9991    4.7366    0.4346 O   0  0  0  0  0  0  0  0  0  0  0  0
   -3.1173    7.5010    0.0608 F   0  0  0  0  0  0  0  0  0  0  0  0
   -5.0222    6.7519   -0.6764 F   0  0  0  0  0  0  0  0  0  0  0  0
   -4.3788    6.2836    1.3484 F   0  0  0  0  0  0  0  0  0  0  0  0
  1  8  1  0  0  0  0
  2  1  1  0  0  0  0
  3  2  1  0  0  0  0
  4  1  2  0  0  0  0
  4  5  1  0  0  0  0
  5  6  2  0  0  0  0
  6  7  1  0  0  0  0
  6 11  1  0  0  0  0
  7 12  1  0  0  0  0
  8 13  1  0  0  0  0
  8  7  2  0  0  0  0
  9  4  1  0  0  0  0
 10  5  1  0  0  0  0
 14 17  2  0  0  0  0
 14 15  1  0  0  0  0
 14 18  1  0  0  0  0
 15 21  1  0  0  0  0
 16 14  2  0  0  0  0
 19 15  1  0  0  0  0
 20 15  1  0  0  0  0
M  RAD  3   2   2   3   3  18   2
M  END
