Coordinates from ORCA-job PhN2+~TfO-_B3LYPG-6-31G_dp-NX-Scan-d89-09-n800
 OpenBabel11261920253D

 21 20  0  0  0  0  0  0  0  0999 V2000
   -1.5146   -0.3015   -0.3657 C   0  0  0  0  0  0  0  0  0  0  0  0
   -1.4699   -1.5166   -0.9317 N   0  0  0  0  0  0  0  0  0  0  0  0
   -1.4427   -2.5354   -1.4164 N   0  0  0  0  0  0  0  0  0  0  0  0
   -2.6120    0.0192    0.4892 C   0  0  0  0  0  0  0  0  0  0  0  0
   -2.6711    1.2835    1.0092 C   0  0  0  0  0  0  0  0  0  0  0  0
   -1.6872    2.2486    0.6651 C   0  0  0  0  0  0  0  0  0  0  0  0
   -0.5588    1.8799   -0.1112 C   0  0  0  0  0  0  0  0  0  0  0  0
   -0.4710    0.6255   -0.6552 C   0  0  0  0  0  0  0  0  0  0  0  0
   -3.3708   -0.7271    0.6969 H   0  0  0  0  0  0  0  0  0  0  0  0
   -3.5028    1.5976    1.6281 H   0  0  0  0  0  0  0  0  0  0  0  0
   -1.7045    3.2067    1.1636 H   0  0  0  0  0  0  0  0  0  0  0  0
    0.2098    2.6158   -0.3170 H   0  0  0  0  0  0  0  0  0  0  0  0
    0.3577    0.3260   -1.2872 H   0  0  0  0  0  0  0  0  0  0  0  0
   -3.8703    4.2783   -0.3418 S   0  0  0  0  0  0  0  0  0  0  0  0
   -2.8489    5.8268   -0.2212 C   0  0  0  0  0  0  0  0  0  0  0  0
   -2.8660    3.2998   -0.9250 O   0  0  0  0  0  0  0  0  0  0  0  0
   -4.9657    4.6039   -1.2576 O   0  0  0  0  0  0  0  0  0  0  0  0
   -4.1981    3.9736    1.0659 O   0  0  0  0  0  0  0  0  0  0  0  0
   -1.7457    5.5878    0.5293 F   0  0  0  0  0  0  0  0  0  0  0  0
   -2.4424    6.2355   -1.4290 F   0  0  0  0  0  0  0  0  0  0  0  0
   -3.5378    6.8148    0.3581 F   0  0  0  0  0  0  0  0  0  0  0  0
  1  4  1  0  0  0  0
  2  1  1  0  0  0  0
  3  2  1  0  0  0  0
  4  9  1  0  0  0  0
  4  5  2  0  0  0  0
  5 10  1  0  0  0  0
  6  5  1  0  0  0  0
  6 11  1  0  0  0  0
  7  6  2  0  0  0  0
  8  1  2  0  0  0  0
  8  7  1  0  0  0  0
 12  7  1  0  0  0  0
 13  8  1  0  0  0  0
 14 15  1  0  0  0  0
 14 18  1  0  0  0  0
 15 21  1  0  0  0  0
 15 19  1  0  0  0  0
 16 14  2  0  0  0  0
 17 14  2  0  0  0  0
 20 15  1  0  0  0  0
M  RAD  3   2   2   3   3  18   2
M  END
