Coordinates from ORCA-job PhN2+~TfO-_B3LYPG-6-31G_dp-NX-Scan-d89-09-n800
 OpenBabel11261920253D

 21 20  0  0  0  0  0  0  0  0999 V2000
   -1.1726    1.4077   -0.6952 C   0  0  0  0  0  0  0  0  0  0  0  0
   -1.7647    1.5392   -1.9395 N   0  0  0  0  0  0  0  0  0  0  0  0
   -2.3464    1.8941   -2.8296 N   0  0  0  0  0  0  0  0  0  0  0  0
   -1.3492    2.4588    0.2192 C   0  0  0  0  0  0  0  0  0  0  0  0
   -0.7513    2.3139    1.4657 C   0  0  0  0  0  0  0  0  0  0  0  0
   -0.0181    1.1623    1.7722 C   0  0  0  0  0  0  0  0  0  0  0  0
    0.1385    0.1315    0.8362 C   0  0  0  0  0  0  0  0  0  0  0  0
   -0.4406    0.2434   -0.4207 C   0  0  0  0  0  0  0  0  0  0  0  0
   -1.9329    3.3261   -0.0612 H   0  0  0  0  0  0  0  0  0  0  0  0
   -0.8717    3.1005    2.2028 H   0  0  0  0  0  0  0  0  0  0  0  0
    0.4358    1.0637    2.7533 H   0  0  0  0  0  0  0  0  0  0  0  0
    0.7076   -0.7562    1.0894 H   0  0  0  0  0  0  0  0  0  0  0  0
   -0.3452   -0.5363   -1.1682 H   0  0  0  0  0  0  0  0  0  0  0  0
   -4.5818    3.3426   -1.3376 S   0  0  0  0  0  0  0  0  0  0  0  0
   -4.7603    4.5864    0.0369 C   0  0  0  0  0  0  0  0  0  0  0  0
   -3.3339    3.8477   -2.0262 O   0  0  0  0  0  0  0  0  0  0  0  0
   -5.8218    3.4576   -2.1074 O   0  0  0  0  0  0  0  0  0  0  0  0
   -4.3258    2.0630   -0.6329 O   0  0  0  0  0  0  0  0  0  0  0  0
   -3.6391    4.6101    0.8034 F   0  0  0  0  0  0  0  0  0  0  0  0
   -4.9511    5.8177   -0.4454 F   0  0  0  0  0  0  0  0  0  0  0  0
   -5.7881    4.2691    0.8312 F   0  0  0  0  0  0  0  0  0  0  0  0
  1  8  2  0  0  0  0
  1  4  1  0  0  0  0
  2  1  1  0  0  0  0
  3  2  1  0  0  0  0
  4  5  2  0  0  0  0
  5  6  1  0  0  0  0
  5 10  1  0  0  0  0
  6 11  1  0  0  0  0
  7 12  1  0  0  0  0
  7  6  2  0  0  0  0
  8  7  1  0  0  0  0
  9  4  1  0  0  0  0
 13  8  1  0  0  0  0
 14 18  1  0  0  0  0
 14 15  1  0  0  0  0
 15 19  1  0  0  0  0
 15 21  1  0  0  0  0
 16 14  2  0  0  0  0
 17 14  2  0  0  0  0
 20 15  1  0  0  0  0
M  RAD  3   2   2   3   3  18   2
M  END
