Coordinates from ORCA-job PhN2+~TfO-_B3LYPG-6-31G_dp-NX-Scan-d89-09-n800
 OpenBabel11261920253D

 21 20  0  0  0  0  0  0  0  0999 V2000
   -1.5847   -0.4174   -0.5603 C   0  0  0  0  0  0  0  0  0  0  0  0
   -1.5806   -1.5828   -1.2396 N   0  0  0  0  0  0  0  0  0  0  0  0
   -1.5795   -2.5592   -1.8011 N   0  0  0  0  0  0  0  0  0  0  0  0
   -2.8079    0.0394    0.0081 C   0  0  0  0  0  0  0  0  0  0  0  0
   -2.7858    1.2173    0.7141 C   0  0  0  0  0  0  0  0  0  0  0  0
   -1.5825    1.9493    0.8546 C   0  0  0  0  0  0  0  0  0  0  0  0
   -0.3811    1.4711    0.2862 C   0  0  0  0  0  0  0  0  0  0  0  0
   -0.3620    0.2971   -0.4298 C   0  0  0  0  0  0  0  0  0  0  0  0
   -3.7182   -0.5340   -0.1269 H   0  0  0  0  0  0  0  0  0  0  0  0
   -3.7019    1.6246    1.1266 H   0  0  0  0  0  0  0  0  0  0  0  0
   -1.5763    2.8359    1.4793 H   0  0  0  0  0  0  0  0  0  0  0  0
    0.5312    2.0444    0.4048 H   0  0  0  0  0  0  0  0  0  0  0  0
    0.5452   -0.0910   -0.8790 H   0  0  0  0  0  0  0  0  0  0  0  0
   -3.2341    4.5027    0.2197 S   0  0  0  0  0  0  0  0  0  0  0  0
   -3.3628    6.1923   -0.5473 C   0  0  0  0  0  0  0  0  0  0  0  0
   -2.2115    3.8245   -0.6519 O   0  0  0  0  0  0  0  0  0  0  0  0
   -4.5905    3.9294    0.1117 O   0  0  0  0  0  0  0  0  0  0  0  0
   -2.7412    4.7458    1.5953 O   0  0  0  0  0  0  0  0  0  0  0  0
   -2.1702    6.8052   -0.5416 F   0  0  0  0  0  0  0  0  0  0  0  0
   -3.7869    6.1018   -1.8161 F   0  0  0  0  0  0  0  0  0  0  0  0
   -4.2316    6.9464    0.1397 F   0  0  0  0  0  0  0  0  0  0  0  0
  1  8  2  0  0  0  0
  1  4  1  0  0  0  0
  2  1  1  0  0  0  0
  3  2  1  0  0  0  0
  4  5  2  0  0  0  0
  5  6  1  0  0  0  0
  5 10  1  0  0  0  0
  6 11  1  0  0  0  0
  7 12  1  0  0  0  0
  7  6  2  0  0  0  0
  8  7  1  0  0  0  0
  9  4  1  0  0  0  0
 13  8  1  0  0  0  0
 14 18  1  0  0  0  0
 15 19  1  0  0  0  0
 15 21  1  0  0  0  0
 15 14  1  0  0  0  0
 16 14  2  0  0  0  0
 17 14  2  0  0  0  0
 20 15  1  0  0  0  0
M  RAD  3   2   2   3   3  18   2
M  END
