Coordinates from ORCA-job PhN2+~TfO-_B3LYPG-6-31G_dp-NX-Scan-d89-09-n800
 OpenBabel11261920253D

 21 21  0  0  0  0  0  0  0  0999 V2000
   -1.1517    1.6400    0.0877 C   0  0  0  0  0  0  0  0  0  0  0  0
   -2.4554    1.9454   -0.4180 N   0  0  0  0  0  0  0  0  0  0  0  0
   -2.7801    3.1687   -0.3714 N   0  0  0  0  0  0  0  0  0  0  0  0
   -0.2043    2.5363    0.6085 C   0  0  0  0  0  0  0  0  0  0  0  0
    1.0263    2.0509    1.0566 C   0  0  0  0  0  0  0  0  0  0  0  0
    1.3240    0.6902    0.9935 C   0  0  0  0  0  0  0  0  0  0  0  0
    0.3788   -0.1990    0.4745 C   0  0  0  0  0  0  0  0  0  0  0  0
   -0.8502    0.2702    0.0240 C   0  0  0  0  0  0  0  0  0  0  0  0
   -0.3952    3.6009    0.6752 H   0  0  0  0  0  0  0  0  0  0  0  0
    1.7546    2.7499    1.4565 H   0  0  0  0  0  0  0  0  0  0  0  0
    2.2839    0.3252    1.3448 H   0  0  0  0  0  0  0  0  0  0  0  0
    0.5995   -1.2608    0.4185 H   0  0  0  0  0  0  0  0  0  0  0  0
   -1.5980   -0.4011   -0.3839 H   0  0  0  0  0  0  0  0  0  0  0  0
   -4.9690    4.5948   -1.2006 S   0  0  2  0  0  0  0  0  0  0  0  0
   -6.6916    3.9607   -0.7547 C   0  0  0  0  0  0  0  0  0  0  0  0
   -2.4881    4.0461   -0.1130 O   0  0  0  0  0  0  0  0  0  0  0  0
   -5.0263    5.0279   -2.6194 O   0  0  0  0  0  0  0  0  0  0  0  0
   -4.3548    3.0825   -1.0337 O   0  0  0  0  0  0  0  0  0  0  0  0
   -6.6790    3.5347    0.5133 F   0  0  0  0  0  0  0  0  0  0  0  0
   -7.5357    4.9961   -0.8552 F   0  0  0  0  0  0  0  0  0  0  0  0
   -7.1004    2.9833   -1.5568 F   0  0  0  0  0  0  0  0  0  0  0  0
  1  4  1  0  0  0  0
  2  3  1  0  0  0  0
  2  1  1  0  0  0  0
  3 16  1  0  0  0  0
  4  9  1  0  0  0  0
  4  5  2  0  0  0  0
  5 10  1  0  0  0  0
  6  5  1  0  0  0  0
  6 11  1  0  0  0  0
  7  6  2  0  0  0  0
  8  1  2  0  0  0  0
  8  7  1  0  0  0  0
 12  7  1  0  0  0  0
 13  8  1  0  0  0  0
 14 17  1  6  0  0  0
 14 18  1  0  0  0  0
 14 15  1  0  0  0  0
 15 19  1  0  0  0  0
 18  3  1  0  0  0  0
 20 15  1  0  0  0  0
 21 15  1  0  0  0  0
M  RAD  3   2   2  16   2  17   2
M  END
