Coordinates from ORCA-job PhN2+~TfO-_B3LYPG-6-31G_dp-NX-Scan-d89-09-n800
 OpenBabel11261920253D

 21 21  0  0  0  0  0  0  0  0999 V2000
   -1.3951    1.2547   -0.0860 C   0  0  0  0  0  0  0  0  0  0  0  0
   -2.6246    1.0010   -0.7286 N   0  0  0  0  0  0  0  0  0  0  0  0
   -3.5436    1.6577   -1.1299 N   0  0  0  0  0  0  0  0  0  0  0  0
   -0.8628    2.5176    0.2442 C   0  0  0  0  0  0  0  0  0  0  0  0
    0.3794    2.5761    0.8706 C   0  0  0  0  0  0  0  0  0  0  0  0
    1.0875    1.4092    1.1728 C   0  0  0  0  0  0  0  0  0  0  0  0
    0.5566    0.1595    0.8441 C   0  0  0  0  0  0  0  0  0  0  0  0
   -0.6800    0.0819    0.2137 C   0  0  0  0  0  0  0  0  0  0  0  0
   -1.4049    3.4214    0.0118 H   0  0  0  0  0  0  0  0  0  0  0  0
    0.7963    3.5449    1.1264 H   0  0  0  0  0  0  0  0  0  0  0  0
    2.0541    1.4758    1.6625 H   0  0  0  0  0  0  0  0  0  0  0  0
    1.1045   -0.7479    1.0761 H   0  0  0  0  0  0  0  0  0  0  0  0
   -1.1169   -0.8723   -0.0592 H   0  0  0  0  0  0  0  0  0  0  0  0
   -4.5004    4.1054   -1.5470 S   0  0  0  0  0  0  0  0  0  0  0  0
   -5.8580    3.9242   -0.2783 C   0  0  0  0  0  0  0  0  0  0  0  0
   -3.3543    3.1836   -0.8615 O   0  0  0  0  0  0  0  0  0  0  0  0
   -4.0136    5.4722   -1.4598 O   0  0  0  0  0  0  0  0  0  0  0  0
   -4.9870    3.5192   -2.7831 O   0  0  0  0  0  0  0  0  0  0  0  0
   -6.2204    2.6452   -0.1785 F   0  0  0  0  0  0  0  0  0  0  0  0
   -5.4294    4.3577    0.9070 F   0  0  0  0  0  0  0  0  0  0  0  0
   -6.9003    4.6557   -0.6710 F   0  0  0  0  0  0  0  0  0  0  0  0
  1  8  2  0  0  0  0
  1  4  1  0  0  0  0
  2  1  1  0  0  0  0
  3 16  1  0  0  0  0
  3  2  1  0  0  0  0
  4  5  2  0  0  0  0
  5 10  1  0  0  0  0
  5  6  1  0  0  0  0
  6 11  1  0  0  0  0
  7 12  1  0  0  0  0
  7  6  2  0  0  0  0
  8  7  1  0  0  0  0
  9  4  1  0  0  0  0
 13  8  1  0  0  0  0
 14 17  2  0  0  0  0
 14 16  1  0  0  0  0
 14 15  1  0  0  0  0
 15 19  1  0  0  0  0
 15 20  1  0  0  0  0
 18 14  2  0  0  0  0
 21 15  1  0  0  0  0
M  RAD  2   2   2   3   2
M  END
