Coordinates from ORCA-job PhN2+~TfO-_B3LYPG-6-31G_dp-NX-Scan-d89-09-n800
 OpenBabel11261920253D

 21 20  0  0  0  0  0  0  0  0999 V2000
   -1.4148    1.0767   -0.5241 C   0  0  0  0  0  0  0  0  0  0  0  0
   -2.3306    0.8677   -1.5478 N   0  0  0  0  0  0  0  0  0  0  0  0
   -2.9758    0.5235   -2.3884 N   0  0  0  0  0  0  0  0  0  0  0  0
   -1.1766    2.3699   -0.0398 C   0  0  0  0  0  0  0  0  0  0  0  0
   -0.2176    2.4900    0.9638 C   0  0  0  0  0  0  0  0  0  0  0  0
    0.4542    1.3684    1.4540 C   0  0  0  0  0  0  0  0  0  0  0  0
    0.1875    0.0871    0.9477 C   0  0  0  0  0  0  0  0  0  0  0  0
   -0.7524   -0.0781   -0.0565 C   0  0  0  0  0  0  0  0  0  0  0  0
   -1.7317    3.2348   -0.4091 H   0  0  0  0  0  0  0  0  0  0  0  0
   -0.0122    3.4756    1.3669 H   0  0  0  0  0  0  0  0  0  0  0  0
    1.1925    1.4860    2.2415 H   0  0  0  0  0  0  0  0  0  0  0  0
    0.7120   -0.7780    1.3379 H   0  0  0  0  0  0  0  0  0  0  0  0
   -0.9821   -1.0536   -0.4703 H   0  0  0  0  0  0  0  0  0  0  0  0
   -4.0119    4.2495   -1.2181 S   0  0  0  0  0  0  0  0  0  0  0  0
   -5.4013    4.3461    0.0092 C   0  0  0  0  0  0  0  0  0  0  0  0
   -2.8536    4.8234   -0.4830 O   0  0  0  0  0  0  0  0  0  0  0  0
   -4.4884    4.9867   -2.3915 O   0  0  0  0  0  0  0  0  0  0  0  0
   -3.8545    2.7684   -1.4200 O   0  0  0  0  0  0  0  0  0  0  0  0
   -5.0859    3.6677    1.1290 F   0  0  0  0  0  0  0  0  0  0  0  0
   -5.6485    5.6187    0.3451 F   0  0  0  0  0  0  0  0  0  0  0  0
   -6.5209    3.8122   -0.5000 F   0  0  0  0  0  0  0  0  0  0  0  0
  1  8  2  0  0  0  0
  1  4  1  0  0  0  0
  2  1  1  0  0  0  0
  3  2  1  0  0  0  0
  4  5  2  0  0  0  0
  5 10  1  0  0  0  0
  5  6  1  0  0  0  0
  6 11  1  0  0  0  0
  7 12  1  0  0  0  0
  7  6  2  0  0  0  0
  8  7  1  0  0  0  0
  9  4  1  0  0  0  0
 13  8  1  0  0  0  0
 14 16  1  0  0  0  0
 14 15  1  0  0  0  0
 15 20  1  0  0  0  0
 15 19  1  0  0  0  0
 17 14  2  0  0  0  0
 18 14  2  0  0  0  0
 21 15  1  0  0  0  0
M  RAD  3   2   2   3   3  16   2
M  END
