Coordinates from ORCA-job PhN2+~TfO-_B3LYPG-6-31G_dp-NX-Scan-d89-09-n800
 OpenBabel11261920253D

 21 20  0  0  0  0  0  0  0  0999 V2000
   -1.6127   -0.1015   -0.3786 C   0  0  0  0  0  0  0  0  0  0  0  0
   -1.8233   -1.1330   -1.2179 N   0  0  0  0  0  0  0  0  0  0  0  0
   -2.0264   -1.9641   -1.9484 N   0  0  0  0  0  0  0  0  0  0  0  0
   -2.6063    0.1845    0.5972 C   0  0  0  0  0  0  0  0  0  0  0  0
   -2.4932    1.3671    1.2840 C   0  0  0  0  0  0  0  0  0  0  0  0
   -1.4419    2.2572    0.9733 C   0  0  0  0  0  0  0  0  0  0  0  0
   -0.3774    1.8744    0.1324 C   0  0  0  0  0  0  0  0  0  0  0  0
   -0.4619    0.7060   -0.5846 C   0  0  0  0  0  0  0  0  0  0  0  0
   -3.4470   -0.4865    0.7324 H   0  0  0  0  0  0  0  0  0  0  0  0
   -3.2705    1.6849    1.9667 H   0  0  0  0  0  0  0  0  0  0  0  0
   -1.4245    3.2296    1.4495 H   0  0  0  0  0  0  0  0  0  0  0  0
    0.4578    2.5473   -0.0239 H   0  0  0  0  0  0  0  0  0  0  0  0
    0.2852    0.4153   -1.3144 H   0  0  0  0  0  0  0  0  0  0  0  0
   -3.8157    3.9945   -0.5008 S   0  0  0  0  0  0  0  0  0  0  0  0
   -2.9394    5.6260   -0.3480 C   0  0  0  0  0  0  0  0  0  0  0  0
   -2.7008    3.0917   -0.9605 O   0  0  0  0  0  0  0  0  0  0  0  0
   -4.8631    4.2141   -1.5051 O   0  0  0  0  0  0  0  0  0  0  0  0
   -4.2482    3.7164    0.8870 O   0  0  0  0  0  0  0  0  0  0  0  0
   -1.9079    5.5189    0.5275 F   0  0  0  0  0  0  0  0  0  0  0  0
   -2.4334    6.0204   -1.5245 F   0  0  0  0  0  0  0  0  0  0  0  0
   -3.7622    6.5796    0.1032 F   0  0  0  0  0  0  0  0  0  0  0  0
  1  4  1  0  0  0  0
  2  1  1  0  0  0  0
  3  2  1  0  0  0  0
  4  9  1  0  0  0  0
  4  5  2  0  0  0  0
  5 10  1  0  0  0  0
  6  5  1  0  0  0  0
  6 11  1  0  0  0  0
  7  6  2  0  0  0  0
  8  1  2  0  0  0  0
  8  7  1  0  0  0  0
 12  7  1  0  0  0  0
 13  8  1  0  0  0  0
 14 15  1  0  0  0  0
 14 18  1  0  0  0  0
 15 21  1  0  0  0  0
 15 19  1  0  0  0  0
 16 14  2  0  0  0  0
 17 14  2  0  0  0  0
 20 15  1  0  0  0  0
M  RAD  3   2   2   3   3  18   2
M  END
