Coordinates from ORCA-job PhN2+~TfO-_B3LYPG-6-31G_dp-NX-Scan-d89-09-n800
 OpenBabel11261920253D

 21 21  0  0  0  0  0  0  0  0999 V2000
   -1.4034    1.2664   -0.0960 C   0  0  0  0  0  0  0  0  0  0  0  0
   -2.6295    0.9986   -0.7442 N   0  0  0  0  0  0  0  0  0  0  0  0
   -3.5423    1.6819   -1.1429 N   0  0  0  0  0  0  0  0  0  0  0  0
   -0.8591    2.5276    0.2241 C   0  0  0  0  0  0  0  0  0  0  0  0
    0.3805    2.5836    0.8562 C   0  0  0  0  0  0  0  0  0  0  0  0
    1.0781    1.4155    1.1763 C   0  0  0  0  0  0  0  0  0  0  0  0
    0.5382    0.1669    0.8585 C   0  0  0  0  0  0  0  0  0  0  0  0
   -0.6953    0.0933    0.2217 C   0  0  0  0  0  0  0  0  0  0  0  0
   -1.3876    3.4361   -0.0199 H   0  0  0  0  0  0  0  0  0  0  0  0
    0.8037    3.5523    1.1024 H   0  0  0  0  0  0  0  0  0  0  0  0
    2.0427    1.4801    1.6704 H   0  0  0  0  0  0  0  0  0  0  0  0
    1.0771   -0.7426    1.1032 H   0  0  0  0  0  0  0  0  0  0  0  0
   -1.1381   -0.8603   -0.0440 H   0  0  0  0  0  0  0  0  0  0  0  0
   -4.4962    4.1010   -1.5429 S   0  0  0  0  0  0  0  0  0  0  0  0
   -5.8497    3.9027   -0.2694 C   0  0  0  0  0  0  0  0  0  0  0  0
   -3.3420    3.1547   -0.8725 O   0  0  0  0  0  0  0  0  0  0  0  0
   -3.9893    5.4570   -1.4262 O   0  0  0  0  0  0  0  0  0  0  0  0
   -4.9843    3.5388   -2.7881 O   0  0  0  0  0  0  0  0  0  0  0  0
   -6.2261    2.6275   -0.1990 F   0  0  0  0  0  0  0  0  0  0  0  0
   -5.4077    4.3046    0.9211 F   0  0  0  0  0  0  0  0  0  0  0  0
   -6.8824    4.6571   -0.6423 F   0  0  0  0  0  0  0  0  0  0  0  0
  1  8  2  0  0  0  0
  1  4  1  0  0  0  0
  2  1  1  0  0  0  0
  3 16  1  0  0  0  0
  3  2  1  0  0  0  0
  4  5  2  0  0  0  0
  5 10  1  0  0  0  0
  5  6  1  0  0  0  0
  6 11  1  0  0  0  0
  7 12  1  0  0  0  0
  7  6  2  0  0  0  0
  8  7  1  0  0  0  0
  9  4  1  0  0  0  0
 13  8  1  0  0  0  0
 14 17  2  0  0  0  0
 14 16  1  0  0  0  0
 14 15  1  0  0  0  0
 15 19  1  0  0  0  0
 15 20  1  0  0  0  0
 18 14  2  0  0  0  0
 21 15  1  0  0  0  0
M  RAD  2   2   2   3   2
M  END
