Coordinates from ORCA-job PhN2+~TfO-_B3LYPG-6-31G_dp-NX-Scan-d89-09-n800
 OpenBabel11261920253D

 21 20  0  0  0  0  0  0  0  0999 V2000
   -1.5963    1.0486   -0.1241 C   0  0  0  0  0  0  0  0  0  0  0  0
   -2.8705    0.9833   -0.6833 N   0  0  0  0  0  0  0  0  0  0  0  0
   -3.9511    1.2898   -0.8275 N   0  0  0  0  0  0  0  0  0  0  0  0
   -1.3909    1.8913    0.9808 C   0  0  0  0  0  0  0  0  0  0  0  0
   -0.1089    1.9340    1.5173 C   0  0  0  0  0  0  0  0  0  0  0  0
    0.9202    1.1669    0.9601 C   0  0  0  0  0  0  0  0  0  0  0  0
    0.6855    0.3358   -0.1413 C   0  0  0  0  0  0  0  0  0  0  0  0
   -0.5868    0.2639   -0.6959 C   0  0  0  0  0  0  0  0  0  0  0  0
   -2.2187    2.4709    1.3726 H   0  0  0  0  0  0  0  0  0  0  0  0
    0.0874    2.5753    2.3698 H   0  0  0  0  0  0  0  0  0  0  0  0
    1.9166    1.2176    1.3880 H   0  0  0  0  0  0  0  0  0  0  0  0
    1.4922   -0.2517   -0.5654 H   0  0  0  0  0  0  0  0  0  0  0  0
   -0.8043   -0.3666   -1.5507 H   0  0  0  0  0  0  0  0  0  0  0  0
   -3.9729    4.1787   -0.2590 S   0  0  0  0  0  0  0  0  0  0  0  0
   -5.5675    4.5537   -1.1338 C   0  0  0  0  0  0  0  0  0  0  0  0
   -3.7259    5.3101    0.6355 O   0  0  0  0  0  0  0  0  0  0  0  0
   -3.0029    3.9069   -1.3363 O   0  0  0  0  0  0  0  0  0  0  0  0
   -4.3266    2.9057    0.5099 O   0  0  0  0  0  0  0  0  0  0  0  0
   -6.5497    4.7674   -0.2524 F   0  0  0  0  0  0  0  0  0  0  0  0
   -5.4288    5.6419   -1.8995 F   0  0  0  0  0  0  0  0  0  0  0  0
   -5.9127    3.5191   -1.9185 F   0  0  0  0  0  0  0  0  0  0  0  0
  1  4  2  0  0  0  0
  2  1  1  0  0  0  0
  3  2  1  0  0  0  0
  4  9  1  0  0  0  0
  4  5  1  0  0  0  0
  5 10  1  0  0  0  0
  6 11  1  0  0  0  0
  6  5  2  0  0  0  0
  7  6  1  0  0  0  0
  8  7  2  0  0  0  0
  8  1  1  0  0  0  0
 12  7  1  0  0  0  0
 13  8  1  0  0  0  0
 14 18  2  0  0  0  0
 14 16  1  0  0  0  0
 15 14  1  0  0  0  0
 15 19  1  0  0  0  0
 17 14  2  0  0  0  0
 20 15  1  0  0  0  0
 21 15  1  0  0  0  0
M  RAD  3   2   2   3   3  16   2
M  END
