Coordinates from ORCA-job PhN2+~TfO-_B3LYPG-6-31G_dp-NX-Scan-d89-09-n800
 OpenBabel11261920253D

 21 20  0  0  0  0  0  0  0  0999 V2000
   -1.3430    1.0777   -0.5783 C   0  0  0  0  0  0  0  0  0  0  0  0
   -2.2001    0.9102   -1.6539 N   0  0  0  0  0  0  0  0  0  0  0  0
   -2.8461    0.7120   -2.5384 N   0  0  0  0  0  0  0  0  0  0  0  0
   -1.1684    2.3600   -0.0368 C   0  0  0  0  0  0  0  0  0  0  0  0
   -0.2722    2.4646    1.0241 C   0  0  0  0  0  0  0  0  0  0  0  0
    0.3989    1.3402    1.5110 C   0  0  0  0  0  0  0  0  0  0  0  0
    0.1958    0.0725    0.9446 C   0  0  0  0  0  0  0  0  0  0  0  0
   -0.6800   -0.0782   -0.1185 C   0  0  0  0  0  0  0  0  0  0  0  0
   -1.7306    3.2219   -0.4125 H   0  0  0  0  0  0  0  0  0  0  0  0
   -0.1142    3.4382    1.4752 H   0  0  0  0  0  0  0  0  0  0  0  0
    1.0869    1.4454    2.3444 H   0  0  0  0  0  0  0  0  0  0  0  0
    0.7195   -0.7933    1.3345 H   0  0  0  0  0  0  0  0  0  0  0  0
   -0.8617   -1.0425   -0.5797 H   0  0  0  0  0  0  0  0  0  0  0  0
   -4.0949    4.1142   -1.2346 S   0  0  0  0  0  0  0  0  0  0  0  0
   -5.3831    4.4485    0.0593 C   0  0  0  0  0  0  0  0  0  0  0  0
   -2.8639    4.7330   -0.6688 O   0  0  0  0  0  0  0  0  0  0  0  0
   -4.6246    4.7106   -2.4650 O   0  0  0  0  0  0  0  0  0  0  0  0
   -4.0065    2.6176   -1.2366 O   0  0  0  0  0  0  0  0  0  0  0  0
   -5.0004    3.9382    1.2449 F   0  0  0  0  0  0  0  0  0  0  0  0
   -5.5722    5.7661    0.2114 F   0  0  0  0  0  0  0  0  0  0  0  0
   -6.5519    3.8857   -0.2797 F   0  0  0  0  0  0  0  0  0  0  0  0
  1  8  2  0  0  0  0
  1  4  1  0  0  0  0
  2  1  1  0  0  0  0
  3  2  1  0  0  0  0
  4  5  2  0  0  0  0
  5 10  1  0  0  0  0
  5  6  1  0  0  0  0
  6 11  1  0  0  0  0
  7 12  1  0  0  0  0
  7  6  2  0  0  0  0
  8  7  1  0  0  0  0
  9  4  1  0  0  0  0
 13  8  1  0  0  0  0
 14 16  1  0  0  0  0
 14 15  1  0  0  0  0
 15 20  1  0  0  0  0
 15 19  1  0  0  0  0
 17 14  2  0  0  0  0
 18 14  2  0  0  0  0
 21 15  1  0  0  0  0
M  RAD  3   2   2   3   3  16   2
M  END
