Coordinates from ORCA-job PhN2+~TfO-_B3LYPG-6-31G_dp-NX-Scan-d89-09-n800
 OpenBabel11261920253D

 21 20  0  0  0  0  0  0  0  0999 V2000
   -1.3841    1.0273   -0.3189 C   0  0  0  0  0  0  0  0  0  0  0  0
   -2.5185    0.9273   -1.1202 N   0  0  0  0  0  0  0  0  0  0  0  0
   -3.5444    1.1052   -1.5517 N   0  0  0  0  0  0  0  0  0  0  0  0
   -1.2859    2.1017    0.5810 C   0  0  0  0  0  0  0  0  0  0  0  0
   -0.1297    2.1673    1.3536 C   0  0  0  0  0  0  0  0  0  0  0  0
    0.8707    1.1986    1.2298 C   0  0  0  0  0  0  0  0  0  0  0  0
    0.7412    0.1399    0.3220 C   0  0  0  0  0  0  0  0  0  0  0  0
   -0.3934    0.0453   -0.4722 C   0  0  0  0  0  0  0  0  0  0  0  0
   -2.0661    2.8574    0.6522 H   0  0  0  0  0  0  0  0  0  0  0  0
   -0.0147    2.9882    2.0537 H   0  0  0  0  0  0  0  0  0  0  0  0
    1.7645    1.2699    1.8422 H   0  0  0  0  0  0  0  0  0  0  0  0
    1.5253   -0.6046    0.2319 H   0  0  0  0  0  0  0  0  0  0  0  0
   -0.5250   -0.7572   -1.1895 H   0  0  0  0  0  0  0  0  0  0  0  0
   -4.1485    3.9047   -0.6989 S   0  0  0  0  0  0  0  0  0  0  0  0
   -5.7687    4.8105   -0.6377 C   0  0  0  0  0  0  0  0  0  0  0  0
   -3.2638    4.6328    0.2341 O   0  0  0  0  0  0  0  0  0  0  0  0
   -3.7491    3.8876   -2.1182 O   0  0  0  0  0  0  0  0  0  0  0  0
   -4.5100    2.5309   -0.1751 O   0  0  0  0  0  0  0  0  0  0  0  0
   -6.2387    4.8411    0.6154 F   0  0  0  0  0  0  0  0  0  0  0  0
   -5.6048    6.0675   -1.0675 F   0  0  0  0  0  0  0  0  0  0  0  0
   -6.6690    4.2012   -1.4194 F   0  0  0  0  0  0  0  0  0  0  0  0
  1  4  1  0  0  0  0
  2  1  1  0  0  0  0
  3  2  1  0  0  0  0
  4  9  1  0  0  0  0
  4  5  2  0  0  0  0
  5 10  1  0  0  0  0
  6  5  1  0  0  0  0
  6 11  1  0  0  0  0
  7  6  2  0  0  0  0
  8  1  2  0  0  0  0
  8  7  1  0  0  0  0
 12  7  1  0  0  0  0
 13  8  1  0  0  0  0
 14 15  1  0  0  0  0
 14 18  2  0  0  0  0
 14 16  1  0  0  0  0
 15 19  1  0  0  0  0
 17 14  2  0  0  0  0
 20 15  1  0  0  0  0
 21 15  1  0  0  0  0
M  RAD  3   2   2   3   3  16   2
M  END
