Coordinates from ORCA-job PhN2+~TfO-_B3LYPG-6-31G_dp-NX-Scan-d89-09-n800
 OpenBabel11261920253D

 21 20  0  0  0  0  0  0  0  0999 V2000
   -1.6122   -0.1033   -0.3787 C   0  0  0  0  0  0  0  0  0  0  0  0
   -1.8203   -1.1380   -1.2147 N   0  0  0  0  0  0  0  0  0  0  0  0
   -2.0215   -1.9722   -1.9422 N   0  0  0  0  0  0  0  0  0  0  0  0
   -2.6066    0.1837    0.5961 C   0  0  0  0  0  0  0  0  0  0  0  0
   -2.4944    1.3672    1.2815 C   0  0  0  0  0  0  0  0  0  0  0  0
   -1.4431    2.2573    0.9708 C   0  0  0  0  0  0  0  0  0  0  0  0
   -0.3786    1.8743    0.1300 C   0  0  0  0  0  0  0  0  0  0  0  0
   -0.4622    0.7051   -0.5857 C   0  0  0  0  0  0  0  0  0  0  0  0
   -3.4468   -0.4877    0.7320 H   0  0  0  0  0  0  0  0  0  0  0  0
   -3.2719    1.6852    1.9638 H   0  0  0  0  0  0  0  0  0  0  0  0
   -1.4255    3.2296    1.4471 H   0  0  0  0  0  0  0  0  0  0  0  0
    0.4563    2.5475   -0.0269 H   0  0  0  0  0  0  0  0  0  0  0  0
    0.2854    0.4139   -1.3148 H   0  0  0  0  0  0  0  0  0  0  0  0
   -3.8160    3.9971   -0.5006 S   0  0  0  0  0  0  0  0  0  0  0  0
   -2.9394    5.6282   -0.3459 C   0  0  0  0  0  0  0  0  0  0  0  0
   -2.7014    3.0946   -0.9617 O   0  0  0  0  0  0  0  0  0  0  0  0
   -4.8635    4.2182   -1.5044 O   0  0  0  0  0  0  0  0  0  0  0  0
   -4.2483    3.7173    0.8869 O   0  0  0  0  0  0  0  0  0  0  0  0
   -1.9079    5.5198    0.5296 F   0  0  0  0  0  0  0  0  0  0  0  0
   -2.4332    6.0239   -1.5218 F   0  0  0  0  0  0  0  0  0  0  0  0
   -3.7619    6.5815    0.1064 F   0  0  0  0  0  0  0  0  0  0  0  0
  1  4  1  0  0  0  0
  2  1  1  0  0  0  0
  3  2  1  0  0  0  0
  4  9  1  0  0  0  0
  4  5  2  0  0  0  0
  5 10  1  0  0  0  0
  6  5  1  0  0  0  0
  6 11  1  0  0  0  0
  7  6  2  0  0  0  0
  8  1  2  0  0  0  0
  8  7  1  0  0  0  0
 12  7  1  0  0  0  0
 13  8  1  0  0  0  0
 14 15  1  0  0  0  0
 14 18  1  0  0  0  0
 15 21  1  0  0  0  0
 15 19  1  0  0  0  0
 16 14  2  0  0  0  0
 17 14  2  0  0  0  0
 20 15  1  0  0  0  0
M  RAD  3   2   2   3   3  18   2
M  END
