Coordinates from ORCA-job PhN2+~TfO-_B3LYPG-6-31G_dp-NX-Scan-d89-09-n800
 OpenBabel11261920253D

 21 20  0  0  0  0  0  0  0  0999 V2000
   -1.2481    1.1033   -0.5165 C   0  0  0  0  0  0  0  0  0  0  0  0
   -2.1564    1.0178   -1.5660 N   0  0  0  0  0  0  0  0  0  0  0  0
   -3.0408    1.1642   -2.2444 N   0  0  0  0  0  0  0  0  0  0  0  0
   -1.2410    2.2805    0.2488 C   0  0  0  0  0  0  0  0  0  0  0  0
   -0.3243    2.3335    1.2958 C   0  0  0  0  0  0  0  0  0  0  0  0
    0.5302    1.2576    1.5546 C   0  0  0  0  0  0  0  0  0  0  0  0
    0.4980    0.1005    0.7642 C   0  0  0  0  0  0  0  0  0  0  0  0
   -0.3929    0.0117   -0.2962 C   0  0  0  0  0  0  0  0  0  0  0  0
   -1.9103    3.1071   -0.0069 H   0  0  0  0  0  0  0  0  0  0  0  0
   -0.2810    3.2262    1.9110 H   0  0  0  0  0  0  0  0  0  0  0  0
    1.2343    1.3196    2.3789 H   0  0  0  0  0  0  0  0  0  0  0  0
    1.1680   -0.7261    0.9748 H   0  0  0  0  0  0  0  0  0  0  0  0
   -0.4457   -0.8670   -0.9295 H   0  0  0  0  0  0  0  0  0  0  0  0
   -4.3303    3.8870   -1.3421 S   0  0  0  0  0  0  0  0  0  0  0  0
   -5.4557    4.6112   -0.0504 C   0  0  0  0  0  0  0  0  0  0  0  0
   -2.9847    4.4130   -0.9894 O   0  0  0  0  0  0  0  0  0  0  0  0
   -4.8839    4.3078   -2.6311 O   0  0  0  0  0  0  0  0  0  0  0  0
   -4.4482    2.4101   -1.0369 O   0  0  0  0  0  0  0  0  0  0  0  0
   -5.0377    4.2662    1.1792 F   0  0  0  0  0  0  0  0  0  0  0  0
   -5.4537    5.9470   -0.1388 F   0  0  0  0  0  0  0  0  0  0  0  0
   -6.7085    4.1715   -0.2127 F   0  0  0  0  0  0  0  0  0  0  0  0
  1  8  2  0  0  0  0
  1  4  1  0  0  0  0
  2  1  1  0  0  0  0
  3  2  1  0  0  0  0
  4  5  2  0  0  0  0
  5  6  1  0  0  0  0
  5 10  1  0  0  0  0
  6 11  1  0  0  0  0
  7 12  1  0  0  0  0
  7  6  2  0  0  0  0
  8  7  1  0  0  0  0
  9  4  1  0  0  0  0
 13  8  1  0  0  0  0
 14 18  2  0  0  0  0
 14 16  1  0  0  0  0
 14 15  1  0  0  0  0
 15 19  1  0  0  0  0
 17 14  2  0  0  0  0
 20 15  1  0  0  0  0
 21 15  1  0  0  0  0
M  RAD  3   2   2   3   3  16   2
M  END
