Coordinates from ORCA-job PhN2+~TfO-_B3LYPG-6-31G_dp-NX-Scan-d89-09-n800
 OpenBabel11261920253D

 21 20  0  0  0  0  0  0  0  0999 V2000
   -1.3558    1.0738   -0.5671 C   0  0  0  0  0  0  0  0  0  0  0  0
   -2.2262    0.8957   -1.6310 N   0  0  0  0  0  0  0  0  0  0  0  0
   -2.8750    0.6688   -2.5067 N   0  0  0  0  0  0  0  0  0  0  0  0
   -1.1715    2.3580   -0.0341 C   0  0  0  0  0  0  0  0  0  0  0  0
   -0.2602    2.4664    1.0137 C   0  0  0  0  0  0  0  0  0  0  0  0
    0.4167    1.3440    1.4968 C   0  0  0  0  0  0  0  0  0  0  0  0
    0.2040    0.0738    0.9395 C   0  0  0  0  0  0  0  0  0  0  0  0
   -0.6871   -0.0805   -0.1102 C   0  0  0  0  0  0  0  0  0  0  0  0
   -1.7359    3.2209   -0.4030 H   0  0  0  0  0  0  0  0  0  0  0  0
   -0.0950    3.4422    1.4574 H   0  0  0  0  0  0  0  0  0  0  0  0
    1.1168    1.4527    2.3197 H   0  0  0  0  0  0  0  0  0  0  0  0
    0.7320   -0.7908    1.3259 H   0  0  0  0  0  0  0  0  0  0  0  0
   -0.8761   -1.0469   -0.5641 H   0  0  0  0  0  0  0  0  0  0  0  0
   -4.0795    4.1391   -1.2258 S   0  0  0  0  0  0  0  0  0  0  0  0
   -5.3973    4.4389    0.0467 C   0  0  0  0  0  0  0  0  0  0  0  0
   -2.8635    4.7474   -0.6185 O   0  0  0  0  0  0  0  0  0  0  0  0
   -4.5845    4.7617   -2.4535 O   0  0  0  0  0  0  0  0  0  0  0  0
   -3.9849    2.6428   -1.2606 O   0  0  0  0  0  0  0  0  0  0  0  0
   -5.0489    3.8836    1.2223 F   0  0  0  0  0  0  0  0  0  0  0  0
   -5.5793    5.7520    0.2405 F   0  0  0  0  0  0  0  0  0  0  0  0
   -6.5616    3.8991   -0.3415 F   0  0  0  0  0  0  0  0  0  0  0  0
  1  8  2  0  0  0  0
  1  4  1  0  0  0  0
  2  1  1  0  0  0  0
  3  2  1  0  0  0  0
  4  5  2  0  0  0  0
  5 10  1  0  0  0  0
  5  6  1  0  0  0  0
  6 11  1  0  0  0  0
  7 12  1  0  0  0  0
  7  6  2  0  0  0  0
  8  7  1  0  0  0  0
  9  4  1  0  0  0  0
 13  8  1  0  0  0  0
 14 16  1  0  0  0  0
 14 15  1  0  0  0  0
 15 20  1  0  0  0  0
 15 19  1  0  0  0  0
 17 14  2  0  0  0  0
 18 14  2  0  0  0  0
 21 15  1  0  0  0  0
M  RAD  3   2   2   3   3  16   2
M  END
