Coordinates from ORCA-job PhN2+~TfO-_B3LYPG-6-31G_dp-NX-Scan-d89-09-n800
 OpenBabel11261920253D

 21 20  0  0  0  0  0  0  0  0999 V2000
   -1.4810    1.3243   -0.3206 C   0  0  0  0  0  0  0  0  0  0  0  0
   -2.4799    1.1953   -1.2745 N   0  0  0  0  0  0  0  0  0  0  0  0
   -3.2824    1.0315   -2.0411 N   0  0  0  0  0  0  0  0  0  0  0  0
   -1.1704    2.5949    0.1853 C   0  0  0  0  0  0  0  0  0  0  0  0
   -0.1539    2.6621    1.1342 C   0  0  0  0  0  0  0  0  0  0  0  0
    0.5092    1.5057    1.5534 C   0  0  0  0  0  0  0  0  0  0  0  0
    0.1733    0.2494    1.0298 C   0  0  0  0  0  0  0  0  0  0  0  0
   -0.8299    0.1416    0.0783 C   0  0  0  0  0  0  0  0  0  0  0  0
   -1.7190    3.4609   -0.1829 H   0  0  0  0  0  0  0  0  0  0  0  0
    0.1178    3.6271    1.5479 H   0  0  0  0  0  0  0  0  0  0  0  0
    1.2976    1.5795    2.2964 H   0  0  0  0  0  0  0  0  0  0  0  0
    0.6944   -0.6410    1.3636 H   0  0  0  0  0  0  0  0  0  0  0  0
   -1.1136   -0.8136   -0.3487 H   0  0  0  0  0  0  0  0  0  0  0  0
   -4.3364    4.1510   -1.7277 S   0  0  0  0  0  0  0  0  0  0  0  0
   -5.0227    3.7708   -0.0430 C   0  0  0  0  0  0  0  0  0  0  0  0
   -2.8930    4.3675   -1.4338 O   0  0  0  0  0  0  0  0  0  0  0  0
   -5.0925    5.3101   -2.2006 O   0  0  0  0  0  0  0  0  0  0  0  0
   -4.5948    2.8684   -2.4594 O   0  0  0  0  0  0  0  0  0  0  0  0
   -4.3742    2.6869    0.4721 F   0  0  0  0  0  0  0  0  0  0  0  0
   -4.8365    4.7891    0.8054 F   0  0  0  0  0  0  0  0  0  0  0  0
   -6.3250    3.4812   -0.0876 F   0  0  0  0  0  0  0  0  0  0  0  0
  1  8  2  0  0  0  0
  1  4  1  0  0  0  0
  2  1  1  0  0  0  0
  3  2  1  0  0  0  0
  4  5  2  0  0  0  0
  5 10  1  0  0  0  0
  5  6  1  0  0  0  0
  6 11  1  0  0  0  0
  7 12  1  0  0  0  0
  7  6  2  0  0  0  0
  8  7  1  0  0  0  0
  9  4  1  0  0  0  0
 13  8  1  0  0  0  0
 14 16  1  0  0  0  0
 14 15  1  0  0  0  0
 15 19  1  0  0  0  0
 15 20  1  0  0  0  0
 17 14  2  0  0  0  0
 18 14  2  0  0  0  0
 21 15  1  0  0  0  0
M  RAD  3   2   2   3   3  16   2
M  END
