Coordinates from ORCA-job PhN2+~TfO-_B3LYPG-6-31G_dp-NX-Scan-d89-09-n800
 OpenBabel11261920253D

 21 20  0  0  0  0  0  0  0  0999 V2000
   -1.3637    1.0355   -0.3363 C   0  0  0  0  0  0  0  0  0  0  0  0
   -2.4837    0.9422   -1.1581 N   0  0  0  0  0  0  0  0  0  0  0  0
   -3.4994    1.1177   -1.6131 N   0  0  0  0  0  0  0  0  0  0  0  0
   -1.2646    2.1241    0.5462 C   0  0  0  0  0  0  0  0  0  0  0  0
   -0.1234    2.1815    1.3417 C   0  0  0  0  0  0  0  0  0  0  0  0
    0.8609    1.1925    1.2559 C   0  0  0  0  0  0  0  0  0  0  0  0
    0.7306    0.1204    0.3638 C   0  0  0  0  0  0  0  0  0  0  0  0
   -0.3886    0.0329   -0.4526 C   0  0  0  0  0  0  0  0  0  0  0  0
   -2.0322    2.8963    0.5869 H   0  0  0  0  0  0  0  0  0  0  0  0
   -0.0075    3.0122    2.0300 H   0  0  0  0  0  0  0  0  0  0  0  0
    1.7430    1.2581    1.8858 H   0  0  0  0  0  0  0  0  0  0  0  0
    1.5021   -0.6400    0.3034 H   0  0  0  0  0  0  0  0  0  0  0  0
   -0.5205   -0.7798   -1.1584 H   0  0  0  0  0  0  0  0  0  0  0  0
   -4.1677    3.8970   -0.7410 S   0  0  0  0  0  0  0  0  0  0  0  0
   -5.7790    4.8095   -0.5948 C   0  0  0  0  0  0  0  0  0  0  0  0
   -3.2439    4.6013    0.1743 O   0  0  0  0  0  0  0  0  0  0  0  0
   -3.8219    3.9140   -2.1736 O   0  0  0  0  0  0  0  0  0  0  0  0
   -4.5166    2.5148   -0.2340 O   0  0  0  0  0  0  0  0  0  0  0  0
   -6.2031    4.8072    0.6750 F   0  0  0  0  0  0  0  0  0  0  0  0
   -5.6225    6.0774   -0.9946 F   0  0  0  0  0  0  0  0  0  0  0  0
   -6.7111    4.2280   -1.3600 F   0  0  0  0  0  0  0  0  0  0  0  0
  1  4  1  0  0  0  0
  2  1  1  0  0  0  0
  3  2  1  0  0  0  0
  4  9  1  0  0  0  0
  4  5  2  0  0  0  0
  5 10  1  0  0  0  0
  6  5  1  0  0  0  0
  6 11  1  0  0  0  0
  7  6  2  0  0  0  0
  8  1  2  0  0  0  0
  8  7  1  0  0  0  0
 12  7  1  0  0  0  0
 13  8  1  0  0  0  0
 14 15  1  0  0  0  0
 14 18  2  0  0  0  0
 14 16  1  0  0  0  0
 15 19  1  0  0  0  0
 17 14  2  0  0  0  0
 20 15  1  0  0  0  0
 21 15  1  0  0  0  0
M  RAD  3   2   2   3   3  16   2
M  END
