Coordinates from ORCA-job PhN2+~TfO-_B3LYPG-6-31G_dp-NX-Scan-d89-09-n800
 OpenBabel11261920253D

 21 20  0  0  0  0  0  0  0  0999 V2000
   -1.4583    1.0891   -0.4957 C   0  0  0  0  0  0  0  0  0  0  0  0
   -2.4094    0.8660   -1.4874 N   0  0  0  0  0  0  0  0  0  0  0  0
   -3.0669    0.4522   -2.2873 N   0  0  0  0  0  0  0  0  0  0  0  0
   -1.1785    2.3855   -0.0459 C   0  0  0  0  0  0  0  0  0  0  0  0
   -0.1912    2.5071    0.9298 C   0  0  0  0  0  0  0  0  0  0  0  0
    0.4701    1.3826    1.4269 C   0  0  0  0  0  0  0  0  0  0  0  0
    0.1627    0.0971    0.9558 C   0  0  0  0  0  0  0  0  0  0  0  0
   -0.8077   -0.0691   -0.0187 C   0  0  0  0  0  0  0  0  0  0  0  0
   -1.7226    3.2521   -0.4210 H   0  0  0  0  0  0  0  0  0  0  0  0
    0.0449    3.4968    1.3051 H   0  0  0  0  0  0  0  0  0  0  0  0
    1.2315    1.5012    2.1919 H   0  0  0  0  0  0  0  0  0  0  0  0
    0.6792   -0.7709    1.3503 H   0  0  0  0  0  0  0  0  0  0  0  0
   -1.0689   -1.0483   -0.4040 H   0  0  0  0  0  0  0  0  0  0  0  0
   -3.9616    4.3280   -1.2153 S   0  0  0  0  0  0  0  0  0  0  0  0
   -5.3820    4.2618   -0.0209 C   0  0  0  0  0  0  0  0  0  0  0  0
   -2.8493    4.8902   -0.4067 O   0  0  0  0  0  0  0  0  0  0  0  0
   -4.4467    5.1313   -2.3404 O   0  0  0  0  0  0  0  0  0  0  0  0
   -3.7396    2.8724   -1.5310 O   0  0  0  0  0  0  0  0  0  0  0  0
   -5.0556    3.5132    1.0512 F   0  0  0  0  0  0  0  0  0  0  0  0
   -5.7005    5.4899    0.4060 F   0  0  0  0  0  0  0  0  0  0  0  0
   -6.4625    3.7145   -0.5961 F   0  0  0  0  0  0  0  0  0  0  0  0
  1  4  2  0  0  0  0
  1  8  1  0  0  0  0
  2  1  1  0  0  0  0
  3  2  1  0  0  0  0
  4  5  1  0  0  0  0
  5 10  1  0  0  0  0
  5  6  2  0  0  0  0
  6 11  1  0  0  0  0
  7 12  1  0  0  0  0
  7  6  1  0  0  0  0
  8  7  2  0  0  0  0
  9  4  1  0  0  0  0
 13  8  1  0  0  0  0
 14 16  1  0  0  0  0
 14 15  1  0  0  0  0
 15 20  1  0  0  0  0
 15 19  1  0  0  0  0
 17 14  2  0  0  0  0
 18 14  2  0  0  0  0
 21 15  1  0  0  0  0
M  RAD  3   2   2   3   3  16   2
M  END
