Coordinates from ORCA-job PhN2+~TfO-_B3LYPG-6-31G_dp-NX-Scan-d89-09-n800
 OpenBabel11261920253D

 21 20  0  0  0  0  0  0  0  0999 V2000
   -1.5536   -0.7437   -0.2157 C   0  0  0  0  0  0  0  0  0  0  0  0
   -1.7410   -2.0531   -0.5246 N   0  0  0  0  0  0  0  0  0  0  0  0
   -1.9215   -3.1284   -0.7881 N   0  0  0  0  0  0  0  0  0  0  0  0
   -2.6358    0.1501   -0.4242 C   0  0  0  0  0  0  0  0  0  0  0  0
   -2.4263    1.4837   -0.1314 C   0  0  0  0  0  0  0  0  0  0  0  0
   -1.1743    1.9091    0.3550 C   0  0  0  0  0  0  0  0  0  0  0  0
   -0.1242    0.9980    0.5703 C   0  0  0  0  0  0  0  0  0  0  0  0
   -0.2897   -0.3444    0.2851 C   0  0  0  0  0  0  0  0  0  0  0  0
   -3.5827   -0.2153   -0.8069 H   0  0  0  0  0  0  0  0  0  0  0  0
   -3.2122    2.2343   -0.2902 H   0  0  0  0  0  0  0  0  0  0  0  0
   -1.0642    2.9807    0.5374 H   0  0  0  0  0  0  0  0  0  0  0  0
    0.8292    1.3483    0.9513 H   0  0  0  0  0  0  0  0  0  0  0  0
    0.5013   -1.0726    0.4261 H   0  0  0  0  0  0  0  0  0  0  0  0
   -3.0987    4.9635   -0.5911 S   0  0  0  0  0  0  0  0  0  0  0  0
   -3.9827    6.4241    0.1370 C   0  0  0  0  0  0  0  0  0  0  0  0
   -2.6949    5.3889   -1.9406 O   0  0  0  0  0  0  0  0  0  0  0  0
   -4.1358    3.8909   -0.5439 O   0  0  0  0  0  0  0  0  0  0  0  0
   -1.9798    4.7385    0.3690 O   0  0  0  0  0  0  0  0  0  0  0  0
   -3.1712    7.4917    0.1882 F   0  0  0  0  0  0  0  0  0  0  0  0
   -5.0560    6.7453   -0.6020 F   0  0  0  0  0  0  0  0  0  0  0  0
   -4.3986    6.1531    1.3855 F   0  0  0  0  0  0  0  0  0  0  0  0
  1  8  1  0  0  0  0
  2  1  1  0  0  0  0
  3  2  1  0  0  0  0
  4  1  2  0  0  0  0
  4  5  1  0  0  0  0
  5  6  2  0  0  0  0
  6 11  1  0  0  0  0
  6  7  1  0  0  0  0
  7 12  1  0  0  0  0
  8 13  1  0  0  0  0
  8  7  2  0  0  0  0
  9  4  1  0  0  0  0
 10  5  1  0  0  0  0
 14 17  2  0  0  0  0
 14 15  1  0  0  0  0
 14 18  1  0  0  0  0
 15 19  1  0  0  0  0
 15 21  1  0  0  0  0
 16 14  2  0  0  0  0
 20 15  1  0  0  0  0
M  RAD  3   2   2   3   3  18   2
M  END
