Coordinates from ORCA-job PhN2+~TfO-_B3LYPG-6-31G_dp-NX-Scan-d89-09-n800
 OpenBabel11261920253D

 21 20  0  0  0  0  0  0  0  0999 V2000
   -1.5238   -0.6767   -0.3494 C   0  0  0  0  0  0  0  0  0  0  0  0
   -1.6277   -1.9298   -0.8630 N   0  0  0  0  0  0  0  0  0  0  0  0
   -1.7347   -2.9598   -1.2940 N   0  0  0  0  0  0  0  0  0  0  0  0
   -2.6877    0.1346   -0.3302 C   0  0  0  0  0  0  0  0  0  0  0  0
   -2.5607    1.4187    0.1624 C   0  0  0  0  0  0  0  0  0  0  0  0
   -1.3100    1.8777    0.6220 C   0  0  0  0  0  0  0  0  0  0  0  0
   -0.1762    1.0448    0.6074 C   0  0  0  0  0  0  0  0  0  0  0  0
   -0.2577   -0.2453    0.1185 C   0  0  0  0  0  0  0  0  0  0  0  0
   -3.6297   -0.2487   -0.7066 H   0  0  0  0  0  0  0  0  0  0  0  0
   -3.4068    2.1147    0.1588 H   0  0  0  0  0  0  0  0  0  0  0  0
   -1.2552    2.9196    0.9451 H   0  0  0  0  0  0  0  0  0  0  0  0
    0.7763    1.4193    0.9669 H   0  0  0  0  0  0  0  0  0  0  0  0
    0.5989   -0.9090    0.0784 H   0  0  0  0  0  0  0  0  0  0  0  0
   -3.1299    4.7907   -0.3596 S   0  0  0  0  0  0  0  0  0  0  0  0
   -3.8611    6.4785   -0.1112 C   0  0  0  0  0  0  0  0  0  0  0  0
   -2.6705    4.7684   -1.7602 O   0  0  0  0  0  0  0  0  0  0  0  0
   -4.2702    3.8794   -0.0541 O   0  0  0  0  0  0  0  0  0  0  0  0
   -2.0436    4.7387    0.6612 O   0  0  0  0  0  0  0  0  0  0  0  0
   -2.9373    7.4293   -0.3208 F   0  0  0  0  0  0  0  0  0  0  0  0
   -4.8764    6.6827   -0.9647 F   0  0  0  0  0  0  0  0  0  0  0  0
   -4.3287    6.6150    1.1396 F   0  0  0  0  0  0  0  0  0  0  0  0
  1  4  2  0  0  0  0
  1  8  1  0  0  0  0
  2  1  1  0  0  0  0
  3  2  1  0  0  0  0
  4  5  1  0  0  0  0
  5  6  2  0  0  0  0
  6 11  1  0  0  0  0
  7  6  1  0  0  0  0
  7 12  1  0  0  0  0
  8  7  2  0  0  0  0
  9  4  1  0  0  0  0
 10  5  1  0  0  0  0
 13  8  1  0  0  0  0
 14 15  1  0  0  0  0
 14 17  2  0  0  0  0
 14 18  1  0  0  0  0
 15 21  1  0  0  0  0
 16 14  2  0  0  0  0
 19 15  1  0  0  0  0
 20 15  1  0  0  0  0
M  RAD  3   2   2   3   3  18   2
M  END
