Coordinates from ORCA-job PhN2+~TfO-_B3LYPG-6-31G_dp-NX-Scan-d89-09-n800
 OpenBabel11261920253D

 21 20  0  0  0  0  0  0  0  0999 V2000
   -1.5237   -0.6458   -0.3832 C   0  0  0  0  0  0  0  0  0  0  0  0
   -1.6132   -1.8802   -0.9427 N   0  0  0  0  0  0  0  0  0  0  0  0
   -1.7067   -2.8955   -1.4103 N   0  0  0  0  0  0  0  0  0  0  0  0
   -2.7024    0.1404   -0.3080 C   0  0  0  0  0  0  0  0  0  0  0  0
   -2.5900    1.4060    0.2333 C   0  0  0  0  0  0  0  0  0  0  0  0
   -1.3393    1.8717    0.6861 C   0  0  0  0  0  0  0  0  0  0  0  0
   -0.1897    1.0639    0.6133 C   0  0  0  0  0  0  0  0  0  0  0  0
   -0.2565   -0.2071    0.0749 C   0  0  0  0  0  0  0  0  0  0  0  0
   -3.6442   -0.2459   -0.6816 H   0  0  0  0  0  0  0  0  0  0  0  0
   -3.4477    2.0851    0.2702 H   0  0  0  0  0  0  0  0  0  0  0  0
   -1.2940    2.9011    1.0475 H   0  0  0  0  0  0  0  0  0  0  0  0
    0.7628    1.4438    0.9667 H   0  0  0  0  0  0  0  0  0  0  0  0
    0.6120   -0.8508   -0.0100 H   0  0  0  0  0  0  0  0  0  0  0  0
   -3.1319    4.7468   -0.2972 S   0  0  0  0  0  0  0  0  0  0  0  0
   -3.8271    6.4636   -0.1761 C   0  0  0  0  0  0  0  0  0  0  0  0
   -2.6568    4.6179   -1.6877 O   0  0  0  0  0  0  0  0  0  0  0  0
   -4.2946    3.8822    0.0536 O   0  0  0  0  0  0  0  0  0  0  0  0
   -2.0570    4.7414    0.7368 O   0  0  0  0  0  0  0  0  0  0  0  0
   -2.8802    7.3764   -0.4430 F   0  0  0  0  0  0  0  0  0  0  0  0
   -4.8299    6.6288   -1.0528 F   0  0  0  0  0  0  0  0  0  0  0  0
   -4.3027    6.6989    1.0566 F   0  0  0  0  0  0  0  0  0  0  0  0
  1  4  2  0  0  0  0
  1  8  1  0  0  0  0
  2  1  1  0  0  0  0
  3  2  1  0  0  0  0
  4  5  1  0  0  0  0
  5 10  1  0  0  0  0
  5  6  2  0  0  0  0
  6 11  1  0  0  0  0
  7  6  1  0  0  0  0
  7 12  1  0  0  0  0
  8  7  2  0  0  0  0
  9  4  1  0  0  0  0
 13  8  1  0  0  0  0
 14 15  1  0  0  0  0
 14 17  2  0  0  0  0
 14 18  1  0  0  0  0
 15 21  1  0  0  0  0
 16 14  2  0  0  0  0
 19 15  1  0  0  0  0
 20 15  1  0  0  0  0
M  RAD  3   2   2   3   3  18   2
M  END
