Coordinates from ORCA-job PhN2+~TfO-_B3LYPG-6-31G_dp-NX-Scan-d89-09-n800
 OpenBabel11261920253D

 21 20  0  0  0  0  0  0  0  0999 V2000
   -1.5564   -0.7447   -0.2090 C   0  0  0  0  0  0  0  0  0  0  0  0
   -1.7483   -2.0558   -0.5075 N   0  0  0  0  0  0  0  0  0  0  0  0
   -1.9326   -3.1326   -0.7621 N   0  0  0  0  0  0  0  0  0  0  0  0
   -2.6346    0.1518   -0.4275 C   0  0  0  0  0  0  0  0  0  0  0  0
   -2.4207    1.4867   -0.1442 C   0  0  0  0  0  0  0  0  0  0  0  0
   -1.1685    1.9109    0.3426 C   0  0  0  0  0  0  0  0  0  0  0  0
   -0.1225    0.9975    0.5677 C   0  0  0  0  0  0  0  0  0  0  0  0
   -0.2923   -0.3464    0.2922 C   0  0  0  0  0  0  0  0  0  0  0  0
   -3.5819   -0.2130   -0.8096 H   0  0  0  0  0  0  0  0  0  0  0  0
   -3.2035    2.2392   -0.3101 H   0  0  0  0  0  0  0  0  0  0  0  0
   -1.0556    2.9832    0.5187 H   0  0  0  0  0  0  0  0  0  0  0  0
    0.8311    1.3470    0.9489 H   0  0  0  0  0  0  0  0  0  0  0  0
    0.4954   -1.0765    0.4411 H   0  0  0  0  0  0  0  0  0  0  0  0
   -3.0945    4.9727   -0.6030 S   0  0  0  0  0  0  0  0  0  0  0  0
   -3.9874    6.4159    0.1485 C   0  0  0  0  0  0  0  0  0  0  0  0
   -2.6943    5.4221   -1.9456 O   0  0  0  0  0  0  0  0  0  0  0  0
   -4.1250    3.8929   -0.5722 O   0  0  0  0  0  0  0  0  0  0  0  0
   -1.9739    4.7396    0.3532 O   0  0  0  0  0  0  0  0  0  0  0  0
   -3.1829    7.4878    0.2163 F   0  0  0  0  0  0  0  0  0  0  0  0
   -5.0633    6.7418   -0.5847 F   0  0  0  0  0  0  0  0  0  0  0  0
   -4.4009    6.1225    1.3929 F   0  0  0  0  0  0  0  0  0  0  0  0
  1  8  1  0  0  0  0
  2  1  1  0  0  0  0
  3  2  1  0  0  0  0
  4  1  2  0  0  0  0
  4  5  1  0  0  0  0
  5  6  2  0  0  0  0
  6 11  1  0  0  0  0
  6  7  1  0  0  0  0
  7 12  1  0  0  0  0
  8 13  1  0  0  0  0
  8  7  2  0  0  0  0
  9  4  1  0  0  0  0
 10  5  1  0  0  0  0
 14 17  2  0  0  0  0
 14 15  1  0  0  0  0
 14 18  1  0  0  0  0
 15 19  1  0  0  0  0
 15 21  1  0  0  0  0
 16 14  2  0  0  0  0
 20 15  1  0  0  0  0
M  RAD  3   2   2   3   3  18   2
M  END
