Coordinates from ORCA-job PhN2+~TfO-_B3LYPG-6-31G_dp-NX-Scan-d89-09-n800
 OpenBabel11261920253D

 21 20  0  0  0  0  0  0  0  0999 V2000
   -1.5641   -0.1955   -0.3792 C   0  0  0  0  0  0  0  0  0  0  0  0
   -1.6610   -1.3046   -1.1270 N   0  0  0  0  0  0  0  0  0  0  0  0
   -1.7663   -2.2163   -1.7815 N   0  0  0  0  0  0  0  0  0  0  0  0
   -2.6035    0.0903    0.5540 C   0  0  0  0  0  0  0  0  0  0  0  0
   -2.5828    1.3106    1.1732 C   0  0  0  0  0  0  0  0  0  0  0  0
   -1.5834    2.2583    0.8349 C   0  0  0  0  0  0  0  0  0  0  0  0
   -0.4721    1.8896    0.0387 C   0  0  0  0  0  0  0  0  0  0  0  0
   -0.4657    0.6818   -0.6081 C   0  0  0  0  0  0  0  0  0  0  0  0
   -3.3949   -0.6317    0.7217 H   0  0  0  0  0  0  0  0  0  0  0  0
   -3.3834    1.6128    1.8367 H   0  0  0  0  0  0  0  0  0  0  0  0
   -1.5959    3.2232    1.3233 H   0  0  0  0  0  0  0  0  0  0  0  0
    0.3286    2.6007   -0.1290 H   0  0  0  0  0  0  0  0  0  0  0  0
    0.3250    0.3933   -1.2917 H   0  0  0  0  0  0  0  0  0  0  0  0
   -3.8370    4.1290   -0.3969 S   0  0  0  0  0  0  0  0  0  0  0  0
   -2.8819    5.7215   -0.3170 C   0  0  0  0  0  0  0  0  0  0  0  0
   -2.7751    3.1626   -0.8841 O   0  0  0  0  0  0  0  0  0  0  0  0
   -4.9044    4.3651   -1.3729 O   0  0  0  0  0  0  0  0  0  0  0  0
   -4.2173    3.8874    1.0099 O   0  0  0  0  0  0  0  0  0  0  0  0
   -1.8151    5.5769    0.5064 F   0  0  0  0  0  0  0  0  0  0  0  0
   -2.4222    6.0735   -1.5243 F   0  0  0  0  0  0  0  0  0  0  0  0
   -3.6402    6.7143    0.1594 F   0  0  0  0  0  0  0  0  0  0  0  0
  1  4  1  0  0  0  0
  2  1  1  0  0  0  0
  3  2  1  0  0  0  0
  4  9  1  0  0  0  0
  4  5  2  0  0  0  0
  5 10  1  0  0  0  0
  6  5  1  0  0  0  0
  6 11  1  0  0  0  0
  7  6  2  0  0  0  0
  8  1  2  0  0  0  0
  8  7  1  0  0  0  0
 12  7  1  0  0  0  0
 13  8  1  0  0  0  0
 14 15  1  0  0  0  0
 14 18  1  0  0  0  0
 15 21  1  0  0  0  0
 15 19  1  0  0  0  0
 16 14  2  0  0  0  0
 17 14  2  0  0  0  0
 20 15  1  0  0  0  0
M  RAD  3   2   2   3   3  18   2
M  END
