Coordinates from ORCA-job PhN2+~TfO-_B3LYPG-6-31G_dp-NX-Scan-d89-09-n800
 OpenBabel11261920253D

 21 21  0  0  0  0  0  0  0  0999 V2000
   -1.4456    1.3416   -0.0193 C   0  0  0  0  0  0  0  0  0  0  0  0
   -2.7330    1.0552   -0.5609 N   0  0  0  0  0  0  0  0  0  0  0  0
   -3.5679    1.9075   -0.9504 N   0  0  0  0  0  0  0  0  0  0  0  0
   -0.7703    2.5738    0.1253 C   0  0  0  0  0  0  0  0  0  0  0  0
    0.5115    2.5969    0.6751 C   0  0  0  0  0  0  0  0  0  0  0  0
    1.1385    1.4213    1.0913 C   0  0  0  0  0  0  0  0  0  0  0  0
    0.4775    0.1985    0.9515 C   0  0  0  0  0  0  0  0  0  0  0  0
   -0.7972    0.1629    0.3987 C   0  0  0  0  0  0  0  0  0  0  0  0
   -1.2214    3.5034   -0.1852 H   0  0  0  0  0  0  0  0  0  0  0  0
    1.0224    3.5497    0.7790 H   0  0  0  0  0  0  0  0  0  0  0  0
    2.1356    1.4585    1.5192 H   0  0  0  0  0  0  0  0  0  0  0  0
    0.9555   -0.7228    1.2695 H   0  0  0  0  0  0  0  0  0  0  0  0
   -1.3303   -0.7735    0.2723 H   0  0  0  0  0  0  0  0  0  0  0  0
   -4.4845    4.1596   -1.4948 S   0  0  0  0  0  0  0  0  0  0  0  0
   -5.9380    3.7084   -0.3674 C   0  0  0  0  0  0  0  0  0  0  0  0
   -3.2705    3.0867   -0.8483 O   0  0  0  0  0  0  0  0  0  0  0  0
   -3.9867    5.4644   -1.1126 O   0  0  0  0  0  0  0  0  0  0  0  0
   -4.8089    3.7619   -2.8487 O   0  0  0  0  0  0  0  0  0  0  0  0
   -6.5559    2.6383   -0.8323 F   0  0  0  0  0  0  0  0  0  0  0  0
   -5.4857    3.4946    0.8619 F   0  0  0  0  0  0  0  0  0  0  0  0
   -6.7579    4.7560   -0.3774 F   0  0  0  0  0  0  0  0  0  0  0  0
  1  4  2  0  0  0  0
  1  8  1  0  0  0  0
  2  1  1  0  0  0  0
  3 16  1  0  0  0  0
  3  2  2  0  0  0  0
  4  5  1  0  0  0  0
  5 10  1  0  0  0  0
  5  6  2  0  0  0  0
  6 11  1  0  0  0  0
  7  6  1  0  0  0  0
  7 12  1  0  0  0  0
  8  7  2  0  0  0  0
  9  4  1  0  0  0  0
 13  8  1  0  0  0  0
 14 17  2  0  0  0  0
 14 16  1  0  0  0  0
 14 15  1  0  0  0  0
 15 20  1  0  0  0  0
 18 14  2  0  0  0  0
 19 15  1  0  0  0  0
 21 15  1  0  0  0  0
M  END
