Coordinates from ORCA-job PhN2+~TfO-_B3LYPG-6-31G_dp-NX-Scan-d89-09-n800
 OpenBabel11261920253D

 21 20  0  0  0  0  0  0  0  0999 V2000
   -1.5677   -0.1877   -0.3785 C   0  0  0  0  0  0  0  0  0  0  0  0
   -1.6780   -1.2856   -1.1409 N   0  0  0  0  0  0  0  0  0  0  0  0
   -1.7948   -2.1862   -1.8086 N   0  0  0  0  0  0  0  0  0  0  0  0
   -2.6026    0.0964    0.5600 C   0  0  0  0  0  0  0  0  0  0  0  0
   -2.5749    1.3135    1.1855 C   0  0  0  0  0  0  0  0  0  0  0  0
   -1.5734    2.2585    0.8471 C   0  0  0  0  0  0  0  0  0  0  0  0
   -0.4637    1.8885    0.0498 C   0  0  0  0  0  0  0  0  0  0  0  0
   -0.4642    0.6842   -0.6036 C   0  0  0  0  0  0  0  0  0  0  0  0
   -3.3975   -0.6225    0.7246 H   0  0  0  0  0  0  0  0  0  0  0  0
   -3.3734    1.6168    1.8510 H   0  0  0  0  0  0  0  0  0  0  0  0
   -1.5850    3.2245    1.3336 H   0  0  0  0  0  0  0  0  0  0  0  0
    0.3393    2.5974   -0.1161 H   0  0  0  0  0  0  0  0  0  0  0  0
    0.3230    0.3957   -1.2912 H   0  0  0  0  0  0  0  0  0  0  0  0
   -3.8337    4.1163   -0.4026 S   0  0  0  0  0  0  0  0  0  0  0  0
   -2.8864    5.7133   -0.3233 C   0  0  0  0  0  0  0  0  0  0  0  0
   -2.7659    3.1536   -0.8833 O   0  0  0  0  0  0  0  0  0  0  0  0
   -4.8990    4.3451   -1.3828 O   0  0  0  0  0  0  0  0  0  0  0  0
   -4.2185    3.8769    1.0035 O   0  0  0  0  0  0  0  0  0  0  0  0
   -1.8225    5.5762    0.5053 F   0  0  0  0  0  0  0  0  0  0  0  0
   -2.4228    6.0638   -1.5296 F   0  0  0  0  0  0  0  0  0  0  0  0
   -3.6512    6.7042    0.1466 F   0  0  0  0  0  0  0  0  0  0  0  0
  1  4  1  0  0  0  0
  2  1  1  0  0  0  0
  3  2  1  0  0  0  0
  4  9  1  0  0  0  0
  4  5  2  0  0  0  0
  5 10  1  0  0  0  0
  6  5  1  0  0  0  0
  6 11  1  0  0  0  0
  7  6  2  0  0  0  0
  8  1  2  0  0  0  0
  8  7  1  0  0  0  0
 12  7  1  0  0  0  0
 13  8  1  0  0  0  0
 14 15  1  0  0  0  0
 14 18  1  0  0  0  0
 15 21  1  0  0  0  0
 15 19  1  0  0  0  0
 16 14  2  0  0  0  0
 17 14  2  0  0  0  0
 20 15  1  0  0  0  0
M  RAD  3   2   2   3   3  18   2
M  END
