Coordinates from ORCA-job PhN2+~TfO-_B3LYPG-6-31G_dp-NX-Scan-d89-09-n800
 OpenBabel11261920253D

 21 20  0  0  0  0  0  0  0  0999 V2000
   -1.4005    1.0193   -0.3039 C   0  0  0  0  0  0  0  0  0  0  0  0
   -2.5454    0.9126   -1.0893 N   0  0  0  0  0  0  0  0  0  0  0  0
   -3.5781    1.0948   -1.5035 N   0  0  0  0  0  0  0  0  0  0  0  0
   -1.3052    2.0811    0.6113 C   0  0  0  0  0  0  0  0  0  0  0  0
   -0.1383    2.1550    1.3666 C   0  0  0  0  0  0  0  0  0  0  0  0
    0.8763    1.2055    1.2117 C   0  0  0  0  0  0  0  0  0  0  0  0
    0.7498    0.1588    0.2898 C   0  0  0  0  0  0  0  0  0  0  0  0
   -0.3961    0.0567   -0.4872 C   0  0  0  0  0  0  0  0  0  0  0  0
   -2.0967    2.8211    0.7057 H   0  0  0  0  0  0  0  0  0  0  0  0
   -0.0257    2.9671    2.0772 H   0  0  0  0  0  0  0  0  0  0  0  0
    1.7786    1.2828    1.8107 H   0  0  0  0  0  0  0  0  0  0  0  0
    1.5449   -0.5704    0.1754 H   0  0  0  0  0  0  0  0  0  0  0  0
   -0.5258   -0.7368   -1.2148 H   0  0  0  0  0  0  0  0  0  0  0  0
   -4.1340    3.9091   -0.6770 S   0  0  0  0  0  0  0  0  0  0  0  0
   -5.7569    4.8123   -0.6669 C   0  0  0  0  0  0  0  0  0  0  0  0
   -3.2702    4.6529    0.2619 O   0  0  0  0  0  0  0  0  0  0  0  0
   -3.7055    3.8653   -2.0874 O   0  0  0  0  0  0  0  0  0  0  0  0
   -4.5056    2.5431   -0.1367 O   0  0  0  0  0  0  0  0  0  0  0  0
   -6.2529    4.8647    0.5753 F   0  0  0  0  0  0  0  0  0  0  0  0
   -5.5864    6.0616   -1.1163 F   0  0  0  0  0  0  0  0  0  0  0  0
   -6.6391    4.1863   -1.4560 F   0  0  0  0  0  0  0  0  0  0  0  0
  1  4  1  0  0  0  0
  2  1  1  0  0  0  0
  3  2  1  0  0  0  0
  4  9  1  0  0  0  0
  4  5  2  0  0  0  0
  5 10  1  0  0  0  0
  6  5  1  0  0  0  0
  6 11  1  0  0  0  0
  7  6  2  0  0  0  0
  8  1  2  0  0  0  0
  8  7  1  0  0  0  0
 12  7  1  0  0  0  0
 13  8  1  0  0  0  0
 14 15  1  0  0  0  0
 14 18  2  0  0  0  0
 14 16  1  0  0  0  0
 15 19  1  0  0  0  0
 17 14  2  0  0  0  0
 20 15  1  0  0  0  0
 21 15  1  0  0  0  0
M  RAD  3   2   2   3   3  16   2
M  END
