Coordinates from ORCA-job PhN2+~TfO-_B3LYPG-6-31G_dp-NX-Scan-d89-09-n800
 OpenBabel11261920253D

 21 20  0  0  0  0  0  0  0  0999 V2000
   -1.5647   -0.1938   -0.3787 C   0  0  0  0  0  0  0  0  0  0  0  0
   -1.6651   -1.2999   -1.1304 N   0  0  0  0  0  0  0  0  0  0  0  0
   -1.7733   -2.2087   -1.7885 N   0  0  0  0  0  0  0  0  0  0  0  0
   -2.6031    0.0916    0.5557 C   0  0  0  0  0  0  0  0  0  0  0  0
   -2.5810    1.3112    1.1761 C   0  0  0  0  0  0  0  0  0  0  0  0
   -1.5813    2.2584    0.8376 C   0  0  0  0  0  0  0  0  0  0  0  0
   -0.4702    1.8894    0.0414 C   0  0  0  0  0  0  0  0  0  0  0  0
   -0.4651    0.6823   -0.6067 C   0  0  0  0  0  0  0  0  0  0  0  0
   -3.3953   -0.6298    0.7226 H   0  0  0  0  0  0  0  0  0  0  0  0
   -3.3813    1.6139    1.8398 H   0  0  0  0  0  0  0  0  0  0  0  0
   -1.5937    3.2236    1.3253 H   0  0  0  0  0  0  0  0  0  0  0  0
    0.3308    2.6002   -0.1261 H   0  0  0  0  0  0  0  0  0  0  0  0
    0.3247    0.3938   -1.2913 H   0  0  0  0  0  0  0  0  0  0  0  0
   -3.8362    4.1260   -0.3981 S   0  0  0  0  0  0  0  0  0  0  0  0
   -2.8829    5.7195   -0.3186 C   0  0  0  0  0  0  0  0  0  0  0  0
   -2.7730    3.1604   -0.8838 O   0  0  0  0  0  0  0  0  0  0  0  0
   -4.9032    4.3602   -1.3750 O   0  0  0  0  0  0  0  0  0  0  0  0
   -4.2174    3.8850    1.0086 O   0  0  0  0  0  0  0  0  0  0  0  0
   -1.8167    5.5766    0.5060 F   0  0  0  0  0  0  0  0  0  0  0  0
   -2.4223    6.0710   -1.5257 F   0  0  0  0  0  0  0  0  0  0  0  0
   -3.6425    6.7119    0.1563 F   0  0  0  0  0  0  0  0  0  0  0  0
  1  4  1  0  0  0  0
  2  1  1  0  0  0  0
  3  2  1  0  0  0  0
  4  9  1  0  0  0  0
  4  5  2  0  0  0  0
  5 10  1  0  0  0  0
  6  5  1  0  0  0  0
  6 11  1  0  0  0  0
  7  6  2  0  0  0  0
  8  1  2  0  0  0  0
  8  7  1  0  0  0  0
 12  7  1  0  0  0  0
 13  8  1  0  0  0  0
 14 15  1  0  0  0  0
 14 18  1  0  0  0  0
 15 21  1  0  0  0  0
 15 19  1  0  0  0  0
 16 14  2  0  0  0  0
 17 14  2  0  0  0  0
 20 15  1  0  0  0  0
M  RAD  3   2   2   3   3  18   2
M  END
