Coordinates from ORCA-job PhN2+~TfO-_B3LYPG-6-31G_dp-NX-Scan-d89-09-n800
 OpenBabel11261920253D

 21 20  0  0  0  0  0  0  0  0999 V2000
   -1.5554   -0.2072   -0.3790 C   0  0  0  0  0  0  0  0  0  0  0  0
   -1.6308   -1.3273   -1.1117 N   0  0  0  0  0  0  0  0  0  0  0  0
   -1.7162   -2.2512   -1.7525 N   0  0  0  0  0  0  0  0  0  0  0  0
   -2.6035    0.0750    0.5463 C   0  0  0  0  0  0  0  0  0  0  0  0
   -2.6000    1.2998    1.1562 C   0  0  0  0  0  0  0  0  0  0  0  0
   -1.6095    2.2575    0.8170 C   0  0  0  0  0  0  0  0  0  0  0  0
   -0.4915    1.8957    0.0255 C   0  0  0  0  0  0  0  0  0  0  0  0
   -0.4679    0.6833   -0.6114 C   0  0  0  0  0  0  0  0  0  0  0  0
   -3.3861   -0.6558    0.7176 H   0  0  0  0  0  0  0  0  0  0  0  0
   -3.4054    1.5970    1.8163 H   0  0  0  0  0  0  0  0  0  0  0  0
   -1.6279    3.2196    1.3101 H   0  0  0  0  0  0  0  0  0  0  0  0
    0.3013    2.6151   -0.1439 H   0  0  0  0  0  0  0  0  0  0  0  0
    0.3298    0.3986   -1.2884 H   0  0  0  0  0  0  0  0  0  0  0  0
   -3.8430    4.1504   -0.3805 S   0  0  0  0  0  0  0  0  0  0  0  0
   -2.8666    5.7307   -0.3159 C   0  0  0  0  0  0  0  0  0  0  0  0
   -2.7979    3.1690   -0.8774 O   0  0  0  0  0  0  0  0  0  0  0  0
   -4.9176    4.3962   -1.3458 O   0  0  0  0  0  0  0  0  0  0  0  0
   -4.2092    3.9157    1.0310 O   0  0  0  0  0  0  0  0  0  0  0  0
   -1.7894    5.5716    0.4910 F   0  0  0  0  0  0  0  0  0  0  0  0
   -2.4212    6.0765   -1.5302 F   0  0  0  0  0  0  0  0  0  0  0  0
   -3.6047    6.7328    0.1721 F   0  0  0  0  0  0  0  0  0  0  0  0
  1  4  1  0  0  0  0
  2  1  1  0  0  0  0
  3  2  1  0  0  0  0
  4  9  1  0  0  0  0
  4  5  2  0  0  0  0
  5 10  1  0  0  0  0
  6  5  1  0  0  0  0
  6 11  1  0  0  0  0
  7  6  2  0  0  0  0
  8  1  2  0  0  0  0
  8  7  1  0  0  0  0
 12  7  1  0  0  0  0
 13  8  1  0  0  0  0
 14 15  1  0  0  0  0
 14 18  1  0  0  0  0
 15 21  1  0  0  0  0
 15 19  1  0  0  0  0
 16 14  2  0  0  0  0
 17 14  2  0  0  0  0
 20 15  1  0  0  0  0
M  RAD  3   2   2   3   3  18   2
M  END
