Coordinates from ORCA-job PhN2+~TfO-_B3LYPG-6-31G_dp-NX-Scan-d89-09-n800
 OpenBabel11261920253D

 21 20  0  0  0  0  0  0  0  0999 V2000
   -1.5606   -0.5001   -0.5252 C   0  0  0  0  0  0  0  0  0  0  0  0
   -1.5740   -1.7066   -1.1381 N   0  0  0  0  0  0  0  0  0  0  0  0
   -1.5899   -2.7132   -1.6392 N   0  0  0  0  0  0  0  0  0  0  0  0
   -2.7969    0.0672   -0.1088 C   0  0  0  0  0  0  0  0  0  0  0  0
   -2.7580    1.2850    0.5317 C   0  0  0  0  0  0  0  0  0  0  0  0
   -1.5232    1.9324    0.7615 C   0  0  0  0  0  0  0  0  0  0  0  0
   -0.3132    1.3511    0.3325 C   0  0  0  0  0  0  0  0  0  0  0  0
   -0.3085    0.1357   -0.3184 C   0  0  0  0  0  0  0  0  0  0  0  0
   -3.7287   -0.4507   -0.3058 H   0  0  0  0  0  0  0  0  0  0  0  0
   -3.6769    1.7869    0.8204 H   0  0  0  0  0  0  0  0  0  0  0  0
   -1.5175    2.8711    1.3089 H   0  0  0  0  0  0  0  0  0  0  0  0
    0.6232    1.8678    0.5104 H   0  0  0  0  0  0  0  0  0  0  0  0
    0.6064   -0.3356   -0.6593 H   0  0  0  0  0  0  0  0  0  0  0  0
   -3.1913    4.5771    0.1907 S   0  0  0  0  0  0  0  0  0  0  0  0
   -3.5061    6.2893   -0.4607 C   0  0  0  0  0  0  0  0  0  0  0  0
   -2.2497    3.9914   -0.8140 O   0  0  0  0  0  0  0  0  0  0  0  0
   -4.5263    3.9360    0.2158 O   0  0  0  0  0  0  0  0  0  0  0  0
   -2.5656    4.7910    1.5186 O   0  0  0  0  0  0  0  0  0  0  0  0
   -2.3575    6.9761   -0.5532 F   0  0  0  0  0  0  0  0  0  0  0  0
   -4.0653    6.2359   -1.6787 F   0  0  0  0  0  0  0  0  0  0  0  0
   -4.3332    6.9552    0.3573 F   0  0  0  0  0  0  0  0  0  0  0  0
  1  8  2  0  0  0  0
  1  4  1  0  0  0  0
  2  1  1  0  0  0  0
  3  2  1  0  0  0  0
  4  5  2  0  0  0  0
  5  6  1  0  0  0  0
  5 10  1  0  0  0  0
  6 11  1  0  0  0  0
  7 12  1  0  0  0  0
  7  6  2  0  0  0  0
  8  7  1  0  0  0  0
  9  4  1  0  0  0  0
 13  8  1  0  0  0  0
 14 17  2  0  0  0  0
 14 18  1  0  0  0  0
 15 14  1  0  0  0  0
 15 21  1  0  0  0  0
 16 14  2  0  0  0  0
 19 15  1  0  0  0  0
 20 15  1  0  0  0  0
M  RAD  3   2   2   3   3  18   2
M  END
