Coordinates from ORCA-job PhN2+~TfO-_B3LYPG-6-31G_dp-NX-Scan-d89-09-n800
 OpenBabel11261920253D

 21 20  0  0  0  0  0  0  0  0999 V2000
   -1.5720   -0.7479   -0.1756 C   0  0  0  0  0  0  0  0  0  0  0  0
   -1.7820   -2.0671   -0.4221 N   0  0  0  0  0  0  0  0  0  0  0  0
   -1.9798   -3.1513   -0.6317 N   0  0  0  0  0  0  0  0  0  0  0  0
   -2.6318    0.1568   -0.4449 C   0  0  0  0  0  0  0  0  0  0  0  0
   -2.4002    1.4980   -0.2088 C   0  0  0  0  0  0  0  0  0  0  0  0
   -1.1487    1.9200    0.2818 C   0  0  0  0  0  0  0  0  0  0  0  0
   -0.1211    0.9995    0.5569 C   0  0  0  0  0  0  0  0  0  0  0  0
   -0.3089   -0.3510    0.3293 C   0  0  0  0  0  0  0  0  0  0  0  0
   -3.5799   -0.2075   -0.8257 H   0  0  0  0  0  0  0  0  0  0  0  0
   -3.1680    2.2578   -0.4091 H   0  0  0  0  0  0  0  0  0  0  0  0
   -1.0243    2.9959    0.4257 H   0  0  0  0  0  0  0  0  0  0  0  0
    0.8321    1.3478    0.9403 H   0  0  0  0  0  0  0  0  0  0  0  0
    0.4641   -1.0875    0.5180 H   0  0  0  0  0  0  0  0  0  0  0  0
   -3.0674    5.0234   -0.6659 S   0  0  0  0  0  0  0  0  0  0  0  0
   -4.0043    6.3671    0.2070 C   0  0  0  0  0  0  0  0  0  0  0  0
   -2.6956    5.5985   -1.9673 O   0  0  0  0  0  0  0  0  0  0  0  0
   -4.0597    3.9092   -0.7191 O   0  0  0  0  0  0  0  0  0  0  0  0
   -1.9323    4.7524    0.2629 O   0  0  0  0  0  0  0  0  0  0  0  0
   -3.2403    7.4602    0.3538 F   0  0  0  0  0  0  0  0  0  0  0  0
   -5.1008    6.7087   -0.4874 F   0  0  0  0  0  0  0  0  0  0  0  0
   -4.3920    5.9601    1.4283 F   0  0  0  0  0  0  0  0  0  0  0  0
  1  8  2  0  0  0  0
  2  1  1  0  0  0  0
  3  2  1  0  0  0  0
  4  5  2  0  0  0  0
  4  1  1  0  0  0  0
  5  6  1  0  0  0  0
  6 11  1  0  0  0  0
  6  7  2  0  0  0  0
  7 12  1  0  0  0  0
  8 13  1  0  0  0  0
  8  7  1  0  0  0  0
  9  4  1  0  0  0  0
 10  5  1  0  0  0  0
 14 15  1  0  0  0  0
 14 18  1  0  0  0  0
 15 19  1  0  0  0  0
 15 21  1  0  0  0  0
 16 14  2  0  0  0  0
 17 14  2  0  0  0  0
 20 15  1  0  0  0  0
M  RAD  3   2   2   3   3  18   2
M  END
