Coordinates from ORCA-job PhN2+~TfO-_B3LYPG-6-31G_dp-NX-Scan-d89-09-n800
 OpenBabel11261920253D

 21 20  0  0  0  0  0  0  0  0999 V2000
   -1.3543    1.0735   -0.5669 C   0  0  0  0  0  0  0  0  0  0  0  0
   -2.2236    0.8981   -1.6321 N   0  0  0  0  0  0  0  0  0  0  0  0
   -2.8732    0.6761   -2.5085 N   0  0  0  0  0  0  0  0  0  0  0  0
   -1.1710    2.3573   -0.0327 C   0  0  0  0  0  0  0  0  0  0  0  0
   -0.2599    2.4654    1.0154 C   0  0  0  0  0  0  0  0  0  0  0  0
    0.4173    1.3428    1.4976 C   0  0  0  0  0  0  0  0  0  0  0  0
    0.2052    0.0729    0.9391 C   0  0  0  0  0  0  0  0  0  0  0  0
   -0.6853   -0.0810   -0.1111 C   0  0  0  0  0  0  0  0  0  0  0  0
   -1.7361    3.2195   -0.4018 H   0  0  0  0  0  0  0  0  0  0  0  0
   -0.0952    3.4408    1.4600 H   0  0  0  0  0  0  0  0  0  0  0  0
    1.1172    1.4510    2.3206 H   0  0  0  0  0  0  0  0  0  0  0  0
    0.7334   -0.7918    1.3251 H   0  0  0  0  0  0  0  0  0  0  0  0
   -0.8736   -1.0470   -0.5661 H   0  0  0  0  0  0  0  0  0  0  0  0
   -4.0821    4.1363   -1.2262 S   0  0  0  0  0  0  0  0  0  0  0  0
   -5.3984    4.4416    0.0465 C   0  0  0  0  0  0  0  0  0  0  0  0
   -2.8646    4.7443   -0.6215 O   0  0  0  0  0  0  0  0  0  0  0  0
   -4.5870    4.7560   -2.4552 O   0  0  0  0  0  0  0  0  0  0  0  0
   -3.9897    2.6398   -1.2568 O   0  0  0  0  0  0  0  0  0  0  0  0
   -5.0493    3.8902    1.2238 F   0  0  0  0  0  0  0  0  0  0  0  0
   -5.5791    5.7555    0.2359 F   0  0  0  0  0  0  0  0  0  0  0  0
   -6.5635    3.9015   -0.3387 F   0  0  0  0  0  0  0  0  0  0  0  0
  1  8  2  0  0  0  0
  1  4  1  0  0  0  0
  2  1  1  0  0  0  0
  3  2  1  0  0  0  0
  4  5  2  0  0  0  0
  5 10  1  0  0  0  0
  5  6  1  0  0  0  0
  6 11  1  0  0  0  0
  7 12  1  0  0  0  0
  7  6  2  0  0  0  0
  8  7  1  0  0  0  0
  9  4  1  0  0  0  0
 13  8  1  0  0  0  0
 14 16  1  0  0  0  0
 14 15  1  0  0  0  0
 15 20  1  0  0  0  0
 15 19  1  0  0  0  0
 17 14  2  0  0  0  0
 18 14  2  0  0  0  0
 21 15  1  0  0  0  0
M  RAD  3   2   2   3   3  16   2
M  END
