Coordinates from ORCA-job PhN2+~TfO-_B3LYPG-6-31G_dp-NX-Scan-d89-09-n800
 OpenBabel11261920253D

 21 20  0  0  0  0  0  0  0  0999 V2000
   -1.5235   -0.6531   -0.3755 C   0  0  0  0  0  0  0  0  0  0  0  0
   -1.6163   -1.8916   -0.9252 N   0  0  0  0  0  0  0  0  0  0  0  0
   -1.7129   -2.9101   -1.3851 N   0  0  0  0  0  0  0  0  0  0  0  0
   -2.6989    0.1392   -0.3126 C   0  0  0  0  0  0  0  0  0  0  0  0
   -2.5832    1.4089    0.2180 C   0  0  0  0  0  0  0  0  0  0  0  0
   -1.3325    1.8729    0.6725 C   0  0  0  0  0  0  0  0  0  0  0  0
   -0.1864    1.0590    0.6127 C   0  0  0  0  0  0  0  0  0  0  0  0
   -0.2566   -0.2164    0.0850 C   0  0  0  0  0  0  0  0  0  0  0  0
   -3.6409   -0.2462   -0.6870 H   0  0  0  0  0  0  0  0  0  0  0  0
   -3.4384    2.0921    0.2458 H   0  0  0  0  0  0  0  0  0  0  0  0
   -1.2850    2.9052    1.0252 H   0  0  0  0  0  0  0  0  0  0  0  0
    0.7661    1.4374    0.9676 H   0  0  0  0  0  0  0  0  0  0  0  0
    0.6093   -0.8648    0.0101 H   0  0  0  0  0  0  0  0  0  0  0  0
   -3.1316    4.7567   -0.3126 S   0  0  0  0  0  0  0  0  0  0  0  0
   -3.8352    6.4677   -0.1614 C   0  0  0  0  0  0  0  0  0  0  0  0
   -2.6612    4.6523   -1.7065 O   0  0  0  0  0  0  0  0  0  0  0  0
   -4.2890    3.8812    0.0292 O   0  0  0  0  0  0  0  0  0  0  0  0
   -2.0533    4.7404    0.7177 O   0  0  0  0  0  0  0  0  0  0  0  0
   -2.8936    7.3897   -0.4151 F   0  0  0  0  0  0  0  0  0  0  0  0
   -4.8409    6.6423   -1.0327 F   0  0  0  0  0  0  0  0  0  0  0  0
   -4.3089    6.6798    1.0764 F   0  0  0  0  0  0  0  0  0  0  0  0
  1  4  2  0  0  0  0
  1  8  1  0  0  0  0
  2  1  1  0  0  0  0
  3  2  1  0  0  0  0
  4  5  1  0  0  0  0
  5 10  1  0  0  0  0
  5  6  2  0  0  0  0
  6 11  1  0  0  0  0
  7  6  1  0  0  0  0
  7 12  1  0  0  0  0
  8  7  2  0  0  0  0
  9  4  1  0  0  0  0
 13  8  1  0  0  0  0
 14 15  1  0  0  0  0
 14 17  2  0  0  0  0
 14 18  1  0  0  0  0
 15 21  1  0  0  0  0
 16 14  2  0  0  0  0
 19 15  1  0  0  0  0
 20 15  1  0  0  0  0
M  RAD  3   2   2   3   3  18   2
M  END
