Coordinates from ORCA-job PhN2+~TfO-_B3LYPG-6-31G_dp-NX-Scan-d89-09-n800
 OpenBabel11261920253D

 21 20  0  0  0  0  0  0  0  0999 V2000
   -1.5010    1.4324   -0.2664 C   0  0  0  0  0  0  0  0  0  0  0  0
   -2.5498    1.3357   -1.1850 N   0  0  0  0  0  0  0  0  0  0  0  0
   -3.3079    0.9270   -1.9021 N   0  0  0  0  0  0  0  0  0  0  0  0
   -1.2799    2.6162    0.4459 C   0  0  0  0  0  0  0  0  0  0  0  0
   -0.2365    2.6194    1.3677 C   0  0  0  0  0  0  0  0  0  0  0  0
    0.5495    1.4802    1.5591 C   0  0  0  0  0  0  0  0  0  0  0  0
    0.3058    0.3088    0.8308 C   0  0  0  0  0  0  0  0  0  0  0  0
   -0.7283    0.2692   -0.0938 C   0  0  0  0  0  0  0  0  0  0  0  0
   -1.9021    3.4783    0.2417 H   0  0  0  0  0  0  0  0  0  0  0  0
   -0.0365    3.5216    1.9357 H   0  0  0  0  0  0  0  0  0  0  0  0
    1.3610    1.5018    2.2802 H   0  0  0  0  0  0  0  0  0  0  0  0
    0.9202   -0.5719    0.9850 H   0  0  0  0  0  0  0  0  0  0  0  0
   -0.9439   -0.6238   -0.6697 H   0  0  0  0  0  0  0  0  0  0  0  0
   -4.3640    3.8811   -1.8212 S   0  0  0  0  0  0  0  0  0  0  0  0
   -5.0315    3.9201   -0.0879 C   0  0  0  0  0  0  0  0  0  0  0  0
   -2.8938    3.7491   -1.5626 O   0  0  0  0  0  0  0  0  0  0  0  0
   -4.7974    5.1348   -2.4331 O   0  0  0  0  0  0  0  0  0  0  0  0
   -4.9311    2.6207   -2.3732 O   0  0  0  0  0  0  0  0  0  0  0  0
   -4.6594    2.7871    0.5621 F   0  0  0  0  0  0  0  0  0  0  0  0
   -4.5234    4.9580    0.5956 F   0  0  0  0  0  0  0  0  0  0  0  0
   -6.3627    3.9971   -0.0622 F   0  0  0  0  0  0  0  0  0  0  0  0
  1  8  2  0  0  0  0
  1  4  1  0  0  0  0
  2  1  1  0  0  0  0
  3  2  1  0  0  0  0
  4  5  2  0  0  0  0
  5  6  1  0  0  0  0
  5 10  1  0  0  0  0
  6 11  1  0  0  0  0
  7 12  1  0  0  0  0
  7  6  2  0  0  0  0
  8  7  1  0  0  0  0
  9  4  1  0  0  0  0
 13  8  1  0  0  0  0
 14 16  1  0  0  0  0
 14 15  1  0  0  0  0
 15 21  1  0  0  0  0
 15 19  1  0  0  0  0
 15 20  1  0  0  0  0
 17 14  2  0  0  0  0
 18 14  2  0  0  0  0
M  RAD  3   2   2   3   3  16   2
M  END
