Coordinates from ORCA-job PhN2+~TfO-_B3LYPG-6-31G_dp-NX-Scan-d89-09-n800
 OpenBabel11261920253D

 21 20  0  0  0  0  0  0  0  0999 V2000
   -1.5153   -0.2993   -0.3664 C   0  0  0  0  0  0  0  0  0  0  0  0
   -1.4726   -1.5123   -0.9365 N   0  0  0  0  0  0  0  0  0  0  0  0
   -1.4473   -2.5294   -1.4252 N   0  0  0  0  0  0  0  0  0  0  0  0
   -2.6119    0.0199    0.4903 C   0  0  0  0  0  0  0  0  0  0  0  0
   -2.6703    1.2832    1.0127 C   0  0  0  0  0  0  0  0  0  0  0  0
   -1.6869    2.2489    0.6688 C   0  0  0  0  0  0  0  0  0  0  0  0
   -0.5583    1.8810   -0.1077 C   0  0  0  0  0  0  0  0  0  0  0  0
   -0.4713    0.6277   -0.6541 C   0  0  0  0  0  0  0  0  0  0  0  0
   -3.3707   -0.7266    0.6970 H   0  0  0  0  0  0  0  0  0  0  0  0
   -3.5016    1.5963    1.6328 H   0  0  0  0  0  0  0  0  0  0  0  0
   -1.7045    3.2067    1.1678 H   0  0  0  0  0  0  0  0  0  0  0  0
    0.2105    2.6171   -0.3123 H   0  0  0  0  0  0  0  0  0  0  0  0
    0.3571    0.3291   -1.2870 H   0  0  0  0  0  0  0  0  0  0  0  0
   -3.8698    4.2758   -0.3416 S   0  0  0  0  0  0  0  0  0  0  0  0
   -2.8482    5.8244   -0.2244 C   0  0  0  0  0  0  0  0  0  0  0  0
   -2.8654    3.2959   -0.9226 O   0  0  0  0  0  0  0  0  0  0  0  0
   -4.9650    4.5993   -1.2583 O   0  0  0  0  0  0  0  0  0  0  0  0
   -4.1976    3.9741    1.0667 O   0  0  0  0  0  0  0  0  0  0  0  0
   -1.7450    5.5869    0.5265 F   0  0  0  0  0  0  0  0  0  0  0  0
   -2.4417    6.2305   -1.4331 F   0  0  0  0  0  0  0  0  0  0  0  0
   -3.5369    6.8137    0.3529 F   0  0  0  0  0  0  0  0  0  0  0  0
  1  4  1  0  0  0  0
  2  1  1  0  0  0  0
  3  2  1  0  0  0  0
  4  9  1  0  0  0  0
  4  5  2  0  0  0  0
  5 10  1  0  0  0  0
  6  5  1  0  0  0  0
  6 11  1  0  0  0  0
  7  6  2  0  0  0  0
  8  1  2  0  0  0  0
  8  7  1  0  0  0  0
 12  7  1  0  0  0  0
 13  8  1  0  0  0  0
 14 15  1  0  0  0  0
 14 18  1  0  0  0  0
 15 21  1  0  0  0  0
 15 19  1  0  0  0  0
 16 14  2  0  0  0  0
 17 14  2  0  0  0  0
 20 15  1  0  0  0  0
M  RAD  3   2   2   3   3  18   2
M  END
