Coordinates from ORCA-job PhN2+~TfO-_B3LYPG-6-31G_dp-NX-Scan-d89-09-n800
 OpenBabel11261920253D

 21 20  0  0  0  0  0  0  0  0999 V2000
   -1.5636   -0.7465   -0.1926 C   0  0  0  0  0  0  0  0  0  0  0  0
   -1.7654   -2.0616   -0.4661 N   0  0  0  0  0  0  0  0  0  0  0  0
   -1.9579   -3.1418   -0.6995 N   0  0  0  0  0  0  0  0  0  0  0  0
   -2.6323    0.1550   -0.4358 C   0  0  0  0  0  0  0  0  0  0  0  0
   -2.4089    1.4931   -0.1756 C   0  0  0  0  0  0  0  0  0  0  0  0
   -1.1567    1.9152    0.3130 C   0  0  0  0  0  0  0  0  0  0  0  0
   -0.1202    0.9974    0.5624 C   0  0  0  0  0  0  0  0  0  0  0  0
   -0.2997   -0.3499    0.3103 C   0  0  0  0  0  0  0  0  0  0  0  0
   -3.5803   -0.2089   -0.8173 H   0  0  0  0  0  0  0  0  0  0  0  0
   -3.1842    2.2497   -0.3584 H   0  0  0  0  0  0  0  0  0  0  0  0
   -1.0375    2.9893    0.4733 H   0  0  0  0  0  0  0  0  0  0  0  0
    0.8334    1.3456    0.9447 H   0  0  0  0  0  0  0  0  0  0  0  0
    0.4804   -1.0839    0.4785 H   0  0  0  0  0  0  0  0  0  0  0  0
   -3.0828    4.9963   -0.6332 S   0  0  0  0  0  0  0  0  0  0  0  0
   -3.9972    6.3938    0.1768 C   0  0  0  0  0  0  0  0  0  0  0  0
   -2.6946    5.5060   -1.9573 O   0  0  0  0  0  0  0  0  0  0  0  0
   -4.0955    3.8994   -0.6426 O   0  0  0  0  0  0  0  0  0  0  0  0
   -1.9560    4.7443    0.3109 O   0  0  0  0  0  0  0  0  0  0  0  0
   -3.2114    7.4763    0.2829 F   0  0  0  0  0  0  0  0  0  0  0  0
   -5.0822    6.7285   -0.5388 F   0  0  0  0  0  0  0  0  0  0  0  0
   -4.4000    6.0456    1.4109 F   0  0  0  0  0  0  0  0  0  0  0  0
  1  8  1  0  0  0  0
  2  1  1  0  0  0  0
  3  2  1  0  0  0  0
  4  1  2  0  0  0  0
  4  5  1  0  0  0  0
  5  6  2  0  0  0  0
  6 11  1  0  0  0  0
  6  7  1  0  0  0  0
  7 12  1  0  0  0  0
  8 13  1  0  0  0  0
  8  7  2  0  0  0  0
  9  4  1  0  0  0  0
 10  5  1  0  0  0  0
 14 15  1  0  0  0  0
 14 18  1  0  0  0  0
 15 19  1  0  0  0  0
 15 21  1  0  0  0  0
 16 14  2  0  0  0  0
 17 14  2  0  0  0  0
 20 15  1  0  0  0  0
M  RAD  3   2   2   3   3  18   2
M  END
