Coordinates from ORCA-job PhN2+~TfO-_B3LYPG-6-31G_dp-NX-Scan-d89-09-n800
 OpenBabel11261920253D

 21 20  0  0  0  0  0  0  0  0999 V2000
   -1.4744    1.4098   -0.3098 C   0  0  0  0  0  0  0  0  0  0  0  0
   -2.4860    1.3156   -1.2613 N   0  0  0  0  0  0  0  0  0  0  0  0
   -3.2624    1.0215   -2.0152 N   0  0  0  0  0  0  0  0  0  0  0  0
   -1.1711    2.6443    0.2791 C   0  0  0  0  0  0  0  0  0  0  0  0
   -0.1549    2.6595    1.2305 C   0  0  0  0  0  0  0  0  0  0  0  0
    0.5191    1.4844    1.5725 C   0  0  0  0  0  0  0  0  0  0  0  0
    0.1930    0.2636    0.9667 C   0  0  0  0  0  0  0  0  0  0  0  0
   -0.8115    0.2099    0.0116 C   0  0  0  0  0  0  0  0  0  0  0  0
   -1.7232    3.5238   -0.0379 H   0  0  0  0  0  0  0  0  0  0  0  0
    0.1093    3.5976    1.7061 H   0  0  0  0  0  0  0  0  0  0  0  0
    1.3080    1.5153    2.3181 H   0  0  0  0  0  0  0  0  0  0  0  0
    0.7219   -0.6430    1.2397 H   0  0  0  0  0  0  0  0  0  0  0  0
   -1.0882   -0.7186   -0.4749 H   0  0  0  0  0  0  0  0  0  0  0  0
   -4.3694    4.0193   -1.7756 S   0  0  0  0  0  0  0  0  0  0  0  0
   -5.0267    3.8016   -0.0512 C   0  0  0  0  0  0  0  0  0  0  0  0
   -2.8979    4.0747   -1.5316 O   0  0  0  0  0  0  0  0  0  0  0  0
   -4.9958    5.2399   -2.2797 O   0  0  0  0  0  0  0  0  0  0  0  0
   -4.7780    2.7421   -2.4366 O   0  0  0  0  0  0  0  0  0  0  0  0
   -4.4672    2.6918    0.5045 F   0  0  0  0  0  0  0  0  0  0  0  0
   -4.7055    4.8444    0.7266 F   0  0  0  0  0  0  0  0  0  0  0  0
   -6.3519    3.6451   -0.0352 F   0  0  0  0  0  0  0  0  0  0  0  0
  1  8  2  0  0  0  0
  1  4  1  0  0  0  0
  2  1  1  0  0  0  0
  3  2  1  0  0  0  0
  4  5  2  0  0  0  0
  5  6  1  0  0  0  0
  5 10  1  0  0  0  0
  6 11  1  0  0  0  0
  7 12  1  0  0  0  0
  7  6  2  0  0  0  0
  8  7  1  0  0  0  0
  9  4  1  0  0  0  0
 13  8  1  0  0  0  0
 14 16  1  0  0  0  0
 14 15  1  0  0  0  0
 15 21  1  0  0  0  0
 15 19  1  0  0  0  0
 15 20  1  0  0  0  0
 17 14  2  0  0  0  0
 18 14  2  0  0  0  0
M  RAD  3   2   2   3   3  16   2
M  END
