Coordinates from ORCA-job PhN2+~TfO-_B3LYPG-6-31G_dp-NX-Scan-d89-09-n800
 OpenBabel11261920253D

 21 20  0  0  0  0  0  0  0  0999 V2000
   -1.5383   -0.5639   -0.4926 C   0  0  0  0  0  0  0  0  0  0  0  0
   -1.5692   -1.7949   -1.0591 N   0  0  0  0  0  0  0  0  0  0  0  0
   -1.6034   -2.8185   -1.5204 N   0  0  0  0  0  0  0  0  0  0  0  0
   -2.7709    0.0907   -0.2235 C   0  0  0  0  0  0  0  0  0  0  0  0
   -2.7177    1.3395    0.3577 C   0  0  0  0  0  0  0  0  0  0  0  0
   -1.4715    1.9233    0.6731 C   0  0  0  0  0  0  0  0  0  0  0  0
   -0.2655    1.2529    0.3940 C   0  0  0  0  0  0  0  0  0  0  0  0
   -0.2737    0.0047   -0.1958 C   0  0  0  0  0  0  0  0  0  0  0  0
   -3.7100   -0.3841   -0.4843 H   0  0  0  0  0  0  0  0  0  0  0  0
   -3.6274    1.9098    0.5391 H   0  0  0  0  0  0  0  0  0  0  0  0
   -1.4592    2.9030    1.1474 H   0  0  0  0  0  0  0  0  0  0  0  0
    0.6806    1.7232    0.6379 H   0  0  0  0  0  0  0  0  0  0  0  0
    0.6378   -0.5350   -0.4265 H   0  0  0  0  0  0  0  0  0  0  0  0
   -3.1729    4.6407    0.1614 S   0  0  0  0  0  0  0  0  0  0  0  0
   -3.6202    6.3598   -0.3825 C   0  0  0  0  0  0  0  0  0  0  0  0
   -2.3553    4.1062   -0.9647 O   0  0  0  0  0  0  0  0  0  0  0  0
   -4.4807    3.9604    0.3368 O   0  0  0  0  0  0  0  0  0  0  0  0
   -2.3973    4.8382    1.4118 O   0  0  0  0  0  0  0  0  0  0  0  0
   -2.5135    7.0840   -0.6082 F   0  0  0  0  0  0  0  0  0  0  0  0
   -4.3388    6.3246   -1.5153 F   0  0  0  0  0  0  0  0  0  0  0  0
   -4.3457    6.9783    0.5602 F   0  0  0  0  0  0  0  0  0  0  0  0
  1  4  2  0  0  0  0
  1  8  1  0  0  0  0
  2  1  1  0  0  0  0
  3  2  1  0  0  0  0
  4  5  1  0  0  0  0
  5 10  1  0  0  0  0
  5  6  2  0  0  0  0
  6 11  1  0  0  0  0
  7 12  1  0  0  0  0
  7  6  1  0  0  0  0
  8  7  2  0  0  0  0
  9  4  1  0  0  0  0
 13  8  1  0  0  0  0
 14 17  2  0  0  0  0
 14 18  1  0  0  0  0
 15 14  1  0  0  0  0
 15 21  1  0  0  0  0
 16 14  2  0  0  0  0
 19 15  1  0  0  0  0
 20 15  1  0  0  0  0
M  RAD  3   2   2   3   3  18   2
M  END
