Coordinates from ORCA-job PhN2+~TfO-_B3LYPG-6-31G_dp-NX-Scan-d89-09-n800
 OpenBabel11261920253D

 21 20  0  0  0  0  0  0  0  0999 V2000
   -1.3617    1.0742   -0.5634 C   0  0  0  0  0  0  0  0  0  0  0  0
   -2.2340    0.8940   -1.6259 N   0  0  0  0  0  0  0  0  0  0  0  0
   -2.8786    0.6549   -2.5015 N   0  0  0  0  0  0  0  0  0  0  0  0
   -1.1712    2.3600   -0.0367 C   0  0  0  0  0  0  0  0  0  0  0  0
   -0.2559    2.4705    1.0074 C   0  0  0  0  0  0  0  0  0  0  0  0
    0.4186    1.3481    1.4934 C   0  0  0  0  0  0  0  0  0  0  0  0
    0.1993    0.0760    0.9429 C   0  0  0  0  0  0  0  0  0  0  0  0
   -0.6957   -0.0803   -0.1032 C   0  0  0  0  0  0  0  0  0  0  0  0
   -1.7343    3.2223   -0.4079 H   0  0  0  0  0  0  0  0  0  0  0  0
   -0.0860    3.4478    1.4458 H   0  0  0  0  0  0  0  0  0  0  0  0
    1.1220    1.4581    2.3133 H   0  0  0  0  0  0  0  0  0  0  0  0
    0.7253   -0.7887    1.3319 H   0  0  0  0  0  0  0  0  0  0  0  0
   -0.8892   -1.0481   -0.5520 H   0  0  0  0  0  0  0  0  0  0  0  0
   -4.0738    4.1491   -1.2268 S   0  0  0  0  0  0  0  0  0  0  0  0
   -5.3957    4.4279    0.0461 C   0  0  0  0  0  0  0  0  0  0  0  0
   -2.8615    4.7535   -0.6088 O   0  0  0  0  0  0  0  0  0  0  0  0
   -4.5786    4.7846   -2.4478 O   0  0  0  0  0  0  0  0  0  0  0  0
   -3.9735    2.6535   -1.2801 O   0  0  0  0  0  0  0  0  0  0  0  0
   -5.0507    3.8541    1.2139 F   0  0  0  0  0  0  0  0  0  0  0  0
   -5.5790    5.7376    0.2601 F   0  0  0  0  0  0  0  0  0  0  0  0
   -6.5586    3.8937   -0.3541 F   0  0  0  0  0  0  0  0  0  0  0  0
  1  8  2  0  0  0  0
  1  4  1  0  0  0  0
  2  1  1  0  0  0  0
  3  2  1  0  0  0  0
  4  5  2  0  0  0  0
  5 10  1  0  0  0  0
  5  6  1  0  0  0  0
  6 11  1  0  0  0  0
  7 12  1  0  0  0  0
  7  6  2  0  0  0  0
  8  7  1  0  0  0  0
  9  4  1  0  0  0  0
 13  8  1  0  0  0  0
 14 16  1  0  0  0  0
 14 15  1  0  0  0  0
 15 20  1  0  0  0  0
 15 19  1  0  0  0  0
 17 14  2  0  0  0  0
 18 14  2  0  0  0  0
 21 15  1  0  0  0  0
M  RAD  3   2   2   3   3  16   2
M  END
