Coordinates from ORCA-job PhN2+~TfO-_B3LYPG-6-31G_dp-NX-Scan-d89-09-n800
 OpenBabel11261920253D

 21 20  0  0  0  0  0  0  0  0999 V2000
   -1.5666   -0.7471   -0.1863 C   0  0  0  0  0  0  0  0  0  0  0  0
   -1.7717   -2.0637   -0.4500 N   0  0  0  0  0  0  0  0  0  0  0  0
   -1.9669   -3.1452   -0.6749 N   0  0  0  0  0  0  0  0  0  0  0  0
   -2.6318    0.1559   -0.4392 C   0  0  0  0  0  0  0  0  0  0  0  0
   -2.4051    1.4952   -0.1879 C   0  0  0  0  0  0  0  0  0  0  0  0
   -1.1531    1.9170    0.3015 C   0  0  0  0  0  0  0  0  0  0  0  0
   -0.1202    0.9978    0.5606 C   0  0  0  0  0  0  0  0  0  0  0  0
   -0.3030   -0.3507    0.3175 C   0  0  0  0  0  0  0  0  0  0  0  0
   -3.5799   -0.2079   -0.8205 H   0  0  0  0  0  0  0  0  0  0  0  0
   -3.1776    2.2531   -0.3772 H   0  0  0  0  0  0  0  0  0  0  0  0
   -1.0318    2.9918    0.4556 H   0  0  0  0  0  0  0  0  0  0  0  0
    0.8334    1.3459    0.9434 H   0  0  0  0  0  0  0  0  0  0  0  0
    0.4744   -1.0858    0.4934 H   0  0  0  0  0  0  0  0  0  0  0  0
   -3.0774    5.0060   -0.6453 S   0  0  0  0  0  0  0  0  0  0  0  0
   -4.0002    6.3843    0.1880 C   0  0  0  0  0  0  0  0  0  0  0  0
   -2.6952    5.5397   -1.9615 O   0  0  0  0  0  0  0  0  0  0  0  0
   -4.0828    3.9026   -0.6706 O   0  0  0  0  0  0  0  0  0  0  0  0
   -1.9477    4.7470    0.2933 O   0  0  0  0  0  0  0  0  0  0  0  0
   -3.2224    7.4709    0.3087 F   0  0  0  0  0  0  0  0  0  0  0  0
   -5.0895    6.7215   -0.5198 F   0  0  0  0  0  0  0  0  0  0  0  0
   -4.3975    6.0145    1.4177 F   0  0  0  0  0  0  0  0  0  0  0  0
  1  8  2  0  0  0  0
  2  1  1  0  0  0  0
  3  2  1  0  0  0  0
  4  5  2  0  0  0  0
  4  1  1  0  0  0  0
  5  6  1  0  0  0  0
  6 11  1  0  0  0  0
  6  7  2  0  0  0  0
  7 12  1  0  0  0  0
  8 13  1  0  0  0  0
  8  7  1  0  0  0  0
  9  4  1  0  0  0  0
 10  5  1  0  0  0  0
 14 15  1  0  0  0  0
 14 18  1  0  0  0  0
 15 19  1  0  0  0  0
 15 21  1  0  0  0  0
 16 14  2  0  0  0  0
 17 14  2  0  0  0  0
 20 15  1  0  0  0  0
M  RAD  3   2   2   3   3  18   2
M  END
