Coordinates from ORCA-job PhN2+~TfO-_B3LYPG-6-31G_dp-NX-Scan-d89-09-n800
 OpenBabel11261920253D

 21 20  0  0  0  0  0  0  0  0999 V2000
   -1.5058   -0.3308   -0.3567 C   0  0  0  0  0  0  0  0  0  0  0  0
   -1.4393   -1.5706   -0.8668 N   0  0  0  0  0  0  0  0  0  0  0  0
   -1.3909   -2.6117   -1.3000 N   0  0  0  0  0  0  0  0  0  0  0  0
   -2.6126    0.0126    0.4767 C   0  0  0  0  0  0  0  0  0  0  0  0
   -2.6770    1.2902    0.9647 C   0  0  0  0  0  0  0  0  0  0  0  0
   -1.6853    2.2447    0.6162 C   0  0  0  0  0  0  0  0  0  0  0  0
   -0.5612    1.8621   -0.1585 C   0  0  0  0  0  0  0  0  0  0  0  0
   -0.4673    0.5937   -0.6700 C   0  0  0  0  0  0  0  0  0  0  0  0
   -3.3724   -0.7287    0.6984 H   0  0  0  0  0  0  0  0  0  0  0  0
   -3.5138    1.6193    1.5690 H   0  0  0  0  0  0  0  0  0  0  0  0
   -1.6972    3.2081    1.1040 H   0  0  0  0  0  0  0  0  0  0  0  0
    0.2069    2.5938   -0.3806 H   0  0  0  0  0  0  0  0  0  0  0  0
    0.3656    0.2813   -1.2903 H   0  0  0  0  0  0  0  0  0  0  0  0
   -3.8771    4.3100   -0.3497 S   0  0  0  0  0  0  0  0  0  0  0  0
   -2.8630    5.8581   -0.1760 C   0  0  0  0  0  0  0  0  0  0  0  0
   -2.8692    3.3552   -0.9612 O   0  0  0  0  0  0  0  0  0  0  0  0
   -4.9728    4.6628   -1.2554 O   0  0  0  0  0  0  0  0  0  0  0  0
   -4.2076    3.9607    1.0475 O   0  0  0  0  0  0  0  0  0  0  0  0
   -1.7622    5.6010    0.5727 F   0  0  0  0  0  0  0  0  0  0  0  0
   -2.4518    6.3059   -1.3683 F   0  0  0  0  0  0  0  0  0  0  0  0
   -3.5587    6.8251    0.4304 F   0  0  0  0  0  0  0  0  0  0  0  0
  1  4  1  0  0  0  0
  2  1  1  0  0  0  0
  3  2  1  0  0  0  0
  4  9  1  0  0  0  0
  4  5  2  0  0  0  0
  5 10  1  0  0  0  0
  6  5  1  0  0  0  0
  6 11  1  0  0  0  0
  7  6  2  0  0  0  0
  8  1  2  0  0  0  0
  8  7  1  0  0  0  0
 12  7  1  0  0  0  0
 13  8  1  0  0  0  0
 14 15  1  0  0  0  0
 14 18  1  0  0  0  0
 15 21  1  0  0  0  0
 15 19  1  0  0  0  0
 16 14  2  0  0  0  0
 17 14  2  0  0  0  0
 20 15  1  0  0  0  0
M  RAD  3   2   2   3   3  18   2
M  END
