Coordinates from ORCA-job PhN2+~TfO-_B3LYPG-6-31G_dp-NX-Scan-d89-09-n800
 OpenBabel11261920253D

 21 20  0  0  0  0  0  0  0  0999 V2000
   -1.5515   -0.7429   -0.2208 C   0  0  0  0  0  0  0  0  0  0  0  0
   -1.7354   -2.0509   -0.5376 N   0  0  0  0  0  0  0  0  0  0  0  0
   -1.9129   -3.1251   -0.8077 N   0  0  0  0  0  0  0  0  0  0  0  0
   -2.6369    0.1489   -0.4218 C   0  0  0  0  0  0  0  0  0  0  0  0
   -2.4308    1.4813   -0.1216 C   0  0  0  0  0  0  0  0  0  0  0  0
   -1.1790    1.9077    0.3645 C   0  0  0  0  0  0  0  0  0  0  0  0
   -0.1258    0.9985    0.5724 C   0  0  0  0  0  0  0  0  0  0  0  0
   -0.2878   -0.3427    0.2798 C   0  0  0  0  0  0  0  0  0  0  0  0
   -3.5834   -0.2171   -0.8049 H   0  0  0  0  0  0  0  0  0  0  0  0
   -3.2191    2.2304   -0.2752 H   0  0  0  0  0  0  0  0  0  0  0  0
   -1.0711    2.9787    0.5517 H   0  0  0  0  0  0  0  0  0  0  0  0
    0.8274    1.3495    0.9533 H   0  0  0  0  0  0  0  0  0  0  0  0
    0.5057   -1.0693    0.4149 H   0  0  0  0  0  0  0  0  0  0  0  0
   -3.1016    4.9568   -0.5823 S   0  0  0  0  0  0  0  0  0  0  0  0
   -3.9788    6.4299    0.1284 C   0  0  0  0  0  0  0  0  0  0  0  0
   -2.6956    5.3641   -1.9367 O   0  0  0  0  0  0  0  0  0  0  0  0
   -4.1436    3.8895   -0.5226 O   0  0  0  0  0  0  0  0  0  0  0  0
   -1.9838    4.7379    0.3805 O   0  0  0  0  0  0  0  0  0  0  0  0
   -3.1624    7.4943    0.1668 F   0  0  0  0  0  0  0  0  0  0  0  0
   -5.0506    6.7473   -0.6146 F   0  0  0  0  0  0  0  0  0  0  0  0
   -4.3960    6.1759    1.3800 F   0  0  0  0  0  0  0  0  0  0  0  0
  1  8  1  0  0  0  0
  2  1  1  0  0  0  0
  3  2  1  0  0  0  0
  4  1  2  0  0  0  0
  4  5  1  0  0  0  0
  5  6  2  0  0  0  0
  6 11  1  0  0  0  0
  6  7  1  0  0  0  0
  7 12  1  0  0  0  0
  8 13  1  0  0  0  0
  8  7  2  0  0  0  0
  9  4  1  0  0  0  0
 10  5  1  0  0  0  0
 14 17  2  0  0  0  0
 14 15  1  0  0  0  0
 14 18  1  0  0  0  0
 15 19  1  0  0  0  0
 15 21  1  0  0  0  0
 16 14  2  0  0  0  0
 20 15  1  0  0  0  0
M  RAD  3   2   2   3   3  18   2
M  END
