Coordinates from ORCA-job PhN2+~TfO-_B3LYPG-6-31G_dp-NX-Scan-d89-09-n800
 OpenBabel11261920253D

 21 20  0  0  0  0  0  0  0  0999 V2000
   -1.2874    1.1403   -0.5592 C   0  0  0  0  0  0  0  0  0  0  0  0
   -2.1261    1.0129   -1.6575 N   0  0  0  0  0  0  0  0  0  0  0  0
   -2.9367    1.0744   -2.4297 N   0  0  0  0  0  0  0  0  0  0  0  0
   -1.3204    2.3493    0.1555 C   0  0  0  0  0  0  0  0  0  0  0  0
   -0.4784    2.4387    1.2612 C   0  0  0  0  0  0  0  0  0  0  0  0
    0.3429    1.3673    1.6241 C   0  0  0  0  0  0  0  0  0  0  0  0
    0.3525    0.1772    0.8825 C   0  0  0  0  0  0  0  0  0  0  0  0
   -0.4635    0.0499   -0.2322 C   0  0  0  0  0  0  0  0  0  0  0  0
   -1.9618    3.1679   -0.1827 H   0  0  0  0  0  0  0  0  0  0  0  0
   -0.4695    3.3557    1.8408 H   0  0  0  0  0  0  0  0  0  0  0  0
    0.9869    1.4570    2.4936 H   0  0  0  0  0  0  0  0  0  0  0  0
    0.9957   -0.6456    1.1748 H   0  0  0  0  0  0  0  0  0  0  0  0
   -0.4827   -0.8554   -0.8288 H   0  0  0  0  0  0  0  0  0  0  0  0
   -4.3718    3.9051   -1.5144 S   0  0  0  0  0  0  0  0  0  0  0  0
   -5.1288    4.4120    0.1068 C   0  0  0  0  0  0  0  0  0  0  0  0
   -2.9576    4.3538   -1.3806 O   0  0  0  0  0  0  0  0  0  0  0  0
   -5.1759    4.5635   -2.5449 O   0  0  0  0  0  0  0  0  0  0  0  0
   -4.5019    2.4057   -1.4368 O   0  0  0  0  0  0  0  0  0  0  0  0
   -4.4330    3.8684    1.1289 F   0  0  0  0  0  0  0  0  0  0  0  0
   -5.0970    5.7430    0.2449 F   0  0  0  0  0  0  0  0  0  0  0  0
   -6.3984    4.0017    0.2000 F   0  0  0  0  0  0  0  0  0  0  0  0
  1  8  2  0  0  0  0
  1  4  1  0  0  0  0
  2  1  1  0  0  0  0
  3  2  1  0  0  0  0
  4  5  2  0  0  0  0
  5  6  1  0  0  0  0
  5 10  1  0  0  0  0
  6 11  1  0  0  0  0
  7 12  1  0  0  0  0
  7  6  2  0  0  0  0
  8  7  1  0  0  0  0
  9  4  1  0  0  0  0
 13  8  1  0  0  0  0
 14 18  2  0  0  0  0
 14 16  1  0  0  0  0
 14 15  1  0  0  0  0
 15 21  1  0  0  0  0
 15 20  1  0  0  0  0
 15 19  1  0  0  0  0
 17 14  2  0  0  0  0
M  RAD  3   2   2   3   3  16   2
M  END
