Coordinates from ORCA-job PhN2+~TfO-_B3LYPG-6-31G_dp-NX-Scan-d89-09-n800
 OpenBabel11261920253D

 21 20  0  0  0  0  0  0  0  0999 V2000
   -1.5574   -0.2033   -0.3788 C   0  0  0  0  0  0  0  0  0  0  0  0
   -1.6397   -1.3181   -1.1189 N   0  0  0  0  0  0  0  0  0  0  0  0
   -1.7312   -2.2365   -1.7665 N   0  0  0  0  0  0  0  0  0  0  0  0
   -2.6031    0.0782    0.5493 C   0  0  0  0  0  0  0  0  0  0  0  0
   -2.5958    1.3014    1.1624 C   0  0  0  0  0  0  0  0  0  0  0  0
   -1.6042    2.2577    0.8231 C   0  0  0  0  0  0  0  0  0  0  0  0
   -0.4869    1.8950    0.0312 C   0  0  0  0  0  0  0  0  0  0  0  0
   -0.4670    0.6842   -0.6091 C   0  0  0  0  0  0  0  0  0  0  0  0
   -3.3875   -0.6510    0.7191 H   0  0  0  0  0  0  0  0  0  0  0  0
   -3.4001    1.5994    1.8236 H   0  0  0  0  0  0  0  0  0  0  0  0
   -1.6221    3.2204    1.3151 H   0  0  0  0  0  0  0  0  0  0  0  0
    0.3072    2.6132   -0.1373 H   0  0  0  0  0  0  0  0  0  0  0  0
    0.3289    0.3994   -1.2881 H   0  0  0  0  0  0  0  0  0  0  0  0
   -3.8412    4.1438   -0.3834 S   0  0  0  0  0  0  0  0  0  0  0  0
   -2.8692    5.7268   -0.3189 C   0  0  0  0  0  0  0  0  0  0  0  0
   -2.7926    3.1646   -0.8769 O   0  0  0  0  0  0  0  0  0  0  0  0
   -4.9146    4.3857   -1.3511 O   0  0  0  0  0  0  0  0  0  0  0  0
   -4.2098    3.9102    1.0277 O   0  0  0  0  0  0  0  0  0  0  0  0
   -1.7939    5.5722    0.4914 F   0  0  0  0  0  0  0  0  0  0  0  0
   -2.4212    6.0716   -1.5325 F   0  0  0  0  0  0  0  0  0  0  0  0
   -3.6114    6.7278    0.1651 F   0  0  0  0  0  0  0  0  0  0  0  0
  1  4  1  0  0  0  0
  2  1  1  0  0  0  0
  3  2  1  0  0  0  0
  4  9  1  0  0  0  0
  4  5  2  0  0  0  0
  5 10  1  0  0  0  0
  6  5  1  0  0  0  0
  6 11  1  0  0  0  0
  7  6  2  0  0  0  0
  8  1  2  0  0  0  0
  8  7  1  0  0  0  0
 12  7  1  0  0  0  0
 13  8  1  0  0  0  0
 14 15  1  0  0  0  0
 14 18  1  0  0  0  0
 15 21  1  0  0  0  0
 15 19  1  0  0  0  0
 16 14  2  0  0  0  0
 17 14  2  0  0  0  0
 20 15  1  0  0  0  0
M  RAD  3   2   2   3   3  18   2
M  END
