Coordinates from ORCA-job PhN2+~TfO-_B3LYPG-6-31G_dp-NX-Scan-d89-09-n800
 OpenBabel11261920253D

 21 21  0  0  0  0  0  0  0  0999 V2000
   -1.4195    1.3011   -0.1216 C   0  0  0  0  0  0  0  0  0  0  0  0
   -2.6412    1.0038   -0.7826 N   0  0  0  0  0  0  0  0  0  0  0  0
   -3.5290    1.7722   -1.1666 N   0  0  0  0  0  0  0  0  0  0  0  0
   -0.8310    2.5546    0.1549 C   0  0  0  0  0  0  0  0  0  0  0  0
    0.4029    2.6013    0.8012 C   0  0  0  0  0  0  0  0  0  0  0  0
    1.0601    1.4301    1.1850 C   0  0  0  0  0  0  0  0  0  0  0  0
    0.4831    0.1877    0.9126 C   0  0  0  0  0  0  0  0  0  0  0  0
   -0.7423    0.1268    0.2591 C   0  0  0  0  0  0  0  0  0  0  0  0
   -1.3136    3.4755   -0.1323 H   0  0  0  0  0  0  0  0  0  0  0  0
    0.8527    3.5675    1.0084 H   0  0  0  0  0  0  0  0  0  0  0  0
    2.0195    1.4870    1.6901 H   0  0  0  0  0  0  0  0  0  0  0  0
    0.9884   -0.7278    1.2033 H   0  0  0  0  0  0  0  0  0  0  0  0
   -1.2095   -0.8234    0.0243 H   0  0  0  0  0  0  0  0  0  0  0  0
   -4.4945    4.1005   -1.5283 S   0  0  0  0  0  0  0  0  0  0  0  0
   -5.8438    3.8300   -0.2519 C   0  0  0  0  0  0  0  0  0  0  0  0
   -3.3090    3.0783   -0.9029 O   0  0  0  0  0  0  0  0  0  0  0  0
   -3.9394    5.4219   -1.3146 O   0  0  0  0  0  0  0  0  0  0  0  0
   -4.9725    3.6125   -2.8048 O   0  0  0  0  0  0  0  0  0  0  0  0
   -6.2837    2.5799   -0.3107 F   0  0  0  0  0  0  0  0  0  0  0  0
   -5.3590    4.0875    0.9588 F   0  0  0  0  0  0  0  0  0  0  0  0
   -6.8314    4.6760   -0.5350 F   0  0  0  0  0  0  0  0  0  0  0  0
  1  4  2  0  0  0  0
  1  8  1  0  0  0  0
  2  1  1  0  0  0  0
  3 16  1  0  0  0  0
  3  2  2  0  0  0  0
  4  5  1  0  0  0  0
  5 10  1  0  0  0  0
  5  6  2  0  0  0  0
  6 11  1  0  0  0  0
  7  6  1  0  0  0  0
  7 12  1  0  0  0  0
  8  7  2  0  0  0  0
  9  4  1  0  0  0  0
 13  8  1  0  0  0  0
 14 17  2  0  0  0  0
 14 16  1  0  0  0  0
 14 15  1  0  0  0  0
 15 20  1  0  0  0  0
 18 14  2  0  0  0  0
 19 15  1  0  0  0  0
 21 15  1  0  0  0  0
M  END
