Coordinates from ORCA-job PhN2+~TfO-_B3LYPG-6-31G_dp-NX-Scan-d89-09-n800
 OpenBabel11261920253D

 21 20  0  0  0  0  0  0  0  0999 V2000
   -1.5681   -0.7473   -0.1832 C   0  0  0  0  0  0  0  0  0  0  0  0
   -1.7748   -2.0647   -0.4420 N   0  0  0  0  0  0  0  0  0  0  0  0
   -1.9711   -3.1469   -0.6627 N   0  0  0  0  0  0  0  0  0  0  0  0
   -2.6317    0.1563   -0.4408 C   0  0  0  0  0  0  0  0  0  0  0  0
   -2.4035    1.4961   -0.1939 C   0  0  0  0  0  0  0  0  0  0  0  0
   -1.1516    1.9179    0.2958 C   0  0  0  0  0  0  0  0  0  0  0  0
   -0.1203    0.9982    0.5597 C   0  0  0  0  0  0  0  0  0  0  0  0
   -0.3047   -0.3509    0.3210 C   0  0  0  0  0  0  0  0  0  0  0  0
   -3.5798   -0.2076   -0.8221 H   0  0  0  0  0  0  0  0  0  0  0  0
   -3.1745    2.2547   -0.3865 H   0  0  0  0  0  0  0  0  0  0  0  0
   -1.0292    2.9930    0.4469 H   0  0  0  0  0  0  0  0  0  0  0  0
    0.8331    1.3462    0.9427 H   0  0  0  0  0  0  0  0  0  0  0  0
    0.4714   -1.0865    0.5007 H   0  0  0  0  0  0  0  0  0  0  0  0
   -3.0747    5.0109   -0.6513 S   0  0  0  0  0  0  0  0  0  0  0  0
   -4.0016    6.3794    0.1935 C   0  0  0  0  0  0  0  0  0  0  0  0
   -2.6955    5.5566   -1.9634 O   0  0  0  0  0  0  0  0  0  0  0  0
   -4.0762    3.9043   -0.6845 O   0  0  0  0  0  0  0  0  0  0  0  0
   -1.9433    4.7485    0.2844 O   0  0  0  0  0  0  0  0  0  0  0  0
   -3.2278    7.4680    0.3216 F   0  0  0  0  0  0  0  0  0  0  0  0
   -5.0931    6.7178   -0.5103 F   0  0  0  0  0  0  0  0  0  0  0  0
   -4.3959    5.9988    1.4210 F   0  0  0  0  0  0  0  0  0  0  0  0
  1  8  2  0  0  0  0
  2  1  1  0  0  0  0
  3  2  1  0  0  0  0
  4  5  2  0  0  0  0
  4  1  1  0  0  0  0
  5  6  1  0  0  0  0
  6 11  1  0  0  0  0
  6  7  2  0  0  0  0
  7 12  1  0  0  0  0
  8 13  1  0  0  0  0
  8  7  1  0  0  0  0
  9  4  1  0  0  0  0
 10  5  1  0  0  0  0
 14 15  1  0  0  0  0
 14 18  1  0  0  0  0
 15 19  1  0  0  0  0
 15 21  1  0  0  0  0
 16 14  2  0  0  0  0
 17 14  2  0  0  0  0
 20 15  1  0  0  0  0
M  RAD  3   2   2   3   3  18   2
M  END
