Coordinates from ORCA-job PhN2+~TfO-_B3LYPG-6-31G_dp-NX-Scan-d89-09-n800
 OpenBabel11261920253D

 21 20  0  0  0  0  0  0  0  0999 V2000
   -1.5454   -0.2206   -0.3792 C   0  0  0  0  0  0  0  0  0  0  0  0
   -1.5953   -1.3534   -1.0932 N   0  0  0  0  0  0  0  0  0  0  0  0
   -1.6582   -2.2920   -1.7155 N   0  0  0  0  0  0  0  0  0  0  0  0
   -2.6037    0.0574    0.5367 C   0  0  0  0  0  0  0  0  0  0  0  0
   -2.6202    1.2868    1.1358 C   0  0  0  0  0  0  0  0  0  0  0  0
   -1.6400    2.2562    0.7959 C   0  0  0  0  0  0  0  0  0  0  0  0
   -0.5144    1.9025    0.0098 C   0  0  0  0  0  0  0  0  0  0  0  0
   -0.4707    0.6851   -0.6157 C   0  0  0  0  0  0  0  0  0  0  0  0
   -3.3759   -0.6835    0.7122 H   0  0  0  0  0  0  0  0  0  0  0  0
   -3.4310    1.5782    1.7921 H   0  0  0  0  0  0  0  0  0  0  0  0
   -1.6644    3.2143    1.2959 H   0  0  0  0  0  0  0  0  0  0  0  0
    0.2691    2.6316   -0.1617 H   0  0  0  0  0  0  0  0  0  0  0  0
    0.3352    0.4050   -1.2849 H   0  0  0  0  0  0  0  0  0  0  0  0
   -3.8495    4.1754   -0.3616 S   0  0  0  0  0  0  0  0  0  0  0  0
   -2.8493    5.7416   -0.3145 C   0  0  0  0  0  0  0  0  0  0  0  0
   -2.8230    3.1776   -0.8692 O   0  0  0  0  0  0  0  0  0  0  0  0
   -4.9317    4.4321   -1.3148 O   0  0  0  0  0  0  0  0  0  0  0  0
   -4.1995    3.9483    1.0549 O   0  0  0  0  0  0  0  0  0  0  0  0
   -1.7598    5.5649    0.4718 F   0  0  0  0  0  0  0  0  0  0  0  0
   -2.4218    6.0819   -1.5365 F   0  0  0  0  0  0  0  0  0  0  0  0
   -3.5632    6.7535    0.1882 F   0  0  0  0  0  0  0  0  0  0  0  0
  1  4  1  0  0  0  0
  2  1  1  0  0  0  0
  3  2  1  0  0  0  0
  4  9  1  0  0  0  0
  4  5  2  0  0  0  0
  5 10  1  0  0  0  0
  6  5  1  0  0  0  0
  6 11  1  0  0  0  0
  7  6  2  0  0  0  0
  8  1  2  0  0  0  0
  8  7  1  0  0  0  0
 12  7  1  0  0  0  0
 13  8  1  0  0  0  0
 14 15  1  0  0  0  0
 14 18  1  0  0  0  0
 15 21  1  0  0  0  0
 15 19  1  0  0  0  0
 16 14  2  0  0  0  0
 17 14  2  0  0  0  0
 20 15  1  0  0  0  0
M  RAD  3   2   2   3   3  18   2
M  END
