Coordinates from ORCA-job PhN2+~TfO-_B3LYPG-6-31G_dp-NX-Scan-d89-09-n800
 OpenBabel11261920253D

 21 20  0  0  0  0  0  0  0  0999 V2000
   -1.5408   -0.7362   -0.2496 C   0  0  0  0  0  0  0  0  0  0  0  0
   -1.7037   -2.0353   -0.6112 N   0  0  0  0  0  0  0  0  0  0  0  0
   -1.8631   -3.1022   -0.9189 N   0  0  0  0  0  0  0  0  0  0  0  0
   -2.6450    0.1412   -0.4065 C   0  0  0  0  0  0  0  0  0  0  0  0
   -2.4593    1.4665   -0.0642 C   0  0  0  0  0  0  0  0  0  0  0  0
   -1.2090    1.9002    0.4198 C   0  0  0  0  0  0  0  0  0  0  0  0
   -0.1369    1.0042    0.5839 C   0  0  0  0  0  0  0  0  0  0  0  0
   -0.2783   -0.3294    0.2485 C   0  0  0  0  0  0  0  0  0  0  0  0
   -3.5891   -0.2290   -0.7914 H   0  0  0  0  0  0  0  0  0  0  0  0
   -3.2614    2.2058   -0.1876 H   0  0  0  0  0  0  0  0  0  0  0  0
   -1.1149    2.9673    0.6355 H   0  0  0  0  0  0  0  0  0  0  0  0
    0.8149    1.3602    0.9635 H   0  0  0  0  0  0  0  0  0  0  0  0
    0.5303   -1.0449    0.3487 H   0  0  0  0  0  0  0  0  0  0  0  0
   -3.1146    4.9196   -0.5332 S   0  0  0  0  0  0  0  0  0  0  0  0
   -3.9543    6.4574    0.0786 C   0  0  0  0  0  0  0  0  0  0  0  0
   -2.6991    5.2268   -1.9116 O   0  0  0  0  0  0  0  0  0  0  0  0
   -4.1816    3.8839   -0.4056 O   0  0  0  0  0  0  0  0  0  0  0  0
   -2.0008    4.7366    0.4418 O   0  0  0  0  0  0  0  0  0  0  0  0
   -3.1111    7.5011    0.0474 F   0  0  0  0  0  0  0  0  0  0  0  0
   -5.0179    6.7521   -0.6850 F   0  0  0  0  0  0  0  0  0  0  0  0
   -4.3768    6.2970    1.3435 F   0  0  0  0  0  0  0  0  0  0  0  0
  1  8  1  0  0  0  0
  2  1  1  0  0  0  0
  3  2  1  0  0  0  0
  4  1  2  0  0  0  0
  4  5  1  0  0  0  0
  5  6  2  0  0  0  0
  6  7  1  0  0  0  0
  6 11  1  0  0  0  0
  7 12  1  0  0  0  0
  8 13  1  0  0  0  0
  8  7  2  0  0  0  0
  9  4  1  0  0  0  0
 10  5  1  0  0  0  0
 14 17  2  0  0  0  0
 14 15  1  0  0  0  0
 14 18  1  0  0  0  0
 15 21  1  0  0  0  0
 16 14  2  0  0  0  0
 19 15  1  0  0  0  0
 20 15  1  0  0  0  0
M  RAD  3   2   2   3   3  18   2
M  END
