Coordinates from ORCA-job PhN2+~TfO-_B3LYPG-6-31G_dp-NX-Scan-d89-09-n800
 OpenBabel11261920253D

 21 20  0  0  0  0  0  0  0  0999 V2000
   -1.5450    1.0377   -0.1571 C   0  0  0  0  0  0  0  0  0  0  0  0
   -2.7905    0.9811   -0.7824 N   0  0  0  0  0  0  0  0  0  0  0  0
   -3.8584    1.3133   -0.9701 N   0  0  0  0  0  0  0  0  0  0  0  0
   -1.3801    1.8918    0.9460 C   0  0  0  0  0  0  0  0  0  0  0  0
   -0.1223    1.9287    1.5388 C   0  0  0  0  0  0  0  0  0  0  0  0
    0.9220    1.1424    1.0404 C   0  0  0  0  0  0  0  0  0  0  0  0
    0.7277    0.2990   -0.0595 C   0  0  0  0  0  0  0  0  0  0  0  0
   -0.5185    0.2353   -0.6716 C   0  0  0  0  0  0  0  0  0  0  0  0
   -2.2167    2.4876    1.2931 H   0  0  0  0  0  0  0  0  0  0  0  0
    0.0421    2.5798    2.3907 H   0  0  0  0  0  0  0  0  0  0  0  0
    1.8985    1.1878    1.5127 H   0  0  0  0  0  0  0  0  0  0  0  0
    1.5458   -0.3035   -0.4386 H   0  0  0  0  0  0  0  0  0  0  0  0
   -0.7037   -0.4030   -1.5282 H   0  0  0  0  0  0  0  0  0  0  0  0
   -3.9823    4.1577   -0.3978 S   0  0  0  0  0  0  0  0  0  0  0  0
   -5.6637    4.6170   -1.0374 C   0  0  0  0  0  0  0  0  0  0  0  0
   -3.5700    5.2452    0.4898 O   0  0  0  0  0  0  0  0  0  0  0  0
   -3.1750    3.8861   -1.6011 O   0  0  0  0  0  0  0  0  0  0  0  0
   -4.2802    2.8745    0.3811 O   0  0  0  0  0  0  0  0  0  0  0  0
   -6.5075    4.8390   -0.0242 F   0  0  0  0  0  0  0  0  0  0  0  0
   -5.5839    5.7239   -1.7847 F   0  0  0  0  0  0  0  0  0  0  0  0
   -6.1512    3.6215   -1.7935 F   0  0  0  0  0  0  0  0  0  0  0  0
  1  4  1  0  0  0  0
  2  1  1  0  0  0  0
  3  2  2  0  0  0  0
  4  9  1  0  0  0  0
  4  5  2  0  0  0  0
  5 10  1  0  0  0  0
  6 11  1  0  0  0  0
  6  5  1  0  0  0  0
  7  6  2  0  0  0  0
  8  1  2  0  0  0  0
  8  7  1  0  0  0  0
 12  7  1  0  0  0  0
 13  8  1  0  0  0  0
 14 18  2  0  0  0  0
 14 16  1  0  0  0  0
 15 14  1  0  0  0  0
 15 19  1  0  0  0  0
 17 14  2  0  0  0  0
 20 15  1  0  0  0  0
 21 15  1  0  0  0  0
M  RAD  2   3   2  16   2
M  END
