Coordinates from ORCA-job PhN2+~TfO-_B3LYPG-6-31G_dp-NX-Scan-d89-09-n800
 OpenBabel11261920253D

 21 20  0  0  0  0  0  0  0  0999 V2000
   -1.2681    1.2969   -0.5661 C   0  0  0  0  0  0  0  0  0  0  0  0
   -2.0456    1.2912   -1.7147 N   0  0  0  0  0  0  0  0  0  0  0  0
   -2.8022    1.4319   -2.5261 N   0  0  0  0  0  0  0  0  0  0  0  0
   -1.3230    2.4377    0.2505 C   0  0  0  0  0  0  0  0  0  0  0  0
   -0.5425    2.4193    1.4025 C   0  0  0  0  0  0  0  0  0  0  0  0
    0.2470    1.3074    1.7118 C   0  0  0  0  0  0  0  0  0  0  0  0
    0.2802    0.1874    0.8702 C   0  0  0  0  0  0  0  0  0  0  0  0
   -0.4783    0.1694   -0.2923 C   0  0  0  0  0  0  0  0  0  0  0  0
   -1.9505    3.2734   -0.0466 H   0  0  0  0  0  0  0  0  0  0  0  0
   -0.5580    3.2800    2.0628 H   0  0  0  0  0  0  0  0  0  0  0  0
    0.8442    1.3104    2.6183 H   0  0  0  0  0  0  0  0  0  0  0  0
    0.8964   -0.6689    1.1219 H   0  0  0  0  0  0  0  0  0  0  0  0
   -0.4773   -0.6814   -0.9646 H   0  0  0  0  0  0  0  0  0  0  0  0
   -4.5235    3.6689   -1.5852 S   0  0  0  0  0  0  0  0  0  0  0  0
   -4.9250    4.3925    0.0818 C   0  0  0  0  0  0  0  0  0  0  0  0
   -3.0712    3.9833   -1.7436 O   0  0  0  0  0  0  0  0  0  0  0  0
   -5.4428    4.3279   -2.5144 O   0  0  0  0  0  0  0  0  0  0  0  0
   -4.7340    2.2015   -1.3621 O   0  0  0  0  0  0  0  0  0  0  0  0
   -4.0774    3.9010    1.0199 F   0  0  0  0  0  0  0  0  0  0  0  0
   -4.7895    5.7236    0.0671 F   0  0  0  0  0  0  0  0  0  0  0  0
   -6.1717    4.0895    0.4552 F   0  0  0  0  0  0  0  0  0  0  0  0
  1  8  2  0  0  0  0
  1  4  1  0  0  0  0
  2  1  1  0  0  0  0
  3  2  1  0  0  0  0
  4  5  2  0  0  0  0
  5  6  1  0  0  0  0
  5 10  1  0  0  0  0
  6 11  1  0  0  0  0
  7 12  1  0  0  0  0
  7  6  2  0  0  0  0
  8  7  1  0  0  0  0
  9  4  1  0  0  0  0
 13  8  1  0  0  0  0
 14 18  1  0  0  0  0
 14 15  1  0  0  0  0
 15 21  1  0  0  0  0
 15 19  1  0  0  0  0
 16 14  2  0  0  0  0
 17 14  2  0  0  0  0
 20 15  1  0  0  0  0
M  RAD  3   2   2   3   3  18   2
M  END
