Coordinates from ORCA-job PhN2+~TfO-_B3LYPG-6-31G_dp-NX-Scan-d89-09-n800
 OpenBabel11261920253D

 21 20  0  0  0  0  0  0  0  0999 V2000
   -1.5424    0.9704   -0.1813 C   0  0  0  0  0  0  0  0  0  0  0  0
   -2.7671    0.8072   -0.8237 N   0  0  0  0  0  0  0  0  0  0  0  0
   -3.8453    1.0053   -1.0949 N   0  0  0  0  0  0  0  0  0  0  0  0
   -1.4487    1.9073    0.8614 C   0  0  0  0  0  0  0  0  0  0  0  0
   -0.2068    2.0522    1.4711 C   0  0  0  0  0  0  0  0  0  0  0  0
    0.8869    1.2891    1.0497 C   0  0  0  0  0  0  0  0  0  0  0  0
    0.7616    0.3611    0.0088 C   0  0  0  0  0  0  0  0  0  0  0  0
   -0.4643    0.1896   -0.6212 C   0  0  0  0  0  0  0  0  0  0  0  0
   -2.3126    2.4929    1.1550 H   0  0  0  0  0  0  0  0  0  0  0  0
   -0.0957    2.7729    2.2741 H   0  0  0  0  0  0  0  0  0  0  0  0
    1.8493    1.4205    1.5347 H   0  0  0  0  0  0  0  0  0  0  0  0
    1.6181   -0.2221   -0.3112 H   0  0  0  0  0  0  0  0  0  0  0  0
   -0.5971   -0.5148   -1.4348 H   0  0  0  0  0  0  0  0  0  0  0  0
   -4.0112    3.9262   -0.4693 S   0  0  0  0  0  0  0  0  0  0  0  0
   -5.5982    4.7814   -0.9146 C   0  0  0  0  0  0  0  0  0  0  0  0
   -3.3444    4.8088    0.4984 O   0  0  0  0  0  0  0  0  0  0  0  0
   -3.3239    3.6745   -1.7509 O   0  0  0  0  0  0  0  0  0  0  0  0
   -4.4954    2.6373    0.1782 O   0  0  0  0  0  0  0  0  0  0  0  0
   -6.3224    5.0223    0.1844 F   0  0  0  0  0  0  0  0  0  0  0  0
   -5.3341    5.9447   -1.5218 F   0  0  0  0  0  0  0  0  0  0  0  0
   -6.3190    4.0161   -1.7457 F   0  0  0  0  0  0  0  0  0  0  0  0
  1  4  1  0  0  0  0
  2  1  1  0  0  0  0
  3  2  1  0  0  0  0
  4  9  1  0  0  0  0
  4  5  2  0  0  0  0
  5 10  1  0  0  0  0
  6  5  1  0  0  0  0
  6 11  1  0  0  0  0
  7  6  2  0  0  0  0
  8  1  2  0  0  0  0
  8  7  1  0  0  0  0
 12  7  1  0  0  0  0
 13  8  1  0  0  0  0
 14 18  2  0  0  0  0
 14 16  1  0  0  0  0
 15 14  1  0  0  0  0
 15 19  1  0  0  0  0
 17 14  2  0  0  0  0
 20 15  1  0  0  0  0
 21 15  1  0  0  0  0
M  RAD  3   2   2   3   3  16   2
M  END
