Coordinates from ORCA-job PhN2+~TfO-_B3LYPG-6-31G_dp-NX-Scan-d89-09-n800
 OpenBabel11261920253D

 21 20  0  0  0  0  0  0  0  0999 V2000
   -1.6007   -0.1236   -0.3794 C   0  0  0  0  0  0  0  0  0  0  0  0
   -1.7880   -1.1682   -1.2057 N   0  0  0  0  0  0  0  0  0  0  0  0
   -1.9730   -2.0120   -1.9272 N   0  0  0  0  0  0  0  0  0  0  0  0
   -2.6048    0.1592    0.5880 C   0  0  0  0  0  0  0  0  0  0  0  0
   -2.5143    1.3503    1.2615 C   0  0  0  0  0  0  0  0  0  0  0  0
   -1.4765    2.2561    0.9448 C   0  0  0  0  0  0  0  0  0  0  0  0
   -0.3981    1.8772    0.1175 C   0  0  0  0  0  0  0  0  0  0  0  0
   -0.4608    0.7004   -0.5863 C   0  0  0  0  0  0  0  0  0  0  0  0
   -3.4339   -0.5250    0.7283 H   0  0  0  0  0  0  0  0  0  0  0  0
   -3.2975    1.6632    1.9399 H   0  0  0  0  0  0  0  0  0  0  0  0
   -1.4702    3.2282    1.4212 H   0  0  0  0  0  0  0  0  0  0  0  0
    0.4294    2.5597   -0.0387 H   0  0  0  0  0  0  0  0  0  0  0  0
    0.2971    0.4113   -1.3056 H   0  0  0  0  0  0  0  0  0  0  0  0
   -3.8190    4.0248   -0.4702 S   0  0  0  0  0  0  0  0  0  0  0  0
   -2.9258    5.6497   -0.3482 C   0  0  0  0  0  0  0  0  0  0  0  0
   -2.7162    3.1051   -0.9334 O   0  0  0  0  0  0  0  0  0  0  0  0
   -4.8742    4.2393   -1.4667 O   0  0  0  0  0  0  0  0  0  0  0  0
   -4.2350    3.7645    0.9253 O   0  0  0  0  0  0  0  0  0  0  0  0
   -1.8831    5.5415    0.5130 F   0  0  0  0  0  0  0  0  0  0  0  0
   -2.4343    6.0262   -1.5364 F   0  0  0  0  0  0  0  0  0  0  0  0
   -3.7338    6.6148    0.1046 F   0  0  0  0  0  0  0  0  0  0  0  0
  1  4  1  0  0  0  0
  2  1  1  0  0  0  0
  3  2  1  0  0  0  0
  4  9  1  0  0  0  0
  4  5  2  0  0  0  0
  5 10  1  0  0  0  0
  6  5  1  0  0  0  0
  6 11  1  0  0  0  0
  7  6  2  0  0  0  0
  8  1  2  0  0  0  0
  8  7  1  0  0  0  0
 12  7  1  0  0  0  0
 13  8  1  0  0  0  0
 14 15  1  0  0  0  0
 14 18  1  0  0  0  0
 15 21  1  0  0  0  0
 15 19  1  0  0  0  0
 16 14  2  0  0  0  0
 17 14  2  0  0  0  0
 20 15  1  0  0  0  0
M  RAD  3   2   2   3   3  18   2
M  END
