Coordinates from ORCA-job PhN2+~TfO-_B3LYPG-6-31G_dp-NX-Scan-d89-09-n800
 OpenBabel11261920253D

 21 20  0  0  0  0  0  0  0  0999 V2000
   -1.4741    1.4039   -0.3115 C   0  0  0  0  0  0  0  0  0  0  0  0
   -2.4835    1.3075   -1.2643 N   0  0  0  0  0  0  0  0  0  0  0  0
   -3.2625    1.0243   -2.0197 N   0  0  0  0  0  0  0  0  0  0  0  0
   -1.1669    2.6421    0.2677 C   0  0  0  0  0  0  0  0  0  0  0  0
   -0.1513    2.6607    1.2197 C   0  0  0  0  0  0  0  0  0  0  0  0
    0.5178    1.4857    1.5717 C   0  0  0  0  0  0  0  0  0  0  0  0
    0.1875    0.2613    0.9755 C   0  0  0  0  0  0  0  0  0  0  0  0
   -0.8162    0.2040    0.0198 C   0  0  0  0  0  0  0  0  0  0  0  0
   -1.7163    3.5212   -0.0562 H   0  0  0  0  0  0  0  0  0  0  0  0
    0.1161    3.6016    1.6880 H   0  0  0  0  0  0  0  0  0  0  0  0
    1.3061    1.5197    2.3177 H   0  0  0  0  0  0  0  0  0  0  0  0
    0.7126   -0.6450    1.2565 H   0  0  0  0  0  0  0  0  0  0  0  0
   -1.0960   -0.7272   -0.4597 H   0  0  0  0  0  0  0  0  0  0  0  0
   -4.3678    4.0330   -1.7714 S   0  0  0  0  0  0  0  0  0  0  0  0
   -5.0260    3.7950   -0.0499 C   0  0  0  0  0  0  0  0  0  0  0  0
   -2.8979    4.1064   -1.5250 O   0  0  0  0  0  0  0  0  0  0  0  0
   -5.0103    5.2481   -2.2688 O   0  0  0  0  0  0  0  0  0  0  0  0
   -4.7608    2.7548   -2.4412 O   0  0  0  0  0  0  0  0  0  0  0  0
   -4.4540    2.6882    0.4996 F   0  0  0  0  0  0  0  0  0  0  0  0
   -4.7203    4.8361    0.7361 F   0  0  0  0  0  0  0  0  0  0  0  0
   -6.3492    3.6213   -0.0383 F   0  0  0  0  0  0  0  0  0  0  0  0
  1  8  2  0  0  0  0
  1  4  1  0  0  0  0
  2  1  1  0  0  0  0
  3  2  1  0  0  0  0
  4  5  2  0  0  0  0
  5  6  1  0  0  0  0
  5 10  1  0  0  0  0
  6 11  1  0  0  0  0
  7 12  1  0  0  0  0
  7  6  2  0  0  0  0
  8  7  1  0  0  0  0
  9  4  1  0  0  0  0
 13  8  1  0  0  0  0
 14 16  1  0  0  0  0
 14 15  1  0  0  0  0
 15 21  1  0  0  0  0
 15 19  1  0  0  0  0
 15 20  1  0  0  0  0
 17 14  2  0  0  0  0
 18 14  2  0  0  0  0
M  RAD  3   2   2   3   3  16   2
M  END
