Coordinates from ORCA-job PhN2+~TfO-_B3LYPG-6-31G_dp-NX-Scan-d89-09-n800
 OpenBabel11261920253D

 21 20  0  0  0  0  0  0  0  0999 V2000
   -1.2727    1.0701   -0.4390 C   0  0  0  0  0  0  0  0  0  0  0  0
   -2.2815    1.0056   -1.3969 N   0  0  0  0  0  0  0  0  0  0  0  0
   -3.2392    1.2012   -1.9577 N   0  0  0  0  0  0  0  0  0  0  0  0
   -1.2196    2.2042    0.3866 C   0  0  0  0  0  0  0  0  0  0  0  0
   -0.1964    2.2395    1.3303 C   0  0  0  0  0  0  0  0  0  0  0  0
    0.7170    1.1862    1.4352 C   0  0  0  0  0  0  0  0  0  0  0  0
    0.6358    0.0714    0.5901 C   0  0  0  0  0  0  0  0  0  0  0  0
   -0.3631    0.0037   -0.3713 C   0  0  0  0  0  0  0  0  0  0  0  0
   -1.9364    3.0186    0.2583 H   0  0  0  0  0  0  0  0  0  0  0  0
   -0.1160    3.1012    1.9849 H   0  0  0  0  0  0  0  0  0  0  0  0
    1.5064    1.2339    2.1795 H   0  0  0  0  0  0  0  0  0  0  0  0
    1.3525   -0.7380    0.6801 H   0  0  0  0  0  0  0  0  0  0  0  0
   -0.4550   -0.8414   -1.0447 H   0  0  0  0  0  0  0  0  0  0  0  0
   -4.2528    3.8892   -1.0839 S   0  0  0  0  0  0  0  0  0  0  0  0
   -5.7000    4.7510   -0.2962 C   0  0  0  0  0  0  0  0  0  0  0  0
   -3.0564    4.5078   -0.4627 O   0  0  0  0  0  0  0  0  0  0  0  0
   -4.4142    4.0725   -2.5313 O   0  0  0  0  0  0  0  0  0  0  0  0
   -4.4462    2.4623   -0.6131 O   0  0  0  0  0  0  0  0  0  0  0  0
   -5.6627    4.6057    1.0358 F   0  0  0  0  0  0  0  0  0  0  0  0
   -5.6621    6.0571   -0.5862 F   0  0  0  0  0  0  0  0  0  0  0  0
   -6.8500    4.2408   -0.7513 F   0  0  0  0  0  0  0  0  0  0  0  0
  1  8  2  0  0  0  0
  1  4  1  0  0  0  0
  2  1  1  0  0  0  0
  3  2  1  0  0  0  0
  4  5  2  0  0  0  0
  5  6  1  0  0  0  0
  5 10  1  0  0  0  0
  6 11  1  0  0  0  0
  7 12  1  0  0  0  0
  7  6  2  0  0  0  0
  8  7  1  0  0  0  0
  9  4  1  0  0  0  0
 13  8  1  0  0  0  0
 14 18  2  0  0  0  0
 14 16  1  0  0  0  0
 14 15  1  0  0  0  0
 15 19  1  0  0  0  0
 17 14  2  0  0  0  0
 20 15  1  0  0  0  0
 21 15  1  0  0  0  0
M  RAD  3   2   2   3   3  16   2
M  END
