Coordinates from ORCA-job PhN2+~TfO-_B3LYPG-6-31G_dp-NX-Scan-d89-09-n800
 OpenBabel11261920253D

 21 20  0  0  0  0  0  0  0  0999 V2000
   -1.5241   -0.6833   -0.3419 C   0  0  0  0  0  0  0  0  0  0  0  0
   -1.6314   -1.9407   -0.8439 N   0  0  0  0  0  0  0  0  0  0  0  0
   -1.7415   -2.9742   -1.2658 N   0  0  0  0  0  0  0  0  0  0  0  0
   -2.6845    0.1333   -0.3357 C   0  0  0  0  0  0  0  0  0  0  0  0
   -2.5541    1.4214    0.1452 C   0  0  0  0  0  0  0  0  0  0  0  0
   -1.3035    1.8792    0.6062 C   0  0  0  0  0  0  0  0  0  0  0  0
   -0.1733    1.0412    0.6050 C   0  0  0  0  0  0  0  0  0  0  0  0
   -0.2583   -0.2531    0.1279 C   0  0  0  0  0  0  0  0  0  0  0  0
   -3.6266   -0.2497   -0.7124 H   0  0  0  0  0  0  0  0  0  0  0  0
   -3.3975    2.1209    0.1324 H   0  0  0  0  0  0  0  0  0  0  0  0
   -1.2466    2.9238    0.9208 H   0  0  0  0  0  0  0  0  0  0  0  0
    0.7790    1.4149    0.9656 H   0  0  0  0  0  0  0  0  0  0  0  0
    0.5954   -0.9209    0.0983 H   0  0  0  0  0  0  0  0  0  0  0  0
   -3.1291    4.8008   -0.3721 S   0  0  0  0  0  0  0  0  0  0  0  0
   -3.8684    6.4808   -0.0965 C   0  0  0  0  0  0  0  0  0  0  0  0
   -2.6718    4.8026   -1.7735 O   0  0  0  0  0  0  0  0  0  0  0  0
   -4.2646    3.8793   -0.0789 O   0  0  0  0  0  0  0  0  0  0  0  0
   -2.0413    4.7386    0.6465 O   0  0  0  0  0  0  0  0  0  0  0  0
   -2.9497    7.4394   -0.2929 F   0  0  0  0  0  0  0  0  0  0  0  0
   -4.8862    6.6930   -0.9451 F   0  0  0  0  0  0  0  0  0  0  0  0
   -4.3346    6.5957    1.1570 F   0  0  0  0  0  0  0  0  0  0  0  0
  1  4  2  0  0  0  0
  1  8  1  0  0  0  0
  2  1  1  0  0  0  0
  3  2  1  0  0  0  0
  4  5  1  0  0  0  0
  5  6  2  0  0  0  0
  6 11  1  0  0  0  0
  7  6  1  0  0  0  0
  7 12  1  0  0  0  0
  8  7  2  0  0  0  0
  9  4  1  0  0  0  0
 10  5  1  0  0  0  0
 13  8  1  0  0  0  0
 14 15  1  0  0  0  0
 14 17  2  0  0  0  0
 14 18  1  0  0  0  0
 15 21  1  0  0  0  0
 16 14  2  0  0  0  0
 19 15  1  0  0  0  0
 20 15  1  0  0  0  0
M  RAD  3   2   2   3   3  18   2
M  END
