Coordinates from ORCA-job PhN2+~TfO-_B3LYPG-6-31G_dp-NX-Scan-d89-09-n800
 OpenBabel11261920253D

 21 20  0  0  0  0  0  0  0  0999 V2000
   -1.2874    1.0594   -0.4230 C   0  0  0  0  0  0  0  0  0  0  0  0
   -2.3214    0.9879   -1.3537 N   0  0  0  0  0  0  0  0  0  0  0  0
   -3.2942    1.1849   -1.8880 N   0  0  0  0  0  0  0  0  0  0  0  0
   -1.2155    2.1928    0.4025 C   0  0  0  0  0  0  0  0  0  0  0  0
   -0.1668    2.2311    1.3176 C   0  0  0  0  0  0  0  0  0  0  0  0
    0.7536    1.1817    1.3965 C   0  0  0  0  0  0  0  0  0  0  0  0
    0.6533    0.0674    0.5529 C   0  0  0  0  0  0  0  0  0  0  0  0
   -0.3717   -0.0031   -0.3804 C   0  0  0  0  0  0  0  0  0  0  0  0
   -1.9370    3.0063    0.3020 H   0  0  0  0  0  0  0  0  0  0  0  0
   -0.0725    3.0927    1.9704 H   0  0  0  0  0  0  0  0  0  0  0  0
    1.5631    1.2320    2.1187 H   0  0  0  0  0  0  0  0  0  0  0  0
    1.3754   -0.7393    0.6219 H   0  0  0  0  0  0  0  0  0  0  0  0
   -0.4788   -0.8479   -1.0520 H   0  0  0  0  0  0  0  0  0  0  0  0
   -4.2223    3.9081   -1.0024 S   0  0  0  0  0  0  0  0  0  0  0  0
   -5.7431    4.7611   -0.3578 C   0  0  0  0  0  0  0  0  0  0  0  0
   -3.0933    4.5542   -0.2921 O   0  0  0  0  0  0  0  0  0  0  0  0
   -4.2610    4.0625   -2.4627 O   0  0  0  0  0  0  0  0  0  0  0  0
   -4.4342    2.4844   -0.5299 O   0  0  0  0  0  0  0  0  0  0  0  0
   -5.8189    4.6376    0.9743 F   0  0  0  0  0  0  0  0  0  0  0  0
   -5.6979    6.0628   -0.6664 F   0  0  0  0  0  0  0  0  0  0  0  0
   -6.8421    4.2261   -0.9018 F   0  0  0  0  0  0  0  0  0  0  0  0
  1  8  2  0  0  0  0
  1  4  1  0  0  0  0
  2  1  1  0  0  0  0
  3  2  1  0  0  0  0
  4  5  2  0  0  0  0
  5  6  1  0  0  0  0
  5 10  1  0  0  0  0
  6 11  1  0  0  0  0
  7 12  1  0  0  0  0
  7  6  2  0  0  0  0
  8  7  1  0  0  0  0
  9  4  1  0  0  0  0
 13  8  1  0  0  0  0
 14 18  2  0  0  0  0
 14 15  1  0  0  0  0
 14 16  1  0  0  0  0
 15 19  1  0  0  0  0
 17 14  2  0  0  0  0
 20 15  1  0  0  0  0
 21 15  1  0  0  0  0
M  RAD  3   2   2   3   3  16   2
M  END
