Coordinates from ORCA-job PhN2+~TfO-_B3LYPG-6-31G_dp-NX-Scan-d89-09-n800
 OpenBabel11261920253D

 21 20  0  0  0  0  0  0  0  0999 V2000
   -1.5303   -0.2549   -0.3755 C   0  0  0  0  0  0  0  0  0  0  0  0
   -1.5327   -1.4251   -1.0285 N   0  0  0  0  0  0  0  0  0  0  0  0
   -1.5507   -2.4013   -1.5941 N   0  0  0  0  0  0  0  0  0  0  0  0
   -2.6075    0.0358    0.5149 C   0  0  0  0  0  0  0  0  0  0  0  0
   -2.6490    1.2797    1.0820 C   0  0  0  0  0  0  0  0  0  0  0  0
   -1.6728    2.2537    0.7407 C   0  0  0  0  0  0  0  0  0  0  0  0
   -0.5425    1.8993   -0.0400 C   0  0  0  0  0  0  0  0  0  0  0  0
   -0.4734    0.6666   -0.6322 C   0  0  0  0  0  0  0  0  0  0  0  0
   -3.3695   -0.7122    0.7036 H   0  0  0  0  0  0  0  0  0  0  0  0
   -3.4698    1.5754    1.7239 H   0  0  0  0  0  0  0  0  0  0  0  0
   -1.6967    3.2090    1.2453 H   0  0  0  0  0  0  0  0  0  0  0  0
    0.2312    2.6357   -0.2240 H   0  0  0  0  0  0  0  0  0  0  0  0
    0.3448    0.3824   -1.2847 H   0  0  0  0  0  0  0  0  0  0  0  0
   -3.8598    4.2237   -0.3447 S   0  0  0  0  0  0  0  0  0  0  0  0
   -2.8395    5.7764   -0.2819 C   0  0  0  0  0  0  0  0  0  0  0  0
   -2.8507    3.2229   -0.8830 O   0  0  0  0  0  0  0  0  0  0  0  0
   -4.9497    4.5097   -1.2802 O   0  0  0  0  0  0  0  0  0  0  0  0
   -4.1946    3.9744    1.0717 O   0  0  0  0  0  0  0  0  0  0  0  0
   -1.7392    5.5682    0.4814 F   0  0  0  0  0  0  0  0  0  0  0  0
   -2.4288    6.1374   -1.5035 F   0  0  0  0  0  0  0  0  0  0  0  0
   -3.5315    6.7859    0.2552 F   0  0  0  0  0  0  0  0  0  0  0  0
  1  4  1  0  0  0  0
  2  1  1  0  0  0  0
  3  2  1  0  0  0  0
  4  9  1  0  0  0  0
  4  5  2  0  0  0  0
  5 10  1  0  0  0  0
  6  5  1  0  0  0  0
  6 11  1  0  0  0  0
  7  6  2  0  0  0  0
  8  1  2  0  0  0  0
  8  7  1  0  0  0  0
 12  7  1  0  0  0  0
 13  8  1  0  0  0  0
 14 15  1  0  0  0  0
 14 18  1  0  0  0  0
 15 21  1  0  0  0  0
 15 19  1  0  0  0  0
 16 14  2  0  0  0  0
 17 14  2  0  0  0  0
 20 15  1  0  0  0  0
M  RAD  3   2   2   3   3  18   2
M  END
