Coordinates from ORCA-job PhN2+~TfO-_B3LYPG-6-31G_dp-NX-Scan-d89-09-n800
 OpenBabel11261920253D

 21 20  0  0  0  0  0  0  0  0999 V2000
   -1.1755    1.4110   -0.7247 C   0  0  0  0  0  0  0  0  0  0  0  0
   -1.7549    1.5220   -1.9737 N   0  0  0  0  0  0  0  0  0  0  0  0
   -2.3127    1.7748   -2.9061 N   0  0  0  0  0  0  0  0  0  0  0  0
   -1.3301    2.5006    0.1482 C   0  0  0  0  0  0  0  0  0  0  0  0
   -0.7550    2.3780    1.4073 C   0  0  0  0  0  0  0  0  0  0  0  0
   -0.0639    1.2144    1.7619 C   0  0  0  0  0  0  0  0  0  0  0  0
    0.0728    0.1469    0.8636 C   0  0  0  0  0  0  0  0  0  0  0  0
   -0.4851    0.2319   -0.4044 C   0  0  0  0  0  0  0  0  0  0  0  0
   -1.8840    3.3727   -0.1786 H   0  0  0  0  0  0  0  0  0  0  0  0
   -0.8626    3.1917    2.1164 H   0  0  0  0  0  0  0  0  0  0  0  0
    0.3730    1.1338    2.7523 H   0  0  0  0  0  0  0  0  0  0  0  0
    0.6091   -0.7491    1.1557 H   0  0  0  0  0  0  0  0  0  0  0  0
   -0.4066   -0.5766   -1.1224 H   0  0  0  0  0  0  0  0  0  0  0  0
   -4.5246    3.3702   -1.3393 S   0  0  0  0  0  0  0  0  0  0  0  0
   -4.7447    4.5161    0.1112 C   0  0  0  0  0  0  0  0  0  0  0  0
   -3.2785    3.9226   -1.9759 O   0  0  0  0  0  0  0  0  0  0  0  0
   -5.7595    3.5136   -2.1145 O   0  0  0  0  0  0  0  0  0  0  0  0
   -4.2697    2.0500   -0.7061 O   0  0  0  0  0  0  0  0  0  0  0  0
   -3.6309    4.5148    0.8909 F   0  0  0  0  0  0  0  0  0  0  0  0
   -4.9565    5.7734   -0.2909 F   0  0  0  0  0  0  0  0  0  0  0  0
   -5.7728    4.1300    0.8755 F   0  0  0  0  0  0  0  0  0  0  0  0
  1  8  2  0  0  0  0
  1  4  1  0  0  0  0
  2  1  1  0  0  0  0
  3  2  1  0  0  0  0
  4  5  2  0  0  0  0
  5  6  1  0  0  0  0
  5 10  1  0  0  0  0
  6 11  1  0  0  0  0
  7 12  1  0  0  0  0
  7  6  2  0  0  0  0
  8  7  1  0  0  0  0
  9  4  1  0  0  0  0
 13  8  1  0  0  0  0
 14 18  1  0  0  0  0
 14 15  1  0  0  0  0
 15 21  1  0  0  0  0
 15 19  1  0  0  0  0
 16 14  2  0  0  0  0
 17 14  2  0  0  0  0
 20 15  1  0  0  0  0
M  RAD  3   2   2   3   3  18   2
M  END
