Coordinates from ORCA-job PhN2+~TfO-_B3LYPG-6-31G_dp-NX-Scan-d89-09-n800
 OpenBabel11261920253D

 21 20  0  0  0  0  0  0  0  0999 V2000
   -1.5250   -0.6946   -0.3282 C   0  0  0  0  0  0  0  0  0  0  0  0
   -1.6387   -1.9597   -0.8092 N   0  0  0  0  0  0  0  0  0  0  0  0
   -1.7546   -2.9994   -1.2139 N   0  0  0  0  0  0  0  0  0  0  0  0
   -2.6788    0.1312   -0.3459 C   0  0  0  0  0  0  0  0  0  0  0  0
   -2.5419    1.4264    0.1138 C   0  0  0  0  0  0  0  0  0  0  0  0
   -1.2915    1.8820    0.5775 C   0  0  0  0  0  0  0  0  0  0  0  0
   -0.1682    1.0351    0.6004 C   0  0  0  0  0  0  0  0  0  0  0  0
   -0.2597   -0.2666    0.1449 C   0  0  0  0  0  0  0  0  0  0  0  0
   -3.6209   -0.2510   -0.7233 H   0  0  0  0  0  0  0  0  0  0  0  0
   -3.3802    2.1320    0.0844 H   0  0  0  0  0  0  0  0  0  0  0  0
   -1.2304    2.9310    0.8769 H   0  0  0  0  0  0  0  0  0  0  0  0
    0.7840    1.4071    0.9632 H   0  0  0  0  0  0  0  0  0  0  0  0
    0.5887   -0.9417    0.1342 H   0  0  0  0  0  0  0  0  0  0  0  0
   -3.1276    4.8191   -0.3944 S   0  0  0  0  0  0  0  0  0  0  0  0
   -3.8816    6.4838   -0.0701 C   0  0  0  0  0  0  0  0  0  0  0  0
   -2.6741    4.8645   -1.7959 O   0  0  0  0  0  0  0  0  0  0  0  0
   -4.2542    3.8796   -0.1239 O   0  0  0  0  0  0  0  0  0  0  0  0
   -2.0372    4.7385    0.6202 O   0  0  0  0  0  0  0  0  0  0  0  0
   -2.9721    7.4558   -0.2422 F   0  0  0  0  0  0  0  0  0  0  0  0
   -4.9037    6.7102   -0.9096 F   0  0  0  0  0  0  0  0  0  0  0  0
   -4.3451    6.5597    1.1874 F   0  0  0  0  0  0  0  0  0  0  0  0
  1  8  1  0  0  0  0
  2  1  1  0  0  0  0
  3  2  1  0  0  0  0
  4  1  2  0  0  0  0
  4  5  1  0  0  0  0
  5  6  2  0  0  0  0
  6  7  1  0  0  0  0
  6 11  1  0  0  0  0
  7 12  1  0  0  0  0
  8  7  2  0  0  0  0
  9  4  1  0  0  0  0
 10  5  1  0  0  0  0
 13  8  1  0  0  0  0
 14 17  2  0  0  0  0
 14 15  1  0  0  0  0
 14 18  1  0  0  0  0
 15 21  1  0  0  0  0
 16 14  2  0  0  0  0
 19 15  1  0  0  0  0
 20 15  1  0  0  0  0
M  RAD  3   2   2   3   3  18   2
M  END
