Coordinates from ORCA-job PhN2+~TfO-_B3LYPG-6-31G_dp-NX-Scan-d89-09-n800
 OpenBabel11261920253D

 21 20  0  0  0  0  0  0  0  0999 V2000
   -1.5264   -0.7049   -0.3144 C   0  0  0  0  0  0  0  0  0  0  0  0
   -1.6471   -1.9774   -0.7738 N   0  0  0  0  0  0  0  0  0  0  0  0
   -1.7693   -3.0230   -1.1611 N   0  0  0  0  0  0  0  0  0  0  0  0
   -2.6729    0.1301   -0.3566 C   0  0  0  0  0  0  0  0  0  0  0  0
   -2.5290    1.4320    0.0818 C   0  0  0  0  0  0  0  0  0  0  0  0
   -1.2788    1.8849    0.5485 C   0  0  0  0  0  0  0  0  0  0  0  0
   -0.1630    1.0292    0.5962 C   0  0  0  0  0  0  0  0  0  0  0  0
   -0.2616   -0.2794    0.1624 C   0  0  0  0  0  0  0  0  0  0  0  0
   -3.6152   -0.2510   -0.7348 H   0  0  0  0  0  0  0  0  0  0  0  0
   -3.3619    2.1437    0.0353 H   0  0  0  0  0  0  0  0  0  0  0  0
   -1.2133    2.9380    0.8328 H   0  0  0  0  0  0  0  0  0  0  0  0
    0.7890    1.3992    0.9613 H   0  0  0  0  0  0  0  0  0  0  0  0
    0.5810   -0.9619    0.1712 H   0  0  0  0  0  0  0  0  0  0  0  0
   -3.1259    4.8373   -0.4173 S   0  0  0  0  0  0  0  0  0  0  0  0
   -3.8946    6.4847   -0.0433 C   0  0  0  0  0  0  0  0  0  0  0  0
   -2.6773    4.9273   -1.8179 O   0  0  0  0  0  0  0  0  0  0  0  0
   -4.2430    3.8800   -0.1702 O   0  0  0  0  0  0  0  0  0  0  0  0
   -2.0323    4.7382    0.5921 O   0  0  0  0  0  0  0  0  0  0  0  0
   -2.9950    7.4699   -0.1907 F   0  0  0  0  0  0  0  0  0  0  0  0
   -4.9219    6.7252   -0.8725 F   0  0  0  0  0  0  0  0  0  0  0  0
   -4.3544    6.5206    1.2174 F   0  0  0  0  0  0  0  0  0  0  0  0
  1  8  1  0  0  0  0
  2  1  1  0  0  0  0
  3  2  1  0  0  0  0
  4  1  2  0  0  0  0
  4  5  1  0  0  0  0
  5  6  2  0  0  0  0
  6  7  1  0  0  0  0
  6 11  1  0  0  0  0
  7 12  1  0  0  0  0
  8 13  1  0  0  0  0
  8  7  2  0  0  0  0
  9  4  1  0  0  0  0
 10  5  1  0  0  0  0
 14 17  2  0  0  0  0
 14 15  1  0  0  0  0
 14 18  1  0  0  0  0
 15 21  1  0  0  0  0
 16 14  2  0  0  0  0
 19 15  1  0  0  0  0
 20 15  1  0  0  0  0
M  RAD  3   2   2   3   3  18   2
M  END
