Coordinates from ORCA-job PhN2+~TfO-_B3LYPG-6-31G_dp-NX-Scan-d89-09-n800
 OpenBabel11261920253D

 21 20  0  0  0  0  0  0  0  0999 V2000
   -1.5024   -0.3460   -0.3520 C   0  0  0  0  0  0  0  0  0  0  0  0
   -1.4264   -1.5987   -0.8303 N   0  0  0  0  0  0  0  0  0  0  0  0
   -1.3687   -2.6509   -1.2343 N   0  0  0  0  0  0  0  0  0  0  0  0
   -2.6124    0.0113    0.4710 C   0  0  0  0  0  0  0  0  0  0  0  0
   -2.6765    1.2957    0.9422 C   0  0  0  0  0  0  0  0  0  0  0  0
   -1.6796    2.2427    0.5901 C   0  0  0  0  0  0  0  0  0  0  0  0
   -0.5595    1.8507   -0.1851 C   0  0  0  0  0  0  0  0  0  0  0  0
   -0.4656    0.5750   -0.6795 C   0  0  0  0  0  0  0  0  0  0  0  0
   -3.3736   -0.7258    0.7014 H   0  0  0  0  0  0  0  0  0  0  0  0
   -3.5146    1.6337    1.5399 H   0  0  0  0  0  0  0  0  0  0  0  0
   -1.6872    3.2098    1.0702 H   0  0  0  0  0  0  0  0  0  0  0  0
    0.2101    2.5781   -0.4164 H   0  0  0  0  0  0  0  0  0  0  0  0
    0.3682    0.2546   -1.2945 H   0  0  0  0  0  0  0  0  0  0  0  0
   -3.8809    4.3260   -0.3584 S   0  0  0  0  0  0  0  0  0  0  0  0
   -2.8739    5.8744   -0.1486 C   0  0  0  0  0  0  0  0  0  0  0  0
   -2.8677    3.3874   -0.9834 O   0  0  0  0  0  0  0  0  0  0  0  0
   -4.9742    4.6941   -1.2612 O   0  0  0  0  0  0  0  0  0  0  0  0
   -4.2174    3.9493    1.0306 O   0  0  0  0  0  0  0  0  0  0  0  0
   -1.7767    5.6074    0.6022 F   0  0  0  0  0  0  0  0  0  0  0  0
   -2.4567    6.3468   -1.3293 F   0  0  0  0  0  0  0  0  0  0  0  0
   -3.5771    6.8270    0.4718 F   0  0  0  0  0  0  0  0  0  0  0  0
  1  4  1  0  0  0  0
  2  1  1  0  0  0  0
  3  2  1  0  0  0  0
  4  9  1  0  0  0  0
  4  5  2  0  0  0  0
  5 10  1  0  0  0  0
  6  5  1  0  0  0  0
  6 11  1  0  0  0  0
  7  6  2  0  0  0  0
  8  1  2  0  0  0  0
  8  7  1  0  0  0  0
 12  7  1  0  0  0  0
 13  8  1  0  0  0  0
 14 15  1  0  0  0  0
 14 18  1  0  0  0  0
 15 21  1  0  0  0  0
 15 19  1  0  0  0  0
 16 14  2  0  0  0  0
 17 14  2  0  0  0  0
 20 15  1  0  0  0  0
M  RAD  3   2   2   3   3  18   2
M  END
