Coordinates from ORCA-job PhN2+~TfO-_B3LYPG-6-31G_dp-NX-Scan-d89-09-n800
 OpenBabel11261920253D

 21 20  0  0  0  0  0  0  0  0999 V2000
   -1.5578   -0.7451   -0.2056 C   0  0  0  0  0  0  0  0  0  0  0  0
   -1.7519   -2.0571   -0.4990 N   0  0  0  0  0  0  0  0  0  0  0  0
   -1.9380   -3.1345   -0.7494 N   0  0  0  0  0  0  0  0  0  0  0  0
   -2.6340    0.1525   -0.4291 C   0  0  0  0  0  0  0  0  0  0  0  0
   -2.4181    1.4881   -0.1506 C   0  0  0  0  0  0  0  0  0  0  0  0
   -1.1658    1.9118    0.3366 C   0  0  0  0  0  0  0  0  0  0  0  0
   -0.1218    0.9974    0.5665 C   0  0  0  0  0  0  0  0  0  0  0  0
   -0.2937   -0.3473    0.2958 C   0  0  0  0  0  0  0  0  0  0  0  0
   -3.5816   -0.2120   -0.8111 H   0  0  0  0  0  0  0  0  0  0  0  0
   -3.1993    2.2415   -0.3199 H   0  0  0  0  0  0  0  0  0  0  0  0
   -1.0516    2.9845    0.5095 H   0  0  0  0  0  0  0  0  0  0  0  0
    0.8319    1.3465    0.9479 H   0  0  0  0  0  0  0  0  0  0  0  0
    0.4924   -1.0783    0.4486 H   0  0  0  0  0  0  0  0  0  0  0  0
   -3.0923    4.9773   -0.6091 S   0  0  0  0  0  0  0  0  0  0  0  0
   -3.9896    6.4117    0.1542 C   0  0  0  0  0  0  0  0  0  0  0  0
   -2.6942    5.4388   -1.9481 O   0  0  0  0  0  0  0  0  0  0  0  0
   -4.1193    3.8941   -0.5864 O   0  0  0  0  0  0  0  0  0  0  0  0
   -1.9707    4.7404    0.3450 O   0  0  0  0  0  0  0  0  0  0  0  0
   -3.1887    7.4857    0.2300 F   0  0  0  0  0  0  0  0  0  0  0  0
   -5.0671    6.7397   -0.5758 F   0  0  0  0  0  0  0  0  0  0  0  0
   -4.4014    6.1071    1.3965 F   0  0  0  0  0  0  0  0  0  0  0  0
  1  8  1  0  0  0  0
  2  1  1  0  0  0  0
  3  2  1  0  0  0  0
  4  1  2  0  0  0  0
  4  5  1  0  0  0  0
  5  6  2  0  0  0  0
  6 11  1  0  0  0  0
  6  7  1  0  0  0  0
  7 12  1  0  0  0  0
  8 13  1  0  0  0  0
  8  7  2  0  0  0  0
  9  4  1  0  0  0  0
 10  5  1  0  0  0  0
 14 17  2  0  0  0  0
 14 15  1  0  0  0  0
 14 18  1  0  0  0  0
 15 19  1  0  0  0  0
 15 21  1  0  0  0  0
 16 14  2  0  0  0  0
 20 15  1  0  0  0  0
M  RAD  3   2   2   3   3  18   2
M  END
