Coordinates from ORCA-job PhN2+~TfO-_B3LYPG-6-31G_dp-NX-Scan-d89-09-n800
 OpenBabel11261920253D

 21 20  0  0  0  0  0  0  0  0999 V2000
   -1.4771    1.0924   -0.4852 C   0  0  0  0  0  0  0  0  0  0  0  0
   -2.4435    0.8609   -1.4625 N   0  0  0  0  0  0  0  0  0  0  0  0
   -3.1032    0.4088   -2.2407 N   0  0  0  0  0  0  0  0  0  0  0  0
   -1.1841    2.3894   -0.0462 C   0  0  0  0  0  0  0  0  0  0  0  0
   -0.1857    2.5120    0.9179 C   0  0  0  0  0  0  0  0  0  0  0  0
    0.4752    1.3872    1.4146 C   0  0  0  0  0  0  0  0  0  0  0  0
    0.1558    0.1008    0.9544 C   0  0  0  0  0  0  0  0  0  0  0  0
   -0.8267   -0.0660   -0.0077 C   0  0  0  0  0  0  0  0  0  0  0  0
   -1.7258    3.2549   -0.4230 H   0  0  0  0  0  0  0  0  0  0  0  0
    0.0594    3.5028    1.2841 H   0  0  0  0  0  0  0  0  0  0  0  0
    1.2458    1.5063    2.1704 H   0  0  0  0  0  0  0  0  0  0  0  0
    0.6723   -0.7678    1.3477 H   0  0  0  0  0  0  0  0  0  0  0  0
   -1.0973   -1.0463   -0.3837 H   0  0  0  0  0  0  0  0  0  0  0  0
   -3.9388    4.3630   -1.2086 S   0  0  0  0  0  0  0  0  0  0  0  0
   -5.3726    4.2323   -0.0354 C   0  0  0  0  0  0  0  0  0  0  0  0
   -2.8539    4.9372   -0.3723 O   0  0  0  0  0  0  0  0  0  0  0  0
   -4.4305    5.1775   -2.3228 O   0  0  0  0  0  0  0  0  0  0  0  0
   -3.6825    2.9188   -1.5576 O   0  0  0  0  0  0  0  0  0  0  0  0
   -5.0421    3.4607    1.0196 F   0  0  0  0  0  0  0  0  0  0  0  0
   -5.7233    5.4404    0.4217 F   0  0  0  0  0  0  0  0  0  0  0  0
   -6.4341    3.6774   -0.6382 F   0  0  0  0  0  0  0  0  0  0  0  0
  1  4  2  0  0  0  0
  1  8  1  0  0  0  0
  2  1  1  0  0  0  0
  3  2  1  0  0  0  0
  4  5  1  0  0  0  0
  5 10  1  0  0  0  0
  5  6  2  0  0  0  0
  6 11  1  0  0  0  0
  7 12  1  0  0  0  0
  7  6  1  0  0  0  0
  8  7  2  0  0  0  0
  9  4  1  0  0  0  0
 13  8  1  0  0  0  0
 14 16  1  0  0  0  0
 14 15  1  0  0  0  0
 15 20  1  0  0  0  0
 15 19  1  0  0  0  0
 17 14  2  0  0  0  0
 18 14  2  0  0  0  0
 21 15  1  0  0  0  0
M  RAD  3   2   2   3   3  16   2
M  END
