Coordinates from ORCA-job PhN2+~TfO-_B3LYPG-6-31G_dp-NX-Scan-d89-09-n800
 OpenBabel11261920253D

 21 20  0  0  0  0  0  0  0  0999 V2000
   -1.5820   -0.4312   -0.5564 C   0  0  0  0  0  0  0  0  0  0  0  0
   -1.5820   -1.6020   -1.2288 N   0  0  0  0  0  0  0  0  0  0  0  0
   -1.5852   -2.5821   -1.7828 N   0  0  0  0  0  0  0  0  0  0  0  0
   -2.8101    0.0492   -0.0201 C   0  0  0  0  0  0  0  0  0  0  0  0
   -2.7843    1.2323    0.6787 C   0  0  0  0  0  0  0  0  0  0  0  0
   -1.5716    1.9418    0.8444 C   0  0  0  0  0  0  0  0  0  0  0  0
   -0.3668    1.4423    0.3046 C   0  0  0  0  0  0  0  0  0  0  0  0
   -0.3509    0.2629   -0.4042 C   0  0  0  0  0  0  0  0  0  0  0  0
   -3.7267   -0.5091   -0.1737 H   0  0  0  0  0  0  0  0  0  0  0  0
   -3.7029    1.6615    1.0632 H   0  0  0  0  0  0  0  0  0  0  0  0
   -1.5660    2.8383    1.4556 H   0  0  0  0  0  0  0  0  0  0  0  0
    0.5521    2.0010    0.4404 H   0  0  0  0  0  0  0  0  0  0  0  0
    0.5591   -0.1429   -0.8315 H   0  0  0  0  0  0  0  0  0  0  0  0
   -3.2093    4.5199    0.2206 S   0  0  0  0  0  0  0  0  0  0  0  0
   -3.3992    6.2076   -0.5373 C   0  0  0  0  0  0  0  0  0  0  0  0
   -2.2028    3.8625   -0.6812 O   0  0  0  0  0  0  0  0  0  0  0  0
   -4.5584    3.9197    0.1549 O   0  0  0  0  0  0  0  0  0  0  0  0
   -2.6825    4.7721    1.5822 O   0  0  0  0  0  0  0  0  0  0  0  0
   -2.2216    6.8486   -0.5620 F   0  0  0  0  0  0  0  0  0  0  0  0
   -3.8550    6.1105   -1.7947 F   0  0  0  0  0  0  0  0  0  0  0  0
   -4.2667    6.9399    0.1747 F   0  0  0  0  0  0  0  0  0  0  0  0
  1  8  2  0  0  0  0
  1  4  1  0  0  0  0
  2  1  1  0  0  0  0
  3  2  1  0  0  0  0
  4  5  2  0  0  0  0
  5  6  1  0  0  0  0
  5 10  1  0  0  0  0
  6 11  1  0  0  0  0
  7 12  1  0  0  0  0
  7  6  2  0  0  0  0
  8  7  1  0  0  0  0
  9  4  1  0  0  0  0
 13  8  1  0  0  0  0
 14 18  1  0  0  0  0
 15 21  1  0  0  0  0
 15 14  1  0  0  0  0
 16 14  2  0  0  0  0
 17 14  2  0  0  0  0
 19 15  1  0  0  0  0
 20 15  1  0  0  0  0
M  RAD  3   2   2   3   3  18   2
M  END
