Coordinates from ORCA-job PhN2+~TfO-_B3LYPG-6-31G_dp-NX-Scan-d89-09-n800
 OpenBabel11261920253D

 21 20  0  0  0  0  0  0  0  0999 V2000
   -1.6020   -0.1198   -0.3793 C   0  0  0  0  0  0  0  0  0  0  0  0
   -1.7945   -1.1581   -1.2122 N   0  0  0  0  0  0  0  0  0  0  0  0
   -1.9837   -1.9959   -1.9396 N   0  0  0  0  0  0  0  0  0  0  0  0
   -2.6044    0.1612    0.5904 C   0  0  0  0  0  0  0  0  0  0  0  0
   -2.5116    1.3505    1.2668 C   0  0  0  0  0  0  0  0  0  0  0  0
   -1.4734    2.2559    0.9503 C   0  0  0  0  0  0  0  0  0  0  0  0
   -0.3953    1.8771    0.1227 C   0  0  0  0  0  0  0  0  0  0  0  0
   -0.4603    0.7024   -0.5842 C   0  0  0  0  0  0  0  0  0  0  0  0
   -3.4346   -0.5220    0.7291 H   0  0  0  0  0  0  0  0  0  0  0  0
   -3.2942    1.6633    1.9460 H   0  0  0  0  0  0  0  0  0  0  0  0
   -1.4671    3.2282    1.4266 H   0  0  0  0  0  0  0  0  0  0  0  0
    0.4330    2.5589   -0.0321 H   0  0  0  0  0  0  0  0  0  0  0  0
    0.2964    0.4140   -1.3050 H   0  0  0  0  0  0  0  0  0  0  0  0
   -3.8182    4.0194   -0.4712 S   0  0  0  0  0  0  0  0  0  0  0  0
   -2.9264    5.6453   -0.3524 C   0  0  0  0  0  0  0  0  0  0  0  0
   -2.7145    3.0996   -0.9318 O   0  0  0  0  0  0  0  0  0  0  0  0
   -4.8732    4.2309   -1.4687 O   0  0  0  0  0  0  0  0  0  0  0  0
   -4.2347    3.7618    0.9246 O   0  0  0  0  0  0  0  0  0  0  0  0
   -1.8838    5.5397    0.5092 F   0  0  0  0  0  0  0  0  0  0  0  0
   -2.4350    6.0198   -1.5412 F   0  0  0  0  0  0  0  0  0  0  0  0
   -3.7353    6.6106    0.0983 F   0  0  0  0  0  0  0  0  0  0  0  0
  1  4  1  0  0  0  0
  2  1  1  0  0  0  0
  3  2  1  0  0  0  0
  4  9  1  0  0  0  0
  4  5  2  0  0  0  0
  5 10  1  0  0  0  0
  6  5  1  0  0  0  0
  6 11  1  0  0  0  0
  7  6  2  0  0  0  0
  8  1  2  0  0  0  0
  8  7  1  0  0  0  0
 12  7  1  0  0  0  0
 13  8  1  0  0  0  0
 14 15  1  0  0  0  0
 14 18  1  0  0  0  0
 15 21  1  0  0  0  0
 15 19  1  0  0  0  0
 16 14  2  0  0  0  0
 17 14  2  0  0  0  0
 20 15  1  0  0  0  0
M  RAD  3   2   2   3   3  18   2
M  END
