Coordinates from ORCA-job PhN2+~TfO-_B3LYPG-6-31G_dp-NX-Scan-d89-09-n800
 OpenBabel11261920253D

 21 20  0  0  0  0  0  0  0  0999 V2000
   -1.5281   -0.7131   -0.3018 C   0  0  0  0  0  0  0  0  0  0  0  0
   -1.6558   -1.9917   -0.7420 N   0  0  0  0  0  0  0  0  0  0  0  0
   -1.7842   -3.0422   -1.1138 N   0  0  0  0  0  0  0  0  0  0  0  0
   -2.6674    0.1303   -0.3665 C   0  0  0  0  0  0  0  0  0  0  0  0
   -2.5166    1.4377    0.0528 C   0  0  0  0  0  0  0  0  0  0  0  0
   -1.2665    1.8876    0.5228 C   0  0  0  0  0  0  0  0  0  0  0  0
   -0.1582    1.0239    0.5932 C   0  0  0  0  0  0  0  0  0  0  0  0
   -0.2639   -0.2905    0.1789 C   0  0  0  0  0  0  0  0  0  0  0  0
   -3.6098   -0.2494   -0.7460 H   0  0  0  0  0  0  0  0  0  0  0  0
   -3.3440    2.1549   -0.0092 H   0  0  0  0  0  0  0  0  0  0  0  0
   -1.1965    2.9440    0.7937 H   0  0  0  0  0  0  0  0  0  0  0  0
    0.7937    1.3917    0.9610 H   0  0  0  0  0  0  0  0  0  0  0  0
    0.5730   -0.9796    0.2055 H   0  0  0  0  0  0  0  0  0  0  0  0
   -3.1244    4.8535   -0.4389 S   0  0  0  0  0  0  0  0  0  0  0  0
   -3.9063    6.4836   -0.0191 C   0  0  0  0  0  0  0  0  0  0  0  0
   -2.6815    4.9844   -1.8380 O   0  0  0  0  0  0  0  0  0  0  0  0
   -4.2325    3.8804   -0.2130 O   0  0  0  0  0  0  0  0  0  0  0  0
   -2.0269    4.7379    0.5646 O   0  0  0  0  0  0  0  0  0  0  0  0
   -3.0163    7.4804   -0.1444 F   0  0  0  0  0  0  0  0  0  0  0  0
   -4.9394    6.7363   -0.8375 F   0  0  0  0  0  0  0  0  0  0  0  0
   -4.3611    6.4824    1.2441 F   0  0  0  0  0  0  0  0  0  0  0  0
  1  8  1  0  0  0  0
  2  1  1  0  0  0  0
  3  2  1  0  0  0  0
  4  1  2  0  0  0  0
  4  5  1  0  0  0  0
  5  6  2  0  0  0  0
  6  7  1  0  0  0  0
  6 11  1  0  0  0  0
  7 12  1  0  0  0  0
  8 13  1  0  0  0  0
  8  7  2  0  0  0  0
  9  4  1  0  0  0  0
 10  5  1  0  0  0  0
 14 17  2  0  0  0  0
 14 15  1  0  0  0  0
 14 18  1  0  0  0  0
 15 21  1  0  0  0  0
 16 14  2  0  0  0  0
 19 15  1  0  0  0  0
 20 15  1  0  0  0  0
M  RAD  3   2   2   3   3  18   2
M  END
