Coordinates from ORCA-job PhN2+~TfO-_B3LYPG-6-31G_dp-NX-Scan-d89-09-n800
 OpenBabel11261920253D

 21 20  0  0  0  0  0  0  0  0999 V2000
   -1.5235   -0.6602   -0.3678 C   0  0  0  0  0  0  0  0  0  0  0  0
   -1.6195   -1.9029   -0.9073 N   0  0  0  0  0  0  0  0  0  0  0  0
   -1.7192   -2.9247   -1.3592 N   0  0  0  0  0  0  0  0  0  0  0  0
   -2.6955    0.1379   -0.3175 C   0  0  0  0  0  0  0  0  0  0  0  0
   -2.5765    1.4119    0.2022 C   0  0  0  0  0  0  0  0  0  0  0  0
   -1.3258    1.8742    0.6582 C   0  0  0  0  0  0  0  0  0  0  0  0
   -0.1833    1.0544    0.6117 C   0  0  0  0  0  0  0  0  0  0  0  0
   -0.2568   -0.2253    0.0951 C   0  0  0  0  0  0  0  0  0  0  0  0
   -3.6375   -0.2467   -0.6927 H   0  0  0  0  0  0  0  0  0  0  0  0
   -3.4290    2.0990    0.2207 H   0  0  0  0  0  0  0  0  0  0  0  0
   -1.2761    2.9095    1.0022 H   0  0  0  0  0  0  0  0  0  0  0  0
    0.7693    1.4315    0.9680 H   0  0  0  0  0  0  0  0  0  0  0  0
    0.6064   -0.8784    0.0303 H   0  0  0  0  0  0  0  0  0  0  0  0
   -3.1313    4.7667   -0.3273 S   0  0  0  0  0  0  0  0  0  0  0  0
   -3.8430    6.4713   -0.1466 C   0  0  0  0  0  0  0  0  0  0  0  0
   -2.6649    4.6866   -1.7240 O   0  0  0  0  0  0  0  0  0  0  0  0
   -4.2835    3.8805    0.0048 O   0  0  0  0  0  0  0  0  0  0  0  0
   -2.0500    4.7397    0.6997 O   0  0  0  0  0  0  0  0  0  0  0  0
   -2.9067    7.4023   -0.3873 F   0  0  0  0  0  0  0  0  0  0  0  0
   -4.8517    6.6551   -1.0126 F   0  0  0  0  0  0  0  0  0  0  0  0
   -4.3148    6.6608    1.0956 F   0  0  0  0  0  0  0  0  0  0  0  0
  1  4  2  0  0  0  0
  1  8  1  0  0  0  0
  2  1  1  0  0  0  0
  3  2  1  0  0  0  0
  4  5  1  0  0  0  0
  5 10  1  0  0  0  0
  5  6  2  0  0  0  0
  6 11  1  0  0  0  0
  7  6  1  0  0  0  0
  7 12  1  0  0  0  0
  8  7  2  0  0  0  0
  9  4  1  0  0  0  0
 13  8  1  0  0  0  0
 14 15  1  0  0  0  0
 14 17  2  0  0  0  0
 14 18  1  0  0  0  0
 15 21  1  0  0  0  0
 16 14  2  0  0  0  0
 19 15  1  0  0  0  0
 20 15  1  0  0  0  0
M  RAD  3   2   2   3   3  18   2
M  END
