Coordinates from ORCA-job PhN2+~TfO-_B3LYPG-6-31G_dp-NX-Scan-d89-09-n800
 OpenBabel11261920253D

 21 20  0  0  0  0  0  0  0  0999 V2000
   -1.1679    1.4058   -0.6886 C   0  0  0  0  0  0  0  0  0  0  0  0
   -1.7616    1.5400   -1.9346 N   0  0  0  0  0  0  0  0  0  0  0  0
   -2.3740    1.9370   -2.7910 N   0  0  0  0  0  0  0  0  0  0  0  0
   -1.3630    2.4360    0.2450 C   0  0  0  0  0  0  0  0  0  0  0  0
   -0.7607    2.2823    1.4885 C   0  0  0  0  0  0  0  0  0  0  0  0
   -0.0038    1.1411    1.7753 C   0  0  0  0  0  0  0  0  0  0  0  0
    0.1727    0.1308    0.8212 C   0  0  0  0  0  0  0  0  0  0  0  0
   -0.4104    0.2539   -0.4332 C   0  0  0  0  0  0  0  0  0  0  0  0
   -1.9623    3.2979   -0.0167 H   0  0  0  0  0  0  0  0  0  0  0  0
   -0.8952    3.0541    2.2388 H   0  0  0  0  0  0  0  0  0  0  0  0
    0.4533    1.0352    2.7541 H   0  0  0  0  0  0  0  0  0  0  0  0
    0.7606   -0.7493    1.0577 H   0  0  0  0  0  0  0  0  0  0  0  0
   -0.2989   -0.5096   -1.1949 H   0  0  0  0  0  0  0  0  0  0  0  0
   -4.6091    3.3268   -1.3243 S   0  0  0  0  0  0  0  0  0  0  0  0
   -4.7626    4.6216    0.0061 C   0  0  0  0  0  0  0  0  0  0  0  0
   -3.3482    3.7945   -2.0286 O   0  0  0  0  0  0  0  0  0  0  0  0
   -5.8422    3.4414   -2.1038 O   0  0  0  0  0  0  0  0  0  0  0  0
   -4.3697    2.0670   -0.5839 O   0  0  0  0  0  0  0  0  0  0  0  0
   -3.6446    4.6452    0.7750 F   0  0  0  0  0  0  0  0  0  0  0  0
   -4.9246    5.8384   -0.5202 F   0  0  0  0  0  0  0  0  0  0  0  0
   -5.8006    4.3526    0.8044 F   0  0  0  0  0  0  0  0  0  0  0  0
  1  8  2  0  0  0  0
  1  4  1  0  0  0  0
  2  1  1  0  0  0  0
  3  2  1  0  0  0  0
  4  5  2  0  0  0  0
  5  6  1  0  0  0  0
  5 10  1  0  0  0  0
  6 11  1  0  0  0  0
  7 12  1  0  0  0  0
  7  6  2  0  0  0  0
  8  7  1  0  0  0  0
  9  4  1  0  0  0  0
 13  8  1  0  0  0  0
 14 18  1  0  0  0  0
 14 15  1  0  0  0  0
 15 19  1  0  0  0  0
 15 21  1  0  0  0  0
 16 14  2  0  0  0  0
 17 14  2  0  0  0  0
 20 15  1  0  0  0  0
M  RAD  3   2   2   3   3  18   2
M  END
