Coordinates from ORCA-job PhN2+~TfO-_B3LYPG-6-31G_dp-NX-Scan-d89-09-n800
 OpenBabel11261920253D

 21 20  0  0  0  0  0  0  0  0999 V2000
   -1.1665    1.4073   -0.6853 C   0  0  0  0  0  0  0  0  0  0  0  0
   -1.7629    1.5394   -1.9329 N   0  0  0  0  0  0  0  0  0  0  0  0
   -2.4042    1.9719   -2.7559 N   0  0  0  0  0  0  0  0  0  0  0  0
   -1.3654    2.4268    0.2590 C   0  0  0  0  0  0  0  0  0  0  0  0
   -0.7576    2.2682    1.4993 C   0  0  0  0  0  0  0  0  0  0  0  0
    0.0103    1.1315    1.7744 C   0  0  0  0  0  0  0  0  0  0  0  0
    0.1919    0.1316    0.8109 C   0  0  0  0  0  0  0  0  0  0  0  0
   -0.3969    0.2616   -0.4404 C   0  0  0  0  0  0  0  0  0  0  0  0
   -1.9720    3.2865    0.0082 H   0  0  0  0  0  0  0  0  0  0  0  0
   -0.8954    3.0329    2.2564 H   0  0  0  0  0  0  0  0  0  0  0  0
    0.4719    1.0216    2.7507 H   0  0  0  0  0  0  0  0  0  0  0  0
    0.7885   -0.7453    1.0374 H   0  0  0  0  0  0  0  0  0  0  0  0
   -0.2807   -0.4938   -1.2096 H   0  0  0  0  0  0  0  0  0  0  0  0
   -4.6255    3.3124   -1.3138 S   0  0  0  0  0  0  0  0  0  0  0  0
   -4.7684    4.6375   -0.0114 C   0  0  0  0  0  0  0  0  0  0  0  0
   -3.3385    3.7470   -2.0059 O   0  0  0  0  0  0  0  0  0  0  0  0
   -5.8379    3.4436   -2.1212 O   0  0  0  0  0  0  0  0  0  0  0  0
   -4.4203    2.0610   -0.5540 O   0  0  0  0  0  0  0  0  0  0  0  0
   -3.6641    4.6486    0.7749 F   0  0  0  0  0  0  0  0  0  0  0  0
   -4.8927    5.8458   -0.5656 F   0  0  0  0  0  0  0  0  0  0  0  0
   -5.8265    4.4068    0.7712 F   0  0  0  0  0  0  0  0  0  0  0  0
  1  8  2  0  0  0  0
  1  4  1  0  0  0  0
  2  1  1  0  0  0  0
  3  2  1  0  0  0  0
  4  5  2  0  0  0  0
  5  6  1  0  0  0  0
  5 10  1  0  0  0  0
  6 11  1  0  0  0  0
  7 12  1  0  0  0  0
  7  6  2  0  0  0  0
  8  7  1  0  0  0  0
  9  4  1  0  0  0  0
 13  8  1  0  0  0  0
 14 18  1  0  0  0  0
 14 15  1  0  0  0  0
 15 21  1  0  0  0  0
 15 19  1  0  0  0  0
 16 14  2  0  0  0  0
 17 14  2  0  0  0  0
 20 15  1  0  0  0  0
M  RAD  3   2   2   3   3  18   2
M  END
