Coordinates from ORCA-job PhN2+~TfO-_B3LYPG-6-31G_dp-NX-Scan-d89-09-n800
 OpenBabel11261920253D

 21 20  0  0  0  0  0  0  0  0999 V2000
   -1.5392   -0.2334   -0.3781 C   0  0  0  0  0  0  0  0  0  0  0  0
   -1.5698   -1.3804   -1.0700 N   0  0  0  0  0  0  0  0  0  0  0  0
   -1.6147   -2.3335   -1.6718 N   0  0  0  0  0  0  0  0  0  0  0  0
   -2.6050    0.0479    0.5284 C   0  0  0  0  0  0  0  0  0  0  0  0
   -2.6325    1.2826    1.1158 C   0  0  0  0  0  0  0  0  0  0  0  0
   -1.6553    2.2553    0.7754 C   0  0  0  0  0  0  0  0  0  0  0  0
   -0.5271    1.9028   -0.0083 C   0  0  0  0  0  0  0  0  0  0  0  0
   -0.4722    0.6799   -0.6216 C   0  0  0  0  0  0  0  0  0  0  0  0
   -3.3723   -0.6969    0.7087 H   0  0  0  0  0  0  0  0  0  0  0  0
   -3.4473    1.5743    1.7671 H   0  0  0  0  0  0  0  0  0  0  0  0
   -1.6804    3.2119    1.2780 H   0  0  0  0  0  0  0  0  0  0  0  0
    0.2519    2.6358   -0.1840 H   0  0  0  0  0  0  0  0  0  0  0  0
    0.3389    0.3993   -1.2844 H   0  0  0  0  0  0  0  0  0  0  0  0
   -3.8538    4.1946   -0.3534 S   0  0  0  0  0  0  0  0  0  0  0  0
   -2.8433    5.7541   -0.3041 C   0  0  0  0  0  0  0  0  0  0  0  0
   -2.8360    3.1929   -0.8722 O   0  0  0  0  0  0  0  0  0  0  0  0
   -4.9395    4.4624   -1.2994 O   0  0  0  0  0  0  0  0  0  0  0  0
   -4.1967    3.9618    1.0639 O   0  0  0  0  0  0  0  0  0  0  0  0
   -1.7484    5.5642    0.4717 F   0  0  0  0  0  0  0  0  0  0  0  0
   -2.4240    6.1001   -1.5272 F   0  0  0  0  0  0  0  0  0  0  0  0
   -3.5461    6.7670    0.2120 F   0  0  0  0  0  0  0  0  0  0  0  0
  1  4  1  0  0  0  0
  2  1  1  0  0  0  0
  3  2  1  0  0  0  0
  4  9  1  0  0  0  0
  4  5  2  0  0  0  0
  5 10  1  0  0  0  0
  6  5  1  0  0  0  0
  6 11  1  0  0  0  0
  7  6  2  0  0  0  0
  8  1  2  0  0  0  0
  8  7  1  0  0  0  0
 12  7  1  0  0  0  0
 13  8  1  0  0  0  0
 14 15  1  0  0  0  0
 14 18  1  0  0  0  0
 15 21  1  0  0  0  0
 15 19  1  0  0  0  0
 16 14  2  0  0  0  0
 17 14  2  0  0  0  0
 20 15  1  0  0  0  0
M  RAD  3   2   2   3   3  18   2
M  END
