Coordinates from ORCA-job PhN2+~TfO-_B3LYPG-6-31G_dp-NX-Scan-d89-09-n800
 OpenBabel11261920253D

 21 20  0  0  0  0  0  0  0  0999 V2000
   -1.4913   -0.3840   -0.3256 C   0  0  0  0  0  0  0  0  0  0  0  0
   -1.4185   -1.6632   -0.7362 N   0  0  0  0  0  0  0  0  0  0  0  0
   -1.3616   -2.7371   -1.0774 N   0  0  0  0  0  0  0  0  0  0  0  0
   -2.6031    0.0204    0.4715 C   0  0  0  0  0  0  0  0  0  0  0  0
   -2.6544    1.3259    0.8882 C   0  0  0  0  0  0  0  0  0  0  0  0
   -1.6374    2.2401    0.5161 C   0  0  0  0  0  0  0  0  0  0  0  0
   -0.5317    1.8103   -0.2555 C   0  0  0  0  0  0  0  0  0  0  0  0
   -0.4487    0.5122   -0.6962 C   0  0  0  0  0  0  0  0  0  0  0  0
   -3.3757   -0.6966    0.7259 H   0  0  0  0  0  0  0  0  0  0  0  0
   -3.4940    1.7036    1.4599 H   0  0  0  0  0  0  0  0  0  0  0  0
   -1.6356    3.2278    0.9515 H   0  0  0  0  0  0  0  0  0  0  0  0
    0.2434    2.5204   -0.5198 H   0  0  0  0  0  0  0  0  0  0  0  0
    0.3811    0.1589   -1.2984 H   0  0  0  0  0  0  0  0  0  0  0  0
   -3.8941    4.3600   -0.3993 S   0  0  0  0  0  0  0  0  0  0  0  0
   -2.9226    5.9086   -0.0622 C   0  0  0  0  0  0  0  0  0  0  0  0
   -2.8538    3.4832   -1.0587 O   0  0  0  0  0  0  0  0  0  0  0  0
   -4.9760    4.7733   -1.2973 O   0  0  0  0  0  0  0  0  0  0  0  0
   -4.2586    3.8926    0.9560 O   0  0  0  0  0  0  0  0  0  0  0  0
   -1.8437    5.6148    0.7072 F   0  0  0  0  0  0  0  0  0  0  0  0
   -2.4756    6.4614   -1.1963 F   0  0  0  0  0  0  0  0  0  0  0  0
   -3.6609    6.8102    0.5932 F   0  0  0  0  0  0  0  0  0  0  0  0
  1  4  1  0  0  0  0
  2  1  1  0  0  0  0
  3  2  1  0  0  0  0
  4  9  1  0  0  0  0
  4  5  2  0  0  0  0
  5 10  1  0  0  0  0
  6  5  1  0  0  0  0
  6 11  1  0  0  0  0
  7  6  2  0  0  0  0
  8  1  2  0  0  0  0
  8  7  1  0  0  0  0
 12  7  1  0  0  0  0
 13  8  1  0  0  0  0
 14 15  1  0  0  0  0
 14 18  1  0  0  0  0
 15 21  1  0  0  0  0
 15 19  1  0  0  0  0
 16 14  2  0  0  0  0
 17 14  2  0  0  0  0
 20 15  1  0  0  0  0
M  RAD  3   2   2   3   3  18   2
M  END
