Coordinates from ORCA-job PhN2+~TfO-_B3LYPG-6-31G_dp-NX-Scan-d89-09-n800
 OpenBabel11261920253D

 21 21  0  0  0  0  0  0  0  0999 V2000
   -1.3824    1.2362   -0.0689 C   0  0  0  0  0  0  0  0  0  0  0  0
   -2.6190    1.0029   -0.6998 N   0  0  0  0  0  0  0  0  0  0  0  0
   -3.5474    1.6235   -1.1006 N   0  0  0  0  0  0  0  0  0  0  0  0
   -0.8655    2.5017    0.2709 C   0  0  0  0  0  0  0  0  0  0  0  0
    0.3821    2.5650    0.8854 C   0  0  0  0  0  0  0  0  0  0  0  0
    1.1049    1.4008    1.1633 C   0  0  0  0  0  0  0  0  0  0  0  0
    0.5849    0.1489    0.8239 C   0  0  0  0  0  0  0  0  0  0  0  0
   -0.6576    0.0644    0.2060 C   0  0  0  0  0  0  0  0  0  0  0  0
   -1.4271    3.3980    0.0536 H   0  0  0  0  0  0  0  0  0  0  0  0
    0.7916    3.5343    1.1507 H   0  0  0  0  0  0  0  0  0  0  0  0
    2.0758    1.4708    1.6438 H   0  0  0  0  0  0  0  0  0  0  0  0
    1.1455   -0.7548    1.0386 H   0  0  0  0  0  0  0  0  0  0  0  0
   -1.0874   -0.8910   -0.0738 H   0  0  0  0  0  0  0  0  0  0  0  0
   -4.5040    4.1148   -1.5464 S   0  0  0  0  0  0  0  0  0  0  0  0
   -5.8784    3.9546   -0.2967 C   0  0  0  0  0  0  0  0  0  0  0  0
   -3.3748    3.2232   -0.8338 O   0  0  0  0  0  0  0  0  0  0  0  0
   -4.0444    5.4945   -1.4937 O   0  0  0  0  0  0  0  0  0  0  0  0
   -4.9783    3.4988   -2.7750 O   0  0  0  0  0  0  0  0  0  0  0  0
   -6.2264    2.6725   -0.1646 F   0  0  0  0  0  0  0  0  0  0  0  0
   -5.4771    4.4254    0.8853 F   0  0  0  0  0  0  0  0  0  0  0  0
   -6.9279    4.6585   -0.7218 F   0  0  0  0  0  0  0  0  0  0  0  0
  1  8  2  0  0  0  0
  1  4  1  0  0  0  0
  2  1  1  0  0  0  0
  3 16  1  0  0  0  0
  3  2  1  0  0  0  0
  4  5  2  0  0  0  0
  5 10  1  0  0  0  0
  5  6  1  0  0  0  0
  6 11  1  0  0  0  0
  7 12  1  0  0  0  0
  7  6  2  0  0  0  0
  8  7  1  0  0  0  0
  9  4  1  0  0  0  0
 13  8  1  0  0  0  0
 14 17  2  0  0  0  0
 14 16  1  0  0  0  0
 14 15  1  0  0  0  0
 15 19  1  0  0  0  0
 15 20  1  0  0  0  0
 18 14  2  0  0  0  0
 21 15  1  0  0  0  0
M  RAD  2   2   2   3   2
M  END
