Coordinates from ORCA-job PhN2+~TfO-_B3LYPG-6-31G_dp-NX-Scan-d89-09-n800
 OpenBabel11261920253D

 21 20  0  0  0  0  0  0  0  0999 V2000
   -1.5658   -0.4866   -0.5315 C   0  0  0  0  0  0  0  0  0  0  0  0
   -1.5761   -1.6873   -1.1546 N   0  0  0  0  0  0  0  0  0  0  0  0
   -1.5891   -2.6898   -1.6645 N   0  0  0  0  0  0  0  0  0  0  0  0
   -2.8008    0.0629   -0.0879 C   0  0  0  0  0  0  0  0  0  0  0  0
   -2.7646    1.2740    0.5642 C   0  0  0  0  0  0  0  0  0  0  0  0
   -1.5335    1.9345    0.7783 C   0  0  0  0  0  0  0  0  0  0  0  0
   -0.3245    1.3710    0.3226 C   0  0  0  0  0  0  0  0  0  0  0  0
   -0.3175    0.1624   -0.3399 C   0  0  0  0  0  0  0  0  0  0  0  0
   -3.7301   -0.4639   -0.2736 H   0  0  0  0  0  0  0  0  0  0  0  0
   -3.6840    1.7612    0.8738 H   0  0  0  0  0  0  0  0  0  0  0  0
   -1.5279    2.8646    1.3396 H   0  0  0  0  0  0  0  0  0  0  0  0
    0.6087    1.8971    0.4891 H   0  0  0  0  0  0  0  0  0  0  0  0
    0.5967   -0.2951   -0.7008 H   0  0  0  0  0  0  0  0  0  0  0  0
   -3.1930    4.5649    0.1963 S   0  0  0  0  0  0  0  0  0  0  0  0
   -3.4839    6.2736   -0.4758 C   0  0  0  0  0  0  0  0  0  0  0  0
   -2.2308    3.9690   -0.7845 O   0  0  0  0  0  0  0  0  0  0  0  0
   -4.5301    3.9291    0.1953 O   0  0  0  0  0  0  0  0  0  0  0  0
   -2.5948    4.7848    1.5354 O   0  0  0  0  0  0  0  0  0  0  0  0
   -2.3305    6.9549   -0.5447 F   0  0  0  0  0  0  0  0  0  0  0  0
   -4.0128    6.2129   -1.7069 F   0  0  0  0  0  0  0  0  0  0  0  0
   -4.3283    6.9486    0.3166 F   0  0  0  0  0  0  0  0  0  0  0  0
  1  8  2  0  0  0  0
  1  4  1  0  0  0  0
  2  1  1  0  0  0  0
  3  2  1  0  0  0  0
  4  5  2  0  0  0  0
  5  6  1  0  0  0  0
  5 10  1  0  0  0  0
  6 11  1  0  0  0  0
  7 12  1  0  0  0  0
  7  6  2  0  0  0  0
  8  7  1  0  0  0  0
  9  4  1  0  0  0  0
 13  8  1  0  0  0  0
 14 18  1  0  0  0  0
 15 14  1  0  0  0  0
 15 21  1  0  0  0  0
 16 14  2  0  0  0  0
 17 14  2  0  0  0  0
 19 15  1  0  0  0  0
 20 15  1  0  0  0  0
M  RAD  3   2   2   3   3  18   2
M  END
