Coordinates from ORCA-job PhN2+~TfO-_B3LYPG-6-31G_dp-NX-Scan-d89-09-n800
 OpenBabel11261920253D

 21 20  0  0  0  0  0  0  0  0999 V2000
   -1.5462    1.0365   -0.1573 C   0  0  0  0  0  0  0  0  0  0  0  0
   -2.7926    0.9783   -0.7808 N   0  0  0  0  0  0  0  0  0  0  0  0
   -3.8607    1.3101   -0.9675 N   0  0  0  0  0  0  0  0  0  0  0  0
   -1.3807    1.8920    0.9447 C   0  0  0  0  0  0  0  0  0  0  0  0
   -0.1225    1.9296    1.5365 C   0  0  0  0  0  0  0  0  0  0  0  0
    0.9217    1.1428    1.0382 C   0  0  0  0  0  0  0  0  0  0  0  0
    0.7266    0.2982   -0.0607 C   0  0  0  0  0  0  0  0  0  0  0  0
   -0.5200    0.2335   -0.6716 C   0  0  0  0  0  0  0  0  0  0  0  0
   -2.2170    2.4883    1.2917 H   0  0  0  0  0  0  0  0  0  0  0  0
    0.0425    2.5816    2.3875 H   0  0  0  0  0  0  0  0  0  0  0  0
    1.8984    1.1889    1.5098 H   0  0  0  0  0  0  0  0  0  0  0  0
    1.5446   -0.3046   -0.4397 H   0  0  0  0  0  0  0  0  0  0  0  0
   -0.7059   -0.4059   -1.5272 H   0  0  0  0  0  0  0  0  0  0  0  0
   -3.9810    4.1623   -0.3928 S   0  0  0  0  0  0  0  0  0  0  0  0
   -5.6616    4.6150   -1.0391 C   0  0  0  0  0  0  0  0  0  0  0  0
   -3.5776    5.2517    0.4963 O   0  0  0  0  0  0  0  0  0  0  0  0
   -3.1673    3.8937   -1.5924 O   0  0  0  0  0  0  0  0  0  0  0  0
   -4.2776    2.8774    0.3837 O   0  0  0  0  0  0  0  0  0  0  0  0
   -6.5105    4.8329   -0.0294 F   0  0  0  0  0  0  0  0  0  0  0  0
   -5.5836    5.7227   -1.7856 F   0  0  0  0  0  0  0  0  0  0  0  0
   -6.1419    3.6179   -1.7979 F   0  0  0  0  0  0  0  0  0  0  0  0
  1  4  1  0  0  0  0
  2  1  1  0  0  0  0
  3  2  2  0  0  0  0
  4  9  1  0  0  0  0
  4  5  2  0  0  0  0
  5 10  1  0  0  0  0
  6 11  1  0  0  0  0
  6  5  1  0  0  0  0
  7  6  2  0  0  0  0
  8  1  2  0  0  0  0
  8  7  1  0  0  0  0
 12  7  1  0  0  0  0
 13  8  1  0  0  0  0
 14 18  2  0  0  0  0
 14 16  1  0  0  0  0
 15 14  1  0  0  0  0
 15 19  1  0  0  0  0
 17 14  2  0  0  0  0
 20 15  1  0  0  0  0
 21 15  1  0  0  0  0
M  RAD  2   3   2  16   2
M  END
