Coordinates from ORCA-job PhN2+~TfO-_B3LYPG-6-31G_dp-NX-Scan-d89-09-n800
 OpenBabel11261920253D

 21 20  0  0  0  0  0  0  0  0999 V2000
   -1.5290    0.9718   -0.1918 C   0  0  0  0  0  0  0  0  0  0  0  0
   -2.7463    0.8128   -0.8488 N   0  0  0  0  0  0  0  0  0  0  0  0
   -3.8206    1.0084   -1.1359 N   0  0  0  0  0  0  0  0  0  0  0  0
   -1.4396    1.9211    0.8400 C   0  0  0  0  0  0  0  0  0  0  0  0
   -0.2039    2.0619    1.4635 C   0  0  0  0  0  0  0  0  0  0  0  0
    0.8874    1.2827    1.0664 C   0  0  0  0  0  0  0  0  0  0  0  0
    0.7664    0.3426    0.0356 C   0  0  0  0  0  0  0  0  0  0  0  0
   -0.4527    0.1755   -0.6084 C   0  0  0  0  0  0  0  0  0  0  0  0
   -2.3005    2.5203    1.1152 H   0  0  0  0  0  0  0  0  0  0  0  0
   -0.0961    2.7921    2.2583 H   0  0  0  0  0  0  0  0  0  0  0  0
    1.8447    1.4107    1.5621 H   0  0  0  0  0  0  0  0  0  0  0  0
    1.6211   -0.2531   -0.2657 H   0  0  0  0  0  0  0  0  0  0  0  0
   -0.5818   -0.5377   -1.4149 H   0  0  0  0  0  0  0  0  0  0  0  0
   -4.0232    3.9206   -0.4945 S   0  0  0  0  0  0  0  0  0  0  0  0
   -5.6153    4.7915   -0.8887 C   0  0  0  0  0  0  0  0  0  0  0  0
   -3.3278    4.7858    0.4699 O   0  0  0  0  0  0  0  0  0  0  0  0
   -3.3671    3.6849   -1.7953 O   0  0  0  0  0  0  0  0  0  0  0  0
   -4.4984    2.6257    0.1462 O   0  0  0  0  0  0  0  0  0  0  0  0
   -6.3113    5.0200    0.2311 F   0  0  0  0  0  0  0  0  0  0  0  0
   -5.3585    5.9623   -1.4845 F   0  0  0  0  0  0  0  0  0  0  0  0
   -6.3604    4.0431   -1.7134 F   0  0  0  0  0  0  0  0  0  0  0  0
  1  4  1  0  0  0  0
  2  1  1  0  0  0  0
  3  2  1  0  0  0  0
  4  9  1  0  0  0  0
  4  5  2  0  0  0  0
  5 10  1  0  0  0  0
  6  5  1  0  0  0  0
  6 11  1  0  0  0  0
  7  6  2  0  0  0  0
  8  1  2  0  0  0  0
  8  7  1  0  0  0  0
 12  7  1  0  0  0  0
 13  8  1  0  0  0  0
 14 18  2  0  0  0  0
 14 16  1  0  0  0  0
 15 14  1  0  0  0  0
 15 19  1  0  0  0  0
 17 14  2  0  0  0  0
 20 15  1  0  0  0  0
 21 15  1  0  0  0  0
M  RAD  3   2   2   3   3  16   2
M  END
