Coordinates from ORCA-job PhN2+~TfO-_B3LYPG-6-31G_dp-NX-Scan-d89-09-n800
 OpenBabel11261920253D

 21 20  0  0  0  0  0  0  0  0999 V2000
   -1.5243   -0.6858   -0.3388 C   0  0  0  0  0  0  0  0  0  0  0  0
   -1.6329   -1.9450   -0.8363 N   0  0  0  0  0  0  0  0  0  0  0  0
   -1.7443   -2.9799   -1.2543 N   0  0  0  0  0  0  0  0  0  0  0  0
   -2.6832    0.1328   -0.3379 C   0  0  0  0  0  0  0  0  0  0  0  0
   -2.5515    1.4225    0.1383 C   0  0  0  0  0  0  0  0  0  0  0  0
   -1.3009    1.8798    0.5999 C   0  0  0  0  0  0  0  0  0  0  0  0
   -0.1722    1.0399    0.6040 C   0  0  0  0  0  0  0  0  0  0  0  0
   -0.2586   -0.2562    0.1317 C   0  0  0  0  0  0  0  0  0  0  0  0
   -3.6253   -0.2500   -0.7148 H   0  0  0  0  0  0  0  0  0  0  0  0
   -3.3938    2.1233    0.1218 H   0  0  0  0  0  0  0  0  0  0  0  0
   -1.2430    2.9254    0.9111 H   0  0  0  0  0  0  0  0  0  0  0  0
    0.7801    1.4131    0.9651 H   0  0  0  0  0  0  0  0  0  0  0  0
    0.5940   -0.9256    0.1062 H   0  0  0  0  0  0  0  0  0  0  0  0
   -3.1288    4.8048   -0.3771 S   0  0  0  0  0  0  0  0  0  0  0  0
   -3.8714    6.4816   -0.0907 C   0  0  0  0  0  0  0  0  0  0  0  0
   -2.6723    4.8163   -1.7786 O   0  0  0  0  0  0  0  0  0  0  0  0
   -4.2623    3.8793   -0.0888 O   0  0  0  0  0  0  0  0  0  0  0  0
   -2.0404    4.7385    0.6407 O   0  0  0  0  0  0  0  0  0  0  0  0
   -2.9547    7.4432   -0.2817 F   0  0  0  0  0  0  0  0  0  0  0  0
   -4.8901    6.6970   -0.9373 F   0  0  0  0  0  0  0  0  0  0  0  0
   -4.3370    6.5879    1.1638 F   0  0  0  0  0  0  0  0  0  0  0  0
  1  4  2  0  0  0  0
  1  8  1  0  0  0  0
  2  1  1  0  0  0  0
  3  2  1  0  0  0  0
  4  5  1  0  0  0  0
  5  6  2  0  0  0  0
  6  7  1  0  0  0  0
  6 11  1  0  0  0  0
  7 12  1  0  0  0  0
  8  7  2  0  0  0  0
  9  4  1  0  0  0  0
 10  5  1  0  0  0  0
 13  8  1  0  0  0  0
 14 15  1  0  0  0  0
 14 17  2  0  0  0  0
 14 18  1  0  0  0  0
 15 21  1  0  0  0  0
 16 14  2  0  0  0  0
 19 15  1  0  0  0  0
 20 15  1  0  0  0  0
M  RAD  3   2   2   3   3  18   2
M  END
