Coordinates from ORCA-job PhN2+~TfO-_B3LYPG-6-31G_dp-NX-Scan-d89-09-n800
 OpenBabel11261920253D

 21 20  0  0  0  0  0  0  0  0999 V2000
   -1.5382   -0.2355   -0.3779 C   0  0  0  0  0  0  0  0  0  0  0  0
   -1.5658   -1.3849   -1.0660 N   0  0  0  0  0  0  0  0  0  0  0  0
   -1.6079   -2.3404   -1.6643 N   0  0  0  0  0  0  0  0  0  0  0  0
   -2.6052    0.0465    0.5270 C   0  0  0  0  0  0  0  0  0  0  0  0
   -2.6344    1.2821    1.1125 C   0  0  0  0  0  0  0  0  0  0  0  0
   -1.6574    2.2552    0.7720 C   0  0  0  0  0  0  0  0  0  0  0  0
   -0.5289    1.9027   -0.0114 C   0  0  0  0  0  0  0  0  0  0  0  0
   -0.4724    0.6788   -0.6227 C   0  0  0  0  0  0  0  0  0  0  0  0
   -3.3718   -0.6988    0.7081 H   0  0  0  0  0  0  0  0  0  0  0  0
   -3.4498    1.5740    1.7629 H   0  0  0  0  0  0  0  0  0  0  0  0
   -1.6826    3.2116    1.2749 H   0  0  0  0  0  0  0  0  0  0  0  0
    0.2494    2.6362   -0.1879 H   0  0  0  0  0  0  0  0  0  0  0  0
    0.3395    0.3980   -1.2844 H   0  0  0  0  0  0  0  0  0  0  0  0
   -3.8545    4.1977   -0.3523 S   0  0  0  0  0  0  0  0  0  0  0  0
   -2.8426    5.7562   -0.3021 C   0  0  0  0  0  0  0  0  0  0  0  0
   -2.8378    3.1957   -0.8729 O   0  0  0  0  0  0  0  0  0  0  0  0
   -4.9406    4.4673   -1.2971 O   0  0  0  0  0  0  0  0  0  0  0  0
   -4.1964    3.9636    1.0650 O   0  0  0  0  0  0  0  0  0  0  0  0
   -1.7470    5.5644    0.4721 F   0  0  0  0  0  0  0  0  0  0  0  0
   -2.4245    6.1034   -1.5253 F   0  0  0  0  0  0  0  0  0  0  0  0
   -3.5439    6.7690    0.2162 F   0  0  0  0  0  0  0  0  0  0  0  0
  1  4  1  0  0  0  0
  2  1  1  0  0  0  0
  3  2  1  0  0  0  0
  4  9  1  0  0  0  0
  4  5  2  0  0  0  0
  5 10  1  0  0  0  0
  6  5  1  0  0  0  0
  6 11  1  0  0  0  0
  7  6  2  0  0  0  0
  8  1  2  0  0  0  0
  8  7  1  0  0  0  0
 12  7  1  0  0  0  0
 13  8  1  0  0  0  0
 14 15  1  0  0  0  0
 14 18  1  0  0  0  0
 15 21  1  0  0  0  0
 15 19  1  0  0  0  0
 16 14  2  0  0  0  0
 17 14  2  0  0  0  0
 20 15  1  0  0  0  0
M  RAD  3   2   2   3   3  18   2
M  END
