Coordinates from ORCA-job PhN2+~TfO-_B3LYPG-6-31G_dp-NX-Scan-d89-09-n800
 OpenBabel11261920253D

 21 20  0  0  0  0  0  0  0  0999 V2000
   -1.5311   -0.2528   -0.3758 C   0  0  0  0  0  0  0  0  0  0  0  0
   -1.5361   -1.4206   -1.0328 N   0  0  0  0  0  0  0  0  0  0  0  0
   -1.5567   -2.3946   -1.6021 N   0  0  0  0  0  0  0  0  0  0  0  0
   -2.6072    0.0369    0.5162 C   0  0  0  0  0  0  0  0  0  0  0  0
   -2.6475    1.2798    1.0854 C   0  0  0  0  0  0  0  0  0  0  0  0
   -1.6714    2.2539    0.7442 C   0  0  0  0  0  0  0  0  0  0  0  0
   -0.5413    1.8999   -0.0368 C   0  0  0  0  0  0  0  0  0  0  0  0
   -0.4733    0.6682   -0.6311 C   0  0  0  0  0  0  0  0  0  0  0  0
   -3.3697   -0.7110    0.7041 H   0  0  0  0  0  0  0  0  0  0  0  0
   -3.4678    1.5750    1.7283 H   0  0  0  0  0  0  0  0  0  0  0  0
   -1.6956    3.2093    1.2487 H   0  0  0  0  0  0  0  0  0  0  0  0
    0.2329    2.6361   -0.2199 H   0  0  0  0  0  0  0  0  0  0  0  0
    0.3442    0.3844   -1.2846 H   0  0  0  0  0  0  0  0  0  0  0  0
   -3.8593    4.2209   -0.3454 S   0  0  0  0  0  0  0  0  0  0  0  0
   -2.8396    5.7741   -0.2843 C   0  0  0  0  0  0  0  0  0  0  0  0
   -2.8496    3.2197   -0.8816 O   0  0  0  0  0  0  0  0  0  0  0  0
   -4.9488    4.5051   -1.2818 O   0  0  0  0  0  0  0  0  0  0  0  0
   -4.1947    3.9736    1.0713 O   0  0  0  0  0  0  0  0  0  0  0  0
   -1.7397    5.5676    0.4800 F   0  0  0  0  0  0  0  0  0  0  0  0
   -2.4283    6.1333   -1.5062 F   0  0  0  0  0  0  0  0  0  0  0  0
   -3.5323    6.7842    0.2507 F   0  0  0  0  0  0  0  0  0  0  0  0
  1  4  1  0  0  0  0
  2  1  1  0  0  0  0
  3  2  1  0  0  0  0
  4  9  1  0  0  0  0
  4  5  2  0  0  0  0
  5 10  1  0  0  0  0
  6  5  1  0  0  0  0
  6 11  1  0  0  0  0
  7  6  2  0  0  0  0
  8  1  2  0  0  0  0
  8  7  1  0  0  0  0
 12  7  1  0  0  0  0
 13  8  1  0  0  0  0
 14 15  1  0  0  0  0
 14 18  1  0  0  0  0
 15 21  1  0  0  0  0
 15 19  1  0  0  0  0
 16 14  2  0  0  0  0
 17 14  2  0  0  0  0
 20 15  1  0  0  0  0
M  RAD  3   2   2   3   3  18   2
M  END
