Coordinates from ORCA-job PhN2+~TfO-_B3LYPG-6-31G_dp-NX-Scan-d89-09-n800
 OpenBabel11261920253D

 21 20  0  0  0  0  0  0  0  0999 V2000
   -1.5932    1.0494   -0.1254 C   0  0  0  0  0  0  0  0  0  0  0  0
   -2.8657    0.9866   -0.6888 N   0  0  0  0  0  0  0  0  0  0  0  0
   -3.9453    1.2968   -0.8346 N   0  0  0  0  0  0  0  0  0  0  0  0
   -1.3892    1.8914    0.9803 C   0  0  0  0  0  0  0  0  0  0  0  0
   -0.1084    1.9324    1.5199 C   0  0  0  0  0  0  0  0  0  0  0  0
    0.9210    1.1639    0.9651 C   0  0  0  0  0  0  0  0  0  0  0  0
    0.6877    0.3334   -0.1370 C   0  0  0  0  0  0  0  0  0  0  0  0
   -0.5833    0.2636   -0.6948 C   0  0  0  0  0  0  0  0  0  0  0  0
   -2.2170    2.4720    1.3706 H   0  0  0  0  0  0  0  0  0  0  0  0
    0.0868    2.5731    2.3731 H   0  0  0  0  0  0  0  0  0  0  0  0
    1.9165    1.2130    1.3955 H   0  0  0  0  0  0  0  0  0  0  0  0
    1.4947   -0.2553   -0.5592 H   0  0  0  0  0  0  0  0  0  0  0  0
   -0.7995   -0.3662   -1.5505 H   0  0  0  0  0  0  0  0  0  0  0  0
   -3.9736    4.1777   -0.2679 S   0  0  0  0  0  0  0  0  0  0  0  0
   -5.5745    4.5560   -1.1295 C   0  0  0  0  0  0  0  0  0  0  0  0
   -3.7170    5.3071    0.6263 O   0  0  0  0  0  0  0  0  0  0  0  0
   -3.0127    3.9050   -1.3530 O   0  0  0  0  0  0  0  0  0  0  0  0
   -4.3236    2.9047    0.5037 O   0  0  0  0  0  0  0  0  0  0  0  0
   -6.5492    4.7706   -0.2400 F   0  0  0  0  0  0  0  0  0  0  0  0
   -5.4399    5.6448   -1.8952 F   0  0  0  0  0  0  0  0  0  0  0  0
   -5.9275    3.5227   -1.9123 F   0  0  0  0  0  0  0  0  0  0  0  0
  1  4  2  0  0  0  0
  2  1  1  0  0  0  0
  3  2  1  0  0  0  0
  4  9  1  0  0  0  0
  4  5  1  0  0  0  0
  5 10  1  0  0  0  0
  6 11  1  0  0  0  0
  6  5  2  0  0  0  0
  7  6  1  0  0  0  0
  8  7  2  0  0  0  0
  8  1  1  0  0  0  0
 12  7  1  0  0  0  0
 13  8  1  0  0  0  0
 14 18  2  0  0  0  0
 14 16  1  0  0  0  0
 15 14  1  0  0  0  0
 15 19  1  0  0  0  0
 17 14  2  0  0  0  0
 20 15  1  0  0  0  0
 21 15  1  0  0  0  0
M  RAD  3   2   2   3   3  16   2
M  END
