Coordinates from ORCA-job PhN2+~TfO-_B3LYPG-6-31G_dp-NX-Scan-d89-09-n800
 OpenBabel11261920253D

 21 20  0  0  0  0  0  0  0  0999 V2000
   -1.4713    1.3938   -0.3203 C   0  0  0  0  0  0  0  0  0  0  0  0
   -2.4731    1.2943   -1.2795 N   0  0  0  0  0  0  0  0  0  0  0  0
   -3.2526    1.0374   -2.0439 N   0  0  0  0  0  0  0  0  0  0  0  0
   -1.1580    2.6391    0.2412 C   0  0  0  0  0  0  0  0  0  0  0  0
   -0.1477    2.6646    1.1986 C   0  0  0  0  0  0  0  0  0  0  0  0
    0.5092    1.4897    1.5735 C   0  0  0  0  0  0  0  0  0  0  0  0
    0.1724    0.2585    0.9951 C   0  0  0  0  0  0  0  0  0  0  0  0
   -0.8255    0.1939    0.0338 C   0  0  0  0  0  0  0  0  0  0  0  0
   -1.7002    3.5172   -0.0989 H   0  0  0  0  0  0  0  0  0  0  0  0
    0.1247    3.6105    1.6536 H   0  0  0  0  0  0  0  0  0  0  0  0
    1.2930    1.5291    2.3240 H   0  0  0  0  0  0  0  0  0  0  0  0
    0.6882   -0.6474    1.2940 H   0  0  0  0  0  0  0  0  0  0  0  0
   -1.1098   -0.7424   -0.4330 H   0  0  0  0  0  0  0  0  0  0  0  0
   -4.3675    4.0534   -1.7612 S   0  0  0  0  0  0  0  0  0  0  0  0
   -5.0195    3.7820   -0.0424 C   0  0  0  0  0  0  0  0  0  0  0  0
   -2.9001    4.1564   -1.5166 O   0  0  0  0  0  0  0  0  0  0  0  0
   -5.0388    5.2586   -2.2449 O   0  0  0  0  0  0  0  0  0  0  0  0
   -4.7369    2.7745   -2.4446 O   0  0  0  0  0  0  0  0  0  0  0  0
   -4.4255    2.6796    0.4939 F   0  0  0  0  0  0  0  0  0  0  0  0
   -4.7347    4.8188    0.7564 F   0  0  0  0  0  0  0  0  0  0  0  0
   -6.3389    3.5812   -0.0325 F   0  0  0  0  0  0  0  0  0  0  0  0
  1  8  2  0  0  0  0
  1  4  1  0  0  0  0
  2  1  1  0  0  0  0
  3  2  1  0  0  0  0
  4  5  2  0  0  0  0
  5  6  1  0  0  0  0
  5 10  1  0  0  0  0
  6 11  1  0  0  0  0
  7 12  1  0  0  0  0
  7  6  2  0  0  0  0
  8  7  1  0  0  0  0
  9  4  1  0  0  0  0
 13  8  1  0  0  0  0
 14 16  1  0  0  0  0
 14 15  1  0  0  0  0
 15 21  1  0  0  0  0
 15 19  1  0  0  0  0
 15 20  1  0  0  0  0
 17 14  2  0  0  0  0
 18 14  2  0  0  0  0
M  RAD  3   2   2   3   3  16   2
M  END
