Coordinates from ORCA-job PhN2+~TfO-_B3LYPG-6-31G_dp-NX-Scan-d89-09-n800
 OpenBabel11261920253D

 21 20  0  0  0  0  0  0  0  0999 V2000
   -1.4775    1.3358   -0.3232 C   0  0  0  0  0  0  0  0  0  0  0  0
   -2.4744    1.2121   -1.2807 N   0  0  0  0  0  0  0  0  0  0  0  0
   -3.2717    1.0388   -2.0508 N   0  0  0  0  0  0  0  0  0  0  0  0
   -1.1636    2.6036    0.1884 C   0  0  0  0  0  0  0  0  0  0  0  0
   -0.1501    2.6641    1.1407 C   0  0  0  0  0  0  0  0  0  0  0  0
    0.5070    1.5037    1.5583 C   0  0  0  0  0  0  0  0  0  0  0  0
    0.1682    0.2506    1.0294 C   0  0  0  0  0  0  0  0  0  0  0  0
   -0.8321    0.1495    0.0739 C   0  0  0  0  0  0  0  0  0  0  0  0
   -1.7092    3.4709   -0.1806 H   0  0  0  0  0  0  0  0  0  0  0  0
    0.1240    3.6265    1.5586 H   0  0  0  0  0  0  0  0  0  0  0  0
    1.2931    1.5716    2.3043 H   0  0  0  0  0  0  0  0  0  0  0  0
    0.6849   -0.6428    1.3621 H   0  0  0  0  0  0  0  0  0  0  0  0
   -1.1177   -0.8034   -0.3570 H   0  0  0  0  0  0  0  0  0  0  0  0
   -4.3435    4.1367   -1.7312 S   0  0  0  0  0  0  0  0  0  0  0  0
   -5.0213    3.7686   -0.0404 C   0  0  0  0  0  0  0  0  0  0  0  0
   -2.8952    4.3362   -1.4479 O   0  0  0  0  0  0  0  0  0  0  0  0
   -5.0887    5.3040   -2.2011 O   0  0  0  0  0  0  0  0  0  0  0  0
   -4.6200    2.8550   -2.4583 O   0  0  0  0  0  0  0  0  0  0  0  0
   -4.3784    2.6817    0.4743 F   0  0  0  0  0  0  0  0  0  0  0  0
   -4.8201    4.7891    0.8021 F   0  0  0  0  0  0  0  0  0  0  0  0
   -6.3264    3.4904   -0.0747 F   0  0  0  0  0  0  0  0  0  0  0  0
  1  8  2  0  0  0  0
  1  4  1  0  0  0  0
  2  1  1  0  0  0  0
  3  2  1  0  0  0  0
  4  5  2  0  0  0  0
  5  6  1  0  0  0  0
  5 10  1  0  0  0  0
  6 11  1  0  0  0  0
  7 12  1  0  0  0  0
  7  6  2  0  0  0  0
  8  7  1  0  0  0  0
  9  4  1  0  0  0  0
 13  8  1  0  0  0  0
 14 16  1  0  0  0  0
 14 15  1  0  0  0  0
 15 19  1  0  0  0  0
 15 20  1  0  0  0  0
 17 14  2  0  0  0  0
 18 14  2  0  0  0  0
 21 15  1  0  0  0  0
M  RAD  3   2   2   3   3  16   2
M  END
