Coordinates from ORCA-job PhN2+~TfO-_B3LYPG-6-31G_dp-NX-Scan-d89-09-n800
 OpenBabel11261920253D

 21 20  0  0  0  0  0  0  0  0999 V2000
   -1.4760    1.3426   -0.3244 C   0  0  0  0  0  0  0  0  0  0  0  0
   -2.4723    1.2217   -1.2833 N   0  0  0  0  0  0  0  0  0  0  0  0
   -3.2669    1.0410   -2.0543 N   0  0  0  0  0  0  0  0  0  0  0  0
   -1.1608    2.6083    0.1911 C   0  0  0  0  0  0  0  0  0  0  0  0
   -0.1487    2.6649    1.1451 C   0  0  0  0  0  0  0  0  0  0  0  0
    0.5058    1.5024    1.5610 C   0  0  0  0  0  0  0  0  0  0  0  0
    0.1657    0.2513    1.0282 C   0  0  0  0  0  0  0  0  0  0  0  0
   -0.8331    0.1543    0.0709 C   0  0  0  0  0  0  0  0  0  0  0  0
   -1.7043    3.4770   -0.1769 H   0  0  0  0  0  0  0  0  0  0  0  0
    0.1263    3.6258    1.5659 H   0  0  0  0  0  0  0  0  0  0  0  0
    1.2908    1.5672    2.3085 H   0  0  0  0  0  0  0  0  0  0  0  0
    0.6804   -0.6439    1.3595 H   0  0  0  0  0  0  0  0  0  0  0  0
   -1.1196   -0.7971   -0.3628 H   0  0  0  0  0  0  0  0  0  0  0  0
   -4.3471    4.1285   -1.7337 S   0  0  0  0  0  0  0  0  0  0  0  0
   -5.0198    3.7678   -0.0394 C   0  0  0  0  0  0  0  0  0  0  0  0
   -2.8964    4.3194   -1.4565 O   0  0  0  0  0  0  0  0  0  0  0  0
   -5.0870    5.2995   -2.2026 O   0  0  0  0  0  0  0  0  0  0  0  0
   -4.6330    2.8471   -2.4573 O   0  0  0  0  0  0  0  0  0  0  0  0
   -4.3801    2.6793    0.4755 F   0  0  0  0  0  0  0  0  0  0  0  0
   -4.8101    4.7896    0.7996 F   0  0  0  0  0  0  0  0  0  0  0  0
   -6.3264    3.4961   -0.0675 F   0  0  0  0  0  0  0  0  0  0  0  0
  1  8  2  0  0  0  0
  1  4  1  0  0  0  0
  2  1  1  0  0  0  0
  3  2  1  0  0  0  0
  4  5  2  0  0  0  0
  5  6  1  0  0  0  0
  5 10  1  0  0  0  0
  6 11  1  0  0  0  0
  7 12  1  0  0  0  0
  7  6  2  0  0  0  0
  8  7  1  0  0  0  0
  9  4  1  0  0  0  0
 13  8  1  0  0  0  0
 14 16  1  0  0  0  0
 14 15  1  0  0  0  0
 15 19  1  0  0  0  0
 15 20  1  0  0  0  0
 17 14  2  0  0  0  0
 18 14  2  0  0  0  0
 21 15  1  0  0  0  0
M  RAD  3   2   2   3   3  16   2
M  END
