Coordinates from ORCA-job PhN2+~TfO-_B3LYPG-6-31G_dp-NX-Scan-d89-09-n800
 OpenBabel11261920253D

 21 20  0  0  0  0  0  0  0  0999 V2000
   -1.4722    1.3764   -0.3248 C   0  0  0  0  0  0  0  0  0  0  0  0
   -2.4693    1.2691   -1.2862 N   0  0  0  0  0  0  0  0  0  0  0  0
   -3.2530    1.0411   -2.0556 N   0  0  0  0  0  0  0  0  0  0  0  0
   -1.1551    2.6299    0.2162 C   0  0  0  0  0  0  0  0  0  0  0  0
   -0.1463    2.6663    1.1748 C   0  0  0  0  0  0  0  0  0  0  0  0
    0.5044    1.4948    1.5708 C   0  0  0  0  0  0  0  0  0  0  0  0
    0.1631    0.2554    1.0127 C   0  0  0  0  0  0  0  0  0  0  0  0
   -0.8328    0.1794    0.0503 C   0  0  0  0  0  0  0  0  0  0  0  0
   -1.6935    3.5060   -0.1375 H   0  0  0  0  0  0  0  0  0  0  0  0
    0.1294    3.6184    1.6146 H   0  0  0  0  0  0  0  0  0  0  0  0
    1.2868    1.5434    2.3222 H   0  0  0  0  0  0  0  0  0  0  0  0
    0.6741   -0.6476    1.3281 H   0  0  0  0  0  0  0  0  0  0  0  0
   -1.1204   -0.7630   -0.4019 H   0  0  0  0  0  0  0  0  0  0  0  0
   -4.3617    4.0836   -1.7501 S   0  0  0  0  0  0  0  0  0  0  0  0
   -5.0153    3.7712   -0.0388 C   0  0  0  0  0  0  0  0  0  0  0  0
   -2.8997    4.2265   -1.4983 O   0  0  0  0  0  0  0  0  0  0  0  0
   -5.0669    5.2742   -2.2225 O   0  0  0  0  0  0  0  0  0  0  0  0
   -4.6966    2.8032   -2.4505 O   0  0  0  0  0  0  0  0  0  0  0  0
   -4.3983    2.6744    0.4844 F   0  0  0  0  0  0  0  0  0  0  0  0
   -4.7601    4.8015    0.7777 F   0  0  0  0  0  0  0  0  0  0  0  0
   -6.3295    3.5385   -0.0393 F   0  0  0  0  0  0  0  0  0  0  0  0
  1  8  2  0  0  0  0
  1  4  1  0  0  0  0
  2  1  1  0  0  0  0
  3  2  1  0  0  0  0
  4  5  2  0  0  0  0
  5  6  1  0  0  0  0
  5 10  1  0  0  0  0
  6 11  1  0  0  0  0
  7 12  1  0  0  0  0
  7  6  2  0  0  0  0
  8  7  1  0  0  0  0
  9  4  1  0  0  0  0
 13  8  1  0  0  0  0
 14 16  1  0  0  0  0
 14 15  1  0  0  0  0
 15 19  1  0  0  0  0
 15 20  1  0  0  0  0
 17 14  2  0  0  0  0
 18 14  2  0  0  0  0
 21 15  1  0  0  0  0
M  RAD  3   2   2   3   3  16   2
M  END
