Coordinates from ORCA-job PhN2+~TfO-_B3LYPG-6-31G_dp-NX-Scan-d89-09-n800
 OpenBabel11261920253D

 21 20  0  0  0  0  0  0  0  0999 V2000
   -1.1757    1.4072   -0.7102 C   0  0  0  0  0  0  0  0  0  0  0  0
   -1.7619    1.5279   -1.9568 N   0  0  0  0  0  0  0  0  0  0  0  0
   -2.3200    1.8389   -2.8739 N   0  0  0  0  0  0  0  0  0  0  0  0
   -1.3379    2.4817    0.1797 C   0  0  0  0  0  0  0  0  0  0  0  0
   -0.7500    2.3508    1.4322 C   0  0  0  0  0  0  0  0  0  0  0  0
   -0.0410    1.1919    1.7664 C   0  0  0  0  0  0  0  0  0  0  0  0
    0.1012    0.1382    0.8532 C   0  0  0  0  0  0  0  0  0  0  0  0
   -0.4687    0.2335   -0.4090 C   0  0  0  0  0  0  0  0  0  0  0  0
   -1.9045    3.3525   -0.1262 H   0  0  0  0  0  0  0  0  0  0  0  0
   -0.8608    3.1543    2.1524 H   0  0  0  0  0  0  0  0  0  0  0  0
    0.4053    1.1047    2.7521 H   0  0  0  0  0  0  0  0  0  0  0  0
    0.6512   -0.7547    1.1287 H   0  0  0  0  0  0  0  0  0  0  0  0
   -0.3855   -0.5641   -1.1387 H   0  0  0  0  0  0  0  0  0  0  0  0
   -4.5502    3.3591   -1.3415 S   0  0  0  0  0  0  0  0  0  0  0  0
   -4.7536    4.5459    0.0786 C   0  0  0  0  0  0  0  0  0  0  0  0
   -3.3057    3.8957   -2.0017 O   0  0  0  0  0  0  0  0  0  0  0  0
   -5.7890    3.4877   -2.1123 O   0  0  0  0  0  0  0  0  0  0  0  0
   -4.2911    2.0558   -0.6789 O   0  0  0  0  0  0  0  0  0  0  0  0
   -3.6355    4.5571    0.8514 F   0  0  0  0  0  0  0  0  0  0  0  0
   -4.9595    5.7926   -0.3567 F   0  0  0  0  0  0  0  0  0  0  0  0
   -5.7798    4.1862    0.8574 F   0  0  0  0  0  0  0  0  0  0  0  0
  1  8  2  0  0  0  0
  1  4  1  0  0  0  0
  2  1  1  0  0  0  0
  3  2  1  0  0  0  0
  4  5  2  0  0  0  0
  5  6  1  0  0  0  0
  5 10  1  0  0  0  0
  6 11  1  0  0  0  0
  7 12  1  0  0  0  0
  7  6  2  0  0  0  0
  8  7  1  0  0  0  0
  9  4  1  0  0  0  0
 13  8  1  0  0  0  0
 14 18  1  0  0  0  0
 14 15  1  0  0  0  0
 15 19  1  0  0  0  0
 15 21  1  0  0  0  0
 16 14  2  0  0  0  0
 17 14  2  0  0  0  0
 20 15  1  0  0  0  0
M  RAD  3   2   2   3   3  18   2
M  END
