Coordinates from ORCA-job PhN2+~TfO-_B3LYPG-6-31G_dp-NX-Scan-d89-09-n800
 OpenBabel11261920253D

 21 20  0  0  0  0  0  0  0  0999 V2000
   -1.5242   -0.6309   -0.3985 C   0  0  0  0  0  0  0  0  0  0  0  0
   -1.6073   -1.8570   -0.9769 N   0  0  0  0  0  0  0  0  0  0  0  0
   -1.6947   -2.8659   -1.4592 N   0  0  0  0  0  0  0  0  0  0  0  0
   -2.7092    0.1432   -0.2996 C   0  0  0  0  0  0  0  0  0  0  0  0
   -2.6033    1.4003    0.2620 C   0  0  0  0  0  0  0  0  0  0  0  0
   -1.3530    1.8699    0.7117 C   0  0  0  0  0  0  0  0  0  0  0  0
   -0.1967    1.0744    0.6141 C   0  0  0  0  0  0  0  0  0  0  0  0
   -0.2569   -0.1879    0.0550 C   0  0  0  0  0  0  0  0  0  0  0  0
   -3.6508   -0.2452   -0.6717 H   0  0  0  0  0  0  0  0  0  0  0  0
   -3.4663    2.0709    0.3168 H   0  0  0  0  0  0  0  0  0  0  0  0
   -1.3120    2.8932    1.0899 H   0  0  0  0  0  0  0  0  0  0  0  0
    0.7556    1.4574    0.9646 H   0  0  0  0  0  0  0  0  0  0  0  0
    0.6166   -0.8219   -0.0488 H   0  0  0  0  0  0  0  0  0  0  0  0
   -3.1325    4.7272   -0.2650 S   0  0  0  0  0  0  0  0  0  0  0  0
   -3.8105    6.4540   -0.2053 C   0  0  0  0  0  0  0  0  0  0  0  0
   -2.6476    4.5490   -1.6472 O   0  0  0  0  0  0  0  0  0  0  0  0
   -4.3058    3.8849    0.1027 O   0  0  0  0  0  0  0  0  0  0  0  0
   -2.0648    4.7442    0.7762 O   0  0  0  0  0  0  0  0  0  0  0  0
   -2.8531    7.3472   -0.4996 F   0  0  0  0  0  0  0  0  0  0  0  0
   -4.8083    6.5995   -1.0913 F   0  0  0  0  0  0  0  0  0  0  0  0
   -4.2882    6.7364    1.0165 F   0  0  0  0  0  0  0  0  0  0  0  0
  1  4  2  0  0  0  0
  1  8  1  0  0  0  0
  2  1  1  0  0  0  0
  3  2  1  0  0  0  0
  4  5  1  0  0  0  0
  5 10  1  0  0  0  0
  5  6  2  0  0  0  0
  6 11  1  0  0  0  0
  7  6  1  0  0  0  0
  7 12  1  0  0  0  0
  8  7  2  0  0  0  0
  9  4  1  0  0  0  0
 13  8  1  0  0  0  0
 14 15  1  0  0  0  0
 14 17  2  0  0  0  0
 14 18  1  0  0  0  0
 15 21  1  0  0  0  0
 16 14  2  0  0  0  0
 19 15  1  0  0  0  0
 20 15  1  0  0  0  0
M  RAD  3   2   2   3   3  18   2
M  END
