Coordinates from ORCA-job PhN2+~TfO-_B3LYPG-6-31G_dp-NX-Scan-d89-09-n800
 OpenBabel11261920253D

 21 20  0  0  0  0  0  0  0  0999 V2000
   -1.6133   -0.0996   -0.3786 C   0  0  0  0  0  0  0  0  0  0  0  0
   -1.8262   -1.1280   -1.2211 N   0  0  0  0  0  0  0  0  0  0  0  0
   -2.0313   -1.9560   -1.9545 N   0  0  0  0  0  0  0  0  0  0  0  0
   -2.6061    0.1854    0.5983 C   0  0  0  0  0  0  0  0  0  0  0  0
   -2.4920    1.3670    1.2866 C   0  0  0  0  0  0  0  0  0  0  0  0
   -1.4406    2.2570    0.9761 C   0  0  0  0  0  0  0  0  0  0  0  0
   -0.3761    1.8744    0.1351 C   0  0  0  0  0  0  0  0  0  0  0  0
   -0.4617    0.7071   -0.5836 C   0  0  0  0  0  0  0  0  0  0  0  0
   -3.4473   -0.4851    0.7326 H   0  0  0  0  0  0  0  0  0  0  0  0
   -3.2690    1.6846    1.9697 H   0  0  0  0  0  0  0  0  0  0  0  0
   -1.4232    3.2294    1.4524 H   0  0  0  0  0  0  0  0  0  0  0  0
    0.4594    2.5471   -0.0206 H   0  0  0  0  0  0  0  0  0  0  0  0
    0.2848    0.4169   -1.3141 H   0  0  0  0  0  0  0  0  0  0  0  0
   -3.8155    3.9919   -0.5010 S   0  0  0  0  0  0  0  0  0  0  0  0
   -2.9395    5.6238   -0.3503 C   0  0  0  0  0  0  0  0  0  0  0  0
   -2.7003    3.0888   -0.9596 O   0  0  0  0  0  0  0  0  0  0  0  0
   -4.8629    4.2100   -1.5056 O   0  0  0  0  0  0  0  0  0  0  0  0
   -4.2479    3.7155    0.8871 O   0  0  0  0  0  0  0  0  0  0  0  0
   -1.9078    5.5180    0.5251 F   0  0  0  0  0  0  0  0  0  0  0  0
   -2.4338    6.0169   -1.5274 F   0  0  0  0  0  0  0  0  0  0  0  0
   -3.7624    6.5777    0.0999 F   0  0  0  0  0  0  0  0  0  0  0  0
  1  4  1  0  0  0  0
  2  1  1  0  0  0  0
  3  2  1  0  0  0  0
  4  9  1  0  0  0  0
  4  5  2  0  0  0  0
  5 10  1  0  0  0  0
  6  5  1  0  0  0  0
  6 11  1  0  0  0  0
  7  6  2  0  0  0  0
  8  1  2  0  0  0  0
  8  7  1  0  0  0  0
 12  7  1  0  0  0  0
 13  8  1  0  0  0  0
 14 15  1  0  0  0  0
 14 18  1  0  0  0  0
 15 21  1  0  0  0  0
 15 19  1  0  0  0  0
 16 14  2  0  0  0  0
 17 14  2  0  0  0  0
 20 15  1  0  0  0  0
M  RAD  3   2   2   3   3  18   2
M  END
