Coordinates from ORCA-job PhN2+~TfO-_B3LYPG-6-31G_dp-NX-Scan-d89-09-n800
 OpenBabel11261920253D

 21 20  0  0  0  0  0  0  0  0999 V2000
   -1.2017    1.2898   -0.5706 C   0  0  0  0  0  0  0  0  0  0  0  0
   -1.9532    1.2863   -1.7510 N   0  0  0  0  0  0  0  0  0  0  0  0
   -2.7487    1.7810   -2.4156 N   0  0  0  0  0  0  0  0  0  0  0  0
   -1.3752    2.2988    0.3913 C   0  0  0  0  0  0  0  0  0  0  0  0
   -0.6017    2.2262    1.5455 C   0  0  0  0  0  0  0  0  0  0  0  0
    0.3149    1.1848    1.7263 C   0  0  0  0  0  0  0  0  0  0  0  0
    0.4718    0.1918    0.7536 C   0  0  0  0  0  0  0  0  0  0  0  0
   -0.2912    0.2362   -0.4073 C   0  0  0  0  0  0  0  0  0  0  0  0
   -2.0974    3.0868    0.2236 H   0  0  0  0  0  0  0  0  0  0  0  0
   -0.7179    2.9885    2.3092 H   0  0  0  0  0  0  0  0  0  0  0  0
    0.9096    1.1455    2.6340 H   0  0  0  0  0  0  0  0  0  0  0  0
    1.1828   -0.6140    0.9023 H   0  0  0  0  0  0  0  0  0  0  0  0
   -0.1994   -0.5197   -1.1797 H   0  0  0  0  0  0  0  0  0  0  0  0
   -4.8237    3.4599   -1.4728 S   0  0  0  0  0  0  0  0  0  0  0  0
   -4.9020    4.6759   -0.0601 C   0  0  0  0  0  0  0  0  0  0  0  0
   -3.2814    3.4480   -1.6726 O   0  0  0  0  0  0  0  0  0  0  0  0
   -5.5454    4.0878   -2.5761 O   0  0  0  0  0  0  0  0  0  0  0  0
   -5.2928    2.1810   -0.9286 O   0  0  0  0  0  0  0  0  0  0  0  0
   -4.1355    4.2478    0.9646 F   0  0  0  0  0  0  0  0  0  0  0  0
   -4.4645    5.8779   -0.4410 F   0  0  0  0  0  0  0  0  0  0  0  0
   -6.1602    4.7826    0.3713 F   0  0  0  0  0  0  0  0  0  0  0  0
  1  8  2  0  0  0  0
  1  4  1  0  0  0  0
  2  1  1  0  0  0  0
  3  2  2  0  0  0  0
  4  5  2  0  0  0  0
  5  6  1  0  0  0  0
  5 10  1  0  0  0  0
  6 11  1  0  0  0  0
  7 12  1  0  0  0  0
  7  6  2  0  0  0  0
  8  7  1  0  0  0  0
  9  4  1  0  0  0  0
 13  8  1  0  0  0  0
 14 18  1  0  0  0  0
 14 15  1  0  0  0  0
 15 21  1  0  0  0  0
 15 19  1  0  0  0  0
 16 14  2  0  0  0  0
 17 14  2  0  0  0  0
 20 15  1  0  0  0  0
M  RAD  2   3   2  18   2
M  END
