Coordinates from ORCA-job PhN2+~TfO-_B3LYPG-6-31G_dp-NX-Scan-d89-09-n800
 OpenBabel11261920253D

 21 20  0  0  0  0  0  0  0  0999 V2000
   -1.5276   -0.7111   -0.3050 C   0  0  0  0  0  0  0  0  0  0  0  0
   -1.6535   -1.9883   -0.7500 N   0  0  0  0  0  0  0  0  0  0  0  0
   -1.7803   -3.0376   -1.1256 N   0  0  0  0  0  0  0  0  0  0  0  0
   -2.6688    0.1302   -0.3640 C   0  0  0  0  0  0  0  0  0  0  0  0
   -2.5198    1.4362    0.0601 C   0  0  0  0  0  0  0  0  0  0  0  0
   -1.2697    1.8869    0.5292 C   0  0  0  0  0  0  0  0  0  0  0  0
   -0.1594    1.0252    0.5939 C   0  0  0  0  0  0  0  0  0  0  0  0
   -0.2633   -0.2878    0.1746 C   0  0  0  0  0  0  0  0  0  0  0  0
   -3.6112   -0.2499   -0.7431 H   0  0  0  0  0  0  0  0  0  0  0  0
   -3.3486    2.1520    0.0020 H   0  0  0  0  0  0  0  0  0  0  0  0
   -1.2008    2.9425    0.8035 H   0  0  0  0  0  0  0  0  0  0  0  0
    0.7925    1.3937    0.9609 H   0  0  0  0  0  0  0  0  0  0  0  0
    0.5751   -0.9751    0.1968 H   0  0  0  0  0  0  0  0  0  0  0  0
   -3.1248    4.8494   -0.4334 S   0  0  0  0  0  0  0  0  0  0  0  0
   -3.9033    6.4841   -0.0252 C   0  0  0  0  0  0  0  0  0  0  0  0
   -2.6803    4.9700   -1.8329 O   0  0  0  0  0  0  0  0  0  0  0  0
   -4.2352    3.8803   -0.2021 O   0  0  0  0  0  0  0  0  0  0  0  0
   -2.0284    4.7380    0.5717 O   0  0  0  0  0  0  0  0  0  0  0  0
   -3.0109    7.4780   -0.1560 F   0  0  0  0  0  0  0  0  0  0  0  0
   -4.9349    6.7338   -0.8465 F   0  0  0  0  0  0  0  0  0  0  0  0
   -4.3596    6.4923    1.2374 F   0  0  0  0  0  0  0  0  0  0  0  0
  1  8  1  0  0  0  0
  2  1  1  0  0  0  0
  3  2  1  0  0  0  0
  4  1  2  0  0  0  0
  4  5  1  0  0  0  0
  5  6  2  0  0  0  0
  6  7  1  0  0  0  0
  6 11  1  0  0  0  0
  7 12  1  0  0  0  0
  8 13  1  0  0  0  0
  8  7  2  0  0  0  0
  9  4  1  0  0  0  0
 10  5  1  0  0  0  0
 14 17  2  0  0  0  0
 14 15  1  0  0  0  0
 14 18  1  0  0  0  0
 15 21  1  0  0  0  0
 16 14  2  0  0  0  0
 19 15  1  0  0  0  0
 20 15  1  0  0  0  0
M  RAD  3   2   2   3   3  18   2
M  END
