Coordinates from ORCA-job PhN2+~TfO-_B3LYPG-6-31G_dp-NX-Scan-d89-09-n800
 OpenBabel11261920253D

 21 20  0  0  0  0  0  0  0  0999 V2000
   -1.5211   -0.2814   -0.3707 C   0  0  0  0  0  0  0  0  0  0  0  0
   -1.4949   -1.4779   -0.9745 N   0  0  0  0  0  0  0  0  0  0  0  0
   -1.4855   -2.4795   -1.4944 N   0  0  0  0  0  0  0  0  0  0  0  0
   -2.6104    0.0255    0.4996 C   0  0  0  0  0  0  0  0  0  0  0  0
   -2.6633    1.2808    1.0405 C   0  0  0  0  0  0  0  0  0  0  0  0
   -1.6837    2.2510    0.6980 C   0  0  0  0  0  0  0  0  0  0  0  0
   -0.5538    1.8897   -0.0800 C   0  0  0  0  0  0  0  0  0  0  0  0
   -0.4727    0.6448   -0.6453 C   0  0  0  0  0  0  0  0  0  0  0  0
   -3.3698   -0.7226    0.6988 H   0  0  0  0  0  0  0  0  0  0  0  0
   -3.4907    1.5859    1.6697 H   0  0  0  0  0  0  0  0  0  0  0  0
   -1.7041    3.2071    1.2008 H   0  0  0  0  0  0  0  0  0  0  0  0
    0.2164    2.6267   -0.2758 H   0  0  0  0  0  0  0  0  0  0  0  0
    0.3520    0.3527   -1.2859 H   0  0  0  0  0  0  0  0  0  0  0  0
   -3.8658    4.2555   -0.3409 S   0  0  0  0  0  0  0  0  0  0  0  0
   -2.8429    5.8050   -0.2491 C   0  0  0  0  0  0  0  0  0  0  0  0
   -2.8609    3.2650   -0.9043 O   0  0  0  0  0  0  0  0  0  0  0  0
   -4.9594    4.5635   -1.2649 O   0  0  0  0  0  0  0  0  0  0  0  0
   -4.1952    3.9772    1.0716 O   0  0  0  0  0  0  0  0  0  0  0  0
   -1.7399    5.5787    0.5054 F   0  0  0  0  0  0  0  0  0  0  0  0
   -2.4363    6.1910   -1.4643 F   0  0  0  0  0  0  0  0  0  0  0  0
   -3.5309    6.8040    0.3120 F   0  0  0  0  0  0  0  0  0  0  0  0
  1  4  1  0  0  0  0
  2  1  1  0  0  0  0
  3  2  1  0  0  0  0
  4  9  1  0  0  0  0
  4  5  2  0  0  0  0
  5 10  1  0  0  0  0
  6  5  1  0  0  0  0
  6 11  1  0  0  0  0
  7  6  2  0  0  0  0
  8  1  2  0  0  0  0
  8  7  1  0  0  0  0
 12  7  1  0  0  0  0
 13  8  1  0  0  0  0
 14 15  1  0  0  0  0
 14 18  1  0  0  0  0
 15 21  1  0  0  0  0
 15 19  1  0  0  0  0
 16 14  2  0  0  0  0
 17 14  2  0  0  0  0
 20 15  1  0  0  0  0
M  RAD  3   2   2   3   3  18   2
M  END
