Coordinates from ORCA-job PhN2+~TfO-_B3LYPG-6-31G_dp-NX-Scan-d89-09-n800
 OpenBabel11261920253D

 21 20  0  0  0  0  0  0  0  0999 V2000
   -1.5240   -0.6354   -0.3940 C   0  0  0  0  0  0  0  0  0  0  0  0
   -1.6090   -1.8640   -0.9667 N   0  0  0  0  0  0  0  0  0  0  0  0
   -1.6982   -2.8748   -1.4447 N   0  0  0  0  0  0  0  0  0  0  0  0
   -2.7072    0.1423   -0.3020 C   0  0  0  0  0  0  0  0  0  0  0  0
   -2.5994    1.4020    0.2536 C   0  0  0  0  0  0  0  0  0  0  0  0
   -1.3488    1.8704    0.7042 C   0  0  0  0  0  0  0  0  0  0  0  0
   -0.1945    1.0711    0.6139 C   0  0  0  0  0  0  0  0  0  0  0  0
   -0.2567   -0.1938    0.0608 C   0  0  0  0  0  0  0  0  0  0  0  0
   -3.6489   -0.2454   -0.6745 H   0  0  0  0  0  0  0  0  0  0  0  0
   -3.4607    2.0751    0.3031 H   0  0  0  0  0  0  0  0  0  0  0  0
   -1.3066    2.8955    1.0775 H   0  0  0  0  0  0  0  0  0  0  0  0
    0.7578    1.4532    0.9652 H   0  0  0  0  0  0  0  0  0  0  0  0
    0.6153   -0.8307   -0.0374 H   0  0  0  0  0  0  0  0  0  0  0  0
   -3.1323    4.7331   -0.2748 S   0  0  0  0  0  0  0  0  0  0  0  0
   -3.8156    6.4571   -0.1966 C   0  0  0  0  0  0  0  0  0  0  0  0
   -2.6503    4.5697   -1.6597 O   0  0  0  0  0  0  0  0  0  0  0  0
   -4.3024    3.8840    0.0879 O   0  0  0  0  0  0  0  0  0  0  0  0
   -2.0625    4.7432    0.7643 O   0  0  0  0  0  0  0  0  0  0  0  0
   -2.8612    7.3563   -0.4825 F   0  0  0  0  0  0  0  0  0  0  0  0
   -4.8146    6.6086   -1.0801 F   0  0  0  0  0  0  0  0  0  0  0  0
   -4.2929    6.7253    1.0286 F   0  0  0  0  0  0  0  0  0  0  0  0
  1  4  2  0  0  0  0
  1  8  1  0  0  0  0
  2  1  1  0  0  0  0
  3  2  1  0  0  0  0
  4  5  1  0  0  0  0
  5 10  1  0  0  0  0
  5  6  2  0  0  0  0
  6 11  1  0  0  0  0
  7  6  1  0  0  0  0
  7 12  1  0  0  0  0
  8  7  2  0  0  0  0
  9  4  1  0  0  0  0
 13  8  1  0  0  0  0
 14 15  1  0  0  0  0
 14 17  2  0  0  0  0
 14 18  1  0  0  0  0
 15 21  1  0  0  0  0
 16 14  2  0  0  0  0
 19 15  1  0  0  0  0
 20 15  1  0  0  0  0
M  RAD  3   2   2   3   3  18   2
M  END
