Coordinates from ORCA-job PhN2+~TfO-_B3LYPG-6-31G_dp-NX-Scan-d89-09-n800
 OpenBabel11261920253D

 21 21  0  0  0  0  0  0  0  0999 V2000
   -1.4333    1.3337   -0.0376 C   0  0  0  0  0  0  0  0  0  0  0  0
   -2.7125    1.0434   -0.6029 N   0  0  0  0  0  0  0  0  0  0  0  0
   -3.5271    1.9401   -0.9842 N   0  0  0  0  0  0  0  0  0  0  0  0
   -0.7595    2.5652    0.1150 C   0  0  0  0  0  0  0  0  0  0  0  0
    0.5141    2.5928    0.6856 C   0  0  0  0  0  0  0  0  0  0  0  0
    1.1359    1.4206    1.1163 C   0  0  0  0  0  0  0  0  0  0  0  0
    0.4767    0.1973    0.9688 C   0  0  0  0  0  0  0  0  0  0  0  0
   -0.7886    0.1583    0.3953 C   0  0  0  0  0  0  0  0  0  0  0  0
   -1.2032    3.4954   -0.2062 H   0  0  0  0  0  0  0  0  0  0  0  0
    1.0216    3.5471    0.7938 H   0  0  0  0  0  0  0  0  0  0  0  0
    2.1259    1.4597    1.5602 H   0  0  0  0  0  0  0  0  0  0  0  0
    0.9498   -0.7231    1.2974 H   0  0  0  0  0  0  0  0  0  0  0  0
   -1.3177   -0.7797    0.2634 H   0  0  0  0  0  0  0  0  0  0  0  0
   -4.5213    4.1775   -1.5184 S   0  0  0  0  0  0  0  0  0  0  0  0
   -5.9476    3.7173   -0.3480 C   0  0  0  0  0  0  0  0  0  0  0  0
   -3.2586    3.0429   -0.8745 O   0  0  0  0  0  0  0  0  0  0  0  0
   -4.0016    5.4777   -1.1456 O   0  0  0  0  0  0  0  0  0  0  0  0
   -4.8730    3.7694   -2.8639 O   0  0  0  0  0  0  0  0  0  0  0  0
   -6.5761    2.6531   -0.8092 F   0  0  0  0  0  0  0  0  0  0  0  0
   -5.4518    3.4889    0.8604 F   0  0  0  0  0  0  0  0  0  0  0  0
   -6.7650    4.7651   -0.3195 F   0  0  0  0  0  0  0  0  0  0  0  0
  1  4  2  0  0  0  0
  1  8  1  0  0  0  0
  2  1  1  0  0  0  0
  3 16  1  0  0  0  0
  3  2  2  0  0  0  0
  4  5  1  0  0  0  0
  5 10  1  0  0  0  0
  5  6  2  0  0  0  0
  6 11  1  0  0  0  0
  7  6  1  0  0  0  0
  7 12  1  0  0  0  0
  8  7  2  0  0  0  0
  9  4  1  0  0  0  0
 13  8  1  0  0  0  0
 14 17  2  0  0  0  0
 14 16  1  0  0  0  0
 14 15  1  0  0  0  0
 15 21  1  0  0  0  0
 15 20  1  0  0  0  0
 18 14  2  0  0  0  0
 19 15  1  0  0  0  0
M  END
