Coordinates from ORCA-job PhN2+~TfO-_B3LYPG-6-31G_dp-NX-Scan-d89-09-n800
 OpenBabel11261920253D

 21 20  0  0  0  0  0  0  0  0999 V2000
   -1.5607   -0.7458   -0.1991 C   0  0  0  0  0  0  0  0  0  0  0  0
   -1.7588   -2.0594   -0.4825 N   0  0  0  0  0  0  0  0  0  0  0  0
   -1.9483   -3.1383   -0.7243 N   0  0  0  0  0  0  0  0  0  0  0  0
   -2.6331    0.1538   -0.4324 C   0  0  0  0  0  0  0  0  0  0  0  0
   -2.4133    1.4907   -0.1632 C   0  0  0  0  0  0  0  0  0  0  0  0
   -1.1610    1.9135    0.3246 C   0  0  0  0  0  0  0  0  0  0  0  0
   -0.1208    0.9972    0.5644 C   0  0  0  0  0  0  0  0  0  0  0  0
   -0.2966   -0.3488    0.3030 C   0  0  0  0  0  0  0  0  0  0  0  0
   -3.5809   -0.2103   -0.8141 H   0  0  0  0  0  0  0  0  0  0  0  0
   -3.1915    2.2458   -0.3393 H   0  0  0  0  0  0  0  0  0  0  0  0
   -1.0442    2.9869    0.4912 H   0  0  0  0  0  0  0  0  0  0  0  0
    0.8329    1.3459    0.9461 H   0  0  0  0  0  0  0  0  0  0  0  0
    0.4865   -1.0814    0.4636 H   0  0  0  0  0  0  0  0  0  0  0  0
   -3.0877    4.9867   -0.6212 S   0  0  0  0  0  0  0  0  0  0  0  0
   -3.9936    6.4029    0.1655 C   0  0  0  0  0  0  0  0  0  0  0  0
   -2.6943    5.4724   -1.9528 O   0  0  0  0  0  0  0  0  0  0  0  0
   -4.1077    3.8966   -0.6146 O   0  0  0  0  0  0  0  0  0  0  0  0
   -1.9637    4.7421    0.3281 O   0  0  0  0  0  0  0  0  0  0  0  0
   -3.2002    7.4812    0.2568 F   0  0  0  0  0  0  0  0  0  0  0  0
   -5.0746    6.7346   -0.5575 F   0  0  0  0  0  0  0  0  0  0  0  0
   -4.4014    6.0764    1.4038 F   0  0  0  0  0  0  0  0  0  0  0  0
  1  8  1  0  0  0  0
  2  1  1  0  0  0  0
  3  2  1  0  0  0  0
  4  1  2  0  0  0  0
  4  5  1  0  0  0  0
  5  6  2  0  0  0  0
  6 11  1  0  0  0  0
  6  7  1  0  0  0  0
  7 12  1  0  0  0  0
  8 13  1  0  0  0  0
  8  7  2  0  0  0  0
  9  4  1  0  0  0  0
 10  5  1  0  0  0  0
 14 17  2  0  0  0  0
 14 15  1  0  0  0  0
 14 18  1  0  0  0  0
 15 19  1  0  0  0  0
 15 21  1  0  0  0  0
 16 14  2  0  0  0  0
 20 15  1  0  0  0  0
M  RAD  3   2   2   3   3  18   2
M  END
