Coordinates from ORCA-job PhN2+~TfO-_B3LYPG-6-31G_dp-NX-Scan-d89-09-n800
 OpenBabel11261920253D

 21 20  0  0  0  0  0  0  0  0999 V2000
   -1.5940   -0.1336   -0.3802 C   0  0  0  0  0  0  0  0  0  0  0  0
   -1.7721   -1.1776   -1.2072 N   0  0  0  0  0  0  0  0  0  0  0  0
   -1.9494   -2.0217   -1.9310 N   0  0  0  0  0  0  0  0  0  0  0  0
   -2.6031    0.1436    0.5850 C   0  0  0  0  0  0  0  0  0  0  0  0
   -2.5261    1.3376    1.2534 C   0  0  0  0  0  0  0  0  0  0  0  0
   -1.4986    2.2553    0.9320 C   0  0  0  0  0  0  0  0  0  0  0  0
   -0.4102    1.8799    0.1140 C   0  0  0  0  0  0  0  0  0  0  0  0
   -0.4600    0.7004   -0.5847 C   0  0  0  0  0  0  0  0  0  0  0  0
   -3.4246   -0.5494    0.7274 H   0  0  0  0  0  0  0  0  0  0  0  0
   -3.3122    1.6458    1.9309 H   0  0  0  0  0  0  0  0  0  0  0  0
   -1.4993    3.2262    1.4105 H   0  0  0  0  0  0  0  0  0  0  0  0
    0.4126    2.5685   -0.0398 H   0  0  0  0  0  0  0  0  0  0  0  0
    0.3042    0.4140   -1.2984 H   0  0  0  0  0  0  0  0  0  0  0  0
   -3.8200    4.0390   -0.4489 S   0  0  0  0  0  0  0  0  0  0  0  0
   -2.9159    5.6598   -0.3553 C   0  0  0  0  0  0  0  0  0  0  0  0
   -2.7246    3.1057   -0.9091 O   0  0  0  0  0  0  0  0  0  0  0  0
   -4.8796    4.2447   -1.4420 O   0  0  0  0  0  0  0  0  0  0  0  0
   -4.2251    3.7969    0.9524 O   0  0  0  0  0  0  0  0  0  0  0  0
   -1.8654    5.5545    0.4959 F   0  0  0  0  0  0  0  0  0  0  0  0
   -2.4353    6.0192   -1.5530 F   0  0  0  0  0  0  0  0  0  0  0  0
   -3.7141    6.6341    0.0947 F   0  0  0  0  0  0  0  0  0  0  0  0
  1  4  1  0  0  0  0
  2  1  1  0  0  0  0
  3  2  1  0  0  0  0
  4  9  1  0  0  0  0
  4  5  2  0  0  0  0
  5 10  1  0  0  0  0
  6  5  1  0  0  0  0
  6 11  1  0  0  0  0
  7  6  2  0  0  0  0
  8  1  2  0  0  0  0
  8  7  1  0  0  0  0
 12  7  1  0  0  0  0
 13  8  1  0  0  0  0
 14 15  1  0  0  0  0
 14 18  1  0  0  0  0
 15 21  1  0  0  0  0
 15 19  1  0  0  0  0
 16 14  2  0  0  0  0
 17 14  2  0  0  0  0
 20 15  1  0  0  0  0
M  RAD  3   2   2   3   3  18   2
M  END
