Coordinates from ORCA-job PhN2+~TfO-_B3LYPG-6-31G_dp-NX-Scan-d89-09-n800
 OpenBabel11261920253D

 21 20  0  0  0  0  0  0  0  0999 V2000
   -1.5339   -0.5921   -0.4711 C   0  0  0  0  0  0  0  0  0  0  0  0
   -1.5787   -1.8366   -1.0091 N   0  0  0  0  0  0  0  0  0  0  0  0
   -1.6265   -2.8684   -1.4494 N   0  0  0  0  0  0  0  0  0  0  0  0
   -2.7574    0.0986   -0.2595 C   0  0  0  0  0  0  0  0  0  0  0  0
   -2.6911    1.3619    0.2902 C   0  0  0  0  0  0  0  0  0  0  0  0
   -1.4408    1.9228    0.6281 C   0  0  0  0  0  0  0  0  0  0  0  0
   -0.2443    1.2152    0.4083 C   0  0  0  0  0  0  0  0  0  0  0  0
   -0.2652   -0.0491   -0.1471 C   0  0  0  0  0  0  0  0  0  0  0  0
   -3.6995   -0.3606   -0.5370 H   0  0  0  0  0  0  0  0  0  0  0  0
   -3.5920    1.9591    0.4337 H   0  0  0  0  0  0  0  0  0  0  0  0
   -1.4203    2.9200    1.0668 H   0  0  0  0  0  0  0  0  0  0  0  0
    0.7054    1.6682    0.6704 H   0  0  0  0  0  0  0  0  0  0  0  0
    0.6389   -0.6179   -0.3329 H   0  0  0  0  0  0  0  0  0  0  0  0
   -3.1638    4.6652    0.1234 S   0  0  0  0  0  0  0  0  0  0  0  0
   -3.6699    6.3919   -0.3364 C   0  0  0  0  0  0  0  0  0  0  0  0
   -2.3766    4.1881   -1.0457 O   0  0  0  0  0  0  0  0  0  0  0  0
   -4.4518    3.9507    0.3203 O   0  0  0  0  0  0  0  0  0  0  0  0
   -2.3529    4.8350    1.3563 O   0  0  0  0  0  0  0  0  0  0  0  0
   -2.5892    7.1514   -0.5723 F   0  0  0  0  0  0  0  0  0  0  0  0
   -4.4274    6.3823   -1.4444 F   0  0  0  0  0  0  0  0  0  0  0  0
   -4.3758    6.9569    0.6538 F   0  0  0  0  0  0  0  0  0  0  0  0
  1  4  2  0  0  0  0
  1  8  1  0  0  0  0
  2  1  1  0  0  0  0
  3  2  1  0  0  0  0
  4  5  1  0  0  0  0
  5 10  1  0  0  0  0
  5  6  2  0  0  0  0
  6 11  1  0  0  0  0
  7  6  1  0  0  0  0
  7 12  1  0  0  0  0
  8  7  2  0  0  0  0
  9  4  1  0  0  0  0
 13  8  1  0  0  0  0
 14 17  2  0  0  0  0
 14 18  1  0  0  0  0
 15 14  1  0  0  0  0
 15 21  1  0  0  0  0
 16 14  2  0  0  0  0
 19 15  1  0  0  0  0
 20 15  1  0  0  0  0
M  RAD  3   2   2   3   3  18   2
M  END
