Coordinates from ORCA-job PhN2+~TfO-_B3LYPG-6-31G_dp-NX-Scan-d89-09-n800
 OpenBabel11261920253D

 21 20  0  0  0  0  0  0  0  0999 V2000
   -1.3883    1.0743   -0.5442 C   0  0  0  0  0  0  0  0  0  0  0  0
   -2.2809    0.8786   -1.5887 N   0  0  0  0  0  0  0  0  0  0  0  0
   -2.9227    0.5851   -2.4504 N   0  0  0  0  0  0  0  0  0  0  0  0
   -1.1736    2.3645   -0.0402 C   0  0  0  0  0  0  0  0  0  0  0  0
   -0.2365    2.4814    0.9840 C   0  0  0  0  0  0  0  0  0  0  0  0
    0.4361    1.3599    1.4741 C   0  0  0  0  0  0  0  0  0  0  0  0
    0.1927    0.0822    0.9470 C   0  0  0  0  0  0  0  0  0  0  0  0
   -0.7245   -0.0800   -0.0786 C   0  0  0  0  0  0  0  0  0  0  0  0
   -1.7324    3.2279   -0.4114 H   0  0  0  0  0  0  0  0  0  0  0  0
   -0.0486    3.4636    1.4036 H   0  0  0  0  0  0  0  0  0  0  0  0
    1.1567    1.4749    2.2781 H   0  0  0  0  0  0  0  0  0  0  0  0
    0.7177   -0.7823    1.3379 H   0  0  0  0  0  0  0  0  0  0  0  0
   -0.9362   -1.0523   -0.5090 H   0  0  0  0  0  0  0  0  0  0  0  0
   -4.0431    4.1996   -1.2232 S   0  0  0  0  0  0  0  0  0  0  0  0
   -5.3994    4.3870    0.0302 C   0  0  0  0  0  0  0  0  0  0  0  0
   -2.8564    4.7879   -0.5459 O   0  0  0  0  0  0  0  0  0  0  0  0
   -4.5330    4.8885   -2.4206 O   0  0  0  0  0  0  0  0  0  0  0  0
   -3.9153    2.7096   -1.3534 O   0  0  0  0  0  0  0  0  0  0  0  0
   -5.0734    3.7537    1.1728 F   0  0  0  0  0  0  0  0  0  0  0  0
   -5.6081    5.6799    0.3117 F   0  0  0  0  0  0  0  0  0  0  0  0
   -6.5435    3.8587   -0.4277 F   0  0  0  0  0  0  0  0  0  0  0  0
  1  8  2  0  0  0  0
  1  4  1  0  0  0  0
  2  1  1  0  0  0  0
  3  2  1  0  0  0  0
  4  5  2  0  0  0  0
  5 10  1  0  0  0  0
  5  6  1  0  0  0  0
  6 11  1  0  0  0  0
  7 12  1  0  0  0  0
  7  6  2  0  0  0  0
  8  7  1  0  0  0  0
  9  4  1  0  0  0  0
 13  8  1  0  0  0  0
 14 16  1  0  0  0  0
 14 15  1  0  0  0  0
 15 20  1  0  0  0  0
 15 19  1  0  0  0  0
 17 14  2  0  0  0  0
 18 14  2  0  0  0  0
 21 15  1  0  0  0  0
M  RAD  3   2   2   3   3  16   2
M  END
