Coordinates from ORCA-job PhN2+~TfO-_B3LYPG-6-31G_dp-NX-Scan-d89-09-n800
 OpenBabel11261920253D

 21 21  0  0  0  0  0  0  0  0999 V2000
   -1.1589    1.6443    0.0937 C   0  0  0  0  0  0  0  0  0  0  0  0
   -2.4634    1.9509   -0.4002 N   0  0  0  0  0  0  0  0  0  0  0  0
   -2.7975    3.1696   -0.3638 N   0  0  0  0  0  0  0  0  0  0  0  0
   -0.2008    2.5404    0.5965 C   0  0  0  0  0  0  0  0  0  0  0  0
    1.0317    2.0519    1.0353 C   0  0  0  0  0  0  0  0  0  0  0  0
    1.3215    0.6889    0.9810 C   0  0  0  0  0  0  0  0  0  0  0  0
    0.3665   -0.2002    0.4801 C   0  0  0  0  0  0  0  0  0  0  0  0
   -0.8645    0.2722    0.0387 C   0  0  0  0  0  0  0  0  0  0  0  0
   -0.3876    3.6057    0.6547 H   0  0  0  0  0  0  0  0  0  0  0  0
    1.7683    2.7501    1.4212 H   0  0  0  0  0  0  0  0  0  0  0  0
    2.2834    0.3220    1.3253 H   0  0  0  0  0  0  0  0  0  0  0  0
    0.5813   -1.2635    0.4311 H   0  0  0  0  0  0  0  0  0  0  0  0
   -1.6202   -0.3986   -0.3554 H   0  0  0  0  0  0  0  0  0  0  0  0
   -4.9661    4.6151   -1.1637 S   0  0  2  0  0  0  0  0  0  0  0  0
   -6.6878    3.9420   -0.7687 C   0  0  0  0  0  0  0  0  0  0  0  0
   -2.4785    4.0694   -0.1014 O   0  0  0  0  0  0  0  0  0  0  0  0
   -4.9924    5.0534   -2.5805 O   0  0  0  0  0  0  0  0  0  0  0  0
   -4.3442    3.0924   -0.9976 O   0  0  0  0  0  0  0  0  0  0  0  0
   -6.7013    3.5050    0.4947 F   0  0  0  0  0  0  0  0  0  0  0  0
   -7.5448    4.9650   -0.8835 F   0  0  0  0  0  0  0  0  0  0  0  0
   -7.0575    2.9667   -1.5913 F   0  0  0  0  0  0  0  0  0  0  0  0
  1  4  1  0  0  0  0
  2  3  1  0  0  0  0
  2  1  1  0  0  0  0
  3 16  1  0  0  0  0
  4  9  1  0  0  0  0
  4  5  2  0  0  0  0
  5 10  1  0  0  0  0
  6  5  1  0  0  0  0
  6 11  1  0  0  0  0
  7  6  2  0  0  0  0
  8  1  2  0  0  0  0
  8  7  1  0  0  0  0
 12  7  1  0  0  0  0
 13  8  1  0  0  0  0
 14 17  1  6  0  0  0
 14 18  1  0  0  0  0
 14 15  1  0  0  0  0
 15 19  1  0  0  0  0
 18  3  1  0  0  0  0
 20 15  1  0  0  0  0
 21 15  1  0  0  0  0
M  RAD  3   2   2  16   2  17   2
M  END
