Coordinates from ORCA-job PhN2+~TfO-_B3LYPG-6-31G_dp-NX-Scan-d89-09-n800
 OpenBabel11261920253D

 21 20  0  0  0  0  0  0  0  0999 V2000
   -1.5246   -0.6232   -0.4061 C   0  0  0  0  0  0  0  0  0  0  0  0
   -1.6045   -1.8451   -0.9936 N   0  0  0  0  0  0  0  0  0  0  0  0
   -1.6889   -2.8508   -1.4832 N   0  0  0  0  0  0  0  0  0  0  0  0
   -2.7126    0.1447   -0.2959 C   0  0  0  0  0  0  0  0  0  0  0  0
   -2.6099    1.3977    0.2755 C   0  0  0  0  0  0  0  0  0  0  0  0
   -1.3598    1.8692    0.7238 C   0  0  0  0  0  0  0  0  0  0  0  0
   -0.2003    1.0798    0.6145 C   0  0  0  0  0  0  0  0  0  0  0  0
   -0.2573   -0.1781    0.0454 C   0  0  0  0  0  0  0  0  0  0  0  0
   -3.6540   -0.2447   -0.6674 H   0  0  0  0  0  0  0  0  0  0  0  0
   -3.4753    2.0639    0.3389 H   0  0  0  0  0  0  0  0  0  0  0  0
   -1.3209    2.8894    1.1102 H   0  0  0  0  0  0  0  0  0  0  0  0
    0.7517    1.4645    0.9639 H   0  0  0  0  0  0  0  0  0  0  0  0
    0.6186   -0.8072   -0.0673 H   0  0  0  0  0  0  0  0  0  0  0  0
   -3.1327    4.7175   -0.2486 S   0  0  0  0  0  0  0  0  0  0  0  0
   -3.8020    6.4485   -0.2197 C   0  0  0  0  0  0  0  0  0  0  0  0
   -2.6432    4.5145   -1.6260 O   0  0  0  0  0  0  0  0  0  0  0  0
   -4.3112    3.8865    0.1274 O   0  0  0  0  0  0  0  0  0  0  0  0
   -2.0686    4.7459    0.7960 O   0  0  0  0  0  0  0  0  0  0  0  0
   -2.8396    7.3314   -0.5283 F   0  0  0  0  0  0  0  0  0  0  0  0
   -4.7980    6.5838   -1.1095 F   0  0  0  0  0  0  0  0  0  0  0  0
   -4.2796    6.7546    0.9963 F   0  0  0  0  0  0  0  0  0  0  0  0
  1  4  2  0  0  0  0
  1  8  1  0  0  0  0
  2  1  1  0  0  0  0
  3  2  1  0  0  0  0
  4  5  1  0  0  0  0
  5 10  1  0  0  0  0
  5  6  2  0  0  0  0
  6 11  1  0  0  0  0
  7  6  1  0  0  0  0
  7 12  1  0  0  0  0
  8  7  2  0  0  0  0
  9  4  1  0  0  0  0
 13  8  1  0  0  0  0
 14 15  1  0  0  0  0
 14 17  2  0  0  0  0
 14 18  1  0  0  0  0
 15 21  1  0  0  0  0
 16 14  2  0  0  0  0
 19 15  1  0  0  0  0
 20 15  1  0  0  0  0
M  RAD  3   2   2   3   3  18   2
M  END
