Coordinates from ORCA-job PhN2+~TfO-_B3LYPG-6-31G_dp-NX-Scan-d89-09-n800
 OpenBabel11261920253D

 21 20  0  0  0  0  0  0  0  0999 V2000
   -1.3344    1.0768   -0.5781 C   0  0  0  0  0  0  0  0  0  0  0  0
   -2.1920    0.9148   -1.6536 N   0  0  0  0  0  0  0  0  0  0  0  0
   -2.8476    0.7391   -2.5358 N   0  0  0  0  0  0  0  0  0  0  0  0
   -1.1645    2.3572   -0.0298 C   0  0  0  0  0  0  0  0  0  0  0  0
   -0.2690    2.4586    1.0321 C   0  0  0  0  0  0  0  0  0  0  0  0
    0.4055    1.3337    1.5132 C   0  0  0  0  0  0  0  0  0  0  0  0
    0.2069    0.0684    0.9400 C   0  0  0  0  0  0  0  0  0  0  0  0
   -0.6681   -0.0793   -0.1244 C   0  0  0  0  0  0  0  0  0  0  0  0
   -1.7285    3.2201   -0.4017 H   0  0  0  0  0  0  0  0  0  0  0  0
   -0.1139    3.4302    1.4885 H   0  0  0  0  0  0  0  0  0  0  0  0
    1.0929    1.4368    2.3473 H   0  0  0  0  0  0  0  0  0  0  0  0
    0.7332   -0.7977    1.3255 H   0  0  0  0  0  0  0  0  0  0  0  0
   -0.8466   -1.0416   -0.5908 H   0  0  0  0  0  0  0  0  0  0  0  0
   -4.1053    4.0983   -1.2314 S   0  0  0  0  0  0  0  0  0  0  0  0
   -5.3949    4.4650    0.0523 C   0  0  0  0  0  0  0  0  0  0  0  0
   -2.8716    4.7191   -0.6731 O   0  0  0  0  0  0  0  0  0  0  0  0
   -4.6265    4.6770   -2.4740 O   0  0  0  0  0  0  0  0  0  0  0  0
   -4.0271    2.6016   -1.2069 O   0  0  0  0  0  0  0  0  0  0  0  0
   -5.0173    3.9785    1.2492 F   0  0  0  0  0  0  0  0  0  0  0  0
   -5.5789    5.7863    0.1757 F   0  0  0  0  0  0  0  0  0  0  0  0
   -6.5651    3.9000   -0.2779 F   0  0  0  0  0  0  0  0  0  0  0  0
  1  8  2  0  0  0  0
  1  4  1  0  0  0  0
  2  1  1  0  0  0  0
  3  2  1  0  0  0  0
  4  5  2  0  0  0  0
  5 10  1  0  0  0  0
  5  6  1  0  0  0  0
  6 11  1  0  0  0  0
  7 12  1  0  0  0  0
  7  6  2  0  0  0  0
  8  7  1  0  0  0  0
  9  4  1  0  0  0  0
 13  8  1  0  0  0  0
 14 18  2  0  0  0  0
 14 16  1  0  0  0  0
 14 15  1  0  0  0  0
 15 20  1  0  0  0  0
 15 19  1  0  0  0  0
 17 14  2  0  0  0  0
 21 15  1  0  0  0  0
M  RAD  3   2   2   3   3  16   2
M  END
