Coordinates from ORCA-job PhN2+~TfO-_B3LYPG-6-31G_dp-NX-Scan-d89-09-n800
 OpenBabel11261920253D

 21 20  0  0  0  0  0  0  0  0999 V2000
   -1.5048    1.4300   -0.2690 C   0  0  0  0  0  0  0  0  0  0  0  0
   -2.5472    1.3301   -1.1962 N   0  0  0  0  0  0  0  0  0  0  0  0
   -3.2840    0.9198   -1.9322 N   0  0  0  0  0  0  0  0  0  0  0  0
   -1.3308    2.5921    0.4902 C   0  0  0  0  0  0  0  0  0  0  0  0
   -0.2915    2.5985    1.4164 C   0  0  0  0  0  0  0  0  0  0  0  0
    0.5364    1.4830    1.5665 C   0  0  0  0  0  0  0  0  0  0  0  0
    0.3390    0.3331    0.7920 C   0  0  0  0  0  0  0  0  0  0  0  0
   -0.6904    0.2910   -0.1382 C   0  0  0  0  0  0  0  0  0  0  0  0
   -1.9825    3.4382    0.3184 H   0  0  0  0  0  0  0  0  0  0  0  0
   -0.1276    3.4846    2.0202 H   0  0  0  0  0  0  0  0  0  0  0  0
    1.3447    1.5070    2.2911 H   0  0  0  0  0  0  0  0  0  0  0  0
    0.9859   -0.5293    0.9140 H   0  0  0  0  0  0  0  0  0  0  0  0
   -0.8704   -0.5862   -0.7497 H   0  0  0  0  0  0  0  0  0  0  0  0
   -4.3785    3.8174   -1.8258 S   0  0  0  0  0  0  0  0  0  0  0  0
   -5.0038    3.9768   -0.0834 C   0  0  0  0  0  0  0  0  0  0  0  0
   -2.9106    3.6149   -1.5894 O   0  0  0  0  0  0  0  0  0  0  0  0
   -4.7483    5.0668   -2.4864 O   0  0  0  0  0  0  0  0  0  0  0  0
   -5.0195    2.5674   -2.3087 O   0  0  0  0  0  0  0  0  0  0  0  0
   -4.6863    2.8559    0.6127 F   0  0  0  0  0  0  0  0  0  0  0  0
   -4.4163    5.0127    0.5394 F   0  0  0  0  0  0  0  0  0  0  0  0
   -6.3263    4.1391   -0.0355 F   0  0  0  0  0  0  0  0  0  0  0  0
  1  8  2  0  0  0  0
  1  4  1  0  0  0  0
  2  1  1  0  0  0  0
  3  2  1  0  0  0  0
  4  5  2  0  0  0  0
  5  6  1  0  0  0  0
  5 10  1  0  0  0  0
  6 11  1  0  0  0  0
  7 12  1  0  0  0  0
  7  6  2  0  0  0  0
  8  7  1  0  0  0  0
  9  4  1  0  0  0  0
 13  8  1  0  0  0  0
 14 16  1  0  0  0  0
 14 15  1  0  0  0  0
 15 21  1  0  0  0  0
 15 20  1  0  0  0  0
 15 19  1  0  0  0  0
 17 14  2  0  0  0  0
 18 14  2  0  0  0  0
M  RAD  3   2   2   3   3  16   2
M  END
