Coordinates from ORCA-job PhN2+~TfO-_B3LYPG-6-31G_dp-NX-Scan-d89-09-n800
 OpenBabel11261920253D

 21 20  0  0  0  0  0  0  0  0999 V2000
   -1.4595    1.0896   -0.4957 C   0  0  0  0  0  0  0  0  0  0  0  0
   -2.4113    0.8655   -1.4867 N   0  0  0  0  0  0  0  0  0  0  0  0
   -3.0675    0.4469   -2.2854 N   0  0  0  0  0  0  0  0  0  0  0  0
   -1.1786    2.3859   -0.0464 C   0  0  0  0  0  0  0  0  0  0  0  0
   -0.1907    2.5074    0.9287 C   0  0  0  0  0  0  0  0  0  0  0  0
    0.4702    1.3827    1.4260 C   0  0  0  0  0  0  0  0  0  0  0  0
    0.1619    0.0973    0.9555 C   0  0  0  0  0  0  0  0  0  0  0  0
   -0.8092   -0.0687   -0.0184 C   0  0  0  0  0  0  0  0  0  0  0  0
   -1.7220    3.2528   -0.4214 H   0  0  0  0  0  0  0  0  0  0  0  0
    0.0460    3.4970    1.3035 H   0  0  0  0  0  0  0  0  0  0  0  0
    1.2321    1.5012    2.1906 H   0  0  0  0  0  0  0  0  0  0  0  0
    0.6781   -0.7709    1.3499 H   0  0  0  0  0  0  0  0  0  0  0  0
   -1.0710   -1.0479   -0.4033 H   0  0  0  0  0  0  0  0  0  0  0  0
   -3.9598    4.3302   -1.2137 S   0  0  0  0  0  0  0  0  0  0  0  0
   -5.3818    4.2605   -0.0215 C   0  0  0  0  0  0  0  0  0  0  0  0
   -2.8502    4.8953   -0.4035 O   0  0  0  0  0  0  0  0  0  0  0  0
   -4.4451    5.1323   -2.3396 O   0  0  0  0  0  0  0  0  0  0  0  0
   -3.7349    2.8749   -1.5297 O   0  0  0  0  0  0  0  0  0  0  0  0
   -5.0556    3.5117    1.0505 F   0  0  0  0  0  0  0  0  0  0  0  0
   -5.7033    5.4877    0.4057 F   0  0  0  0  0  0  0  0  0  0  0  0
   -6.4605    3.7114   -0.5986 F   0  0  0  0  0  0  0  0  0  0  0  0
  1  4  2  0  0  0  0
  1  8  1  0  0  0  0
  2  1  1  0  0  0  0
  3  2  1  0  0  0  0
  4  5  1  0  0  0  0
  5 10  1  0  0  0  0
  5  6  2  0  0  0  0
  6 11  1  0  0  0  0
  7 12  1  0  0  0  0
  7  6  1  0  0  0  0
  8  7  2  0  0  0  0
  9  4  1  0  0  0  0
 13  8  1  0  0  0  0
 14 16  1  0  0  0  0
 14 15  1  0  0  0  0
 15 20  1  0  0  0  0
 15 19  1  0  0  0  0
 17 14  2  0  0  0  0
 18 14  2  0  0  0  0
 21 15  1  0  0  0  0
M  RAD  3   2   2   3   3  16   2
M  END
