Coordinates from ORCA-job PhN2+~TfO-_B3LYPG-6-31G_dp-NX-Scan-d89-09-n800
 OpenBabel11261920253D

 21 20  0  0  0  0  0  0  0  0999 V2000
   -1.5916   -0.1423   -0.3826 C   0  0  0  0  0  0  0  0  0  0  0  0
   -1.7551   -1.2020   -1.1923 N   0  0  0  0  0  0  0  0  0  0  0  0
   -1.9205   -2.0613   -1.9008 N   0  0  0  0  0  0  0  0  0  0  0  0
   -2.6045    0.1380    0.5778 C   0  0  0  0  0  0  0  0  0  0  0  0
   -2.5330    1.3351    1.2407 C   0  0  0  0  0  0  0  0  0  0  0  0
   -1.5074    2.2552    0.9185 C   0  0  0  0  0  0  0  0  0  0  0  0
   -0.4179    1.8801    0.1014 C   0  0  0  0  0  0  0  0  0  0  0  0
   -0.4620    0.6968   -0.5910 C   0  0  0  0  0  0  0  0  0  0  0  0
   -3.4224   -0.5583    0.7245 H   0  0  0  0  0  0  0  0  0  0  0  0
   -3.3200    1.6417    1.9179 H   0  0  0  0  0  0  0  0  0  0  0  0
   -1.5079    3.2250    1.3991 H   0  0  0  0  0  0  0  0  0  0  0  0
    0.4039    2.5696   -0.0538 H   0  0  0  0  0  0  0  0  0  0  0  0
    0.3058    0.4091   -1.3003 H   0  0  0  0  0  0  0  0  0  0  0  0
   -3.8225    4.0535   -0.4440 S   0  0  0  0  0  0  0  0  0  0  0  0
   -2.9137    5.6715   -0.3469 C   0  0  0  0  0  0  0  0  0  0  0  0
   -2.7303    3.1182   -0.9084 O   0  0  0  0  0  0  0  0  0  0  0  0
   -4.8823    4.2649   -1.4356 O   0  0  0  0  0  0  0  0  0  0  0  0
   -4.2262    3.8078    0.9569 O   0  0  0  0  0  0  0  0  0  0  0  0
   -1.8626    5.5606    0.5026 F   0  0  0  0  0  0  0  0  0  0  0  0
   -2.4337    6.0329   -1.5442 F   0  0  0  0  0  0  0  0  0  0  0  0
   -3.7087    6.6466    0.1069 F   0  0  0  0  0  0  0  0  0  0  0  0
  1  4  1  0  0  0  0
  2  1  1  0  0  0  0
  3  2  1  0  0  0  0
  4  9  1  0  0  0  0
  4  5  2  0  0  0  0
  5 10  1  0  0  0  0
  6  5  1  0  0  0  0
  6 11  1  0  0  0  0
  7  6  2  0  0  0  0
  8  1  2  0  0  0  0
  8  7  1  0  0  0  0
 12  7  1  0  0  0  0
 13  8  1  0  0  0  0
 14 15  1  0  0  0  0
 14 18  1  0  0  0  0
 15 21  1  0  0  0  0
 15 19  1  0  0  0  0
 16 14  2  0  0  0  0
 17 14  2  0  0  0  0
 20 15  1  0  0  0  0
M  RAD  3   2   2   3   3  18   2
M  END
