Coordinates from ORCA-job PhN2+~TfO-_B3LYPG-6-31G_dp-NX-Scan-d89-09-n800
 OpenBabel11261920253D

 21 20  0  0  0  0  0  0  0  0999 V2000
   -1.4862   -0.3968   -0.3209 C   0  0  0  0  0  0  0  0  0  0  0  0
   -1.4027   -1.6836   -0.7068 N   0  0  0  0  0  0  0  0  0  0  0  0
   -1.3356   -2.7637   -1.0255 N   0  0  0  0  0  0  0  0  0  0  0  0
   -2.6021    0.0146    0.4666 C   0  0  0  0  0  0  0  0  0  0  0  0
   -2.6579    1.3248    0.8689 C   0  0  0  0  0  0  0  0  0  0  0  0
   -1.6398    2.2364    0.4942 C   0  0  0  0  0  0  0  0  0  0  0  0
   -0.5348    1.8021   -0.2755 C   0  0  0  0  0  0  0  0  0  0  0  0
   -0.4471    0.4991   -0.7015 C   0  0  0  0  0  0  0  0  0  0  0  0
   -3.3734   -0.7013    0.7280 H   0  0  0  0  0  0  0  0  0  0  0  0
   -3.4997    1.7061    1.4351 H   0  0  0  0  0  0  0  0  0  0  0  0
   -1.6386    3.2268    0.9231 H   0  0  0  0  0  0  0  0  0  0  0  0
    0.2393    2.5108   -0.5465 H   0  0  0  0  0  0  0  0  0  0  0  0
    0.3852    0.1420   -1.2981 H   0  0  0  0  0  0  0  0  0  0  0  0
   -3.8990    4.3781   -0.4038 S   0  0  0  0  0  0  0  0  0  0  0  0
   -2.9261    5.9207   -0.0435 C   0  0  0  0  0  0  0  0  0  0  0  0
   -2.8601    3.5105   -1.0757 O   0  0  0  0  0  0  0  0  0  0  0  0
   -4.9810    4.8065   -1.2946 O   0  0  0  0  0  0  0  0  0  0  0  0
   -4.2639    3.8917    0.9450 O   0  0  0  0  0  0  0  0  0  0  0  0
   -1.8485    5.6148    0.7233 F   0  0  0  0  0  0  0  0  0  0  0  0
   -2.4767    6.4890   -1.1689 F   0  0  0  0  0  0  0  0  0  0  0  0
   -3.6640    6.8141    0.6236 F   0  0  0  0  0  0  0  0  0  0  0  0
  1  4  1  0  0  0  0
  2  1  1  0  0  0  0
  3  2  1  0  0  0  0
  4  9  1  0  0  0  0
  4  5  2  0  0  0  0
  5 10  1  0  0  0  0
  6  5  1  0  0  0  0
  6 11  1  0  0  0  0
  7  6  2  0  0  0  0
  8  1  2  0  0  0  0
  8  7  1  0  0  0  0
 12  7  1  0  0  0  0
 13  8  1  0  0  0  0
 14 15  1  0  0  0  0
 14 18  1  0  0  0  0
 15 21  1  0  0  0  0
 15 19  1  0  0  0  0
 16 14  2  0  0  0  0
 17 14  2  0  0  0  0
 20 15  1  0  0  0  0
M  RAD  3   2   2   3   3  18   2
M  END
