Coordinates from ORCA-job PhN2+~TfO-_B3LYPG-6-31G_dp-NX-Scan-d89-09-n800
 OpenBabel11261920253D

 21 20  0  0  0  0  0  0  0  0999 V2000
   -1.4216    1.0097   -0.2848 C   0  0  0  0  0  0  0  0  0  0  0  0
   -2.5799    0.8946   -1.0490 N   0  0  0  0  0  0  0  0  0  0  0  0
   -3.6204    1.0798   -1.4428 N   0  0  0  0  0  0  0  0  0  0  0  0
   -1.3282    2.0561    0.6482 C   0  0  0  0  0  0  0  0  0  0  0  0
   -0.1474    2.1411    1.3803 C   0  0  0  0  0  0  0  0  0  0  0  0
    0.8829    1.2161    1.1863 C   0  0  0  0  0  0  0  0  0  0  0  0
    0.7581    0.1835    0.2484 C   0  0  0  0  0  0  0  0  0  0  0  0
   -0.4023    0.0712   -0.5057 C   0  0  0  0  0  0  0  0  0  0  0  0
   -2.1331    2.7758    0.7727 H   0  0  0  0  0  0  0  0  0  0  0  0
   -0.0363    2.9426    2.1031 H   0  0  0  0  0  0  0  0  0  0  0  0
    1.7962    1.3016    1.7673 H   0  0  0  0  0  0  0  0  0  0  0  0
    1.5654   -0.5265    0.1037 H   0  0  0  0  0  0  0  0  0  0  0  0
   -0.5312   -0.7116   -1.2449 H   0  0  0  0  0  0  0  0  0  0  0  0
   -4.1162    3.9133   -0.6437 S   0  0  0  0  0  0  0  0  0  0  0  0
   -5.7398    4.8128   -0.7056 C   0  0  0  0  0  0  0  0  0  0  0  0
   -3.2837    4.6773    0.3053 O   0  0  0  0  0  0  0  0  0  0  0  0
   -3.6440    3.8368   -2.0391 O   0  0  0  0  0  0  0  0  0  0  0  0
   -4.5036    2.5574   -0.0865 O   0  0  0  0  0  0  0  0  0  0  0  0
   -6.2760    4.8894    0.5184 F   0  0  0  0  0  0  0  0  0  0  0  0
   -5.5570    6.0530   -1.1750 F   0  0  0  0  0  0  0  0  0  0  0  0
   -6.5948    4.1685   -1.5102 F   0  0  0  0  0  0  0  0  0  0  0  0
  1  4  1  0  0  0  0
  2  1  1  0  0  0  0
  3  2  1  0  0  0  0
  4  9  1  0  0  0  0
  4  5  2  0  0  0  0
  5 10  1  0  0  0  0
  6  5  1  0  0  0  0
  6 11  1  0  0  0  0
  7  6  2  0  0  0  0
  8  1  2  0  0  0  0
  8  7  1  0  0  0  0
 12  7  1  0  0  0  0
 13  8  1  0  0  0  0
 14 18  2  0  0  0  0
 14 16  1  0  0  0  0
 15 14  1  0  0  0  0
 15 19  1  0  0  0  0
 17 14  2  0  0  0  0
 20 15  1  0  0  0  0
 21 15  1  0  0  0  0
M  RAD  3   2   2   3   3  16   2
M  END
