Coordinates from ORCA-job PhN2+~TfO-_B3LYPG-6-31G_dp-NX-Scan-d89-09-n800
 OpenBabel11261920253D

 21 20  0  0  0  0  0  0  0  0999 V2000
   -1.1750    1.3919   -0.6625 C   0  0  0  0  0  0  0  0  0  0  0  0
   -1.8045    1.4852   -1.9053 N   0  0  0  0  0  0  0  0  0  0  0  0
   -2.5343    2.0010   -2.6225 N   0  0  0  0  0  0  0  0  0  0  0  0
   -1.3752    2.3822    0.3128 C   0  0  0  0  0  0  0  0  0  0  0  0
   -0.7208    2.2258    1.5300 C   0  0  0  0  0  0  0  0  0  0  0  0
    0.1015    1.1176    1.7599 C   0  0  0  0  0  0  0  0  0  0  0  0
    0.2881    0.1452    0.7714 C   0  0  0  0  0  0  0  0  0  0  0  0
   -0.3501    0.2772   -0.4560 C   0  0  0  0  0  0  0  0  0  0  0  0
   -2.0198    3.2245    0.1047 H   0  0  0  0  0  0  0  0  0  0  0  0
   -0.8605    2.9723    2.3052 H   0  0  0  0  0  0  0  0  0  0  0  0
    0.6006    1.0104    2.7181 H   0  0  0  0  0  0  0  0  0  0  0  0
    0.9269   -0.7113    0.9586 H   0  0  0  0  0  0  0  0  0  0  0  0
   -0.2298   -0.4579   -1.2443 H   0  0  0  0  0  0  0  0  0  0  0  0
   -4.6923    3.3034   -1.3029 S   0  0  0  0  0  0  0  0  0  0  0  0
   -4.8147    4.6897   -0.0609 C   0  0  0  0  0  0  0  0  0  0  0  0
   -3.2700    3.5949   -1.8417 O   0  0  0  0  0  0  0  0  0  0  0  0
   -5.7565    3.5482   -2.2725 O   0  0  0  0  0  0  0  0  0  0  0  0
   -4.7026    2.0609   -0.5165 O   0  0  0  0  0  0  0  0  0  0  0  0
   -3.8120    4.6004    0.8390 F   0  0  0  0  0  0  0  0  0  0  0  0
   -4.7374    5.8772   -0.6629 F   0  0  0  0  0  0  0  0  0  0  0  0
   -5.9744    4.6041    0.5946 F   0  0  0  0  0  0  0  0  0  0  0  0
  1  8  2  0  0  0  0
  1  4  1  0  0  0  0
  2  1  1  0  0  0  0
  3  2  2  0  0  0  0
  4  5  2  0  0  0  0
  5  6  1  0  0  0  0
  5 10  1  0  0  0  0
  6 11  1  0  0  0  0
  7 12  1  0  0  0  0
  7  6  2  0  0  0  0
  8  7  1  0  0  0  0
  9  4  1  0  0  0  0
 13  8  1  0  0  0  0
 14 18  1  0  0  0  0
 14 15  1  0  0  0  0
 15 21  1  0  0  0  0
 15 19  1  0  0  0  0
 16 14  2  0  0  0  0
 17 14  2  0  0  0  0
 20 15  1  0  0  0  0
M  RAD  2   3   2  18   2
M  END
