Coordinates from ORCA-job PhN2+~TfO-_B3LYPG-6-31G_dp-NX-Scan-d89-09-n800
 OpenBabel11261920253D

 21 20  0  0  0  0  0  0  0  0999 V2000
   -1.5689   -0.7474   -0.1816 C   0  0  0  0  0  0  0  0  0  0  0  0
   -1.7763   -2.0652   -0.4381 N   0  0  0  0  0  0  0  0  0  0  0  0
   -1.9731   -3.1477   -0.6566 N   0  0  0  0  0  0  0  0  0  0  0  0
   -2.6317    0.1565   -0.4417 C   0  0  0  0  0  0  0  0  0  0  0  0
   -2.4027    1.4966   -0.1969 C   0  0  0  0  0  0  0  0  0  0  0  0
   -1.1509    1.9183    0.2930 C   0  0  0  0  0  0  0  0  0  0  0  0
   -0.1204    0.9984    0.5592 C   0  0  0  0  0  0  0  0  0  0  0  0
   -0.3055   -0.3510    0.3228 C   0  0  0  0  0  0  0  0  0  0  0  0
   -3.5798   -0.2075   -0.8229 H   0  0  0  0  0  0  0  0  0  0  0  0
   -3.1731    2.2554   -0.3911 H   0  0  0  0  0  0  0  0  0  0  0  0
   -1.0280    2.9936    0.4425 H   0  0  0  0  0  0  0  0  0  0  0  0
    0.8330    1.3465    0.9424 H   0  0  0  0  0  0  0  0  0  0  0  0
    0.4699   -1.0868    0.5044 H   0  0  0  0  0  0  0  0  0  0  0  0
   -3.0732    5.0134   -0.6543 S   0  0  0  0  0  0  0  0  0  0  0  0
   -4.0022    6.3769    0.1963 C   0  0  0  0  0  0  0  0  0  0  0  0
   -2.6957    5.5651   -1.9644 O   0  0  0  0  0  0  0  0  0  0  0  0
   -4.0729    3.9052   -0.6915 O   0  0  0  0  0  0  0  0  0  0  0  0
   -1.9411    4.7493    0.2799 O   0  0  0  0  0  0  0  0  0  0  0  0
   -3.2304    7.4664    0.3280 F   0  0  0  0  0  0  0  0  0  0  0  0
   -5.0948    6.7159   -0.5056 F   0  0  0  0  0  0  0  0  0  0  0  0
   -4.3950    5.9910    1.4226 F   0  0  0  0  0  0  0  0  0  0  0  0
  1  8  2  0  0  0  0
  2  1  1  0  0  0  0
  3  2  1  0  0  0  0
  4  5  2  0  0  0  0
  4  1  1  0  0  0  0
  5  6  1  0  0  0  0
  6 11  1  0  0  0  0
  6  7  2  0  0  0  0
  7 12  1  0  0  0  0
  8 13  1  0  0  0  0
  8  7  1  0  0  0  0
  9  4  1  0  0  0  0
 10  5  1  0  0  0  0
 14 15  1  0  0  0  0
 14 18  1  0  0  0  0
 15 19  1  0  0  0  0
 15 21  1  0  0  0  0
 16 14  2  0  0  0  0
 17 14  2  0  0  0  0
 20 15  1  0  0  0  0
M  RAD  3   2   2   3   3  18   2
M  END
