Coordinates from ORCA-job PhN2+~TfO-_B3LYPG-6-31G_dp-NX-Scan-d89-09-n800
 OpenBabel11261920253D

 21 20  0  0  0  0  0  0  0  0999 V2000
   -1.5313   -0.7227   -0.2841 C   0  0  0  0  0  0  0  0  0  0  0  0
   -1.6700   -2.0091   -0.6978 N   0  0  0  0  0  0  0  0  0  0  0  0
   -1.8082   -3.0656   -1.0483 N   0  0  0  0  0  0  0  0  0  0  0  0
   -2.6594    0.1327   -0.3808 C   0  0  0  0  0  0  0  0  0  0  0  0
   -2.4977    1.4470    0.0122 C   0  0  0  0  0  0  0  0  0  0  0  0
   -1.2479    1.8917    0.4876 C   0  0  0  0  0  0  0  0  0  0  0  0
   -0.1511    1.0165    0.5905 C   0  0  0  0  0  0  0  0  0  0  0  0
   -0.2680   -0.3052    0.2030 C   0  0  0  0  0  0  0  0  0  0  0  0
   -3.6021   -0.2441   -0.7626 H   0  0  0  0  0  0  0  0  0  0  0  0
   -3.3169    2.1720   -0.0715 H   0  0  0  0  0  0  0  0  0  0  0  0
   -1.1704    2.9522    0.7398 H   0  0  0  0  0  0  0  0  0  0  0  0
    0.8005    1.3805    0.9627 H   0  0  0  0  0  0  0  0  0  0  0  0
    0.5599   -1.0037    0.2551 H   0  0  0  0  0  0  0  0  0  0  0  0
   -3.1223    4.8759   -0.4708 S   0  0  0  0  0  0  0  0  0  0  0  0
   -3.9226    6.4785    0.0147 C   0  0  0  0  0  0  0  0  0  0  0  0
   -2.6896    5.0651   -1.8660 O   0  0  0  0  0  0  0  0  0  0  0  0
   -4.2171    3.8811   -0.2749 O   0  0  0  0  0  0  0  0  0  0  0  0
   -2.0184    4.7372    0.5225 O   0  0  0  0  0  0  0  0  0  0  0  0
   -3.0474    7.4915   -0.0804 F   0  0  0  0  0  0  0  0  0  0  0  0
   -4.9662    6.7471   -0.7853 F   0  0  0  0  0  0  0  0  0  0  0  0
   -4.3667    6.4243    1.2807 F   0  0  0  0  0  0  0  0  0  0  0  0
  1  8  1  0  0  0  0
  2  1  1  0  0  0  0
  3  2  1  0  0  0  0
  4  1  2  0  0  0  0
  4  5  1  0  0  0  0
  5  6  2  0  0  0  0
  6  7  1  0  0  0  0
  6 11  1  0  0  0  0
  7 12  1  0  0  0  0
  8 13  1  0  0  0  0
  8  7  2  0  0  0  0
  9  4  1  0  0  0  0
 10  5  1  0  0  0  0
 14 17  2  0  0  0  0
 14 15  1  0  0  0  0
 14 18  1  0  0  0  0
 15 21  1  0  0  0  0
 16 14  2  0  0  0  0
 19 15  1  0  0  0  0
 20 15  1  0  0  0  0
M  RAD  3   2   2   3   3  18   2
M  END
