Coordinates from ORCA-job PhN2+~TfO-_B3LYPG-6-31G_dp-NX-Scan-d89-09-n800
 OpenBabel11261920253D

 21 20  0  0  0  0  0  0  0  0999 V2000
   -1.5745   -0.1773   -0.3786 C   0  0  0  0  0  0  0  0  0  0  0  0
   -1.7008   -1.2666   -1.1518 N   0  0  0  0  0  0  0  0  0  0  0  0
   -1.8322   -2.1577   -1.8290 N   0  0  0  0  0  0  0  0  0  0  0  0
   -2.6028    0.1090    0.5657 C   0  0  0  0  0  0  0  0  0  0  0  0
   -2.5616    1.3221    1.1991 C   0  0  0  0  0  0  0  0  0  0  0  0
   -1.5526    2.2587    0.8629 C   0  0  0  0  0  0  0  0  0  0  0  0
   -0.4491    1.8844    0.0604 C   0  0  0  0  0  0  0  0  0  0  0  0
   -0.4630    0.6842   -0.6013 C   0  0  0  0  0  0  0  0  0  0  0  0
   -3.4047   -0.6027    0.7270 H   0  0  0  0  0  0  0  0  0  0  0  0
   -3.3566    1.6286    1.8672 H   0  0  0  0  0  0  0  0  0  0  0  0
   -1.5596    3.2267    1.3459 H   0  0  0  0  0  0  0  0  0  0  0  0
    0.3597    2.5869   -0.1043 H   0  0  0  0  0  0  0  0  0  0  0  0
    0.3183    0.3936   -1.2946 H   0  0  0  0  0  0  0  0  0  0  0  0
   -3.8298    4.0993   -0.4168 S   0  0  0  0  0  0  0  0  0  0  0  0
   -2.8974    5.7043   -0.3245 C   0  0  0  0  0  0  0  0  0  0  0  0
   -2.7509    3.1480   -0.8912 O   0  0  0  0  0  0  0  0  0  0  0  0
   -4.8900    4.3232   -1.4040 O   0  0  0  0  0  0  0  0  0  0  0  0
   -4.2251    3.8536    0.9856 O   0  0  0  0  0  0  0  0  0  0  0  0
   -1.8406    5.5753    0.5146 F   0  0  0  0  0  0  0  0  0  0  0  0
   -2.4244    6.0614   -1.5254 F   0  0  0  0  0  0  0  0  0  0  0  0
   -3.6752    6.6879    0.1395 F   0  0  0  0  0  0  0  0  0  0  0  0
  1  4  1  0  0  0  0
  2  1  1  0  0  0  0
  3  2  1  0  0  0  0
  4  9  1  0  0  0  0
  4  5  2  0  0  0  0
  5 10  1  0  0  0  0
  6  5  1  0  0  0  0
  6 11  1  0  0  0  0
  7  6  2  0  0  0  0
  8  1  2  0  0  0  0
  8  7  1  0  0  0  0
 12  7  1  0  0  0  0
 13  8  1  0  0  0  0
 14 15  1  0  0  0  0
 14 18  1  0  0  0  0
 15 21  1  0  0  0  0
 15 19  1  0  0  0  0
 16 14  2  0  0  0  0
 17 14  2  0  0  0  0
 20 15  1  0  0  0  0
M  RAD  3   2   2   3   3  18   2
M  END
