Coordinates from ORCA-job PhN2+~TfO-_B3LYPG-6-31G_dp-NX-Scan-d89-09-n800
 OpenBabel11261920253D

 21 20  0  0  0  0  0  0  0  0999 V2000
   -1.6070    1.0512   -0.1169 C   0  0  0  0  0  0  0  0  0  0  0  0
   -2.8872    0.9842   -0.6601 N   0  0  0  0  0  0  0  0  0  0  0  0
   -3.9714    1.2785   -0.7966 N   0  0  0  0  0  0  0  0  0  0  0  0
   -1.3934    1.8906    0.9888 C   0  0  0  0  0  0  0  0  0  0  0  0
   -0.1065    1.9351    1.5131 C   0  0  0  0  0  0  0  0  0  0  0  0
    0.9193    1.1734    0.9423 C   0  0  0  0  0  0  0  0  0  0  0  0
    0.6763    0.3460   -0.1601 C   0  0  0  0  0  0  0  0  0  0  0  0
   -0.6012    0.2718   -0.7022 C   0  0  0  0  0  0  0  0  0  0  0  0
   -2.2194    2.4661    1.3905 H   0  0  0  0  0  0  0  0  0  0  0  0
    0.0964    2.5736    2.3661 H   0  0  0  0  0  0  0  0  0  0  0  0
    1.9198    1.2255    1.3604 H   0  0  0  0  0  0  0  0  0  0  0  0
    1.4807   -0.2371   -0.5945 H   0  0  0  0  0  0  0  0  0  0  0  0
   -0.8252   -0.3562   -1.5572 H   0  0  0  0  0  0  0  0  0  0  0  0
   -3.9743    4.1805   -0.2284 S   0  0  0  0  0  0  0  0  0  0  0  0
   -5.5435    4.5410   -1.1539 C   0  0  0  0  0  0  0  0  0  0  0  0
   -3.7597    5.3226    0.6618 O   0  0  0  0  0  0  0  0  0  0  0  0
   -2.9717    3.9056   -1.2753 O   0  0  0  0  0  0  0  0  0  0  0  0
   -4.3440    2.9118    0.5386 O   0  0  0  0  0  0  0  0  0  0  0  0
   -6.5532    4.7567   -0.3048 F   0  0  0  0  0  0  0  0  0  0  0  0
   -5.3871    5.6236   -1.9243 F   0  0  0  0  0  0  0  0  0  0  0  0
   -5.8605    3.4985   -1.9409 F   0  0  0  0  0  0  0  0  0  0  0  0
  1  4  2  0  0  0  0
  2  1  1  0  0  0  0
  3  2  1  0  0  0  0
  4  9  1  0  0  0  0
  4  5  1  0  0  0  0
  5 10  1  0  0  0  0
  6 11  1  0  0  0  0
  6  5  2  0  0  0  0
  7  6  1  0  0  0  0
  8  7  2  0  0  0  0
  8  1  1  0  0  0  0
 12  7  1  0  0  0  0
 13  8  1  0  0  0  0
 14 18  2  0  0  0  0
 14 16  1  0  0  0  0
 15 19  1  0  0  0  0
 15 14  1  0  0  0  0
 17 14  2  0  0  0  0
 20 15  1  0  0  0  0
 21 15  1  0  0  0  0
M  RAD  3   2   2   3   3  16   2
M  END
