Coordinates from ORCA-job PhN2+~TfO-_B3LYPG-6-31G_dp-NX-Scan-d89-09-n800
 OpenBabel11261920253D

 21 20  0  0  0  0  0  0  0  0999 V2000
   -1.5674   -0.7472   -0.1847 C   0  0  0  0  0  0  0  0  0  0  0  0
   -1.7733   -2.0642   -0.4460 N   0  0  0  0  0  0  0  0  0  0  0  0
   -1.9691   -3.1461   -0.6688 N   0  0  0  0  0  0  0  0  0  0  0  0
   -2.6318    0.1561   -0.4400 C   0  0  0  0  0  0  0  0  0  0  0  0
   -2.4043    1.4957   -0.1909 C   0  0  0  0  0  0  0  0  0  0  0  0
   -1.1523    1.9174    0.2986 C   0  0  0  0  0  0  0  0  0  0  0  0
   -0.1202    0.9980    0.5601 C   0  0  0  0  0  0  0  0  0  0  0  0
   -0.3038   -0.3508    0.3193 C   0  0  0  0  0  0  0  0  0  0  0  0
   -3.5798   -0.2077   -0.8213 H   0  0  0  0  0  0  0  0  0  0  0  0
   -3.1760    2.2539   -0.3819 H   0  0  0  0  0  0  0  0  0  0  0  0
   -1.0305    2.9924    0.4512 H   0  0  0  0  0  0  0  0  0  0  0  0
    0.8333    1.3460    0.9430 H   0  0  0  0  0  0  0  0  0  0  0  0
    0.4729   -1.0862    0.4970 H   0  0  0  0  0  0  0  0  0  0  0  0
   -3.0761    5.0085   -0.6483 S   0  0  0  0  0  0  0  0  0  0  0  0
   -4.0009    6.3818    0.1907 C   0  0  0  0  0  0  0  0  0  0  0  0
   -2.6954    5.5482   -1.9625 O   0  0  0  0  0  0  0  0  0  0  0  0
   -4.0795    3.9034   -0.6776 O   0  0  0  0  0  0  0  0  0  0  0  0
   -1.9455    4.7477    0.2888 O   0  0  0  0  0  0  0  0  0  0  0  0
   -3.2251    7.4694    0.3151 F   0  0  0  0  0  0  0  0  0  0  0  0
   -5.0913    6.7197   -0.5151 F   0  0  0  0  0  0  0  0  0  0  0  0
   -4.3967    6.0067    1.4194 F   0  0  0  0  0  0  0  0  0  0  0  0
  1  8  2  0  0  0  0
  2  1  1  0  0  0  0
  3  2  1  0  0  0  0
  4  5  2  0  0  0  0
  4  1  1  0  0  0  0
  5  6  1  0  0  0  0
  6 11  1  0  0  0  0
  6  7  2  0  0  0  0
  7 12  1  0  0  0  0
  8 13  1  0  0  0  0
  8  7  1  0  0  0  0
  9  4  1  0  0  0  0
 10  5  1  0  0  0  0
 14 15  1  0  0  0  0
 14 18  1  0  0  0  0
 15 19  1  0  0  0  0
 15 21  1  0  0  0  0
 16 14  2  0  0  0  0
 17 14  2  0  0  0  0
 20 15  1  0  0  0  0
M  RAD  3   2   2   3   3  18   2
M  END
