Coordinates from ORCA-job PhN2+~TfO-_B3LYPG-6-31G_dp-NX-Scan-d89-09-n800
 OpenBabel11261920253D

 21 20  0  0  0  0  0  0  0  0999 V2000
   -1.5402   -0.2312   -0.3783 C   0  0  0  0  0  0  0  0  0  0  0  0
   -1.5739   -1.3759   -1.0740 N   0  0  0  0  0  0  0  0  0  0  0  0
   -1.6217   -2.3267   -1.6793 N   0  0  0  0  0  0  0  0  0  0  0  0
   -2.6048    0.0493    0.5297 C   0  0  0  0  0  0  0  0  0  0  0  0
   -2.6306    1.2832    1.1192 C   0  0  0  0  0  0  0  0  0  0  0  0
   -1.6530    2.2555    0.7788 C   0  0  0  0  0  0  0  0  0  0  0  0
   -0.5251    1.9029   -0.0052 C   0  0  0  0  0  0  0  0  0  0  0  0
   -0.4720    0.6809   -0.6206 C   0  0  0  0  0  0  0  0  0  0  0  0
   -3.3728   -0.6949    0.7092 H   0  0  0  0  0  0  0  0  0  0  0  0
   -3.4448    1.5747    1.7713 H   0  0  0  0  0  0  0  0  0  0  0  0
   -1.6781    3.2123    1.2811 H   0  0  0  0  0  0  0  0  0  0  0  0
    0.2545    2.6353   -0.1802 H   0  0  0  0  0  0  0  0  0  0  0  0
    0.3383    0.4005   -1.2844 H   0  0  0  0  0  0  0  0  0  0  0  0
   -3.8532    4.1915   -0.3546 S   0  0  0  0  0  0  0  0  0  0  0  0
   -2.8441    5.7520   -0.3060 C   0  0  0  0  0  0  0  0  0  0  0  0
   -2.8341    3.1902   -0.8715 O   0  0  0  0  0  0  0  0  0  0  0  0
   -4.9383    4.4574   -1.3017 O   0  0  0  0  0  0  0  0  0  0  0  0
   -4.1971    3.9599    1.0627 O   0  0  0  0  0  0  0  0  0  0  0  0
   -1.7500    5.5642    0.4713 F   0  0  0  0  0  0  0  0  0  0  0  0
   -2.4236    6.0968   -1.5291 F   0  0  0  0  0  0  0  0  0  0  0  0
   -3.5485    6.7648    0.2079 F   0  0  0  0  0  0  0  0  0  0  0  0
  1  4  1  0  0  0  0
  2  1  1  0  0  0  0
  3  2  1  0  0  0  0
  4  9  1  0  0  0  0
  4  5  2  0  0  0  0
  5 10  1  0  0  0  0
  6  5  1  0  0  0  0
  6 11  1  0  0  0  0
  7  6  2  0  0  0  0
  8  1  2  0  0  0  0
  8  7  1  0  0  0  0
 12  7  1  0  0  0  0
 13  8  1  0  0  0  0
 14 15  1  0  0  0  0
 14 18  1  0  0  0  0
 15 21  1  0  0  0  0
 15 19  1  0  0  0  0
 16 14  2  0  0  0  0
 17 14  2  0  0  0  0
 20 15  1  0  0  0  0
M  RAD  3   2   2   3   3  18   2
M  END
