Coordinates from ORCA-job PhN2+~TfO-_B3LYPG-6-31G_dp-NX-Scan-d89-09-n800
 OpenBabel11261920253D

 21 20  0  0  0  0  0  0  0  0999 V2000
   -1.5548   -0.2088   -0.3796 C   0  0  0  0  0  0  0  0  0  0  0  0
   -1.6266   -1.3319   -1.1082 N   0  0  0  0  0  0  0  0  0  0  0  0
   -1.7088   -2.2586   -1.7453 N   0  0  0  0  0  0  0  0  0  0  0  0
   -2.6038    0.0736    0.5446 C   0  0  0  0  0  0  0  0  0  0  0  0
   -2.6018    1.2990    1.1533 C   0  0  0  0  0  0  0  0  0  0  0  0
   -1.6118    2.2573    0.8143 C   0  0  0  0  0  0  0  0  0  0  0  0
   -0.4936    1.8960    0.0229 C   0  0  0  0  0  0  0  0  0  0  0  0
   -0.4685    0.6829   -0.6128 C   0  0  0  0  0  0  0  0  0  0  0  0
   -3.3856   -0.6578    0.7167 H   0  0  0  0  0  0  0  0  0  0  0  0
   -3.4076    1.5956    1.8134 H   0  0  0  0  0  0  0  0  0  0  0  0
   -1.6303    3.2191    1.3082 H   0  0  0  0  0  0  0  0  0  0  0  0
    0.2989    2.6157   -0.1468 H   0  0  0  0  0  0  0  0  0  0  0  0
    0.3300    0.3984   -1.2890 H   0  0  0  0  0  0  0  0  0  0  0  0
   -3.8439    4.1535   -0.3793 S   0  0  0  0  0  0  0  0  0  0  0  0
   -2.8655    5.7326   -0.3145 C   0  0  0  0  0  0  0  0  0  0  0  0
   -2.8003    3.1711   -0.8777 O   0  0  0  0  0  0  0  0  0  0  0  0
   -4.9189    4.4012   -1.3435 O   0  0  0  0  0  0  0  0  0  0  0  0
   -4.2091    3.9183    1.0324 O   0  0  0  0  0  0  0  0  0  0  0  0
   -1.7876    5.5716    0.4910 F   0  0  0  0  0  0  0  0  0  0  0  0
   -2.4211    6.0789   -1.5290 F   0  0  0  0  0  0  0  0  0  0  0  0
   -3.6018    6.7352    0.1752 F   0  0  0  0  0  0  0  0  0  0  0  0
  1  4  1  0  0  0  0
  2  1  1  0  0  0  0
  3  2  1  0  0  0  0
  4  9  1  0  0  0  0
  4  5  2  0  0  0  0
  5 10  1  0  0  0  0
  6  5  1  0  0  0  0
  6 11  1  0  0  0  0
  7  6  2  0  0  0  0
  8  1  2  0  0  0  0
  8  7  1  0  0  0  0
 12  7  1  0  0  0  0
 13  8  1  0  0  0  0
 14 15  1  0  0  0  0
 14 18  1  0  0  0  0
 15 21  1  0  0  0  0
 15 19  1  0  0  0  0
 16 14  2  0  0  0  0
 17 14  2  0  0  0  0
 20 15  1  0  0  0  0
M  RAD  3   2   2   3   3  18   2
M  END
