Coordinates from ORCA-job PhN2+~TfO-_B3LYPG-6-31G_dp-NX-Scan-d89-09-n800
 OpenBabel11261920253D

 21 20  0  0  0  0  0  0  0  0999 V2000
   -1.4936    1.4310   -0.2800 C   0  0  0  0  0  0  0  0  0  0  0  0
   -2.5318    1.3371   -1.2078 N   0  0  0  0  0  0  0  0  0  0  0  0
   -3.2988    0.9605   -1.9338 N   0  0  0  0  0  0  0  0  0  0  0  0
   -1.2370    2.6355    0.3853 C   0  0  0  0  0  0  0  0  0  0  0  0
   -0.2021    2.6396    1.3166 C   0  0  0  0  0  0  0  0  0  0  0  0
    0.5394    1.4815    1.5639 C   0  0  0  0  0  0  0  0  0  0  0  0
    0.2605    0.2898    0.8822 C   0  0  0  0  0  0  0  0  0  0  0  0
   -0.7645    0.2486   -0.0520 C   0  0  0  0  0  0  0  0  0  0  0  0
   -1.8302    3.5081    0.1384 H   0  0  0  0  0  0  0  0  0  0  0  0
    0.0253    3.5567    1.8491 H   0  0  0  0  0  0  0  0  0  0  0  0
    1.3438    1.5038    2.2929 H   0  0  0  0  0  0  0  0  0  0  0  0
    0.8408   -0.6050    1.0804 H   0  0  0  0  0  0  0  0  0  0  0  0
   -1.0066   -0.6591   -0.5933 H   0  0  0  0  0  0  0  0  0  0  0  0
   -4.3637    3.9344   -1.8097 S   0  0  0  0  0  0  0  0  0  0  0  0
   -5.0281    3.8661   -0.0758 C   0  0  0  0  0  0  0  0  0  0  0  0
   -2.8896    3.8709   -1.5605 O   0  0  0  0  0  0  0  0  0  0  0  0
   -4.8717    5.1829   -2.3734 O   0  0  0  0  0  0  0  0  0  0  0  0
   -4.8723    2.6669   -2.4072 O   0  0  0  0  0  0  0  0  0  0  0  0
   -4.5839    2.7324    0.5288 F   0  0  0  0  0  0  0  0  0  0  0  0
   -4.5870    4.9050    0.6495 F   0  0  0  0  0  0  0  0  0  0  0  0
   -6.3617    3.8560   -0.0473 F   0  0  0  0  0  0  0  0  0  0  0  0
  1  8  2  0  0  0  0
  1  4  1  0  0  0  0
  2  1  1  0  0  0  0
  3  2  1  0  0  0  0
  4  5  2  0  0  0  0
  5  6  1  0  0  0  0
  5 10  1  0  0  0  0
  6 11  1  0  0  0  0
  7 12  1  0  0  0  0
  7  6  2  0  0  0  0
  8  7  1  0  0  0  0
  9  4  1  0  0  0  0
 13  8  1  0  0  0  0
 14 16  1  0  0  0  0
 14 15  1  0  0  0  0
 15 21  1  0  0  0  0
 15 19  1  0  0  0  0
 15 20  1  0  0  0  0
 17 14  2  0  0  0  0
 18 14  2  0  0  0  0
M  RAD  3   2   2   3   3  16   2
M  END
