Coordinates from ORCA-job PhN2+~TfO-_B3LYPG-6-31G_dp-NX-Scan-d89-09-n800
 OpenBabel11261920253D

 21 20  0  0  0  0  0  0  0  0999 V2000
   -1.5464   -0.5347   -0.5103 C   0  0  0  0  0  0  0  0  0  0  0  0
   -1.5686   -1.7528   -1.1023 N   0  0  0  0  0  0  0  0  0  0  0  0
   -1.5938   -2.7670   -1.5858 N   0  0  0  0  0  0  0  0  0  0  0  0
   -2.7834    0.0838   -0.1800 C   0  0  0  0  0  0  0  0  0  0  0  0
   -2.7376    1.3170    0.4323 C   0  0  0  0  0  0  0  0  0  0  0  0
   -1.4948    1.9237    0.7185 C   0  0  0  0  0  0  0  0  0  0  0  0
   -0.2844    1.2905    0.3769 C   0  0  0  0  0  0  0  0  0  0  0  0
   -0.2857    0.0587   -0.2450 C   0  0  0  0  0  0  0  0  0  0  0  0
   -3.7202   -0.4064   -0.4197 H   0  0  0  0  0  0  0  0  0  0  0  0
   -3.6522    1.8608    0.6578 H   0  0  0  0  0  0  0  0  0  0  0  0
   -1.4873    2.8848    1.2279 H   0  0  0  0  0  0  0  0  0  0  0  0
    0.6586    1.7779    0.5980 H   0  0  0  0  0  0  0  0  0  0  0  0
    0.6293   -0.4526   -0.5222 H   0  0  0  0  0  0  0  0  0  0  0  0
   -3.1791    4.6151    0.1807 S   0  0  0  0  0  0  0  0  0  0  0  0
   -3.5740    6.3276   -0.4228 C   0  0  0  0  0  0  0  0  0  0  0  0
   -2.3175    4.0478   -0.8984 O   0  0  0  0  0  0  0  0  0  0  0  0
   -4.5014    3.9557    0.3099 O   0  0  0  0  0  0  0  0  0  0  0  0
   -2.4546    4.8289    1.4582 O   0  0  0  0  0  0  0  0  0  0  0  0
   -2.4470    7.0291   -0.6165 F   0  0  0  0  0  0  0  0  0  0  0  0
   -4.2436    6.2763   -1.5843 F   0  0  0  0  0  0  0  0  0  0  0  0
   -4.3292    6.9786    0.4734 F   0  0  0  0  0  0  0  0  0  0  0  0
  1  8  2  0  0  0  0
  1  4  1  0  0  0  0
  2  1  1  0  0  0  0
  3  2  1  0  0  0  0
  4  5  2  0  0  0  0
  5 10  1  0  0  0  0
  5  6  1  0  0  0  0
  6 11  1  0  0  0  0
  7 12  1  0  0  0  0
  7  6  2  0  0  0  0
  8  7  1  0  0  0  0
  9  4  1  0  0  0  0
 13  8  1  0  0  0  0
 14 17  2  0  0  0  0
 14 18  1  0  0  0  0
 15 14  1  0  0  0  0
 15 21  1  0  0  0  0
 16 14  2  0  0  0  0
 19 15  1  0  0  0  0
 20 15  1  0  0  0  0
M  RAD  3   2   2   3   3  18   2
M  END
