Coordinates from ORCA-job PhN2+~TfO-_B3LYPG-6-31G_dp-NX-Scan-d89-09-n800
 OpenBabel11261920253D

 21 20  0  0  0  0  0  0  0  0999 V2000
   -1.2816    1.0630   -0.4299 C   0  0  0  0  0  0  0  0  0  0  0  0
   -2.3038    0.9925   -1.3732 N   0  0  0  0  0  0  0  0  0  0  0  0
   -3.2689    1.1879   -1.9216 N   0  0  0  0  0  0  0  0  0  0  0  0
   -1.2195    2.1966    0.3956 C   0  0  0  0  0  0  0  0  0  0  0  0
   -0.1825    2.2343    1.3241 C   0  0  0  0  0  0  0  0  0  0  0  0
    0.7358    1.1841    1.4152 C   0  0  0  0  0  0  0  0  0  0  0  0
    0.6456    0.0696    0.5708 C   0  0  0  0  0  0  0  0  0  0  0  0
   -0.3674   -0.0004   -0.3755 C   0  0  0  0  0  0  0  0  0  0  0  0
   -1.9388    3.0108    0.2835 H   0  0  0  0  0  0  0  0  0  0  0  0
   -0.0956    3.0961    1.9777 H   0  0  0  0  0  0  0  0  0  0  0  0
    1.5360    1.2342    2.1478 H   0  0  0  0  0  0  0  0  0  0  0  0
    1.3661   -0.7378    0.6493 H   0  0  0  0  0  0  0  0  0  0  0  0
   -0.4669   -0.8454   -1.0480 H   0  0  0  0  0  0  0  0  0  0  0  0
   -4.2345    3.9029   -1.0448 S   0  0  0  0  0  0  0  0  0  0  0  0
   -5.7224    4.7560   -0.3270 C   0  0  0  0  0  0  0  0  0  0  0  0
   -3.0727    4.5378   -0.3782 O   0  0  0  0  0  0  0  0  0  0  0  0
   -4.3356    4.0715   -2.4999 O   0  0  0  0  0  0  0  0  0  0  0  0
   -4.4337    2.4773   -0.5730 O   0  0  0  0  0  0  0  0  0  0  0  0
   -5.7408    4.6209    1.0062 F   0  0  0  0  0  0  0  0  0  0  0  0
   -5.6851    6.0603   -0.6255 F   0  0  0  0  0  0  0  0  0  0  0  0
   -6.8465    4.2305   -0.8272 F   0  0  0  0  0  0  0  0  0  0  0  0
  1  8  2  0  0  0  0
  1  4  1  0  0  0  0
  2  1  1  0  0  0  0
  3  2  1  0  0  0  0
  4  5  2  0  0  0  0
  5  6  1  0  0  0  0
  5 10  1  0  0  0  0
  6 11  1  0  0  0  0
  7 12  1  0  0  0  0
  7  6  2  0  0  0  0
  8  7  1  0  0  0  0
  9  4  1  0  0  0  0
 13  8  1  0  0  0  0
 14 18  2  0  0  0  0
 14 16  1  0  0  0  0
 14 15  1  0  0  0  0
 15 19  1  0  0  0  0
 17 14  2  0  0  0  0
 20 15  1  0  0  0  0
 21 15  1  0  0  0  0
M  RAD  3   2   2   3   3  16   2
M  END
