Coordinates from ORCA-job PhN2+~TfO-_B3LYPG-6-31G_dp-NX-Scan-d89-09-n800
 OpenBabel11261920253D

 21 20  0  0  0  0  0  0  0  0999 V2000
   -1.5236   -0.6713   -0.3555 C   0  0  0  0  0  0  0  0  0  0  0  0
   -1.6248   -1.9209   -0.8780 N   0  0  0  0  0  0  0  0  0  0  0  0
   -1.7295   -2.9481   -1.3162 N   0  0  0  0  0  0  0  0  0  0  0  0
   -2.6903    0.1357   -0.3259 C   0  0  0  0  0  0  0  0  0  0  0  0
   -2.5659    1.4164    0.1759 C   0  0  0  0  0  0  0  0  0  0  0  0
   -1.3152    1.8765    0.6344 C   0  0  0  0  0  0  0  0  0  0  0  0
   -0.1785    1.0478    0.6091 C   0  0  0  0  0  0  0  0  0  0  0  0
   -0.2573   -0.2389    0.1108 C   0  0  0  0  0  0  0  0  0  0  0  0
   -3.6323   -0.2479   -0.7020 H   0  0  0  0  0  0  0  0  0  0  0  0
   -3.4142    2.1096    0.1796 H   0  0  0  0  0  0  0  0  0  0  0  0
   -1.2621    2.9163    0.9644 H   0  0  0  0  0  0  0  0  0  0  0  0
    0.7740    1.4231    0.9676 H   0  0  0  0  0  0  0  0  0  0  0  0
    0.6015   -0.8991    0.0625 H   0  0  0  0  0  0  0  0  0  0  0  0
   -3.1304    4.7826   -0.3492 S   0  0  0  0  0  0  0  0  0  0  0  0
   -3.8552    6.4763   -0.1230 C   0  0  0  0  0  0  0  0  0  0  0  0
   -2.6691    4.7412   -1.7490 O   0  0  0  0  0  0  0  0  0  0  0  0
   -4.2747    3.8796   -0.0344 O   0  0  0  0  0  0  0  0  0  0  0  0
   -2.0455    4.7389    0.6734 O   0  0  0  0  0  0  0  0  0  0  0  0
   -2.9272    7.4208   -0.3430 F   0  0  0  0  0  0  0  0  0  0  0  0
   -4.8684    6.6739   -0.9805 F   0  0  0  0  0  0  0  0  0  0  0  0
   -4.3240    6.6303    1.1253 F   0  0  0  0  0  0  0  0  0  0  0  0
  1  4  2  0  0  0  0
  1  8  1  0  0  0  0
  2  1  1  0  0  0  0
  3  2  1  0  0  0  0
  4  5  1  0  0  0  0
  5 10  1  0  0  0  0
  5  6  2  0  0  0  0
  6 11  1  0  0  0  0
  7  6  1  0  0  0  0
  7 12  1  0  0  0  0
  8  7  2  0  0  0  0
  9  4  1  0  0  0  0
 13  8  1  0  0  0  0
 14 15  1  0  0  0  0
 14 17  2  0  0  0  0
 14 18  1  0  0  0  0
 15 21  1  0  0  0  0
 16 14  2  0  0  0  0
 19 15  1  0  0  0  0
 20 15  1  0  0  0  0
M  RAD  3   2   2   3   3  18   2
M  END
