Coordinates from ORCA-job PhN2+~TfO-_B3LYPG-6-31G_dp-NX-Scan-d89-09-n800
 OpenBabel11261920253D

 21 20  0  0  0  0  0  0  0  0999 V2000
   -1.5236   -0.6473   -0.3817 C   0  0  0  0  0  0  0  0  0  0  0  0
   -1.6138   -1.8825   -0.9392 N   0  0  0  0  0  0  0  0  0  0  0  0
   -1.7079   -2.8984   -1.4053 N   0  0  0  0  0  0  0  0  0  0  0  0
   -2.7017    0.1402   -0.3089 C   0  0  0  0  0  0  0  0  0  0  0  0
   -2.5886    1.4066    0.2303 C   0  0  0  0  0  0  0  0  0  0  0  0
   -1.3379    1.8720    0.6834 C   0  0  0  0  0  0  0  0  0  0  0  0
   -0.1890    1.0629    0.6132 C   0  0  0  0  0  0  0  0  0  0  0  0
   -0.2565   -0.2090    0.0769 C   0  0  0  0  0  0  0  0  0  0  0  0
   -3.6436   -0.2459   -0.6826 H   0  0  0  0  0  0  0  0  0  0  0  0
   -3.4459    2.0865    0.2654 H   0  0  0  0  0  0  0  0  0  0  0  0
   -1.2922    2.9019    1.0431 H   0  0  0  0  0  0  0  0  0  0  0  0
    0.7635    1.4425    0.9669 H   0  0  0  0  0  0  0  0  0  0  0  0
    0.6114   -0.8536   -0.0060 H   0  0  0  0  0  0  0  0  0  0  0  0
   -3.1319    4.7488   -0.3003 S   0  0  0  0  0  0  0  0  0  0  0  0
   -3.8287    6.4644   -0.1732 C   0  0  0  0  0  0  0  0  0  0  0  0
   -2.6577    4.6248   -1.6916 O   0  0  0  0  0  0  0  0  0  0  0  0
   -4.2934    3.8820    0.0487 O   0  0  0  0  0  0  0  0  0  0  0  0
   -2.0562    4.7412    0.7329 O   0  0  0  0  0  0  0  0  0  0  0  0
   -2.8829    7.3791   -0.4374 F   0  0  0  0  0  0  0  0  0  0  0  0
   -4.8321    6.6316   -1.0488 F   0  0  0  0  0  0  0  0  0  0  0  0
   -4.3040    6.6951    1.0606 F   0  0  0  0  0  0  0  0  0  0  0  0
  1  4  2  0  0  0  0
  1  8  1  0  0  0  0
  2  1  1  0  0  0  0
  3  2  1  0  0  0  0
  4  5  1  0  0  0  0
  5 10  1  0  0  0  0
  5  6  2  0  0  0  0
  6 11  1  0  0  0  0
  7  6  1  0  0  0  0
  7 12  1  0  0  0  0
  8  7  2  0  0  0  0
  9  4  1  0  0  0  0
 13  8  1  0  0  0  0
 14 15  1  0  0  0  0
 14 17  2  0  0  0  0
 14 18  1  0  0  0  0
 15 21  1  0  0  0  0
 16 14  2  0  0  0  0
 19 15  1  0  0  0  0
 20 15  1  0  0  0  0
M  RAD  3   2   2   3   3  18   2
M  END
