Coordinates from ORCA-job PhN2+~TfO-_B3LYPG-6-31G_dp-NX-Scan-d89-09-n800
 OpenBabel11261920253D

 21 20  0  0  0  0  0  0  0  0999 V2000
   -1.5604    1.0436   -0.1465 C   0  0  0  0  0  0  0  0  0  0  0  0
   -2.8148    0.9882   -0.7530 N   0  0  0  0  0  0  0  0  0  0  0  0
   -3.8853    1.3199   -0.9253 N   0  0  0  0  0  0  0  0  0  0  0  0
   -1.3804    1.8929    0.9579 C   0  0  0  0  0  0  0  0  0  0  0  0
   -0.1148    1.9278    1.5334 C   0  0  0  0  0  0  0  0  0  0  0  0
    0.9231    1.1447    1.0165 C   0  0  0  0  0  0  0  0  0  0  0  0
    0.7138    0.3061   -0.0844 C   0  0  0  0  0  0  0  0  0  0  0  0
   -0.5409    0.2440   -0.6789 C   0  0  0  0  0  0  0  0  0  0  0  0
   -2.2129    2.4856    1.3196 H   0  0  0  0  0  0  0  0  0  0  0  0
    0.0613    2.5749    2.3860 H   0  0  0  0  0  0  0  0  0  0  0  0
    1.9060    1.1887    1.4752 H   0  0  0  0  0  0  0  0  0  0  0  0
    1.5269   -0.2940   -0.4777 H   0  0  0  0  0  0  0  0  0  0  0  0
   -0.7379   -0.3908   -1.5354 H   0  0  0  0  0  0  0  0  0  0  0  0
   -3.9780    4.1706   -0.3549 S   0  0  0  0  0  0  0  0  0  0  0  0
   -5.6388    4.5928   -1.0697 C   0  0  0  0  0  0  0  0  0  0  0  0
   -3.6233    5.2741    0.5374 O   0  0  0  0  0  0  0  0  0  0  0  0
   -3.1170    3.9013   -1.5209 O   0  0  0  0  0  0  0  0  0  0  0  0
   -4.2866    2.8897    0.4236 O   0  0  0  0  0  0  0  0  0  0  0  0
   -6.5297    4.8064   -0.0959 F   0  0  0  0  0  0  0  0  0  0  0  0
   -5.5485    5.6946   -1.8231 F   0  0  0  0  0  0  0  0  0  0  0  0
   -6.0746    3.5816   -1.8375 F   0  0  0  0  0  0  0  0  0  0  0  0
  1  4  1  0  0  0  0
  2  1  1  0  0  0  0
  3  2  2  0  0  0  0
  4  9  1  0  0  0  0
  4  5  2  0  0  0  0
  5 10  1  0  0  0  0
  6 11  1  0  0  0  0
  6  5  1  0  0  0  0
  7  6  2  0  0  0  0
  8  1  2  0  0  0  0
  8  7  1  0  0  0  0
 12  7  1  0  0  0  0
 13  8  1  0  0  0  0
 14 18  2  0  0  0  0
 14 16  1  0  0  0  0
 15 14  1  0  0  0  0
 15 19  1  0  0  0  0
 17 14  2  0  0  0  0
 20 15  1  0  0  0  0
 21 15  1  0  0  0  0
M  RAD  2   3   2  16   2
M  END
