Coordinates from ORCA-job PhN2+~TfO-_B3LYPG-6-31G_dp-NX-Scan-d89-09-n800
 OpenBabel11261920253D

 21 20  0  0  0  0  0  0  0  0999 V2000
   -1.4927    1.0986   -0.4944 C   0  0  0  0  0  0  0  0  0  0  0  0
   -2.4560    0.8577   -1.4740 N   0  0  0  0  0  0  0  0  0  0  0  0
   -3.1079    0.3786   -2.2435 N   0  0  0  0  0  0  0  0  0  0  0  0
   -1.1811    2.3989   -0.0786 C   0  0  0  0  0  0  0  0  0  0  0  0
   -0.1886    2.5255    0.8908 C   0  0  0  0  0  0  0  0  0  0  0  0
    0.4503    1.4006    1.4152 C   0  0  0  0  0  0  0  0  0  0  0  0
    0.1139    0.1106    0.9779 C   0  0  0  0  0  0  0  0  0  0  0  0
   -0.8639   -0.0599    0.0117 C   0  0  0  0  0  0  0  0  0  0  0  0
   -1.7067    3.2624   -0.4780 H   0  0  0  0  0  0  0  0  0  0  0  0
    0.0684    3.5196    1.2393 H   0  0  0  0  0  0  0  0  0  0  0  0
    1.2164    1.5226    2.1750 H   0  0  0  0  0  0  0  0  0  0  0  0
    0.6133   -0.7581    1.3924 H   0  0  0  0  0  0  0  0  0  0  0  0
   -1.1472   -1.0433   -0.3463 H   0  0  0  0  0  0  0  0  0  0  0  0
   -3.9179    4.4011   -1.2072 S   0  0  0  0  0  0  0  0  0  0  0  0
   -5.3315    4.1798   -0.0227 C   0  0  0  0  0  0  0  0  0  0  0  0
   -2.8501    5.0003   -0.3661 O   0  0  0  0  0  0  0  0  0  0  0  0
   -4.4554    5.2233   -2.2945 O   0  0  0  0  0  0  0  0  0  0  0  0
   -3.6165    2.9756   -1.6023 O   0  0  0  0  0  0  0  0  0  0  0  0
   -4.9608    3.3804    0.9986 F   0  0  0  0  0  0  0  0  0  0  0  0
   -5.7160    5.3569    0.4847 F   0  0  0  0  0  0  0  0  0  0  0  0
   -6.3828    3.6117   -0.6316 F   0  0  0  0  0  0  0  0  0  0  0  0
  1  4  2  0  0  0  0
  1  8  1  0  0  0  0
  2  1  1  0  0  0  0
  3  2  1  0  0  0  0
  4  5  1  0  0  0  0
  5 10  1  0  0  0  0
  5  6  2  0  0  0  0
  6 11  1  0  0  0  0
  7 12  1  0  0  0  0
  7  6  1  0  0  0  0
  8  7  2  0  0  0  0
  9  4  1  0  0  0  0
 13  8  1  0  0  0  0
 14 16  1  0  0  0  0
 14 15  1  0  0  0  0
 15 20  1  0  0  0  0
 15 19  1  0  0  0  0
 17 14  2  0  0  0  0
 18 14  2  0  0  0  0
 21 15  1  0  0  0  0
M  RAD  3   2   2   3   3  16   2
M  END
