Coordinates from ORCA-job PhN2+~TfO-_B3LYPG-6-31G_dp-NX-Scan-d89-09-n800
 OpenBabel11261920253D

 21 20  0  0  0  0  0  0  0  0999 V2000
   -1.5022    1.4315   -0.2786 C   0  0  0  0  0  0  0  0  0  0  0  0
   -2.5365    1.3319   -1.2148 N   0  0  0  0  0  0  0  0  0  0  0  0
   -3.2655    0.9268   -1.9609 N   0  0  0  0  0  0  0  0  0  0  0  0
   -1.3366    2.5922    0.4846 C   0  0  0  0  0  0  0  0  0  0  0  0
   -0.3051    2.5983    1.4194 C   0  0  0  0  0  0  0  0  0  0  0  0
    0.5233    1.4837    1.5740 C   0  0  0  0  0  0  0  0  0  0  0  0
    0.3344    0.3353    0.7953 C   0  0  0  0  0  0  0  0  0  0  0  0
   -0.6869    0.2937   -0.1439 C   0  0  0  0  0  0  0  0  0  0  0  0
   -1.9881    3.4378    0.3093 H   0  0  0  0  0  0  0  0  0  0  0  0
   -0.1476    3.4834    2.0265 H   0  0  0  0  0  0  0  0  0  0  0  0
    1.3253    1.5073    2.3057 H   0  0  0  0  0  0  0  0  0  0  0  0
    0.9817   -0.5263    0.9207 H   0  0  0  0  0  0  0  0  0  0  0  0
   -0.8603   -0.5824   -0.7589 H   0  0  0  0  0  0  0  0  0  0  0  0
   -4.3864    3.8069   -1.8240 S   0  0  0  0  0  0  0  0  0  0  0  0
   -4.9874    3.9810   -0.0743 C   0  0  0  0  0  0  0  0  0  0  0  0
   -2.9156    3.6031   -1.6067 O   0  0  0  0  0  0  0  0  0  0  0  0
   -4.7621    5.0524   -2.4887 O   0  0  0  0  0  0  0  0  0  0  0  0
   -5.0365    2.5548   -2.2881 O   0  0  0  0  0  0  0  0  0  0  0  0
   -4.6671    2.8627    0.6249 F   0  0  0  0  0  0  0  0  0  0  0  0
   -4.3854    5.0172    0.5343 F   0  0  0  0  0  0  0  0  0  0  0  0
   -6.3080    4.1516   -0.0095 F   0  0  0  0  0  0  0  0  0  0  0  0
  1  8  2  0  0  0  0
  1  4  1  0  0  0  0
  2  1  1  0  0  0  0
  3  2  1  0  0  0  0
  4  5  2  0  0  0  0
  5  6  1  0  0  0  0
  5 10  1  0  0  0  0
  6 11  1  0  0  0  0
  7 12  1  0  0  0  0
  7  6  2  0  0  0  0
  8  7  1  0  0  0  0
  9  4  1  0  0  0  0
 13  8  1  0  0  0  0
 14 16  1  0  0  0  0
 14 15  1  0  0  0  0
 15 21  1  0  0  0  0
 15 20  1  0  0  0  0
 15 19  1  0  0  0  0
 17 14  2  0  0  0  0
 18 14  2  0  0  0  0
M  RAD  3   2   2   3   3  16   2
M  END
