Coordinates from ORCA-job PhN2+~TfO-_B3LYPG-6-31G_dp-NX-Scan-d89-09-n800
 OpenBabel11261920253D

 21 20  0  0  0  0  0  0  0  0999 V2000
   -1.5340   -0.7279   -0.2727 C   0  0  0  0  0  0  0  0  0  0  0  0
   -1.6803   -2.0187   -0.6695 N   0  0  0  0  0  0  0  0  0  0  0  0
   -1.8252   -3.0788   -1.0061 N   0  0  0  0  0  0  0  0  0  0  0  0
   -2.6543    0.1352   -0.3900 C   0  0  0  0  0  0  0  0  0  0  0  0
   -2.4849    1.4534   -0.0137 C   0  0  0  0  0  0  0  0  0  0  0  0
   -1.2352    1.8944    0.4652 C   0  0  0  0  0  0  0  0  0  0  0  0
   -0.1465    1.0119    0.5891 C   0  0  0  0  0  0  0  0  0  0  0  0
   -0.2711   -0.3140    0.2188 C   0  0  0  0  0  0  0  0  0  0  0  0
   -3.5972   -0.2394   -0.7734 H   0  0  0  0  0  0  0  0  0  0  0  0
   -3.2985    2.1834   -0.1111 H   0  0  0  0  0  0  0  0  0  0  0  0
   -1.1525    2.9573    0.7053 H   0  0  0  0  0  0  0  0  0  0  0  0
    0.8050    1.3732    0.9643 H   0  0  0  0  0  0  0  0  0  0  0  0
    0.5504   -1.0184    0.2873 H   0  0  0  0  0  0  0  0  0  0  0  0
   -3.1206    4.8902   -0.4918 S   0  0  0  0  0  0  0  0  0  0  0  0
   -3.9331    6.4731    0.0363 C   0  0  0  0  0  0  0  0  0  0  0  0
   -2.6947    5.1179   -1.8830 O   0  0  0  0  0  0  0  0  0  0  0  0
   -4.2064    3.8817   -0.3165 O   0  0  0  0  0  0  0  0  0  0  0  0
   -2.0126    4.7368    0.4947 O   0  0  0  0  0  0  0  0  0  0  0  0
   -3.0682    7.4965   -0.0395 F   0  0  0  0  0  0  0  0  0  0  0  0
   -4.9842    6.7508   -0.7507 F   0  0  0  0  0  0  0  0  0  0  0  0
   -4.3688    6.3843    1.3034 F   0  0  0  0  0  0  0  0  0  0  0  0
  1  8  1  0  0  0  0
  2  1  1  0  0  0  0
  3  2  1  0  0  0  0
  4  1  2  0  0  0  0
  4  5  1  0  0  0  0
  5  6  2  0  0  0  0
  6  7  1  0  0  0  0
  6 11  1  0  0  0  0
  7 12  1  0  0  0  0
  8 13  1  0  0  0  0
  8  7  2  0  0  0  0
  9  4  1  0  0  0  0
 10  5  1  0  0  0  0
 14 17  2  0  0  0  0
 14 15  1  0  0  0  0
 14 18  1  0  0  0  0
 15 21  1  0  0  0  0
 16 14  2  0  0  0  0
 19 15  1  0  0  0  0
 20 15  1  0  0  0  0
M  RAD  3   2   2   3   3  18   2
M  END
