Coordinates from ORCA-job PhN2+~TfO-_B3LYPG-6-31G_dp-NX-Scan-d89-09-n800
 OpenBabel11261920253D

 21 20  0  0  0  0  0  0  0  0999 V2000
   -1.5252   -0.6969   -0.3252 C   0  0  0  0  0  0  0  0  0  0  0  0
   -1.6405   -1.9638   -0.8013 N   0  0  0  0  0  0  0  0  0  0  0  0
   -1.7577   -3.0048   -1.2023 N   0  0  0  0  0  0  0  0  0  0  0  0
   -2.6775    0.1309   -0.3482 C   0  0  0  0  0  0  0  0  0  0  0  0
   -2.5391    1.4276    0.1068 C   0  0  0  0  0  0  0  0  0  0  0  0
   -1.2887    1.8826    0.5710 C   0  0  0  0  0  0  0  0  0  0  0  0
   -0.1670    1.0338    0.5994 C   0  0  0  0  0  0  0  0  0  0  0  0
   -0.2601   -0.2695    0.1487 C   0  0  0  0  0  0  0  0  0  0  0  0
   -3.6197   -0.2512   -0.7257 H   0  0  0  0  0  0  0  0  0  0  0  0
   -3.3763    2.1345    0.0736 H   0  0  0  0  0  0  0  0  0  0  0  0
   -1.2268    2.9325    0.8671 H   0  0  0  0  0  0  0  0  0  0  0  0
    0.7851    1.4054    0.9627 H   0  0  0  0  0  0  0  0  0  0  0  0
    0.5871   -0.9463    0.1423 H   0  0  0  0  0  0  0  0  0  0  0  0
   -3.1273    4.8231   -0.3994 S   0  0  0  0  0  0  0  0  0  0  0  0
   -3.8844    6.4842   -0.0641 C   0  0  0  0  0  0  0  0  0  0  0  0
   -2.6747    4.8783   -1.8008 O   0  0  0  0  0  0  0  0  0  0  0  0
   -4.2517    3.8796   -0.1341 O   0  0  0  0  0  0  0  0  0  0  0  0
   -2.0362    4.7384    0.6142 O   0  0  0  0  0  0  0  0  0  0  0  0
   -2.9771    7.4592   -0.2308 F   0  0  0  0  0  0  0  0  0  0  0  0
   -4.9077    6.7137   -0.9015 F   0  0  0  0  0  0  0  0  0  0  0  0
   -4.3474    6.5513    1.1941 F   0  0  0  0  0  0  0  0  0  0  0  0
  1  8  1  0  0  0  0
  2  1  1  0  0  0  0
  3  2  1  0  0  0  0
  4  1  2  0  0  0  0
  4  5  1  0  0  0  0
  5  6  2  0  0  0  0
  6  7  1  0  0  0  0
  6 11  1  0  0  0  0
  7 12  1  0  0  0  0
  8  7  2  0  0  0  0
  9  4  1  0  0  0  0
 10  5  1  0  0  0  0
 13  8  1  0  0  0  0
 14 17  2  0  0  0  0
 14 15  1  0  0  0  0
 14 18  1  0  0  0  0
 15 21  1  0  0  0  0
 16 14  2  0  0  0  0
 19 15  1  0  0  0  0
 20 15  1  0  0  0  0
M  RAD  3   2   2   3   3  18   2
M  END
