Coordinates from ORCA-job PhN2+~TfO-_B3LYPG-6-31G_dp-NX-Scan-d89-09-n800
 OpenBabel11261920253D

 21 20  0  0  0  0  0  0  0  0999 V2000
   -1.3450    1.0770   -0.5769 C   0  0  0  0  0  0  0  0  0  0  0  0
   -2.2037    0.9080   -1.6510 N   0  0  0  0  0  0  0  0  0  0  0  0
   -2.8499    0.7055   -2.5346 N   0  0  0  0  0  0  0  0  0  0  0  0
   -1.1689    2.3596   -0.0369 C   0  0  0  0  0  0  0  0  0  0  0  0
   -0.2706    2.4649    1.0223 C   0  0  0  0  0  0  0  0  0  0  0  0
    0.4010    1.3408    1.5090 C   0  0  0  0  0  0  0  0  0  0  0  0
    0.1966    0.0726    0.9440 C   0  0  0  0  0  0  0  0  0  0  0  0
   -0.6813   -0.0787   -0.1173 C   0  0  0  0  0  0  0  0  0  0  0  0
   -1.7313    3.2215   -0.4119 H   0  0  0  0  0  0  0  0  0  0  0  0
   -0.1116    3.4389    1.4722 H   0  0  0  0  0  0  0  0  0  0  0  0
    1.0907    1.4466    2.3410 H   0  0  0  0  0  0  0  0  0  0  0  0
    0.7207   -0.7929    1.3337 H   0  0  0  0  0  0  0  0  0  0  0  0
   -0.8640   -1.0433   -0.5773 H   0  0  0  0  0  0  0  0  0  0  0  0
   -4.0924    4.1185   -1.2332 S   0  0  0  0  0  0  0  0  0  0  0  0
   -5.3848    4.4468    0.0580 C   0  0  0  0  0  0  0  0  0  0  0  0
   -2.8636    4.7359   -0.6613 O   0  0  0  0  0  0  0  0  0  0  0  0
   -4.6189    4.7191   -2.4630 O   0  0  0  0  0  0  0  0  0  0  0  0
   -4.0028    2.6219   -1.2408 O   0  0  0  0  0  0  0  0  0  0  0  0
   -5.0064    3.9302    1.2422 F   0  0  0  0  0  0  0  0  0  0  0  0
   -5.5738    5.7636    0.2162 F   0  0  0  0  0  0  0  0  0  0  0  0
   -6.5527    3.8863   -0.2879 F   0  0  0  0  0  0  0  0  0  0  0  0
  1  8  2  0  0  0  0
  1  4  1  0  0  0  0
  2  1  1  0  0  0  0
  3  2  1  0  0  0  0
  4  5  2  0  0  0  0
  5 10  1  0  0  0  0
  5  6  1  0  0  0  0
  6 11  1  0  0  0  0
  7 12  1  0  0  0  0
  7  6  2  0  0  0  0
  8  7  1  0  0  0  0
  9  4  1  0  0  0  0
 13  8  1  0  0  0  0
 14 16  1  0  0  0  0
 14 15  1  0  0  0  0
 15 20  1  0  0  0  0
 15 19  1  0  0  0  0
 17 14  2  0  0  0  0
 18 14  2  0  0  0  0
 21 15  1  0  0  0  0
M  RAD  3   2   2   3   3  16   2
M  END
