Coordinates from ORCA-job PhN2+~TfO-_B3LYPG-6-31G_dp-NX-Scan-d89-09-n800
 OpenBabel11261920253D

 21 20  0  0  0  0  0  0  0  0999 V2000
   -1.1671    1.4067   -0.6864 C   0  0  0  0  0  0  0  0  0  0  0  0
   -1.7623    1.5406   -1.9331 N   0  0  0  0  0  0  0  0  0  0  0  0
   -2.3904    1.9571   -2.7716 N   0  0  0  0  0  0  0  0  0  0  0  0
   -1.3649    2.4305    0.2536 C   0  0  0  0  0  0  0  0  0  0  0  0
   -0.7597    2.2737    1.4954 C   0  0  0  0  0  0  0  0  0  0  0  0
    0.0037    1.1350    1.7751 C   0  0  0  0  0  0  0  0  0  0  0  0
    0.1836    0.1311    0.8154 C   0  0  0  0  0  0  0  0  0  0  0  0
   -0.4025    0.2583   -0.4373 C   0  0  0  0  0  0  0  0  0  0  0  0
   -1.9686    3.2910   -0.0018 H   0  0  0  0  0  0  0  0  0  0  0  0
   -0.8964    3.0411    2.2498 H   0  0  0  0  0  0  0  0  0  0  0  0
    0.4632    1.0266    2.7526 H   0  0  0  0  0  0  0  0  0  0  0  0
    0.7766   -0.7472    1.0460 H   0  0  0  0  0  0  0  0  0  0  0  0
   -0.2880   -0.5003   -1.2036 H   0  0  0  0  0  0  0  0  0  0  0  0
   -4.6182    3.3188   -1.3188 S   0  0  0  0  0  0  0  0  0  0  0  0
   -4.7652    4.6311   -0.0044 C   0  0  0  0  0  0  0  0  0  0  0  0
   -3.3447    3.7688   -2.0191 O   0  0  0  0  0  0  0  0  0  0  0  0
   -5.8418    3.4407   -2.1114 O   0  0  0  0  0  0  0  0  0  0  0  0
   -4.3952    2.0643   -0.5670 O   0  0  0  0  0  0  0  0  0  0  0  0
   -3.6534    4.6495    0.7722 F   0  0  0  0  0  0  0  0  0  0  0  0
   -4.9087    5.8429   -0.5467 F   0  0  0  0  0  0  0  0  0  0  0  0
   -5.8128    4.3826    0.7874 F   0  0  0  0  0  0  0  0  0  0  0  0
  1  8  2  0  0  0  0
  1  4  1  0  0  0  0
  2  1  1  0  0  0  0
  3  2  1  0  0  0  0
  4  5  2  0  0  0  0
  5  6  1  0  0  0  0
  5 10  1  0  0  0  0
  6 11  1  0  0  0  0
  7 12  1  0  0  0  0
  7  6  2  0  0  0  0
  8  7  1  0  0  0  0
  9  4  1  0  0  0  0
 13  8  1  0  0  0  0
 14 18  1  0  0  0  0
 14 15  1  0  0  0  0
 15 19  1  0  0  0  0
 15 21  1  0  0  0  0
 16 14  2  0  0  0  0
 17 14  2  0  0  0  0
 20 15  1  0  0  0  0
M  RAD  3   2   2   3   3  18   2
M  END
