Coordinates from ORCA-job PhN2+~TfO-_B3LYPG-6-31G_dp-NX-Scan-d89-09-n800
 OpenBabel11261920253D

 21 20  0  0  0  0  0  0  0  0999 V2000
   -1.5013    1.4311   -0.2642 C   0  0  0  0  0  0  0  0  0  0  0  0
   -2.5506    1.3349   -1.1822 N   0  0  0  0  0  0  0  0  0  0  0  0
   -3.3098    0.9302   -1.9003 N   0  0  0  0  0  0  0  0  0  0  0  0
   -1.2835    2.6135    0.4523 C   0  0  0  0  0  0  0  0  0  0  0  0
   -0.2389    2.6176    1.3725 C   0  0  0  0  0  0  0  0  0  0  0  0
    0.5515    1.4805    1.5583 C   0  0  0  0  0  0  0  0  0  0  0  0
    0.3112    0.3109    0.8262 C   0  0  0  0  0  0  0  0  0  0  0  0
   -0.7241    0.2703   -0.0971 C   0  0  0  0  0  0  0  0  0  0  0  0
   -1.9101    3.4730    0.2504 H   0  0  0  0  0  0  0  0  0  0  0  0
   -0.0413    3.5184    1.9434 H   0  0  0  0  0  0  0  0  0  0  0  0
    1.3642    1.5024    2.2780 H   0  0  0  0  0  0  0  0  0  0  0  0
    0.9294   -0.5679    0.9766 H   0  0  0  0  0  0  0  0  0  0  0  0
   -0.9369   -0.6215   -0.6760 H   0  0  0  0  0  0  0  0  0  0  0  0
   -4.3643    3.8758   -1.8218 S   0  0  0  0  0  0  0  0  0  0  0  0
   -5.0335    3.9255   -0.0894 C   0  0  0  0  0  0  0  0  0  0  0  0
   -2.8957    3.7320   -1.5612 O   0  0  0  0  0  0  0  0  0  0  0  0
   -4.7865    5.1313   -2.4378 O   0  0  0  0  0  0  0  0  0  0  0  0
   -4.9399    2.6178   -2.3714 O   0  0  0  0  0  0  0  0  0  0  0  0
   -4.6705    2.7922    0.5649 F   0  0  0  0  0  0  0  0  0  0  0  0
   -4.5181    4.9620    0.5908 F   0  0  0  0  0  0  0  0  0  0  0  0
   -6.3641    4.0128   -0.0655 F   0  0  0  0  0  0  0  0  0  0  0  0
  1  8  2  0  0  0  0
  1  4  1  0  0  0  0
  2  1  1  0  0  0  0
  3  2  1  0  0  0  0
  4  5  2  0  0  0  0
  5  6  1  0  0  0  0
  5 10  1  0  0  0  0
  6 11  1  0  0  0  0
  7 12  1  0  0  0  0
  7  6  2  0  0  0  0
  8  7  1  0  0  0  0
  9  4  1  0  0  0  0
 13  8  1  0  0  0  0
 14 16  1  0  0  0  0
 14 15  1  0  0  0  0
 15 21  1  0  0  0  0
 15 19  1  0  0  0  0
 15 20  1  0  0  0  0
 17 14  2  0  0  0  0
 18 14  2  0  0  0  0
M  RAD  3   2   2   3   3  16   2
M  END
