Coordinates from ORCA-job PhN2+~TfO-_B3LYPG-6-31G_dp-NX-Scan-d89-09-n800
 OpenBabel11261920253D

 21 20  0  0  0  0  0  0  0  0999 V2000
   -1.5654    0.9758   -0.1621 C   0  0  0  0  0  0  0  0  0  0  0  0
   -2.8036    0.8134   -0.7773 N   0  0  0  0  0  0  0  0  0  0  0  0
   -3.8874    1.0173   -1.0223 N   0  0  0  0  0  0  0  0  0  0  0  0
   -1.4562    1.8892    0.8999 C   0  0  0  0  0  0  0  0  0  0  0  0
   -0.2025    2.0334    1.4845 C   0  0  0  0  0  0  0  0  0  0  0  0
    0.8891    1.2928    1.0190 C   0  0  0  0  0  0  0  0  0  0  0  0
    0.7488    0.3880   -0.0401 C   0  0  0  0  0  0  0  0  0  0  0  0
   -0.4903    0.2167   -0.6443 C   0  0  0  0  0  0  0  0  0  0  0  0
   -2.3207    2.4557    1.2264 H   0  0  0  0  0  0  0  0  0  0  0  0
   -0.0796    2.7355    2.3020 H   0  0  0  0  0  0  0  0  0  0  0  0
    1.8613    1.4235    1.4840 H   0  0  0  0  0  0  0  0  0  0  0  0
    1.6036   -0.1777   -0.3940 H   0  0  0  0  0  0  0  0  0  0  0  0
   -0.6351   -0.4704   -1.4704 H   0  0  0  0  0  0  0  0  0  0  0  0
   -3.9947    3.9415   -0.4161 S   0  0  0  0  0  0  0  0  0  0  0  0
   -5.5705    4.7541   -0.9671 C   0  0  0  0  0  0  0  0  0  0  0  0
   -3.3917    4.8592    0.5591 O   0  0  0  0  0  0  0  0  0  0  0  0
   -3.2414    3.6657   -1.6551 O   0  0  0  0  0  0  0  0  0  0  0  0
   -4.4918    2.6614    0.2420 O   0  0  0  0  0  0  0  0  0  0  0  0
   -6.3569    5.0105    0.0842 F   0  0  0  0  0  0  0  0  0  0  0  0
   -5.2960    5.9053   -1.5925 F   0  0  0  0  0  0  0  0  0  0  0  0
   -6.2317    3.9519   -1.8134 F   0  0  0  0  0  0  0  0  0  0  0  0
  1  4  1  0  0  0  0
  2  1  1  0  0  0  0
  3  2  1  0  0  0  0
  4  9  1  0  0  0  0
  4  5  2  0  0  0  0
  5 10  1  0  0  0  0
  6 11  1  0  0  0  0
  6  5  1  0  0  0  0
  7  6  2  0  0  0  0
  8  1  2  0  0  0  0
  8  7  1  0  0  0  0
 12  7  1  0  0  0  0
 13  8  1  0  0  0  0
 14 18  2  0  0  0  0
 14 16  1  0  0  0  0
 15 14  1  0  0  0  0
 15 19  1  0  0  0  0
 17 14  2  0  0  0  0
 20 15  1  0  0  0  0
 21 15  1  0  0  0  0
M  RAD  3   2   2   3   3  16   2
M  END
