Coordinates from ORCA-job PhN2+~TfO-_B3LYPG-6-31G_dp-NX-Scan-d89-09-n800
 OpenBabel11261920253D

 21 20  0  0  0  0  0  0  0  0999 V2000
   -1.4527    0.9976   -0.2553 C   0  0  0  0  0  0  0  0  0  0  0  0
   -2.6294    0.8700   -0.9889 N   0  0  0  0  0  0  0  0  0  0  0  0
   -3.6807    1.0600   -1.3522 N   0  0  0  0  0  0  0  0  0  0  0  0
   -1.3631    2.0170    0.7075 C   0  0  0  0  0  0  0  0  0  0  0  0
   -0.1639    2.1190    1.4063 C   0  0  0  0  0  0  0  0  0  0  0  0
    0.8893    1.2353    1.1513 C   0  0  0  0  0  0  0  0  0  0  0  0
    0.7681    0.2280    0.1858 C   0  0  0  0  0  0  0  0  0  0  0  0
   -0.4118    0.0997   -0.5350 C   0  0  0  0  0  0  0  0  0  0  0  0
   -2.1873    2.7034    0.8769 H   0  0  0  0  0  0  0  0  0  0  0  0
   -0.0556    2.9012    2.1502 H   0  0  0  0  0  0  0  0  0  0  0  0
    1.8173    1.3336    1.7062 H   0  0  0  0  0  0  0  0  0  0  0  0
    1.5931   -0.4496   -0.0061 H   0  0  0  0  0  0  0  0  0  0  0  0
   -0.5388   -0.6639   -1.2944 H   0  0  0  0  0  0  0  0  0  0  0  0
   -4.0936    3.9085   -0.6031 S   0  0  0  0  0  0  0  0  0  0  0  0
   -5.7073    4.8145   -0.7597 C   0  0  0  0  0  0  0  0  0  0  0  0
   -3.2925    4.6957    0.3517 O   0  0  0  0  0  0  0  0  0  0  0  0
   -3.5696    3.7803   -1.9765 O   0  0  0  0  0  0  0  0  0  0  0  0
   -4.5123    2.5724   -0.0179 O   0  0  0  0  0  0  0  0  0  0  0  0
   -6.2921    4.9339    0.4382 F   0  0  0  0  0  0  0  0  0  0  0  0
   -5.4968    6.0374   -1.2614 F   0  0  0  0  0  0  0  0  0  0  0  0
   -6.5332    4.1488   -1.5772 F   0  0  0  0  0  0  0  0  0  0  0  0
  1  4  1  0  0  0  0
  2  1  1  0  0  0  0
  3  2  1  0  0  0  0
  4  9  1  0  0  0  0
  4  5  2  0  0  0  0
  5 10  1  0  0  0  0
  6  5  1  0  0  0  0
  6 11  1  0  0  0  0
  7  6  2  0  0  0  0
  8  1  2  0  0  0  0
  8  7  1  0  0  0  0
 12  7  1  0  0  0  0
 13  8  1  0  0  0  0
 14 18  2  0  0  0  0
 14 16  1  0  0  0  0
 15 14  1  0  0  0  0
 15 19  1  0  0  0  0
 17 14  2  0  0  0  0
 20 15  1  0  0  0  0
 21 15  1  0  0  0  0
M  RAD  3   2   2   3   3  16   2
M  END
