Coordinates from ORCA-job PhN2+~TfO-_B3LYPG-6-31G_dp-NX-Scan-d89-09-n800
 OpenBabel11261920253D

 21 20  0  0  0  0  0  0  0  0999 V2000
   -1.4971    1.4337   -0.2747 C   0  0  0  0  0  0  0  0  0  0  0  0
   -2.5397    1.3389   -1.1989 N   0  0  0  0  0  0  0  0  0  0  0  0
   -3.3027    0.9464   -1.9203 N   0  0  0  0  0  0  0  0  0  0  0  0
   -1.2546    2.6297    0.4102 C   0  0  0  0  0  0  0  0  0  0  0  0
   -0.2165    2.6326    1.3380 C   0  0  0  0  0  0  0  0  0  0  0  0
    0.5426    1.4813    1.5623 C   0  0  0  0  0  0  0  0  0  0  0  0
    0.2778    0.2978    0.8612 C   0  0  0  0  0  0  0  0  0  0  0  0
   -0.7506    0.2582   -0.0694 C   0  0  0  0  0  0  0  0  0  0  0  0
   -1.8591    3.4988    0.1809 H   0  0  0  0  0  0  0  0  0  0  0  0
   -0.0001    3.5436    1.8853 H   0  0  0  0  0  0  0  0  0  0  0  0
    1.3497    1.5026    2.2884 H   0  0  0  0  0  0  0  0  0  0  0  0
    0.8716   -0.5920    1.0414 H   0  0  0  0  0  0  0  0  0  0  0  0
   -0.9822   -0.6436   -0.6251 H   0  0  0  0  0  0  0  0  0  0  0  0
   -4.3638    3.9113   -1.8154 S   0  0  0  0  0  0  0  0  0  0  0  0
   -5.0278    3.8862   -0.0803 C   0  0  0  0  0  0  0  0  0  0  0  0
   -2.8905    3.8177   -1.5642 O   0  0  0  0  0  0  0  0  0  0  0  0
   -4.8404    5.1638   -2.3971 O   0  0  0  0  0  0  0  0  0  0  0  0
   -4.8981    2.6472   -2.3945 O   0  0  0  0  0  0  0  0  0  0  0  0
   -4.6146    2.7504    0.5408 F   0  0  0  0  0  0  0  0  0  0  0  0
   -4.5558    4.9235    0.6284 F   0  0  0  0  0  0  0  0  0  0  0  0
   -6.3610    3.9146   -0.0505 F   0  0  0  0  0  0  0  0  0  0  0  0
  1  8  2  0  0  0  0
  1  4  1  0  0  0  0
  2  1  1  0  0  0  0
  3  2  1  0  0  0  0
  4  5  2  0  0  0  0
  5  6  1  0  0  0  0
  5 10  1  0  0  0  0
  6 11  1  0  0  0  0
  7 12  1  0  0  0  0
  7  6  2  0  0  0  0
  8  7  1  0  0  0  0
  9  4  1  0  0  0  0
 13  8  1  0  0  0  0
 14 16  1  0  0  0  0
 14 15  1  0  0  0  0
 15 21  1  0  0  0  0
 15 19  1  0  0  0  0
 15 20  1  0  0  0  0
 17 14  2  0  0  0  0
 18 14  2  0  0  0  0
M  RAD  3   2   2   3   3  16   2
M  END
