Coordinates from ORCA-job PhN2+~TfO-_B3LYPG-6-31G_dp-NX-Scan-d89-09-n800
 OpenBabel11261920253D

 21 20  0  0  0  0  0  0  0  0999 V2000
   -1.5271   -0.2637   -0.3741 C   0  0  0  0  0  0  0  0  0  0  0  0
   -1.5194   -1.4428   -1.0109 N   0  0  0  0  0  0  0  0  0  0  0  0
   -1.5277   -2.4278   -1.5615 N   0  0  0  0  0  0  0  0  0  0  0  0
   -2.6085    0.0320    0.5097 C   0  0  0  0  0  0  0  0  0  0  0  0
   -2.6543    1.2796    1.0682 C   0  0  0  0  0  0  0  0  0  0  0  0
   -1.6775    2.2529    0.7266 C   0  0  0  0  0  0  0  0  0  0  0  0
   -0.5471    1.8967   -0.0531 C   0  0  0  0  0  0  0  0  0  0  0  0
   -0.4734    0.6600   -0.6365 C   0  0  0  0  0  0  0  0  0  0  0  0
   -3.3693   -0.7165    0.7018 H   0  0  0  0  0  0  0  0  0  0  0  0
   -3.4774    1.5780    1.7060 H   0  0  0  0  0  0  0  0  0  0  0  0
   -1.7004    3.2082    1.2311 H   0  0  0  0  0  0  0  0  0  0  0  0
    0.2252    2.6337   -0.2409 H   0  0  0  0  0  0  0  0  0  0  0  0
    0.3471    0.3735   -1.2850 H   0  0  0  0  0  0  0  0  0  0  0  0
   -3.8619    4.2346   -0.3427 S   0  0  0  0  0  0  0  0  0  0  0  0
   -2.8398    5.7858   -0.2716 C   0  0  0  0  0  0  0  0  0  0  0  0
   -2.8548    3.2363   -0.8892 O   0  0  0  0  0  0  0  0  0  0  0  0
   -4.9531    4.5278   -1.2743 O   0  0  0  0  0  0  0  0  0  0  0  0
   -4.1944    3.9766    1.0727 O   0  0  0  0  0  0  0  0  0  0  0  0
   -1.7382    5.5712    0.4882 F   0  0  0  0  0  0  0  0  0  0  0  0
   -2.4311    6.1544   -1.4916 F   0  0  0  0  0  0  0  0  0  0  0  0
   -3.5295    6.7924    0.2735 F   0  0  0  0  0  0  0  0  0  0  0  0
  1  4  1  0  0  0  0
  2  1  1  0  0  0  0
  3  2  1  0  0  0  0
  4  9  1  0  0  0  0
  4  5  2  0  0  0  0
  5 10  1  0  0  0  0
  6  5  1  0  0  0  0
  6 11  1  0  0  0  0
  7  6  2  0  0  0  0
  8  1  2  0  0  0  0
  8  7  1  0  0  0  0
 12  7  1  0  0  0  0
 13  8  1  0  0  0  0
 14 15  1  0  0  0  0
 14 18  1  0  0  0  0
 15 21  1  0  0  0  0
 15 19  1  0  0  0  0
 16 14  2  0  0  0  0
 17 14  2  0  0  0  0
 20 15  1  0  0  0  0
M  RAD  3   2   2   3   3  18   2
M  END
