Coordinates from ORCA-job PhN2+~TfO-_B3LYPG-6-31G_dp-NX-Scan-d89-09-n800
 OpenBabel11261920253D

 21 20  0  0  0  0  0  0  0  0999 V2000
   -1.5357   -0.7305   -0.2662 C   0  0  0  0  0  0  0  0  0  0  0  0
   -1.6866   -2.0238   -0.6531 N   0  0  0  0  0  0  0  0  0  0  0  0
   -1.8356   -3.0859   -0.9817 N   0  0  0  0  0  0  0  0  0  0  0  0
   -2.6514    0.1368   -0.3950 C   0  0  0  0  0  0  0  0  0  0  0  0
   -2.4775    1.4572   -0.0284 C   0  0  0  0  0  0  0  0  0  0  0  0
   -1.2278    1.8960    0.4524 C   0  0  0  0  0  0  0  0  0  0  0  0
   -0.1438    1.0095    0.5880 C   0  0  0  0  0  0  0  0  0  0  0  0
   -0.2731   -0.3188    0.2277 C   0  0  0  0  0  0  0  0  0  0  0  0
   -3.5946   -0.2365   -0.7792 H   0  0  0  0  0  0  0  0  0  0  0  0
   -3.2879    2.1899   -0.1334 H   0  0  0  0  0  0  0  0  0  0  0  0
   -1.1419    2.9602    0.6854 H   0  0  0  0  0  0  0  0  0  0  0  0
    0.8077    1.3692    0.9648 H   0  0  0  0  0  0  0  0  0  0  0  0
    0.5448   -1.0265    0.3055 H   0  0  0  0  0  0  0  0  0  0  0  0
   -3.1193    4.8985   -0.5038 S   0  0  0  0  0  0  0  0  0  0  0  0
   -3.9391    6.4692    0.0485 C   0  0  0  0  0  0  0  0  0  0  0  0
   -2.6968    5.1486   -1.8920 O   0  0  0  0  0  0  0  0  0  0  0  0
   -4.1998    3.8821   -0.3412 O   0  0  0  0  0  0  0  0  0  0  0  0
   -2.0092    4.7367    0.4791 O   0  0  0  0  0  0  0  0  0  0  0  0
   -3.0804    7.4985   -0.0156 F   0  0  0  0  0  0  0  0  0  0  0  0
   -4.9944    6.7519   -0.7312 F   0  0  0  0  0  0  0  0  0  0  0  0
   -4.3703    6.3604    1.3158 F   0  0  0  0  0  0  0  0  0  0  0  0
  1  8  1  0  0  0  0
  2  1  1  0  0  0  0
  3  2  1  0  0  0  0
  4  1  2  0  0  0  0
  4  5  1  0  0  0  0
  5  6  2  0  0  0  0
  6  7  1  0  0  0  0
  6 11  1  0  0  0  0
  7 12  1  0  0  0  0
  8 13  1  0  0  0  0
  8  7  2  0  0  0  0
  9  4  1  0  0  0  0
 10  5  1  0  0  0  0
 14 17  2  0  0  0  0
 14 15  1  0  0  0  0
 14 18  1  0  0  0  0
 15 21  1  0  0  0  0
 16 14  2  0  0  0  0
 19 15  1  0  0  0  0
 20 15  1  0  0  0  0
M  RAD  3   2   2   3   3  18   2
M  END
