Coordinates from ORCA-job PhN2+~TfO-_B3LYPG-6-31G_dp-NX-Scan-d89-09-n800
 OpenBabel11261920253D

 21 20  0  0  0  0  0  0  0  0999 V2000
   -1.5819   -0.4335   -0.5554 C   0  0  0  0  0  0  0  0  0  0  0  0
   -1.5828   -1.6063   -1.2247 N   0  0  0  0  0  0  0  0  0  0  0  0
   -1.5868   -2.5880   -1.7759 N   0  0  0  0  0  0  0  0  0  0  0  0
   -2.8100    0.0508   -0.0227 C   0  0  0  0  0  0  0  0  0  0  0  0
   -2.7831    1.2352    0.6740 C   0  0  0  0  0  0  0  0  0  0  0  0
   -1.5691    1.9421    0.8413 C   0  0  0  0  0  0  0  0  0  0  0  0
   -0.3645    1.4393    0.3043 C   0  0  0  0  0  0  0  0  0  0  0  0
   -0.3497    0.2584   -0.4025 C   0  0  0  0  0  0  0  0  0  0  0  0
   -3.7275   -0.5060   -0.1768 H   0  0  0  0  0  0  0  0  0  0  0  0
   -3.7015    1.6674    1.0558 H   0  0  0  0  0  0  0  0  0  0  0  0
   -1.5629    2.8401    1.4505 H   0  0  0  0  0  0  0  0  0  0  0  0
    0.5554    1.9962    0.4408 H   0  0  0  0  0  0  0  0  0  0  0  0
    0.5603   -0.1501   -0.8271 H   0  0  0  0  0  0  0  0  0  0  0  0
   -3.2080    4.5211    0.2189 S   0  0  0  0  0  0  0  0  0  0  0  0
   -3.4034    6.2103   -0.5341 C   0  0  0  0  0  0  0  0  0  0  0  0
   -2.2001    3.8689   -0.6847 O   0  0  0  0  0  0  0  0  0  0  0  0
   -4.5556    3.9173    0.1524 O   0  0  0  0  0  0  0  0  0  0  0  0
   -2.6817    4.7712    1.5812 O   0  0  0  0  0  0  0  0  0  0  0  0
   -2.2277    6.8550   -0.5572 F   0  0  0  0  0  0  0  0  0  0  0  0
   -3.8592    6.1154   -1.7917 F   0  0  0  0  0  0  0  0  0  0  0  0
   -4.2730    6.9380    0.1801 F   0  0  0  0  0  0  0  0  0  0  0  0
  1  8  2  0  0  0  0
  1  4  1  0  0  0  0
  2  1  1  0  0  0  0
  3  2  1  0  0  0  0
  4  5  2  0  0  0  0
  5  6  1  0  0  0  0
  5 10  1  0  0  0  0
  6 11  1  0  0  0  0
  7 12  1  0  0  0  0
  7  6  2  0  0  0  0
  8  7  1  0  0  0  0
  9  4  1  0  0  0  0
 13  8  1  0  0  0  0
 14 18  1  0  0  0  0
 15 21  1  0  0  0  0
 15 14  1  0  0  0  0
 16 14  2  0  0  0  0
 17 14  2  0  0  0  0
 19 15  1  0  0  0  0
 20 15  1  0  0  0  0
M  RAD  3   2   2   3   3  18   2
M  END
