Coordinates from ORCA-job PhN2+~TfO-_B3LYPG-6-31G_dp-NX-Scan-d89-09-n800
 OpenBabel11261920253D

 21 20  0  0  0  0  0  0  0  0999 V2000
   -1.1799    1.4083   -0.7155 C   0  0  0  0  0  0  0  0  0  0  0  0
   -1.7661    1.5223   -1.9619 N   0  0  0  0  0  0  0  0  0  0  0  0
   -2.3145    1.8077   -2.8913 N   0  0  0  0  0  0  0  0  0  0  0  0
   -1.3300    2.4951    0.1617 C   0  0  0  0  0  0  0  0  0  0  0  0
   -0.7435    2.3715    1.4156 C   0  0  0  0  0  0  0  0  0  0  0  0
   -0.0473    1.2085    1.7624 C   0  0  0  0  0  0  0  0  0  0  0  0
    0.0830    0.1429    0.8610 C   0  0  0  0  0  0  0  0  0  0  0  0
   -0.4862    0.2297   -0.4020 C   0  0  0  0  0  0  0  0  0  0  0  0
   -1.8885    3.3673   -0.1566 H   0  0  0  0  0  0  0  0  0  0  0  0
   -0.8460    3.1838    2.1270 H   0  0  0  0  0  0  0  0  0  0  0  0
    0.3981    1.1271    2.7489 H   0  0  0  0  0  0  0  0  0  0  0  0
    0.6231   -0.7529    1.1467 H   0  0  0  0  0  0  0  0  0  0  0  0
   -0.4126   -0.5773   -1.1222 H   0  0  0  0  0  0  0  0  0  0  0  0
   -4.5335    3.3681   -1.3454 S   0  0  0  0  0  0  0  0  0  0  0  0
   -4.7529    4.5218    0.0990 C   0  0  0  0  0  0  0  0  0  0  0  0
   -3.2830    3.9156   -1.9809 O   0  0  0  0  0  0  0  0  0  0  0  0
   -5.7651    3.5137   -2.1252 O   0  0  0  0  0  0  0  0  0  0  0  0
   -4.2838    2.0497   -0.7078 O   0  0  0  0  0  0  0  0  0  0  0  0
   -3.6415    4.5188    0.8820 F   0  0  0  0  0  0  0  0  0  0  0  0
   -4.9577    5.7778   -0.3102 F   0  0  0  0  0  0  0  0  0  0  0  0
   -5.7851    4.1433    0.8610 F   0  0  0  0  0  0  0  0  0  0  0  0
  1  8  2  0  0  0  0
  1  4  1  0  0  0  0
  2  1  1  0  0  0  0
  3  2  1  0  0  0  0
  4  5  2  0  0  0  0
  5  6  1  0  0  0  0
  5 10  1  0  0  0  0
  6 11  1  0  0  0  0
  7 12  1  0  0  0  0
  7  6  2  0  0  0  0
  8  7  1  0  0  0  0
  9  4  1  0  0  0  0
 13  8  1  0  0  0  0
 14 18  1  0  0  0  0
 14 15  1  0  0  0  0
 15 21  1  0  0  0  0
 15 19  1  0  0  0  0
 16 14  2  0  0  0  0
 17 14  2  0  0  0  0
 20 15  1  0  0  0  0
M  RAD  3   2   2   3   3  18   2
M  END
