Coordinates from ORCA-job PhN2+~TfO-_B3LYPG-6-31G_dp-NX-Scan-d89-09-n800
 OpenBabel11261920253D

 21 21  0  0  0  0  0  0  0  0999 V2000
   -1.3880    1.2443   -0.0768 C   0  0  0  0  0  0  0  0  0  0  0  0
   -2.6212    1.0022   -0.7135 N   0  0  0  0  0  0  0  0  0  0  0  0
   -3.5453    1.6381   -1.1154 N   0  0  0  0  0  0  0  0  0  0  0  0
   -0.8649    2.5087    0.2595 C   0  0  0  0  0  0  0  0  0  0  0  0
    0.3800    2.5699    0.8800 C   0  0  0  0  0  0  0  0  0  0  0  0
    1.0965    1.4045    1.1683 C   0  0  0  0  0  0  0  0  0  0  0  0
    0.5723    0.1536    0.8328 C   0  0  0  0  0  0  0  0  0  0  0  0
   -0.6673    0.0720    0.2088 C   0  0  0  0  0  0  0  0  0  0  0  0
   -1.4182    3.4083    0.0358 H   0  0  0  0  0  0  0  0  0  0  0  0
    0.7923    3.5390    1.1418 H   0  0  0  0  0  0  0  0  0  0  0  0
    2.0653    1.4730    1.6534 H   0  0  0  0  0  0  0  0  0  0  0  0
    1.1275   -0.7517    1.0550 H   0  0  0  0  0  0  0  0  0  0  0  0
   -1.0999   -0.8828   -0.0686 H   0  0  0  0  0  0  0  0  0  0  0  0
   -4.5028    4.1103   -1.5478 S   0  0  0  0  0  0  0  0  0  0  0  0
   -5.8679    3.9415   -0.2876 C   0  0  0  0  0  0  0  0  0  0  0  0
   -3.3653    3.2063   -0.8482 O   0  0  0  0  0  0  0  0  0  0  0  0
   -4.0318    5.4848   -1.4815 O   0  0  0  0  0  0  0  0  0  0  0  0
   -4.9844    3.5066   -2.7787 O   0  0  0  0  0  0  0  0  0  0  0  0
   -6.2215    2.6605   -0.1683 F   0  0  0  0  0  0  0  0  0  0  0  0
   -5.4531    4.3969    0.8952 F   0  0  0  0  0  0  0  0  0  0  0  0
   -6.9153    4.6569   -0.6974 F   0  0  0  0  0  0  0  0  0  0  0  0
  1  8  2  0  0  0  0
  1  4  1  0  0  0  0
  2  1  1  0  0  0  0
  3 16  1  0  0  0  0
  3  2  1  0  0  0  0
  4  5  2  0  0  0  0
  5 10  1  0  0  0  0
  5  6  1  0  0  0  0
  6 11  1  0  0  0  0
  7 12  1  0  0  0  0
  7  6  2  0  0  0  0
  8  7  1  0  0  0  0
  9  4  1  0  0  0  0
 13  8  1  0  0  0  0
 14 17  2  0  0  0  0
 14 16  1  0  0  0  0
 14 15  1  0  0  0  0
 15 19  1  0  0  0  0
 15 20  1  0  0  0  0
 18 14  2  0  0  0  0
 21 15  1  0  0  0  0
M  RAD  2   2   2   3   2
M  END
