25
Coordinates from ORCA-job 4-MeOPhN2+~TfO-_B3LYPG-6-31G_dp-NX-Scan-d89-09-n800
  C   -4.14801945692248     -2.78331346092961     -0.43121728261717
  N   -4.74459288309303     -3.22220100467802      0.72520880275148
  N   -5.23824449280004     -3.43423250493317      1.70739987404192
  C   -3.82284687902688     -3.73802951753245     -1.41961464632384
  C   -3.22584345189490     -3.30159418654411     -2.57992919139753
  C   -2.95008045131310     -1.92543316432201     -2.76340876394617
  O   -2.36850073002989     -1.61232387402946     -3.92897895715580
  C   -2.04789301690551     -0.24524717996690     -4.21157213194368
  C   -3.28280450666979     -0.99326470048901     -1.76207018103298
  C   -3.88523971322571     -1.40809223829411     -0.58443199523059
  H   -4.04294940342768     -4.78794645504090     -1.26121576597136
  H   -2.95648712562160     -3.99338784443071     -3.36951377083604
  H   -1.59007518438582     -0.25246793273644     -5.19997542728133
  H   -1.33705604707669      0.15053799457836     -3.47883749773883
  H   -2.95041754495761      0.37420581916601     -4.22794833659345
  H   -3.07619421131064      0.06179178950294     -1.88843029559216
  H   -4.14753627082744     -0.68474685314328      0.19079134737238
  S   -5.29501926726797     -0.51685429974804      2.55788895571623
  C   -5.87325893852059      0.34331987047636      4.09668984011117
  O   -6.50135624396763     -1.20454445846686      2.02409192227630
  O   -4.24454919141371     -1.46409516644159      3.02254872662849
  O   -4.78234169457048      0.57620062928332      1.69304479117803
  F   -6.83476000074559      1.22962463847875      3.80531256604367
  F   -6.36536715605764     -0.54772466366653      4.96936036585734
  F   -4.85546613796775      0.99151876390736      4.67910705168387
