25
Coordinates from ORCA-job 4-MeOPhN2+~TfO-_B3LYPG-6-31G_dp-NX-Scan-d89-09-n800
  C   -4.45053112195282     -2.72166182562684     -0.51955828178863
  N   -5.23147989739419     -3.14745120611391      0.52635513256431
  N   -5.91055066364900     -3.34857258340180      1.40173041602480
  C   -3.80964679942079     -3.70424824242081     -1.30492968322530
  C   -3.02409579669552     -3.29909196689296     -2.35989008132051
  C   -2.87330806595103     -1.92138276516574     -2.64248797912044
  O   -2.08485756260348     -1.63698972999725     -3.68870465333203
  C   -1.85414169136697     -0.26965461833326     -4.04491331208619
  C   -3.52711518479079     -0.95675480237394     -1.85205165298464
  C   -4.31575632570574     -1.34428787264349     -0.78102390966955
  H   -3.93560905346233     -4.75553872869499     -1.07032238927936
  H   -2.50845361988697     -4.01629183402393     -2.98761916347659
  H   -1.18624981226138     -0.30143755473733     -4.90509436925902
  H   -1.37364677652109      0.27422024754290     -3.22460129932623
  H   -2.78923309517961      0.22697473426535     -4.32457954808140
  H   -3.41771255278527      0.10034234585789     -2.05669743713758
  H   -4.80738264445489     -0.59977946855870     -0.15954409444200
  S   -5.38694489302912     -0.49609531782846      2.41105148721695
  C   -5.46736204976052      0.24084242004376      4.11367796603111
  O   -6.52285909818525     -1.48262140933482      2.39695204753758
  O   -4.06208823840509     -1.15177777140110      2.32919036021243
  O   -5.57837348347308      0.64644679115676      1.49049660080906
  F   -6.64301597165638      0.85098643691226      4.30686757079508
  F   -5.32065240732039     -0.71426622825882      5.04188770813980
  F   -4.48583319408848      1.13979095002912      4.26810856519822
