25
Coordinates from ORCA-job 4-MeOPhN2+~TfO-_B3LYPG-6-31G_dp-NX-Scan-d89-09-n800
  C   -4.45942855328724     -4.04979227564703     -0.57580920988976
  N   -5.09401604208900     -5.06711750354819      0.04028299008078
  N   -5.63388934880678     -5.90496047546092      0.56125373845726
  C   -3.41875301611745     -4.34776463641868     -1.50374947072817
  C   -2.77075489223016     -3.29996635942009     -2.10007143199919
  C   -3.13834517381053     -1.95724942336948     -1.78679704956971
  O   -2.42601212224611     -1.01495591738368     -2.37960308134763
  C   -2.68190742590528      0.37671689251646     -2.04548778726029
  C   -4.19294780445931     -1.68462351534726     -0.88657780972658
  C   -4.84970621110792     -2.71993556355561     -0.26543752789790
  H   -3.15151689269195     -5.37657532408458     -1.71725282967136
  H   -1.96358716355500     -3.46630015426385     -2.80449866171764
  H   -1.93773631653703      0.93768799630067     -2.60697207590147
  H   -2.56831407901181      0.53408693650884     -0.97114031335741
  H   -3.69269963205445      0.66344090450453     -2.34050982585344
  H   -4.50810920392431     -0.66328671584082     -0.65503748520210
  H   -5.62352070872318     -2.47557169796129      0.46016650201864
  S   -5.65885854242738      0.77138056123684      1.25663133859900
  C   -4.07564583825785      1.02011882330121      2.19993442879925
  O   -6.59539195465911      1.73888112273269      1.83482795066368
  O   -5.95758868235410     -0.66669127850205      1.50030164303896
  O   -5.21172915705254      1.04565976517088     -0.14345809420514
  F   -3.66044744556862      2.29244069572093      2.13319976399166
  F   -4.20430494974787      0.68303298393319      3.48999518342977
  F   -3.09168884337515      0.24304415887721      1.67010911524868
