25
Coordinates from ORCA-job 4-MeOPhN2+~TfO-_B3LYPG-6-31G_dp-NX-Scan-d89-09-n800
  C   -4.22607634191423     -3.01519883102682     -0.42111555509756
  N   -4.91501408328136     -3.63350365968136      0.58982643018957
  N   -5.45436099136747     -4.21999062241268      1.37199632521026
  C   -3.41321612152258     -3.83918934765993     -1.23972470969207
  C   -2.71956545211924     -3.25123771676467     -2.26929578953692
  C   -2.82902058711847     -1.85556734870815     -2.49678186282578
  O   -2.11113948830996     -1.39175544529347     -3.52479707734546
  C   -2.14396469116962      0.00846855266060     -3.83362680076963
  C   -3.64835728140970     -1.06213143340042     -1.67141692196911
  C   -4.35445686055940     -1.62914397891209     -0.62364050157830
  H   -3.34021191759940     -4.90450599523457     -1.04886466749472
  H   -2.08006641544429     -3.83396644210177     -2.92220828399241
  H   -1.48950977290800      0.13048282816943     -4.69561989038381
  H   -1.76671677634807      0.60210493507805     -2.99495100624725
  H   -3.15846074359310      0.32810438086654     -4.09190595308822
  H   -3.74149267552387      0.00529439028583     -1.82676206839900
  H   -4.97864343957969     -1.00776486469450      0.02329351356963
  S   -6.06400561650547     -0.37220438019770      2.29689236797562
  C   -5.06306978214008      0.39369994724280      3.65975894269677
  O   -7.45479192204718     -0.28661624330115      2.75557267188788
  O   -5.50125272218835     -1.75789567684363      2.20836819746265
  O   -5.70334291183916      0.44098859963928      1.10277336481856
  F   -5.40504700568209      1.67787115643223      3.83492038123091
  F   -5.25536253911607     -0.25995799882713      4.81535126114897
  F   -3.74975386071326      0.34531519468518      3.36625763222936
