25
Coordinates from ORCA-job 4-MeOPhN2+~TfO-_B3LYPG-6-31G_dp-NX-Scan-d89-09-n800
  C   -4.13889988274749     -2.78542722536627     -0.42718508213349
  N   -4.73125380015320     -3.22548058953259      0.73082765723753
  N   -5.22289827372249     -3.44038573236185      1.71331880812632
  C   -3.82360643531849     -3.73828689469608     -1.42065760351691
  C   -3.23134148120317     -3.30048315540221     -2.58283602910229
  C   -2.95111536362861     -1.92476769690022     -2.76335948123774
  O   -2.37555816047395     -1.61006957874642     -3.93140126732508
  C   -2.05145450793618     -0.24329479821998     -4.21163576249896
  C   -3.27400355235691     -0.99463037897727     -1.75689929199594
  C   -3.87066954105879     -1.41097987664048     -0.57691150604340
  H   -4.04753507887373     -4.78775095002506     -1.26465608839856
  H   -2.96954449656315     -3.99071030986818     -3.37632659801795
  H   -1.59976119173265     -0.24912587991623     -5.20285529302759
  H   -1.33462677696003      0.14742331975944     -3.48204689435093
  H   -2.95170749006468      0.37959786624934     -4.22047649456704
  H   -3.06428686905955      0.06006238825254     -1.88118100154469
  H   -4.12604365361756     -0.68926859394338      0.20218917805665
  S   -5.30616614765235     -0.51845650970488      2.55339736986387
  C   -5.87617589837309      0.34653280884845      4.09258222498464
  O   -6.51506449712338     -1.20324866600876      2.02411196953801
  O   -4.25703713735130     -1.46775226161171      3.01789405571334
  O   -4.78973561835667      0.57143256763934      1.68650496484972
  F   -6.83447903332113      1.23672516707205      3.80248809799750
  F   -6.36989061739977     -0.54106286656155      4.96786531578698
  F   -4.85404449495185      0.99110784666184      4.67154875160595
