25
Coordinates from ORCA-job 4-MeOPhN2+~TfO-_B3LYPG-6-31G_dp-NX-Scan-d89-09-n800
  C   -4.24338726423704     -3.02915008410488     -0.47485185220913
  N   -4.94443284872413     -3.62385873034062      0.54012618725082
  N   -5.52558475976881     -4.08638943480033      1.37415283064199
  C   -3.47834362064728     -3.86397989790366     -1.32491040191308
  C   -2.77521767850049     -3.27718193807001     -2.34911748981660
  C   -2.83133374381934     -1.87270401610839     -2.53827094830492
  O   -2.10940239345570     -1.41100485677214     -3.56462234073572
  C   -2.08829568035917     -0.00312725253029     -3.83642628899632
  C   -3.60761252898068     -1.06827368163588     -1.68192667220903
  C   -4.32146208030459     -1.63312561252832     -0.63806473812805
  H   -3.44647047717125     -4.93595894923821     -1.16173205793159
  H   -2.16882796474925     -3.86692240513266     -3.02675151087622
  H   -1.43945784855689      0.11498086080156     -4.70326480623469
  H   -1.67726526628617      0.55236749663877     -2.98748943402733
  H   -3.09172255760968      0.36446864704776     -4.07357353266535
  H   -3.66137656556821      0.00520872187585     -1.81296447750842
  H   -4.92051178480164     -1.00510059449028      0.03112941548272
  S   -5.99206285771492     -0.47752796051084      2.38596177972172
  C   -5.13673195314133      0.50064006144327      3.71145950928927
  O   -7.38955421182396     -0.57228883216271      2.82497709730640
  O   -5.23191307111291     -1.76682827853582      2.37635739812600
  O   -5.73967306775272      0.31912357432052      1.15144429793326
  F   -5.67986357829773      1.72138655294545      3.82322893419629
  F   -5.23574098679790     -0.11981242318663      4.89642518802002
  F   -3.83065520981832      0.64675903297840      3.42300391358784
