25
Coordinates from ORCA-job 4-MeOPhN2+~TfO-_B3LYPG-6-31G_dp-NX-Scan-d89-09-n800
  C   -4.48621362858479     -2.73785972031797     -0.54080353400669
  N   -5.28943881209809     -3.18180037907277      0.47769371912390
  N   -5.96506991727868     -3.51461023809147      1.30725878904110
  C   -3.82618706598168     -3.71049748505870     -1.32541430465241
  C   -3.01846085516511     -3.28533299099694     -2.35406167571656
  C   -2.86625085163592     -1.90150249914674     -2.61127018403059
  O   -2.05532069807006     -1.59984678176183     -3.63349967432436
  C   -1.82065249057397     -0.22647424469720     -3.96614558192147
  C   -3.54174788671389     -0.95085798562619     -1.82204144239794
  C   -4.35269063088183     -1.35507255104642     -0.77461751627270
  H   -3.95374941992643     -4.76585372334002     -1.11060983963330
  H   -2.48538386830915     -3.99057297168483     -2.98076876411405
  H   -1.13281714653248     -0.24533041415441     -4.81079275167056
  H   -1.36119138280770      0.30710079958587     -3.12744217915902
  H   -2.75088567071609      0.27036920306003     -4.26089175757804
  H   -3.43149405481705      0.10943388962152     -2.00873245452928
  H   -4.86611097075813     -0.62780587081372     -0.14670481450342
  S   -5.49528647658477     -0.59651794446654      2.42236938590093
  C   -5.35413307398704      0.32102659497251      4.02988321444041
  O   -6.61136271783384     -1.56186697889350      2.64184065854942
  O   -4.17687560118924     -1.25729813371426      2.24450973961504
  O   -5.78000896996939      0.45570413247329      1.41512467977570
  F   -6.49145237743285      0.97521265729699      4.29992390612823
  F   -5.10066796617752     -0.52978486251689      5.03388012337276
  F   -4.35344746597445      1.21173849839009      3.96561225856284
