Coordinates from ORCA-job 4-NO2PhN2+~Cl-_B3LYPG-6-31G_dp-NX-Scan-d89-09-n800
 OpenBabel11261920183D

 16 15  0  0  0  0  0  0  0  0999 V2000
   -1.5707   -0.5479   -0.0163 C   0  0  0  0  0  0  0  0  0  0  0  0
   -2.8293   -1.0606    0.0227 N   0  0  0  0  0  0  0  0  0  0  0  0
   -3.8497   -1.5545    0.0610 N   0  0  0  0  0  0  0  0  0  0  0  0
   -1.3609    0.8534   -0.1391 C   0  0  0  0  0  0  0  0  0  0  0  0
   -0.0572    1.3267   -0.1751 C   0  0  0  0  0  0  0  0  0  0  0  0
    0.9959    0.4050   -0.0902 C   0  0  0  0  0  0  0  0  0  0  0  0
    2.3851    0.8900   -0.1277 N   0  0  0  0  0  0  0  0  0  0  0  0
    2.5517    2.0989   -0.2254 O   0  0  0  0  0  0  0  0  0  0  0  0
    3.2722    0.0343   -0.0569 O   0  0  0  0  0  0  0  0  0  0  0  0
    0.7906   -0.9760    0.0306 C   0  0  0  0  0  0  0  0  0  0  0  0
   -0.4950   -1.4725    0.0698 C   0  0  0  0  0  0  0  0  0  0  0  0
   -2.2038    1.5319   -0.2031 H   0  0  0  0  0  0  0  0  0  0  0  0
    0.1621    2.3905   -0.2682 H   0  0  0  0  0  0  0  0  0  0  0  0
    1.6517   -1.6293    0.0918 H   0  0  0  0  0  0  0  0  0  0  0  0
   -0.6919   -2.5343    0.1642 H   0  0  0  0  0  0  0  0  0  0  0  0
    1.1965    5.4228   -0.5084 Cl  0  0  0  0  0  0  0  0  0  0  0  0
  1  2  1  0  0  0  0
  1 11  2  0  0  0  0
  2  3  1  0  0  0  0
  4  1  1  0  0  0  0
  5  4  2  0  0  0  0
  5  6  1  0  0  0  0
  6 10  2  0  0  0  0
  7  6  1  0  0  0  0
  7  9  2  0  0  0  0
  8  7  2  0  0  0  0
 10 11  1  0  0  0  0
 10 14  1  0  0  0  0
 11 15  1  0  0  0  0
 12  4  1  0  0  0  0
 13  5  1  0  0  0  0
M  RAD  3   2   2   3   3  16   2
M  END
