Coordinates from ORCA-job 4-NO2PhN2+~Cl-_B3LYPG-6-31G_dp-NX-Scan-d89-09-n800
 OpenBabel11261920193D

 16 16  0  0  1  0  0  0  0  0999 V2000
   -1.4547   -0.1432    0.0940 C   0  0  0  0  0  0  0  0  0  0  0  0
   -2.7217   -0.5162    0.0806 N   0  0  0  0  0  0  0  0  0  0  0  0
   -3.8091   -0.8504    0.0495 N   0  0  0  0  0  0  0  0  0  0  0  0
   -1.1317    1.2676   -0.2096 C   0  0  2  0  0  0  0  0  0  0  0  0
    0.2813    1.4353   -0.5975 C   0  0  0  0  0  0  0  0  0  0  0  0
    1.1889    0.4793   -0.2960 C   0  0  0  0  0  0  0  0  0  0  0  0
    2.6065    0.7327   -0.6358 N   0  0  0  0  0  0  0  0  0  0  0  0
    2.8847    1.7840   -1.2064 O   0  0  0  0  0  0  0  0  0  0  0  0
    3.4179   -0.1362   -0.3209 O   0  0  0  0  0  0  0  0  0  0  0  0
    0.8630   -0.7843    0.3096 C   0  0  0  0  0  0  0  0  0  0  0  0
   -0.4467   -1.0962    0.4807 C   0  0  0  0  0  0  0  0  0  0  0  0
   -1.8347    1.7465   -0.8866 H   0  0  0  0  0  0  0  0  0  0  0  0
    0.5938    2.3601   -1.0646 H   0  0  0  0  0  0  0  0  0  0  0  0
    1.6593   -1.4645    0.5757 H   0  0  0  0  0  0  0  0  0  0  0  0
   -0.7537   -2.0555    0.8826 H   0  0  0  0  0  0  0  0  0  0  0  0
   -1.3961    2.4193    1.3743 Cl  0  0  0  0  0  0  0  0  0  0  0  0
  1 11  2  0  0  0  0
  2  1  1  0  0  0  0
  3  2  1  0  0  0  0
  4 12  1  6  0  0  0
  4  1  1  0  0  0  0
  4 16  1  0  0  0  0
  5  6  2  0  0  0  0
  5  4  1  0  0  0  0
  6 10  1  0  0  0  0
  7  9  2  0  0  0  0
  7  6  1  0  0  0  0
  8  7  2  0  0  0  0
 10 11  1  0  0  0  0
 10 14  1  0  0  0  0
 11 15  1  0  0  0  0
 13  5  1  0  0  0  0
M  RAD  3   2   2   3   3  10   2
M  END
