Coordinates from ORCA-job 4-NO2PhN2+~Cl-_B3LYPG-6-31G_dp-NX-Scan-d89-09-n800
 OpenBabel11261920193D

 16 15  0  0  0  0  0  0  0  0999 V2000
   -1.5056   -0.4132    0.0036 C   0  0  0  0  0  0  0  0  0  0  0  0
   -2.7872   -0.8764    0.0423 N   0  0  0  0  0  0  0  0  0  0  0  0
   -3.8201   -1.3308    0.0851 N   0  0  0  0  0  0  0  0  0  0  0  0
   -1.2422    0.9663   -0.1977 C   0  0  0  0  0  0  0  0  0  0  0  0
    0.0822    1.3714   -0.3143 C   0  0  0  0  0  0  0  0  0  0  0  0
    1.0863    0.4077   -0.1863 C   0  0  0  0  0  0  0  0  0  0  0  0
    2.4925    0.8116   -0.3674 N   0  0  0  0  0  0  0  0  0  0  0  0
    2.6993    1.9381   -0.7980 O   0  0  0  0  0  0  0  0  0  0  0  0
    3.3520   -0.0245   -0.0771 O   0  0  0  0  0  0  0  0  0  0  0  0
    0.8297   -0.9433    0.0900 C   0  0  0  0  0  0  0  0  0  0  0  0
   -0.4748   -1.3801    0.1689 C   0  0  0  0  0  0  0  0  0  0  0  0
   -2.0415    1.6979   -0.2534 H   0  0  0  0  0  0  0  0  0  0  0  0
    0.3058    2.4412   -0.4430 H   0  0  0  0  0  0  0  0  0  0  0  0
    1.6627   -1.6239    0.2130 H   0  0  0  0  0  0  0  0  0  0  0  0
   -0.7203   -2.4203    0.3478 H   0  0  0  0  0  0  0  0  0  0  0  0
    0.0285    4.5568    0.3161 Cl  0  0  0  0  0  0  0  0  0  0  0  0
  1  2  1  0  0  0  0
  1 11  2  0  0  0  0
  2  3  1  0  0  0  0
  4  1  1  0  0  0  0
  5  4  2  0  0  0  0
  5  6  1  0  0  0  0
  6 10  2  0  0  0  0
  7  6  1  0  0  0  0
  7  9  2  0  0  0  0
  8  7  2  0  0  0  0
 10 11  1  0  0  0  0
 10 14  1  0  0  0  0
 11 15  1  0  0  0  0
 12  4  1  0  0  0  0
 13  5  1  0  0  0  0
M  RAD  3   2   2   3   3  16   2
M  END
