Coordinates from ORCA-job 4-NO2PhN2+~Cl-_B3LYPG-6-31G_dp-NX-Scan-d89-09-n800
 OpenBabel11261920193D

 16 15  0  0  0  0  0  0  0  0999 V2000
   -1.4834   -0.2209    0.0463 C   0  0  0  0  0  0  0  0  0  0  0  0
   -2.7598   -0.6783   -0.0003 N   0  0  0  0  0  0  0  0  0  0  0  0
   -3.7695   -1.1806   -0.0765 N   0  0  0  0  0  0  0  0  0  0  0  0
   -1.1679    1.1040   -0.3562 C   0  0  0  0  0  0  0  0  0  0  0  0
    0.1910    1.3983   -0.5682 C   0  0  0  0  0  0  0  0  0  0  0  0
    1.1445    0.4371   -0.2902 C   0  0  0  0  0  0  0  0  0  0  0  0
    2.5554    0.7486   -0.5496 N   0  0  0  0  0  0  0  0  0  0  0  0
    2.8125    1.8255   -1.0807 O   0  0  0  0  0  0  0  0  0  0  0  0
    3.3847   -0.1044   -0.2284 O   0  0  0  0  0  0  0  0  0  0  0  0
    0.8296   -0.8323    0.2511 C   0  0  0  0  0  0  0  0  0  0  0  0
   -0.4817   -1.1815    0.4177 C   0  0  0  0  0  0  0  0  0  0  0  0
   -1.9375    1.8148   -0.6235 H   0  0  0  0  0  0  0  0  0  0  0  0
    0.4831    2.3696   -0.9404 H   0  0  0  0  0  0  0  0  0  0  0  0
    1.6341   -1.5103    0.5047 H   0  0  0  0  0  0  0  0  0  0  0  0
   -0.7753   -2.1530    0.7964 H   0  0  0  0  0  0  0  0  0  0  0  0
   -0.7131    3.3415    1.3278 Cl  0  0  0  0  0  0  0  0  0  0  0  0
  1 11  2  0  0  0  0
  2  1  1  0  0  0  0
  3  2  1  0  0  0  0
  4  1  1  0  0  0  0
  5  4  2  0  0  0  0
  5  6  1  0  0  0  0
  6 10  2  0  0  0  0
  7  6  1  0  0  0  0
  7  9  2  0  0  0  0
  8  7  2  0  0  0  0
 10 11  1  0  0  0  0
 10 14  1  0  0  0  0
 11 15  1  0  0  0  0
 12  4  1  0  0  0  0
 13  5  1  0  0  0  0
M  RAD  3   2   2   3   3  16   2
M  END
