Coordinates from ORCA-job 4-NO2PhN2+~Cl-_B3LYPG-6-31G_dp-NX-Scan-d89-09-n800
 OpenBabel11261920193D

 16 15  0  0  0  0  0  0  0  0999 V2000
   -1.4916   -0.3641    0.0113 C   0  0  0  0  0  0  0  0  0  0  0  0
   -2.7778   -0.8160    0.0434 N   0  0  0  0  0  0  0  0  0  0  0  0
   -3.8062   -1.2800    0.0722 N   0  0  0  0  0  0  0  0  0  0  0  0
   -1.2055    1.0026   -0.2377 C   0  0  0  0  0  0  0  0  0  0  0  0
    0.1294    1.3724   -0.3713 C   0  0  0  0  0  0  0  0  0  0  0  0
    1.1157    0.3985   -0.2119 C   0  0  0  0  0  0  0  0  0  0  0  0
    2.5267    0.7724   -0.4112 N   0  0  0  0  0  0  0  0  0  0  0  0
    2.7545    1.8976   -0.8373 O   0  0  0  0  0  0  0  0  0  0  0  0
    3.3724   -0.0838   -0.1419 O   0  0  0  0  0  0  0  0  0  0  0  0
    0.8343   -0.9372    0.1173 C   0  0  0  0  0  0  0  0  0  0  0  0
   -0.4769   -1.3438    0.2165 C   0  0  0  0  0  0  0  0  0  0  0  0
   -1.9825    1.7556   -0.3195 H   0  0  0  0  0  0  0  0  0  0  0  0
    0.3670    2.4277   -0.5323 H   0  0  0  0  0  0  0  0  0  0  0  0
    1.6540   -1.6288    0.2653 H   0  0  0  0  0  0  0  0  0  0  0  0
   -0.7426   -2.3704    0.4397 H   0  0  0  0  0  0  0  0  0  0  0  0
   -0.3241    4.3757    0.5269 Cl  0  0  0  0  0  0  0  0  0  0  0  0
  1  2  1  0  0  0  0
  1 11  2  0  0  0  0
  2  3  1  0  0  0  0
  4  1  1  0  0  0  0
  5  4  2  0  0  0  0
  5  6  1  0  0  0  0
  6 10  2  0  0  0  0
  7  6  1  0  0  0  0
  7  9  2  0  0  0  0
  8  7  2  0  0  0  0
 10 11  1  0  0  0  0
 10 14  1  0  0  0  0
 11 15  1  0  0  0  0
 12  4  1  0  0  0  0
 13  5  1  0  0  0  0
M  RAD  3   2   2   3   3  16   2
M  END
