Coordinates from ORCA-job 4-NO2PhN2+~Cl-_B3LYPG-6-31G_dp-NX-Scan-d89-09-n800
 OpenBabel11261920183D

 16 15  0  0  0  0  0  0  0  0999 V2000
   -1.5705   -0.5469   -0.0163 C   0  0  0  0  0  0  0  0  0  0  0  0
   -2.8292   -1.0595    0.0227 N   0  0  0  0  0  0  0  0  0  0  0  0
   -3.8494   -1.5537    0.0609 N   0  0  0  0  0  0  0  0  0  0  0  0
   -1.3603    0.8543   -0.1391 C   0  0  0  0  0  0  0  0  0  0  0  0
   -0.0564    1.3273   -0.1751 C   0  0  0  0  0  0  0  0  0  0  0  0
    0.9963    0.4053   -0.0902 C   0  0  0  0  0  0  0  0  0  0  0  0
    2.3858    0.8897   -0.1275 N   0  0  0  0  0  0  0  0  0  0  0  0
    2.5529    2.0985   -0.2252 O   0  0  0  0  0  0  0  0  0  0  0  0
    3.2725    0.0336   -0.0568 O   0  0  0  0  0  0  0  0  0  0  0  0
    0.7907   -0.9757    0.0305 C   0  0  0  0  0  0  0  0  0  0  0  0
   -0.4951   -1.4718    0.0697 C   0  0  0  0  0  0  0  0  0  0  0  0
   -2.2030    1.5331   -0.2032 H   0  0  0  0  0  0  0  0  0  0  0  0
    0.1631    2.3912   -0.2682 H   0  0  0  0  0  0  0  0  0  0  0  0
    1.6516   -1.6293    0.0916 H   0  0  0  0  0  0  0  0  0  0  0  0
   -0.6923   -2.5336    0.1640 H   0  0  0  0  0  0  0  0  0  0  0  0
    1.1903    5.4159   -0.5082 Cl  0  0  0  0  0  0  0  0  0  0  0  0
  1  2  1  0  0  0  0
  1 11  2  0  0  0  0
  2  3  1  0  0  0  0
  4  1  1  0  0  0  0
  5  4  2  0  0  0  0
  5  6  1  0  0  0  0
  6 10  2  0  0  0  0
  7  6  1  0  0  0  0
  7  9  2  0  0  0  0
  8  7  2  0  0  0  0
 10 11  1  0  0  0  0
 10 14  1  0  0  0  0
 11 15  1  0  0  0  0
 12  4  1  0  0  0  0
 13  5  1  0  0  0  0
M  RAD  3   2   2   3   3  16   2
M  END
