Coordinates from ORCA-job 4-NO2PhN2+~Cl-_B3LYPG-6-31G_dp-NX-Scan-d89-09-n800
 OpenBabel11261920193D

 16 15  0  0  0  0  0  0  0  0999 V2000
   -1.4934   -0.3706    0.0100 C   0  0  0  0  0  0  0  0  0  0  0  0
   -2.7791   -0.8239    0.0434 N   0  0  0  0  0  0  0  0  0  0  0  0
   -3.8083   -1.2865    0.0746 N   0  0  0  0  0  0  0  0  0  0  0  0
   -1.2099    0.9979   -0.2329 C   0  0  0  0  0  0  0  0  0  0  0  0
    0.1238    1.3722   -0.3642 C   0  0  0  0  0  0  0  0  0  0  0  0
    1.1122    0.3993   -0.2087 C   0  0  0  0  0  0  0  0  0  0  0  0
    2.5226    0.7768   -0.4060 N   0  0  0  0  0  0  0  0  0  0  0  0
    2.7479    1.9027   -0.8313 O   0  0  0  0  0  0  0  0  0  0  0  0
    3.3701   -0.0770   -0.1344 O   0  0  0  0  0  0  0  0  0  0  0  0
    0.8337   -0.9384    0.1138 C   0  0  0  0  0  0  0  0  0  0  0  0
   -0.4767   -1.3489    0.2103 C   0  0  0  0  0  0  0  0  0  0  0  0
   -1.9896    1.7485   -0.3110 H   0  0  0  0  0  0  0  0  0  0  0  0
    0.3594    2.4299   -0.5201 H   0  0  0  0  0  0  0  0  0  0  0  0
    1.6551   -1.6287    0.2588 H   0  0  0  0  0  0  0  0  0  0  0  0
   -0.7399   -2.3773    0.4277 H   0  0  0  0  0  0  0  0  0  0  0  0
   -0.2812    4.4026    0.4997 Cl  0  0  0  0  0  0  0  0  0  0  0  0
  1  2  1  0  0  0  0
  1 11  2  0  0  0  0
  2  3  1  0  0  0  0
  4  1  1  0  0  0  0
  5  4  2  0  0  0  0
  5  6  1  0  0  0  0
  6 10  2  0  0  0  0
  7  6  1  0  0  0  0
  7  9  2  0  0  0  0
  8  7  2  0  0  0  0
 10 11  1  0  0  0  0
 10 14  1  0  0  0  0
 11 15  1  0  0  0  0
 12  4  1  0  0  0  0
 13  5  1  0  0  0  0
M  RAD  3   2   2   3   3  16   2
M  END
