Coordinates from ORCA-job 4-NO2PhN2+~Cl-_B3LYPG-6-31G_dp-NX-Scan-d89-09-n800
 OpenBabel11261920193D

 16 16  0  0  1  0  0  0  0  0999 V2000
   -1.4621   -0.1298    0.1123 C   0  0  0  0  0  0  0  0  0  0  0  0
   -2.7178   -0.5350    0.0283 N   0  0  0  0  0  0  0  0  0  0  0  0
   -3.7825   -0.9277   -0.0678 N   0  0  0  0  0  0  0  0  0  0  0  0
   -1.1321    1.2810   -0.1805 C   0  0  2  0  0  0  0  0  0  0  0  0
    0.2736    1.4370   -0.5978 C   0  0  0  0  0  0  0  0  0  0  0  0
    1.1811    0.4809   -0.2960 C   0  0  0  0  0  0  0  0  0  0  0  0
    2.5948    0.7220   -0.6568 N   0  0  0  0  0  0  0  0  0  0  0  0
    2.8700    1.7609   -1.2511 O   0  0  0  0  0  0  0  0  0  0  0  0
    3.4068   -0.1438   -0.3346 O   0  0  0  0  0  0  0  0  0  0  0  0
    0.8554   -0.7719    0.3320 C   0  0  0  0  0  0  0  0  0  0  0  0
   -0.4538   -1.0816    0.5089 C   0  0  0  0  0  0  0  0  0  0  0  0
   -1.8471    1.7763   -0.8322 H   0  0  0  0  0  0  0  0  0  0  0  0
    0.5833    2.3553   -1.0793 H   0  0  0  0  0  0  0  0  0  0  0  0
    1.6518   -1.4492    0.6059 H   0  0  0  0  0  0  0  0  0  0  0  0
   -0.7609   -2.0379    0.9178 H   0  0  0  0  0  0  0  0  0  0  0  0
   -1.3135    2.4417    1.4207 Cl  0  0  0  0  0  0  0  0  0  0  0  0
  1 11  2  0  0  0  0
  2  1  1  0  0  0  0
  3  2  1  0  0  0  0
  4 12  1  6  0  0  0
  4  1  1  0  0  0  0
  4 16  1  0  0  0  0
  5  6  2  0  0  0  0
  5  4  1  0  0  0  0
  6 10  1  0  0  0  0
  7  9  2  0  0  0  0
  7  6  1  0  0  0  0
  8  7  2  0  0  0  0
 10 11  1  0  0  0  0
 10 14  1  0  0  0  0
 11 15  1  0  0  0  0
 13  5  1  0  0  0  0
M  RAD  3   2   2   3   3  10   2
M  END
