Coordinates from ORCA-job 4-NO2PhN2+~Cl-_B3LYPG-6-31G_dp-NX-Scan-d89-09-n800
 OpenBabel11261920193D

 16 16  0  0  0  0  0  0  0  0999 V2000
   -1.2579    0.2296    0.5592 C   0  0  0  0  0  0  0  0  0  0  0  0
   -2.5485    0.1350    1.1978 N   0  0  0  0  0  0  0  0  0  0  0  0
   -3.5821    0.0947    0.4461 N   0  0  0  0  0  0  0  0  0  0  0  0
   -0.6775    1.4888    0.3415 C   0  0  0  0  0  0  0  0  0  0  0  0
    0.6230    1.5846   -0.1411 C   0  0  0  0  0  0  0  0  0  0  0  0
    1.3352    0.4128   -0.3934 C   0  0  0  0  0  0  0  0  0  0  0  0
    2.7081    0.5096   -0.9064 N   0  0  0  0  0  0  0  0  0  0  0  0
    3.1694    1.6354   -1.0939 O   0  0  0  0  0  0  0  0  0  0  0  0
    3.3134   -0.5406   -1.1200 O   0  0  0  0  0  0  0  0  0  0  0  0
    0.7848   -0.8483   -0.1673 C   0  0  0  0  0  0  0  0  0  0  0  0
   -0.5160   -0.9363    0.3163 C   0  0  0  0  0  0  0  0  0  0  0  0
   -1.2458    2.3862    0.5642 H   0  0  0  0  0  0  0  0  0  0  0  0
    1.0936    2.5428   -0.3228 H   0  0  0  0  0  0  0  0  0  0  0  0
    1.3780   -1.7314   -0.3692 H   0  0  0  0  0  0  0  0  0  0  0  0
   -0.9601   -1.9055    0.5196 H   0  0  0  0  0  0  0  0  0  0  0  0
   -3.6706    0.1211   -0.8009 Cl  0  0  0  0  0  0  0  0  0  0  0  0
  1  2  1  0  0  0  0
  3  2  2  0  0  0  0
  4  1  1  0  0  0  0
  4 12  1  0  0  0  0
  5  4  2  0  0  0  0
  6 10  2  0  0  0  0
  6  5  1  0  0  0  0
  7  6  1  0  0  0  0
  8  7  2  0  0  0  0
  9  7  2  0  0  0  0
 10 11  1  0  0  0  0
 11 15  1  0  0  0  0
 11  1  2  0  0  0  0
 13  5  1  0  0  0  0
 14 10  1  0  0  0  0
 16  3  1  0  0  0  0
M  END
