Coordinates from ORCA-job 4-NO2PhN2+~Cl-_B3LYPG-6-31G_dp-NX-Scan-d89-09-n800
 OpenBabel11261920193D

 16 15  0  0  0  0  0  0  0  0999 V2000
   -1.5038   -0.4067    0.0043 C   0  0  0  0  0  0  0  0  0  0  0  0
   -2.7861   -0.8685    0.0424 N   0  0  0  0  0  0  0  0  0  0  0  0
   -3.8184   -1.3246    0.0842 N   0  0  0  0  0  0  0  0  0  0  0  0
   -1.2371    0.9712   -0.2038 C   0  0  0  0  0  0  0  0  0  0  0  0
    0.0889    1.3714   -0.3229 C   0  0  0  0  0  0  0  0  0  0  0  0
    1.0904    0.4061   -0.1903 C   0  0  0  0  0  0  0  0  0  0  0  0
    2.4972    0.8056   -0.3748 N   0  0  0  0  0  0  0  0  0  0  0  0
    2.7069    1.9329   -0.8022 O   0  0  0  0  0  0  0  0  0  0  0  0
    3.3550   -0.0327   -0.0860 O   0  0  0  0  0  0  0  0  0  0  0  0
    0.8303   -0.9427    0.0940 C   0  0  0  0  0  0  0  0  0  0  0  0
   -0.4753   -1.3754    0.1756 C   0  0  0  0  0  0  0  0  0  0  0  0
   -2.0333    1.7060   -0.2631 H   0  0  0  0  0  0  0  0  0  0  0  0
    0.3147    2.4396   -0.4555 H   0  0  0  0  0  0  0  0  0  0  0  0
    1.6614   -1.6249    0.2207 H   0  0  0  0  0  0  0  0  0  0  0  0
   -0.7236   -2.4138    0.3609 H   0  0  0  0  0  0  0  0  0  0  0  0
   -0.0202    4.5348    0.3464 Cl  0  0  0  0  0  0  0  0  0  0  0  0
  1  2  1  0  0  0  0
  1 11  2  0  0  0  0
  2  3  1  0  0  0  0
  4  1  1  0  0  0  0
  5  4  2  0  0  0  0
  5  6  1  0  0  0  0
  6 10  2  0  0  0  0
  7  6  1  0  0  0  0
  7  9  2  0  0  0  0
  8  7  2  0  0  0  0
 10 11  1  0  0  0  0
 10 14  1  0  0  0  0
 11 15  1  0  0  0  0
 12  4  1  0  0  0  0
 13  5  1  0  0  0  0
M  RAD  3   2   2   3   3  16   2
M  END
