Coordinates from ORCA-job 4-NO2PhN2+~Cl-_B3LYPG-6-31G_dp-NX-Scan-d89-09-n800
 OpenBabel11261920193D

 16 15  0  0  0  0  0  0  0  0999 V2000
   -1.4825   -0.1711    0.0773 C   0  0  0  0  0  0  0  0  0  0  0  0
   -2.7460   -0.6366   -0.0172 N   0  0  0  0  0  0  0  0  0  0  0  0
   -3.7483   -1.1508   -0.1408 N   0  0  0  0  0  0  0  0  0  0  0  0
   -1.1535    1.1606   -0.3204 C   0  0  0  0  0  0  0  0  0  0  0  0
    0.2154    1.4082   -0.6000 C   0  0  0  0  0  0  0  0  0  0  0  0
    1.1532    0.4500   -0.3071 C   0  0  0  0  0  0  0  0  0  0  0  0
    2.5652    0.7352   -0.5982 N   0  0  0  0  0  0  0  0  0  0  0  0
    2.8309    1.7942   -1.1608 O   0  0  0  0  0  0  0  0  0  0  0  0
    3.3867   -0.1221   -0.2714 O   0  0  0  0  0  0  0  0  0  0  0  0
    0.8298   -0.8012    0.2877 C   0  0  0  0  0  0  0  0  0  0  0  0
   -0.4803   -1.1268    0.4756 C   0  0  0  0  0  0  0  0  0  0  0  0
   -1.9199    1.8297   -0.6838 H   0  0  0  0  0  0  0  0  0  0  0  0
    0.5170    2.3613   -1.0112 H   0  0  0  0  0  0  0  0  0  0  0  0
    1.6294   -1.4776    0.5587 H   0  0  0  0  0  0  0  0  0  0  0  0
   -0.7813   -2.0838    0.8848 H   0  0  0  0  0  0  0  0  0  0  0  0
   -0.8690    3.0093    1.4564 Cl  0  0  0  0  0  0  0  0  0  0  0  0
  1 11  2  0  0  0  0
  2  1  1  0  0  0  0
  3  2  1  0  0  0  0
  4  1  1  0  0  0  0
  5  4  2  0  0  0  0
  5  6  1  0  0  0  0
  6 10  2  0  0  0  0
  7  6  1  0  0  0  0
  7  9  2  0  0  0  0
  8  7  2  0  0  0  0
 10 11  1  0  0  0  0
 10 14  1  0  0  0  0
 11 15  1  0  0  0  0
 12  4  1  0  0  0  0
 13  5  1  0  0  0  0
M  RAD  3   2   2   3   3  16   2
M  END
