Coordinates from ORCA-job 4-NO2PhN2+~Cl-_B3LYPG-6-31G_dp-NX-Scan-d89-09-n800
 OpenBabel11261920193D

 16 16  0  0  1  0  0  0  0  0999 V2000
   -1.4178   -0.2557    0.0270 C   0  0  0  0  0  0  0  0  0  0  0  0
   -2.6755   -0.4060    0.3992 N   0  0  0  0  0  0  0  0  0  0  0  0
   -3.7229   -0.1370    0.7509 N   0  0  0  0  0  0  0  0  0  0  0  0
   -1.1524    1.1538   -0.3800 C   0  0  2  0  0  0  0  0  0  0  0  0
    0.2899    1.4152   -0.5503 C   0  0  0  0  0  0  0  0  0  0  0  0
    1.2064    0.4550   -0.2910 C   0  0  0  0  0  0  0  0  0  0  0  0
    2.6360    0.7964   -0.4991 N   0  0  0  0  0  0  0  0  0  0  0  0
    2.9096    1.9278   -0.8893 O   0  0  0  0  0  0  0  0  0  0  0  0
    3.4579   -0.0867   -0.2629 O   0  0  0  0  0  0  0  0  0  0  0  0
    0.9043   -0.8824    0.1467 C   0  0  0  0  0  0  0  0  0  0  0  0
   -0.4016   -1.2204    0.3086 C   0  0  0  0  0  0  0  0  0  0  0  0
   -1.7474    1.5000   -1.2254 H   0  0  0  0  0  0  0  0  0  0  0  0
    0.6073    2.3881   -0.9022 H   0  0  0  0  0  0  0  0  0  0  0  0
    1.7133   -1.5693    0.3471 H   0  0  0  0  0  0  0  0  0  0  0  0
   -0.6941   -2.2001    0.6704 H   0  0  0  0  0  0  0  0  0  0  0  0
   -1.9661    2.2997    0.9799 Cl  0  0  0  0  0  0  0  0  0  0  0  0
  1 11  2  0  0  0  0
  1  2  1  0  0  0  0
  2  3  1  0  0  0  0
  4 12  1  6  0  0  0
  4  1  1  0  0  0  0
  4 16  1  0  0  0  0
  5  4  1  0  0  0  0
  5  6  2  0  0  0  0
  6 10  1  0  0  0  0
  7  6  1  0  0  0  0
  7  9  2  0  0  0  0
  8  7  2  0  0  0  0
 10 11  1  0  0  0  0
 10 14  1  0  0  0  0
 11 15  1  0  0  0  0
 13  5  1  0  0  0  0
M  RAD  3   2   2   3   3  10   2
M  END
