Coordinates from ORCA-job 4-NO2PhN2+~Cl-_B3LYPG-6-31G_dp-NX-Scan-d89-09-n800
 OpenBabel11261920193D

 16 15  0  0  0  0  0  0  0  0999 V2000
   -1.4849   -0.3257    0.0187 C   0  0  0  0  0  0  0  0  0  0  0  0
   -2.7717   -0.7760    0.0387 N   0  0  0  0  0  0  0  0  0  0  0  0
   -3.7931   -1.2557    0.0497 N   0  0  0  0  0  0  0  0  0  0  0  0
   -1.1861    1.0302   -0.2705 C   0  0  0  0  0  0  0  0  0  0  0  0
    0.1559    1.3758   -0.4191 C   0  0  0  0  0  0  0  0  0  0  0  0
    1.1308    0.3984   -0.2329 C   0  0  0  0  0  0  0  0  0  0  0  0
    2.5437    0.7528   -0.4457 N   0  0  0  0  0  0  0  0  0  0  0  0
    2.7838    1.8705   -0.8869 O   0  0  0  0  0  0  0  0  0  0  0  0
    3.3814   -0.1099   -0.1737 O   0  0  0  0  0  0  0  0  0  0  0  0
    0.8351   -0.9237    0.1427 C   0  0  0  0  0  0  0  0  0  0  0  0
   -0.4789   -1.3100    0.2592 C   0  0  0  0  0  0  0  0  0  0  0  0
   -1.9505    1.7924   -0.3783 H   0  0  0  0  0  0  0  0  0  0  0  0
    0.4105    2.4142   -0.6206 H   0  0  0  0  0  0  0  0  0  0  0  0
    1.6473   -1.6188    0.3137 H   0  0  0  0  0  0  0  0  0  0  0  0
   -0.7569   -2.3243    0.5199 H   0  0  0  0  0  0  0  0  0  0  0  0
   -0.5197    4.1881    0.7148 Cl  0  0  0  0  0  0  0  0  0  0  0  0
  1  2  1  0  0  0  0
  1 11  2  0  0  0  0
  2  3  1  0  0  0  0
  4  1  1  0  0  0  0
  5  4  2  0  0  0  0
  5  6  1  0  0  0  0
  6 10  2  0  0  0  0
  7  6  1  0  0  0  0
  7  9  2  0  0  0  0
  8  7  2  0  0  0  0
 10 11  1  0  0  0  0
 10 14  1  0  0  0  0
 11 15  1  0  0  0  0
 12  4  1  0  0  0  0
 13  5  1  0  0  0  0
M  RAD  3   2   2   3   3  16   2
M  END
