Coordinates from ORCA-job 4-NO2PhN2+~Cl-_B3LYPG-6-31G_dp-NX-Scan-d89-09-n800
 OpenBabel11261920193D

 16 15  0  0  0  0  0  0  0  0999 V2000
   -1.5042   -0.4074    0.0042 C   0  0  0  0  0  0  0  0  0  0  0  0
   -2.7862   -0.8702    0.0417 N   0  0  0  0  0  0  0  0  0  0  0  0
   -3.8180   -1.3271    0.0831 N   0  0  0  0  0  0  0  0  0  0  0  0
   -1.2381    0.9708   -0.2028 C   0  0  0  0  0  0  0  0  0  0  0  0
    0.0878    1.3716   -0.3214 C   0  0  0  0  0  0  0  0  0  0  0  0
    1.0896    0.4065   -0.1892 C   0  0  0  0  0  0  0  0  0  0  0  0
    2.4964    0.8065   -0.3733 N   0  0  0  0  0  0  0  0  0  0  0  0
    2.7056    1.9331   -0.8031 O   0  0  0  0  0  0  0  0  0  0  0  0
    3.3544   -0.0322   -0.0864 O   0  0  0  0  0  0  0  0  0  0  0  0
    0.8300   -0.9426    0.0941 C   0  0  0  0  0  0  0  0  0  0  0  0
   -0.4753   -1.3758    0.1751 C   0  0  0  0  0  0  0  0  0  0  0  0
   -2.0346    1.7050   -0.2618 H   0  0  0  0  0  0  0  0  0  0  0  0
    0.3140    2.4398   -0.4535 H   0  0  0  0  0  0  0  0  0  0  0  0
    1.6614   -1.6246    0.2206 H   0  0  0  0  0  0  0  0  0  0  0  0
   -0.7233   -2.4145    0.3594 H   0  0  0  0  0  0  0  0  0  0  0  0
   -0.0126    4.5395    0.3429 Cl  0  0  0  0  0  0  0  0  0  0  0  0
  1  2  1  0  0  0  0
  1 11  2  0  0  0  0
  2  3  1  0  0  0  0
  4  1  1  0  0  0  0
  5  4  2  0  0  0  0
  5  6  1  0  0  0  0
  6 10  2  0  0  0  0
  7  6  1  0  0  0  0
  7  9  2  0  0  0  0
  8  7  2  0  0  0  0
 10 11  1  0  0  0  0
 10 14  1  0  0  0  0
 11 15  1  0  0  0  0
 12  4  1  0  0  0  0
 13  5  1  0  0  0  0
M  RAD  3   2   2   3   3  16   2
M  END
