Coordinates from ORCA-job 4-NO2PhN2+~Cl-_B3LYPG-6-31G_dp-NX-Scan-d89-09-n800
 OpenBabel11261920193D

 16 15  0  0  0  0  0  0  0  0999 V2000
   -1.5563   -0.4945   -0.0212 C   0  0  0  0  0  0  0  0  0  0  0  0
   -2.8218   -0.9976    0.0169 N   0  0  0  0  0  0  0  0  0  0  0  0
   -3.8377   -1.4984    0.0560 N   0  0  0  0  0  0  0  0  0  0  0  0
   -1.3234    0.9031   -0.1418 C   0  0  0  0  0  0  0  0  0  0  0  0
   -0.0108    1.3588   -0.1761 C   0  0  0  0  0  0  0  0  0  0  0  0
    1.0229    0.4150   -0.0907 C   0  0  0  0  0  0  0  0  0  0  0  0
    2.4255    0.8678   -0.1248 N   0  0  0  0  0  0  0  0  0  0  0  0
    2.6216    2.0708   -0.2244 O   0  0  0  0  0  0  0  0  0  0  0  0
    3.2918   -0.0091   -0.0493 O   0  0  0  0  0  0  0  0  0  0  0  0
    0.7950   -0.9627    0.0285 C   0  0  0  0  0  0  0  0  0  0  0  0
   -0.4980   -1.4385    0.0654 C   0  0  0  0  0  0  0  0  0  0  0  0
   -2.1537    1.5973   -0.2057 H   0  0  0  0  0  0  0  0  0  0  0  0
    0.2199    2.4262   -0.2675 H   0  0  0  0  0  0  0  0  0  0  0  0
    1.6454   -1.6298    0.0903 H   0  0  0  0  0  0  0  0  0  0  0  0
   -0.7131   -2.4969    0.1584 H   0  0  0  0  0  0  0  0  0  0  0  0
    0.8395    5.0668   -0.4844 Cl  0  0  0  0  0  0  0  0  0  0  0  0
  1  2  1  0  0  0  0
  1 11  2  0  0  0  0
  2  3  1  0  0  0  0
  4  1  1  0  0  0  0
  5  4  2  0  0  0  0
  5  6  1  0  0  0  0
  6 10  2  0  0  0  0
  7  6  1  0  0  0  0
  7  9  2  0  0  0  0
  8  7  2  0  0  0  0
 10 11  1  0  0  0  0
 10 14  1  0  0  0  0
 11 15  1  0  0  0  0
 12  4  1  0  0  0  0
 13  5  1  0  0  0  0
M  RAD  3   2   2   3   3  16   2
M  END
