Coordinates from ORCA-job 4-NO2PhN2+~Cl-_B3LYPG-6-31G_dp-NX-Scan-d89-09-n800
 OpenBabel11261920183D

 16 15  0  0  0  0  0  0  0  0999 V2000
   -1.5666   -0.5310   -0.0176 C   0  0  0  0  0  0  0  0  0  0  0  0
   -2.8272   -1.0414    0.0212 N   0  0  0  0  0  0  0  0  0  0  0  0
   -3.8454   -1.5392    0.0597 N   0  0  0  0  0  0  0  0  0  0  0  0
   -1.3497    0.8692   -0.1397 C   0  0  0  0  0  0  0  0  0  0  0  0
   -0.0432    1.3372   -0.1748 C   0  0  0  0  0  0  0  0  0  0  0  0
    1.0041    0.4087   -0.0900 C   0  0  0  0  0  0  0  0  0  0  0  0
    2.3975    0.8836   -0.1258 N   0  0  0  0  0  0  0  0  0  0  0  0
    2.5730    2.0913   -0.2183 O   0  0  0  0  0  0  0  0  0  0  0  0
    3.2782    0.0208   -0.0590 O   0  0  0  0  0  0  0  0  0  0  0  0
    0.7918   -0.9714    0.0296 C   0  0  0  0  0  0  0  0  0  0  0  0
   -0.4961   -1.4615    0.0682 C   0  0  0  0  0  0  0  0  0  0  0  0
   -2.1889    1.5523   -0.2041 H   0  0  0  0  0  0  0  0  0  0  0  0
    0.1803    2.4016   -0.2677 H   0  0  0  0  0  0  0  0  0  0  0  0
    1.6497   -1.6290    0.0905 H   0  0  0  0  0  0  0  0  0  0  0  0
   -0.6985   -2.5224    0.1620 H   0  0  0  0  0  0  0  0  0  0  0  0
    1.0880    5.3096   -0.5044 Cl  0  0  0  0  0  0  0  0  0  0  0  0
  1  2  1  0  0  0  0
  1 11  2  0  0  0  0
  2  3  1  0  0  0  0
  4  1  1  0  0  0  0
  5  4  2  0  0  0  0
  5  6  1  0  0  0  0
  6 10  2  0  0  0  0
  7  6  1  0  0  0  0
  7  9  2  0  0  0  0
  8  7  2  0  0  0  0
 10 11  1  0  0  0  0
 10 14  1  0  0  0  0
 11 15  1  0  0  0  0
 12  4  1  0  0  0  0
 13  5  1  0  0  0  0
M  RAD  3   2   2   3   3  16   2
M  END
