Coordinates from ORCA-job 4-NO2PhN2+~Cl-_B3LYPG-6-31G_dp-NX-Scan-d89-09-n800
 OpenBabel11261920193D

 16 15  0  0  0  0  0  0  0  0999 V2000
   -1.4831   -0.3006    0.0230 C   0  0  0  0  0  0  0  0  0  0  0  0
   -2.7689   -0.7517    0.0292 N   0  0  0  0  0  0  0  0  0  0  0  0
   -3.7867   -1.2390    0.0188 N   0  0  0  0  0  0  0  0  0  0  0  0
   -1.1799    1.0465   -0.3009 C   0  0  0  0  0  0  0  0  0  0  0  0
    0.1660    1.3797   -0.4616 C   0  0  0  0  0  0  0  0  0  0  0  0
    1.1358    0.4050   -0.2487 C   0  0  0  0  0  0  0  0  0  0  0  0
    2.5484    0.7484   -0.4727 N   0  0  0  0  0  0  0  0  0  0  0  0
    2.7932    1.8555   -0.9392 O   0  0  0  0  0  0  0  0  0  0  0  0
    3.3837   -0.1116   -0.1857 O   0  0  0  0  0  0  0  0  0  0  0  0
    0.8343   -0.9046    0.1698 C   0  0  0  0  0  0  0  0  0  0  0  0
   -0.4799   -1.2813    0.2985 C   0  0  0  0  0  0  0  0  0  0  0  0
   -1.9430    1.8041   -0.4386 H   0  0  0  0  0  0  0  0  0  0  0  0
    0.4327    2.4023   -0.7055 H   0  0  0  0  0  0  0  0  0  0  0  0
    1.6439   -1.5966    0.3636 H   0  0  0  0  0  0  0  0  0  0  0  0
   -0.7629   -2.2853    0.5913 H   0  0  0  0  0  0  0  0  0  0  0  0
   -0.5868    4.0076    0.8884 Cl  0  0  0  0  0  0  0  0  0  0  0  0
  1  2  1  0  0  0  0
  1 11  2  0  0  0  0
  3  2  1  0  0  0  0
  4  1  1  0  0  0  0
  5  4  2  0  0  0  0
  5  6  1  0  0  0  0
  6 10  2  0  0  0  0
  7  6  1  0  0  0  0
  7  9  2  0  0  0  0
  8  7  2  0  0  0  0
 10 11  1  0  0  0  0
 10 14  1  0  0  0  0
 11 15  1  0  0  0  0
 12  4  1  0  0  0  0
 13  5  1  0  0  0  0
M  RAD  3   2   2   3   3  16   2
M  END
