Coordinates from ORCA-job 4-NO2PhN2+~Cl-_B3LYPG-6-31G_dp-NX-Scan-d89-09-n800
 OpenBabel11261920193D

 16 16  0  0  0  0  0  0  0  0999 V2000
   -1.2312    0.0433    0.5044 C   0  0  0  0  0  0  0  0  0  0  0  0
   -2.5203   -0.1883    1.0482 N   0  0  0  0  0  0  0  0  0  0  0  0
   -3.6170    0.1791    0.7387 N   0  0  0  0  0  0  0  0  0  0  0  0
   -0.7752    1.3355    0.2099 C   0  0  0  0  0  0  0  0  0  0  0  0
    0.5308    1.5008   -0.2387 C   0  0  0  0  0  0  0  0  0  0  0  0
    1.3408    0.3771   -0.3919 C   0  0  0  0  0  0  0  0  0  0  0  0
    2.7216    0.5582   -0.8791 N   0  0  0  0  0  0  0  0  0  0  0  0
    3.0877    1.7044   -1.1287 O   0  0  0  0  0  0  0  0  0  0  0  0
    3.4143   -0.4495   -1.0027 O   0  0  0  0  0  0  0  0  0  0  0  0
    0.8999   -0.9101   -0.0901 C   0  0  0  0  0  0  0  0  0  0  0  0
   -0.3948   -1.0738    0.3879 C   0  0  0  0  0  0  0  0  0  0  0  0
   -1.4283    2.1892    0.3345 H   0  0  0  0  0  0  0  0  0  0  0  0
    0.9268    2.4797   -0.4770 H   0  0  0  0  0  0  0  0  0  0  0  0
    1.5719   -1.7493   -0.2166 H   0  0  0  0  0  0  0  0  0  0  0  0
   -0.7706   -2.0532    0.6613 H   0  0  0  0  0  0  0  0  0  0  0  0
   -3.8097    1.2353   -0.8303 Cl  0  0  0  0  0  0  0  0  0  0  0  0
  1  2  1  0  0  0  0
  3  2  2  0  0  0  0
  4 12  1  0  0  0  0
  4  1  2  0  0  0  0
  5  4  1  0  0  0  0
  6  5  2  0  0  0  0
  6 10  1  0  0  0  0
  7  6  1  0  0  0  0
  8  7  2  0  0  0  0
  9  7  2  0  0  0  0
 10 11  2  0  0  0  0
 11  1  1  0  0  0  0
 11 15  1  0  0  0  0
 13  5  1  0  0  0  0
 14 10  1  0  0  0  0
 16  3  1  0  0  0  0
M  END
