Coordinates from ORCA-job 4-NO2PhN2+~Cl-_B3LYPG-6-31G_dp-NX-Scan-d89-09-n800
 OpenBabel11261920193D

 16 15  0  0  0  0  0  0  0  0999 V2000
   -1.5510   -0.5189   -0.0222 C   0  0  0  0  0  0  0  0  0  0  0  0
   -2.8027   -1.0292    0.0582 N   0  0  0  0  0  0  0  0  0  0  0  0
   -3.8462   -1.4587    0.1297 N   0  0  0  0  0  0  0  0  0  0  0  0
   -1.3899    0.8671   -0.2937 C   0  0  0  0  0  0  0  0  0  0  0  0
   -0.1078    1.3670   -0.4077 C   0  0  0  0  0  0  0  0  0  0  0  0
    0.9758    0.4929   -0.2235 C   0  0  0  0  0  0  0  0  0  0  0  0
    2.3183    1.0237   -0.3551 N   0  0  0  0  0  0  0  0  0  0  0  0
    2.4138    2.0988   -0.9541 O   0  0  0  0  0  0  0  0  0  0  0  0
    3.2461    0.3734    0.1455 O   0  0  0  0  0  0  0  0  0  0  0  0
    0.8181   -0.8640    0.0978 C   0  0  0  0  0  0  0  0  0  0  0  0
   -0.4507   -1.3955    0.1835 C   0  0  0  0  0  0  0  0  0  0  0  0
   -2.2573    1.5096   -0.3945 H   0  0  0  0  0  0  0  0  0  0  0  0
    0.0924    2.4277   -0.5633 H   0  0  0  0  0  0  0  0  0  0  0  0
    1.7019   -1.4676    0.2638 H   0  0  0  0  0  0  0  0  0  0  0  0
   -0.6186   -2.4435    0.4030 H   0  0  0  0  0  0  0  0  0  0  0  0
    1.4047    4.1956    0.5625 Cl  0  0  0  0  0  0  0  0  0  0  0  0
  1  2  1  0  0  0  0
  1 11  2  0  0  0  0
  2  3  1  0  0  0  0
  4  1  1  0  0  0  0
  5  4  2  0  0  0  0
  5  6  1  0  0  0  0
  6 10  2  0  0  0  0
  7  6  1  0  0  0  0
  7  9  2  0  0  0  0
  8  7  2  0  0  0  0
 10 11  1  0  0  0  0
 10 14  1  0  0  0  0
 11 15  1  0  0  0  0
 12  4  1  0  0  0  0
 13  5  1  0  0  0  0
M  RAD  3   2   2   3   3  16   2
M  END
