Coordinates from ORCA-job 4-NO2PhN2+~Cl-_B3LYPG-6-31G_dp-NX-Scan-d89-09-n800
 OpenBabel11261920193D

 16 15  0  0  0  0  0  0  0  0999 V2000
   -1.5009   -0.3983    0.0052 C   0  0  0  0  0  0  0  0  0  0  0  0
   -2.7843   -0.8572    0.0421 N   0  0  0  0  0  0  0  0  0  0  0  0
   -3.8163   -1.3132    0.0816 N   0  0  0  0  0  0  0  0  0  0  0  0
   -1.2301    0.9772   -0.2113 C   0  0  0  0  0  0  0  0  0  0  0  0
    0.0976    1.3713   -0.3330 C   0  0  0  0  0  0  0  0  0  0  0  0
    1.0960    0.4043   -0.1943 C   0  0  0  0  0  0  0  0  0  0  0  0
    2.5038    0.7985   -0.3820 N   0  0  0  0  0  0  0  0  0  0  0  0
    2.7171    1.9248   -0.8108 O   0  0  0  0  0  0  0  0  0  0  0  0
    3.3591   -0.0442   -0.0994 O   0  0  0  0  0  0  0  0  0  0  0  0
    0.8314   -0.9419    0.0995 C   0  0  0  0  0  0  0  0  0  0  0  0
   -0.4754   -1.3694    0.1842 C   0  0  0  0  0  0  0  0  0  0  0  0
   -2.0224    1.7158   -0.2752 H   0  0  0  0  0  0  0  0  0  0  0  0
    0.3246    2.4374   -0.4703 H   0  0  0  0  0  0  0  0  0  0  0  0
    1.6602   -1.6261    0.2311 H   0  0  0  0  0  0  0  0  0  0  0  0
   -0.7274   -2.4055    0.3773 H   0  0  0  0  0  0  0  0  0  0  0  0
   -0.0861    4.5045    0.3848 Cl  0  0  0  0  0  0  0  0  0  0  0  0
  1  2  1  0  0  0  0
  1 11  2  0  0  0  0
  2  3  1  0  0  0  0
  4  1  1  0  0  0  0
  5  4  2  0  0  0  0
  5  6  1  0  0  0  0
  6 10  2  0  0  0  0
  7  6  1  0  0  0  0
  7  9  2  0  0  0  0
  8  7  2  0  0  0  0
 10 11  1  0  0  0  0
 10 14  1  0  0  0  0
 11 15  1  0  0  0  0
 12  4  1  0  0  0  0
 13  5  1  0  0  0  0
M  RAD  3   2   2   3   3  16   2
M  END
