Coordinates from ORCA-job 4-NO2PhN2+~Cl-_B3LYPG-6-31G_dp-NX-Scan-d89-09-n800
 OpenBabel11261920193D

 16 15  0  0  0  0  0  0  0  0999 V2000
   -1.2235   -0.1570    0.2817 C   0  0  0  0  0  0  0  0  0  0  0  0
   -2.5621   -0.4348    0.6247 N   0  0  0  0  0  0  0  0  0  0  0  0
   -3.6375   -0.0802    0.7625 N   0  0  0  0  0  0  0  0  0  0  0  0
   -0.8963    1.1492   -0.1032 C   0  0  0  0  0  0  0  0  0  0  0  0
    0.4328    1.3969   -0.4379 C   0  0  0  0  0  0  0  0  0  0  0  0
    1.3540    0.3535   -0.3745 C   0  0  0  0  0  0  0  0  0  0  0  0
    2.7664    0.6311   -0.7328 N   0  0  0  0  0  0  0  0  0  0  0  0
    3.0444    1.7770   -1.0691 O   0  0  0  0  0  0  0  0  0  0  0  0
    3.5553   -0.3074   -0.6666 O   0  0  0  0  0  0  0  0  0  0  0  0
    1.0162   -0.9450    0.0106 C   0  0  0  0  0  0  0  0  0  0  0  0
   -0.3039   -1.2108    0.3475 C   0  0  0  0  0  0  0  0  0  0  0  0
   -1.6789    1.9150   -0.1268 H   0  0  0  0  0  0  0  0  0  0  0  0
    0.7588    2.3827   -0.7455 H   0  0  0  0  0  0  0  0  0  0  0  0
    1.7800   -1.7111    0.0393 H   0  0  0  0  0  0  0  0  0  0  0  0
   -0.6226   -2.2004    0.6546 H   0  0  0  0  0  0  0  0  0  0  0  0
   -3.8361    2.6198    0.1652 Cl  0  0  0  0  0  0  0  0  0  0  0  0
  1 11  1  0  0  0  0
  1  2  1  0  0  0  0
  2  3  2  0  0  0  0
  4  1  2  0  0  0  0
  5  6  2  0  0  0  0
  5  4  1  0  0  0  0
  6 10  1  0  0  0  0
  7  9  2  0  0  0  0
  7  6  1  0  0  0  0
  8  7  2  0  0  0  0
 10 14  1  0  0  0  0
 10 11  2  0  0  0  0
 11 15  1  0  0  0  0
 12  4  1  0  0  0  0
 13  5  1  0  0  0  0
M  RAD  2   3   2  16   2
M  END
