Coordinates from ORCA-job 4-NO2PhN2+~Cl-_B3LYPG-6-31G_dp-NX-Scan-d89-09-n800
 OpenBabel11261920193D

 16 16  0  0  0  0  0  0  0  0999 V2000
   -1.2300    0.0299    0.4907 C   0  0  0  0  0  0  0  0  0  0  0  0
   -2.5214   -0.2123    1.0212 N   0  0  0  0  0  0  0  0  0  0  0  0
   -3.6191    0.1690    0.7546 N   0  0  0  0  0  0  0  0  0  0  0  0
   -0.7825    1.3236    0.1891 C   0  0  0  0  0  0  0  0  0  0  0  0
    0.5255    1.4935   -0.2523 C   0  0  0  0  0  0  0  0  0  0  0  0
    1.3440    0.3742   -0.3914 C   0  0  0  0  0  0  0  0  0  0  0  0
    2.7274    0.5614   -0.8707 N   0  0  0  0  0  0  0  0  0  0  0  0
    3.0867    1.7082   -1.1268 O   0  0  0  0  0  0  0  0  0  0  0  0
    3.4277   -0.4423   -0.9812 O   0  0  0  0  0  0  0  0  0  0  0  0
    0.9109   -0.9140   -0.0829 C   0  0  0  0  0  0  0  0  0  0  0  0
   -0.3857   -1.0828    0.3876 C   0  0  0  0  0  0  0  0  0  0  0  0
   -1.4432    2.1728    0.3013 H   0  0  0  0  0  0  0  0  0  0  0  0
    0.9164    2.4732   -0.4957 H   0  0  0  0  0  0  0  0  0  0  0  0
    1.5896   -1.7492   -0.1986 H   0  0  0  0  0  0  0  0  0  0  0  0
   -0.7574   -2.0624    0.6659 H   0  0  0  0  0  0  0  0  0  0  0  0
   -3.8418    1.3355   -0.7811 Cl  0  0  0  0  0  0  0  0  0  0  0  0
  1  2  1  0  0  0  0
  3  2  2  0  0  0  0
  4 12  1  0  0  0  0
  4  1  2  0  0  0  0
  5  4  1  0  0  0  0
  6  5  2  0  0  0  0
  6 10  1  0  0  0  0
  7  6  1  0  0  0  0
  8  7  2  0  0  0  0
  9  7  2  0  0  0  0
 10 11  2  0  0  0  0
 11  1  1  0  0  0  0
 11 15  1  0  0  0  0
 13  5  1  0  0  0  0
 14 10  1  0  0  0  0
 16  3  1  0  0  0  0
M  END
