Coordinates from ORCA-job 4-NO2PhN2+~Cl-_B3LYPG-6-31G_dp-NX-Scan-d89-09-n800
 OpenBabel11261920193D

 16 15  0  0  0  0  0  0  0  0999 V2000
   -1.4923   -0.1078    0.1470 C   0  0  0  0  0  0  0  0  0  0  0  0
   -2.7073   -0.6160   -0.0977 N   0  0  0  0  0  0  0  0  0  0  0  0
   -3.6599   -1.1887   -0.3495 N   0  0  0  0  0  0  0  0  0  0  0  0
   -1.1438    1.2708   -0.1709 C   0  0  0  0  0  0  0  0  0  0  0  0
    0.2334    1.4300   -0.5957 C   0  0  0  0  0  0  0  0  0  0  0  0
    1.1489    0.4692   -0.3040 C   0  0  0  0  0  0  0  0  0  0  0  0
    2.5541    0.6995   -0.6843 N   0  0  0  0  0  0  0  0  0  0  0  0
    2.8215    1.7230   -1.3084 O   0  0  0  0  0  0  0  0  0  0  0  0
    3.3686   -0.1618   -0.3538 O   0  0  0  0  0  0  0  0  0  0  0  0
    0.8235   -0.7592    0.3590 C   0  0  0  0  0  0  0  0  0  0  0  0
   -0.4846   -1.0607    0.5630 C   0  0  0  0  0  0  0  0  0  0  0  0
   -1.8966    1.8640   -0.6746 H   0  0  0  0  0  0  0  0  0  0  0  0
    0.5399    2.3515   -1.0728 H   0  0  0  0  0  0  0  0  0  0  0  0
    1.6197   -1.4328    0.6448 H   0  0  0  0  0  0  0  0  0  0  0  0
   -0.7920   -2.0074    0.9927 H   0  0  0  0  0  0  0  0  0  0  0  0
   -0.9860    2.7047    1.5350 Cl  0  0  0  0  0  0  0  0  0  0  0  0
  1 11  1  0  0  0  0
  2  1  1  0  0  0  0
  3  2  1  0  0  0  0
  4  1  2  0  0  0  0
  5  6  2  0  0  0  0
  5  4  1  0  0  0  0
  6 10  1  0  0  0  0
  7  9  2  0  0  0  0
  7  6  1  0  0  0  0
  8  7  2  0  0  0  0
 10 11  2  0  0  0  0
 10 14  1  0  0  0  0
 11 15  1  0  0  0  0
 12  4  1  0  0  0  0
 13  5  1  0  0  0  0
M  RAD  3   2   2   3   3  16   2
M  END
