Coordinates from ORCA-job 4-NO2PhN2+~Cl-_B3LYPG-6-31G_dp-NX-Scan-d89-09-n800
 OpenBabel11261920193D

 16 16  0  0  1  0  0  0  0  0999 V2000
   -1.4874   -0.0975    0.1616 C   0  0  2  0  0  0  0  0  0  0  0  0
   -2.6948   -0.5899   -0.1025 N   0  0  0  0  0  0  0  0  0  0  0  0
   -3.6656   -1.1318   -0.3601 N   0  0  0  0  0  0  0  0  0  0  0  0
   -1.1378    1.3074   -0.1183 C   0  0  2  0  0  0  0  0  0  0  0  0
    0.2462    1.4390   -0.5923 C   0  0  0  0  0  0  0  0  0  0  0  0
    1.1546    0.4794   -0.2975 C   0  0  0  0  0  0  0  0  0  0  0  0
    2.5572    0.6932   -0.7047 N   0  0  0  0  0  0  0  0  0  0  0  0
    2.8242    1.7068   -1.3451 O   0  0  0  0  0  0  0  0  0  0  0  0
    3.3704   -0.1688   -0.3742 O   0  0  0  0  0  0  0  0  0  0  0  0
    0.8305   -0.7476    0.3791 C   0  0  0  0  0  0  0  0  0  0  0  0
   -0.4772   -1.0483    0.5778 C   0  0  0  0  0  0  0  0  0  0  0  0
   -1.8790    1.8525   -0.6942 H   0  0  0  0  0  0  0  0  0  0  0  0
    0.5505    2.3466   -1.0974 H   0  0  0  0  0  0  0  0  0  0  0  0
    1.6272   -1.4188    0.6677 H   0  0  0  0  0  0  0  0  0  0  0  0
   -0.7845   -1.9958    1.0065 H   0  0  0  0  0  0  0  0  0  0  0  0
   -1.0874    2.5520    1.5233 Cl  0  0  0  0  0  0  0  0  0  0  0  0
  1  2  1  6  0  0  0
  1 11  1  0  0  0  0
  3  2  1  0  0  0  0
  4 12  1  6  0  0  0
  4  1  1  0  0  0  0
  4 16  1  0  0  0  0
  5  6  2  0  0  0  0
  5  4  1  0  0  0  0
  6 10  1  0  0  0  0
  7  9  2  0  0  0  0
  7  6  1  0  0  0  0
  8  7  2  0  0  0  0
 10 11  2  0  0  0  0
 10 14  1  0  0  0  0
 11 15  1  0  0  0  0
 13  5  1  0  0  0  0
M  RAD  3   1   2   2   2   3   3
M  END
