Coordinates from ORCA-job 4-NO2PhN2+~Cl-_B3LYPG-6-31G_dp-NX-Scan-d89-09-n800
 OpenBabel11261920193D

 16 15  0  0  0  0  0  0  0  0999 V2000
   -1.2432   -0.0904    0.2710 C   0  0  0  0  0  0  0  0  0  0  0  0
   -2.5736   -0.4006    0.6231 N   0  0  0  0  0  0  0  0  0  0  0  0
   -3.6454    0.0364    0.7410 N   0  0  0  0  0  0  0  0  0  0  0  0
   -0.8635    1.2018   -0.1209 C   0  0  0  0  0  0  0  0  0  0  0  0
    0.4712    1.4193   -0.4500 C   0  0  0  0  0  0  0  0  0  0  0  0
    1.3705    0.3572   -0.3790 C   0  0  0  0  0  0  0  0  0  0  0  0
    2.7879    0.6023   -0.7308 N   0  0  0  0  0  0  0  0  0  0  0  0
    3.0946    1.7415   -1.0690 O   0  0  0  0  0  0  0  0  0  0  0  0
    3.5575   -0.3520   -0.6592 O   0  0  0  0  0  0  0  0  0  0  0  0
    0.9961   -0.9282    0.0094 C   0  0  0  0  0  0  0  0  0  0  0  0
   -0.3335   -1.1548    0.3398 C   0  0  0  0  0  0  0  0  0  0  0  0
   -1.6062    1.9916   -0.1587 H   0  0  0  0  0  0  0  0  0  0  0  0
    0.8217    2.3958   -0.7596 H   0  0  0  0  0  0  0  0  0  0  0  0
    1.7380   -1.7153    0.0464 H   0  0  0  0  0  0  0  0  0  0  0  0
   -0.6778   -2.1349    0.6496 H   0  0  0  0  0  0  0  0  0  0  0  0
   -3.9475    2.2086    0.2768 Cl  0  0  0  0  0  0  0  0  0  0  0  0
  1 11  1  0  0  0  0
  1  2  1  0  0  0  0
  2  3  2  0  0  0  0
  4  1  2  0  0  0  0
  5  6  2  0  0  0  0
  5  4  1  0  0  0  0
  6 10  1  0  0  0  0
  7  9  2  0  0  0  0
  7  6  1  0  0  0  0
  8  7  2  0  0  0  0
 10 14  1  0  0  0  0
 10 11  2  0  0  0  0
 11 15  1  0  0  0  0
 12  4  1  0  0  0  0
 13  5  1  0  0  0  0
M  RAD  2   3   2  16   2
M  END
