Coordinates from ORCA-job 4-NO2PhN2+~Cl-_B3LYPG-6-31G_dp-NX-Scan-d89-09-n800
 OpenBabel11261920183D

 16 15  0  0  0  0  0  0  0  0999 V2000
   -1.5610   -0.5095   -0.0199 C   0  0  0  0  0  0  0  0  0  0  0  0
   -2.8242   -1.0163    0.0185 N   0  0  0  0  0  0  0  0  0  0  0  0
   -3.8403   -1.5176    0.0576 N   0  0  0  0  0  0  0  0  0  0  0  0
   -1.3347    0.8893   -0.1403 C   0  0  0  0  0  0  0  0  0  0  0  0
   -0.0246    1.3503   -0.1747 C   0  0  0  0  0  0  0  0  0  0  0  0
    1.0149    0.4128   -0.0901 C   0  0  0  0  0  0  0  0  0  0  0  0
    2.4137    0.8746   -0.1247 N   0  0  0  0  0  0  0  0  0  0  0  0
    2.6012    2.0796   -0.2221 O   0  0  0  0  0  0  0  0  0  0  0  0
    3.2860    0.0036   -0.0521 O   0  0  0  0  0  0  0  0  0  0  0  0
    0.7934   -0.9660    0.0285 C   0  0  0  0  0  0  0  0  0  0  0  0
   -0.4974   -1.4478    0.0658 C   0  0  0  0  0  0  0  0  0  0  0  0
   -2.1688    1.5789   -0.2037 H   0  0  0  0  0  0  0  0  0  0  0  0
    0.2037    2.4163   -0.2658 H   0  0  0  0  0  0  0  0  0  0  0  0
    1.6470   -1.6291    0.0896 H   0  0  0  0  0  0  0  0  0  0  0  0
   -0.7072   -2.5073    0.1585 H   0  0  0  0  0  0  0  0  0  0  0  0
    0.9450    5.1666   -0.4954 Cl  0  0  0  0  0  0  0  0  0  0  0  0
  1  2  1  0  0  0  0
  1 11  2  0  0  0  0
  2  3  1  0  0  0  0
  4  1  1  0  0  0  0
  5  4  2  0  0  0  0
  5  6  1  0  0  0  0
  6 10  2  0  0  0  0
  7  6  1  0  0  0  0
  7  9  2  0  0  0  0
  8  7  2  0  0  0  0
 10 11  1  0  0  0  0
 10 14  1  0  0  0  0
 11 15  1  0  0  0  0
 12  4  1  0  0  0  0
 13  5  1  0  0  0  0
M  RAD  3   2   2   3   3  16   2
M  END
