Coordinates from ORCA-job 4-NO2PhN2+~Cl-_B3LYPG-6-31G_dp-NX-Scan-d89-09-n800
 OpenBabel11261920193D

 16 16  0  0  1  0  0  0  0  0999 V2000
   -1.4175   -0.2582    0.0271 C   0  0  0  0  0  0  0  0  0  0  0  0
   -2.6747   -0.4069    0.4041 N   0  0  0  0  0  0  0  0  0  0  0  0
   -3.7171   -0.1224    0.7597 N   0  0  0  0  0  0  0  0  0  0  0  0
   -1.1532    1.1515   -0.3823 C   0  0  2  0  0  0  0  0  0  0  0  0
    0.2891    1.4144   -0.5491 C   0  0  0  0  0  0  0  0  0  0  0  0
    1.2061    0.4542   -0.2911 C   0  0  0  0  0  0  0  0  0  0  0  0
    2.6356    0.7972   -0.4976 N   0  0  0  0  0  0  0  0  0  0  0  0
    2.9087    1.9303   -0.8832 O   0  0  0  0  0  0  0  0  0  0  0  0
    3.4581   -0.0854   -0.2616 O   0  0  0  0  0  0  0  0  0  0  0  0
    0.9049   -0.8841    0.1439 C   0  0  0  0  0  0  0  0  0  0  0  0
   -0.4008   -1.2227    0.3062 C   0  0  0  0  0  0  0  0  0  0  0  0
   -1.7466    1.4957   -1.2295 H   0  0  0  0  0  0  0  0  0  0  0  0
    0.6064    2.3879   -0.8993 H   0  0  0  0  0  0  0  0  0  0  0  0
    1.7143   -1.5709    0.3428 H   0  0  0  0  0  0  0  0  0  0  0  0
   -0.6927   -2.2029    0.6670 H   0  0  0  0  0  0  0  0  0  0  0  0
   -1.9738    2.3007    0.9725 Cl  0  0  0  0  0  0  0  0  0  0  0  0
  1 11  2  0  0  0  0
  1  2  1  0  0  0  0
  2  3  1  0  0  0  0
  4 12  1  6  0  0  0
  4  1  1  0  0  0  0
  4 16  1  0  0  0  0
  5  4  1  0  0  0  0
  5  6  2  0  0  0  0
  6 10  1  0  0  0  0
  7  6  1  0  0  0  0
  7  9  2  0  0  0  0
  8  7  2  0  0  0  0
 10 11  1  0  0  0  0
 10 14  1  0  0  0  0
 11 15  1  0  0  0  0
 13  5  1  0  0  0  0
M  RAD  3   2   2   3   3  10   2
M  END
