Coordinates from ORCA-job 4-NO2PhN2+~Cl-_B3LYPG-6-31G_dp-NX-Scan-d89-09-n800
 OpenBabel11261920193D

 16 16  0  0  1  0  0  0  0  0999 V2000
   -1.4901   -0.0973    0.1628 C   0  0  2  0  0  0  0  0  0  0  0  0
   -2.6944   -0.5977   -0.1109 N   0  0  0  0  0  0  0  0  0  0  0  0
   -3.6552   -1.1527   -0.3785 N   0  0  0  0  0  0  0  0  0  0  0  0
   -1.1392    1.3030   -0.1229 C   0  0  2  0  0  0  0  0  0  0  0  0
    0.2421    1.4376   -0.5927 C   0  0  0  0  0  0  0  0  0  0  0  0
    1.1516    0.4776   -0.2989 C   0  0  0  0  0  0  0  0  0  0  0  0
    2.5539    0.6921   -0.7049 N   0  0  0  0  0  0  0  0  0  0  0  0
    2.8203    1.7055   -1.3458 O   0  0  0  0  0  0  0  0  0  0  0  0
    3.3674   -0.1694   -0.3737 O   0  0  0  0  0  0  0  0  0  0  0  0
    0.8275   -0.7477    0.3791 C   0  0  0  0  0  0  0  0  0  0  0  0
   -0.4799   -1.0481    0.5805 C   0  0  0  0  0  0  0  0  0  0  0  0
   -1.8840    1.8595   -0.6818 H   0  0  0  0  0  0  0  0  0  0  0  0
    0.5465    2.3468   -1.0948 H   0  0  0  0  0  0  0  0  0  0  0  0
    1.6244   -1.4185    0.6684 H   0  0  0  0  0  0  0  0  0  0  0  0
   -0.7872   -1.9946    1.0113 H   0  0  0  0  0  0  0  0  0  0  0  0
   -1.0568    2.5823    1.5325 Cl  0  0  0  0  0  0  0  0  0  0  0  0
  1  2  1  6  0  0  0
  1 11  1  0  0  0  0
  3  2  1  0  0  0  0
  4 12  1  6  0  0  0
  4  1  1  0  0  0  0
  4 16  1  0  0  0  0
  5  6  2  0  0  0  0
  5  4  1  0  0  0  0
  6 10  1  0  0  0  0
  7  9  2  0  0  0  0
  7  6  1  0  0  0  0
  8  7  2  0  0  0  0
 10 11  2  0  0  0  0
 10 14  1  0  0  0  0
 11 15  1  0  0  0  0
 13  5  1  0  0  0  0
M  RAD  3   1   2   2   2   3   3
M  END
