Coordinates from ORCA-job 4-NO2PhN2+~Cl-_B3LYPG-6-31G_dp-NX-Scan-d89-09-n800
 OpenBabel11261920193D

 16 16  0  0  1  0  0  0  0  0999 V2000
   -1.4243   -0.2297    0.0284 C   0  0  0  0  0  0  0  0  0  0  0  0
   -2.6895   -0.4175    0.3487 N   0  0  0  0  0  0  0  0  0  0  0  0
   -3.7777   -0.3080    0.6548 N   0  0  0  0  0  0  0  0  0  0  0  0
   -1.1442    1.1796   -0.3575 C   0  0  2  0  0  0  0  0  0  0  0  0
    0.2963    1.4219   -0.5658 C   0  0  0  0  0  0  0  0  0  0  0  0
    1.2083    0.4614   -0.2934 C   0  0  0  0  0  0  0  0  0  0  0  0
    2.6382    0.7850   -0.5213 N   0  0  0  0  0  0  0  0  0  0  0  0
    2.9175    1.9026   -0.9457 O   0  0  0  0  0  0  0  0  0  0  0  0
    3.4550   -0.0978   -0.2662 O   0  0  0  0  0  0  0  0  0  0  0  0
    0.8967   -0.8631    0.1754 C   0  0  0  0  0  0  0  0  0  0  0  0
   -0.4110   -1.1933    0.3350 C   0  0  0  0  0  0  0  0  0  0  0  0
   -1.7599    1.5533   -1.1750 H   0  0  0  0  0  0  0  0  0  0  0  0
    0.6158    2.3859   -0.9392 H   0  0  0  0  0  0  0  0  0  0  0  0
    1.7009   -1.5515    0.3898 H   0  0  0  0  0  0  0  0  0  0  0  0
   -0.7092   -2.1684    0.7044 H   0  0  0  0  0  0  0  0  0  0  0  0
   -1.8661    2.3180    1.0573 Cl  0  0  0  0  0  0  0  0  0  0  0  0
  1 11  2  0  0  0  0
  1  2  1  0  0  0  0
  2  3  1  0  0  0  0
  4 12  1  6  0  0  0
  4  1  1  0  0  0  0
  4 16  1  0  0  0  0
  5  4  1  0  0  0  0
  5  6  2  0  0  0  0
  6 10  1  0  0  0  0
  7  6  1  0  0  0  0
  7  9  2  0  0  0  0
  8  7  2  0  0  0  0
 10 11  1  0  0  0  0
 10 14  1  0  0  0  0
 11 15  1  0  0  0  0
 13  5  1  0  0  0  0
M  RAD  3   2   2   3   3  10   2
M  END
