Coordinates from ORCA-job 4-NO2PhN2+~Cl-_B3LYPG-6-31G_dp-NX-Scan-d89-09-n800
 OpenBabel11261920193D

 16 15  0  0  0  0  0  0  0  0999 V2000
   -1.2419   -0.0932    0.2713 C   0  0  0  0  0  0  0  0  0  0  0  0
   -2.5731   -0.4010    0.6226 N   0  0  0  0  0  0  0  0  0  0  0  0
   -3.6446    0.0329    0.7413 N   0  0  0  0  0  0  0  0  0  0  0  0
   -0.8645    1.1997   -0.1203 C   0  0  0  0  0  0  0  0  0  0  0  0
    0.4699    1.4184   -0.4496 C   0  0  0  0  0  0  0  0  0  0  0  0
    1.3701    0.3570   -0.3788 C   0  0  0  0  0  0  0  0  0  0  0  0
    2.7873    0.6033   -0.7309 N   0  0  0  0  0  0  0  0  0  0  0  0
    3.0928    1.7427   -1.0693 O   0  0  0  0  0  0  0  0  0  0  0  0
    3.5577   -0.3504   -0.6594 O   0  0  0  0  0  0  0  0  0  0  0  0
    0.9972   -0.9290    0.0095 C   0  0  0  0  0  0  0  0  0  0  0  0
   -0.3321   -1.1572    0.3402 C   0  0  0  0  0  0  0  0  0  0  0  0
   -1.6092    1.9881   -0.1572 H   0  0  0  0  0  0  0  0  0  0  0  0
    0.8195    2.3952   -0.7591 H   0  0  0  0  0  0  0  0  0  0  0  0
    1.7399   -1.7153    0.0462 H   0  0  0  0  0  0  0  0  0  0  0  0
   -0.6754   -2.1377    0.6498 H   0  0  0  0  0  0  0  0  0  0  0  0
   -3.9466    2.2250    0.2734 Cl  0  0  0  0  0  0  0  0  0  0  0  0
  1 11  1  0  0  0  0
  1  2  1  0  0  0  0
  2  3  2  0  0  0  0
  4  1  2  0  0  0  0
  5  6  2  0  0  0  0
  5  4  1  0  0  0  0
  6 10  1  0  0  0  0
  7  9  2  0  0  0  0
  7  6  1  0  0  0  0
  8  7  2  0  0  0  0
 10 14  1  0  0  0  0
 10 11  2  0  0  0  0
 11 15  1  0  0  0  0
 12  4  1  0  0  0  0
 13  5  1  0  0  0  0
M  RAD  2   3   2  16   2
M  END
