Coordinates from ORCA-job 4-NO2PhN2+~Cl-_B3LYPG-6-31G_dp-NX-Scan-d89-09-n800
 OpenBabel11261920193D

 16 16  0  0  0  0  0  0  0  0999 V2000
   -1.2392    0.1067    0.5465 C   0  0  0  0  0  0  0  0  0  0  0  0
   -2.5207   -0.0765    1.1411 N   0  0  0  0  0  0  0  0  0  0  0  0
   -3.6093    0.1947    0.6494 N   0  0  0  0  0  0  0  0  0  0  0  0
   -0.7418    1.3898    0.2797 C   0  0  0  0  0  0  0  0  0  0  0  0
    0.5582    1.5320   -0.1921 C   0  0  0  0  0  0  0  0  0  0  0  0
    1.3317    0.3901   -0.3934 C   0  0  0  0  0  0  0  0  0  0  0  0
    2.7046    0.5421   -0.9031 N   0  0  0  0  0  0  0  0  0  0  0  0
    3.1033    1.6835   -1.1286 O   0  0  0  0  0  0  0  0  0  0  0  0
    3.3645   -0.4817   -1.0714 O   0  0  0  0  0  0  0  0  0  0  0  0
    0.8532   -0.8900   -0.1189 C   0  0  0  0  0  0  0  0  0  0  0  0
   -0.4383   -1.0292    0.3769 C   0  0  0  0  0  0  0  0  0  0  0  0
   -1.3633    2.2617    0.4477 H   0  0  0  0  0  0  0  0  0  0  0  0
    0.9786    2.5054   -0.4108 H   0  0  0  0  0  0  0  0  0  0  0  0
    1.4953   -1.7461   -0.2827 H   0  0  0  0  0  0  0  0  0  0  0  0
   -0.8360   -2.0066    0.6266 H   0  0  0  0  0  0  0  0  0  0  0  0
   -3.6936    0.8024   -0.9371 Cl  0  0  0  0  0  0  0  0  0  0  0  0
  1  2  1  0  0  0  0
  3  2  2  0  0  0  0
  4 12  1  0  0  0  0
  4  1  2  0  0  0  0
  5  4  1  0  0  0  0
  6  5  2  0  0  0  0
  6 10  1  0  0  0  0
  7  6  1  0  0  0  0
  8  7  2  0  0  0  0
  9  7  2  0  0  0  0
 10 11  2  0  0  0  0
 11  1  1  0  0  0  0
 11 15  1  0  0  0  0
 13  5  1  0  0  0  0
 14 10  1  0  0  0  0
 16  3  1  0  0  0  0
M  END
