Coordinates from ORCA-job 4-NO2PhN2+~Cl-_B3LYPG-6-31G_dp-NX-Scan-d89-09-n800
 OpenBabel11261920193D

 16 16  0  0  1  0  0  0  0  0999 V2000
   -1.4393   -0.1798    0.0536 C   0  0  0  0  0  0  0  0  0  0  0  0
   -2.7171   -0.4690    0.2072 N   0  0  0  0  0  0  0  0  0  0  0  0
   -3.8337   -0.6325    0.3416 N   0  0  0  0  0  0  0  0  0  0  0  0
   -1.1336    1.2305   -0.2824 C   0  0  2  0  0  0  0  0  0  0  0  0
    0.2949    1.4307   -0.5900 C   0  0  0  0  0  0  0  0  0  0  0  0
    1.2030    0.4733   -0.2949 C   0  0  0  0  0  0  0  0  0  0  0  0
    2.6286    0.7583   -0.5808 N   0  0  0  0  0  0  0  0  0  0  0  0
    2.9106    1.8390   -1.0909 O   0  0  0  0  0  0  0  0  0  0  0  0
    3.4397   -0.1195   -0.2920 O   0  0  0  0  0  0  0  0  0  0  0  0
    0.8797   -0.8179    0.2503 C   0  0  0  0  0  0  0  0  0  0  0  0
   -0.4302   -1.1369    0.4106 C   0  0  0  0  0  0  0  0  0  0  0  0
   -1.8014    1.6665   -1.0226 H   0  0  0  0  0  0  0  0  0  0  0  0
    0.6128    2.3728   -1.0169 H   0  0  0  0  0  0  0  0  0  0  0  0
    1.6776   -1.5036    0.4961 H   0  0  0  0  0  0  0  0  0  0  0  0
   -0.7354   -2.1031    0.7973 H   0  0  0  0  0  0  0  0  0  0  0  0
   -1.6093    2.3696    1.2436 Cl  0  0  0  0  0  0  0  0  0  0  0  0
  1  2  1  0  0  0  0
  1 11  2  0  0  0  0
  2  3  1  0  0  0  0
  4 12  1  6  0  0  0
  4  1  1  0  0  0  0
  4 16  1  0  0  0  0
  5  6  2  0  0  0  0
  5  4  1  0  0  0  0
  6 10  1  0  0  0  0
  7  6  1  0  0  0  0
  7  9  2  0  0  0  0
  8  7  2  0  0  0  0
 10 11  1  0  0  0  0
 10 14  1  0  0  0  0
 11 15  1  0  0  0  0
 13  5  1  0  0  0  0
M  RAD  3   2   2   3   3  10   2
M  END
