Coordinates from ORCA-job 4-NO2PhN2+~Cl-_B3LYPG-6-31G_dp-NX-Scan-d89-09-n800
 OpenBabel11261920193D

 16 16  0  0  1  0  0  0  0  0999 V2000
   -1.4399   -0.1781    0.0554 C   0  0  0  0  0  0  0  0  0  0  0  0
   -2.7176   -0.4708    0.2016 N   0  0  0  0  0  0  0  0  0  0  0  0
   -3.8338   -0.6426    0.3284 N   0  0  0  0  0  0  0  0  0  0  0  0
   -1.1335    1.2322   -0.2791 C   0  0  2  0  0  0  0  0  0  0  0  0
    0.2943    1.4307   -0.5910 C   0  0  0  0  0  0  0  0  0  0  0  0
    1.2024    0.4734   -0.2956 C   0  0  0  0  0  0  0  0  0  0  0  0
    2.6276    0.7568   -0.5844 N   0  0  0  0  0  0  0  0  0  0  0  0
    2.9098    1.8371   -1.0952 O   0  0  0  0  0  0  0  0  0  0  0  0
    3.4391   -0.1196   -0.2920 O   0  0  0  0  0  0  0  0  0  0  0  0
    0.8790   -0.8164    0.2528 C   0  0  0  0  0  0  0  0  0  0  0  0
   -0.4309   -1.1350    0.4138 C   0  0  0  0  0  0  0  0  0  0  0  0
   -1.8032    1.6702   -1.0162 H   0  0  0  0  0  0  0  0  0  0  0  0
    0.6120    2.3719   -1.0201 H   0  0  0  0  0  0  0  0  0  0  0  0
    1.6768   -1.5019    0.4995 H   0  0  0  0  0  0  0  0  0  0  0  0
   -0.7363   -2.1008    0.8014 H   0  0  0  0  0  0  0  0  0  0  0  0
   -1.5990    2.3713    1.2504 Cl  0  0  0  0  0  0  0  0  0  0  0  0
  1  2  1  0  0  0  0
  1 11  2  0  0  0  0
  2  3  1  0  0  0  0
  4 12  1  6  0  0  0
  4  1  1  0  0  0  0
  4 16  1  0  0  0  0
  5  6  2  0  0  0  0
  5  4  1  0  0  0  0
  6 10  1  0  0  0  0
  7  6  1  0  0  0  0
  7  9  2  0  0  0  0
  8  7  2  0  0  0  0
 10 11  1  0  0  0  0
 10 14  1  0  0  0  0
 11 15  1  0  0  0  0
 13  5  1  0  0  0  0
M  RAD  3   2   2   3   3  10   2
M  END
