Coordinates from ORCA-job 4-NO2PhN2+~Cl-_B3LYPG-6-31G_dp-NX-Scan-d89-09-n800
 OpenBabel11261920193D

 16 16  0  0  0  0  0  0  0  0999 V2000
   -1.2518   -0.0714    0.2716 C   0  0  0  0  0  0  0  0  0  0  0  0
   -2.5765   -0.4001    0.6300 N   0  0  0  0  0  0  0  0  0  0  0  0
   -3.6518    0.0573    0.7393 N   0  0  0  0  0  0  0  0  0  0  0  0
   -0.8564    1.2172   -0.1211 C   0  0  0  0  0  0  0  0  0  0  0  0
    0.4796    1.4261   -0.4500 C   0  0  0  0  0  0  0  0  0  0  0  0
    1.3731    0.3593   -0.3802 C   0  0  0  0  0  0  0  0  0  0  0  0
    2.7910    0.5959   -0.7319 N   0  0  0  0  0  0  0  0  0  0  0  0
    3.1054    1.7335   -1.0695 O   0  0  0  0  0  0  0  0  0  0  0  0
    3.5553   -0.3631   -0.6617 O   0  0  0  0  0  0  0  0  0  0  0  0
    0.9888   -0.9229    0.0079 C   0  0  0  0  0  0  0  0  0  0  0  0
   -0.3426   -1.1380    0.3382 C   0  0  0  0  0  0  0  0  0  0  0  0
   -1.5837    2.0180   -0.1625 H   0  0  0  0  0  0  0  0  0  0  0  0
    0.8360    2.4006   -0.7590 H   0  0  0  0  0  0  0  0  0  0  0  0
    1.7241   -1.7162    0.0451 H   0  0  0  0  0  0  0  0  0  0  0  0
   -0.6939   -2.1155    0.6483 H   0  0  0  0  0  0  0  0  0  0  0  0
   -3.9498    2.0977    0.2851 Cl  0  0  0  0  0  0  0  0  0  0  0  0
  1 11  1  0  0  0  0
  1  2  1  0  0  0  0
  2  3  2  0  0  0  0
  4  1  2  0  0  0  0
  5  6  2  0  0  0  0
  5  4  1  0  0  0  0
  6 10  1  0  0  0  0
  7  9  2  0  0  0  0
  7  6  1  0  0  0  0
  8  7  2  0  0  0  0
 10 14  1  0  0  0  0
 10 11  2  0  0  0  0
 11 15  1  0  0  0  0
 12  4  1  0  0  0  0
 13  5  1  0  0  0  0
 16  3  1  0  0  0  0
M  END
