Coordinates from ORCA-job 4-NO2PhN2+~Cl-_B3LYPG-6-31G_dp-NX-Scan-d89-09-n800
 OpenBabel11261920193D

 16 15  0  0  0  0  0  0  0  0999 V2000
   -1.4839   -0.3262    0.0180 C   0  0  0  0  0  0  0  0  0  0  0  0
   -2.7716   -0.7731    0.0406 N   0  0  0  0  0  0  0  0  0  0  0  0
   -3.7961   -1.2462    0.0537 N   0  0  0  0  0  0  0  0  0  0  0  0
   -1.1853    1.0296   -0.2726 C   0  0  0  0  0  0  0  0  0  0  0  0
    0.1566    1.3755   -0.4213 C   0  0  0  0  0  0  0  0  0  0  0  0
    1.1316    0.3985   -0.2341 C   0  0  0  0  0  0  0  0  0  0  0  0
    2.5445    0.7531   -0.4459 N   0  0  0  0  0  0  0  0  0  0  0  0
    2.7848    1.8716   -0.8851 O   0  0  0  0  0  0  0  0  0  0  0  0
    3.3823   -0.1087   -0.1713 O   0  0  0  0  0  0  0  0  0  0  0  0
    0.8358   -0.9236    0.1418 C   0  0  0  0  0  0  0  0  0  0  0  0
   -0.4780   -1.3104    0.2588 C   0  0  0  0  0  0  0  0  0  0  0  0
   -1.9506    1.7910   -0.3805 H   0  0  0  0  0  0  0  0  0  0  0  0
    0.4102    2.4141   -0.6229 H   0  0  0  0  0  0  0  0  0  0  0  0
    1.6481   -1.6185    0.3132 H   0  0  0  0  0  0  0  0  0  0  0  0
   -0.7557   -2.3245    0.5204 H   0  0  0  0  0  0  0  0  0  0  0  0
   -0.5259    4.1762    0.7170 Cl  0  0  0  0  0  0  0  0  0  0  0  0
  1  2  1  0  0  0  0
  1 11  2  0  0  0  0
  2  3  1  0  0  0  0
  4  1  1  0  0  0  0
  5  4  2  0  0  0  0
  5  6  1  0  0  0  0
  6 10  2  0  0  0  0
  7  6  1  0  0  0  0
  7  9  2  0  0  0  0
  8  7  2  0  0  0  0
 10 11  1  0  0  0  0
 10 14  1  0  0  0  0
 11 15  1  0  0  0  0
 12  4  1  0  0  0  0
 13  5  1  0  0  0  0
M  RAD  3   2   2   3   3  16   2
M  END
