Coordinates from ORCA-job 4-NO2PhN2+~Cl-_B3LYPG-6-31G_dp-NX-Scan-d89-09-n800
 OpenBabel11261920193D

 16 15  0  0  0  0  0  0  0  0999 V2000
   -1.5213   -0.4587   -0.0025 C   0  0  0  0  0  0  0  0  0  0  0  0
   -2.7960   -0.9367    0.0427 N   0  0  0  0  0  0  0  0  0  0  0  0
   -3.8322   -1.3845    0.0957 N   0  0  0  0  0  0  0  0  0  0  0  0
   -1.2854    0.9321   -0.1613 C   0  0  0  0  0  0  0  0  0  0  0  0
    0.0274    1.3714   -0.2684 C   0  0  0  0  0  0  0  0  0  0  0  0
    1.0521    0.4232   -0.1690 C   0  0  0  0  0  0  0  0  0  0  0  0
    2.4483    0.8642   -0.3233 N   0  0  0  0  0  0  0  0  0  0  0  0
    2.6290    1.9828   -0.7854 O   0  0  0  0  0  0  0  0  0  0  0  0
    3.3240    0.0649    0.0211 O   0  0  0  0  0  0  0  0  0  0  0  0
    0.8241   -0.9406    0.0618 C   0  0  0  0  0  0  0  0  0  0  0  0
   -0.4715   -1.4082    0.1245 C   0  0  0  0  0  0  0  0  0  0  0  0
   -2.1072    1.6394   -0.1909 H   0  0  0  0  0  0  0  0  0  0  0  0
    0.2434    2.4482   -0.3783 H   0  0  0  0  0  0  0  0  0  0  0  0
    1.6721   -1.6062    0.1636 H   0  0  0  0  0  0  0  0  0  0  0  0
   -0.6943   -2.4597    0.2640 H   0  0  0  0  0  0  0  0  0  0  0  0
    0.4344    4.6469    0.1353 Cl  0  0  0  0  0  0  0  0  0  0  0  0
  1  2  1  0  0  0  0
  1 11  1  0  0  0  0
  2  3  1  0  0  0  0
  4  1  2  0  0  0  0
  5  6  2  0  0  0  0
  5  4  1  0  0  0  0
  6 10  1  0  0  0  0
  7  6  1  0  0  0  0
  7  9  2  0  0  0  0
  8  7  2  0  0  0  0
 10 11  2  0  0  0  0
 10 14  1  0  0  0  0
 11 15  1  0  0  0  0
 12  4  1  0  0  0  0
 13  5  1  0  0  0  0
M  RAD  3   2   2   3   3  16   2
M  END
