Coordinates from ORCA-job 4-NO2PhN2+~Cl-_B3LYPG-6-31G_dp-NX-Scan-d89-09-n800
 OpenBabel11261920193D

 16 15  0  0  0  0  0  0  0  0999 V2000
   -1.5553   -0.4920   -0.0215 C   0  0  0  0  0  0  0  0  0  0  0  0
   -2.8214   -0.9937    0.0164 N   0  0  0  0  0  0  0  0  0  0  0  0
   -3.8379   -1.4932    0.0554 N   0  0  0  0  0  0  0  0  0  0  0  0
   -1.3211    0.9052   -0.1420 C   0  0  0  0  0  0  0  0  0  0  0  0
   -0.0081    1.3599   -0.1765 C   0  0  0  0  0  0  0  0  0  0  0  0
    1.0246    0.4151   -0.0908 C   0  0  0  0  0  0  0  0  0  0  0  0
    2.4276    0.8666   -0.1251 N   0  0  0  0  0  0  0  0  0  0  0  0
    2.6246    2.0693   -0.2256 O   0  0  0  0  0  0  0  0  0  0  0  0
    3.2932   -0.0110   -0.0488 O   0  0  0  0  0  0  0  0  0  0  0  0
    0.7955   -0.9624    0.0288 C   0  0  0  0  0  0  0  0  0  0  0  0
   -0.4979   -1.4371    0.0655 C   0  0  0  0  0  0  0  0  0  0  0  0
   -2.1507    1.6004   -0.2057 H   0  0  0  0  0  0  0  0  0  0  0  0
    0.2227    2.4276   -0.2679 H   0  0  0  0  0  0  0  0  0  0  0  0
    1.6454   -1.6302    0.0910 H   0  0  0  0  0  0  0  0  0  0  0  0
   -0.7140   -2.4953    0.1585 H   0  0  0  0  0  0  0  0  0  0  0  0
    0.8197    5.0493   -0.4819 Cl  0  0  0  0  0  0  0  0  0  0  0  0
  1  2  1  0  0  0  0
  1 11  2  0  0  0  0
  2  3  1  0  0  0  0
  4  1  1  0  0  0  0
  5  4  2  0  0  0  0
  5  6  1  0  0  0  0
  6 10  2  0  0  0  0
  7  6  1  0  0  0  0
  7  9  2  0  0  0  0
  8  7  2  0  0  0  0
 10 11  1  0  0  0  0
 10 14  1  0  0  0  0
 11 15  1  0  0  0  0
 12  4  1  0  0  0  0
 13  5  1  0  0  0  0
M  RAD  3   2   2   3   3  16   2
M  END
