Coordinates from ORCA-job 4-NO2PhN2+~Cl-_B3LYPG-6-31G_dp-NX-Scan-d89-09-n800
 OpenBabel11261920193D

 16 16  0  0  0  0  0  0  0  0999 V2000
   -1.2560   -0.0615    0.2753 C   0  0  0  0  0  0  0  0  0  0  0  0
   -2.5771   -0.4014    0.6393 N   0  0  0  0  0  0  0  0  0  0  0  0
   -3.6546    0.0667    0.7391 N   0  0  0  0  0  0  0  0  0  0  0  0
   -0.8524    1.2257   -0.1162 C   0  0  0  0  0  0  0  0  0  0  0  0
    0.4839    1.4302   -0.4466 C   0  0  0  0  0  0  0  0  0  0  0  0
    1.3742    0.3604   -0.3807 C   0  0  0  0  0  0  0  0  0  0  0  0
    2.7917    0.5925   -0.7343 N   0  0  0  0  0  0  0  0  0  0  0  0
    3.1097    1.7295   -1.0717 O   0  0  0  0  0  0  0  0  0  0  0  0
    3.5530   -0.3693   -0.6682 O   0  0  0  0  0  0  0  0  0  0  0  0
    0.9849   -0.9204    0.0061 C   0  0  0  0  0  0  0  0  0  0  0  0
   -0.3469   -1.1295    0.3384 C   0  0  0  0  0  0  0  0  0  0  0  0
   -1.5712    2.0328   -0.1572 H   0  0  0  0  0  0  0  0  0  0  0  0
    0.8433    2.4040   -0.7543 H   0  0  0  0  0  0  0  0  0  0  0  0
    1.7165   -1.7172    0.0413 H   0  0  0  0  0  0  0  0  0  0  0  0
   -0.7016   -2.1058    0.6484 H   0  0  0  0  0  0  0  0  0  0  0  0
   -3.9504    2.0419    0.2709 Cl  0  0  0  0  0  0  0  0  0  0  0  0
  1 11  1  0  0  0  0
  1  2  1  0  0  0  0
  2  3  2  0  0  0  0
  4  1  2  0  0  0  0
  5  6  2  0  0  0  0
  5  4  1  0  0  0  0
  6 10  1  0  0  0  0
  7  9  2  0  0  0  0
  7  6  1  0  0  0  0
  8  7  2  0  0  0  0
 10 14  1  0  0  0  0
 10 11  2  0  0  0  0
 11 15  1  0  0  0  0
 12  4  1  0  0  0  0
 13  5  1  0  0  0  0
 16  3  1  0  0  0  0
M  END
