Coordinates from ORCA-job 4-NO2PhN2+~Cl-_B3LYPG-6-31G_dp-NX-Scan-d89-09-n800
 OpenBabel11261920183D

 16 15  0  0  0  0  0  0  0  0999 V2000
   -1.5628   -0.5163   -0.0194 C   0  0  0  0  0  0  0  0  0  0  0  0
   -2.8252   -1.0243    0.0190 N   0  0  0  0  0  0  0  0  0  0  0  0
   -3.8419   -1.5247    0.0579 N   0  0  0  0  0  0  0  0  0  0  0  0
   -1.3394    0.8830   -0.1397 C   0  0  0  0  0  0  0  0  0  0  0  0
   -0.0305    1.3462   -0.1743 C   0  0  0  0  0  0  0  0  0  0  0  0
    1.0115    0.4115   -0.0899 C   0  0  0  0  0  0  0  0  0  0  0  0
    2.4086    0.8774   -0.1250 N   0  0  0  0  0  0  0  0  0  0  0  0
    2.5923    2.0832   -0.2213 O   0  0  0  0  0  0  0  0  0  0  0  0
    3.2835    0.0090   -0.0538 O   0  0  0  0  0  0  0  0  0  0  0  0
    0.7929   -0.9677    0.0289 C   0  0  0  0  0  0  0  0  0  0  0  0
   -0.4971   -1.4521    0.0663 C   0  0  0  0  0  0  0  0  0  0  0  0
   -2.1752    1.5706   -0.2028 H   0  0  0  0  0  0  0  0  0  0  0  0
    0.1964    2.4117   -0.2652 H   0  0  0  0  0  0  0  0  0  0  0  0
    1.6478   -1.6291    0.0898 H   0  0  0  0  0  0  0  0  0  0  0  0
   -0.7045   -2.5121    0.1590 H   0  0  0  0  0  0  0  0  0  0  0  0
    0.9903    5.2120   -0.4998 Cl  0  0  0  0  0  0  0  0  0  0  0  0
  1  2  1  0  0  0  0
  1 11  2  0  0  0  0
  2  3  1  0  0  0  0
  4  1  1  0  0  0  0
  5  4  2  0  0  0  0
  5  6  1  0  0  0  0
  6 10  2  0  0  0  0
  7  6  1  0  0  0  0
  7  9  2  0  0  0  0
  8  7  2  0  0  0  0
 10 11  1  0  0  0  0
 10 14  1  0  0  0  0
 11 15  1  0  0  0  0
 12  4  1  0  0  0  0
 13  5  1  0  0  0  0
M  RAD  3   2   2   3   3  16   2
M  END
