Coordinates from ORCA-job 4-NO2PhN2+~Cl-_B3LYPG-6-31G_dp-NX-Scan-d89-09-n800
 OpenBabel11261920193D

 16 15  0  0  0  0  0  0  0  0999 V2000
   -1.5077   -0.4189    0.0032 C   0  0  0  0  0  0  0  0  0  0  0  0
   -2.7885   -0.8842    0.0428 N   0  0  0  0  0  0  0  0  0  0  0  0
   -3.8211   -1.3395    0.0866 N   0  0  0  0  0  0  0  0  0  0  0  0
   -1.2472    0.9622   -0.1916 C   0  0  0  0  0  0  0  0  0  0  0  0
    0.0760    1.3715   -0.3064 C   0  0  0  0  0  0  0  0  0  0  0  0
    1.0823    0.4091   -0.1831 C   0  0  0  0  0  0  0  0  0  0  0  0
    2.4878    0.8168   -0.3610 N   0  0  0  0  0  0  0  0  0  0  0  0
    2.6922    1.9439   -0.7910 O   0  0  0  0  0  0  0  0  0  0  0  0
    3.3488   -0.0170   -0.0684 O   0  0  0  0  0  0  0  0  0  0  0  0
    0.8288   -0.9438    0.0857 C   0  0  0  0  0  0  0  0  0  0  0  0
   -0.4748   -1.3842    0.1626 C   0  0  0  0  0  0  0  0  0  0  0  0
   -2.0492    1.6910   -0.2441 H   0  0  0  0  0  0  0  0  0  0  0  0
    0.2989    2.4424   -0.4324 H   0  0  0  0  0  0  0  0  0  0  0  0
    1.6634   -1.6232    0.2048 H   0  0  0  0  0  0  0  0  0  0  0  0
   -0.7177   -2.4260    0.3356 H   0  0  0  0  0  0  0  0  0  0  0  0
    0.0749    4.5781    0.2866 Cl  0  0  0  0  0  0  0  0  0  0  0  0
  1  2  1  0  0  0  0
  1 11  2  0  0  0  0
  2  3  1  0  0  0  0
  4  1  1  0  0  0  0
  5  4  2  0  0  0  0
  5  6  1  0  0  0  0
  6 10  2  0  0  0  0
  7  6  1  0  0  0  0
  7  9  2  0  0  0  0
  8  7  2  0  0  0  0
 10 11  1  0  0  0  0
 10 14  1  0  0  0  0
 11 15  1  0  0  0  0
 12  4  1  0  0  0  0
 13  5  1  0  0  0  0
M  RAD  3   2   2   3   3  16   2
M  END
