Coordinates from ORCA-job 4-NO2PhN2+~Cl-_B3LYPG-6-31G_dp-NX-Scan-d89-09-n800
 OpenBabel11261920193D

 16 16  0  0  0  0  0  0  0  0999 V2000
   -1.2569    0.2294    0.5610 C   0  0  0  0  0  0  0  0  0  0  0  0
   -2.5467    0.1349    1.1989 N   0  0  0  0  0  0  0  0  0  0  0  0
   -3.5842    0.0942    0.4582 N   0  0  0  0  0  0  0  0  0  0  0  0
   -0.6778    1.4889    0.3433 C   0  0  0  0  0  0  0  0  0  0  0  0
    0.6222    1.5845   -0.1407 C   0  0  0  0  0  0  0  0  0  0  0  0
    1.3343    0.4127   -0.3934 C   0  0  0  0  0  0  0  0  0  0  0  0
    2.7068    0.5096   -0.9076 N   0  0  0  0  0  0  0  0  0  0  0  0
    3.1678    1.6354   -1.0955 O   0  0  0  0  0  0  0  0  0  0  0  0
    3.3119   -0.5406   -1.1215 O   0  0  0  0  0  0  0  0  0  0  0  0
    0.7843   -0.8485   -0.1668 C   0  0  0  0  0  0  0  0  0  0  0  0
   -0.5159   -0.9368    0.3182 C   0  0  0  0  0  0  0  0  0  0  0  0
   -1.2464    2.3860    0.5658 H   0  0  0  0  0  0  0  0  0  0  0  0
    1.0925    2.5427   -0.3231 H   0  0  0  0  0  0  0  0  0  0  0  0
    1.3774   -1.7315   -0.3693 H   0  0  0  0  0  0  0  0  0  0  0  0
   -0.9602   -1.9058    0.5217 H   0  0  0  0  0  0  0  0  0  0  0  0
   -3.6623    0.1233   -0.8196 Cl  0  0  0  0  0  0  0  0  0  0  0  0
  1  2  1  0  0  0  0
  3  2  2  0  0  0  0
  4  1  1  0  0  0  0
  4 12  1  0  0  0  0
  5  4  2  0  0  0  0
  6 10  2  0  0  0  0
  6  5  1  0  0  0  0
  7  6  1  0  0  0  0
  8  7  2  0  0  0  0
  9  7  2  0  0  0  0
 10 11  1  0  0  0  0
 11 15  1  0  0  0  0
 11  1  2  0  0  0  0
 13  5  1  0  0  0  0
 14 10  1  0  0  0  0
 16  3  1  0  0  0  0
M  END
