Coordinates from ORCA-job 4-NO2PhN2+~Cl-_B3LYPG-6-31G_dp-NX-Scan-d89-09-n800
 OpenBabel11261920193D

 16 16  0  0  1  0  0  0  0  0999 V2000
   -1.4913   -0.0982    0.1614 C   0  0  2  0  0  0  0  0  0  0  0  0
   -2.6957   -0.6027   -0.1125 N   0  0  0  0  0  0  0  0  0  0  0  0
   -3.6514   -1.1650   -0.3820 N   0  0  0  0  0  0  0  0  0  0  0  0
   -1.1403    1.2975   -0.1304 C   0  0  2  0  0  0  0  0  0  0  0  0
    0.2396    1.4362   -0.5931 C   0  0  0  0  0  0  0  0  0  0  0  0
    1.1502    0.4758   -0.3001 C   0  0  0  0  0  0  0  0  0  0  0  0
    2.5527    0.6926   -0.7025 N   0  0  0  0  0  0  0  0  0  0  0  0
    2.8190    1.7071   -1.3417 O   0  0  0  0  0  0  0  0  0  0  0  0
    3.3664   -0.1689   -0.3715 O   0  0  0  0  0  0  0  0  0  0  0  0
    0.8259   -0.7492    0.3766 C   0  0  0  0  0  0  0  0  0  0  0  0
   -0.4816   -1.0494    0.5796 C   0  0  0  0  0  0  0  0  0  0  0  0
   -1.8874    1.8626   -0.6766 H   0  0  0  0  0  0  0  0  0  0  0  0
    0.5443    2.3476   -1.0909 H   0  0  0  0  0  0  0  0  0  0  0  0
    1.6227   -1.4203    0.6658 H   0  0  0  0  0  0  0  0  0  0  0  0
   -0.7889   -1.9955    1.0112 H   0  0  0  0  0  0  0  0  0  0  0  0
   -1.0373    2.6083    1.5364 Cl  0  0  0  0  0  0  0  0  0  0  0  0
  1  2  1  6  0  0  0
  1 11  1  0  0  0  0
  3  2  1  0  0  0  0
  4 12  1  6  0  0  0
  4  1  1  0  0  0  0
  4 16  1  0  0  0  0
  5  6  2  0  0  0  0
  5  4  1  0  0  0  0
  6 10  1  0  0  0  0
  7  9  2  0  0  0  0
  7  6  1  0  0  0  0
  8  7  2  0  0  0  0
 10 11  2  0  0  0  0
 10 14  1  0  0  0  0
 11 15  1  0  0  0  0
 13  5  1  0  0  0  0
M  RAD  3   1   2   2   2   3   3
M  END
