Coordinates from ORCA-job 4-NO2PhN2+~Cl-_B3LYPG-6-31G_dp-NX-Scan-d89-09-n800
 OpenBabel11261920193D

 16 15  0  0  0  0  0  0  0  0999 V2000
   -1.4819   -0.2039    0.0545 C   0  0  0  0  0  0  0  0  0  0  0  0
   -2.7559   -0.6599   -0.0029 N   0  0  0  0  0  0  0  0  0  0  0  0
   -3.7672   -1.1595   -0.0901 N   0  0  0  0  0  0  0  0  0  0  0  0
   -1.1621    1.1205   -0.3527 C   0  0  0  0  0  0  0  0  0  0  0  0
    0.2004    1.4015   -0.5831 C   0  0  0  0  0  0  0  0  0  0  0  0
    1.1488    0.4421   -0.2977 C   0  0  0  0  0  0  0  0  0  0  0  0
    2.5602    0.7461   -0.5640 N   0  0  0  0  0  0  0  0  0  0  0  0
    2.8206    1.8166   -1.1068 O   0  0  0  0  0  0  0  0  0  0  0  0
    3.3866   -0.1094   -0.2428 O   0  0  0  0  0  0  0  0  0  0  0  0
    0.8305   -0.8208    0.2632 C   0  0  0  0  0  0  0  0  0  0  0  0
   -0.4803   -1.1621    0.4378 C   0  0  0  0  0  0  0  0  0  0  0  0
   -1.9315    1.8177   -0.6523 H   0  0  0  0  0  0  0  0  0  0  0  0
    0.4960    2.3664   -0.9692 H   0  0  0  0  0  0  0  0  0  0  0  0
    1.6334   -1.4976    0.5244 H   0  0  0  0  0  0  0  0  0  0  0  0
   -0.7764   -2.1277    0.8295 H   0  0  0  0  0  0  0  0  0  0  0  0
   -0.7742    3.2084    1.3818 Cl  0  0  0  0  0  0  0  0  0  0  0  0
  1 11  2  0  0  0  0
  2  1  1  0  0  0  0
  3  2  1  0  0  0  0
  4  1  1  0  0  0  0
  5  4  2  0  0  0  0
  5  6  1  0  0  0  0
  6 10  2  0  0  0  0
  7  6  1  0  0  0  0
  7  9  2  0  0  0  0
  8  7  2  0  0  0  0
 10 11  1  0  0  0  0
 10 14  1  0  0  0  0
 11 15  1  0  0  0  0
 12  4  1  0  0  0  0
 13  5  1  0  0  0  0
M  RAD  3   2   2   3   3  16   2
M  END
