Coordinates from ORCA-job 4-NO2PhN2+~Cl-_B3LYPG-6-31G_dp-NX-Scan-d89-09-n800
 OpenBabel11261920193D

 16 16  0  0  1  0  0  0  0  0999 V2000
   -1.4281   -0.2150    0.0327 C   0  0  0  0  0  0  0  0  0  0  0  0
   -2.6985   -0.4296    0.3127 N   0  0  0  0  0  0  0  0  0  0  0  0
   -3.8025   -0.4044    0.5776 N   0  0  0  0  0  0  0  0  0  0  0  0
   -1.1402    1.1943   -0.3393 C   0  0  2  0  0  0  0  0  0  0  0  0
    0.2978    1.4247   -0.5743 C   0  0  0  0  0  0  0  0  0  0  0  0
    1.2082    0.4649   -0.2944 C   0  0  0  0  0  0  0  0  0  0  0  0
    2.6375    0.7777   -0.5371 N   0  0  0  0  0  0  0  0  0  0  0  0
    2.9188    1.8861   -0.9841 O   0  0  0  0  0  0  0  0  0  0  0  0
    3.4522   -0.1037   -0.2706 O   0  0  0  0  0  0  0  0  0  0  0  0
    0.8923   -0.8507    0.1951 C   0  0  0  0  0  0  0  0  0  0  0  0
   -0.4163   -1.1772    0.3540 C   0  0  0  0  0  0  0  0  0  0  0  0
   -1.7708    1.5858   -1.1363 H   0  0  0  0  0  0  0  0  0  0  0  0
    0.6176    2.3828   -0.9625 H   0  0  0  0  0  0  0  0  0  0  0  0
    1.6942   -1.5391    0.4184 H   0  0  0  0  0  0  0  0  0  0  0  0
   -0.7172   -2.1496    0.7283 H   0  0  0  0  0  0  0  0  0  0  0  0
   -1.7980    2.3316    1.1096 Cl  0  0  0  0  0  0  0  0  0  0  0  0
  1  2  1  0  0  0  0
  1 11  2  0  0  0  0
  2  3  1  0  0  0  0
  4 12  1  6  0  0  0
  4  1  1  0  0  0  0
  4 16  1  0  0  0  0
  5  4  1  0  0  0  0
  5  6  2  0  0  0  0
  6 10  1  0  0  0  0
  7  6  1  0  0  0  0
  7  9  2  0  0  0  0
  8  7  2  0  0  0  0
 10 11  1  0  0  0  0
 10 14  1  0  0  0  0
 11 15  1  0  0  0  0
 13  5  1  0  0  0  0
M  RAD  3   2   2   3   3  10   2
M  END
