Coordinates from ORCA-job 4-NO2PhN2+~Cl-_B3LYPG-6-31G_dp-NX-Scan-d89-09-n800
 OpenBabel11261920193D

 16 16  0  0  1  0  0  0  0  0999 V2000
   -1.4933   -0.0999    0.1585 C   0  0  2  0  0  0  0  0  0  0  0  0
   -2.6985   -0.6104   -0.1126 N   0  0  0  0  0  0  0  0  0  0  0  0
   -3.6467   -1.1845   -0.3828 N   0  0  0  0  0  0  0  0  0  0  0  0
   -1.1421    1.2900   -0.1414 C   0  0  2  0  0  0  0  0  0  0  0  0
    0.2362    1.4343   -0.5931 C   0  0  0  0  0  0  0  0  0  0  0  0
    1.1483    0.4733   -0.3015 C   0  0  0  0  0  0  0  0  0  0  0  0
    2.5513    0.6935   -0.6982 N   0  0  0  0  0  0  0  0  0  0  0  0
    2.8178    1.7104   -1.3335 O   0  0  0  0  0  0  0  0  0  0  0  0
    3.3651   -0.1681   -0.3677 O   0  0  0  0  0  0  0  0  0  0  0  0
    0.8236   -0.7521    0.3721 C   0  0  0  0  0  0  0  0  0  0  0  0
   -0.4841   -1.0518    0.5765 C   0  0  0  0  0  0  0  0  0  0  0  0
   -1.8916    1.8666   -0.6707 H   0  0  0  0  0  0  0  0  0  0  0  0
    0.5417    2.3490   -1.0839 H   0  0  0  0  0  0  0  0  0  0  0  0
    1.6200   -1.4241    0.6605 H   0  0  0  0  0  0  0  0  0  0  0  0
   -0.7916   -1.9977    1.0082 H   0  0  0  0  0  0  0  0  0  0  0  0
   -1.0092    2.6498    1.5394 Cl  0  0  0  0  0  0  0  0  0  0  0  0
  1  2  1  6  0  0  0
  1 11  1  0  0  0  0
  3  2  1  0  0  0  0
  4 12  1  6  0  0  0
  4  1  1  0  0  0  0
  4 16  1  0  0  0  0
  5  6  2  0  0  0  0
  5  4  1  0  0  0  0
  6 10  1  0  0  0  0
  7  9  2  0  0  0  0
  7  6  1  0  0  0  0
  8  7  2  0  0  0  0
 10 11  2  0  0  0  0
 10 14  1  0  0  0  0
 11 15  1  0  0  0  0
 13  5  1  0  0  0  0
M  RAD  3   1   2   2   2   3   3
M  END
