Coordinates from ORCA-job 4-NO2PhN2+~Cl-_B3LYPG-6-31G_dp-NX-Scan-d89-09-n800
 OpenBabel11261920193D

 16 16  0  0  1  0  0  0  0  0999 V2000
   -1.4875   -0.0985    0.1609 C   0  0  2  0  0  0  0  0  0  0  0  0
   -2.6953   -0.5911   -0.1035 N   0  0  0  0  0  0  0  0  0  0  0  0
   -3.6662   -1.1331   -0.3613 N   0  0  0  0  0  0  0  0  0  0  0  0
   -1.1379    1.3047   -0.1216 C   0  0  2  0  0  0  0  0  0  0  0  0
    0.2454    1.4385   -0.5931 C   0  0  0  0  0  0  0  0  0  0  0  0
    1.1542    0.4790   -0.2981 C   0  0  0  0  0  0  0  0  0  0  0  0
    2.5569    0.6935   -0.7039 N   0  0  0  0  0  0  0  0  0  0  0  0
    2.8238    1.7071   -1.3443 O   0  0  0  0  0  0  0  0  0  0  0  0
    3.3703   -0.1681   -0.3729 O   0  0  0  0  0  0  0  0  0  0  0  0
    0.8302   -0.7477    0.3785 C   0  0  0  0  0  0  0  0  0  0  0  0
   -0.4773   -1.0490    0.5777 C   0  0  0  0  0  0  0  0  0  0  0  0
   -1.8804    1.8534   -0.6921 H   0  0  0  0  0  0  0  0  0  0  0  0
    0.5496    2.3466   -1.0971 H   0  0  0  0  0  0  0  0  0  0  0  0
    1.6272   -1.4184    0.6676 H   0  0  0  0  0  0  0  0  0  0  0  0
   -0.7844   -1.9962    1.0072 H   0  0  0  0  0  0  0  0  0  0  0  0
   -1.0816    2.5577    1.5257 Cl  0  0  0  0  0  0  0  0  0  0  0  0
  1  2  1  6  0  0  0
  1 11  1  0  0  0  0
  3  2  1  0  0  0  0
  4 12  1  6  0  0  0
  4  1  1  0  0  0  0
  4 16  1  0  0  0  0
  5  6  2  0  0  0  0
  5  4  1  0  0  0  0
  6 10  1  0  0  0  0
  7  9  2  0  0  0  0
  7  6  1  0  0  0  0
  8  7  2  0  0  0  0
 10 11  2  0  0  0  0
 10 14  1  0  0  0  0
 11 15  1  0  0  0  0
 13  5  1  0  0  0  0
M  RAD  3   1   2   2   2   3   3
M  END
