Coordinates from ORCA-job 4-NO2PhN2+~Cl-_B3LYPG-6-31G_dp-NX-Scan-d89-09-n800
 OpenBabel11261920193D

 16 16  0  0  1  0  0  0  0  0999 V2000
   -1.4332   -0.1977    0.0415 C   0  0  0  0  0  0  0  0  0  0  0  0
   -2.7086   -0.4477    0.2638 N   0  0  0  0  0  0  0  0  0  0  0  0
   -3.8240   -0.5174    0.4666 N   0  0  0  0  0  0  0  0  0  0  0  0
   -1.1364    1.2119   -0.3130 C   0  0  2  0  0  0  0  0  0  0  0  0
    0.2974    1.4275   -0.5835 C   0  0  0  0  0  0  0  0  0  0  0  0
    1.2065    0.4689   -0.2954 C   0  0  0  0  0  0  0  0  0  0  0  0
    2.6343    0.7683   -0.5586 N   0  0  0  0  0  0  0  0  0  0  0  0
    2.9166    1.8643   -1.0346 O   0  0  0  0  0  0  0  0  0  0  0  0
    3.4472   -0.1106   -0.2788 O   0  0  0  0  0  0  0  0  0  0  0  0
    0.8865   -0.8350    0.2214 C   0  0  0  0  0  0  0  0  0  0  0  0
   -0.4229   -1.1574    0.3807 C   0  0  0  0  0  0  0  0  0  0  0  0
   -1.7860    1.6254   -1.0824 H   0  0  0  0  0  0  0  0  0  0  0  0
    0.6165    2.3779   -0.9907 H   0  0  0  0  0  0  0  0  0  0  0  0
    1.6862   -1.5225    0.4555 H   0  0  0  0  0  0  0  0  0  0  0  0
   -0.7261   -2.1267    0.7611 H   0  0  0  0  0  0  0  0  0  0  0  0
   -1.7073    2.3492    1.1762 Cl  0  0  0  0  0  0  0  0  0  0  0  0
  1  2  1  0  0  0  0
  1 11  2  0  0  0  0
  2  3  1  0  0  0  0
  4 12  1  6  0  0  0
  4  1  1  0  0  0  0
  4 16  1  0  0  0  0
  5  4  1  0  0  0  0
  5  6  2  0  0  0  0
  6 10  1  0  0  0  0
  7  6  1  0  0  0  0
  7  9  2  0  0  0  0
  8  7  2  0  0  0  0
 10 11  1  0  0  0  0
 10 14  1  0  0  0  0
 11 15  1  0  0  0  0
 13  5  1  0  0  0  0
M  RAD  3   2   2   3   3  10   2
M  END
