Coordinates from ORCA-job 4-NO2PhN2+~Cl-_B3LYPG-6-31G_dp-NX-Scan-d89-09-n800
 OpenBabel11261920193D

 16 15  0  0  0  0  0  0  0  0999 V2000
   -1.5647   -0.5345   -0.0259 C   0  0  0  0  0  0  0  0  0  0  0  0
   -2.8057   -1.0638    0.0505 N   0  0  0  0  0  0  0  0  0  0  0  0
   -3.8425   -1.5129    0.1154 N   0  0  0  0  0  0  0  0  0  0  0  0
   -1.4207    0.8513   -0.3181 C   0  0  0  0  0  0  0  0  0  0  0  0
   -0.1472    1.3689   -0.4254 C   0  0  0  0  0  0  0  0  0  0  0  0
    0.9538    0.5172   -0.2225 C   0  0  0  0  0  0  0  0  0  0  0  0
    2.2804    1.0588   -0.3536 N   0  0  0  0  0  0  0  0  0  0  0  0
    2.3571    2.1444   -0.9513 O   0  0  0  0  0  0  0  0  0  0  0  0
    3.2261    0.4267    0.1402 O   0  0  0  0  0  0  0  0  0  0  0  0
    0.8108   -0.8401    0.1137 C   0  0  0  0  0  0  0  0  0  0  0  0
   -0.4489   -1.3885    0.2000 C   0  0  0  0  0  0  0  0  0  0  0  0
   -2.2975    1.4768   -0.4405 H   0  0  0  0  0  0  0  0  0  0  0  0
    0.0361    2.4247   -0.6074 H   0  0  0  0  0  0  0  0  0  0  0  0
    1.7031   -1.4270    0.2927 H   0  0  0  0  0  0  0  0  0  0  0  0
   -0.6014   -2.4354    0.4356 H   0  0  0  0  0  0  0  0  0  0  0  0
    1.7080    4.1119    0.6263 Cl  0  0  0  0  0  0  0  0  0  0  0  0
  1  2  1  0  0  0  0
  1 11  2  0  0  0  0
  2  3  1  0  0  0  0
  4  1  1  0  0  0  0
  5  4  2  0  0  0  0
  5  6  1  0  0  0  0
  6 10  2  0  0  0  0
  7  6  1  0  0  0  0
  7  9  2  0  0  0  0
  8  7  2  0  0  0  0
 10 11  1  0  0  0  0
 10 14  1  0  0  0  0
 11 15  1  0  0  0  0
 12  4  1  0  0  0  0
 13  5  1  0  0  0  0
M  RAD  3   2   2   3   3  16   2
M  END
