Coordinates from ORCA-job 4-NO2PhN2+~Cl-_B3LYPG-6-31G_dp-NX-Scan-d89-09-n800
 OpenBabel11261920193D

 16 16  0  0  1  0  0  0  0  0999 V2000
   -1.4551   -0.1424    0.0950 C   0  0  0  0  0  0  0  0  0  0  0  0
   -2.7216   -0.5173    0.0771 N   0  0  0  0  0  0  0  0  0  0  0  0
   -3.8079   -0.8550    0.0415 N   0  0  0  0  0  0  0  0  0  0  0  0
   -1.1317    1.2684   -0.2076 C   0  0  2  0  0  0  0  0  0  0  0  0
    0.2808    1.4354   -0.5977 C   0  0  0  0  0  0  0  0  0  0  0  0
    1.1884    0.4795   -0.2961 C   0  0  0  0  0  0  0  0  0  0  0  0
    2.6058    0.7320   -0.6373 N   0  0  0  0  0  0  0  0  0  0  0  0
    2.8837    1.7824   -1.2096 O   0  0  0  0  0  0  0  0  0  0  0  0
    3.4173   -0.1365   -0.3217 O   0  0  0  0  0  0  0  0  0  0  0  0
    0.8626   -0.7834    0.3112 C   0  0  0  0  0  0  0  0  0  0  0  0
   -0.4471   -1.0953    0.4826 C   0  0  0  0  0  0  0  0  0  0  0  0
   -1.8356    1.7485   -0.8828 H   0  0  0  0  0  0  0  0  0  0  0  0
    0.5931    2.3597   -1.0659 H   0  0  0  0  0  0  0  0  0  0  0  0
    1.6589   -1.4633    0.5780 H   0  0  0  0  0  0  0  0  0  0  0  0
   -0.7541   -2.0543    0.8852 H   0  0  0  0  0  0  0  0  0  0  0  0
   -1.3907    2.4200    1.3778 Cl  0  0  0  0  0  0  0  0  0  0  0  0
  1 11  2  0  0  0  0
  2  1  1  0  0  0  0
  3  2  1  0  0  0  0
  4 12  1  6  0  0  0
  4  1  1  0  0  0  0
  4 16  1  0  0  0  0
  5  6  2  0  0  0  0
  5  4  1  0  0  0  0
  6 10  1  0  0  0  0
  7  9  2  0  0  0  0
  7  6  1  0  0  0  0
  8  7  2  0  0  0  0
 10 11  1  0  0  0  0
 10 14  1  0  0  0  0
 11 15  1  0  0  0  0
 13  5  1  0  0  0  0
M  RAD  3   2   2   3   3  10   2
M  END
