Coordinates from ORCA-job 4-NO2PhN2+~Cl-_B3LYPG-6-31G_dp-NX-Scan-d89-09-n800
 OpenBabel11261920193D

 16 16  0  0  1  0  0  0  0  0999 V2000
   -1.4335   -0.1970    0.0418 C   0  0  0  0  0  0  0  0  0  0  0  0
   -2.7091   -0.4489    0.2614 N   0  0  0  0  0  0  0  0  0  0  0  0
   -3.8248   -0.5233    0.4614 N   0  0  0  0  0  0  0  0  0  0  0  0
   -1.1363    1.2128   -0.3117 C   0  0  2  0  0  0  0  0  0  0  0  0
    0.2974    1.4278   -0.5834 C   0  0  0  0  0  0  0  0  0  0  0  0
    1.2065    0.4693   -0.2948 C   0  0  0  0  0  0  0  0  0  0  0  0
    2.6342    0.7682   -0.5586 N   0  0  0  0  0  0  0  0  0  0  0  0
    2.9164    1.8628   -1.0380 O   0  0  0  0  0  0  0  0  0  0  0  0
    3.4468   -0.1116   -0.2804 O   0  0  0  0  0  0  0  0  0  0  0  0
    0.8863   -0.8341    0.2229 C   0  0  0  0  0  0  0  0  0  0  0  0
   -0.4232   -1.1565    0.3819 C   0  0  0  0  0  0  0  0  0  0  0  0
   -1.7864    1.6274   -1.0801 H   0  0  0  0  0  0  0  0  0  0  0  0
    0.6166    2.3779   -0.9913 H   0  0  0  0  0  0  0  0  0  0  0  0
    1.6858   -1.5215    0.4576 H   0  0  0  0  0  0  0  0  0  0  0  0
   -0.7266   -2.1257    0.7623 H   0  0  0  0  0  0  0  0  0  0  0  0
   -1.7033    2.3506    1.1789 Cl  0  0  0  0  0  0  0  0  0  0  0  0
  1  2  1  0  0  0  0
  1 11  2  0  0  0  0
  2  3  1  0  0  0  0
  4 12  1  6  0  0  0
  4  1  1  0  0  0  0
  4 16  1  0  0  0  0
  5  4  1  0  0  0  0
  5  6  2  0  0  0  0
  6 10  1  0  0  0  0
  7  6  1  0  0  0  0
  7  9  2  0  0  0  0
  8  7  2  0  0  0  0
 10 11  1  0  0  0  0
 10 14  1  0  0  0  0
 11 15  1  0  0  0  0
 13  5  1  0  0  0  0
M  RAD  3   2   2   3   3  10   2
M  END
