Coordinates from ORCA-job 4-NO2PhN2+~Cl-_B3LYPG-6-31G_dp-NX-Scan-d89-09-n800
 OpenBabel11261920193D

 16 16  0  0  0  0  0  0  0  0999 V2000
   -1.2405    0.1163    0.5509 C   0  0  0  0  0  0  0  0  0  0  0  0
   -2.5216   -0.0596    1.1510 N   0  0  0  0  0  0  0  0  0  0  0  0
   -3.6081    0.1925    0.6344 N   0  0  0  0  0  0  0  0  0  0  0  0
   -0.7368    1.3978    0.2879 C   0  0  0  0  0  0  0  0  0  0  0  0
    0.5626    1.5365   -0.1865 C   0  0  0  0  0  0  0  0  0  0  0  0
    1.3309    0.3919   -0.3934 C   0  0  0  0  0  0  0  0  0  0  0  0
    2.7030    0.5396   -0.9054 N   0  0  0  0  0  0  0  0  0  0  0  0
    3.1065    1.6800   -1.1282 O   0  0  0  0  0  0  0  0  0  0  0  0
    3.3583   -0.4865   -1.0788 O   0  0  0  0  0  0  0  0  0  0  0  0
    0.8468   -0.8868   -0.1226 C   0  0  0  0  0  0  0  0  0  0  0  0
   -0.4447   -1.0223    0.3742 C   0  0  0  0  0  0  0  0  0  0  0  0
   -1.3539    2.2720    0.4614 H   0  0  0  0  0  0  0  0  0  0  0  0
    0.9867    2.5089   -0.4026 H   0  0  0  0  0  0  0  0  0  0  0  0
    1.4846   -1.7452   -0.2908 H   0  0  0  0  0  0  0  0  0  0  0  0
   -0.8461   -1.9992    0.6201 H   0  0  0  0  0  0  0  0  0  0  0  0
   -3.6809    0.7425   -0.9417 Cl  0  0  0  0  0  0  0  0  0  0  0  0
  1  2  1  0  0  0  0
  3  2  2  0  0  0  0
  4 12  1  0  0  0  0
  4  1  2  0  0  0  0
  5  4  1  0  0  0  0
  6  5  2  0  0  0  0
  6 10  1  0  0  0  0
  7  6  1  0  0  0  0
  8  7  2  0  0  0  0
  9  7  2  0  0  0  0
 10 11  2  0  0  0  0
 11  1  1  0  0  0  0
 11 15  1  0  0  0  0
 13  5  1  0  0  0  0
 14 10  1  0  0  0  0
 16  3  1  0  0  0  0
M  END
