Coordinates from ORCA-job 4-NO2PhN2+~Cl-_B3LYPG-6-31G_dp-NX-Scan-d89-09-n800
 OpenBabel11261920183D

 16 15  0  0  0  0  0  0  0  0999 V2000
   -1.5726   -0.5567   -0.0155 C   0  0  0  0  0  0  0  0  0  0  0  0
   -2.8305   -1.0701    0.0236 N   0  0  0  0  0  0  0  0  0  0  0  0
   -3.8523   -1.5613    0.0616 N   0  0  0  0  0  0  0  0  0  0  0  0
   -1.3663    0.8450   -0.1388 C   0  0  0  0  0  0  0  0  0  0  0  0
   -0.0640    1.3208   -0.1752 C   0  0  0  0  0  0  0  0  0  0  0  0
    0.9919    0.4024   -0.0903 C   0  0  0  0  0  0  0  0  0  0  0  0
    2.3790    0.8924   -0.1284 N   0  0  0  0  0  0  0  0  0  0  0  0
    2.5412    2.1020   -0.2281 O   0  0  0  0  0  0  0  0  0  0  0  0
    3.2692    0.0403   -0.0563 O   0  0  0  0  0  0  0  0  0  0  0  0
    0.7900   -0.9791    0.0311 C   0  0  0  0  0  0  0  0  0  0  0  0
   -0.4945   -1.4785    0.0707 C   0  0  0  0  0  0  0  0  0  0  0  0
   -2.2110    1.5213   -0.2028 H   0  0  0  0  0  0  0  0  0  0  0  0
    0.1531    2.3843   -0.2686 H   0  0  0  0  0  0  0  0  0  0  0  0
    1.6527   -1.6303    0.0924 H   0  0  0  0  0  0  0  0  0  0  0  0
   -0.6888   -2.5408    0.1654 H   0  0  0  0  0  0  0  0  0  0  0  0
    1.2498    5.4867   -0.5112 Cl  0  0  0  0  0  0  0  0  0  0  0  0
  1  2  1  0  0  0  0
  1 11  2  0  0  0  0
  2  3  1  0  0  0  0
  4  1  1  0  0  0  0
  5  4  2  0  0  0  0
  5  6  1  0  0  0  0
  6 10  2  0  0  0  0
  7  6  1  0  0  0  0
  7  9  2  0  0  0  0
  8  7  2  0  0  0  0
 10 11  1  0  0  0  0
 10 14  1  0  0  0  0
 11 15  1  0  0  0  0
 12  4  1  0  0  0  0
 13  5  1  0  0  0  0
M  RAD  3   2   2   3   3  16   2
M  END
