Coordinates from ORCA-job 4-NO2PhN2+~Cl-_B3LYPG-6-31G_dp-NX-Scan-d89-09-n800
 OpenBabel11261920193D

 16 15  0  0  0  0  0  0  0  0999 V2000
   -1.2243   -0.1526    0.2807 C   0  0  0  0  0  0  0  0  0  0  0  0
   -2.5628   -0.4313    0.6238 N   0  0  0  0  0  0  0  0  0  0  0  0
   -3.6372   -0.0696    0.7600 N   0  0  0  0  0  0  0  0  0  0  0  0
   -0.8936    1.1528   -0.1049 C   0  0  0  0  0  0  0  0  0  0  0  0
    0.4359    1.3983   -0.4391 C   0  0  0  0  0  0  0  0  0  0  0  0
    1.3556    0.3535   -0.3748 C   0  0  0  0  0  0  0  0  0  0  0  0
    2.7684    0.6288   -0.7325 N   0  0  0  0  0  0  0  0  0  0  0  0
    3.0484    1.7742   -1.0692 O   0  0  0  0  0  0  0  0  0  0  0  0
    3.5559   -0.3108   -0.6656 O   0  0  0  0  0  0  0  0  0  0  0  0
    1.0152   -0.9440    0.0106 C   0  0  0  0  0  0  0  0  0  0  0  0
   -0.3056   -1.2072    0.3470 C   0  0  0  0  0  0  0  0  0  0  0  0
   -1.6739    1.9196   -0.1293 H   0  0  0  0  0  0  0  0  0  0  0  0
    0.7638    2.3834   -0.7469 H   0  0  0  0  0  0  0  0  0  0  0  0
    1.7775   -1.7116    0.0401 H   0  0  0  0  0  0  0  0  0  0  0  0
   -0.6262   -2.1961    0.6543 H   0  0  0  0  0  0  0  0  0  0  0  0
   -3.8501    2.5910    0.1757 Cl  0  0  0  0  0  0  0  0  0  0  0  0
  1 11  1  0  0  0  0
  1  2  1  0  0  0  0
  2  3  2  0  0  0  0
  4  1  2  0  0  0  0
  5  6  2  0  0  0  0
  5  4  1  0  0  0  0
  6 10  1  0  0  0  0
  7  9  2  0  0  0  0
  7  6  1  0  0  0  0
  8  7  2  0  0  0  0
 10 14  1  0  0  0  0
 10 11  2  0  0  0  0
 11 15  1  0  0  0  0
 12  4  1  0  0  0  0
 13  5  1  0  0  0  0
M  RAD  2   3   2  16   2
M  END
