Coordinates from ORCA-job 4-NO2PhN2+~Cl-_B3LYPG-6-31G_dp-NX-Scan-d89-09-n800
 OpenBabel11261920193D

 16 15  0  0  0  0  0  0  0  0999 V2000
   -1.4886   -0.3505    0.0137 C   0  0  0  0  0  0  0  0  0  0  0  0
   -2.7754   -0.8007    0.0426 N   0  0  0  0  0  0  0  0  0  0  0  0
   -3.8019   -1.2690    0.0677 N   0  0  0  0  0  0  0  0  0  0  0  0
   -1.1974    1.0124   -0.2488 C   0  0  0  0  0  0  0  0  0  0  0  0
    0.1401    1.3733   -0.3871 C   0  0  0  0  0  0  0  0  0  0  0  0
    1.1220    0.3976   -0.2190 C   0  0  0  0  0  0  0  0  0  0  0  0
    2.5340    0.7643   -0.4225 N   0  0  0  0  0  0  0  0  0  0  0  0
    2.7667    1.8878   -0.8515 O   0  0  0  0  0  0  0  0  0  0  0  0
    3.3764   -0.0954   -0.1547 O   0  0  0  0  0  0  0  0  0  0  0  0
    0.8350   -0.9338    0.1249 C   0  0  0  0  0  0  0  0  0  0  0  0
   -0.4775   -1.3328    0.2300 C   0  0  0  0  0  0  0  0  0  0  0  0
   -1.9693    1.7697   -0.3387 H   0  0  0  0  0  0  0  0  0  0  0  0
    0.3829    2.4234   -0.5600 H   0  0  0  0  0  0  0  0  0  0  0  0
    1.6517   -1.6273    0.2802 H   0  0  0  0  0  0  0  0  0  0  0  0
   -0.7480   -2.3553    0.4656 H   0  0  0  0  0  0  0  0  0  0  0  0
   -0.4036    4.3147    0.5873 Cl  0  0  0  0  0  0  0  0  0  0  0  0
  1  2  1  0  0  0  0
  1 11  2  0  0  0  0
  2  3  1  0  0  0  0
  4  1  1  0  0  0  0
  5  4  2  0  0  0  0
  5  6  1  0  0  0  0
  6 10  2  0  0  0  0
  7  6  1  0  0  0  0
  7  9  2  0  0  0  0
  8  7  2  0  0  0  0
 10 11  1  0  0  0  0
 10 14  1  0  0  0  0
 11 15  1  0  0  0  0
 12  4  1  0  0  0  0
 13  5  1  0  0  0  0
M  RAD  3   2   2   3   3  16   2
M  END
