Coordinates from ORCA-job 4-NO2PhN2+~Cl-_B3LYPG-6-31G_dp-NX-Scan-d89-09-n800
 OpenBabel11261920193D

 16 15  0  0  0  0  0  0  0  0999 V2000
   -1.4848   -0.2685    0.0288 C   0  0  0  0  0  0  0  0  0  0  0  0
   -2.7676   -0.7230    0.0118 N   0  0  0  0  0  0  0  0  0  0  0  0
   -3.7824   -1.2168   -0.0293 N   0  0  0  0  0  0  0  0  0  0  0  0
   -1.1793    1.0662   -0.3421 C   0  0  0  0  0  0  0  0  0  0  0  0
    0.1710    1.3880   -0.5203 C   0  0  0  0  0  0  0  0  0  0  0  0
    1.1362    0.4218   -0.2689 C   0  0  0  0  0  0  0  0  0  0  0  0
    2.5469    0.7532   -0.5085 N   0  0  0  0  0  0  0  0  0  0  0  0
    2.7951    1.8457   -1.0091 O   0  0  0  0  0  0  0  0  0  0  0  0
    3.3823   -0.0962   -0.1921 O   0  0  0  0  0  0  0  0  0  0  0  0
    0.8307   -0.8683    0.2119 C   0  0  0  0  0  0  0  0  0  0  0  0
   -0.4816   -1.2372    0.3563 C   0  0  0  0  0  0  0  0  0  0  0  0
   -1.9485    1.8033   -0.5358 H   0  0  0  0  0  0  0  0  0  0  0  0
    0.4502    2.3845   -0.8337 H   0  0  0  0  0  0  0  0  0  0  0  0
    1.6396   -1.5509    0.4389 H   0  0  0  0  0  0  0  0  0  0  0  0
   -0.7676   -2.2264    0.6928 H   0  0  0  0  0  0  0  0  0  0  0  0
   -0.5931    3.7029    1.1291 Cl  0  0  0  0  0  0  0  0  0  0  0  0
  1 11  2  0  0  0  0
  2  1  1  0  0  0  0
  3  2  1  0  0  0  0
  4  1  1  0  0  0  0
  5  4  2  0  0  0  0
  5  6  1  0  0  0  0
  6 10  2  0  0  0  0
  7  6  1  0  0  0  0
  7  9  2  0  0  0  0
  8  7  2  0  0  0  0
 10 11  1  0  0  0  0
 10 14  1  0  0  0  0
 11 15  1  0  0  0  0
 12  4  1  0  0  0  0
 13  5  1  0  0  0  0
M  RAD  3   2   2   3   3  16   2
M  END
