Coordinates from ORCA-job 4-NO2PhN2+~Cl-_B3LYPG-6-31G_dp-NX-Scan-d89-09-n800
 OpenBabel11261920193D

 16 16  0  0  0  0  0  0  0  0999 V2000
   -1.2345    0.0673    0.5224 C   0  0  0  0  0  0  0  0  0  0  0  0
   -2.5193   -0.1466    1.0891 N   0  0  0  0  0  0  0  0  0  0  0  0
   -3.6141    0.1917    0.7070 N   0  0  0  0  0  0  0  0  0  0  0  0
   -0.7626    1.3563    0.2390 C   0  0  0  0  0  0  0  0  0  0  0  0
    0.5408    1.5130   -0.2193 C   0  0  0  0  0  0  0  0  0  0  0  0
    1.3366    0.3821   -0.3929 C   0  0  0  0  0  0  0  0  0  0  0  0
    2.7140    0.5522   -0.8896 N   0  0  0  0  0  0  0  0  0  0  0  0
    3.0927    1.6970   -1.1290 O   0  0  0  0  0  0  0  0  0  0  0  0
    3.3942   -0.4619   -1.0320 O   0  0  0  0  0  0  0  0  0  0  0  0
    0.8813   -0.9027   -0.1023 C   0  0  0  0  0  0  0  0  0  0  0  0
   -0.4114   -1.0571    0.3846 C   0  0  0  0  0  0  0  0  0  0  0  0
   -1.4030    2.2177    0.3820 H   0  0  0  0  0  0  0  0  0  0  0  0
    0.9461    2.4901   -0.4493 H   0  0  0  0  0  0  0  0  0  0  0  0
    1.5417   -1.7486   -0.2443 H   0  0  0  0  0  0  0  0  0  0  0  0
   -0.7951   -2.0359    0.6495 H   0  0  0  0  0  0  0  0  0  0  0  0
   -3.7603    1.0636   -0.8852 Cl  0  0  0  0  0  0  0  0  0  0  0  0
  1  2  1  0  0  0  0
  3  2  2  0  0  0  0
  4 12  1  0  0  0  0
  4  1  2  0  0  0  0
  5  4  1  0  0  0  0
  6  5  2  0  0  0  0
  6 10  1  0  0  0  0
  7  6  1  0  0  0  0
  8  7  2  0  0  0  0
  9  7  2  0  0  0  0
 10 11  2  0  0  0  0
 11  1  1  0  0  0  0
 11 15  1  0  0  0  0
 13  5  1  0  0  0  0
 14 10  1  0  0  0  0
 16  3  1  0  0  0  0
M  END
