Coordinates from ORCA-job 4-NO2PhN2+~Cl-_B3LYPG-6-31G_dp-NX-Scan-d89-09-n800
 OpenBabel11261920193D

 16 15  0  0  0  0  0  0  0  0999 V2000
   -1.2301   -0.1248    0.2757 C   0  0  0  0  0  0  0  0  0  0  0  0
   -2.5670   -0.4113    0.6211 N   0  0  0  0  0  0  0  0  0  0  0  0
   -3.6383   -0.0143    0.7484 N   0  0  0  0  0  0  0  0  0  0  0  0
   -0.8782    1.1746   -0.1126 C   0  0  0  0  0  0  0  0  0  0  0  0
    0.4536    1.4076   -0.4444 C   0  0  0  0  0  0  0  0  0  0  0  0
    1.3638    0.3545   -0.3767 C   0  0  0  0  0  0  0  0  0  0  0  0
    2.7788    0.6156   -0.7320 N   0  0  0  0  0  0  0  0  0  0  0  0
    3.0712    1.7582   -1.0695 O   0  0  0  0  0  0  0  0  0  0  0  0
    3.5580   -0.3309   -0.6626 O   0  0  0  0  0  0  0  0  0  0  0  0
    1.0079   -0.9376    0.0103 C   0  0  0  0  0  0  0  0  0  0  0  0
   -0.3171   -1.1845    0.3440 C   0  0  0  0  0  0  0  0  0  0  0  0
   -1.6442    1.9490   -0.1422 H   0  0  0  0  0  0  0  0  0  0  0  0
    0.7921    2.3887   -0.7533 H   0  0  0  0  0  0  0  0  0  0  0  0
    1.7611   -1.7141    0.0433 H   0  0  0  0  0  0  0  0  0  0  0  0
   -0.6486   -2.1694    0.6525 H   0  0  0  0  0  0  0  0  0  0  0  0
   -3.9159    2.4171    0.2276 Cl  0  0  0  0  0  0  0  0  0  0  0  0
  1 11  1  0  0  0  0
  1  2  1  0  0  0  0
  2  3  2  0  0  0  0
  4  1  2  0  0  0  0
  5  6  2  0  0  0  0
  5  4  1  0  0  0  0
  6 10  1  0  0  0  0
  7  9  2  0  0  0  0
  7  6  1  0  0  0  0
  8  7  2  0  0  0  0
 10 14  1  0  0  0  0
 10 11  2  0  0  0  0
 11 15  1  0  0  0  0
 12  4  1  0  0  0  0
 13  5  1  0  0  0  0
M  RAD  2   3   2  16   2
M  END
