Coordinates from ORCA-job 4-NO2PhN2+~Cl-_B3LYPG-6-31G_dp-NX-Scan-d89-09-n800
 OpenBabel11261920193D

 16 16  0  0  1  0  0  0  0  0999 V2000
   -1.4464   -0.1611    0.0724 C   0  0  0  0  0  0  0  0  0  0  0  0
   -2.7218   -0.4925    0.1443 N   0  0  0  0  0  0  0  0  0  0  0  0
   -3.8292   -0.7457    0.1955 N   0  0  0  0  0  0  0  0  0  0  0  0
   -1.1321    1.2496   -0.2461 C   0  0  2  0  0  0  0  0  0  0  0  0
    0.2892    1.4331   -0.5951 C   0  0  0  0  0  0  0  0  0  0  0  0
    1.1969    0.4767   -0.2957 C   0  0  0  0  0  0  0  0  0  0  0  0
    2.6188    0.7456   -0.6089 N   0  0  0  0  0  0  0  0  0  0  0  0
    2.8996    1.8119   -1.1494 O   0  0  0  0  0  0  0  0  0  0  0  0
    3.4299   -0.1276   -0.3058 O   0  0  0  0  0  0  0  0  0  0  0  0
    0.8718   -0.8005    0.2807 C   0  0  0  0  0  0  0  0  0  0  0  0
   -0.4381   -1.1159    0.4457 C   0  0  0  0  0  0  0  0  0  0  0  0
   -1.8186    1.7077   -0.9544 H   0  0  0  0  0  0  0  0  0  0  0  0
    0.6046    2.3663   -1.0430 H   0  0  0  0  0  0  0  0  0  0  0  0
    1.6686   -1.4837    0.5372 H   0  0  0  0  0  0  0  0  0  0  0  0
   -0.7446   -2.0785    0.8400 H   0  0  0  0  0  0  0  0  0  0  0  0
   -1.5016    2.3928    1.3124 Cl  0  0  0  0  0  0  0  0  0  0  0  0
  1  2  1  0  0  0  0
  1 11  2  0  0  0  0
  2  3  1  0  0  0  0
  4 12  1  6  0  0  0
  4  1  1  0  0  0  0
  4 16  1  0  0  0  0
  5  6  2  0  0  0  0
  5  4  1  0  0  0  0
  6 10  1  0  0  0  0
  7  9  2  0  0  0  0
  7  6  1  0  0  0  0
  8  7  2  0  0  0  0
 10 11  1  0  0  0  0
 10 14  1  0  0  0  0
 11 15  1  0  0  0  0
 13  5  1  0  0  0  0
M  RAD  3   2   2   3   3  10   2
M  END
