Coordinates from ORCA-job 4-NO2PhN2+~Cl-_B3LYPG-6-31G_dp-NX-Scan-d89-09-n800
 OpenBabel11261920193D

 16 16  0  0  0  0  0  0  0  0999 V2000
   -1.3201   -0.0147    0.2540 C   0  0  0  0  0  0  0  0  0  0  0  0
   -2.6171   -0.4564    0.6116 N   0  0  0  0  0  0  0  0  0  0  0  0
   -3.5837    0.4410    0.6317 N   0  0  0  0  0  0  0  0  0  0  0  0
   -0.8293    1.2832   -0.0511 C   0  0  0  0  0  0  0  0  0  0  0  0
    0.5146    1.4705   -0.3659 C   0  0  0  0  0  0  0  0  0  0  0  0
    1.3793    0.3809   -0.3835 C   0  0  0  0  0  0  0  0  0  0  0  0
    2.7902    0.5926   -0.7183 N   0  0  0  0  0  0  0  0  0  0  0  0
    3.1530    1.7419   -0.9747 O   0  0  0  0  0  0  0  0  0  0  0  0
    3.5302   -0.3921   -0.7232 O   0  0  0  0  0  0  0  0  0  0  0  0
    0.9321   -0.9104   -0.0882 C   0  0  0  0  0  0  0  0  0  0  0  0
   -0.4012   -1.0938    0.2264 C   0  0  0  0  0  0  0  0  0  0  0  0
   -1.4775    2.1476   -0.0461 H   0  0  0  0  0  0  0  0  0  0  0  0
    0.9004    2.4548   -0.6004 H   0  0  0  0  0  0  0  0  0  0  0  0
    1.6326   -1.7357   -0.1101 H   0  0  0  0  0  0  0  0  0  0  0  0
   -0.7864   -2.0792    0.4651 H   0  0  0  0  0  0  0  0  0  0  0  0
   -3.8701    1.3481    0.5022 Cl  0  0  0  0  0  0  0  0  0  0  0  0
  1  2  1  0  0  0  0
  2  3  2  0  0  0  0
  4 12  1  0  0  0  0
  4  1  2  0  0  0  0
  5  4  1  0  0  0  0
  6  5  2  0  0  0  0
  6 10  1  0  0  0  0
  7  6  1  0  0  0  0
  8  7  2  0  0  0  0
  9  7  2  0  0  0  0
 10 11  2  0  0  0  0
 11  1  1  0  0  0  0
 11 15  1  0  0  0  0
 13  5  1  0  0  0  0
 14 10  1  0  0  0  0
 16  3  1  0  0  0  0
M  END
