Coordinates from ORCA-job 4-NO2PhN2+~Cl-_B3LYPG-6-31G_dp-NX-Scan-d89-09-n800
 OpenBabel11261920193D

 16 16  0  0  0  0  0  0  0  0999 V2000
   -1.2358    0.0768    0.5287 C   0  0  0  0  0  0  0  0  0  0  0  0
   -2.5193   -0.1298    1.1034 N   0  0  0  0  0  0  0  0  0  0  0  0
   -3.6130    0.1945    0.6939 N   0  0  0  0  0  0  0  0  0  0  0  0
   -0.7577    1.3644    0.2494 C   0  0  0  0  0  0  0  0  0  0  0  0
    0.5448    1.5177   -0.2123 C   0  0  0  0  0  0  0  0  0  0  0  0
    1.3352    0.3840   -0.3932 C   0  0  0  0  0  0  0  0  0  0  0  0
    2.7115    0.5498   -0.8931 N   0  0  0  0  0  0  0  0  0  0  0  0
    3.0951    1.6939   -1.1288 O   0  0  0  0  0  0  0  0  0  0  0  0
    3.3867   -0.4667   -1.0424 O   0  0  0  0  0  0  0  0  0  0  0  0
    0.8743   -0.8997   -0.1067 C   0  0  0  0  0  0  0  0  0  0  0  0
   -0.4180   -1.0504    0.3829 C   0  0  0  0  0  0  0  0  0  0  0  0
   -1.3932    2.2286    0.3989 H   0  0  0  0  0  0  0  0  0  0  0  0
    0.9538    2.4940   -0.4394 H   0  0  0  0  0  0  0  0  0  0  0  0
    1.5302   -1.7482   -0.2544 H   0  0  0  0  0  0  0  0  0  0  0  0
   -0.8049   -2.0289    0.6443 H   0  0  0  0  0  0  0  0  0  0  0  0
   -3.7427    0.9983   -0.9015 Cl  0  0  0  0  0  0  0  0  0  0  0  0
  1  2  1  0  0  0  0
  3  2  2  0  0  0  0
  4 12  1  0  0  0  0
  4  1  2  0  0  0  0
  5  4  1  0  0  0  0
  6  5  2  0  0  0  0
  6 10  1  0  0  0  0
  7  6  1  0  0  0  0
  8  7  2  0  0  0  0
  9  7  2  0  0  0  0
 10 11  2  0  0  0  0
 11  1  1  0  0  0  0
 11 15  1  0  0  0  0
 13  5  1  0  0  0  0
 14 10  1  0  0  0  0
 16  3  1  0  0  0  0
M  END
