Coordinates from ORCA-job 4-NO2PhN2+~Cl-_B3LYPG-6-31G_dp-NX-Scan-d89-09-n800
 OpenBabel11261920193D

 16 15  0  0  0  0  0  0  0  0999 V2000
   -1.4827   -0.2962    0.0241 C   0  0  0  0  0  0  0  0  0  0  0  0
   -2.7682   -0.7475    0.0280 N   0  0  0  0  0  0  0  0  0  0  0  0
   -3.7853   -1.2363    0.0150 N   0  0  0  0  0  0  0  0  0  0  0  0
   -1.1785    1.0494   -0.3043 C   0  0  0  0  0  0  0  0  0  0  0  0
    0.1680    1.3804   -0.4669 C   0  0  0  0  0  0  0  0  0  0  0  0
    1.1367    0.4059   -0.2510 C   0  0  0  0  0  0  0  0  0  0  0  0
    2.5495    0.7474   -0.4766 N   0  0  0  0  0  0  0  0  0  0  0  0
    2.7952    1.8533   -0.9456 O   0  0  0  0  0  0  0  0  0  0  0  0
    3.3841   -0.1129   -0.1887 O   0  0  0  0  0  0  0  0  0  0  0  0
    0.8342   -0.9020    0.1733 C   0  0  0  0  0  0  0  0  0  0  0  0
   -0.4800   -1.2768    0.3041 C   0  0  0  0  0  0  0  0  0  0  0  0
   -1.9412    1.8065   -0.4466 H   0  0  0  0  0  0  0  0  0  0  0  0
    0.4366    2.4006   -0.7170 H   0  0  0  0  0  0  0  0  0  0  0  0
    1.6433   -1.5938    0.3699 H   0  0  0  0  0  0  0  0  0  0  0  0
   -0.7640   -2.2792    0.6013 H   0  0  0  0  0  0  0  0  0  0  0  0
   -0.6007    3.9796    0.9108 Cl  0  0  0  0  0  0  0  0  0  0  0  0
  1  2  1  0  0  0  0
  1 11  2  0  0  0  0
  3  2  1  0  0  0  0
  4  1  1  0  0  0  0
  5  4  2  0  0  0  0
  5  6  1  0  0  0  0
  6 10  2  0  0  0  0
  7  6  1  0  0  0  0
  7  9  2  0  0  0  0
  8  7  2  0  0  0  0
 10 11  1  0  0  0  0
 10 14  1  0  0  0  0
 11 15  1  0  0  0  0
 12  4  1  0  0  0  0
 13  5  1  0  0  0  0
M  RAD  3   2   2   3   3  16   2
M  END
