Coordinates from ORCA-job 4-NO2PhN2+~Cl-_B3LYPG-6-31G_dp-NX-Scan-d89-09-n800
 OpenBabel11261920183D

 16 15  0  0  0  0  0  0  0  0999 V2000
   -1.5709   -0.5488   -0.0162 C   0  0  0  0  0  0  0  0  0  0  0  0
   -2.8295   -1.0617    0.0228 N   0  0  0  0  0  0  0  0  0  0  0  0
   -3.8500   -1.5553    0.0611 N   0  0  0  0  0  0  0  0  0  0  0  0
   -1.3615    0.8524   -0.1390 C   0  0  0  0  0  0  0  0  0  0  0  0
   -0.0580    1.3260   -0.1751 C   0  0  0  0  0  0  0  0  0  0  0  0
    0.9954    0.4048   -0.0902 C   0  0  0  0  0  0  0  0  0  0  0  0
    2.3844    0.8903   -0.1277 N   0  0  0  0  0  0  0  0  0  0  0  0
    2.5505    2.0994   -0.2255 O   0  0  0  0  0  0  0  0  0  0  0  0
    3.2718    0.0350   -0.0570 O   0  0  0  0  0  0  0  0  0  0  0  0
    0.7905   -0.9763    0.0307 C   0  0  0  0  0  0  0  0  0  0  0  0
   -0.4950   -1.4731    0.0699 C   0  0  0  0  0  0  0  0  0  0  0  0
   -2.2047    1.5307   -0.2031 H   0  0  0  0  0  0  0  0  0  0  0  0
    0.1610    2.3898   -0.2683 H   0  0  0  0  0  0  0  0  0  0  0  0
    1.6518   -1.6294    0.0918 H   0  0  0  0  0  0  0  0  0  0  0  0
   -0.6915   -2.5350    0.1643 H   0  0  0  0  0  0  0  0  0  0  0  0
    1.2026    5.4297   -0.5088 Cl  0  0  0  0  0  0  0  0  0  0  0  0
  1  2  1  0  0  0  0
  1 11  2  0  0  0  0
  2  3  1  0  0  0  0
  4  1  1  0  0  0  0
  5  4  2  0  0  0  0
  5  6  1  0  0  0  0
  6 10  2  0  0  0  0
  7  6  1  0  0  0  0
  7  9  2  0  0  0  0
  8  7  2  0  0  0  0
 10 11  1  0  0  0  0
 10 14  1  0  0  0  0
 11 15  1  0  0  0  0
 12  4  1  0  0  0  0
 13  5  1  0  0  0  0
M  RAD  3   2   2   3   3  16   2
M  END
