Coordinates from ORCA-job 4-NO2PhN2+~Cl-_B3LYPG-6-31G_dp-NX-Scan-d89-09-n800
 OpenBabel11261920193D

 16 16  0  0  0  0  0  0  0  0999 V2000
   -1.2502   -0.0742    0.2719 C   0  0  0  0  0  0  0  0  0  0  0  0
   -2.5759   -0.3997    0.6296 N   0  0  0  0  0  0  0  0  0  0  0  0
   -3.6507    0.0542    0.7400 N   0  0  0  0  0  0  0  0  0  0  0  0
   -0.8574    1.2150   -0.1205 C   0  0  0  0  0  0  0  0  0  0  0  0
    0.4784    1.4252   -0.4496 C   0  0  0  0  0  0  0  0  0  0  0  0
    1.3728    0.3589   -0.3801 C   0  0  0  0  0  0  0  0  0  0  0  0
    2.7905    0.5968   -0.7320 N   0  0  0  0  0  0  0  0  0  0  0  0
    3.1038    1.7347   -1.0693 O   0  0  0  0  0  0  0  0  0  0  0  0
    3.5556   -0.3616   -0.6619 O   0  0  0  0  0  0  0  0  0  0  0  0
    0.9900   -0.9238    0.0079 C   0  0  0  0  0  0  0  0  0  0  0  0
   -0.3411   -1.1406    0.3385 C   0  0  0  0  0  0  0  0  0  0  0  0
   -1.5869    2.0142   -0.1612 H   0  0  0  0  0  0  0  0  0  0  0  0
    0.8340    2.4000   -0.7586 H   0  0  0  0  0  0  0  0  0  0  0  0
    1.7262   -1.7163    0.0448 H   0  0  0  0  0  0  0  0  0  0  0  0
   -0.6914   -2.1185    0.6485 H   0  0  0  0  0  0  0  0  0  0  0  0
   -3.9507    2.1142    0.2819 Cl  0  0  0  0  0  0  0  0  0  0  0  0
  1 11  1  0  0  0  0
  1  2  1  0  0  0  0
  2  3  2  0  0  0  0
  4  1  2  0  0  0  0
  5  6  2  0  0  0  0
  5  4  1  0  0  0  0
  6 10  1  0  0  0  0
  7  9  2  0  0  0  0
  7  6  1  0  0  0  0
  8  7  2  0  0  0  0
 10 14  1  0  0  0  0
 10 11  2  0  0  0  0
 11 15  1  0  0  0  0
 12  4  1  0  0  0  0
 13  5  1  0  0  0  0
 16  3  1  0  0  0  0
M  END
