Coordinates from ORCA-job 4-NO2PhN2+~Cl-_B3LYPG-6-31G_dp-NX-Scan-d89-09-n800
 OpenBabel11261920193D

 16 16  0  0  1  0  0  0  0  0999 V2000
   -1.4930   -0.1039    0.1528 C   0  0  2  0  0  0  0  0  0  0  0  0
   -2.7030   -0.6139   -0.1057 N   0  0  0  0  0  0  0  0  0  0  0  0
   -3.6527   -1.1882   -0.3669 N   0  0  0  0  0  0  0  0  0  0  0  0
   -1.1431    1.2798   -0.1568 C   0  0  2  0  0  0  0  0  0  0  0  0
    0.2345    1.4320   -0.5944 C   0  0  0  0  0  0  0  0  0  0  0  0
    1.1484    0.4710   -0.3030 C   0  0  0  0  0  0  0  0  0  0  0  0
    2.5525    0.6965   -0.6912 N   0  0  0  0  0  0  0  0  0  0  0  0
    2.8194    1.7168   -1.3207 O   0  0  0  0  0  0  0  0  0  0  0  0
    3.3667   -0.1648   -0.3604 O   0  0  0  0  0  0  0  0  0  0  0  0
    0.8233   -0.7558    0.3653 C   0  0  0  0  0  0  0  0  0  0  0  0
   -0.4846   -1.0563    0.5698 C   0  0  0  0  0  0  0  0  0  0  0  0
   -1.8946    1.8657   -0.6720 H   0  0  0  0  0  0  0  0  0  0  0  0
    0.5405    2.3504   -1.0780 H   0  0  0  0  0  0  0  0  0  0  0  0
    1.6196   -1.4286    0.6524 H   0  0  0  0  0  0  0  0  0  0  0  0
   -0.7921   -2.0026    1.0006 H   0  0  0  0  0  0  0  0  0  0  0  0
   -0.9950    2.6803    1.5378 Cl  0  0  0  0  0  0  0  0  0  0  0  0
  1  2  1  6  0  0  0
  1 11  1  0  0  0  0
  3  2  1  0  0  0  0
  4 12  1  6  0  0  0
  4  1  1  0  0  0  0
  4 16  1  0  0  0  0
  5  6  2  0  0  0  0
  5  4  1  0  0  0  0
  6 10  1  0  0  0  0
  7  9  2  0  0  0  0
  7  6  1  0  0  0  0
  8  7  2  0  0  0  0
 10 11  2  0  0  0  0
 10 14  1  0  0  0  0
 11 15  1  0  0  0  0
 13  5  1  0  0  0  0
M  RAD  3   1   2   2   2   3   3
M  END
