Coordinates from ORCA-job 4-NO2PhN2+~Cl-_B3LYPG-6-31G_dp-NX-Scan-d89-09-n800
 OpenBabel11261920193D

 16 15  0  0  0  0  0  0  0  0999 V2000
   -1.4863   -0.3341    0.0169 C   0  0  0  0  0  0  0  0  0  0  0  0
   -2.7730   -0.7848    0.0400 N   0  0  0  0  0  0  0  0  0  0  0  0
   -3.7957   -1.2614    0.0563 N   0  0  0  0  0  0  0  0  0  0  0  0
   -1.1900    1.0243   -0.2634 C   0  0  0  0  0  0  0  0  0  0  0  0
    0.1505    1.3748   -0.4085 C   0  0  0  0  0  0  0  0  0  0  0  0
    1.1278    0.3980   -0.2283 C   0  0  0  0  0  0  0  0  0  0  0  0
    2.5404    0.7566   -0.4378 N   0  0  0  0  0  0  0  0  0  0  0  0
    2.7780    1.8763   -0.8748 O   0  0  0  0  0  0  0  0  0  0  0  0
    3.3797   -0.1050   -0.1670 O   0  0  0  0  0  0  0  0  0  0  0  0
    0.8350   -0.9272    0.1366 C   0  0  0  0  0  0  0  0  0  0  0  0
   -0.4786   -1.3178    0.2492 C   0  0  0  0  0  0  0  0  0  0  0  0
   -1.9566    1.7853   -0.3650 H   0  0  0  0  0  0  0  0  0  0  0  0
    0.4015    2.4171   -0.6005 H   0  0  0  0  0  0  0  0  0  0  0  0
    1.6486   -1.6219    0.3024 H   0  0  0  0  0  0  0  0  0  0  0  0
   -0.7541   -2.3349    0.5014 H   0  0  0  0  0  0  0  0  0  0  0  0
   -0.4803    4.2332    0.6723 Cl  0  0  0  0  0  0  0  0  0  0  0  0
  1  2  1  0  0  0  0
  1 11  2  0  0  0  0
  2  3  1  0  0  0  0
  4  1  1  0  0  0  0
  5  4  2  0  0  0  0
  5  6  1  0  0  0  0
  6 10  2  0  0  0  0
  7  6  1  0  0  0  0
  7  9  2  0  0  0  0
  8  7  2  0  0  0  0
 10 11  1  0  0  0  0
 10 14  1  0  0  0  0
 11 15  1  0  0  0  0
 12  4  1  0  0  0  0
 13  5  1  0  0  0  0
M  RAD  3   2   2   3   3  16   2
M  END
