Coordinates from ORCA-job 4-NO2PhN2+~Cl-_B3LYPG-6-31G_dp-NX-Scan-d89-09-n800
 OpenBabel11261920193D

 16 16  0  0  1  0  0  0  0  0999 V2000
   -1.4424   -0.1713    0.0618 C   0  0  0  0  0  0  0  0  0  0  0  0
   -2.7197   -0.4794    0.1791 N   0  0  0  0  0  0  0  0  0  0  0  0
   -3.8336   -0.6843    0.2762 N   0  0  0  0  0  0  0  0  0  0  0  0
   -1.1328    1.2392   -0.2662 C   0  0  2  0  0  0  0  0  0  0  0  0
    0.2925    1.4317   -0.5929 C   0  0  0  0  0  0  0  0  0  0  0  0
    1.2005    0.4748   -0.2956 C   0  0  0  0  0  0  0  0  0  0  0  0
    2.6244    0.7524   -0.5941 N   0  0  0  0  0  0  0  0  0  0  0  0
    2.9062    1.8272   -1.1167 O   0  0  0  0  0  0  0  0  0  0  0  0
    3.4356   -0.1228   -0.2974 O   0  0  0  0  0  0  0  0  0  0  0  0
    0.8763   -0.8100    0.2640 C   0  0  0  0  0  0  0  0  0  0  0  0
   -0.4337   -1.1273    0.4264 C   0  0  0  0  0  0  0  0  0  0  0  0
   -1.8094    1.6853   -0.9919 H   0  0  0  0  0  0  0  0  0  0  0  0
    0.6093    2.3697   -1.0295 H   0  0  0  0  0  0  0  0  0  0  0  0
    1.6736   -1.4946    0.5146 H   0  0  0  0  0  0  0  0  0  0  0  0
   -0.7396   -2.0918    0.8165 H   0  0  0  0  0  0  0  0  0  0  0  0
   -1.5604    2.3796    1.2755 Cl  0  0  0  0  0  0  0  0  0  0  0  0
  1  2  1  0  0  0  0
  1 11  2  0  0  0  0
  2  3  1  0  0  0  0
  4 12  1  6  0  0  0
  4  1  1  0  0  0  0
  4 16  1  0  0  0  0
  5  6  2  0  0  0  0
  5  4  1  0  0  0  0
  6 10  1  0  0  0  0
  7  9  2  0  0  0  0
  7  6  1  0  0  0  0
  8  7  2  0  0  0  0
 10 11  1  0  0  0  0
 10 14  1  0  0  0  0
 11 15  1  0  0  0  0
 13  5  1  0  0  0  0
M  RAD  3   2   2   3   3  10   2
M  END
