Coordinates from ORCA-job 4-NO2PhN2+~Cl-_B3LYPG-6-31G_dp-NX-Scan-d89-09-n800
 OpenBabel11261920183D

 16 15  0  0  0  0  0  0  0  0999 V2000
   -1.5718   -0.5528   -0.0158 C   0  0  0  0  0  0  0  0  0  0  0  0
   -2.8300   -1.0660    0.0233 N   0  0  0  0  0  0  0  0  0  0  0  0
   -3.8511   -1.5585    0.0614 N   0  0  0  0  0  0  0  0  0  0  0  0
   -1.3640    0.8487   -0.1389 C   0  0  0  0  0  0  0  0  0  0  0  0
   -0.0611    1.3235   -0.1751 C   0  0  0  0  0  0  0  0  0  0  0  0
    0.9936    0.4037   -0.0903 C   0  0  0  0  0  0  0  0  0  0  0  0
    2.3816    0.8915   -0.1280 N   0  0  0  0  0  0  0  0  0  0  0  0
    2.5457    2.1009   -0.2265 O   0  0  0  0  0  0  0  0  0  0  0  0
    3.2705    0.0378   -0.0567 O   0  0  0  0  0  0  0  0  0  0  0  0
    0.7903   -0.9776    0.0308 C   0  0  0  0  0  0  0  0  0  0  0  0
   -0.4947   -1.4758    0.0702 C   0  0  0  0  0  0  0  0  0  0  0  0
   -2.2080    1.5259   -0.2030 H   0  0  0  0  0  0  0  0  0  0  0  0
    0.1570    2.3871   -0.2685 H   0  0  0  0  0  0  0  0  0  0  0  0
    1.6523   -1.6298    0.0920 H   0  0  0  0  0  0  0  0  0  0  0  0
   -0.6901   -2.5379    0.1648 H   0  0  0  0  0  0  0  0  0  0  0  0
    1.2268    5.4576   -0.5101 Cl  0  0  0  0  0  0  0  0  0  0  0  0
  1  2  1  0  0  0  0
  1 11  2  0  0  0  0
  2  3  1  0  0  0  0
  4  1  1  0  0  0  0
  5  4  2  0  0  0  0
  5  6  1  0  0  0  0
  6 10  2  0  0  0  0
  7  6  1  0  0  0  0
  7  9  2  0  0  0  0
  8  7  2  0  0  0  0
 10 11  1  0  0  0  0
 10 14  1  0  0  0  0
 11 15  1  0  0  0  0
 12  4  1  0  0  0  0
 13  5  1  0  0  0  0
M  RAD  3   2   2   3   3  16   2
M  END
