Coordinates from ORCA-job 4-NO2PhN2+~Cl-_B3LYPG-6-31G_dp-NX-Scan-d89-09-n800
 OpenBabel11261920193D

 16 15  0  0  0  0  0  0  0  0999 V2000
   -1.4948   -0.3754    0.0092 C   0  0  0  0  0  0  0  0  0  0  0  0
   -2.7800   -0.8299    0.0432 N   0  0  0  0  0  0  0  0  0  0  0  0
   -3.8091   -1.2926    0.0759 N   0  0  0  0  0  0  0  0  0  0  0  0
   -1.2134    0.9943   -0.2289 C   0  0  0  0  0  0  0  0  0  0  0  0
    0.1192    1.3719   -0.3584 C   0  0  0  0  0  0  0  0  0  0  0  0
    1.1093    0.4000   -0.2060 C   0  0  0  0  0  0  0  0  0  0  0  0
    2.5193    0.7804   -0.4018 N   0  0  0  0  0  0  0  0  0  0  0  0
    2.7426    1.9068   -0.8265 O   0  0  0  0  0  0  0  0  0  0  0  0
    3.3681   -0.0718   -0.1292 O   0  0  0  0  0  0  0  0  0  0  0  0
    0.8332   -0.9392    0.1113 C   0  0  0  0  0  0  0  0  0  0  0  0
   -0.4766   -1.3525    0.2056 C   0  0  0  0  0  0  0  0  0  0  0  0
   -1.9953    1.7429   -0.3046 H   0  0  0  0  0  0  0  0  0  0  0  0
    0.3540    2.4308   -0.5115 H   0  0  0  0  0  0  0  0  0  0  0  0
    1.6558   -1.6287    0.2537 H   0  0  0  0  0  0  0  0  0  0  0  0
   -0.7381   -2.3823    0.4187 H   0  0  0  0  0  0  0  0  0  0  0  0
   -0.2472    4.4237    0.4790 Cl  0  0  0  0  0  0  0  0  0  0  0  0
  1  2  1  0  0  0  0
  1 11  2  0  0  0  0
  2  3  1  0  0  0  0
  4  1  1  0  0  0  0
  5  4  2  0  0  0  0
  5  6  1  0  0  0  0
  6 10  2  0  0  0  0
  7  6  1  0  0  0  0
  7  9  2  0  0  0  0
  8  7  2  0  0  0  0
 10 11  1  0  0  0  0
 10 14  1  0  0  0  0
 11 15  1  0  0  0  0
 12  4  1  0  0  0  0
 13  5  1  0  0  0  0
M  RAD  3   2   2   3   3  16   2
M  END
