Coordinates from ORCA-job 4-NO2PhN2+~Cl-_B3LYPG-6-31G_dp-NX-Scan-d89-09-n800
 OpenBabel11261920193D

 16 16  0  0  0  0  0  0  0  0999 V2000
   -1.2563    0.2291    0.5623 C   0  0  0  0  0  0  0  0  0  0  0  0
   -2.5454    0.1343    1.1996 N   0  0  0  0  0  0  0  0  0  0  0  0
   -3.5855    0.0944    0.4662 N   0  0  0  0  0  0  0  0  0  0  0  0
   -0.6780    1.4888    0.3443 C   0  0  0  0  0  0  0  0  0  0  0  0
    0.6217    1.5844   -0.1405 C   0  0  0  0  0  0  0  0  0  0  0  0
    1.3337    0.4126   -0.3934 C   0  0  0  0  0  0  0  0  0  0  0  0
    2.7060    0.5097   -0.9084 N   0  0  0  0  0  0  0  0  0  0  0  0
    3.1666    1.6356   -1.0966 O   0  0  0  0  0  0  0  0  0  0  0  0
    3.3111   -0.5405   -1.1225 O   0  0  0  0  0  0  0  0  0  0  0  0
    0.7841   -0.8487   -0.1663 C   0  0  0  0  0  0  0  0  0  0  0  0
   -0.5157   -0.9373    0.3196 C   0  0  0  0  0  0  0  0  0  0  0  0
   -1.2469    2.3857    0.5668 H   0  0  0  0  0  0  0  0  0  0  0  0
    1.0917    2.5425   -0.3234 H   0  0  0  0  0  0  0  0  0  0  0  0
    1.3772   -1.7316   -0.3692 H   0  0  0  0  0  0  0  0  0  0  0  0
   -0.9600   -1.9063    0.5232 H   0  0  0  0  0  0  0  0  0  0  0  0
   -3.6571    0.1257   -0.8319 Cl  0  0  0  0  0  0  0  0  0  0  0  0
  1  2  1  0  0  0  0
  3  2  2  0  0  0  0
  4  1  1  0  0  0  0
  4 12  1  0  0  0  0
  5  4  2  0  0  0  0
  6 10  2  0  0  0  0
  6  5  1  0  0  0  0
  7  6  1  0  0  0  0
  8  7  2  0  0  0  0
  9  7  2  0  0  0  0
 10 11  1  0  0  0  0
 11 15  1  0  0  0  0
 11  1  2  0  0  0  0
 13  5  1  0  0  0  0
 14 10  1  0  0  0  0
 16  3  1  0  0  0  0
M  END
