Coordinates from ORCA-job 4-NO2PhN2+~Cl-_B3LYPG-6-31G_dp-NX-Scan-d89-09-n800
 OpenBabel11261920193D

 16 15  0  0  0  0  0  0  0  0999 V2000
   -1.5223   -0.4600   -0.0022 C   0  0  0  0  0  0  0  0  0  0  0  0
   -2.7965   -0.9392    0.0429 N   0  0  0  0  0  0  0  0  0  0  0  0
   -3.8314   -1.3901    0.0961 N   0  0  0  0  0  0  0  0  0  0  0  0
   -1.2871    0.9312   -0.1590 C   0  0  0  0  0  0  0  0  0  0  0  0
    0.0253    1.3713   -0.2659 C   0  0  0  0  0  0  0  0  0  0  0  0
    1.0505    0.4233   -0.1685 C   0  0  0  0  0  0  0  0  0  0  0  0
    2.4463    0.8658   -0.3214 N   0  0  0  0  0  0  0  0  0  0  0  0
    2.6261    1.9855   -0.7815 O   0  0  0  0  0  0  0  0  0  0  0  0
    3.3226    0.0677    0.0244 O   0  0  0  0  0  0  0  0  0  0  0  0
    0.8235   -0.9409    0.0598 C   0  0  0  0  0  0  0  0  0  0  0  0
   -0.4720   -1.4092    0.1225 C   0  0  0  0  0  0  0  0  0  0  0  0
   -2.1096    1.6377   -0.1876 H   0  0  0  0  0  0  0  0  0  0  0  0
    0.2439    2.4474   -0.3751 H   0  0  0  0  0  0  0  0  0  0  0  0
    1.6716   -1.6065    0.1602 H   0  0  0  0  0  0  0  0  0  0  0  0
   -0.6941   -2.4610    0.2602 H   0  0  0  0  0  0  0  0  0  0  0  0
    0.4502    4.6555    0.1247 Cl  0  0  0  0  0  0  0  0  0  0  0  0
  1  2  1  0  0  0  0
  1 11  1  0  0  0  0
  2  3  1  0  0  0  0
  4  1  2  0  0  0  0
  5  6  2  0  0  0  0
  5  4  1  0  0  0  0
  6 10  1  0  0  0  0
  7  6  1  0  0  0  0
  7  9  2  0  0  0  0
  8  7  2  0  0  0  0
 10 11  2  0  0  0  0
 10 14  1  0  0  0  0
 11 15  1  0  0  0  0
 12  4  1  0  0  0  0
 13  5  1  0  0  0  0
M  RAD  3   2   2   3   3  16   2
M  END
