Coordinates from ORCA-job 4-NO2PhN2+~Cl-_B3LYPG-6-31G_dp-NX-Scan-d89-09-n800
 OpenBabel11261920193D

 16 16  0  0  0  0  0  0  0  0999 V2000
   -1.2614    0.2192    0.5512 C   0  0  0  0  0  0  0  0  0  0  0  0
   -2.5561    0.1168    1.1906 N   0  0  0  0  0  0  0  0  0  0  0  0
   -3.5701    0.1130    0.3822 N   0  0  0  0  0  0  0  0  0  0  0  0
   -0.6813    1.4793    0.3297 C   0  0  0  0  0  0  0  0  0  0  0  0
    0.6210    1.5808   -0.1467 C   0  0  0  0  0  0  0  0  0  0  0  0
    1.3397    0.4114   -0.3933 C   0  0  0  0  0  0  0  0  0  0  0  0
    2.7137    0.5128   -0.9008 N   0  0  0  0  0  0  0  0  0  0  0  0
    3.1713    1.6401   -1.0905 O   0  0  0  0  0  0  0  0  0  0  0  0
    3.3252   -0.5352   -1.1090 O   0  0  0  0  0  0  0  0  0  0  0  0
    0.7934   -0.8513   -0.1657 C   0  0  0  0  0  0  0  0  0  0  0  0
   -0.5094   -0.9421    0.3120 C   0  0  0  0  0  0  0  0  0  0  0  0
   -1.2520    2.3761    0.5497 H   0  0  0  0  0  0  0  0  0  0  0  0
    1.0885    2.5405   -0.3283 H   0  0  0  0  0  0  0  0  0  0  0  0
    1.3914   -1.7325   -0.3618 H   0  0  0  0  0  0  0  0  0  0  0  0
   -0.9493   -1.9130    0.5175 H   0  0  0  0  0  0  0  0  0  0  0  0
   -3.7175    0.1625   -0.7070 Cl  0  0  0  0  0  0  0  0  0  0  0  0
  1  2  1  0  0  0  0
  3  2  2  0  0  0  0
  4 12  1  0  0  0  0
  4  1  1  0  0  0  0
  5  4  2  0  0  0  0
  6 10  2  0  0  0  0
  6  5  1  0  0  0  0
  7  6  1  0  0  0  0
  8  7  2  0  0  0  0
  9  7  2  0  0  0  0
 10 11  1  0  0  0  0
 11 15  1  0  0  0  0
 11  1  2  0  0  0  0
 13  5  1  0  0  0  0
 14 10  1  0  0  0  0
 16  3  1  0  0  0  0
M  END
