Coordinates from ORCA-job 4-NO2PhN2+~Cl-_B3LYPG-6-31G_dp-NX-Scan-d89-09-n800
 OpenBabel11261920193D

 16 16  0  0  0  0  0  0  0  0999 V2000
   -1.2308    0.0402    0.5015 C   0  0  0  0  0  0  0  0  0  0  0  0
   -2.5205   -0.1939    1.0422 N   0  0  0  0  0  0  0  0  0  0  0  0
   -3.6174    0.1769    0.7426 N   0  0  0  0  0  0  0  0  0  0  0  0
   -0.7769    1.3327    0.2053 C   0  0  0  0  0  0  0  0  0  0  0  0
    0.5295    1.4991   -0.2417 C   0  0  0  0  0  0  0  0  0  0  0  0
    1.3415    0.3764   -0.3918 C   0  0  0  0  0  0  0  0  0  0  0  0
    2.7228    0.5589   -0.8773 N   0  0  0  0  0  0  0  0  0  0  0  0
    3.0873    1.7053   -1.1284 O   0  0  0  0  0  0  0  0  0  0  0  0
    3.4173   -0.4478   -0.9981 O   0  0  0  0  0  0  0  0  0  0  0  0
    0.9025   -0.9110   -0.0885 C   0  0  0  0  0  0  0  0  0  0  0  0
   -0.3926   -1.0759    0.3880 C   0  0  0  0  0  0  0  0  0  0  0  0
   -1.4318    2.1854    0.3272 H   0  0  0  0  0  0  0  0  0  0  0  0
    0.9243    2.4782   -0.4812 H   0  0  0  0  0  0  0  0  0  0  0  0
    1.5760   -1.7493   -0.2125 H   0  0  0  0  0  0  0  0  0  0  0  0
   -0.7674   -2.0554    0.6626 H   0  0  0  0  0  0  0  0  0  0  0  0
   -3.8169    1.2587   -0.8203 Cl  0  0  0  0  0  0  0  0  0  0  0  0
  1  2  1  0  0  0  0
  3  2  2  0  0  0  0
  4 12  1  0  0  0  0
  4  1  2  0  0  0  0
  5  4  1  0  0  0  0
  6  5  2  0  0  0  0
  6 10  1  0  0  0  0
  7  6  1  0  0  0  0
  8  7  2  0  0  0  0
  9  7  2  0  0  0  0
 10 11  2  0  0  0  0
 11  1  1  0  0  0  0
 11 15  1  0  0  0  0
 13  5  1  0  0  0  0
 14 10  1  0  0  0  0
 16  3  1  0  0  0  0
M  END
