Coordinates from ORCA-job 4-NO2PhN2+~Cl-_B3LYPG-6-31G_dp-NX-Scan-d89-09-n800
 OpenBabel11261920193D

 16 15  0  0  0  0  0  0  0  0999 V2000
   -1.5497   -0.5168   -0.0216 C   0  0  0  0  0  0  0  0  0  0  0  0
   -2.8024   -1.0256    0.0592 N   0  0  0  0  0  0  0  0  0  0  0  0
   -3.8460   -1.4541    0.1320 N   0  0  0  0  0  0  0  0  0  0  0  0
   -1.3868    0.8689   -0.2927 C   0  0  0  0  0  0  0  0  0  0  0  0
   -0.1038    1.3667   -0.4080 C   0  0  0  0  0  0  0  0  0  0  0  0
    0.9779    0.4906   -0.2244 C   0  0  0  0  0  0  0  0  0  0  0  0
    2.3222    1.0201   -0.3569 N   0  0  0  0  0  0  0  0  0  0  0  0
    2.4199    2.0943   -0.9555 O   0  0  0  0  0  0  0  0  0  0  0  0
    3.2483    0.3674    0.1432 O   0  0  0  0  0  0  0  0  0  0  0  0
    0.8187   -0.8658    0.0971 C   0  0  0  0  0  0  0  0  0  0  0  0
   -0.4510   -1.3954    0.1833 C   0  0  0  0  0  0  0  0  0  0  0  0
   -2.2531    1.5130   -0.3924 H   0  0  0  0  0  0  0  0  0  0  0  0
    0.0984    2.4273   -0.5637 H   0  0  0  0  0  0  0  0  0  0  0  0
    1.7016   -1.4708    0.2625 H   0  0  0  0  0  0  0  0  0  0  0  0
   -0.6205   -2.4432    0.4025 H   0  0  0  0  0  0  0  0  0  0  0  0
    1.3733    4.2020    0.5652 Cl  0  0  0  0  0  0  0  0  0  0  0  0
  1  2  1  0  0  0  0
  1 11  2  0  0  0  0
  2  3  1  0  0  0  0
  4  1  1  0  0  0  0
  5  4  2  0  0  0  0
  5  6  1  0  0  0  0
  6 10  2  0  0  0  0
  7  6  1  0  0  0  0
  7  9  2  0  0  0  0
  8  7  2  0  0  0  0
 10 11  1  0  0  0  0
 10 14  1  0  0  0  0
 11 15  1  0  0  0  0
 12  4  1  0  0  0  0
 13  5  1  0  0  0  0
M  RAD  3   2   2   3   3  16   2
M  END
