Coordinates from ORCA-job 4-NO2PhN2+~Cl-_B3LYPG-6-31G_dp-NX-Scan-d89-09-n800
 OpenBabel11261920193D

 16 16  0  0  0  0  0  0  0  0999 V2000
   -1.2284   -0.0021    0.4507 C   0  0  0  0  0  0  0  0  0  0  0  0
   -2.5266   -0.2673    0.9453 N   0  0  0  0  0  0  0  0  0  0  0  0
   -3.6248    0.1383    0.7830 N   0  0  0  0  0  0  0  0  0  0  0  0
   -0.8006    1.2940    0.1299 C   0  0  0  0  0  0  0  0  0  0  0  0
    0.5130    1.4753   -0.2907 C   0  0  0  0  0  0  0  0  0  0  0  0
    1.3528    0.3677   -0.3893 C   0  0  0  0  0  0  0  0  0  0  0  0
    2.7435    0.5695   -0.8458 N   0  0  0  0  0  0  0  0  0  0  0  0
    3.0872    1.7166   -1.1186 O   0  0  0  0  0  0  0  0  0  0  0  0
    3.4621   -0.4243   -0.9208 O   0  0  0  0  0  0  0  0  0  0  0  0
    0.9375   -0.9222   -0.0633 C   0  0  0  0  0  0  0  0  0  0  0  0
   -0.3652   -1.1038    0.3837 C   0  0  0  0  0  0  0  0  0  0  0  0
   -1.4824    2.1300    0.2065 H   0  0  0  0  0  0  0  0  0  0  0  0
    0.8919    2.4562   -0.5484 H   0  0  0  0  0  0  0  0  0  0  0  0
    1.6331   -1.7471   -0.1489 H   0  0  0  0  0  0  0  0  0  0  0  0
   -0.7281   -2.0837    0.6726 H   0  0  0  0  0  0  0  0  0  0  0  0
   -3.9181    1.5813   -0.6164 Cl  0  0  0  0  0  0  0  0  0  0  0  0
  1  2  1  0  0  0  0
  3  2  2  0  0  0  0
  4 12  1  0  0  0  0
  4  1  2  0  0  0  0
  5  4  1  0  0  0  0
  6  5  2  0  0  0  0
  6 10  1  0  0  0  0
  7  6  1  0  0  0  0
  8  7  2  0  0  0  0
  9  7  2  0  0  0  0
 10 11  2  0  0  0  0
 11  1  1  0  0  0  0
 11 15  1  0  0  0  0
 13  5  1  0  0  0  0
 14 10  1  0  0  0  0
 16  3  1  0  0  0  0
M  END
