Coordinates from ORCA-job 4-NO2PhN2+~Cl-_B3LYPG-6-31G_dp-NX-Scan-d89-09-n800
 OpenBabel11261920193D

 16 15  0  0  0  0  0  0  0  0999 V2000
   -1.5609   -0.5283   -0.0238 C   0  0  0  0  0  0  0  0  0  0  0  0
   -2.8049   -1.0530    0.0539 N   0  0  0  0  0  0  0  0  0  0  0  0
   -3.8419   -1.5003    0.1210 N   0  0  0  0  0  0  0  0  0  0  0  0
   -1.4118    0.8568   -0.3131 C   0  0  0  0  0  0  0  0  0  0  0  0
   -0.1355    1.3684   -0.4240 C   0  0  0  0  0  0  0  0  0  0  0  0
    0.9602    0.5102   -0.2251 C   0  0  0  0  0  0  0  0  0  0  0  0
    2.2919    1.0488   -0.3575 N   0  0  0  0  0  0  0  0  0  0  0  0
    2.3742    2.1314   -0.9541 O   0  0  0  0  0  0  0  0  0  0  0  0
    3.2321    0.4100    0.1371 O   0  0  0  0  0  0  0  0  0  0  0  0
    0.8128   -0.8461    0.1100 C   0  0  0  0  0  0  0  0  0  0  0  0
   -0.4499   -1.3889    0.1979 C   0  0  0  0  0  0  0  0  0  0  0  0
   -2.2857    1.4872   -0.4311 H   0  0  0  0  0  0  0  0  0  0  0  0
    0.0546    2.4243   -0.6025 H   0  0  0  0  0  0  0  0  0  0  0  0
    1.7025   -1.4377    0.2863 H   0  0  0  0  0  0  0  0  0  0  0  0
   -0.6072   -2.4356    0.4313 H   0  0  0  0  0  0  0  0  0  0  0  0
    1.6165    4.1311    0.6233 Cl  0  0  0  0  0  0  0  0  0  0  0  0
  1  2  1  0  0  0  0
  1 11  2  0  0  0  0
  2  3  1  0  0  0  0
  4  1  1  0  0  0  0
  5  4  2  0  0  0  0
  5  6  1  0  0  0  0
  6 10  2  0  0  0  0
  7  6  1  0  0  0  0
  7  9  2  0  0  0  0
  8  7  2  0  0  0  0
 10 11  1  0  0  0  0
 10 14  1  0  0  0  0
 11 15  1  0  0  0  0
 12  4  1  0  0  0  0
 13  5  1  0  0  0  0
M  RAD  3   2   2   3   3  16   2
M  END
