Coordinates from ORCA-job 4-NO2PhN2+~Cl-_B3LYPG-6-31G_dp-NX-Scan-d89-09-n800
 OpenBabel11261920183D

 16 15  0  0  0  0  0  0  0  0999 V2000
   -1.5591   -0.5027   -0.0204 C   0  0  0  0  0  0  0  0  0  0  0  0
   -2.8232   -1.0082    0.0178 N   0  0  0  0  0  0  0  0  0  0  0  0
   -3.8388   -1.5100    0.0569 N   0  0  0  0  0  0  0  0  0  0  0  0
   -1.3298    0.8955   -0.1412 C   0  0  0  0  0  0  0  0  0  0  0  0
   -0.0186    1.3542   -0.1757 C   0  0  0  0  0  0  0  0  0  0  0  0
    1.0184    0.4139   -0.0905 C   0  0  0  0  0  0  0  0  0  0  0  0
    2.4189    0.8716   -0.1252 N   0  0  0  0  0  0  0  0  0  0  0  0
    2.6102    2.0756   -0.2255 O   0  0  0  0  0  0  0  0  0  0  0  0
    3.2885   -0.0019   -0.0497 O   0  0  0  0  0  0  0  0  0  0  0  0
    0.7940   -0.9644    0.0287 C   0  0  0  0  0  0  0  0  0  0  0  0
   -0.4978   -1.4435    0.0659 C   0  0  0  0  0  0  0  0  0  0  0  0
   -2.1622    1.5871   -0.2050 H   0  0  0  0  0  0  0  0  0  0  0  0
    0.2110    2.4207   -0.2671 H   0  0  0  0  0  0  0  0  0  0  0  0
    1.6462   -1.6292    0.0903 H   0  0  0  0  0  0  0  0  0  0  0  0
   -0.7099   -2.5025    0.1589 H   0  0  0  0  0  0  0  0  0  0  0  0
    0.8991    5.1223   -0.4885 Cl  0  0  0  0  0  0  0  0  0  0  0  0
  1  2  1  0  0  0  0
  1 11  2  0  0  0  0
  2  3  1  0  0  0  0
  4  1  1  0  0  0  0
  5  4  2  0  0  0  0
  5  6  1  0  0  0  0
  6 10  2  0  0  0  0
  7  6  1  0  0  0  0
  7  9  2  0  0  0  0
  8  7  2  0  0  0  0
 10 11  1  0  0  0  0
 10 14  1  0  0  0  0
 11 15  1  0  0  0  0
 12  4  1  0  0  0  0
 13  5  1  0  0  0  0
M  RAD  3   2   2   3   3  16   2
M  END
