Coordinates from ORCA-job 4-NO2PhN2+~Cl-_B3LYPG-6-31G_dp-NX-Scan-d89-09-n800
 OpenBabel11261920193D

 16 15  0  0  0  0  0  0  0  0999 V2000
   -1.5187   -0.4501   -0.0014 C   0  0  0  0  0  0  0  0  0  0  0  0
   -2.7947   -0.9263    0.0412 N   0  0  0  0  0  0  0  0  0  0  0  0
   -3.8291   -1.3778    0.0923 N   0  0  0  0  0  0  0  0  0  0  0  0
   -1.2778    0.9383   -0.1720 C   0  0  0  0  0  0  0  0  0  0  0  0
    0.0373    1.3716   -0.2811 C   0  0  0  0  0  0  0  0  0  0  0  0
    1.0582    0.4208   -0.1730 C   0  0  0  0  0  0  0  0  0  0  0  0
    2.4568    0.8534   -0.3360 N   0  0  0  0  0  0  0  0  0  0  0  0
    2.6425    1.9736   -0.7915 O   0  0  0  0  0  0  0  0  0  0  0  0
    3.3296    0.0461   -0.0038 O   0  0  0  0  0  0  0  0  0  0  0  0
    0.8249   -0.9399    0.0709 C   0  0  0  0  0  0  0  0  0  0  0  0
   -0.4723   -1.4023    0.1371 C   0  0  0  0  0  0  0  0  0  0  0  0
   -2.0958    1.6497   -0.2093 H   0  0  0  0  0  0  0  0  0  0  0  0
    0.2536    2.4472   -0.3981 H   0  0  0  0  0  0  0  0  0  0  0  0
    1.6702   -1.6078    0.1792 H   0  0  0  0  0  0  0  0  0  0  0  0
   -0.6991   -2.4514    0.2871 H   0  0  0  0  0  0  0  0  0  0  0  0
    0.3612    4.6332    0.1880 Cl  0  0  0  0  0  0  0  0  0  0  0  0
  1  2  1  0  0  0  0
  1 11  1  0  0  0  0
  2  3  1  0  0  0  0
  4  1  2  0  0  0  0
  5  6  2  0  0  0  0
  5  4  1  0  0  0  0
  6 10  1  0  0  0  0
  7  6  1  0  0  0  0
  7  9  2  0  0  0  0
  8  7  2  0  0  0  0
 10 11  2  0  0  0  0
 10 14  1  0  0  0  0
 11 15  1  0  0  0  0
 12  4  1  0  0  0  0
 13  5  1  0  0  0  0
M  RAD  3   2   2   3   3  16   2
M  END
