Coordinates from ORCA-job 4-NO2PhN2+~Cl-_B3LYPG-6-31G_dp-NX-Scan-d89-09-n800
 OpenBabel11261920193D

 16 15  0  0  0  0  0  0  0  0999 V2000
   -1.4833   -0.2265    0.0435 C   0  0  0  0  0  0  0  0  0  0  0  0
   -2.7611   -0.6820    0.0007 N   0  0  0  0  0  0  0  0  0  0  0  0
   -3.7728   -1.1806   -0.0711 N   0  0  0  0  0  0  0  0  0  0  0  0
   -1.1696    1.0986   -0.3580 C   0  0  0  0  0  0  0  0  0  0  0  0
    0.1883    1.3973   -0.5649 C   0  0  0  0  0  0  0  0  0  0  0  0
    1.1435    0.4362   -0.2883 C   0  0  0  0  0  0  0  0  0  0  0  0
    2.5541    0.7504   -0.5449 N   0  0  0  0  0  0  0  0  0  0  0  0
    2.8100    1.8286   -1.0738 O   0  0  0  0  0  0  0  0  0  0  0  0
    3.3845   -0.1014   -0.2230 O   0  0  0  0  0  0  0  0  0  0  0  0
    0.8298   -0.8351    0.2478 C   0  0  0  0  0  0  0  0  0  0  0  0
   -0.4815   -1.1873    0.4120 C   0  0  0  0  0  0  0  0  0  0  0  0
   -1.9399    1.8118   -0.6174 H   0  0  0  0  0  0  0  0  0  0  0  0
    0.4790    2.3705   -0.9329 H   0  0  0  0  0  0  0  0  0  0  0  0
    1.6351   -1.5129    0.4997 H   0  0  0  0  0  0  0  0  0  0  0  0
   -0.7740   -2.1603    0.7875 H   0  0  0  0  0  0  0  0  0  0  0  0
   -0.6954    3.3711    1.3128 Cl  0  0  0  0  0  0  0  0  0  0  0  0
  1 11  2  0  0  0  0
  2  1  1  0  0  0  0
  3  2  1  0  0  0  0
  4  1  1  0  0  0  0
  5  4  2  0  0  0  0
  5  6  1  0  0  0  0
  6 10  2  0  0  0  0
  7  6  1  0  0  0  0
  7  9  2  0  0  0  0
  8  7  2  0  0  0  0
 10 11  1  0  0  0  0
 10 14  1  0  0  0  0
 11 15  1  0  0  0  0
 12  4  1  0  0  0  0
 13  5  1  0  0  0  0
M  RAD  3   2   2   3   3  16   2
M  END
