Coordinates from ORCA-job 4-NO2PhN2+~Cl-_B3LYPG-6-31G_dp-NX-Scan-d89-09-n800
 OpenBabel11261920193D

 16 16  0  0  1  0  0  0  0  0999 V2000
   -1.4808   -0.1041    0.1515 C   0  0  2  0  0  0  0  0  0  0  0  0
   -2.7009   -0.5756   -0.0754 N   0  0  0  0  0  0  0  0  0  0  0  0
   -3.6986   -1.0823   -0.2977 N   0  0  0  0  0  0  0  0  0  0  0  0
   -1.1355    1.3035   -0.1287 C   0  0  2  0  0  0  0  0  0  0  0  0
    0.2536    1.4391   -0.5947 C   0  0  0  0  0  0  0  0  0  0  0  0
    1.1614    0.4808   -0.2972 C   0  0  0  0  0  0  0  0  0  0  0  0
    2.5663    0.6991   -0.6965 N   0  0  0  0  0  0  0  0  0  0  0  0
    2.8353    1.7176   -1.3281 O   0  0  0  0  0  0  0  0  0  0  0  0
    3.3797   -0.1621   -0.3646 O   0  0  0  0  0  0  0  0  0  0  0  0
    0.8370   -0.7513    0.3709 C   0  0  0  0  0  0  0  0  0  0  0  0
   -0.4709   -1.0547    0.5639 C   0  0  0  0  0  0  0  0  0  0  0  0
   -1.8715    1.8353   -0.7243 H   0  0  0  0  0  0  0  0  0  0  0  0
    0.5584    2.3474   -1.0980 H   0  0  0  0  0  0  0  0  0  0  0  0
    1.6338   -1.4232    0.6572 H   0  0  0  0  0  0  0  0  0  0  0  0
   -0.7780   -2.0042    0.9884 H   0  0  0  0  0  0  0  0  0  0  0  0
   -1.1425    2.5132    1.5030 Cl  0  0  0  0  0  0  0  0  0  0  0  0
  1  2  1  6  0  0  0
  1 11  1  0  0  0  0
  3  2  1  0  0  0  0
  4 12  1  6  0  0  0
  4  1  1  0  0  0  0
  4 16  1  0  0  0  0
  5  6  2  0  0  0  0
  5  4  1  0  0  0  0
  6 10  1  0  0  0  0
  7  9  2  0  0  0  0
  7  6  1  0  0  0  0
  8  7  2  0  0  0  0
 10 11  2  0  0  0  0
 10 14  1  0  0  0  0
 11 15  1  0  0  0  0
 13  5  1  0  0  0  0
M  RAD  3   1   2   2   2   3   3
M  END
