Coordinates from ORCA-job 4-NO2PhN2+~Cl-_B3LYPG-6-31G_dp-NX-Scan-d89-09-n800
 OpenBabel11261920193D

 16 16  0  0  1  0  0  0  0  0999 V2000
   -1.4357   -0.1901    0.0464 C   0  0  0  0  0  0  0  0  0  0  0  0
   -2.7126   -0.4568    0.2401 N   0  0  0  0  0  0  0  0  0  0  0  0
   -3.8299   -0.5670    0.4140 N   0  0  0  0  0  0  0  0  0  0  0  0
   -1.1351    1.2198   -0.3002 C   0  0  2  0  0  0  0  0  0  0  0  0
    0.2966    1.4289   -0.5864 C   0  0  0  0  0  0  0  0  0  0  0  0
    1.2053    0.4709   -0.2950 C   0  0  0  0  0  0  0  0  0  0  0  0
    2.6322    0.7643   -0.5676 N   0  0  0  0  0  0  0  0  0  0  0  0
    2.9145    1.8535   -1.0589 O   0  0  0  0  0  0  0  0  0  0  0  0
    3.4443   -0.1145   -0.2846 O   0  0  0  0  0  0  0  0  0  0  0  0
    0.8838   -0.8277    0.2338 C   0  0  0  0  0  0  0  0  0  0  0  0
   -0.4259   -1.1487    0.3932 C   0  0  0  0  0  0  0  0  0  0  0  0
   -1.7925    1.6430   -1.0573 H   0  0  0  0  0  0  0  0  0  0  0  0
    0.6153    2.3758   -1.0020 H   0  0  0  0  0  0  0  0  0  0  0  0
    1.6826   -1.5144    0.4729 H   0  0  0  0  0  0  0  0  0  0  0  0
   -0.7301   -2.1166    0.7762 H   0  0  0  0  0  0  0  0  0  0  0  0
   -1.6658    2.3580    1.2052 Cl  0  0  0  0  0  0  0  0  0  0  0  0
  1  2  1  0  0  0  0
  1 11  2  0  0  0  0
  2  3  1  0  0  0  0
  4 12  1  6  0  0  0
  4  1  1  0  0  0  0
  4 16  1  0  0  0  0
  5  4  1  0  0  0  0
  5  6  2  0  0  0  0
  6 10  1  0  0  0  0
  7  6  1  0  0  0  0
  7  9  2  0  0  0  0
  8  7  2  0  0  0  0
 10 11  1  0  0  0  0
 10 14  1  0  0  0  0
 11 15  1  0  0  0  0
 13  5  1  0  0  0  0
M  RAD  3   2   2   3   3  10   2
M  END
