Coordinates from ORCA-job 4-NO2PhN2+~Cl-_B3LYPG-6-31G_dp-NX-Scan-d89-09-n800
 OpenBabel11261920193D

 16 16  0  0  1  0  0  0  0  0999 V2000
   -1.4420   -0.1720    0.0612 C   0  0  0  0  0  0  0  0  0  0  0  0
   -2.7194   -0.4782    0.1820 N   0  0  0  0  0  0  0  0  0  0  0  0
   -3.8336   -0.6790    0.2828 N   0  0  0  0  0  0  0  0  0  0  0  0
   -1.1329    1.2383   -0.2678 C   0  0  2  0  0  0  0  0  0  0  0  0
    0.2927    1.4315   -0.5928 C   0  0  0  0  0  0  0  0  0  0  0  0
    1.2007    0.4745   -0.2959 C   0  0  0  0  0  0  0  0  0  0  0  0
    2.6248    0.7528   -0.5934 N   0  0  0  0  0  0  0  0  0  0  0  0
    2.9067    1.8288   -1.1134 O   0  0  0  0  0  0  0  0  0  0  0  0
    3.4362   -0.1221   -0.2962 O   0  0  0  0  0  0  0  0  0  0  0  0
    0.8766   -0.8109    0.2624 C   0  0  0  0  0  0  0  0  0  0  0  0
   -0.4334   -1.1283    0.4249 C   0  0  0  0  0  0  0  0  0  0  0  0
   -1.8087    1.6833   -0.9949 H   0  0  0  0  0  0  0  0  0  0  0  0
    0.6096    2.3699   -1.0286 H   0  0  0  0  0  0  0  0  0  0  0  0
    1.6739   -1.4957    0.5124 H   0  0  0  0  0  0  0  0  0  0  0  0
   -0.7392   -2.0929    0.8147 H   0  0  0  0  0  0  0  0  0  0  0  0
   -1.5650    2.3786    1.2723 Cl  0  0  0  0  0  0  0  0  0  0  0  0
  1  2  1  0  0  0  0
  1 11  2  0  0  0  0
  2  3  1  0  0  0  0
  4 12  1  6  0  0  0
  4  1  1  0  0  0  0
  4 16  1  0  0  0  0
  5  6  2  0  0  0  0
  5  4  1  0  0  0  0
  6 10  1  0  0  0  0
  7  9  2  0  0  0  0
  7  6  1  0  0  0  0
  8  7  2  0  0  0  0
 10 11  1  0  0  0  0
 10 14  1  0  0  0  0
 11 15  1  0  0  0  0
 13  5  1  0  0  0  0
M  RAD  3   2   2   3   3  10   2
M  END
