Coordinates from ORCA-job 4-NO2PhN2+~Cl-_B3LYPG-6-31G_dp-NX-Scan-d89-09-n800
 OpenBabel11261920193D

 16 15  0  0  0  0  0  0  0  0999 V2000
   -1.4898   -0.3560    0.0127 C   0  0  0  0  0  0  0  0  0  0  0  0
   -2.7764   -0.8067    0.0430 N   0  0  0  0  0  0  0  0  0  0  0  0
   -3.8036   -1.2732    0.0698 N   0  0  0  0  0  0  0  0  0  0  0  0
   -1.2005    1.0084   -0.2442 C   0  0  0  0  0  0  0  0  0  0  0  0
    0.1359    1.3729   -0.3804 C   0  0  0  0  0  0  0  0  0  0  0  0
    1.1196    0.3978   -0.2160 C   0  0  0  0  0  0  0  0  0  0  0  0
    2.5312    0.7674   -0.4178 N   0  0  0  0  0  0  0  0  0  0  0  0
    2.7620    1.8917   -0.8453 O   0  0  0  0  0  0  0  0  0  0  0  0
    3.3749   -0.0911   -0.1499 O   0  0  0  0  0  0  0  0  0  0  0  0
    0.8348   -0.9353    0.1217 C   0  0  0  0  0  0  0  0  0  0  0  0
   -0.4772   -1.3374    0.2244 C   0  0  0  0  0  0  0  0  0  0  0  0
   -1.9744    1.7642   -0.3306 H   0  0  0  0  0  0  0  0  0  0  0  0
    0.3765    2.4252   -0.5483 H   0  0  0  0  0  0  0  0  0  0  0  0
    1.6526   -1.6281    0.2739 H   0  0  0  0  0  0  0  0  0  0  0  0
   -0.7459   -2.3615    0.4548 H   0  0  0  0  0  0  0  0  0  0  0  0
   -0.3728    4.3401    0.5620 Cl  0  0  0  0  0  0  0  0  0  0  0  0
  1  2  1  0  0  0  0
  1 11  2  0  0  0  0
  2  3  1  0  0  0  0
  4  1  1  0  0  0  0
  5  4  2  0  0  0  0
  5  6  1  0  0  0  0
  6 10  2  0  0  0  0
  7  6  1  0  0  0  0
  7  9  2  0  0  0  0
  8  7  2  0  0  0  0
 10 11  1  0  0  0  0
 10 14  1  0  0  0  0
 11 15  1  0  0  0  0
 12  4  1  0  0  0  0
 13  5  1  0  0  0  0
M  RAD  3   2   2   3   3  16   2
M  END
