Coordinates from ORCA-job 4-NO2PhN2+~Cl-_B3LYPG-6-31G_dp-NX-Scan-d89-09-n800
 OpenBabel11261920193D

 16 15  0  0  0  0  0  0  0  0999 V2000
   -1.4829   -0.1711    0.0775 C   0  0  0  0  0  0  0  0  0  0  0  0
   -2.7461   -0.6378   -0.0180 N   0  0  0  0  0  0  0  0  0  0  0  0
   -3.7467   -1.1547   -0.1428 N   0  0  0  0  0  0  0  0  0  0  0  0
   -1.1539    1.1606   -0.3200 C   0  0  0  0  0  0  0  0  0  0  0  0
    0.2149    1.4081   -0.5995 C   0  0  0  0  0  0  0  0  0  0  0  0
    1.1527    0.4497   -0.3072 C   0  0  0  0  0  0  0  0  0  0  0  0
    2.5646    0.7346   -0.5990 N   0  0  0  0  0  0  0  0  0  0  0  0
    2.8304    1.7944   -1.1601 O   0  0  0  0  0  0  0  0  0  0  0  0
    3.3863   -0.1219   -0.2708 O   0  0  0  0  0  0  0  0  0  0  0  0
    0.8294   -0.8014    0.2877 C   0  0  0  0  0  0  0  0  0  0  0  0
   -0.4807   -1.1270    0.4756 C   0  0  0  0  0  0  0  0  0  0  0  0
   -1.9203    1.8304   -0.6820 H   0  0  0  0  0  0  0  0  0  0  0  0
    0.5165    2.3611   -1.0110 H   0  0  0  0  0  0  0  0  0  0  0  0
    1.6290   -1.4780    0.5584 H   0  0  0  0  0  0  0  0  0  0  0  0
   -0.7818   -2.0840    0.8846 H   0  0  0  0  0  0  0  0  0  0  0  0
   -0.8645    3.0155    1.4564 Cl  0  0  0  0  0  0  0  0  0  0  0  0
  1 11  2  0  0  0  0
  2  1  1  0  0  0  0
  3  2  1  0  0  0  0
  4  1  1  0  0  0  0
  5  4  2  0  0  0  0
  5  6  1  0  0  0  0
  6 10  2  0  0  0  0
  7  6  1  0  0  0  0
  7  9  2  0  0  0  0
  8  7  2  0  0  0  0
 10 11  1  0  0  0  0
 10 14  1  0  0  0  0
 11 15  1  0  0  0  0
 12  4  1  0  0  0  0
 13  5  1  0  0  0  0
M  RAD  3   2   2   3   3  16   2
M  END
