Coordinates from ORCA-job 4-NO2PhN2+~Cl-_B3LYPG-6-31G_dp-NX-Scan-d89-09-n800
 OpenBabel11261920193D

 16 16  0  0  1  0  0  0  0  0999 V2000
   -1.4433   -0.1686    0.0646 C   0  0  0  0  0  0  0  0  0  0  0  0
   -2.7203   -0.4825    0.1706 N   0  0  0  0  0  0  0  0  0  0  0  0
   -3.8328   -0.6997    0.2562 N   0  0  0  0  0  0  0  0  0  0  0  0
   -1.1326    1.2417   -0.2612 C   0  0  2  0  0  0  0  0  0  0  0  0
    0.2917    1.4320   -0.5937 C   0  0  0  0  0  0  0  0  0  0  0  0
    1.1996    0.4752   -0.2959 C   0  0  0  0  0  0  0  0  0  0  0  0
    2.6231    0.7505   -0.5983 N   0  0  0  0  0  0  0  0  0  0  0  0
    2.9047    1.8238   -1.1242 O   0  0  0  0  0  0  0  0  0  0  0  0
    3.4343   -0.1237   -0.2989 O   0  0  0  0  0  0  0  0  0  0  0  0
    0.8752   -0.8077    0.2680 C   0  0  0  0  0  0  0  0  0  0  0  0
   -0.4348   -1.1244    0.4312 C   0  0  0  0  0  0  0  0  0  0  0  0
   -1.8118    1.6908   -0.9825 H   0  0  0  0  0  0  0  0  0  0  0  0
    0.6082    2.3687   -1.0332 H   0  0  0  0  0  0  0  0  0  0  0  0
    1.6723   -1.4921    0.5200 H   0  0  0  0  0  0  0  0  0  0  0  0
   -0.7409   -2.0885    0.8224 H   0  0  0  0  0  0  0  0  0  0  0  0
   -1.5456    2.3829    1.2847 Cl  0  0  0  0  0  0  0  0  0  0  0  0
  1  2  1  0  0  0  0
  1 11  2  0  0  0  0
  2  3  1  0  0  0  0
  4 12  1  6  0  0  0
  4  1  1  0  0  0  0
  4 16  1  0  0  0  0
  5  6  2  0  0  0  0
  5  4  1  0  0  0  0
  6 10  1  0  0  0  0
  7  9  2  0  0  0  0
  7  6  1  0  0  0  0
  8  7  2  0  0  0  0
 10 11  1  0  0  0  0
 10 14  1  0  0  0  0
 11 15  1  0  0  0  0
 13  5  1  0  0  0  0
M  RAD  3   2   2   3   3  10   2
M  END
