Coordinates from ORCA-job 4-NO2PhN2+~Cl-_B3LYPG-6-31G_dp-NX-Scan-d89-09-n800
 OpenBabel11261920193D

 16 16  0  0  1  0  0  0  0  0999 V2000
   -1.4690   -0.1191    0.1280 C   0  0  2  0  0  0  0  0  0  0  0  0
   -2.7125   -0.5507   -0.0137 N   0  0  0  0  0  0  0  0  0  0  0  0
   -3.7540   -0.9896   -0.1612 N   0  0  0  0  0  0  0  0  0  0  0  0
   -1.1330    1.2913   -0.1579 C   0  0  2  0  0  0  0  0  0  0  0  0
    0.2663    1.4380   -0.5975 C   0  0  0  0  0  0  0  0  0  0  0  0
    1.1738    0.4813   -0.2968 C   0  0  0  0  0  0  0  0  0  0  0  0
    2.5839    0.7124   -0.6745 N   0  0  0  0  0  0  0  0  0  0  0  0
    2.8571    1.7435   -1.2834 O   0  0  0  0  0  0  0  0  0  0  0  0
    3.3969   -0.1499   -0.3452 O   0  0  0  0  0  0  0  0  0  0  0  0
    0.8485   -0.7629    0.3486 C   0  0  0  0  0  0  0  0  0  0  0  0
   -0.4602   -1.0702    0.5315 C   0  0  0  0  0  0  0  0  0  0  0  0
   -1.8568    1.8002   -0.7884 H   0  0  0  0  0  0  0  0  0  0  0  0
    0.5739    2.3515   -1.0895 H   0  0  0  0  0  0  0  0  0  0  0  0
    1.6450   -1.4379    0.6279 H   0  0  0  0  0  0  0  0  0  0  0  0
   -0.7673   -2.0238    0.9465 H   0  0  0  0  0  0  0  0  0  0  0  0
   -1.2457    2.4644    1.4554 Cl  0  0  0  0  0  0  0  0  0  0  0  0
  1  2  1  6  0  0  0
  1 11  1  0  0  0  0
  3  2  1  0  0  0  0
  4 12  1  6  0  0  0
  4  1  1  0  0  0  0
  4 16  1  0  0  0  0
  5  6  2  0  0  0  0
  5  4  1  0  0  0  0
  6 10  1  0  0  0  0
  7  9  2  0  0  0  0
  7  6  1  0  0  0  0
  8  7  2  0  0  0  0
 10 11  2  0  0  0  0
 10 14  1  0  0  0  0
 11 15  1  0  0  0  0
 13  5  1  0  0  0  0
M  RAD  3   1   2   2   2   3   3
M  END
