Coordinates from ORCA-job 4-NO2PhN2+~Cl-_B3LYPG-6-31G_dp-NX-Scan-d89-09-n800
 OpenBabel11261920193D

 16 16  0  0  1  0  0  0  0  0999 V2000
   -1.4246   -0.2289    0.0284 C   0  0  0  0  0  0  0  0  0  0  0  0
   -2.6901   -0.4184    0.3468 N   0  0  0  0  0  0  0  0  0  0  0  0
   -3.7794   -0.3144    0.6509 N   0  0  0  0  0  0  0  0  0  0  0  0
   -1.1439    1.1806   -0.3566 C   0  0  2  0  0  0  0  0  0  0  0  0
    0.2965    1.4222   -0.5659 C   0  0  0  0  0  0  0  0  0  0  0  0
    1.2084    0.4618   -0.2929 C   0  0  0  0  0  0  0  0  0  0  0  0
    2.6383    0.7848   -0.5213 N   0  0  0  0  0  0  0  0  0  0  0  0
    2.9176    1.9013   -0.9488 O   0  0  0  0  0  0  0  0  0  0  0  0
    3.4547   -0.0986   -0.2675 O   0  0  0  0  0  0  0  0  0  0  0  0
    0.8965   -0.8623    0.1767 C   0  0  0  0  0  0  0  0  0  0  0  0
   -0.4113   -1.1924    0.3359 C   0  0  0  0  0  0  0  0  0  0  0  0
   -1.7602    1.5553   -1.1731 H   0  0  0  0  0  0  0  0  0  0  0  0
    0.6162    2.3860   -0.9400 H   0  0  0  0  0  0  0  0  0  0  0  0
    1.7005   -1.5507    0.3917 H   0  0  0  0  0  0  0  0  0  0  0  0
   -0.7097   -2.1674    0.7055 H   0  0  0  0  0  0  0  0  0  0  0  0
   -1.8625    2.3193    1.0598 Cl  0  0  0  0  0  0  0  0  0  0  0  0
  1 11  2  0  0  0  0
  1  2  1  0  0  0  0
  2  3  1  0  0  0  0
  4 12  1  6  0  0  0
  4  1  1  0  0  0  0
  4 16  1  0  0  0  0
  5  4  1  0  0  0  0
  5  6  2  0  0  0  0
  6 10  1  0  0  0  0
  7  6  1  0  0  0  0
  7  9  2  0  0  0  0
  8  7  2  0  0  0  0
 10 11  1  0  0  0  0
 10 14  1  0  0  0  0
 11 15  1  0  0  0  0
 13  5  1  0  0  0  0
M  RAD  3   2   2   3   3  10   2
M  END
