Coordinates from ORCA-job 4-NO2PhN2+~Cl-_B3LYPG-6-31G_dp-NX-Scan-d89-09-n800
 OpenBabel11261920193D

 16 15  0  0  0  0  0  0  0  0999 V2000
   -1.4821   -0.1805    0.0699 C   0  0  0  0  0  0  0  0  0  0  0  0
   -2.7493   -0.6425   -0.0120 N   0  0  0  0  0  0  0  0  0  0  0  0
   -3.7549   -1.1515   -0.1235 N   0  0  0  0  0  0  0  0  0  0  0  0
   -1.1558    1.1479   -0.3327 C   0  0  0  0  0  0  0  0  0  0  0  0
    0.2113    1.4061   -0.5963 C   0  0  0  0  0  0  0  0  0  0  0  0
    1.1522    0.4477   -0.3051 C   0  0  0  0  0  0  0  0  0  0  0  0
    2.5642    0.7388   -0.5879 N   0  0  0  0  0  0  0  0  0  0  0  0
    2.8286    1.8013   -1.1443 O   0  0  0  0  0  0  0  0  0  0  0  0
    3.3870   -0.1181   -0.2626 O   0  0  0  0  0  0  0  0  0  0  0  0
    0.8301   -0.8067    0.2802 C   0  0  0  0  0  0  0  0  0  0  0  0
   -0.4802   -1.1368    0.4646 C   0  0  0  0  0  0  0  0  0  0  0  0
   -1.9233    1.8259   -0.6767 H   0  0  0  0  0  0  0  0  0  0  0  0
    0.5114    2.3627   -1.0002 H   0  0  0  0  0  0  0  0  0  0  0  0
    1.6306   -1.4832    0.5488 H   0  0  0  0  0  0  0  0  0  0  0  0
   -0.7798   -2.0960    0.8695 H   0  0  0  0  0  0  0  0  0  0  0  0
   -0.8432    3.0634    1.4381 Cl  0  0  0  0  0  0  0  0  0  0  0  0
  1 11  2  0  0  0  0
  2  1  1  0  0  0  0
  3  2  1  0  0  0  0
  4  1  1  0  0  0  0
  5  4  2  0  0  0  0
  5  6  1  0  0  0  0
  6 10  2  0  0  0  0
  7  6  1  0  0  0  0
  7  9  2  0  0  0  0
  8  7  2  0  0  0  0
 10 11  1  0  0  0  0
 10 14  1  0  0  0  0
 11 15  1  0  0  0  0
 12  4  1  0  0  0  0
 13  5  1  0  0  0  0
M  RAD  3   2   2   3   3  16   2
M  END
