Coordinates from ORCA-job 4-NO2PhN2+~Cl-_B3LYPG-6-31G_dp-NX-Scan-d89-09-n800
 OpenBabel11261920193D

 16 16  0  0  1  0  0  0  0  0999 V2000
   -1.4482   -0.1568    0.0774 C   0  0  0  0  0  0  0  0  0  0  0  0
   -2.7221   -0.4979    0.1294 N   0  0  0  0  0  0  0  0  0  0  0  0
   -3.8258   -0.7707    0.1608 N   0  0  0  0  0  0  0  0  0  0  0  0
   -1.1319    1.2538   -0.2375 C   0  0  2  0  0  0  0  0  0  0  0  0
    0.2874    1.4336   -0.5961 C   0  0  0  0  0  0  0  0  0  0  0  0
    1.1951    0.4773   -0.2960 C   0  0  0  0  0  0  0  0  0  0  0  0
    2.6161    0.7425   -0.6157 N   0  0  0  0  0  0  0  0  0  0  0  0
    2.8964    1.8056   -1.1627 O   0  0  0  0  0  0  0  0  0  0  0  0
    3.4273   -0.1293   -0.3088 O   0  0  0  0  0  0  0  0  0  0  0  0
    0.8698   -0.7966    0.2876 C   0  0  0  0  0  0  0  0  0  0  0  0
   -0.4401   -1.1112    0.4540 C   0  0  0  0  0  0  0  0  0  0  0  0
   -1.8226    1.7170   -0.9382 H   0  0  0  0  0  0  0  0  0  0  0  0
    0.6021    2.3647   -1.0488 H   0  0  0  0  0  0  0  0  0  0  0  0
    1.6665   -1.4791    0.5464 H   0  0  0  0  0  0  0  0  0  0  0  0
   -0.7467   -2.0730    0.8502 H   0  0  0  0  0  0  0  0  0  0  0  0
   -1.4764    2.3985    1.3277 Cl  0  0  0  0  0  0  0  0  0  0  0  0
  1  2  1  0  0  0  0
  1 11  2  0  0  0  0
  2  3  1  0  0  0  0
  4 12  1  6  0  0  0
  4  1  1  0  0  0  0
  4 16  1  0  0  0  0
  5  6  2  0  0  0  0
  5  4  1  0  0  0  0
  6 10  1  0  0  0  0
  7  9  2  0  0  0  0
  7  6  1  0  0  0  0
  8  7  2  0  0  0  0
 10 11  1  0  0  0  0
 10 14  1  0  0  0  0
 11 15  1  0  0  0  0
 13  5  1  0  0  0  0
M  RAD  3   2   2   3   3  10   2
M  END
