Coordinates from ORCA-job 4-NO2PhN2+~Cl-_B3LYPG-6-31G_dp-NX-Scan-d89-09-n800
 OpenBabel11261920193D

 16 16  0  0  1  0  0  0  0  0999 V2000
   -1.4294   -0.2107    0.0344 C   0  0  0  0  0  0  0  0  0  0  0  0
   -2.7012   -0.4341    0.3011 N   0  0  0  0  0  0  0  0  0  0  0  0
   -3.8089   -0.4336    0.5515 N   0  0  0  0  0  0  0  0  0  0  0  0
   -1.1391    1.1988   -0.3332 C   0  0  2  0  0  0  0  0  0  0  0  0
    0.2980    1.4256   -0.5764 C   0  0  0  0  0  0  0  0  0  0  0  0
    1.2080    0.4661   -0.2942 C   0  0  0  0  0  0  0  0  0  0  0  0
    2.6371    0.7757   -0.5415 N   0  0  0  0  0  0  0  0  0  0  0  0
    2.9186    1.8804   -0.9972 O   0  0  0  0  0  0  0  0  0  0  0  0
    3.4510   -0.1058   -0.2733 O   0  0  0  0  0  0  0  0  0  0  0  0
    0.8909   -0.8468    0.2017 C   0  0  0  0  0  0  0  0  0  0  0  0
   -0.4180   -1.1722    0.3603 C   0  0  0  0  0  0  0  0  0  0  0  0
   -1.7742    1.5958   -1.1236 H   0  0  0  0  0  0  0  0  0  0  0  0
    0.6178    2.3818   -0.9691 H   0  0  0  0  0  0  0  0  0  0  0  0
    1.6922   -1.5350    0.4277 H   0  0  0  0  0  0  0  0  0  0  0  0
   -0.7195   -2.1439    0.7359 H   0  0  0  0  0  0  0  0  0  0  0  0
   -1.7764    2.3363    1.1257 Cl  0  0  0  0  0  0  0  0  0  0  0  0
  1  2  1  0  0  0  0
  1 11  2  0  0  0  0
  2  3  1  0  0  0  0
  4 12  1  6  0  0  0
  4  1  1  0  0  0  0
  4 16  1  0  0  0  0
  5  4  1  0  0  0  0
  5  6  2  0  0  0  0
  6 10  1  0  0  0  0
  7  6  1  0  0  0  0
  7  9  2  0  0  0  0
  8  7  2  0  0  0  0
 10 11  1  0  0  0  0
 10 14  1  0  0  0  0
 11 15  1  0  0  0  0
 13  5  1  0  0  0  0
M  RAD  3   2   2   3   3  10   2
M  END
