Coordinates from ORCA-job 4-NO2PhN2+~Cl-_B3LYPG-6-31G_dp-NX-Scan-d89-09-n800
 OpenBabel11261920193D

 16 15  0  0  0  0  0  0  0  0999 V2000
   -1.4867   -0.3369    0.0163 C   0  0  0  0  0  0  0  0  0  0  0  0
   -2.7734   -0.7878    0.0404 N   0  0  0  0  0  0  0  0  0  0  0  0
   -3.7967   -1.2631    0.0586 N   0  0  0  0  0  0  0  0  0  0  0  0
   -1.1913    1.0223   -0.2606 C   0  0  0  0  0  0  0  0  0  0  0  0
    0.1488    1.3745   -0.4046 C   0  0  0  0  0  0  0  0  0  0  0  0
    1.1269    0.3978   -0.2266 C   0  0  0  0  0  0  0  0  0  0  0  0
    2.5394    0.7578   -0.4351 N   0  0  0  0  0  0  0  0  0  0  0  0
    2.7762    1.8783   -0.8704 O   0  0  0  0  0  0  0  0  0  0  0  0
    3.3792   -0.1036   -0.1650 O   0  0  0  0  0  0  0  0  0  0  0  0
    0.8350   -0.9286    0.1344 C   0  0  0  0  0  0  0  0  0  0  0  0
   -0.4785   -1.3205    0.2456 C   0  0  0  0  0  0  0  0  0  0  0  0
   -1.9586    1.7829   -0.3599 H   0  0  0  0  0  0  0  0  0  0  0  0
    0.3985    2.4182   -0.5930 H   0  0  0  0  0  0  0  0  0  0  0  0
    1.6491   -1.6232    0.2983 H   0  0  0  0  0  0  0  0  0  0  0  0
   -0.7532   -2.3386    0.4947 H   0  0  0  0  0  0  0  0  0  0  0  0
   -0.4677    4.2489    0.6566 Cl  0  0  0  0  0  0  0  0  0  0  0  0
  1  2  1  0  0  0  0
  1 11  2  0  0  0  0
  2  3  1  0  0  0  0
  4  1  1  0  0  0  0
  5  4  2  0  0  0  0
  5  6  1  0  0  0  0
  6 10  2  0  0  0  0
  7  6  1  0  0  0  0
  7  9  2  0  0  0  0
  8  7  2  0  0  0  0
 10 11  1  0  0  0  0
 10 14  1  0  0  0  0
 11 15  1  0  0  0  0
 12  4  1  0  0  0  0
 13  5  1  0  0  0  0
M  RAD  3   2   2   3   3  16   2
M  END
