Coordinates from ORCA-job 4-NO2PhN2+~Cl-_B3LYPG-6-31G_dp-NX-Scan-d89-09-n800
 OpenBabel11261920193D

 16 15  0  0  0  0  0  0  0  0999 V2000
   -1.4845   -0.3097    0.0199 C   0  0  0  0  0  0  0  0  0  0  0  0
   -2.7706   -0.7605    0.0298 N   0  0  0  0  0  0  0  0  0  0  0  0
   -3.7907   -1.2434    0.0239 N   0  0  0  0  0  0  0  0  0  0  0  0
   -1.1841    1.0397   -0.2976 C   0  0  0  0  0  0  0  0  0  0  0  0
    0.1600    1.3786   -0.4547 C   0  0  0  0  0  0  0  0  0  0  0  0
    1.1326    0.4050   -0.2447 C   0  0  0  0  0  0  0  0  0  0  0  0
    2.5447    0.7527   -0.4655 N   0  0  0  0  0  0  0  0  0  0  0  0
    2.7867    1.8605   -0.9315 O   0  0  0  0  0  0  0  0  0  0  0  0
    3.3821   -0.1046   -0.1761 O   0  0  0  0  0  0  0  0  0  0  0  0
    0.8341   -0.9073    0.1655 C   0  0  0  0  0  0  0  0  0  0  0  0
   -0.4795   -1.2891    0.2899 C   0  0  0  0  0  0  0  0  0  0  0  0
   -1.9502    1.7956   -0.4295 H   0  0  0  0  0  0  0  0  0  0  0  0
    0.4226    2.4050   -0.6902 H   0  0  0  0  0  0  0  0  0  0  0  0
    1.6454   -1.5983    0.3561 H   0  0  0  0  0  0  0  0  0  0  0  0
   -0.7597   -2.2959    0.5758 H   0  0  0  0  0  0  0  0  0  0  0  0
   -0.5419    4.0500    0.8586 Cl  0  0  0  0  0  0  0  0  0  0  0  0
  1  2  1  0  0  0  0
  1 11  2  0  0  0  0
  3  2  1  0  0  0  0
  4  1  1  0  0  0  0
  5  4  2  0  0  0  0
  5  6  1  0  0  0  0
  6 10  2  0  0  0  0
  7  6  1  0  0  0  0
  7  9  2  0  0  0  0
  8  7  2  0  0  0  0
 10 11  1  0  0  0  0
 10 14  1  0  0  0  0
 11 15  1  0  0  0  0
 12  4  1  0  0  0  0
 13  5  1  0  0  0  0
M  RAD  3   2   2   3   3  16   2
M  END
