Coordinates from ORCA-job 4-NO2PhN2+~Cl-_B3LYPG-6-31G_dp-NX-Scan-d89-09-n800
 OpenBabel11261920193D

 16 16  0  0  0  0  0  0  0  0999 V2000
   -1.2297    0.0227    0.4820 C   0  0  0  0  0  0  0  0  0  0  0  0
   -2.5223   -0.2257    1.0048 N   0  0  0  0  0  0  0  0  0  0  0  0
   -3.6205    0.1626    0.7623 N   0  0  0  0  0  0  0  0  0  0  0  0
   -0.7866    1.3170    0.1762 C   0  0  0  0  0  0  0  0  0  0  0  0
    0.5226    1.4894   -0.2606 C   0  0  0  0  0  0  0  0  0  0  0  0
    1.3460    0.3727   -0.3910 C   0  0  0  0  0  0  0  0  0  0  0  0
    2.7310    0.5632   -0.8654 N   0  0  0  0  0  0  0  0  0  0  0  0
    3.0867    1.7101   -1.1253 O   0  0  0  0  0  0  0  0  0  0  0  0
    3.4357   -0.4383   -0.9678 O   0  0  0  0  0  0  0  0  0  0  0  0
    0.9170   -0.9160   -0.0788 C   0  0  0  0  0  0  0  0  0  0  0  0
   -0.3809   -1.0876    0.3869 C   0  0  0  0  0  0  0  0  0  0  0  0
   -1.4517    2.1636    0.2810 H   0  0  0  0  0  0  0  0  0  0  0  0
    0.9109    2.4695   -0.5070 H   0  0  0  0  0  0  0  0  0  0  0  0
    1.5996   -1.7490   -0.1878 H   0  0  0  0  0  0  0  0  0  0  0  0
   -0.7505   -2.0673    0.6678 H   0  0  0  0  0  0  0  0  0  0  0  0
   -3.8604    1.3914   -0.7475 Cl  0  0  0  0  0  0  0  0  0  0  0  0
  1  2  1  0  0  0  0
  3  2  2  0  0  0  0
  4 12  1  0  0  0  0
  4  1  2  0  0  0  0
  5  4  1  0  0  0  0
  6  5  2  0  0  0  0
  6 10  1  0  0  0  0
  7  6  1  0  0  0  0
  8  7  2  0  0  0  0
  9  7  2  0  0  0  0
 10 11  2  0  0  0  0
 11  1  1  0  0  0  0
 11 15  1  0  0  0  0
 13  5  1  0  0  0  0
 14 10  1  0  0  0  0
 16  3  1  0  0  0  0
M  END
