Coordinates from ORCA-job 4-NO2PhN2+~Cl-_B3LYPG-6-31G_dp-NX-Scan-d89-09-n800
 OpenBabel11261920193D

 16 15  0  0  0  0  0  0  0  0999 V2000
   -1.2270   -0.1375    0.2775 C   0  0  0  0  0  0  0  0  0  0  0  0
   -2.5652   -0.4192    0.6213 N   0  0  0  0  0  0  0  0  0  0  0  0
   -3.6373   -0.0368    0.7525 N   0  0  0  0  0  0  0  0  0  0  0  0
   -0.8849    1.1645   -0.1098 C   0  0  0  0  0  0  0  0  0  0  0  0
    0.4459    1.4033   -0.4425 C   0  0  0  0  0  0  0  0  0  0  0  0
    1.3604    0.3538   -0.3760 C   0  0  0  0  0  0  0  0  0  0  0  0
    2.7745    0.6214   -0.7321 N   0  0  0  0  0  0  0  0  0  0  0  0
    3.0613    1.7652   -1.0694 O   0  0  0  0  0  0  0  0  0  0  0  0
    3.5575   -0.3219   -0.6632 O   0  0  0  0  0  0  0  0  0  0  0  0
    1.0115   -0.9406    0.0106 C   0  0  0  0  0  0  0  0  0  0  0  0
   -0.3117   -1.1950    0.3453 C   0  0  0  0  0  0  0  0  0  0  0  0
   -1.6580    1.9347   -0.1369 H   0  0  0  0  0  0  0  0  0  0  0  0
    0.7796    2.3861   -0.7511 H   0  0  0  0  0  0  0  0  0  0  0  0
    1.7688   -1.7130    0.0423 H   0  0  0  0  0  0  0  0  0  0  0  0
   -0.6383   -2.1816    0.6534 H   0  0  0  0  0  0  0  0  0  0  0  0
   -3.8902    2.4951    0.2076 Cl  0  0  0  0  0  0  0  0  0  0  0  0
  1 11  1  0  0  0  0
  1  2  1  0  0  0  0
  2  3  2  0  0  0  0
  4  1  2  0  0  0  0
  5  6  2  0  0  0  0
  5  4  1  0  0  0  0
  6 10  1  0  0  0  0
  7  9  2  0  0  0  0
  7  6  1  0  0  0  0
  8  7  2  0  0  0  0
 10 14  1  0  0  0  0
 10 11  2  0  0  0  0
 11 15  1  0  0  0  0
 12  4  1  0  0  0  0
 13  5  1  0  0  0  0
M  RAD  2   3   2  16   2
M  END
