Coordinates from ORCA-job 4-NO2PhN2+~Cl-_B3LYPG-6-31G_dp-NX-Scan-d89-09-n800
 OpenBabel11261920193D

 16 16  0  0  1  0  0  0  0  0999 V2000
   -1.4461   -0.1619    0.0717 C   0  0  0  0  0  0  0  0  0  0  0  0
   -2.7216   -0.4913    0.1474 N   0  0  0  0  0  0  0  0  0  0  0  0
   -3.8296   -0.7405    0.2023 N   0  0  0  0  0  0  0  0  0  0  0  0
   -1.1321    1.2487   -0.2478 C   0  0  2  0  0  0  0  0  0  0  0  0
    0.2894    1.4329   -0.5951 C   0  0  0  0  0  0  0  0  0  0  0  0
    1.1972    0.4764   -0.2960 C   0  0  0  0  0  0  0  0  0  0  0  0
    2.6193    0.7460   -0.6081 N   0  0  0  0  0  0  0  0  0  0  0  0
    2.9002    1.8135   -1.1461 O   0  0  0  0  0  0  0  0  0  0  0  0
    3.4304   -0.1269   -0.3045 O   0  0  0  0  0  0  0  0  0  0  0  0
    0.8722   -0.8014    0.2791 C   0  0  0  0  0  0  0  0  0  0  0  0
   -0.4378   -1.1168    0.4441 C   0  0  0  0  0  0  0  0  0  0  0  0
   -1.8180    1.7057   -0.9575 H   0  0  0  0  0  0  0  0  0  0  0  0
    0.6049    2.3665   -1.0422 H   0  0  0  0  0  0  0  0  0  0  0  0
    1.6690   -1.4848    0.5350 H   0  0  0  0  0  0  0  0  0  0  0  0
   -0.7442   -2.0796    0.8381 H   0  0  0  0  0  0  0  0  0  0  0  0
   -1.5063    2.3918    1.3093 Cl  0  0  0  0  0  0  0  0  0  0  0  0
  1  2  1  0  0  0  0
  1 11  2  0  0  0  0
  2  3  1  0  0  0  0
  4 12  1  6  0  0  0
  4  1  1  0  0  0  0
  4 16  1  0  0  0  0
  5  6  2  0  0  0  0
  5  4  1  0  0  0  0
  6 10  1  0  0  0  0
  7  9  2  0  0  0  0
  7  6  1  0  0  0  0
  8  7  2  0  0  0  0
 10 11  1  0  0  0  0
 10 14  1  0  0  0  0
 11 15  1  0  0  0  0
 13  5  1  0  0  0  0
M  RAD  3   2   2   3   3  10   2
M  END
