Coordinates from ORCA-job 4-NO2PhN2+~Cl-_B3LYPG-6-31G_dp-NX-Scan-d89-09-n800
 OpenBabel11261920193D

 16 15  0  0  0  0  0  0  0  0999 V2000
   -1.5695   -0.5394   -0.0268 C   0  0  0  0  0  0  0  0  0  0  0  0
   -2.8073   -1.0756    0.0418 N   0  0  0  0  0  0  0  0  0  0  0  0
   -3.8408   -1.5341    0.1007 N   0  0  0  0  0  0  0  0  0  0  0  0
   -1.4290    0.8482   -0.3148 C   0  0  0  0  0  0  0  0  0  0  0  0
   -0.1574    1.3703   -0.4175 C   0  0  0  0  0  0  0  0  0  0  0  0
    0.9474    0.5225   -0.2148 C   0  0  0  0  0  0  0  0  0  0  0  0
    2.2712    1.0652   -0.3482 N   0  0  0  0  0  0  0  0  0  0  0  0
    2.3447    2.1501   -0.9507 O   0  0  0  0  0  0  0  0  0  0  0  0
    3.2205    0.4367    0.1438 O   0  0  0  0  0  0  0  0  0  0  0  0
    0.8075   -0.8366    0.1180 C   0  0  0  0  0  0  0  0  0  0  0  0
   -0.4502   -1.3893    0.2000 C   0  0  0  0  0  0  0  0  0  0  0  0
   -2.3077    1.4706   -0.4389 H   0  0  0  0  0  0  0  0  0  0  0  0
    0.0231    2.4258   -0.6009 H   0  0  0  0  0  0  0  0  0  0  0  0
    1.7015   -1.4210    0.2971 H   0  0  0  0  0  0  0  0  0  0  0  0
   -0.5992   -2.4374    0.4327 H   0  0  0  0  0  0  0  0  0  0  0  0
    1.7919    4.1225    0.6084 Cl  0  0  0  0  0  0  0  0  0  0  0  0
  1  2  1  0  0  0  0
  1 11  2  0  0  0  0
  2  3  1  0  0  0  0
  4  1  1  0  0  0  0
  5  4  2  0  0  0  0
  5  6  1  0  0  0  0
  6 10  2  0  0  0  0
  7  6  1  0  0  0  0
  7  9  2  0  0  0  0
  8  7  2  0  0  0  0
 10 11  1  0  0  0  0
 10 14  1  0  0  0  0
 11 15  1  0  0  0  0
 12  4  1  0  0  0  0
 13  5  1  0  0  0  0
M  RAD  3   2   2   3   3  16   2
M  END
