Coordinates from ORCA-job 4-NO2PhN2+~Cl-_B3LYPG-6-31G_dp-NX-Scan-d89-09-n800
 OpenBabel11261920193D

 16 16  0  0  0  0  0  0  0  0999 V2000
   -1.2292    0.0075    0.4623 C   0  0  0  0  0  0  0  0  0  0  0  0
   -2.5249   -0.2529    0.9680 N   0  0  0  0  0  0  0  0  0  0  0  0
   -3.6236    0.1480    0.7755 N   0  0  0  0  0  0  0  0  0  0  0  0
   -0.7953    1.3029    0.1472 C   0  0  0  0  0  0  0  0  0  0  0  0
    0.5168    1.4807   -0.2793 C   0  0  0  0  0  0  0  0  0  0  0  0
    1.3503    0.3695   -0.3901 C   0  0  0  0  0  0  0  0  0  0  0  0
    2.7390    0.5670   -0.8531 N   0  0  0  0  0  0  0  0  0  0  0  0
    3.0872    1.7141   -1.1213 O   0  0  0  0  0  0  0  0  0  0  0  0
    3.4525   -0.4297   -0.9381 O   0  0  0  0  0  0  0  0  0  0  0  0
    0.9298   -0.9199   -0.0694 C   0  0  0  0  0  0  0  0  0  0  0  0
   -0.3712   -1.0974    0.3847 C   0  0  0  0  0  0  0  0  0  0  0  0
   -1.4702    2.1434    0.2348 H   0  0  0  0  0  0  0  0  0  0  0  0
    0.8993    2.4613   -0.5325 H   0  0  0  0  0  0  0  0  0  0  0  0
    1.6204   -1.7480   -0.1637 H   0  0  0  0  0  0  0  0  0  0  0  0
   -0.7365   -2.0771    0.6709 H   0  0  0  0  0  0  0  0  0  0  0  0
   -3.8974    1.5090   -0.6661 Cl  0  0  0  0  0  0  0  0  0  0  0  0
  1  2  1  0  0  0  0
  3  2  2  0  0  0  0
  4 12  1  0  0  0  0
  4  1  2  0  0  0  0
  5  4  1  0  0  0  0
  6  5  2  0  0  0  0
  6 10  1  0  0  0  0
  7  6  1  0  0  0  0
  8  7  2  0  0  0  0
  9  7  2  0  0  0  0
 10 11  2  0  0  0  0
 11  1  1  0  0  0  0
 11 15  1  0  0  0  0
 13  5  1  0  0  0  0
 14 10  1  0  0  0  0
 16  3  1  0  0  0  0
M  END
