Coordinates from ORCA-job 4-NO2PhN2+~Cl-_B3LYPG-6-31G_dp-NX-Scan-d89-09-n800
 OpenBabel11261920193D

 16 15  0  0  0  0  0  0  0  0999 V2000
   -1.5003   -0.3953    0.0057 C   0  0  0  0  0  0  0  0  0  0  0  0
   -2.7838   -0.8540    0.0423 N   0  0  0  0  0  0  0  0  0  0  0  0
   -3.8153   -1.3116    0.0811 N   0  0  0  0  0  0  0  0  0  0  0  0
   -1.2281    0.9796   -0.2137 C   0  0  0  0  0  0  0  0  0  0  0  0
    0.1004    1.3715   -0.3365 C   0  0  0  0  0  0  0  0  0  0  0  0
    1.0977    0.4037   -0.1960 C   0  0  0  0  0  0  0  0  0  0  0  0
    2.5057    0.7960   -0.3851 N   0  0  0  0  0  0  0  0  0  0  0  0
    2.7203    1.9228   -0.8120 O   0  0  0  0  0  0  0  0  0  0  0  0
    3.3602   -0.0477   -0.1031 O   0  0  0  0  0  0  0  0  0  0  0  0
    0.8315   -0.9416    0.1010 C   0  0  0  0  0  0  0  0  0  0  0  0
   -0.4757   -1.3672    0.1869 C   0  0  0  0  0  0  0  0  0  0  0  0
   -2.0190    1.7195   -0.2791 H   0  0  0  0  0  0  0  0  0  0  0  0
    0.3289    2.4366   -0.4759 H   0  0  0  0  0  0  0  0  0  0  0  0
    1.6595   -1.6265    0.2340 H   0  0  0  0  0  0  0  0  0  0  0  0
   -0.7289   -2.4025    0.3827 H   0  0  0  0  0  0  0  0  0  0  0  0
   -0.1062    4.4951    0.3972 Cl  0  0  0  0  0  0  0  0  0  0  0  0
  1  2  1  0  0  0  0
  1 11  2  0  0  0  0
  2  3  1  0  0  0  0
  4  1  1  0  0  0  0
  5  4  2  0  0  0  0
  5  6  1  0  0  0  0
  6 10  2  0  0  0  0
  7  6  1  0  0  0  0
  7  9  2  0  0  0  0
  8  7  2  0  0  0  0
 10 11  1  0  0  0  0
 10 14  1  0  0  0  0
 11 15  1  0  0  0  0
 12  4  1  0  0  0  0
 13  5  1  0  0  0  0
M  RAD  3   2   2   3   3  16   2
M  END
