Coordinates from ORCA-job 4-NO2PhN2+~Cl-_B3LYPG-6-31G_dp-NX-Scan-d89-09-n800
 OpenBabel11261920193D

 16 16  0  0  0  0  0  0  0  0999 V2000
   -1.2315    0.0464    0.5071 C   0  0  0  0  0  0  0  0  0  0  0  0
   -2.5201   -0.1829    1.0539 N   0  0  0  0  0  0  0  0  0  0  0  0
   -3.6165    0.1811    0.7347 N   0  0  0  0  0  0  0  0  0  0  0  0
   -0.7735    1.3382    0.2142 C   0  0  0  0  0  0  0  0  0  0  0  0
    0.5320    1.5024   -0.2359 C   0  0  0  0  0  0  0  0  0  0  0  0
    1.3401    0.3777   -0.3920 C   0  0  0  0  0  0  0  0  0  0  0  0
    2.7204    0.5574   -0.8807 N   0  0  0  0  0  0  0  0  0  0  0  0
    3.0881    1.7035   -1.1290 O   0  0  0  0  0  0  0  0  0  0  0  0
    3.4115   -0.4511   -1.0071 O   0  0  0  0  0  0  0  0  0  0  0  0
    0.8975   -0.9091   -0.0917 C   0  0  0  0  0  0  0  0  0  0  0  0
   -0.3969   -1.0717    0.3877 C   0  0  0  0  0  0  0  0  0  0  0  0
   -1.4250    2.1930    0.3414 H   0  0  0  0  0  0  0  0  0  0  0  0
    0.9293    2.4811   -0.4731 H   0  0  0  0  0  0  0  0  0  0  0  0
    1.5679   -1.7492   -0.2204 H   0  0  0  0  0  0  0  0  0  0  0  0
   -0.7737   -2.0510    0.6601 H   0  0  0  0  0  0  0  0  0  0  0  0
   -3.8025    1.2127   -0.8395 Cl  0  0  0  0  0  0  0  0  0  0  0  0
  1  2  1  0  0  0  0
  3  2  2  0  0  0  0
  4 12  1  0  0  0  0
  4  1  2  0  0  0  0
  5  4  1  0  0  0  0
  6  5  2  0  0  0  0
  6 10  1  0  0  0  0
  7  6  1  0  0  0  0
  8  7  2  0  0  0  0
  9  7  2  0  0  0  0
 10 11  2  0  0  0  0
 11  1  1  0  0  0  0
 11 15  1  0  0  0  0
 13  5  1  0  0  0  0
 14 10  1  0  0  0  0
 16  3  1  0  0  0  0
M  END
