Coordinates from ORCA-job 4-NO2PhN2+~Cl-_B3LYPG-6-31G_dp-NX-Scan-d89-09-n800
 OpenBabel11261920193D

 16 16  0  0  1  0  0  0  0  0999 V2000
   -1.4494   -0.1544    0.0801 C   0  0  0  0  0  0  0  0  0  0  0  0
   -2.7224   -0.5014    0.1205 N   0  0  0  0  0  0  0  0  0  0  0  0
   -3.8235   -0.7859    0.1402 N   0  0  0  0  0  0  0  0  0  0  0  0
   -1.1318    1.2565   -0.2324 C   0  0  2  0  0  0  0  0  0  0  0  0
    0.2865    1.4340   -0.5963 C   0  0  0  0  0  0  0  0  0  0  0  0
    1.1941    0.4779   -0.2957 C   0  0  0  0  0  0  0  0  0  0  0  0
    2.6145    0.7409   -0.6189 N   0  0  0  0  0  0  0  0  0  0  0  0
    2.8943    1.8013   -1.1715 O   0  0  0  0  0  0  0  0  0  0  0  0
    3.4256   -0.1309   -0.3116 O   0  0  0  0  0  0  0  0  0  0  0  0
    0.8686   -0.7942    0.2919 C   0  0  0  0  0  0  0  0  0  0  0  0
   -0.4412   -1.1084    0.4589 C   0  0  0  0  0  0  0  0  0  0  0  0
   -1.8248    1.7226   -0.9287 H   0  0  0  0  0  0  0  0  0  0  0  0
    0.6008    2.3640   -1.0516 H   0  0  0  0  0  0  0  0  0  0  0  0
    1.6652   -1.4762    0.5522 H   0  0  0  0  0  0  0  0  0  0  0  0
   -0.7480   -2.0697    0.8561 H   0  0  0  0  0  0  0  0  0  0  0  0
   -1.4617    2.4022    1.3366 Cl  0  0  0  0  0  0  0  0  0  0  0  0
  1  2  1  0  0  0  0
  1 11  2  0  0  0  0
  2  3  1  0  0  0  0
  4 12  1  6  0  0  0
  4  1  1  0  0  0  0
  4 16  1  0  0  0  0
  5  6  2  0  0  0  0
  5  4  1  0  0  0  0
  6 10  1  0  0  0  0
  7  9  2  0  0  0  0
  7  6  1  0  0  0  0
  8  7  2  0  0  0  0
 10 11  1  0  0  0  0
 10 14  1  0  0  0  0
 11 15  1  0  0  0  0
 13  5  1  0  0  0  0
M  RAD  3   2   2   3   3  10   2
M  END
