Coordinates from ORCA-job 4-NO2PhN2+~Cl-_B3LYPG-6-31G_dp-NX-Scan-d89-09-n800
 OpenBabel11261920193D

 16 16  0  0  1  0  0  0  0  0999 V2000
   -1.4706   -0.1166    0.1319 C   0  0  2  0  0  0  0  0  0  0  0  0
   -2.7105   -0.5544   -0.0244 N   0  0  0  0  0  0  0  0  0  0  0  0
   -3.7458   -1.0037   -0.1845 N   0  0  0  0  0  0  0  0  0  0  0  0
   -1.1333    1.2935   -0.1526 C   0  0  2  0  0  0  0  0  0  0  0  0
    0.2644    1.4384   -0.5967 C   0  0  0  0  0  0  0  0  0  0  0  0
    1.1721    0.4817   -0.2961 C   0  0  0  0  0  0  0  0  0  0  0  0
    2.5814    0.7108   -0.6772 N   0  0  0  0  0  0  0  0  0  0  0  0
    2.8534    1.7382   -1.2930 O   0  0  0  0  0  0  0  0  0  0  0  0
    3.3940   -0.1526   -0.3499 O   0  0  0  0  0  0  0  0  0  0  0  0
    0.8469   -0.7605    0.3530 C   0  0  0  0  0  0  0  0  0  0  0  0
   -0.4617   -1.0675    0.5371 C   0  0  0  0  0  0  0  0  0  0  0  0
   -1.8591    1.8056   -0.7780 H   0  0  0  0  0  0  0  0  0  0  0  0
    0.5715    2.3510   -1.0909 H   0  0  0  0  0  0  0  0  0  0  0  0
    1.6435   -1.4349    0.6338 H   0  0  0  0  0  0  0  0  0  0  0  0
   -0.7688   -2.0206    0.9535 H   0  0  0  0  0  0  0  0  0  0  0  0
   -1.2305    2.4701    1.4637 Cl  0  0  0  0  0  0  0  0  0  0  0  0
  1  2  1  6  0  0  0
  1 11  1  0  0  0  0
  3  2  1  0  0  0  0
  4 12  1  6  0  0  0
  4  1  1  0  0  0  0
  4 16  1  0  0  0  0
  5  6  2  0  0  0  0
  5  4  1  0  0  0  0
  6 10  1  0  0  0  0
  7  9  2  0  0  0  0
  7  6  1  0  0  0  0
  8  7  2  0  0  0  0
 10 11  2  0  0  0  0
 10 14  1  0  0  0  0
 11 15  1  0  0  0  0
 13  5  1  0  0  0  0
M  RAD  3   1   2   2   2   3   3
M  END
