Coordinates from ORCA-job 4-NO2PhN2+~Cl-_B3LYPG-6-31G_dp-NX-Scan-d89-09-n800
 OpenBabel11261920193D

 16 15  0  0  0  0  0  0  0  0999 V2000
   -1.5068   -0.4170    0.0032 C   0  0  0  0  0  0  0  0  0  0  0  0
   -2.7880   -0.8812    0.0426 N   0  0  0  0  0  0  0  0  0  0  0  0
   -3.8212   -1.3350    0.0861 N   0  0  0  0  0  0  0  0  0  0  0  0
   -1.2453    0.9635   -0.1939 C   0  0  0  0  0  0  0  0  0  0  0  0
    0.0783    1.3714   -0.3093 C   0  0  0  0  0  0  0  0  0  0  0  0
    1.0839    0.4086   -0.1843 C   0  0  0  0  0  0  0  0  0  0  0  0
    2.4896    0.8150   -0.3634 N   0  0  0  0  0  0  0  0  0  0  0  0
    2.6947    1.9417   -0.7942 O   0  0  0  0  0  0  0  0  0  0  0  0
    3.3501   -0.0194   -0.0711 O   0  0  0  0  0  0  0  0  0  0  0  0
    0.8292   -0.9436    0.0873 C   0  0  0  0  0  0  0  0  0  0  0  0
   -0.4746   -1.3828    0.1648 C   0  0  0  0  0  0  0  0  0  0  0  0
   -2.0464    1.6932   -0.2475 H   0  0  0  0  0  0  0  0  0  0  0  0
    0.3007    2.4422   -0.4358 H   0  0  0  0  0  0  0  0  0  0  0  0
    1.6633   -1.6233    0.2079 H   0  0  0  0  0  0  0  0  0  0  0  0
   -0.7184   -2.4241    0.3400 H   0  0  0  0  0  0  0  0  0  0  0  0
    0.0578    4.5693    0.2973 Cl  0  0  0  0  0  0  0  0  0  0  0  0
  1  2  1  0  0  0  0
  1 11  2  0  0  0  0
  2  3  1  0  0  0  0
  4  1  1  0  0  0  0
  5  4  2  0  0  0  0
  5  6  1  0  0  0  0
  6 10  2  0  0  0  0
  7  6  1  0  0  0  0
  7  9  2  0  0  0  0
  8  7  2  0  0  0  0
 10 11  1  0  0  0  0
 10 14  1  0  0  0  0
 11 15  1  0  0  0  0
 12  4  1  0  0  0  0
 13  5  1  0  0  0  0
M  RAD  3   2   2   3   3  16   2
M  END
