Coordinates from ORCA-job 4-NO2PhN2+~Cl-_B3LYPG-6-31G_dp-NX-Scan-d89-09-n800
 OpenBabel11261920193D

 16 16  0  0  1  0  0  0  0  0999 V2000
   -1.4204   -0.2455    0.0270 C   0  0  0  0  0  0  0  0  0  0  0  0
   -2.6805   -0.4089    0.3816 N   0  0  0  0  0  0  0  0  0  0  0  0
   -3.7464   -0.2046    0.7186 N   0  0  0  0  0  0  0  0  0  0  0  0
   -1.1492    1.1642   -0.3723 C   0  0  2  0  0  0  0  0  0  0  0  0
    0.2930    1.4182   -0.5561 C   0  0  0  0  0  0  0  0  0  0  0  0
    1.2074    0.4576   -0.2920 C   0  0  0  0  0  0  0  0  0  0  0  0
    2.6373    0.7921   -0.5071 N   0  0  0  0  0  0  0  0  0  0  0  0
    2.9134    1.9185   -0.9098 O   0  0  0  0  0  0  0  0  0  0  0  0
    3.4569   -0.0912   -0.2639 O   0  0  0  0  0  0  0  0  0  0  0  0
    0.9013   -0.8752    0.1570 C   0  0  0  0  0  0  0  0  0  0  0  0
   -0.4053   -1.2100    0.3181 C   0  0  0  0  0  0  0  0  0  0  0  0
   -1.7510    1.5200   -1.2085 H   0  0  0  0  0  0  0  0  0  0  0  0
    0.6114    2.3879   -0.9156 H   0  0  0  0  0  0  0  0  0  0  0  0
    1.7083   -1.5629    0.3625 H   0  0  0  0  0  0  0  0  0  0  0  0
   -0.7001   -2.1879    0.6828 H   0  0  0  0  0  0  0  0  0  0  0  0
   -1.9293    2.3062    1.0074 Cl  0  0  0  0  0  0  0  0  0  0  0  0
  1 11  2  0  0  0  0
  1  2  1  0  0  0  0
  2  3  1  0  0  0  0
  4 12  1  6  0  0  0
  4  1  1  0  0  0  0
  4 16  1  0  0  0  0
  5  4  1  0  0  0  0
  5  6  2  0  0  0  0
  6 10  1  0  0  0  0
  7  6  1  0  0  0  0
  7  9  2  0  0  0  0
  8  7  2  0  0  0  0
 10 11  1  0  0  0  0
 10 14  1  0  0  0  0
 11 15  1  0  0  0  0
 13  5  1  0  0  0  0
M  RAD  3   2   2   3   3  10   2
M  END
