Coordinates from ORCA-job 4-NO2PhN2+~Cl-_B3LYPG-6-31G_dp-NX-Scan-d89-09-n800
 OpenBabel11261920193D

 16 15  0  0  0  0  0  0  0  0999 V2000
   -1.4850   -0.1508    0.0959 C   0  0  0  0  0  0  0  0  0  0  0  0
   -2.7375   -0.6293   -0.0356 N   0  0  0  0  0  0  0  0  0  0  0  0
   -3.7260   -1.1638   -0.1938 N   0  0  0  0  0  0  0  0  0  0  0  0
   -1.1500    1.1908   -0.2847 C   0  0  0  0  0  0  0  0  0  0  0  0
    0.2220    1.4137   -0.6026 C   0  0  0  0  0  0  0  0  0  0  0  0
    1.1531    0.4550   -0.3088 C   0  0  0  0  0  0  0  0  0  0  0  0
    2.5643    0.7254   -0.6230 N   0  0  0  0  0  0  0  0  0  0  0  0
    2.8320    1.7755   -1.2009 O   0  0  0  0  0  0  0  0  0  0  0  0
    3.3833   -0.1328   -0.2933 O   0  0  0  0  0  0  0  0  0  0  0  0
    0.8279   -0.7892    0.3064 C   0  0  0  0  0  0  0  0  0  0  0  0
   -0.4819   -1.1059    0.5005 C   0  0  0  0  0  0  0  0  0  0  0  0
   -1.9133    1.8404   -0.6884 H   0  0  0  0  0  0  0  0  0  0  0  0
    0.5267    2.3585   -1.0312 H   0  0  0  0  0  0  0  0  0  0  0  0
    1.6258   -1.4656    0.5819 H   0  0  0  0  0  0  0  0  0  0  0  0
   -0.7856   -2.0589    0.9172 H   0  0  0  0  0  0  0  0  0  0  0  0
   -0.9089    2.9153    1.4899 Cl  0  0  0  0  0  0  0  0  0  0  0  0
  1 11  1  0  0  0  0
  2  1  1  0  0  0  0
  3  2  1  0  0  0  0
  4  1  2  0  0  0  0
  5  6  2  0  0  0  0
  5  4  1  0  0  0  0
  6 10  1  0  0  0  0
  7  6  1  0  0  0  0
  7  9  2  0  0  0  0
  8  7  2  0  0  0  0
 10 11  2  0  0  0  0
 10 14  1  0  0  0  0
 11 15  1  0  0  0  0
 12  4  1  0  0  0  0
 13  5  1  0  0  0  0
M  RAD  3   2   2   3   3  16   2
M  END
