Coordinates from ORCA-job 4-NO2PhN2+~Cl-_B3LYPG-6-31G_dp-NX-Scan-d89-09-n800
 OpenBabel11261920193D

 16 15  0  0  0  0  0  0  0  0999 V2000
   -1.5112   -0.4272    0.0028 C   0  0  0  0  0  0  0  0  0  0  0  0
   -2.7903   -0.8968    0.0433 N   0  0  0  0  0  0  0  0  0  0  0  0
   -3.8217   -1.3552    0.0885 N   0  0  0  0  0  0  0  0  0  0  0  0
   -1.2552    0.9563   -0.1821 C   0  0  0  0  0  0  0  0  0  0  0  0
    0.0661    1.3718   -0.2943 C   0  0  0  0  0  0  0  0  0  0  0  0
    1.0758    0.4113   -0.1784 C   0  0  0  0  0  0  0  0  0  0  0  0
    2.4802    0.8251   -0.3512 N   0  0  0  0  0  0  0  0  0  0  0  0
    2.6807    1.9532   -0.7802 O   0  0  0  0  0  0  0  0  0  0  0  0
    3.3437   -0.0052   -0.0552 O   0  0  0  0  0  0  0  0  0  0  0  0
    0.8272   -0.9445    0.0790 C   0  0  0  0  0  0  0  0  0  0  0  0
   -0.4750   -1.3900    0.1529 C   0  0  0  0  0  0  0  0  0  0  0  0
   -2.0611    1.6810   -0.2295 H   0  0  0  0  0  0  0  0  0  0  0  0
    0.2895    2.4437   -0.4164 H   0  0  0  0  0  0  0  0  0  0  0  0
    1.6643   -1.6218    0.1922 H   0  0  0  0  0  0  0  0  0  0  0  0
   -0.7142   -2.4342    0.3170 H   0  0  0  0  0  0  0  0  0  0  0  0
    0.1482    4.6109    0.2413 Cl  0  0  0  0  0  0  0  0  0  0  0  0
  1  2  1  0  0  0  0
  1 11  2  0  0  0  0
  2  3  1  0  0  0  0
  4  1  1  0  0  0  0
  5  4  2  0  0  0  0
  5  6  1  0  0  0  0
  6 10  2  0  0  0  0
  7  6  1  0  0  0  0
  7  9  2  0  0  0  0
  8  7  2  0  0  0  0
 10 11  1  0  0  0  0
 10 14  1  0  0  0  0
 11 15  1  0  0  0  0
 12  4  1  0  0  0  0
 13  5  1  0  0  0  0
M  RAD  3   2   2   3   3  16   2
M  END
