Coordinates from ORCA-job 4-NO2PhN2+~Cl-_B3LYPG-6-31G_dp-NX-Scan-d89-09-n800
 OpenBabel11261920193D

 16 16  0  0  1  0  0  0  0  0999 V2000
   -1.4513   -0.1501    0.0854 C   0  0  0  0  0  0  0  0  0  0  0  0
   -2.7223   -0.5068    0.1051 N   0  0  0  0  0  0  0  0  0  0  0  0
   -3.8187   -0.8105    0.1047 N   0  0  0  0  0  0  0  0  0  0  0  0
   -1.1317    1.2607   -0.2235 C   0  0  2  0  0  0  0  0  0  0  0  0
    0.2845    1.4345   -0.5970 C   0  0  0  0  0  0  0  0  0  0  0  0
    1.1922    0.4784   -0.2961 C   0  0  0  0  0  0  0  0  0  0  0  0
    2.6115    0.7376   -0.6259 N   0  0  0  0  0  0  0  0  0  0  0  0
    2.8907    1.7947   -1.1850 O   0  0  0  0  0  0  0  0  0  0  0  0
    3.4228   -0.1326   -0.3147 O   0  0  0  0  0  0  0  0  0  0  0  0
    0.8665   -0.7903    0.2988 C   0  0  0  0  0  0  0  0  0  0  0  0
   -0.4433   -1.1037    0.4674 C   0  0  0  0  0  0  0  0  0  0  0  0
   -1.8288    1.7318   -0.9122 H   0  0  0  0  0  0  0  0  0  0  0  0
    0.5981    2.3623   -1.0571 H   0  0  0  0  0  0  0  0  0  0  0  0
    1.6630   -1.4716    0.5615 H   0  0  0  0  0  0  0  0  0  0  0  0
   -0.7501   -2.0642    0.8666 H   0  0  0  0  0  0  0  0  0  0  0  0
   -1.4362    2.4081    1.3518 Cl  0  0  0  0  0  0  0  0  0  0  0  0
  1  2  1  0  0  0  0
  1 11  2  0  0  0  0
  3  2  1  0  0  0  0
  4 12  1  6  0  0  0
  4  1  1  0  0  0  0
  4 16  1  0  0  0  0
  5  6  2  0  0  0  0
  5  4  1  0  0  0  0
  6 10  1  0  0  0  0
  7  9  2  0  0  0  0
  7  6  1  0  0  0  0
  8  7  2  0  0  0  0
 10 11  1  0  0  0  0
 10 14  1  0  0  0  0
 11 15  1  0  0  0  0
 13  5  1  0  0  0  0
M  RAD  3   2   2   3   3  10   2
M  END
