Coordinates from ORCA-job 4-NO2PhN2+~Cl-_B3LYPG-6-31G_dp-NX-Scan-d89-09-n800
 OpenBabel11261920193D

 16 15  0  0  0  0  0  0  0  0999 V2000
   -1.4910   -0.3611    0.0118 C   0  0  0  0  0  0  0  0  0  0  0  0
   -2.7773   -0.8129    0.0432 N   0  0  0  0  0  0  0  0  0  0  0  0
   -3.8050   -1.2784    0.0711 N   0  0  0  0  0  0  0  0  0  0  0  0
   -1.2038    1.0048   -0.2398 C   0  0  0  0  0  0  0  0  0  0  0  0
    0.1317    1.3726   -0.3743 C   0  0  0  0  0  0  0  0  0  0  0  0
    1.1170    0.3982   -0.2132 C   0  0  0  0  0  0  0  0  0  0  0  0
    2.5282    0.7706   -0.4134 N   0  0  0  0  0  0  0  0  0  0  0  0
    2.7571    1.8956   -0.8399 O   0  0  0  0  0  0  0  0  0  0  0  0
    3.3732   -0.0866   -0.1454 O   0  0  0  0  0  0  0  0  0  0  0  0
    0.8344   -0.9366    0.1189 C   0  0  0  0  0  0  0  0  0  0  0  0
   -0.4771   -1.3415    0.2194 C   0  0  0  0  0  0  0  0  0  0  0  0
   -1.9796    1.7588   -0.3233 H   0  0  0  0  0  0  0  0  0  0  0  0
    0.3708    2.4266   -0.5380 H   0  0  0  0  0  0  0  0  0  0  0  0
    1.6535   -1.6286    0.2684 H   0  0  0  0  0  0  0  0  0  0  0  0
   -0.7440   -2.3671    0.4451 H   0  0  0  0  0  0  0  0  0  0  0  0
   -0.3413    4.3639    0.5391 Cl  0  0  0  0  0  0  0  0  0  0  0  0
  1  2  1  0  0  0  0
  1 11  2  0  0  0  0
  2  3  1  0  0  0  0
  4  1  1  0  0  0  0
  5  4  2  0  0  0  0
  5  6  1  0  0  0  0
  6 10  2  0  0  0  0
  7  6  1  0  0  0  0
  7  9  2  0  0  0  0
  8  7  2  0  0  0  0
 10 11  1  0  0  0  0
 10 14  1  0  0  0  0
 11 15  1  0  0  0  0
 12  4  1  0  0  0  0
 13  5  1  0  0  0  0
M  RAD  3   2   2   3   3  16   2
M  END
