Coordinates from ORCA-job 4-NO2PhN2+~Cl-_B3LYPG-6-31G_dp-NX-Scan-d89-09-n800
 OpenBabel11261920193D

 16 16  0  0  1  0  0  0  0  0999 V2000
   -1.4718   -0.1150    0.1344 C   0  0  2  0  0  0  0  0  0  0  0  0
   -2.7094   -0.5569   -0.0308 N   0  0  0  0  0  0  0  0  0  0  0  0
   -3.7404   -1.0133   -0.1985 N   0  0  0  0  0  0  0  0  0  0  0  0
   -1.1335    1.2949   -0.1493 C   0  0  2  0  0  0  0  0  0  0  0  0
    0.2632    1.4386   -0.5964 C   0  0  0  0  0  0  0  0  0  0  0  0
    1.1709    0.4817   -0.2961 C   0  0  0  0  0  0  0  0  0  0  0  0
    2.5797    0.7094   -0.6796 N   0  0  0  0  0  0  0  0  0  0  0  0
    2.8512    1.7354   -1.2978 O   0  0  0  0  0  0  0  0  0  0  0  0
    3.3923   -0.1538   -0.3518 O   0  0  0  0  0  0  0  0  0  0  0  0
    0.8458   -0.7593    0.3554 C   0  0  0  0  0  0  0  0  0  0  0  0
   -0.4628   -1.0658    0.5405 C   0  0  0  0  0  0  0  0  0  0  0  0
   -1.8606    1.8092   -0.7715 H   0  0  0  0  0  0  0  0  0  0  0  0
    0.5700    2.3505   -1.0920 H   0  0  0  0  0  0  0  0  0  0  0  0
    1.6424   -1.4333    0.6369 H   0  0  0  0  0  0  0  0  0  0  0  0
   -0.7699   -2.0185    0.9577 H   0  0  0  0  0  0  0  0  0  0  0  0
   -1.2202    2.4745    1.4685 Cl  0  0  0  0  0  0  0  0  0  0  0  0
  1  2  1  6  0  0  0
  1 11  1  0  0  0  0
  3  2  1  0  0  0  0
  4 12  1  6  0  0  0
  4  1  1  0  0  0  0
  4 16  1  0  0  0  0
  5  6  2  0  0  0  0
  5  4  1  0  0  0  0
  6 10  1  0  0  0  0
  7  9  2  0  0  0  0
  7  6  1  0  0  0  0
  8  7  2  0  0  0  0
 10 11  2  0  0  0  0
 10 14  1  0  0  0  0
 11 15  1  0  0  0  0
 13  5  1  0  0  0  0
M  RAD  3   1   2   2   2   3   3
M  END
