Coordinates from ORCA-job 4-NO2PhN2+~Cl-_B3LYPG-6-31G_dp-NX-Scan-d89-09-n800
 OpenBabel11261920193D

 16 15  0  0  0  0  0  0  0  0999 V2000
   -1.2332   -0.1155    0.2746 C   0  0  0  0  0  0  0  0  0  0  0  0
   -2.5686   -0.4080    0.6214 N   0  0  0  0  0  0  0  0  0  0  0  0
   -3.6396   -0.0001    0.7457 N   0  0  0  0  0  0  0  0  0  0  0  0
   -0.8738    1.1822   -0.1144 C   0  0  0  0  0  0  0  0  0  0  0  0
    0.4588    1.4107   -0.4456 C   0  0  0  0  0  0  0  0  0  0  0  0
    1.3659    0.3550   -0.3773 C   0  0  0  0  0  0  0  0  0  0  0  0
    2.7816    0.6117   -0.7319 N   0  0  0  0  0  0  0  0  0  0  0  0
    3.0778    1.7532   -1.0700 O   0  0  0  0  0  0  0  0  0  0  0  0
    3.5581   -0.3370   -0.6620 O   0  0  0  0  0  0  0  0  0  0  0  0
    1.0050   -0.9352    0.0101 C   0  0  0  0  0  0  0  0  0  0  0  0
   -0.3213   -1.1765    0.3430 C   0  0  0  0  0  0  0  0  0  0  0  0
   -1.6334    1.9610   -0.1460 H   0  0  0  0  0  0  0  0  0  0  0  0
    0.8007    2.3906   -0.7547 H   0  0  0  0  0  0  0  0  0  0  0  0
    1.7551   -1.7146    0.0441 H   0  0  0  0  0  0  0  0  0  0  0  0
   -0.6563   -2.1602    0.6517 H   0  0  0  0  0  0  0  0  0  0  0  0
   -3.9296    2.3611    0.2408 Cl  0  0  0  0  0  0  0  0  0  0  0  0
  1 11  1  0  0  0  0
  1  2  1  0  0  0  0
  2  3  2  0  0  0  0
  4  1  2  0  0  0  0
  5  6  2  0  0  0  0
  5  4  1  0  0  0  0
  6 10  1  0  0  0  0
  7  9  2  0  0  0  0
  7  6  1  0  0  0  0
  8  7  2  0  0  0  0
 10 14  1  0  0  0  0
 10 11  2  0  0  0  0
 11 15  1  0  0  0  0
 12  4  1  0  0  0  0
 13  5  1  0  0  0  0
M  RAD  2   3   2  16   2
M  END
