Coordinates from ORCA-job 4-NO2PhN2+~Cl-_B3LYPG-6-31G_dp-NX-Scan-d89-09-n800
 OpenBabel11261920193D

 16 16  0  0  0  0  0  0  0  0999 V2000
   -1.2430    0.1344    0.5570 C   0  0  0  0  0  0  0  0  0  0  0  0
   -2.5238   -0.0277    1.1670 N   0  0  0  0  0  0  0  0  0  0  0  0
   -3.6059    0.1858    0.6062 N   0  0  0  0  0  0  0  0  0  0  0  0
   -0.7273    1.4129    0.3010 C   0  0  0  0  0  0  0  0  0  0  0  0
    0.5713    1.5446   -0.1774 C   0  0  0  0  0  0  0  0  0  0  0  0
    1.3302    0.3954   -0.3935 C   0  0  0  0  0  0  0  0  0  0  0  0
    2.7014    0.5349   -0.9083 N   0  0  0  0  0  0  0  0  0  0  0  0
    3.1140    1.6732   -1.1258 O   0  0  0  0  0  0  0  0  0  0  0  0
    3.3482   -0.4954   -1.0899 O   0  0  0  0  0  0  0  0  0  0  0  0
    0.8352   -0.8807   -0.1298 C   0  0  0  0  0  0  0  0  0  0  0  0
   -0.4569   -1.0091    0.3675 C   0  0  0  0  0  0  0  0  0  0  0  0
   -1.3362    2.2913    0.4838 H   0  0  0  0  0  0  0  0  0  0  0  0
    1.0025    2.5150   -0.3886 H   0  0  0  0  0  0  0  0  0  0  0  0
    1.4653   -1.7435   -0.3053 H   0  0  0  0  0  0  0  0  0  0  0  0
   -0.8652   -1.9850    0.6062 H   0  0  0  0  0  0  0  0  0  0  0  0
   -3.6631    0.6322   -0.9406 Cl  0  0  0  0  0  0  0  0  0  0  0  0
  1  2  1  0  0  0  0
  3  2  2  0  0  0  0
  4 12  1  0  0  0  0
  4  1  2  0  0  0  0
  5  4  1  0  0  0  0
  6  5  2  0  0  0  0
  6 10  1  0  0  0  0
  7  6  1  0  0  0  0
  8  7  2  0  0  0  0
  9  7  2  0  0  0  0
 10 11  2  0  0  0  0
 11  1  1  0  0  0  0
 11 15  1  0  0  0  0
 13  5  1  0  0  0  0
 14 10  1  0  0  0  0
 16  3  1  0  0  0  0
M  END
