Coordinates from ORCA-job 4-NO2PhN2+~Cl-_B3LYPG-6-31G_dp-NX-Scan-d89-09-n800
 OpenBabel11261920193D

 16 15  0  0  0  0  0  0  0  0999 V2000
   -1.4847   -0.2390    0.0386 C   0  0  0  0  0  0  0  0  0  0  0  0
   -2.7634   -0.6969    0.0016 N   0  0  0  0  0  0  0  0  0  0  0  0
   -3.7734   -1.1989   -0.0633 N   0  0  0  0  0  0  0  0  0  0  0  0
   -1.1736    1.0884   -0.3551 C   0  0  0  0  0  0  0  0  0  0  0  0
    0.1817    1.3951   -0.5515 C   0  0  0  0  0  0  0  0  0  0  0  0
    1.1403    0.4325   -0.2814 C   0  0  0  0  0  0  0  0  0  0  0  0
    2.5507    0.7518   -0.5335 N   0  0  0  0  0  0  0  0  0  0  0  0
    2.8038    1.8331   -1.0570 O   0  0  0  0  0  0  0  0  0  0  0  0
    3.3828   -0.0996   -0.2144 O   0  0  0  0  0  0  0  0  0  0  0  0
    0.8292   -0.8441    0.2389 C   0  0  0  0  0  0  0  0  0  0  0  0
   -0.4825   -1.2018    0.3964 C   0  0  0  0  0  0  0  0  0  0  0  0
   -1.9437    1.8100   -0.5932 H   0  0  0  0  0  0  0  0  0  0  0  0
    0.4695    2.3742   -0.9063 H   0  0  0  0  0  0  0  0  0  0  0  0
    1.6356   -1.5230    0.4843 H   0  0  0  0  0  0  0  0  0  0  0  0
   -0.7730   -2.1798    0.7605 H   0  0  0  0  0  0  0  0  0  0  0  0
   -0.6523    3.4763    1.2650 Cl  0  0  0  0  0  0  0  0  0  0  0  0
  1 11  2  0  0  0  0
  2  1  1  0  0  0  0
  3  2  1  0  0  0  0
  4  1  1  0  0  0  0
  5  4  2  0  0  0  0
  5  6  1  0  0  0  0
  6 10  2  0  0  0  0
  7  6  1  0  0  0  0
  7  9  2  0  0  0  0
  8  7  2  0  0  0  0
 10 11  1  0  0  0  0
 10 14  1  0  0  0  0
 11 15  1  0  0  0  0
 12  4  1  0  0  0  0
 13  5  1  0  0  0  0
M  RAD  3   2   2   3   3  16   2
M  END
