Coordinates from ORCA-job 4-NO2PhN2+~Cl-_B3LYPG-6-31G_dp-NX-Scan-d89-09-n800
 OpenBabel11261920193D

 16 15  0  0  0  0  0  0  0  0999 V2000
   -1.2465   -0.0812    0.2723 C   0  0  0  0  0  0  0  0  0  0  0  0
   -2.5744   -0.3987    0.6281 N   0  0  0  0  0  0  0  0  0  0  0  0
   -3.6480    0.0461    0.7413 N   0  0  0  0  0  0  0  0  0  0  0  0
   -0.8597    1.2095   -0.1194 C   0  0  0  0  0  0  0  0  0  0  0  0
    0.4756    1.4227   -0.4490 C   0  0  0  0  0  0  0  0  0  0  0  0
    1.3719    0.3581   -0.3797 C   0  0  0  0  0  0  0  0  0  0  0  0
    2.7894    0.5990   -0.7321 N   0  0  0  0  0  0  0  0  0  0  0  0
    3.1000    1.7376   -1.0691 O   0  0  0  0  0  0  0  0  0  0  0  0
    3.5563   -0.3578   -0.6621 O   0  0  0  0  0  0  0  0  0  0  0  0
    0.9928   -0.9260    0.0081 C   0  0  0  0  0  0  0  0  0  0  0  0
   -0.3376   -1.1470    0.3393 C   0  0  0  0  0  0  0  0  0  0  0  0
   -1.5949    2.0047   -0.1582 H   0  0  0  0  0  0  0  0  0  0  0  0
    0.8289    2.3984   -0.7580 H   0  0  0  0  0  0  0  0  0  0  0  0
    1.7313   -1.7163    0.0443 H   0  0  0  0  0  0  0  0  0  0  0  0
   -0.6852   -2.1259    0.6490 H   0  0  0  0  0  0  0  0  0  0  0  0
   -3.9530    2.1553    0.2749 Cl  0  0  0  0  0  0  0  0  0  0  0  0
  1 11  1  0  0  0  0
  1  2  1  0  0  0  0
  2  3  2  0  0  0  0
  4  1  2  0  0  0  0
  5  6  2  0  0  0  0
  5  4  1  0  0  0  0
  6 10  1  0  0  0  0
  7  9  2  0  0  0  0
  7  6  1  0  0  0  0
  8  7  2  0  0  0  0
 10 14  1  0  0  0  0
 10 11  2  0  0  0  0
 11 15  1  0  0  0  0
 12  4  1  0  0  0  0
 13  5  1  0  0  0  0
M  RAD  2   3   2  16   2
M  END
