Coordinates from ORCA-job 4-NO2PhN2+~Cl-_B3LYPG-6-31G_dp-NX-Scan-d89-09-n800
 OpenBabel11261920193D

 16 15  0  0  0  0  0  0  0  0999 V2000
   -1.4971   -0.3825    0.0080 C   0  0  0  0  0  0  0  0  0  0  0  0
   -2.7814   -0.8395    0.0423 N   0  0  0  0  0  0  0  0  0  0  0  0
   -3.8106   -1.3019    0.0768 N   0  0  0  0  0  0  0  0  0  0  0  0
   -1.2190    0.9891   -0.2230 C   0  0  0  0  0  0  0  0  0  0  0  0
    0.1121    1.3718   -0.3500 C   0  0  0  0  0  0  0  0  0  0  0  0
    1.1048    0.4013   -0.2020 C   0  0  0  0  0  0  0  0  0  0  0  0
    2.5141    0.7861   -0.3955 N   0  0  0  0  0  0  0  0  0  0  0  0
    2.7341    1.9126   -0.8213 O   0  0  0  0  0  0  0  0  0  0  0  0
    3.3650   -0.0635   -0.1212 O   0  0  0  0  0  0  0  0  0  0  0  0
    0.8325   -0.9402    0.1080 C   0  0  0  0  0  0  0  0  0  0  0  0
   -0.4765   -1.3578    0.1990 C   0  0  0  0  0  0  0  0  0  0  0  0
   -2.0041    1.7346   -0.2950 H   0  0  0  0  0  0  0  0  0  0  0  0
    0.3455    2.4327   -0.4983 H   0  0  0  0  0  0  0  0  0  0  0  0
    1.6570   -1.6279    0.2471 H   0  0  0  0  0  0  0  0  0  0  0  0
   -0.7351   -2.3897    0.4057 H   0  0  0  0  0  0  0  0  0  0  0  0
   -0.1943    4.4535    0.4491 Cl  0  0  0  0  0  0  0  0  0  0  0  0
  1  2  1  0  0  0  0
  1 11  2  0  0  0  0
  2  3  1  0  0  0  0
  4  1  1  0  0  0  0
  5  4  2  0  0  0  0
  5  6  1  0  0  0  0
  6 10  2  0  0  0  0
  7  6  1  0  0  0  0
  7  9  2  0  0  0  0
  8  7  2  0  0  0  0
 10 11  1  0  0  0  0
 10 14  1  0  0  0  0
 11 15  1  0  0  0  0
 12  4  1  0  0  0  0
 13  5  1  0  0  0  0
M  RAD  3   2   2   3   3  16   2
M  END
