Coordinates from ORCA-job 4-NO2PhN2+~Cl-_B3LYPG-6-31G_dp-NX-Scan-d89-09-n800
 OpenBabel11261920193D

 16 15  0  0  0  0  0  0  0  0999 V2000
   -1.4818   -0.3163    0.0199 C   0  0  0  0  0  0  0  0  0  0  0  0
   -2.7698   -0.7616    0.0393 N   0  0  0  0  0  0  0  0  0  0  0  0
   -3.7940   -1.2351    0.0474 N   0  0  0  0  0  0  0  0  0  0  0  0
   -1.1805    1.0364   -0.2814 C   0  0  0  0  0  0  0  0  0  0  0  0
    0.1631    1.3767   -0.4339 C   0  0  0  0  0  0  0  0  0  0  0  0
    1.1354    0.3993   -0.2394 C   0  0  0  0  0  0  0  0  0  0  0  0
    2.5487    0.7492   -0.4540 N   0  0  0  0  0  0  0  0  0  0  0  0
    2.7920    1.8649   -0.8994 O   0  0  0  0  0  0  0  0  0  0  0  0
    3.3846   -0.1144   -0.1795 O   0  0  0  0  0  0  0  0  0  0  0  0
    0.8363   -0.9192    0.1488 C   0  0  0  0  0  0  0  0  0  0  0  0
   -0.4780   -1.3011    0.2705 C   0  0  0  0  0  0  0  0  0  0  0  0
   -1.9437    1.7985   -0.3972 H   0  0  0  0  0  0  0  0  0  0  0  0
    0.4210    2.4105   -0.6471 H   0  0  0  0  0  0  0  0  0  0  0  0
    1.6469   -1.6144    0.3264 H   0  0  0  0  0  0  0  0  0  0  0  0
   -0.7585   -2.3117    0.5422 H   0  0  0  0  0  0  0  0  0  0  0  0
   -0.5750    4.1168    0.7670 Cl  0  0  0  0  0  0  0  0  0  0  0  0
  1  2  1  0  0  0  0
  1 11  2  0  0  0  0
  2  3  1  0  0  0  0
  4  1  1  0  0  0  0
  5  4  2  0  0  0  0
  5  6  1  0  0  0  0
  6 10  2  0  0  0  0
  7  6  1  0  0  0  0
  7  9  2  0  0  0  0
  8  7  2  0  0  0  0
 10 11  1  0  0  0  0
 10 14  1  0  0  0  0
 11 15  1  0  0  0  0
 12  4  1  0  0  0  0
 13  5  1  0  0  0  0
M  RAD  3   2   2   3   3  16   2
M  END
