Coordinates from ORCA-job 4-NO2PhN2+~Cl-_B3LYPG-6-31G_dp-NX-Scan-d89-09-n800
 OpenBabel11261920193D

 16 15  0  0  0  0  0  0  0  0999 V2000
   -1.5066   -0.4148    0.0035 C   0  0  0  0  0  0  0  0  0  0  0  0
   -2.7877   -0.8798    0.0420 N   0  0  0  0  0  0  0  0  0  0  0  0
   -3.8198   -1.3362    0.0849 N   0  0  0  0  0  0  0  0  0  0  0  0
   -1.2441    0.9654   -0.1957 C   0  0  0  0  0  0  0  0  0  0  0  0
    0.0801    1.3717   -0.3119 C   0  0  0  0  0  0  0  0  0  0  0  0
    1.0847    0.4082   -0.1853 C   0  0  0  0  0  0  0  0  0  0  0  0
    2.4907    0.8131   -0.3657 N   0  0  0  0  0  0  0  0  0  0  0  0
    2.6967    1.9398   -0.7962 O   0  0  0  0  0  0  0  0  0  0  0  0
    3.3507   -0.0223   -0.0750 O   0  0  0  0  0  0  0  0  0  0  0  0
    0.8291   -0.9433    0.0891 C   0  0  0  0  0  0  0  0  0  0  0  0
   -0.4751   -1.3811    0.1673 C   0  0  0  0  0  0  0  0  0  0  0  0
   -2.0442    1.6962   -0.2505 H   0  0  0  0  0  0  0  0  0  0  0  0
    0.3047    2.4416   -0.4399 H   0  0  0  0  0  0  0  0  0  0  0  0
    1.6626   -1.6235    0.2111 H   0  0  0  0  0  0  0  0  0  0  0  0
   -0.7198   -2.4218    0.3445 H   0  0  0  0  0  0  0  0  0  0  0  0
    0.0449    4.5651    0.3076 Cl  0  0  0  0  0  0  0  0  0  0  0  0
  1  2  1  0  0  0  0
  1 11  2  0  0  0  0
  2  3  1  0  0  0  0
  4  1  1  0  0  0  0
  5  4  2  0  0  0  0
  5  6  1  0  0  0  0
  6 10  2  0  0  0  0
  7  6  1  0  0  0  0
  7  9  2  0  0  0  0
  8  7  2  0  0  0  0
 10 11  1  0  0  0  0
 10 14  1  0  0  0  0
 11 15  1  0  0  0  0
 12  4  1  0  0  0  0
 13  5  1  0  0  0  0
M  RAD  3   2   2   3   3  16   2
M  END
