Coordinates from ORCA-job 4-NO2PhN2+~Cl-_B3LYPG-6-31G_dp-NX-Scan-d89-09-n800
 OpenBabel11261920193D

 16 16  0  0  1  0  0  0  0  0999 V2000
   -1.4183   -0.2549    0.0270 C   0  0  0  0  0  0  0  0  0  0  0  0
   -2.6760   -0.4070    0.3988 N   0  0  0  0  0  0  0  0  0  0  0  0
   -3.7249   -0.1433    0.7502 N   0  0  0  0  0  0  0  0  0  0  0  0
   -1.1522    1.1548   -0.3799 C   0  0  2  0  0  0  0  0  0  0  0  0
    0.2902    1.4155   -0.5506 C   0  0  0  0  0  0  0  0  0  0  0  0
    1.2065    0.4551   -0.2912 C   0  0  0  0  0  0  0  0  0  0  0  0
    2.6361    0.7960   -0.4996 N   0  0  0  0  0  0  0  0  0  0  0  0
    2.9100    1.9273   -0.8899 O   0  0  0  0  0  0  0  0  0  0  0  0
    3.4578   -0.0870   -0.2624 O   0  0  0  0  0  0  0  0  0  0  0  0
    0.9040   -0.8819    0.1471 C   0  0  0  0  0  0  0  0  0  0  0  0
   -0.4020   -1.2195    0.3091 C   0  0  0  0  0  0  0  0  0  0  0  0
   -1.7474    1.5015   -1.2249 H   0  0  0  0  0  0  0  0  0  0  0  0
    0.6078    2.3881   -0.9029 H   0  0  0  0  0  0  0  0  0  0  0  0
    1.7128   -1.5690    0.3476 H   0  0  0  0  0  0  0  0  0  0  0  0
   -0.6946   -2.1992    0.6708 H   0  0  0  0  0  0  0  0  0  0  0  0
   -1.9630    2.3018    0.9806 Cl  0  0  0  0  0  0  0  0  0  0  0  0
  1 11  2  0  0  0  0
  1  2  1  0  0  0  0
  2  3  1  0  0  0  0
  4 12  1  6  0  0  0
  4  1  1  0  0  0  0
  4 16  1  0  0  0  0
  5  4  1  0  0  0  0
  5  6  2  0  0  0  0
  6 10  1  0  0  0  0
  7  6  1  0  0  0  0
  7  9  2  0  0  0  0
  8  7  2  0  0  0  0
 10 11  1  0  0  0  0
 10 14  1  0  0  0  0
 11 15  1  0  0  0  0
 13  5  1  0  0  0  0
M  RAD  3   2   2   3   3  10   2
M  END
