Coordinates from ORCA-job 4-NO2PhN2+~Cl-_B3LYPG-6-31G_dp-NX-Scan-d89-09-n800
 OpenBabel11261920193D

 16 16  0  0  1  0  0  0  0  0999 V2000
   -1.4224   -0.2374    0.0279 C   0  0  0  0  0  0  0  0  0  0  0  0
   -2.6849   -0.4130    0.3661 N   0  0  0  0  0  0  0  0  0  0  0  0
   -3.7629   -0.2567    0.6888 N   0  0  0  0  0  0  0  0  0  0  0  0
   -1.1467    1.1720   -0.3653 C   0  0  2  0  0  0  0  0  0  0  0  0
    0.2948    1.4201   -0.5607 C   0  0  0  0  0  0  0  0  0  0  0  0
    1.2080    0.4595   -0.2928 C   0  0  0  0  0  0  0  0  0  0  0  0
    2.6379    0.7887   -0.5139 N   0  0  0  0  0  0  0  0  0  0  0  0
    2.9158    1.9110   -0.9266 O   0  0  0  0  0  0  0  0  0  0  0  0
    3.4560   -0.0946   -0.2652 O   0  0  0  0  0  0  0  0  0  0  0  0
    0.8990   -0.8694    0.1657 C   0  0  0  0  0  0  0  0  0  0  0  0
   -0.4081   -1.2016    0.3263 C   0  0  0  0  0  0  0  0  0  0  0  0
   -1.7550    1.5360   -1.1930 H   0  0  0  0  0  0  0  0  0  0  0  0
    0.6140    2.3872   -0.9266 H   0  0  0  0  0  0  0  0  0  0  0  0
    1.7046   -1.5577    0.3752 H   0  0  0  0  0  0  0  0  0  0  0  0
   -0.7048   -2.1781    0.6932 H   0  0  0  0  0  0  0  0  0  0  0  0
   -1.8984    2.3126    1.0307 Cl  0  0  0  0  0  0  0  0  0  0  0  0
  1 11  2  0  0  0  0
  1  2  1  0  0  0  0
  2  3  1  0  0  0  0
  4 12  1  6  0  0  0
  4  1  1  0  0  0  0
  4 16  1  0  0  0  0
  5  4  1  0  0  0  0
  5  6  2  0  0  0  0
  6 10  1  0  0  0  0
  7  6  1  0  0  0  0
  7  9  2  0  0  0  0
  8  7  2  0  0  0  0
 10 11  1  0  0  0  0
 10 14  1  0  0  0  0
 11 15  1  0  0  0  0
 13  5  1  0  0  0  0
M  RAD  3   2   2   3   3  10   2
M  END
