Coordinates from ORCA-job 4-NO2PhN2+~Cl-_B3LYPG-6-31G_dp-NX-Scan-d89-09-n800
 OpenBabel11261920193D

 16 15  0  0  0  0  0  0  0  0999 V2000
   -1.2309   -0.1231    0.2756 C   0  0  0  0  0  0  0  0  0  0  0  0
   -2.5672   -0.4119    0.6215 N   0  0  0  0  0  0  0  0  0  0  0  0
   -3.6385   -0.0130    0.7482 N   0  0  0  0  0  0  0  0  0  0  0  0
   -0.8775    1.1762   -0.1128 C   0  0  0  0  0  0  0  0  0  0  0  0
    0.4545    1.4081   -0.4445 C   0  0  0  0  0  0  0  0  0  0  0  0
    1.3642    0.3545   -0.3768 C   0  0  0  0  0  0  0  0  0  0  0  0
    2.7793    0.6149   -0.7319 N   0  0  0  0  0  0  0  0  0  0  0  0
    3.0723    1.7572   -1.0696 O   0  0  0  0  0  0  0  0  0  0  0  0
    3.5580   -0.3321   -0.6627 O   0  0  0  0  0  0  0  0  0  0  0  0
    1.0074   -0.9372    0.0103 C   0  0  0  0  0  0  0  0  0  0  0  0
   -0.3179   -1.1829    0.3438 C   0  0  0  0  0  0  0  0  0  0  0  0
   -1.6417    1.9521   -0.1431 H   0  0  0  0  0  0  0  0  0  0  0  0
    0.7937    2.3889   -0.7534 H   0  0  0  0  0  0  0  0  0  0  0  0
    1.7599   -1.7142    0.0434 H   0  0  0  0  0  0  0  0  0  0  0  0
   -0.6500   -2.1676    0.6523 H   0  0  0  0  0  0  0  0  0  0  0  0
   -3.9188    2.4083    0.2295 Cl  0  0  0  0  0  0  0  0  0  0  0  0
  1 11  1  0  0  0  0
  1  2  1  0  0  0  0
  2  3  2  0  0  0  0
  4  1  2  0  0  0  0
  5  6  2  0  0  0  0
  5  4  1  0  0  0  0
  6 10  1  0  0  0  0
  7  9  2  0  0  0  0
  7  6  1  0  0  0  0
  8  7  2  0  0  0  0
 10 14  1  0  0  0  0
 10 11  2  0  0  0  0
 11 15  1  0  0  0  0
 12  4  1  0  0  0  0
 13  5  1  0  0  0  0
M  RAD  2   3   2  16   2
M  END
