Coordinates from ORCA-job 4-NO2PhN2+~Cl-_B3LYPG-6-31G_dp-NX-Scan-d89-09-n800
 OpenBabel11261920193D

 16 15  0  0  0  0  0  0  0  0999 V2000
   -1.2233   -0.1591    0.2819 C   0  0  0  0  0  0  0  0  0  0  0  0
   -2.5615   -0.4373    0.6261 N   0  0  0  0  0  0  0  0  0  0  0  0
   -3.6373   -0.0855    0.7650 N   0  0  0  0  0  0  0  0  0  0  0  0
   -0.8980    1.1475   -0.1029 C   0  0  0  0  0  0  0  0  0  0  0  0
    0.4311    1.3959   -0.4373 C   0  0  0  0  0  0  0  0  0  0  0  0
    1.3533    0.3533   -0.3744 C   0  0  0  0  0  0  0  0  0  0  0  0
    2.7654    0.6324   -0.7326 N   0  0  0  0  0  0  0  0  0  0  0  0
    3.0424    1.7787   -1.0686 O   0  0  0  0  0  0  0  0  0  0  0  0
    3.5551   -0.3054   -0.6665 O   0  0  0  0  0  0  0  0  0  0  0  0
    1.0167   -0.9457    0.0102 C   0  0  0  0  0  0  0  0  0  0  0  0
   -0.3030   -1.2125    0.3474 C   0  0  0  0  0  0  0  0  0  0  0  0
   -1.6809    1.9134   -0.1264 H   0  0  0  0  0  0  0  0  0  0  0  0
    0.7563    2.3822   -0.7446 H   0  0  0  0  0  0  0  0  0  0  0  0
    1.7811   -1.7112    0.0384 H   0  0  0  0  0  0  0  0  0  0  0  0
   -0.6215   -2.2021    0.6545 H   0  0  0  0  0  0  0  0  0  0  0  0
   -3.8290    2.6338    0.1596 Cl  0  0  0  0  0  0  0  0  0  0  0  0
  1 11  1  0  0  0  0
  1  2  1  0  0  0  0
  2  3  2  0  0  0  0
  4  1  2  0  0  0  0
  5  6  2  0  0  0  0
  5  4  1  0  0  0  0
  6 10  1  0  0  0  0
  7  9  2  0  0  0  0
  7  6  1  0  0  0  0
  8  7  2  0  0  0  0
 10 14  1  0  0  0  0
 10 11  2  0  0  0  0
 11 15  1  0  0  0  0
 12  4  1  0  0  0  0
 13  5  1  0  0  0  0
M  RAD  2   3   2  16   2
M  END
