Coordinates from ORCA-job 4-NO2PhN2+~Cl-_B3LYPG-6-31G_dp-NX-Scan-d89-09-n800
 OpenBabel11261920193D

 16 16  0  0  1  0  0  0  0  0999 V2000
   -1.4587   -0.1357    0.1039 C   0  0  0  0  0  0  0  0  0  0  0  0
   -2.7200   -0.5267    0.0511 N   0  0  0  0  0  0  0  0  0  0  0  0
   -3.7956   -0.8939   -0.0165 N   0  0  0  0  0  0  0  0  0  0  0  0
   -1.1318    1.2752   -0.1932 C   0  0  2  0  0  0  0  0  0  0  0  0
    0.2771    1.4363   -0.5978 C   0  0  0  0  0  0  0  0  0  0  0  0
    1.1847    0.4804   -0.2959 C   0  0  0  0  0  0  0  0  0  0  0  0
    2.6002    0.7269   -0.6474 N   0  0  0  0  0  0  0  0  0  0  0  0
    2.8767    1.7709   -1.2321 O   0  0  0  0  0  0  0  0  0  0  0  0
    3.4118   -0.1404   -0.3287 O   0  0  0  0  0  0  0  0  0  0  0  0
    0.8589   -0.7771    0.3224 C   0  0  0  0  0  0  0  0  0  0  0  0
   -0.4506   -1.0879    0.4965 C   0  0  0  0  0  0  0  0  0  0  0  0
   -1.8417    1.7634   -0.8559 H   0  0  0  0  0  0  0  0  0  0  0  0
    0.5881    2.3574   -1.0732 H   0  0  0  0  0  0  0  0  0  0  0  0
    1.6552   -1.4557    0.5931 H   0  0  0  0  0  0  0  0  0  0  0  0
   -0.7576   -2.0455    0.9024 H   0  0  0  0  0  0  0  0  0  0  0  0
   -1.3497    2.4311    1.4010 Cl  0  0  0  0  0  0  0  0  0  0  0  0
  1 11  2  0  0  0  0
  2  1  1  0  0  0  0
  3  2  1  0  0  0  0
  4 12  1  6  0  0  0
  4  1  1  0  0  0  0
  4 16  1  0  0  0  0
  5  6  2  0  0  0  0
  5  4  1  0  0  0  0
  6 10  1  0  0  0  0
  7  9  2  0  0  0  0
  7  6  1  0  0  0  0
  8  7  2  0  0  0  0
 10 11  1  0  0  0  0
 10 14  1  0  0  0  0
 11 15  1  0  0  0  0
 13  5  1  0  0  0  0
M  RAD  3   2   2   3   3  10   2
M  END
