Coordinates from ORCA-job 4-NO2PhN2+~Cl-_B3LYPG-6-31G_dp-NX-Scan-d89-09-n800
 OpenBabel11261920183D

 16 15  0  0  0  0  0  0  0  0999 V2000
   -1.5761   -0.5727   -0.0142 C   0  0  0  0  0  0  0  0  0  0  0  0
   -2.8327   -1.0869    0.0248 N   0  0  0  0  0  0  0  0  0  0  0  0
   -3.8569   -1.5734    0.0626 N   0  0  0  0  0  0  0  0  0  0  0  0
   -1.3754    0.8296   -0.1382 C   0  0  0  0  0  0  0  0  0  0  0  0
   -0.0754    1.3093   -0.1753 C   0  0  0  0  0  0  0  0  0  0  0  0
    0.9850    0.3965   -0.0903 C   0  0  0  0  0  0  0  0  0  0  0  0
    2.3685    0.8948   -0.1300 N   0  0  0  0  0  0  0  0  0  0  0  0
    2.5234    2.1054   -0.2353 O   0  0  0  0  0  0  0  0  0  0  0  0
    3.2641    0.0490   -0.0538 O   0  0  0  0  0  0  0  0  0  0  0  0
    0.7888   -0.9856    0.0323 C   0  0  0  0  0  0  0  0  0  0  0  0
   -0.4940   -1.4900    0.0723 C   0  0  0  0  0  0  0  0  0  0  0  0
   -2.2229    1.5024   -0.2021 H   0  0  0  0  0  0  0  0  0  0  0  0
    0.1381    2.3723   -0.2687 H   0  0  0  0  0  0  0  0  0  0  0  0
    1.6539   -1.6337    0.0940 H   0  0  0  0  0  0  0  0  0  0  0  0
   -0.6840   -2.5530    0.1678 H   0  0  0  0  0  0  0  0  0  0  0  0
    1.3426    5.6142   -0.5162 Cl  0  0  0  0  0  0  0  0  0  0  0  0
  1  2  1  0  0  0  0
  1 11  2  0  0  0  0
  2  3  1  0  0  0  0
  4  1  1  0  0  0  0
  5  4  2  0  0  0  0
  5  6  1  0  0  0  0
  6 10  2  0  0  0  0
  7  6  1  0  0  0  0
  7  9  2  0  0  0  0
  8  7  2  0  0  0  0
 10 11  1  0  0  0  0
 10 14  1  0  0  0  0
 11 15  1  0  0  0  0
 12  4  1  0  0  0  0
 13  5  1  0  0  0  0
M  RAD  3   2   2   3   3  16   2
M  END
