Coordinates from ORCA-job 4-NO2PhN2+~Cl-_B3LYPG-6-31G_dp-NX-Scan-d89-09-n800
 OpenBabel11261920193D

 16 16  0  0  0  0  0  0  0  0999 V2000
   -1.2616    0.2142    0.5496 C   0  0  0  0  0  0  0  0  0  0  0  0
   -2.5566    0.1079    1.1889 N   0  0  0  0  0  0  0  0  0  0  0  0
   -3.5687    0.1216    0.3742 N   0  0  0  0  0  0  0  0  0  0  0  0
   -0.6835    1.4751    0.3262 C   0  0  0  0  0  0  0  0  0  0  0  0
    0.6190    1.5788   -0.1490 C   0  0  0  0  0  0  0  0  0  0  0  0
    1.3404    0.4107   -0.3934 C   0  0  0  0  0  0  0  0  0  0  0  0
    2.7146    0.5143   -0.8997 N   0  0  0  0  0  0  0  0  0  0  0  0
    3.1701    1.6423   -1.0903 O   0  0  0  0  0  0  0  0  0  0  0  0
    3.3287   -0.5326   -1.1059 O   0  0  0  0  0  0  0  0  0  0  0  0
    0.7966   -0.8528   -0.1644 C   0  0  0  0  0  0  0  0  0  0  0  0
   -0.5065   -0.9456    0.3124 C   0  0  0  0  0  0  0  0  0  0  0  0
   -1.2556    2.3714    0.5450 H   0  0  0  0  0  0  0  0  0  0  0  0
    1.0847    2.5393   -0.3313 H   0  0  0  0  0  0  0  0  0  0  0  0
    1.3966   -1.7330   -0.3588 H   0  0  0  0  0  0  0  0  0  0  0  0
   -0.9447   -1.9169    0.5190 H   0  0  0  0  0  0  0  0  0  0  0  0
   -3.7265    0.1838   -0.6927 Cl  0  0  0  0  0  0  0  0  0  0  0  0
  1  2  1  0  0  0  0
  3  2  1  0  0  0  0
  4 12  1  0  0  0  0
  4  1  1  0  0  0  0
  5  4  2  0  0  0  0
  6 10  2  0  0  0  0
  6  5  1  0  0  0  0
  7  6  1  0  0  0  0
  8  7  2  0  0  0  0
  9  7  2  0  0  0  0
 10 11  1  0  0  0  0
 11 15  1  0  0  0  0
 11  1  2  0  0  0  0
 13  5  1  0  0  0  0
 14 10  1  0  0  0  0
 16  3  1  0  0  0  0
M  RAD  2   2   2   3   2
M  END
