Coordinates from ORCA-job 4-NO2PhN2+~Cl-_B3LYPG-6-31G_dp-NX-Scan-d89-09-n800
 OpenBabel11261920193D

 16 15  0  0  0  0  0  0  0  0999 V2000
   -1.5380   -0.5018   -0.0159 C   0  0  0  0  0  0  0  0  0  0  0  0
   -2.8011   -0.9964    0.0456 N   0  0  0  0  0  0  0  0  0  0  0  0
   -3.8475   -1.4183    0.1096 N   0  0  0  0  0  0  0  0  0  0  0  0
   -1.3489    0.8902   -0.2244 C   0  0  0  0  0  0  0  0  0  0  0  0
   -0.0548    1.3678   -0.3362 C   0  0  0  0  0  0  0  0  0  0  0  0
    1.0042    0.4604   -0.1973 C   0  0  0  0  0  0  0  0  0  0  0  0
    2.3701    0.9613   -0.3401 N   0  0  0  0  0  0  0  0  0  0  0  0
    2.4981    2.0339   -0.9240 O   0  0  0  0  0  0  0  0  0  0  0  0
    3.2761    0.2682    0.1374 O   0  0  0  0  0  0  0  0  0  0  0  0
    0.8221   -0.9020    0.0780 C   0  0  0  0  0  0  0  0  0  0  0  0
   -0.4582   -1.4106    0.1479 C   0  0  0  0  0  0  0  0  0  0  0  0
   -2.2004    1.5590   -0.2824 H   0  0  0  0  0  0  0  0  0  0  0  0
    0.1578    2.4396   -0.4527 H   0  0  0  0  0  0  0  0  0  0  0  0
    1.6925   -1.5320    0.2134 H   0  0  0  0  0  0  0  0  0  0  0  0
   -0.6474   -2.4634    0.3223 H   0  0  0  0  0  0  0  0  0  0  0  0
    1.0225    4.4224    0.3485 Cl  0  0  0  0  0  0  0  0  0  0  0  0
  1  2  1  0  0  0  0
  1 11  2  0  0  0  0
  2  3  1  0  0  0  0
  4  1  1  0  0  0  0
  5  4  2  0  0  0  0
  5  6  1  0  0  0  0
  6 10  2  0  0  0  0
  7  6  1  0  0  0  0
  7  9  2  0  0  0  0
  8  7  2  0  0  0  0
 10 11  1  0  0  0  0
 10 14  1  0  0  0  0
 11 15  1  0  0  0  0
 12  4  1  0  0  0  0
 13  5  1  0  0  0  0
M  RAD  3   2   2   3   3  16   2
M  END
