Coordinates from ORCA-job 4-NO2PhN2+~Cl-_B3LYPG-6-31G_dp-NX-Scan-d89-09-n800
 OpenBabel11261920193D

 16 16  0  0  1  0  0  0  0  0999 V2000
   -1.4108   -0.2755    0.0222 C   0  0  0  0  0  0  0  0  0  0  0  0
   -2.6692   -0.4090    0.4158 N   0  0  0  0  0  0  0  0  0  0  0  0
   -3.6677   -0.0053    0.7880 N   0  0  0  0  0  0  0  0  0  0  0  0
   -1.1557    1.1303   -0.3934 C   0  0  2  0  0  0  0  0  0  0  0  0
    0.2820    1.4061   -0.5461 C   0  0  0  0  0  0  0  0  0  0  0  0
    1.2047    0.4489   -0.2886 C   0  0  0  0  0  0  0  0  0  0  0  0
    2.6332    0.8030   -0.4867 N   0  0  0  0  0  0  0  0  0  0  0  0
    2.9000    1.9409   -0.8622 O   0  0  0  0  0  0  0  0  0  0  0  0
    3.4604   -0.0768   -0.2575 O   0  0  0  0  0  0  0  0  0  0  0  0
    0.9113   -0.8933    0.1343 C   0  0  0  0  0  0  0  0  0  0  0  0
   -0.3946   -1.2387    0.2929 C   0  0  0  0  0  0  0  0  0  0  0  0
   -1.7521    1.4755   -1.2376 H   0  0  0  0  0  0  0  0  0  0  0  0
    0.5962    2.3821   -0.8918 H   0  0  0  0  0  0  0  0  0  0  0  0
    1.7238   -1.5768    0.3316 H   0  0  0  0  0  0  0  0  0  0  0  0
   -0.6833   -2.2210    0.6509 H   0  0  0  0  0  0  0  0  0  0  0  0
   -2.0312    2.2879    0.9580 Cl  0  0  0  0  0  0  0  0  0  0  0  0
  1 11  2  0  0  0  0
  1  2  1  0  0  0  0
  2  3  2  0  0  0  0
  4 12  1  6  0  0  0
  4  1  1  0  0  0  0
  4 16  1  0  0  0  0
  5  4  1  0  0  0  0
  5  6  2  0  0  0  0
  6 10  1  0  0  0  0
  7  6  1  0  0  0  0
  7  9  2  0  0  0  0
  8  7  2  0  0  0  0
 10 11  1  0  0  0  0
 10 14  1  0  0  0  0
 11 15  1  0  0  0  0
 13  5  1  0  0  0  0
M  RAD  2   3   2  10   2
M  END
