Coordinates from ORCA-job 4-NO2PhN2+~Cl-_B3LYPG-6-31G_dp-NX-Scan-d89-09-n800
 OpenBabel11261920193D

 16 16  0  0  1  0  0  0  0  0999 V2000
   -1.4564   -0.1400    0.0983 C   0  0  0  0  0  0  0  0  0  0  0  0
   -2.7210   -0.5207    0.0671 N   0  0  0  0  0  0  0  0  0  0  0  0
   -3.8035   -0.8694    0.0192 N   0  0  0  0  0  0  0  0  0  0  0  0
   -1.1317    1.2709   -0.2021 C   0  0  2  0  0  0  0  0  0  0  0  0
    0.2794    1.4357   -0.5978 C   0  0  0  0  0  0  0  0  0  0  0  0
    1.1870    0.4798   -0.2961 C   0  0  0  0  0  0  0  0  0  0  0  0
    2.6037    0.7300   -0.6413 N   0  0  0  0  0  0  0  0  0  0  0  0
    2.8810    1.7780   -1.2184 O   0  0  0  0  0  0  0  0  0  0  0  0
    3.4153   -0.1379   -0.3242 O   0  0  0  0  0  0  0  0  0  0  0  0
    0.8612   -0.7809    0.3156 C   0  0  0  0  0  0  0  0  0  0  0  0
   -0.4483   -1.0925    0.4879 C   0  0  0  0  0  0  0  0  0  0  0  0
   -1.8381    1.7541   -0.8724 H   0  0  0  0  0  0  0  0  0  0  0  0
    0.5911    2.3588   -1.0689 H   0  0  0  0  0  0  0  0  0  0  0  0
    1.6576   -1.4603    0.5840 H   0  0  0  0  0  0  0  0  0  0  0  0
   -0.7554   -2.0510    0.8918 H   0  0  0  0  0  0  0  0  0  0  0  0
   -1.3751    2.4237    1.3870 Cl  0  0  0  0  0  0  0  0  0  0  0  0
  1 11  2  0  0  0  0
  2  1  1  0  0  0  0
  3  2  1  0  0  0  0
  4 12  1  6  0  0  0
  4  1  1  0  0  0  0
  4 16  1  0  0  0  0
  5  6  2  0  0  0  0
  5  4  1  0  0  0  0
  6 10  1  0  0  0  0
  7  9  2  0  0  0  0
  7  6  1  0  0  0  0
  8  7  2  0  0  0  0
 10 11  1  0  0  0  0
 10 14  1  0  0  0  0
 11 15  1  0  0  0  0
 13  5  1  0  0  0  0
M  RAD  3   2   2   3   3  10   2
M  END
