Coordinates from ORCA-job 4-NO2PhN2+~Cl-_B3LYPG-6-31G_dp-NX-Scan-d89-09-n800
 OpenBabel11261920193D

 16 15  0  0  0  0  0  0  0  0999 V2000
   -1.2316   -0.1197    0.2751 C   0  0  0  0  0  0  0  0  0  0  0  0
   -2.5679   -0.4086    0.6211 N   0  0  0  0  0  0  0  0  0  0  0  0
   -3.6390   -0.0056    0.7468 N   0  0  0  0  0  0  0  0  0  0  0  0
   -0.8757    1.1787   -0.1135 C   0  0  0  0  0  0  0  0  0  0  0  0
    0.4565    1.4094   -0.4451 C   0  0  0  0  0  0  0  0  0  0  0  0
    1.3650    0.3548   -0.3771 C   0  0  0  0  0  0  0  0  0  0  0  0
    2.7804    0.6135   -0.7320 N   0  0  0  0  0  0  0  0  0  0  0  0
    3.0749    1.7555   -1.0696 O   0  0  0  0  0  0  0  0  0  0  0  0
    3.5581   -0.3343   -0.6623 O   0  0  0  0  0  0  0  0  0  0  0  0
    1.0064   -0.9364    0.0102 C   0  0  0  0  0  0  0  0  0  0  0  0
   -0.3194   -1.1803    0.3435 C   0  0  0  0  0  0  0  0  0  0  0  0
   -1.6387    1.9550   -0.1440 H   0  0  0  0  0  0  0  0  0  0  0  0
    0.7969    2.3898   -0.7540 H   0  0  0  0  0  0  0  0  0  0  0  0
    1.7578   -1.7144    0.0436 H   0  0  0  0  0  0  0  0  0  0  0  0
   -0.6528   -2.1645    0.6521 H   0  0  0  0  0  0  0  0  0  0  0  0
   -3.9240    2.3856    0.2350 Cl  0  0  0  0  0  0  0  0  0  0  0  0
  1 11  1  0  0  0  0
  1  2  1  0  0  0  0
  2  3  2  0  0  0  0
  4  1  2  0  0  0  0
  5  6  2  0  0  0  0
  5  4  1  0  0  0  0
  6 10  1  0  0  0  0
  7  9  2  0  0  0  0
  7  6  1  0  0  0  0
  8  7  2  0  0  0  0
 10 14  1  0  0  0  0
 10 11  2  0  0  0  0
 11 15  1  0  0  0  0
 12  4  1  0  0  0  0
 13  5  1  0  0  0  0
M  RAD  2   3   2  16   2
M  END
