Coordinates from ORCA-job 4-NO2PhN2+~Cl-_B3LYPG-6-31G_dp-NX-Scan-d89-09-n800
 OpenBabel11261920183D

 16 15  0  0  0  0  0  0  0  0999 V2000
   -1.5672   -0.5330   -0.0175 C   0  0  0  0  0  0  0  0  0  0  0  0
   -2.8274   -1.0437    0.0214 N   0  0  0  0  0  0  0  0  0  0  0  0
   -3.8459   -1.5411    0.0599 N   0  0  0  0  0  0  0  0  0  0  0  0
   -1.3510    0.8673   -0.1396 C   0  0  0  0  0  0  0  0  0  0  0  0
   -0.0449    1.3360   -0.1748 C   0  0  0  0  0  0  0  0  0  0  0  0
    1.0031    0.4083   -0.0900 C   0  0  0  0  0  0  0  0  0  0  0  0
    2.3960    0.8844   -0.1260 N   0  0  0  0  0  0  0  0  0  0  0  0
    2.5704    2.0923   -0.2189 O   0  0  0  0  0  0  0  0  0  0  0  0
    3.2775    0.0225   -0.0588 O   0  0  0  0  0  0  0  0  0  0  0  0
    0.7916   -0.9719    0.0297 C   0  0  0  0  0  0  0  0  0  0  0  0
   -0.4960   -1.4628    0.0684 C   0  0  0  0  0  0  0  0  0  0  0  0
   -2.1907    1.5499   -0.2040 H   0  0  0  0  0  0  0  0  0  0  0  0
    0.1781    2.4003   -0.2678 H   0  0  0  0  0  0  0  0  0  0  0  0
    1.6499   -1.6290    0.0905 H   0  0  0  0  0  0  0  0  0  0  0  0
   -0.6977   -2.5238    0.1622 H   0  0  0  0  0  0  0  0  0  0  0  0
    1.1010    5.3226   -0.5050 Cl  0  0  0  0  0  0  0  0  0  0  0  0
  1  2  1  0  0  0  0
  1 11  2  0  0  0  0
  2  3  1  0  0  0  0
  4  1  1  0  0  0  0
  5  4  2  0  0  0  0
  5  6  1  0  0  0  0
  6 10  2  0  0  0  0
  7  6  1  0  0  0  0
  7  9  2  0  0  0  0
  8  7  2  0  0  0  0
 10 11  1  0  0  0  0
 10 14  1  0  0  0  0
 11 15  1  0  0  0  0
 12  4  1  0  0  0  0
 13  5  1  0  0  0  0
M  RAD  3   2   2   3   3  16   2
M  END
