Coordinates from ORCA-job 4-NO2PhN2+~Cl-_B3LYPG-6-31G_dp-NX-Scan-d89-09-n800
 OpenBabel11261920193D

 16 16  0  0  1  0  0  0  0  0999 V2000
   -1.4103   -0.2769    0.0203 C   0  0  0  0  0  0  0  0  0  0  0  0
   -2.6692   -0.4102    0.4151 N   0  0  0  0  0  0  0  0  0  0  0  0
   -3.6637    0.0016    0.7896 N   0  0  0  0  0  0  0  0  0  0  0  0
   -1.1553    1.1285   -0.3948 C   0  0  2  0  0  0  0  0  0  0  0  0
    0.2815    1.4052   -0.5469 C   0  0  0  0  0  0  0  0  0  0  0  0
    1.2047    0.4485   -0.2884 C   0  0  0  0  0  0  0  0  0  0  0  0
    2.6332    0.8032   -0.4859 N   0  0  0  0  0  0  0  0  0  0  0  0
    2.8995    1.9410   -0.8619 O   0  0  0  0  0  0  0  0  0  0  0  0
    3.4607   -0.0762   -0.2560 O   0  0  0  0  0  0  0  0  0  0  0  0
    0.9117   -0.8935    0.1343 C   0  0  0  0  0  0  0  0  0  0  0  0
   -0.3943   -1.2397    0.2918 C   0  0  0  0  0  0  0  0  0  0  0  0
   -1.7535    1.4764   -1.2363 H   0  0  0  0  0  0  0  0  0  0  0  0
    0.5955    2.3810   -0.8935 H   0  0  0  0  0  0  0  0  0  0  0  0
    1.7244   -1.5766    0.3324 H   0  0  0  0  0  0  0  0  0  0  0  0
   -0.6828   -2.2220    0.6497 H   0  0  0  0  0  0  0  0  0  0  0  0
   -2.0350    2.2880    0.9603 Cl  0  0  0  0  0  0  0  0  0  0  0  0
  1 11  2  0  0  0  0
  1  2  1  0  0  0  0
  2  3  2  0  0  0  0
  4 12  1  6  0  0  0
  4  1  1  0  0  0  0
  4 16  1  0  0  0  0
  5  4  1  0  0  0  0
  5  6  2  0  0  0  0
  6 10  1  0  0  0  0
  7  6  1  0  0  0  0
  7  9  2  0  0  0  0
  8  7  2  0  0  0  0
 10 11  1  0  0  0  0
 10 14  1  0  0  0  0
 11 15  1  0  0  0  0
 13  5  1  0  0  0  0
M  RAD  2   3   2  10   2
M  END
