Coordinates from ORCA-job 4-NO2PhN2+~Cl-_B3LYPG-6-31G_dp-NX-Scan-d89-09-n800
 OpenBabel11261920193D

 16 16  0  0  0  0  0  0  0  0999 V2000
   -1.2425    0.1316    0.5563 C   0  0  0  0  0  0  0  0  0  0  0  0
   -2.5234   -0.0325    1.1648 N   0  0  0  0  0  0  0  0  0  0  0  0
   -3.6062    0.1871    0.6106 N   0  0  0  0  0  0  0  0  0  0  0  0
   -0.7287    1.4106    0.2993 C   0  0  0  0  0  0  0  0  0  0  0  0
    0.5700    1.5434   -0.1786 C   0  0  0  0  0  0  0  0  0  0  0  0
    1.3302    0.3949   -0.3935 C   0  0  0  0  0  0  0  0  0  0  0  0
    2.7015    0.5356   -0.9080 N   0  0  0  0  0  0  0  0  0  0  0  0
    3.1127    1.6743   -1.1263 O   0  0  0  0  0  0  0  0  0  0  0  0
    3.3496   -0.4940   -1.0885 O   0  0  0  0  0  0  0  0  0  0  0  0
    0.8370   -0.8817   -0.1287 C   0  0  0  0  0  0  0  0  0  0  0  0
   -0.4550   -1.0111    0.3688 C   0  0  0  0  0  0  0  0  0  0  0  0
   -1.3390    2.2884    0.4807 H   0  0  0  0  0  0  0  0  0  0  0  0
    1.0001    2.5141   -0.3906 H   0  0  0  0  0  0  0  0  0  0  0  0
    1.4682   -1.7438   -0.3032 H   0  0  0  0  0  0  0  0  0  0  0  0
   -0.8622   -1.9872    0.6085 H   0  0  0  0  0  0  0  0  0  0  0  0
   -3.6651    0.6489   -0.9420 Cl  0  0  0  0  0  0  0  0  0  0  0  0
  1  2  1  0  0  0  0
  3  2  2  0  0  0  0
  4 12  1  0  0  0  0
  4  1  2  0  0  0  0
  5  4  1  0  0  0  0
  6  5  2  0  0  0  0
  6 10  1  0  0  0  0
  7  6  1  0  0  0  0
  8  7  2  0  0  0  0
  9  7  2  0  0  0  0
 10 11  2  0  0  0  0
 11  1  1  0  0  0  0
 11 15  1  0  0  0  0
 13  5  1  0  0  0  0
 14 10  1  0  0  0  0
 16  3  1  0  0  0  0
M  END
