Coordinates from ORCA-job 4-NO2PhN2+~Cl-_B3LYPG-6-31G_dp-NX-Scan-d89-09-n800
 OpenBabel11261920193D

 16 15  0  0  0  0  0  0  0  0999 V2000
   -1.5019   -0.3999    0.0051 C   0  0  0  0  0  0  0  0  0  0  0  0
   -2.7847   -0.8604    0.0418 N   0  0  0  0  0  0  0  0  0  0  0  0
   -3.8160   -1.3182    0.0814 N   0  0  0  0  0  0  0  0  0  0  0  0
   -1.2320    0.9762   -0.2094 C   0  0  0  0  0  0  0  0  0  0  0  0
    0.0954    1.3715   -0.3306 C   0  0  0  0  0  0  0  0  0  0  0  0
    1.0945    0.4047   -0.1932 C   0  0  0  0  0  0  0  0  0  0  0  0
    2.5021    0.8001   -0.3804 N   0  0  0  0  0  0  0  0  0  0  0  0
    2.7145    1.9266   -0.8091 O   0  0  0  0  0  0  0  0  0  0  0  0
    3.3579   -0.0420   -0.0974 O   0  0  0  0  0  0  0  0  0  0  0  0
    0.8309   -0.9420    0.0986 C   0  0  0  0  0  0  0  0  0  0  0  0
   -0.4756   -1.3705    0.1826 C   0  0  0  0  0  0  0  0  0  0  0  0
   -2.0251    1.7140   -0.2725 H   0  0  0  0  0  0  0  0  0  0  0  0
    0.3234    2.4377   -0.4672 H   0  0  0  0  0  0  0  0  0  0  0  0
    1.6602   -1.6257    0.2293 H   0  0  0  0  0  0  0  0  0  0  0  0
   -0.7269   -2.4071    0.3740 H   0  0  0  0  0  0  0  0  0  0  0  0
   -0.0699    4.5135    0.3767 Cl  0  0  0  0  0  0  0  0  0  0  0  0
  1  2  1  0  0  0  0
  1 11  2  0  0  0  0
  2  3  1  0  0  0  0
  4  1  1  0  0  0  0
  5  4  2  0  0  0  0
  5  6  1  0  0  0  0
  6 10  2  0  0  0  0
  7  6  1  0  0  0  0
  7  9  2  0  0  0  0
  8  7  2  0  0  0  0
 10 11  1  0  0  0  0
 10 14  1  0  0  0  0
 11 15  1  0  0  0  0
 12  4  1  0  0  0  0
 13  5  1  0  0  0  0
M  RAD  3   2   2   3   3  16   2
M  END
