Coordinates from ORCA-job 4-NO2PhN2+~Cl-_B3LYPG-6-31G_dp-NX-Scan-d89-09-n800
 OpenBabel11261920193D

 16 15  0  0  0  0  0  0  0  0999 V2000
   -1.4859   -0.1430    0.1039 C   0  0  0  0  0  0  0  0  0  0  0  0
   -2.7334   -0.6264   -0.0439 N   0  0  0  0  0  0  0  0  0  0  0  0
   -3.7167   -1.1674   -0.2166 N   0  0  0  0  0  0  0  0  0  0  0  0
   -1.1487    1.2035   -0.2681 C   0  0  0  0  0  0  0  0  0  0  0  0
    0.2246    1.4163   -0.6025 C   0  0  0  0  0  0  0  0  0  0  0  0
    1.1530    0.4573   -0.3088 C   0  0  0  0  0  0  0  0  0  0  0  0
    2.5636    0.7214   -0.6329 N   0  0  0  0  0  0  0  0  0  0  0  0
    2.8318    1.7673   -1.2182 O   0  0  0  0  0  0  0  0  0  0  0  0
    3.3816   -0.1376   -0.3031 O   0  0  0  0  0  0  0  0  0  0  0  0
    0.8273   -0.7843    0.3144 C   0  0  0  0  0  0  0  0  0  0  0  0
   -0.4822   -1.0978    0.5108 C   0  0  0  0  0  0  0  0  0  0  0  0
   -1.9104    1.8443   -0.6891 H   0  0  0  0  0  0  0  0  0  0  0  0
    0.5302    2.3577   -1.0382 H   0  0  0  0  0  0  0  0  0  0  0  0
    1.6247   -1.4606    0.5916 H   0  0  0  0  0  0  0  0  0  0  0  0
   -0.7868   -2.0496    0.9301 H   0  0  0  0  0  0  0  0  0  0  0  0
   -0.9258    2.8772    1.5003 Cl  0  0  0  0  0  0  0  0  0  0  0  0
  1 11  1  0  0  0  0
  2  1  1  0  0  0  0
  3  2  1  0  0  0  0
  4  1  2  0  0  0  0
  5  6  2  0  0  0  0
  5  4  1  0  0  0  0
  6 10  1  0  0  0  0
  7  6  1  0  0  0  0
  7  9  2  0  0  0  0
  8  7  2  0  0  0  0
 10 11  2  0  0  0  0
 10 14  1  0  0  0  0
 11 15  1  0  0  0  0
 12  4  1  0  0  0  0
 13  5  1  0  0  0  0
M  RAD  3   2   2   3   3  16   2
M  END
