Coordinates from ORCA-job 4-NO2PhN2+~Cl-_B3LYPG-6-31G_dp-NX-Scan-d89-09-n800
 OpenBabel11261920193D

 16 15  0  0  0  0  0  0  0  0999 V2000
   -1.4832   -0.3220    0.0189 C   0  0  0  0  0  0  0  0  0  0  0  0
   -2.7710   -0.7688    0.0404 N   0  0  0  0  0  0  0  0  0  0  0  0
   -3.7950   -1.2433    0.0513 N   0  0  0  0  0  0  0  0  0  0  0  0
   -1.1834    1.0326   -0.2761 C   0  0  0  0  0  0  0  0  0  0  0  0
    0.1592    1.3760   -0.4267 C   0  0  0  0  0  0  0  0  0  0  0  0
    1.1330    0.3987   -0.2367 C   0  0  0  0  0  0  0  0  0  0  0  0
    2.5461    0.7512   -0.4501 N   0  0  0  0  0  0  0  0  0  0  0  0
    2.7877    1.8693   -0.8898 O   0  0  0  0  0  0  0  0  0  0  0  0
    3.3832   -0.1106   -0.1736 O   0  0  0  0  0  0  0  0  0  0  0  0
    0.8359   -0.9219    0.1444 C   0  0  0  0  0  0  0  0  0  0  0  0
   -0.4782   -1.3065    0.2635 C   0  0  0  0  0  0  0  0  0  0  0  0
   -1.9476    1.7945   -0.3871 H   0  0  0  0  0  0  0  0  0  0  0  0
    0.4149    2.4125   -0.6332 H   0  0  0  0  0  0  0  0  0  0  0  0
    1.6474   -1.6170    0.3181 H   0  0  0  0  0  0  0  0  0  0  0  0
   -0.7571   -2.3192    0.5293 H   0  0  0  0  0  0  0  0  0  0  0  0
   -0.5448    4.1531    0.7372 Cl  0  0  0  0  0  0  0  0  0  0  0  0
  1  2  1  0  0  0  0
  1 11  2  0  0  0  0
  2  3  1  0  0  0  0
  4  1  1  0  0  0  0
  5  4  2  0  0  0  0
  5  6  1  0  0  0  0
  6 10  2  0  0  0  0
  7  6  1  0  0  0  0
  7  9  2  0  0  0  0
  8  7  2  0  0  0  0
 10 11  1  0  0  0  0
 10 14  1  0  0  0  0
 11 15  1  0  0  0  0
 12  4  1  0  0  0  0
 13  5  1  0  0  0  0
M  RAD  3   2   2   3   3  16   2
M  END
