Coordinates from ORCA-job 4-NO2PhN2+~Cl-_B3LYPG-6-31G_dp-NX-Scan-d89-09-n800
 OpenBabel11261920193D

 16 16  0  0  1  0  0  0  0  0999 V2000
   -1.4167   -0.2600    0.0268 C   0  0  0  0  0  0  0  0  0  0  0  0
   -2.6736   -0.4054    0.4055 N   0  0  0  0  0  0  0  0  0  0  0  0
   -3.7126   -0.1098    0.7623 N   0  0  0  0  0  0  0  0  0  0  0  0
   -1.1536    1.1495   -0.3829 C   0  0  2  0  0  0  0  0  0  0  0  0
    0.2886    1.4140   -0.5480 C   0  0  0  0  0  0  0  0  0  0  0  0
    1.2060    0.4540   -0.2903 C   0  0  0  0  0  0  0  0  0  0  0  0
    2.6354    0.7981   -0.4956 N   0  0  0  0  0  0  0  0  0  0  0  0
    2.9078    1.9311   -0.8823 O   0  0  0  0  0  0  0  0  0  0  0  0
    3.4582   -0.0850   -0.2628 O   0  0  0  0  0  0  0  0  0  0  0  0
    0.9056   -0.8851    0.1431 C   0  0  0  0  0  0  0  0  0  0  0  0
   -0.4001   -1.2245    0.3049 C   0  0  0  0  0  0  0  0  0  0  0  0
   -1.7463    1.4927   -1.2312 H   0  0  0  0  0  0  0  0  0  0  0  0
    0.6055    2.3879   -0.8973 H   0  0  0  0  0  0  0  0  0  0  0  0
    1.7153   -1.5715    0.3418 H   0  0  0  0  0  0  0  0  0  0  0  0
   -0.6917   -2.2050    0.6655 H   0  0  0  0  0  0  0  0  0  0  0  0
   -1.9808    2.2973    0.9702 Cl  0  0  0  0  0  0  0  0  0  0  0  0
  1 11  2  0  0  0  0
  1  2  1  0  0  0  0
  2  3  1  0  0  0  0
  4 12  1  6  0  0  0
  4  1  1  0  0  0  0
  4 16  1  0  0  0  0
  5  4  1  0  0  0  0
  5  6  2  0  0  0  0
  6 10  1  0  0  0  0
  7  6  1  0  0  0  0
  7  9  2  0  0  0  0
  8  7  2  0  0  0  0
 10 11  1  0  0  0  0
 10 14  1  0  0  0  0
 11 15  1  0  0  0  0
 13  5  1  0  0  0  0
M  RAD  3   2   2   3   3  10   2
M  END
