Coordinates from ORCA-job 4-NO2PhN2+~Cl-_B3LYPG-6-31G_dp-NX-Scan-d89-09-n800
 OpenBabel11261920193D

 16 16  0  0  0  0  0  0  0  0999 V2000
   -1.2559    0.2288    0.5629 C   0  0  0  0  0  0  0  0  0  0  0  0
   -2.5448    0.1339    1.1999 N   0  0  0  0  0  0  0  0  0  0  0  0
   -3.5862    0.0947    0.4702 N   0  0  0  0  0  0  0  0  0  0  0  0
   -0.6782    1.4887    0.3448 C   0  0  0  0  0  0  0  0  0  0  0  0
    0.6213    1.5843   -0.1404 C   0  0  0  0  0  0  0  0  0  0  0  0
    1.3334    0.4125   -0.3934 C   0  0  0  0  0  0  0  0  0  0  0  0
    2.7056    0.5097   -0.9088 N   0  0  0  0  0  0  0  0  0  0  0  0
    3.1660    1.6357   -1.0972 O   0  0  0  0  0  0  0  0  0  0  0  0
    3.3107   -0.5404   -1.1229 O   0  0  0  0  0  0  0  0  0  0  0  0
    0.7840   -0.8488   -0.1661 C   0  0  0  0  0  0  0  0  0  0  0  0
   -0.5156   -0.9376    0.3203 C   0  0  0  0  0  0  0  0  0  0  0  0
   -1.2473    2.3855    0.5672 H   0  0  0  0  0  0  0  0  0  0  0  0
    1.0912    2.5425   -0.3236 H   0  0  0  0  0  0  0  0  0  0  0  0
    1.3772   -1.7317   -0.3691 H   0  0  0  0  0  0  0  0  0  0  0  0
   -0.9598   -1.9065    0.5240 H   0  0  0  0  0  0  0  0  0  0  0  0
   -3.6546    0.1273   -0.8381 Cl  0  0  0  0  0  0  0  0  0  0  0  0
  1  2  1  0  0  0  0
  3  2  2  0  0  0  0
  4  1  1  0  0  0  0
  4 12  1  0  0  0  0
  5  4  2  0  0  0  0
  6 10  2  0  0  0  0
  6  5  1  0  0  0  0
  7  6  1  0  0  0  0
  8  7  2  0  0  0  0
  9  7  2  0  0  0  0
 10 11  1  0  0  0  0
 11 15  1  0  0  0  0
 11  1  2  0  0  0  0
 13  5  1  0  0  0  0
 14 10  1  0  0  0  0
 16  3  1  0  0  0  0
M  END
