Coordinates from ORCA-job 4-NO2PhN2+~Cl-_B3LYPG-6-31G_dp-NX-Scan-d89-09-n800
 OpenBabel11261920183D

 16 15  0  0  0  0  0  0  0  0999 V2000
   -1.5743   -0.5643   -0.0148 C   0  0  0  0  0  0  0  0  0  0  0  0
   -2.8315   -1.0783    0.0244 N   0  0  0  0  0  0  0  0  0  0  0  0
   -3.8546   -1.5670    0.0622 N   0  0  0  0  0  0  0  0  0  0  0  0
   -1.3708    0.8377   -0.1385 C   0  0  0  0  0  0  0  0  0  0  0  0
   -0.0696    1.3154   -0.1752 C   0  0  0  0  0  0  0  0  0  0  0  0
    0.9885    0.3998   -0.0903 C   0  0  0  0  0  0  0  0  0  0  0  0
    2.3739    0.8939   -0.1290 N   0  0  0  0  0  0  0  0  0  0  0  0
    2.5326    2.1039   -0.2316 O   0  0  0  0  0  0  0  0  0  0  0  0
    3.2667    0.0448   -0.0548 O   0  0  0  0  0  0  0  0  0  0  0  0
    0.7895   -0.9820    0.0315 C   0  0  0  0  0  0  0  0  0  0  0  0
   -0.4942   -1.4839    0.0714 C   0  0  0  0  0  0  0  0  0  0  0  0
   -2.2169    1.5122   -0.2026 H   0  0  0  0  0  0  0  0  0  0  0  0
    0.1458    2.3787   -0.2687 H   0  0  0  0  0  0  0  0  0  0  0  0
    1.6533   -1.6317    0.0929 H   0  0  0  0  0  0  0  0  0  0  0  0
   -0.6863   -2.5465    0.1664 H   0  0  0  0  0  0  0  0  0  0  0  0
    1.2948    5.5456   -0.5136 Cl  0  0  0  0  0  0  0  0  0  0  0  0
  1  2  1  0  0  0  0
  1 11  2  0  0  0  0
  2  3  1  0  0  0  0
  4  1  1  0  0  0  0
  5  4  2  0  0  0  0
  5  6  1  0  0  0  0
  6 10  2  0  0  0  0
  7  6  1  0  0  0  0
  7  9  2  0  0  0  0
  8  7  2  0  0  0  0
 10 11  1  0  0  0  0
 10 14  1  0  0  0  0
 11 15  1  0  0  0  0
 12  4  1  0  0  0  0
 13  5  1  0  0  0  0
M  RAD  3   2   2   3   3  16   2
M  END
