Coordinates from ORCA-job 4-NO2PhN2+~Cl-_B3LYPG-6-31G_dp-NX-Scan-d89-09-n800
 OpenBabel11261920193D

 16 16  0  0  0  0  0  0  0  0999 V2000
   -1.2604    0.2290    0.5543 C   0  0  0  0  0  0  0  0  0  0  0  0
   -2.5535    0.1341    1.1943 N   0  0  0  0  0  0  0  0  0  0  0  0
   -3.5749    0.0968    0.4085 N   0  0  0  0  0  0  0  0  0  0  0  0
   -0.6772    1.4876    0.3362 C   0  0  0  0  0  0  0  0  0  0  0  0
    0.6246    1.5845   -0.1427 C   0  0  0  0  0  0  0  0  0  0  0  0
    1.3379    0.4129   -0.3935 C   0  0  0  0  0  0  0  0  0  0  0  0
    2.7117    0.5099   -0.9028 N   0  0  0  0  0  0  0  0  0  0  0  0
    3.1737    1.6358   -1.0895 O   0  0  0  0  0  0  0  0  0  0  0  0
    3.3182   -0.5401   -1.1150 O   0  0  0  0  0  0  0  0  0  0  0  0
    0.7869   -0.8483   -0.1685 C   0  0  0  0  0  0  0  0  0  0  0  0
   -0.5153   -0.9357    0.3113 C   0  0  0  0  0  0  0  0  0  0  0  0
   -1.2451    2.3855    0.5587 H   0  0  0  0  0  0  0  0  0  0  0  0
    1.0956    2.5428   -0.3228 H   0  0  0  0  0  0  0  0  0  0  0  0
    1.3809   -1.7313   -0.3684 H   0  0  0  0  0  0  0  0  0  0  0  0
   -0.9588   -1.9053    0.5145 H   0  0  0  0  0  0  0  0  0  0  0  0
   -3.6973    0.1203   -0.7451 Cl  0  0  0  0  0  0  0  0  0  0  0  0
  1  2  1  0  0  0  0
  3  2  2  0  0  0  0
  4  1  1  0  0  0  0
  4 12  1  0  0  0  0
  5  4  2  0  0  0  0
  6 10  2  0  0  0  0
  6  5  1  0  0  0  0
  7  6  1  0  0  0  0
  8  7  2  0  0  0  0
  9  7  2  0  0  0  0
 10 11  1  0  0  0  0
 11 15  1  0  0  0  0
 11  1  2  0  0  0  0
 13  5  1  0  0  0  0
 14 10  1  0  0  0  0
 16  3  1  0  0  0  0
M  END
