Coordinates from ORCA-job 4-NO2PhN2+~Cl-_B3LYPG-6-31G_dp-NX-Scan-d89-09-n800
 OpenBabel11261920193D

 16 15  0  0  0  0  0  0  0  0999 V2000
   -1.4853   -0.3337    0.0165 C   0  0  0  0  0  0  0  0  0  0  0  0
   -2.7729   -0.7819    0.0411 N   0  0  0  0  0  0  0  0  0  0  0  0
   -3.7980   -1.2538    0.0584 N   0  0  0  0  0  0  0  0  0  0  0  0
   -1.1889    1.0244   -0.2654 C   0  0  0  0  0  0  0  0  0  0  0  0
    0.1516    1.3748   -0.4113 C   0  0  0  0  0  0  0  0  0  0  0  0
    1.1286    0.3980   -0.2299 C   0  0  0  0  0  0  0  0  0  0  0  0
    2.5412    0.7560   -0.4398 N   0  0  0  0  0  0  0  0  0  0  0  0
    2.7793    1.8766   -0.8744 O   0  0  0  0  0  0  0  0  0  0  0  0
    3.3806   -0.1043   -0.1651 O   0  0  0  0  0  0  0  0  0  0  0  0
    0.8355   -0.9269    0.1366 C   0  0  0  0  0  0  0  0  0  0  0  0
   -0.4779   -1.3174    0.2499 C   0  0  0  0  0  0  0  0  0  0  0  0
   -1.9564    1.7846   -0.3673 H   0  0  0  0  0  0  0  0  0  0  0  0
    0.4020    2.4170   -0.6041 H   0  0  0  0  0  0  0  0  0  0  0  0
    1.6492   -1.6213    0.3032 H   0  0  0  0  0  0  0  0  0  0  0  0
   -0.7535   -2.3342    0.5036 H   0  0  0  0  0  0  0  0  0  0  0  0
   -0.4883    4.2205    0.6779 Cl  0  0  0  0  0  0  0  0  0  0  0  0
  1  2  1  0  0  0  0
  1 11  2  0  0  0  0
  2  3  1  0  0  0  0
  4  1  1  0  0  0  0
  5  4  2  0  0  0  0
  5  6  1  0  0  0  0
  6 10  2  0  0  0  0
  7  6  1  0  0  0  0
  7  9  2  0  0  0  0
  8  7  2  0  0  0  0
 10 11  1  0  0  0  0
 10 14  1  0  0  0  0
 11 15  1  0  0  0  0
 12  4  1  0  0  0  0
 13  5  1  0  0  0  0
M  RAD  3   2   2   3   3  16   2
M  END
