Coordinates from ORCA-job 4-NO2PhN2+~Cl-_B3LYPG-6-31G_dp-NX-Scan-d89-09-n800
 OpenBabel11261920193D

 16 15  0  0  0  0  0  0  0  0999 V2000
   -1.4982   -0.3865    0.0073 C   0  0  0  0  0  0  0  0  0  0  0  0
   -2.7822   -0.8441    0.0422 N   0  0  0  0  0  0  0  0  0  0  0  0
   -3.8117   -1.3058    0.0780 N   0  0  0  0  0  0  0  0  0  0  0  0
   -1.2219    0.9861   -0.2201 C   0  0  0  0  0  0  0  0  0  0  0  0
    0.1083    1.3717   -0.3456 C   0  0  0  0  0  0  0  0  0  0  0  0
    1.1025    0.4020   -0.2000 C   0  0  0  0  0  0  0  0  0  0  0  0
    2.5114    0.7892   -0.3921 N   0  0  0  0  0  0  0  0  0  0  0  0
    2.7297    1.9158   -0.8183 O   0  0  0  0  0  0  0  0  0  0  0  0
    3.3634   -0.0588   -0.1161 O   0  0  0  0  0  0  0  0  0  0  0  0
    0.8321   -0.9406    0.1059 C   0  0  0  0  0  0  0  0  0  0  0  0
   -0.4764   -1.3607    0.1953 C   0  0  0  0  0  0  0  0  0  0  0  0
   -2.0088    1.7299   -0.2901 H   0  0  0  0  0  0  0  0  0  0  0  0
    0.3407    2.4337   -0.4914 H   0  0  0  0  0  0  0  0  0  0  0  0
    1.6577   -1.6275    0.2431 H   0  0  0  0  0  0  0  0  0  0  0  0
   -0.7333   -2.3937    0.3986 H   0  0  0  0  0  0  0  0  0  0  0  0
   -0.1663    4.4679    0.4329 Cl  0  0  0  0  0  0  0  0  0  0  0  0
  1  2  1  0  0  0  0
  1 11  2  0  0  0  0
  2  3  1  0  0  0  0
  4  1  1  0  0  0  0
  5  4  2  0  0  0  0
  5  6  1  0  0  0  0
  6 10  2  0  0  0  0
  7  6  1  0  0  0  0
  7  9  2  0  0  0  0
  8  7  2  0  0  0  0
 10 11  1  0  0  0  0
 10 14  1  0  0  0  0
 11 15  1  0  0  0  0
 12  4  1  0  0  0  0
 13  5  1  0  0  0  0
M  RAD  3   2   2   3   3  16   2
M  END
