Coordinates from ORCA-job 4-NO2PhN2+~Cl-_B3LYPG-6-31G_dp-NX-Scan-d89-09-n800
 OpenBabel11261920193D

 16 16  0  0  1  0  0  0  0  0999 V2000
   -1.4330   -0.1987    0.0408 C   0  0  0  0  0  0  0  0  0  0  0  0
   -2.7082   -0.4469    0.2665 N   0  0  0  0  0  0  0  0  0  0  0  0
   -3.8232   -0.5122    0.4729 N   0  0  0  0  0  0  0  0  0  0  0  0
   -1.1366    1.2111   -0.3145 C   0  0  2  0  0  0  0  0  0  0  0  0
    0.2975    1.4275   -0.5827 C   0  0  0  0  0  0  0  0  0  0  0  0
    1.2067    0.4689   -0.2949 C   0  0  0  0  0  0  0  0  0  0  0  0
    2.6347    0.7691   -0.5566 N   0  0  0  0  0  0  0  0  0  0  0  0
    2.9168    1.8651   -1.0327 O   0  0  0  0  0  0  0  0  0  0  0  0
    3.4474   -0.1107   -0.2791 O   0  0  0  0  0  0  0  0  0  0  0  0
    0.8868   -0.8357    0.2201 C   0  0  0  0  0  0  0  0  0  0  0  0
   -0.4225   -1.1585    0.3791 C   0  0  0  0  0  0  0  0  0  0  0  0
   -1.7849    1.6235   -1.0856 H   0  0  0  0  0  0  0  0  0  0  0  0
    0.6168    2.3783   -0.9888 H   0  0  0  0  0  0  0  0  0  0  0  0
    1.6866   -1.5232    0.4538 H   0  0  0  0  0  0  0  0  0  0  0  0
   -0.7257   -2.1279    0.7590 H   0  0  0  0  0  0  0  0  0  0  0  0
   -1.7124    2.3487    1.1724 Cl  0  0  0  0  0  0  0  0  0  0  0  0
  1  2  1  0  0  0  0
  1 11  2  0  0  0  0
  2  3  1  0  0  0  0
  4 12  1  6  0  0  0
  4  1  1  0  0  0  0
  4 16  1  0  0  0  0
  5  4  1  0  0  0  0
  5  6  2  0  0  0  0
  6 10  1  0  0  0  0
  7  6  1  0  0  0  0
  7  9  2  0  0  0  0
  8  7  2  0  0  0  0
 10 11  1  0  0  0  0
 10 14  1  0  0  0  0
 11 15  1  0  0  0  0
 13  5  1  0  0  0  0
M  RAD  3   2   2   3   3  10   2
M  END
