Coordinates from ORCA-job 4-NO2PhN2+~Cl-_B3LYPG-6-31G_dp-NX-Scan-d89-09-n800
 OpenBabel11261920183D

 16 15  0  0  0  0  0  0  0  0999 V2000
   -1.5751   -0.5681   -0.0145 C   0  0  0  0  0  0  0  0  0  0  0  0
   -2.8320   -1.0823    0.0246 N   0  0  0  0  0  0  0  0  0  0  0  0
   -3.8557   -1.5698    0.0624 N   0  0  0  0  0  0  0  0  0  0  0  0
   -1.3729    0.8341   -0.1383 C   0  0  0  0  0  0  0  0  0  0  0  0
   -0.0723    1.3127   -0.1752 C   0  0  0  0  0  0  0  0  0  0  0  0
    0.9869    0.3985   -0.0903 C   0  0  0  0  0  0  0  0  0  0  0  0
    2.3714    0.8944   -0.1294 N   0  0  0  0  0  0  0  0  0  0  0  0
    2.5284    2.1047   -0.2337 O   0  0  0  0  0  0  0  0  0  0  0  0
    3.2655    0.0469   -0.0539 O   0  0  0  0  0  0  0  0  0  0  0  0
    0.7892   -0.9836    0.0318 C   0  0  0  0  0  0  0  0  0  0  0  0
   -0.4941   -1.4866    0.0718 C   0  0  0  0  0  0  0  0  0  0  0  0
   -2.2197    1.5077   -0.2024 H   0  0  0  0  0  0  0  0  0  0  0  0
    0.1422    2.3759   -0.2687 H   0  0  0  0  0  0  0  0  0  0  0  0
    1.6536   -1.6324    0.0933 H   0  0  0  0  0  0  0  0  0  0  0  0
   -0.6852   -2.5494    0.1669 H   0  0  0  0  0  0  0  0  0  0  0  0
    1.3166    5.5757   -0.5147 Cl  0  0  0  0  0  0  0  0  0  0  0  0
  1  2  1  0  0  0  0
  1 11  2  0  0  0  0
  2  3  1  0  0  0  0
  4  1  1  0  0  0  0
  5  4  2  0  0  0  0
  5  6  1  0  0  0  0
  6 10  2  0  0  0  0
  7  6  1  0  0  0  0
  7  9  2  0  0  0  0
  8  7  2  0  0  0  0
 10 11  1  0  0  0  0
 10 14  1  0  0  0  0
 11 15  1  0  0  0  0
 12  4  1  0  0  0  0
 13  5  1  0  0  0  0
M  RAD  3   2   2   3   3  16   2
M  END
