Coordinates from ORCA-job 4-NO2PhN2+~Cl-_B3LYPG-6-31G_dp-NX-Scan-d89-09-n800
 OpenBabel11261920193D

 16 16  0  0  0  0  0  0  0  0999 V2000
   -1.2585    0.2292    0.5580 C   0  0  0  0  0  0  0  0  0  0  0  0
   -2.5495    0.1344    1.1971 N   0  0  0  0  0  0  0  0  0  0  0  0
   -3.5806    0.0953    0.4380 N   0  0  0  0  0  0  0  0  0  0  0  0
   -0.6776    1.4883    0.3401 C   0  0  0  0  0  0  0  0  0  0  0  0
    0.6232    1.5845   -0.1416 C   0  0  0  0  0  0  0  0  0  0  0  0
    1.3358    0.4128   -0.3934 C   0  0  0  0  0  0  0  0  0  0  0  0
    2.7089    0.5098   -0.9055 N   0  0  0  0  0  0  0  0  0  0  0  0
    3.1702    1.6356   -1.0930 O   0  0  0  0  0  0  0  0  0  0  0  0
    3.3146   -0.5404   -1.1187 O   0  0  0  0  0  0  0  0  0  0  0  0
    0.7854   -0.8484   -0.1675 C   0  0  0  0  0  0  0  0  0  0  0  0
   -0.5157   -0.9364    0.3152 C   0  0  0  0  0  0  0  0  0  0  0  0
   -1.2459    2.3857    0.5626 H   0  0  0  0  0  0  0  0  0  0  0  0
    1.0938    2.5427   -0.3230 H   0  0  0  0  0  0  0  0  0  0  0  0
    1.3789   -1.7314   -0.3688 H   0  0  0  0  0  0  0  0  0  0  0  0
   -0.9595   -1.9057    0.5186 H   0  0  0  0  0  0  0  0  0  0  0  0
   -3.6766    0.1225   -0.7884 Cl  0  0  0  0  0  0  0  0  0  0  0  0
  1  2  1  0  0  0  0
  3  2  2  0  0  0  0
  4  1  1  0  0  0  0
  4 12  1  0  0  0  0
  5  4  2  0  0  0  0
  6 10  2  0  0  0  0
  6  5  1  0  0  0  0
  7  6  1  0  0  0  0
  8  7  2  0  0  0  0
  9  7  2  0  0  0  0
 10 11  1  0  0  0  0
 11 15  1  0  0  0  0
 11  1  2  0  0  0  0
 13  5  1  0  0  0  0
 14 10  1  0  0  0  0
 16  3  1  0  0  0  0
M  END
