Coordinates from ORCA-job 4-NO2PhN2+~Cl-_B3LYPG-6-31G_dp-NX-Scan-d89-09-n800
 OpenBabel11261920193D

 16 16  0  0  1  0  0  0  0  0999 V2000
   -1.4377   -0.1839    0.0504 C   0  0  0  0  0  0  0  0  0  0  0  0
   -2.7153   -0.4633    0.2208 N   0  0  0  0  0  0  0  0  0  0  0  0
   -3.8323   -0.6055    0.3724 N   0  0  0  0  0  0  0  0  0  0  0  0
   -1.1342    1.2260   -0.2900 C   0  0  2  0  0  0  0  0  0  0  0  0
    0.2955    1.4297   -0.5893 C   0  0  0  0  0  0  0  0  0  0  0  0
    1.2039    0.4720   -0.2958 C   0  0  0  0  0  0  0  0  0  0  0  0
    2.6300    0.7602   -0.5767 N   0  0  0  0  0  0  0  0  0  0  0  0
    2.9125    1.8458   -1.0761 O   0  0  0  0  0  0  0  0  0  0  0  0
    3.4419   -0.1166   -0.2870 O   0  0  0  0  0  0  0  0  0  0  0  0
    0.8813   -0.8221    0.2431 C   0  0  0  0  0  0  0  0  0  0  0  0
   -0.4285   -1.1418    0.4033 C   0  0  0  0  0  0  0  0  0  0  0  0
   -1.7981    1.6569   -1.0368 H   0  0  0  0  0  0  0  0  0  0  0  0
    0.6137    2.3737   -1.0118 H   0  0  0  0  0  0  0  0  0  0  0  0
    1.6796   -1.5083    0.4861 H   0  0  0  0  0  0  0  0  0  0  0  0
   -0.7334   -2.1085    0.7887 H   0  0  0  0  0  0  0  0  0  0  0  0
   -1.6321    2.3641    1.2283 Cl  0  0  0  0  0  0  0  0  0  0  0  0
  1  2  1  0  0  0  0
  1 11  2  0  0  0  0
  2  3  1  0  0  0  0
  4 12  1  6  0  0  0
  4  1  1  0  0  0  0
  4 16  1  0  0  0  0
  5  6  2  0  0  0  0
  5  4  1  0  0  0  0
  6 10  1  0  0  0  0
  7  6  1  0  0  0  0
  7  9  2  0  0  0  0
  8  7  2  0  0  0  0
 10 11  1  0  0  0  0
 10 14  1  0  0  0  0
 11 15  1  0  0  0  0
 13  5  1  0  0  0  0
M  RAD  3   2   2   3   3  10   2
M  END
