Coordinates from ORCA-job 4-NO2PhN2+~Cl-_B3LYPG-6-31G_dp-NX-Scan-d89-09-n800
 OpenBabel11261920193D

 16 15  0  0  0  0  0  0  0  0999 V2000
   -1.4998   -0.3944    0.0058 C   0  0  0  0  0  0  0  0  0  0  0  0
   -2.7835   -0.8524    0.0422 N   0  0  0  0  0  0  0  0  0  0  0  0
   -3.8152   -1.3092    0.0807 N   0  0  0  0  0  0  0  0  0  0  0  0
   -1.2271    0.9802   -0.2146 C   0  0  0  0  0  0  0  0  0  0  0  0
    0.1014    1.3714   -0.3376 C   0  0  0  0  0  0  0  0  0  0  0  0
    1.0984    0.4035   -0.1963 C   0  0  0  0  0  0  0  0  0  0  0  0
    2.5066    0.7953   -0.3855 N   0  0  0  0  0  0  0  0  0  0  0  0
    2.7216    1.9216   -0.8138 O   0  0  0  0  0  0  0  0  0  0  0  0
    3.3608   -0.0492   -0.1048 O   0  0  0  0  0  0  0  0  0  0  0  0
    0.8318   -0.9415    0.1017 C   0  0  0  0  0  0  0  0  0  0  0  0
   -0.4756   -1.3665    0.1880 C   0  0  0  0  0  0  0  0  0  0  0  0
   -2.0176    1.7205   -0.2805 H   0  0  0  0  0  0  0  0  0  0  0  0
    0.3296    2.4364   -0.4773 H   0  0  0  0  0  0  0  0  0  0  0  0
    1.6595   -1.6266    0.2354 H   0  0  0  0  0  0  0  0  0  0  0  0
   -0.7292   -2.4016    0.3846 H   0  0  0  0  0  0  0  0  0  0  0  0
   -0.1147    4.4909    0.4017 Cl  0  0  0  0  0  0  0  0  0  0  0  0
  1  2  1  0  0  0  0
  1 11  2  0  0  0  0
  2  3  1  0  0  0  0
  4  1  1  0  0  0  0
  5  4  2  0  0  0  0
  5  6  1  0  0  0  0
  6 10  2  0  0  0  0
  7  6  1  0  0  0  0
  7  9  2  0  0  0  0
  8  7  2  0  0  0  0
 10 11  1  0  0  0  0
 10 14  1  0  0  0  0
 11 15  1  0  0  0  0
 12  4  1  0  0  0  0
 13  5  1  0  0  0  0
M  RAD  3   2   2   3   3  16   2
M  END
