Coordinates from ORCA-job 4-NO2PhN2+~Cl-_B3LYPG-6-31G_dp-NX-Scan-d89-09-n800
 OpenBabel11261920193D

 16 15  0  0  0  0  0  0  0  0999 V2000
   -1.4875   -0.3414    0.0150 C   0  0  0  0  0  0  0  0  0  0  0  0
   -2.7744   -0.7924    0.0405 N   0  0  0  0  0  0  0  0  0  0  0  0
   -3.7986   -1.2665    0.0609 N   0  0  0  0  0  0  0  0  0  0  0  0
   -1.1935    1.0194   -0.2580 C   0  0  0  0  0  0  0  0  0  0  0  0
    0.1460    1.3748   -0.3996 C   0  0  0  0  0  0  0  0  0  0  0  0
    1.1252    0.3984   -0.2237 C   0  0  0  0  0  0  0  0  0  0  0  0
    2.5375    0.7605   -0.4298 N   0  0  0  0  0  0  0  0  0  0  0  0
    2.7731    1.8804   -0.8672 O   0  0  0  0  0  0  0  0  0  0  0  0
    3.3778   -0.1016   -0.1633 O   0  0  0  0  0  0  0  0  0  0  0  0
    0.8348   -0.9294    0.1324 C   0  0  0  0  0  0  0  0  0  0  0  0
   -0.4782   -1.3240    0.2413 C   0  0  0  0  0  0  0  0  0  0  0  0
   -1.9628    1.7783   -0.3552 H   0  0  0  0  0  0  0  0  0  0  0  0
    0.3943    2.4207   -0.5831 H   0  0  0  0  0  0  0  0  0  0  0  0
    1.6498   -1.6234    0.2943 H   0  0  0  0  0  0  0  0  0  0  0  0
   -0.7513   -2.3435    0.4866 H   0  0  0  0  0  0  0  0  0  0  0  0
   -0.4453    4.2682    0.6384 Cl  0  0  0  0  0  0  0  0  0  0  0  0
  1  2  1  0  0  0  0
  1 11  2  0  0  0  0
  2  3  1  0  0  0  0
  4  1  1  0  0  0  0
  5  4  2  0  0  0  0
  5  6  1  0  0  0  0
  6 10  2  0  0  0  0
  7  6  1  0  0  0  0
  7  9  2  0  0  0  0
  8  7  2  0  0  0  0
 10 11  1  0  0  0  0
 10 14  1  0  0  0  0
 11 15  1  0  0  0  0
 12  4  1  0  0  0  0
 13  5  1  0  0  0  0
M  RAD  3   2   2   3   3  16   2
M  END
