Coordinates from ORCA-job 4-NO2PhN2+~Cl-_B3LYPG-6-31G_dp-NX-Scan-d89-09-n800
 OpenBabel11261920193D

 16 15  0  0  0  0  0  0  0  0999 V2000
   -1.4848   -0.2416    0.0377 C   0  0  0  0  0  0  0  0  0  0  0  0
   -2.7638   -0.6995    0.0020 N   0  0  0  0  0  0  0  0  0  0  0  0
   -3.7739   -1.2014   -0.0611 N   0  0  0  0  0  0  0  0  0  0  0  0
   -1.1743    1.0863   -0.3543 C   0  0  0  0  0  0  0  0  0  0  0  0
    0.1805    1.3946   -0.5487 C   0  0  0  0  0  0  0  0  0  0  0  0
    1.1398    0.4316   -0.2801 C   0  0  0  0  0  0  0  0  0  0  0  0
    2.5502    0.7521   -0.5312 N   0  0  0  0  0  0  0  0  0  0  0  0
    2.8027    1.8341   -1.0533 O   0  0  0  0  0  0  0  0  0  0  0  0
    3.3826   -0.0993   -0.2127 O   0  0  0  0  0  0  0  0  0  0  0  0
    0.8293   -0.8461    0.2369 C   0  0  0  0  0  0  0  0  0  0  0  0
   -0.4826   -1.2049    0.3931 C   0  0  0  0  0  0  0  0  0  0  0  0
   -1.9443    1.8094   -0.5881 H   0  0  0  0  0  0  0  0  0  0  0  0
    0.4676    2.3750   -0.9003 H   0  0  0  0  0  0  0  0  0  0  0  0
    1.6359   -1.5253    0.4808 H   0  0  0  0  0  0  0  0  0  0  0  0
   -0.7726   -2.1839    0.7547 H   0  0  0  0  0  0  0  0  0  0  0  0
   -0.6454    3.4974    1.2542 Cl  0  0  0  0  0  0  0  0  0  0  0  0
  1 11  2  0  0  0  0
  2  1  1  0  0  0  0
  3  2  1  0  0  0  0
  4  1  1  0  0  0  0
  5  4  2  0  0  0  0
  5  6  1  0  0  0  0
  6 10  2  0  0  0  0
  7  6  1  0  0  0  0
  7  9  2  0  0  0  0
  8  7  2  0  0  0  0
 10 11  1  0  0  0  0
 10 14  1  0  0  0  0
 11 15  1  0  0  0  0
 12  4  1  0  0  0  0
 13  5  1  0  0  0  0
M  RAD  3   2   2   3   3  16   2
M  END
