Coordinates from ORCA-job 4-NO2PhN2+~Cl-_B3LYPG-6-31G_dp-NX-Scan-d89-09-n800
 OpenBabel11261920193D

 16 15  0  0  0  0  0  0  0  0999 V2000
   -1.2276   -0.1350    0.2771 C   0  0  0  0  0  0  0  0  0  0  0  0
   -2.5655   -0.4175    0.6212 N   0  0  0  0  0  0  0  0  0  0  0  0
   -3.6375   -0.0322    0.7516 N   0  0  0  0  0  0  0  0  0  0  0  0
   -0.8835    1.1665   -0.1104 C   0  0  0  0  0  0  0  0  0  0  0  0
    0.4475    1.4041   -0.4429 C   0  0  0  0  0  0  0  0  0  0  0  0
    1.3611    0.3540   -0.3761 C   0  0  0  0  0  0  0  0  0  0  0  0
    2.7754    0.6202   -0.7320 N   0  0  0  0  0  0  0  0  0  0  0  0
    3.0633    1.7637   -1.0695 O   0  0  0  0  0  0  0  0  0  0  0  0
    3.5576   -0.3238   -0.6631 O   0  0  0  0  0  0  0  0  0  0  0  0
    1.0108   -0.9401    0.0106 C   0  0  0  0  0  0  0  0  0  0  0  0
   -0.3128   -1.1929    0.3451 C   0  0  0  0  0  0  0  0  0  0  0  0
   -1.6553    1.9375   -0.1380 H   0  0  0  0  0  0  0  0  0  0  0  0
    0.7822    2.3866   -0.7516 H   0  0  0  0  0  0  0  0  0  0  0  0
    1.7674   -1.7132    0.0426 H   0  0  0  0  0  0  0  0  0  0  0  0
   -0.6404   -2.1792    0.6533 H   0  0  0  0  0  0  0  0  0  0  0  0
   -3.8959    2.4797    0.2119 Cl  0  0  0  0  0  0  0  0  0  0  0  0
  1 11  1  0  0  0  0
  1  2  1  0  0  0  0
  2  3  2  0  0  0  0
  4  1  2  0  0  0  0
  5  6  2  0  0  0  0
  5  4  1  0  0  0  0
  6 10  1  0  0  0  0
  7  9  2  0  0  0  0
  7  6  1  0  0  0  0
  8  7  2  0  0  0  0
 10 14  1  0  0  0  0
 10 11  2  0  0  0  0
 11 15  1  0  0  0  0
 12  4  1  0  0  0  0
 13  5  1  0  0  0  0
M  RAD  2   3   2  16   2
M  END
