Coordinates from ORCA-job 4-NO2PhN2+~Cl-_B3LYPG-6-31G_dp-NX-Scan-d89-09-n800
 OpenBabel11261920193D

 16 16  0  0  1  0  0  0  0  0999 V2000
   -1.4748   -0.1110    0.1404 C   0  0  2  0  0  0  0  0  0  0  0  0
   -2.7066   -0.5630   -0.0466 N   0  0  0  0  0  0  0  0  0  0  0  0
   -3.7271   -1.0370   -0.2321 N   0  0  0  0  0  0  0  0  0  0  0  0
   -1.1341    1.2984   -0.1416 C   0  0  2  0  0  0  0  0  0  0  0  0
    0.2602    1.4389   -0.5960 C   0  0  0  0  0  0  0  0  0  0  0  0
    1.1678    0.4815   -0.2966 C   0  0  0  0  0  0  0  0  0  0  0  0
    2.5752    0.7057   -0.6859 N   0  0  0  0  0  0  0  0  0  0  0  0
    2.8461    1.7294   -1.3083 O   0  0  0  0  0  0  0  0  0  0  0  0
    3.3882   -0.1564   -0.3558 O   0  0  0  0  0  0  0  0  0  0  0  0
    0.8428   -0.7564    0.3609 C   0  0  0  0  0  0  0  0  0  0  0  0
   -0.4655   -1.0619    0.5485 C   0  0  0  0  0  0  0  0  0  0  0  0
   -1.8641    1.8182   -0.7554 H   0  0  0  0  0  0  0  0  0  0  0  0
    0.5662    2.3493   -1.0947 H   0  0  0  0  0  0  0  0  0  0  0  0
    1.6395   -1.4297    0.6441 H   0  0  0  0  0  0  0  0  0  0  0  0
   -0.7726   -2.0135    0.9682 H   0  0  0  0  0  0  0  0  0  0  0  0
   -1.1942    2.4859    1.4805 Cl  0  0  0  0  0  0  0  0  0  0  0  0
  1  2  1  6  0  0  0
  1 11  1  0  0  0  0
  3  2  1  0  0  0  0
  4 12  1  6  0  0  0
  4  1  1  0  0  0  0
  4 16  1  0  0  0  0
  5  6  2  0  0  0  0
  5  4  1  0  0  0  0
  6 10  1  0  0  0  0
  7  9  2  0  0  0  0
  7  6  1  0  0  0  0
  8  7  2  0  0  0  0
 10 11  2  0  0  0  0
 10 14  1  0  0  0  0
 11 15  1  0  0  0  0
 13  5  1  0  0  0  0
M  RAD  3   1   2   2   2   3   3
M  END
