Coordinates from ORCA-job 4-NO2PhN2+~Cl-_B3LYPG-6-31G_dp-NX-Scan-d89-09-n800
 OpenBabel11261920193D

 16 16  0  0  1  0  0  0  0  0999 V2000
   -1.4921   -0.1009    0.1574 C   0  0  2  0  0  0  0  0  0  0  0  0
   -2.6995   -0.6077   -0.1086 N   0  0  0  0  0  0  0  0  0  0  0  0
   -3.6533   -1.1750   -0.3734 N   0  0  0  0  0  0  0  0  0  0  0  0
   -1.1413    1.2890   -0.1434 C   0  0  2  0  0  0  0  0  0  0  0  0
    0.2373    1.4340   -0.5946 C   0  0  0  0  0  0  0  0  0  0  0  0
    1.1494    0.4733   -0.3023 C   0  0  0  0  0  0  0  0  0  0  0  0
    2.5526    0.6939   -0.6983 N   0  0  0  0  0  0  0  0  0  0  0  0
    2.8198    1.7128   -1.3302 O   0  0  0  0  0  0  0  0  0  0  0  0
    3.3671   -0.1658   -0.3643 O   0  0  0  0  0  0  0  0  0  0  0  0
    0.8247   -0.7524    0.3708 C   0  0  0  0  0  0  0  0  0  0  0  0
   -0.4829   -1.0527    0.5749 C   0  0  0  0  0  0  0  0  0  0  0  0
   -1.8907    1.8642   -0.6746 H   0  0  0  0  0  0  0  0  0  0  0  0
    0.5427    2.3485   -1.0859 H   0  0  0  0  0  0  0  0  0  0  0  0
    1.6213   -1.4243    0.6588 H   0  0  0  0  0  0  0  0  0  0  0  0
   -0.7903   -1.9987    1.0064 H   0  0  0  0  0  0  0  0  0  0  0  0
   -1.0178    2.6402    1.5371 Cl  0  0  0  0  0  0  0  0  0  0  0  0
  1  2  1  6  0  0  0
  1 11  1  0  0  0  0
  3  2  1  0  0  0  0
  4 12  1  6  0  0  0
  4  1  1  0  0  0  0
  4 16  1  0  0  0  0
  5  6  2  0  0  0  0
  5  4  1  0  0  0  0
  6 10  1  0  0  0  0
  7  9  2  0  0  0  0
  7  6  1  0  0  0  0
  8  7  2  0  0  0  0
 10 11  2  0  0  0  0
 10 14  1  0  0  0  0
 11 15  1  0  0  0  0
 13  5  1  0  0  0  0
M  RAD  3   1   2   2   2   3   3
M  END
