Coordinates from ORCA-job 4-NO2PhN2+~Cl-_B3LYPG-6-31G_dp-NX-Scan-d89-09-n800
 OpenBabel11261920193D

 16 16  0  0  0  0  0  0  0  0999 V2000
   -1.2439    0.1403    0.5583 C   0  0  0  0  0  0  0  0  0  0  0  0
   -2.5245   -0.0175    1.1716 N   0  0  0  0  0  0  0  0  0  0  0  0
   -3.6052    0.1829    0.5972 N   0  0  0  0  0  0  0  0  0  0  0  0
   -0.7242    1.4177    0.3045 C   0  0  0  0  0  0  0  0  0  0  0  0
    0.5743    1.5472   -0.1748 C   0  0  0  0  0  0  0  0  0  0  0  0
    1.3301    0.3965   -0.3936 C   0  0  0  0  0  0  0  0  0  0  0  0
    2.7012    0.5333   -0.9088 N   0  0  0  0  0  0  0  0  0  0  0  0
    3.1168    1.6710   -1.1244 O   0  0  0  0  0  0  0  0  0  0  0  0
    3.3454   -0.4983   -1.0927 O   0  0  0  0  0  0  0  0  0  0  0  0
    0.8317   -0.8788   -0.1322 C   0  0  0  0  0  0  0  0  0  0  0  0
   -0.4608   -1.0047    0.3649 C   0  0  0  0  0  0  0  0  0  0  0  0
   -1.3305    2.2976    0.4902 H   0  0  0  0  0  0  0  0  0  0  0  0
    1.0078    2.5169   -0.3843 H   0  0  0  0  0  0  0  0  0  0  0  0
    1.4593   -1.7429   -0.3098 H   0  0  0  0  0  0  0  0  0  0  0  0
   -0.8714   -1.9802    0.6013 H   0  0  0  0  0  0  0  0  0  0  0  0
   -3.6592    0.5973   -0.9378 Cl  0  0  0  0  0  0  0  0  0  0  0  0
  1  2  1  0  0  0  0
  3  2  2  0  0  0  0
  4 12  1  0  0  0  0
  4  1  2  0  0  0  0
  5  4  1  0  0  0  0
  6  5  2  0  0  0  0
  6 10  1  0  0  0  0
  7  6  1  0  0  0  0
  8  7  2  0  0  0  0
  9  7  2  0  0  0  0
 10 11  2  0  0  0  0
 11  1  1  0  0  0  0
 11 15  1  0  0  0  0
 13  5  1  0  0  0  0
 14 10  1  0  0  0  0
 16  3  1  0  0  0  0
M  END
