Coordinates from ORCA-job 4-NO2PhN2+~Cl-_B3LYPG-6-31G_dp-NX-Scan-d89-09-n800
 OpenBabel11261920193D

 16 16  0  0  0  0  0  0  0  0999 V2000
   -1.2556    0.2286    0.5635 C   0  0  0  0  0  0  0  0  0  0  0  0
   -2.5442    0.1334    1.2002 N   0  0  0  0  0  0  0  0  0  0  0  0
   -3.5869    0.0949    0.4742 N   0  0  0  0  0  0  0  0  0  0  0  0
   -0.6784    1.4886    0.3453 C   0  0  0  0  0  0  0  0  0  0  0  0
    0.6210    1.5841   -0.1403 C   0  0  0  0  0  0  0  0  0  0  0  0
    1.3331    0.4125   -0.3934 C   0  0  0  0  0  0  0  0  0  0  0  0
    2.7052    0.5098   -0.9092 N   0  0  0  0  0  0  0  0  0  0  0  0
    3.1653    1.6357   -1.0978 O   0  0  0  0  0  0  0  0  0  0  0  0
    3.3103   -0.5403   -1.1234 O   0  0  0  0  0  0  0  0  0  0  0  0
    0.7840   -0.8489   -0.1659 C   0  0  0  0  0  0  0  0  0  0  0  0
   -0.5154   -0.9380    0.3210 C   0  0  0  0  0  0  0  0  0  0  0  0
   -1.2476    2.3852    0.5676 H   0  0  0  0  0  0  0  0  0  0  0  0
    1.0906    2.5424   -0.3239 H   0  0  0  0  0  0  0  0  0  0  0  0
    1.3771   -1.7317   -0.3690 H   0  0  0  0  0  0  0  0  0  0  0  0
   -0.9596   -1.9068    0.5249 H   0  0  0  0  0  0  0  0  0  0  0  0
   -3.6522    0.1289   -0.8443 Cl  0  0  0  0  0  0  0  0  0  0  0  0
  1  2  1  0  0  0  0
  3  2  2  0  0  0  0
  4  1  1  0  0  0  0
  4 12  1  0  0  0  0
  5  4  2  0  0  0  0
  6 10  2  0  0  0  0
  6  5  1  0  0  0  0
  7  6  1  0  0  0  0
  8  7  2  0  0  0  0
  9  7  2  0  0  0  0
 10 11  1  0  0  0  0
 11 15  1  0  0  0  0
 11  1  2  0  0  0  0
 13  5  1  0  0  0  0
 14 10  1  0  0  0  0
 16  3  1  0  0  0  0
M  END
