Coordinates from ORCA-job 4-NO2PhN2+~Cl-_B3LYPG-6-31G_dp-NX-Scan-d89-09-n800
 OpenBabel11261920193D

 16 15  0  0  0  0  0  0  0  0999 V2000
   -1.5247   -0.4683   -0.0062 C   0  0  0  0  0  0  0  0  0  0  0  0
   -2.7974   -0.9496    0.0389 N   0  0  0  0  0  0  0  0  0  0  0  0
   -3.8359   -1.3914    0.0955 N   0  0  0  0  0  0  0  0  0  0  0  0
   -1.2981    0.9231   -0.1722 C   0  0  0  0  0  0  0  0  0  0  0  0
    0.0109    1.3704   -0.2814 C   0  0  0  0  0  0  0  0  0  0  0  0
    1.0422    0.4299   -0.1742 C   0  0  0  0  0  0  0  0  0  0  0  0
    2.4329    0.8825   -0.3292 N   0  0  0  0  0  0  0  0  0  0  0  0
    2.6022    1.9901   -0.8227 O   0  0  0  0  0  0  0  0  0  0  0  0
    3.3155    0.1060    0.0491 O   0  0  0  0  0  0  0  0  0  0  0  0
    0.8237   -0.9334    0.0679 C   0  0  0  0  0  0  0  0  0  0  0  0
   -0.4689   -1.4098    0.1293 C   0  0  0  0  0  0  0  0  0  0  0  0
   -2.1262    1.6229   -0.2041 H   0  0  0  0  0  0  0  0  0  0  0  0
    0.2253    2.4469   -0.3939 H   0  0  0  0  0  0  0  0  0  0  0  0
    1.6764   -1.5918    0.1780 H   0  0  0  0  0  0  0  0  0  0  0  0
   -0.6850   -2.4620    0.2743 H   0  0  0  0  0  0  0  0  0  0  0  0
    0.5539    4.6128    0.1805 Cl  0  0  0  0  0  0  0  0  0  0  0  0
  1  2  1  0  0  0  0
  1 11  1  0  0  0  0
  2  3  1  0  0  0  0
  4  1  2  0  0  0  0
  5  6  2  0  0  0  0
  5  4  1  0  0  0  0
  6 10  1  0  0  0  0
  7  6  1  0  0  0  0
  7  9  2  0  0  0  0
  8  7  2  0  0  0  0
 10 11  2  0  0  0  0
 10 14  1  0  0  0  0
 11 15  1  0  0  0  0
 12  4  1  0  0  0  0
 13  5  1  0  0  0  0
M  RAD  3   2   2   3   3  16   2
M  END
