Coordinates from ORCA-job 4-NO2PhN2+~Cl-_B3LYPG-6-31G_dp-NX-Scan-d89-09-n800
 OpenBabel11261920193D

 16 16  0  0  1  0  0  0  0  0999 V2000
   -1.4631   -0.1280    0.1147 C   0  0  0  0  0  0  0  0  0  0  0  0
   -2.7172   -0.5375    0.0222 N   0  0  0  0  0  0  0  0  0  0  0  0
   -3.7786   -0.9376   -0.0813 N   0  0  0  0  0  0  0  0  0  0  0  0
   -1.1323    1.2827   -0.1771 C   0  0  2  0  0  0  0  0  0  0  0  0
    0.2726    1.4372   -0.5977 C   0  0  0  0  0  0  0  0  0  0  0  0
    1.1801    0.4810   -0.2960 C   0  0  0  0  0  0  0  0  0  0  0  0
    2.5933    0.7207   -0.6591 N   0  0  0  0  0  0  0  0  0  0  0  0
    2.8682    1.7583   -1.2559 O   0  0  0  0  0  0  0  0  0  0  0  0
    3.4053   -0.1449   -0.3364 O   0  0  0  0  0  0  0  0  0  0  0  0
    0.8544   -0.7706    0.3344 C   0  0  0  0  0  0  0  0  0  0  0  0
   -0.4548   -1.0798    0.5122 C   0  0  0  0  0  0  0  0  0  0  0  0
   -1.8485    1.7799   -0.8259 H   0  0  0  0  0  0  0  0  0  0  0  0
    0.5821    2.3549   -1.0806 H   0  0  0  0  0  0  0  0  0  0  0  0
    1.6507   -1.4476    0.6090 H   0  0  0  0  0  0  0  0  0  0  0  0
   -0.7620   -2.0357    0.9218 H   0  0  0  0  0  0  0  0  0  0  0  0
   -1.3035    2.4455    1.4256 Cl  0  0  0  0  0  0  0  0  0  0  0  0
  1 11  2  0  0  0  0
  2  1  1  0  0  0  0
  3  2  1  0  0  0  0
  4 12  1  6  0  0  0
  4  1  1  0  0  0  0
  4 16  1  0  0  0  0
  5  6  2  0  0  0  0
  5  4  1  0  0  0  0
  6 10  1  0  0  0  0
  7  9  2  0  0  0  0
  7  6  1  0  0  0  0
  8  7  2  0  0  0  0
 10 11  1  0  0  0  0
 10 14  1  0  0  0  0
 11 15  1  0  0  0  0
 13  5  1  0  0  0  0
M  RAD  3   2   2   3   3  10   2
M  END
