Coordinates from ORCA-job 4-NO2PhN2+~Cl-_B3LYPG-6-31G_dp-NX-Scan-d89-09-n800
 OpenBabel11261920193D

 16 16  0  0  1  0  0  0  0  0999 V2000
   -1.4289   -0.2124    0.0336 C   0  0  0  0  0  0  0  0  0  0  0  0
   -2.7001   -0.4324    0.3058 N   0  0  0  0  0  0  0  0  0  0  0  0
   -3.8064   -0.4221    0.5622 N   0  0  0  0  0  0  0  0  0  0  0  0
   -1.1396    1.1970   -0.3357 C   0  0  2  0  0  0  0  0  0  0  0  0
    0.2980    1.4253   -0.5755 C   0  0  0  0  0  0  0  0  0  0  0  0
    1.2081    0.4657   -0.2941 C   0  0  0  0  0  0  0  0  0  0  0  0
    2.6373    0.7766   -0.5394 N   0  0  0  0  0  0  0  0  0  0  0  0
    2.9187    1.8826   -0.9922 O   0  0  0  0  0  0  0  0  0  0  0  0
    3.4515   -0.1051   -0.2725 O   0  0  0  0  0  0  0  0  0  0  0  0
    0.8914   -0.8483    0.1991 C   0  0  0  0  0  0  0  0  0  0  0  0
   -0.4173   -1.1742    0.3577 C   0  0  0  0  0  0  0  0  0  0  0  0
   -1.7727    1.5918   -1.1289 H   0  0  0  0  0  0  0  0  0  0  0  0
    0.6178    2.3823   -0.9663 H   0  0  0  0  0  0  0  0  0  0  0  0
    1.6930   -1.5366    0.4240 H   0  0  0  0  0  0  0  0  0  0  0  0
   -0.7186   -2.1462    0.7327 H   0  0  0  0  0  0  0  0  0  0  0  0
   -1.7853    2.3345    1.1191 Cl  0  0  0  0  0  0  0  0  0  0  0  0
  1  2  1  0  0  0  0
  1 11  2  0  0  0  0
  2  3  1  0  0  0  0
  4 12  1  6  0  0  0
  4  1  1  0  0  0  0
  4 16  1  0  0  0  0
  5  4  1  0  0  0  0
  5  6  2  0  0  0  0
  6 10  1  0  0  0  0
  7  6  1  0  0  0  0
  7  9  2  0  0  0  0
  8  7  2  0  0  0  0
 10 11  1  0  0  0  0
 10 14  1  0  0  0  0
 11 15  1  0  0  0  0
 13  5  1  0  0  0  0
M  RAD  3   2   2   3   3  10   2
M  END
