Coordinates from ORCA-job 4-NO2PhN2+~Cl-_B3LYPG-6-31G_dp-NX-Scan-d89-09-n800
 OpenBabel11261920193D

 16 16  0  0  1  0  0  0  0  0999 V2000
   -1.4825   -0.1023    0.1543 C   0  0  2  0  0  0  0  0  0  0  0  0
   -2.6992   -0.5796   -0.0831 N   0  0  0  0  0  0  0  0  0  0  0  0
   -3.6899   -1.0959   -0.3152 N   0  0  0  0  0  0  0  0  0  0  0  0
   -1.1361    1.3045   -0.1259 C   0  0  2  0  0  0  0  0  0  0  0  0
    0.2516    1.4391   -0.5940 C   0  0  0  0  0  0  0  0  0  0  0  0
    1.1596    0.4806   -0.2970 C   0  0  0  0  0  0  0  0  0  0  0  0
    2.5640    0.6978   -0.6982 N   0  0  0  0  0  0  0  0  0  0  0  0
    2.8322    1.7142   -1.3336 O   0  0  0  0  0  0  0  0  0  0  0  0
    3.3771   -0.1642   -0.3678 O   0  0  0  0  0  0  0  0  0  0  0  0
    0.8353   -0.7500    0.3734 C   0  0  0  0  0  0  0  0  0  0  0  0
   -0.4726   -1.0529    0.5678 C   0  0  0  0  0  0  0  0  0  0  0  0
   -1.8736    1.8401   -0.7159 H   0  0  0  0  0  0  0  0  0  0  0  0
    0.5563    2.3473   -1.0979 H   0  0  0  0  0  0  0  0  0  0  0  0
    1.6321   -1.4217    0.6605 H   0  0  0  0  0  0  0  0  0  0  0  0
   -0.7797   -2.0019    0.9934 H   0  0  0  0  0  0  0  0  0  0  0  0
   -1.1276    2.5233    1.5089 Cl  0  0  0  0  0  0  0  0  0  0  0  0
  1  2  1  6  0  0  0
  1 11  1  0  0  0  0
  3  2  1  0  0  0  0
  4 12  1  6  0  0  0
  4  1  1  0  0  0  0
  4 16  1  0  0  0  0
  5  6  2  0  0  0  0
  5  4  1  0  0  0  0
  6 10  1  0  0  0  0
  7  9  2  0  0  0  0
  7  6  1  0  0  0  0
  8  7  2  0  0  0  0
 10 11  2  0  0  0  0
 10 14  1  0  0  0  0
 11 15  1  0  0  0  0
 13  5  1  0  0  0  0
M  RAD  3   1   2   2   2   3   3
M  END
