Coordinates from ORCA-job 4-NO2PhN2+~Cl-_B3LYPG-6-31G_dp-NX-Scan-d89-09-n800
 OpenBabel11261920193D

 16 16  0  0  1  0  0  0  0  0999 V2000
   -1.4830   -0.1020    0.1551 C   0  0  2  0  0  0  0  0  0  0  0  0
   -2.6987   -0.5808   -0.0858 N   0  0  0  0  0  0  0  0  0  0  0  0
   -3.6875   -1.0996   -0.3211 N   0  0  0  0  0  0  0  0  0  0  0  0
   -1.1363    1.3044   -0.1254 C   0  0  2  0  0  0  0  0  0  0  0  0
    0.2509    1.4390   -0.5941 C   0  0  0  0  0  0  0  0  0  0  0  0
    1.1590    0.4804   -0.2972 C   0  0  0  0  0  0  0  0  0  0  0  0
    2.5631    0.6972   -0.6992 N   0  0  0  0  0  0  0  0  0  0  0  0
    2.8312    1.7133   -1.3351 O   0  0  0  0  0  0  0  0  0  0  0  0
    3.3763   -0.1645   -0.3682 O   0  0  0  0  0  0  0  0  0  0  0  0
    0.8347   -0.7497    0.3741 C   0  0  0  0  0  0  0  0  0  0  0  0
   -0.4730   -1.0524    0.5692 C   0  0  0  0  0  0  0  0  0  0  0  0
   -1.8745    1.8417   -0.7128 H   0  0  0  0  0  0  0  0  0  0  0  0
    0.5554    2.3471   -1.0982 H   0  0  0  0  0  0  0  0  0  0  0  0
    1.6317   -1.4210    0.6616 H   0  0  0  0  0  0  0  0  0  0  0  0
   -0.7801   -2.0012    0.9954 H   0  0  0  0  0  0  0  0  0  0  0  0
   -1.1222    2.5265    1.5113 Cl  0  0  0  0  0  0  0  0  0  0  0  0
  1  2  1  6  0  0  0
  1 11  1  0  0  0  0
  3  2  1  0  0  0  0
  4 12  1  6  0  0  0
  4  1  1  0  0  0  0
  4 16  1  0  0  0  0
  5  6  2  0  0  0  0
  5  4  1  0  0  0  0
  6 10  1  0  0  0  0
  7  9  2  0  0  0  0
  7  6  1  0  0  0  0
  8  7  2  0  0  0  0
 10 11  2  0  0  0  0
 10 14  1  0  0  0  0
 11 15  1  0  0  0  0
 13  5  1  0  0  0  0
M  RAD  3   1   2   2   2   3   3
M  END
