Coordinates from ORCA-job 4-NO2PhN2+~Cl-_B3LYPG-6-31G_dp-NX-Scan-d89-09-n800
 OpenBabel11261920193D

 16 15  0  0  0  0  0  0  0  0999 V2000
   -1.2316   -0.1206    0.2753 C   0  0  0  0  0  0  0  0  0  0  0  0
   -2.5677   -0.4105    0.6215 N   0  0  0  0  0  0  0  0  0  0  0  0
   -3.6388   -0.0086    0.7474 N   0  0  0  0  0  0  0  0  0  0  0  0
   -0.8763    1.1782   -0.1133 C   0  0  0  0  0  0  0  0  0  0  0  0
    0.4559    1.4090   -0.4448 C   0  0  0  0  0  0  0  0  0  0  0  0
    1.3648    0.3547   -0.3769 C   0  0  0  0  0  0  0  0  0  0  0  0
    2.7801    0.6138   -0.7319 N   0  0  0  0  0  0  0  0  0  0  0  0
    3.0742    1.7559   -1.0697 O   0  0  0  0  0  0  0  0  0  0  0  0
    3.5580   -0.3337   -0.6626 O   0  0  0  0  0  0  0  0  0  0  0  0
    1.0066   -0.9365    0.0102 C   0  0  0  0  0  0  0  0  0  0  0  0
   -0.3190   -1.1808    0.3435 C   0  0  0  0  0  0  0  0  0  0  0  0
   -1.6389    1.9550   -0.1440 H   0  0  0  0  0  0  0  0  0  0  0  0
    0.7961    2.3895   -0.7538 H   0  0  0  0  0  0  0  0  0  0  0  0
    1.7583   -1.7144    0.0436 H   0  0  0  0  0  0  0  0  0  0  0  0
   -0.6521   -2.1652    0.6521 H   0  0  0  0  0  0  0  0  0  0  0  0
   -3.9227    2.3926    0.2332 Cl  0  0  0  0  0  0  0  0  0  0  0  0
  1 11  1  0  0  0  0
  1  2  1  0  0  0  0
  2  3  2  0  0  0  0
  4  1  2  0  0  0  0
  5  6  2  0  0  0  0
  5  4  1  0  0  0  0
  6 10  1  0  0  0  0
  7  9  2  0  0  0  0
  7  6  1  0  0  0  0
  8  7  2  0  0  0  0
 10 14  1  0  0  0  0
 10 11  2  0  0  0  0
 11 15  1  0  0  0  0
 12  4  1  0  0  0  0
 13  5  1  0  0  0  0
M  RAD  2   3   2  16   2
M  END
