Coordinates from ORCA-job 4-NO2PhN2+~Cl-_B3LYPG-6-31G_dp-NX-Scan-d89-09-n800
 OpenBabel11261920193D

 16 16  0  0  1  0  0  0  0  0999 V2000
   -1.4233   -0.2350    0.0271 C   0  0  0  0  0  0  0  0  0  0  0  0
   -2.6868   -0.4154    0.3605 N   0  0  0  0  0  0  0  0  0  0  0  0
   -3.7686   -0.2767    0.6788 N   0  0  0  0  0  0  0  0  0  0  0  0
   -1.1457    1.1751   -0.3629 C   0  0  2  0  0  0  0  0  0  0  0  0
    0.2957    1.4213   -0.5614 C   0  0  0  0  0  0  0  0  0  0  0  0
    1.2083    0.4608   -0.2913 C   0  0  0  0  0  0  0  0  0  0  0  0
    2.6383    0.7882   -0.5136 N   0  0  0  0  0  0  0  0  0  0  0  0
    2.9165    1.9069   -0.9358 O   0  0  0  0  0  0  0  0  0  0  0  0
    3.4553   -0.0971   -0.2683 O   0  0  0  0  0  0  0  0  0  0  0  0
    0.8982   -0.8668    0.1697 C   0  0  0  0  0  0  0  0  0  0  0  0
   -0.4092   -1.1988    0.3285 C   0  0  0  0  0  0  0  0  0  0  0  0
   -1.7556    1.5426   -1.1878 H   0  0  0  0  0  0  0  0  0  0  0  0
    0.6153    2.3873   -0.9297 H   0  0  0  0  0  0  0  0  0  0  0  0
    1.7032   -1.5550    0.3814 H   0  0  0  0  0  0  0  0  0  0  0  0
   -0.7063   -2.1750    0.6959 H   0  0  0  0  0  0  0  0  0  0  0  0
   -1.8884    2.3161    1.0387 Cl  0  0  0  0  0  0  0  0  0  0  0  0
  1 11  2  0  0  0  0
  1  2  1  0  0  0  0
  2  3  1  0  0  0  0
  4 12  1  6  0  0  0
  4  1  1  0  0  0  0
  4 16  1  0  0  0  0
  5  4  1  0  0  0  0
  5  6  2  0  0  0  0
  6 10  1  0  0  0  0
  7  6  1  0  0  0  0
  7  9  2  0  0  0  0
  8  7  2  0  0  0  0
 10 11  1  0  0  0  0
 10 14  1  0  0  0  0
 11 15  1  0  0  0  0
 13  5  1  0  0  0  0
M  RAD  3   2   2   3   3  10   2
M  END
