Coordinates from ORCA-job 4-NO2PhN2+~Cl-_B3LYPG-6-31G_dp-NX-Scan-d89-09-n800
 OpenBabel11261920193D

 16 15  0  0  0  0  0  0  0  0999 V2000
   -1.4845   -0.2502    0.0344 C   0  0  0  0  0  0  0  0  0  0  0  0
   -2.7651   -0.7059    0.0053 N   0  0  0  0  0  0  0  0  0  0  0  0
   -3.7776   -1.2034   -0.0500 N   0  0  0  0  0  0  0  0  0  0  0  0
   -1.1759    1.0794   -0.3522 C   0  0  0  0  0  0  0  0  0  0  0  0
    0.1775    1.3925   -0.5408 C   0  0  0  0  0  0  0  0  0  0  0  0
    1.1388    0.4288   -0.2769 C   0  0  0  0  0  0  0  0  0  0  0  0
    2.5493    0.7530   -0.5238 N   0  0  0  0  0  0  0  0  0  0  0  0
    2.8004    1.8381   -1.0397 O   0  0  0  0  0  0  0  0  0  0  0  0
    3.3827   -0.0977   -0.2059 O   0  0  0  0  0  0  0  0  0  0  0  0
    0.8299   -0.8528    0.2293 C   0  0  0  0  0  0  0  0  0  0  0  0
   -0.4820   -1.2151    0.3819 C   0  0  0  0  0  0  0  0  0  0  0  0
   -1.9458    1.8069   -0.5735 H   0  0  0  0  0  0  0  0  0  0  0  0
    0.4622    2.3777   -0.8813 H   0  0  0  0  0  0  0  0  0  0  0  0
    1.6373   -1.5328    0.4685 H   0  0  0  0  0  0  0  0  0  0  0  0
   -0.7707   -2.1971    0.7364 H   0  0  0  0  0  0  0  0  0  0  0  0
   -0.6297    3.5569    1.2180 Cl  0  0  0  0  0  0  0  0  0  0  0  0
  1 11  2  0  0  0  0
  2  1  1  0  0  0  0
  3  2  1  0  0  0  0
  4  1  1  0  0  0  0
  5  4  2  0  0  0  0
  5  6  1  0  0  0  0
  6 10  2  0  0  0  0
  7  6  1  0  0  0  0
  7  9  2  0  0  0  0
  8  7  2  0  0  0  0
 10 11  1  0  0  0  0
 10 14  1  0  0  0  0
 11 15  1  0  0  0  0
 12  4  1  0  0  0  0
 13  5  1  0  0  0  0
M  RAD  3   2   2   3   3  16   2
M  END
