Coordinates from ORCA-job 4-NO2PhN2+~Cl-_B3LYPG-6-31G_dp-NX-Scan-d89-09-n800
 OpenBabel11261920193D

 16 16  0  0  1  0  0  0  0  0999 V2000
   -1.4387   -0.1815    0.0524 C   0  0  0  0  0  0  0  0  0  0  0  0
   -2.7164   -0.4666    0.2127 N   0  0  0  0  0  0  0  0  0  0  0  0
   -3.8332   -0.6216    0.3539 N   0  0  0  0  0  0  0  0  0  0  0  0
   -1.1339    1.2287   -0.2854 C   0  0  2  0  0  0  0  0  0  0  0  0
    0.2951    1.4302   -0.5900 C   0  0  0  0  0  0  0  0  0  0  0  0
    1.2033    0.4727   -0.2956 C   0  0  0  0  0  0  0  0  0  0  0  0
    2.6291    0.7589   -0.5796 N   0  0  0  0  0  0  0  0  0  0  0  0
    2.9114    1.8420   -1.0845 O   0  0  0  0  0  0  0  0  0  0  0  0
    3.4407   -0.1180   -0.2894 O   0  0  0  0  0  0  0  0  0  0  0  0
    0.8803   -0.8196    0.2473 C   0  0  0  0  0  0  0  0  0  0  0  0
   -0.4295   -1.1389    0.4077 C   0  0  0  0  0  0  0  0  0  0  0  0
   -1.8002    1.6627   -1.0282 H   0  0  0  0  0  0  0  0  0  0  0  0
    0.6131    2.3730   -1.0152 H   0  0  0  0  0  0  0  0  0  0  0  0
    1.6784   -1.5055    0.4919 H   0  0  0  0  0  0  0  0  0  0  0  0
   -0.7346   -2.1052    0.7939 H   0  0  0  0  0  0  0  0  0  0  0  0
   -1.6181    2.3672    1.2376 Cl  0  0  0  0  0  0  0  0  0  0  0  0
  1  2  1  0  0  0  0
  1 11  2  0  0  0  0
  2  3  1  0  0  0  0
  4 12  1  6  0  0  0
  4  1  1  0  0  0  0
  4 16  1  0  0  0  0
  5  6  2  0  0  0  0
  5  4  1  0  0  0  0
  6 10  1  0  0  0  0
  7  6  1  0  0  0  0
  7  9  2  0  0  0  0
  8  7  2  0  0  0  0
 10 11  1  0  0  0  0
 10 14  1  0  0  0  0
 11 15  1  0  0  0  0
 13  5  1  0  0  0  0
M  RAD  3   2   2   3   3  10   2
M  END
