Coordinates from ORCA-job 4-NO2PhN2+~Cl-_B3LYPG-6-31G_dp-NX-Scan-d89-09-n800
 OpenBabel11261920193D

 16 15  0  0  0  0  0  0  0  0999 V2000
   -1.5653   -0.5349   -0.0258 C   0  0  0  0  0  0  0  0  0  0  0  0
   -2.8059   -1.0651    0.0493 N   0  0  0  0  0  0  0  0  0  0  0  0
   -3.8421   -1.5160    0.1133 N   0  0  0  0  0  0  0  0  0  0  0  0
   -1.4216    0.8511   -0.3175 C   0  0  0  0  0  0  0  0  0  0  0  0
   -0.1483    1.3691   -0.4243 C   0  0  0  0  0  0  0  0  0  0  0  0
    0.9531    0.5177   -0.2215 C   0  0  0  0  0  0  0  0  0  0  0  0
    2.2795    1.0594   -0.3532 N   0  0  0  0  0  0  0  0  0  0  0  0
    2.3559    2.1448   -0.9514 O   0  0  0  0  0  0  0  0  0  0  0  0
    3.2255    0.4274    0.1401 O   0  0  0  0  0  0  0  0  0  0  0  0
    0.8104   -0.8398    0.1143 C   0  0  0  0  0  0  0  0  0  0  0  0
   -0.4492   -1.3885    0.2001 C   0  0  0  0  0  0  0  0  0  0  0  0
   -2.2986    1.4763   -0.4401 H   0  0  0  0  0  0  0  0  0  0  0  0
    0.0349    2.4247   -0.6068 H   0  0  0  0  0  0  0  0  0  0  0  0
    1.7028   -1.4265    0.2933 H   0  0  0  0  0  0  0  0  0  0  0  0
   -0.6013   -2.4356    0.4354 H   0  0  0  0  0  0  0  0  0  0  0  0
    1.7173    4.1141    0.6244 Cl  0  0  0  0  0  0  0  0  0  0  0  0
  1  2  1  0  0  0  0
  1 11  2  0  0  0  0
  2  3  1  0  0  0  0
  4  1  1  0  0  0  0
  5  4  2  0  0  0  0
  5  6  1  0  0  0  0
  6 10  2  0  0  0  0
  7  6  1  0  0  0  0
  7  9  2  0  0  0  0
  8  7  2  0  0  0  0
 10 11  1  0  0  0  0
 10 14  1  0  0  0  0
 11 15  1  0  0  0  0
 12  4  1  0  0  0  0
 13  5  1  0  0  0  0
M  RAD  3   2   2   3   3  16   2
M  END
