Coordinates from ORCA-job 4-NO2PhN2+~Cl-_B3LYPG-6-31G_dp-NX-Scan-d89-09-n800
 OpenBabel11261920193D

 16 16  0  0  0  0  0  0  0  0999 V2000
   -1.2477    0.1847    0.5689 C   0  0  0  0  0  0  0  0  0  0  0  0
   -2.5311    0.0588    1.1950 N   0  0  0  0  0  0  0  0  0  0  0  0
   -3.5984    0.1451    0.5452 N   0  0  0  0  0  0  0  0  0  0  0  0
   -0.7011    1.4541    0.3317 C   0  0  0  0  0  0  0  0  0  0  0  0
    0.5964    1.5662   -0.1553 C   0  0  0  0  0  0  0  0  0  0  0  0
    1.3294    0.4045   -0.3935 C   0  0  0  0  0  0  0  0  0  0  0  0
    2.6996    0.5214   -0.9133 N   0  0  0  0  0  0  0  0  0  0  0  0
    3.1373    1.6535   -1.1157 O   0  0  0  0  0  0  0  0  0  0  0  0
    3.3232   -0.5199   -1.1151 O   0  0  0  0  0  0  0  0  0  0  0  0
    0.8061   -0.8640   -0.1478 C   0  0  0  0  0  0  0  0  0  0  0  0
   -0.4884   -0.9720    0.3486 C   0  0  0  0  0  0  0  0  0  0  0  0
   -1.2885    2.3427    0.5371 H   0  0  0  0  0  0  0  0  0  0  0  0
    1.0474    2.5303   -0.3535 H   0  0  0  0  0  0  0  0  0  0  0  0
    1.4155   -1.7379   -0.3411 H   0  0  0  0  0  0  0  0  0  0  0  0
   -0.9162   -1.9442    0.5686 H   0  0  0  0  0  0  0  0  0  0  0  0
   -3.6365    0.3552   -0.9301 Cl  0  0  0  0  0  0  0  0  0  0  0  0
  1  2  1  0  0  0  0
  3  2  2  0  0  0  0
  4 12  1  0  0  0  0
  4  1  2  0  0  0  0
  5  4  1  0  0  0  0
  6  5  2  0  0  0  0
  6 10  1  0  0  0  0
  7  6  1  0  0  0  0
  8  7  2  0  0  0  0
  9  7  2  0  0  0  0
 10 11  2  0  0  0  0
 11 15  1  0  0  0  0
 11  1  1  0  0  0  0
 13  5  1  0  0  0  0
 14 10  1  0  0  0  0
 16  3  1  0  0  0  0
M  END
