Coordinates from ORCA-job 4-NO2PhN2+~Cl-_B3LYPG-6-31G_dp-NX-Scan-d89-09-n800
 OpenBabel11261920193D

 16 15  0  0  0  0  0  0  0  0999 V2000
   -1.4837   -0.2392    0.0381 C   0  0  0  0  0  0  0  0  0  0  0  0
   -2.7634   -0.6943    0.0027 N   0  0  0  0  0  0  0  0  0  0  0  0
   -3.7766   -1.1905   -0.0601 N   0  0  0  0  0  0  0  0  0  0  0  0
   -1.1730    1.0879   -0.3571 C   0  0  0  0  0  0  0  0  0  0  0  0
    0.1824    1.3953   -0.5528 C   0  0  0  0  0  0  0  0  0  0  0  0
    1.1411    0.4331   -0.2816 C   0  0  0  0  0  0  0  0  0  0  0  0
    2.5516    0.7532   -0.5319 N   0  0  0  0  0  0  0  0  0  0  0  0
    2.8046    1.8331   -1.0583 O   0  0  0  0  0  0  0  0  0  0  0  0
    3.3834   -0.0994   -0.2153 O   0  0  0  0  0  0  0  0  0  0  0  0
    0.8300   -0.8434    0.2392 C   0  0  0  0  0  0  0  0  0  0  0  0
   -0.4816   -1.2016    0.3968 C   0  0  0  0  0  0  0  0  0  0  0  0
   -1.9435    1.8084   -0.5968 H   0  0  0  0  0  0  0  0  0  0  0  0
    0.4700    2.3744   -0.9076 H   0  0  0  0  0  0  0  0  0  0  0  0
    1.6365   -1.5219    0.4853 H   0  0  0  0  0  0  0  0  0  0  0  0
   -0.7719   -2.1793    0.7618 H   0  0  0  0  0  0  0  0  0  0  0  0
   -0.6590    3.4627    1.2672 Cl  0  0  0  0  0  0  0  0  0  0  0  0
  1 11  2  0  0  0  0
  2  1  1  0  0  0  0
  3  2  1  0  0  0  0
  4  1  1  0  0  0  0
  5  4  2  0  0  0  0
  5  6  1  0  0  0  0
  6 10  2  0  0  0  0
  7  6  1  0  0  0  0
  7  9  2  0  0  0  0
  8  7  2  0  0  0  0
 10 11  1  0  0  0  0
 10 14  1  0  0  0  0
 11 15  1  0  0  0  0
 12  4  1  0  0  0  0
 13  5  1  0  0  0  0
M  RAD  3   2   2   3   3  16   2
M  END
