Coordinates from ORCA-job 4-NO2PhN2+~Cl-_B3LYPG-6-31G_dp-NX-Scan-d89-09-n800
 OpenBabel11261920193D

 16 15  0  0  0  0  0  0  0  0999 V2000
   -1.5490   -0.5167   -0.0218 C   0  0  0  0  0  0  0  0  0  0  0  0
   -2.8021   -1.0242    0.0605 N   0  0  0  0  0  0  0  0  0  0  0  0
   -3.8467   -1.4501    0.1342 N   0  0  0  0  0  0  0  0  0  0  0  0
   -1.3860    0.8687   -0.2938 C   0  0  0  0  0  0  0  0  0  0  0  0
   -0.1029    1.3665   -0.4094 C   0  0  0  0  0  0  0  0  0  0  0  0
    0.9786    0.4903   -0.2253 C   0  0  0  0  0  0  0  0  0  0  0  0
    2.3229    1.0197   -0.3571 N   0  0  0  0  0  0  0  0  0  0  0  0
    2.4208    2.0943   -0.9549 O   0  0  0  0  0  0  0  0  0  0  0  0
    3.2489    0.3668    0.1430 O   0  0  0  0  0  0  0  0  0  0  0  0
    0.8192   -0.8660    0.0966 C   0  0  0  0  0  0  0  0  0  0  0  0
   -0.4506   -1.3955    0.1832 C   0  0  0  0  0  0  0  0  0  0  0  0
   -2.2523    1.5129   -0.3935 H   0  0  0  0  0  0  0  0  0  0  0  0
    0.0985    2.4273   -0.5643 H   0  0  0  0  0  0  0  0  0  0  0  0
    1.7020   -1.4711    0.2622 H   0  0  0  0  0  0  0  0  0  0  0  0
   -0.6202   -2.4432    0.4029 H   0  0  0  0  0  0  0  0  0  0  0  0
    1.3658    4.1987    0.5672 Cl  0  0  0  0  0  0  0  0  0  0  0  0
  1  2  1  0  0  0  0
  1 11  2  0  0  0  0
  2  3  1  0  0  0  0
  4  1  1  0  0  0  0
  5  4  2  0  0  0  0
  5  6  1  0  0  0  0
  6 10  2  0  0  0  0
  7  6  1  0  0  0  0
  7  9  2  0  0  0  0
  8  7  2  0  0  0  0
 10 11  1  0  0  0  0
 10 14  1  0  0  0  0
 11 15  1  0  0  0  0
 12  4  1  0  0  0  0
 13  5  1  0  0  0  0
M  RAD  3   2   2   3   3  16   2
M  END
