Coordinates from ORCA-job 4-NO2PhN2+~Cl-_B3LYPG-6-31G_dp-NX-Scan-d89-09-n800
 OpenBabel11261920183D

 16 15  0  0  0  0  0  0  0  0999 V2000
   -1.5641   -0.5212   -0.0188 C   0  0  0  0  0  0  0  0  0  0  0  0
   -2.8258   -1.0300    0.0197 N   0  0  0  0  0  0  0  0  0  0  0  0
   -3.8431   -1.5295    0.0584 N   0  0  0  0  0  0  0  0  0  0  0  0
   -1.3428    0.8784   -0.1392 C   0  0  0  0  0  0  0  0  0  0  0  0
   -0.0347    1.3432   -0.1739 C   0  0  0  0  0  0  0  0  0  0  0  0
    1.0090    0.4106   -0.0897 C   0  0  0  0  0  0  0  0  0  0  0  0
    2.4049    0.8796   -0.1247 N   0  0  0  0  0  0  0  0  0  0  0  0
    2.5858    2.0861   -0.2187 O   0  0  0  0  0  0  0  0  0  0  0  0
    3.2818    0.0130   -0.0558 O   0  0  0  0  0  0  0  0  0  0  0  0
    0.7925   -0.9690    0.0288 C   0  0  0  0  0  0  0  0  0  0  0  0
   -0.4967   -1.4553    0.0665 C   0  0  0  0  0  0  0  0  0  0  0  0
   -2.1798    1.5646   -0.2026 H   0  0  0  0  0  0  0  0  0  0  0  0
    0.1911    2.4084   -0.2650 H   0  0  0  0  0  0  0  0  0  0  0  0
    1.6484   -1.6291    0.0893 H   0  0  0  0  0  0  0  0  0  0  0  0
   -0.7025   -2.5156    0.1592 H   0  0  0  0  0  0  0  0  0  0  0  0
    1.0229    5.2443   -0.5039 Cl  0  0  0  0  0  0  0  0  0  0  0  0
  1  2  1  0  0  0  0
  1 11  2  0  0  0  0
  2  3  1  0  0  0  0
  4  1  1  0  0  0  0
  5  4  2  0  0  0  0
  5  6  1  0  0  0  0
  6 10  2  0  0  0  0
  7  6  1  0  0  0  0
  7  9  2  0  0  0  0
  8  7  2  0  0  0  0
 10 11  1  0  0  0  0
 10 14  1  0  0  0  0
 11 15  1  0  0  0  0
 12  4  1  0  0  0  0
 13  5  1  0  0  0  0
M  RAD  3   2   2   3   3  16   2
M  END
