Coordinates from ORCA-job 4-NO2PhN2+~Cl-_B3LYPG-6-31G_dp-NX-Scan-d89-09-n800
 OpenBabel11261920193D

 16 16  0  0  1  0  0  0  0  0999 V2000
   -1.4583   -0.1365    0.1029 C   0  0  0  0  0  0  0  0  0  0  0  0
   -2.7202   -0.5256    0.0548 N   0  0  0  0  0  0  0  0  0  0  0  0
   -3.7972   -0.8893   -0.0083 N   0  0  0  0  0  0  0  0  0  0  0  0
   -1.1318    1.2744   -0.1951 C   0  0  2  0  0  0  0  0  0  0  0  0
    0.2777    1.4362   -0.5978 C   0  0  0  0  0  0  0  0  0  0  0  0
    1.1852    0.4802   -0.2960 C   0  0  0  0  0  0  0  0  0  0  0  0
    2.6009    0.7275   -0.6461 N   0  0  0  0  0  0  0  0  0  0  0  0
    2.8777    1.7727   -1.2286 O   0  0  0  0  0  0  0  0  0  0  0  0
    3.4126   -0.1399   -0.3275 O   0  0  0  0  0  0  0  0  0  0  0  0
    0.8593   -0.7781    0.3207 C   0  0  0  0  0  0  0  0  0  0  0  0
   -0.4502   -1.0889    0.4946 C   0  0  0  0  0  0  0  0  0  0  0  0
   -1.8409    1.7614   -0.8597 H   0  0  0  0  0  0  0  0  0  0  0  0
    0.5888    2.3577   -1.0721 H   0  0  0  0  0  0  0  0  0  0  0  0
    1.6556   -1.4570    0.5907 H   0  0  0  0  0  0  0  0  0  0  0  0
   -0.7573   -2.0467    0.8998 H   0  0  0  0  0  0  0  0  0  0  0  0
   -1.3551    2.4303    1.3975 Cl  0  0  0  0  0  0  0  0  0  0  0  0
  1 11  2  0  0  0  0
  2  1  1  0  0  0  0
  3  2  1  0  0  0  0
  4 12  1  6  0  0  0
  4  1  1  0  0  0  0
  4 16  1  0  0  0  0
  5  6  2  0  0  0  0
  5  4  1  0  0  0  0
  6 10  1  0  0  0  0
  7  9  2  0  0  0  0
  7  6  1  0  0  0  0
  8  7  2  0  0  0  0
 10 11  1  0  0  0  0
 10 14  1  0  0  0  0
 11 15  1  0  0  0  0
 13  5  1  0  0  0  0
M  RAD  3   2   2   3   3  10   2
M  END
