Coordinates from ORCA-job 4-NO2PhN2+~Cl-_B3LYPG-6-31G_dp-NX-Scan-d89-09-n800
 OpenBabel11261920193D

 16 16  0  0  0  0  0  0  0  0999 V2000
   -1.2341    0.0642    0.5203 C   0  0  0  0  0  0  0  0  0  0  0  0
   -2.5194   -0.1520    1.0843 N   0  0  0  0  0  0  0  0  0  0  0  0
   -3.6145    0.1905    0.7111 N   0  0  0  0  0  0  0  0  0  0  0  0
   -0.7642    1.3537    0.2356 C   0  0  0  0  0  0  0  0  0  0  0  0
    0.5394    1.5115   -0.2215 C   0  0  0  0  0  0  0  0  0  0  0  0
    1.3370    0.3815   -0.3928 C   0  0  0  0  0  0  0  0  0  0  0  0
    2.7148    0.5530   -0.8884 N   0  0  0  0  0  0  0  0  0  0  0  0
    3.0919    1.6980   -1.1292 O   0  0  0  0  0  0  0  0  0  0  0  0
    3.3966   -0.4603   -1.0286 O   0  0  0  0  0  0  0  0  0  0  0  0
    0.8836   -0.9037   -0.1008 C   0  0  0  0  0  0  0  0  0  0  0  0
   -0.4093   -1.0592    0.3851 C   0  0  0  0  0  0  0  0  0  0  0  0
   -1.4061    2.2141    0.3765 H   0  0  0  0  0  0  0  0  0  0  0  0
    0.9436    2.4889   -0.4526 H   0  0  0  0  0  0  0  0  0  0  0  0
    1.5455   -1.7488   -0.2410 H   0  0  0  0  0  0  0  0  0  0  0  0
   -0.7919   -2.0381    0.6512 H   0  0  0  0  0  0  0  0  0  0  0  0
   -3.7660    1.0851   -0.8795 Cl  0  0  0  0  0  0  0  0  0  0  0  0
  1  2  1  0  0  0  0
  3  2  2  0  0  0  0
  4 12  1  0  0  0  0
  4  1  2  0  0  0  0
  5  4  1  0  0  0  0
  6  5  2  0  0  0  0
  6 10  1  0  0  0  0
  7  6  1  0  0  0  0
  8  7  2  0  0  0  0
  9  7  2  0  0  0  0
 10 11  2  0  0  0  0
 11  1  1  0  0  0  0
 11 15  1  0  0  0  0
 13  5  1  0  0  0  0
 14 10  1  0  0  0  0
 16  3  1  0  0  0  0
M  END
