Coordinates from ORCA-job 4-NO2PhN2+~Cl-_B3LYPG-6-31G_dp-NX-Scan-d89-09-n800
 OpenBabel11261920193D

 16 15  0  0  0  0  0  0  0  0999 V2000
   -1.4849   -0.2441    0.0369 C   0  0  0  0  0  0  0  0  0  0  0  0
   -2.7641   -0.7019    0.0025 N   0  0  0  0  0  0  0  0  0  0  0  0
   -3.7739   -1.2043   -0.0591 N   0  0  0  0  0  0  0  0  0  0  0  0
   -1.1749    1.0844   -0.3529 C   0  0  0  0  0  0  0  0  0  0  0  0
    0.1795    1.3940   -0.5457 C   0  0  0  0  0  0  0  0  0  0  0  0
    1.1394    0.4306   -0.2788 C   0  0  0  0  0  0  0  0  0  0  0  0
    2.5498    0.7521   -0.5290 N   0  0  0  0  0  0  0  0  0  0  0  0
    2.8018    1.8349   -1.0497 O   0  0  0  0  0  0  0  0  0  0  0  0
    3.3824   -0.0993   -0.2113 O   0  0  0  0  0  0  0  0  0  0  0  0
    0.8293   -0.8483    0.2347 C   0  0  0  0  0  0  0  0  0  0  0  0
   -0.4826   -1.2080    0.3897 C   0  0  0  0  0  0  0  0  0  0  0  0
   -1.9447    1.8092   -0.5824 H   0  0  0  0  0  0  0  0  0  0  0  0
    0.4659    2.3759   -0.8939 H   0  0  0  0  0  0  0  0  0  0  0  0
    1.6361   -1.5278    0.4772 H   0  0  0  0  0  0  0  0  0  0  0  0
   -0.7724   -2.1880    0.7490 H   0  0  0  0  0  0  0  0  0  0  0  0
   -0.6399    3.5191    1.2426 Cl  0  0  0  0  0  0  0  0  0  0  0  0
  1 11  2  0  0  0  0
  2  1  1  0  0  0  0
  3  2  1  0  0  0  0
  4  1  1  0  0  0  0
  5  4  2  0  0  0  0
  5  6  1  0  0  0  0
  6 10  2  0  0  0  0
  7  6  1  0  0  0  0
  7  9  2  0  0  0  0
  8  7  2  0  0  0  0
 10 11  1  0  0  0  0
 10 14  1  0  0  0  0
 11 15  1  0  0  0  0
 12  4  1  0  0  0  0
 13  5  1  0  0  0  0
M  RAD  3   2   2   3   3  16   2
M  END
