Coordinates from ORCA-job 4-NO2PhN2+~Cl-_B3LYPG-6-31G_dp-NX-Scan-d89-09-n800
 OpenBabel11261920193D

 16 15  0  0  0  0  0  0  0  0999 V2000
   -1.4823   -0.3166    0.0199 C   0  0  0  0  0  0  0  0  0  0  0  0
   -2.7700   -0.7632    0.0387 N   0  0  0  0  0  0  0  0  0  0  0  0
   -3.7933   -1.2393    0.0462 N   0  0  0  0  0  0  0  0  0  0  0  0
   -1.1810    1.0365   -0.2806 C   0  0  0  0  0  0  0  0  0  0  0  0
    0.1627    1.3770   -0.4324 C   0  0  0  0  0  0  0  0  0  0  0  0
    1.1350    0.3995   -0.2383 C   0  0  0  0  0  0  0  0  0  0  0  0
    2.5484    0.7497   -0.4525 N   0  0  0  0  0  0  0  0  0  0  0  0
    2.7914    1.8643   -0.9005 O   0  0  0  0  0  0  0  0  0  0  0  0
    3.3840   -0.1151   -0.1810 O   0  0  0  0  0  0  0  0  0  0  0  0
    0.8360   -0.9191    0.1492 C   0  0  0  0  0  0  0  0  0  0  0  0
   -0.4782   -1.3012    0.2701 C   0  0  0  0  0  0  0  0  0  0  0  0
   -1.9440    1.7989   -0.3962 H   0  0  0  0  0  0  0  0  0  0  0  0
    0.4209    2.4110   -0.6451 H   0  0  0  0  0  0  0  0  0  0  0  0
    1.6467   -1.6143    0.3266 H   0  0  0  0  0  0  0  0  0  0  0  0
   -0.7587   -2.3121    0.5410 H   0  0  0  0  0  0  0  0  0  0  0  0
   -0.5707    4.1224    0.7645 Cl  0  0  0  0  0  0  0  0  0  0  0  0
  1  2  1  0  0  0  0
  1 11  2  0  0  0  0
  2  3  1  0  0  0  0
  4  1  1  0  0  0  0
  5  4  2  0  0  0  0
  5  6  1  0  0  0  0
  6 10  2  0  0  0  0
  7  6  1  0  0  0  0
  7  9  2  0  0  0  0
  8  7  2  0  0  0  0
 10 11  1  0  0  0  0
 10 14  1  0  0  0  0
 11 15  1  0  0  0  0
 12  4  1  0  0  0  0
 13  5  1  0  0  0  0
M  RAD  3   2   2   3   3  16   2
M  END
