Coordinates from ORCA-job 4-NO2PhN2+~Cl-_B3LYPG-6-31G_dp-NX-Scan-d89-09-n800
 OpenBabel11261920193D

 16 15  0  0  0  0  0  0  0  0999 V2000
   -1.5456   -0.5109   -0.0195 C   0  0  0  0  0  0  0  0  0  0  0  0
   -2.8017   -1.0145    0.0589 N   0  0  0  0  0  0  0  0  0  0  0  0
   -3.8460   -1.4402    0.1324 N   0  0  0  0  0  0  0  0  0  0  0  0
   -1.3758    0.8749   -0.2816 C   0  0  0  0  0  0  0  0  0  0  0  0
   -0.0895    1.3659   -0.3987 C   0  0  0  0  0  0  0  0  0  0  0  0
    0.9856    0.4817   -0.2225 C   0  0  0  0  0  0  0  0  0  0  0  0
    2.3360    1.0050   -0.3581 N   0  0  0  0  0  0  0  0  0  0  0  0
    2.4412    2.0785   -0.9523 O   0  0  0  0  0  0  0  0  0  0  0  0
    3.2568    0.3413    0.1359 O   0  0  0  0  0  0  0  0  0  0  0  0
    0.8204   -0.8747    0.0936 C   0  0  0  0  0  0  0  0  0  0  0  0
   -0.4527   -1.3978    0.1785 C   0  0  0  0  0  0  0  0  0  0  0  0
   -2.2380    1.5256   -0.3737 H   0  0  0  0  0  0  0  0  0  0  0  0
    0.1184    2.4276   -0.5495 H   0  0  0  0  0  0  0  0  0  0  0  0
    1.6998   -1.4860    0.2542 H   0  0  0  0  0  0  0  0  0  0  0  0
   -0.6280   -2.4459    0.3913 H   0  0  0  0  0  0  0  0  0  0  0  0
    1.2658    4.2479    0.5408 Cl  0  0  0  0  0  0  0  0  0  0  0  0
  1  2  1  0  0  0  0
  1 11  2  0  0  0  0
  2  3  1  0  0  0  0
  4  1  1  0  0  0  0
  5  4  2  0  0  0  0
  5  6  1  0  0  0  0
  6 10  2  0  0  0  0
  7  6  1  0  0  0  0
  7  9  2  0  0  0  0
  8  7  2  0  0  0  0
 10 11  1  0  0  0  0
 10 14  1  0  0  0  0
 11 15  1  0  0  0  0
 12  4  1  0  0  0  0
 13  5  1  0  0  0  0
M  RAD  3   2   2   3   3  16   2
M  END
