Coordinates from ORCA-job 4-NO2PhN2+~Cl-_B3LYPG-6-31G_dp-NX-Scan-d89-09-n800
 OpenBabel11261920193D

 16 15  0  0  0  0  0  0  0  0999 V2000
   -1.2308   -0.1222    0.2754 C   0  0  0  0  0  0  0  0  0  0  0  0
   -2.5674   -0.4100    0.6211 N   0  0  0  0  0  0  0  0  0  0  0  0
   -3.6386   -0.0099    0.7476 N   0  0  0  0  0  0  0  0  0  0  0  0
   -0.8770    1.1767   -0.1131 C   0  0  0  0  0  0  0  0  0  0  0  0
    0.4551    1.4085   -0.4447 C   0  0  0  0  0  0  0  0  0  0  0  0
    1.3644    0.3546   -0.3769 C   0  0  0  0  0  0  0  0  0  0  0  0
    2.7796    0.6145   -0.7320 N   0  0  0  0  0  0  0  0  0  0  0  0
    3.0731    1.7568   -1.0695 O   0  0  0  0  0  0  0  0  0  0  0  0
    3.5580   -0.3326   -0.6624 O   0  0  0  0  0  0  0  0  0  0  0  0
    1.0071   -0.9370    0.0102 C   0  0  0  0  0  0  0  0  0  0  0  0
   -0.3182   -1.1824    0.3437 C   0  0  0  0  0  0  0  0  0  0  0  0
   -1.6414    1.9520   -0.1431 H   0  0  0  0  0  0  0  0  0  0  0  0
    0.7945    2.3892   -0.7537 H   0  0  0  0  0  0  0  0  0  0  0  0
    1.7594   -1.7143    0.0434 H   0  0  0  0  0  0  0  0  0  0  0  0
   -0.6507   -2.1669    0.6523 H   0  0  0  0  0  0  0  0  0  0  0  0
   -3.9202    2.4014    0.2313 Cl  0  0  0  0  0  0  0  0  0  0  0  0
  1 11  1  0  0  0  0
  1  2  1  0  0  0  0
  2  3  2  0  0  0  0
  4  1  2  0  0  0  0
  5  6  2  0  0  0  0
  5  4  1  0  0  0  0
  6 10  1  0  0  0  0
  7  9  2  0  0  0  0
  7  6  1  0  0  0  0
  8  7  2  0  0  0  0
 10 14  1  0  0  0  0
 10 11  2  0  0  0  0
 11 15  1  0  0  0  0
 12  4  1  0  0  0  0
 13  5  1  0  0  0  0
M  RAD  2   3   2  16   2
M  END
