Coordinates from ORCA-job 4-NO2PhN2+~Cl-_B3LYPG-6-31G_dp-NX-Scan-d89-09-n800
 OpenBabel11261920183D

 16 15  0  0  0  0  0  0  0  0999 V2000
   -1.5714   -0.5508   -0.0160 C   0  0  0  0  0  0  0  0  0  0  0  0
   -2.8297   -1.0638    0.0231 N   0  0  0  0  0  0  0  0  0  0  0  0
   -3.8505   -1.5570    0.0613 N   0  0  0  0  0  0  0  0  0  0  0  0
   -1.3628    0.8506   -0.1390 C   0  0  0  0  0  0  0  0  0  0  0  0
   -0.0596    1.3248   -0.1751 C   0  0  0  0  0  0  0  0  0  0  0  0
    0.9945    0.4042   -0.0902 C   0  0  0  0  0  0  0  0  0  0  0  0
    2.3830    0.8909   -0.1278 N   0  0  0  0  0  0  0  0  0  0  0  0
    2.5481    2.1001   -0.2259 O   0  0  0  0  0  0  0  0  0  0  0  0
    3.2711    0.0364   -0.0569 O   0  0  0  0  0  0  0  0  0  0  0  0
    0.7904   -0.9770    0.0307 C   0  0  0  0  0  0  0  0  0  0  0  0
   -0.4948   -1.4745    0.0701 C   0  0  0  0  0  0  0  0  0  0  0  0
   -2.2063    1.5283   -0.2031 H   0  0  0  0  0  0  0  0  0  0  0  0
    0.1590    2.3885   -0.2684 H   0  0  0  0  0  0  0  0  0  0  0  0
    1.6521   -1.6296    0.0919 H   0  0  0  0  0  0  0  0  0  0  0  0
   -0.6908   -2.5364    0.1646 H   0  0  0  0  0  0  0  0  0  0  0  0
    1.2148    5.4435   -0.5095 Cl  0  0  0  0  0  0  0  0  0  0  0  0
  1  2  1  0  0  0  0
  1 11  2  0  0  0  0
  2  3  1  0  0  0  0
  4  1  1  0  0  0  0
  5  4  2  0  0  0  0
  5  6  1  0  0  0  0
  6 10  2  0  0  0  0
  7  6  1  0  0  0  0
  7  9  2  0  0  0  0
  8  7  2  0  0  0  0
 10 11  1  0  0  0  0
 10 14  1  0  0  0  0
 11 15  1  0  0  0  0
 12  4  1  0  0  0  0
 13  5  1  0  0  0  0
M  RAD  3   2   2   3   3  16   2
M  END
