Coordinates from ORCA-job 4-NO2PhN2+~Cl-_B3LYPG-6-31G_dp-NX-Scan-d89-09-n800
 OpenBabel11261920193D

 16 15  0  0  0  0  0  0  0  0999 V2000
   -1.4937   -0.3719    0.0098 C   0  0  0  0  0  0  0  0  0  0  0  0
   -2.7793   -0.8252    0.0432 N   0  0  0  0  0  0  0  0  0  0  0  0
   -3.8084   -1.2877    0.0746 N   0  0  0  0  0  0  0  0  0  0  0  0
   -1.2108    0.9968   -0.2317 C   0  0  0  0  0  0  0  0  0  0  0  0
    0.1225    1.3720   -0.3625 C   0  0  0  0  0  0  0  0  0  0  0  0
    1.1115    0.3995   -0.2078 C   0  0  0  0  0  0  0  0  0  0  0  0
    2.5218    0.7778   -0.4046 N   0  0  0  0  0  0  0  0  0  0  0  0
    2.7464    1.9037   -0.8304 O   0  0  0  0  0  0  0  0  0  0  0  0
    3.3696   -0.0757   -0.1334 O   0  0  0  0  0  0  0  0  0  0  0  0
    0.8337   -0.9386    0.1133 C   0  0  0  0  0  0  0  0  0  0  0  0
   -0.4766   -1.3499    0.2091 C   0  0  0  0  0  0  0  0  0  0  0  0
   -1.9911    1.7468   -0.3092 H   0  0  0  0  0  0  0  0  0  0  0  0
    0.3577    2.4300   -0.5177 H   0  0  0  0  0  0  0  0  0  0  0  0
    1.6554   -1.6287    0.2575 H   0  0  0  0  0  0  0  0  0  0  0  0
   -0.7394   -2.3787    0.4253 H   0  0  0  0  0  0  0  0  0  0  0  0
   -0.2725    4.4082    0.4942 Cl  0  0  0  0  0  0  0  0  0  0  0  0
  1  2  1  0  0  0  0
  1 11  2  0  0  0  0
  2  3  1  0  0  0  0
  4  1  1  0  0  0  0
  5  4  2  0  0  0  0
  5  6  1  0  0  0  0
  6 10  2  0  0  0  0
  7  6  1  0  0  0  0
  7  9  2  0  0  0  0
  8  7  2  0  0  0  0
 10 11  1  0  0  0  0
 10 14  1  0  0  0  0
 11 15  1  0  0  0  0
 12  4  1  0  0  0  0
 13  5  1  0  0  0  0
M  RAD  3   2   2   3   3  16   2
M  END
