Coordinates from ORCA-job 4-NO2PhN2+~Cl-_B3LYPG-6-31G_dp-NX-Scan-d89-09-n800
 OpenBabel11261920193D

 16 15  0  0  0  0  0  0  0  0999 V2000
   -1.2368   -0.1052    0.2731 C   0  0  0  0  0  0  0  0  0  0  0  0
   -2.5709   -0.4042    0.6215 N   0  0  0  0  0  0  0  0  0  0  0  0
   -3.6418    0.0164    0.7428 N   0  0  0  0  0  0  0  0  0  0  0  0
   -0.8693    1.1901   -0.1170 C   0  0  0  0  0  0  0  0  0  0  0  0
    0.4641    1.4142   -0.4474 C   0  0  0  0  0  0  0  0  0  0  0  0
    1.3680    0.3558   -0.3780 C   0  0  0  0  0  0  0  0  0  0  0  0
    2.7844    0.6077   -0.7316 N   0  0  0  0  0  0  0  0  0  0  0  0
    3.0847    1.7482   -1.0702 O   0  0  0  0  0  0  0  0  0  0  0  0
    3.5581   -0.3432   -0.6606 O   0  0  0  0  0  0  0  0  0  0  0  0
    1.0016   -0.9324    0.0099 C   0  0  0  0  0  0  0  0  0  0  0  0
   -0.3261   -1.1677    0.3417 C   0  0  0  0  0  0  0  0  0  0  0  0
   -1.6224    1.9730   -0.1506 H   0  0  0  0  0  0  0  0  0  0  0  0
    0.8095    2.3926   -0.7568 H   0  0  0  0  0  0  0  0  0  0  0  0
    1.7483   -1.7150    0.0452 H   0  0  0  0  0  0  0  0  0  0  0  0
   -0.6650   -2.1499    0.6509 H   0  0  0  0  0  0  0  0  0  0  0  0
   -3.9396    2.2980    0.2566 Cl  0  0  0  0  0  0  0  0  0  0  0  0
  1 11  1  0  0  0  0
  1  2  1  0  0  0  0
  2  3  2  0  0  0  0
  4  1  2  0  0  0  0
  5  6  2  0  0  0  0
  5  4  1  0  0  0  0
  6 10  1  0  0  0  0
  7  9  2  0  0  0  0
  7  6  1  0  0  0  0
  8  7  2  0  0  0  0
 10 14  1  0  0  0  0
 10 11  2  0  0  0  0
 11 15  1  0  0  0  0
 12  4  1  0  0  0  0
 13  5  1  0  0  0  0
M  RAD  2   3   2  16   2
M  END
