Coordinates from ORCA-job 4-NO2PhN2+~Cl-_B3LYPG-6-31G_dp-NX-Scan-d89-09-n800
 OpenBabel11261920193D

 16 15  0  0  0  0  0  0  0  0999 V2000
   -1.4848   -0.2924    0.0227 C   0  0  0  0  0  0  0  0  0  0  0  0
   -2.7696   -0.7450    0.0202 N   0  0  0  0  0  0  0  0  0  0  0  0
   -3.7869   -1.2335   -0.0013 N   0  0  0  0  0  0  0  0  0  0  0  0
   -1.1826    1.0503   -0.3203 C   0  0  0  0  0  0  0  0  0  0  0  0
    0.1639    1.3824   -0.4859 C   0  0  0  0  0  0  0  0  0  0  0  0
    1.1338    0.4125   -0.2552 C   0  0  0  0  0  0  0  0  0  0  0  0
    2.5452    0.7535   -0.4839 N   0  0  0  0  0  0  0  0  0  0  0  0
    2.7894    1.8527   -0.9700 O   0  0  0  0  0  0  0  0  0  0  0  0
    3.3819   -0.1000   -0.1819 O   0  0  0  0  0  0  0  0  0  0  0  0
    0.8325   -0.8899    0.1875 C   0  0  0  0  0  0  0  0  0  0  0  0
   -0.4806   -1.2668    0.3199 C   0  0  0  0  0  0  0  0  0  0  0  0
   -1.9501    1.7987   -0.4788 H   0  0  0  0  0  0  0  0  0  0  0  0
    0.4344    2.3958   -0.7566 H   0  0  0  0  0  0  0  0  0  0  0  0
    1.6428   -1.5768    0.3957 H   0  0  0  0  0  0  0  0  0  0  0  0
   -0.7632   -2.2660    0.6290 H   0  0  0  0  0  0  0  0  0  0  0  0
   -0.5592    3.9029    0.9885 Cl  0  0  0  0  0  0  0  0  0  0  0  0
  1 11  2  0  0  0  0
  2  1  1  0  0  0  0
  3  2  1  0  0  0  0
  4  1  1  0  0  0  0
  5  4  2  0  0  0  0
  5  6  1  0  0  0  0
  6 10  2  0  0  0  0
  7  6  1  0  0  0  0
  7  9  2  0  0  0  0
  8  7  2  0  0  0  0
 10 11  1  0  0  0  0
 10 14  1  0  0  0  0
 11 15  1  0  0  0  0
 12  4  1  0  0  0  0
 13  5  1  0  0  0  0
M  RAD  3   2   2   3   3  16   2
M  END
