Coordinates from ORCA-job 4-NO2PhN2+~Cl-_B3LYPG-6-31G_dp-NX-Scan-d89-09-n800
 OpenBabel11261920183D

 16 15  0  0  0  0  0  0  0  0999 V2000
   -1.5749   -0.5672   -0.0146 C   0  0  0  0  0  0  0  0  0  0  0  0
   -2.8319   -1.0813    0.0246 N   0  0  0  0  0  0  0  0  0  0  0  0
   -3.8554   -1.5691    0.0624 N   0  0  0  0  0  0  0  0  0  0  0  0
   -1.3724    0.8350   -0.1383 C   0  0  0  0  0  0  0  0  0  0  0  0
   -0.0716    1.3134   -0.1752 C   0  0  0  0  0  0  0  0  0  0  0  0
    0.9873    0.3988   -0.0904 C   0  0  0  0  0  0  0  0  0  0  0  0
    2.3720    0.8943   -0.1294 N   0  0  0  0  0  0  0  0  0  0  0  0
    2.5294    2.1045   -0.2331 O   0  0  0  0  0  0  0  0  0  0  0  0
    3.2658    0.0464   -0.0541 O   0  0  0  0  0  0  0  0  0  0  0  0
    0.7892   -0.9832    0.0317 C   0  0  0  0  0  0  0  0  0  0  0  0
   -0.4941   -1.4859    0.0716 C   0  0  0  0  0  0  0  0  0  0  0  0
   -2.2190    1.5088   -0.2024 H   0  0  0  0  0  0  0  0  0  0  0  0
    0.1431    2.3766   -0.2687 H   0  0  0  0  0  0  0  0  0  0  0  0
    1.6536   -1.6323    0.0932 H   0  0  0  0  0  0  0  0  0  0  0  0
   -0.6855   -2.5487    0.1668 H   0  0  0  0  0  0  0  0  0  0  0  0
    1.3111    5.5682   -0.5144 Cl  0  0  0  0  0  0  0  0  0  0  0  0
  1  2  1  0  0  0  0
  1 11  2  0  0  0  0
  2  3  1  0  0  0  0
  4  1  1  0  0  0  0
  5  4  2  0  0  0  0
  5  6  1  0  0  0  0
  6 10  2  0  0  0  0
  7  6  1  0  0  0  0
  7  9  2  0  0  0  0
  8  7  2  0  0  0  0
 10 11  1  0  0  0  0
 10 14  1  0  0  0  0
 11 15  1  0  0  0  0
 12  4  1  0  0  0  0
 13  5  1  0  0  0  0
M  RAD  3   2   2   3   3  16   2
M  END
