Coordinates from ORCA-job 4-NO2PhN2+~Cl-_B3LYPG-6-31G_dp-NX-Scan-d89-09-n800
 OpenBabel11261920193D

 16 16  0  0  1  0  0  0  0  0999 V2000
   -1.4209   -0.2434    0.0274 C   0  0  0  0  0  0  0  0  0  0  0  0
   -2.6816   -0.4101    0.3781 N   0  0  0  0  0  0  0  0  0  0  0  0
   -3.7506   -0.2175    0.7119 N   0  0  0  0  0  0  0  0  0  0  0  0
   -1.1486    1.1661   -0.3707 C   0  0  2  0  0  0  0  0  0  0  0  0
    0.2934    1.4186   -0.5571 C   0  0  0  0  0  0  0  0  0  0  0  0
    1.2076    0.4580   -0.2922 C   0  0  0  0  0  0  0  0  0  0  0  0
    2.6375    0.7913   -0.5087 N   0  0  0  0  0  0  0  0  0  0  0  0
    2.9140    1.9169   -0.9135 O   0  0  0  0  0  0  0  0  0  0  0  0
    3.4567   -0.0921   -0.2643 O   0  0  0  0  0  0  0  0  0  0  0  0
    0.9008   -0.8739    0.1589 C   0  0  0  0  0  0  0  0  0  0  0  0
   -0.4059   -1.2079    0.3200 C   0  0  0  0  0  0  0  0  0  0  0  0
   -1.7519    1.5236   -1.2051 H   0  0  0  0  0  0  0  0  0  0  0  0
    0.6121    2.3878   -0.9179 H   0  0  0  0  0  0  0  0  0  0  0  0
    1.7074   -1.5619    0.3652 H   0  0  0  0  0  0  0  0  0  0  0  0
   -0.7013   -2.1855    0.6852 H   0  0  0  0  0  0  0  0  0  0  0  0
   -1.9217    2.3082    1.0124 Cl  0  0  0  0  0  0  0  0  0  0  0  0
  1 11  2  0  0  0  0
  1  2  1  0  0  0  0
  2  3  1  0  0  0  0
  4 12  1  6  0  0  0
  4  1  1  0  0  0  0
  4 16  1  0  0  0  0
  5  4  1  0  0  0  0
  5  6  2  0  0  0  0
  6 10  1  0  0  0  0
  7  6  1  0  0  0  0
  7  9  2  0  0  0  0
  8  7  2  0  0  0  0
 10 11  1  0  0  0  0
 10 14  1  0  0  0  0
 11 15  1  0  0  0  0
 13  5  1  0  0  0  0
M  RAD  3   2   2   3   3  10   2
M  END
