Coordinates from ORCA-job 4-NO2PhN2+~Cl-_B3LYPG-6-31G_dp-NX-Scan-d89-09-n800
 OpenBabel11261920193D

 16 16  0  0  0  0  0  0  0  0999 V2000
   -1.2469    0.1730    0.5663 C   0  0  0  0  0  0  0  0  0  0  0  0
   -2.5293    0.0387    1.1902 N   0  0  0  0  0  0  0  0  0  0  0  0
   -3.6004    0.1571    0.5565 N   0  0  0  0  0  0  0  0  0  0  0  0
   -0.7071    1.4446    0.3247 C   0  0  0  0  0  0  0  0  0  0  0  0
    0.5906    1.5613   -0.1603 C   0  0  0  0  0  0  0  0  0  0  0  0
    1.3296    0.4025   -0.3936 C   0  0  0  0  0  0  0  0  0  0  0  0
    2.7000    0.5245   -0.9121 N   0  0  0  0  0  0  0  0  0  0  0  0
    3.1319    1.6582   -1.1182 O   0  0  0  0  0  0  0  0  0  0  0  0
    3.3290   -0.5142   -1.1095 O   0  0  0  0  0  0  0  0  0  0  0  0
    0.8127   -0.8679   -0.1439 C   0  0  0  0  0  0  0  0  0  0  0  0
   -0.4812   -0.9806    0.3528 C   0  0  0  0  0  0  0  0  0  0  0  0
   -1.2993    2.3311    0.5253 H   0  0  0  0  0  0  0  0  0  0  0  0
    1.0370    2.5269   -0.3614 H   0  0  0  0  0  0  0  0  0  0  0  0
    1.4269   -1.7393   -0.3331 H   0  0  0  0  0  0  0  0  0  0  0  0
   -0.9045   -1.9538    0.5770 H   0  0  0  0  0  0  0  0  0  0  0  0
   -3.6420    0.4165   -0.9312 Cl  0  0  0  0  0  0  0  0  0  0  0  0
  1  2  1  0  0  0  0
  3  2  2  0  0  0  0
  4 12  1  0  0  0  0
  4  1  2  0  0  0  0
  5  4  1  0  0  0  0
  6  5  2  0  0  0  0
  6 10  1  0  0  0  0
  7  6  1  0  0  0  0
  8  7  2  0  0  0  0
  9  7  2  0  0  0  0
 10 11  2  0  0  0  0
 11  1  1  0  0  0  0
 11 15  1  0  0  0  0
 13  5  1  0  0  0  0
 14 10  1  0  0  0  0
 16  3  1  0  0  0  0
M  END
