Coordinates from ORCA-job 4-NO2PhN2+~Cl-_B3LYPG-6-31G_dp-NX-Scan-d89-09-n800
 OpenBabel11261920193D

 16 15  0  0  0  0  0  0  0  0999 V2000
   -1.5482   -0.5138   -0.0204 C   0  0  0  0  0  0  0  0  0  0  0  0
   -2.8021   -1.0214    0.0591 N   0  0  0  0  0  0  0  0  0  0  0  0
   -3.8454   -1.4501    0.1320 N   0  0  0  0  0  0  0  0  0  0  0  0
   -1.3826    0.8716   -0.2889 C   0  0  0  0  0  0  0  0  0  0  0  0
   -0.0981    1.3665   -0.4054 C   0  0  0  0  0  0  0  0  0  0  0  0
    0.9808    0.4872   -0.2241 C   0  0  0  0  0  0  0  0  0  0  0  0
    2.3278    1.0139   -0.3587 N   0  0  0  0  0  0  0  0  0  0  0  0
    2.4288    2.0878   -0.9552 O   0  0  0  0  0  0  0  0  0  0  0  0
    3.2517    0.3561    0.1380 O   0  0  0  0  0  0  0  0  0  0  0  0
    0.8192   -0.8689    0.0964 C   0  0  0  0  0  0  0  0  0  0  0  0
   -0.4519   -1.3957    0.1826 C   0  0  0  0  0  0  0  0  0  0  0  0
   -2.2472    1.5183   -0.3865 H   0  0  0  0  0  0  0  0  0  0  0  0
    0.1069    2.4271   -0.5604 H   0  0  0  0  0  0  0  0  0  0  0  0
    1.7007   -1.4763    0.2603 H   0  0  0  0  0  0  0  0  0  0  0  0
   -0.6238   -2.4435    0.4000 H   0  0  0  0  0  0  0  0  0  0  0  0
    1.3301    4.2194    0.5609 Cl  0  0  0  0  0  0  0  0  0  0  0  0
  1  2  1  0  0  0  0
  1 11  2  0  0  0  0
  2  3  1  0  0  0  0
  4  1  1  0  0  0  0
  5  4  2  0  0  0  0
  5  6  1  0  0  0  0
  6 10  2  0  0  0  0
  7  6  1  0  0  0  0
  7  9  2  0  0  0  0
  8  7  2  0  0  0  0
 10 11  1  0  0  0  0
 10 14  1  0  0  0  0
 11 15  1  0  0  0  0
 12  4  1  0  0  0  0
 13  5  1  0  0  0  0
M  RAD  3   2   2   3   3  16   2
M  END
