Coordinates from ORCA-job 4-NO2PhN2+~Cl-_B3LYPG-6-31G_dp-NX-Scan-d89-09-n800
 OpenBabel11261920193D

 16 15  0  0  0  0  0  0  0  0999 V2000
   -1.4855   -0.1433    0.1035 C   0  0  0  0  0  0  0  0  0  0  0  0
   -2.7336   -0.6251   -0.0423 N   0  0  0  0  0  0  0  0  0  0  0  0
   -3.7191   -1.1628   -0.2125 N   0  0  0  0  0  0  0  0  0  0  0  0
   -1.1483    1.2031   -0.2693 C   0  0  0  0  0  0  0  0  0  0  0  0
    0.2251    1.4161   -0.6034 C   0  0  0  0  0  0  0  0  0  0  0  0
    1.1534    0.4573   -0.3092 C   0  0  0  0  0  0  0  0  0  0  0  0
    2.5642    0.7219   -0.6323 N   0  0  0  0  0  0  0  0  0  0  0  0
    2.8325    1.7682   -1.2170 O   0  0  0  0  0  0  0  0  0  0  0  0
    3.3823   -0.1367   -0.3019 O   0  0  0  0  0  0  0  0  0  0  0  0
    0.8277   -0.7843    0.3138 C   0  0  0  0  0  0  0  0  0  0  0  0
   -0.4817   -1.0980    0.5102 C   0  0  0  0  0  0  0  0  0  0  0  0
   -1.9101    1.8432   -0.6911 H   0  0  0  0  0  0  0  0  0  0  0  0
    0.5305    2.3576   -1.0389 H   0  0  0  0  0  0  0  0  0  0  0  0
    1.6251   -1.4606    0.5909 H   0  0  0  0  0  0  0  0  0  0  0  0
   -0.7862   -2.0498    0.9295 H   0  0  0  0  0  0  0  0  0  0  0  0
   -0.9293    2.8717    1.4997 Cl  0  0  0  0  0  0  0  0  0  0  0  0
  1 11  1  0  0  0  0
  2  1  1  0  0  0  0
  3  2  1  0  0  0  0
  4  1  2  0  0  0  0
  5  6  2  0  0  0  0
  5  4  1  0  0  0  0
  6 10  1  0  0  0  0
  7  6  1  0  0  0  0
  7  9  2  0  0  0  0
  8  7  2  0  0  0  0
 10 11  2  0  0  0  0
 10 14  1  0  0  0  0
 11 15  1  0  0  0  0
 12  4  1  0  0  0  0
 13  5  1  0  0  0  0
M  RAD  3   2   2   3   3  16   2
M  END
