Coordinates from ORCA-job 4-NO2PhN2+~Cl-_B3LYPG-6-31G_dp-NX-Scan-d89-09-n800
 OpenBabel11261920193D

 16 15  0  0  0  0  0  0  0  0999 V2000
   -1.4862   -0.3367    0.0160 C   0  0  0  0  0  0  0  0  0  0  0  0
   -2.7733   -0.7863    0.0407 N   0  0  0  0  0  0  0  0  0  0  0  0
   -3.7977   -1.2594    0.0591 N   0  0  0  0  0  0  0  0  0  0  0  0
   -1.1907    1.0224   -0.2618 C   0  0  0  0  0  0  0  0  0  0  0  0
    0.1493    1.3746   -0.4059 C   0  0  0  0  0  0  0  0  0  0  0  0
    1.1273    0.3979   -0.2271 C   0  0  0  0  0  0  0  0  0  0  0  0
    2.5398    0.7576   -0.4356 N   0  0  0  0  0  0  0  0  0  0  0  0
    2.7768    1.8780   -0.8712 O   0  0  0  0  0  0  0  0  0  0  0  0
    3.3796   -0.1036   -0.1649 O   0  0  0  0  0  0  0  0  0  0  0  0
    0.8352   -0.9282    0.1348 C   0  0  0  0  0  0  0  0  0  0  0  0
   -0.4781   -1.3202    0.2462 C   0  0  0  0  0  0  0  0  0  0  0  0
   -1.9586    1.7825   -0.3613 H   0  0  0  0  0  0  0  0  0  0  0  0
    0.3988    2.4182   -0.5949 H   0  0  0  0  0  0  0  0  0  0  0  0
    1.6494   -1.6226    0.2992 H   0  0  0  0  0  0  0  0  0  0  0  0
   -0.7528   -2.3382    0.4960 H   0  0  0  0  0  0  0  0  0  0  0  0
   -0.4719    4.2424    0.6602 Cl  0  0  0  0  0  0  0  0  0  0  0  0
  1  2  1  0  0  0  0
  1 11  2  0  0  0  0
  2  3  1  0  0  0  0
  4  1  1  0  0  0  0
  5  4  2  0  0  0  0
  5  6  1  0  0  0  0
  6 10  2  0  0  0  0
  7  6  1  0  0  0  0
  7  9  2  0  0  0  0
  8  7  2  0  0  0  0
 10 11  1  0  0  0  0
 10 14  1  0  0  0  0
 11 15  1  0  0  0  0
 12  4  1  0  0  0  0
 13  5  1  0  0  0  0
M  RAD  3   2   2   3   3  16   2
M  END
