Coordinates from ORCA-job 4-NO2PhN2+~Cl-_B3LYPG-6-31G_dp-NX-Scan-d89-09-n800
 OpenBabel11261920193D

 16 15  0  0  0  0  0  0  0  0999 V2000
   -1.4852   -0.2925    0.0227 C   0  0  0  0  0  0  0  0  0  0  0  0
   -2.7698   -0.7461    0.0198 N   0  0  0  0  0  0  0  0  0  0  0  0
   -3.7857   -1.2376   -0.0021 N   0  0  0  0  0  0  0  0  0  0  0  0
   -1.1830    1.0503   -0.3197 C   0  0  0  0  0  0  0  0  0  0  0  0
    0.1634    1.3825   -0.4852 C   0  0  0  0  0  0  0  0  0  0  0  0
    1.1333    0.4125   -0.2547 C   0  0  0  0  0  0  0  0  0  0  0  0
    2.5448    0.7535   -0.4836 N   0  0  0  0  0  0  0  0  0  0  0  0
    2.7888    1.8525   -0.9702 O   0  0  0  0  0  0  0  0  0  0  0  0
    3.3815   -0.0999   -0.1815 O   0  0  0  0  0  0  0  0  0  0  0  0
    0.8321   -0.8899    0.1875 C   0  0  0  0  0  0  0  0  0  0  0  0
   -0.4811   -1.2670    0.3196 C   0  0  0  0  0  0  0  0  0  0  0  0
   -1.9504    1.7989   -0.4779 H   0  0  0  0  0  0  0  0  0  0  0  0
    0.4340    2.3959   -0.7559 H   0  0  0  0  0  0  0  0  0  0  0  0
    1.6424   -1.5769    0.3955 H   0  0  0  0  0  0  0  0  0  0  0  0
   -0.7636   -2.2663    0.6280 H   0  0  0  0  0  0  0  0  0  0  0  0
   -0.5546    3.9087    0.9875 Cl  0  0  0  0  0  0  0  0  0  0  0  0
  1 11  2  0  0  0  0
  2  1  1  0  0  0  0
  3  2  1  0  0  0  0
  4  1  1  0  0  0  0
  5  4  2  0  0  0  0
  5  6  1  0  0  0  0
  6 10  2  0  0  0  0
  7  6  1  0  0  0  0
  7  9  2  0  0  0  0
  8  7  2  0  0  0  0
 10 11  1  0  0  0  0
 10 14  1  0  0  0  0
 11 15  1  0  0  0  0
 12  4  1  0  0  0  0
 13  5  1  0  0  0  0
M  RAD  3   2   2   3   3  16   2
M  END
