Coordinates from ORCA-job 4-NO2PhN2+~Cl-_B3LYPG-6-31G_dp-NX-Scan-d89-09-n800
 OpenBabel11261920193D

 16 15  0  0  0  0  0  0  0  0999 V2000
   -1.2261   -0.1432    0.2786 C   0  0  0  0  0  0  0  0  0  0  0  0
   -2.5643   -0.4245    0.6222 N   0  0  0  0  0  0  0  0  0  0  0  0
   -3.6371   -0.0494    0.7551 N   0  0  0  0  0  0  0  0  0  0  0  0
   -0.8882    1.1601   -0.1081 C   0  0  0  0  0  0  0  0  0  0  0  0
    0.4421    1.4013   -0.4413 C   0  0  0  0  0  0  0  0  0  0  0  0
    1.3586    0.3536   -0.3755 C   0  0  0  0  0  0  0  0  0  0  0  0
    2.7723    0.6241   -0.7322 N   0  0  0  0  0  0  0  0  0  0  0  0
    3.0565    1.7685   -1.0695 O   0  0  0  0  0  0  0  0  0  0  0  0
    3.5570   -0.3178   -0.6640 O   0  0  0  0  0  0  0  0  0  0  0  0
    1.0130   -0.9419    0.0107 C   0  0  0  0  0  0  0  0  0  0  0  0
   -0.3094   -1.1995    0.3459 C   0  0  0  0  0  0  0  0  0  0  0  0
   -1.6636    1.9295   -0.1343 H   0  0  0  0  0  0  0  0  0  0  0  0
    0.7738    2.3849   -0.7497 H   0  0  0  0  0  0  0  0  0  0  0  0
    1.7722   -1.7125    0.0417 H   0  0  0  0  0  0  0  0  0  0  0  0
   -0.6337   -2.1870    0.6538 H   0  0  0  0  0  0  0  0  0  0  0  0
   -3.8762    2.5322    0.1962 Cl  0  0  0  0  0  0  0  0  0  0  0  0
  1 11  1  0  0  0  0
  1  2  1  0  0  0  0
  2  3  2  0  0  0  0
  4  1  2  0  0  0  0
  5  6  2  0  0  0  0
  5  4  1  0  0  0  0
  6 10  1  0  0  0  0
  7  9  2  0  0  0  0
  7  6  1  0  0  0  0
  8  7  2  0  0  0  0
 10 14  1  0  0  0  0
 10 11  2  0  0  0  0
 11 15  1  0  0  0  0
 12  4  1  0  0  0  0
 13  5  1  0  0  0  0
M  RAD  2   3   2  16   2
M  END
