Coordinates from ORCA-job 4-NO2PhN2+~Cl-_B3LYPG-6-31G_dp-NX-Scan-d89-09-n800
 OpenBabel11261920193D

 16 16  0  0  1  0  0  0  0  0999 V2000
   -1.4411   -0.1747    0.0585 C   0  0  0  0  0  0  0  0  0  0  0  0
   -2.7188   -0.4751    0.1904 N   0  0  0  0  0  0  0  0  0  0  0  0
   -3.8340   -0.6635    0.3025 N   0  0  0  0  0  0  0  0  0  0  0  0
   -1.1331    1.2357   -0.2727 C   0  0  2  0  0  0  0  0  0  0  0  0
    0.2935    1.4312   -0.5920 C   0  0  0  0  0  0  0  0  0  0  0  0
    1.2015    0.4741   -0.2956 C   0  0  0  0  0  0  0  0  0  0  0  0
    2.6261    0.7546   -0.5892 N   0  0  0  0  0  0  0  0  0  0  0  0
    2.9081    1.8322   -1.1059 O   0  0  0  0  0  0  0  0  0  0  0  0
    3.4374   -0.1212   -0.2947 O   0  0  0  0  0  0  0  0  0  0  0  0
    0.8777   -0.8132    0.2584 C   0  0  0  0  0  0  0  0  0  0  0  0
   -0.4323   -1.1312    0.4201 C   0  0  0  0  0  0  0  0  0  0  0  0
   -1.8063    1.6778   -1.0041 H   0  0  0  0  0  0  0  0  0  0  0  0
    0.6107    2.3708   -1.0249 H   0  0  0  0  0  0  0  0  0  0  0  0
    1.6752   -1.4983    0.5071 H   0  0  0  0  0  0  0  0  0  0  0  0
   -0.7379   -2.0963    0.8089 H   0  0  0  0  0  0  0  0  0  0  0  0
   -1.5797    2.3754    1.2630 Cl  0  0  0  0  0  0  0  0  0  0  0  0
  1  2  1  0  0  0  0
  1 11  2  0  0  0  0
  2  3  1  0  0  0  0
  4 12  1  6  0  0  0
  4  1  1  0  0  0  0
  4 16  1  0  0  0  0
  5  6  2  0  0  0  0
  5  4  1  0  0  0  0
  6 10  1  0  0  0  0
  7  6  1  0  0  0  0
  7  9  2  0  0  0  0
  8  7  2  0  0  0  0
 10 11  1  0  0  0  0
 10 14  1  0  0  0  0
 11 15  1  0  0  0  0
 13  5  1  0  0  0  0
M  RAD  3   2   2   3   3  10   2
M  END
