Coordinates from ORCA-job 4-NO2PhN2+~Cl-_B3LYPG-6-31G_dp-NX-Scan-d89-09-n800
 OpenBabel11261920193D

 16 16  0  0  1  0  0  0  0  0999 V2000
   -1.4868   -0.0985    0.1606 C   0  0  2  0  0  0  0  0  0  0  0  0
   -2.6957   -0.5884   -0.1001 N   0  0  0  0  0  0  0  0  0  0  0  0
   -3.6700   -1.1262   -0.3543 N   0  0  0  0  0  0  0  0  0  0  0  0
   -1.1375    1.3064   -0.1199 C   0  0  2  0  0  0  0  0  0  0  0  0
    0.2468    1.4387   -0.5934 C   0  0  0  0  0  0  0  0  0  0  0  0
    1.1551    0.4792   -0.2984 C   0  0  0  0  0  0  0  0  0  0  0  0
    2.5578    0.6931   -0.7053 N   0  0  0  0  0  0  0  0  0  0  0  0
    2.8255    1.7088   -1.3421 O   0  0  0  0  0  0  0  0  0  0  0  0
    3.3717   -0.1668   -0.3713 O   0  0  0  0  0  0  0  0  0  0  0  0
    0.8311   -0.7480    0.3779 C   0  0  0  0  0  0  0  0  0  0  0  0
   -0.4765   -1.0492    0.5766 C   0  0  0  0  0  0  0  0  0  0  0  0
   -1.8786    1.8510   -0.6964 H   0  0  0  0  0  0  0  0  0  0  0  0
    0.5509    2.3462   -1.0987 H   0  0  0  0  0  0  0  0  0  0  0  0
    1.6280   -1.4190    0.6666 H   0  0  0  0  0  0  0  0  0  0  0  0
   -0.7836   -1.9966    1.0056 H   0  0  0  0  0  0  0  0  0  0  0  0
   -1.0912    2.5476    1.5222 Cl  0  0  0  0  0  0  0  0  0  0  0  0
  1  2  1  6  0  0  0
  1 11  1  0  0  0  0
  3  2  1  0  0  0  0
  4 12  1  6  0  0  0
  4  1  1  0  0  0  0
  4 16  1  0  0  0  0
  5  6  2  0  0  0  0
  5  4  1  0  0  0  0
  6 10  1  0  0  0  0
  7  9  2  0  0  0  0
  7  6  1  0  0  0  0
  8  7  2  0  0  0  0
 10 11  2  0  0  0  0
 10 14  1  0  0  0  0
 11 15  1  0  0  0  0
 13  5  1  0  0  0  0
M  RAD  3   1   2   2   2   3   3
M  END
