Coordinates from ORCA-job 4-NO2PhN2+~Cl-_B3LYPG-6-31G_dp-NX-Scan-d89-09-n800
 OpenBabel11261920193D

 16 16  0  0  1  0  0  0  0  0999 V2000
   -1.4754   -0.1101    0.1417 C   0  0  2  0  0  0  0  0  0  0  0  0
   -2.7060   -0.5644   -0.0496 N   0  0  0  0  0  0  0  0  0  0  0  0
   -3.7239   -1.0422   -0.2385 N   0  0  0  0  0  0  0  0  0  0  0  0
   -1.1342    1.2992   -0.1401 C   0  0  2  0  0  0  0  0  0  0  0  0
    0.2596    1.4390   -0.5956 C   0  0  0  0  0  0  0  0  0  0  0  0
    1.1672    0.4816   -0.2962 C   0  0  0  0  0  0  0  0  0  0  0  0
    2.5744    0.7053   -0.6864 N   0  0  0  0  0  0  0  0  0  0  0  0
    2.8449    1.7278   -1.3109 O   0  0  0  0  0  0  0  0  0  0  0  0
    3.3872   -0.1575   -0.3575 O   0  0  0  0  0  0  0  0  0  0  0  0
    0.8422   -0.7558    0.3621 C   0  0  0  0  0  0  0  0  0  0  0  0
   -0.4661   -1.0610    0.5501 C   0  0  0  0  0  0  0  0  0  0  0  0
   -1.8647    1.8199   -0.7525 H   0  0  0  0  0  0  0  0  0  0  0  0
    0.5656    2.3493   -1.0946 H   0  0  0  0  0  0  0  0  0  0  0  0
    1.6389   -1.4291    0.6455 H   0  0  0  0  0  0  0  0  0  0  0  0
   -0.7733   -2.0125    0.9699 H   0  0  0  0  0  0  0  0  0  0  0  0
   -1.1895    2.4888    1.4824 Cl  0  0  0  0  0  0  0  0  0  0  0  0
  1  2  1  6  0  0  0
  1 11  1  0  0  0  0
  3  2  1  0  0  0  0
  4 12  1  6  0  0  0
  4  1  1  0  0  0  0
  4 16  1  0  0  0  0
  5  6  2  0  0  0  0
  5  4  1  0  0  0  0
  6 10  1  0  0  0  0
  7  9  2  0  0  0  0
  7  6  1  0  0  0  0
  8  7  2  0  0  0  0
 10 11  2  0  0  0  0
 10 14  1  0  0  0  0
 11 15  1  0  0  0  0
 13  5  1  0  0  0  0
M  RAD  3   1   2   2   2   3   3
M  END
