Coordinates from ORCA-job 4-NO2PhN2+~Cl-_B3LYPG-6-31G_dp-NX-Scan-d89-09-n800
 OpenBabel11261920193D

 16 15  0  0  0  0  0  0  0  0999 V2000
   -1.5206   -0.4552   -0.0020 C   0  0  0  0  0  0  0  0  0  0  0  0
   -2.7956   -0.9331    0.0417 N   0  0  0  0  0  0  0  0  0  0  0  0
   -3.8304   -1.3838    0.0941 N   0  0  0  0  0  0  0  0  0  0  0  0
   -1.2827    0.9345   -0.1663 C   0  0  0  0  0  0  0  0  0  0  0  0
    0.0309    1.3715   -0.2744 C   0  0  0  0  0  0  0  0  0  0  0  0
    1.0542    0.4223   -0.1709 C   0  0  0  0  0  0  0  0  0  0  0  0
    2.4513    0.8600   -0.3294 N   0  0  0  0  0  0  0  0  0  0  0  0
    2.6337    1.9795   -0.7883 O   0  0  0  0  0  0  0  0  0  0  0  0
    3.3260    0.0577    0.0104 O   0  0  0  0  0  0  0  0  0  0  0  0
    0.8242   -0.9400    0.0662 C   0  0  0  0  0  0  0  0  0  0  0  0
   -0.4720   -1.4057    0.1304 C   0  0  0  0  0  0  0  0  0  0  0  0
   -2.1031    1.6434   -0.1995 H   0  0  0  0  0  0  0  0  0  0  0  0
    0.2475    2.4475   -0.3882 H   0  0  0  0  0  0  0  0  0  0  0  0
    1.6712   -1.6064    0.1712 H   0  0  0  0  0  0  0  0  0  0  0  0
   -0.6963   -2.4561    0.2747 H   0  0  0  0  0  0  0  0  0  0  0  0
    0.4087    4.6424    0.1601 Cl  0  0  0  0  0  0  0  0  0  0  0  0
  1  2  1  0  0  0  0
  1 11  1  0  0  0  0
  2  3  1  0  0  0  0
  4  1  2  0  0  0  0
  5  6  2  0  0  0  0
  5  4  1  0  0  0  0
  6 10  1  0  0  0  0
  7  6  1  0  0  0  0
  7  9  2  0  0  0  0
  8  7  2  0  0  0  0
 10 11  2  0  0  0  0
 10 14  1  0  0  0  0
 11 15  1  0  0  0  0
 12  4  1  0  0  0  0
 13  5  1  0  0  0  0
M  RAD  3   2   2   3   3  16   2
M  END
