Coordinates from ORCA-job 4-NO2PhN2+~Cl-_B3LYPG-6-31G_dp-NX-Scan-d89-09-n800
 OpenBabel11261920193D

 16 16  0  0  0  0  0  0  0  0999 V2000
   -1.2413    0.1228    0.5536 C   0  0  0  0  0  0  0  0  0  0  0  0
   -2.5223   -0.0480    1.1572 N   0  0  0  0  0  0  0  0  0  0  0  0
   -3.6073    0.1904    0.6246 N   0  0  0  0  0  0  0  0  0  0  0  0
   -0.7334    1.4033    0.2931 C   0  0  0  0  0  0  0  0  0  0  0  0
    0.5657    1.5394   -0.1829 C   0  0  0  0  0  0  0  0  0  0  0  0
    1.3305    0.3932   -0.3934 C   0  0  0  0  0  0  0  0  0  0  0  0
    2.7022    0.5379   -0.9068 N   0  0  0  0  0  0  0  0  0  0  0  0
    3.1089    1.6776   -1.1276 O   0  0  0  0  0  0  0  0  0  0  0  0
    3.3543   -0.4897   -1.0834 O   0  0  0  0  0  0  0  0  0  0  0  0
    0.8425   -0.8846   -0.1252 C   0  0  0  0  0  0  0  0  0  0  0  0
   -0.4491   -1.0176    0.3722 C   0  0  0  0  0  0  0  0  0  0  0  0
   -1.3476    2.2790    0.4700 H   0  0  0  0  0  0  0  0  0  0  0  0
    0.9923    2.5111   -0.3973 H   0  0  0  0  0  0  0  0  0  0  0  0
    1.4776   -1.7447   -0.2962 H   0  0  0  0  0  0  0  0  0  0  0  0
   -0.8529   -1.9941    0.6155 H   0  0  0  0  0  0  0  0  0  0  0  0
   -3.6734    0.7025   -0.9436 Cl  0  0  0  0  0  0  0  0  0  0  0  0
  1  2  1  0  0  0  0
  3  2  2  0  0  0  0
  4 12  1  0  0  0  0
  4  1  2  0  0  0  0
  5  4  1  0  0  0  0
  6  5  2  0  0  0  0
  6 10  1  0  0  0  0
  7  6  1  0  0  0  0
  8  7  2  0  0  0  0
  9  7  2  0  0  0  0
 10 11  2  0  0  0  0
 11  1  1  0  0  0  0
 11 15  1  0  0  0  0
 13  5  1  0  0  0  0
 14 10  1  0  0  0  0
 16  3  1  0  0  0  0
M  END
