Coordinates from ORCA-job 4-NO2PhN2+~Cl-_B3LYPG-6-31G_dp-NX-Scan-d89-09-n800
 OpenBabel11261920183D

 16 15  0  0  0  0  0  0  0  0999 V2000
   -1.5729   -0.5576   -0.0154 C   0  0  0  0  0  0  0  0  0  0  0  0
   -2.8306   -1.0711    0.0237 N   0  0  0  0  0  0  0  0  0  0  0  0
   -3.8526   -1.5620    0.0617 N   0  0  0  0  0  0  0  0  0  0  0  0
   -1.3669    0.8441   -0.1387 C   0  0  0  0  0  0  0  0  0  0  0  0
   -0.0647    1.3201   -0.1752 C   0  0  0  0  0  0  0  0  0  0  0  0
    0.9914    0.4021   -0.0903 C   0  0  0  0  0  0  0  0  0  0  0  0
    2.3783    0.8926   -0.1284 N   0  0  0  0  0  0  0  0  0  0  0  0
    2.5401    2.1023   -0.2283 O   0  0  0  0  0  0  0  0  0  0  0  0
    3.2689    0.0409   -0.0562 O   0  0  0  0  0  0  0  0  0  0  0  0
    0.7899   -0.9794    0.0311 C   0  0  0  0  0  0  0  0  0  0  0  0
   -0.4945   -1.4792    0.0707 C   0  0  0  0  0  0  0  0  0  0  0  0
   -2.2118    1.5201   -0.2028 H   0  0  0  0  0  0  0  0  0  0  0  0
    0.1522    2.3836   -0.2686 H   0  0  0  0  0  0  0  0  0  0  0  0
    1.6528   -1.6305    0.0924 H   0  0  0  0  0  0  0  0  0  0  0  0
   -0.6885   -2.5415    0.1655 H   0  0  0  0  0  0  0  0  0  0  0  0
    1.2556    5.4939   -0.5116 Cl  0  0  0  0  0  0  0  0  0  0  0  0
  1  2  1  0  0  0  0
  1 11  2  0  0  0  0
  2  3  1  0  0  0  0
  4  1  1  0  0  0  0
  5  4  2  0  0  0  0
  5  6  1  0  0  0  0
  6 10  2  0  0  0  0
  7  6  1  0  0  0  0
  7  9  2  0  0  0  0
  8  7  2  0  0  0  0
 10 11  1  0  0  0  0
 10 14  1  0  0  0  0
 11 15  1  0  0  0  0
 12  4  1  0  0  0  0
 13  5  1  0  0  0  0
M  RAD  3   2   2   3   3  16   2
M  END
