Coordinates from ORCA-job 4-NO2PhN2+~Cl-_B3LYPG-6-31G_dp-NX-Scan-d89-09-n800
 OpenBabel11261920193D

 16 16  0  0  0  0  0  0  0  0999 V2000
   -1.2599    0.2297    0.5553 C   0  0  0  0  0  0  0  0  0  0  0  0
   -2.5524    0.1352    1.1951 N   0  0  0  0  0  0  0  0  0  0  0  0
   -3.5765    0.0954    0.4171 N   0  0  0  0  0  0  0  0  0  0  0  0
   -0.6771    1.4883    0.3375 C   0  0  0  0  0  0  0  0  0  0  0  0
    0.6244    1.5847   -0.1422 C   0  0  0  0  0  0  0  0  0  0  0  0
    1.3373    0.4129   -0.3935 C   0  0  0  0  0  0  0  0  0  0  0  0
    2.7109    0.5097   -0.9035 N   0  0  0  0  0  0  0  0  0  0  0  0
    3.1731    1.6355   -1.0902 O   0  0  0  0  0  0  0  0  0  0  0  0
    3.3169   -0.5405   -1.1162 O   0  0  0  0  0  0  0  0  0  0  0  0
    0.7861   -0.8481   -0.1684 C   0  0  0  0  0  0  0  0  0  0  0  0
   -0.5158   -0.9355    0.3122 C   0  0  0  0  0  0  0  0  0  0  0  0
   -1.2449    2.3861    0.5601 H   0  0  0  0  0  0  0  0  0  0  0  0
    1.0956    2.5429   -0.3225 H   0  0  0  0  0  0  0  0  0  0  0  0
    1.3798   -1.7313   -0.3689 H   0  0  0  0  0  0  0  0  0  0  0  0
   -0.9596   -1.9049    0.5152 H   0  0  0  0  0  0  0  0  0  0  0  0
   -3.6912    0.1183   -0.7574 Cl  0  0  0  0  0  0  0  0  0  0  0  0
  1  2  1  0  0  0  0
  3  2  2  0  0  0  0
  4  1  1  0  0  0  0
  4 12  1  0  0  0  0
  5  4  2  0  0  0  0
  6 10  2  0  0  0  0
  6  5  1  0  0  0  0
  7  6  1  0  0  0  0
  8  7  2  0  0  0  0
  9  7  2  0  0  0  0
 10 11  1  0  0  0  0
 11 15  1  0  0  0  0
 11  1  2  0  0  0  0
 13  5  1  0  0  0  0
 14 10  1  0  0  0  0
 16  3  1  0  0  0  0
M  END
