Coordinates from ORCA-job 4-NO2PhN2+~Cl-_B3LYPG-6-31G_dp-NX-Scan-d89-09-n800
 OpenBabel11261920193D

 16 15  0  0  0  0  0  0  0  0999 V2000
   -1.5559   -0.4939   -0.0213 C   0  0  0  0  0  0  0  0  0  0  0  0
   -2.8217   -0.9961    0.0168 N   0  0  0  0  0  0  0  0  0  0  0  0
   -3.8381   -1.4960    0.0558 N   0  0  0  0  0  0  0  0  0  0  0  0
   -1.3226    0.9036   -0.1419 C   0  0  0  0  0  0  0  0  0  0  0  0
   -0.0099    1.3589   -0.1762 C   0  0  0  0  0  0  0  0  0  0  0  0
    1.0235    0.4149   -0.0907 C   0  0  0  0  0  0  0  0  0  0  0  0
    2.4261    0.8675   -0.1249 N   0  0  0  0  0  0  0  0  0  0  0  0
    2.6221    2.0706   -0.2246 O   0  0  0  0  0  0  0  0  0  0  0  0
    3.2924   -0.0094   -0.0492 O   0  0  0  0  0  0  0  0  0  0  0  0
    0.7953   -0.9627    0.0286 C   0  0  0  0  0  0  0  0  0  0  0  0
   -0.4979   -1.4382    0.0654 C   0  0  0  0  0  0  0  0  0  0  0  0
   -2.1527    1.5981   -0.2057 H   0  0  0  0  0  0  0  0  0  0  0  0
    0.2207    2.4264   -0.2676 H   0  0  0  0  0  0  0  0  0  0  0  0
    1.6455   -1.6300    0.0905 H   0  0  0  0  0  0  0  0  0  0  0  0
   -0.7132   -2.4965    0.1584 H   0  0  0  0  0  0  0  0  0  0  0  0
    0.8333    5.0611   -0.4837 Cl  0  0  0  0  0  0  0  0  0  0  0  0
  1  2  1  0  0  0  0
  1 11  2  0  0  0  0
  2  3  1  0  0  0  0
  4  1  1  0  0  0  0
  5  4  2  0  0  0  0
  5  6  1  0  0  0  0
  6 10  2  0  0  0  0
  7  6  1  0  0  0  0
  7  9  2  0  0  0  0
  8  7  2  0  0  0  0
 10 11  1  0  0  0  0
 10 14  1  0  0  0  0
 11 15  1  0  0  0  0
 12  4  1  0  0  0  0
 13  5  1  0  0  0  0
M  RAD  3   2   2   3   3  16   2
M  END
