Coordinates from ORCA-job 4-NO2PhN2+~Cl-_B3LYPG-6-31G_dp-NX-Scan-d89-09-n800
 OpenBabel11261920193D

 16 15  0  0  0  0  0  0  0  0999 V2000
   -1.5341   -0.4939   -0.0136 C   0  0  0  0  0  0  0  0  0  0  0  0
   -2.8004   -0.9840    0.0411 N   0  0  0  0  0  0  0  0  0  0  0  0
   -3.8457   -1.4092    0.1027 N   0  0  0  0  0  0  0  0  0  0  0  0
   -1.3341    0.8992   -0.2024 C   0  0  0  0  0  0  0  0  0  0  0  0
   -0.0356    1.3687   -0.3121 C   0  0  0  0  0  0  0  0  0  0  0  0
    1.0150    0.4507   -0.1872 C   0  0  0  0  0  0  0  0  0  0  0  0
    2.3888    0.9383   -0.3327 N   0  0  0  0  0  0  0  0  0  0  0  0
    2.5292    2.0171   -0.8992 O   0  0  0  0  0  0  0  0  0  0  0  0
    3.2879    0.2213    0.1205 O   0  0  0  0  0  0  0  0  0  0  0  0
    0.8227   -0.9132    0.0731 C   0  0  0  0  0  0  0  0  0  0  0  0
   -0.4614   -1.4130    0.1376 C   0  0  0  0  0  0  0  0  0  0  0  0
   -2.1792    1.5772   -0.2481 H   0  0  0  0  0  0  0  0  0  0  0  0
    0.1778    2.4433   -0.4221 H   0  0  0  0  0  0  0  0  0  0  0  0
    1.6880   -1.5523    0.1984 H   0  0  0  0  0  0  0  0  0  0  0  0
   -0.6583   -2.4667    0.2980 H   0  0  0  0  0  0  0  0  0  0  0  0
    0.8862    4.4950    0.2757 Cl  0  0  0  0  0  0  0  0  0  0  0  0
  1  2  1  0  0  0  0
  1 11  2  0  0  0  0
  2  3  1  0  0  0  0
  4  1  1  0  0  0  0
  5  4  2  0  0  0  0
  5  6  1  0  0  0  0
  6 10  2  0  0  0  0
  7  6  1  0  0  0  0
  7  9  2  0  0  0  0
  8  7  2  0  0  0  0
 10 11  1  0  0  0  0
 10 14  1  0  0  0  0
 11 15  1  0  0  0  0
 12  4  1  0  0  0  0
 13  5  1  0  0  0  0
M  RAD  3   2   2   3   3  16   2
M  END
