Coordinates from ORCA-job 4-NO2PhN2+~Cl-_B3LYPG-6-31G_dp-NX-Scan-d89-09-n800
 OpenBabel11261920193D

 16 16  0  0  0  0  0  0  0  0999 V2000
   -1.2724    0.0753    0.4752 C   0  0  0  0  0  0  0  0  0  0  0  0
   -2.5552   -0.1748    1.0729 N   0  0  0  0  0  0  0  0  0  0  0  0
   -3.5858    0.3255    0.4427 N   0  0  0  0  0  0  0  0  0  0  0  0
   -0.7562    1.3614    0.2143 C   0  0  0  0  0  0  0  0  0  0  0  0
    0.5547    1.5210   -0.2177 C   0  0  0  0  0  0  0  0  0  0  0  0
    1.3517    0.3896   -0.3932 C   0  0  0  0  0  0  0  0  0  0  0  0
    2.7319    0.5565   -0.8617 N   0  0  0  0  0  0  0  0  0  0  0  0
    3.1227    1.7014   -1.0934 O   0  0  0  0  0  0  0  0  0  0  0  0
    3.4168   -0.4577   -0.9969 O   0  0  0  0  0  0  0  0  0  0  0  0
    0.8750   -0.8935   -0.1265 C   0  0  0  0  0  0  0  0  0  0  0  0
   -0.4334   -1.0415    0.3162 C   0  0  0  0  0  0  0  0  0  0  0  0
   -1.3666    2.2441    0.3763 H   0  0  0  0  0  0  0  0  0  0  0  0
    0.9708    2.4995   -0.4221 H   0  0  0  0  0  0  0  0  0  0  0  0
    1.5310   -1.7442   -0.2632 H   0  0  0  0  0  0  0  0  0  0  0  0
   -0.8295   -2.0238    0.5520 H   0  0  0  0  0  0  0  0  0  0  0  0
   -3.8087    0.8396   -0.4455 Cl  0  0  0  0  0  0  0  0  0  0  0  0
  1  2  1  0  0  0  0
  3  2  2  0  0  0  0
  4 12  1  0  0  0  0
  4  1  2  0  0  0  0
  5  4  1  0  0  0  0
  6  5  2  0  0  0  0
  6 10  1  0  0  0  0
  7  6  1  0  0  0  0
  8  7  2  0  0  0  0
  9  7  2  0  0  0  0
 10 11  2  0  0  0  0
 11  1  1  0  0  0  0
 11 15  1  0  0  0  0
 13  5  1  0  0  0  0
 14 10  1  0  0  0  0
 16  3  1  0  0  0  0
M  END
