Coordinates from ORCA-job 4-NO2PhN2+~Cl-_B3LYPG-6-31G_dp-NX-Scan-d89-09-n800
 OpenBabel11261920193D

 16 15  0  0  0  0  0  0  0  0999 V2000
   -1.5218   -0.4592   -0.0023 C   0  0  0  0  0  0  0  0  0  0  0  0
   -2.7963   -0.9380    0.0429 N   0  0  0  0  0  0  0  0  0  0  0  0
   -3.8317   -1.3874    0.0960 N   0  0  0  0  0  0  0  0  0  0  0  0
   -1.2862    0.9317   -0.1600 C   0  0  0  0  0  0  0  0  0  0  0  0
    0.0264    1.3713   -0.2671 C   0  0  0  0  0  0  0  0  0  0  0  0
    1.0513    0.4232   -0.1688 C   0  0  0  0  0  0  0  0  0  0  0  0
    2.4474    0.8649   -0.3225 N   0  0  0  0  0  0  0  0  0  0  0  0
    2.6276    1.9841   -0.7834 O   0  0  0  0  0  0  0  0  0  0  0  0
    3.3233    0.0664    0.0233 O   0  0  0  0  0  0  0  0  0  0  0  0
    0.8238   -0.9408    0.0607 C   0  0  0  0  0  0  0  0  0  0  0  0
   -0.4718   -1.4087    0.1234 C   0  0  0  0  0  0  0  0  0  0  0  0
   -2.1083    1.6387   -0.1891 H   0  0  0  0  0  0  0  0  0  0  0  0
    0.2436    2.4479   -0.3767 H   0  0  0  0  0  0  0  0  0  0  0  0
    1.6719   -1.6064    0.1617 H   0  0  0  0  0  0  0  0  0  0  0  0
   -0.6943   -2.4604    0.2620 H   0  0  0  0  0  0  0  0  0  0  0  0
    0.4421    4.6513    0.1298 Cl  0  0  0  0  0  0  0  0  0  0  0  0
  1  2  1  0  0  0  0
  1 11  1  0  0  0  0
  2  3  1  0  0  0  0
  4  1  2  0  0  0  0
  5  6  2  0  0  0  0
  5  4  1  0  0  0  0
  6 10  1  0  0  0  0
  7  6  1  0  0  0  0
  7  9  2  0  0  0  0
  8  7  2  0  0  0  0
 10 11  2  0  0  0  0
 10 14  1  0  0  0  0
 11 15  1  0  0  0  0
 12  4  1  0  0  0  0
 13  5  1  0  0  0  0
M  RAD  3   2   2   3   3  16   2
M  END
