Coordinates from ORCA-job 4-NO2PhN2+~Cl-_B3LYPG-6-31G_dp-NX-Scan-d89-09-n800
 OpenBabel11261920183D

 16 15  0  0  0  0  0  0  0  0999 V2000
   -1.5720   -0.5537   -0.0157 C   0  0  0  0  0  0  0  0  0  0  0  0
   -2.8301   -1.0670    0.0234 N   0  0  0  0  0  0  0  0  0  0  0  0
   -3.8514   -1.5591    0.0615 N   0  0  0  0  0  0  0  0  0  0  0  0
   -1.3646    0.8478   -0.1389 C   0  0  0  0  0  0  0  0  0  0  0  0
   -0.0618    1.3228   -0.1751 C   0  0  0  0  0  0  0  0  0  0  0  0
    0.9932    0.4033   -0.0903 C   0  0  0  0  0  0  0  0  0  0  0  0
    2.3810    0.8917   -0.1280 N   0  0  0  0  0  0  0  0  0  0  0  0
    2.5447    2.1011   -0.2269 O   0  0  0  0  0  0  0  0  0  0  0  0
    3.2702    0.0383   -0.0565 O   0  0  0  0  0  0  0  0  0  0  0  0
    0.7902   -0.9780    0.0309 C   0  0  0  0  0  0  0  0  0  0  0  0
   -0.4947   -1.4765    0.0703 C   0  0  0  0  0  0  0  0  0  0  0  0
   -2.2087    1.5248   -0.2030 H   0  0  0  0  0  0  0  0  0  0  0  0
    0.1561    2.3864   -0.2685 H   0  0  0  0  0  0  0  0  0  0  0  0
    1.6524   -1.6300    0.0920 H   0  0  0  0  0  0  0  0  0  0  0  0
   -0.6898   -2.5386    0.1649 H   0  0  0  0  0  0  0  0  0  0  0  0
    1.2323    5.4651   -0.5104 Cl  0  0  0  0  0  0  0  0  0  0  0  0
  1  2  1  0  0  0  0
  1 11  2  0  0  0  0
  2  3  1  0  0  0  0
  4  1  1  0  0  0  0
  5  4  2  0  0  0  0
  5  6  1  0  0  0  0
  6 10  2  0  0  0  0
  7  6  1  0  0  0  0
  7  9  2  0  0  0  0
  8  7  2  0  0  0  0
 10 11  1  0  0  0  0
 10 14  1  0  0  0  0
 11 15  1  0  0  0  0
 12  4  1  0  0  0  0
 13  5  1  0  0  0  0
M  RAD  3   2   2   3   3  16   2
M  END
