Coordinates from ORCA-job 4-NO2PhN2+~Cl-_B3LYPG-6-31G_dp-NX-Scan-d89-09-n800
 OpenBabel11261920193D

 16 15  0  0  0  0  0  0  0  0999 V2000
   -1.2459   -0.0827    0.2723 C   0  0  0  0  0  0  0  0  0  0  0  0
   -2.5741   -0.3989    0.6276 N   0  0  0  0  0  0  0  0  0  0  0  0
   -3.6476    0.0445    0.7414 N   0  0  0  0  0  0  0  0  0  0  0  0
   -0.8602    1.2082   -0.1193 C   0  0  0  0  0  0  0  0  0  0  0  0
    0.4749    1.4222   -0.4489 C   0  0  0  0  0  0  0  0  0  0  0  0
    1.3717    0.3579   -0.3795 C   0  0  0  0  0  0  0  0  0  0  0  0
    2.7891    0.5995   -0.7319 N   0  0  0  0  0  0  0  0  0  0  0  0
    3.0990    1.7383   -1.0692 O   0  0  0  0  0  0  0  0  0  0  0  0
    3.5564   -0.3570   -0.6621 O   0  0  0  0  0  0  0  0  0  0  0  0
    0.9933   -0.9264    0.0082 C   0  0  0  0  0  0  0  0  0  0  0  0
   -0.3369   -1.1483    0.3394 C   0  0  0  0  0  0  0  0  0  0  0  0
   -1.5967    2.0027   -0.1578 H   0  0  0  0  0  0  0  0  0  0  0  0
    0.8278    2.3980   -0.7579 H   0  0  0  0  0  0  0  0  0  0  0  0
    1.7324   -1.7162    0.0444 H   0  0  0  0  0  0  0  0  0  0  0  0
   -0.6840   -2.1274    0.6491 H   0  0  0  0  0  0  0  0  0  0  0  0
   -3.9523    2.1639    0.2739 Cl  0  0  0  0  0  0  0  0  0  0  0  0
  1 11  1  0  0  0  0
  1  2  1  0  0  0  0
  2  3  2  0  0  0  0
  4  1  2  0  0  0  0
  5  6  2  0  0  0  0
  5  4  1  0  0  0  0
  6 10  1  0  0  0  0
  7  9  2  0  0  0  0
  7  6  1  0  0  0  0
  8  7  2  0  0  0  0
 10 14  1  0  0  0  0
 10 11  2  0  0  0  0
 11 15  1  0  0  0  0
 12  4  1  0  0  0  0
 13  5  1  0  0  0  0
M  RAD  2   3   2  16   2
M  END
