Coordinates from ORCA-job 4-NO2PhN2+~Cl-_B3LYPG-6-31G_dp-NX-Scan-d89-09-n800
 OpenBabel11261920193D

 16 15  0  0  0  0  0  0  0  0999 V2000
   -1.4830   -0.2126    0.0502 C   0  0  0  0  0  0  0  0  0  0  0  0
   -2.7580   -0.6702   -0.0021 N   0  0  0  0  0  0  0  0  0  0  0  0
   -3.7672   -1.1733   -0.0846 N   0  0  0  0  0  0  0  0  0  0  0  0
   -1.1655    1.1117   -0.3548 C   0  0  0  0  0  0  0  0  0  0  0  0
    0.1950    1.3997   -0.5754 C   0  0  0  0  0  0  0  0  0  0  0  0
    1.1462    0.4393   -0.2939 C   0  0  0  0  0  0  0  0  0  0  0  0
    2.5572    0.7472   -0.5572 N   0  0  0  0  0  0  0  0  0  0  0  0
    2.8158    1.8216   -1.0927 O   0  0  0  0  0  0  0  0  0  0  0  0
    3.3853   -0.1063   -0.2346 O   0  0  0  0  0  0  0  0  0  0  0  0
    0.8297   -0.8267    0.2570 C   0  0  0  0  0  0  0  0  0  0  0  0
   -0.4815   -1.1721    0.4275 C   0  0  0  0  0  0  0  0  0  0  0  0
   -1.9351    1.8165   -0.6367 H   0  0  0  0  0  0  0  0  0  0  0  0
    0.4888    2.3676   -0.9551 H   0  0  0  0  0  0  0  0  0  0  0  0
    1.6334   -1.5042    0.5143 H   0  0  0  0  0  0  0  0  0  0  0  0
   -0.7763   -2.1407    0.8125 H   0  0  0  0  0  0  0  0  0  0  0  0
   -0.7379    3.2809    1.3551 Cl  0  0  0  0  0  0  0  0  0  0  0  0
  1 11  2  0  0  0  0
  2  1  1  0  0  0  0
  3  2  1  0  0  0  0
  4  1  1  0  0  0  0
  5  4  2  0  0  0  0
  5  6  1  0  0  0  0
  6 10  2  0  0  0  0
  7  6  1  0  0  0  0
  7  9  2  0  0  0  0
  8  7  2  0  0  0  0
 10 11  1  0  0  0  0
 10 14  1  0  0  0  0
 11 15  1  0  0  0  0
 12  4  1  0  0  0  0
 13  5  1  0  0  0  0
M  RAD  3   2   2   3   3  16   2
M  END
