Coordinates from ORCA-job 4-NO2PhN2+~Cl-_B3LYPG-6-31G_dp-NX-Scan-d89-09-n800
 OpenBabel11261920193D

 16 15  0  0  0  0  0  0  0  0999 V2000
   -1.4825   -0.2132    0.0498 C   0  0  0  0  0  0  0  0  0  0  0  0
   -2.7582   -0.6687   -0.0007 N   0  0  0  0  0  0  0  0  0  0  0  0
   -3.7696   -1.1679   -0.0811 N   0  0  0  0  0  0  0  0  0  0  0  0
   -1.1653    1.1109   -0.3561 C   0  0  0  0  0  0  0  0  0  0  0  0
    0.1952    1.3994   -0.5765 C   0  0  0  0  0  0  0  0  0  0  0  0
    1.1465    0.4393   -0.2948 C   0  0  0  0  0  0  0  0  0  0  0  0
    2.5575    0.7475   -0.5574 N   0  0  0  0  0  0  0  0  0  0  0  0
    2.8163    1.8229   -1.0908 O   0  0  0  0  0  0  0  0  0  0  0  0
    3.3859   -0.1049   -0.2326 O   0  0  0  0  0  0  0  0  0  0  0  0
    0.8301   -0.8269    0.2562 C   0  0  0  0  0  0  0  0  0  0  0  0
   -0.4809   -1.1726    0.4271 C   0  0  0  0  0  0  0  0  0  0  0  0
   -1.9352    1.8153   -0.6383 H   0  0  0  0  0  0  0  0  0  0  0  0
    0.4889    2.3675   -0.9558 H   0  0  0  0  0  0  0  0  0  0  0  0
    1.6340   -1.5042    0.5136 H   0  0  0  0  0  0  0  0  0  0  0  0
   -0.7755   -2.1411    0.8126 H   0  0  0  0  0  0  0  0  0  0  0  0
   -0.7403    3.2751    1.3546 Cl  0  0  0  0  0  0  0  0  0  0  0  0
  1 11  2  0  0  0  0
  2  1  1  0  0  0  0
  3  2  1  0  0  0  0
  4  1  1  0  0  0  0
  5  4  2  0  0  0  0
  5  6  1  0  0  0  0
  6 10  2  0  0  0  0
  7  6  1  0  0  0  0
  7  9  2  0  0  0  0
  8  7  2  0  0  0  0
 10 11  1  0  0  0  0
 10 14  1  0  0  0  0
 11 15  1  0  0  0  0
 12  4  1  0  0  0  0
 13  5  1  0  0  0  0
M  RAD  3   2   2   3   3  16   2
M  END
