Coordinates from ORCA-job 4-NO2PhN2+~Cl-_B3LYPG-6-31G_dp-NX-Scan-d89-09-n800
 OpenBabel11261920183D

 16 15  0  0  0  0  0  0  0  0999 V2000
   -1.5691   -0.5409   -0.0168 C   0  0  0  0  0  0  0  0  0  0  0  0
   -2.8285   -1.0528    0.0221 N   0  0  0  0  0  0  0  0  0  0  0  0
   -3.8479   -1.5485    0.0604 N   0  0  0  0  0  0  0  0  0  0  0  0
   -1.3564    0.8599   -0.1393 C   0  0  0  0  0  0  0  0  0  0  0  0
   -0.0515    1.3311   -0.1750 C   0  0  0  0  0  0  0  0  0  0  0  0
    0.9992    0.4066   -0.0901 C   0  0  0  0  0  0  0  0  0  0  0  0
    2.3901    0.8875   -0.1270 N   0  0  0  0  0  0  0  0  0  0  0  0
    2.5603    2.0959   -0.2233 O   0  0  0  0  0  0  0  0  0  0  0  0
    3.2746    0.0290   -0.0572 O   0  0  0  0  0  0  0  0  0  0  0  0
    0.7911   -0.9740    0.0302 C   0  0  0  0  0  0  0  0  0  0  0  0
   -0.4955   -1.4679    0.0691 C   0  0  0  0  0  0  0  0  0  0  0  0
   -2.1978    1.5403   -0.2034 H   0  0  0  0  0  0  0  0  0  0  0  0
    0.1695    2.3951   -0.2680 H   0  0  0  0  0  0  0  0  0  0  0  0
    1.6509   -1.6291    0.0912 H   0  0  0  0  0  0  0  0  0  0  0  0
   -0.6946   -2.5293    0.1632 H   0  0  0  0  0  0  0  0  0  0  0  0
    1.1524    5.3755   -0.5065 Cl  0  0  0  0  0  0  0  0  0  0  0  0
  1  2  1  0  0  0  0
  1 11  2  0  0  0  0
  2  3  1  0  0  0  0
  4  1  1  0  0  0  0
  5  4  2  0  0  0  0
  5  6  1  0  0  0  0
  6 10  2  0  0  0  0
  7  6  1  0  0  0  0
  7  9  2  0  0  0  0
  8  7  2  0  0  0  0
 10 11  1  0  0  0  0
 10 14  1  0  0  0  0
 11 15  1  0  0  0  0
 12  4  1  0  0  0  0
 13  5  1  0  0  0  0
M  RAD  3   2   2   3   3  16   2
M  END
