Coordinates from ORCA-job 4-NO2PhN2+~Cl-_B3LYPG-6-31G_dp-NX-Scan-d89-09-n800
 OpenBabel11261920183D

 16 15  0  0  0  0  0  0  0  0999 V2000
   -1.5722   -0.5547   -0.0156 C   0  0  0  0  0  0  0  0  0  0  0  0
   -2.8302   -1.0680    0.0235 N   0  0  0  0  0  0  0  0  0  0  0  0
   -3.8517   -1.5599    0.0616 N   0  0  0  0  0  0  0  0  0  0  0  0
   -1.3652    0.8469   -0.1388 C   0  0  0  0  0  0  0  0  0  0  0  0
   -0.0625    1.3221   -0.1752 C   0  0  0  0  0  0  0  0  0  0  0  0
    0.9927    0.4030   -0.0903 C   0  0  0  0  0  0  0  0  0  0  0  0
    2.3803    0.8919   -0.1281 N   0  0  0  0  0  0  0  0  0  0  0  0
    2.5435    2.1014   -0.2274 O   0  0  0  0  0  0  0  0  0  0  0  0
    3.2699    0.0390   -0.0564 O   0  0  0  0  0  0  0  0  0  0  0  0
    0.7901   -0.9783    0.0309 C   0  0  0  0  0  0  0  0  0  0  0  0
   -0.4946   -1.4772    0.0704 C   0  0  0  0  0  0  0  0  0  0  0  0
   -2.2095    1.5236   -0.2030 H   0  0  0  0  0  0  0  0  0  0  0  0
    0.1551    2.3857   -0.2685 H   0  0  0  0  0  0  0  0  0  0  0  0
    1.6525   -1.6301    0.0921 H   0  0  0  0  0  0  0  0  0  0  0  0
   -0.6895   -2.5393    0.1651 H   0  0  0  0  0  0  0  0  0  0  0  0
    1.2382    5.4723   -0.5106 Cl  0  0  0  0  0  0  0  0  0  0  0  0
  1  2  1  0  0  0  0
  1 11  2  0  0  0  0
  2  3  1  0  0  0  0
  4  1  1  0  0  0  0
  5  4  2  0  0  0  0
  5  6  1  0  0  0  0
  6 10  2  0  0  0  0
  7  6  1  0  0  0  0
  7  9  2  0  0  0  0
  8  7  2  0  0  0  0
 10 11  1  0  0  0  0
 10 14  1  0  0  0  0
 11 15  1  0  0  0  0
 12  4  1  0  0  0  0
 13  5  1  0  0  0  0
M  RAD  3   2   2   3   3  16   2
M  END
