Coordinates from ORCA-job 4-NO2PhN2+~Cl-_B3LYPG-6-31G_dp-NX-Scan-d89-09-n800
 OpenBabel11261920193D

 16 15  0  0  0  0  0  0  0  0999 V2000
   -1.4984   -0.3890    0.0067 C   0  0  0  0  0  0  0  0  0  0  0  0
   -2.7825   -0.8462    0.0422 N   0  0  0  0  0  0  0  0  0  0  0  0
   -3.8136   -1.3045    0.0791 N   0  0  0  0  0  0  0  0  0  0  0  0
   -1.2232    0.9842   -0.2188 C   0  0  0  0  0  0  0  0  0  0  0  0
    0.1066    1.3716   -0.3438 C   0  0  0  0  0  0  0  0  0  0  0  0
    1.1016    0.4025   -0.1990 C   0  0  0  0  0  0  0  0  0  0  0  0
    2.5103    0.7908   -0.3904 N   0  0  0  0  0  0  0  0  0  0  0  0
    2.7277    1.9171   -0.8179 O   0  0  0  0  0  0  0  0  0  0  0  0
    3.3630   -0.0558   -0.1122 O   0  0  0  0  0  0  0  0  0  0  0  0
    0.8322   -0.9408    0.1048 C   0  0  0  0  0  0  0  0  0  0  0  0
   -0.4759   -1.3625    0.1932 C   0  0  0  0  0  0  0  0  0  0  0  0
   -2.0111    1.7270   -0.2875 H   0  0  0  0  0  0  0  0  0  0  0  0
    0.3366    2.4351   -0.4868 H   0  0  0  0  0  0  0  0  0  0  0  0
    1.6584   -1.6271    0.2411 H   0  0  0  0  0  0  0  0  0  0  0  0
   -0.7317   -2.3961    0.3946 H   0  0  0  0  0  0  0  0  0  0  0  0
   -0.1530    4.4721    0.4245 Cl  0  0  0  0  0  0  0  0  0  0  0  0
  1  2  1  0  0  0  0
  1 11  2  0  0  0  0
  2  3  1  0  0  0  0
  4  1  1  0  0  0  0
  5  4  2  0  0  0  0
  5  6  1  0  0  0  0
  6 10  2  0  0  0  0
  7  6  1  0  0  0  0
  7  9  2  0  0  0  0
  8  7  2  0  0  0  0
 10 11  1  0  0  0  0
 10 14  1  0  0  0  0
 11 15  1  0  0  0  0
 12  4  1  0  0  0  0
 13  5  1  0  0  0  0
M  RAD  3   2   2   3   3  16   2
M  END
