Coordinates from ORCA-job 4-NO2PhN2+~Cl-_B3LYPG-6-31G_dp-NX-Scan-d89-09-n800
 OpenBabel11261920193D

 16 16  0  0  1  0  0  0  0  0999 V2000
   -1.4270   -0.2196    0.0309 C   0  0  0  0  0  0  0  0  0  0  0  0
   -2.6957   -0.4258    0.3244 N   0  0  0  0  0  0  0  0  0  0  0  0
   -3.7954   -0.3752    0.6035 N   0  0  0  0  0  0  0  0  0  0  0  0
   -1.1414    1.1898   -0.3454 C   0  0  2  0  0  0  0  0  0  0  0  0
    0.2976    1.4240   -0.5714 C   0  0  0  0  0  0  0  0  0  0  0  0
    1.2084    0.4640   -0.2937 C   0  0  0  0  0  0  0  0  0  0  0  0
    2.6380    0.7803   -0.5312 N   0  0  0  0  0  0  0  0  0  0  0  0
    2.9187    1.8910   -0.9725 O   0  0  0  0  0  0  0  0  0  0  0  0
    3.4531   -0.1023   -0.2699 O   0  0  0  0  0  0  0  0  0  0  0  0
    0.8937   -0.8546    0.1890 C   0  0  0  0  0  0  0  0  0  0  0  0
   -0.4147   -1.1822    0.3477 C   0  0  0  0  0  0  0  0  0  0  0  0
   -1.7670    1.5757   -1.1492 H   0  0  0  0  0  0  0  0  0  0  0  0
    0.6175    2.3841   -0.9548 H   0  0  0  0  0  0  0  0  0  0  0  0
    1.6962   -1.5430    0.4095 H   0  0  0  0  0  0  0  0  0  0  0  0
   -0.7148   -2.1555    0.7202 H   0  0  0  0  0  0  0  0  0  0  0  0
   -1.8203    2.3276    1.0925 Cl  0  0  0  0  0  0  0  0  0  0  0  0
  1  2  1  0  0  0  0
  1 11  2  0  0  0  0
  2  3  1  0  0  0  0
  4 12  1  6  0  0  0
  4  1  1  0  0  0  0
  4 16  1  0  0  0  0
  5  4  1  0  0  0  0
  5  6  2  0  0  0  0
  6 10  1  0  0  0  0
  7  6  1  0  0  0  0
  7  9  2  0  0  0  0
  8  7  2  0  0  0  0
 10 11  1  0  0  0  0
 10 14  1  0  0  0  0
 11 15  1  0  0  0  0
 13  5  1  0  0  0  0
M  RAD  3   2   2   3   3  10   2
M  END
