Coordinates from ORCA-job 4-NO2PhN2+~Cl-_B3LYPG-6-31G_dp-NX-Scan-d89-09-n800
 OpenBabel11261920193D

 16 15  0  0  0  0  0  0  0  0999 V2000
   -1.2453   -0.0841    0.2723 C   0  0  0  0  0  0  0  0  0  0  0  0
   -2.5739   -0.3990    0.6270 N   0  0  0  0  0  0  0  0  0  0  0  0
   -3.6471    0.0429    0.7415 N   0  0  0  0  0  0  0  0  0  0  0  0
   -0.8608    1.2071   -0.1193 C   0  0  0  0  0  0  0  0  0  0  0  0
    0.4742    1.4216   -0.4490 C   0  0  0  0  0  0  0  0  0  0  0  0
    1.3715    0.3578   -0.3795 C   0  0  0  0  0  0  0  0  0  0  0  0
    2.7889    0.6000   -0.7319 N   0  0  0  0  0  0  0  0  0  0  0  0
    3.0982    1.7389   -1.0691 O   0  0  0  0  0  0  0  0  0  0  0  0
    3.5566   -0.3561   -0.6617 O   0  0  0  0  0  0  0  0  0  0  0  0
    0.9939   -0.9268    0.0083 C   0  0  0  0  0  0  0  0  0  0  0  0
   -0.3362   -1.1495    0.3395 C   0  0  0  0  0  0  0  0  0  0  0  0
   -1.5983    2.0007   -0.1576 H   0  0  0  0  0  0  0  0  0  0  0  0
    0.8266    2.3976   -0.7580 H   0  0  0  0  0  0  0  0  0  0  0  0
    1.7334   -1.7161    0.0445 H   0  0  0  0  0  0  0  0  0  0  0  0
   -0.6828   -2.1289    0.6492 H   0  0  0  0  0  0  0  0  0  0  0  0
   -3.9520    2.1724    0.2735 Cl  0  0  0  0  0  0  0  0  0  0  0  0
  1 11  1  0  0  0  0
  1  2  1  0  0  0  0
  2  3  2  0  0  0  0
  4  1  2  0  0  0  0
  5  6  2  0  0  0  0
  5  4  1  0  0  0  0
  6 10  1  0  0  0  0
  7  9  2  0  0  0  0
  7  6  1  0  0  0  0
  8  7  2  0  0  0  0
 10 14  1  0  0  0  0
 10 11  2  0  0  0  0
 11 15  1  0  0  0  0
 12  4  1  0  0  0  0
 13  5  1  0  0  0  0
M  RAD  2   3   2  16   2
M  END
