Coordinates from ORCA-job 4-NO2PhN2+~Cl-_B3LYPG-6-31G_dp-NX-Scan-d89-09-n800
 OpenBabel11261920193D

 16 16  0  0  0  0  0  0  0  0999 V2000
   -1.2508    0.2208    0.5728 C   0  0  0  0  0  0  0  0  0  0  0  0
   -2.5369    0.1205    1.2032 N   0  0  0  0  0  0  0  0  0  0  0  0
   -3.5924    0.1031    0.5187 N   0  0  0  0  0  0  0  0  0  0  0  0
   -0.6825    1.4833    0.3505 C   0  0  0  0  0  0  0  0  0  0  0  0
    0.6148    1.5810   -0.1402 C   0  0  0  0  0  0  0  0  0  0  0  0
    1.3296    0.4109   -0.3924 C   0  0  0  0  0  0  0  0  0  0  0  0
    2.7003    0.5117   -0.9132 N   0  0  0  0  0  0  0  0  0  0  0  0
    3.1541    1.6388   -1.1087 O   0  0  0  0  0  0  0  0  0  0  0  0
    3.3062   -0.5370   -1.1302 O   0  0  0  0  0  0  0  0  0  0  0  0
    0.7861   -0.8519   -0.1603 C   0  0  0  0  0  0  0  0  0  0  0  0
   -0.5106   -0.9452    0.3332 C   0  0  0  0  0  0  0  0  0  0  0  0
   -1.2558    2.3778    0.5698 H   0  0  0  0  0  0  0  0  0  0  0  0
    1.0803    2.5402   -0.3288 H   0  0  0  0  0  0  0  0  0  0  0  0
    1.3813   -1.7331   -0.3643 H   0  0  0  0  0  0  0  0  0  0  0  0
   -0.9526   -1.9141    0.5397 H   0  0  0  0  0  0  0  0  0  0  0  0
   -3.6243    0.1716   -0.9200 Cl  0  0  0  0  0  0  0  0  0  0  0  0
  1  2  1  0  0  0  0
  3  2  2  0  0  0  0
  4 12  1  0  0  0  0
  4  1  1  0  0  0  0
  5  4  2  0  0  0  0
  6 10  2  0  0  0  0
  6  5  1  0  0  0  0
  7  6  1  0  0  0  0
  8  7  2  0  0  0  0
  9  7  2  0  0  0  0
 10 11  1  0  0  0  0
 11 15  1  0  0  0  0
 11  1  2  0  0  0  0
 13  5  1  0  0  0  0
 14 10  1  0  0  0  0
 16  3  1  0  0  0  0
M  END
