Coordinates from ORCA-job 4-NO2PhN2+~Cl-_B3LYPG-6-31G_dp-NX-Scan-d89-09-n800
 OpenBabel11261920193D

 16 15  0  0  0  0  0  0  0  0999 V2000
   -1.4828   -0.1746    0.0746 C   0  0  0  0  0  0  0  0  0  0  0  0
   -2.7474   -0.6402   -0.0159 N   0  0  0  0  0  0  0  0  0  0  0  0
   -3.7491   -1.1555   -0.1362 N   0  0  0  0  0  0  0  0  0  0  0  0
   -1.1548    1.1557   -0.3248 C   0  0  0  0  0  0  0  0  0  0  0  0
    0.2133    1.4073   -0.5982 C   0  0  0  0  0  0  0  0  0  0  0  0
    1.1523    0.4488   -0.3065 C   0  0  0  0  0  0  0  0  0  0  0  0
    2.5642    0.7359   -0.5951 N   0  0  0  0  0  0  0  0  0  0  0  0
    2.8296    1.7971   -1.1537 O   0  0  0  0  0  0  0  0  0  0  0  0
    3.3865   -0.1204   -0.2673 O   0  0  0  0  0  0  0  0  0  0  0  0
    0.8294   -0.8035    0.2848 C   0  0  0  0  0  0  0  0  0  0  0  0
   -0.4808   -1.1307    0.4713 C   0  0  0  0  0  0  0  0  0  0  0  0
   -1.9216    1.8291   -0.6794 H   0  0  0  0  0  0  0  0  0  0  0  0
    0.5144    2.3617   -1.0068 H   0  0  0  0  0  0  0  0  0  0  0  0
    1.6293   -1.4802    0.5546 H   0  0  0  0  0  0  0  0  0  0  0  0
   -0.7813   -2.0886    0.8787 H   0  0  0  0  0  0  0  0  0  0  0  0
   -0.8543    3.0366    1.4496 Cl  0  0  0  0  0  0  0  0  0  0  0  0
  1 11  2  0  0  0  0
  2  1  1  0  0  0  0
  3  2  1  0  0  0  0
  4  1  1  0  0  0  0
  5  4  2  0  0  0  0
  5  6  1  0  0  0  0
  6 10  2  0  0  0  0
  7  6  1  0  0  0  0
  7  9  2  0  0  0  0
  8  7  2  0  0  0  0
 10 11  1  0  0  0  0
 10 14  1  0  0  0  0
 11 15  1  0  0  0  0
 12  4  1  0  0  0  0
 13  5  1  0  0  0  0
M  RAD  3   2   2   3   3  16   2
M  END
