Coordinates from ORCA-job 4-NO2PhN2+~Cl-_B3LYPG-6-31G_dp-NX-Scan-d89-09-n800
 OpenBabel11261920193D

 16 16  0  0  1  0  0  0  0  0999 V2000
   -1.4533   -0.1459    0.0904 C   0  0  0  0  0  0  0  0  0  0  0  0
   -2.7220   -0.5128    0.0894 N   0  0  0  0  0  0  0  0  0  0  0  0
   -3.8132   -0.8356    0.0696 N   0  0  0  0  0  0  0  0  0  0  0  0
   -1.1316    1.2651   -0.2147 C   0  0  2  0  0  0  0  0  0  0  0  0
    0.2827    1.4353   -0.5970 C   0  0  0  0  0  0  0  0  0  0  0  0
    1.1903    0.4794   -0.2954 C   0  0  0  0  0  0  0  0  0  0  0  0
    2.6086    0.7351   -0.6310 N   0  0  0  0  0  0  0  0  0  0  0  0
    2.8868    1.7871   -1.2001 O   0  0  0  0  0  0  0  0  0  0  0  0
    3.4195   -0.1356   -0.3200 O   0  0  0  0  0  0  0  0  0  0  0  0
    0.8644   -0.7862    0.3061 C   0  0  0  0  0  0  0  0  0  0  0  0
   -0.4453   -1.0990    0.4757 C   0  0  0  0  0  0  0  0  0  0  0  0
   -1.8324    1.7412   -0.8961 H   0  0  0  0  0  0  0  0  0  0  0  0
    0.5955    2.3612   -1.0614 H   0  0  0  0  0  0  0  0  0  0  0  0
    1.6608   -1.4667    0.5713 H   0  0  0  0  0  0  0  0  0  0  0  0
   -0.7522   -2.0587    0.8766 H   0  0  0  0  0  0  0  0  0  0  0  0
   -1.4116    2.4146    1.3663 Cl  0  0  0  0  0  0  0  0  0  0  0  0
  1 11  2  0  0  0  0
  2  1  1  0  0  0  0
  3  2  1  0  0  0  0
  4 12  1  6  0  0  0
  4  1  1  0  0  0  0
  4 16  1  0  0  0  0
  5  6  2  0  0  0  0
  5  4  1  0  0  0  0
  6 10  1  0  0  0  0
  7  9  2  0  0  0  0
  7  6  1  0  0  0  0
  8  7  2  0  0  0  0
 10 11  1  0  0  0  0
 10 14  1  0  0  0  0
 11 15  1  0  0  0  0
 13  5  1  0  0  0  0
M  RAD  3   2   2   3   3  10   2
M  END
