Coordinates from ORCA-job 4-NO2PhN2+~Cl-_B3LYPG-6-31G_dp-NX-Scan-d89-09-n800
 OpenBabel11261920193D

 16 16  0  0  1  0  0  0  0  0999 V2000
   -1.4316   -0.2029    0.0384 C   0  0  0  0  0  0  0  0  0  0  0  0
   -2.7057   -0.4420    0.2790 N   0  0  0  0  0  0  0  0  0  0  0  0
   -3.8187   -0.4842    0.5012 N   0  0  0  0  0  0  0  0  0  0  0  0
   -1.1374    1.2066   -0.3213 C   0  0  2  0  0  0  0  0  0  0  0  0
    0.2978    1.4267   -0.5810 C   0  0  0  0  0  0  0  0  0  0  0  0
    1.2072    0.4677   -0.2951 C   0  0  0  0  0  0  0  0  0  0  0  0
    2.6355    0.7712   -0.5520 N   0  0  0  0  0  0  0  0  0  0  0  0
    2.9177    1.8710   -1.0193 O   0  0  0  0  0  0  0  0  0  0  0  0
    3.4489   -0.1085   -0.2760 O   0  0  0  0  0  0  0  0  0  0  0  0
    0.8883   -0.8398    0.2133 C   0  0  0  0  0  0  0  0  0  0  0  0
   -0.4209   -1.1633    0.3724 C   0  0  0  0  0  0  0  0  0  0  0  0
   -1.7814    1.6137   -1.0991 H   0  0  0  0  0  0  0  0  0  0  0  0
    0.6172    2.3794   -0.9824 H   0  0  0  0  0  0  0  0  0  0  0  0
    1.6886   -1.5276    0.4442 H   0  0  0  0  0  0  0  0  0  0  0  0
   -0.7235   -2.1335    0.7509 H   0  0  0  0  0  0  0  0  0  0  0  0
   -1.7350    2.3438    1.1562 Cl  0  0  0  0  0  0  0  0  0  0  0  0
  1  2  1  0  0  0  0
  1 11  2  0  0  0  0
  2  3  1  0  0  0  0
  4 12  1  6  0  0  0
  4  1  1  0  0  0  0
  4 16  1  0  0  0  0
  5  4  1  0  0  0  0
  5  6  2  0  0  0  0
  6 10  1  0  0  0  0
  7  6  1  0  0  0  0
  7  9  2  0  0  0  0
  8  7  2  0  0  0  0
 10 11  1  0  0  0  0
 10 14  1  0  0  0  0
 11 15  1  0  0  0  0
 13  5  1  0  0  0  0
M  RAD  3   2   2   3   3  10   2
M  END
