Coordinates from ORCA-job 4-NO2PhN2+~Cl-_B3LYPG-6-31G_dp-NX-Scan-d89-09-n800
 OpenBabel11261920183D

 16 15  0  0  0  0  0  0  0  0999 V2000
   -1.5733   -0.5596   -0.0152 C   0  0  0  0  0  0  0  0  0  0  0  0
   -2.8309   -1.0732    0.0239 N   0  0  0  0  0  0  0  0  0  0  0  0
   -3.8531   -1.5635    0.0619 N   0  0  0  0  0  0  0  0  0  0  0  0
   -1.3680    0.8422   -0.1386 C   0  0  0  0  0  0  0  0  0  0  0  0
   -0.0661    1.3188   -0.1752 C   0  0  0  0  0  0  0  0  0  0  0  0
    0.9906    0.4015   -0.0903 C   0  0  0  0  0  0  0  0  0  0  0  0
    2.3770    0.8930   -0.1286 N   0  0  0  0  0  0  0  0  0  0  0  0
    2.5379    2.1029   -0.2290 O   0  0  0  0  0  0  0  0  0  0  0  0
    3.2683    0.0420   -0.0559 O   0  0  0  0  0  0  0  0  0  0  0  0
    0.7898   -0.9801    0.0312 C   0  0  0  0  0  0  0  0  0  0  0  0
   -0.4944   -1.4805    0.0709 C   0  0  0  0  0  0  0  0  0  0  0  0
   -2.2133    1.5178   -0.2027 H   0  0  0  0  0  0  0  0  0  0  0  0
    0.1503    2.3822   -0.2686 H   0  0  0  0  0  0  0  0  0  0  0  0
    1.6529   -1.6308    0.0925 H   0  0  0  0  0  0  0  0  0  0  0  0
   -0.6878   -2.5429    0.1657 H   0  0  0  0  0  0  0  0  0  0  0  0
    1.2670    5.5085   -0.5122 Cl  0  0  0  0  0  0  0  0  0  0  0  0
  1  2  1  0  0  0  0
  1 11  2  0  0  0  0
  2  3  1  0  0  0  0
  4  1  1  0  0  0  0
  5  4  2  0  0  0  0
  5  6  1  0  0  0  0
  6 10  2  0  0  0  0
  7  6  1  0  0  0  0
  7  9  2  0  0  0  0
  8  7  2  0  0  0  0
 10 11  1  0  0  0  0
 10 14  1  0  0  0  0
 11 15  1  0  0  0  0
 12  4  1  0  0  0  0
 13  5  1  0  0  0  0
M  RAD  3   2   2   3   3  16   2
M  END
