Coordinates from ORCA-job 4-NO2PhN2+~Cl-_B3LYPG-6-31G_dp-NX-Scan-d89-09-n800
 OpenBabel11261920193D

 16 15  0  0  0  0  0  0  0  0999 V2000
   -1.4961   -0.3812    0.0081 C   0  0  0  0  0  0  0  0  0  0  0  0
   -2.7810   -0.8362    0.0428 N   0  0  0  0  0  0  0  0  0  0  0  0
   -3.8112   -1.2964    0.0773 N   0  0  0  0  0  0  0  0  0  0  0  0
   -1.2173    0.9899   -0.2248 C   0  0  0  0  0  0  0  0  0  0  0  0
    0.1140    1.3717   -0.3523 C   0  0  0  0  0  0  0  0  0  0  0  0
    1.1063    0.4010   -0.2030 C   0  0  0  0  0  0  0  0  0  0  0  0
    2.5157    0.7847   -0.3968 N   0  0  0  0  0  0  0  0  0  0  0  0
    2.7365    1.9110   -0.8230 O   0  0  0  0  0  0  0  0  0  0  0  0
    3.3661   -0.0653   -0.1223 O   0  0  0  0  0  0  0  0  0  0  0  0
    0.8330   -0.9400    0.1086 C   0  0  0  0  0  0  0  0  0  0  0  0
   -0.4762   -1.3569    0.2003 C   0  0  0  0  0  0  0  0  0  0  0  0
   -2.0017    1.7361   -0.2974 H   0  0  0  0  0  0  0  0  0  0  0  0
    0.3463    2.4326   -0.5009 H   0  0  0  0  0  0  0  0  0  0  0  0
    1.6571   -1.6281    0.2485 H   0  0  0  0  0  0  0  0  0  0  0  0
   -0.7353   -2.3883    0.4085 H   0  0  0  0  0  0  0  0  0  0  0  0
   -0.2091    4.4438    0.4561 Cl  0  0  0  0  0  0  0  0  0  0  0  0
  1  2  1  0  0  0  0
  1 11  2  0  0  0  0
  2  3  1  0  0  0  0
  4  1  1  0  0  0  0
  5  4  2  0  0  0  0
  5  6  1  0  0  0  0
  6 10  2  0  0  0  0
  7  6  1  0  0  0  0
  7  9  2  0  0  0  0
  8  7  2  0  0  0  0
 10 11  1  0  0  0  0
 10 14  1  0  0  0  0
 11 15  1  0  0  0  0
 12  4  1  0  0  0  0
 13  5  1  0  0  0  0
M  RAD  3   2   2   3   3  16   2
M  END
