Coordinates from ORCA-job 4-NO2PhN2+~Cl-_B3LYPG-6-31G_dp-NX-Scan-d89-09-n800
 OpenBabel11261920183D

 16 15  0  0  0  0  0  0  0  0999 V2000
   -1.5588   -0.5018   -0.0205 C   0  0  0  0  0  0  0  0  0  0  0  0
   -2.8231   -1.0070    0.0178 N   0  0  0  0  0  0  0  0  0  0  0  0
   -3.8387   -1.5088    0.0570 N   0  0  0  0  0  0  0  0  0  0  0  0
   -1.3291    0.8964   -0.1413 C   0  0  0  0  0  0  0  0  0  0  0  0
   -0.0177    1.3547   -0.1758 C   0  0  0  0  0  0  0  0  0  0  0  0
    1.0189    0.4140   -0.0906 C   0  0  0  0  0  0  0  0  0  0  0  0
    2.4196    0.8712   -0.1251 N   0  0  0  0  0  0  0  0  0  0  0  0
    2.6115    2.0750   -0.2253 O   0  0  0  0  0  0  0  0  0  0  0  0
    3.2888   -0.0027   -0.0494 O   0  0  0  0  0  0  0  0  0  0  0  0
    0.7941   -0.9642    0.0286 C   0  0  0  0  0  0  0  0  0  0  0  0
   -0.4978   -1.4430    0.0657 C   0  0  0  0  0  0  0  0  0  0  0  0
   -2.1613    1.5883   -0.2051 H   0  0  0  0  0  0  0  0  0  0  0  0
    0.2120    2.4213   -0.2671 H   0  0  0  0  0  0  0  0  0  0  0  0
    1.6461   -1.6293    0.0902 H   0  0  0  0  0  0  0  0  0  0  0  0
   -0.7102   -2.5019    0.1588 H   0  0  0  0  0  0  0  0  0  0  0  0
    0.8925    5.1161   -0.4881 Cl  0  0  0  0  0  0  0  0  0  0  0  0
  1  2  1  0  0  0  0
  1 11  2  0  0  0  0
  2  3  1  0  0  0  0
  4  1  1  0  0  0  0
  5  4  2  0  0  0  0
  5  6  1  0  0  0  0
  6 10  2  0  0  0  0
  7  6  1  0  0  0  0
  7  9  2  0  0  0  0
  8  7  2  0  0  0  0
 10 11  1  0  0  0  0
 10 14  1  0  0  0  0
 11 15  1  0  0  0  0
 12  4  1  0  0  0  0
 13  5  1  0  0  0  0
M  RAD  3   2   2   3   3  16   2
M  END
