Coordinates from ORCA-job 4-NO2PhN2+~Cl-_B3LYPG-6-31G_dp-NX-Scan-d89-09-n800
 OpenBabel11261920183D

 16 15  0  0  0  0  0  0  0  0999 V2000
   -1.5703   -0.5459   -0.0164 C   0  0  0  0  0  0  0  0  0  0  0  0
   -2.8291   -1.0584    0.0226 N   0  0  0  0  0  0  0  0  0  0  0  0
   -3.8492   -1.5529    0.0609 N   0  0  0  0  0  0  0  0  0  0  0  0
   -1.3597    0.8553   -0.1391 C   0  0  0  0  0  0  0  0  0  0  0  0
   -0.0556    1.3280   -0.1750 C   0  0  0  0  0  0  0  0  0  0  0  0
    0.9968    0.4055   -0.0902 C   0  0  0  0  0  0  0  0  0  0  0  0
    2.3865    0.8893   -0.1274 N   0  0  0  0  0  0  0  0  0  0  0  0
    2.5541    2.0981   -0.2248 O   0  0  0  0  0  0  0  0  0  0  0  0
    3.2729    0.0328   -0.0568 O   0  0  0  0  0  0  0  0  0  0  0  0
    0.7907   -0.9754    0.0304 C   0  0  0  0  0  0  0  0  0  0  0  0
   -0.4952   -1.4712    0.0696 C   0  0  0  0  0  0  0  0  0  0  0  0
   -2.2022    1.5343   -0.2032 H   0  0  0  0  0  0  0  0  0  0  0  0
    0.1642    2.3919   -0.2682 H   0  0  0  0  0  0  0  0  0  0  0  0
    1.6515   -1.6292    0.0915 H   0  0  0  0  0  0  0  0  0  0  0  0
   -0.6927   -2.5329    0.1638 H   0  0  0  0  0  0  0  0  0  0  0  0
    1.1841    5.4091   -0.5079 Cl  0  0  0  0  0  0  0  0  0  0  0  0
  1  2  1  0  0  0  0
  1 11  2  0  0  0  0
  2  3  1  0  0  0  0
  4  1  1  0  0  0  0
  5  4  2  0  0  0  0
  5  6  1  0  0  0  0
  6 10  2  0  0  0  0
  7  6  1  0  0  0  0
  7  9  2  0  0  0  0
  8  7  2  0  0  0  0
 10 11  1  0  0  0  0
 10 14  1  0  0  0  0
 11 15  1  0  0  0  0
 12  4  1  0  0  0  0
 13  5  1  0  0  0  0
M  RAD  3   2   2   3   3  16   2
M  END
