Coordinates from ORCA-job 4-NO2PhN2+~Cl-_B3LYPG-6-31G_dp-NX-Scan-d89-09-n800
 OpenBabel11261920193D

 16 16  0  0  0  0  0  0  0  0999 V2000
   -1.3172   -0.0270    0.2501 C   0  0  0  0  0  0  0  0  0  0  0  0
   -2.6212   -0.4434    0.5987 N   0  0  0  0  0  0  0  0  0  0  0  0
   -3.5410    0.4995    0.6182 N   0  0  0  0  0  0  0  0  0  0  0  0
   -0.8344    1.2724   -0.0552 C   0  0  0  0  0  0  0  0  0  0  0  0
    0.5083    1.4662   -0.3682 C   0  0  0  0  0  0  0  0  0  0  0  0
    1.3774    0.3793   -0.3825 C   0  0  0  0  0  0  0  0  0  0  0  0
    2.7874    0.5957   -0.7141 N   0  0  0  0  0  0  0  0  0  0  0  0
    3.1471    1.7464   -0.9695 O   0  0  0  0  0  0  0  0  0  0  0  0
    3.5313   -0.3863   -0.7177 O   0  0  0  0  0  0  0  0  0  0  0  0
    0.9343   -0.9138   -0.0871 C   0  0  0  0  0  0  0  0  0  0  0  0
   -0.3988   -1.1046    0.2252 C   0  0  0  0  0  0  0  0  0  0  0  0
   -1.4936    2.1308   -0.0508 H   0  0  0  0  0  0  0  0  0  0  0  0
    0.8908    2.4517   -0.6032 H   0  0  0  0  0  0  0  0  0  0  0  0
    1.6389   -1.7358   -0.1079 H   0  0  0  0  0  0  0  0  0  0  0  0
   -0.7804   -2.0917    0.4628 H   0  0  0  0  0  0  0  0  0  0  0  0
   -3.8821    1.3387    0.5311 Cl  0  0  0  0  0  0  0  0  0  0  0  0
  1  2  1  0  0  0  0
  2  3  1  0  0  0  0
  4 12  1  0  0  0  0
  4  1  2  0  0  0  0
  5  4  1  0  0  0  0
  6  5  2  0  0  0  0
  6 10  1  0  0  0  0
  7  6  1  0  0  0  0
  8  7  2  0  0  0  0
  9  7  2  0  0  0  0
 10 11  2  0  0  0  0
 11  1  1  0  0  0  0
 11 15  1  0  0  0  0
 13  5  1  0  0  0  0
 14 10  1  0  0  0  0
 16  3  1  0  0  0  0
M  RAD  2   2   2   3   2
M  END
