Coordinates from ORCA-job 4-NO2PhN2+~Cl-_B3LYPG-6-31G_dp-NX-Scan-d89-09-n800
 OpenBabel11261920193D

 16 16  0  0  1  0  0  0  0  0999 V2000
   -1.4374   -0.1848    0.0500 C   0  0  0  0  0  0  0  0  0  0  0  0
   -2.7149   -0.4627    0.2237 N   0  0  0  0  0  0  0  0  0  0  0  0
   -3.8322   -0.5999    0.3784 N   0  0  0  0  0  0  0  0  0  0  0  0
   -1.1343    1.2252   -0.2915 C   0  0  2  0  0  0  0  0  0  0  0  0
    0.2957    1.4296   -0.5887 C   0  0  0  0  0  0  0  0  0  0  0  0
    1.2041    0.4720   -0.2954 C   0  0  0  0  0  0  0  0  0  0  0  0
    2.6304    0.7610   -0.5749 N   0  0  0  0  0  0  0  0  0  0  0  0
    2.9128    1.8467   -1.0739 O   0  0  0  0  0  0  0  0  0  0  0  0
    3.4422   -0.1165   -0.2871 O   0  0  0  0  0  0  0  0  0  0  0  0
    0.8817   -0.8229    0.2418 C   0  0  0  0  0  0  0  0  0  0  0  0
   -0.4281   -1.1428    0.4018 C   0  0  0  0  0  0  0  0  0  0  0  0
   -1.7971    1.6548   -1.0399 H   0  0  0  0  0  0  0  0  0  0  0  0
    0.6140    2.3741   -1.0101 H   0  0  0  0  0  0  0  0  0  0  0  0
    1.6801   -1.5092    0.4841 H   0  0  0  0  0  0  0  0  0  0  0  0
   -0.7328   -2.1098    0.7867 H   0  0  0  0  0  0  0  0  0  0  0  0
   -1.6373    2.3636    1.2247 Cl  0  0  0  0  0  0  0  0  0  0  0  0
  1  2  1  0  0  0  0
  1 11  2  0  0  0  0
  2  3  1  0  0  0  0
  4 12  1  6  0  0  0
  4  1  1  0  0  0  0
  4 16  1  0  0  0  0
  5  6  2  0  0  0  0
  5  4  1  0  0  0  0
  6 10  1  0  0  0  0
  7  6  1  0  0  0  0
  7  9  2  0  0  0  0
  8  7  2  0  0  0  0
 10 11  1  0  0  0  0
 10 14  1  0  0  0  0
 11 15  1  0  0  0  0
 13  5  1  0  0  0  0
M  RAD  3   2   2   3   3  10   2
M  END
