Coordinates from ORCA-job 4-NO2PhN2+~Cl-_B3LYPG-6-31G_dp-NX-Scan-d89-09-n800
 OpenBabel11261920193D

 16 15  0  0  0  0  0  0  0  0999 V2000
   -1.4977   -0.3859    0.0072 C   0  0  0  0  0  0  0  0  0  0  0  0
   -2.7820   -0.8426    0.0425 N   0  0  0  0  0  0  0  0  0  0  0  0
   -3.8122   -1.3029    0.0784 N   0  0  0  0  0  0  0  0  0  0  0  0
   -1.2211    0.9865   -0.2210 C   0  0  0  0  0  0  0  0  0  0  0  0
    0.1093    1.3716   -0.3468 C   0  0  0  0  0  0  0  0  0  0  0  0
    1.1032    0.4019   -0.2005 C   0  0  0  0  0  0  0  0  0  0  0  0
    2.5122    0.7885   -0.3927 N   0  0  0  0  0  0  0  0  0  0  0  0
    2.7309    1.9150   -0.8191 O   0  0  0  0  0  0  0  0  0  0  0  0
    3.3640   -0.0596   -0.1165 O   0  0  0  0  0  0  0  0  0  0  0  0
    0.8324   -0.9405    0.1062 C   0  0  0  0  0  0  0  0  0  0  0  0
   -0.4762   -1.3603    0.1959 C   0  0  0  0  0  0  0  0  0  0  0  0
   -2.0077    1.7306   -0.2913 H   0  0  0  0  0  0  0  0  0  0  0  0
    0.3409    2.4339   -0.4925 H   0  0  0  0  0  0  0  0  0  0  0  0
    1.6577   -1.6276    0.2438 H   0  0  0  0  0  0  0  0  0  0  0  0
   -0.7334   -2.3931    0.3998 H   0  0  0  0  0  0  0  0  0  0  0  0
   -0.1735    4.4630    0.4362 Cl  0  0  0  0  0  0  0  0  0  0  0  0
  1  2  1  0  0  0  0
  1 11  2  0  0  0  0
  2  3  1  0  0  0  0
  4  1  1  0  0  0  0
  5  4  2  0  0  0  0
  5  6  1  0  0  0  0
  6 10  2  0  0  0  0
  7  6  1  0  0  0  0
  7  9  2  0  0  0  0
  8  7  2  0  0  0  0
 10 11  1  0  0  0  0
 10 14  1  0  0  0  0
 11 15  1  0  0  0  0
 12  4  1  0  0  0  0
 13  5  1  0  0  0  0
M  RAD  3   2   2   3   3  16   2
M  END
