Coordinates from ORCA-job 4-NO2PhN2+~Cl-_B3LYPG-6-31G_dp-NX-Scan-d89-09-n800
 OpenBabel11261920193D

 16 15  0  0  0  0  0  0  0  0999 V2000
   -1.4954   -0.3789    0.0084 C   0  0  0  0  0  0  0  0  0  0  0  0
   -2.7805   -0.8333    0.0430 N   0  0  0  0  0  0  0  0  0  0  0  0
   -3.8109   -1.2930    0.0769 N   0  0  0  0  0  0  0  0  0  0  0  0
   -1.2155    0.9916   -0.2267 C   0  0  0  0  0  0  0  0  0  0  0  0
    0.1164    1.3717   -0.3551 C   0  0  0  0  0  0  0  0  0  0  0  0
    1.1077    0.4005   -0.2043 C   0  0  0  0  0  0  0  0  0  0  0  0
    2.5175    0.7829   -0.3989 N   0  0  0  0  0  0  0  0  0  0  0  0
    2.7392    1.9090   -0.8251 O   0  0  0  0  0  0  0  0  0  0  0  0
    3.3672   -0.0680   -0.1249 O   0  0  0  0  0  0  0  0  0  0  0  0
    0.8332   -0.9397    0.1097 C   0  0  0  0  0  0  0  0  0  0  0  0
   -0.4762   -1.3552    0.2025 C   0  0  0  0  0  0  0  0  0  0  0  0
   -1.9988    1.7388   -0.3005 H   0  0  0  0  0  0  0  0  0  0  0  0
    0.3488    2.4322   -0.5049 H   0  0  0  0  0  0  0  0  0  0  0  0
    1.6567   -1.6283    0.2508 H   0  0  0  0  0  0  0  0  0  0  0  0
   -0.7362   -2.3859    0.4128 H   0  0  0  0  0  0  0  0  0  0  0  0
   -0.2265    4.4339    0.4659 Cl  0  0  0  0  0  0  0  0  0  0  0  0
  1  2  1  0  0  0  0
  1 11  2  0  0  0  0
  2  3  1  0  0  0  0
  4  1  1  0  0  0  0
  5  4  2  0  0  0  0
  5  6  1  0  0  0  0
  6 10  2  0  0  0  0
  7  6  1  0  0  0  0
  7  9  2  0  0  0  0
  8  7  2  0  0  0  0
 10 11  1  0  0  0  0
 10 14  1  0  0  0  0
 11 15  1  0  0  0  0
 12  4  1  0  0  0  0
 13  5  1  0  0  0  0
M  RAD  3   2   2   3   3  16   2
M  END
