Coordinates from ORCA-job 4-NO2PhN2+~Cl-_B3LYPG-6-31G_dp-NX-Scan-d89-09-n800
 OpenBabel11261920193D

 16 15  0  0  0  0  0  0  0  0999 V2000
   -1.4894   -0.3524    0.0135 C   0  0  0  0  0  0  0  0  0  0  0  0
   -2.7759   -0.8040    0.0425 N   0  0  0  0  0  0  0  0  0  0  0  0
   -3.8020   -1.2734    0.0679 N   0  0  0  0  0  0  0  0  0  0  0  0
   -1.1989    1.0113   -0.2467 C   0  0  0  0  0  0  0  0  0  0  0  0
    0.1384    1.3734   -0.3844 C   0  0  0  0  0  0  0  0  0  0  0  0
    1.1208    0.3977   -0.2178 C   0  0  0  0  0  0  0  0  0  0  0  0
    2.5326    0.7654   -0.4208 N   0  0  0  0  0  0  0  0  0  0  0  0
    2.7647    1.8894   -0.8488 O   0  0  0  0  0  0  0  0  0  0  0  0
    3.3755   -0.0940   -0.1534 O   0  0  0  0  0  0  0  0  0  0  0  0
    0.8346   -0.9342    0.1238 C   0  0  0  0  0  0  0  0  0  0  0  0
   -0.4777   -1.3343    0.2280 C   0  0  0  0  0  0  0  0  0  0  0  0
   -1.9715    1.7681   -0.3354 H   0  0  0  0  0  0  0  0  0  0  0  0
    0.3816    2.4240   -0.5558 H   0  0  0  0  0  0  0  0  0  0  0  0
    1.6517   -1.6275    0.2779 H   0  0  0  0  0  0  0  0  0  0  0  0
   -0.7475   -2.3574    0.4616 H   0  0  0  0  0  0  0  0  0  0  0  0
   -0.3901    4.3264    0.5776 Cl  0  0  0  0  0  0  0  0  0  0  0  0
  1  2  1  0  0  0  0
  1 11  2  0  0  0  0
  2  3  1  0  0  0  0
  4  1  1  0  0  0  0
  5  4  2  0  0  0  0
  5  6  1  0  0  0  0
  6 10  2  0  0  0  0
  7  6  1  0  0  0  0
  7  9  2  0  0  0  0
  8  7  2  0  0  0  0
 10 11  1  0  0  0  0
 10 14  1  0  0  0  0
 11 15  1  0  0  0  0
 12  4  1  0  0  0  0
 13  5  1  0  0  0  0
M  RAD  3   2   2   3   3  16   2
M  END
