Coordinates from ORCA-job 4-NO2PhN2+~Cl-_B3LYPG-6-31G_dp-NX-Scan-d89-09-n800
 OpenBabel11261920193D

 16 15  0  0  0  0  0  0  0  0999 V2000
   -1.4899   -0.1157    0.1363 C   0  0  0  0  0  0  0  0  0  0  0  0
   -2.7144   -0.6163   -0.0820 N   0  0  0  0  0  0  0  0  0  0  0  0
   -3.6781   -1.1777   -0.3119 N   0  0  0  0  0  0  0  0  0  0  0  0
   -1.1441    1.2547   -0.1960 C   0  0  0  0  0  0  0  0  0  0  0  0
    0.2327    1.4268   -0.5988 C   0  0  0  0  0  0  0  0  0  0  0  0
    1.1510    0.4668   -0.3057 C   0  0  0  0  0  0  0  0  0  0  0  0
    2.5581    0.7055   -0.6712 N   0  0  0  0  0  0  0  0  0  0  0  0
    2.8260    1.7339   -1.2871 O   0  0  0  0  0  0  0  0  0  0  0  0
    3.3730   -0.1556   -0.3413 O   0  0  0  0  0  0  0  0  0  0  0  0
    0.8251   -0.7648    0.3480 C   0  0  0  0  0  0  0  0  0  0  0  0
   -0.4833   -1.0690    0.5503 C   0  0  0  0  0  0  0  0  0  0  0  0
   -1.8991    1.8583   -0.6825 H   0  0  0  0  0  0  0  0  0  0  0  0
    0.5396    2.3531   -1.0660 H   0  0  0  0  0  0  0  0  0  0  0  0
    1.6215   -1.4391    0.6317 H   0  0  0  0  0  0  0  0  0  0  0  0
   -0.7901   -2.0168    0.9776 H   0  0  0  0  0  0  0  0  0  0  0  0
   -0.9813    2.7342    1.5282 Cl  0  0  0  0  0  0  0  0  0  0  0  0
  1 11  1  0  0  0  0
  2  1  1  0  0  0  0
  3  2  1  0  0  0  0
  4  1  2  0  0  0  0
  5  6  2  0  0  0  0
  5  4  1  0  0  0  0
  6 10  1  0  0  0  0
  7  9  2  0  0  0  0
  7  6  1  0  0  0  0
  8  7  2  0  0  0  0
 10 11  2  0  0  0  0
 10 14  1  0  0  0  0
 11 15  1  0  0  0  0
 12  4  1  0  0  0  0
 13  5  1  0  0  0  0
M  RAD  3   2   2   3   3  16   2
M  END
