Coordinates from ORCA-job 4-NO2PhN2+~Cl-_B3LYPG-6-31G_dp-NX-Scan-d89-09-n800
 OpenBabel11261920193D

 16 16  0  0  1  0  0  0  0  0999 V2000
   -1.4486   -0.1562    0.0776 C   0  0  0  0  0  0  0  0  0  0  0  0
   -2.7224   -0.4995    0.1265 N   0  0  0  0  0  0  0  0  0  0  0  0
   -3.8255   -0.7765    0.1548 N   0  0  0  0  0  0  0  0  0  0  0  0
   -1.1318    1.2549   -0.2360 C   0  0  2  0  0  0  0  0  0  0  0  0
    0.2874    1.4342   -0.5953 C   0  0  0  0  0  0  0  0  0  0  0  0
    1.1950    0.4781   -0.2947 C   0  0  0  0  0  0  0  0  0  0  0  0
    2.6160    0.7429   -0.6145 N   0  0  0  0  0  0  0  0  0  0  0  0
    2.8956    1.8030   -1.1676 O   0  0  0  0  0  0  0  0  0  0  0  0
    3.4264   -0.1312   -0.3121 O   0  0  0  0  0  0  0  0  0  0  0  0
    0.8695   -0.7955    0.2895 C   0  0  0  0  0  0  0  0  0  0  0  0
   -0.4404   -1.1102    0.4552 C   0  0  0  0  0  0  0  0  0  0  0  0
   -1.8228    1.7190   -0.9359 H   0  0  0  0  0  0  0  0  0  0  0  0
    0.6022    2.3651   -1.0484 H   0  0  0  0  0  0  0  0  0  0  0  0
    1.6661   -1.4778    0.5491 H   0  0  0  0  0  0  0  0  0  0  0  0
   -0.7471   -2.0720    0.8514 H   0  0  0  0  0  0  0  0  0  0  0  0
   -1.4728    2.4001    1.3302 Cl  0  0  0  0  0  0  0  0  0  0  0  0
  1  2  1  0  0  0  0
  1 11  2  0  0  0  0
  2  3  1  0  0  0  0
  4 12  1  6  0  0  0
  4  1  1  0  0  0  0
  4 16  1  0  0  0  0
  5  6  2  0  0  0  0
  5  4  1  0  0  0  0
  6 10  1  0  0  0  0
  7  9  2  0  0  0  0
  7  6  1  0  0  0  0
  8  7  2  0  0  0  0
 10 11  1  0  0  0  0
 10 14  1  0  0  0  0
 11 15  1  0  0  0  0
 13  5  1  0  0  0  0
M  RAD  3   2   2   3   3  10   2
M  END
