Coordinates from ORCA-job 4-NO2PhN2+~Cl-_B3LYPG-6-31G_dp-NX-Scan-d89-09-n800
 OpenBabel11261920193D

 16 16  0  0  1  0  0  0  0  0999 V2000
   -1.4542   -0.1441    0.0927 C   0  0  0  0  0  0  0  0  0  0  0  0
   -2.7218   -0.5151    0.0832 N   0  0  0  0  0  0  0  0  0  0  0  0
   -3.8105   -0.8455    0.0556 N   0  0  0  0  0  0  0  0  0  0  0  0
   -1.1317    1.2668   -0.2112 C   0  0  2  0  0  0  0  0  0  0  0  0
    0.2818    1.4354   -0.5972 C   0  0  0  0  0  0  0  0  0  0  0  0
    1.1894    0.4795   -0.2957 C   0  0  0  0  0  0  0  0  0  0  0  0
    2.6072    0.7336   -0.6340 N   0  0  0  0  0  0  0  0  0  0  0  0
    2.8853    1.7847   -1.2049 O   0  0  0  0  0  0  0  0  0  0  0  0
    3.4184   -0.1362   -0.3210 O   0  0  0  0  0  0  0  0  0  0  0  0
    0.8635   -0.7848    0.3086 C   0  0  0  0  0  0  0  0  0  0  0  0
   -0.4462   -1.0971    0.4792 C   0  0  0  0  0  0  0  0  0  0  0  0
   -1.8340    1.7448   -0.8895 H   0  0  0  0  0  0  0  0  0  0  0  0
    0.5943    2.3606   -1.0635 H   0  0  0  0  0  0  0  0  0  0  0  0
    1.6598   -1.4650    0.5747 H   0  0  0  0  0  0  0  0  0  0  0  0
   -0.7532   -2.0565    0.8808 H   0  0  0  0  0  0  0  0  0  0  0  0
   -1.4013    2.4174    1.3720 Cl  0  0  0  0  0  0  0  0  0  0  0  0
  1 11  2  0  0  0  0
  2  1  1  0  0  0  0
  3  2  1  0  0  0  0
  4 12  1  6  0  0  0
  4  1  1  0  0  0  0
  4 16  1  0  0  0  0
  5  6  2  0  0  0  0
  5  4  1  0  0  0  0
  6 10  1  0  0  0  0
  7  9  2  0  0  0  0
  7  6  1  0  0  0  0
  8  7  2  0  0  0  0
 10 11  1  0  0  0  0
 10 14  1  0  0  0  0
 11 15  1  0  0  0  0
 13  5  1  0  0  0  0
M  RAD  3   2   2   3   3  10   2
M  END
