Coordinates from ORCA-job 4-NO2PhN2+~Cl-_B3LYPG-6-31G_dp-NX-Scan-d89-09-n800
 OpenBabel11261920193D

 16 15  0  0  0  0  0  0  0  0999 V2000
   -1.4839   -0.2890    0.0239 C   0  0  0  0  0  0  0  0  0  0  0  0
   -2.7688   -0.7409    0.0203 N   0  0  0  0  0  0  0  0  0  0  0  0
   -3.7865   -1.2286   -0.0026 N   0  0  0  0  0  0  0  0  0  0  0  0
   -1.1808    1.0528   -0.3218 C   0  0  0  0  0  0  0  0  0  0  0  0
    0.1664    1.3830   -0.4886 C   0  0  0  0  0  0  0  0  0  0  0  0
    1.1352    0.4129   -0.2565 C   0  0  0  0  0  0  0  0  0  0  0  0
    2.5468    0.7525   -0.4859 N   0  0  0  0  0  0  0  0  0  0  0  0
    2.7919    1.8508   -0.9737 O   0  0  0  0  0  0  0  0  0  0  0  0
    3.3826   -0.1026   -0.1862 O   0  0  0  0  0  0  0  0  0  0  0  0
    0.8329   -0.8885    0.1893 C   0  0  0  0  0  0  0  0  0  0  0  0
   -0.4803   -1.2637    0.3233 C   0  0  0  0  0  0  0  0  0  0  0  0
   -1.9477    1.8011   -0.4831 H   0  0  0  0  0  0  0  0  0  0  0  0
    0.4378    2.3948   -0.7629 H   0  0  0  0  0  0  0  0  0  0  0  0
    1.6427   -1.5756    0.3990 H   0  0  0  0  0  0  0  0  0  0  0  0
   -0.7638   -2.2617    0.6352 H   0  0  0  0  0  0  0  0  0  0  0  0
   -0.5776    3.8811    1.0000 Cl  0  0  0  0  0  0  0  0  0  0  0  0
  1 11  2  0  0  0  0
  2  1  1  0  0  0  0
  3  2  1  0  0  0  0
  4  1  1  0  0  0  0
  5  4  2  0  0  0  0
  5  6  1  0  0  0  0
  6 10  2  0  0  0  0
  7  6  1  0  0  0  0
  7  9  2  0  0  0  0
  8  7  2  0  0  0  0
 10 11  1  0  0  0  0
 10 14  1  0  0  0  0
 11 15  1  0  0  0  0
 12  4  1  0  0  0  0
 13  5  1  0  0  0  0
M  RAD  3   2   2   3   3  16   2
M  END
