Coordinates from ORCA-job 4-NO2PhN2+~Cl-_B3LYPG-6-31G_dp-NX-Scan-d89-09-n800
 OpenBabel11261920193D

 16 16  0  0  0  0  0  0  0  0999 V2000
   -1.2454    0.1558    0.5623 C   0  0  0  0  0  0  0  0  0  0  0  0
   -2.5265    0.0094    1.1817 N   0  0  0  0  0  0  0  0  0  0  0  0
   -3.6031    0.1722    0.5775 N   0  0  0  0  0  0  0  0  0  0  0  0
   -0.7161    1.4305    0.3143 C   0  0  0  0  0  0  0  0  0  0  0  0
    0.5819    1.5539   -0.1679 C   0  0  0  0  0  0  0  0  0  0  0  0
    1.3298    0.3994   -0.3937 C   0  0  0  0  0  0  0  0  0  0  0  0
    2.7006    0.5292   -0.9104 N   0  0  0  0  0  0  0  0  0  0  0  0
    3.1241    1.6650   -1.1211 O   0  0  0  0  0  0  0  0  0  0  0  0
    3.3376   -0.5058   -1.1008 O   0  0  0  0  0  0  0  0  0  0  0  0
    0.8225   -0.8736   -0.1380 C   0  0  0  0  0  0  0  0  0  0  0  0
   -0.4706   -0.9934    0.3591 C   0  0  0  0  0  0  0  0  0  0  0  0
   -1.3156    2.3137    0.5072 H   0  0  0  0  0  0  0  0  0  0  0  0
    1.0216    2.5218   -0.3734 H   0  0  0  0  0  0  0  0  0  0  0  0
    1.4437   -1.7413   -0.3213 H   0  0  0  0  0  0  0  0  0  0  0  0
   -0.8872   -1.9678    0.5896 H   0  0  0  0  0  0  0  0  0  0  0  0
   -3.6505    0.5096   -0.9354 Cl  0  0  0  0  0  0  0  0  0  0  0  0
  1  2  1  0  0  0  0
  3  2  2  0  0  0  0
  4 12  1  0  0  0  0
  4  1  2  0  0  0  0
  5  4  1  0  0  0  0
  6  5  2  0  0  0  0
  6 10  1  0  0  0  0
  7  6  1  0  0  0  0
  8  7  2  0  0  0  0
  9  7  2  0  0  0  0
 10 11  2  0  0  0  0
 11  1  1  0  0  0  0
 11 15  1  0  0  0  0
 13  5  1  0  0  0  0
 14 10  1  0  0  0  0
 16  3  1  0  0  0  0
M  END
