Coordinates from ORCA-job 4-NO2PhN2+~Cl-_B3LYPG-6-31G_dp-NX-Scan-d89-09-n800
 OpenBabel11261920193D

 16 16  0  0  0  0  0  0  0  0999 V2000
   -1.2434    0.1372    0.5576 C   0  0  0  0  0  0  0  0  0  0  0  0
   -2.5241   -0.0228    1.1693 N   0  0  0  0  0  0  0  0  0  0  0  0
   -3.6055    0.1845    0.6017 N   0  0  0  0  0  0  0  0  0  0  0  0
   -0.7258    1.4152    0.3027 C   0  0  0  0  0  0  0  0  0  0  0  0
    0.5727    1.5459   -0.1761 C   0  0  0  0  0  0  0  0  0  0  0  0
    1.3301    0.3960   -0.3936 C   0  0  0  0  0  0  0  0  0  0  0  0
    2.7013    0.5341   -0.9085 N   0  0  0  0  0  0  0  0  0  0  0  0
    3.1153    1.6721   -1.1251 O   0  0  0  0  0  0  0  0  0  0  0  0
    3.3469   -0.4968   -1.0912 O   0  0  0  0  0  0  0  0  0  0  0  0
    0.8335   -0.8798   -0.1310 C   0  0  0  0  0  0  0  0  0  0  0  0
   -0.4588   -1.0070    0.3663 C   0  0  0  0  0  0  0  0  0  0  0  0
   -1.3335    2.2944    0.4869 H   0  0  0  0  0  0  0  0  0  0  0  0
    1.0051    2.5159   -0.3865 H   0  0  0  0  0  0  0  0  0  0  0  0
    1.4624   -1.7432   -0.3075 H   0  0  0  0  0  0  0  0  0  0  0  0
   -0.8682   -1.9827    0.6038 H   0  0  0  0  0  0  0  0  0  0  0  0
   -3.6611    0.6153   -0.9391 Cl  0  0  0  0  0  0  0  0  0  0  0  0
  1  2  1  0  0  0  0
  3  2  2  0  0  0  0
  4 12  1  0  0  0  0
  4  1  2  0  0  0  0
  5  4  1  0  0  0  0
  6  5  2  0  0  0  0
  6 10  1  0  0  0  0
  7  6  1  0  0  0  0
  8  7  2  0  0  0  0
  9  7  2  0  0  0  0
 10 11  2  0  0  0  0
 11  1  1  0  0  0  0
 11 15  1  0  0  0  0
 13  5  1  0  0  0  0
 14 10  1  0  0  0  0
 16  3  1  0  0  0  0
M  END
