Coordinates from ORCA-job 4-NO2PhN2+~Cl-_B3LYPG-6-31G_dp-NX-Scan-d89-09-n800
 OpenBabel11261920193D

 16 15  0  0  0  0  0  0  0  0999 V2000
   -1.5568   -0.5250   -0.0236 C   0  0  0  0  0  0  0  0  0  0  0  0
   -2.8037   -1.0433    0.0588 N   0  0  0  0  0  0  0  0  0  0  0  0
   -3.8442   -1.4811    0.1301 N   0  0  0  0  0  0  0  0  0  0  0  0
   -1.4041    0.8596   -0.3114 C   0  0  0  0  0  0  0  0  0  0  0  0
   -0.1261    1.3674   -0.4245 C   0  0  0  0  0  0  0  0  0  0  0  0
    0.9659    0.5046   -0.2280 C   0  0  0  0  0  0  0  0  0  0  0  0
    2.3005    1.0418   -0.3582 N   0  0  0  0  0  0  0  0  0  0  0  0
    2.3866    2.1229   -0.9542 O   0  0  0  0  0  0  0  0  0  0  0  0
    3.2368    0.4006    0.1402 O   0  0  0  0  0  0  0  0  0  0  0  0
    0.8154   -0.8512    0.1053 C   0  0  0  0  0  0  0  0  0  0  0  0
   -0.4492   -1.3903    0.1943 C   0  0  0  0  0  0  0  0  0  0  0  0
   -2.2761    1.4934   -0.4250 H   0  0  0  0  0  0  0  0  0  0  0  0
    0.0663    2.4246   -0.5969 H   0  0  0  0  0  0  0  0  0  0  0  0
    1.7034   -1.4461    0.2795 H   0  0  0  0  0  0  0  0  0  0  0  0
   -0.6098   -2.4369    0.4260 H   0  0  0  0  0  0  0  0  0  0  0  0
    1.5422    4.1374    0.6172 Cl  0  0  0  0  0  0  0  0  0  0  0  0
  1  2  1  0  0  0  0
  1 11  2  0  0  0  0
  2  3  1  0  0  0  0
  4  1  1  0  0  0  0
  5  4  2  0  0  0  0
  5  6  1  0  0  0  0
  6 10  2  0  0  0  0
  7  6  1  0  0  0  0
  7  9  2  0  0  0  0
  8  7  2  0  0  0  0
 10 11  1  0  0  0  0
 10 14  1  0  0  0  0
 11 15  1  0  0  0  0
 12  4  1  0  0  0  0
 13  5  1  0  0  0  0
M  RAD  3   2   2   3   3  16   2
M  END
