Coordinates from ORCA-job 4-NO2PhN2+~Cl-_B3LYPG-6-31G_dp-NX-Scan-d89-09-n800
 OpenBabel11261920193D

 16 16  0  0  1  0  0  0  0  0999 V2000
   -1.4684   -0.1199    0.1269 C   0  0  2  0  0  0  0  0  0  0  0  0
   -2.7127   -0.5495   -0.0112 N   0  0  0  0  0  0  0  0  0  0  0  0
   -3.7559   -0.9849   -0.1557 N   0  0  0  0  0  0  0  0  0  0  0  0
   -1.1329    1.2905   -0.1593 C   0  0  2  0  0  0  0  0  0  0  0  0
    0.2669    1.4381   -0.5971 C   0  0  0  0  0  0  0  0  0  0  0  0
    1.1745    0.4816   -0.2961 C   0  0  0  0  0  0  0  0  0  0  0  0
    2.5849    0.7136   -0.6722 N   0  0  0  0  0  0  0  0  0  0  0  0
    2.8577    1.7438   -1.2829 O   0  0  0  0  0  0  0  0  0  0  0  0
    3.3973   -0.1503   -0.3460 O   0  0  0  0  0  0  0  0  0  0  0  0
    0.8491   -0.7632    0.3480 C   0  0  0  0  0  0  0  0  0  0  0  0
   -0.4597   -1.0709    0.5301 C   0  0  0  0  0  0  0  0  0  0  0  0
   -1.8561    1.7984   -0.7915 H   0  0  0  0  0  0  0  0  0  0  0  0
    0.5745    2.3520   -1.0883 H   0  0  0  0  0  0  0  0  0  0  0  0
    1.6456   -1.4383    0.6271 H   0  0  0  0  0  0  0  0  0  0  0  0
   -0.7667   -2.0248    0.9446 H   0  0  0  0  0  0  0  0  0  0  0  0
   -1.2513    2.4622    1.4533 Cl  0  0  0  0  0  0  0  0  0  0  0  0
  1  2  1  6  0  0  0
  1 11  1  0  0  0  0
  3  2  1  0  0  0  0
  4 12  1  6  0  0  0
  4  1  1  0  0  0  0
  4 16  1  0  0  0  0
  5  6  2  0  0  0  0
  5  4  1  0  0  0  0
  6 10  1  0  0  0  0
  7  9  2  0  0  0  0
  7  6  1  0  0  0  0
  8  7  2  0  0  0  0
 10 11  2  0  0  0  0
 10 14  1  0  0  0  0
 11 15  1  0  0  0  0
 13  5  1  0  0  0  0
M  RAD  3   1   2   2   2   3   3
M  END
