Coordinates from ORCA-job 4-NO2PhN2+~Cl-_B3LYPG-6-31G_dp-NX-Scan-d89-09-n800
 OpenBabel11261920193D

 16 16  0  0  0  0  0  0  0  0999 V2000
   -1.2373    0.0905    0.5377 C   0  0  0  0  0  0  0  0  0  0  0  0
   -2.5196   -0.1050    1.1223 N   0  0  0  0  0  0  0  0  0  0  0  0
   -3.6113    0.1960    0.6744 N   0  0  0  0  0  0  0  0  0  0  0  0
   -0.7504    1.3762    0.2642 C   0  0  0  0  0  0  0  0  0  0  0  0
    0.5509    1.5244   -0.2025 C   0  0  0  0  0  0  0  0  0  0  0  0
    1.3333    0.3868   -0.3933 C   0  0  0  0  0  0  0  0  0  0  0  0
    2.7079    0.5463   -0.8982 N   0  0  0  0  0  0  0  0  0  0  0  0
    3.0986    1.6893   -1.1286 O   0  0  0  0  0  0  0  0  0  0  0  0
    3.3759   -0.4737   -1.0571 O   0  0  0  0  0  0  0  0  0  0  0  0
    0.8643   -0.8953   -0.1126 C   0  0  0  0  0  0  0  0  0  0  0  0
   -0.4273   -1.0408    0.3806 C   0  0  0  0  0  0  0  0  0  0  0  0
   -1.3794    2.2439    0.4224 H   0  0  0  0  0  0  0  0  0  0  0  0
    0.9651    2.4994   -0.4256 H   0  0  0  0  0  0  0  0  0  0  0  0
    1.5138   -1.7473   -0.2681 H   0  0  0  0  0  0  0  0  0  0  0  0
   -0.8191   -2.0188    0.6366 H   0  0  0  0  0  0  0  0  0  0  0  0
   -3.7185    0.9064   -0.9225 Cl  0  0  0  0  0  0  0  0  0  0  0  0
  1  2  1  0  0  0  0
  3  2  2  0  0  0  0
  4 12  1  0  0  0  0
  4  1  2  0  0  0  0
  5  4  1  0  0  0  0
  6  5  2  0  0  0  0
  6 10  1  0  0  0  0
  7  6  1  0  0  0  0
  8  7  2  0  0  0  0
  9  7  2  0  0  0  0
 10 11  2  0  0  0  0
 11  1  1  0  0  0  0
 11 15  1  0  0  0  0
 13  5  1  0  0  0  0
 14 10  1  0  0  0  0
 16  3  1  0  0  0  0
M  END
