Coordinates from ORCA-job 4-NO2PhN2+~Cl-_B3LYPG-6-31G_dp-NX-Scan-d89-09-n800
 OpenBabel11261920193D

 16 16  0  0  1  0  0  0  0  0999 V2000
   -1.4360   -0.1892    0.0472 C   0  0  0  0  0  0  0  0  0  0  0  0
   -2.7130   -0.4576    0.2373 N   0  0  0  0  0  0  0  0  0  0  0  0
   -3.8303   -0.5722    0.4078 N   0  0  0  0  0  0  0  0  0  0  0  0
   -1.1350    1.2206   -0.2987 C   0  0  2  0  0  0  0  0  0  0  0  0
    0.2963    1.4288   -0.5872 C   0  0  0  0  0  0  0  0  0  0  0  0
    1.2050    0.4709   -0.2957 C   0  0  0  0  0  0  0  0  0  0  0  0
    2.6318    0.7634   -0.5698 N   0  0  0  0  0  0  0  0  0  0  0  0
    2.9142    1.8529   -1.0605 O   0  0  0  0  0  0  0  0  0  0  0  0
    3.4441   -0.1143   -0.2839 O   0  0  0  0  0  0  0  0  0  0  0  0
    0.8834   -0.8270    0.2349 C   0  0  0  0  0  0  0  0  0  0  0  0
   -0.4263   -1.1477    0.3948 C   0  0  0  0  0  0  0  0  0  0  0  0
   -1.7936    1.6450   -1.0541 H   0  0  0  0  0  0  0  0  0  0  0  0
    0.6149    2.3752   -1.0040 H   0  0  0  0  0  0  0  0  0  0  0  0
    1.6822   -1.5137    0.4745 H   0  0  0  0  0  0  0  0  0  0  0  0
   -0.7305   -2.1154    0.7782 H   0  0  0  0  0  0  0  0  0  0  0  0
   -1.6605    2.3587    1.2088 Cl  0  0  0  0  0  0  0  0  0  0  0  0
  1  2  1  0  0  0  0
  1 11  2  0  0  0  0
  2  3  1  0  0  0  0
  4 12  1  6  0  0  0
  4  1  1  0  0  0  0
  4 16  1  0  0  0  0
  5  4  1  0  0  0  0
  5  6  2  0  0  0  0
  6 10  1  0  0  0  0
  7  6  1  0  0  0  0
  7  9  2  0  0  0  0
  8  7  2  0  0  0  0
 10 11  1  0  0  0  0
 10 14  1  0  0  0  0
 11 15  1  0  0  0  0
 13  5  1  0  0  0  0
M  RAD  3   2   2   3   3  10   2
M  END
