Coordinates from ORCA-job 4-NO2PhN2+~Cl-_B3LYPG-6-31G_dp-NX-Scan-d89-09-n800
 OpenBabel11261920193D

 16 16  0  0  0  0  0  0  0  0999 V2000
   -1.2741    0.0691    0.4686 C   0  0  0  0  0  0  0  0  0  0  0  0
   -2.5569   -0.1892    1.0607 N   0  0  0  0  0  0  0  0  0  0  0  0
   -3.5837    0.3383    0.4408 N   0  0  0  0  0  0  0  0  0  0  0  0
   -0.7597    1.3561    0.2061 C   0  0  0  0  0  0  0  0  0  0  0  0
    0.5521    1.5181   -0.2224 C   0  0  0  0  0  0  0  0  0  0  0  0
    1.3530    0.3888   -0.3930 C   0  0  0  0  0  0  0  0  0  0  0  0
    2.7338    0.5584   -0.8578 N   0  0  0  0  0  0  0  0  0  0  0  0
    3.1219    1.7037   -1.0922 O   0  0  0  0  0  0  0  0  0  0  0  0
    3.4225   -0.4541   -0.9872 O   0  0  0  0  0  0  0  0  0  0  0  0
    0.8788   -0.8950   -0.1245 C   0  0  0  0  0  0  0  0  0  0  0  0
   -0.4305   -1.0454    0.3139 C   0  0  0  0  0  0  0  0  0  0  0  0
   -1.3713    2.2386    0.3640 H   0  0  0  0  0  0  0  0  0  0  0  0
    0.9659    2.4974   -0.4276 H   0  0  0  0  0  0  0  0  0  0  0  0
    1.5374   -1.7443   -0.2573 H   0  0  0  0  0  0  0  0  0  0  0  0
   -0.8251   -2.0282    0.5501 H   0  0  0  0  0  0  0  0  0  0  0  0
   -3.8173    0.8662   -0.4125 Cl  0  0  0  0  0  0  0  0  0  0  0  0
  1  2  1  0  0  0  0
  3  2  2  0  0  0  0
  4 12  1  0  0  0  0
  4  1  2  0  0  0  0
  5  4  1  0  0  0  0
  6  5  2  0  0  0  0
  6 10  1  0  0  0  0
  7  6  1  0  0  0  0
  8  7  2  0  0  0  0
  9  7  2  0  0  0  0
 10 11  2  0  0  0  0
 11  1  1  0  0  0  0
 11 15  1  0  0  0  0
 13  5  1  0  0  0  0
 14 10  1  0  0  0  0
 16  3  1  0  0  0  0
M  END
