Coordinates from ORCA-job 4-NO2PhN2+~Cl-_B3LYPG-6-31G_dp-NX-Scan-d89-09-n800
 OpenBabel11261920193D

 16 15  0  0  0  0  0  0  0  0999 V2000
   -1.4930   -0.3693    0.0103 C   0  0  0  0  0  0  0  0  0  0  0  0
   -2.7788   -0.8223    0.0433 N   0  0  0  0  0  0  0  0  0  0  0  0
   -3.8078   -1.2850    0.0740 N   0  0  0  0  0  0  0  0  0  0  0  0
   -1.2090    0.9988   -0.2337 C   0  0  0  0  0  0  0  0  0  0  0  0
    0.1249    1.3722   -0.3655 C   0  0  0  0  0  0  0  0  0  0  0  0
    1.1129    0.3991   -0.2092 C   0  0  0  0  0  0  0  0  0  0  0  0
    2.5235    0.7759   -0.4069 N   0  0  0  0  0  0  0  0  0  0  0  0
    2.7492    1.9016   -0.8325 O   0  0  0  0  0  0  0  0  0  0  0  0
    3.3706   -0.0785   -0.1362 O   0  0  0  0  0  0  0  0  0  0  0  0
    0.8339   -0.9382    0.1145 C   0  0  0  0  0  0  0  0  0  0  0  0
   -0.4767   -1.3479    0.2115 C   0  0  0  0  0  0  0  0  0  0  0  0
   -1.9881    1.7499   -0.3126 H   0  0  0  0  0  0  0  0  0  0  0  0
    0.3608    2.4294   -0.5224 H   0  0  0  0  0  0  0  0  0  0  0  0
    1.6549   -1.6288    0.2600 H   0  0  0  0  0  0  0  0  0  0  0  0
   -0.7404   -2.3760    0.4300 H   0  0  0  0  0  0  0  0  0  0  0  0
   -0.2901    4.3976    0.5048 Cl  0  0  0  0  0  0  0  0  0  0  0  0
  1  2  1  0  0  0  0
  1 11  2  0  0  0  0
  2  3  1  0  0  0  0
  4  1  1  0  0  0  0
  5  4  2  0  0  0  0
  5  6  1  0  0  0  0
  6 10  2  0  0  0  0
  7  6  1  0  0  0  0
  7  9  2  0  0  0  0
  8  7  2  0  0  0  0
 10 11  1  0  0  0  0
 10 14  1  0  0  0  0
 11 15  1  0  0  0  0
 12  4  1  0  0  0  0
 13  5  1  0  0  0  0
M  RAD  3   2   2   3   3  16   2
M  END
