Coordinates from ORCA-job 4-NO2PhN2+~Cl-_B3LYPG-6-31G_dp-NX-Scan-d89-09-n800
 OpenBabel11261920193D

 16 15  0  0  0  0  0  0  0  0999 V2000
   -1.4917   -0.1083    0.1466 C   0  0  0  0  0  0  0  0  0  0  0  0
   -2.7075   -0.6146   -0.0964 N   0  0  0  0  0  0  0  0  0  0  0  0
   -3.6628   -1.1837   -0.3460 N   0  0  0  0  0  0  0  0  0  0  0  0
   -1.1435    1.2702   -0.1718 C   0  0  0  0  0  0  0  0  0  0  0  0
    0.2339    1.4300   -0.5964 C   0  0  0  0  0  0  0  0  0  0  0  0
    1.1494    0.4694   -0.3042 C   0  0  0  0  0  0  0  0  0  0  0  0
    2.5547    0.6999   -0.6839 N   0  0  0  0  0  0  0  0  0  0  0  0
    2.8221    1.7235   -1.3079 O   0  0  0  0  0  0  0  0  0  0  0  0
    3.3693   -0.1611   -0.3529 O   0  0  0  0  0  0  0  0  0  0  0  0
    0.8240   -0.7592    0.3587 C   0  0  0  0  0  0  0  0  0  0  0  0
   -0.4840   -1.0611    0.5626 C   0  0  0  0  0  0  0  0  0  0  0  0
   -1.8963    1.8628   -0.6762 H   0  0  0  0  0  0  0  0  0  0  0  0
    0.5403    2.3514   -1.0737 H   0  0  0  0  0  0  0  0  0  0  0  0
    1.6204   -1.4325    0.6445 H   0  0  0  0  0  0  0  0  0  0  0  0
   -0.7913   -2.0078    0.9922 H   0  0  0  0  0  0  0  0  0  0  0  0
   -0.9903    2.6996    1.5345 Cl  0  0  0  0  0  0  0  0  0  0  0  0
  1 11  1  0  0  0  0
  2  1  1  0  0  0  0
  3  2  1  0  0  0  0
  4  1  2  0  0  0  0
  5  6  2  0  0  0  0
  5  4  1  0  0  0  0
  6 10  1  0  0  0  0
  7  9  2  0  0  0  0
  7  6  1  0  0  0  0
  8  7  2  0  0  0  0
 10 11  2  0  0  0  0
 10 14  1  0  0  0  0
 11 15  1  0  0  0  0
 12  4  1  0  0  0  0
 13  5  1  0  0  0  0
M  RAD  3   2   2   3   3  16   2
M  END
