Coordinates from ORCA-job 4-NO2PhN2+~Cl-_B3LYPG-6-31G_dp-NX-Scan-d89-09-n800
 OpenBabel11261920193D

 16 16  0  0  1  0  0  0  0  0999 V2000
   -1.4267   -0.2204    0.0307 C   0  0  0  0  0  0  0  0  0  0  0  0
   -2.6951   -0.4248    0.3266 N   0  0  0  0  0  0  0  0  0  0  0  0
   -3.7939   -0.3690    0.6081 N   0  0  0  0  0  0  0  0  0  0  0  0
   -1.1416    1.1888   -0.3465 C   0  0  2  0  0  0  0  0  0  0  0  0
    0.2975    1.4237   -0.5712 C   0  0  0  0  0  0  0  0  0  0  0  0
    1.2084    0.4636   -0.2940 C   0  0  0  0  0  0  0  0  0  0  0  0
    2.6380    0.7805   -0.5310 N   0  0  0  0  0  0  0  0  0  0  0  0
    2.9186    1.8924   -0.9694 O   0  0  0  0  0  0  0  0  0  0  0  0
    3.4533   -0.1015   -0.2687 O   0  0  0  0  0  0  0  0  0  0  0  0
    0.8939   -0.8554    0.1876 C   0  0  0  0  0  0  0  0  0  0  0  0
   -0.4144   -1.1832    0.3466 C   0  0  0  0  0  0  0  0  0  0  0  0
   -1.7665    1.5737   -1.1513 H   0  0  0  0  0  0  0  0  0  0  0  0
    0.6173    2.3841   -0.9538 H   0  0  0  0  0  0  0  0  0  0  0  0
    1.6966   -1.5439    0.4075 H   0  0  0  0  0  0  0  0  0  0  0  0
   -0.7143   -2.1566    0.7190 H   0  0  0  0  0  0  0  0  0  0  0  0
   -1.8241    2.3264    1.0897 Cl  0  0  0  0  0  0  0  0  0  0  0  0
  1  2  1  0  0  0  0
  1 11  2  0  0  0  0
  2  3  1  0  0  0  0
  4 12  1  6  0  0  0
  4  1  1  0  0  0  0
  4 16  1  0  0  0  0
  5  4  1  0  0  0  0
  5  6  2  0  0  0  0
  6 10  1  0  0  0  0
  7  6  1  0  0  0  0
  7  9  2  0  0  0  0
  8  7  2  0  0  0  0
 10 11  1  0  0  0  0
 10 14  1  0  0  0  0
 11 15  1  0  0  0  0
 13  5  1  0  0  0  0
M  RAD  3   2   2   3   3  10   2
M  END
