Coordinates from ORCA-job 4-NO2PhN2+~Cl-_B3LYPG-6-31G_dp-NX-Scan-d89-09-n800
 OpenBabel11261920193D

 16 15  0  0  0  0  0  0  0  0999 V2000
   -1.4830   -0.1802    0.0703 C   0  0  0  0  0  0  0  0  0  0  0  0
   -2.7492   -0.6451   -0.0134 N   0  0  0  0  0  0  0  0  0  0  0  0
   -3.7514   -1.1600   -0.1277 N   0  0  0  0  0  0  0  0  0  0  0  0
   -1.1565    1.1483   -0.3314 C   0  0  0  0  0  0  0  0  0  0  0  0
    0.2104    1.4060   -0.5952 C   0  0  0  0  0  0  0  0  0  0  0  0
    1.1514    0.4471   -0.3048 C   0  0  0  0  0  0  0  0  0  0  0  0
    2.5631    0.7376   -0.5891 N   0  0  0  0  0  0  0  0  0  0  0  0
    2.8276    1.8013   -1.1434 O   0  0  0  0  0  0  0  0  0  0  0  0
    3.3863   -0.1184   -0.2623 O   0  0  0  0  0  0  0  0  0  0  0  0
    0.8293   -0.8071    0.2803 C   0  0  0  0  0  0  0  0  0  0  0  0
   -0.4812   -1.1369    0.4645 C   0  0  0  0  0  0  0  0  0  0  0  0
   -1.9237    1.8277   -0.6733 H   0  0  0  0  0  0  0  0  0  0  0  0
    0.5106    2.3623   -0.9995 H   0  0  0  0  0  0  0  0  0  0  0  0
    1.6297   -1.4840    0.5483 H   0  0  0  0  0  0  0  0  0  0  0  0
   -0.7810   -2.0963    0.8688 H   0  0  0  0  0  0  0  0  0  0  0  0
   -0.8355    3.0760    1.4377 Cl  0  0  0  0  0  0  0  0  0  0  0  0
  1 11  2  0  0  0  0
  2  1  1  0  0  0  0
  3  2  1  0  0  0  0
  4  1  1  0  0  0  0
  5  4  2  0  0  0  0
  5  6  1  0  0  0  0
  6 10  2  0  0  0  0
  7  6  1  0  0  0  0
  7  9  2  0  0  0  0
  8  7  2  0  0  0  0
 10 11  1  0  0  0  0
 10 14  1  0  0  0  0
 11 15  1  0  0  0  0
 12  4  1  0  0  0  0
 13  5  1  0  0  0  0
M  RAD  3   2   2   3   3  16   2
M  END
