Coordinates from ORCA-job 4-NO2PhN2+~Cl-_B3LYPG-6-31G_dp-NX-Scan-d89-09-n800
 OpenBabel11261920193D

 16 15  0  0  0  0  0  0  0  0999 V2000
   -1.2373   -0.1042    0.2729 C   0  0  0  0  0  0  0  0  0  0  0  0
   -2.5711   -0.4037    0.6215 N   0  0  0  0  0  0  0  0  0  0  0  0
   -3.6417    0.0190    0.7422 N   0  0  0  0  0  0  0  0  0  0  0  0
   -0.8689    1.1909   -0.1172 C   0  0  0  0  0  0  0  0  0  0  0  0
    0.4646    1.4146   -0.4476 C   0  0  0  0  0  0  0  0  0  0  0  0
    1.3682    0.3559   -0.3781 C   0  0  0  0  0  0  0  0  0  0  0  0
    2.7846    0.6074   -0.7315 N   0  0  0  0  0  0  0  0  0  0  0  0
    3.0854    1.7477   -1.0702 O   0  0  0  0  0  0  0  0  0  0  0  0
    3.5581   -0.3438   -0.6605 O   0  0  0  0  0  0  0  0  0  0  0  0
    1.0012   -0.9321    0.0099 C   0  0  0  0  0  0  0  0  0  0  0  0
   -0.3267   -1.1669    0.3416 C   0  0  0  0  0  0  0  0  0  0  0  0
   -1.6212    1.9742   -0.1511 H   0  0  0  0  0  0  0  0  0  0  0  0
    0.8103    2.3929   -0.7569 H   0  0  0  0  0  0  0  0  0  0  0  0
    1.7476   -1.7150    0.0453 H   0  0  0  0  0  0  0  0  0  0  0  0
   -0.6659   -2.1489    0.6508 H   0  0  0  0  0  0  0  0  0  0  0  0
   -3.9405    2.2907    0.2584 Cl  0  0  0  0  0  0  0  0  0  0  0  0
  1 11  1  0  0  0  0
  1  2  1  0  0  0  0
  2  3  2  0  0  0  0
  4  1  2  0  0  0  0
  5  6  2  0  0  0  0
  5  4  1  0  0  0  0
  6 10  1  0  0  0  0
  7  9  2  0  0  0  0
  7  6  1  0  0  0  0
  8  7  2  0  0  0  0
 10 14  1  0  0  0  0
 10 11  2  0  0  0  0
 11 15  1  0  0  0  0
 12  4  1  0  0  0  0
 13  5  1  0  0  0  0
M  RAD  2   3   2  16   2
M  END
