Coordinates from ORCA-job 4-NO2PhN2+~Cl-_B3LYPG-6-31G_dp-NX-Scan-d89-09-n800
 OpenBabel11261920193D

 16 16  0  0  0  0  0  0  0  0999 V2000
   -1.2401    0.1130    0.5494 C   0  0  0  0  0  0  0  0  0  0  0  0
   -2.5213   -0.0654    1.1477 N   0  0  0  0  0  0  0  0  0  0  0  0
   -3.6085    0.1934    0.6394 N   0  0  0  0  0  0  0  0  0  0  0  0
   -0.7385    1.3951    0.2852 C   0  0  0  0  0  0  0  0  0  0  0  0
    0.5611    1.5350   -0.1884 C   0  0  0  0  0  0  0  0  0  0  0  0
    1.3311    0.3913   -0.3934 C   0  0  0  0  0  0  0  0  0  0  0  0
    2.7035    0.5405   -0.9047 N   0  0  0  0  0  0  0  0  0  0  0  0
    3.1053    1.6812   -1.1284 O   0  0  0  0  0  0  0  0  0  0  0  0
    3.3604   -0.4849   -1.0764 O   0  0  0  0  0  0  0  0  0  0  0  0
    0.8489   -0.8879   -0.1214 C   0  0  0  0  0  0  0  0  0  0  0  0
   -0.4425   -1.0247    0.3752 C   0  0  0  0  0  0  0  0  0  0  0  0
   -1.3571    2.2685    0.4568 H   0  0  0  0  0  0  0  0  0  0  0  0
    0.9839    2.5077   -0.4054 H   0  0  0  0  0  0  0  0  0  0  0  0
    1.4882   -1.7455   -0.2881 H   0  0  0  0  0  0  0  0  0  0  0  0
   -0.8426   -2.0017    0.6223 H   0  0  0  0  0  0  0  0  0  0  0  0
   -3.6850    0.7629   -0.9403 Cl  0  0  0  0  0  0  0  0  0  0  0  0
  1  2  1  0  0  0  0
  3  2  2  0  0  0  0
  4 12  1  0  0  0  0
  4  1  2  0  0  0  0
  5  4  1  0  0  0  0
  6  5  2  0  0  0  0
  6 10  1  0  0  0  0
  7  6  1  0  0  0  0
  8  7  2  0  0  0  0
  9  7  2  0  0  0  0
 10 11  2  0  0  0  0
 11  1  1  0  0  0  0
 11 15  1  0  0  0  0
 13  5  1  0  0  0  0
 14 10  1  0  0  0  0
 16  3  1  0  0  0  0
M  END
