Coordinates from ORCA-job 4-NO2PhN2+~Cl-_B3LYPG-6-31G_dp-NX-Scan-d89-09-n800
 OpenBabel11261920193D

 16 15  0  0  0  0  0  0  0  0999 V2000
   -1.5617   -0.5280   -0.0234 C   0  0  0  0  0  0  0  0  0  0  0  0
   -2.8051   -1.0544    0.0523 N   0  0  0  0  0  0  0  0  0  0  0  0
   -3.8408   -1.5048    0.1181 N   0  0  0  0  0  0  0  0  0  0  0  0
   -1.4126    0.8570   -0.3122 C   0  0  0  0  0  0  0  0  0  0  0  0
   -0.1363    1.3688   -0.4229 C   0  0  0  0  0  0  0  0  0  0  0  0
    0.9594    0.5107   -0.2240 C   0  0  0  0  0  0  0  0  0  0  0  0
    2.2913    1.0488   -0.3581 N   0  0  0  0  0  0  0  0  0  0  0  0
    2.3737    2.1310   -0.9555 O   0  0  0  0  0  0  0  0  0  0  0  0
    3.2317    0.4093    0.1351 O   0  0  0  0  0  0  0  0  0  0  0  0
    0.8122   -0.8455    0.1112 C   0  0  0  0  0  0  0  0  0  0  0  0
   -0.4505   -1.3885    0.1988 C   0  0  0  0  0  0  0  0  0  0  0  0
   -2.2865    1.4873   -0.4307 H   0  0  0  0  0  0  0  0  0  0  0  0
    0.0544    2.4243   -0.6024 H   0  0  0  0  0  0  0  0  0  0  0  0
    1.7019   -1.4371    0.2876 H   0  0  0  0  0  0  0  0  0  0  0  0
   -0.6076   -2.4352    0.4320 H   0  0  0  0  0  0  0  0  0  0  0  0
    1.6233    4.1347    0.6239 Cl  0  0  0  0  0  0  0  0  0  0  0  0
  1  2  1  0  0  0  0
  1 11  2  0  0  0  0
  2  3  1  0  0  0  0
  4  1  1  0  0  0  0
  5  4  2  0  0  0  0
  5  6  1  0  0  0  0
  6 10  2  0  0  0  0
  7  6  1  0  0  0  0
  7  9  2  0  0  0  0
  8  7  2  0  0  0  0
 10 11  1  0  0  0  0
 10 14  1  0  0  0  0
 11 15  1  0  0  0  0
 12  4  1  0  0  0  0
 13  5  1  0  0  0  0
M  RAD  3   2   2   3   3  16   2
M  END
