Coordinates from ORCA-job 4-NO2PhN2+~Cl-_B3LYPG-6-31G_dp-NX-Scan-d89-09-n800
 OpenBabel11261920193D

 16 15  0  0  0  0  0  0  0  0999 V2000
   -1.5285   -0.4826   -0.0107 C   0  0  0  0  0  0  0  0  0  0  0  0
   -2.7987   -0.9665    0.0386 N   0  0  0  0  0  0  0  0  0  0  0  0
   -3.8429   -1.3934    0.0998 N   0  0  0  0  0  0  0  0  0  0  0  0
   -1.3154    0.9101   -0.1829 C   0  0  0  0  0  0  0  0  0  0  0  0
   -0.0120    1.3691   -0.2921 C   0  0  0  0  0  0  0  0  0  0  0  0
    1.0289    0.4394   -0.1791 C   0  0  0  0  0  0  0  0  0  0  0  0
    2.4115    0.9101   -0.3287 N   0  0  0  0  0  0  0  0  0  0  0  0
    2.5660    2.0028   -0.8611 O   0  0  0  0  0  0  0  0  0  0  0  0
    3.3024    0.1653    0.0931 O   0  0  0  0  0  0  0  0  0  0  0  0
    0.8239   -0.9250    0.0684 C   0  0  0  0  0  0  0  0  0  0  0  0
   -0.4646   -1.4136    0.1292 C   0  0  0  0  0  0  0  0  0  0  0  0
   -2.1522    1.5992   -0.2173 H   0  0  0  0  0  0  0  0  0  0  0  0
    0.1997    2.4464   -0.3988 H   0  0  0  0  0  0  0  0  0  0  0  0
    1.6830   -1.5740    0.1844 H   0  0  0  0  0  0  0  0  0  0  0  0
   -0.6709   -2.4672    0.2777 H   0  0  0  0  0  0  0  0  0  0  0  0
    0.7165    4.5584    0.2093 Cl  0  0  0  0  0  0  0  0  0  0  0  0
  1  2  1  0  0  0  0
  1 11  2  0  0  0  0
  2  3  1  0  0  0  0
  4  1  1  0  0  0  0
  5  4  2  0  0  0  0
  5  6  1  0  0  0  0
  6 10  2  0  0  0  0
  7  6  1  0  0  0  0
  7  9  2  0  0  0  0
  8  7  2  0  0  0  0
 10 11  1  0  0  0  0
 10 14  1  0  0  0  0
 11 15  1  0  0  0  0
 12  4  1  0  0  0  0
 13  5  1  0  0  0  0
M  RAD  3   2   2   3   3  16   2
M  END
