Coordinates from ORCA-job 4-NO2PhN2+~Cl-_B3LYPG-6-31G_dp-NX-Scan-d89-09-n800
 OpenBabel11261920193D

 16 16  0  0  1  0  0  0  0  0999 V2000
   -1.4819   -0.1030    0.1533 C   0  0  2  0  0  0  0  0  0  0  0  0
   -2.6996   -0.5783   -0.0810 N   0  0  0  0  0  0  0  0  0  0  0  0
   -3.6928   -1.0913   -0.3101 N   0  0  0  0  0  0  0  0  0  0  0  0
   -1.1359    1.3041   -0.1268 C   0  0  2  0  0  0  0  0  0  0  0  0
    0.2523    1.4393   -0.5940 C   0  0  0  0  0  0  0  0  0  0  0  0
    1.1603    0.4809   -0.2966 C   0  0  0  0  0  0  0  0  0  0  0  0
    2.5649    0.6986   -0.6969 N   0  0  0  0  0  0  0  0  0  0  0  0
    2.8330    1.7146   -1.3331 O   0  0  0  0  0  0  0  0  0  0  0  0
    3.3777   -0.1641   -0.3678 O   0  0  0  0  0  0  0  0  0  0  0  0
    0.8359   -0.7502    0.3730 C   0  0  0  0  0  0  0  0  0  0  0  0
   -0.4719   -1.0534    0.5667 C   0  0  0  0  0  0  0  0  0  0  0  0
   -1.8729    1.8386   -0.7186 H   0  0  0  0  0  0  0  0  0  0  0  0
    0.5570    2.3475   -1.0976 H   0  0  0  0  0  0  0  0  0  0  0  0
    1.6328   -1.4218    0.6600 H   0  0  0  0  0  0  0  0  0  0  0  0
   -0.7790   -2.0026    0.9919 H   0  0  0  0  0  0  0  0  0  0  0  0
   -1.1329    2.5197    1.5073 Cl  0  0  0  0  0  0  0  0  0  0  0  0
  1  2  1  6  0  0  0
  1 11  1  0  0  0  0
  3  2  1  0  0  0  0
  4 12  1  6  0  0  0
  4  1  1  0  0  0  0
  4 16  1  0  0  0  0
  5  6  2  0  0  0  0
  5  4  1  0  0  0  0
  6 10  1  0  0  0  0
  7  9  2  0  0  0  0
  7  6  1  0  0  0  0
  8  7  2  0  0  0  0
 10 11  2  0  0  0  0
 10 14  1  0  0  0  0
 11 15  1  0  0  0  0
 13  5  1  0  0  0  0
M  RAD  3   1   2   2   2   3   3
M  END
