Coordinates from ORCA-job 4-NO2PhN2+~Cl-_B3LYPG-6-31G_dp-NX-Scan-d89-09-n800
 OpenBabel11261920193D

 16 16  0  0  0  0  0  0  0  0999 V2000
   -1.2539   -0.0670    0.2717 C   0  0  0  0  0  0  0  0  0  0  0  0
   -2.5773   -0.4005    0.6314 N   0  0  0  0  0  0  0  0  0  0  0  0
   -3.6535    0.0619    0.7387 N   0  0  0  0  0  0  0  0  0  0  0  0
   -0.8548    1.2208   -0.1212 C   0  0  0  0  0  0  0  0  0  0  0  0
    0.4815    1.4277   -0.4501 C   0  0  0  0  0  0  0  0  0  0  0  0
    1.3737    0.3598   -0.3806 C   0  0  0  0  0  0  0  0  0  0  0  0
    2.7917    0.5943   -0.7323 N   0  0  0  0  0  0  0  0  0  0  0  0
    3.1079    1.7316   -1.0697 O   0  0  0  0  0  0  0  0  0  0  0  0
    3.5549   -0.3655   -0.6619 O   0  0  0  0  0  0  0  0  0  0  0  0
    0.9871   -0.9216    0.0076 C   0  0  0  0  0  0  0  0  0  0  0  0
   -0.3447   -1.1341    0.3379 C   0  0  0  0  0  0  0  0  0  0  0  0
   -1.5785    2.0242   -0.1635 H   0  0  0  0  0  0  0  0  0  0  0  0
    0.8393    2.4017   -0.7591 H   0  0  0  0  0  0  0  0  0  0  0  0
    1.7208   -1.7163    0.0449 H   0  0  0  0  0  0  0  0  0  0  0  0
   -0.6976   -2.1110    0.6481 H   0  0  0  0  0  0  0  0  0  0  0  0
   -3.9495    2.0722    0.2877 Cl  0  0  0  0  0  0  0  0  0  0  0  0
  1 11  1  0  0  0  0
  1  2  1  0  0  0  0
  2  3  2  0  0  0  0
  4  1  2  0  0  0  0
  5  6  2  0  0  0  0
  5  4  1  0  0  0  0
  6 10  1  0  0  0  0
  7  9  2  0  0  0  0
  7  6  1  0  0  0  0
  8  7  2  0  0  0  0
 10 14  1  0  0  0  0
 10 11  2  0  0  0  0
 11 15  1  0  0  0  0
 12  4  1  0  0  0  0
 13  5  1  0  0  0  0
 16  3  1  0  0  0  0
M  END
