Coordinates from ORCA-job 4-NO2PhN2+~Cl-_B3LYPG-6-31G_dp-NX-Scan-d89-09-n800
 OpenBabel11261920193D

 16 15  0  0  0  0  0  0  0  0999 V2000
   -1.4819   -0.2120    0.0501 C   0  0  0  0  0  0  0  0  0  0  0  0
   -2.7578   -0.6663   -0.0003 N   0  0  0  0  0  0  0  0  0  0  0  0
   -3.7708   -1.1627   -0.0802 N   0  0  0  0  0  0  0  0  0  0  0  0
   -1.1643    1.1121   -0.3565 C   0  0  0  0  0  0  0  0  0  0  0  0
    0.1966    1.3999   -0.5775 C   0  0  0  0  0  0  0  0  0  0  0  0
    1.1474    0.4401   -0.2947 C   0  0  0  0  0  0  0  0  0  0  0  0
    2.5586    0.7482   -0.5564 N   0  0  0  0  0  0  0  0  0  0  0  0
    2.8175    1.8214   -1.0943 O   0  0  0  0  0  0  0  0  0  0  0  0
    3.3863   -0.1065   -0.2360 O   0  0  0  0  0  0  0  0  0  0  0  0
    0.8306   -0.8259    0.2573 C   0  0  0  0  0  0  0  0  0  0  0  0
   -0.4803   -1.1711    0.4285 C   0  0  0  0  0  0  0  0  0  0  0  0
   -1.9342    1.8150   -0.6420 H   0  0  0  0  0  0  0  0  0  0  0  0
    0.4904    2.3678   -0.9572 H   0  0  0  0  0  0  0  0  0  0  0  0
    1.6344   -1.5029    0.5155 H   0  0  0  0  0  0  0  0  0  0  0  0
   -0.7751   -2.1391    0.8149 H   0  0  0  0  0  0  0  0  0  0  0  0
   -0.7507    3.2605    1.3585 Cl  0  0  0  0  0  0  0  0  0  0  0  0
  1 11  2  0  0  0  0
  2  1  1  0  0  0  0
  3  2  1  0  0  0  0
  4  1  1  0  0  0  0
  5  4  2  0  0  0  0
  5  6  1  0  0  0  0
  6 10  2  0  0  0  0
  7  6  1  0  0  0  0
  7  9  2  0  0  0  0
  8  7  2  0  0  0  0
 10 11  1  0  0  0  0
 10 14  1  0  0  0  0
 11 15  1  0  0  0  0
 12  4  1  0  0  0  0
 13  5  1  0  0  0  0
M  RAD  3   2   2   3   3  16   2
M  END
