Coordinates from ORCA-job 4-NO2PhN2+~Cl-_B3LYPG-6-31G_dp-NX-Scan-d89-09-n800
 OpenBabel11261920193D

 16 16  0  0  1  0  0  0  0  0999 V2000
   -1.4365   -0.1874    0.0484 C   0  0  0  0  0  0  0  0  0  0  0  0
   -2.7137   -0.4596    0.2317 N   0  0  0  0  0  0  0  0  0  0  0  0
   -3.8311   -0.5830    0.3956 N   0  0  0  0  0  0  0  0  0  0  0  0
   -1.1347    1.2224   -0.2957 C   0  0  2  0  0  0  0  0  0  0  0  0
    0.2961    1.4291   -0.5879 C   0  0  0  0  0  0  0  0  0  0  0  0
    1.2047    0.4712   -0.2957 C   0  0  0  0  0  0  0  0  0  0  0  0
    2.6312    0.7623   -0.5722 N   0  0  0  0  0  0  0  0  0  0  0  0
    2.9136    1.8505   -1.0658 O   0  0  0  0  0  0  0  0  0  0  0  0
    3.4434   -0.1150   -0.2850 O   0  0  0  0  0  0  0  0  0  0  0  0
    0.8828   -0.8254    0.2377 C   0  0  0  0  0  0  0  0  0  0  0  0
   -0.4269   -1.1457    0.3977 C   0  0  0  0  0  0  0  0  0  0  0  0
   -1.7951    1.6489   -1.0482 H   0  0  0  0  0  0  0  0  0  0  0  0
    0.6145    2.3747   -1.0067 H   0  0  0  0  0  0  0  0  0  0  0  0
    1.6814   -1.5119    0.4784 H   0  0  0  0  0  0  0  0  0  0  0  0
   -0.7314   -2.1131    0.7818 H   0  0  0  0  0  0  0  0  0  0  0  0
   -1.6510    2.3604    1.2155 Cl  0  0  0  0  0  0  0  0  0  0  0  0
  1  2  1  0  0  0  0
  1 11  2  0  0  0  0
  2  3  1  0  0  0  0
  4 12  1  6  0  0  0
  4  1  1  0  0  0  0
  4 16  1  0  0  0  0
  5  6  2  0  0  0  0
  5  4  1  0  0  0  0
  6 10  1  0  0  0  0
  7  6  1  0  0  0  0
  7  9  2  0  0  0  0
  8  7  2  0  0  0  0
 10 11  1  0  0  0  0
 10 14  1  0  0  0  0
 11 15  1  0  0  0  0
 13  5  1  0  0  0  0
M  RAD  3   2   2   3   3  10   2
M  END
