Coordinates from ORCA-job 4-NO2PhN2+~Cl-_B3LYPG-6-31G_dp-NX-Scan-d89-09-n800
 OpenBabel11261920193D

 16 15  0  0  0  0  0  0  0  0999 V2000
   -1.5033   -0.4058    0.0043 C   0  0  0  0  0  0  0  0  0  0  0  0
   -2.7858   -0.8668    0.0421 N   0  0  0  0  0  0  0  0  0  0  0  0
   -3.8183   -1.3218    0.0834 N   0  0  0  0  0  0  0  0  0  0  0  0
   -1.2362    0.9717   -0.2047 C   0  0  0  0  0  0  0  0  0  0  0  0
    0.0899    1.3713   -0.3238 C   0  0  0  0  0  0  0  0  0  0  0  0
    1.0912    0.4060   -0.1903 C   0  0  0  0  0  0  0  0  0  0  0  0
    2.4981    0.8050   -0.3748 N   0  0  0  0  0  0  0  0  0  0  0  0
    2.7081    1.9314   -0.8047 O   0  0  0  0  0  0  0  0  0  0  0  0
    3.3556   -0.0343   -0.0883 O   0  0  0  0  0  0  0  0  0  0  0  0
    0.8306   -0.9426    0.0950 C   0  0  0  0  0  0  0  0  0  0  0  0
   -0.4751   -1.3748    0.1767 C   0  0  0  0  0  0  0  0  0  0  0  0
   -2.0320    1.7067   -0.2646 H   0  0  0  0  0  0  0  0  0  0  0  0
    0.3151    2.4394   -0.4566 H   0  0  0  0  0  0  0  0  0  0  0  0
    1.6615   -1.6250    0.2224 H   0  0  0  0  0  0  0  0  0  0  0  0
   -0.7238   -2.4130    0.3627 H   0  0  0  0  0  0  0  0  0  0  0  0
   -0.0289    4.5310    0.3511 Cl  0  0  0  0  0  0  0  0  0  0  0  0
  1  2  1  0  0  0  0
  1 11  2  0  0  0  0
  2  3  1  0  0  0  0
  4  1  1  0  0  0  0
  5  4  2  0  0  0  0
  5  6  1  0  0  0  0
  6 10  2  0  0  0  0
  7  6  1  0  0  0  0
  7  9  2  0  0  0  0
  8  7  2  0  0  0  0
 10 11  1  0  0  0  0
 10 14  1  0  0  0  0
 11 15  1  0  0  0  0
 12  4  1  0  0  0  0
 13  5  1  0  0  0  0
M  RAD  3   2   2   3   3  16   2
M  END
