Coordinates from ORCA-job 4-NO2PhN2+~Cl-_B3LYPG-6-31G_dp-NX-Scan-d89-09-n800
 OpenBabel11261920183D

 16 15  0  0  0  0  0  0  0  0999 V2000
   -1.5631   -0.5173   -0.0192 C   0  0  0  0  0  0  0  0  0  0  0  0
   -2.8253   -1.0254    0.0191 N   0  0  0  0  0  0  0  0  0  0  0  0
   -3.8421   -1.5256    0.0580 N   0  0  0  0  0  0  0  0  0  0  0  0
   -1.3401    0.8821   -0.1395 C   0  0  0  0  0  0  0  0  0  0  0  0
   -0.0313    1.3456   -0.1742 C   0  0  0  0  0  0  0  0  0  0  0  0
    1.0110    0.4113   -0.0898 C   0  0  0  0  0  0  0  0  0  0  0  0
    2.4079    0.8779   -0.1249 N   0  0  0  0  0  0  0  0  0  0  0  0
    2.5910    2.0838   -0.2205 O   0  0  0  0  0  0  0  0  0  0  0  0
    3.2832    0.0098   -0.0542 O   0  0  0  0  0  0  0  0  0  0  0  0
    0.7928   -0.9680    0.0288 C   0  0  0  0  0  0  0  0  0  0  0  0
   -0.4970   -1.4528    0.0662 C   0  0  0  0  0  0  0  0  0  0  0  0
   -2.1761    1.5694   -0.2026 H   0  0  0  0  0  0  0  0  0  0  0  0
    0.1954    2.4110   -0.2651 H   0  0  0  0  0  0  0  0  0  0  0  0
    1.6479   -1.6291    0.0896 H   0  0  0  0  0  0  0  0  0  0  0  0
   -0.7041   -2.5128    0.1589 H   0  0  0  0  0  0  0  0  0  0  0  0
    0.9968    5.2184   -0.5010 Cl  0  0  0  0  0  0  0  0  0  0  0  0
  1  2  1  0  0  0  0
  1 11  2  0  0  0  0
  2  3  1  0  0  0  0
  4  1  1  0  0  0  0
  5  4  2  0  0  0  0
  5  6  1  0  0  0  0
  6 10  2  0  0  0  0
  7  6  1  0  0  0  0
  7  9  2  0  0  0  0
  8  7  2  0  0  0  0
 10 11  1  0  0  0  0
 10 14  1  0  0  0  0
 11 15  1  0  0  0  0
 12  4  1  0  0  0  0
 13  5  1  0  0  0  0
M  RAD  3   2   2   3   3  16   2
M  END
