Coordinates from ORCA-job 4-NO2PhN2+~Cl-_B3LYPG-6-31G_dp-NX-Scan-d89-09-n800
 OpenBabel11261920193D

 16 15  0  0  0  0  0  0  0  0999 V2000
   -1.4996   -0.3925    0.0062 C   0  0  0  0  0  0  0  0  0  0  0  0
   -2.7832   -0.8509    0.0420 N   0  0  0  0  0  0  0  0  0  0  0  0
   -3.8143   -1.3094    0.0796 N   0  0  0  0  0  0  0  0  0  0  0  0
   -1.2261    0.9817   -0.2157 C   0  0  0  0  0  0  0  0  0  0  0  0
    0.1030    1.3716   -0.3394 C   0  0  0  0  0  0  0  0  0  0  0  0
    1.0992    0.4032   -0.1970 C   0  0  0  0  0  0  0  0  0  0  0  0
    2.5076    0.7938   -0.3870 N   0  0  0  0  0  0  0  0  0  0  0  0
    2.7234    1.9201   -0.8151 O   0  0  0  0  0  0  0  0  0  0  0  0
    3.3613   -0.0515   -0.1078 O   0  0  0  0  0  0  0  0  0  0  0  0
    0.8318   -0.9412    0.1029 C   0  0  0  0  0  0  0  0  0  0  0  0
   -0.4758   -1.3651    0.1898 C   0  0  0  0  0  0  0  0  0  0  0  0
   -2.0157    1.7229   -0.2826 H   0  0  0  0  0  0  0  0  0  0  0  0
    0.3324    2.4359   -0.4804 H   0  0  0  0  0  0  0  0  0  0  0  0
    1.6590   -1.6267    0.2374 H   0  0  0  0  0  0  0  0  0  0  0  0
   -0.7302   -2.3996    0.3880 H   0  0  0  0  0  0  0  0  0  0  0  0
   -0.1259    4.4861    0.4090 Cl  0  0  0  0  0  0  0  0  0  0  0  0
  1  2  1  0  0  0  0
  1 11  2  0  0  0  0
  2  3  1  0  0  0  0
  4  1  1  0  0  0  0
  5  4  2  0  0  0  0
  5  6  1  0  0  0  0
  6 10  2  0  0  0  0
  7  6  1  0  0  0  0
  7  9  2  0  0  0  0
  8  7  2  0  0  0  0
 10 11  1  0  0  0  0
 10 14  1  0  0  0  0
 11 15  1  0  0  0  0
 12  4  1  0  0  0  0
 13  5  1  0  0  0  0
M  RAD  3   2   2   3   3  16   2
M  END
