Coordinates from ORCA-job 4-NO2PhN2+~Cl-_B3LYPG-6-31G_dp-NX-Scan-d89-09-n800
 OpenBabel11261920193D

 16 15  0  0  0  0  0  0  0  0999 V2000
   -1.2440   -0.0872    0.2718 C   0  0  0  0  0  0  0  0  0  0  0  0
   -2.5736   -0.3991    0.6252 N   0  0  0  0  0  0  0  0  0  0  0  0
   -3.6464    0.0395    0.7415 N   0  0  0  0  0  0  0  0  0  0  0  0
   -0.8621    1.2045   -0.1198 C   0  0  0  0  0  0  0  0  0  0  0  0
    0.4728    1.4205   -0.4493 C   0  0  0  0  0  0  0  0  0  0  0  0
    1.3710    0.3575   -0.3793 C   0  0  0  0  0  0  0  0  0  0  0  0
    2.7884    0.6011   -0.7316 N   0  0  0  0  0  0  0  0  0  0  0  0
    3.0965    1.7402   -1.0691 O   0  0  0  0  0  0  0  0  0  0  0  0
    3.5571   -0.3541   -0.6606 O   0  0  0  0  0  0  0  0  0  0  0  0
    0.9950   -0.9276    0.0088 C   0  0  0  0  0  0  0  0  0  0  0  0
   -0.3348   -1.1522    0.3397 C   0  0  0  0  0  0  0  0  0  0  0  0
   -1.6020    1.9964   -0.1577 H   0  0  0  0  0  0  0  0  0  0  0  0
    0.8242    2.3967   -0.7586 H   0  0  0  0  0  0  0  0  0  0  0  0
    1.7357   -1.7159    0.0452 H   0  0  0  0  0  0  0  0  0  0  0  0
   -0.6803   -2.1319    0.6494 H   0  0  0  0  0  0  0  0  0  0  0  0
   -3.9506    2.1900    0.2742 Cl  0  0  0  0  0  0  0  0  0  0  0  0
  1 11  1  0  0  0  0
  1  2  1  0  0  0  0
  2  3  2  0  0  0  0
  4  1  2  0  0  0  0
  5  6  2  0  0  0  0
  5  4  1  0  0  0  0
  6 10  1  0  0  0  0
  7  9  2  0  0  0  0
  7  6  1  0  0  0  0
  8  7  2  0  0  0  0
 10 14  1  0  0  0  0
 10 11  2  0  0  0  0
 11 15  1  0  0  0  0
 12  4  1  0  0  0  0
 13  5  1  0  0  0  0
M  RAD  2   3   2  16   2
M  END
