Coordinates from ORCA-job 4-NO2PhN2+~Cl-_B3LYPG-6-31G_dp-NX-Scan-d89-09-n800
 OpenBabel11261920193D

 16 16  0  0  1  0  0  0  0  0999 V2000
   -1.4908   -0.0986    0.1608 C   0  0  2  0  0  0  0  0  0  0  0  0
   -2.6963   -0.6015   -0.1104 N   0  0  0  0  0  0  0  0  0  0  0  0
   -3.6544   -1.1610   -0.3774 N   0  0  0  0  0  0  0  0  0  0  0  0
   -1.1399    1.2975   -0.1308 C   0  0  2  0  0  0  0  0  0  0  0  0
    0.2403    1.4363   -0.5934 C   0  0  0  0  0  0  0  0  0  0  0  0
    1.1508    0.4761   -0.3000 C   0  0  0  0  0  0  0  0  0  0  0  0
    2.5535    0.6930   -0.7020 N   0  0  0  0  0  0  0  0  0  0  0  0
    2.8200    1.7078   -1.3408 O   0  0  0  0  0  0  0  0  0  0  0  0
    3.3671   -0.1684   -0.3708 O   0  0  0  0  0  0  0  0  0  0  0  0
    0.8265   -0.7493    0.3762 C   0  0  0  0  0  0  0  0  0  0  0  0
   -0.4810   -1.0497    0.5787 C   0  0  0  0  0  0  0  0  0  0  0  0
   -1.8867    1.8615   -0.6789 H   0  0  0  0  0  0  0  0  0  0  0  0
    0.5451    2.3476   -1.0914 H   0  0  0  0  0  0  0  0  0  0  0  0
    1.6233   -1.4204    0.6652 H   0  0  0  0  0  0  0  0  0  0  0  0
   -0.7883   -1.9960    1.0099 H   0  0  0  0  0  0  0  0  0  0  0  0
   -1.0423    2.6036    1.5348 Cl  0  0  0  0  0  0  0  0  0  0  0  0
  1  2  1  6  0  0  0
  1 11  1  0  0  0  0
  3  2  1  0  0  0  0
  4 12  1  6  0  0  0
  4  1  1  0  0  0  0
  4 16  1  0  0  0  0
  5  6  2  0  0  0  0
  5  4  1  0  0  0  0
  6 10  1  0  0  0  0
  7  9  2  0  0  0  0
  7  6  1  0  0  0  0
  8  7  2  0  0  0  0
 10 11  2  0  0  0  0
 10 14  1  0  0  0  0
 11 15  1  0  0  0  0
 13  5  1  0  0  0  0
M  RAD  3   1   2   2   2   3   3
M  END
