Coordinates from ORCA-job 4-NO2PhN2+~Cl-_B3LYPG-6-31G_dp-NX-Scan-d89-09-n800
 OpenBabel11261920193D

 16 15  0  0  0  0  0  0  0  0999 V2000
   -1.4837   -0.1607    0.0866 C   0  0  0  0  0  0  0  0  0  0  0  0
   -2.7421   -0.6321   -0.0252 N   0  0  0  0  0  0  0  0  0  0  0  0
   -3.7383   -1.1556   -0.1652 N   0  0  0  0  0  0  0  0  0  0  0  0
   -1.1516    1.1755   -0.3036 C   0  0  0  0  0  0  0  0  0  0  0  0
    0.2190    1.4106   -0.6027 C   0  0  0  0  0  0  0  0  0  0  0  0
    1.1533    0.4522   -0.3093 C   0  0  0  0  0  0  0  0  0  0  0  0
    2.5649    0.7298   -0.6121 N   0  0  0  0  0  0  0  0  0  0  0  0
    2.8322    1.7863   -1.1787 O   0  0  0  0  0  0  0  0  0  0  0  0
    3.3856   -0.1260   -0.2799 O   0  0  0  0  0  0  0  0  0  0  0  0
    0.8289   -0.7953    0.2964 C   0  0  0  0  0  0  0  0  0  0  0  0
   -0.4810   -1.1161    0.4881 C   0  0  0  0  0  0  0  0  0  0  0  0
   -1.9166    1.8348   -0.6875 H   0  0  0  0  0  0  0  0  0  0  0  0
    0.5221    2.3595   -1.0228 H   0  0  0  0  0  0  0  0  0  0  0  0
    1.6276   -1.4718    0.5695 H   0  0  0  0  0  0  0  0  0  0  0  0
   -0.7834   -2.0709    0.9016 H   0  0  0  0  0  0  0  0  0  0  0  0
   -0.8900    2.9582    1.4744 Cl  0  0  0  0  0  0  0  0  0  0  0  0
  1 11  1  0  0  0  0
  2  1  1  0  0  0  0
  3  2  1  0  0  0  0
  4  1  2  0  0  0  0
  5  6  2  0  0  0  0
  5  4  1  0  0  0  0
  6 10  1  0  0  0  0
  7  6  1  0  0  0  0
  7  9  2  0  0  0  0
  8  7  2  0  0  0  0
 10 11  2  0  0  0  0
 10 14  1  0  0  0  0
 11 15  1  0  0  0  0
 12  4  1  0  0  0  0
 13  5  1  0  0  0  0
M  RAD  3   2   2   3   3  16   2
M  END
