Coordinates from ORCA-job 4-NO2PhN2+~Cl-_B3LYPG-6-31G_dp-NX-Scan-d89-09-n800
 OpenBabel11261920193D

 16 16  0  0  1  0  0  0  0  0999 V2000
   -1.4616   -0.1307    0.1110 C   0  0  0  0  0  0  0  0  0  0  0  0
   -2.7183   -0.5338    0.0318 N   0  0  0  0  0  0  0  0  0  0  0  0
   -3.7848   -0.9227   -0.0600 N   0  0  0  0  0  0  0  0  0  0  0  0
   -1.1320    1.2801   -0.1825 C   0  0  2  0  0  0  0  0  0  0  0  0
    0.2741    1.4368   -0.5981 C   0  0  0  0  0  0  0  0  0  0  0  0
    1.1816    0.4807   -0.2963 C   0  0  0  0  0  0  0  0  0  0  0  0
    2.5955    0.7225   -0.6559 N   0  0  0  0  0  0  0  0  0  0  0  0
    2.8712    1.7628   -1.2477 O   0  0  0  0  0  0  0  0  0  0  0  0
    3.4077   -0.1428   -0.3329 O   0  0  0  0  0  0  0  0  0  0  0  0
    0.8559   -0.7727    0.3304 C   0  0  0  0  0  0  0  0  0  0  0  0
   -0.4533   -1.0825    0.5070 C   0  0  0  0  0  0  0  0  0  0  0  0
   -1.8464    1.7745   -0.8355 H   0  0  0  0  0  0  0  0  0  0  0  0
    0.5840    2.3555   -1.0789 H   0  0  0  0  0  0  0  0  0  0  0  0
    1.6522   -1.4501    0.6038 H   0  0  0  0  0  0  0  0  0  0  0  0
   -0.7604   -2.0390    0.9156 H   0  0  0  0  0  0  0  0  0  0  0  0
   -1.3184    2.4400    1.4180 Cl  0  0  0  0  0  0  0  0  0  0  0  0
  1 11  2  0  0  0  0
  2  1  1  0  0  0  0
  3  2  1  0  0  0  0
  4 12  1  6  0  0  0
  4  1  1  0  0  0  0
  4 16  1  0  0  0  0
  5  6  2  0  0  0  0
  5  4  1  0  0  0  0
  6 10  1  0  0  0  0
  7  9  2  0  0  0  0
  7  6  1  0  0  0  0
  8  7  2  0  0  0  0
 10 11  1  0  0  0  0
 10 14  1  0  0  0  0
 11 15  1  0  0  0  0
 13  5  1  0  0  0  0
M  RAD  3   2   2   3   3  10   2
M  END
