Coordinates from ORCA-job 4-NO2PhN2+~Cl-_B3LYPG-6-31G_dp-NX-Scan-d89-09-n800
 OpenBabel11261920193D

 16 16  0  0  0  0  0  0  0  0999 V2000
   -1.2606    0.2280    0.5537 C   0  0  0  0  0  0  0  0  0  0  0  0
   -2.5540    0.1322    1.1937 N   0  0  0  0  0  0  0  0  0  0  0  0
   -3.5741    0.0985    0.4042 N   0  0  0  0  0  0  0  0  0  0  0  0
   -0.6776    1.4867    0.3353 C   0  0  0  0  0  0  0  0  0  0  0  0
    0.6243    1.5841   -0.1432 C   0  0  0  0  0  0  0  0  0  0  0  0
    1.3382    0.4127   -0.3935 C   0  0  0  0  0  0  0  0  0  0  0  0
    2.7121    0.5103   -0.9025 N   0  0  0  0  0  0  0  0  0  0  0  0
    3.1736    1.6362   -1.0895 O   0  0  0  0  0  0  0  0  0  0  0  0
    3.3191   -0.5396   -1.1141 O   0  0  0  0  0  0  0  0  0  0  0  0
    0.7877   -0.8486   -0.1682 C   0  0  0  0  0  0  0  0  0  0  0  0
   -0.5146   -0.9363    0.3112 C   0  0  0  0  0  0  0  0  0  0  0  0
   -1.2458    2.3844    0.5575 H   0  0  0  0  0  0  0  0  0  0  0  0
    1.0949    2.5425   -0.3233 H   0  0  0  0  0  0  0  0  0  0  0  0
    1.3821   -1.7314   -0.3676 H   0  0  0  0  0  0  0  0  0  0  0  0
   -0.9577   -1.9061    0.5147 H   0  0  0  0  0  0  0  0  0  0  0  0
   -3.7007    0.1249   -0.7388 Cl  0  0  0  0  0  0  0  0  0  0  0  0
  1  2  1  0  0  0  0
  3  2  2  0  0  0  0
  4  1  1  0  0  0  0
  4 12  1  0  0  0  0
  5  4  2  0  0  0  0
  6 10  2  0  0  0  0
  6  5  1  0  0  0  0
  7  6  1  0  0  0  0
  8  7  2  0  0  0  0
  9  7  2  0  0  0  0
 10 11  1  0  0  0  0
 11 15  1  0  0  0  0
 11  1  2  0  0  0  0
 13  5  1  0  0  0  0
 14 10  1  0  0  0  0
 16  3  1  0  0  0  0
M  END
