Coordinates from ORCA-job 4-NO2PhN2+~Cl-_B3LYPG-6-31G_dp-NX-Scan-d89-09-n800
 OpenBabel11261920193D

 16 15  0  0  0  0  0  0  0  0999 V2000
   -1.4879   -0.1258    0.1236 C   0  0  0  0  0  0  0  0  0  0  0  0
   -2.7225   -0.6186   -0.0646 N   0  0  0  0  0  0  0  0  0  0  0  0
   -3.6959   -1.1700   -0.2700 N   0  0  0  0  0  0  0  0  0  0  0  0
   -1.1454    1.2348   -0.2254 C   0  0  0  0  0  0  0  0  0  0  0  0
    0.2306    1.4225   -0.6017 C   0  0  0  0  0  0  0  0  0  0  0  0
    1.1525    0.4630   -0.3080 C   0  0  0  0  0  0  0  0  0  0  0  0
    2.5614    0.7120   -0.6563 N   0  0  0  0  0  0  0  0  0  0  0  0
    2.8300    1.7480   -1.2589 O   0  0  0  0  0  0  0  0  0  0  0  0
    3.3775   -0.1479   -0.3254 O   0  0  0  0  0  0  0  0  0  0  0  0
    0.8263   -0.7726    0.3340 C   0  0  0  0  0  0  0  0  0  0  0  0
   -0.4824   -1.0797    0.5347 C   0  0  0  0  0  0  0  0  0  0  0  0
   -1.9030    1.8519   -0.6890 H   0  0  0  0  0  0  0  0  0  0  0  0
    0.5372    2.3553   -1.0555 H   0  0  0  0  0  0  0  0  0  0  0  0
    1.6230   -1.4479    0.6149 H   0  0  0  0  0  0  0  0  0  0  0  0
   -0.7886   -2.0288    0.9594 H   0  0  0  0  0  0  0  0  0  0  0  0
   -0.9659    2.7821    1.5179 Cl  0  0  0  0  0  0  0  0  0  0  0  0
  1 11  1  0  0  0  0
  2  1  1  0  0  0  0
  3  2  1  0  0  0  0
  4  1  2  0  0  0  0
  5  6  2  0  0  0  0
  5  4  1  0  0  0  0
  6 10  1  0  0  0  0
  7  9  2  0  0  0  0
  7  6  1  0  0  0  0
  8  7  2  0  0  0  0
 10 11  2  0  0  0  0
 10 14  1  0  0  0  0
 11 15  1  0  0  0  0
 12  4  1  0  0  0  0
 13  5  1  0  0  0  0
M  RAD  3   2   2   3   3  16   2
M  END
