Coordinates from ORCA-job 4-NO2PhN2+~Cl-_B3LYPG-6-31G_dp-NX-Scan-d89-09-n800
 OpenBabel11261920193D

 16 15  0  0  0  0  0  0  0  0999 V2000
   -1.4883   -0.1255    0.1240 C   0  0  0  0  0  0  0  0  0  0  0  0
   -2.7223   -0.6199   -0.0660 N   0  0  0  0  0  0  0  0  0  0  0  0
   -3.6934   -1.1744   -0.2736 N   0  0  0  0  0  0  0  0  0  0  0  0
   -1.1457    1.2351   -0.2247 C   0  0  0  0  0  0  0  0  0  0  0  0
    0.2300    1.4226   -0.6010 C   0  0  0  0  0  0  0  0  0  0  0  0
    1.1520    0.4629   -0.3077 C   0  0  0  0  0  0  0  0  0  0  0  0
    2.5608    0.7116   -0.6568 N   0  0  0  0  0  0  0  0  0  0  0  0
    2.8293    1.7474   -1.2597 O   0  0  0  0  0  0  0  0  0  0  0  0
    3.3768   -0.1485   -0.3262 O   0  0  0  0  0  0  0  0  0  0  0  0
    0.8258   -0.7725    0.3344 C   0  0  0  0  0  0  0  0  0  0  0  0
   -0.4830   -1.0795    0.5352 C   0  0  0  0  0  0  0  0  0  0  0  0
   -1.9034    1.8530   -0.6871 H   0  0  0  0  0  0  0  0  0  0  0  0
    0.5367    2.3552   -1.0550 H   0  0  0  0  0  0  0  0  0  0  0  0
    1.6224   -1.4480    0.6153 H   0  0  0  0  0  0  0  0  0  0  0  0
   -0.7892   -2.0286    0.9598 H   0  0  0  0  0  0  0  0  0  0  0  0
   -0.9618    2.7876    1.5188 Cl  0  0  0  0  0  0  0  0  0  0  0  0
  1 11  1  0  0  0  0
  2  1  1  0  0  0  0
  3  2  1  0  0  0  0
  4  1  2  0  0  0  0
  5  6  2  0  0  0  0
  5  4  1  0  0  0  0
  6 10  1  0  0  0  0
  7  9  2  0  0  0  0
  7  6  1  0  0  0  0
  8  7  2  0  0  0  0
 10 11  2  0  0  0  0
 10 14  1  0  0  0  0
 11 15  1  0  0  0  0
 12  4  1  0  0  0  0
 13  5  1  0  0  0  0
M  RAD  3   2   2   3   3  16   2
M  END
