Coordinates from ORCA-job 4-NO2PhN2+~Cl-_B3LYPG-6-31G_dp-NX-Scan-d89-09-n800
 OpenBabel11261920193D

 16 16  0  0  1  0  0  0  0  0999 V2000
   -1.4673   -0.1214    0.1244 C   0  0  2  0  0  0  0  0  0  0  0  0
   -2.7138   -0.5472   -0.0041 N   0  0  0  0  0  0  0  0  0  0  0  0
   -3.7608   -0.9758   -0.1400 N   0  0  0  0  0  0  0  0  0  0  0  0
   -1.1328    1.2891   -0.1629 C   0  0  2  0  0  0  0  0  0  0  0  0
    0.2681    1.4379   -0.5972 C   0  0  0  0  0  0  0  0  0  0  0  0
    1.1757    0.4815   -0.2960 C   0  0  0  0  0  0  0  0  0  0  0  0
    2.5867    0.7151   -0.6694 N   0  0  0  0  0  0  0  0  0  0  0  0
    2.8600    1.7468   -1.2772 O   0  0  0  0  0  0  0  0  0  0  0  0
    3.3990   -0.1492   -0.3440 O   0  0  0  0  0  0  0  0  0  0  0  0
    0.8502   -0.7648    0.3451 C   0  0  0  0  0  0  0  0  0  0  0  0
   -0.4587   -1.0726    0.5263 C   0  0  0  0  0  0  0  0  0  0  0  0
   -1.8545    1.7946   -0.7988 H   0  0  0  0  0  0  0  0  0  0  0  0
    0.5762    2.3526   -1.0867 H   0  0  0  0  0  0  0  0  0  0  0  0
    1.6466   -1.4404    0.6231 H   0  0  0  0  0  0  0  0  0  0  0  0
   -0.7658   -2.0271    0.9396 H   0  0  0  0  0  0  0  0  0  0  0  0
   -1.2620    2.4591    1.4473 Cl  0  0  0  0  0  0  0  0  0  0  0  0
  1  2  1  6  0  0  0
  1 11  1  0  0  0  0
  3  2  1  0  0  0  0
  4 12  1  6  0  0  0
  4  1  1  0  0  0  0
  4 16  1  0  0  0  0
  5  6  2  0  0  0  0
  5  4  1  0  0  0  0
  6 10  1  0  0  0  0
  7  9  2  0  0  0  0
  7  6  1  0  0  0  0
  8  7  2  0  0  0  0
 10 11  2  0  0  0  0
 10 14  1  0  0  0  0
 11 15  1  0  0  0  0
 13  5  1  0  0  0  0
M  RAD  3   1   2   2   2   3   3
M  END
