Coordinates from ORCA-job 4-NO2PhN2+~Cl-_B3LYPG-6-31G_dp-NX-Scan-d89-09-n800
 OpenBabel11261920193D

 16 15  0  0  0  0  0  0  0  0999 V2000
   -1.4828   -0.2185    0.0471 C   0  0  0  0  0  0  0  0  0  0  0  0
   -2.7593   -0.6740   -0.0005 N   0  0  0  0  0  0  0  0  0  0  0  0
   -3.7707   -1.1733   -0.0776 N   0  0  0  0  0  0  0  0  0  0  0  0
   -1.1670    1.1060   -0.3571 C   0  0  0  0  0  0  0  0  0  0  0  0
    0.1925    1.3988   -0.5716 C   0  0  0  0  0  0  0  0  0  0  0  0
    1.1454    0.4382   -0.2917 C   0  0  0  0  0  0  0  0  0  0  0  0
    2.5563    0.7490   -0.5515 N   0  0  0  0  0  0  0  0  0  0  0  0
    2.8138    1.8245   -1.0852 O   0  0  0  0  0  0  0  0  0  0  0  0
    3.3852   -0.1042   -0.2301 O   0  0  0  0  0  0  0  0  0  0  0  0
    0.8300   -0.8300    0.2532 C   0  0  0  0  0  0  0  0  0  0  0  0
   -0.4811   -1.1784    0.4212 C   0  0  0  0  0  0  0  0  0  0  0  0
   -1.9370    1.8140   -0.6300 H   0  0  0  0  0  0  0  0  0  0  0  0
    0.4850    2.3689   -0.9464 H   0  0  0  0  0  0  0  0  0  0  0  0
    1.6344   -1.5074    0.5086 H   0  0  0  0  0  0  0  0  0  0  0  0
   -0.7750   -2.1487    0.8026 H   0  0  0  0  0  0  0  0  0  0  0  0
   -0.7229    3.3136    1.3386 Cl  0  0  0  0  0  0  0  0  0  0  0  0
  1 11  2  0  0  0  0
  2  1  1  0  0  0  0
  3  2  1  0  0  0  0
  4  1  1  0  0  0  0
  5  4  2  0  0  0  0
  5  6  1  0  0  0  0
  6 10  2  0  0  0  0
  7  6  1  0  0  0  0
  7  9  2  0  0  0  0
  8  7  2  0  0  0  0
 10 11  1  0  0  0  0
 10 14  1  0  0  0  0
 11 15  1  0  0  0  0
 12  4  1  0  0  0  0
 13  5  1  0  0  0  0
M  RAD  3   2   2   3   3  16   2
M  END
