Coordinates from ORCA-job 4-NO2PhN2+~Cl-_B3LYPG-6-31G_dp-NX-Scan-d89-09-n800
 OpenBabel11261920193D

 16 16  0  0  1  0  0  0  0  0999 V2000
   -1.4915   -0.1010    0.1572 C   0  0  2  0  0  0  0  0  0  0  0  0
   -2.6992   -0.6064   -0.1079 N   0  0  0  0  0  0  0  0  0  0  0  0
   -3.6546   -1.1711   -0.3715 N   0  0  0  0  0  0  0  0  0  0  0  0
   -1.1411    1.2892   -0.1431 C   0  0  2  0  0  0  0  0  0  0  0  0
    0.2379    1.4343   -0.5944 C   0  0  0  0  0  0  0  0  0  0  0  0
    1.1499    0.4738   -0.3016 C   0  0  0  0  0  0  0  0  0  0  0  0
    2.5533    0.6947   -0.6970 N   0  0  0  0  0  0  0  0  0  0  0  0
    2.8201    1.7119   -1.3318 O   0  0  0  0  0  0  0  0  0  0  0  0
    3.3673   -0.1665   -0.3659 O   0  0  0  0  0  0  0  0  0  0  0  0
    0.8252   -0.7521    0.3713 C   0  0  0  0  0  0  0  0  0  0  0  0
   -0.4824   -1.0526    0.5748 C   0  0  0  0  0  0  0  0  0  0  0  0
   -1.8902    1.8631   -0.6763 H   0  0  0  0  0  0  0  0  0  0  0  0
    0.5433    2.3487   -1.0859 H   0  0  0  0  0  0  0  0  0  0  0  0
    1.6219   -1.4239    0.6594 H   0  0  0  0  0  0  0  0  0  0  0  0
   -0.7897   -1.9988    1.0059 H   0  0  0  0  0  0  0  0  0  0  0  0
   -1.0233    2.6351    1.5364 Cl  0  0  0  0  0  0  0  0  0  0  0  0
  1  2  1  6  0  0  0
  1 11  1  0  0  0  0
  3  2  1  0  0  0  0
  4 12  1  6  0  0  0
  4  1  1  0  0  0  0
  4 16  1  0  0  0  0
  5  6  2  0  0  0  0
  5  4  1  0  0  0  0
  6 10  1  0  0  0  0
  7  9  2  0  0  0  0
  7  6  1  0  0  0  0
  8  7  2  0  0  0  0
 10 11  2  0  0  0  0
 10 14  1  0  0  0  0
 11 15  1  0  0  0  0
 13  5  1  0  0  0  0
M  RAD  3   1   2   2   2   3   3
M  END
