Coordinates from ORCA-job 4-NO2PhN2+~Cl-_B3LYPG-6-31G_dp-NX-Scan-d89-09-n800
 OpenBabel11261920193D

 16 15  0  0  0  0  0  0  0  0999 V2000
   -1.4842   -0.2393    0.0383 C   0  0  0  0  0  0  0  0  0  0  0  0
   -2.7635   -0.6955    0.0024 N   0  0  0  0  0  0  0  0  0  0  0  0
   -3.7752   -1.1943   -0.0611 N   0  0  0  0  0  0  0  0  0  0  0  0
   -1.1734    1.0879   -0.3563 C   0  0  0  0  0  0  0  0  0  0  0  0
    0.1819    1.3951   -0.5525 C   0  0  0  0  0  0  0  0  0  0  0  0
    1.1406    0.4327   -0.2819 C   0  0  0  0  0  0  0  0  0  0  0  0
    2.5510    0.7524   -0.5332 N   0  0  0  0  0  0  0  0  0  0  0  0
    2.8042    1.8336   -1.0567 O   0  0  0  0  0  0  0  0  0  0  0  0
    3.3831   -0.0989   -0.2138 O   0  0  0  0  0  0  0  0  0  0  0  0
    0.8296   -0.8438    0.2388 C   0  0  0  0  0  0  0  0  0  0  0  0
   -0.4820   -1.2018    0.3965 C   0  0  0  0  0  0  0  0  0  0  0  0
   -1.9437    1.8090   -0.5951 H   0  0  0  0  0  0  0  0  0  0  0  0
    0.4696    2.3741   -0.9073 H   0  0  0  0  0  0  0  0  0  0  0  0
    1.6361   -1.5225    0.4845 H   0  0  0  0  0  0  0  0  0  0  0  0
   -0.7724   -2.1797    0.7611 H   0  0  0  0  0  0  0  0  0  0  0  0
   -0.6549    3.4694    1.2661 Cl  0  0  0  0  0  0  0  0  0  0  0  0
  1 11  2  0  0  0  0
  2  1  1  0  0  0  0
  3  2  1  0  0  0  0
  4  1  1  0  0  0  0
  5  4  2  0  0  0  0
  5  6  1  0  0  0  0
  6 10  2  0  0  0  0
  7  6  1  0  0  0  0
  7  9  2  0  0  0  0
  8  7  2  0  0  0  0
 10 11  1  0  0  0  0
 10 14  1  0  0  0  0
 11 15  1  0  0  0  0
 12  4  1  0  0  0  0
 13  5  1  0  0  0  0
M  RAD  3   2   2   3   3  16   2
M  END
