Coordinates from ORCA-job 4-NO2PhN2+~Cl-_B3LYPG-6-31G_dp-NX-Scan-d89-09-n800
 OpenBabel11261920193D

 16 16  0  0  0  0  0  0  0  0999 V2000
   -1.2525    0.2251    0.5691 C   0  0  0  0  0  0  0  0  0  0  0  0
   -2.5392    0.1275    1.2022 N   0  0  0  0  0  0  0  0  0  0  0  0
   -3.5913    0.0984    0.5050 N   0  0  0  0  0  0  0  0  0  0  0  0
   -0.6803    1.4864    0.3491 C   0  0  0  0  0  0  0  0  0  0  0  0
    0.6177    1.5827   -0.1401 C   0  0  0  0  0  0  0  0  0  0  0  0
    1.3307    0.4117   -0.3933 C   0  0  0  0  0  0  0  0  0  0  0  0
    2.7019    0.5106   -0.9126 N   0  0  0  0  0  0  0  0  0  0  0  0
    3.1595    1.6371   -1.1030 O   0  0  0  0  0  0  0  0  0  0  0  0
    3.3076   -0.5388   -1.1270 O   0  0  0  0  0  0  0  0  0  0  0  0
    0.7845   -0.8503   -0.1632 C   0  0  0  0  0  0  0  0  0  0  0  0
   -0.5132   -0.9415    0.3280 C   0  0  0  0  0  0  0  0  0  0  0  0
   -1.2515    2.3819    0.5702 H   0  0  0  0  0  0  0  0  0  0  0  0
    1.0853    2.5414   -0.3265 H   0  0  0  0  0  0  0  0  0  0  0  0
    1.3784   -1.7324   -0.3673 H   0  0  0  0  0  0  0  0  0  0  0  0
   -0.9565   -1.9103    0.5333 H   0  0  0  0  0  0  0  0  0  0  0  0
   -3.6342    0.1490   -0.8940 Cl  0  0  0  0  0  0  0  0  0  0  0  0
  1  2  1  0  0  0  0
  3  2  2  0  0  0  0
  4  1  1  0  0  0  0
  4 12  1  0  0  0  0
  5  4  2  0  0  0  0
  6 10  2  0  0  0  0
  6  5  1  0  0  0  0
  7  6  1  0  0  0  0
  8  7  2  0  0  0  0
  9  7  2  0  0  0  0
 10 11  1  0  0  0  0
 11 15  1  0  0  0  0
 11  1  2  0  0  0  0
 13  5  1  0  0  0  0
 14 10  1  0  0  0  0
 16  3  1  0  0  0  0
M  END
