Coordinates from ORCA-job 4-NO2PhN2+~Cl-_B3LYPG-6-31G_dp-NX-Scan-d89-09-n800
 OpenBabel11261920193D

 16 15  0  0  0  0  0  0  0  0999 V2000
   -1.4839   -0.2783    0.0265 C   0  0  0  0  0  0  0  0  0  0  0  0
   -2.7678   -0.7315    0.0170 N   0  0  0  0  0  0  0  0  0  0  0  0
   -3.7831   -1.2242   -0.0134 N   0  0  0  0  0  0  0  0  0  0  0  0
   -1.1789    1.0602   -0.3305 C   0  0  0  0  0  0  0  0  0  0  0  0
    0.1701    1.3854   -0.5028 C   0  0  0  0  0  0  0  0  0  0  0  0
    1.1366    0.4164   -0.2623 C   0  0  0  0  0  0  0  0  0  0  0  0
    2.5480    0.7514   -0.4963 N   0  0  0  0  0  0  0  0  0  0  0  0
    2.7953    1.8470   -0.9898 O   0  0  0  0  0  0  0  0  0  0  0  0
    3.3829   -0.1027   -0.1913 O   0  0  0  0  0  0  0  0  0  0  0  0
    0.8320   -0.8800    0.1991 C   0  0  0  0  0  0  0  0  0  0  0  0
   -0.4811   -1.2512    0.3381 C   0  0  0  0  0  0  0  0  0  0  0  0
   -1.9457    1.8049   -0.5058 H   0  0  0  0  0  0  0  0  0  0  0  0
    0.4458    2.3902   -0.7947 H   0  0  0  0  0  0  0  0  0  0  0  0
    1.6408   -1.5658    0.4163 H   0  0  0  0  0  0  0  0  0  0  0  0
   -0.7664   -2.2451    0.6612 H   0  0  0  0  0  0  0  0  0  0  0  0
   -0.5976    3.8020    1.0585 Cl  0  0  0  0  0  0  0  0  0  0  0  0
  1 11  2  0  0  0  0
  2  1  1  0  0  0  0
  3  2  1  0  0  0  0
  4  1  1  0  0  0  0
  5  4  2  0  0  0  0
  5  6  1  0  0  0  0
  6 10  2  0  0  0  0
  7  6  1  0  0  0  0
  7  9  2  0  0  0  0
  8  7  2  0  0  0  0
 10 11  1  0  0  0  0
 10 14  1  0  0  0  0
 11 15  1  0  0  0  0
 12  4  1  0  0  0  0
 13  5  1  0  0  0  0
M  RAD  3   2   2   3   3  16   2
M  END
