Coordinates from ORCA-job 4-NO2PhN2+~Cl-_B3LYPG-6-31G_dp-NX-Scan-d89-09-n800
 OpenBabel11261920193D

 16 15  0  0  0  0  0  0  0  0999 V2000
   -1.5139   -0.4366    0.0025 C   0  0  0  0  0  0  0  0  0  0  0  0
   -2.7921   -0.9080    0.0462 N   0  0  0  0  0  0  0  0  0  0  0  0
   -3.8248   -1.3639    0.0923 N   0  0  0  0  0  0  0  0  0  0  0  0
   -1.2627    0.9494   -0.1708 C   0  0  0  0  0  0  0  0  0  0  0  0
    0.0566    1.3719   -0.2802 C   0  0  0  0  0  0  0  0  0  0  0  0
    1.0699    0.4136   -0.1734 C   0  0  0  0  0  0  0  0  0  0  0  0
    2.4731    0.8342   -0.3385 N   0  0  0  0  0  0  0  0  0  0  0  0
    2.6699    1.9642   -0.7639 O   0  0  0  0  0  0  0  0  0  0  0  0
    3.3388    0.0071   -0.0395 O   0  0  0  0  0  0  0  0  0  0  0  0
    0.8261   -0.9456    0.0695 C   0  0  0  0  0  0  0  0  0  0  0  0
   -0.4744   -1.3969    0.1407 C   0  0  0  0  0  0  0  0  0  0  0  0
   -2.0728    1.6697   -0.2115 H   0  0  0  0  0  0  0  0  0  0  0  0
    0.2768    2.4461   -0.3963 H   0  0  0  0  0  0  0  0  0  0  0  0
    1.6660   -1.6208    0.1749 H   0  0  0  0  0  0  0  0  0  0  0  0
   -0.7093   -2.4437    0.2940 H   0  0  0  0  0  0  0  0  0  0  0  0
    0.2198    4.6378    0.1837 Cl  0  0  0  0  0  0  0  0  0  0  0  0
  1  2  1  0  0  0  0
  1 11  1  0  0  0  0
  2  3  1  0  0  0  0
  4  1  2  0  0  0  0
  5  6  2  0  0  0  0
  5  4  1  0  0  0  0
  6 10  1  0  0  0  0
  7  6  1  0  0  0  0
  7  9  2  0  0  0  0
  8  7  2  0  0  0  0
 10 11  2  0  0  0  0
 10 14  1  0  0  0  0
 11 15  1  0  0  0  0
 12  4  1  0  0  0  0
 13  5  1  0  0  0  0
M  RAD  3   2   2   3   3  16   2
M  END
