Coordinates from ORCA-job 4-NO2PhN2+~Cl-_B3LYPG-6-31G_dp-NX-Scan-d89-09-n800
 OpenBabel11261920193D

 16 15  0  0  0  0  0  0  0  0999 V2000
   -1.2420   -0.0923    0.2711 C   0  0  0  0  0  0  0  0  0  0  0  0
   -2.5733   -0.3993    0.6223 N   0  0  0  0  0  0  0  0  0  0  0  0
   -3.6449    0.0357    0.7407 N   0  0  0  0  0  0  0  0  0  0  0  0
   -0.8640    1.2002   -0.1205 C   0  0  0  0  0  0  0  0  0  0  0  0
    0.4704    1.4188   -0.4497 C   0  0  0  0  0  0  0  0  0  0  0  0
    1.3703    0.3571   -0.3788 C   0  0  0  0  0  0  0  0  0  0  0  0
    2.7875    0.6030   -0.7308 N   0  0  0  0  0  0  0  0  0  0  0  0
    3.0935    1.7422   -1.0694 O   0  0  0  0  0  0  0  0  0  0  0  0
    3.5576   -0.3510   -0.6594 O   0  0  0  0  0  0  0  0  0  0  0  0
    0.9969   -0.9288    0.0095 C   0  0  0  0  0  0  0  0  0  0  0  0
   -0.3325   -1.1566    0.3401 C   0  0  0  0  0  0  0  0  0  0  0  0
   -1.6090    1.9882   -0.1573 H   0  0  0  0  0  0  0  0  0  0  0  0
    0.8202    2.3956   -0.7593 H   0  0  0  0  0  0  0  0  0  0  0  0
    1.7394   -1.7153    0.0463 H   0  0  0  0  0  0  0  0  0  0  0  0
   -0.6761   -2.1370    0.6498 H   0  0  0  0  0  0  0  0  0  0  0  0
   -3.9471    2.2179    0.2750 Cl  0  0  0  0  0  0  0  0  0  0  0  0
  1 11  1  0  0  0  0
  1  2  1  0  0  0  0
  2  3  2  0  0  0  0
  4  1  2  0  0  0  0
  5  6  2  0  0  0  0
  5  4  1  0  0  0  0
  6 10  1  0  0  0  0
  7  9  2  0  0  0  0
  7  6  1  0  0  0  0
  8  7  2  0  0  0  0
 10 14  1  0  0  0  0
 10 11  2  0  0  0  0
 11 15  1  0  0  0  0
 12  4  1  0  0  0  0
 13  5  1  0  0  0  0
M  RAD  2   3   2  16   2
M  END
