Coordinates from ORCA-job 4-NO2PhN2+~Cl-_B3LYPG-6-31G_dp-NX-Scan-d89-09-n800
 OpenBabel11261920193D

 16 16  0  0  1  0  0  0  0  0999 V2000
   -1.4447   -0.1652    0.0681 C   0  0  0  0  0  0  0  0  0  0  0  0
   -2.7210   -0.4869    0.1590 N   0  0  0  0  0  0  0  0  0  0  0  0
   -3.8315   -0.7202    0.2294 N   0  0  0  0  0  0  0  0  0  0  0  0
   -1.1323    1.2452   -0.2546 C   0  0  2  0  0  0  0  0  0  0  0  0
    0.2906    1.4324   -0.5944 C   0  0  0  0  0  0  0  0  0  0  0  0
    1.1984    0.4758   -0.2960 C   0  0  0  0  0  0  0  0  0  0  0  0
    2.6212    0.7483   -0.6032 N   0  0  0  0  0  0  0  0  0  0  0  0
    2.9025    1.8187   -1.1351 O   0  0  0  0  0  0  0  0  0  0  0  0
    3.4324   -0.1253   -0.3017 O   0  0  0  0  0  0  0  0  0  0  0  0
    0.8737   -0.8046    0.2736 C   0  0  0  0  0  0  0  0  0  0  0  0
   -0.4363   -1.1206    0.4376 C   0  0  0  0  0  0  0  0  0  0  0  0
   -1.8149    1.6983   -0.9701 H   0  0  0  0  0  0  0  0  0  0  0  0
    0.6066    2.3676   -1.0377 H   0  0  0  0  0  0  0  0  0  0  0  0
    1.6707   -1.4884    0.5275 H   0  0  0  0  0  0  0  0  0  0  0  0
   -0.7425   -2.0840    0.8302 H   0  0  0  0  0  0  0  0  0  0  0  0
   -1.5260    2.3873    1.2970 Cl  0  0  0  0  0  0  0  0  0  0  0  0
  1  2  1  0  0  0  0
  1 11  2  0  0  0  0
  2  3  1  0  0  0  0
  4 12  1  6  0  0  0
  4  1  1  0  0  0  0
  4 16  1  0  0  0  0
  5  6  2  0  0  0  0
  5  4  1  0  0  0  0
  6 10  1  0  0  0  0
  7  9  2  0  0  0  0
  7  6  1  0  0  0  0
  8  7  2  0  0  0  0
 10 11  1  0  0  0  0
 10 14  1  0  0  0  0
 11 15  1  0  0  0  0
 13  5  1  0  0  0  0
M  RAD  3   2   2   3   3  10   2
M  END
