Coordinates from ORCA-job 4-NO2PhN2+~Cl-_B3LYPG-6-31G_dp-NX-Scan-d89-09-n800
 OpenBabel11261920193D

 16 16  0  0  1  0  0  0  0  0999 V2000
   -1.4517   -0.1494    0.0859 C   0  0  0  0  0  0  0  0  0  0  0  0
   -2.7224   -0.5084    0.1020 N   0  0  0  0  0  0  0  0  0  0  0  0
   -3.8179   -0.8161    0.0982 N   0  0  0  0  0  0  0  0  0  0  0  0
   -1.1317    1.2617   -0.2219 C   0  0  2  0  0  0  0  0  0  0  0  0
    0.2844    1.4350   -0.5964 C   0  0  0  0  0  0  0  0  0  0  0  0
    1.1920    0.4791   -0.2950 C   0  0  0  0  0  0  0  0  0  0  0  0
    2.6112    0.7379   -0.6252 N   0  0  0  0  0  0  0  0  0  0  0  0
    2.8899    1.7923   -1.1896 O   0  0  0  0  0  0  0  0  0  0  0  0
    3.4219   -0.1343   -0.3176 O   0  0  0  0  0  0  0  0  0  0  0  0
    0.8662   -0.7892    0.3006 C   0  0  0  0  0  0  0  0  0  0  0  0
   -0.4436   -1.1027    0.4688 C   0  0  0  0  0  0  0  0  0  0  0  0
   -1.8292    1.7338   -0.9096 H   0  0  0  0  0  0  0  0  0  0  0  0
    0.5979    2.3626   -1.0570 H   0  0  0  0  0  0  0  0  0  0  0  0
    1.6626   -1.4703    0.5640 H   0  0  0  0  0  0  0  0  0  0  0  0
   -0.7505   -2.0632    0.8680 H   0  0  0  0  0  0  0  0  0  0  0  0
   -1.4323    2.4097    1.3543 Cl  0  0  0  0  0  0  0  0  0  0  0  0
  1  2  1  0  0  0  0
  1 11  2  0  0  0  0
  3  2  1  0  0  0  0
  4 12  1  6  0  0  0
  4  1  1  0  0  0  0
  4 16  1  0  0  0  0
  5  6  2  0  0  0  0
  5  4  1  0  0  0  0
  6 10  1  0  0  0  0
  7  9  2  0  0  0  0
  7  6  1  0  0  0  0
  8  7  2  0  0  0  0
 10 11  1  0  0  0  0
 10 14  1  0  0  0  0
 11 15  1  0  0  0  0
 13  5  1  0  0  0  0
M  RAD  3   2   2   3   3  10   2
M  END
