Coordinates from ORCA-job 4-NO2PhN2+~Cl-_B3LYPG-6-31G_dp-NX-Scan-d89-09-n800
 OpenBabel11261920193D

 16 16  0  0  1  0  0  0  0  0999 V2000
   -1.4913   -0.0960    0.1643 C   0  0  2  0  0  0  0  0  0  0  0  0
   -2.6933   -0.6002   -0.1151 N   0  0  0  0  0  0  0  0  0  0  0  0
   -3.6484   -1.1622   -0.3886 N   0  0  0  0  0  0  0  0  0  0  0  0
   -1.1398    1.3039   -0.1208 C   0  0  2  0  0  0  0  0  0  0  0  0
    0.2409    1.4376   -0.5917 C   0  0  0  0  0  0  0  0  0  0  0  0
    1.1504    0.4772   -0.2989 C   0  0  0  0  0  0  0  0  0  0  0  0
    2.5522    0.6910   -0.7063 N   0  0  0  0  0  0  0  0  0  0  0  0
    2.8183    1.7039   -1.3481 O   0  0  0  0  0  0  0  0  0  0  0  0
    3.3656   -0.1708   -0.3758 O   0  0  0  0  0  0  0  0  0  0  0  0
    0.8263   -0.7475    0.3802 C   0  0  0  0  0  0  0  0  0  0  0  0
   -0.4812   -1.0470    0.5825 C   0  0  0  0  0  0  0  0  0  0  0  0
   -1.8851    1.8622   -0.6772 H   0  0  0  0  0  0  0  0  0  0  0  0
    0.5452    2.3469   -1.0937 H   0  0  0  0  0  0  0  0  0  0  0  0
    1.6230   -1.4184    0.6698 H   0  0  0  0  0  0  0  0  0  0  0  0
   -0.7886   -1.9932    1.0140 H   0  0  0  0  0  0  0  0  0  0  0  0
   -1.0474    2.5910    1.5352 Cl  0  0  0  0  0  0  0  0  0  0  0  0
  1  2  1  6  0  0  0
  1 11  1  0  0  0  0
  3  2  1  0  0  0  0
  4 12  1  6  0  0  0
  4  1  1  0  0  0  0
  4 16  1  0  0  0  0
  5  6  2  0  0  0  0
  5  4  1  0  0  0  0
  6 10  1  0  0  0  0
  7  9  2  0  0  0  0
  7  6  1  0  0  0  0
  8  7  2  0  0  0  0
 10 11  2  0  0  0  0
 10 14  1  0  0  0  0
 11 15  1  0  0  0  0
 13  5  1  0  0  0  0
M  RAD  3   1   2   2   2   3   3
M  END
