Coordinates from ORCA-job 4-NO2PhN2+~Cl-_B3LYPG-6-31G_dp-NX-Scan-d89-09-n800
 OpenBabel11261920193D

 16 15  0  0  0  0  0  0  0  0999 V2000
   -1.4902   -0.3566    0.0127 C   0  0  0  0  0  0  0  0  0  0  0  0
   -2.7766   -0.8084    0.0428 N   0  0  0  0  0  0  0  0  0  0  0  0
   -3.8033   -1.2764    0.0695 N   0  0  0  0  0  0  0  0  0  0  0  0
   -1.2013    1.0082   -0.2434 C   0  0  0  0  0  0  0  0  0  0  0  0
    0.1352    1.3730   -0.3797 C   0  0  0  0  0  0  0  0  0  0  0  0
    1.1189    0.3979   -0.2157 C   0  0  0  0  0  0  0  0  0  0  0  0
    2.5305    0.7678   -0.4175 N   0  0  0  0  0  0  0  0  0  0  0  0
    2.7611    1.8923   -0.8444 O   0  0  0  0  0  0  0  0  0  0  0  0
    3.3743   -0.0905   -0.1495 O   0  0  0  0  0  0  0  0  0  0  0  0
    0.8344   -0.9354    0.1214 C   0  0  0  0  0  0  0  0  0  0  0  0
   -0.4775   -1.3377    0.2239 C   0  0  0  0  0  0  0  0  0  0  0  0
   -1.9754    1.7637   -0.3296 H   0  0  0  0  0  0  0  0  0  0  0  0
    0.3766    2.4253   -0.5473 H   0  0  0  0  0  0  0  0  0  0  0  0
    1.6525   -1.6281    0.2733 H   0  0  0  0  0  0  0  0  0  0  0  0
   -0.7459   -2.3621    0.4537 H   0  0  0  0  0  0  0  0  0  0  0  0
   -0.3665    4.3453    0.5593 Cl  0  0  0  0  0  0  0  0  0  0  0  0
  1  2  1  0  0  0  0
  1 11  2  0  0  0  0
  2  3  1  0  0  0  0
  4  1  1  0  0  0  0
  5  4  2  0  0  0  0
  5  6  1  0  0  0  0
  6 10  2  0  0  0  0
  7  6  1  0  0  0  0
  7  9  2  0  0  0  0
  8  7  2  0  0  0  0
 10 11  1  0  0  0  0
 10 14  1  0  0  0  0
 11 15  1  0  0  0  0
 12  4  1  0  0  0  0
 13  5  1  0  0  0  0
M  RAD  3   2   2   3   3  16   2
M  END
