Coordinates from ORCA-job 4-NO2PhN2+~Cl-_B3LYPG-6-31G_dp-NX-Scan-d89-09-n800
 OpenBabel11261920193D

 16 16  0  0  1  0  0  0  0  0999 V2000
   -1.4860   -0.0992    0.1597 C   0  0  2  0  0  0  0  0  0  0  0  0
   -2.6959   -0.5872   -0.0985 N   0  0  0  0  0  0  0  0  0  0  0  0
   -3.6725   -1.1214   -0.3501 N   0  0  0  0  0  0  0  0  0  0  0  0
   -1.1373    1.3058   -0.1208 C   0  0  2  0  0  0  0  0  0  0  0  0
    0.2474    1.4389   -0.5931 C   0  0  0  0  0  0  0  0  0  0  0  0
    1.1558    0.4797   -0.2975 C   0  0  0  0  0  0  0  0  0  0  0  0
    2.5588    0.6944   -0.7032 N   0  0  0  0  0  0  0  0  0  0  0  0
    2.8259    1.7084   -1.3429 O   0  0  0  0  0  0  0  0  0  0  0  0
    3.3721   -0.1673   -0.3723 O   0  0  0  0  0  0  0  0  0  0  0  0
    0.8318   -0.7479    0.3779 C   0  0  0  0  0  0  0  0  0  0  0  0
   -0.4758   -1.0496    0.5757 C   0  0  0  0  0  0  0  0  0  0  0  0
   -1.8781    1.8494   -0.6988 H   0  0  0  0  0  0  0  0  0  0  0  0
    0.5516    2.3466   -1.0981 H   0  0  0  0  0  0  0  0  0  0  0  0
    1.6287   -1.4188    0.6667 H   0  0  0  0  0  0  0  0  0  0  0  0
   -0.7829   -1.9973    1.0041 H   0  0  0  0  0  0  0  0  0  0  0  0
   -1.0967    2.5439    1.5210 Cl  0  0  0  0  0  0  0  0  0  0  0  0
  1  2  1  6  0  0  0
  1 11  1  0  0  0  0
  3  2  1  0  0  0  0
  4 12  1  6  0  0  0
  4  1  1  0  0  0  0
  4 16  1  0  0  0  0
  5  6  2  0  0  0  0
  5  4  1  0  0  0  0
  6 10  1  0  0  0  0
  7  9  2  0  0  0  0
  7  6  1  0  0  0  0
  8  7  2  0  0  0  0
 10 11  2  0  0  0  0
 10 14  1  0  0  0  0
 11 15  1  0  0  0  0
 13  5  1  0  0  0  0
M  RAD  3   1   2   2   2   3   3
M  END
