Coordinates from ORCA-job 4-NO2PhN2+~Cl-_B3LYPG-6-31G_dp-NX-Scan-d89-09-n800
 OpenBabel11261920183D

 16 15  0  0  0  0  0  0  0  0999 V2000
   -1.5579   -0.4990   -0.0207 C   0  0  0  0  0  0  0  0  0  0  0  0
   -2.8226   -1.0034    0.0175 N   0  0  0  0  0  0  0  0  0  0  0  0
   -3.8382   -1.5052    0.0567 N   0  0  0  0  0  0  0  0  0  0  0  0
   -1.3269    0.8989   -0.1415 C   0  0  0  0  0  0  0  0  0  0  0  0
   -0.0151    1.3563   -0.1758 C   0  0  0  0  0  0  0  0  0  0  0  0
    1.0204    0.4144   -0.0906 C   0  0  0  0  0  0  0  0  0  0  0  0
    2.4218    0.8699   -0.1249 N   0  0  0  0  0  0  0  0  0  0  0  0
    2.6153    2.0735   -0.2248 O   0  0  0  0  0  0  0  0  0  0  0  0
    3.2899   -0.0051   -0.0494 O   0  0  0  0  0  0  0  0  0  0  0  0
    0.7944   -0.9636    0.0285 C   0  0  0  0  0  0  0  0  0  0  0  0
   -0.4979   -1.4412    0.0656 C   0  0  0  0  0  0  0  0  0  0  0  0
   -2.1584    1.5917   -0.2054 H   0  0  0  0  0  0  0  0  0  0  0  0
    0.2151    2.4232   -0.2672 H   0  0  0  0  0  0  0  0  0  0  0  0
    1.6458   -1.6295    0.0901 H   0  0  0  0  0  0  0  0  0  0  0  0
   -0.7114   -2.4999    0.1585 H   0  0  0  0  0  0  0  0  0  0  0  0
    0.8726    5.0974   -0.4869 Cl  0  0  0  0  0  0  0  0  0  0  0  0
  1  2  1  0  0  0  0
  1 11  2  0  0  0  0
  2  3  1  0  0  0  0
  4  1  1  0  0  0  0
  5  4  2  0  0  0  0
  5  6  1  0  0  0  0
  6 10  2  0  0  0  0
  7  6  1  0  0  0  0
  7  9  2  0  0  0  0
  8  7  2  0  0  0  0
 10 11  1  0  0  0  0
 10 14  1  0  0  0  0
 11 15  1  0  0  0  0
 12  4  1  0  0  0  0
 13  5  1  0  0  0  0
M  RAD  3   2   2   3   3  16   2
M  END
