Coordinates from ORCA-job 4-NO2PhN2+~Cl-_B3LYPG-6-31G_dp-NX-Scan-d89-09-n800
 OpenBabel11261920183D

 16 15  0  0  0  0  0  0  0  0999 V2000
   -1.5689   -0.5399   -0.0168 C   0  0  0  0  0  0  0  0  0  0  0  0
   -2.8283   -1.0517    0.0221 N   0  0  0  0  0  0  0  0  0  0  0  0
   -3.8476   -1.5478    0.0605 N   0  0  0  0  0  0  0  0  0  0  0  0
   -1.3557    0.8609   -0.1393 C   0  0  0  0  0  0  0  0  0  0  0  0
   -0.0507    1.3318   -0.1749 C   0  0  0  0  0  0  0  0  0  0  0  0
    0.9997    0.4069   -0.0901 C   0  0  0  0  0  0  0  0  0  0  0  0
    2.3909    0.8871   -0.1267 N   0  0  0  0  0  0  0  0  0  0  0  0
    2.5616    2.0955   -0.2228 O   0  0  0  0  0  0  0  0  0  0  0  0
    3.2749    0.0282   -0.0571 O   0  0  0  0  0  0  0  0  0  0  0  0
    0.7911   -0.9737    0.0299 C   0  0  0  0  0  0  0  0  0  0  0  0
   -0.4956   -1.4672    0.0690 C   0  0  0  0  0  0  0  0  0  0  0  0
   -2.1970    1.5415   -0.2036 H   0  0  0  0  0  0  0  0  0  0  0  0
    0.1706    2.3959   -0.2679 H   0  0  0  0  0  0  0  0  0  0  0  0
    1.6507   -1.6290    0.0909 H   0  0  0  0  0  0  0  0  0  0  0  0
   -0.6950   -2.5286    0.1630 H   0  0  0  0  0  0  0  0  0  0  0  0
    1.1461    5.3686   -0.5064 Cl  0  0  0  0  0  0  0  0  0  0  0  0
  1  2  1  0  0  0  0
  1 11  2  0  0  0  0
  2  3  1  0  0  0  0
  4  1  1  0  0  0  0
  5  4  2  0  0  0  0
  5  6  1  0  0  0  0
  6 10  2  0  0  0  0
  7  6  1  0  0  0  0
  7  9  2  0  0  0  0
  8  7  2  0  0  0  0
 10 11  1  0  0  0  0
 10 14  1  0  0  0  0
 11 15  1  0  0  0  0
 12  4  1  0  0  0  0
 13  5  1  0  0  0  0
M  RAD  3   2   2   3   3  16   2
M  END
