Coordinates from ORCA-job 4-NO2PhN2+~Cl-_B3LYPG-6-31G_dp-NX-Scan-d89-09-n800
 OpenBabel11261920193D

 16 16  0  0  0  0  0  0  0  0999 V2000
   -1.2529    0.2259    0.5684 C   0  0  0  0  0  0  0  0  0  0  0  0
   -2.5398    0.1290    1.2021 N   0  0  0  0  0  0  0  0  0  0  0  0
   -3.5908    0.0974    0.5012 N   0  0  0  0  0  0  0  0  0  0  0  0
   -0.6798    1.4870    0.3488 C   0  0  0  0  0  0  0  0  0  0  0  0
    0.6183    1.5831   -0.1400 C   0  0  0  0  0  0  0  0  0  0  0  0
    1.3310    0.4119   -0.3934 C   0  0  0  0  0  0  0  0  0  0  0  0
    2.7023    0.5104   -0.9122 N   0  0  0  0  0  0  0  0  0  0  0  0
    3.1604    1.6368   -1.1022 O   0  0  0  0  0  0  0  0  0  0  0  0
    3.3077   -0.5392   -1.1267 O   0  0  0  0  0  0  0  0  0  0  0  0
    0.7842   -0.8500   -0.1637 C   0  0  0  0  0  0  0  0  0  0  0  0
   -0.5138   -0.9408    0.3270 C   0  0  0  0  0  0  0  0  0  0  0  0
   -1.2506    2.3827    0.5702 H   0  0  0  0  0  0  0  0  0  0  0  0
    1.0863    2.5416   -0.3259 H   0  0  0  0  0  0  0  0  0  0  0  0
    1.3778   -1.7323   -0.3678 H   0  0  0  0  0  0  0  0  0  0  0  0
   -0.9574   -1.9095    0.5319 H   0  0  0  0  0  0  0  0  0  0  0  0
   -3.6361    0.1443   -0.8879 Cl  0  0  0  0  0  0  0  0  0  0  0  0
  1  2  1  0  0  0  0
  3  2  2  0  0  0  0
  4  1  1  0  0  0  0
  4 12  1  0  0  0  0
  5  4  2  0  0  0  0
  6 10  2  0  0  0  0
  6  5  1  0  0  0  0
  7  6  1  0  0  0  0
  8  7  2  0  0  0  0
  9  7  2  0  0  0  0
 10 11  1  0  0  0  0
 11 15  1  0  0  0  0
 11  1  2  0  0  0  0
 13  5  1  0  0  0  0
 14 10  1  0  0  0  0
 16  3  1  0  0  0  0
M  END
