Coordinates from ORCA-job 4-NO2PhN2+~Cl-_B3LYPG-6-31G_dp-NX-Scan-d89-09-n800
 OpenBabel11261920193D

 16 15  0  0  0  0  0  0  0  0999 V2000
   -1.4972   -0.3854    0.0073 C   0  0  0  0  0  0  0  0  0  0  0  0
   -2.7818   -0.8409    0.0427 N   0  0  0  0  0  0  0  0  0  0  0  0
   -3.8126   -1.2996    0.0785 N   0  0  0  0  0  0  0  0  0  0  0  0
   -1.2202    0.9867   -0.2217 C   0  0  0  0  0  0  0  0  0  0  0  0
    0.1102    1.3715   -0.3476 C   0  0  0  0  0  0  0  0  0  0  0  0
    1.1040    0.4017   -0.2007 C   0  0  0  0  0  0  0  0  0  0  0  0
    2.5130    0.7881   -0.3929 N   0  0  0  0  0  0  0  0  0  0  0  0
    2.7319    1.9142   -0.8203 O   0  0  0  0  0  0  0  0  0  0  0  0
    3.3646   -0.0605   -0.1173 O   0  0  0  0  0  0  0  0  0  0  0  0
    0.8327   -0.9405    0.1065 C   0  0  0  0  0  0  0  0  0  0  0  0
   -0.4759   -1.3600    0.1964 C   0  0  0  0  0  0  0  0  0  0  0  0
   -2.0066    1.7310   -0.2923 H   0  0  0  0  0  0  0  0  0  0  0  0
    0.3408    2.4337   -0.4934 H   0  0  0  0  0  0  0  0  0  0  0  0
    1.6579   -1.6277    0.2445 H   0  0  0  0  0  0  0  0  0  0  0  0
   -0.7334   -2.3925    0.4009 H   0  0  0  0  0  0  0  0  0  0  0  0
   -0.1805    4.4584    0.4390 Cl  0  0  0  0  0  0  0  0  0  0  0  0
  1  2  1  0  0  0  0
  1 11  2  0  0  0  0
  2  3  1  0  0  0  0
  4  1  1  0  0  0  0
  5  4  2  0  0  0  0
  5  6  1  0  0  0  0
  6 10  2  0  0  0  0
  7  6  1  0  0  0  0
  7  9  2  0  0  0  0
  8  7  2  0  0  0  0
 10 11  1  0  0  0  0
 10 14  1  0  0  0  0
 11 15  1  0  0  0  0
 12  4  1  0  0  0  0
 13  5  1  0  0  0  0
M  RAD  3   2   2   3   3  16   2
M  END
