Coordinates from ORCA-job 4-NO2PhN2+~Cl-_B3LYPG-6-31G_dp-NX-Scan-d89-09-n800
 OpenBabel11261920193D

 16 15  0  0  0  0  0  0  0  0999 V2000
   -1.5115   -0.4295    0.0026 C   0  0  0  0  0  0  0  0  0  0  0  0
   -2.7907   -0.8988    0.0439 N   0  0  0  0  0  0  0  0  0  0  0  0
   -3.8234   -1.3544    0.0895 N   0  0  0  0  0  0  0  0  0  0  0  0
   -1.2566    0.9545   -0.1800 C   0  0  0  0  0  0  0  0  0  0  0  0
    0.0643    1.3718   -0.2916 C   0  0  0  0  0  0  0  0  0  0  0  0
    1.0748    0.4119   -0.1774 C   0  0  0  0  0  0  0  0  0  0  0  0
    2.4790    0.8271   -0.3487 N   0  0  0  0  0  0  0  0  0  0  0  0
    2.6787    1.9552   -0.7779 O   0  0  0  0  0  0  0  0  0  0  0  0
    3.3429   -0.0022   -0.0510 O   0  0  0  0  0  0  0  0  0  0  0  0
    0.8272   -0.9446    0.0771 C   0  0  0  0  0  0  0  0  0  0  0  0
   -0.4745   -1.3916    0.1503 C   0  0  0  0  0  0  0  0  0  0  0  0
   -2.0635    1.6782   -0.2259 H   0  0  0  0  0  0  0  0  0  0  0  0
    0.2856    2.4449   -0.4117 H   0  0  0  0  0  0  0  0  0  0  0  0
    1.6650   -1.6214    0.1887 H   0  0  0  0  0  0  0  0  0  0  0  0
   -0.7126   -2.4365    0.3121 H   0  0  0  0  0  0  0  0  0  0  0  0
    0.1623    4.6136    0.2296 Cl  0  0  0  0  0  0  0  0  0  0  0  0
  1  2  1  0  0  0  0
  1 11  2  0  0  0  0
  2  3  1  0  0  0  0
  4  1  1  0  0  0  0
  5  4  2  0  0  0  0
  5  6  1  0  0  0  0
  6 10  2  0  0  0  0
  7  6  1  0  0  0  0
  7  9  2  0  0  0  0
  8  7  2  0  0  0  0
 10 11  1  0  0  0  0
 10 14  1  0  0  0  0
 11 15  1  0  0  0  0
 12  4  1  0  0  0  0
 13  5  1  0  0  0  0
M  RAD  3   2   2   3   3  16   2
M  END
