Coordinates from ORCA-job 4-NO2PhN2+~Cl-_B3LYPG-6-31G_dp-NX-Scan-d89-09-n800
 OpenBabel11261920183D

 16 15  0  0  0  0  0  0  0  0999 V2000
   -1.5757   -0.5710   -0.0144 C   0  0  0  0  0  0  0  0  0  0  0  0
   -2.8324   -1.0852    0.0247 N   0  0  0  0  0  0  0  0  0  0  0  0
   -3.8566   -1.5718    0.0625 N   0  0  0  0  0  0  0  0  0  0  0  0
   -1.3745    0.8313   -0.1382 C   0  0  0  0  0  0  0  0  0  0  0  0
   -0.0742    1.3107   -0.1753 C   0  0  0  0  0  0  0  0  0  0  0  0
    0.9858    0.3973   -0.0903 C   0  0  0  0  0  0  0  0  0  0  0  0
    2.3696    0.8948   -0.1299 N   0  0  0  0  0  0  0  0  0  0  0  0
    2.5253    2.1052   -0.2349 O   0  0  0  0  0  0  0  0  0  0  0  0
    3.2646    0.0483   -0.0538 O   0  0  0  0  0  0  0  0  0  0  0  0
    0.7890   -0.9848    0.0321 C   0  0  0  0  0  0  0  0  0  0  0  0
   -0.4940   -1.4887    0.0721 C   0  0  0  0  0  0  0  0  0  0  0  0
   -2.2217    1.5044   -0.2021 H   0  0  0  0  0  0  0  0  0  0  0  0
    0.1396    2.3738   -0.2687 H   0  0  0  0  0  0  0  0  0  0  0  0
    1.6538   -1.6331    0.0938 H   0  0  0  0  0  0  0  0  0  0  0  0
   -0.6844   -2.5516    0.1675 H   0  0  0  0  0  0  0  0  0  0  0  0
    1.3326    5.5986   -0.5155 Cl  0  0  0  0  0  0  0  0  0  0  0  0
  1  2  1  0  0  0  0
  1 11  2  0  0  0  0
  2  3  1  0  0  0  0
  4  1  1  0  0  0  0
  5  4  2  0  0  0  0
  5  6  1  0  0  0  0
  6 10  2  0  0  0  0
  7  6  1  0  0  0  0
  7  9  2  0  0  0  0
  8  7  2  0  0  0  0
 10 11  1  0  0  0  0
 10 14  1  0  0  0  0
 11 15  1  0  0  0  0
 12  4  1  0  0  0  0
 13  5  1  0  0  0  0
M  RAD  3   2   2   3   3  16   2
M  END
