Coordinates from ORCA-job 4-NO2PhN2+~Cl-_B3LYPG-6-31G_dp-NX-Scan-d89-09-n800
 OpenBabel11261920193D

 16 15  0  0  0  0  0  0  0  0999 V2000
   -1.4838   -0.2328    0.0409 C   0  0  0  0  0  0  0  0  0  0  0  0
   -2.7623   -0.6888    0.0016 N   0  0  0  0  0  0  0  0  0  0  0  0
   -3.7738   -1.1878   -0.0660 N   0  0  0  0  0  0  0  0  0  0  0  0
   -1.1714    1.0933   -0.3574 C   0  0  0  0  0  0  0  0  0  0  0  0
    0.1852    1.3963   -0.5587 C   0  0  0  0  0  0  0  0  0  0  0  0
    1.1421    0.4344   -0.2851 C   0  0  0  0  0  0  0  0  0  0  0  0
    2.5526    0.7513   -0.5390 N   0  0  0  0  0  0  0  0  0  0  0  0
    2.8072    1.8310   -1.0653 O   0  0  0  0  0  0  0  0  0  0  0  0
    3.3838   -0.1004   -0.2187 O   0  0  0  0  0  0  0  0  0  0  0  0
    0.8297   -0.8395    0.2433 C   0  0  0  0  0  0  0  0  0  0  0  0
   -0.4818   -1.1945    0.4043 C   0  0  0  0  0  0  0  0  0  0  0  0
   -1.9417    1.8106   -0.6063 H   0  0  0  0  0  0  0  0  0  0  0  0
    0.4745    2.3723   -0.9204 H   0  0  0  0  0  0  0  0  0  0  0  0
    1.6355   -1.5177    0.4922 H   0  0  0  0  0  0  0  0  0  0  0  0
   -0.7733   -2.1699    0.7743 H   0  0  0  0  0  0  0  0  0  0  0  0
   -0.6755    3.4203    1.2900 Cl  0  0  0  0  0  0  0  0  0  0  0  0
  1 11  2  0  0  0  0
  2  1  1  0  0  0  0
  3  2  1  0  0  0  0
  4  1  1  0  0  0  0
  5  4  2  0  0  0  0
  5  6  1  0  0  0  0
  6 10  2  0  0  0  0
  7  6  1  0  0  0  0
  7  9  2  0  0  0  0
  8  7  2  0  0  0  0
 10 11  1  0  0  0  0
 10 14  1  0  0  0  0
 11 15  1  0  0  0  0
 12  4  1  0  0  0  0
 13  5  1  0  0  0  0
M  RAD  3   2   2   3   3  16   2
M  END
