Coordinates from ORCA-job 4-NO2PhN2+~Cl-_B3LYPG-6-31G_dp-NX-Scan-d89-09-n800
 OpenBabel11261920193D

 16 16  0  0  1  0  0  0  0  0999 V2000
   -1.4138   -0.2693    0.0258 C   0  0  0  0  0  0  0  0  0  0  0  0
   -2.6703   -0.4060    0.4157 N   0  0  0  0  0  0  0  0  0  0  0  0
   -3.6870   -0.0473    0.7822 N   0  0  0  0  0  0  0  0  0  0  0  0
   -1.1557    1.1390   -0.3890 C   0  0  2  0  0  0  0  0  0  0  0  0
    0.2850    1.4101   -0.5448 C   0  0  0  0  0  0  0  0  0  0  0  0
    1.2050    0.4512   -0.2893 C   0  0  0  0  0  0  0  0  0  0  0  0
    2.6340    0.8014   -0.4898 N   0  0  0  0  0  0  0  0  0  0  0  0
    2.9033    1.9380   -0.8675 O   0  0  0  0  0  0  0  0  0  0  0  0
    3.4592   -0.0804   -0.2607 O   0  0  0  0  0  0  0  0  0  0  0  0
    0.9086   -0.8907    0.1361 C   0  0  0  0  0  0  0  0  0  0  0  0
   -0.3968   -1.2334    0.2975 C   0  0  0  0  0  0  0  0  0  0  0  0
   -1.7470    1.4788   -1.2395 H   0  0  0  0  0  0  0  0  0  0  0  0
    0.6004    2.3860   -0.8900 H   0  0  0  0  0  0  0  0  0  0  0  0
    1.7201   -1.5758    0.3321 H   0  0  0  0  0  0  0  0  0  0  0  0
   -0.6864   -2.2152    0.6559 H   0  0  0  0  0  0  0  0  0  0  0  0
   -2.0117    2.2919    0.9551 Cl  0  0  0  0  0  0  0  0  0  0  0  0
  1 11  2  0  0  0  0
  1  2  1  0  0  0  0
  2  3  1  0  0  0  0
  4 12  1  6  0  0  0
  4  1  1  0  0  0  0
  4 16  1  0  0  0  0
  5  4  1  0  0  0  0
  5  6  2  0  0  0  0
  6 10  1  0  0  0  0
  7  6  1  0  0  0  0
  7  9  2  0  0  0  0
  8  7  2  0  0  0  0
 10 11  1  0  0  0  0
 10 14  1  0  0  0  0
 11 15  1  0  0  0  0
 13  5  1  0  0  0  0
M  RAD  3   2   2   3   3  10   2
M  END
