Coordinates from ORCA-job 4-NO2PhN2+~Cl-_B3LYPG-6-31G_dp-NX-Scan-d89-09-n800
 OpenBabel11261920193D

 16 15  0  0  0  0  0  0  0  0999 V2000
   -1.4846   -0.2542    0.0330 C   0  0  0  0  0  0  0  0  0  0  0  0
   -2.7657   -0.7099    0.0062 N   0  0  0  0  0  0  0  0  0  0  0  0
   -3.7784   -1.2070   -0.0463 N   0  0  0  0  0  0  0  0  0  0  0  0
   -1.1768    1.0764   -0.3505 C   0  0  0  0  0  0  0  0  0  0  0  0
    0.1759    1.3917   -0.5363 C   0  0  0  0  0  0  0  0  0  0  0  0
    1.1382    0.4275   -0.2746 C   0  0  0  0  0  0  0  0  0  0  0  0
    2.5486    0.7534   -0.5197 N   0  0  0  0  0  0  0  0  0  0  0  0
    2.7990    1.8393   -1.0343 O   0  0  0  0  0  0  0  0  0  0  0  0
    3.3824   -0.0976   -0.2038 O   0  0  0  0  0  0  0  0  0  0  0  0
    0.8300   -0.8558    0.2261 C   0  0  0  0  0  0  0  0  0  0  0  0
   -0.4820   -1.2198    0.3766 C   0  0  0  0  0  0  0  0  0  0  0  0
   -1.9466    1.8060   -0.5660 H   0  0  0  0  0  0  0  0  0  0  0  0
    0.4594    2.3793   -0.8713 H   0  0  0  0  0  0  0  0  0  0  0  0
    1.6378   -1.5363    0.4629 H   0  0  0  0  0  0  0  0  0  0  0  0
   -0.7701   -2.2034    0.7272 H   0  0  0  0  0  0  0  0  0  0  0  0
   -0.6202    3.5889    1.2005 Cl  0  0  0  0  0  0  0  0  0  0  0  0
  1 11  2  0  0  0  0
  2  1  1  0  0  0  0
  3  2  1  0  0  0  0
  4  1  1  0  0  0  0
  5  4  2  0  0  0  0
  5  6  1  0  0  0  0
  6 10  2  0  0  0  0
  7  6  1  0  0  0  0
  7  9  2  0  0  0  0
  8  7  2  0  0  0  0
 10 11  1  0  0  0  0
 10 14  1  0  0  0  0
 11 15  1  0  0  0  0
 12  4  1  0  0  0  0
 13  5  1  0  0  0  0
M  RAD  3   2   2   3   3  16   2
M  END
