Coordinates from ORCA-job 4-NO2PhN2+~Cl-_B3LYPG-6-31G_dp-NX-Scan-d89-09-n800
 OpenBabel11261920193D

 16 16  0  0  1  0  0  0  0  0999 V2000
   -1.4250   -0.2270    0.0288 C   0  0  0  0  0  0  0  0  0  0  0  0
   -2.6912   -0.4198    0.3424 N   0  0  0  0  0  0  0  0  0  0  0  0
   -3.7828   -0.3268    0.6418 N   0  0  0  0  0  0  0  0  0  0  0  0
   -1.1434    1.1825   -0.3544 C   0  0  2  0  0  0  0  0  0  0  0  0
    0.2968    1.4226   -0.5670 C   0  0  0  0  0  0  0  0  0  0  0  0
    1.2084    0.4622   -0.2931 C   0  0  0  0  0  0  0  0  0  0  0  0
    2.6383    0.7839   -0.5233 N   0  0  0  0  0  0  0  0  0  0  0  0
    2.9180    1.8993   -0.9534 O   0  0  0  0  0  0  0  0  0  0  0  0
    3.4544   -0.0993   -0.2678 O   0  0  0  0  0  0  0  0  0  0  0  0
    0.8959   -0.8607    0.1791 C   0  0  0  0  0  0  0  0  0  0  0  0
   -0.4120   -1.1903    0.3382 C   0  0  0  0  0  0  0  0  0  0  0  0
   -1.7615    1.5594   -1.1685 H   0  0  0  0  0  0  0  0  0  0  0  0
    0.6165    2.3856   -0.9430 H   0  0  0  0  0  0  0  0  0  0  0  0
    1.6996   -1.5492    0.3952 H   0  0  0  0  0  0  0  0  0  0  0  0
   -0.7108   -2.1649    0.7084 H   0  0  0  0  0  0  0  0  0  0  0  0
   -1.8542    2.3209    1.0664 Cl  0  0  0  0  0  0  0  0  0  0  0  0
  1 11  2  0  0  0  0
  1  2  1  0  0  0  0
  2  3  1  0  0  0  0
  4 12  1  6  0  0  0
  4  1  1  0  0  0  0
  4 16  1  0  0  0  0
  5  4  1  0  0  0  0
  5  6  2  0  0  0  0
  6 10  1  0  0  0  0
  7  6  1  0  0  0  0
  7  9  2  0  0  0  0
  8  7  2  0  0  0  0
 10 11  1  0  0  0  0
 10 14  1  0  0  0  0
 11 15  1  0  0  0  0
 13  5  1  0  0  0  0
M  RAD  3   2   2   3   3  10   2
M  END
