Coordinates from ORCA-job 4-NO2PhN2+~Cl-_B3LYPG-6-31G_dp-NX-Scan-d89-09-n800
 OpenBabel11261920183D

 16 15  0  0  0  0  0  0  0  0999 V2000
   -1.5741   -0.5634   -0.0149 C   0  0  0  0  0  0  0  0  0  0  0  0
   -2.8314   -1.0773    0.0243 N   0  0  0  0  0  0  0  0  0  0  0  0
   -3.8543   -1.5663    0.0622 N   0  0  0  0  0  0  0  0  0  0  0  0
   -1.3703    0.8386   -0.1385 C   0  0  0  0  0  0  0  0  0  0  0  0
   -0.0689    1.3161   -0.1752 C   0  0  0  0  0  0  0  0  0  0  0  0
    0.9889    0.4002   -0.0903 C   0  0  0  0  0  0  0  0  0  0  0  0
    2.3745    0.8937   -0.1289 N   0  0  0  0  0  0  0  0  0  0  0  0
    2.5336    2.1038   -0.2310 O   0  0  0  0  0  0  0  0  0  0  0  0
    3.2670    0.0443   -0.0549 O   0  0  0  0  0  0  0  0  0  0  0  0
    0.7895   -0.9816    0.0314 C   0  0  0  0  0  0  0  0  0  0  0  0
   -0.4942   -1.4832    0.0713 C   0  0  0  0  0  0  0  0  0  0  0  0
   -2.2162    1.5133   -0.2026 H   0  0  0  0  0  0  0  0  0  0  0  0
    0.1467    2.3794   -0.2687 H   0  0  0  0  0  0  0  0  0  0  0  0
    1.6533   -1.6315    0.0928 H   0  0  0  0  0  0  0  0  0  0  0  0
   -0.6866   -2.5458    0.1662 H   0  0  0  0  0  0  0  0  0  0  0  0
    1.2893    5.5382   -0.5134 Cl  0  0  0  0  0  0  0  0  0  0  0  0
  1  2  1  0  0  0  0
  1 11  2  0  0  0  0
  2  3  1  0  0  0  0
  4  1  1  0  0  0  0
  5  4  2  0  0  0  0
  5  6  1  0  0  0  0
  6 10  2  0  0  0  0
  7  6  1  0  0  0  0
  7  9  2  0  0  0  0
  8  7  2  0  0  0  0
 10 11  1  0  0  0  0
 10 14  1  0  0  0  0
 11 15  1  0  0  0  0
 12  4  1  0  0  0  0
 13  5  1  0  0  0  0
M  RAD  3   2   2   3   3  16   2
M  END
