Coordinates from ORCA-job 4-NO2PhN2+~Cl-_B3LYPG-6-31G_dp-NX-Scan-d89-09-n800
 OpenBabel11261920193D

 16 15  0  0  0  0  0  0  0  0999 V2000
   -1.5524   -0.5189   -0.0217 C   0  0  0  0  0  0  0  0  0  0  0  0
   -2.8033   -1.0320    0.0561 N   0  0  0  0  0  0  0  0  0  0  0  0
   -3.8446   -1.4672    0.1259 N   0  0  0  0  0  0  0  0  0  0  0  0
   -1.3914    0.8676   -0.2916 C   0  0  0  0  0  0  0  0  0  0  0  0
   -0.1092    1.3677   -0.4054 C   0  0  0  0  0  0  0  0  0  0  0  0
    0.9746    0.4935   -0.2219 C   0  0  0  0  0  0  0  0  0  0  0  0
    2.3170    1.0239   -0.3544 N   0  0  0  0  0  0  0  0  0  0  0  0
    2.4126    2.0992   -0.9533 O   0  0  0  0  0  0  0  0  0  0  0  0
    3.2452    0.3730    0.1448 O   0  0  0  0  0  0  0  0  0  0  0  0
    0.8169   -0.8636    0.0986 C   0  0  0  0  0  0  0  0  0  0  0  0
   -0.4518   -1.3953    0.1836 C   0  0  0  0  0  0  0  0  0  0  0  0
   -2.2589    1.5098   -0.3926 H   0  0  0  0  0  0  0  0  0  0  0  0
    0.0928    2.4278   -0.5620 H   0  0  0  0  0  0  0  0  0  0  0  0
    1.7007   -1.4673    0.2641 H   0  0  0  0  0  0  0  0  0  0  0  0
   -0.6194   -2.4436    0.4021 H   0  0  0  0  0  0  0  0  0  0  0  0
    1.4182    4.2035    0.5576 Cl  0  0  0  0  0  0  0  0  0  0  0  0
  1  2  1  0  0  0  0
  1 11  2  0  0  0  0
  2  3  1  0  0  0  0
  4  1  1  0  0  0  0
  5  4  2  0  0  0  0
  5  6  1  0  0  0  0
  6 10  2  0  0  0  0
  7  6  1  0  0  0  0
  7  9  2  0  0  0  0
  8  7  2  0  0  0  0
 10 11  1  0  0  0  0
 10 14  1  0  0  0  0
 11 15  1  0  0  0  0
 12  4  1  0  0  0  0
 13  5  1  0  0  0  0
M  RAD  3   2   2   3   3  16   2
M  END
