Coordinates from ORCA-job 4-NO2PhN2+~Cl-_B3LYPG-6-31G_dp-NX-Scan-d89-09-n800
 OpenBabel11261920193D

 16 15  0  0  0  0  0  0  0  0999 V2000
   -1.5148   -0.4384    0.0027 C   0  0  0  0  0  0  0  0  0  0  0  0
   -2.7927   -0.9107    0.0471 N   0  0  0  0  0  0  0  0  0  0  0  0
   -3.8245   -1.3685    0.0934 N   0  0  0  0  0  0  0  0  0  0  0  0
   -1.2645    0.9481   -0.1680 C   0  0  0  0  0  0  0  0  0  0  0  0
    0.0543    1.3719   -0.2768 C   0  0  0  0  0  0  0  0  0  0  0  0
    1.0684    0.4140   -0.1723 C   0  0  0  0  0  0  0  0  0  0  0  0
    2.4713    0.8362   -0.3353 N   0  0  0  0  0  0  0  0  0  0  0  0
    2.6674    1.9674   -0.7578 O   0  0  0  0  0  0  0  0  0  0  0  0
    3.3375    0.0092   -0.0372 O   0  0  0  0  0  0  0  0  0  0  0  0
    0.8256   -0.9460    0.0671 C   0  0  0  0  0  0  0  0  0  0  0  0
   -0.4746   -1.3983    0.1378 C   0  0  0  0  0  0  0  0  0  0  0  0
   -2.0755    1.6675   -0.2074 H   0  0  0  0  0  0  0  0  0  0  0  0
    0.2750    2.4461   -0.3922 H   0  0  0  0  0  0  0  0  0  0  0  0
    1.6660   -1.6209    0.1704 H   0  0  0  0  0  0  0  0  0  0  0  0
   -0.7087   -2.4457    0.2887 H   0  0  0  0  0  0  0  0  0  0  0  0
    0.2369    4.6462    0.1696 Cl  0  0  0  0  0  0  0  0  0  0  0  0
  1  2  1  0  0  0  0
  1 11  1  0  0  0  0
  2  3  1  0  0  0  0
  4  1  2  0  0  0  0
  5  6  2  0  0  0  0
  5  4  1  0  0  0  0
  6 10  1  0  0  0  0
  7  6  1  0  0  0  0
  7  9  2  0  0  0  0
  8  7  2  0  0  0  0
 10 11  2  0  0  0  0
 10 14  1  0  0  0  0
 11 15  1  0  0  0  0
 12  4  1  0  0  0  0
 13  5  1  0  0  0  0
M  RAD  3   2   2   3   3  16   2
M  END
