Coordinates from ORCA-job 4-NO2PhN2+~Cl-_B3LYPG-6-31G_dp-NX-Scan-d89-09-n800
 OpenBabel11261920193D

 16 16  0  0  1  0  0  0  0  0999 V2000
   -1.4325   -0.2004    0.0397 C   0  0  0  0  0  0  0  0  0  0  0  0
   -2.7072   -0.4450    0.2716 N   0  0  0  0  0  0  0  0  0  0  0  0
   -3.8215   -0.5011    0.4845 N   0  0  0  0  0  0  0  0  0  0  0  0
   -1.1369    1.2093   -0.3173 C   0  0  2  0  0  0  0  0  0  0  0  0
    0.2977    1.4273   -0.5819 C   0  0  0  0  0  0  0  0  0  0  0  0
    1.2069    0.4685   -0.2948 C   0  0  0  0  0  0  0  0  0  0  0  0
    2.6351    0.7701   -0.5543 N   0  0  0  0  0  0  0  0  0  0  0  0
    2.9172    1.8673   -1.0276 O   0  0  0  0  0  0  0  0  0  0  0  0
    3.4480   -0.1100   -0.2782 O   0  0  0  0  0  0  0  0  0  0  0  0
    0.8874   -0.8373    0.2175 C   0  0  0  0  0  0  0  0  0  0  0  0
   -0.4219   -1.1604    0.3763 C   0  0  0  0  0  0  0  0  0  0  0  0
   -1.7834    1.6196   -1.0912 H   0  0  0  0  0  0  0  0  0  0  0  0
    0.6171    2.3789   -0.9860 H   0  0  0  0  0  0  0  0  0  0  0  0
    1.6874   -1.5250    0.4500 H   0  0  0  0  0  0  0  0  0  0  0  0
   -0.7248   -2.1302    0.7556 H   0  0  0  0  0  0  0  0  0  0  0  0
   -1.7217    2.3469    1.1657 Cl  0  0  0  0  0  0  0  0  0  0  0  0
  1  2  1  0  0  0  0
  1 11  2  0  0  0  0
  2  3  1  0  0  0  0
  4 12  1  6  0  0  0
  4  1  1  0  0  0  0
  4 16  1  0  0  0  0
  5  4  1  0  0  0  0
  5  6  2  0  0  0  0
  6 10  1  0  0  0  0
  7  6  1  0  0  0  0
  7  9  2  0  0  0  0
  8  7  2  0  0  0  0
 10 11  1  0  0  0  0
 10 14  1  0  0  0  0
 11 15  1  0  0  0  0
 13  5  1  0  0  0  0
M  RAD  3   2   2   3   3  10   2
M  END
