Coordinates from ORCA-job 4-NO2PhN2+~Cl-_B3LYPG-6-31G_dp-NX-Scan-d89-09-n800
 OpenBabel11261920193D

 16 16  0  0  0  0  0  0  0  0999 V2000
   -1.2545    0.2278    0.5656 C   0  0  0  0  0  0  0  0  0  0  0  0
   -2.5423    0.1322    1.2011 N   0  0  0  0  0  0  0  0  0  0  0  0
   -3.5887    0.0955    0.4859 N   0  0  0  0  0  0  0  0  0  0  0  0
   -0.6788    1.4882    0.3469 C   0  0  0  0  0  0  0  0  0  0  0  0
    0.6200    1.5838   -0.1401 C   0  0  0  0  0  0  0  0  0  0  0  0
    1.3322    0.4123   -0.3934 C   0  0  0  0  0  0  0  0  0  0  0  0
    2.7040    0.5100   -0.9104 N   0  0  0  0  0  0  0  0  0  0  0  0
    3.1634    1.6360   -1.0996 O   0  0  0  0  0  0  0  0  0  0  0  0
    3.3091   -0.5400   -1.1248 O   0  0  0  0  0  0  0  0  0  0  0  0
    0.7839   -0.8492   -0.1651 C   0  0  0  0  0  0  0  0  0  0  0  0
   -0.5150   -0.9389    0.3233 C   0  0  0  0  0  0  0  0  0  0  0  0
   -1.2486    2.3845    0.5690 H   0  0  0  0  0  0  0  0  0  0  0  0
    1.0891    2.5421   -0.3245 H   0  0  0  0  0  0  0  0  0  0  0  0
    1.3771   -1.7319   -0.3688 H   0  0  0  0  0  0  0  0  0  0  0  0
   -0.9591   -1.9076    0.5275 H   0  0  0  0  0  0  0  0  0  0  0  0
   -3.6449    0.1336   -0.8629 Cl  0  0  0  0  0  0  0  0  0  0  0  0
  1  2  1  0  0  0  0
  3  2  2  0  0  0  0
  4  1  1  0  0  0  0
  4 12  1  0  0  0  0
  5  4  2  0  0  0  0
  6 10  2  0  0  0  0
  6  5  1  0  0  0  0
  7  6  1  0  0  0  0
  8  7  2  0  0  0  0
  9  7  2  0  0  0  0
 10 11  1  0  0  0  0
 11 15  1  0  0  0  0
 11  1  2  0  0  0  0
 13  5  1  0  0  0  0
 14 10  1  0  0  0  0
 16  3  1  0  0  0  0
M  END
