Coordinates from ORCA-job 4-NO2PhN2+~Cl-_B3LYPG-6-31G_dp-NX-Scan-d89-09-n800
 OpenBabel11261920183D

 16 15  0  0  0  0  0  0  0  0999 V2000
   -1.5745   -0.5653   -0.0148 C   0  0  0  0  0  0  0  0  0  0  0  0
   -2.8316   -1.0793    0.0244 N   0  0  0  0  0  0  0  0  0  0  0  0
   -3.8549   -1.5677    0.0623 N   0  0  0  0  0  0  0  0  0  0  0  0
   -1.3713    0.8368   -0.1384 C   0  0  0  0  0  0  0  0  0  0  0  0
   -0.0703    1.3147   -0.1752 C   0  0  0  0  0  0  0  0  0  0  0  0
    0.9881    0.3995   -0.0904 C   0  0  0  0  0  0  0  0  0  0  0  0
    2.3732    0.8940   -0.1292 N   0  0  0  0  0  0  0  0  0  0  0  0
    2.5315    2.1041   -0.2322 O   0  0  0  0  0  0  0  0  0  0  0  0
    3.2664    0.0453   -0.0546 O   0  0  0  0  0  0  0  0  0  0  0  0
    0.7894   -0.9824    0.0316 C   0  0  0  0  0  0  0  0  0  0  0  0
   -0.4942   -1.4846    0.0715 C   0  0  0  0  0  0  0  0  0  0  0  0
   -2.2176    1.5110   -0.2024 H   0  0  0  0  0  0  0  0  0  0  0  0
    0.1449    2.3780   -0.2687 H   0  0  0  0  0  0  0  0  0  0  0  0
    1.6534   -1.6319    0.0931 H   0  0  0  0  0  0  0  0  0  0  0  0
   -0.6860   -2.5473    0.1666 H   0  0  0  0  0  0  0  0  0  0  0  0
    1.3003    5.5532   -0.5138 Cl  0  0  0  0  0  0  0  0  0  0  0  0
  1  2  1  0  0  0  0
  1 11  2  0  0  0  0
  2  3  1  0  0  0  0
  4  1  1  0  0  0  0
  5  4  2  0  0  0  0
  5  6  1  0  0  0  0
  6 10  2  0  0  0  0
  7  6  1  0  0  0  0
  7  9  2  0  0  0  0
  8  7  2  0  0  0  0
 10 11  1  0  0  0  0
 10 14  1  0  0  0  0
 11 15  1  0  0  0  0
 12  4  1  0  0  0  0
 13  5  1  0  0  0  0
M  RAD  3   2   2   3   3  16   2
M  END
