Coordinates from ORCA-job 4-NO2PhN2+~Cl-_B3LYPG-6-31G_dp-NX-Scan-d89-09-n800
 OpenBabel11261920193D

 16 16  0  0  0  0  0  0  0  0999 V2000
   -1.2573    0.2296    0.5604 C   0  0  0  0  0  0  0  0  0  0  0  0
   -2.5473    0.1351    1.1985 N   0  0  0  0  0  0  0  0  0  0  0  0
   -3.5835    0.0942    0.4542 N   0  0  0  0  0  0  0  0  0  0  0  0
   -0.6777    1.4889    0.3427 C   0  0  0  0  0  0  0  0  0  0  0  0
    0.6225    1.5846   -0.1408 C   0  0  0  0  0  0  0  0  0  0  0  0
    1.3346    0.4127   -0.3934 C   0  0  0  0  0  0  0  0  0  0  0  0
    2.7072    0.5096   -0.9072 N   0  0  0  0  0  0  0  0  0  0  0  0
    3.1684    1.6354   -1.0949 O   0  0  0  0  0  0  0  0  0  0  0  0
    3.3124   -0.5407   -1.1210 O   0  0  0  0  0  0  0  0  0  0  0  0
    0.7844   -0.8484   -0.1670 C   0  0  0  0  0  0  0  0  0  0  0  0
   -0.5160   -0.9366    0.3175 C   0  0  0  0  0  0  0  0  0  0  0  0
   -1.2461    2.3861    0.5653 H   0  0  0  0  0  0  0  0  0  0  0  0
    1.0929    2.5427   -0.3230 H   0  0  0  0  0  0  0  0  0  0  0  0
    1.3775   -1.7315   -0.3693 H   0  0  0  0  0  0  0  0  0  0  0  0
   -0.9602   -1.9057    0.5209 H   0  0  0  0  0  0  0  0  0  0  0  0
   -3.6651    0.1223   -0.8134 Cl  0  0  0  0  0  0  0  0  0  0  0  0
  1  2  1  0  0  0  0
  3  2  2  0  0  0  0
  4  1  1  0  0  0  0
  4 12  1  0  0  0  0
  5  4  2  0  0  0  0
  6 10  2  0  0  0  0
  6  5  1  0  0  0  0
  7  6  1  0  0  0  0
  8  7  2  0  0  0  0
  9  7  2  0  0  0  0
 10 11  1  0  0  0  0
 11 15  1  0  0  0  0
 11  1  2  0  0  0  0
 13  5  1  0  0  0  0
 14 10  1  0  0  0  0
 16  3  1  0  0  0  0
M  END
