Coordinates from ORCA-job 4-NO2PhN2+~Cl-_B3LYPG-6-31G_dp-NX-Scan-d89-09-n800
 OpenBabel11261920193D

 16 15  0  0  0  0  0  0  0  0999 V2000
   -1.5082   -0.4197    0.0032 C   0  0  0  0  0  0  0  0  0  0  0  0
   -2.7888   -0.8857    0.0430 N   0  0  0  0  0  0  0  0  0  0  0  0
   -3.8209   -1.3422    0.0871 N   0  0  0  0  0  0  0  0  0  0  0  0
   -1.2481    0.9617   -0.1907 C   0  0  0  0  0  0  0  0  0  0  0  0
    0.0749    1.3716   -0.3053 C   0  0  0  0  0  0  0  0  0  0  0  0
    1.0816    0.4092   -0.1829 C   0  0  0  0  0  0  0  0  0  0  0  0
    2.4869    0.8175   -0.3605 N   0  0  0  0  0  0  0  0  0  0  0  0
    2.6909    1.9453   -0.7890 O   0  0  0  0  0  0  0  0  0  0  0  0
    3.3482   -0.0156   -0.0667 O   0  0  0  0  0  0  0  0  0  0  0  0
    0.8285   -0.9439    0.0848 C   0  0  0  0  0  0  0  0  0  0  0  0
   -0.4750   -1.3847    0.1616 C   0  0  0  0  0  0  0  0  0  0  0  0
   -2.0505    1.6902   -0.2426 H   0  0  0  0  0  0  0  0  0  0  0  0
    0.2985    2.4424   -0.4312 H   0  0  0  0  0  0  0  0  0  0  0  0
    1.6633   -1.6231    0.2032 H   0  0  0  0  0  0  0  0  0  0  0  0
   -0.7176   -2.4268    0.3337 H   0  0  0  0  0  0  0  0  0  0  0  0
    0.0830    4.5823    0.2820 Cl  0  0  0  0  0  0  0  0  0  0  0  0
  1  2  1  0  0  0  0
  1 11  2  0  0  0  0
  2  3  1  0  0  0  0
  4  1  1  0  0  0  0
  5  4  2  0  0  0  0
  5  6  1  0  0  0  0
  6 10  2  0  0  0  0
  7  6  1  0  0  0  0
  7  9  2  0  0  0  0
  8  7  2  0  0  0  0
 10 11  1  0  0  0  0
 10 14  1  0  0  0  0
 11 15  1  0  0  0  0
 12  4  1  0  0  0  0
 13  5  1  0  0  0  0
M  RAD  3   2   2   3   3  16   2
M  END
