Coordinates from ORCA-job 4-NO2PhN2+~Cl-_B3LYPG-6-31G_dp-NX-Scan-d89-09-n800
 OpenBabel11261920193D

 16 16  0  0  1  0  0  0  0  0999 V2000
   -1.4472   -0.1597    0.0735 C   0  0  0  0  0  0  0  0  0  0  0  0
   -2.7222   -0.4953    0.1387 N   0  0  0  0  0  0  0  0  0  0  0  0
   -3.8286   -0.7566    0.1832 N   0  0  0  0  0  0  0  0  0  0  0  0
   -1.1319    1.2515   -0.2431 C   0  0  2  0  0  0  0  0  0  0  0  0
    0.2889    1.4339   -0.5945 C   0  0  0  0  0  0  0  0  0  0  0  0
    1.1965    0.4776   -0.2944 C   0  0  0  0  0  0  0  0  0  0  0  0
    2.6183    0.7455   -0.6089 N   0  0  0  0  0  0  0  0  0  0  0  0
    2.8983    1.8081   -1.1568 O   0  0  0  0  0  0  0  0  0  0  0  0
    3.4285   -0.1299   -0.3097 O   0  0  0  0  0  0  0  0  0  0  0  0
    0.8711   -0.7986    0.2839 C   0  0  0  0  0  0  0  0  0  0  0  0
   -0.4389   -1.1141    0.4483 C   0  0  0  0  0  0  0  0  0  0  0  0
   -1.8195    1.7116   -0.9491 H   0  0  0  0  0  0  0  0  0  0  0  0
    0.6043    2.3665   -1.0437 H   0  0  0  0  0  0  0  0  0  0  0  0
    1.6678   -1.4814    0.5417 H   0  0  0  0  0  0  0  0  0  0  0  0
   -0.7454   -2.0765    0.8430 H   0  0  0  0  0  0  0  0  0  0  0  0
   -1.4931    2.3957    1.3177 Cl  0  0  0  0  0  0  0  0  0  0  0  0
  1  2  1  0  0  0  0
  1 11  2  0  0  0  0
  2  3  1  0  0  0  0
  4 12  1  6  0  0  0
  4  1  1  0  0  0  0
  4 16  1  0  0  0  0
  5  6  2  0  0  0  0
  5  4  1  0  0  0  0
  6 10  1  0  0  0  0
  7  9  2  0  0  0  0
  7  6  1  0  0  0  0
  8  7  2  0  0  0  0
 10 11  1  0  0  0  0
 10 14  1  0  0  0  0
 11 15  1  0  0  0  0
 13  5  1  0  0  0  0
M  RAD  3   2   2   3   3  10   2
M  END
