Coordinates from ORCA-job 4-NO2PhN2+~Cl-_B3LYPG-6-31G_dp-NX-Scan-d89-09-n800
 OpenBabel11261920193D

 16 16  0  0  1  0  0  0  0  0999 V2000
   -1.4401   -0.1771    0.0563 C   0  0  0  0  0  0  0  0  0  0  0  0
   -2.7179   -0.4718    0.1987 N   0  0  0  0  0  0  0  0  0  0  0  0
   -3.8338   -0.6477    0.3215 N   0  0  0  0  0  0  0  0  0  0  0  0
   -1.1334    1.2330   -0.2774 C   0  0  2  0  0  0  0  0  0  0  0  0
    0.2940    1.4307   -0.5915 C   0  0  0  0  0  0  0  0  0  0  0  0
    1.2022    0.4735   -0.2959 C   0  0  0  0  0  0  0  0  0  0  0  0
    2.6272    0.7560   -0.5862 N   0  0  0  0  0  0  0  0  0  0  0  0
    2.9094    1.8361   -1.0974 O   0  0  0  0  0  0  0  0  0  0  0  0
    3.4387   -0.1197   -0.2921 O   0  0  0  0  0  0  0  0  0  0  0  0
    0.8787   -0.8157    0.2541 C   0  0  0  0  0  0  0  0  0  0  0  0
   -0.4312   -1.1340    0.4155 C   0  0  0  0  0  0  0  0  0  0  0  0
   -1.8042    1.6721   -1.0129 H   0  0  0  0  0  0  0  0  0  0  0  0
    0.6115    2.3715   -1.0216 H   0  0  0  0  0  0  0  0  0  0  0  0
    1.6764   -1.5011    0.5012 H   0  0  0  0  0  0  0  0  0  0  0  0
   -0.7367   -2.0996    0.8035 H   0  0  0  0  0  0  0  0  0  0  0  0
   -1.5939    2.3721    1.2537 Cl  0  0  0  0  0  0  0  0  0  0  0  0
  1  2  1  0  0  0  0
  1 11  2  0  0  0  0
  2  3  1  0  0  0  0
  4 12  1  6  0  0  0
  4  1  1  0  0  0  0
  4 16  1  0  0  0  0
  5  6  2  0  0  0  0
  5  4  1  0  0  0  0
  6 10  1  0  0  0  0
  7  6  1  0  0  0  0
  7  9  2  0  0  0  0
  8  7  2  0  0  0  0
 10 11  1  0  0  0  0
 10 14  1  0  0  0  0
 11 15  1  0  0  0  0
 13  5  1  0  0  0  0
M  RAD  3   2   2   3   3  10   2
M  END
