Coordinates from ORCA-job 4-NO2PhN2+~Cl-_B3LYPG-6-31G_dp-NX-Scan-d89-09-n800
 OpenBabel11261920193D

 16 15  0  0  0  0  0  0  0  0999 V2000
   -1.4842   -0.2542    0.0329 C   0  0  0  0  0  0  0  0  0  0  0  0
   -2.7657   -0.7086    0.0071 N   0  0  0  0  0  0  0  0  0  0  0  0
   -3.7799   -1.2028   -0.0443 N   0  0  0  0  0  0  0  0  0  0  0  0
   -1.1765    1.0762   -0.3514 C   0  0  0  0  0  0  0  0  0  0  0  0
    0.1762    1.3916   -0.5374 C   0  0  0  0  0  0  0  0  0  0  0  0
    1.1385    0.4276   -0.2754 C   0  0  0  0  0  0  0  0  0  0  0  0
    2.5489    0.7536   -0.5201 N   0  0  0  0  0  0  0  0  0  0  0  0
    2.7994    1.8400   -1.0335 O   0  0  0  0  0  0  0  0  0  0  0  0
    3.3828   -0.0969   -0.2028 O   0  0  0  0  0  0  0  0  0  0  0  0
    0.8303   -0.8557    0.2258 C   0  0  0  0  0  0  0  0  0  0  0  0
   -0.4816   -1.2197    0.3768 C   0  0  0  0  0  0  0  0  0  0  0  0
   -1.9465    1.8053   -0.5676 H   0  0  0  0  0  0  0  0  0  0  0  0
    0.4597    2.3791   -0.8726 H   0  0  0  0  0  0  0  0  0  0  0  0
    1.6381   -1.5360    0.4629 H   0  0  0  0  0  0  0  0  0  0  0  0
   -0.7696   -2.2031    0.7279 H   0  0  0  0  0  0  0  0  0  0  0  0
   -0.6230    3.5820    1.2015 Cl  0  0  0  0  0  0  0  0  0  0  0  0
  1 11  2  0  0  0  0
  2  1  1  0  0  0  0
  3  2  1  0  0  0  0
  4  1  1  0  0  0  0
  5  4  2  0  0  0  0
  5  6  1  0  0  0  0
  6 10  2  0  0  0  0
  7  6  1  0  0  0  0
  7  9  2  0  0  0  0
  8  7  2  0  0  0  0
 10 11  1  0  0  0  0
 10 14  1  0  0  0  0
 11 15  1  0  0  0  0
 12  4  1  0  0  0  0
 13  5  1  0  0  0  0
M  RAD  3   2   2   3   3  16   2
M  END
