Coordinates from ORCA-job 4-NO2PhN2+~Cl-_B3LYPG-6-31G_dp-NX-Scan-d89-09-n800
 OpenBabel11261920193D

 16 15  0  0  0  0  0  0  0  0999 V2000
   -1.4861   -0.2748    0.0265 C   0  0  0  0  0  0  0  0  0  0  0  0
   -2.7688   -0.7309    0.0105 N   0  0  0  0  0  0  0  0  0  0  0  0
   -3.7820   -1.2274   -0.0289 N   0  0  0  0  0  0  0  0  0  0  0  0
   -1.1822    1.0615   -0.3389 C   0  0  0  0  0  0  0  0  0  0  0  0
    0.1668    1.3872   -0.5132 C   0  0  0  0  0  0  0  0  0  0  0  0
    1.1340    0.4211   -0.2642 C   0  0  0  0  0  0  0  0  0  0  0  0
    2.5445    0.7554   -0.5013 N   0  0  0  0  0  0  0  0  0  0  0  0
    2.7906    1.8465   -1.0057 O   0  0  0  0  0  0  0  0  0  0  0  0
    3.3807   -0.0947   -0.1888 O   0  0  0  0  0  0  0  0  0  0  0  0
    0.8302   -0.8713    0.2093 C   0  0  0  0  0  0  0  0  0  0  0  0
   -0.4823   -1.2436    0.3495 C   0  0  0  0  0  0  0  0  0  0  0  0
   -1.9519    1.8001   -0.5257 H   0  0  0  0  0  0  0  0  0  0  0  0
    0.4441    2.3868   -0.8194 H   0  0  0  0  0  0  0  0  0  0  0  0
    1.6398   -1.5539    0.4336 H   0  0  0  0  0  0  0  0  0  0  0  0
   -0.7669   -2.2352    0.6799 H   0  0  0  0  0  0  0  0  0  0  0  0
   -0.5638    3.7518    1.1067 Cl  0  0  0  0  0  0  0  0  0  0  0  0
  1 11  2  0  0  0  0
  2  1  1  0  0  0  0
  3  2  1  0  0  0  0
  4  1  1  0  0  0  0
  5  4  2  0  0  0  0
  5  6  1  0  0  0  0
  6 10  2  0  0  0  0
  7  6  1  0  0  0  0
  7  9  2  0  0  0  0
  8  7  2  0  0  0  0
 10 11  1  0  0  0  0
 10 14  1  0  0  0  0
 11 15  1  0  0  0  0
 12  4  1  0  0  0  0
 13  5  1  0  0  0  0
M  RAD  3   2   2   3   3  16   2
M  END
