Coordinates from ORCA-job 4-NO2PhN2+~Cl-_B3LYPG-6-31G_dp-NX-Scan-d89-09-n800
 OpenBabel11261920193D

 16 16  0  0  0  0  0  0  0  0999 V2000
   -1.2473    0.1787    0.5675 C   0  0  0  0  0  0  0  0  0  0  0  0
   -2.5301    0.0484    1.1925 N   0  0  0  0  0  0  0  0  0  0  0  0
   -3.5996    0.1515    0.5510 N   0  0  0  0  0  0  0  0  0  0  0  0
   -0.7042    1.4492    0.3281 C   0  0  0  0  0  0  0  0  0  0  0  0
    0.5934    1.5637   -0.1578 C   0  0  0  0  0  0  0  0  0  0  0  0
    1.3296    0.4035   -0.3935 C   0  0  0  0  0  0  0  0  0  0  0  0
    2.6998    0.5230   -0.9127 N   0  0  0  0  0  0  0  0  0  0  0  0
    3.1346    1.6559   -1.1169 O   0  0  0  0  0  0  0  0  0  0  0  0
    3.3262   -0.5170   -1.1123 O   0  0  0  0  0  0  0  0  0  0  0  0
    0.8095   -0.8660   -0.1458 C   0  0  0  0  0  0  0  0  0  0  0  0
   -0.4847   -0.9764    0.3508 C   0  0  0  0  0  0  0  0  0  0  0  0
   -1.2940    2.3368    0.5311 H   0  0  0  0  0  0  0  0  0  0  0  0
    1.0421    2.5286   -0.3575 H   0  0  0  0  0  0  0  0  0  0  0  0
    1.4213   -1.7386   -0.3370 H   0  0  0  0  0  0  0  0  0  0  0  0
   -0.9102   -1.9491    0.5730 H   0  0  0  0  0  0  0  0  0  0  0  0
   -3.6397    0.3865   -0.9307 Cl  0  0  0  0  0  0  0  0  0  0  0  0
  1  2  1  0  0  0  0
  3  2  2  0  0  0  0
  4 12  1  0  0  0  0
  4  1  2  0  0  0  0
  5  4  1  0  0  0  0
  6  5  2  0  0  0  0
  6 10  1  0  0  0  0
  7  6  1  0  0  0  0
  8  7  2  0  0  0  0
  9  7  2  0  0  0  0
 10 11  2  0  0  0  0
 11  1  1  0  0  0  0
 11 15  1  0  0  0  0
 13  5  1  0  0  0  0
 14 10  1  0  0  0  0
 16  3  1  0  0  0  0
M  END
