Coordinates from ORCA-job 4-NO2PhN2+~Cl-_B3LYPG-6-31G_dp-NX-Scan-d89-09-n800
 OpenBabel11261920193D

 16 15  0  0  0  0  0  0  0  0999 V2000
   -1.4833   -0.3161    0.0208 C   0  0  0  0  0  0  0  0  0  0  0  0
   -2.7701   -0.7659    0.0375 N   0  0  0  0  0  0  0  0  0  0  0  0
   -3.7902   -1.2482    0.0432 N   0  0  0  0  0  0  0  0  0  0  0  0
   -1.1817    1.0370   -0.2780 C   0  0  0  0  0  0  0  0  0  0  0  0
    0.1620    1.3768   -0.4304 C   0  0  0  0  0  0  0  0  0  0  0  0
    1.1342    0.3989   -0.2381 C   0  0  0  0  0  0  0  0  0  0  0  0
    2.5475    0.7486   -0.4543 N   0  0  0  0  0  0  0  0  0  0  0  0
    2.7904    1.8645   -0.8993 O   0  0  0  0  0  0  0  0  0  0  0  0
    3.3834   -0.1153   -0.1811 O   0  0  0  0  0  0  0  0  0  0  0  0
    0.8354   -0.9198    0.1490 C   0  0  0  0  0  0  0  0  0  0  0  0
   -0.4792   -1.3012    0.2701 C   0  0  0  0  0  0  0  0  0  0  0  0
   -1.9436    1.8004   -0.3930 H   0  0  0  0  0  0  0  0  0  0  0  0
    0.4211    2.4107   -0.6430 H   0  0  0  0  0  0  0  0  0  0  0  0
    1.6458   -1.6154    0.3255 H   0  0  0  0  0  0  0  0  0  0  0  0
   -0.7599   -2.3122    0.5402 H   0  0  0  0  0  0  0  0  0  0  0  0
   -0.5649    4.1356    0.7606 Cl  0  0  0  0  0  0  0  0  0  0  0  0
  1  2  1  0  0  0  0
  1 11  2  0  0  0  0
  2  3  1  0  0  0  0
  4  1  1  0  0  0  0
  5  4  2  0  0  0  0
  5  6  1  0  0  0  0
  6 10  2  0  0  0  0
  7  6  1  0  0  0  0
  7  9  2  0  0  0  0
  8  7  2  0  0  0  0
 10 11  1  0  0  0  0
 10 14  1  0  0  0  0
 11 15  1  0  0  0  0
 12  4  1  0  0  0  0
 13  5  1  0  0  0  0
M  RAD  3   2   2   3   3  16   2
M  END
