Coordinates from ORCA-job 4-NO2PhN2+~Cl-_B3LYPG-6-31G_dp-NX-Scan-d89-09-n800
 OpenBabel11261920193D

 16 15  0  0  0  0  0  0  0  0999 V2000
   -1.5262   -0.4735   -0.0072 C   0  0  0  0  0  0  0  0  0  0  0  0
   -2.7981   -0.9558    0.0395 N   0  0  0  0  0  0  0  0  0  0  0  0
   -3.8382   -1.3937    0.0971 N   0  0  0  0  0  0  0  0  0  0  0  0
   -1.3035    0.9191   -0.1694 C   0  0  0  0  0  0  0  0  0  0  0  0
    0.0039    1.3700   -0.2776 C   0  0  0  0  0  0  0  0  0  0  0  0
    1.0380    0.4321   -0.1735 C   0  0  0  0  0  0  0  0  0  0  0  0
    2.4264    0.8907   -0.3245 N   0  0  0  0  0  0  0  0  0  0  0  0
    2.5917    1.9946   -0.8283 O   0  0  0  0  0  0  0  0  0  0  0  0
    3.3110    0.1239    0.0691 O   0  0  0  0  0  0  0  0  0  0  0  0
    0.8235   -0.9327    0.0637 C   0  0  0  0  0  0  0  0  0  0  0  0
   -0.4680   -1.4127    0.1241 C   0  0  0  0  0  0  0  0  0  0  0  0
   -2.1342    1.6157   -0.1987 H   0  0  0  0  0  0  0  0  0  0  0  0
    0.2188    2.4472   -0.3849 H   0  0  0  0  0  0  0  0  0  0  0  0
    1.6780   -1.5891    0.1719 H   0  0  0  0  0  0  0  0  0  0  0  0
   -0.6812   -2.4659    0.2655 H   0  0  0  0  0  0  0  0  0  0  0  0
    0.6050    4.6086    0.1630 Cl  0  0  0  0  0  0  0  0  0  0  0  0
  1  2  1  0  0  0  0
  1 11  1  0  0  0  0
  2  3  1  0  0  0  0
  4  1  2  0  0  0  0
  5  6  2  0  0  0  0
  5  4  1  0  0  0  0
  6 10  1  0  0  0  0
  7  6  1  0  0  0  0
  7  9  2  0  0  0  0
  8  7  2  0  0  0  0
 10 11  2  0  0  0  0
 10 14  1  0  0  0  0
 11 15  1  0  0  0  0
 12  4  1  0  0  0  0
 13  5  1  0  0  0  0
M  RAD  3   2   2   3   3  16   2
M  END
