Coordinates from ORCA-job 4-NO2PhN2+~Cl-_B3LYPG-6-31G_dp-NX-Scan-d89-09-n800
 OpenBabel11261920193D

 16 15  0  0  0  0  0  0  0  0999 V2000
   -1.2408   -0.0950    0.2715 C   0  0  0  0  0  0  0  0  0  0  0  0
   -2.5728   -0.3998    0.6219 N   0  0  0  0  0  0  0  0  0  0  0  0
   -3.6442    0.0321    0.7409 N   0  0  0  0  0  0  0  0  0  0  0  0
   -0.8651    1.1981   -0.1198 C   0  0  0  0  0  0  0  0  0  0  0  0
    0.4692    1.4178   -0.4493 C   0  0  0  0  0  0  0  0  0  0  0  0
    1.3698    0.3568   -0.3786 C   0  0  0  0  0  0  0  0  0  0  0  0
    2.7869    0.6040   -0.7309 N   0  0  0  0  0  0  0  0  0  0  0  0
    3.0917    1.7434   -1.0697 O   0  0  0  0  0  0  0  0  0  0  0  0
    3.5577   -0.3494   -0.6596 O   0  0  0  0  0  0  0  0  0  0  0  0
    0.9979   -0.9295    0.0097 C   0  0  0  0  0  0  0  0  0  0  0  0
   -0.3312   -1.1590    0.3405 C   0  0  0  0  0  0  0  0  0  0  0  0
   -1.6119    1.9848   -0.1558 H   0  0  0  0  0  0  0  0  0  0  0  0
    0.8181    2.3950   -0.7588 H   0  0  0  0  0  0  0  0  0  0  0  0
    1.7413   -1.7152    0.0462 H   0  0  0  0  0  0  0  0  0  0  0  0
   -0.6738   -2.1398    0.6500 H   0  0  0  0  0  0  0  0  0  0  0  0
   -3.9460    2.2342    0.2715 Cl  0  0  0  0  0  0  0  0  0  0  0  0
  1 11  1  0  0  0  0
  1  2  1  0  0  0  0
  2  3  2  0  0  0  0
  4  1  2  0  0  0  0
  5  6  2  0  0  0  0
  5  4  1  0  0  0  0
  6 10  1  0  0  0  0
  7  9  2  0  0  0  0
  7  6  1  0  0  0  0
  8  7  2  0  0  0  0
 10 14  1  0  0  0  0
 10 11  2  0  0  0  0
 11 15  1  0  0  0  0
 12  4  1  0  0  0  0
 13  5  1  0  0  0  0
M  RAD  2   3   2  16   2
M  END
