Coordinates from ORCA-job 4-NO2PhN2+~Cl-_B3LYPG-6-31G_dp-NX-Scan-d89-09-n800
 OpenBabel11261920193D

 16 15  0  0  0  0  0  0  0  0999 V2000
   -1.2238   -0.1540    0.2809 C   0  0  0  0  0  0  0  0  0  0  0  0
   -2.5626   -0.4311    0.6238 N   0  0  0  0  0  0  0  0  0  0  0  0
   -3.6373   -0.0716    0.7606 N   0  0  0  0  0  0  0  0  0  0  0  0
   -0.8944    1.1514   -0.1043 C   0  0  0  0  0  0  0  0  0  0  0  0
    0.4349    1.3979   -0.4388 C   0  0  0  0  0  0  0  0  0  0  0  0
    1.3551    0.3535   -0.3748 C   0  0  0  0  0  0  0  0  0  0  0  0
    2.7678    0.6295   -0.7327 N   0  0  0  0  0  0  0  0  0  0  0  0
    3.0472    1.7751   -1.0691 O   0  0  0  0  0  0  0  0  0  0  0  0
    3.5557   -0.3097   -0.6658 O   0  0  0  0  0  0  0  0  0  0  0  0
    1.0155   -0.9444    0.0106 C   0  0  0  0  0  0  0  0  0  0  0  0
   -0.3050   -1.2085    0.3471 C   0  0  0  0  0  0  0  0  0  0  0  0
   -1.6762    1.9171   -0.1281 H   0  0  0  0  0  0  0  0  0  0  0  0
    0.7621    2.3833   -0.7465 H   0  0  0  0  0  0  0  0  0  0  0  0
    1.7783   -1.7115    0.0397 H   0  0  0  0  0  0  0  0  0  0  0  0
   -0.6251   -2.1976    0.6544 H   0  0  0  0  0  0  0  0  0  0  0  0
   -3.8455    2.5988    0.1726 Cl  0  0  0  0  0  0  0  0  0  0  0  0
  1 11  1  0  0  0  0
  1  2  1  0  0  0  0
  2  3  2  0  0  0  0
  4  1  2  0  0  0  0
  5  6  2  0  0  0  0
  5  4  1  0  0  0  0
  6 10  1  0  0  0  0
  7  9  2  0  0  0  0
  7  6  1  0  0  0  0
  8  7  2  0  0  0  0
 10 14  1  0  0  0  0
 10 11  2  0  0  0  0
 11 15  1  0  0  0  0
 12  4  1  0  0  0  0
 13  5  1  0  0  0  0
M  RAD  2   3   2  16   2
M  END
