Coordinates from ORCA-job 4-NO2PhN2+~Cl-_B3LYPG-6-31G_dp-NX-Scan-d89-09-n800
 OpenBabel11261920193D

 16 16  0  0  0  0  0  0  0  0999 V2000
   -1.2324    0.0523    0.5118 C   0  0  0  0  0  0  0  0  0  0  0  0
   -2.5199   -0.1728    1.0643 N   0  0  0  0  0  0  0  0  0  0  0  0
   -3.6158    0.1846    0.7269 N   0  0  0  0  0  0  0  0  0  0  0  0
   -0.7704    1.3434    0.2217 C   0  0  0  0  0  0  0  0  0  0  0  0
    0.5344    1.5054   -0.2309 C   0  0  0  0  0  0  0  0  0  0  0  0
    1.3390    0.3790   -0.3923 C   0  0  0  0  0  0  0  0  0  0  0  0
    2.7184    0.5560   -0.8835 N   0  0  0  0  0  0  0  0  0  0  0  0
    3.0891    1.7017   -1.1294 O   0  0  0  0  0  0  0  0  0  0  0  0
    3.4064   -0.4541   -1.0146 O   0  0  0  0  0  0  0  0  0  0  0  0
    0.8928   -0.9074   -0.0948 C   0  0  0  0  0  0  0  0  0  0  0  0
   -0.4010   -1.0676    0.3871 C   0  0  0  0  0  0  0  0  0  0  0  0
   -1.4187    2.2000    0.3536 H   0  0  0  0  0  0  0  0  0  0  0  0
    0.9339    2.4837   -0.4660 H   0  0  0  0  0  0  0  0  0  0  0  0
    1.5604   -1.7491   -0.2274 H   0  0  0  0  0  0  0  0  0  0  0  0
   -0.7796   -2.0468    0.6574 H   0  0  0  0  0  0  0  0  0  0  0  0
   -3.7898    1.1701   -0.8542 Cl  0  0  0  0  0  0  0  0  0  0  0  0
  1  2  1  0  0  0  0
  3  2  2  0  0  0  0
  4 12  1  0  0  0  0
  4  1  2  0  0  0  0
  5  4  1  0  0  0  0
  6  5  2  0  0  0  0
  6 10  1  0  0  0  0
  7  6  1  0  0  0  0
  8  7  2  0  0  0  0
  9  7  2  0  0  0  0
 10 11  2  0  0  0  0
 11  1  1  0  0  0  0
 11 15  1  0  0  0  0
 13  5  1  0  0  0  0
 14 10  1  0  0  0  0
 16  3  1  0  0  0  0
M  END
