Coordinates from ORCA-job 4-NO2PhN2+~Cl-_B3LYPG-6-31G_dp-NX-Scan-d89-09-n800
 OpenBabel11261920193D

 16 15  0  0  0  0  0  0  0  0999 V2000
   -1.4845   -0.2488    0.0349 C   0  0  0  0  0  0  0  0  0  0  0  0
   -2.7649   -0.7049    0.0051 N   0  0  0  0  0  0  0  0  0  0  0  0
   -3.7775   -1.2025   -0.0508 N   0  0  0  0  0  0  0  0  0  0  0  0
   -1.1754    1.0806   -0.3528 C   0  0  0  0  0  0  0  0  0  0  0  0
    0.1782    1.3930   -0.5420 C   0  0  0  0  0  0  0  0  0  0  0  0
    1.1392    0.4293   -0.2771 C   0  0  0  0  0  0  0  0  0  0  0  0
    2.5497    0.7530   -0.5242 N   0  0  0  0  0  0  0  0  0  0  0  0
    2.8010    1.8372   -1.0421 O   0  0  0  0  0  0  0  0  0  0  0  0
    3.3827   -0.0984   -0.2076 O   0  0  0  0  0  0  0  0  0  0  0  0
    0.8299   -0.8516    0.2304 C   0  0  0  0  0  0  0  0  0  0  0  0
   -0.4820   -1.2134    0.3835 C   0  0  0  0  0  0  0  0  0  0  0  0
   -1.9453    1.8074   -0.5764 H   0  0  0  0  0  0  0  0  0  0  0  0
    0.4633    2.3776   -0.8841 H   0  0  0  0  0  0  0  0  0  0  0  0
    1.6371   -1.5315    0.4703 H   0  0  0  0  0  0  0  0  0  0  0  0
   -0.7709   -2.1950    0.7389 H   0  0  0  0  0  0  0  0  0  0  0  0
   -0.6338    3.5466    1.2236 Cl  0  0  0  0  0  0  0  0  0  0  0  0
  1 11  2  0  0  0  0
  2  1  1  0  0  0  0
  3  2  1  0  0  0  0
  4  1  1  0  0  0  0
  5  4  2  0  0  0  0
  5  6  1  0  0  0  0
  6 10  2  0  0  0  0
  7  6  1  0  0  0  0
  7  9  2  0  0  0  0
  8  7  2  0  0  0  0
 10 11  1  0  0  0  0
 10 14  1  0  0  0  0
 11 15  1  0  0  0  0
 12  4  1  0  0  0  0
 13  5  1  0  0  0  0
M  RAD  3   2   2   3   3  16   2
M  END
