Coordinates from ORCA-job 4-NO2PhN2+~Cl-_B3LYPG-6-31G_dp-NX-Scan-d89-09-n800
 OpenBabel11261920183D

 16 15  0  0  0  0  0  0  0  0999 V2000
   -1.5747   -0.5662   -0.0147 C   0  0  0  0  0  0  0  0  0  0  0  0
   -2.8318   -1.0803    0.0245 N   0  0  0  0  0  0  0  0  0  0  0  0
   -3.8551   -1.5684    0.0623 N   0  0  0  0  0  0  0  0  0  0  0  0
   -1.3719    0.8359   -0.1384 C   0  0  0  0  0  0  0  0  0  0  0  0
   -0.0709    1.3141   -0.1752 C   0  0  0  0  0  0  0  0  0  0  0  0
    0.9877    0.3991   -0.0903 C   0  0  0  0  0  0  0  0  0  0  0  0
    2.3726    0.8942   -0.1292 N   0  0  0  0  0  0  0  0  0  0  0  0
    2.5305    2.1043   -0.2326 O   0  0  0  0  0  0  0  0  0  0  0  0
    3.2661    0.0458   -0.0544 O   0  0  0  0  0  0  0  0  0  0  0  0
    0.7893   -0.9828    0.0317 C   0  0  0  0  0  0  0  0  0  0  0  0
   -0.4941   -1.4853    0.0716 C   0  0  0  0  0  0  0  0  0  0  0  0
   -2.2183    1.5099   -0.2024 H   0  0  0  0  0  0  0  0  0  0  0  0
    0.1440    2.3773   -0.2687 H   0  0  0  0  0  0  0  0  0  0  0  0
    1.6535   -1.6321    0.0932 H   0  0  0  0  0  0  0  0  0  0  0  0
   -0.6858   -2.5480    0.1666 H   0  0  0  0  0  0  0  0  0  0  0  0
    1.3057    5.5607   -0.5141 Cl  0  0  0  0  0  0  0  0  0  0  0  0
  1  2  1  0  0  0  0
  1 11  2  0  0  0  0
  2  3  1  0  0  0  0
  4  1  1  0  0  0  0
  5  4  2  0  0  0  0
  5  6  1  0  0  0  0
  6 10  2  0  0  0  0
  7  6  1  0  0  0  0
  7  9  2  0  0  0  0
  8  7  2  0  0  0  0
 10 11  1  0  0  0  0
 10 14  1  0  0  0  0
 11 15  1  0  0  0  0
 12  4  1  0  0  0  0
 13  5  1  0  0  0  0
M  RAD  3   2   2   3   3  16   2
M  END
