Coordinates from ORCA-job 4-NO2PhN2+~Cl-_B3LYPG-6-31G_dp-NX-Scan-d89-09-n800
 OpenBabel11261920193D

 16 16  0  0  1  0  0  0  0  0999 V2000
   -1.4219   -0.2395    0.0273 C   0  0  0  0  0  0  0  0  0  0  0  0
   -2.6838   -0.4117    0.3699 N   0  0  0  0  0  0  0  0  0  0  0  0
   -3.7590   -0.2440    0.6964 N   0  0  0  0  0  0  0  0  0  0  0  0
   -1.1473    1.1701   -0.3671 C   0  0  2  0  0  0  0  0  0  0  0  0
    0.2944    1.4197   -0.5597 C   0  0  0  0  0  0  0  0  0  0  0  0
    1.2079    0.4591   -0.2925 C   0  0  0  0  0  0  0  0  0  0  0  0
    2.6378    0.7895   -0.5122 N   0  0  0  0  0  0  0  0  0  0  0  0
    2.9153    1.9128   -0.9227 O   0  0  0  0  0  0  0  0  0  0  0  0
    3.4563   -0.0938   -0.2647 O   0  0  0  0  0  0  0  0  0  0  0  0
    0.8996   -0.8708    0.1636 C   0  0  0  0  0  0  0  0  0  0  0  0
   -0.4074   -1.2037    0.3242 C   0  0  0  0  0  0  0  0  0  0  0  0
   -1.7540    1.5323   -1.1968 H   0  0  0  0  0  0  0  0  0  0  0  0
    0.6134    2.3874   -0.9241 H   0  0  0  0  0  0  0  0  0  0  0  0
    1.7055   -1.5589    0.3723 H   0  0  0  0  0  0  0  0  0  0  0  0
   -0.7036   -2.1806    0.6906 H   0  0  0  0  0  0  0  0  0  0  0  0
   -1.9062    2.3106    1.0252 Cl  0  0  0  0  0  0  0  0  0  0  0  0
  1 11  2  0  0  0  0
  1  2  1  0  0  0  0
  2  3  1  0  0  0  0
  4 12  1  6  0  0  0
  4  1  1  0  0  0  0
  4 16  1  0  0  0  0
  5  4  1  0  0  0  0
  5  6  2  0  0  0  0
  6 10  1  0  0  0  0
  7  6  1  0  0  0  0
  7  9  2  0  0  0  0
  8  7  2  0  0  0  0
 10 11  1  0  0  0  0
 10 14  1  0  0  0  0
 11 15  1  0  0  0  0
 13  5  1  0  0  0  0
M  RAD  3   2   2   3   3  10   2
M  END
