Coordinates from ORCA-job 4-NO2PhN2+~Cl-_B3LYPG-6-31G_dp-NX-Scan-d89-09-n800
 OpenBabel11261920193D

 16 16  0  0  0  0  0  0  0  0999 V2000
   -1.2305    0.0368    0.4980 C   0  0  0  0  0  0  0  0  0  0  0  0
   -2.5208   -0.1999    1.0354 N   0  0  0  0  0  0  0  0  0  0  0  0
   -3.6180    0.1744    0.7467 N   0  0  0  0  0  0  0  0  0  0  0  0
   -0.7787    1.3297    0.2002 C   0  0  0  0  0  0  0  0  0  0  0  0
    0.5282    1.4973   -0.2450 C   0  0  0  0  0  0  0  0  0  0  0  0
    1.3423    0.3757   -0.3916 C   0  0  0  0  0  0  0  0  0  0  0  0
    2.7243    0.5598   -0.8752 N   0  0  0  0  0  0  0  0  0  0  0  0
    3.0871    1.7063   -1.1279 O   0  0  0  0  0  0  0  0  0  0  0  0
    3.4207   -0.4460   -0.9927 O   0  0  0  0  0  0  0  0  0  0  0  0
    0.9052   -0.9120   -0.0867 C   0  0  0  0  0  0  0  0  0  0  0  0
   -0.3903   -1.0782    0.3879 C   0  0  0  0  0  0  0  0  0  0  0  0
   -1.4355    2.1813    0.3190 H   0  0  0  0  0  0  0  0  0  0  0  0
    0.9217    2.4766   -0.4858 H   0  0  0  0  0  0  0  0  0  0  0  0
    1.5805   -1.7493   -0.2081 H   0  0  0  0  0  0  0  0  0  0  0  0
   -0.7641   -2.0578    0.6637 H   0  0  0  0  0  0  0  0  0  0  0  0
   -3.8251    1.2838   -0.8082 Cl  0  0  0  0  0  0  0  0  0  0  0  0
  1  2  1  0  0  0  0
  3  2  2  0  0  0  0
  4 12  1  0  0  0  0
  4  1  2  0  0  0  0
  5  4  1  0  0  0  0
  6  5  2  0  0  0  0
  6 10  1  0  0  0  0
  7  6  1  0  0  0  0
  8  7  2  0  0  0  0
  9  7  2  0  0  0  0
 10 11  2  0  0  0  0
 11  1  1  0  0  0  0
 11 15  1  0  0  0  0
 13  5  1  0  0  0  0
 14 10  1  0  0  0  0
 16  3  1  0  0  0  0
M  END
