Coordinates from ORCA-job 4-NO2PhN2+~Cl-_B3LYPG-6-31G_dp-NX-Scan-d89-09-n800
 OpenBabel11261920193D

 16 16  0  0  0  0  0  0  0  0999 V2000
   -1.2520    0.2240    0.5698 C   0  0  0  0  0  0  0  0  0  0  0  0
   -2.5385    0.1257    1.2024 N   0  0  0  0  0  0  0  0  0  0  0  0
   -3.5919    0.0996    0.5088 N   0  0  0  0  0  0  0  0  0  0  0  0
   -0.6808    1.4856    0.3493 C   0  0  0  0  0  0  0  0  0  0  0  0
    0.6170    1.5823   -0.1403 C   0  0  0  0  0  0  0  0  0  0  0  0
    1.3304    0.4115   -0.3933 C   0  0  0  0  0  0  0  0  0  0  0  0
    2.7014    0.5109   -0.9130 N   0  0  0  0  0  0  0  0  0  0  0  0
    3.1585    1.6375   -1.1039 O   0  0  0  0  0  0  0  0  0  0  0  0
    3.3076   -0.5384   -1.1273 O   0  0  0  0  0  0  0  0  0  0  0  0
    0.7849   -0.8507   -0.1626 C   0  0  0  0  0  0  0  0  0  0  0  0
   -0.5125   -0.9424    0.3292 C   0  0  0  0  0  0  0  0  0  0  0  0
   -1.2525    2.3809    0.5700 H   0  0  0  0  0  0  0  0  0  0  0  0
    1.0841    2.5411   -0.3272 H   0  0  0  0  0  0  0  0  0  0  0  0
    1.3791   -1.7326   -0.3668 H   0  0  0  0  0  0  0  0  0  0  0  0
   -0.9555   -1.9112    0.5348 H   0  0  0  0  0  0  0  0  0  0  0  0
   -3.6324    0.1545   -0.9001 Cl  0  0  0  0  0  0  0  0  0  0  0  0
  1  2  1  0  0  0  0
  3  2  2  0  0  0  0
  4  1  1  0  0  0  0
  4 12  1  0  0  0  0
  5  4  2  0  0  0  0
  6 10  2  0  0  0  0
  6  5  1  0  0  0  0
  7  6  1  0  0  0  0
  8  7  2  0  0  0  0
  9  7  2  0  0  0  0
 10 11  1  0  0  0  0
 11 15  1  0  0  0  0
 11  1  2  0  0  0  0
 13  5  1  0  0  0  0
 14 10  1  0  0  0  0
 16  3  1  0  0  0  0
M  END
