Coordinates from ORCA-job 4-NO2PhN2+~Cl-_B3LYPG-6-31G_dp-NX-Scan-d89-09-n800
 OpenBabel11261920193D

 16 16  0  0  1  0  0  0  0  0999 V2000
   -1.4368   -0.1866    0.0488 C   0  0  0  0  0  0  0  0  0  0  0  0
   -2.7142   -0.4609    0.2291 N   0  0  0  0  0  0  0  0  0  0  0  0
   -3.8316   -0.5888    0.3901 N   0  0  0  0  0  0  0  0  0  0  0  0
   -1.1346    1.2234   -0.2944 C   0  0  2  0  0  0  0  0  0  0  0  0
    0.2961    1.4294   -0.5877 C   0  0  0  0  0  0  0  0  0  0  0  0
    1.2046    0.4717   -0.2951 C   0  0  0  0  0  0  0  0  0  0  0  0
    2.6311    0.7623   -0.5721 N   0  0  0  0  0  0  0  0  0  0  0  0
    2.9133    1.8488   -1.0694 O   0  0  0  0  0  0  0  0  0  0  0  0
    3.4429   -0.1161   -0.2868 O   0  0  0  0  0  0  0  0  0  0  0  0
    0.8825   -0.8244    0.2392 C   0  0  0  0  0  0  0  0  0  0  0  0
   -0.4273   -1.1448    0.3990 C   0  0  0  0  0  0  0  0  0  0  0  0
   -1.7955    1.6508   -1.0458 H   0  0  0  0  0  0  0  0  0  0  0  0
    0.6145    2.3747   -1.0072 H   0  0  0  0  0  0  0  0  0  0  0  0
    1.6810   -1.5109    0.4805 H   0  0  0  0  0  0  0  0  0  0  0  0
   -0.7318   -2.1121    0.7831 H   0  0  0  0  0  0  0  0  0  0  0  0
   -1.6470    2.3618    1.2182 Cl  0  0  0  0  0  0  0  0  0  0  0  0
  1  2  1  0  0  0  0
  1 11  2  0  0  0  0
  2  3  1  0  0  0  0
  4 12  1  6  0  0  0
  4  1  1  0  0  0  0
  4 16  1  0  0  0  0
  5  6  2  0  0  0  0
  5  4  1  0  0  0  0
  6 10  1  0  0  0  0
  7  6  1  0  0  0  0
  7  9  2  0  0  0  0
  8  7  2  0  0  0  0
 10 11  1  0  0  0  0
 10 14  1  0  0  0  0
 11 15  1  0  0  0  0
 13  5  1  0  0  0  0
M  RAD  3   2   2   3   3  10   2
M  END
