Coordinates from ORCA-job 4-NO2PhN2+~Cl-_B3LYPG-6-31G_dp-NX-Scan-d89-09-n800
 OpenBabel11261920193D

 16 15  0  0  0  0  0  0  0  0999 V2000
   -1.4853   -0.2679    0.0292 C   0  0  0  0  0  0  0  0  0  0  0  0
   -2.7673   -0.7245    0.0102 N   0  0  0  0  0  0  0  0  0  0  0  0
   -3.7799   -1.2222   -0.0330 N   0  0  0  0  0  0  0  0  0  0  0  0
   -1.1795    1.0669   -0.3407 C   0  0  0  0  0  0  0  0  0  0  0  0
    0.1709    1.3884   -0.5188 C   0  0  0  0  0  0  0  0  0  0  0  0
    1.1360    0.4220   -0.2674 C   0  0  0  0  0  0  0  0  0  0  0  0
    2.5468    0.7533   -0.5072 N   0  0  0  0  0  0  0  0  0  0  0  0
    2.7947    1.8436   -1.0125 O   0  0  0  0  0  0  0  0  0  0  0  0
    3.3817   -0.0984   -0.1957 O   0  0  0  0  0  0  0  0  0  0  0  0
    0.8304   -0.8680    0.2131 C   0  0  0  0  0  0  0  0  0  0  0  0
   -0.4822   -1.2367    0.3568 C   0  0  0  0  0  0  0  0  0  0  0  0
   -1.9483    1.8044   -0.5344 H   0  0  0  0  0  0  0  0  0  0  0  0
    0.4502    2.3849   -0.8320 H   0  0  0  0  0  0  0  0  0  0  0  0
    1.6390   -1.5509    0.4401 H   0  0  0  0  0  0  0  0  0  0  0  0
   -0.7683   -2.2261    0.6926 H   0  0  0  0  0  0  0  0  0  0  0  0
   -0.5922    3.7097    1.1295 Cl  0  0  0  0  0  0  0  0  0  0  0  0
  1 11  2  0  0  0  0
  2  1  1  0  0  0  0
  3  2  1  0  0  0  0
  4  1  1  0  0  0  0
  5  4  2  0  0  0  0
  5  6  1  0  0  0  0
  6 10  2  0  0  0  0
  7  6  1  0  0  0  0
  7  9  2  0  0  0  0
  8  7  2  0  0  0  0
 10 11  1  0  0  0  0
 10 14  1  0  0  0  0
 11 15  1  0  0  0  0
 12  4  1  0  0  0  0
 13  5  1  0  0  0  0
M  RAD  3   2   2   3   3  16   2
M  END
