Coordinates from ORCA-job 4-NO2PhN2+~Cl-_B3LYPG-6-31G_dp-NX-Scan-d89-09-n800
 OpenBabel11261920193D

 16 15  0  0  0  0  0  0  0  0999 V2000
   -1.2350   -0.1104    0.2739 C   0  0  0  0  0  0  0  0  0  0  0  0
   -2.5696   -0.4058    0.6214 N   0  0  0  0  0  0  0  0  0  0  0  0
   -3.6406    0.0081    0.7441 N   0  0  0  0  0  0  0  0  0  0  0  0
   -0.8715    1.1862   -0.1156 C   0  0  0  0  0  0  0  0  0  0  0  0
    0.4615    1.4125   -0.4465 C   0  0  0  0  0  0  0  0  0  0  0  0
    1.3670    0.3554   -0.3776 C   0  0  0  0  0  0  0  0  0  0  0  0
    2.7830    0.6097   -0.7317 N   0  0  0  0  0  0  0  0  0  0  0  0
    3.0813    1.7506   -1.0702 O   0  0  0  0  0  0  0  0  0  0  0  0
    3.5581   -0.3402   -0.6614 O   0  0  0  0  0  0  0  0  0  0  0  0
    1.0033   -0.9338    0.0100 C   0  0  0  0  0  0  0  0  0  0  0  0
   -0.3237   -1.1722    0.3424 C   0  0  0  0  0  0  0  0  0  0  0  0
   -1.6278    1.9671   -0.1482 H   0  0  0  0  0  0  0  0  0  0  0  0
    0.8052    2.3916   -0.7557 H   0  0  0  0  0  0  0  0  0  0  0  0
    1.7517   -1.7148    0.0446 H   0  0  0  0  0  0  0  0  0  0  0  0
   -0.6606   -2.1551    0.6513 H   0  0  0  0  0  0  0  0  0  0  0  0
   -3.9353    2.3295    0.2488 Cl  0  0  0  0  0  0  0  0  0  0  0  0
  1 11  1  0  0  0  0
  1  2  1  0  0  0  0
  2  3  2  0  0  0  0
  4  1  2  0  0  0  0
  5  6  2  0  0  0  0
  5  4  1  0  0  0  0
  6 10  1  0  0  0  0
  7  9  2  0  0  0  0
  7  6  1  0  0  0  0
  8  7  2  0  0  0  0
 10 14  1  0  0  0  0
 10 11  2  0  0  0  0
 11 15  1  0  0  0  0
 12  4  1  0  0  0  0
 13  5  1  0  0  0  0
M  RAD  2   3   2  16   2
M  END
