Coordinates from ORCA-job 4-NO2PhN2+~Cl-_B3LYPG-6-31G_dp-NX-Scan-d89-09-n800
 OpenBabel11261920193D

 16 15  0  0  0  0  0  0  0  0999 V2000
   -1.4834   -0.1707    0.0777 C   0  0  0  0  0  0  0  0  0  0  0  0
   -2.7460   -0.6392   -0.0188 N   0  0  0  0  0  0  0  0  0  0  0  0
   -3.7446   -1.1595   -0.1452 N   0  0  0  0  0  0  0  0  0  0  0  0
   -1.1542    1.1609   -0.3192 C   0  0  0  0  0  0  0  0  0  0  0  0
    0.2145    1.4082   -0.5988 C   0  0  0  0  0  0  0  0  0  0  0  0
    1.1523    0.4495   -0.3068 C   0  0  0  0  0  0  0  0  0  0  0  0
    2.5641    0.7341   -0.5993 N   0  0  0  0  0  0  0  0  0  0  0  0
    2.8299    1.7940   -1.1602 O   0  0  0  0  0  0  0  0  0  0  0  0
    3.3858   -0.1226   -0.2715 O   0  0  0  0  0  0  0  0  0  0  0  0
    0.8290   -0.8015    0.2879 C   0  0  0  0  0  0  0  0  0  0  0  0
   -0.4813   -1.1268    0.4756 C   0  0  0  0  0  0  0  0  0  0  0  0
   -1.9203    1.8316   -0.6803 H   0  0  0  0  0  0  0  0  0  0  0  0
    0.5163    2.3610   -1.0105 H   0  0  0  0  0  0  0  0  0  0  0  0
    1.6284   -1.4784    0.5584 H   0  0  0  0  0  0  0  0  0  0  0  0
   -0.7824   -2.0840    0.8843 H   0  0  0  0  0  0  0  0  0  0  0  0
   -0.8614    3.0218    1.4564 Cl  0  0  0  0  0  0  0  0  0  0  0  0
  1 11  2  0  0  0  0
  2  1  1  0  0  0  0
  3  2  1  0  0  0  0
  4  1  1  0  0  0  0
  5  4  2  0  0  0  0
  5  6  1  0  0  0  0
  6 10  2  0  0  0  0
  7  6  1  0  0  0  0
  7  9  2  0  0  0  0
  8  7  2  0  0  0  0
 10 11  1  0  0  0  0
 10 14  1  0  0  0  0
 11 15  1  0  0  0  0
 12  4  1  0  0  0  0
 13  5  1  0  0  0  0
M  RAD  3   2   2   3   3  16   2
M  END
