Coordinates from ORCA-job 4-NO2PhN2+~Cl-_B3LYPG-6-31G_dp-NX-Scan-d89-09-n800
 OpenBabel11261920193D

 16 16  0  0  1  0  0  0  0  0999 V2000
   -1.4257   -0.2241    0.0297 C   0  0  0  0  0  0  0  0  0  0  0  0
   -2.6929   -0.4217    0.3356 N   0  0  0  0  0  0  0  0  0  0  0  0
   -3.7877   -0.3450    0.6274 N   0  0  0  0  0  0  0  0  0  0  0  0
   -1.1426    1.1852   -0.3510 C   0  0  2  0  0  0  0  0  0  0  0  0
    0.2971    1.4230   -0.5691 C   0  0  0  0  0  0  0  0  0  0  0  0
    1.2084    0.4628   -0.2938 C   0  0  0  0  0  0  0  0  0  0  0  0
    2.6382    0.7823   -0.5271 N   0  0  0  0  0  0  0  0  0  0  0  0
    2.9183    1.8965   -0.9599 O   0  0  0  0  0  0  0  0  0  0  0  0
    3.4540   -0.1001   -0.2676 O   0  0  0  0  0  0  0  0  0  0  0  0
    0.8950   -0.8585    0.1826 C   0  0  0  0  0  0  0  0  0  0  0  0
   -0.4130   -1.1872    0.3418 C   0  0  0  0  0  0  0  0  0  0  0  0
   -1.7638    1.5656   -1.1610 H   0  0  0  0  0  0  0  0  0  0  0  0
    0.6168    2.3849   -0.9480 H   0  0  0  0  0  0  0  0  0  0  0  0
    1.6983   -1.5470    0.4003 H   0  0  0  0  0  0  0  0  0  0  0  0
   -0.7123   -2.1613    0.7131 H   0  0  0  0  0  0  0  0  0  0  0  0
   -1.8412    2.3231    1.0766 Cl  0  0  0  0  0  0  0  0  0  0  0  0
  1  2  1  0  0  0  0
  1 11  2  0  0  0  0
  2  3  1  0  0  0  0
  4 12  1  6  0  0  0
  4  1  1  0  0  0  0
  4 16  1  0  0  0  0
  5  4  1  0  0  0  0
  5  6  2  0  0  0  0
  6 10  1  0  0  0  0
  7  6  1  0  0  0  0
  7  9  2  0  0  0  0
  8  7  2  0  0  0  0
 10 11  1  0  0  0  0
 10 14  1  0  0  0  0
 11 15  1  0  0  0  0
 13  5  1  0  0  0  0
M  RAD  3   2   2   3   3  10   2
M  END
