Coordinates from ORCA-job 4-NO2PhN2+~Cl-_B3LYPG-6-31G_dp-NX-Scan-d89-09-n800
 OpenBabel11261920183D

 16 15  0  0  0  0  0  0  0  0999 V2000
   -1.5698   -0.5439   -0.0165 C   0  0  0  0  0  0  0  0  0  0  0  0
   -2.8288   -1.0561    0.0224 N   0  0  0  0  0  0  0  0  0  0  0  0
   -3.8486   -1.5512    0.0607 N   0  0  0  0  0  0  0  0  0  0  0  0
   -1.3584    0.8571   -0.1392 C   0  0  0  0  0  0  0  0  0  0  0  0
   -0.0540    1.3292   -0.1750 C   0  0  0  0  0  0  0  0  0  0  0  0
    0.9978    0.4060   -0.0902 C   0  0  0  0  0  0  0  0  0  0  0  0
    2.3879    0.8886   -0.1272 N   0  0  0  0  0  0  0  0  0  0  0  0
    2.5566    2.0973   -0.2242 O   0  0  0  0  0  0  0  0  0  0  0  0
    3.2736    0.0313   -0.0569 O   0  0  0  0  0  0  0  0  0  0  0  0
    0.7909   -0.9749    0.0303 C   0  0  0  0  0  0  0  0  0  0  0  0
   -0.4953   -1.4699    0.0694 C   0  0  0  0  0  0  0  0  0  0  0  0
   -2.2004    1.5367   -0.2033 H   0  0  0  0  0  0  0  0  0  0  0  0
    0.1663    2.3932   -0.2681 H   0  0  0  0  0  0  0  0  0  0  0  0
    1.6512   -1.6291    0.0913 H   0  0  0  0  0  0  0  0  0  0  0  0
   -0.6934   -2.5315    0.1636 H   0  0  0  0  0  0  0  0  0  0  0  0
    1.1715    5.3955   -0.5074 Cl  0  0  0  0  0  0  0  0  0  0  0  0
  1  2  1  0  0  0  0
  1 11  2  0  0  0  0
  2  3  1  0  0  0  0
  4  1  1  0  0  0  0
  5  4  2  0  0  0  0
  5  6  1  0  0  0  0
  6 10  2  0  0  0  0
  7  6  1  0  0  0  0
  7  9  2  0  0  0  0
  8  7  2  0  0  0  0
 10 11  1  0  0  0  0
 10 14  1  0  0  0  0
 11 15  1  0  0  0  0
 12  4  1  0  0  0  0
 13  5  1  0  0  0  0
M  RAD  3   2   2   3   3  16   2
M  END
