Coordinates from ORCA-job 4-NO2PhN2+~Cl-_B3LYPG-6-31G_dp-NX-Scan-d89-09-n800
 OpenBabel11261920193D

 16 15  0  0  0  0  0  0  0  0999 V2000
   -1.5636   -0.5314   -0.0246 C   0  0  0  0  0  0  0  0  0  0  0  0
   -2.8055   -1.0599    0.0511 N   0  0  0  0  0  0  0  0  0  0  0  0
   -3.8413   -1.5109    0.1163 N   0  0  0  0  0  0  0  0  0  0  0  0
   -1.4174    0.8540   -0.3157 C   0  0  0  0  0  0  0  0  0  0  0  0
   -0.1427    1.3689   -0.4247 C   0  0  0  0  0  0  0  0  0  0  0  0
    0.9561    0.5145   -0.2233 C   0  0  0  0  0  0  0  0  0  0  0  0
    2.2851    1.0546   -0.3561 N   0  0  0  0  0  0  0  0  0  0  0  0
    2.3643    2.1388   -0.9532 O   0  0  0  0  0  0  0  0  0  0  0  0
    3.2285    0.4187    0.1366 O   0  0  0  0  0  0  0  0  0  0  0  0
    0.8112   -0.8422    0.1130 C   0  0  0  0  0  0  0  0  0  0  0  0
   -0.4498   -1.3881    0.2001 C   0  0  0  0  0  0  0  0  0  0  0  0
   -2.2930    1.4815   -0.4368 H   0  0  0  0  0  0  0  0  0  0  0  0
    0.0442    2.4243   -0.6065 H   0  0  0  0  0  0  0  0  0  0  0  0
    1.7024   -1.4311    0.2910 H   0  0  0  0  0  0  0  0  0  0  0  0
   -0.6042   -2.4349    0.4350 H   0  0  0  0  0  0  0  0  0  0  0  0
    1.6726    4.1217    0.6276 Cl  0  0  0  0  0  0  0  0  0  0  0  0
  1  2  1  0  0  0  0
  1 11  2  0  0  0  0
  2  3  1  0  0  0  0
  4  1  1  0  0  0  0
  5  4  2  0  0  0  0
  5  6  1  0  0  0  0
  6 10  2  0  0  0  0
  7  6  1  0  0  0  0
  7  9  2  0  0  0  0
  8  7  2  0  0  0  0
 10 11  1  0  0  0  0
 10 14  1  0  0  0  0
 11 15  1  0  0  0  0
 12  4  1  0  0  0  0
 13  5  1  0  0  0  0
M  RAD  3   2   2   3   3  16   2
M  END
