Coordinates from ORCA-job 4-NO2PhN2+~Cl-_B3LYPG-6-31G_dp-NX-Scan-d89-09-n800
 OpenBabel11261920183D

 16 15  0  0  0  0  0  0  0  0999 V2000
   -1.5737   -0.5615   -0.0151 C   0  0  0  0  0  0  0  0  0  0  0  0
   -2.8311   -1.0752    0.0241 N   0  0  0  0  0  0  0  0  0  0  0  0
   -3.8537   -1.5649    0.0621 N   0  0  0  0  0  0  0  0  0  0  0  0
   -1.3692    0.8404   -0.1386 C   0  0  0  0  0  0  0  0  0  0  0  0
   -0.0675    1.3174   -0.1752 C   0  0  0  0  0  0  0  0  0  0  0  0
    0.9898    0.4009   -0.0903 C   0  0  0  0  0  0  0  0  0  0  0  0
    2.3757    0.8934   -0.1288 N   0  0  0  0  0  0  0  0  0  0  0  0
    2.5358    2.1033   -0.2299 O   0  0  0  0  0  0  0  0  0  0  0  0
    3.2676    0.0432   -0.0555 O   0  0  0  0  0  0  0  0  0  0  0  0
    0.7897   -0.9809    0.0313 C   0  0  0  0  0  0  0  0  0  0  0  0
   -0.4943   -1.4819    0.0711 C   0  0  0  0  0  0  0  0  0  0  0  0
   -2.2147    1.5156   -0.2027 H   0  0  0  0  0  0  0  0  0  0  0  0
    0.1485    2.3808   -0.2687 H   0  0  0  0  0  0  0  0  0  0  0  0
    1.6531   -1.6311    0.0927 H   0  0  0  0  0  0  0  0  0  0  0  0
   -0.6872   -2.5444    0.1660 H   0  0  0  0  0  0  0  0  0  0  0  0
    1.2782    5.5233   -0.5128 Cl  0  0  0  0  0  0  0  0  0  0  0  0
  1  2  1  0  0  0  0
  1 11  2  0  0  0  0
  2  3  1  0  0  0  0
  4  1  1  0  0  0  0
  5  4  2  0  0  0  0
  5  6  1  0  0  0  0
  6 10  2  0  0  0  0
  7  6  1  0  0  0  0
  7  9  2  0  0  0  0
  8  7  2  0  0  0  0
 10 11  1  0  0  0  0
 10 14  1  0  0  0  0
 11 15  1  0  0  0  0
 12  4  1  0  0  0  0
 13  5  1  0  0  0  0
M  RAD  3   2   2   3   3  16   2
M  END
