Coordinates from ORCA-job 4-NO2PhN2+~Cl-_B3LYPG-6-31G_dp-NX-Scan-d89-09-n800
 OpenBabel11261920193D

 16 15  0  0  0  0  0  0  0  0999 V2000
   -1.4825   -0.1806    0.0700 C   0  0  0  0  0  0  0  0  0  0  0  0
   -2.7493   -0.6437   -0.0126 N   0  0  0  0  0  0  0  0  0  0  0  0
   -3.7534   -1.1553   -0.1254 N   0  0  0  0  0  0  0  0  0  0  0  0
   -1.1562    1.1479   -0.3322 C   0  0  0  0  0  0  0  0  0  0  0  0
    0.2108    1.4059   -0.5960 C   0  0  0  0  0  0  0  0  0  0  0  0
    1.1518    0.4473   -0.3052 C   0  0  0  0  0  0  0  0  0  0  0  0
    2.5636    0.7381   -0.5889 N   0  0  0  0  0  0  0  0  0  0  0  0
    2.8281    1.8017   -1.1433 O   0  0  0  0  0  0  0  0  0  0  0  0
    3.3867   -0.1177   -0.2617 O   0  0  0  0  0  0  0  0  0  0  0  0
    0.8297   -0.8070    0.2801 C   0  0  0  0  0  0  0  0  0  0  0  0
   -0.4807   -1.1370    0.4645 C   0  0  0  0  0  0  0  0  0  0  0  0
   -1.9237    1.8266   -0.6750 H   0  0  0  0  0  0  0  0  0  0  0  0
    0.5109    2.3624   -1.0001 H   0  0  0  0  0  0  0  0  0  0  0  0
    1.6302   -1.4836    0.5484 H   0  0  0  0  0  0  0  0  0  0  0  0
   -0.7804   -2.0962    0.8692 H   0  0  0  0  0  0  0  0  0  0  0  0
   -0.8386    3.0696    1.4378 Cl  0  0  0  0  0  0  0  0  0  0  0  0
  1 11  2  0  0  0  0
  2  1  1  0  0  0  0
  3  2  1  0  0  0  0
  4  1  1  0  0  0  0
  5  4  2  0  0  0  0
  5  6  1  0  0  0  0
  6 10  2  0  0  0  0
  7  6  1  0  0  0  0
  7  9  2  0  0  0  0
  8  7  2  0  0  0  0
 10 11  1  0  0  0  0
 10 14  1  0  0  0  0
 11 15  1  0  0  0  0
 12  4  1  0  0  0  0
 13  5  1  0  0  0  0
M  RAD  3   2   2   3   3  16   2
M  END
