Coordinates from ORCA-job 4-NO2PhN2+~Cl-_B3LYPG-6-31G_dp-NX-Scan-d89-09-n800
 OpenBabel11261920193D

 16 16  0  0  1  0  0  0  0  0999 V2000
   -1.4158   -0.2629    0.0269 C   0  0  0  0  0  0  0  0  0  0  0  0
   -2.6724   -0.4054    0.4094 N   0  0  0  0  0  0  0  0  0  0  0  0
   -3.7044   -0.0888    0.7693 N   0  0  0  0  0  0  0  0  0  0  0  0
   -1.1544    1.1461   -0.3849 C   0  0  2  0  0  0  0  0  0  0  0  0
    0.2874    1.4127   -0.5468 C   0  0  0  0  0  0  0  0  0  0  0  0
    1.2057    0.4530   -0.2902 C   0  0  0  0  0  0  0  0  0  0  0  0
    2.6349    0.7993   -0.4938 N   0  0  0  0  0  0  0  0  0  0  0  0
    2.9063    1.9337   -0.8766 O   0  0  0  0  0  0  0  0  0  0  0  0
    3.4585   -0.0834   -0.2621 O   0  0  0  0  0  0  0  0  0  0  0  0
    0.9066   -0.8871    0.1404 C   0  0  0  0  0  0  0  0  0  0  0  0
   -0.3990   -1.2275    0.3025 C   0  0  0  0  0  0  0  0  0  0  0  0
   -1.7464    1.4874   -1.2345 H   0  0  0  0  0  0  0  0  0  0  0  0
    0.6038    2.3874   -0.8943 H   0  0  0  0  0  0  0  0  0  0  0  0
    1.7169   -1.5732    0.3379 H   0  0  0  0  0  0  0  0  0  0  0  0
   -0.6899   -2.2084    0.6623 H   0  0  0  0  0  0  0  0  0  0  0  0
   -1.9909    2.2955    0.9642 Cl  0  0  0  0  0  0  0  0  0  0  0  0
  1 11  2  0  0  0  0
  1  2  1  0  0  0  0
  2  3  1  0  0  0  0
  4 12  1  6  0  0  0
  4  1  1  0  0  0  0
  4 16  1  0  0  0  0
  5  4  1  0  0  0  0
  5  6  2  0  0  0  0
  6 10  1  0  0  0  0
  7  6  1  0  0  0  0
  7  9  2  0  0  0  0
  8  7  2  0  0  0  0
 10 11  1  0  0  0  0
 10 14  1  0  0  0  0
 11 15  1  0  0  0  0
 13  5  1  0  0  0  0
M  RAD  3   2   2   3   3  10   2
M  END
