Coordinates from ORCA-job 4-NO2PhN2+~Cl-_B3LYPG-6-31G_dp-NX-Scan-d89-09-n800
 OpenBabel11261920193D

 16 15  0  0  0  0  0  0  0  0999 V2000
   -1.4986   -0.3908    0.0064 C   0  0  0  0  0  0  0  0  0  0  0  0
   -2.7828   -0.8474    0.0424 N   0  0  0  0  0  0  0  0  0  0  0  0
   -3.8144   -1.3044    0.0799 N   0  0  0  0  0  0  0  0  0  0  0  0
   -1.2242    0.9827   -0.2175 C   0  0  0  0  0  0  0  0  0  0  0  0
    0.1050    1.3713   -0.3417 C   0  0  0  0  0  0  0  0  0  0  0  0
    1.1008    0.4027   -0.1981 C   0  0  0  0  0  0  0  0  0  0  0  0
    2.5093    0.7923   -0.3886 N   0  0  0  0  0  0  0  0  0  0  0  0
    2.7259    1.9185   -0.8165 O   0  0  0  0  0  0  0  0  0  0  0  0
    3.3624   -0.0537   -0.1098 O   0  0  0  0  0  0  0  0  0  0  0  0
    0.8323   -0.9411    0.1037 C   0  0  0  0  0  0  0  0  0  0  0  0
   -0.4756   -1.3639    0.1914 C   0  0  0  0  0  0  0  0  0  0  0  0
   -2.0130    1.7247   -0.2853 H   0  0  0  0  0  0  0  0  0  0  0  0
    0.3339    2.4353   -0.4837 H   0  0  0  0  0  0  0  0  0  0  0  0
    1.6590   -1.6271    0.2391 H   0  0  0  0  0  0  0  0  0  0  0  0
   -0.7308   -2.3979    0.3913 H   0  0  0  0  0  0  0  0  0  0  0  0
   -0.1422    4.4771    0.4170 Cl  0  0  0  0  0  0  0  0  0  0  0  0
  1  2  1  0  0  0  0
  1 11  2  0  0  0  0
  2  3  1  0  0  0  0
  4  1  1  0  0  0  0
  5  4  2  0  0  0  0
  5  6  1  0  0  0  0
  6 10  2  0  0  0  0
  7  6  1  0  0  0  0
  7  9  2  0  0  0  0
  8  7  2  0  0  0  0
 10 11  1  0  0  0  0
 10 14  1  0  0  0  0
 11 15  1  0  0  0  0
 12  4  1  0  0  0  0
 13  5  1  0  0  0  0
M  RAD  3   2   2   3   3  16   2
M  END
