Coordinates from ORCA-job PhN2+~BF4-_B3LYPG-6-31G_dp-NX-Scan-d89-09-n800
 OpenBabel11261920573D

 18 17  0  0  0  0  0  0  0  0999 V2000
   -1.8720    0.5671    0.0170 C   0  0  0  0  0  0  0  0  0  0  0  0
   -1.6373    0.4578    1.3813 N   0  0  0  0  0  0  0  0  0  0  0  0
   -1.4392    0.2053    2.4452 N   0  0  0  0  0  0  0  0  0  0  0  0
   -2.4726   -0.5455   -0.5982 C   0  0  0  0  0  0  0  0  0  0  0  0
   -2.6953   -0.4741   -1.9660 C   0  0  0  0  0  0  0  0  0  0  0  0
   -2.3187    0.6726   -2.6777 C   0  0  0  0  0  0  0  0  0  0  0  0
   -1.7173    1.7578   -2.0324 C   0  0  0  0  0  0  0  0  0  0  0  0
   -1.4862    1.7314   -0.6617 C   0  0  0  0  0  0  0  0  0  0  0  0
   -2.7557   -1.4158   -0.0170 H   0  0  0  0  0  0  0  0  0  0  0  0
   -3.1627   -1.3092   -2.4764 H   0  0  0  0  0  0  0  0  0  0  0  0
   -2.5004    0.7184   -3.7471 H   0  0  0  0  0  0  0  0  0  0  0  0
   -1.4346    2.6396   -2.5971 H   0  0  0  0  0  0  0  0  0  0  0  0
   -1.0339    2.5391   -0.0944 H   0  0  0  0  0  0  0  0  0  0  0  0
   -1.8774    3.2727    2.3891 B   0  0  0  0  0  0  0  0  0  0  0  0
   -1.8759    2.7605    3.6827 F   0  0  0  0  0  0  0  0  0  0  0  0
   -0.6311    2.9009    1.7588 F   0  0  0  0  0  0  0  0  0  0  0  0
   -2.8928    2.6016    1.6316 F   0  0  0  0  0  0  0  0  0  0  0  0
   -2.0510    4.6330    2.3375 F   0  0  0  0  0  0  0  0  0  0  0  0
  1  2  1  0  0  0  0
  2  3  1  0  0  0  0
  4  9  1  0  0  0  0
  4  1  1  0  0  0  0
  5  4  2  0  0  0  0
  6  7  2  0  0  0  0
  6  5  1  0  0  0  0
  7  8  1  0  0  0  0
  8 13  1  0  0  0  0
  8  1  2  0  0  0  0
 10  5  1  0  0  0  0
 11  6  1  0  0  0  0
 12  7  1  0  0  0  0
 14 15  1  0  0  0  0
 16 14  1  0  0  0  0
 17 14  1  0  0  0  0
 18 14  1  0  0  0  0
M  RAD  2   2   2   3   3
M  END
