Coordinates from ORCA-job PhN2+~BF4-_B3LYPG-6-31G_dp-NX-Scan-d89-09-n800
 OpenBabel11261920563D

 18 17  0  0  0  0  0  0  0  0999 V2000
   -1.7508    0.2656    0.1280 C   0  0  0  0  0  0  0  0  0  0  0  0
   -1.4268   -0.1908    1.3860 N   0  0  0  0  0  0  0  0  0  0  0  0
   -1.1549   -0.7065    2.3361 N   0  0  0  0  0  0  0  0  0  0  0  0
   -2.5318   -0.6035   -0.6697 C   0  0  0  0  0  0  0  0  0  0  0  0
   -2.8247   -0.1872   -1.9536 C   0  0  0  0  0  0  0  0  0  0  0  0
   -2.3503    1.0548   -2.4159 C   0  0  0  0  0  0  0  0  0  0  0  0
   -1.5883    1.8881   -1.6007 C   0  0  0  0  0  0  0  0  0  0  0  0
   -1.2754    1.5161   -0.2946 C   0  0  0  0  0  0  0  0  0  0  0  0
   -2.8818   -1.5510   -0.2771 H   0  0  0  0  0  0  0  0  0  0  0  0
   -3.4234   -0.8200   -2.5996 H   0  0  0  0  0  0  0  0  0  0  0  0
   -2.5945    1.3706   -3.4251 H   0  0  0  0  0  0  0  0  0  0  0  0
   -1.2556    2.8561   -1.9562 H   0  0  0  0  0  0  0  0  0  0  0  0
   -0.7134    2.1637    0.3768 H   0  0  0  0  0  0  0  0  0  0  0  0
   -2.0339    3.3631    1.9714 B   0  0  0  0  0  0  0  0  0  0  0  0
   -2.4816    4.3097    2.8633 F   0  0  0  0  0  0  0  0  0  0  0  0
   -0.6781    3.5989    1.6000 F   0  0  0  0  0  0  0  0  0  0  0  0
   -2.0767    2.0343    2.5137 F   0  0  0  0  0  0  0  0  0  0  0  0
   -2.8118    3.3511    0.7921 F   0  0  0  0  0  0  0  0  0  0  0  0
  1  2  1  0  0  0  0
  2  3  1  0  0  0  0
  4  9  1  0  0  0  0
  4  1  2  0  0  0  0
  5  4  1  0  0  0  0
  6  5  2  0  0  0  0
  6  7  1  0  0  0  0
  7  8  2  0  0  0  0
  8  1  1  0  0  0  0
  8 13  1  0  0  0  0
 10  5  1  0  0  0  0
 11  6  1  0  0  0  0
 12  7  1  0  0  0  0
 14 17  1  0  0  0  0
 14 15  1  0  0  0  0
 16 14  1  0  0  0  0
 18 14  1  0  0  0  0
M  RAD  2   2   2   3   3
M  END
