Coordinates from ORCA-job PhN2+~BF4-_B3LYPG-6-31G_dp-NX-Scan-d89-09-n800
 OpenBabel11261920563D

 18 17  0  0  0  0  0  0  0  0999 V2000
   -1.7595    0.4930    0.0632 C   0  0  0  0  0  0  0  0  0  0  0  0
   -1.4363    0.2342    1.3843 N   0  0  0  0  0  0  0  0  0  0  0  0
   -1.1590   -0.0852    2.4108 N   0  0  0  0  0  0  0  0  0  0  0  0
   -2.4669   -0.5172   -0.6159 C   0  0  0  0  0  0  0  0  0  0  0  0
   -2.7640   -0.2982   -1.9516 C   0  0  0  0  0  0  0  0  0  0  0  0
   -2.3584    0.8916   -2.5738 C   0  0  0  0  0  0  0  0  0  0  0  0
   -1.6581    1.8729   -1.8685 C   0  0  0  0  0  0  0  0  0  0  0  0
   -1.3446    1.6968   -0.5248 C   0  0  0  0  0  0  0  0  0  0  0  0
   -2.7696   -1.4226   -0.1023 H   0  0  0  0  0  0  0  0  0  0  0  0
   -3.3124   -1.0499   -2.5088 H   0  0  0  0  0  0  0  0  0  0  0  0
   -2.6005    1.0537   -3.6195 H   0  0  0  0  0  0  0  0  0  0  0  0
   -1.3649    2.7954   -2.3573 H   0  0  0  0  0  0  0  0  0  0  0  0
   -0.8444    2.4420    0.0809 H   0  0  0  0  0  0  0  0  0  0  0  0
   -2.0228    3.1587    2.2154 B   0  0  0  0  0  0  0  0  0  0  0  0
   -2.1319    3.9161    3.3525 F   0  0  0  0  0  0  0  0  0  0  0  0
   -0.6999    2.5817    2.1135 F   0  0  0  0  0  0  0  0  0  0  0  0
   -2.9215    2.0528    2.2329 F   0  0  0  0  0  0  0  0  0  0  0  0
   -2.2392    3.8974    1.0438 F   0  0  0  0  0  0  0  0  0  0  0  0
  1  2  1  0  0  0  0
  2  3  1  0  0  0  0
  4  9  1  0  0  0  0
  4  1  2  0  0  0  0
  5  4  1  0  0  0  0
  6  5  2  0  0  0  0
  6  7  1  0  0  0  0
  7  8  2  0  0  0  0
  8  1  1  0  0  0  0
  8 13  1  0  0  0  0
 10  5  1  0  0  0  0
 11  6  1  0  0  0  0
 12  7  1  0  0  0  0
 14 17  1  0  0  0  0
 14 15  1  0  0  0  0
 16 14  1  0  0  0  0
 18 14  1  0  0  0  0
M  RAD  2   2   2   3   3
M  END
