Coordinates from ORCA-job PhN2+~BF4-_B3LYPG-6-31G_dp-NX-Scan-d89-09-n800
 OpenBabel11261920563D

 18 17  0  0  0  0  0  0  0  0999 V2000
   -1.2272   -0.6242    0.1403 C   0  0  0  0  0  0  0  0  0  0  0  0
   -0.7639   -1.7078    0.7975 N   0  0  0  0  0  0  0  0  0  0  0  0
   -0.3740   -2.5952    1.3662 N   0  0  0  0  0  0  0  0  0  0  0  0
   -2.4583   -0.7328   -0.5573 C   0  0  0  0  0  0  0  0  0  0  0  0
   -2.9498    0.4080   -1.1525 C   0  0  0  0  0  0  0  0  0  0  0  0
   -2.2592    1.6302   -1.0317 C   0  0  0  0  0  0  0  0  0  0  0  0
   -1.0120    1.7012   -0.3702 C   0  0  0  0  0  0  0  0  0  0  0  0
   -0.4820    0.5851    0.2279 C   0  0  0  0  0  0  0  0  0  0  0  0
   -2.9812   -1.6819   -0.5978 H   0  0  0  0  0  0  0  0  0  0  0  0
   -3.8963    0.3742   -1.6798 H   0  0  0  0  0  0  0  0  0  0  0  0
   -2.6707    2.5396   -1.4589 H   0  0  0  0  0  0  0  0  0  0  0  0
   -0.5502    2.6746   -0.2530 H   0  0  0  0  0  0  0  0  0  0  0  0
    0.4490    0.6114    0.7825 H   0  0  0  0  0  0  0  0  0  0  0  0
   -2.9443    4.1415    0.5252 B   0  0  0  0  0  0  0  0  0  0  0  0
   -3.6349    4.9712    1.3724 F   0  0  0  0  0  0  0  0  0  0  0  0
   -3.2957    4.3452   -0.8300 F   0  0  0  0  0  0  0  0  0  0  0  0
   -1.5462    4.3033    0.6577 F   0  0  0  0  0  0  0  0  0  0  0  0
   -3.2570    2.7695    0.8364 F   0  0  0  0  0  0  0  0  0  0  0  0
  1  8  1  0  0  0  0
  1  2  1  0  0  0  0
  2  3  1  0  0  0  0
  4  1  2  0  0  0  0
  5  6  2  0  0  0  0
  5  4  1  0  0  0  0
  6  7  1  0  0  0  0
  7 12  1  0  0  0  0
  7  8  2  0  0  0  0
  8 13  1  0  0  0  0
  9  4  1  0  0  0  0
 10  5  1  0  0  0  0
 11  6  1  0  0  0  0
 14 17  1  0  0  0  0
 14 18  1  0  0  0  0
 14 15  1  0  0  0  0
 16 14  1  0  0  0  0
M  RAD  2   2   2   3   3
M  END
