Coordinates from ORCA-job PhN2+~BF4-_B3LYPG-6-31G_dp-NX-Scan-d89-09-n800
 OpenBabel11261920563D

 18 17  0  0  0  0  0  0  0  0999 V2000
   -1.2581   -0.3926    0.1884 C   0  0  0  0  0  0  0  0  0  0  0  0
   -0.7680   -1.3417    1.0173 N   0  0  0  0  0  0  0  0  0  0  0  0
   -0.3559   -2.1234    1.7104 N   0  0  0  0  0  0  0  0  0  0  0  0
   -2.4982   -0.6377   -0.4599 C   0  0  0  0  0  0  0  0  0  0  0  0
   -3.0134    0.3765   -1.2340 C   0  0  0  0  0  0  0  0  0  0  0  0
   -2.3325    1.6058   -1.3409 C   0  0  0  0  0  0  0  0  0  0  0  0
   -1.0767    1.8013   -0.7388 C   0  0  0  0  0  0  0  0  0  0  0  0
   -0.5299    0.8167    0.0512 C   0  0  0  0  0  0  0  0  0  0  0  0
   -3.0119   -1.5823   -0.3210 H   0  0  0  0  0  0  0  0  0  0  0  0
   -3.9731    0.2472   -1.7202 H   0  0  0  0  0  0  0  0  0  0  0  0
   -2.7644    2.4227   -1.9021 H   0  0  0  0  0  0  0  0  0  0  0  0
   -0.6160    2.7773   -0.8065 H   0  0  0  0  0  0  0  0  0  0  0  0
    0.3998    0.9602    0.5884 H   0  0  0  0  0  0  0  0  0  0  0  0
   -2.8141    3.7825    0.7729 B   0  0  0  0  0  0  0  0  0  0  0  0
   -3.4891    4.7405    1.4930 F   0  0  0  0  0  0  0  0  0  0  0  0
   -2.1622    4.3456   -0.3567 F   0  0  0  0  0  0  0  0  0  0  0  0
   -1.8542    3.1144    1.5598 F   0  0  0  0  0  0  0  0  0  0  0  0
   -3.7359    2.8002    0.2737 F   0  0  0  0  0  0  0  0  0  0  0  0
  1  2  1  0  0  0  0
  2  3  1  0  0  0  0
  4  9  1  0  0  0  0
  4  1  2  0  0  0  0
  5  4  1  0  0  0  0
  6  5  2  0  0  0  0
  6  7  1  0  0  0  0
  7  8  2  0  0  0  0
  8  1  1  0  0  0  0
  8 13  1  0  0  0  0
 10  5  1  0  0  0  0
 11  6  1  0  0  0  0
 12  7  1  0  0  0  0
 14 15  1  0  0  0  0
 14 17  1  0  0  0  0
 16 14  1  0  0  0  0
 18 14  1  0  0  0  0
M  RAD  2   2   2   3   3
M  END
