Coordinates from ORCA-job PhN2+~BF4-_B3LYPG-6-31G_dp-NX-Scan-d89-09-n800
 OpenBabel11261920573D

 18 17  0  0  0  0  0  0  0  0999 V2000
   -1.9189    0.5758    0.0142 C   0  0  0  0  0  0  0  0  0  0  0  0
   -1.7335    0.5064    1.3884 N   0  0  0  0  0  0  0  0  0  0  0  0
   -1.5855    0.3383    2.4793 N   0  0  0  0  0  0  0  0  0  0  0  0
   -2.4707   -0.5628   -0.5992 C   0  0  0  0  0  0  0  0  0  0  0  0
   -2.6595   -0.5204   -1.9731 C   0  0  0  0  0  0  0  0  0  0  0  0
   -2.2946    0.6243   -2.6942 C   0  0  0  0  0  0  0  0  0  0  0  0
   -1.7364    1.7341   -2.0525 C   0  0  0  0  0  0  0  0  0  0  0  0
   -1.5402    1.7367   -0.6753 C   0  0  0  0  0  0  0  0  0  0  0  0
   -2.7451   -1.4308   -0.0103 H   0  0  0  0  0  0  0  0  0  0  0  0
   -3.0907   -1.3761   -2.4813 H   0  0  0  0  0  0  0  0  0  0  0  0
   -2.4501    0.6482   -3.7685 H   0  0  0  0  0  0  0  0  0  0  0  0
   -1.4589    2.6122   -2.6256 H   0  0  0  0  0  0  0  0  0  0  0  0
   -1.1169    2.5655   -0.1158 H   0  0  0  0  0  0  0  0  0  0  0  0
   -1.8185    3.2931    2.3976 B   0  0  0  0  0  0  0  0  0  0  0  0
   -1.7749    2.4706    3.5463 F   0  0  0  0  0  0  0  0  0  0  0  0
   -0.5992    3.0833    1.6782 F   0  0  0  0  0  0  0  0  0  0  0  0
   -2.8622    2.8006    1.5611 F   0  0  0  0  0  0  0  0  0  0  0  0
   -1.9980    4.6142    2.7057 F   0  0  0  0  0  0  0  0  0  0  0  0
  1  2  1  0  0  0  0
  2  3  1  0  0  0  0
  4  9  1  0  0  0  0
  4  1  1  0  0  0  0
  5  4  2  0  0  0  0
  6  7  2  0  0  0  0
  6  5  1  0  0  0  0
  7  8  1  0  0  0  0
  8 13  1  0  0  0  0
  8  1  2  0  0  0  0
 10  5  1  0  0  0  0
 11  6  1  0  0  0  0
 12  7  1  0  0  0  0
 14 18  1  0  0  0  0
 14 15  1  0  0  0  0
 16 14  1  0  0  0  0
 17 14  1  0  0  0  0
M  RAD  2   2   2   3   3
M  END
