Coordinates from ORCA-job PhN2+~BF4-_B3LYPG-6-31G_dp-NX-Scan-d89-09-n800
 OpenBabel11261920563D

 18 17  0  0  0  0  0  0  0  0999 V2000
   -1.2163   -0.6768    0.1155 C   0  0  0  0  0  0  0  0  0  0  0  0
   -0.6867   -1.7700    0.7092 N   0  0  0  0  0  0  0  0  0  0  0  0
   -0.2348   -2.6621    1.2195 N   0  0  0  0  0  0  0  0  0  0  0  0
   -2.4164   -0.8264   -0.6235 C   0  0  0  0  0  0  0  0  0  0  0  0
   -2.9654    0.3159   -1.1704 C   0  0  0  0  0  0  0  0  0  0  0  0
   -2.3567    1.5681   -0.9684 C   0  0  0  0  0  0  0  0  0  0  0  0
   -1.1483    1.6856   -0.2463 C   0  0  0  0  0  0  0  0  0  0  0  0
   -0.5605    0.5714    0.3037 C   0  0  0  0  0  0  0  0  0  0  0  0
   -2.8725   -1.8036   -0.7363 H   0  0  0  0  0  0  0  0  0  0  0  0
   -3.8898    0.2486   -1.7330 H   0  0  0  0  0  0  0  0  0  0  0  0
   -2.8068    2.4795   -1.3540 H   0  0  0  0  0  0  0  0  0  0  0  0
   -0.7546    2.6826   -0.0668 H   0  0  0  0  0  0  0  0  0  0  0  0
    0.3494    0.6257    0.8905 H   0  0  0  0  0  0  0  0  0  0  0  0
   -2.8702    4.2860    0.5003 B   0  0  0  0  0  0  0  0  0  0  0  0
   -3.5215    5.2413    1.2402 F   0  0  0  0  0  0  0  0  0  0  0  0
   -3.2265    4.3453   -0.8721 F   0  0  0  0  0  0  0  0  0  0  0  0
   -1.4616    4.4245    0.5993 F   0  0  0  0  0  0  0  0  0  0  0  0
   -3.2148    2.9777    0.9676 F   0  0  0  0  0  0  0  0  0  0  0  0
  1  8  1  0  0  0  0
  1  2  1  0  0  0  0
  2  3  1  0  0  0  0
  4  1  2  0  0  0  0
  5  6  2  0  0  0  0
  5  4  1  0  0  0  0
  6  7  1  0  0  0  0
  7 12  1  0  0  0  0
  7  8  2  0  0  0  0
  8 13  1  0  0  0  0
  9  4  1  0  0  0  0
 10  5  1  0  0  0  0
 11  6  1  0  0  0  0
 14 17  1  0  0  0  0
 14 18  1  0  0  0  0
 14 15  1  0  0  0  0
 16 14  1  0  0  0  0
M  RAD  2   2   2   3   3
M  END
