Coordinates from ORCA-job PhN2+~BF4-_B3LYPG-6-31G_dp-NX-Scan-d89-09-n800
 OpenBabel11261920563D

 18 17  0  0  0  0  0  0  0  0999 V2000
   -1.2533   -0.5362    0.1615 C   0  0  0  0  0  0  0  0  0  0  0  0
   -0.8553   -1.5594    0.9443 N   0  0  0  0  0  0  0  0  0  0  0  0
   -0.5258   -2.3912    1.6245 N   0  0  0  0  0  0  0  0  0  0  0  0
   -2.4852   -0.6562   -0.5350 C   0  0  0  0  0  0  0  0  0  0  0  0
   -2.9368    0.4524   -1.2121 C   0  0  0  0  0  0  0  0  0  0  0  0
   -2.2112    1.6604   -1.1605 C   0  0  0  0  0  0  0  0  0  0  0  0
   -0.9431    1.7261   -0.5419 C   0  0  0  0  0  0  0  0  0  0  0  0
   -0.4539    0.6398    0.1397 C   0  0  0  0  0  0  0  0  0  0  0  0
   -3.0446   -1.5844   -0.4986 H   0  0  0  0  0  0  0  0  0  0  0  0
   -3.8887    0.4182   -1.7291 H   0  0  0  0  0  0  0  0  0  0  0  0
   -2.6143    2.5610   -1.6115 H   0  0  0  0  0  0  0  0  0  0  0  0
   -0.4300    2.6777   -0.5037 H   0  0  0  0  0  0  0  0  0  0  0  0
    0.4815    0.6723    0.6862 H   0  0  0  0  0  0  0  0  0  0  0  0
   -2.9458    3.9635    0.6169 B   0  0  0  0  0  0  0  0  0  0  0  0
   -3.6491    4.6778    1.5549 F   0  0  0  0  0  0  0  0  0  0  0  0
   -3.2557    4.3487   -0.7053 F   0  0  0  0  0  0  0  0  0  0  0  0
   -1.5522    4.0770    0.8107 F   0  0  0  0  0  0  0  0  0  0  0  0
   -3.2903    2.5657    0.7340 F   0  0  0  0  0  0  0  0  0  0  0  0
  1  2  1  0  0  0  0
  2  3  1  0  0  0  0
  4  9  1  0  0  0  0
  4  1  2  0  0  0  0
  5  6  2  0  0  0  0
  5  4  1  0  0  0  0
  6  7  1  0  0  0  0
  7 12  1  0  0  0  0
  7  8  2  0  0  0  0
  8  1  1  0  0  0  0
  8 13  1  0  0  0  0
 10  5  1  0  0  0  0
 11  6  1  0  0  0  0
 14 18  1  0  0  0  0
 14 17  1  0  0  0  0
 14 15  1  0  0  0  0
 16 14  1  0  0  0  0
M  RAD  2   2   2   3   3
M  END
