Coordinates from ORCA-job PhN2+~BF4-_B3LYPG-6-31G_dp-NX-Scan-d89-09-n800
 OpenBabel11261920563D

 18 17  0  0  0  0  0  0  0  0999 V2000
   -1.2397   -0.5787    0.1542 C   0  0  0  0  0  0  0  0  0  0  0  0
   -0.8163   -1.6365    0.8754 N   0  0  0  0  0  0  0  0  0  0  0  0
   -0.4634   -2.5009    1.5010 N   0  0  0  0  0  0  0  0  0  0  0  0
   -2.4765   -0.6820   -0.5361 C   0  0  0  0  0  0  0  0  0  0  0  0
   -2.9404    0.4459   -1.1728 C   0  0  0  0  0  0  0  0  0  0  0  0
   -2.2205    1.6558   -1.0931 C   0  0  0  0  0  0  0  0  0  0  0  0
   -0.9568    1.7131   -0.4629 C   0  0  0  0  0  0  0  0  0  0  0  0
   -0.4550    0.6079    0.1778 C   0  0  0  0  0  0  0  0  0  0  0  0
   -3.0269   -1.6163   -0.5323 H   0  0  0  0  0  0  0  0  0  0  0  0
   -3.8929    0.4200   -1.6893 H   0  0  0  0  0  0  0  0  0  0  0  0
   -2.6213    2.5615   -1.5364 H   0  0  0  0  0  0  0  0  0  0  0  0
   -0.4577    2.6712   -0.3927 H   0  0  0  0  0  0  0  0  0  0  0  0
    0.4825    0.6293    0.7213 H   0  0  0  0  0  0  0  0  0  0  0  0
   -2.9615    4.0419    0.5658 B   0  0  0  0  0  0  0  0  0  0  0  0
   -3.6615    4.7979    1.4724 F   0  0  0  0  0  0  0  0  0  0  0  0
   -3.3032    4.3458   -0.7708 F   0  0  0  0  0  0  0  0  0  0  0  0
   -1.5666    4.1907    0.7239 F   0  0  0  0  0  0  0  0  0  0  0  0
   -3.2763    2.6467    0.7697 F   0  0  0  0  0  0  0  0  0  0  0  0
  1  8  1  0  0  0  0
  1  2  1  0  0  0  0
  2  3  1  0  0  0  0
  4  9  1  0  0  0  0
  4  1  2  0  0  0  0
  5  6  2  0  0  0  0
  5  4  1  0  0  0  0
  6  7  1  0  0  0  0
  7 12  1  0  0  0  0
  7  8  2  0  0  0  0
  8 13  1  0  0  0  0
 10  5  1  0  0  0  0
 11  6  1  0  0  0  0
 14 17  1  0  0  0  0
 14 18  1  0  0  0  0
 14 15  1  0  0  0  0
 16 14  1  0  0  0  0
M  RAD  2   2   2   3   3
M  END
