Coordinates from ORCA-job PhN2+~BF4-_B3LYPG-6-31G_dp-NX-Scan-d89-09-n800
 OpenBabel11261920563D

 18 17  0  0  0  0  0  0  0  0999 V2000
   -1.7290    0.1293    0.1349 C   0  0  0  0  0  0  0  0  0  0  0  0
   -1.3904   -0.4012    1.3546 N   0  0  0  0  0  0  0  0  0  0  0  0
   -1.1161   -0.9423    2.2917 N   0  0  0  0  0  0  0  0  0  0  0  0
   -2.4757   -0.7104   -0.7301 C   0  0  0  0  0  0  0  0  0  0  0  0
   -2.7950   -0.2034   -1.9725 C   0  0  0  0  0  0  0  0  0  0  0  0
   -2.3898    1.0988   -2.3291 C   0  0  0  0  0  0  0  0  0  0  0  0
   -1.6662    1.8996   -1.4501 C   0  0  0  0  0  0  0  0  0  0  0  0
   -1.3126    1.4310   -0.1859 C   0  0  0  0  0  0  0  0  0  0  0  0
   -2.7787   -1.7019   -0.4148 H   0  0  0  0  0  0  0  0  0  0  0  0
   -3.3656   -0.8085   -2.6687 H   0  0  0  0  0  0  0  0  0  0  0  0
   -2.6627    1.4864   -3.3055 H   0  0  0  0  0  0  0  0  0  0  0  0
   -1.3985    2.9165   -1.7083 H   0  0  0  0  0  0  0  0  0  0  0  0
   -0.7695    2.0599    0.5204 H   0  0  0  0  0  0  0  0  0  0  0  0
   -2.0201    3.5203    1.8736 B   0  0  0  0  0  0  0  0  0  0  0  0
   -2.3964    4.5512    2.7067 F   0  0  0  0  0  0  0  0  0  0  0  0
   -0.6379    3.6238    1.5164 F   0  0  0  0  0  0  0  0  0  0  0  0
   -2.1798    2.2325    2.4680 F   0  0  0  0  0  0  0  0  0  0  0  0
   -2.7698    3.5315    0.6737 F   0  0  0  0  0  0  0  0  0  0  0  0
  1  2  1  0  0  0  0
  2  3  1  0  0  0  0
  4  9  1  0  0  0  0
  4  1  2  0  0  0  0
  5  4  1  0  0  0  0
  6  5  2  0  0  0  0
  6  7  1  0  0  0  0
  7  8  2  0  0  0  0
  8  1  1  0  0  0  0
  8 13  1  0  0  0  0
 10  5  1  0  0  0  0
 11  6  1  0  0  0  0
 12  7  1  0  0  0  0
 14 17  1  0  0  0  0
 14 15  1  0  0  0  0
 16 14  1  0  0  0  0
 18 14  1  0  0  0  0
M  RAD  2   2   2   3   3
M  END
