Coordinates from ORCA-job PhN2+~BF4-_B3LYPG-6-31G_dp-NX-Scan-d89-09-n800
 OpenBabel11261920573D

 18 17  0  0  0  0  0  0  0  0999 V2000
   -2.3741    0.3552   -0.0334 C   0  0  0  0  0  0  0  0  0  0  0  0
   -2.7513    0.1822    1.3348 N   0  0  0  0  0  0  0  0  0  0  0  0
   -2.2663    0.8394    2.2745 N   0  0  0  0  0  0  0  0  0  0  0  0
   -2.5306   -0.8076   -0.8049 C   0  0  0  0  0  0  0  0  0  0  0  0
   -2.2456   -0.7974   -2.1671 C   0  0  0  0  0  0  0  0  0  0  0  0
   -1.8426    0.3888   -2.7845 C   0  0  0  0  0  0  0  0  0  0  0  0
   -1.7243    1.5581   -2.0299 C   0  0  0  0  0  0  0  0  0  0  0  0
   -1.9752    1.5522   -0.6586 C   0  0  0  0  0  0  0  0  0  0  0  0
   -2.8745   -1.7089   -0.3084 H   0  0  0  0  0  0  0  0  0  0  0  0
   -2.3547   -1.7080   -2.7487 H   0  0  0  0  0  0  0  0  0  0  0  0
   -1.6307    0.4055   -3.8494 H   0  0  0  0  0  0  0  0  0  0  0  0
   -1.4262    2.4859   -2.5092 H   0  0  0  0  0  0  0  0  0  0  0  0
   -1.8814    2.4733   -0.0990 H   0  0  0  0  0  0  0  0  0  0  0  0
   -1.6353    4.2062    2.7951 B   0  0  0  0  0  0  0  0  0  0  0  0
   -1.4322    1.6402    1.9920 F   0  0  0  0  0  0  0  0  0  0  0  0
   -1.6500    4.4292    1.4900 F   0  0  0  0  0  0  0  0  0  0  0  0
   -2.7571    3.9217    3.4220 F   0  0  0  0  0  0  0  0  0  0  0  0
   -0.5018    4.2969    3.4597 F   0  0  0  0  0  0  0  0  0  0  0  0
  1  2  1  0  0  0  0
  2  3  2  0  0  0  0
  4  9  1  0  0  0  0
  4  1  2  0  0  0  0
  5  4  1  0  0  0  0
  6  5  2  0  0  0  0
  6  7  1  0  0  0  0
  7  8  2  0  0  0  0
  8 13  1  0  0  0  0
  8  1  1  0  0  0  0
 10  5  1  0  0  0  0
 11  6  1  0  0  0  0
 12  7  1  0  0  0  0
 14 17  1  0  0  0  0
 14 18  1  0  0  0  0
 15  3  1  0  0  0  0
 16 14  1  0  0  0  0
M  END
