Coordinates from ORCA-job PhN2+~BF4-_B3LYPG-6-31G_dp-NX-Scan-d89-09-n800
 OpenBabel11261920563D

 18 17  0  0  0  0  0  0  0  0999 V2000
   -1.2407   -0.5757    0.1545 C   0  0  0  0  0  0  0  0  0  0  0  0
   -0.8197   -1.6306    0.8810 N   0  0  0  0  0  0  0  0  0  0  0  0
   -0.4686   -2.4923    1.5115 N   0  0  0  0  0  0  0  0  0  0  0  0
   -2.4772   -0.6799   -0.5362 C   0  0  0  0  0  0  0  0  0  0  0  0
   -2.9400    0.4467   -1.1758 C   0  0  0  0  0  0  0  0  0  0  0  0
   -2.2193    1.6563   -1.0981 C   0  0  0  0  0  0  0  0  0  0  0  0
   -0.9550    1.7139   -0.4691 C   0  0  0  0  0  0  0  0  0  0  0  0
   -0.4544    0.6100    0.1745 C   0  0  0  0  0  0  0  0  0  0  0  0
   -3.0287   -1.6136   -0.5297 H   0  0  0  0  0  0  0  0  0  0  0  0
   -3.8927    0.4207   -1.6920 H   0  0  0  0  0  0  0  0  0  0  0  0
   -2.6201    2.5618   -1.5418 H   0  0  0  0  0  0  0  0  0  0  0  0
   -0.4548    2.6714   -0.4012 H   0  0  0  0  0  0  0  0  0  0  0  0
    0.4830    0.6319    0.7182 H   0  0  0  0  0  0  0  0  0  0  0  0
   -2.9608    4.0358    0.5695 B   0  0  0  0  0  0  0  0  0  0  0  0
   -3.6609    4.7873    1.4797 F   0  0  0  0  0  0  0  0  0  0  0  0
   -3.3010    4.3463   -0.7659 F   0  0  0  0  0  0  0  0  0  0  0  0
   -1.5659    4.1831    0.7294 F   0  0  0  0  0  0  0  0  0  0  0  0
   -3.2769    2.6400    0.7665 F   0  0  0  0  0  0  0  0  0  0  0  0
  1  8  1  0  0  0  0
  1  2  1  0  0  0  0
  2  3  1  0  0  0  0
  4  9  1  0  0  0  0
  4  1  2  0  0  0  0
  5  6  2  0  0  0  0
  5  4  1  0  0  0  0
  6  7  1  0  0  0  0
  7 12  1  0  0  0  0
  7  8  2  0  0  0  0
  8 13  1  0  0  0  0
 10  5  1  0  0  0  0
 11  6  1  0  0  0  0
 14 17  1  0  0  0  0
 14 18  1  0  0  0  0
 14 15  1  0  0  0  0
 16 14  1  0  0  0  0
M  RAD  2   2   2   3   3
M  END
