Coordinates from ORCA-job PhN2+~BF4-_B3LYPG-6-31G_dp-NX-Scan-d89-09-n800
 OpenBabel11261920563D

 18 17  0  0  0  0  0  0  0  0999 V2000
   -1.2213   -0.6546    0.1249 C   0  0  0  0  0  0  0  0  0  0  0  0
   -0.7214   -1.7435    0.7491 N   0  0  0  0  0  0  0  0  0  0  0  0
   -0.2976   -2.6324    1.2891 N   0  0  0  0  0  0  0  0  0  0  0  0
   -2.4345   -0.7886   -0.5966 C   0  0  0  0  0  0  0  0  0  0  0  0
   -2.9587    0.3531   -1.1660 C   0  0  0  0  0  0  0  0  0  0  0  0
   -2.3148    1.5937   -1.0001 C   0  0  0  0  0  0  0  0  0  0  0  0
   -1.0902    1.6936   -0.3023 C   0  0  0  0  0  0  0  0  0  0  0  0
   -0.5269    0.5788    0.2693 C   0  0  0  0  0  0  0  0  0  0  0  0
   -2.9195   -1.7551   -0.6774 H   0  0  0  0  0  0  0  0  0  0  0  0
   -3.8927    0.2985   -1.7139 H   0  0  0  0  0  0  0  0  0  0  0  0
   -2.7493    2.5046   -1.4028 H   0  0  0  0  0  0  0  0  0  0  0  0
   -0.6706    2.6826   -0.1466 H   0  0  0  0  0  0  0  0  0  0  0  0
    0.3911    0.6228    0.8441 H   0  0  0  0  0  0  0  0  0  0  0  0
   -2.8997    4.2245    0.5139 B   0  0  0  0  0  0  0  0  0  0  0  0
   -3.5699    5.1251    1.3033 F   0  0  0  0  0  0  0  0  0  0  0  0
   -3.2567    4.3449   -0.8525 F   0  0  0  0  0  0  0  0  0  0  0  0
   -1.4957    4.3797    0.6239 F   0  0  0  0  0  0  0  0  0  0  0  0
   -3.2255    2.8856    0.9155 F   0  0  0  0  0  0  0  0  0  0  0  0
  1  8  1  0  0  0  0
  1  2  1  0  0  0  0
  2  3  1  0  0  0  0
  4  1  2  0  0  0  0
  5  6  2  0  0  0  0
  5  4  1  0  0  0  0
  6  7  1  0  0  0  0
  7 12  1  0  0  0  0
  7  8  2  0  0  0  0
  8 13  1  0  0  0  0
  9  4  1  0  0  0  0
 10  5  1  0  0  0  0
 11  6  1  0  0  0  0
 14 17  1  0  0  0  0
 14 18  1  0  0  0  0
 14 15  1  0  0  0  0
 16 14  1  0  0  0  0
M  RAD  2   2   2   3   3
M  END
