Coordinates from ORCA-job PhN2+~BF4-_B3LYPG-6-31G_dp-NX-Scan-d89-09-n800
 OpenBabel11261920573D

 18 17  0  0  0  0  0  0  0  0999 V2000
   -1.9275    0.5739    0.0145 C   0  0  0  0  0  0  0  0  0  0  0  0
   -1.7487    0.5064    1.3895 N   0  0  0  0  0  0  0  0  0  0  0  0
   -1.6080    0.3494    2.4835 N   0  0  0  0  0  0  0  0  0  0  0  0
   -2.4709   -0.5674   -0.6015 C   0  0  0  0  0  0  0  0  0  0  0  0
   -2.6535   -0.5264   -1.9762 C   0  0  0  0  0  0  0  0  0  0  0  0
   -2.2904    0.6197   -2.6960 C   0  0  0  0  0  0  0  0  0  0  0  0
   -1.7402    1.7321   -2.0521 C   0  0  0  0  0  0  0  0  0  0  0  0
   -1.5503    1.7361   -0.6739 C   0  0  0  0  0  0  0  0  0  0  0  0
   -2.7437   -1.4366   -0.0137 H   0  0  0  0  0  0  0  0  0  0  0  0
   -3.0783   -1.3842   -2.4863 H   0  0  0  0  0  0  0  0  0  0  0  0
   -2.4407    0.6425   -3.7711 H   0  0  0  0  0  0  0  0  0  0  0  0
   -1.4636    2.6111   -2.6242 H   0  0  0  0  0  0  0  0  0  0  0  0
   -1.1327    2.5675   -0.1141 H   0  0  0  0  0  0  0  0  0  0  0  0
   -1.8087    3.2991    2.3975 B   0  0  0  0  0  0  0  0  0  0  0  0
   -1.7545    2.4503    3.5303 F   0  0  0  0  0  0  0  0  0  0  0  0
   -0.5956    3.1066    1.6665 F   0  0  0  0  0  0  0  0  0  0  0  0
   -2.8588    2.8219    1.5625 F   0  0  0  0  0  0  0  0  0  0  0  0
   -1.9880    4.6113    2.7398 F   0  0  0  0  0  0  0  0  0  0  0  0
  1  2  1  0  0  0  0
  2  3  1  0  0  0  0
  4  9  1  0  0  0  0
  4  1  1  0  0  0  0
  5  4  2  0  0  0  0
  6  7  2  0  0  0  0
  6  5  1  0  0  0  0
  7  8  1  0  0  0  0
  8 13  1  0  0  0  0
  8  1  2  0  0  0  0
 10  5  1  0  0  0  0
 11  6  1  0  0  0  0
 12  7  1  0  0  0  0
 14 18  1  0  0  0  0
 14 15  1  0  0  0  0
 16 14  1  0  0  0  0
 17 14  1  0  0  0  0
M  RAD  2   2   2   3   3
M  END
