Coordinates from ORCA-job PhN2+~BF4-_B3LYPG-6-31G_dp-NX-Scan-d89-09-n800
 OpenBabel11261920573D

 18 18  0  0  0  0  0  0  0  0999 V2000
   -2.2247    1.1080   -0.2466 C   0  0  0  0  0  0  0  0  0  0  0  0
   -2.5333    1.6257    1.0465 N   0  0  0  0  0  0  0  0  0  0  0  0
   -1.7288    2.4440    1.5929 N   0  0  0  0  0  0  0  0  0  0  0  0
   -2.8035   -0.1473   -0.4972 C   0  0  0  0  0  0  0  0  0  0  0  0
   -2.6176   -0.7793   -1.7222 C   0  0  0  0  0  0  0  0  0  0  0  0
   -1.8790   -0.1501   -2.7274 C   0  0  0  0  0  0  0  0  0  0  0  0
   -1.3299    1.1127   -2.4987 C   0  0  0  0  0  0  0  0  0  0  0  0
   -1.4887    1.7446   -1.2662 C   0  0  0  0  0  0  0  0  0  0  0  0
   -3.3911   -0.6047    0.2919 H   0  0  0  0  0  0  0  0  0  0  0  0
   -3.0584   -1.7554   -1.8975 H   0  0  0  0  0  0  0  0  0  0  0  0
   -1.7401   -0.6361   -3.6882 H   0  0  0  0  0  0  0  0  0  0  0  0
   -0.7715    1.6132   -3.2840 H   0  0  0  0  0  0  0  0  0  0  0  0
   -1.0660    2.7337   -1.1346 H   0  0  0  0  0  0  0  0  0  0  0  0
   -2.0685    3.0750    3.2206 B   0  0  0  0  0  0  0  0  0  0  0  0
   -0.9043    2.7470    1.1811 F   0  0  0  0  0  0  0  0  0  0  0  0
   -1.9079    4.4095    2.9566 F   0  0  0  0  0  0  0  0  0  0  0  0
   -1.0314    2.5118    3.9107 F   0  0  0  0  0  0  0  0  0  0  0  0
   -3.3091    2.6610    3.5375 F   0  0  0  0  0  0  0  0  0  0  0  0
  1  2  1  0  0  0  0
  2  3  1  0  0  0  0
  3 14  1  0  0  0  0
  4  1  1  0  0  0  0
  4  9  1  0  0  0  0
  5  4  2  0  0  0  0
  6  7  2  0  0  0  0
  6  5  1  0  0  0  0
  7  8  1  0  0  0  0
  8 13  1  0  0  0  0
  8  1  2  0  0  0  0
 10  5  1  0  0  0  0
 11  6  1  0  0  0  0
 12  7  1  0  0  0  0
 14 18  1  0  0  0  0
 14 17  1  0  0  0  0
 15  3  1  0  0  0  0
 16 14  1  0  0  0  0
M  RAD  1   2   2
M  END
