Coordinates from ORCA-job PhN2+~BF4-_B3LYPG-6-31G_dp-NX-Scan-d89-09-n800
 OpenBabel11261920573D

 18 17  0  0  0  0  0  0  0  0999 V2000
   -2.4757    0.3597   -0.0802 C   0  0  0  0  0  0  0  0  0  0  0  0
   -2.9333    0.2445    1.2772 N   0  0  0  0  0  0  0  0  0  0  0  0
   -2.3170    0.8553    2.2003 N   0  0  0  0  0  0  0  0  0  0  0  0
   -2.5496   -0.8218   -0.8329 C   0  0  0  0  0  0  0  0  0  0  0  0
   -2.1952   -0.8264   -2.1795 C   0  0  0  0  0  0  0  0  0  0  0  0
   -1.7952    0.3584   -2.8026 C   0  0  0  0  0  0  0  0  0  0  0  0
   -1.7520    1.5442   -2.0671 C   0  0  0  0  0  0  0  0  0  0  0  0
   -2.0809    1.5529   -0.7114 C   0  0  0  0  0  0  0  0  0  0  0  0
   -2.8886   -1.7264   -0.3385 H   0  0  0  0  0  0  0  0  0  0  0  0
   -2.2454   -1.7515   -2.7467 H   0  0  0  0  0  0  0  0  0  0  0  0
   -1.5282    0.3598   -3.8550 H   0  0  0  0  0  0  0  0  0  0  0  0
   -1.4556    2.4720   -2.5479 H   0  0  0  0  0  0  0  0  0  0  0  0
   -2.0480    2.4879   -0.1631 H   0  0  0  0  0  0  0  0  0  0  0  0
   -1.5310    4.2971    2.9218 B   0  0  0  0  0  0  0  0  0  0  0  0
   -1.4703    1.4264    1.9555 F   0  0  0  0  0  0  0  0  0  0  0  0
   -1.5702    4.2553    1.5995 F   0  0  0  0  0  0  0  0  0  0  0  0
   -2.5213    3.7838    3.6193 F   0  0  0  0  0  0  0  0  0  0  0  0
   -0.4964    4.8420    3.5262 F   0  0  0  0  0  0  0  0  0  0  0  0
  1  2  1  0  0  0  0
  2  3  2  0  0  0  0
  4  9  1  0  0  0  0
  4  1  2  0  0  0  0
  5  4  1  0  0  0  0
  6  5  2  0  0  0  0
  6  7  1  0  0  0  0
  7  8  2  0  0  0  0
  8 13  1  0  0  0  0
  8  1  1  0  0  0  0
 10  5  1  0  0  0  0
 11  6  1  0  0  0  0
 12  7  1  0  0  0  0
 14 18  1  0  0  0  0
 14 17  1  0  0  0  0
 15  3  1  0  0  0  0
 16 14  1  0  0  0  0
M  END
