Coordinates from ORCA-job PhN2+~BF4-_B3LYPG-6-31G_dp-NX-Scan-d89-09-n800
 OpenBabel11261920563D

 18 17  0  0  0  0  0  0  0  0999 V2000
   -1.3820    0.1317    0.2547 C   0  0  0  0  0  0  0  0  0  0  0  0
   -0.9212   -0.5238    1.3508 N   0  0  0  0  0  0  0  0  0  0  0  0
   -0.5288   -1.1066    2.2232 N   0  0  0  0  0  0  0  0  0  0  0  0
   -2.6129   -0.2936   -0.2974 C   0  0  0  0  0  0  0  0  0  0  0  0
   -3.0567    0.3630   -1.4241 C   0  0  0  0  0  0  0  0  0  0  0  0
   -2.3039    1.4195   -1.9641 C   0  0  0  0  0  0  0  0  0  0  0  0
   -1.0910    1.8187   -1.4023 C   0  0  0  0  0  0  0  0  0  0  0  0
   -0.6138    1.1966   -0.2612 C   0  0  0  0  0  0  0  0  0  0  0  0
   -3.1763   -1.0919    0.1700 H   0  0  0  0  0  0  0  0  0  0  0  0
   -4.0040    0.0842   -1.8703 H   0  0  0  0  0  0  0  0  0  0  0  0
   -2.6859    1.9506   -2.8291 H   0  0  0  0  0  0  0  0  0  0  0  0
   -0.5513    2.6649   -1.8087 H   0  0  0  0  0  0  0  0  0  0  0  0
    0.2887    1.5193    0.2376 H   0  0  0  0  0  0  0  0  0  0  0  0
   -2.6615    3.1372    1.2920 B   0  0  0  0  0  0  0  0  0  0  0  0
   -3.1721    4.1290    2.1066 F   0  0  0  0  0  0  0  0  0  0  0  0
   -1.2349    3.2136    1.2372 F   0  0  0  0  0  0  0  0  0  0  0  0
   -2.9814    1.8384    1.7809 F   0  0  0  0  0  0  0  0  0  0  0  0
   -3.1647    3.2623   -0.0208 F   0  0  0  0  0  0  0  0  0  0  0  0
  1  2  1  0  0  0  0
  2  3  1  0  0  0  0
  4  9  1  0  0  0  0
  4  1  2  0  0  0  0
  5  4  1  0  0  0  0
  6  5  2  0  0  0  0
  6  7  1  0  0  0  0
  7  8  2  0  0  0  0
  8 13  1  0  0  0  0
  8  1  1  0  0  0  0
 10  5  1  0  0  0  0
 11  6  1  0  0  0  0
 12  7  1  0  0  0  0
 14 17  1  0  0  0  0
 14 15  1  0  0  0  0
 16 14  1  0  0  0  0
 18 14  1  0  0  0  0
M  RAD  2   2   2   3   3
M  END
