Coordinates from ORCA-job PhN2+~BF4-_B3LYPG-6-31G_dp-NX-Scan-d89-09-n800
 OpenBabel11261920563D

 18 17  0  0  0  0  0  0  0  0999 V2000
   -1.2982   -0.0724    0.2535 C   0  0  0  0  0  0  0  0  0  0  0  0
   -0.8208   -0.8410    1.2579 N   0  0  0  0  0  0  0  0  0  0  0  0
   -0.4204   -1.4901    2.0816 N   0  0  0  0  0  0  0  0  0  0  0  0
   -2.5788   -0.3770   -0.2701 C   0  0  0  0  0  0  0  0  0  0  0  0
   -3.0678    0.4482   -1.2564 C   0  0  0  0  0  0  0  0  0  0  0  0
   -2.3201    1.5597   -1.6843 C   0  0  0  0  0  0  0  0  0  0  0  0
   -1.0377    1.8184   -1.1794 C   0  0  0  0  0  0  0  0  0  0  0  0
   -0.5166    1.0224   -0.1826 C   0  0  0  0  0  0  0  0  0  0  0  0
   -3.1416   -1.2193    0.1146 H   0  0  0  0  0  0  0  0  0  0  0  0
   -4.0544    0.2698   -1.6670 H   0  0  0  0  0  0  0  0  0  0  0  0
   -2.7359    2.2203   -2.4343 H   0  0  0  0  0  0  0  0  0  0  0  0
   -0.4957    2.6983   -1.4984 H   0  0  0  0  0  0  0  0  0  0  0  0
    0.4366    1.2379    0.2838 H   0  0  0  0  0  0  0  0  0  0  0  0
   -2.7660    3.3075    1.0140 B   0  0  0  0  0  0  0  0  0  0  0  0
   -3.4113    4.1828    1.8610 F   0  0  0  0  0  0  0  0  0  0  0  0
   -1.4430    3.7218    0.7460 F   0  0  0  0  0  0  0  0  0  0  0  0
   -2.7158    1.9983    1.5664 F   0  0  0  0  0  0  0  0  0  0  0  0
   -3.4665    3.2278   -0.2311 F   0  0  0  0  0  0  0  0  0  0  0  0
  1  2  1  0  0  0  0
  2  3  1  0  0  0  0
  4  9  1  0  0  0  0
  4  1  2  0  0  0  0
  5  4  1  0  0  0  0
  6  5  2  0  0  0  0
  6  7  1  0  0  0  0
  7  8  2  0  0  0  0
  8  1  1  0  0  0  0
  8 13  1  0  0  0  0
 10  5  1  0  0  0  0
 11  6  1  0  0  0  0
 12  7  1  0  0  0  0
 14 17  1  0  0  0  0
 14 15  1  0  0  0  0
 16 14  1  0  0  0  0
 18 14  1  0  0  0  0
M  RAD  2   2   2   3   3
M  END
