Coordinates from ORCA-job PhN2+~BF4-_B3LYPG-6-31G_dp-NX-Scan-d89-09-n800
 OpenBabel11261920563D

 18 17  0  0  0  0  0  0  0  0999 V2000
   -1.2927   -0.0881    0.2548 C   0  0  0  0  0  0  0  0  0  0  0  0
   -0.8106   -0.8730    1.2439 N   0  0  0  0  0  0  0  0  0  0  0  0
   -0.4064   -1.5353    2.0556 N   0  0  0  0  0  0  0  0  0  0  0  0
   -2.5778   -0.3808   -0.2653 C   0  0  0  0  0  0  0  0  0  0  0  0
   -3.0678    0.4563   -1.2407 C   0  0  0  0  0  0  0  0  0  0  0  0
   -2.3172    1.5686   -1.6623 C   0  0  0  0  0  0  0  0  0  0  0  0
   -1.0311    1.8172   -1.1596 C   0  0  0  0  0  0  0  0  0  0  0  0
   -0.5086    1.0081   -0.1746 C   0  0  0  0  0  0  0  0  0  0  0  0
   -3.1423   -1.2251    0.1129 H   0  0  0  0  0  0  0  0  0  0  0  0
   -4.0573    0.2868   -1.6482 H   0  0  0  0  0  0  0  0  0  0  0  0
   -2.7314    2.2351   -2.4075 H   0  0  0  0  0  0  0  0  0  0  0  0
   -0.4870    2.6977   -1.4730 H   0  0  0  0  0  0  0  0  0  0  0  0
    0.4499    1.2118    0.2865 H   0  0  0  0  0  0  0  0  0  0  0  0
   -2.7794    3.3267    0.9945 B   0  0  0  0  0  0  0  0  0  0  0  0
   -3.4376    4.1958    1.8378 F   0  0  0  0  0  0  0  0  0  0  0  0
   -1.4730    3.7719    0.7009 F   0  0  0  0  0  0  0  0  0  0  0  0
   -2.6887    2.0263    1.5610 F   0  0  0  0  0  0  0  0  0  0  0  0
   -3.4950    3.2131   -0.2416 F   0  0  0  0  0  0  0  0  0  0  0  0
  1  2  1  0  0  0  0
  2  3  1  0  0  0  0
  4  9  1  0  0  0  0
  4  1  2  0  0  0  0
  5  4  1  0  0  0  0
  6  5  2  0  0  0  0
  6  7  1  0  0  0  0
  7  8  2  0  0  0  0
  8  1  1  0  0  0  0
  8 13  1  0  0  0  0
 10  5  1  0  0  0  0
 11  6  1  0  0  0  0
 12  7  1  0  0  0  0
 14 17  1  0  0  0  0
 14 15  1  0  0  0  0
 16 14  1  0  0  0  0
 18 14  1  0  0  0  0
M  RAD  2   2   2   3   3
M  END
