Coordinates from ORCA-job PhN2+~BF4-_B3LYPG-6-31G_dp-NX-Scan-d89-09-n800
 OpenBabel11261920563D

 18 17  0  0  0  0  0  0  0  0999 V2000
   -1.9888    0.4784   -0.0104 C   0  0  0  0  0  0  0  0  0  0  0  0
   -1.7747    0.2947    1.3456 N   0  0  0  0  0  0  0  0  0  0  0  0
   -1.5505    0.2249    2.4342 N   0  0  0  0  0  0  0  0  0  0  0  0
   -2.3413   -0.6602   -0.7571 C   0  0  0  0  0  0  0  0  0  0  0  0
   -2.5306   -0.5019   -2.1216 C   0  0  0  0  0  0  0  0  0  0  0  0
   -2.3654    0.7615   -2.7054 C   0  0  0  0  0  0  0  0  0  0  0  0
   -2.0138    1.8723   -1.9334 C   0  0  0  0  0  0  0  0  0  0  0  0
   -1.8188    1.7612   -0.5591 C   0  0  0  0  0  0  0  0  0  0  0  0
   -2.4599   -1.6222   -0.2709 H   0  0  0  0  0  0  0  0  0  0  0  0
   -2.8059   -1.3567   -2.7293 H   0  0  0  0  0  0  0  0  0  0  0  0
   -2.5160    0.8782   -3.7744 H   0  0  0  0  0  0  0  0  0  0  0  0
   -1.8937    2.8444   -2.3998 H   0  0  0  0  0  0  0  0  0  0  0  0
   -1.5623    2.6203    0.0611 H   0  0  0  0  0  0  0  0  0  0  0  0
   -1.6538    3.2569    2.4669 B   0  0  0  0  0  0  0  0  0  0  0  0
   -1.8955    4.0282    3.5687 F   0  0  0  0  0  0  0  0  0  0  0  0
   -0.6144    2.3062    2.7263 F   0  0  0  0  0  0  0  0  0  0  0  0
   -2.8101    2.5126    2.0938 F   0  0  0  0  0  0  0  0  0  0  0  0
   -1.2583    4.0144    1.3397 F   0  0  0  0  0  0  0  0  0  0  0  0
  1  2  1  0  0  0  0
  2  3  1  0  0  0  0
  4  9  1  0  0  0  0
  4  1  2  0  0  0  0
  5  4  1  0  0  0  0
  6  5  2  0  0  0  0
  6  7  1  0  0  0  0
  7  8  2  0  0  0  0
  8  1  1  0  0  0  0
  8 13  1  0  0  0  0
 10  5  1  0  0  0  0
 11  6  1  0  0  0  0
 12  7  1  0  0  0  0
 14 16  1  0  0  0  0
 14 15  1  0  0  0  0
 17 14  1  0  0  0  0
 18 14  1  0  0  0  0
M  RAD  2   2   2   3   3
M  END
