Coordinates from ORCA-job PhN2+~BF4-_B3LYPG-6-31G_dp-NX-Scan-d89-09-n800
 OpenBabel11261920563D

 18 17  0  0  0  0  0  0  0  0999 V2000
   -1.3457    0.0414    0.2537 C   0  0  0  0  0  0  0  0  0  0  0  0
   -0.8749   -0.6426    1.3244 N   0  0  0  0  0  0  0  0  0  0  0  0
   -0.4779   -1.2321    2.1914 N   0  0  0  0  0  0  0  0  0  0  0  0
   -2.5860   -0.3613   -0.2965 C   0  0  0  0  0  0  0  0  0  0  0  0
   -3.0642    0.3641   -1.3650 C   0  0  0  0  0  0  0  0  0  0  0  0
   -2.3389    1.4663   -1.8487 C   0  0  0  0  0  0  0  0  0  0  0  0
   -1.1038    1.8279   -1.3055 C   0  0  0  0  0  0  0  0  0  0  0  0
   -0.5950    1.1393   -0.2213 C   0  0  0  0  0  0  0  0  0  0  0  0
   -3.1304   -1.1948    0.1305 H   0  0  0  0  0  0  0  0  0  0  0  0
   -4.0222    0.1084   -1.8023 H   0  0  0  0  0  0  0  0  0  0  0  0
   -2.7533    2.0577   -2.6571 H   0  0  0  0  0  0  0  0  0  0  0  0
   -0.5865    2.7083   -1.6639 H   0  0  0  0  0  0  0  0  0  0  0  0
    0.3152    1.4436    0.2765 H   0  0  0  0  0  0  0  0  0  0  0  0
   -2.6725    3.2167    1.1678 B   0  0  0  0  0  0  0  0  0  0  0  0
   -3.2221    4.1530    2.0200 F   0  0  0  0  0  0  0  0  0  0  0  0
   -1.2545    3.3442    1.1210 F   0  0  0  0  0  0  0  0  0  0  0  0
   -2.9615    1.8913    1.5963 F   0  0  0  0  0  0  0  0  0  0  0  0
   -3.1797    3.3818   -0.1461 F   0  0  0  0  0  0  0  0  0  0  0  0
  1  2  1  0  0  0  0
  2  3  1  0  0  0  0
  4  9  1  0  0  0  0
  4  1  2  0  0  0  0
  5  4  1  0  0  0  0
  6  5  2  0  0  0  0
  6  7  1  0  0  0  0
  7  8  2  0  0  0  0
  8  1  1  0  0  0  0
  8 13  1  0  0  0  0
 10  5  1  0  0  0  0
 11  6  1  0  0  0  0
 12  7  1  0  0  0  0
 14 17  1  0  0  0  0
 14 15  1  0  0  0  0
 16 14  1  0  0  0  0
 18 14  1  0  0  0  0
M  RAD  2   2   2   3   3
M  END
