Coordinates from ORCA-job PhN2+~BF4-_B3LYPG-6-31G_dp-NX-Scan-d89-09-n800
 OpenBabel11261920573D

 18 17  0  0  0  0  0  0  0  0999 V2000
   -1.8895    0.5708    0.0151 C   0  0  0  0  0  0  0  0  0  0  0  0
   -1.6682    0.4744    1.3829 N   0  0  0  0  0  0  0  0  0  0  0  0
   -1.4804    0.2410    2.4535 N   0  0  0  0  0  0  0  0  0  0  0  0
   -2.4799   -0.5482   -0.5983 C   0  0  0  0  0  0  0  0  0  0  0  0
   -2.6886   -0.4872   -1.9687 C   0  0  0  0  0  0  0  0  0  0  0  0
   -2.3071    0.6553   -2.6848 C   0  0  0  0  0  0  0  0  0  0  0  0
   -1.7156    1.7468   -2.0412 C   0  0  0  0  0  0  0  0  0  0  0  0
   -1.4994    1.7313   -0.6676 C   0  0  0  0  0  0  0  0  0  0  0  0
   -2.7664   -1.4152   -0.0137 H   0  0  0  0  0  0  0  0  0  0  0  0
   -3.1483   -1.3272   -2.4781 H   0  0  0  0  0  0  0  0  0  0  0  0
   -2.4771    0.6925   -3.7565 H   0  0  0  0  0  0  0  0  0  0  0  0
   -1.4285    2.6248   -2.6096 H   0  0  0  0  0  0  0  0  0  0  0  0
   -1.0554    2.5450   -0.1016 H   0  0  0  0  0  0  0  0  0  0  0  0
   -1.8603    3.2806    2.3964 B   0  0  0  0  0  0  0  0  0  0  0  0
   -1.8177    2.6636    3.6485 F   0  0  0  0  0  0  0  0  0  0  0  0
   -0.6249    2.9836    1.7167 F   0  0  0  0  0  0  0  0  0  0  0  0
   -2.8827    2.6466    1.6187 F   0  0  0  0  0  0  0  0  0  0  0  0
   -2.0639    4.6347    2.4635 F   0  0  0  0  0  0  0  0  0  0  0  0
  1  2  1  0  0  0  0
  2  3  1  0  0  0  0
  4  9  1  0  0  0  0
  4  1  1  0  0  0  0
  5  4  2  0  0  0  0
  6  7  2  0  0  0  0
  6  5  1  0  0  0  0
  7  8  1  0  0  0  0
  8 13  1  0  0  0  0
  8  1  2  0  0  0  0
 10  5  1  0  0  0  0
 11  6  1  0  0  0  0
 12  7  1  0  0  0  0
 14 18  1  0  0  0  0
 14 15  1  0  0  0  0
 16 14  1  0  0  0  0
 17 14  1  0  0  0  0
M  RAD  2   2   2   3   3
M  END
