Coordinates from ORCA-job PhN2+~BF4-_B3LYPG-6-31G_dp-NX-Scan-d89-09-n800
 OpenBabel11261920573D

 18 17  0  0  0  0  0  0  0  0999 V2000
   -1.8522    0.5519    0.0215 C   0  0  0  0  0  0  0  0  0  0  0  0
   -1.6048    0.4213    1.3812 N   0  0  0  0  0  0  0  0  0  0  0  0
   -1.3924    0.1520    2.4377 N   0  0  0  0  0  0  0  0  0  0  0  0
   -2.4607   -0.5502   -0.6043 C   0  0  0  0  0  0  0  0  0  0  0  0
   -2.7006   -0.4561   -1.9678 C   0  0  0  0  0  0  0  0  0  0  0  0
   -2.3348    0.7030   -2.6646 C   0  0  0  0  0  0  0  0  0  0  0  0
   -1.7246    1.7775   -2.0093 C   0  0  0  0  0  0  0  0  0  0  0  0
   -1.4747    1.7275   -0.6428 C   0  0  0  0  0  0  0  0  0  0  0  0
   -2.7365   -1.4300   -0.0340 H   0  0  0  0  0  0  0  0  0  0  0  0
   -3.1738   -1.2830   -2.4861 H   0  0  0  0  0  0  0  0  0  0  0  0
   -2.5320    0.7674   -3.7302 H   0  0  0  0  0  0  0  0  0  0  0  0
   -1.4510    2.6695   -2.5623 H   0  0  0  0  0  0  0  0  0  0  0  0
   -1.0136    2.5240   -0.0679 H   0  0  0  0  0  0  0  0  0  0  0  0
   -1.8938    3.2679    2.3708 B   0  0  0  0  0  0  0  0  0  0  0  0
   -1.9429    2.9368    3.7150 F   0  0  0  0  0  0  0  0  0  0  0  0
   -0.6363    2.7930    1.8279 F   0  0  0  0  0  0  0  0  0  0  0  0
   -2.9009    2.5274    1.6665 F   0  0  0  0  0  0  0  0  0  0  0  0
   -2.0280    4.6133    2.1238 F   0  0  0  0  0  0  0  0  0  0  0  0
  1  2  1  0  0  0  0
  2  3  1  0  0  0  0
  4  9  1  0  0  0  0
  4  1  1  0  0  0  0
  5  4  2  0  0  0  0
  6  7  2  0  0  0  0
  6  5  1  0  0  0  0
  7  8  1  0  0  0  0
  8 13  1  0  0  0  0
  8  1  2  0  0  0  0
 10  5  1  0  0  0  0
 11  6  1  0  0  0  0
 12  7  1  0  0  0  0
 14 15  1  0  0  0  0
 16 14  1  0  0  0  0
 17 14  1  0  0  0  0
 18 14  1  0  0  0  0
M  RAD  2   2   2   3   3
M  END
