Coordinates from ORCA-job PhN2+~BF4-_B3LYPG-6-31G_dp-NX-Scan-d89-09-n800
 OpenBabel11261920573D

 18 17  0  0  0  0  0  0  0  0999 V2000
   -2.1799    0.3600    0.0179 C   0  0  0  0  0  0  0  0  0  0  0  0
   -2.3644    0.1694    1.4066 N   0  0  0  0  0  0  0  0  0  0  0  0
   -1.9992    0.7771    2.3768 N   0  0  0  0  0  0  0  0  0  0  0  0
   -2.5764   -0.7476   -0.7504 C   0  0  0  0  0  0  0  0  0  0  0  0
   -2.4678   -0.7120   -2.1364 C   0  0  0  0  0  0  0  0  0  0  0  0
   -1.9868    0.4404   -2.7624 C   0  0  0  0  0  0  0  0  0  0  0  0
   -1.6150    1.5508   -1.9991 C   0  0  0  0  0  0  0  0  0  0  0  0
   -1.6984    1.5262   -0.6092 C   0  0  0  0  0  0  0  0  0  0  0  0
   -2.9605   -1.6220   -0.2364 H   0  0  0  0  0  0  0  0  0  0  0  0
   -2.7656   -1.5737   -2.7254 H   0  0  0  0  0  0  0  0  0  0  0  0
   -1.9067    0.4771   -3.8450 H   0  0  0  0  0  0  0  0  0  0  0  0
   -1.2516    2.4488   -2.4892 H   0  0  0  0  0  0  0  0  0  0  0  0
   -1.4154    2.3908   -0.0297 H   0  0  0  0  0  0  0  0  0  0  0  0
   -1.8569    4.0205    2.6183 B   0  0  0  0  0  0  0  0  0  0  0  0
   -1.1746    1.9412    2.0627 F   0  0  0  0  0  0  0  0  0  0  0  0
   -1.5149    4.4554    1.4092 F   0  0  0  0  0  0  0  0  0  0  0  0
   -3.1069    3.6505    2.8428 F   0  0  0  0  0  0  0  0  0  0  0  0
   -1.0130    4.1605    3.6237 F   0  0  0  0  0  0  0  0  0  0  0  0
  1  2  1  0  0  0  0
  2  3  1  0  0  0  0
  4  9  1  0  0  0  0
  4  1  2  0  0  0  0
  5  4  1  0  0  0  0
  6  5  2  0  0  0  0
  6  7  1  0  0  0  0
  7  8  2  0  0  0  0
  8 13  1  0  0  0  0
  8  1  1  0  0  0  0
 10  5  1  0  0  0  0
 11  6  1  0  0  0  0
 12  7  1  0  0  0  0
 14 17  1  0  0  0  0
 14 18  1  0  0  0  0
 15  3  1  0  0  0  0
 16 14  1  0  0  0  0
M  RAD  2   2   2   3   2
M  END
