Coordinates from ORCA-job PhN2+~BF4-_B3LYPG-6-31G_dp-NX-Scan-d89-09-n800
 OpenBabel11261920563D

 18 17  0  0  0  0  0  0  0  0999 V2000
   -1.2337   -0.5989    0.1493 C   0  0  0  0  0  0  0  0  0  0  0  0
   -0.7948   -1.6707    0.8406 N   0  0  0  0  0  0  0  0  0  0  0  0
   -0.4274   -2.5479    1.4395 N   0  0  0  0  0  0  0  0  0  0  0  0
   -2.4702   -0.7001   -0.5413 C   0  0  0  0  0  0  0  0  0  0  0  0
   -2.9436    0.4351   -1.1591 C   0  0  0  0  0  0  0  0  0  0  0  0
   -2.2321    1.6484   -1.0635 C   0  0  0  0  0  0  0  0  0  0  0  0
   -0.9736    1.7075   -0.4225 C   0  0  0  0  0  0  0  0  0  0  0  0
   -0.4621    0.5957    0.1988 C   0  0  0  0  0  0  0  0  0  0  0  0
   -3.0119   -1.6394   -0.5557 H   0  0  0  0  0  0  0  0  0  0  0  0
   -3.8947    0.4088   -1.6782 H   0  0  0  0  0  0  0  0  0  0  0  0
   -2.6349    2.5560   -1.5016 H   0  0  0  0  0  0  0  0  0  0  0  0
   -0.4870    2.6710   -0.3336 H   0  0  0  0  0  0  0  0  0  0  0  0
    0.4742    0.6162    0.7446 H   0  0  0  0  0  0  0  0  0  0  0  0
   -2.9605    4.0831    0.5448 B   0  0  0  0  0  0  0  0  0  0  0  0
   -3.6577    4.8681    1.4286 F   0  0  0  0  0  0  0  0  0  0  0  0
   -3.3097    4.3440   -0.7997 F   0  0  0  0  0  0  0  0  0  0  0  0
   -1.5646    4.2414    0.6896 F   0  0  0  0  0  0  0  0  0  0  0  0
   -3.2696    2.6950    0.7947 F   0  0  0  0  0  0  0  0  0  0  0  0
  1  8  1  0  0  0  0
  1  2  1  0  0  0  0
  2  3  1  0  0  0  0
  4  1  2  0  0  0  0
  5  6  2  0  0  0  0
  5  4  1  0  0  0  0
  6  7  1  0  0  0  0
  7 12  1  0  0  0  0
  7  8  2  0  0  0  0
  8 13  1  0  0  0  0
  9  4  1  0  0  0  0
 10  5  1  0  0  0  0
 11  6  1  0  0  0  0
 14 17  1  0  0  0  0
 14 18  1  0  0  0  0
 14 15  1  0  0  0  0
 16 14  1  0  0  0  0
M  RAD  2   2   2   3   3
M  END
