Coordinates from ORCA-job PhN2+~BF4-_B3LYPG-6-31G_dp-NX-Scan-d89-09-n800
 OpenBabel11261920563D

 18 17  0  0  0  0  0  0  0  0999 V2000
   -1.3823    0.1326    0.2537 C   0  0  0  0  0  0  0  0  0  0  0  0
   -0.9241   -0.5179    1.3537 N   0  0  0  0  0  0  0  0  0  0  0  0
   -0.5341   -1.0950    2.2309 N   0  0  0  0  0  0  0  0  0  0  0  0
   -2.6131   -0.2928   -0.2986 C   0  0  0  0  0  0  0  0  0  0  0  0
   -3.0567    0.3638   -1.4253 C   0  0  0  0  0  0  0  0  0  0  0  0
   -2.3037    1.4202   -1.9654 C   0  0  0  0  0  0  0  0  0  0  0  0
   -1.0902    1.8185   -1.4044 C   0  0  0  0  0  0  0  0  0  0  0  0
   -0.6131    1.1963   -0.2633 C   0  0  0  0  0  0  0  0  0  0  0  0
   -3.1768   -1.0907    0.1692 H   0  0  0  0  0  0  0  0  0  0  0  0
   -4.0042    0.0854   -1.8713 H   0  0  0  0  0  0  0  0  0  0  0  0
   -2.6860    1.9517   -2.8300 H   0  0  0  0  0  0  0  0  0  0  0  0
   -0.5503    2.6645   -1.8109 H   0  0  0  0  0  0  0  0  0  0  0  0
    0.2897    1.5184    0.2351 H   0  0  0  0  0  0  0  0  0  0  0  0
   -2.6606    3.1327    1.2932 B   0  0  0  0  0  0  0  0  0  0  0  0
   -3.1693    4.1222    2.1114 F   0  0  0  0  0  0  0  0  0  0  0  0
   -1.2338    3.2107    1.2347 F   0  0  0  0  0  0  0  0  0  0  0  0
   -2.9786    1.8330    1.7804 F   0  0  0  0  0  0  0  0  0  0  0  0
   -3.1667    3.2596   -0.0184 F   0  0  0  0  0  0  0  0  0  0  0  0
  1  2  1  0  0  0  0
  2  3  1  0  0  0  0
  4  9  1  0  0  0  0
  4  1  2  0  0  0  0
  5  4  1  0  0  0  0
  6  5  2  0  0  0  0
  6  7  1  0  0  0  0
  7  8  2  0  0  0  0
  8 13  1  0  0  0  0
  8  1  1  0  0  0  0
 10  5  1  0  0  0  0
 11  6  1  0  0  0  0
 12  7  1  0  0  0  0
 14 17  1  0  0  0  0
 14 15  1  0  0  0  0
 16 14  1  0  0  0  0
 18 14  1  0  0  0  0
M  RAD  2   2   2   3   3
M  END
