Coordinates from ORCA-job PhN2+~BF4-_B3LYPG-6-31G_dp-NX-Scan-d89-09-n800
 OpenBabel11261920563D

 18 17  0  0  0  0  0  0  0  0999 V2000
   -1.3534    0.0576    0.2525 C   0  0  0  0  0  0  0  0  0  0  0  0
   -0.8883   -0.6122    1.3350 N   0  0  0  0  0  0  0  0  0  0  0  0
   -0.4962   -1.1904    2.2114 N   0  0  0  0  0  0  0  0  0  0  0  0
   -2.5893   -0.3543   -0.3003 C   0  0  0  0  0  0  0  0  0  0  0  0
   -3.0625    0.3573   -1.3804 C   0  0  0  0  0  0  0  0  0  0  0  0
   -2.3362    1.4550   -1.8726 C   0  0  0  0  0  0  0  0  0  0  0  0
   -1.1071    1.8274   -1.3246 C   0  0  0  0  0  0  0  0  0  0  0  0
   -0.6023    1.1516   -0.2296 C   0  0  0  0  0  0  0  0  0  0  0  0
   -3.1349   -1.1834    0.1338 H   0  0  0  0  0  0  0  0  0  0  0  0
   -4.0169    0.0939   -1.8209 H   0  0  0  0  0  0  0  0  0  0  0  0
   -2.7471    2.0361   -2.6904 H   0  0  0  0  0  0  0  0  0  0  0  0
   -0.5888    2.7043   -1.6905 H   0  0  0  0  0  0  0  0  0  0  0  0
    0.3043    1.4630    0.2700 H   0  0  0  0  0  0  0  0  0  0  0  0
   -2.6625    3.2015    1.1912 B   0  0  0  0  0  0  0  0  0  0  0  0
   -3.2020    4.1359    2.0520 F   0  0  0  0  0  0  0  0  0  0  0  0
   -1.2416    3.3122    1.1501 F   0  0  0  0  0  0  0  0  0  0  0  0
   -2.9662    1.8751    1.6091 F   0  0  0  0  0  0  0  0  0  0  0  0
   -3.1630    3.3828   -0.1210 F   0  0  0  0  0  0  0  0  0  0  0  0
  1  2  1  0  0  0  0
  2  3  1  0  0  0  0
  4  9  1  0  0  0  0
  4  1  2  0  0  0  0
  5  4  1  0  0  0  0
  6  5  2  0  0  0  0
  6  7  1  0  0  0  0
  7  8  2  0  0  0  0
  8  1  1  0  0  0  0
  8 13  1  0  0  0  0
 10  5  1  0  0  0  0
 11  6  1  0  0  0  0
 12  7  1  0  0  0  0
 14 17  1  0  0  0  0
 14 15  1  0  0  0  0
 16 14  1  0  0  0  0
 18 14  1  0  0  0  0
M  RAD  2   2   2   3   3
M  END
