Coordinates from ORCA-job PhN2+~BF4-_B3LYPG-6-31G_dp-NX-Scan-d89-09-n800
 OpenBabel11261920573D

 18 17  0  0  0  0  0  0  0  0999 V2000
   -1.8305    0.5272    0.0344 C   0  0  0  0  0  0  0  0  0  0  0  0
   -1.5591    0.3513    1.3841 N   0  0  0  0  0  0  0  0  0  0  0  0
   -1.3215    0.0603    2.4288 N   0  0  0  0  0  0  0  0  0  0  0  0
   -2.4567   -0.5503   -0.6159 C   0  0  0  0  0  0  0  0  0  0  0  0
   -2.7147   -0.4136   -1.9725 C   0  0  0  0  0  0  0  0  0  0  0  0
   -2.3484    0.7626   -2.6396 C   0  0  0  0  0  0  0  0  0  0  0  0
   -1.7229    1.8131   -1.9603 C   0  0  0  0  0  0  0  0  0  0  0  0
   -1.4553    1.7204   -0.5996 C   0  0  0  0  0  0  0  0  0  0  0  0
   -2.7321   -1.4445   -0.0682 H   0  0  0  0  0  0  0  0  0  0  0  0
   -3.2026   -1.2204   -2.5085 H   0  0  0  0  0  0  0  0  0  0  0  0
   -2.5587    0.8602   -3.7001 H   0  0  0  0  0  0  0  0  0  0  0  0
   -1.4518    2.7205   -2.4888 H   0  0  0  0  0  0  0  0  0  0  0  0
   -0.9891    2.5023   -0.0096 H   0  0  0  0  0  0  0  0  0  0  0  0
   -1.9179    3.2470    2.3268 B   0  0  0  0  0  0  0  0  0  0  0  0
   -1.9784    3.3015    3.7008 F   0  0  0  0  0  0  0  0  0  0  0  0
   -0.6494    2.6616    1.9302 F   0  0  0  0  0  0  0  0  0  0  0  0
   -2.9145    2.3418    1.8287 F   0  0  0  0  0  0  0  0  0  0  0  0
   -2.0504    4.4720    1.7041 F   0  0  0  0  0  0  0  0  0  0  0  0
  1  2  1  0  0  0  0
  2  3  1  0  0  0  0
  4  9  1  0  0  0  0
  4  1  2  0  0  0  0
  5  4  1  0  0  0  0
  6  5  2  0  0  0  0
  6  7  1  0  0  0  0
  7  8  2  0  0  0  0
  8 13  1  0  0  0  0
  8  1  1  0  0  0  0
 10  5  1  0  0  0  0
 11  6  1  0  0  0  0
 12  7  1  0  0  0  0
 14 15  1  0  0  0  0
 16 14  1  0  0  0  0
 17 14  1  0  0  0  0
 18 14  1  0  0  0  0
M  RAD  2   2   2   3   3
M  END
