Coordinates from ORCA-job PhN2+~BF4-_B3LYPG-6-31G_dp-NX-Scan-d89-09-n800
 OpenBabel11261920563D

 18 17  0  0  0  0  0  0  0  0999 V2000
   -1.9850    0.4798   -0.0120 C   0  0  0  0  0  0  0  0  0  0  0  0
   -1.7663    0.2970    1.3435 N   0  0  0  0  0  0  0  0  0  0  0  0
   -1.5391    0.2228    2.4312 N   0  0  0  0  0  0  0  0  0  0  0  0
   -2.3418   -0.6588   -0.7566 C   0  0  0  0  0  0  0  0  0  0  0  0
   -2.5349   -0.5007   -2.1207 C   0  0  0  0  0  0  0  0  0  0  0  0
   -2.3687    0.7620   -2.7058 C   0  0  0  0  0  0  0  0  0  0  0  0
   -2.0128    1.8727   -1.9358 C   0  0  0  0  0  0  0  0  0  0  0  0
   -1.8143    1.7619   -0.5620 C   0  0  0  0  0  0  0  0  0  0  0  0
   -2.4610   -1.6203   -0.2696 H   0  0  0  0  0  0  0  0  0  0  0  0
   -2.8139   -1.3553   -2.7271 H   0  0  0  0  0  0  0  0  0  0  0  0
   -2.5221    0.8781   -3.7745 H   0  0  0  0  0  0  0  0  0  0  0  0
   -1.8920    2.8442   -2.4032 H   0  0  0  0  0  0  0  0  0  0  0  0
   -1.5550    2.6201    0.0588 H   0  0  0  0  0  0  0  0  0  0  0  0
   -1.6566    3.2547    2.4696 B   0  0  0  0  0  0  0  0  0  0  0  0
   -1.9120    4.0350    3.5621 F   0  0  0  0  0  0  0  0  0  0  0  0
   -0.6193    2.3082    2.7479 F   0  0  0  0  0  0  0  0  0  0  0  0
   -2.8087    2.5073    2.0888 F   0  0  0  0  0  0  0  0  0  0  0  0
   -1.2503    4.0048    1.3404 F   0  0  0  0  0  0  0  0  0  0  0  0
  1  2  1  0  0  0  0
  2  3  1  0  0  0  0
  4  9  1  0  0  0  0
  4  1  2  0  0  0  0
  5  4  1  0  0  0  0
  6  5  2  0  0  0  0
  6  7  1  0  0  0  0
  7  8  2  0  0  0  0
  8  1  1  0  0  0  0
  8 13  1  0  0  0  0
 10  5  1  0  0  0  0
 11  6  1  0  0  0  0
 12  7  1  0  0  0  0
 14 16  1  0  0  0  0
 14 15  1  0  0  0  0
 17 14  1  0  0  0  0
 18 14  1  0  0  0  0
M  RAD  2   2   2   3   3
M  END
