Coordinates from ORCA-job PhN2+~BF4-_B3LYPG-6-31G_dp-NX-Scan-d89-09-n800
 OpenBabel11261920563D

 18 17  0  0  0  0  0  0  0  0999 V2000
   -1.3341    0.0183    0.2535 C   0  0  0  0  0  0  0  0  0  0  0  0
   -0.8610   -0.6798    1.3132 N   0  0  0  0  0  0  0  0  0  0  0  0
   -0.4625   -1.2780    2.1738 N   0  0  0  0  0  0  0  0  0  0  0  0
   -2.5825   -0.3672   -0.2911 C   0  0  0  0  0  0  0  0  0  0  0  0
   -3.0667    0.3788   -1.3424 C   0  0  0  0  0  0  0  0  0  0  0  0
   -2.3401    1.4852   -1.8146 C   0  0  0  0  0  0  0  0  0  0  0  0
   -1.0936    1.8262   -1.2817 C   0  0  0  0  0  0  0  0  0  0  0  0
   -0.5796    1.1171   -0.2146 C   0  0  0  0  0  0  0  0  0  0  0  0
   -3.1283   -1.2040    0.1278 H   0  0  0  0  0  0  0  0  0  0  0  0
   -4.0313    0.1374   -1.7732 H   0  0  0  0  0  0  0  0  0  0  0  0
   -2.7590    2.0930   -2.6079 H   0  0  0  0  0  0  0  0  0  0  0  0
   -0.5741    2.7087   -1.6314 H   0  0  0  0  0  0  0  0  0  0  0  0
    0.3385    1.4071    0.2780 H   0  0  0  0  0  0  0  0  0  0  0  0
   -2.6885    3.2329    1.1344 B   0  0  0  0  0  0  0  0  0  0  0  0
   -3.2586    4.1587    1.9843 F   0  0  0  0  0  0  0  0  0  0  0  0
   -1.2786    3.4037    1.0666 F   0  0  0  0  0  0  0  0  0  0  0  0
   -2.9346    1.9035    1.5766 F   0  0  0  0  0  0  0  0  0  0  0  0
   -3.2193    3.3716   -0.1761 F   0  0  0  0  0  0  0  0  0  0  0  0
  1  2  1  0  0  0  0
  2  3  1  0  0  0  0
  4  9  1  0  0  0  0
  4  1  2  0  0  0  0
  5  4  1  0  0  0  0
  6  5  2  0  0  0  0
  6  7  1  0  0  0  0
  7  8  2  0  0  0  0
  8  1  1  0  0  0  0
  8 13  1  0  0  0  0
 10  5  1  0  0  0  0
 11  6  1  0  0  0  0
 12  7  1  0  0  0  0
 14 17  1  0  0  0  0
 14 15  1  0  0  0  0
 16 14  1  0  0  0  0
 18 14  1  0  0  0  0
M  RAD  2   2   2   3   3
M  END
