Coordinates from ORCA-job PhN2+~BF4-_B3LYPG-6-31G_dp-NX-Scan-d89-09-n800
 OpenBabel11261920563D

 18 17  0  0  0  0  0  0  0  0999 V2000
   -1.7617    0.0643    0.1472 C   0  0  0  0  0  0  0  0  0  0  0  0
   -1.4841   -0.4845    1.3717 N   0  0  0  0  0  0  0  0  0  0  0  0
   -1.2615   -0.9997    2.3368 N   0  0  0  0  0  0  0  0  0  0  0  0
   -2.4989   -0.7260   -0.7707 C   0  0  0  0  0  0  0  0  0  0  0  0
   -2.7699   -0.1606   -1.9994 C   0  0  0  0  0  0  0  0  0  0  0  0
   -2.3340    1.1494   -2.2911 C   0  0  0  0  0  0  0  0  0  0  0  0
   -1.6219    1.9012   -1.3617 C   0  0  0  0  0  0  0  0  0  0  0  0
   -1.3122    1.3675   -0.1135 C   0  0  0  0  0  0  0  0  0  0  0  0
   -2.8307   -1.7229   -0.5055 H   0  0  0  0  0  0  0  0  0  0  0  0
   -3.3300   -0.7252   -2.7368 H   0  0  0  0  0  0  0  0  0  0  0  0
   -2.5760    1.5801   -3.2577 H   0  0  0  0  0  0  0  0  0  0  0  0
   -1.3255    2.9251   -1.5542 H   0  0  0  0  0  0  0  0  0  0  0  0
   -0.7826    1.9535    0.6295 H   0  0  0  0  0  0  0  0  0  0  0  0
   -2.0108    3.5495    1.7993 B   0  0  0  0  0  0  0  0  0  0  0  0
   -2.3748    4.6002    2.6111 F   0  0  0  0  0  0  0  0  0  0  0  0
   -0.8806    3.8908    0.9969 F   0  0  0  0  0  0  0  0  0  0  0  0
   -1.6430    2.3844    2.5459 F   0  0  0  0  0  0  0  0  0  0  0  0
   -3.0557    3.1659    0.9273 F   0  0  0  0  0  0  0  0  0  0  0  0
  1  2  1  0  0  0  0
  2  3  1  0  0  0  0
  4  9  1  0  0  0  0
  4  1  2  0  0  0  0
  5  4  1  0  0  0  0
  6  5  2  0  0  0  0
  6  7  1  0  0  0  0
  7  8  2  0  0  0  0
  8  1  1  0  0  0  0
  8 13  1  0  0  0  0
 10  5  1  0  0  0  0
 11  6  1  0  0  0  0
 12  7  1  0  0  0  0
 14 17  1  0  0  0  0
 14 15  1  0  0  0  0
 16 14  1  0  0  0  0
 18 14  1  0  0  0  0
M  RAD  2   2   2   3   3
M  END
