Coordinates from ORCA-job PhN2+~BF4-_B3LYPG-6-31G_dp-NX-Scan-d89-09-n800
 OpenBabel11261920563D

 18 17  0  0  0  0  0  0  0  0999 V2000
   -1.2498   -0.2691    0.2427 C   0  0  0  0  0  0  0  0  0  0  0  0
   -0.7287   -1.1958    1.0797 N   0  0  0  0  0  0  0  0  0  0  0  0
   -0.2872   -1.9813    1.7512 N   0  0  0  0  0  0  0  0  0  0  0  0
   -2.5400   -0.5052   -0.3013 C   0  0  0  0  0  0  0  0  0  0  0  0
   -3.0450    0.4435   -1.1597 C   0  0  0  0  0  0  0  0  0  0  0  0
   -2.3031    1.6034   -1.4579 C   0  0  0  0  0  0  0  0  0  0  0  0
   -1.0174    1.8035   -0.9263 C   0  0  0  0  0  0  0  0  0  0  0  0
   -0.4810    0.8842   -0.0520 C   0  0  0  0  0  0  0  0  0  0  0  0
   -3.0923   -1.3986   -0.0334 H   0  0  0  0  0  0  0  0  0  0  0  0
   -4.0371    0.3188   -1.5764 H   0  0  0  0  0  0  0  0  0  0  0  0
   -2.7193    2.3457   -2.1241 H   0  0  0  0  0  0  0  0  0  0  0  0
   -0.4995    2.7316   -1.1214 H   0  0  0  0  0  0  0  0  0  0  0  0
    0.4867    1.0297    0.4128 H   0  0  0  0  0  0  0  0  0  0  0  0
   -2.8684    3.6014    0.8369 B   0  0  0  0  0  0  0  0  0  0  0  0
   -3.5377    4.5397    1.5938 F   0  0  0  0  0  0  0  0  0  0  0  0
   -1.7762    4.1809    0.1510 F   0  0  0  0  0  0  0  0  0  0  0  0
   -2.4002    2.5224    1.6169 F   0  0  0  0  0  0  0  0  0  0  0  0
   -3.7575    3.0583   -0.1574 F   0  0  0  0  0  0  0  0  0  0  0  0
  1  2  1  0  0  0  0
  2  3  1  0  0  0  0
  4  9  1  0  0  0  0
  4  1  2  0  0  0  0
  5  4  1  0  0  0  0
  6  5  2  0  0  0  0
  6  7  1  0  0  0  0
  7  8  2  0  0  0  0
  8  1  1  0  0  0  0
  8 13  1  0  0  0  0
 10  5  1  0  0  0  0
 11  6  1  0  0  0  0
 12  7  1  0  0  0  0
 14 15  1  0  0  0  0
 14 17  1  0  0  0  0
 16 14  1  0  0  0  0
 18 14  1  0  0  0  0
M  RAD  2   2   2   3   3
M  END
