Coordinates from ORCA-job PhN2+~BF4-_B3LYPG-6-31G_dp-NX-Scan-d89-09-n800
 OpenBabel11261920563D

 18 17  0  0  0  0  0  0  0  0999 V2000
   -1.2591   -0.3899    0.1883 C   0  0  0  0  0  0  0  0  0  0  0  0
   -0.7714   -1.3359    1.0221 N   0  0  0  0  0  0  0  0  0  0  0  0
   -0.3611   -2.1139    1.7203 N   0  0  0  0  0  0  0  0  0  0  0  0
   -2.4986   -0.6362   -0.4609 C   0  0  0  0  0  0  0  0  0  0  0  0
   -3.0130    0.3766   -1.2372 C   0  0  0  0  0  0  0  0  0  0  0  0
   -2.3321    1.6059   -1.3450 C   0  0  0  0  0  0  0  0  0  0  0  0
   -1.0763    1.8020   -0.7434 C   0  0  0  0  0  0  0  0  0  0  0  0
   -0.5302    0.8186    0.0487 C   0  0  0  0  0  0  0  0  0  0  0  0
   -3.0127   -1.5803   -0.3203 H   0  0  0  0  0  0  0  0  0  0  0  0
   -3.9725    0.2468   -1.7237 H   0  0  0  0  0  0  0  0  0  0  0  0
   -2.7645    2.4227   -1.9061 H   0  0  0  0  0  0  0  0  0  0  0  0
   -0.6157    2.7779   -0.8118 H   0  0  0  0  0  0  0  0  0  0  0  0
    0.3989    0.9631    0.5867 H   0  0  0  0  0  0  0  0  0  0  0  0
   -2.8121    3.7769    0.7758 B   0  0  0  0  0  0  0  0  0  0  0  0
   -3.4855    4.7319    1.5014 F   0  0  0  0  0  0  0  0  0  0  0  0
   -2.1630    4.3444   -0.3532 F   0  0  0  0  0  0  0  0  0  0  0  0
   -1.8500    3.1063    1.5582 F   0  0  0  0  0  0  0  0  0  0  0  0
   -3.7348    2.7963    0.2752 F   0  0  0  0  0  0  0  0  0  0  0  0
  1  2  1  0  0  0  0
  2  3  1  0  0  0  0
  4  9  1  0  0  0  0
  4  1  2  0  0  0  0
  5  4  1  0  0  0  0
  6  5  2  0  0  0  0
  6  7  1  0  0  0  0
  7  8  2  0  0  0  0
  8  1  1  0  0  0  0
  8 13  1  0  0  0  0
 10  5  1  0  0  0  0
 11  6  1  0  0  0  0
 12  7  1  0  0  0  0
 14 15  1  0  0  0  0
 14 17  1  0  0  0  0
 16 14  1  0  0  0  0
 18 14  1  0  0  0  0
M  RAD  2   2   2   3   3
M  END
