Coordinates from ORCA-job PhN2+~BF4-_B3LYPG-6-31G_dp-NX-Scan-d89-09-n800
 OpenBabel11261920563D

 18 17  0  0  0  0  0  0  0  0999 V2000
   -1.3530    0.0558    0.2552 C   0  0  0  0  0  0  0  0  0  0  0  0
   -0.8831   -0.6224    1.3304 N   0  0  0  0  0  0  0  0  0  0  0  0
   -0.4861   -1.2095    2.1989 N   0  0  0  0  0  0  0  0  0  0  0  0
   -2.5898   -0.3542   -0.2971 C   0  0  0  0  0  0  0  0  0  0  0  0
   -3.0631    0.3588   -1.3762 C   0  0  0  0  0  0  0  0  0  0  0  0
   -2.3355    1.4554   -1.8689 C   0  0  0  0  0  0  0  0  0  0  0  0
   -1.1063    1.8271   -1.3203 C   0  0  0  0  0  0  0  0  0  0  0  0
   -0.6023    1.1510   -0.2252 C   0  0  0  0  0  0  0  0  0  0  0  0
   -3.1356   -1.1836    0.1362 H   0  0  0  0  0  0  0  0  0  0  0  0
   -4.0179    0.0964   -1.8165 H   0  0  0  0  0  0  0  0  0  0  0  0
   -2.7451    2.0361   -2.6875 H   0  0  0  0  0  0  0  0  0  0  0  0
   -0.5871    2.7033   -1.6865 H   0  0  0  0  0  0  0  0  0  0  0  0
    0.3043    1.4620    0.2747 H   0  0  0  0  0  0  0  0  0  0  0  0
   -2.6659    3.2074    1.1866 B   0  0  0  0  0  0  0  0  0  0  0  0
   -3.2083    4.1424    2.0452 F   0  0  0  0  0  0  0  0  0  0  0  0
   -1.2455    3.3209    1.1459 F   0  0  0  0  0  0  0  0  0  0  0  0
   -2.9669    1.8809    1.6061 F   0  0  0  0  0  0  0  0  0  0  0  0
   -3.1665    3.3854   -0.1261 F   0  0  0  0  0  0  0  0  0  0  0  0
  1  2  1  0  0  0  0
  2  3  1  0  0  0  0
  4  9  1  0  0  0  0
  4  1  2  0  0  0  0
  5  4  1  0  0  0  0
  6  5  2  0  0  0  0
  6  7  1  0  0  0  0
  7  8  2  0  0  0  0
  8  1  1  0  0  0  0
  8 13  1  0  0  0  0
 10  5  1  0  0  0  0
 11  6  1  0  0  0  0
 12  7  1  0  0  0  0
 14 17  1  0  0  0  0
 14 15  1  0  0  0  0
 16 14  1  0  0  0  0
 18 14  1  0  0  0  0
M  RAD  2   2   2   3   3
M  END
