Coordinates from ORCA-job PhN2+~BF4-_B3LYPG-6-31G_dp-NX-Scan-d89-09-n800
 OpenBabel11261920573D

 18 17  0  0  0  0  0  0  0  0999 V2000
   -1.8415    0.5309    0.0295 C   0  0  0  0  0  0  0  0  0  0  0  0
   -1.5784    0.3665    1.3823 N   0  0  0  0  0  0  0  0  0  0  0  0
   -1.3481    0.0855    2.4314 N   0  0  0  0  0  0  0  0  0  0  0  0
   -2.4590   -0.5538   -0.6174 C   0  0  0  0  0  0  0  0  0  0  0  0
   -2.7080   -0.4275   -1.9767 C   0  0  0  0  0  0  0  0  0  0  0  0
   -2.3416    0.7453   -2.6496 C   0  0  0  0  0  0  0  0  0  0  0  0
   -1.7251    1.8032   -1.9734 C   0  0  0  0  0  0  0  0  0  0  0  0
   -1.4669    1.7212   -0.6102 C   0  0  0  0  0  0  0  0  0  0  0  0
   -2.7347   -1.4454   -0.0657 H   0  0  0  0  0  0  0  0  0  0  0  0
   -3.1887   -1.2402   -2.5104 H   0  0  0  0  0  0  0  0  0  0  0  0
   -2.5444    0.8344   -3.7124 H   0  0  0  0  0  0  0  0  0  0  0  0
   -1.4530    2.7075   -2.5067 H   0  0  0  0  0  0  0  0  0  0  0  0
   -1.0048    2.5070   -0.0217 H   0  0  0  0  0  0  0  0  0  0  0  0
   -1.9072    3.2573    2.3446 B   0  0  0  0  0  0  0  0  0  0  0  0
   -1.9494    3.2208    3.7214 F   0  0  0  0  0  0  0  0  0  0  0  0
   -0.6442    2.6973    1.8971 F   0  0  0  0  0  0  0  0  0  0  0  0
   -2.9097    2.3832    1.8050 F   0  0  0  0  0  0  0  0  0  0  0  0
   -2.0492    4.5199    1.8078 F   0  0  0  0  0  0  0  0  0  0  0  0
  1  2  1  0  0  0  0
  2  3  1  0  0  0  0
  4  9  1  0  0  0  0
  4  1  2  0  0  0  0
  5  4  1  0  0  0  0
  6  5  2  0  0  0  0
  6  7  1  0  0  0  0
  7  8  2  0  0  0  0
  8 13  1  0  0  0  0
  8  1  1  0  0  0  0
 10  5  1  0  0  0  0
 11  6  1  0  0  0  0
 12  7  1  0  0  0  0
 14 15  1  0  0  0  0
 16 14  1  0  0  0  0
 17 14  1  0  0  0  0
 18 14  1  0  0  0  0
M  RAD  2   2   2   3   3
M  END
