Coordinates from ORCA-job PhN2+~BF4-_B3LYPG-6-31G_dp-NX-Scan-d89-09-n800
 OpenBabel11261920563D

 18 17  0  0  0  0  0  0  0  0999 V2000
   -1.2236   -0.6408    0.1331 C   0  0  0  0  0  0  0  0  0  0  0  0
   -0.7414   -1.7294    0.7702 N   0  0  0  0  0  0  0  0  0  0  0  0
   -0.3348   -2.6198    1.3213 N   0  0  0  0  0  0  0  0  0  0  0  0
   -2.4470   -0.7604   -0.5748 C   0  0  0  0  0  0  0  0  0  0  0  0
   -2.9543    0.3819   -1.1560 C   0  0  0  0  0  0  0  0  0  0  0  0
   -2.2855    1.6129   -1.0135 C   0  0  0  0  0  0  0  0  0  0  0  0
   -1.0490    1.6972   -0.3340 C   0  0  0  0  0  0  0  0  0  0  0  0
   -0.5028    0.5807    0.2496 C   0  0  0  0  0  0  0  0  0  0  0  0
   -2.9519   -1.7181   -0.6359 H   0  0  0  0  0  0  0  0  0  0  0  0
   -3.8951    0.3383   -1.6930 H   0  0  0  0  0  0  0  0  0  0  0  0
   -2.7074    2.5232   -1.4296 H   0  0  0  0  0  0  0  0  0  0  0  0
   -0.6082    2.6786   -0.1966 H   0  0  0  0  0  0  0  0  0  0  0  0
    0.4223    0.6151    0.8135 H   0  0  0  0  0  0  0  0  0  0  0  0
   -2.9244    4.1848    0.5171 B   0  0  0  0  0  0  0  0  0  0  0  0
   -3.6062    5.0510    1.3346 F   0  0  0  0  0  0  0  0  0  0  0  0
   -3.2781    4.3453   -0.8446 F   0  0  0  0  0  0  0  0  0  0  0  0
   -1.5236    4.3446    0.6389 F   0  0  0  0  0  0  0  0  0  0  0  0
   -3.2428    2.8281    0.8746 F   0  0  0  0  0  0  0  0  0  0  0  0
  1  8  1  0  0  0  0
  1  2  1  0  0  0  0
  2  3  1  0  0  0  0
  4  1  2  0  0  0  0
  5  6  2  0  0  0  0
  5  4  1  0  0  0  0
  6  7  1  0  0  0  0
  7 12  1  0  0  0  0
  7  8  2  0  0  0  0
  8 13  1  0  0  0  0
  9  4  1  0  0  0  0
 10  5  1  0  0  0  0
 11  6  1  0  0  0  0
 14 17  1  0  0  0  0
 14 18  1  0  0  0  0
 14 15  1  0  0  0  0
 16 14  1  0  0  0  0
M  RAD  2   2   2   3   3
M  END
