Coordinates from ORCA-job PhN2+~BF4-_B3LYPG-6-31G_dp-NX-Scan-d89-09-n800
 OpenBabel11261920563D

 18 17  0  0  0  0  0  0  0  0999 V2000
   -1.2508   -0.5438    0.1603 C   0  0  0  0  0  0  0  0  0  0  0  0
   -0.8492   -1.5733    0.9329 N   0  0  0  0  0  0  0  0  0  0  0  0
   -0.5161   -2.4110    1.6040 N   0  0  0  0  0  0  0  0  0  0  0  0
   -2.4839   -0.6600   -0.5349 C   0  0  0  0  0  0  0  0  0  0  0  0
   -2.9371    0.4524   -1.2048 C   0  0  0  0  0  0  0  0  0  0  0  0
   -2.2117    1.6604   -1.1483 C   0  0  0  0  0  0  0  0  0  0  0  0
   -0.9439    1.7236   -0.5284 C   0  0  0  0  0  0  0  0  0  0  0  0
   -0.4531    0.6335    0.1459 C   0  0  0  0  0  0  0  0  0  0  0  0
   -3.0424   -1.5889   -0.5038 H   0  0  0  0  0  0  0  0  0  0  0  0
   -3.8893    0.4203   -1.7213 H   0  0  0  0  0  0  0  0  0  0  0  0
   -2.6139    2.5620   -1.5978 H   0  0  0  0  0  0  0  0  0  0  0  0
   -0.4324    2.6760   -0.4850 H   0  0  0  0  0  0  0  0  0  0  0  0
    0.4830    0.6634    0.6915 H   0  0  0  0  0  0  0  0  0  0  0  0
   -2.9499    3.9769    0.6074 B   0  0  0  0  0  0  0  0  0  0  0  0
   -3.6521    4.6962    1.5422 F   0  0  0  0  0  0  0  0  0  0  0  0
   -3.2682    4.3486   -0.7168 F   0  0  0  0  0  0  0  0  0  0  0  0
   -1.5558    4.0985    0.7929 F   0  0  0  0  0  0  0  0  0  0  0  0
   -3.2871    2.5784    0.7390 F   0  0  0  0  0  0  0  0  0  0  0  0
  1  2  1  0  0  0  0
  2  3  1  0  0  0  0
  4  9  1  0  0  0  0
  4  1  2  0  0  0  0
  5  6  2  0  0  0  0
  5  4  1  0  0  0  0
  6  7  1  0  0  0  0
  7 12  1  0  0  0  0
  7  8  2  0  0  0  0
  8  1  1  0  0  0  0
  8 13  1  0  0  0  0
 10  5  1  0  0  0  0
 11  6  1  0  0  0  0
 14 18  1  0  0  0  0
 14 17  1  0  0  0  0
 14 15  1  0  0  0  0
 16 14  1  0  0  0  0
M  RAD  2   2   2   3   3
M  END
