Coordinates from ORCA-job PhN2+~BF4-_B3LYPG-6-31G_dp-NX-Scan-d89-09-n800
 OpenBabel11261920573D

 18 17  0  0  0  0  0  0  0  0999 V2000
   -2.4114    0.3519   -0.0511 C   0  0  0  0  0  0  0  0  0  0  0  0
   -2.8184    0.1946    1.3143 N   0  0  0  0  0  0  0  0  0  0  0  0
   -2.2910    0.8544    2.2425 N   0  0  0  0  0  0  0  0  0  0  0  0
   -2.5241   -0.8199   -0.8157 C   0  0  0  0  0  0  0  0  0  0  0  0
   -2.2142   -0.8133   -2.1727 C   0  0  0  0  0  0  0  0  0  0  0  0
   -1.8267    0.3764   -2.7938 C   0  0  0  0  0  0  0  0  0  0  0  0
   -1.7493    1.5536   -2.0467 C   0  0  0  0  0  0  0  0  0  0  0  0
   -2.0279    1.5511   -0.6802 C   0  0  0  0  0  0  0  0  0  0  0  0
   -2.8563   -1.7256   -0.3191 H   0  0  0  0  0  0  0  0  0  0  0  0
   -2.2913   -1.7310   -2.7483 H   0  0  0  0  0  0  0  0  0  0  0  0
   -1.5954    0.3890   -3.8547 H   0  0  0  0  0  0  0  0  0  0  0  0
   -1.4628    2.4844   -2.5274 H   0  0  0  0  0  0  0  0  0  0  0  0
   -1.9647    2.4796   -0.1265 H   0  0  0  0  0  0  0  0  0  0  0  0
   -1.5873    4.2473    2.8491 B   0  0  0  0  0  0  0  0  0  0  0  0
   -1.4713    1.5698    1.9752 F   0  0  0  0  0  0  0  0  0  0  0  0
   -1.6044    4.3900    1.5334 F   0  0  0  0  0  0  0  0  0  0  0  0
   -2.6969    3.9437    3.4876 F   0  0  0  0  0  0  0  0  0  0  0  0
   -0.4605    4.4173    3.5091 F   0  0  0  0  0  0  0  0  0  0  0  0
  1  2  1  0  0  0  0
  2  3  2  0  0  0  0
  4  9  1  0  0  0  0
  4  1  2  0  0  0  0
  5  4  1  0  0  0  0
  6  5  2  0  0  0  0
  6  7  1  0  0  0  0
  7  8  2  0  0  0  0
  8 13  1  0  0  0  0
  8  1  1  0  0  0  0
 10  5  1  0  0  0  0
 11  6  1  0  0  0  0
 12  7  1  0  0  0  0
 14 17  1  0  0  0  0
 14 18  1  0  0  0  0
 15  3  1  0  0  0  0
 16 14  1  0  0  0  0
M  END
