Coordinates from ORCA-job PhN2+~BF4-_B3LYPG-6-31G_dp-NX-Scan-d89-09-n800
 OpenBabel11261920573D

 18 17  0  0  0  0  0  0  0  0999 V2000
   -1.8939    0.5725    0.0147 C   0  0  0  0  0  0  0  0  0  0  0  0
   -1.6772    0.4819    1.3836 N   0  0  0  0  0  0  0  0  0  0  0  0
   -1.4939    0.2604    2.4578 N   0  0  0  0  0  0  0  0  0  0  0  0
   -2.4793   -0.5498   -0.5973 C   0  0  0  0  0  0  0  0  0  0  0  0
   -2.6850   -0.4928   -1.9683 C   0  0  0  0  0  0  0  0  0  0  0  0
   -2.3050    0.6489   -2.6864 C   0  0  0  0  0  0  0  0  0  0  0  0
   -1.7176    1.7435   -2.0444 C   0  0  0  0  0  0  0  0  0  0  0  0
   -1.5047    1.7323   -0.6702 C   0  0  0  0  0  0  0  0  0  0  0  0
   -2.7645   -1.4161   -0.0111 H   0  0  0  0  0  0  0  0  0  0  0  0
   -3.1412   -1.3354   -2.4766 H   0  0  0  0  0  0  0  0  0  0  0  0
   -2.4729    0.6829   -3.7585 H   0  0  0  0  0  0  0  0  0  0  0  0
   -1.4314    2.6207   -2.6146 H   0  0  0  0  0  0  0  0  0  0  0  0
   -1.0636    2.5485   -0.1052 H   0  0  0  0  0  0  0  0  0  0  0  0
   -1.8546    3.2821    2.3971 B   0  0  0  0  0  0  0  0  0  0  0  0
   -1.8123    2.6190    3.6282 F   0  0  0  0  0  0  0  0  0  0  0  0
   -0.6214    3.0050    1.7086 F   0  0  0  0  0  0  0  0  0  0  0  0
   -2.8801    2.6769    1.6023 F   0  0  0  0  0  0  0  0  0  0  0  0
   -2.0553    4.6326    2.5153 F   0  0  0  0  0  0  0  0  0  0  0  0
  1  2  1  0  0  0  0
  2  3  1  0  0  0  0
  4  9  1  0  0  0  0
  4  1  1  0  0  0  0
  5  4  2  0  0  0  0
  6  7  2  0  0  0  0
  6  5  1  0  0  0  0
  7  8  1  0  0  0  0
  8 13  1  0  0  0  0
  8  1  2  0  0  0  0
 10  5  1  0  0  0  0
 11  6  1  0  0  0  0
 12  7  1  0  0  0  0
 14 18  1  0  0  0  0
 14 15  1  0  0  0  0
 16 14  1  0  0  0  0
 17 14  1  0  0  0  0
M  RAD  2   2   2   3   3
M  END
