Coordinates from ORCA-job PhN2+~BF4-_B3LYPG-6-31G_dp-NX-Scan-d89-09-n800
 OpenBabel11261920563D

 18 17  0  0  1  0  0  0  0  0999 V2000
   -1.1716   -0.7811    0.1546 C   0  0  0  0  0  0  0  0  0  0  0  0
   -0.6303   -1.9552    0.4033 N   0  0  0  0  0  0  0  0  0  0  0  0
   -0.1609   -2.9751    0.6182 N   0  0  0  0  0  0  0  0  0  0  0  0
   -2.5117   -0.7014   -0.3862 C   0  0  0  0  0  0  0  0  0  0  0  0
   -3.0428    0.4963   -0.7037 C   0  0  0  0  0  0  0  0  0  0  0  0
   -2.3143    1.7773   -0.5058 C   0  0  2  0  0  0  0  0  0  0  0  0
   -0.9481    1.6301    0.0645 C   0  0  0  0  0  0  0  0  0  0  0  0
   -0.4159    0.4333    0.3821 C   0  0  0  0  0  0  0  0  0  0  0  0
   -3.0645   -1.6214   -0.5479 H   0  0  0  0  0  0  0  0  0  0  0  0
   -4.0407    0.5558   -1.1248 H   0  0  0  0  0  0  0  0  0  0  0  0
   -2.3339    2.4117   -1.3961 H   0  0  0  0  0  0  0  0  0  0  0  0
   -0.3865    2.5437    0.2260 H   0  0  0  0  0  0  0  0  0  0  0  0
    0.5849    0.3553    0.7942 H   0  0  0  0  0  0  0  0  0  0  0  0
   -3.0825    4.6417    0.1102 B   0  0  0  0  0  0  0  0  0  0  0  0
   -4.0423    4.9595    0.9674 F   0  0  0  0  0  0  0  0  0  0  0  0
   -3.3727    4.5482   -1.1891 F   0  0  0  0  0  0  0  0  0  0  0  0
   -1.8057    4.7955    0.4622 F   0  0  0  0  0  0  0  0  0  0  0  0
   -3.1145    2.5990    0.4458 F   0  0  0  0  0  0  0  0  0  0  0  0
  1  8  1  0  0  0  0
  1  2  1  0  0  0  0
  2  3  1  0  0  0  0
  4  1  2  0  0  0  0
  5  6  1  0  0  0  0
  5  4  1  0  0  0  0
  6 11  1  6  0  0  0
  6  7  1  0  0  0  0
  6 18  1  0  0  0  0
  7 12  1  0  0  0  0
  7  8  2  0  0  0  0
  8 13  1  0  0  0  0
  9  4  1  0  0  0  0
 10  5  1  0  0  0  0
 14 17  1  0  0  0  0
 14 15  1  0  0  0  0
 16 14  1  0  0  0  0
M  RAD  3   2   2   3   3   5   2
M  END
