Coordinates from ORCA-job PhN2+~BF4-_B3LYPG-6-31G_dp-NX-Scan-d89-09-n800
 OpenBabel11261920573D

 18 17  0  0  0  0  0  0  0  0999 V2000
   -1.9873    0.5506    0.0211 C   0  0  0  0  0  0  0  0  0  0  0  0
   -1.8547    0.4881    1.4004 N   0  0  0  0  0  0  0  0  0  0  0  0
   -1.7413    0.4247    2.5115 N   0  0  0  0  0  0  0  0  0  0  0  0
   -2.4941   -0.5957   -0.6163 C   0  0  0  0  0  0  0  0  0  0  0  0
   -2.6294   -0.5583   -1.9966 C   0  0  0  0  0  0  0  0  0  0  0  0
   -2.2544    0.5918   -2.7038 C   0  0  0  0  0  0  0  0  0  0  0  0
   -1.7399    1.7100   -2.0412 C   0  0  0  0  0  0  0  0  0  0  0  0
   -1.5980    1.7163   -0.6567 C   0  0  0  0  0  0  0  0  0  0  0  0
   -2.7744   -1.4688   -0.0377 H   0  0  0  0  0  0  0  0  0  0  0  0
   -3.0247   -1.4214   -2.5212 H   0  0  0  0  0  0  0  0  0  0  0  0
   -2.3657    0.6126   -3.7838 H   0  0  0  0  0  0  0  0  0  0  0  0
   -1.4517    2.5916   -2.6037 H   0  0  0  0  0  0  0  0  0  0  0  0
   -1.2055    2.5583   -0.0928 H   0  0  0  0  0  0  0  0  0  0  0  0
   -1.7542    3.3485    2.3860 B   0  0  0  0  0  0  0  0  0  0  0  0
   -1.5337    2.3199    3.3713 F   0  0  0  0  0  0  0  0  0  0  0  0
   -0.6071    3.3785    1.5556 F   0  0  0  0  0  0  0  0  0  0  0  0
   -2.8455    2.9153    1.5955 F   0  0  0  0  0  0  0  0  0  0  0  0
   -1.9924    4.5513    2.9877 F   0  0  0  0  0  0  0  0  0  0  0  0
  1  2  1  0  0  0  0
  2  3  1  0  0  0  0
  4  9  1  0  0  0  0
  4  1  1  0  0  0  0
  5  4  2  0  0  0  0
  6  7  2  0  0  0  0
  6  5  1  0  0  0  0
  7  8  1  0  0  0  0
  8 13  1  0  0  0  0
  8  1  2  0  0  0  0
 10  5  1  0  0  0  0
 11  6  1  0  0  0  0
 12  7  1  0  0  0  0
 14 18  1  0  0  0  0
 14 15  1  0  0  0  0
 16 14  1  0  0  0  0
 17 14  1  0  0  0  0
M  RAD  2   2   2   3   3
M  END
