Coordinates from ORCA-job PhN2+~BF4-_B3LYPG-6-31G_dp-NX-Scan-d89-09-n800
 OpenBabel11261920563D

 18 17  0  0  0  0  0  0  0  0999 V2000
   -1.7317    0.3307    0.1064 C   0  0  0  0  0  0  0  0  0  0  0  0
   -1.3849   -0.0683    1.3790 N   0  0  0  0  0  0  0  0  0  0  0  0
   -1.0837   -0.5137    2.3540 N   0  0  0  0  0  0  0  0  0  0  0  0
   -2.5184   -0.5698   -0.6455 C   0  0  0  0  0  0  0  0  0  0  0  0
   -2.8304   -0.2035   -1.9412 C   0  0  0  0  0  0  0  0  0  0  0  0
   -2.3669    1.0204   -2.4564 C   0  0  0  0  0  0  0  0  0  0  0  0
   -1.5961    1.8869   -1.6837 C   0  0  0  0  0  0  0  0  0  0  0  0
   -1.2639    1.5650   -0.3695 C   0  0  0  0  0  0  0  0  0  0  0  0
   -2.8605   -1.5023   -0.2119 H   0  0  0  0  0  0  0  0  0  0  0  0
   -3.4356   -0.8625   -2.5542 H   0  0  0  0  0  0  0  0  0  0  0  0
   -2.6253    1.2970   -3.4737 H   0  0  0  0  0  0  0  0  0  0  0  0
   -1.2702    2.8398   -2.0839 H   0  0  0  0  0  0  0  0  0  0  0  0
   -0.6997    2.2287    0.2828 H   0  0  0  0  0  0  0  0  0  0  0  0
   -2.0533    3.2858    2.0366 B   0  0  0  0  0  0  0  0  0  0  0  0
   -2.4578    4.2309    2.9472 F   0  0  0  0  0  0  0  0  0  0  0  0
   -0.6384    3.3095    1.8474 F   0  0  0  0  0  0  0  0  0  0  0  0
   -2.3779    1.9577    2.4648 F   0  0  0  0  0  0  0  0  0  0  0  0
   -2.6591    3.4808    0.7766 F   0  0  0  0  0  0  0  0  0  0  0  0
  1  2  1  0  0  0  0
  2  3  1  0  0  0  0
  4  9  1  0  0  0  0
  4  1  2  0  0  0  0
  5  4  1  0  0  0  0
  6  5  2  0  0  0  0
  6  7  1  0  0  0  0
  7  8  2  0  0  0  0
  8  1  1  0  0  0  0
  8 13  1  0  0  0  0
 10  5  1  0  0  0  0
 11  6  1  0  0  0  0
 12  7  1  0  0  0  0
 14 17  1  0  0  0  0
 14 15  1  0  0  0  0
 16 14  1  0  0  0  0
 18 14  1  0  0  0  0
M  RAD  2   2   2   3   3
M  END
