Coordinates from ORCA-job PhN2+~BF4-_B3LYPG-6-31G_dp-NX-Scan-d89-09-n800
 OpenBabel11261920573D

 18 17  0  0  0  0  0  0  0  0999 V2000
   -1.8486    0.5469    0.0229 C   0  0  0  0  0  0  0  0  0  0  0  0
   -1.5965    0.4084    1.3808 N   0  0  0  0  0  0  0  0  0  0  0  0
   -1.3782    0.1333    2.4345 N   0  0  0  0  0  0  0  0  0  0  0  0
   -2.4607   -0.5509   -0.6069 C   0  0  0  0  0  0  0  0  0  0  0  0
   -2.7035   -0.4496   -1.9694 C   0  0  0  0  0  0  0  0  0  0  0  0
   -2.3370    0.7123   -2.6612 C   0  0  0  0  0  0  0  0  0  0  0  0
   -1.7238    1.7826   -2.0019 C   0  0  0  0  0  0  0  0  0  0  0  0
   -1.4711    1.7254   -0.6363 C   0  0  0  0  0  0  0  0  0  0  0  0
   -2.7368   -1.4330   -0.0403 H   0  0  0  0  0  0  0  0  0  0  0  0
   -3.1795   -1.2730   -2.4906 H   0  0  0  0  0  0  0  0  0  0  0  0
   -2.5364    0.7821   -3.7261 H   0  0  0  0  0  0  0  0  0  0  0  0
   -1.4501    2.6770   -2.5510 H   0  0  0  0  0  0  0  0  0  0  0  0
   -1.0083    2.5187   -0.0583 H   0  0  0  0  0  0  0  0  0  0  0  0
   -1.8985    3.2669    2.3661 B   0  0  0  0  0  0  0  0  0  0  0  0
   -1.9482    2.9989    3.7222 F   0  0  0  0  0  0  0  0  0  0  0  0
   -0.6392    2.7721    1.8434 F   0  0  0  0  0  0  0  0  0  0  0  0
   -2.9033    2.4952    1.6917 F   0  0  0  0  0  0  0  0  0  0  0  0
   -2.0343    4.5999    2.0557 F   0  0  0  0  0  0  0  0  0  0  0  0
  1  2  1  0  0  0  0
  2  3  1  0  0  0  0
  4  9  1  0  0  0  0
  4  1  1  0  0  0  0
  5  4  2  0  0  0  0
  6  7  2  0  0  0  0
  6  5  1  0  0  0  0
  7  8  1  0  0  0  0
  8 13  1  0  0  0  0
  8  1  2  0  0  0  0
 10  5  1  0  0  0  0
 11  6  1  0  0  0  0
 12  7  1  0  0  0  0
 14 15  1  0  0  0  0
 16 14  1  0  0  0  0
 17 14  1  0  0  0  0
 18 14  1  0  0  0  0
M  RAD  2   2   2   3   3
M  END
