Coordinates from ORCA-job PhN2+~BF4-_B3LYPG-6-31G_dp-NX-Scan-d89-09-n800
 OpenBabel11261920563D

 18 17  0  0  0  0  0  0  0  0999 V2000
   -1.2727   -0.1588    0.2620 C   0  0  0  0  0  0  0  0  0  0  0  0
   -0.7662   -1.0222    1.1708 N   0  0  0  0  0  0  0  0  0  0  0  0
   -0.3381   -1.7572    1.9050 N   0  0  0  0  0  0  0  0  0  0  0  0
   -2.5688   -0.4131   -0.2551 C   0  0  0  0  0  0  0  0  0  0  0  0
   -3.0612    0.4727   -1.1842 C   0  0  0  0  0  0  0  0  0  0  0  0
   -2.3026    1.5939   -1.5705 C   0  0  0  0  0  0  0  0  0  0  0  0
   -1.0114    1.8128   -1.0626 C   0  0  0  0  0  0  0  0  0  0  0  0
   -0.4859    0.9536   -0.1228 C   0  0  0  0  0  0  0  0  0  0  0  0
   -3.1351   -1.2723    0.0851 H   0  0  0  0  0  0  0  0  0  0  0  0
   -4.0568    0.3324   -1.5877 H   0  0  0  0  0  0  0  0  0  0  0  0
   -2.7101    2.2864   -2.2943 H   0  0  0  0  0  0  0  0  0  0  0  0
   -0.4650    2.7026   -1.3421 H   0  0  0  0  0  0  0  0  0  0  0  0
    0.4853    1.1193    0.3275 H   0  0  0  0  0  0  0  0  0  0  0  0
   -2.8352    3.4333    0.9167 B   0  0  0  0  0  0  0  0  0  0  0  0
   -3.5121    4.3189    1.7278 F   0  0  0  0  0  0  0  0  0  0  0  0
   -1.6073    3.9664    0.4725 F   0  0  0  0  0  0  0  0  0  0  0  0
   -2.5824    2.2027    1.5736 F   0  0  0  0  0  0  0  0  0  0  0  0
   -3.6284    3.1418   -0.2468 F   0  0  0  0  0  0  0  0  0  0  0  0
  1  2  1  0  0  0  0
  2  3  1  0  0  0  0
  4  9  1  0  0  0  0
  4  1  2  0  0  0  0
  5  4  1  0  0  0  0
  6  5  2  0  0  0  0
  6  7  1  0  0  0  0
  7  8  2  0  0  0  0
  8  1  1  0  0  0  0
  8 13  1  0  0  0  0
 10  5  1  0  0  0  0
 11  6  1  0  0  0  0
 12  7  1  0  0  0  0
 14 17  1  0  0  0  0
 14 15  1  0  0  0  0
 16 14  1  0  0  0  0
 18 14  1  0  0  0  0
M  RAD  2   2   2   3   3
M  END
