Coordinates from ORCA-job PhN2+~BF4-_B3LYPG-6-31G_dp-NX-Scan-d89-09-n800
 OpenBabel11261920563D

 18 17  0  0  0  0  0  0  0  0999 V2000
   -1.3827    0.1343    0.2526 C   0  0  0  0  0  0  0  0  0  0  0  0
   -0.9276   -0.5115    1.3566 N   0  0  0  0  0  0  0  0  0  0  0  0
   -0.5404   -1.0837    2.2382 N   0  0  0  0  0  0  0  0  0  0  0  0
   -2.6133   -0.2915   -0.2997 C   0  0  0  0  0  0  0  0  0  0  0  0
   -3.0564    0.3641   -1.4271 C   0  0  0  0  0  0  0  0  0  0  0  0
   -2.3032    1.4201   -1.9678 C   0  0  0  0  0  0  0  0  0  0  0  0
   -1.0893    1.8180   -1.4074 C   0  0  0  0  0  0  0  0  0  0  0  0
   -0.6126    1.1964   -0.2657 C   0  0  0  0  0  0  0  0  0  0  0  0
   -3.1777   -1.0884    0.1691 H   0  0  0  0  0  0  0  0  0  0  0  0
   -4.0040    0.0857   -1.8730 H   0  0  0  0  0  0  0  0  0  0  0  0
   -2.6855    1.9515   -2.8324 H   0  0  0  0  0  0  0  0  0  0  0  0
   -0.5490    2.6634   -1.8146 H   0  0  0  0  0  0  0  0  0  0  0  0
    0.2906    1.5184    0.2324 H   0  0  0  0  0  0  0  0  0  0  0  0
   -2.6594    3.1284    1.2955 B   0  0  0  0  0  0  0  0  0  0  0  0
   -3.1667    4.1155    2.1175 F   0  0  0  0  0  0  0  0  0  0  0  0
   -1.2329    3.2080    1.2336 F   0  0  0  0  0  0  0  0  0  0  0  0
   -2.9748    1.8274    1.7815 F   0  0  0  0  0  0  0  0  0  0  0  0
   -3.1690    3.2571   -0.0143 F   0  0  0  0  0  0  0  0  0  0  0  0
  1  2  1  0  0  0  0
  2  3  1  0  0  0  0
  4  9  1  0  0  0  0
  4  1  2  0  0  0  0
  5  4  1  0  0  0  0
  6  5  2  0  0  0  0
  6  7  1  0  0  0  0
  7  8  2  0  0  0  0
  8 13  1  0  0  0  0
  8  1  1  0  0  0  0
 10  5  1  0  0  0  0
 11  6  1  0  0  0  0
 12  7  1  0  0  0  0
 14 17  1  0  0  0  0
 14 15  1  0  0  0  0
 16 14  1  0  0  0  0
 18 14  1  0  0  0  0
M  RAD  2   2   2   3   3
M  END
