Coordinates from ORCA-job PhN2+~BF4-_B3LYPG-6-31G_dp-NX-Scan-d89-09-n800
 OpenBabel11261920573D

 18 17  0  0  0  0  0  0  0  0999 V2000
   -2.0498    0.4259    0.1017 C   0  0  0  0  0  0  0  0  0  0  0  0
   -2.0380    0.2724    1.4906 N   0  0  0  0  0  0  0  0  0  0  0  0
   -1.7542    0.6981    2.5209 N   0  0  0  0  0  0  0  0  0  0  0  0
   -2.6185   -0.6300   -0.6266 C   0  0  0  0  0  0  0  0  0  0  0  0
   -2.6561   -0.5418   -2.0126 C   0  0  0  0  0  0  0  0  0  0  0  0
   -2.1309    0.5881   -2.6485 C   0  0  0  0  0  0  0  0  0  0  0  0
   -1.5677    1.6304   -1.9049 C   0  0  0  0  0  0  0  0  0  0  0  0
   -1.5159    1.5702   -0.5158 C   0  0  0  0  0  0  0  0  0  0  0  0
   -3.0176   -1.4896   -0.0995 H   0  0  0  0  0  0  0  0  0  0  0  0
   -3.0925   -1.3468   -2.5943 H   0  0  0  0  0  0  0  0  0  0  0  0
   -2.1637    0.6582   -3.7318 H   0  0  0  0  0  0  0  0  0  0  0  0
   -1.1691    2.5051   -2.4083 H   0  0  0  0  0  0  0  0  0  0  0  0
   -1.0955    2.3798    0.0659 H   0  0  0  0  0  0  0  0  0  0  0  0
   -1.8722    3.5097    2.2350 B   0  0  0  0  0  0  0  0  0  0  0  0
   -0.9518    2.2015    2.3677 F   0  0  0  0  0  0  0  0  0  0  0  0
   -1.2407    4.1877    1.2186 F   0  0  0  0  0  0  0  0  0  0  0  0
   -3.0894    2.9881    1.8700 F   0  0  0  0  0  0  0  0  0  0  0  0
   -1.8304    4.1062    3.4470 F   0  0  0  0  0  0  0  0  0  0  0  0
  1  2  1  0  0  0  0
  2  3  2  0  0  0  0
  4  9  1  0  0  0  0
  4  1  2  0  0  0  0
  5  4  1  0  0  0  0
  6  5  2  0  0  0  0
  6  7  1  0  0  0  0
  7  8  2  0  0  0  0
  8 13  1  0  0  0  0
  8  1  1  0  0  0  0
 10  5  1  0  0  0  0
 11  6  1  0  0  0  0
 12  7  1  0  0  0  0
 14 15  1  0  0  0  0
 14 18  1  0  0  0  0
 16 14  1  0  0  0  0
 17 14  1  0  0  0  0
M  RAD  1   3   2
M  END
