Coordinates from ORCA-job PhN2+~BF4-_B3LYPG-6-31G_dp-NX-Scan-d89-09-n800
 OpenBabel11261920573D

 18 17  0  0  0  0  0  0  0  0999 V2000
   -2.4090    0.3523   -0.0504 C   0  0  0  0  0  0  0  0  0  0  0  0
   -2.8154    0.1938    1.3146 N   0  0  0  0  0  0  0  0  0  0  0  0
   -2.2944    0.8528    2.2451 N   0  0  0  0  0  0  0  0  0  0  0  0
   -2.5254   -0.8187   -0.8157 C   0  0  0  0  0  0  0  0  0  0  0  0
   -2.2162   -0.8122   -2.1728 C   0  0  0  0  0  0  0  0  0  0  0  0
   -1.8261    0.3770   -2.7932 C   0  0  0  0  0  0  0  0  0  0  0  0
   -1.7455    1.5536   -2.0455 C   0  0  0  0  0  0  0  0  0  0  0  0
   -2.0230    1.5511   -0.6789 C   0  0  0  0  0  0  0  0  0  0  0  0
   -2.8597   -1.7239   -0.3194 H   0  0  0  0  0  0  0  0  0  0  0  0
   -2.2959   -1.7293   -2.7490 H   0  0  0  0  0  0  0  0  0  0  0  0
   -1.5955    0.3898   -3.8542 H   0  0  0  0  0  0  0  0  0  0  0  0
   -1.4573    2.4840   -2.5260 H   0  0  0  0  0  0  0  0  0  0  0  0
   -1.9578    2.4789   -0.1244 H   0  0  0  0  0  0  0  0  0  0  0  0
   -1.5907    4.2435    2.8462 B   0  0  0  0  0  0  0  0  0  0  0  0
   -1.4700    1.5780    1.9768 F   0  0  0  0  0  0  0  0  0  0  0  0
   -1.6193    4.3853    1.5306 F   0  0  0  0  0  0  0  0  0  0  0  0
   -2.6945    3.9405    3.4951 F   0  0  0  0  0  0  0  0  0  0  0  0
   -0.4584    4.4166    3.4961 F   0  0  0  0  0  0  0  0  0  0  0  0
  1  2  1  0  0  0  0
  2  3  2  0  0  0  0
  4  9  1  0  0  0  0
  4  1  2  0  0  0  0
  5  4  1  0  0  0  0
  6  5  2  0  0  0  0
  6  7  1  0  0  0  0
  7  8  2  0  0  0  0
  8 13  1  0  0  0  0
  8  1  1  0  0  0  0
 10  5  1  0  0  0  0
 11  6  1  0  0  0  0
 12  7  1  0  0  0  0
 14 17  1  0  0  0  0
 14 18  1  0  0  0  0
 15  3  1  0  0  0  0
 16 14  1  0  0  0  0
M  END
