Coordinates from ORCA-job PhN2+~BF4-_B3LYPG-6-31G_dp-NX-Scan-d89-09-n800
 OpenBabel11261920573D

 18 17  0  0  0  0  0  0  0  0999 V2000
   -1.8972    0.5695    0.0150 C   0  0  0  0  0  0  0  0  0  0  0  0
   -1.6846    0.4802    1.3843 N   0  0  0  0  0  0  0  0  0  0  0  0
   -1.5059    0.2639    2.4604 N   0  0  0  0  0  0  0  0  0  0  0  0
   -2.4789   -0.5538   -0.5989 C   0  0  0  0  0  0  0  0  0  0  0  0
   -2.6825   -0.4961   -1.9702 C   0  0  0  0  0  0  0  0  0  0  0  0
   -2.3041    0.6473   -2.6866 C   0  0  0  0  0  0  0  0  0  0  0  0
   -1.7200    1.7426   -2.0429 C   0  0  0  0  0  0  0  0  0  0  0  0
   -1.5088    1.7306   -0.6683 C   0  0  0  0  0  0  0  0  0  0  0  0
   -2.7631   -1.4211   -0.0138 H   0  0  0  0  0  0  0  0  0  0  0  0
   -3.1359   -1.3392   -2.4800 H   0  0  0  0  0  0  0  0  0  0  0  0
   -2.4706    0.6819   -3.7589 H   0  0  0  0  0  0  0  0  0  0  0  0
   -1.4347    2.6208   -2.6119 H   0  0  0  0  0  0  0  0  0  0  0  0
   -1.0700    2.5472   -0.1021 H   0  0  0  0  0  0  0  0  0  0  0  0
   -1.8490    3.2867    2.3958 B   0  0  0  0  0  0  0  0  0  0  0  0
   -1.8043    2.6080    3.6199 F   0  0  0  0  0  0  0  0  0  0  0  0
   -0.6165    3.0217    1.7039 F   0  0  0  0  0  0  0  0  0  0  0  0
   -2.8739    2.6882    1.5959 F   0  0  0  0  0  0  0  0  0  0  0  0
   -2.0540    4.6347    2.5334 F   0  0  0  0  0  0  0  0  0  0  0  0
  1  2  1  0  0  0  0
  2  3  1  0  0  0  0
  4  9  1  0  0  0  0
  4  1  1  0  0  0  0
  5  4  2  0  0  0  0
  6  7  2  0  0  0  0
  6  5  1  0  0  0  0
  7  8  1  0  0  0  0
  8 13  1  0  0  0  0
  8  1  2  0  0  0  0
 10  5  1  0  0  0  0
 11  6  1  0  0  0  0
 12  7  1  0  0  0  0
 14 18  1  0  0  0  0
 14 15  1  0  0  0  0
 16 14  1  0  0  0  0
 17 14  1  0  0  0  0
M  RAD  2   2   2   3   3
M  END
