Coordinates from ORCA-job PhN2+~BF4-_B3LYPG-6-31G_dp-NX-Scan-d89-09-n800
 OpenBabel11261920563D

 18 17  0  0  0  0  0  0  0  0999 V2000
   -1.2539   -0.5342    0.1618 C   0  0  0  0  0  0  0  0  0  0  0  0
   -0.8568   -1.5558    0.9472 N   0  0  0  0  0  0  0  0  0  0  0  0
   -0.5280   -2.3860    1.6296 N   0  0  0  0  0  0  0  0  0  0  0  0
   -2.4856   -0.6553   -0.5351 C   0  0  0  0  0  0  0  0  0  0  0  0
   -2.9368    0.4523   -1.2140 C   0  0  0  0  0  0  0  0  0  0  0  0
   -2.2112    1.6604   -1.1637 C   0  0  0  0  0  0  0  0  0  0  0  0
   -0.9431    1.7268   -0.5454 C   0  0  0  0  0  0  0  0  0  0  0  0
   -0.4542    0.6415    0.1381 C   0  0  0  0  0  0  0  0  0  0  0  0
   -3.0451   -1.5833   -0.4972 H   0  0  0  0  0  0  0  0  0  0  0  0
   -3.8886    0.4174   -1.7311 H   0  0  0  0  0  0  0  0  0  0  0  0
   -2.6145    2.5606   -1.6151 H   0  0  0  0  0  0  0  0  0  0  0  0
   -0.4296    2.6783   -0.5085 H   0  0  0  0  0  0  0  0  0  0  0  0
    0.4810    0.6748    0.6849 H   0  0  0  0  0  0  0  0  0  0  0  0
   -2.9447    3.9601    0.6194 B   0  0  0  0  0  0  0  0  0  0  0  0
   -3.6484    4.6733    1.5580 F   0  0  0  0  0  0  0  0  0  0  0  0
   -3.2518    4.3488   -0.7024 F   0  0  0  0  0  0  0  0  0  0  0  0
   -1.5512    4.0710    0.8158 F   0  0  0  0  0  0  0  0  0  0  0  0
   -3.2914    2.5626    0.7327 F   0  0  0  0  0  0  0  0  0  0  0  0
  1  2  1  0  0  0  0
  2  3  1  0  0  0  0
  4  9  1  0  0  0  0
  4  1  2  0  0  0  0
  5  6  2  0  0  0  0
  5  4  1  0  0  0  0
  6  7  1  0  0  0  0
  7 12  1  0  0  0  0
  7  8  2  0  0  0  0
  8  1  1  0  0  0  0
  8 13  1  0  0  0  0
 10  5  1  0  0  0  0
 11  6  1  0  0  0  0
 14 18  1  0  0  0  0
 14 17  1  0  0  0  0
 14 15  1  0  0  0  0
 16 14  1  0  0  0  0
M  RAD  2   2   2   3   3
M  END
