Coordinates from ORCA-job PhN2+~BF4-_B3LYPG-6-31G_dp-NX-Scan-d89-09-n800
 OpenBabel11261920563D

 18 17  0  0  0  0  0  0  0  0999 V2000
   -1.2805   -0.1316    0.2597 C   0  0  0  0  0  0  0  0  0  0  0  0
   -0.7831   -0.9665    1.1991 N   0  0  0  0  0  0  0  0  0  0  0  0
   -0.3643   -1.6747    1.9642 N   0  0  0  0  0  0  0  0  0  0  0  0
   -2.5731   -0.3991   -0.2581 C   0  0  0  0  0  0  0  0  0  0  0  0
   -3.0643    0.4690   -1.2047 C   0  0  0  0  0  0  0  0  0  0  0  0
   -2.3080    1.5865   -1.6046 C   0  0  0  0  0  0  0  0  0  0  0  0
   -1.0179    1.8152   -1.0995 C   0  0  0  0  0  0  0  0  0  0  0  0
   -0.4937    0.9738   -0.1431 C   0  0  0  0  0  0  0  0  0  0  0  0
   -3.1391   -1.2526    0.0964 H   0  0  0  0  0  0  0  0  0  0  0  0
   -4.0579    0.3187   -1.6095 H   0  0  0  0  0  0  0  0  0  0  0  0
   -2.7172    2.2686   -2.3378 H   0  0  0  0  0  0  0  0  0  0  0  0
   -0.4710    2.7005   -1.3929 H   0  0  0  0  0  0  0  0  0  0  0  0
    0.4738    1.1521    0.3103 H   0  0  0  0  0  0  0  0  0  0  0  0
   -2.8143    3.3911    0.9459 B   0  0  0  0  0  0  0  0  0  0  0  0
   -3.4875    4.2691    1.7679 F   0  0  0  0  0  0  0  0  0  0  0  0
   -1.5574    3.8982    0.5567 F   0  0  0  0  0  0  0  0  0  0  0  0
   -2.6177    2.1327    1.5721 F   0  0  0  0  0  0  0  0  0  0  0  0
   -3.5809    3.1619   -0.2472 F   0  0  0  0  0  0  0  0  0  0  0  0
  1  2  1  0  0  0  0
  2  3  1  0  0  0  0
  4  9  1  0  0  0  0
  4  1  2  0  0  0  0
  5  4  1  0  0  0  0
  6  5  2  0  0  0  0
  6  7  1  0  0  0  0
  7  8  2  0  0  0  0
  8  1  1  0  0  0  0
  8 13  1  0  0  0  0
 10  5  1  0  0  0  0
 11  6  1  0  0  0  0
 12  7  1  0  0  0  0
 14 17  1  0  0  0  0
 14 15  1  0  0  0  0
 16 14  1  0  0  0  0
 18 14  1  0  0  0  0
M  RAD  2   2   2   3   3
M  END
