Coordinates from ORCA-job PhN2+~BF4-_B3LYPG-6-31G_dp-NX-Scan-d89-09-n800
 OpenBabel11261920563D

 18 17  0  0  1  0  0  0  0  0999 V2000
   -1.1943   -0.7494    0.1788 C   0  0  0  0  0  0  0  0  0  0  0  0
   -0.6868   -1.9348    0.4605 N   0  0  0  0  0  0  0  0  0  0  0  0
   -0.2490   -2.9603    0.7028 N   0  0  0  0  0  0  0  0  0  0  0  0
   -2.5128   -0.6513   -0.4024 C   0  0  0  0  0  0  0  0  0  0  0  0
   -3.0048    0.5557   -0.7569 C   0  0  0  0  0  0  0  0  0  0  0  0
   -2.2531    1.8085   -0.5443 C   0  0  2  0  0  0  0  0  0  0  0  0
   -0.9056    1.6502    0.0399 C   0  0  0  0  0  0  0  0  0  0  0  0
   -0.4105    0.4455    0.3961 C   0  0  0  0  0  0  0  0  0  0  0  0
   -3.0798   -1.5608   -0.5728 H   0  0  0  0  0  0  0  0  0  0  0  0
   -3.9836    0.6325   -1.2171 H   0  0  0  0  0  0  0  0  0  0  0  0
   -2.2957    2.4943   -1.3907 H   0  0  0  0  0  0  0  0  0  0  0  0
   -0.3246    2.5534    0.1860 H   0  0  0  0  0  0  0  0  0  0  0  0
    0.5819    0.3504    0.8242 H   0  0  0  0  0  0  0  0  0  0  0  0
   -3.1165    4.4576    0.1365 B   0  0  0  0  0  0  0  0  0  0  0  0
   -3.9574    4.8440    1.0996 F   0  0  0  0  0  0  0  0  0  0  0  0
   -3.5763    4.4198   -1.1294 F   0  0  0  0  0  0  0  0  0  0  0  0
   -1.8031    4.7140    0.2930 F   0  0  0  0  0  0  0  0  0  0  0  0
   -3.0820    2.6438    0.4712 F   0  0  0  0  0  0  0  0  0  0  0  0
  1  8  1  0  0  0  0
  1  2  1  0  0  0  0
  2  3  1  0  0  0  0
  4  1  2  0  0  0  0
  5  6  1  0  0  0  0
  5  4  1  0  0  0  0
  6 11  1  6  0  0  0
  6  7  1  0  0  0  0
  6 18  1  0  0  0  0
  7 12  1  0  0  0  0
  7  8  2  0  0  0  0
  8 13  1  0  0  0  0
  9  4  1  0  0  0  0
 10  5  1  0  0  0  0
 14 17  1  0  0  0  0
 14 15  1  0  0  0  0
 16 14  1  0  0  0  0
M  RAD  3   2   2   3   3   5   2
M  END
