Coordinates from ORCA-job PhN2+~BF4-_B3LYPG-6-31G_dp-NX-Scan-d89-09-n800
 OpenBabel11261920563D

 18 17  0  0  0  0  0  0  0  0999 V2000
   -1.2911   -0.0925    0.2583 C   0  0  0  0  0  0  0  0  0  0  0  0
   -0.8022   -0.8900    1.2342 N   0  0  0  0  0  0  0  0  0  0  0  0
   -0.3898   -1.5681    2.0285 N   0  0  0  0  0  0  0  0  0  0  0  0
   -2.5777   -0.3825   -0.2603 C   0  0  0  0  0  0  0  0  0  0  0  0
   -3.0681    0.4574   -1.2331 C   0  0  0  0  0  0  0  0  0  0  0  0
   -2.3165    1.5693   -1.6544 C   0  0  0  0  0  0  0  0  0  0  0  0
   -1.0306    1.8174   -1.1504 C   0  0  0  0  0  0  0  0  0  0  0  0
   -0.5080    1.0060   -0.1673 C   0  0  0  0  0  0  0  0  0  0  0  0
   -3.1414   -1.2286    0.1148 H   0  0  0  0  0  0  0  0  0  0  0  0
   -4.0578    0.2892   -1.6405 H   0  0  0  0  0  0  0  0  0  0  0  0
   -2.7286    2.2343   -2.4021 H   0  0  0  0  0  0  0  0  0  0  0  0
   -0.4857    2.6975   -1.4635 H   0  0  0  0  0  0  0  0  0  0  0  0
    0.4513    1.2077    0.2930 H   0  0  0  0  0  0  0  0  0  0  0  0
   -2.7860    3.3390    0.9880 B   0  0  0  0  0  0  0  0  0  0  0  0
   -3.4478    4.2172    1.8194 F   0  0  0  0  0  0  0  0  0  0  0  0
   -1.4797    3.7829    0.6931 F   0  0  0  0  0  0  0  0  0  0  0  0
   -2.6952    2.0443    1.5662 F   0  0  0  0  0  0  0  0  0  0  0  0
   -3.4990    3.2128   -0.2488 F   0  0  0  0  0  0  0  0  0  0  0  0
  1  2  1  0  0  0  0
  2  3  1  0  0  0  0
  4  9  1  0  0  0  0
  4  1  2  0  0  0  0
  5  4  1  0  0  0  0
  6  5  2  0  0  0  0
  6  7  1  0  0  0  0
  7  8  2  0  0  0  0
  8  1  1  0  0  0  0
  8 13  1  0  0  0  0
 10  5  1  0  0  0  0
 11  6  1  0  0  0  0
 12  7  1  0  0  0  0
 14 17  1  0  0  0  0
 14 15  1  0  0  0  0
 16 14  1  0  0  0  0
 18 14  1  0  0  0  0
M  RAD  2   2   2   3   3
M  END
