Coordinates from ORCA-job PhN2+~BF4-_B3LYPG-6-31G_dp-NX-Scan-d89-09-n800
 OpenBabel11261920563D

 18 17  0  0  0  0  0  0  0  0999 V2000
   -1.2598   -0.3884    0.1883 C   0  0  0  0  0  0  0  0  0  0  0  0
   -0.7731   -1.3328    1.0245 N   0  0  0  0  0  0  0  0  0  0  0  0
   -0.3638   -2.1093    1.7251 N   0  0  0  0  0  0  0  0  0  0  0  0
   -2.4989   -0.6354   -0.4612 C   0  0  0  0  0  0  0  0  0  0  0  0
   -3.0128    0.3767   -1.2388 C   0  0  0  0  0  0  0  0  0  0  0  0
   -2.3318    1.6059   -1.3473 C   0  0  0  0  0  0  0  0  0  0  0  0
   -1.0761    1.8023   -0.7460 C   0  0  0  0  0  0  0  0  0  0  0  0
   -0.5304    0.8197    0.0475 C   0  0  0  0  0  0  0  0  0  0  0  0
   -3.0132   -1.5792   -0.3197 H   0  0  0  0  0  0  0  0  0  0  0  0
   -3.9722    0.2466   -1.7254 H   0  0  0  0  0  0  0  0  0  0  0  0
   -2.7645    2.4225   -1.9085 H   0  0  0  0  0  0  0  0  0  0  0  0
   -0.6155    2.7782   -0.8149 H   0  0  0  0  0  0  0  0  0  0  0  0
    0.3983    0.9648    0.5859 H   0  0  0  0  0  0  0  0  0  0  0  0
   -2.8111    3.7740    0.7774 B   0  0  0  0  0  0  0  0  0  0  0  0
   -3.4837    4.7276    1.5056 F   0  0  0  0  0  0  0  0  0  0  0  0
   -2.1631    4.3436   -0.3511 F   0  0  0  0  0  0  0  0  0  0  0  0
   -1.8481    3.1020    1.5577 F   0  0  0  0  0  0  0  0  0  0  0  0
   -3.7341    2.7944    0.2759 F   0  0  0  0  0  0  0  0  0  0  0  0
  1  2  1  0  0  0  0
  2  3  1  0  0  0  0
  4  9  1  0  0  0  0
  4  1  2  0  0  0  0
  5  4  1  0  0  0  0
  6  5  2  0  0  0  0
  6  7  1  0  0  0  0
  7  8  2  0  0  0  0
  8  1  1  0  0  0  0
  8 13  1  0  0  0  0
 10  5  1  0  0  0  0
 11  6  1  0  0  0  0
 12  7  1  0  0  0  0
 14 15  1  0  0  0  0
 14 17  1  0  0  0  0
 16 14  1  0  0  0  0
 18 14  1  0  0  0  0
M  RAD  2   2   2   3   3
M  END
