Coordinates from ORCA-job PhN2+~BF4-_B3LYPG-6-31G_dp-NX-Scan-d89-09-n800
 OpenBabel11261920563D

 18 17  0  0  1  0  0  0  0  0999 V2000
   -1.1663   -0.7895    0.1488 C   0  0  0  0  0  0  0  0  0  0  0  0
   -0.6178   -1.9652    0.3727 N   0  0  0  0  0  0  0  0  0  0  0  0
   -0.1432   -2.9874    0.5647 N   0  0  0  0  0  0  0  0  0  0  0  0
   -2.5112   -0.7057   -0.3802 C   0  0  0  0  0  0  0  0  0  0  0  0
   -3.0470    0.4940   -0.6817 C   0  0  0  0  0  0  0  0  0  0  0  0
   -2.3167    1.7750   -0.4863 C   0  0  2  0  0  0  0  0  0  0  0  0
   -0.9524    1.6245    0.0890 C   0  0  0  0  0  0  0  0  0  0  0  0
   -0.4153    0.4255    0.3903 C   0  0  0  0  0  0  0  0  0  0  0  0
   -3.0649   -1.6245   -0.5457 H   0  0  0  0  0  0  0  0  0  0  0  0
   -4.0487    0.5554   -1.0935 H   0  0  0  0  0  0  0  0  0  0  0  0
   -2.3292    2.4033   -1.3813 H   0  0  0  0  0  0  0  0  0  0  0  0
   -0.3934    2.5377    0.2612 H   0  0  0  0  0  0  0  0  0  0  0  0
    0.5862    0.3465    0.8007 H   0  0  0  0  0  0  0  0  0  0  0  0
   -3.0861    4.6625    0.0893 B   0  0  0  0  0  0  0  0  0  0  0  0
   -4.0564    4.9979    0.9277 F   0  0  0  0  0  0  0  0  0  0  0  0
   -3.3598    4.5438   -1.2110 F   0  0  0  0  0  0  0  0  0  0  0  0
   -1.8141    4.8136    0.4568 F   0  0  0  0  0  0  0  0  0  0  0  0
   -3.1178    2.6057    0.4535 F   0  0  0  0  0  0  0  0  0  0  0  0
  1  2  1  0  0  0  0
  1  8  1  0  0  0  0
  2  3  1  0  0  0  0
  4  1  2  0  0  0  0
  5  6  1  0  0  0  0
  5  4  1  0  0  0  0
  6 11  1  6  0  0  0
  6  7  1  0  0  0  0
  6 18  1  0  0  0  0
  7 12  1  0  0  0  0
  7  8  2  0  0  0  0
  8 13  1  0  0  0  0
  9  4  1  0  0  0  0
 10  5  1  0  0  0  0
 14 17  1  0  0  0  0
 14 15  1  0  0  0  0
 16 14  1  0  0  0  0
M  RAD  3   2   2   3   3   5   2
M  END
