Coordinates from ORCA-job PhN2+~BF4-_B3LYPG-6-31G_dp-NX-Scan-d89-09-n800
 OpenBabel11261920563D

 18 17  0  0  0  0  0  0  0  0999 V2000
   -1.6622    0.4412    0.0992 C   0  0  0  0  0  0  0  0  0  0  0  0
   -1.2584    0.0908    1.3706 N   0  0  0  0  0  0  0  0  0  0  0  0
   -0.9029   -0.3425    2.3324 N   0  0  0  0  0  0  0  0  0  0  0  0
   -2.5081   -0.4710   -0.5669 C   0  0  0  0  0  0  0  0  0  0  0  0
   -2.8649   -0.1670   -1.8677 C   0  0  0  0  0  0  0  0  0  0  0  0
   -2.3857    1.0083   -2.4718 C   0  0  0  0  0  0  0  0  0  0  0  0
   -1.5558    1.8908   -1.7821 C   0  0  0  0  0  0  0  0  0  0  0  0
   -1.1816    1.6315   -0.4663 C   0  0  0  0  0  0  0  0  0  0  0  0
   -2.8598   -1.3658   -0.0668 H   0  0  0  0  0  0  0  0  0  0  0  0
   -3.5170   -0.8384   -2.4157 H   0  0  0  0  0  0  0  0  0  0  0  0
   -2.6776    1.2356   -3.4921 H   0  0  0  0  0  0  0  0  0  0  0  0
   -1.2163    2.8068   -2.2516 H   0  0  0  0  0  0  0  0  0  0  0  0
   -0.5843    2.3030    0.1380 H   0  0  0  0  0  0  0  0  0  0  0  0
   -2.1552    3.1303    2.0670 B   0  0  0  0  0  0  0  0  0  0  0  0
   -2.4523    4.1294    2.9650 F   0  0  0  0  0  0  0  0  0  0  0  0
   -0.7552    2.8004    2.0805 F   0  0  0  0  0  0  0  0  0  0  0  0
   -2.8326    1.9117    2.3539 F   0  0  0  0  0  0  0  0  0  0  0  0
   -2.4839    3.5182    0.7493 F   0  0  0  0  0  0  0  0  0  0  0  0
  1  2  1  0  0  0  0
  2  3  1  0  0  0  0
  4  9  1  0  0  0  0
  4  1  2  0  0  0  0
  5  4  1  0  0  0  0
  6  5  2  0  0  0  0
  6  7  1  0  0  0  0
  7  8  2  0  0  0  0
  8  1  1  0  0  0  0
  8 13  1  0  0  0  0
 10  5  1  0  0  0  0
 11  6  1  0  0  0  0
 12  7  1  0  0  0  0
 14 16  1  0  0  0  0
 14 17  1  0  0  0  0
 14 15  1  0  0  0  0
 18 14  1  0  0  0  0
M  RAD  2   2   2   3   3
M  END
