Coordinates from ORCA-job PhN2+~BF4-_B3LYPG-6-31G_dp-NX-Scan-d89-09-n800
 OpenBabel11261920573D

 18 17  0  0  0  0  0  0  0  0999 V2000
   -2.3967    0.3527   -0.0417 C   0  0  0  0  0  0  0  0  0  0  0  0
   -2.7937    0.1874    1.3241 N   0  0  0  0  0  0  0  0  0  0  0  0
   -2.2873    0.8465    2.2584 N   0  0  0  0  0  0  0  0  0  0  0  0
   -2.5237   -0.8153   -0.8102 C   0  0  0  0  0  0  0  0  0  0  0  0
   -2.2223   -0.8055   -2.1689 C   0  0  0  0  0  0  0  0  0  0  0  0
   -1.8310    0.3844   -2.7872 C   0  0  0  0  0  0  0  0  0  0  0  0
   -1.7408    1.5581   -2.0359 C   0  0  0  0  0  0  0  0  0  0  0  0
   -2.0092    1.5525   -0.6677 C   0  0  0  0  0  0  0  0  0  0  0  0
   -2.8592   -1.7205   -0.3148 H   0  0  0  0  0  0  0  0  0  0  0  0
   -2.3094   -1.7202   -2.7479 H   0  0  0  0  0  0  0  0  0  0  0  0
   -1.6067    0.4000   -3.8495 H   0  0  0  0  0  0  0  0  0  0  0  0
   -1.4516    2.4889   -2.5150 H   0  0  0  0  0  0  0  0  0  0  0  0
   -1.9361    2.4778   -0.1107 H   0  0  0  0  0  0  0  0  0  0  0  0
   -1.6061    4.2278    2.8178 B   0  0  0  0  0  0  0  0  0  0  0  0
   -1.4605    1.5986    1.9863 F   0  0  0  0  0  0  0  0  0  0  0  0
   -1.6340    4.4187    1.5083 F   0  0  0  0  0  0  0  0  0  0  0  0
   -2.7201    3.9514    3.4615 F   0  0  0  0  0  0  0  0  0  0  0  0
   -0.4655    4.3302    3.4680 F   0  0  0  0  0  0  0  0  0  0  0  0
  1  2  1  0  0  0  0
  2  3  2  0  0  0  0
  4  9  1  0  0  0  0
  4  1  2  0  0  0  0
  5  4  1  0  0  0  0
  6  5  2  0  0  0  0
  6  7  1  0  0  0  0
  7  8  2  0  0  0  0
  8 13  1  0  0  0  0
  8  1  1  0  0  0  0
 10  5  1  0  0  0  0
 11  6  1  0  0  0  0
 12  7  1  0  0  0  0
 14 17  1  0  0  0  0
 14 18  1  0  0  0  0
 15  3  1  0  0  0  0
 16 14  1  0  0  0  0
M  END
