Coordinates from ORCA-job PhN2+~BF4-_B3LYPG-6-31G_dp-NX-Scan-d89-09-n800
 OpenBabel11261920573D

 18 17  0  0  0  0  0  0  0  0999 V2000
   -1.8431    0.5357    0.0273 C   0  0  0  0  0  0  0  0  0  0  0  0
   -1.5816    0.3780    1.3814 N   0  0  0  0  0  0  0  0  0  0  0  0
   -1.3529    0.0964    2.4308 N   0  0  0  0  0  0  0  0  0  0  0  0
   -2.4612   -0.5518   -0.6144 C   0  0  0  0  0  0  0  0  0  0  0  0
   -2.7084   -0.4323   -1.9747 C   0  0  0  0  0  0  0  0  0  0  0  0
   -2.3395    0.7364   -2.6534 C   0  0  0  0  0  0  0  0  0  0  0  0
   -1.7221    1.7969   -1.9823 C   0  0  0  0  0  0  0  0  0  0  0  0
   -1.4659    1.7219   -0.6183 C   0  0  0  0  0  0  0  0  0  0  0  0
   -2.7388   -1.4400   -0.0582 H   0  0  0  0  0  0  0  0  0  0  0  0
   -3.1895   -1.2472   -2.5046 H   0  0  0  0  0  0  0  0  0  0  0  0
   -2.5408    0.8199   -3.7169 H   0  0  0  0  0  0  0  0  0  0  0  0
   -1.4478    2.6978   -2.5203 H   0  0  0  0  0  0  0  0  0  0  0  0
   -1.0030    2.5092   -0.0323 H   0  0  0  0  0  0  0  0  0  0  0  0
   -1.9069    3.2599    2.3518 B   0  0  0  0  0  0  0  0  0  0  0  0
   -1.9450    3.1647    3.7272 F   0  0  0  0  0  0  0  0  0  0  0  0
   -0.6446    2.7192    1.8798 F   0  0  0  0  0  0  0  0  0  0  0  0
   -2.9093    2.4055    1.7810 F   0  0  0  0  0  0  0  0  0  0  0  0
   -2.0535    4.5430    1.8711 F   0  0  0  0  0  0  0  0  0  0  0  0
  1  2  1  0  0  0  0
  2  3  1  0  0  0  0
  4  9  1  0  0  0  0
  4  1  1  0  0  0  0
  5  4  2  0  0  0  0
  6  7  2  0  0  0  0
  6  5  1  0  0  0  0
  7  8  1  0  0  0  0
  8 13  1  0  0  0  0
  8  1  2  0  0  0  0
 10  5  1  0  0  0  0
 11  6  1  0  0  0  0
 12  7  1  0  0  0  0
 14 15  1  0  0  0  0
 16 14  1  0  0  0  0
 17 14  1  0  0  0  0
 18 14  1  0  0  0  0
M  RAD  2   2   2   3   3
M  END
