Coordinates from ORCA-job PhN2+~BF4-_B3LYPG-6-31G_dp-NX-Scan-d89-09-n800
 OpenBabel11261920563D

 18 17  0  0  0  0  0  0  0  0999 V2000
   -1.2575   -0.4128    0.1785 C   0  0  0  0  0  0  0  0  0  0  0  0
   -0.7747   -1.3697    1.0020 N   0  0  0  0  0  0  0  0  0  0  0  0
   -0.3714   -2.1520    1.6996 N   0  0  0  0  0  0  0  0  0  0  0  0
   -2.4920   -0.6510   -0.4828 C   0  0  0  0  0  0  0  0  0  0  0  0
   -3.0074    0.3765   -1.2392 C   0  0  0  0  0  0  0  0  0  0  0  0
   -2.3327    1.6114   -1.3141 C   0  0  0  0  0  0  0  0  0  0  0  0
   -1.0787    1.7992   -0.7043 C   0  0  0  0  0  0  0  0  0  0  0  0
   -0.5303    0.8003    0.0658 C   0  0  0  0  0  0  0  0  0  0  0  0
   -3.0024   -1.6001   -0.3649 H   0  0  0  0  0  0  0  0  0  0  0  0
   -3.9638    0.2533   -1.7337 H   0  0  0  0  0  0  0  0  0  0  0  0
   -2.7647    2.4435   -1.8526 H   0  0  0  0  0  0  0  0  0  0  0  0
   -0.6204    2.7772   -0.7551 H   0  0  0  0  0  0  0  0  0  0  0  0
    0.3972    0.9353    0.6090 H   0  0  0  0  0  0  0  0  0  0  0  0
   -2.8152    3.8078    0.7569 B   0  0  0  0  0  0  0  0  0  0  0  0
   -3.5040    4.7665    1.4616 F   0  0  0  0  0  0  0  0  0  0  0  0
   -2.2555    4.3392   -0.4374 F   0  0  0  0  0  0  0  0  0  0  0  0
   -1.7772    3.2385    1.5221 F   0  0  0  0  0  0  0  0  0  0  0  0
   -3.7032    2.7502    0.3637 F   0  0  0  0  0  0  0  0  0  0  0  0
  1  2  1  0  0  0  0
  2  3  1  0  0  0  0
  4  9  1  0  0  0  0
  4  1  2  0  0  0  0
  5  4  1  0  0  0  0
  6  5  2  0  0  0  0
  6  7  1  0  0  0  0
  7  8  2  0  0  0  0
  8  1  1  0  0  0  0
  8 13  1  0  0  0  0
 10  5  1  0  0  0  0
 11  6  1  0  0  0  0
 12  7  1  0  0  0  0
 14 15  1  0  0  0  0
 14 17  1  0  0  0  0
 16 14  1  0  0  0  0
 18 14  1  0  0  0  0
M  RAD  2   2   2   3   3
M  END
