Coordinates from ORCA-job PhN2+~BF4-_B3LYPG-6-31G_dp-NX-Scan-d89-09-n800
 OpenBabel11261920563D

 18 17  0  0  0  0  0  0  0  0999 V2000
   -1.7522    0.2843    0.1240 C   0  0  0  0  0  0  0  0  0  0  0  0
   -1.4285   -0.1587    1.3875 N   0  0  0  0  0  0  0  0  0  0  0  0
   -1.1549   -0.6612    2.3437 N   0  0  0  0  0  0  0  0  0  0  0  0
   -2.5355   -0.5908   -0.6637 C   0  0  0  0  0  0  0  0  0  0  0  0
   -2.8272   -0.1885   -1.9527 C   0  0  0  0  0  0  0  0  0  0  0  0
   -2.3479    1.0457   -2.4293 C   0  0  0  0  0  0  0  0  0  0  0  0
   -1.5827    1.8856   -1.6235 C   0  0  0  0  0  0  0  0  0  0  0  0
   -1.2726    1.5284   -0.3126 C   0  0  0  0  0  0  0  0  0  0  0  0
   -2.8887   -1.5326   -0.2603 H   0  0  0  0  0  0  0  0  0  0  0  0
   -3.4281   -0.8267   -2.5912 H   0  0  0  0  0  0  0  0  0  0  0  0
   -2.5899    1.3505   -3.4425 H   0  0  0  0  0  0  0  0  0  0  0  0
   -1.2449    2.8471   -1.9918 H   0  0  0  0  0  0  0  0  0  0  0  0
   -0.7088    2.1808    0.3523 H   0  0  0  0  0  0  0  0  0  0  0  0
   -2.0354    3.3423    1.9894 B   0  0  0  0  0  0  0  0  0  0  0  0
   -2.4831    4.2797    2.8896 F   0  0  0  0  0  0  0  0  0  0  0  0
   -0.6751    3.5708    1.6320 F   0  0  0  0  0  0  0  0  0  0  0  0
   -2.0942    2.0091    2.5194 F   0  0  0  0  0  0  0  0  0  0  0  0
   -2.8041    3.3475    0.8046 F   0  0  0  0  0  0  0  0  0  0  0  0
  1  2  1  0  0  0  0
  2  3  1  0  0  0  0
  4  9  1  0  0  0  0
  4  1  2  0  0  0  0
  5  4  1  0  0  0  0
  6  5  2  0  0  0  0
  6  7  1  0  0  0  0
  7  8  2  0  0  0  0
  8  1  1  0  0  0  0
  8 13  1  0  0  0  0
 10  5  1  0  0  0  0
 11  6  1  0  0  0  0
 12  7  1  0  0  0  0
 14 17  1  0  0  0  0
 14 15  1  0  0  0  0
 16 14  1  0  0  0  0
 18 14  1  0  0  0  0
M  RAD  2   2   2   3   3
M  END
