Coordinates from ORCA-job PhN2+~BF4-_B3LYPG-6-31G_dp-NX-Scan-d89-09-n800
 OpenBabel11261920563D

 18 17  0  0  0  0  0  0  0  0999 V2000
   -1.2174   -0.6737    0.1164 C   0  0  0  0  0  0  0  0  0  0  0  0
   -0.6914   -1.7657    0.7156 N   0  0  0  0  0  0  0  0  0  0  0  0
   -0.2429   -2.6565    1.2311 N   0  0  0  0  0  0  0  0  0  0  0  0
   -2.4182   -0.8227   -0.6215 C   0  0  0  0  0  0  0  0  0  0  0  0
   -2.9645    0.3190   -1.1721 C   0  0  0  0  0  0  0  0  0  0  0  0
   -2.3528    1.5704   -0.9741 C   0  0  0  0  0  0  0  0  0  0  0  0
   -1.1430    1.6870   -0.2542 C   0  0  0  0  0  0  0  0  0  0  0  0
   -0.5577    0.5733    0.2992 C   0  0  0  0  0  0  0  0  0  0  0  0
   -2.8771   -1.7991   -0.7303 H   0  0  0  0  0  0  0  0  0  0  0  0
   -3.8896    0.2523   -1.7337 H   0  0  0  0  0  0  0  0  0  0  0  0
   -2.8018    2.4816   -1.3614 H   0  0  0  0  0  0  0  0  0  0  0  0
   -0.7471    2.6835   -0.0774 H   0  0  0  0  0  0  0  0  0  0  0  0
    0.3526    0.6273    0.8854 H   0  0  0  0  0  0  0  0  0  0  0  0
   -2.8718    4.2785    0.5037 B   0  0  0  0  0  0  0  0  0  0  0  0
   -3.5252    5.2271    1.2502 F   0  0  0  0  0  0  0  0  0  0  0  0
   -3.2295    4.3448   -0.8678 F   0  0  0  0  0  0  0  0  0  0  0  0
   -1.4637    4.4200    0.6025 F   0  0  0  0  0  0  0  0  0  0  0  0
   -3.2129    2.9662    0.9636 F   0  0  0  0  0  0  0  0  0  0  0  0
  1  8  1  0  0  0  0
  1  2  1  0  0  0  0
  2  3  1  0  0  0  0
  4  1  2  0  0  0  0
  5  6  2  0  0  0  0
  5  4  1  0  0  0  0
  6  7  1  0  0  0  0
  7 12  1  0  0  0  0
  7  8  2  0  0  0  0
  8 13  1  0  0  0  0
  9  4  1  0  0  0  0
 10  5  1  0  0  0  0
 11  6  1  0  0  0  0
 14 17  1  0  0  0  0
 14 18  1  0  0  0  0
 14 15  1  0  0  0  0
 16 14  1  0  0  0  0
M  RAD  2   2   2   3   3
M  END
