Coordinates from ORCA-job PhN2+~BF4-_B3LYPG-6-31G_dp-NX-Scan-d89-09-n800
 OpenBabel11261920573D

 18 17  0  0  0  0  0  0  0  0999 V2000
   -1.8367    0.5260    0.0322 C   0  0  0  0  0  0  0  0  0  0  0  0
   -1.5720    0.3554    1.3837 N   0  0  0  0  0  0  0  0  0  0  0  0
   -1.3402    0.0739    2.4322 N   0  0  0  0  0  0  0  0  0  0  0  0
   -2.4551   -0.5554   -0.6191 C   0  0  0  0  0  0  0  0  0  0  0  0
   -2.7086   -0.4215   -1.9769 C   0  0  0  0  0  0  0  0  0  0  0  0
   -2.3461    0.7558   -2.6439 C   0  0  0  0  0  0  0  0  0  0  0  0
   -1.7284    1.8103   -1.9636 C   0  0  0  0  0  0  0  0  0  0  0  0
   -1.4650    1.7204   -0.6019 C   0  0  0  0  0  0  0  0  0  0  0  0
   -2.7283   -1.4503   -0.0716 H   0  0  0  0  0  0  0  0  0  0  0  0
   -3.1900   -1.2317   -2.5138 H   0  0  0  0  0  0  0  0  0  0  0  0
   -2.5530    0.8512   -3.7054 H   0  0  0  0  0  0  0  0  0  0  0  0
   -1.4595    2.7183   -2.4922 H   0  0  0  0  0  0  0  0  0  0  0  0
   -1.0016    2.5039   -0.0116 H   0  0  0  0  0  0  0  0  0  0  0  0
   -1.9094    3.2534    2.3344 B   0  0  0  0  0  0  0  0  0  0  0  0
   -1.9641    3.2754    3.7104 F   0  0  0  0  0  0  0  0  0  0  0  0
   -0.6447    2.6715    1.9197 F   0  0  0  0  0  0  0  0  0  0  0  0
   -2.9112    2.3633    1.8203 F   0  0  0  0  0  0  0  0  0  0  0  0
   -2.0400    4.4932    1.7421 F   0  0  0  0  0  0  0  0  0  0  0  0
  1  2  1  0  0  0  0
  2  3  1  0  0  0  0
  4  9  1  0  0  0  0
  4  1  2  0  0  0  0
  5  4  1  0  0  0  0
  6  5  2  0  0  0  0
  6  7  1  0  0  0  0
  7  8  2  0  0  0  0
  8 13  1  0  0  0  0
  8  1  1  0  0  0  0
 10  5  1  0  0  0  0
 11  6  1  0  0  0  0
 12  7  1  0  0  0  0
 14 15  1  0  0  0  0
 16 14  1  0  0  0  0
 17 14  1  0  0  0  0
 18 14  1  0  0  0  0
M  RAD  2   2   2   3   3
M  END
