Coordinates from ORCA-job PhN2+~BF4-_B3LYPG-6-31G_dp-NX-Scan-d89-09-n800
 OpenBabel11261920563D

 18 17  0  0  0  0  0  0  0  0999 V2000
   -1.8647    0.4801    0.0461 C   0  0  0  0  0  0  0  0  0  0  0  0
   -1.6110    0.2410    1.3863 N   0  0  0  0  0  0  0  0  0  0  0  0
   -1.3985   -0.0671    2.4315 N   0  0  0  0  0  0  0  0  0  0  0  0
   -2.3972   -0.6027   -0.6808 C   0  0  0  0  0  0  0  0  0  0  0  0
   -2.6412   -0.4081   -2.0310 C   0  0  0  0  0  0  0  0  0  0  0  0
   -2.3561    0.8318   -2.6209 C   0  0  0  0  0  0  0  0  0  0  0  0
   -1.8267    1.8832   -1.8685 C   0  0  0  0  0  0  0  0  0  0  0  0
   -1.5675    1.7330   -0.5094 C   0  0  0  0  0  0  0  0  0  0  0  0
   -2.6107   -1.5462   -0.1911 H   0  0  0  0  0  0  0  0  0  0  0  0
   -3.0545   -1.2171   -2.6233 H   0  0  0  0  0  0  0  0  0  0  0  0
   -2.5561    0.9766   -3.6781 H   0  0  0  0  0  0  0  0  0  0  0  0
   -1.6218    2.8411   -2.3341 H   0  0  0  0  0  0  0  0  0  0  0  0
   -1.1906    2.5441    0.1051 H   0  0  0  0  0  0  0  0  0  0  0  0
   -1.8432    3.2388    2.2997 B   0  0  0  0  0  0  0  0  0  0  0  0
   -1.9578    3.9358    3.4743 F   0  0  0  0  0  0  0  0  0  0  0  0
   -0.6355    2.4620    2.2623 F   0  0  0  0  0  0  0  0  0  0  0  0
   -2.9032    2.2996    2.1337 F   0  0  0  0  0  0  0  0  0  0  0  0
   -1.8176    4.0872    1.1733 F   0  0  0  0  0  0  0  0  0  0  0  0
  1  2  1  0  0  0  0
  2  3  1  0  0  0  0
  4  9  1  0  0  0  0
  4  1  2  0  0  0  0
  5  4  1  0  0  0  0
  6  5  2  0  0  0  0
  6  7  1  0  0  0  0
  7  8  2  0  0  0  0
  8  1  1  0  0  0  0
  8 13  1  0  0  0  0
 10  5  1  0  0  0  0
 11  6  1  0  0  0  0
 12  7  1  0  0  0  0
 14 15  1  0  0  0  0
 16 14  1  0  0  0  0
 17 14  1  0  0  0  0
 18 14  1  0  0  0  0
M  RAD  2   2   2   3   3
M  END
