Coordinates from ORCA-job PhN2+~BF4-_B3LYPG-6-31G_dp-NX-Scan-d89-09-n800
 OpenBabel11261920573D

 18 17  0  0  0  0  0  0  0  0999 V2000
   -1.8854    0.5704    0.0155 C   0  0  0  0  0  0  0  0  0  0  0  0
   -1.6598    0.4707    1.3824 N   0  0  0  0  0  0  0  0  0  0  0  0
   -1.4683    0.2308    2.4508 N   0  0  0  0  0  0  0  0  0  0  0  0
   -2.4792   -0.5467   -0.5980 C   0  0  0  0  0  0  0  0  0  0  0  0
   -2.6909   -0.4833   -1.9679 C   0  0  0  0  0  0  0  0  0  0  0  0
   -2.3094    0.6595   -2.6833 C   0  0  0  0  0  0  0  0  0  0  0  0
   -1.7148    1.7493   -2.0395 C   0  0  0  0  0  0  0  0  0  0  0  0
   -1.4954    1.7315   -0.6665 C   0  0  0  0  0  0  0  0  0  0  0  0
   -2.7658   -1.4140   -0.0141 H   0  0  0  0  0  0  0  0  0  0  0  0
   -3.1532   -1.3218   -2.4774 H   0  0  0  0  0  0  0  0  0  0  0  0
   -2.4817    0.6985   -3.7545 H   0  0  0  0  0  0  0  0  0  0  0  0
   -1.4279    2.6278   -2.6072 H   0  0  0  0  0  0  0  0  0  0  0  0
   -1.0491    2.5433   -0.0999 H   0  0  0  0  0  0  0  0  0  0  0  0
   -1.8654    3.2782    2.3952 B   0  0  0  0  0  0  0  0  0  0  0  0
   -1.8292    2.6886    3.6588 F   0  0  0  0  0  0  0  0  0  0  0  0
   -0.6278    2.9637    1.7248 F   0  0  0  0  0  0  0  0  0  0  0  0
   -2.8864    2.6321    1.6249 F   0  0  0  0  0  0  0  0  0  0  0  0
   -2.0642    4.6345    2.4309 F   0  0  0  0  0  0  0  0  0  0  0  0
  1  2  1  0  0  0  0
  2  3  1  0  0  0  0
  4  9  1  0  0  0  0
  4  1  1  0  0  0  0
  5  4  2  0  0  0  0
  6  7  2  0  0  0  0
  6  5  1  0  0  0  0
  7  8  1  0  0  0  0
  8 13  1  0  0  0  0
  8  1  2  0  0  0  0
 10  5  1  0  0  0  0
 11  6  1  0  0  0  0
 12  7  1  0  0  0  0
 14 18  1  0  0  0  0
 14 15  1  0  0  0  0
 16 14  1  0  0  0  0
 17 14  1  0  0  0  0
M  RAD  2   2   2   3   3
M  END
