Coordinates from ORCA-job PhN2+~BF4-_B3LYPG-6-31G_dp-NX-Scan-d89-09-n800
 OpenBabel11261920563D

 18 17  0  0  0  0  0  0  0  0999 V2000
   -1.6776    0.4853    0.0864 C   0  0  0  0  0  0  0  0  0  0  0  0
   -1.2955    0.1806    1.3794 N   0  0  0  0  0  0  0  0  0  0  0  0
   -0.9661   -0.2136    2.3651 N   0  0  0  0  0  0  0  0  0  0  0  0
   -2.4933   -0.4614   -0.5649 C   0  0  0  0  0  0  0  0  0  0  0  0
   -2.8415   -0.2007   -1.8790 C   0  0  0  0  0  0  0  0  0  0  0  0
   -2.3810    0.9666   -2.5088 C   0  0  0  0  0  0  0  0  0  0  0  0
   -1.5753    1.8837   -1.8328 C   0  0  0  0  0  0  0  0  0  0  0  0
   -1.2105    1.6663   -0.5076 C   0  0  0  0  0  0  0  0  0  0  0  0
   -2.8345   -1.3488   -0.0446 H   0  0  0  0  0  0  0  0  0  0  0  0
   -3.4729   -0.9008   -2.4151 H   0  0  0  0  0  0  0  0  0  0  0  0
   -2.6660    1.1614   -3.5378 H   0  0  0  0  0  0  0  0  0  0  0  0
   -1.2450    2.7913   -2.3249 H   0  0  0  0  0  0  0  0  0  0  0  0
   -0.6327    2.3639    0.0836 H   0  0  0  0  0  0  0  0  0  0  0  0
   -2.1340    3.1019    2.1180 B   0  0  0  0  0  0  0  0  0  0  0  0
   -2.3568    4.0146    3.1198 F   0  0  0  0  0  0  0  0  0  0  0  0
   -0.7640    2.6446    2.1212 F   0  0  0  0  0  0  0  0  0  0  0  0
   -2.9229    1.9280    2.2708 F   0  0  0  0  0  0  0  0  0  0  0  0
   -2.3845    3.6503    0.8461 F   0  0  0  0  0  0  0  0  0  0  0  0
  1  2  1  0  0  0  0
  2  3  1  0  0  0  0
  4  9  1  0  0  0  0
  4  1  2  0  0  0  0
  5  4  1  0  0  0  0
  6  5  2  0  0  0  0
  6  7  1  0  0  0  0
  7  8  2  0  0  0  0
  8 13  1  0  0  0  0
  8  1  1  0  0  0  0
 10  5  1  0  0  0  0
 11  6  1  0  0  0  0
 12  7  1  0  0  0  0
 14 16  1  0  0  0  0
 14 17  1  0  0  0  0
 14 15  1  0  0  0  0
 18 14  1  0  0  0  0
M  RAD  2   2   2   3   3
M  END
