Coordinates from ORCA-job PhN2+~BF4-_B3LYPG-6-31G_dp-NX-Scan-d89-09-n800
 OpenBabel11261920573D

 18 17  0  0  0  0  0  0  0  0999 V2000
   -1.8934    0.5707    0.0149 C   0  0  0  0  0  0  0  0  0  0  0  0
   -1.6769    0.4783    1.3835 N   0  0  0  0  0  0  0  0  0  0  0  0
   -1.4935    0.2536    2.4570 N   0  0  0  0  0  0  0  0  0  0  0  0
   -2.4794   -0.5507   -0.5984 C   0  0  0  0  0  0  0  0  0  0  0  0
   -2.6854   -0.4920   -1.9693 C   0  0  0  0  0  0  0  0  0  0  0  0
   -2.3054    0.6505   -2.6860 C   0  0  0  0  0  0  0  0  0  0  0  0
   -1.7177    1.7442   -2.0427 C   0  0  0  0  0  0  0  0  0  0  0  0
   -1.5041    1.7312   -0.6686 C   0  0  0  0  0  0  0  0  0  0  0  0
   -2.7649   -1.4176   -0.0131 H   0  0  0  0  0  0  0  0  0  0  0  0
   -3.1419   -1.3338   -2.4785 H   0  0  0  0  0  0  0  0  0  0  0  0
   -2.4736    0.6861   -3.7580 H   0  0  0  0  0  0  0  0  0  0  0  0
   -1.4315    2.6221   -2.6117 H   0  0  0  0  0  0  0  0  0  0  0  0
   -1.0629    2.5468   -0.1031 H   0  0  0  0  0  0  0  0  0  0  0  0
   -1.8546    3.2835    2.3966 B   0  0  0  0  0  0  0  0  0  0  0  0
   -1.8107    2.6319    3.6333 F   0  0  0  0  0  0  0  0  0  0  0  0
   -0.6209    3.0039    1.7096 F   0  0  0  0  0  0  0  0  0  0  0  0
   -2.8785    2.6696    1.6062 F   0  0  0  0  0  0  0  0  0  0  0  0
   -2.0586    4.6347    2.5031 F   0  0  0  0  0  0  0  0  0  0  0  0
  1  2  1  0  0  0  0
  2  3  1  0  0  0  0
  4  9  1  0  0  0  0
  4  1  1  0  0  0  0
  5  4  2  0  0  0  0
  6  7  2  0  0  0  0
  6  5  1  0  0  0  0
  7  8  1  0  0  0  0
  8 13  1  0  0  0  0
  8  1  2  0  0  0  0
 10  5  1  0  0  0  0
 11  6  1  0  0  0  0
 12  7  1  0  0  0  0
 14 18  1  0  0  0  0
 14 15  1  0  0  0  0
 16 14  1  0  0  0  0
 17 14  1  0  0  0  0
M  RAD  2   2   2   3   3
M  END
