Coordinates from ORCA-job PhN2+~BF4-_B3LYPG-6-31G_dp-NX-Scan-d89-09-n800
 OpenBabel11261920573D

 18 17  0  0  0  0  0  0  0  0999 V2000
   -2.0492    0.4257    0.1023 C   0  0  0  0  0  0  0  0  0  0  0  0
   -2.0419    0.2675    1.4915 N   0  0  0  0  0  0  0  0  0  0  0  0
   -1.7498    0.7101    2.5158 N   0  0  0  0  0  0  0  0  0  0  0  0
   -2.6188   -0.6294   -0.6268 C   0  0  0  0  0  0  0  0  0  0  0  0
   -2.6554   -0.5434   -2.0130 C   0  0  0  0  0  0  0  0  0  0  0  0
   -2.1281    0.5846   -2.6502 C   0  0  0  0  0  0  0  0  0  0  0  0
   -1.5642    1.6268   -1.9072 C   0  0  0  0  0  0  0  0  0  0  0  0
   -1.5136    1.5680   -0.5180 C   0  0  0  0  0  0  0  0  0  0  0  0
   -3.0194   -1.4877   -0.0989 H   0  0  0  0  0  0  0  0  0  0  0  0
   -3.0926   -1.3487   -2.5938 H   0  0  0  0  0  0  0  0  0  0  0  0
   -2.1598    0.6534   -3.7337 H   0  0  0  0  0  0  0  0  0  0  0  0
   -1.1637    2.5002   -2.4113 H   0  0  0  0  0  0  0  0  0  0  0  0
   -1.0919    2.3776    0.0621 H   0  0  0  0  0  0  0  0  0  0  0  0
   -1.8815    3.5204    2.2398 B   0  0  0  0  0  0  0  0  0  0  0  0
   -0.9551    2.1924    2.3412 F   0  0  0  0  0  0  0  0  0  0  0  0
   -1.2534    4.2026    1.2281 F   0  0  0  0  0  0  0  0  0  0  0  0
   -3.1003    3.0031    1.8851 F   0  0  0  0  0  0  0  0  0  0  0  0
   -1.8152    4.0900    3.4619 F   0  0  0  0  0  0  0  0  0  0  0  0
  1  2  1  0  0  0  0
  2  3  2  0  0  0  0
  4  9  1  0  0  0  0
  4  1  2  0  0  0  0
  5  4  1  0  0  0  0
  6  5  2  0  0  0  0
  6  7  1  0  0  0  0
  7  8  2  0  0  0  0
  8 13  1  0  0  0  0
  8  1  1  0  0  0  0
 10  5  1  0  0  0  0
 11  6  1  0  0  0  0
 12  7  1  0  0  0  0
 14 15  1  0  0  0  0
 14 18  1  0  0  0  0
 16 14  1  0  0  0  0
 17 14  1  0  0  0  0
M  RAD  1   3   2
M  END
