Coordinates from ORCA-job PhN2+~BF4-_B3LYPG-6-31G_dp-NX-Scan-d89-09-n800
 OpenBabel11261920563D

 18 17  0  0  0  0  0  0  0  0999 V2000
   -1.2546   -0.5322    0.1621 C   0  0  0  0  0  0  0  0  0  0  0  0
   -0.8582   -1.5521    0.9501 N   0  0  0  0  0  0  0  0  0  0  0  0
   -0.5302   -2.3808    1.6347 N   0  0  0  0  0  0  0  0  0  0  0  0
   -2.4859   -0.6544   -0.5351 C   0  0  0  0  0  0  0  0  0  0  0  0
   -2.9369    0.4522   -1.2159 C   0  0  0  0  0  0  0  0  0  0  0  0
   -2.2113    1.6603   -1.1670 C   0  0  0  0  0  0  0  0  0  0  0  0
   -0.9432    1.7275   -0.5489 C   0  0  0  0  0  0  0  0  0  0  0  0
   -0.4546    0.6432    0.1365 C   0  0  0  0  0  0  0  0  0  0  0  0
   -3.0456   -1.5822   -0.4958 H   0  0  0  0  0  0  0  0  0  0  0  0
   -3.8886    0.4166   -1.7331 H   0  0  0  0  0  0  0  0  0  0  0  0
   -2.6148    2.5602   -1.6187 H   0  0  0  0  0  0  0  0  0  0  0  0
   -0.4293    2.6788   -0.5134 H   0  0  0  0  0  0  0  0  0  0  0  0
    0.4805    0.6774    0.6835 H   0  0  0  0  0  0  0  0  0  0  0  0
   -2.9434    3.9566    0.6219 B   0  0  0  0  0  0  0  0  0  0  0  0
   -3.6476    4.6689    1.5609 F   0  0  0  0  0  0  0  0  0  0  0  0
   -3.2474    4.3489   -0.6995 F   0  0  0  0  0  0  0  0  0  0  0  0
   -1.5501    4.0648    0.8213 F   0  0  0  0  0  0  0  0  0  0  0  0
   -3.2927    2.5595    0.7314 F   0  0  0  0  0  0  0  0  0  0  0  0
  1  2  1  0  0  0  0
  2  3  1  0  0  0  0
  4  9  1  0  0  0  0
  4  1  2  0  0  0  0
  5  6  2  0  0  0  0
  5  4  1  0  0  0  0
  6  7  1  0  0  0  0
  7 12  1  0  0  0  0
  7  8  2  0  0  0  0
  8  1  1  0  0  0  0
  8 13  1  0  0  0  0
 10  5  1  0  0  0  0
 11  6  1  0  0  0  0
 14 18  1  0  0  0  0
 14 17  1  0  0  0  0
 14 15  1  0  0  0  0
 16 14  1  0  0  0  0
M  RAD  2   2   2   3   3
M  END
