Coordinates from ORCA-job PhN2+~BF4-_B3LYPG-6-31G_dp-NX-Scan-d89-09-n800
 OpenBabel11261920563D

 18 17  0  0  0  0  0  0  0  0999 V2000
   -1.6686    0.4859    0.0883 C   0  0  0  0  0  0  0  0  0  0  0  0
   -1.2791    0.1758    1.3769 N   0  0  0  0  0  0  0  0  0  0  0  0
   -0.9402   -0.2141    2.3614 N   0  0  0  0  0  0  0  0  0  0  0  0
   -2.5045   -0.4464   -0.5585 C   0  0  0  0  0  0  0  0  0  0  0  0
   -2.8551   -0.1795   -1.8705 C   0  0  0  0  0  0  0  0  0  0  0  0
   -2.3769    0.9794   -2.5034 C   0  0  0  0  0  0  0  0  0  0  0  0
   -1.5528    1.8828   -1.8321 C   0  0  0  0  0  0  0  0  0  0  0  0
   -1.1870    1.6604   -0.5080 C   0  0  0  0  0  0  0  0  0  0  0  0
   -2.8576   -1.3281   -0.0366 H   0  0  0  0  0  0  0  0  0  0  0  0
   -3.5016   -0.8682   -2.4034 H   0  0  0  0  0  0  0  0  0  0  0  0
   -2.6628    1.1782   -3.5315 H   0  0  0  0  0  0  0  0  0  0  0  0
   -1.2094    2.7844   -2.3263 H   0  0  0  0  0  0  0  0  0  0  0  0
   -0.5951    2.3479    0.0812 H   0  0  0  0  0  0  0  0  0  0  0  0
   -2.1544    3.0849    2.1093 B   0  0  0  0  0  0  0  0  0  0  0  0
   -2.3800    4.0372    3.0732 F   0  0  0  0  0  0  0  0  0  0  0  0
   -0.7708    2.6714    2.0977 F   0  0  0  0  0  0  0  0  0  0  0  0
   -2.9014    1.8964    2.3366 F   0  0  0  0  0  0  0  0  0  0  0  0
   -2.4567    3.5646    0.8206 F   0  0  0  0  0  0  0  0  0  0  0  0
  1  2  1  0  0  0  0
  2  3  1  0  0  0  0
  4  9  1  0  0  0  0
  4  1  2  0  0  0  0
  5  4  1  0  0  0  0
  6  5  2  0  0  0  0
  6  7  1  0  0  0  0
  7  8  2  0  0  0  0
  8 13  1  0  0  0  0
  8  1  1  0  0  0  0
 10  5  1  0  0  0  0
 11  6  1  0  0  0  0
 12  7  1  0  0  0  0
 14 17  1  0  0  0  0
 14 15  1  0  0  0  0
 16 14  1  0  0  0  0
 18 14  1  0  0  0  0
M  RAD  2   2   2   3   3
M  END
