Coordinates from ORCA-job PhN2+~BF4-_B3LYPG-6-31G_dp-NX-Scan-d89-09-n800
 OpenBabel11261920563D

 18 17  0  0  0  0  0  0  0  0999 V2000
   -1.2205   -0.6482    0.1315 C   0  0  0  0  0  0  0  0  0  0  0  0
   -0.7302   -1.7415    0.7539 N   0  0  0  0  0  0  0  0  0  0  0  0
   -0.3185   -2.6378    1.2914 N   0  0  0  0  0  0  0  0  0  0  0  0
   -2.4442   -0.7675   -0.5762 C   0  0  0  0  0  0  0  0  0  0  0  0
   -2.9565    0.3772   -1.1485 C   0  0  0  0  0  0  0  0  0  0  0  0
   -2.2910    1.6093   -0.9998 C   0  0  0  0  0  0  0  0  0  0  0  0
   -1.0570    1.6943   -0.3164 C   0  0  0  0  0  0  0  0  0  0  0  0
   -0.5060    0.5758    0.2589 C   0  0  0  0  0  0  0  0  0  0  0  0
   -2.9448   -1.7269   -0.6447 H   0  0  0  0  0  0  0  0  0  0  0  0
   -3.8972    0.3338   -1.6856 H   0  0  0  0  0  0  0  0  0  0  0  0
   -2.7139    2.5201   -1.4143 H   0  0  0  0  0  0  0  0  0  0  0  0
   -0.6204    2.6770   -0.1726 H   0  0  0  0  0  0  0  0  0  0  0  0
    0.4191    0.6098    0.8230 H   0  0  0  0  0  0  0  0  0  0  0  0
   -2.9239    4.2015    0.5078 B   0  0  0  0  0  0  0  0  0  0  0  0
   -3.6050    5.0810    1.3113 F   0  0  0  0  0  0  0  0  0  0  0  0
   -3.2724    4.3463   -0.8575 F   0  0  0  0  0  0  0  0  0  0  0  0
   -1.5228    4.3578    0.6318 F   0  0  0  0  0  0  0  0  0  0  0  0
   -3.2487    2.8512    0.8809 F   0  0  0  0  0  0  0  0  0  0  0  0
  1  8  1  0  0  0  0
  1  2  1  0  0  0  0
  2  3  1  0  0  0  0
  4  1  2  0  0  0  0
  5  6  2  0  0  0  0
  5  4  1  0  0  0  0
  6  7  1  0  0  0  0
  7 12  1  0  0  0  0
  7  8  2  0  0  0  0
  8 13  1  0  0  0  0
  9  4  1  0  0  0  0
 10  5  1  0  0  0  0
 11  6  1  0  0  0  0
 14 17  1  0  0  0  0
 14 18  1  0  0  0  0
 14 15  1  0  0  0  0
 16 14  1  0  0  0  0
M  RAD  2   2   2   3   3
M  END
