Coordinates from ORCA-job PhN2+~BF4-_B3LYPG-6-31G_dp-NX-Scan-d89-09-n800
 OpenBabel11261920563D

 18 17  0  0  0  0  0  0  0  0999 V2000
   -1.2680   -0.1718    0.2622 C   0  0  0  0  0  0  0  0  0  0  0  0
   -0.7560   -1.0480    1.1558 N   0  0  0  0  0  0  0  0  0  0  0  0
   -0.3233   -1.7938    1.8767 N   0  0  0  0  0  0  0  0  0  0  0  0
   -2.5659   -0.4210   -0.2537 C   0  0  0  0  0  0  0  0  0  0  0  0
   -3.0605    0.4728   -1.1740 C   0  0  0  0  0  0  0  0  0  0  0  0
   -2.3021    1.5964   -1.5544 C   0  0  0  0  0  0  0  0  0  0  0  0
   -1.0103    1.8119   -1.0456 C   0  0  0  0  0  0  0  0  0  0  0  0
   -0.4825    0.9446   -0.1147 C   0  0  0  0  0  0  0  0  0  0  0  0
   -3.1312   -1.2836    0.0798 H   0  0  0  0  0  0  0  0  0  0  0  0
   -4.0570    0.3360   -1.5761 H   0  0  0  0  0  0  0  0  0  0  0  0
   -2.7093    2.2924   -2.2748 H   0  0  0  0  0  0  0  0  0  0  0  0
   -0.4653    2.7045   -1.3186 H   0  0  0  0  0  0  0  0  0  0  0  0
    0.4906    1.1055    0.3333 H   0  0  0  0  0  0  0  0  0  0  0  0
   -2.8445    3.4540    0.9045 B   0  0  0  0  0  0  0  0  0  0  0  0
   -3.5242    4.3476    1.7046 F   0  0  0  0  0  0  0  0  0  0  0  0
   -1.6228    3.9898    0.4459 F   0  0  0  0  0  0  0  0  0  0  0  0
   -2.5803    2.2349    1.5761 F   0  0  0  0  0  0  0  0  0  0  0  0
   -3.6413    3.1409   -0.2521 F   0  0  0  0  0  0  0  0  0  0  0  0
  1  2  1  0  0  0  0
  2  3  1  0  0  0  0
  4  9  1  0  0  0  0
  4  1  2  0  0  0  0
  5  4  1  0  0  0  0
  6  5  2  0  0  0  0
  6  7  1  0  0  0  0
  7  8  2  0  0  0  0
  8  1  1  0  0  0  0
  8 13  1  0  0  0  0
 10  5  1  0  0  0  0
 11  6  1  0  0  0  0
 12  7  1  0  0  0  0
 14 17  1  0  0  0  0
 14 15  1  0  0  0  0
 16 14  1  0  0  0  0
 18 14  1  0  0  0  0
M  RAD  2   2   2   3   3
M  END
