Coordinates from ORCA-job PhN2+~BF4-_B3LYPG-6-31G_dp-NX-Scan-d89-09-n800
 OpenBabel11261920563D

 18 17  0  0  0  0  0  0  0  0999 V2000
   -1.2392   -0.5808    0.1533 C   0  0  0  0  0  0  0  0  0  0  0  0
   -0.8145   -1.6395    0.8723 N   0  0  0  0  0  0  0  0  0  0  0  0
   -0.4601   -2.5047    1.4960 N   0  0  0  0  0  0  0  0  0  0  0  0
   -2.4759   -0.6840   -0.5371 C   0  0  0  0  0  0  0  0  0  0  0  0
   -2.9407    0.4448   -1.1718 C   0  0  0  0  0  0  0  0  0  0  0  0
   -2.2215    1.6549   -1.0904 C   0  0  0  0  0  0  0  0  0  0  0  0
   -0.9583    1.7124   -0.4591 C   0  0  0  0  0  0  0  0  0  0  0  0
   -0.4556    0.6066    0.1795 C   0  0  0  0  0  0  0  0  0  0  0  0
   -3.0255   -1.6187   -0.5349 H   0  0  0  0  0  0  0  0  0  0  0  0
   -3.8931    0.4190   -1.6884 H   0  0  0  0  0  0  0  0  0  0  0  0
   -2.6224    2.5610   -1.5329 H   0  0  0  0  0  0  0  0  0  0  0  0
   -0.4607    2.6711   -0.3867 H   0  0  0  0  0  0  0  0  0  0  0  0
    0.4817    0.6278    0.7235 H   0  0  0  0  0  0  0  0  0  0  0  0
   -2.9614    4.0459    0.5639 B   0  0  0  0  0  0  0  0  0  0  0  0
   -3.6610    4.8039    1.4689 F   0  0  0  0  0  0  0  0  0  0  0  0
   -3.3043    4.3457   -0.7735 F   0  0  0  0  0  0  0  0  0  0  0  0
   -1.5663    4.1964    0.7200 F   0  0  0  0  0  0  0  0  0  0  0  0
   -3.2752    2.6513    0.7723 F   0  0  0  0  0  0  0  0  0  0  0  0
  1  8  1  0  0  0  0
  1  2  1  0  0  0  0
  2  3  1  0  0  0  0
  4  9  1  0  0  0  0
  4  1  2  0  0  0  0
  5  6  2  0  0  0  0
  5  4  1  0  0  0  0
  6  7  1  0  0  0  0
  7 12  1  0  0  0  0
  7  8  2  0  0  0  0
  8 13  1  0  0  0  0
 10  5  1  0  0  0  0
 11  6  1  0  0  0  0
 14 17  1  0  0  0  0
 14 18  1  0  0  0  0
 14 15  1  0  0  0  0
 16 14  1  0  0  0  0
M  RAD  2   2   2   3   3
M  END
