Coordinates from ORCA-job PhN2+~BF4-_B3LYPG-6-31G_dp-NX-Scan-d89-09-n800
 OpenBabel11261920563D

 18 17  0  0  0  0  0  0  0  0999 V2000
   -1.3051   -0.0508    0.2520 C   0  0  0  0  0  0  0  0  0  0  0  0
   -0.8312   -0.7980    1.2746 N   0  0  0  0  0  0  0  0  0  0  0  0
   -0.4348   -1.4279    2.1146 N   0  0  0  0  0  0  0  0  0  0  0  0
   -2.5790   -0.3737   -0.2762 C   0  0  0  0  0  0  0  0  0  0  0  0
   -3.0683    0.4345   -1.2768 C   0  0  0  0  0  0  0  0  0  0  0  0
   -2.3261    1.5455   -1.7144 C   0  0  0  0  0  0  0  0  0  0  0  0
   -1.0493    1.8202   -1.2063 C   0  0  0  0  0  0  0  0  0  0  0  0
   -0.5289    1.0435   -0.1937 C   0  0  0  0  0  0  0  0  0  0  0  0
   -3.1379   -1.2145    0.1172 H   0  0  0  0  0  0  0  0  0  0  0  0
   -4.0510    0.2425   -1.6908 H   0  0  0  0  0  0  0  0  0  0  0  0
   -2.7447    2.1964   -2.4716 H   0  0  0  0  0  0  0  0  0  0  0  0
   -0.5120    2.7003   -1.5329 H   0  0  0  0  0  0  0  0  0  0  0  0
    0.4168    1.2765    0.2790 H   0  0  0  0  0  0  0  0  0  0  0  0
   -2.7470    3.2834    1.0414 B   0  0  0  0  0  0  0  0  0  0  0  0
   -3.3743    4.1701    1.8906 F   0  0  0  0  0  0  0  0  0  0  0  0
   -1.3969    3.6416    0.8230 F   0  0  0  0  0  0  0  0  0  0  0  0
   -2.7715    1.9622    1.5679 F   0  0  0  0  0  0  0  0  0  0  0  0
   -3.4124    3.2615   -0.2225 F   0  0  0  0  0  0  0  0  0  0  0  0
  1  2  1  0  0  0  0
  2  3  1  0  0  0  0
  4  9  1  0  0  0  0
  4  1  2  0  0  0  0
  5  4  1  0  0  0  0
  6  5  2  0  0  0  0
  6  7  1  0  0  0  0
  7  8  2  0  0  0  0
  8  1  1  0  0  0  0
  8 13  1  0  0  0  0
 10  5  1  0  0  0  0
 11  6  1  0  0  0  0
 12  7  1  0  0  0  0
 14 17  1  0  0  0  0
 14 15  1  0  0  0  0
 16 14  1  0  0  0  0
 18 14  1  0  0  0  0
M  RAD  2   2   2   3   3
M  END
