Coordinates from ORCA-job PhN2+~BF4-_B3LYPG-6-31G_dp-NX-Scan-d89-09-n800
 OpenBabel11261920573D

 18 17  0  0  0  0  0  0  0  0999 V2000
   -1.9781    0.5522    0.0196 C   0  0  0  0  0  0  0  0  0  0  0  0
   -1.8363    0.4872    1.3978 N   0  0  0  0  0  0  0  0  0  0  0  0
   -1.7155    0.3959    2.5046 N   0  0  0  0  0  0  0  0  0  0  0  0
   -2.4964   -0.5907   -0.6149 C   0  0  0  0  0  0  0  0  0  0  0  0
   -2.6384   -0.5509   -1.9943 C   0  0  0  0  0  0  0  0  0  0  0  0
   -2.2591    0.5974   -2.7024 C   0  0  0  0  0  0  0  0  0  0  0  0
   -1.7341    1.7119   -2.0417 C   0  0  0  0  0  0  0  0  0  0  0  0
   -1.5853    1.7166   -0.6580 C   0  0  0  0  0  0  0  0  0  0  0  0
   -2.7800   -1.4622   -0.0355 H   0  0  0  0  0  0  0  0  0  0  0  0
   -3.0424   -1.4108   -2.5175 H   0  0  0  0  0  0  0  0  0  0  0  0
   -2.3759    0.6196   -3.7818 H   0  0  0  0  0  0  0  0  0  0  0  0
   -1.4433    2.5920   -2.6052 H   0  0  0  0  0  0  0  0  0  0  0  0
   -1.1852    2.5551   -0.0935 H   0  0  0  0  0  0  0  0  0  0  0  0
   -1.7641    3.3433    2.3901 B   0  0  0  0  0  0  0  0  0  0  0  0
   -1.5480    2.3537    3.4052 F   0  0  0  0  0  0  0  0  0  0  0  0
   -0.6100    3.3551    1.5641 F   0  0  0  0  0  0  0  0  0  0  0  0
   -2.8452    2.8799    1.5971 F   0  0  0  0  0  0  0  0  0  0  0  0
   -2.0166    4.5679    2.9415 F   0  0  0  0  0  0  0  0  0  0  0  0
  1  2  1  0  0  0  0
  2  3  1  0  0  0  0
  4  9  1  0  0  0  0
  4  1  1  0  0  0  0
  5  4  2  0  0  0  0
  6  7  2  0  0  0  0
  6  5  1  0  0  0  0
  7  8  1  0  0  0  0
  8 13  1  0  0  0  0
  8  1  2  0  0  0  0
 10  5  1  0  0  0  0
 11  6  1  0  0  0  0
 12  7  1  0  0  0  0
 14 18  1  0  0  0  0
 14 15  1  0  0  0  0
 16 14  1  0  0  0  0
 17 14  1  0  0  0  0
M  RAD  2   2   2   3   3
M  END
