Coordinates from ORCA-job PhN2+~BF4-_B3LYPG-6-31G_dp-NX-Scan-d89-09-n800
 OpenBabel11261920563D

 18 17  0  0  0  0  0  0  0  0999 V2000
   -1.7446    0.2310    0.1327 C   0  0  0  0  0  0  0  0  0  0  0  0
   -1.4132   -0.2505    1.3779 N   0  0  0  0  0  0  0  0  0  0  0  0
   -1.1378   -0.7843    2.3177 N   0  0  0  0  0  0  0  0  0  0  0  0
   -2.5211   -0.6285   -0.6819 C   0  0  0  0  0  0  0  0  0  0  0  0
   -2.8205   -0.1875   -1.9552 C   0  0  0  0  0  0  0  0  0  0  0  0
   -2.3591    1.0696   -2.3917 C   0  0  0  0  0  0  0  0  0  0  0  0
   -1.6036    1.8924   -1.5609 C   0  0  0  0  0  0  0  0  0  0  0  0
   -1.2814    1.4945   -0.2644 C   0  0  0  0  0  0  0  0  0  0  0  0
   -2.8615   -1.5872   -0.3085 H   0  0  0  0  0  0  0  0  0  0  0  0
   -3.4150   -0.8116   -2.6135 H   0  0  0  0  0  0  0  0  0  0  0  0
   -2.6102    1.4050   -3.3929 H   0  0  0  0  0  0  0  0  0  0  0  0
   -1.2843    2.8731   -1.8927 H   0  0  0  0  0  0  0  0  0  0  0  0
   -0.7223    2.1363    0.4156 H   0  0  0  0  0  0  0  0  0  0  0  0
   -2.0339    3.4022    1.9434 B   0  0  0  0  0  0  0  0  0  0  0  0
   -2.4726    4.3789    2.8092 F   0  0  0  0  0  0  0  0  0  0  0  0
   -0.6720    3.6131    1.5731 F   0  0  0  0  0  0  0  0  0  0  0  0
   -2.0959    2.0864    2.5087 F   0  0  0  0  0  0  0  0  0  0  0  0
   -2.8049    3.3803    0.7583 F   0  0  0  0  0  0  0  0  0  0  0  0
  1  2  1  0  0  0  0
  2  3  1  0  0  0  0
  4  9  1  0  0  0  0
  4  1  2  0  0  0  0
  5  4  1  0  0  0  0
  6  5  2  0  0  0  0
  6  7  1  0  0  0  0
  7  8  2  0  0  0  0
  8  1  1  0  0  0  0
  8 13  1  0  0  0  0
 10  5  1  0  0  0  0
 11  6  1  0  0  0  0
 12  7  1  0  0  0  0
 14 17  1  0  0  0  0
 14 15  1  0  0  0  0
 16 14  1  0  0  0  0
 18 14  1  0  0  0  0
M  RAD  2   2   2   3   3
M  END
