Coordinates from ORCA-job PhN2+~BF4-_B3LYPG-6-31G_dp-NX-Scan-d89-09-n800
 OpenBabel11261920563D

 18 17  0  0  0  0  0  0  0  0999 V2000
   -1.2553   -0.4178    0.1792 C   0  0  0  0  0  0  0  0  0  0  0  0
   -0.7675   -1.3815    0.9918 N   0  0  0  0  0  0  0  0  0  0  0  0
   -0.3618   -2.1713    1.6793 N   0  0  0  0  0  0  0  0  0  0  0  0
   -2.4912   -0.6536   -0.4804 C   0  0  0  0  0  0  0  0  0  0  0  0
   -3.0082    0.3763   -1.2325 C   0  0  0  0  0  0  0  0  0  0  0  0
   -2.3333    1.6111   -1.3060 C   0  0  0  0  0  0  0  0  0  0  0  0
   -1.0794    1.7978   -0.6951 C   0  0  0  0  0  0  0  0  0  0  0  0
   -0.5295    0.7966    0.0707 C   0  0  0  0  0  0  0  0  0  0  0  0
   -3.0009   -1.6035   -0.3656 H   0  0  0  0  0  0  0  0  0  0  0  0
   -3.9649    0.2540   -1.7265 H   0  0  0  0  0  0  0  0  0  0  0  0
   -2.7638    2.4435   -1.8451 H   0  0  0  0  0  0  0  0  0  0  0  0
   -0.6210    2.7758   -0.7448 H   0  0  0  0  0  0  0  0  0  0  0  0
    0.3995    0.9295    0.6120 H   0  0  0  0  0  0  0  0  0  0  0  0
   -2.8194    3.8187    0.7512 B   0  0  0  0  0  0  0  0  0  0  0  0
   -3.5114    4.7835    1.4444 F   0  0  0  0  0  0  0  0  0  0  0  0
   -2.2539    4.3410   -0.4446 F   0  0  0  0  0  0  0  0  0  0  0  0
   -1.7858    3.2546    1.5252 F   0  0  0  0  0  0  0  0  0  0  0  0
   -3.7062    2.7584    0.3617 F   0  0  0  0  0  0  0  0  0  0  0  0
  1  2  1  0  0  0  0
  2  3  1  0  0  0  0
  4  9  1  0  0  0  0
  4  1  2  0  0  0  0
  5  4  1  0  0  0  0
  6  5  2  0  0  0  0
  6  7  1  0  0  0  0
  7  8  2  0  0  0  0
  8  1  1  0  0  0  0
  8 13  1  0  0  0  0
 10  5  1  0  0  0  0
 11  6  1  0  0  0  0
 12  7  1  0  0  0  0
 14 15  1  0  0  0  0
 14 17  1  0  0  0  0
 16 14  1  0  0  0  0
 18 14  1  0  0  0  0
M  RAD  2   2   2   3   3
M  END
