Coordinates from ORCA-job PhN2+~BF4-_B3LYPG-6-31G_dp-NX-Scan-d89-09-n800
 OpenBabel11261920573D

 18 17  0  0  0  0  0  0  0  0999 V2000
   -2.0308    0.4101    0.1050 C   0  0  0  0  0  0  0  0  0  0  0  0
   -2.0418    0.2140    1.4960 N   0  0  0  0  0  0  0  0  0  0  0  0
   -1.6940    0.7473    2.4838 N   0  0  0  0  0  0  0  0  0  0  0  0
   -2.6181   -0.6319   -0.6304 C   0  0  0  0  0  0  0  0  0  0  0  0
   -2.6639   -0.5509   -2.0173 C   0  0  0  0  0  0  0  0  0  0  0  0
   -2.1254    0.5662   -2.6619 C   0  0  0  0  0  0  0  0  0  0  0  0
   -1.5429    1.5997   -1.9215 C   0  0  0  0  0  0  0  0  0  0  0  0
   -1.4853    1.5403   -0.5323 C   0  0  0  0  0  0  0  0  0  0  0  0
   -3.0277   -1.4836   -0.0984 H   0  0  0  0  0  0  0  0  0  0  0  0
   -3.1166   -1.3522   -2.5922 H   0  0  0  0  0  0  0  0  0  0  0  0
   -2.1617    0.6340   -3.7454 H   0  0  0  0  0  0  0  0  0  0  0  0
   -1.1310    2.4662   -2.4289 H   0  0  0  0  0  0  0  0  0  0  0  0
   -1.0435    2.3418    0.0397 H   0  0  0  0  0  0  0  0  0  0  0  0
   -1.9694    3.6460    2.2765 B   0  0  0  0  0  0  0  0  0  0  0  0
   -0.9550    2.1168    2.2054 F   0  0  0  0  0  0  0  0  0  0  0  0
   -1.3022    4.3202    1.3181 F   0  0  0  0  0  0  0  0  0  0  0  0
   -3.1584    3.1159    1.9322 F   0  0  0  0  0  0  0  0  0  0  0  0
   -1.7859    4.0133    3.5466 F   0  0  0  0  0  0  0  0  0  0  0  0
  1  2  1  0  0  0  0
  2  3  1  0  0  0  0
  4  9  1  0  0  0  0
  4  1  2  0  0  0  0
  5  4  1  0  0  0  0
  6  5  2  0  0  0  0
  6  7  1  0  0  0  0
  7  8  2  0  0  0  0
  8 13  1  0  0  0  0
  8  1  1  0  0  0  0
 10  5  1  0  0  0  0
 11  6  1  0  0  0  0
 12  7  1  0  0  0  0
 14 18  1  0  0  0  0
 15  3  1  0  0  0  0
 16 14  1  0  0  0  0
 17 14  1  0  0  0  0
M  RAD  2   2   2   3   2
M  END
