Coordinates from ORCA-job PhN2+~BF4-_B3LYPG-6-31G_dp-NX-Scan-d89-09-n800
 OpenBabel11261920563D

 18 17  0  0  0  0  0  0  0  0999 V2000
   -1.7263    0.3493    0.1008 C   0  0  0  0  0  0  0  0  0  0  0  0
   -1.3742   -0.0326    1.3776 N   0  0  0  0  0  0  0  0  0  0  0  0
   -1.0636   -0.4558    2.3592 N   0  0  0  0  0  0  0  0  0  0  0  0
   -2.5162   -0.5579   -0.6384 C   0  0  0  0  0  0  0  0  0  0  0  0
   -2.8316   -0.2048   -1.9373 C   0  0  0  0  0  0  0  0  0  0  0  0
   -2.3683    1.0127   -2.4671 C   0  0  0  0  0  0  0  0  0  0  0  0
   -1.5941    1.8867   -1.7060 C   0  0  0  0  0  0  0  0  0  0  0  0
   -1.2584    1.5778   -0.3899 C   0  0  0  0  0  0  0  0  0  0  0  0
   -2.8585   -1.4853   -0.1941 H   0  0  0  0  0  0  0  0  0  0  0  0
   -3.4393   -0.8695   -2.5416 H   0  0  0  0  0  0  0  0  0  0  0  0
   -2.6291    1.2785   -3.4866 H   0  0  0  0  0  0  0  0  0  0  0  0
   -1.2675    2.8344   -2.1180 H   0  0  0  0  0  0  0  0  0  0  0  0
   -0.6941    2.2442    0.2590 H   0  0  0  0  0  0  0  0  0  0  0  0
   -2.0626    3.2603    2.0530 B   0  0  0  0  0  0  0  0  0  0  0  0
   -2.4385    4.2132    2.9671 F   0  0  0  0  0  0  0  0  0  0  0  0
   -0.6431    3.2197    1.8908 F   0  0  0  0  0  0  0  0  0  0  0  0
   -2.4556    1.9460    2.4622 F   0  0  0  0  0  0  0  0  0  0  0  0
   -2.6329    3.4963    0.7844 F   0  0  0  0  0  0  0  0  0  0  0  0
  1  2  1  0  0  0  0
  2  3  1  0  0  0  0
  4  9  1  0  0  0  0
  4  1  2  0  0  0  0
  5  4  1  0  0  0  0
  6  5  2  0  0  0  0
  6  7  1  0  0  0  0
  7  8  2  0  0  0  0
  8  1  1  0  0  0  0
  8 13  1  0  0  0  0
 10  5  1  0  0  0  0
 11  6  1  0  0  0  0
 12  7  1  0  0  0  0
 14 17  1  0  0  0  0
 14 15  1  0  0  0  0
 16 14  1  0  0  0  0
 18 14  1  0  0  0  0
M  RAD  2   2   2   3   3
M  END
