Coordinates from ORCA-job PhN2+~BF4-_B3LYPG-6-31G_dp-NX-Scan-d89-09-n800
 OpenBabel11261920573D

 18 17  0  0  0  0  0  0  0  0999 V2000
   -2.3388    0.3564   -0.0233 C   0  0  0  0  0  0  0  0  0  0  0  0
   -2.6809    0.1746    1.3504 N   0  0  0  0  0  0  0  0  0  0  0  0
   -2.2163    0.8331    2.2920 N   0  0  0  0  0  0  0  0  0  0  0  0
   -2.5335   -0.8003   -0.7960 C   0  0  0  0  0  0  0  0  0  0  0  0
   -2.2807   -0.7891   -2.1642 C   0  0  0  0  0  0  0  0  0  0  0  0
   -1.8715    0.3933   -2.7849 C   0  0  0  0  0  0  0  0  0  0  0  0
   -1.7150    1.5570   -2.0283 C   0  0  0  0  0  0  0  0  0  0  0  0
   -1.9335    1.5503   -0.6517 C   0  0  0  0  0  0  0  0  0  0  0  0
   -2.8804   -1.6977   -0.2947 H   0  0  0  0  0  0  0  0  0  0  0  0
   -2.4190   -1.6947   -2.7471 H   0  0  0  0  0  0  0  0  0  0  0  0
   -1.6841    0.4116   -3.8545 H   0  0  0  0  0  0  0  0  0  0  0  0
   -1.4118    2.4814   -2.5107 H   0  0  0  0  0  0  0  0  0  0  0  0
   -1.8100    2.4664   -0.0909 H   0  0  0  0  0  0  0  0  0  0  0  0
   -1.6714    4.1836    2.7738 B   0  0  0  0  0  0  0  0  0  0  0  0
   -1.3872    1.6919    1.9939 F   0  0  0  0  0  0  0  0  0  0  0  0
   -1.5846    4.4520    1.4797 F   0  0  0  0  0  0  0  0  0  0  0  0
   -2.8420    3.8969    3.3042 F   0  0  0  0  0  0  0  0  0  0  0  0
   -0.5930    4.2465    3.5273 F   0  0  0  0  0  0  0  0  0  0  0  0
  1  2  1  0  0  0  0
  2  3  2  0  0  0  0
  4  9  1  0  0  0  0
  4  1  2  0  0  0  0
  5  4  1  0  0  0  0
  6  5  2  0  0  0  0
  6  7  1  0  0  0  0
  7  8  2  0  0  0  0
  8 13  1  0  0  0  0
  8  1  1  0  0  0  0
 10  5  1  0  0  0  0
 11  6  1  0  0  0  0
 12  7  1  0  0  0  0
 14 17  1  0  0  0  0
 14 18  1  0  0  0  0
 15  3  1  0  0  0  0
 16 14  1  0  0  0  0
M  END
