Coordinates from ORCA-job PhN2+~BF4-_B3LYPG-6-31G_dp-NX-Scan-d89-09-n800
 OpenBabel11261920563D

 18 17  0  0  0  0  0  0  0  0999 V2000
   -1.7452    0.2499    0.1310 C   0  0  0  0  0  0  0  0  0  0  0  0
   -1.4150   -0.2212    1.3812 N   0  0  0  0  0  0  0  0  0  0  0  0
   -1.1385   -0.7501    2.3233 N   0  0  0  0  0  0  0  0  0  0  0  0
   -2.5270   -0.6136   -0.6733 C   0  0  0  0  0  0  0  0  0  0  0  0
   -2.8250   -0.1855   -1.9516 C   0  0  0  0  0  0  0  0  0  0  0  0
   -2.3560    1.0629   -2.4029 C   0  0  0  0  0  0  0  0  0  0  0  0
   -1.5946    1.8905   -1.5821 C   0  0  0  0  0  0  0  0  0  0  0  0
   -1.2752    1.5066   -0.2807 C   0  0  0  0  0  0  0  0  0  0  0  0
   -2.8727   -1.5661   -0.2890 H   0  0  0  0  0  0  0  0  0  0  0  0
   -3.4237   -0.8136   -2.6021 H   0  0  0  0  0  0  0  0  0  0  0  0
   -2.6049    1.3880   -3.4081 H   0  0  0  0  0  0  0  0  0  0  0  0
   -1.2680    2.8641   -1.9275 H   0  0  0  0  0  0  0  0  0  0  0  0
   -0.7123    2.1521    0.3924 H   0  0  0  0  0  0  0  0  0  0  0  0
   -2.0369    3.3804    1.9571 B   0  0  0  0  0  0  0  0  0  0  0  0
   -2.4842    4.3465    2.8300 F   0  0  0  0  0  0  0  0  0  0  0  0
   -0.6740    3.5977    1.5976 F   0  0  0  0  0  0  0  0  0  0  0  0
   -2.0995    2.0592    2.5119 F   0  0  0  0  0  0  0  0  0  0  0  0
   -2.8012    3.3652    0.7680 F   0  0  0  0  0  0  0  0  0  0  0  0
  1  2  1  0  0  0  0
  2  3  1  0  0  0  0
  4  9  1  0  0  0  0
  4  1  2  0  0  0  0
  5  4  1  0  0  0  0
  6  5  2  0  0  0  0
  6  7  1  0  0  0  0
  7  8  2  0  0  0  0
  8  1  1  0  0  0  0
  8 13  1  0  0  0  0
 10  5  1  0  0  0  0
 11  6  1  0  0  0  0
 12  7  1  0  0  0  0
 14 17  1  0  0  0  0
 14 15  1  0  0  0  0
 16 14  1  0  0  0  0
 18 14  1  0  0  0  0
M  RAD  2   2   2   3   3
M  END
