Coordinates from ORCA-job PhN2+~BF4-_B3LYPG-6-31G_dp-NX-Scan-d89-09-n800
 OpenBabel11261920573D

 18 17  0  0  0  0  0  0  0  0999 V2000
   -1.9041    0.5727    0.0145 C   0  0  0  0  0  0  0  0  0  0  0  0
   -1.7014    0.4920    1.3857 N   0  0  0  0  0  0  0  0  0  0  0  0
   -1.5341    0.2959    2.4681 N   0  0  0  0  0  0  0  0  0  0  0  0
   -2.4753   -0.5568   -0.5978 C   0  0  0  0  0  0  0  0  0  0  0  0
   -2.6746   -0.5061   -1.9700 C   0  0  0  0  0  0  0  0  0  0  0  0
   -2.3015    0.6372   -2.6892 C   0  0  0  0  0  0  0  0  0  0  0  0
   -1.7258    1.7382   -2.0477 C   0  0  0  0  0  0  0  0  0  0  0  0
   -1.5191    1.7330   -0.6722 C   0  0  0  0  0  0  0  0  0  0  0  0
   -2.7554   -1.4239   -0.0103 H   0  0  0  0  0  0  0  0  0  0  0  0
   -3.1203   -1.3543   -2.4781 H   0  0  0  0  0  0  0  0  0  0  0  0
   -2.4652    0.6671   -3.7622 H   0  0  0  0  0  0  0  0  0  0  0  0
   -1.4437    2.6158   -2.6193 H   0  0  0  0  0  0  0  0  0  0  0  0
   -1.0852    2.5547   -0.1098 H   0  0  0  0  0  0  0  0  0  0  0  0
   -1.8385    3.2891    2.3964 B   0  0  0  0  0  0  0  0  0  0  0  0
   -1.7999    2.5410    3.5859 F   0  0  0  0  0  0  0  0  0  0  0  0
   -0.6091    3.0495    1.6953 F   0  0  0  0  0  0  0  0  0  0  0  0
   -2.8685    2.7410    1.5717 F   0  0  0  0  0  0  0  0  0  0  0  0
   -2.0321    4.6272    2.6140 F   0  0  0  0  0  0  0  0  0  0  0  0
  1  2  1  0  0  0  0
  2  3  1  0  0  0  0
  4  9  1  0  0  0  0
  4  1  1  0  0  0  0
  5  4  2  0  0  0  0
  6  7  2  0  0  0  0
  6  5  1  0  0  0  0
  7  8  1  0  0  0  0
  8 13  1  0  0  0  0
  8  1  2  0  0  0  0
 10  5  1  0  0  0  0
 11  6  1  0  0  0  0
 12  7  1  0  0  0  0
 14 18  1  0  0  0  0
 14 15  1  0  0  0  0
 16 14  1  0  0  0  0
 17 14  1  0  0  0  0
M  RAD  2   2   2   3   3
M  END
