Coordinates from ORCA-job PhN2+~BF4-_B3LYPG-6-31G_dp-NX-Scan-d89-09-n800
 OpenBabel11261920563D

 18 17  0  0  1  0  0  0  0  0999 V2000
   -1.1707   -0.7826    0.1536 C   0  0  0  0  0  0  0  0  0  0  0  0
   -0.6283   -1.9568    0.3984 N   0  0  0  0  0  0  0  0  0  0  0  0
   -0.1578   -2.9771    0.6097 N   0  0  0  0  0  0  0  0  0  0  0  0
   -2.5116   -0.7023   -0.3854 C   0  0  0  0  0  0  0  0  0  0  0  0
   -3.0436    0.4957   -0.7002 C   0  0  0  0  0  0  0  0  0  0  0  0
   -2.3149    1.7769   -0.5026 C   0  0  2  0  0  0  0  0  0  0  0  0
   -0.9489    1.6292    0.0684 C   0  0  0  0  0  0  0  0  0  0  0  0
   -0.4158    0.4320    0.3834 C   0  0  0  0  0  0  0  0  0  0  0  0
   -3.0645   -1.6221   -0.5476 H   0  0  0  0  0  0  0  0  0  0  0  0
   -4.0422    0.5556   -1.1197 H   0  0  0  0  0  0  0  0  0  0  0  0
   -2.3331    2.4101   -1.3938 H   0  0  0  0  0  0  0  0  0  0  0  0
   -0.3878    2.5427    0.2318 H   0  0  0  0  0  0  0  0  0  0  0  0
    0.5851    0.3539    0.7953 H   0  0  0  0  0  0  0  0  0  0  0  0
   -3.0830    4.6457    0.1068 B   0  0  0  0  0  0  0  0  0  0  0  0
   -4.0445    4.9660    0.9610 F   0  0  0  0  0  0  0  0  0  0  0  0
   -3.3705    4.5479   -1.1926 F   0  0  0  0  0  0  0  0  0  0  0  0
   -1.8070    4.7986    0.4615 F   0  0  0  0  0  0  0  0  0  0  0  0
   -3.1150    2.5997    0.4471 F   0  0  0  0  0  0  0  0  0  0  0  0
  1  8  1  0  0  0  0
  1  2  1  0  0  0  0
  2  3  1  0  0  0  0
  4  1  2  0  0  0  0
  5  6  1  0  0  0  0
  5  4  1  0  0  0  0
  6 11  1  6  0  0  0
  6  7  1  0  0  0  0
  6 18  1  0  0  0  0
  7 12  1  0  0  0  0
  7  8  2  0  0  0  0
  8 13  1  0  0  0  0
  9  4  1  0  0  0  0
 10  5  1  0  0  0  0
 14 17  1  0  0  0  0
 14 15  1  0  0  0  0
 16 14  1  0  0  0  0
M  RAD  3   2   2   3   3   5   2
M  END
