Coordinates from ORCA-job PhN2+~BF4-_B3LYPG-6-31G_dp-NX-Scan-d89-09-n800
 OpenBabel11261920563D

 18 17  0  0  0  0  0  0  0  0999 V2000
   -1.2971   -0.0750    0.2541 C   0  0  0  0  0  0  0  0  0  0  0  0
   -0.8172   -0.8483    1.2537 N   0  0  0  0  0  0  0  0  0  0  0  0
   -0.4158   -1.5006    2.0747 N   0  0  0  0  0  0  0  0  0  0  0  0
   -2.5783   -0.3782   -0.2692 C   0  0  0  0  0  0  0  0  0  0  0  0
   -3.0681    0.4493   -1.2531 C   0  0  0  0  0  0  0  0  0  0  0  0
   -2.3203    1.5612   -1.6802 C   0  0  0  0  0  0  0  0  0  0  0  0
   -1.0375    1.8189   -1.1752 C   0  0  0  0  0  0  0  0  0  0  0  0
   -0.5159    1.0209   -0.1805 C   0  0  0  0  0  0  0  0  0  0  0  0
   -3.1407   -1.2217    0.1137 H   0  0  0  0  0  0  0  0  0  0  0  0
   -4.0552    0.2722   -1.6631 H   0  0  0  0  0  0  0  0  0  0  0  0
   -2.7355    2.2218   -2.4303 H   0  0  0  0  0  0  0  0  0  0  0  0
   -0.4955    2.6992   -1.4931 H   0  0  0  0  0  0  0  0  0  0  0  0
    0.4380    1.2349    0.2851 H   0  0  0  0  0  0  0  0  0  0  0  0
   -2.7682    3.3114    1.0109 B   0  0  0  0  0  0  0  0  0  0  0  0
   -3.4155    4.1903    1.8528 F   0  0  0  0  0  0  0  0  0  0  0  0
   -1.4459    3.7267    0.7408 F   0  0  0  0  0  0  0  0  0  0  0  0
   -2.7165    2.0050    1.5687 F   0  0  0  0  0  0  0  0  0  0  0  0
   -3.4684    3.2251   -0.2347 F   0  0  0  0  0  0  0  0  0  0  0  0
  1  2  1  0  0  0  0
  2  3  1  0  0  0  0
  4  9  1  0  0  0  0
  4  1  2  0  0  0  0
  5  4  1  0  0  0  0
  6  5  2  0  0  0  0
  6  7  1  0  0  0  0
  7  8  2  0  0  0  0
  8  1  1  0  0  0  0
  8 13  1  0  0  0  0
 10  5  1  0  0  0  0
 11  6  1  0  0  0  0
 12  7  1  0  0  0  0
 14 17  1  0  0  0  0
 14 15  1  0  0  0  0
 16 14  1  0  0  0  0
 18 14  1  0  0  0  0
M  RAD  2   2   2   3   3
M  END
