Coordinates from ORCA-job PhN2+~BF4-_B3LYPG-6-31G_dp-NX-Scan-d89-09-n800
 OpenBabel11261920573D

 18 17  0  0  0  0  0  0  0  0999 V2000
   -1.8390    0.5272    0.0311 C   0  0  0  0  0  0  0  0  0  0  0  0
   -1.5747    0.3589    1.3830 N   0  0  0  0  0  0  0  0  0  0  0  0
   -1.3434    0.0785    2.4319 N   0  0  0  0  0  0  0  0  0  0  0  0
   -2.4564   -0.5555   -0.6191 C   0  0  0  0  0  0  0  0  0  0  0  0
   -2.7081   -0.4240   -1.9774 C   0  0  0  0  0  0  0  0  0  0  0  0
   -2.3445    0.7521   -2.6461 C   0  0  0  0  0  0  0  0  0  0  0  0
   -1.7278    1.8078   -1.9668 C   0  0  0  0  0  0  0  0  0  0  0  0
   -1.4666    1.7205   -0.6046 C   0  0  0  0  0  0  0  0  0  0  0  0
   -2.7302   -1.4495   -0.0703 H   0  0  0  0  0  0  0  0  0  0  0  0
   -3.1888   -1.2351   -2.5134 H   0  0  0  0  0  0  0  0  0  0  0  0
   -2.5495    0.8453   -3.7081 H   0  0  0  0  0  0  0  0  0  0  0  0
   -1.4580    2.7148   -2.4968 H   0  0  0  0  0  0  0  0  0  0  0  0
   -1.0041    2.5048   -0.0146 H   0  0  0  0  0  0  0  0  0  0  0  0
   -1.9079    3.2554    2.3385 B   0  0  0  0  0  0  0  0  0  0  0  0
   -1.9587    3.2578    3.7152 F   0  0  0  0  0  0  0  0  0  0  0  0
   -0.6439    2.6803    1.9123 F   0  0  0  0  0  0  0  0  0  0  0  0
   -2.9100    2.3707    1.8152 F   0  0  0  0  0  0  0  0  0  0  0  0
   -2.0422    4.5033    1.7650 F   0  0  0  0  0  0  0  0  0  0  0  0
  1  2  1  0  0  0  0
  2  3  1  0  0  0  0
  4  9  1  0  0  0  0
  4  1  2  0  0  0  0
  5  4  1  0  0  0  0
  6  5  2  0  0  0  0
  6  7  1  0  0  0  0
  7  8  2  0  0  0  0
  8 13  1  0  0  0  0
  8  1  1  0  0  0  0
 10  5  1  0  0  0  0
 11  6  1  0  0  0  0
 12  7  1  0  0  0  0
 14 15  1  0  0  0  0
 16 14  1  0  0  0  0
 17 14  1  0  0  0  0
 18 14  1  0  0  0  0
M  RAD  2   2   2   3   3
M  END
