Coordinates from ORCA-job PhN2+~BF4-_B3LYPG-6-31G_dp-NX-Scan-d89-09-n800
 OpenBabel11261920573D

 18 17  0  0  0  0  0  0  0  0999 V2000
   -2.4667    0.3588   -0.0796 C   0  0  0  0  0  0  0  0  0  0  0  0
   -2.9198    0.2429    1.2785 N   0  0  0  0  0  0  0  0  0  0  0  0
   -2.3130    0.8531    2.2033 N   0  0  0  0  0  0  0  0  0  0  0  0
   -2.5536   -0.8211   -0.8334 C   0  0  0  0  0  0  0  0  0  0  0  0
   -2.2049   -0.8260   -2.1814 C   0  0  0  0  0  0  0  0  0  0  0  0
   -1.8000    0.3572   -2.8042 C   0  0  0  0  0  0  0  0  0  0  0  0
   -1.7453    1.5418   -2.0672 C   0  0  0  0  0  0  0  0  0  0  0  0
   -2.0667    1.5506   -0.7098 C   0  0  0  0  0  0  0  0  0  0  0  0
   -2.8974   -1.7238   -0.3388 H   0  0  0  0  0  0  0  0  0  0  0  0
   -2.2639   -1.7497   -2.7499 H   0  0  0  0  0  0  0  0  0  0  0  0
   -1.5382    0.3584   -3.8579 H   0  0  0  0  0  0  0  0  0  0  0  0
   -1.4452    2.4683   -2.5480 H   0  0  0  0  0  0  0  0  0  0  0  0
   -2.0239    2.4837   -0.1595 H   0  0  0  0  0  0  0  0  0  0  0  0
   -1.5417    4.2967    2.9223 B   0  0  0  0  0  0  0  0  0  0  0  0
   -1.4529    1.4388    1.9536 F   0  0  0  0  0  0  0  0  0  0  0  0
   -1.5790    4.2606    1.5998 F   0  0  0  0  0  0  0  0  0  0  0  0
   -2.5302    3.7763    3.6170 F   0  0  0  0  0  0  0  0  0  0  0  0
   -0.5116    4.8465    3.5301 F   0  0  0  0  0  0  0  0  0  0  0  0
  1  2  1  0  0  0  0
  2  3  2  0  0  0  0
  4  9  1  0  0  0  0
  4  1  2  0  0  0  0
  5  4  1  0  0  0  0
  6  5  2  0  0  0  0
  6  7  1  0  0  0  0
  7  8  2  0  0  0  0
  8 13  1  0  0  0  0
  8  1  1  0  0  0  0
 10  5  1  0  0  0  0
 11  6  1  0  0  0  0
 12  7  1  0  0  0  0
 14 18  1  0  0  0  0
 14 17  1  0  0  0  0
 15  3  1  0  0  0  0
 16 14  1  0  0  0  0
M  END
