Coordinates from ORCA-job PhN2+~BF4-_B3LYPG-6-31G_dp-NX-Scan-d89-09-n800
 OpenBabel11261920563D

 18 17  0  0  0  0  0  0  0  0999 V2000
   -1.6615    0.4584    0.0961 C   0  0  0  0  0  0  0  0  0  0  0  0
   -1.2597    0.1209    1.3724 N   0  0  0  0  0  0  0  0  0  0  0  0
   -0.9070   -0.3008    2.3399 N   0  0  0  0  0  0  0  0  0  0  0  0
   -2.5071   -0.4593   -0.5615 C   0  0  0  0  0  0  0  0  0  0  0  0
   -2.8635   -0.1680   -1.8657 C   0  0  0  0  0  0  0  0  0  0  0  0
   -2.3831    1.0003   -2.4814 C   0  0  0  0  0  0  0  0  0  0  0  0
   -1.5523    1.8888   -1.7999 C   0  0  0  0  0  0  0  0  0  0  0  0
   -1.1796    1.6422   -0.4815 C   0  0  0  0  0  0  0  0  0  0  0  0
   -2.8602   -1.3487   -0.0528 H   0  0  0  0  0  0  0  0  0  0  0  0
   -3.5159   -0.8443   -2.4071 H   0  0  0  0  0  0  0  0  0  0  0  0
   -2.6741    1.2178   -3.5041 H   0  0  0  0  0  0  0  0  0  0  0  0
   -1.2104    2.7990   -2.2790 H   0  0  0  0  0  0  0  0  0  0  0  0
   -0.5818    2.3181    0.1164 H   0  0  0  0  0  0  0  0  0  0  0  0
   -2.1598    3.1105    2.0799 B   0  0  0  0  0  0  0  0  0  0  0  0
   -2.4300    4.1023    2.9937 F   0  0  0  0  0  0  0  0  0  0  0  0
   -0.7660    2.7459    2.0893 F   0  0  0  0  0  0  0  0  0  0  0  0
   -2.8652    1.9056    2.3518 F   0  0  0  0  0  0  0  0  0  0  0  0
   -2.4765    3.5245    0.7685 F   0  0  0  0  0  0  0  0  0  0  0  0
  1  2  1  0  0  0  0
  2  3  1  0  0  0  0
  4  9  1  0  0  0  0
  4  1  2  0  0  0  0
  5  4  1  0  0  0  0
  6  5  2  0  0  0  0
  6  7  1  0  0  0  0
  7  8  2  0  0  0  0
  8  1  1  0  0  0  0
  8 13  1  0  0  0  0
 10  5  1  0  0  0  0
 11  6  1  0  0  0  0
 12  7  1  0  0  0  0
 14 16  1  0  0  0  0
 14 17  1  0  0  0  0
 14 15  1  0  0  0  0
 18 14  1  0  0  0  0
M  RAD  2   2   2   3   3
M  END
