Coordinates from ORCA-job PhN2+~BF4-_B3LYPG-6-31G_dp-NX-Scan-d89-09-n800
 OpenBabel11261920573D

 18 17  0  0  0  0  0  0  0  0999 V2000
   -2.3200    0.3556   -0.0168 C   0  0  0  0  0  0  0  0  0  0  0  0
   -2.6447    0.1690    1.3586 N   0  0  0  0  0  0  0  0  0  0  0  0
   -2.1963    0.8237    2.3047 N   0  0  0  0  0  0  0  0  0  0  0  0
   -2.5346   -0.7968   -0.7910 C   0  0  0  0  0  0  0  0  0  0  0  0
   -2.2979   -0.7826   -2.1621 C   0  0  0  0  0  0  0  0  0  0  0  0
   -1.8852    0.3987   -2.7824 C   0  0  0  0  0  0  0  0  0  0  0  0
   -1.7085    1.5580   -2.0231 C   0  0  0  0  0  0  0  0  0  0  0  0
   -1.9107    1.5486   -0.6442 C   0  0  0  0  0  0  0  0  0  0  0  0
   -2.8833   -1.6928   -0.2888 H   0  0  0  0  0  0  0  0  0  0  0  0
   -2.4514   -1.6845   -2.7467 H   0  0  0  0  0  0  0  0  0  0  0  0
   -1.7103    0.4198   -3.8541 H   0  0  0  0  0  0  0  0  0  0  0  0
   -1.4023    2.4812   -2.5057 H   0  0  0  0  0  0  0  0  0  0  0  0
   -1.7714    2.4605   -0.0811 H   0  0  0  0  0  0  0  0  0  0  0  0
   -1.6912    4.1693    2.7535 B   0  0  0  0  0  0  0  0  0  0  0  0
   -1.3652    1.7217    2.0017 F   0  0  0  0  0  0  0  0  0  0  0  0
   -1.5652    4.4693    1.4694 F   0  0  0  0  0  0  0  0  0  0  0  0
   -2.8810    3.8902    3.2444 F   0  0  0  0  0  0  0  0  0  0  0  0
   -0.6347    4.2043    3.5390 F   0  0  0  0  0  0  0  0  0  0  0  0
  1  2  1  0  0  0  0
  2  3  2  0  0  0  0
  4  9  1  0  0  0  0
  4  1  2  0  0  0  0
  5  4  1  0  0  0  0
  6  5  2  0  0  0  0
  6  7  1  0  0  0  0
  7  8  2  0  0  0  0
  8 13  1  0  0  0  0
  8  1  1  0  0  0  0
 10  5  1  0  0  0  0
 11  6  1  0  0  0  0
 12  7  1  0  0  0  0
 14 17  1  0  0  0  0
 14 18  1  0  0  0  0
 15  3  1  0  0  0  0
 16 14  1  0  0  0  0
M  END
