Coordinates from ORCA-job PhN2+~BF4-_B3LYPG-6-31G_dp-NX-Scan-d89-09-n800
 OpenBabel11261920563D

 18 17  0  0  0  0  0  0  0  0999 V2000
   -1.9910    0.4736   -0.0019 C   0  0  0  0  0  0  0  0  0  0  0  0
   -1.7971    0.2958    1.3580 N   0  0  0  0  0  0  0  0  0  0  0  0
   -1.5725    0.2602    2.4484 N   0  0  0  0  0  0  0  0  0  0  0  0
   -2.3465   -0.6619   -0.7507 C   0  0  0  0  0  0  0  0  0  0  0  0
   -2.5271   -0.5018   -2.1165 C   0  0  0  0  0  0  0  0  0  0  0  0
   -2.3541    0.7613   -2.6984 C   0  0  0  0  0  0  0  0  0  0  0  0
   -1.9988    1.8695   -1.9243 C   0  0  0  0  0  0  0  0  0  0  0  0
   -1.8090    1.7556   -0.5498 C   0  0  0  0  0  0  0  0  0  0  0  0
   -2.4740   -1.6232   -0.2656 H   0  0  0  0  0  0  0  0  0  0  0  0
   -2.8035   -1.3549   -2.7263 H   0  0  0  0  0  0  0  0  0  0  0  0
   -2.5020    0.8801   -3.7675 H   0  0  0  0  0  0  0  0  0  0  0  0
   -1.8724    2.8416   -2.3891 H   0  0  0  0  0  0  0  0  0  0  0  0
   -1.5490    2.6123    0.0705 H   0  0  0  0  0  0  0  0  0  0  0  0
   -1.6601    3.2568    2.4454 B   0  0  0  0  0  0  0  0  0  0  0  0
   -1.8531    3.9456    3.6080 F   0  0  0  0  0  0  0  0  0  0  0  0
   -0.5896    2.3112    2.5964 F   0  0  0  0  0  0  0  0  0  0  0  0
   -2.8229    2.5135    2.0924 F   0  0  0  0  0  0  0  0  0  0  0  0
   -1.3310    4.0778    1.3462 F   0  0  0  0  0  0  0  0  0  0  0  0
  1  2  1  0  0  0  0
  2  3  1  0  0  0  0
  4  9  1  0  0  0  0
  4  1  2  0  0  0  0
  5  4  1  0  0  0  0
  6  5  2  0  0  0  0
  6  7  1  0  0  0  0
  7  8  2  0  0  0  0
  8  1  1  0  0  0  0
  8 13  1  0  0  0  0
 10  5  1  0  0  0  0
 11  6  1  0  0  0  0
 12  7  1  0  0  0  0
 14 16  1  0  0  0  0
 14 15  1  0  0  0  0
 17 14  1  0  0  0  0
 18 14  1  0  0  0  0
M  RAD  2   2   2   3   3
M  END
