Coordinates from ORCA-job PhN2+~BF4-_B3LYPG-6-31G_dp-NX-Scan-d89-09-n800
 OpenBabel11261920573D

 18 17  0  0  0  0  0  0  0  0999 V2000
   -1.9586    0.4524    0.0155 C   0  0  0  0  0  0  0  0  0  0  0  0
   -1.7701    0.2762    1.3762 N   0  0  0  0  0  0  0  0  0  0  0  0
   -1.5552    0.3286    2.4682 N   0  0  0  0  0  0  0  0  0  0  0  0
   -2.3718   -0.6629   -0.7316 C   0  0  0  0  0  0  0  0  0  0  0  0
   -2.5613   -0.4913   -2.0952 C   0  0  0  0  0  0  0  0  0  0  0  0
   -2.3411    0.7647   -2.6755 C   0  0  0  0  0  0  0  0  0  0  0  0
   -1.9282    1.8545   -1.9029 C   0  0  0  0  0  0  0  0  0  0  0  0
   -1.7249    1.7271   -0.5324 C   0  0  0  0  0  0  0  0  0  0  0  0
   -2.5380   -1.6183   -0.2467 H   0  0  0  0  0  0  0  0  0  0  0  0
   -2.8822   -1.3294   -2.7037 H   0  0  0  0  0  0  0  0  0  0  0  0
   -2.4978    0.8940   -3.7421 H   0  0  0  0  0  0  0  0  0  0  0  0
   -1.7669    2.8221   -2.3658 H   0  0  0  0  0  0  0  0  0  0  0  0
   -1.4194    2.5650    0.0857 H   0  0  0  0  0  0  0  0  0  0  0  0
   -1.7224    3.2671    2.3940 B   0  0  0  0  0  0  0  0  0  0  0  0
   -1.8086    3.7360    3.6740 F   0  0  0  0  0  0  0  0  0  0  0  0
   -0.5806    2.3848    2.2812 F   0  0  0  0  0  0  0  0  0  0  0  0
   -2.8692    2.4912    2.0634 F   0  0  0  0  0  0  0  0  0  0  0  0
   -1.5576    4.2513    1.4129 F   0  0  0  0  0  0  0  0  0  0  0  0
  1  2  1  0  0  0  0
  2  3  1  0  0  0  0
  4  9  1  0  0  0  0
  4  1  2  0  0  0  0
  5  4  1  0  0  0  0
  6  5  2  0  0  0  0
  6  7  1  0  0  0  0
  7  8  2  0  0  0  0
  8  1  1  0  0  0  0
  8 13  1  0  0  0  0
 10  5  1  0  0  0  0
 11  6  1  0  0  0  0
 12  7  1  0  0  0  0
 14 15  1  0  0  0  0
 16 14  1  0  0  0  0
 17 14  1  0  0  0  0
 18 14  1  0  0  0  0
M  RAD  2   2   2   3   3
M  END
