Coordinates from ORCA-job PhN2+~BF4-_B3LYPG-6-31G_dp-NX-Scan-d89-09-n800
 OpenBabel11261920563D

 18 17  0  0  0  0  0  0  0  0999 V2000
   -1.2538   -0.2586    0.2434 C   0  0  0  0  0  0  0  0  0  0  0  0
   -0.7372   -1.1764    1.0927 N   0  0  0  0  0  0  0  0  0  0  0  0
   -0.2997   -1.9532    1.7769 N   0  0  0  0  0  0  0  0  0  0  0  0
   -2.5432   -0.4973   -0.3010 C   0  0  0  0  0  0  0  0  0  0  0  0
   -3.0458    0.4458   -1.1667 C   0  0  0  0  0  0  0  0  0  0  0  0
   -2.3026    1.6033   -1.4708 C   0  0  0  0  0  0  0  0  0  0  0  0
   -1.0169    1.8050   -0.9404 C   0  0  0  0  0  0  0  0  0  0  0  0
   -0.4827    0.8910   -0.0592 C   0  0  0  0  0  0  0  0  0  0  0  0
   -3.0971   -1.3878   -0.0269 H   0  0  0  0  0  0  0  0  0  0  0  0
   -4.0376    0.3197   -1.5837 H   0  0  0  0  0  0  0  0  0  0  0  0
   -2.7183    2.3426   -2.1408 H   0  0  0  0  0  0  0  0  0  0  0  0
   -0.4977    2.7314   -1.1402 H   0  0  0  0  0  0  0  0  0  0  0  0
    0.4840    1.0393    0.4069 H   0  0  0  0  0  0  0  0  0  0  0  0
   -2.8616    3.5826    0.8453 B   0  0  0  0  0  0  0  0  0  0  0  0
   -3.5305    4.5104    1.6151 F   0  0  0  0  0  0  0  0  0  0  0  0
   -1.7677    4.1695    0.1693 F   0  0  0  0  0  0  0  0  0  0  0  0
   -2.3955    2.4919    1.6120 F   0  0  0  0  0  0  0  0  0  0  0  0
   -3.7500    3.0540   -0.1569 F   0  0  0  0  0  0  0  0  0  0  0  0
  1  2  1  0  0  0  0
  2  3  1  0  0  0  0
  4  9  1  0  0  0  0
  4  1  2  0  0  0  0
  5  4  1  0  0  0  0
  6  5  2  0  0  0  0
  6  7  1  0  0  0  0
  7  8  2  0  0  0  0
  8  1  1  0  0  0  0
  8 13  1  0  0  0  0
 10  5  1  0  0  0  0
 11  6  1  0  0  0  0
 12  7  1  0  0  0  0
 14 17  1  0  0  0  0
 14 15  1  0  0  0  0
 16 14  1  0  0  0  0
 18 14  1  0  0  0  0
M  RAD  2   2   2   3   3
M  END
