Coordinates from ORCA-job PhN2+~BF4-_B3LYPG-6-31G_dp-NX-Scan-d89-09-n800
 OpenBabel11261920573D

 18 17  0  0  0  0  0  0  0  0999 V2000
   -1.8465    0.5442    0.0237 C   0  0  0  0  0  0  0  0  0  0  0  0
   -1.5914    0.4010    1.3807 N   0  0  0  0  0  0  0  0  0  0  0  0
   -1.3696    0.1241    2.4331 N   0  0  0  0  0  0  0  0  0  0  0  0
   -2.4611   -0.5506   -0.6086 C   0  0  0  0  0  0  0  0  0  0  0  0
   -2.7054   -0.4448   -1.9705 C   0  0  0  0  0  0  0  0  0  0  0  0
   -2.3378    0.7184   -2.6594 C   0  0  0  0  0  0  0  0  0  0  0  0
   -1.7226    1.7861   -1.9976 C   0  0  0  0  0  0  0  0  0  0  0  0
   -1.4686    1.7243   -0.6324 C   0  0  0  0  0  0  0  0  0  0  0  0
   -2.7380   -1.4340   -0.0444 H   0  0  0  0  0  0  0  0  0  0  0  0
   -3.1835   -1.2658   -2.4936 H   0  0  0  0  0  0  0  0  0  0  0  0
   -2.5379    0.7917   -3.7239 H   0  0  0  0  0  0  0  0  0  0  0  0
   -1.4483    2.6818   -2.5441 H   0  0  0  0  0  0  0  0  0  0  0  0
   -1.0051    2.5157   -0.0522 H   0  0  0  0  0  0  0  0  0  0  0  0
   -1.9018    3.2649    2.3631 B   0  0  0  0  0  0  0  0  0  0  0  0
   -1.9481    3.0413    3.7260 F   0  0  0  0  0  0  0  0  0  0  0  0
   -0.6415    2.7577    1.8532 F   0  0  0  0  0  0  0  0  0  0  0  0
   -2.9061    2.4703    1.7149 F   0  0  0  0  0  0  0  0  0  0  0  0
   -2.0405    4.5867    2.0071 F   0  0  0  0  0  0  0  0  0  0  0  0
  1  2  1  0  0  0  0
  2  3  1  0  0  0  0
  4  9  1  0  0  0  0
  4  1  1  0  0  0  0
  5  4  2  0  0  0  0
  6  7  2  0  0  0  0
  6  5  1  0  0  0  0
  7  8  1  0  0  0  0
  8 13  1  0  0  0  0
  8  1  2  0  0  0  0
 10  5  1  0  0  0  0
 11  6  1  0  0  0  0
 12  7  1  0  0  0  0
 14 15  1  0  0  0  0
 16 14  1  0  0  0  0
 17 14  1  0  0  0  0
 18 14  1  0  0  0  0
M  RAD  2   2   2   3   3
M  END
