Coordinates from ORCA-job PhN2+~BF4-_B3LYPG-6-31G_dp-NX-Scan-d89-09-n800
 OpenBabel11261920573D

 18 17  0  0  0  0  0  0  0  0999 V2000
   -1.8597    0.5596    0.0194 C   0  0  0  0  0  0  0  0  0  0  0  0
   -1.6187    0.4401    1.3815 N   0  0  0  0  0  0  0  0  0  0  0  0
   -1.4144    0.1799    2.4421 N   0  0  0  0  0  0  0  0  0  0  0  0
   -2.4638   -0.5482   -0.6007 C   0  0  0  0  0  0  0  0  0  0  0  0
   -2.6973   -0.4651   -1.9660 C   0  0  0  0  0  0  0  0  0  0  0  0
   -2.3291    0.6888   -2.6702 C   0  0  0  0  0  0  0  0  0  0  0  0
   -1.7232    1.7689   -2.0205 C   0  0  0  0  0  0  0  0  0  0  0  0
   -1.4800    1.7301   -0.6523 C   0  0  0  0  0  0  0  0  0  0  0  0
   -2.7413   -1.4239   -0.0249 H   0  0  0  0  0  0  0  0  0  0  0  0
   -3.1673   -1.2965   -2.4800 H   0  0  0  0  0  0  0  0  0  0  0  0
   -2.5209    0.7444   -3.7374 H   0  0  0  0  0  0  0  0  0  0  0  0
   -1.4471    2.6565   -2.5794 H   0  0  0  0  0  0  0  0  0  0  0  0
   -1.0224    2.5318   -0.0816 H   0  0  0  0  0  0  0  0  0  0  0  0
   -1.8865    3.2693    2.3786 B   0  0  0  0  0  0  0  0  0  0  0  0
   -1.9225    2.8471    3.7005 F   0  0  0  0  0  0  0  0  0  0  0  0
   -0.6325    2.8350    1.7994 F   0  0  0  0  0  0  0  0  0  0  0  0
   -2.8969    2.5689    1.6402 F   0  0  0  0  0  0  0  0  0  0  0  0
   -2.0303    4.6266    2.2262 F   0  0  0  0  0  0  0  0  0  0  0  0
  1  2  1  0  0  0  0
  2  3  1  0  0  0  0
  4  9  1  0  0  0  0
  4  1  1  0  0  0  0
  5  4  2  0  0  0  0
  6  7  2  0  0  0  0
  6  5  1  0  0  0  0
  7  8  1  0  0  0  0
  8 13  1  0  0  0  0
  8  1  2  0  0  0  0
 10  5  1  0  0  0  0
 11  6  1  0  0  0  0
 12  7  1  0  0  0  0
 14 15  1  0  0  0  0
 16 14  1  0  0  0  0
 17 14  1  0  0  0  0
 18 14  1  0  0  0  0
M  RAD  2   2   2   3   3
M  END
