Coordinates from ORCA-job PhN2+~BF4-_B3LYPG-6-31G_dp-NX-Scan-d89-09-n800
 OpenBabel11261920573D

 18 17  0  0  0  0  0  0  0  0999 V2000
   -1.9804    0.5519    0.0199 C   0  0  0  0  0  0  0  0  0  0  0  0
   -1.8411    0.4873    1.3984 N   0  0  0  0  0  0  0  0  0  0  0  0
   -1.7228    0.4041    2.5066 N   0  0  0  0  0  0  0  0  0  0  0  0
   -2.4954   -0.5921   -0.6153 C   0  0  0  0  0  0  0  0  0  0  0  0
   -2.6358   -0.5530   -1.9950 C   0  0  0  0  0  0  0  0  0  0  0  0
   -2.2580    0.5957   -2.7029 C   0  0  0  0  0  0  0  0  0  0  0  0
   -1.7359    1.7113   -2.0417 C   0  0  0  0  0  0  0  0  0  0  0  0
   -1.5888    1.7166   -0.6578 C   0  0  0  0  0  0  0  0  0  0  0  0
   -2.7779   -1.4640   -0.0360 H   0  0  0  0  0  0  0  0  0  0  0  0
   -3.0374   -1.4140   -2.5184 H   0  0  0  0  0  0  0  0  0  0  0  0
   -2.3733    0.6175   -3.7825 H   0  0  0  0  0  0  0  0  0  0  0  0
   -1.4460    2.5918   -2.6050 H   0  0  0  0  0  0  0  0  0  0  0  0
   -1.1906    2.5565   -0.0943 H   0  0  0  0  0  0  0  0  0  0  0  0
   -1.7616    3.3448    2.3891 B   0  0  0  0  0  0  0  0  0  0  0  0
   -1.5453    2.3440    3.3963 F   0  0  0  0  0  0  0  0  0  0  0  0
   -0.6093    3.3603    1.5621 F   0  0  0  0  0  0  0  0  0  0  0  0
   -2.8456    2.8909    1.5966 F   0  0  0  0  0  0  0  0  0  0  0  0
   -2.0088    4.5637    2.9550 F   0  0  0  0  0  0  0  0  0  0  0  0
  1  2  1  0  0  0  0
  2  3  1  0  0  0  0
  4  9  1  0  0  0  0
  4  1  1  0  0  0  0
  5  4  2  0  0  0  0
  6  7  2  0  0  0  0
  6  5  1  0  0  0  0
  7  8  1  0  0  0  0
  8 13  1  0  0  0  0
  8  1  2  0  0  0  0
 10  5  1  0  0  0  0
 11  6  1  0  0  0  0
 12  7  1  0  0  0  0
 14 18  1  0  0  0  0
 14 15  1  0  0  0  0
 16 14  1  0  0  0  0
 17 14  1  0  0  0  0
M  RAD  2   2   2   3   3
M  END
