Coordinates from ORCA-job PhN2+~BF4-_B3LYPG-6-31G_dp-NX-Scan-d89-09-n800
 OpenBabel11261920573D

 18 17  0  0  0  0  0  0  0  0999 V2000
   -2.0413    0.4229    0.1058 C   0  0  0  0  0  0  0  0  0  0  0  0
   -2.0439    0.2468    1.4960 N   0  0  0  0  0  0  0  0  0  0  0  0
   -1.7264    0.7377    2.5022 N   0  0  0  0  0  0  0  0  0  0  0  0
   -2.6173   -0.6278   -0.6255 C   0  0  0  0  0  0  0  0  0  0  0  0
   -2.6578   -0.5462   -2.0122 C   0  0  0  0  0  0  0  0  0  0  0  0
   -2.1265    0.5765   -2.6540 C   0  0  0  0  0  0  0  0  0  0  0  0
   -1.5555    1.6165   -1.9133 C   0  0  0  0  0  0  0  0  0  0  0  0
   -1.5023    1.5594   -0.5240 C   0  0  0  0  0  0  0  0  0  0  0  0
   -3.0212   -1.4829   -0.0946 H   0  0  0  0  0  0  0  0  0  0  0  0
   -3.1010   -1.3510   -2.5893 H   0  0  0  0  0  0  0  0  0  0  0  0
   -2.1600    0.6434   -3.7376 H   0  0  0  0  0  0  0  0  0  0  0  0
   -1.1508    2.4866   -2.4199 H   0  0  0  0  0  0  0  0  0  0  0  0
   -1.0728    2.3674    0.0503 H   0  0  0  0  0  0  0  0  0  0  0  0
   -1.9159    3.5616    2.2503 B   0  0  0  0  0  0  0  0  0  0  0  0
   -0.9634    2.1608    2.2736 F   0  0  0  0  0  0  0  0  0  0  0  0
   -1.2696    4.2526    1.2701 F   0  0  0  0  0  0  0  0  0  0  0  0
   -3.1257    3.0503    1.8953 F   0  0  0  0  0  0  0  0  0  0  0  0
   -1.8023    4.0388    3.5019 F   0  0  0  0  0  0  0  0  0  0  0  0
  1  2  1  0  0  0  0
  2  3  1  0  0  0  0
  4  9  1  0  0  0  0
  4  1  2  0  0  0  0
  5  4  1  0  0  0  0
  6  5  2  0  0  0  0
  6  7  1  0  0  0  0
  7  8  2  0  0  0  0
  8 13  1  0  0  0  0
  8  1  1  0  0  0  0
 10  5  1  0  0  0  0
 11  6  1  0  0  0  0
 12  7  1  0  0  0  0
 14 18  1  0  0  0  0
 15  3  1  0  0  0  0
 16 14  1  0  0  0  0
 17 14  1  0  0  0  0
M  RAD  2   2   2   3   2
M  END
