Coordinates from ORCA-job PhN2+~BF4-_B3LYPG-6-31G_dp-NX-Scan-d89-09-n800
 OpenBabel11261920563D

 18 17  0  0  0  0  0  0  0  0999 V2000
   -1.7407    0.1997    0.1354 C   0  0  0  0  0  0  0  0  0  0  0  0
   -1.4062   -0.3014    1.3709 N   0  0  0  0  0  0  0  0  0  0  0  0
   -1.1308   -0.8463    2.3047 N   0  0  0  0  0  0  0  0  0  0  0  0
   -2.5084   -0.6535   -0.6956 C   0  0  0  0  0  0  0  0  0  0  0  0
   -2.8130   -0.1918   -1.9599 C   0  0  0  0  0  0  0  0  0  0  0  0
   -2.3673    1.0795   -2.3719 C   0  0  0  0  0  0  0  0  0  0  0  0
   -1.6214    1.8951   -1.5257 C   0  0  0  0  0  0  0  0  0  0  0  0
   -1.2911    1.4754   -0.2381 C   0  0  0  0  0  0  0  0  0  0  0  0
   -2.8378   -1.6228   -0.3402 H   0  0  0  0  0  0  0  0  0  0  0  0
   -3.4004   -0.8101   -2.6300 H   0  0  0  0  0  0  0  0  0  0  0  0
   -2.6241    1.4316   -3.3660 H   0  0  0  0  0  0  0  0  0  0  0  0
   -1.3168    2.8874   -1.8355 H   0  0  0  0  0  0  0  0  0  0  0  0
   -0.7372    2.1141    0.4495 H   0  0  0  0  0  0  0  0  0  0  0  0
   -2.0300    3.4405    1.9210 B   0  0  0  0  0  0  0  0  0  0  0  0
   -2.4518    4.4366    2.7741 F   0  0  0  0  0  0  0  0  0  0  0  0
   -0.6633    3.6241    1.5493 F   0  0  0  0  0  0  0  0  0  0  0  0
   -2.1148    2.1336    2.4993 F   0  0  0  0  0  0  0  0  0  0  0  0
   -2.7986    3.4215    0.7337 F   0  0  0  0  0  0  0  0  0  0  0  0
  1  2  1  0  0  0  0
  2  3  1  0  0  0  0
  4  9  1  0  0  0  0
  4  1  2  0  0  0  0
  5  4  1  0  0  0  0
  6  5  2  0  0  0  0
  6  7  1  0  0  0  0
  7  8  2  0  0  0  0
  8  1  1  0  0  0  0
  8 13  1  0  0  0  0
 10  5  1  0  0  0  0
 11  6  1  0  0  0  0
 12  7  1  0  0  0  0
 14 17  1  0  0  0  0
 14 15  1  0  0  0  0
 16 14  1  0  0  0  0
 18 14  1  0  0  0  0
M  RAD  2   2   2   3   3
M  END
