Coordinates from ORCA-job PhN2+~BF4-_B3LYPG-6-31G_dp-NX-Scan-d89-09-n800
 OpenBabel11261920573D

 18 17  0  0  0  0  0  0  0  0999 V2000
   -1.9887    0.5526    0.0214 C   0  0  0  0  0  0  0  0  0  0  0  0
   -1.8581    0.4918    1.4012 N   0  0  0  0  0  0  0  0  0  0  0  0
   -1.7461    0.4371    2.5137 N   0  0  0  0  0  0  0  0  0  0  0  0
   -2.4932   -0.5950   -0.6154 C   0  0  0  0  0  0  0  0  0  0  0  0
   -2.6275   -0.5599   -1.9960 C   0  0  0  0  0  0  0  0  0  0  0  0
   -2.2532    0.5895   -2.7046 C   0  0  0  0  0  0  0  0  0  0  0  0
   -1.7407    1.7091   -2.0429 C   0  0  0  0  0  0  0  0  0  0  0  0
   -1.6003    1.7174   -0.6582 C   0  0  0  0  0  0  0  0  0  0  0  0
   -2.7729   -1.4677   -0.0359 H   0  0  0  0  0  0  0  0  0  0  0  0
   -3.0213   -1.4243   -2.5196 H   0  0  0  0  0  0  0  0  0  0  0  0
   -2.3634    0.6087   -3.7847 H   0  0  0  0  0  0  0  0  0  0  0  0
   -1.4528    2.5903   -2.6062 H   0  0  0  0  0  0  0  0  0  0  0  0
   -1.2092    2.5610   -0.0962 H   0  0  0  0  0  0  0  0  0  0  0  0
   -1.7532    3.3476    2.3848 B   0  0  0  0  0  0  0  0  0  0  0  0
   -1.5326    2.3048    3.3598 F   0  0  0  0  0  0  0  0  0  0  0  0
   -0.6075    3.3827    1.5546 F   0  0  0  0  0  0  0  0  0  0  0  0
   -2.8474    2.9254    1.5948 F   0  0  0  0  0  0  0  0  0  0  0  0
   -1.9858    4.5421    3.0041 F   0  0  0  0  0  0  0  0  0  0  0  0
  1  2  1  0  0  0  0
  2  3  1  0  0  0  0
  4  9  1  0  0  0  0
  4  1  1  0  0  0  0
  5  4  2  0  0  0  0
  6  7  2  0  0  0  0
  6  5  1  0  0  0  0
  7  8  1  0  0  0  0
  8 13  1  0  0  0  0
  8  1  2  0  0  0  0
 10  5  1  0  0  0  0
 11  6  1  0  0  0  0
 12  7  1  0  0  0  0
 14 18  1  0  0  0  0
 14 15  1  0  0  0  0
 16 14  1  0  0  0  0
 17 14  1  0  0  0  0
M  RAD  2   2   2   3   3
M  END
