Coordinates from ORCA-job PhN2+~BF4-_B3LYPG-6-31G_dp-NX-Scan-d89-09-n800
 OpenBabel11261920573D

 18 17  0  0  0  0  0  0  0  0999 V2000
   -1.8422    0.5326    0.0287 C   0  0  0  0  0  0  0  0  0  0  0  0
   -1.5795    0.3705    1.3819 N   0  0  0  0  0  0  0  0  0  0  0  0
   -1.3496    0.0890    2.4310 N   0  0  0  0  0  0  0  0  0  0  0  0
   -2.4600   -0.5530   -0.6164 C   0  0  0  0  0  0  0  0  0  0  0  0
   -2.7082   -0.4291   -1.9761 C   0  0  0  0  0  0  0  0  0  0  0  0
   -2.3407    0.7421   -2.6511 C   0  0  0  0  0  0  0  0  0  0  0  0
   -1.7238    1.8009   -1.9767 C   0  0  0  0  0  0  0  0  0  0  0  0
   -1.4666    1.7215   -0.6131 C   0  0  0  0  0  0  0  0  0  0  0  0
   -2.7365   -1.4434   -0.0630 H   0  0  0  0  0  0  0  0  0  0  0  0
   -3.1891   -1.2426   -2.5084 H   0  0  0  0  0  0  0  0  0  0  0  0
   -2.5428    0.8292   -3.7141 H   0  0  0  0  0  0  0  0  0  0  0  0
   -1.4508    2.7040   -2.5116 H   0  0  0  0  0  0  0  0  0  0  0  0
   -1.0042    2.5078   -0.0254 H   0  0  0  0  0  0  0  0  0  0  0  0
   -1.9072    3.2583    2.3473 B   0  0  0  0  0  0  0  0  0  0  0  0
   -1.9472    3.2017    3.7240 F   0  0  0  0  0  0  0  0  0  0  0  0
   -0.6444    2.7053    1.8906 F   0  0  0  0  0  0  0  0  0  0  0  0
   -2.9095    2.3903    1.7975 F   0  0  0  0  0  0  0  0  0  0  0  0
   -2.0515    4.5281    1.8298 F   0  0  0  0  0  0  0  0  0  0  0  0
  1  2  1  0  0  0  0
  2  3  1  0  0  0  0
  4  9  1  0  0  0  0
  4  1  1  0  0  0  0
  5  4  2  0  0  0  0
  6  7  2  0  0  0  0
  6  5  1  0  0  0  0
  7  8  1  0  0  0  0
  8 13  1  0  0  0  0
  8  1  2  0  0  0  0
 10  5  1  0  0  0  0
 11  6  1  0  0  0  0
 12  7  1  0  0  0  0
 14 15  1  0  0  0  0
 16 14  1  0  0  0  0
 17 14  1  0  0  0  0
 18 14  1  0  0  0  0
M  RAD  2   2   2   3   3
M  END
