Coordinates from ORCA-job PhN2+~BF4-_B3LYPG-6-31G_dp-NX-Scan-d89-09-n800
 OpenBabel11261920563D

 18 17  0  0  0  0  0  0  0  0999 V2000
   -1.2192   -0.6675    0.1183 C   0  0  0  0  0  0  0  0  0  0  0  0
   -0.7009   -1.7571    0.7279 N   0  0  0  0  0  0  0  0  0  0  0  0
   -0.2593   -2.6456    1.2535 N   0  0  0  0  0  0  0  0  0  0  0  0
   -2.4221   -0.8148   -0.6169 C   0  0  0  0  0  0  0  0  0  0  0  0
   -2.9629    0.3259   -1.1745 C   0  0  0  0  0  0  0  0  0  0  0  0
   -2.3443    1.5753   -0.9850 C   0  0  0  0  0  0  0  0  0  0  0  0
   -1.1314    1.6897   -0.2700 C   0  0  0  0  0  0  0  0  0  0  0  0
   -0.5515    0.5768    0.2900 C   0  0  0  0  0  0  0  0  0  0  0  0
   -2.8869   -1.7892   -0.7176 H   0  0  0  0  0  0  0  0  0  0  0  0
   -3.8895    0.2607   -1.7336 H   0  0  0  0  0  0  0  0  0  0  0  0
   -2.7907    2.4861   -1.3759 H   0  0  0  0  0  0  0  0  0  0  0  0
   -0.7304    2.6849   -0.0987 H   0  0  0  0  0  0  0  0  0  0  0  0
    0.3600    0.6298    0.8746 H   0  0  0  0  0  0  0  0  0  0  0  0
   -2.8760    4.2630    0.5098 B   0  0  0  0  0  0  0  0  0  0  0  0
   -3.5334    5.1980    1.2696 F   0  0  0  0  0  0  0  0  0  0  0  0
   -3.2359    4.3442   -0.8599 F   0  0  0  0  0  0  0  0  0  0  0  0
   -1.4688    4.4100    0.6091 F   0  0  0  0  0  0  0  0  0  0  0  0
   -3.2106    2.9429    0.9543 F   0  0  0  0  0  0  0  0  0  0  0  0
  1  8  1  0  0  0  0
  1  2  1  0  0  0  0
  2  3  1  0  0  0  0
  4  1  2  0  0  0  0
  5  6  2  0  0  0  0
  5  4  1  0  0  0  0
  6  7  1  0  0  0  0
  7 12  1  0  0  0  0
  7  8  2  0  0  0  0
  8 13  1  0  0  0  0
  9  4  1  0  0  0  0
 10  5  1  0  0  0  0
 11  6  1  0  0  0  0
 14 17  1  0  0  0  0
 14 18  1  0  0  0  0
 14 15  1  0  0  0  0
 16 14  1  0  0  0  0
M  RAD  2   2   2   3   3
M  END
