Coordinates from ORCA-job PhN2+~BF4-_B3LYPG-6-31G_dp-NX-Scan-d89-09-n800
 OpenBabel11261920563D

 18 17  0  0  0  0  0  0  0  0999 V2000
   -1.2496   -0.5475    0.1598 C   0  0  0  0  0  0  0  0  0  0  0  0
   -0.8460   -1.5800    0.9271 N   0  0  0  0  0  0  0  0  0  0  0  0
   -0.5111   -2.4206    1.5937 N   0  0  0  0  0  0  0  0  0  0  0  0
   -2.4833   -0.6619   -0.5347 C   0  0  0  0  0  0  0  0  0  0  0  0
   -2.9373    0.4522   -1.2012 C   0  0  0  0  0  0  0  0  0  0  0  0
   -2.2122    1.6602   -1.1424 C   0  0  0  0  0  0  0  0  0  0  0  0
   -0.9445    1.7225   -0.5219 C   0  0  0  0  0  0  0  0  0  0  0  0
   -0.4528    0.6307    0.1490 C   0  0  0  0  0  0  0  0  0  0  0  0
   -3.0412   -1.5912   -0.5063 H   0  0  0  0  0  0  0  0  0  0  0  0
   -3.8897    0.4211   -1.7175 H   0  0  0  0  0  0  0  0  0  0  0  0
   -2.6140    2.5624   -1.5915 H   0  0  0  0  0  0  0  0  0  0  0  0
   -0.4339    2.6753   -0.4759 H   0  0  0  0  0  0  0  0  0  0  0  0
    0.4836    0.6594    0.6941 H   0  0  0  0  0  0  0  0  0  0  0  0
   -2.9516    3.9834    0.6029 B   0  0  0  0  0  0  0  0  0  0  0  0
   -3.6536    4.7057    1.5355 F   0  0  0  0  0  0  0  0  0  0  0  0
   -3.2729    4.3486   -0.7225 F   0  0  0  0  0  0  0  0  0  0  0  0
   -1.5575    4.1082    0.7853 F   0  0  0  0  0  0  0  0  0  0  0  0
   -3.2861    2.5848    0.7414 F   0  0  0  0  0  0  0  0  0  0  0  0
  1  2  1  0  0  0  0
  2  3  1  0  0  0  0
  4  9  1  0  0  0  0
  4  1  2  0  0  0  0
  5  6  2  0  0  0  0
  5  4  1  0  0  0  0
  6  7  1  0  0  0  0
  7 12  1  0  0  0  0
  7  8  2  0  0  0  0
  8  1  1  0  0  0  0
  8 13  1  0  0  0  0
 10  5  1  0  0  0  0
 11  6  1  0  0  0  0
 14 18  1  0  0  0  0
 14 17  1  0  0  0  0
 14 15  1  0  0  0  0
 16 14  1  0  0  0  0
M  RAD  2   2   2   3   3
M  END
