Coordinates from ORCA-job PhN2+~BF4-_B3LYPG-6-31G_dp-NX-Scan-d89-09-n800
 OpenBabel11261920563D

 18 17  0  0  0  0  0  0  0  0999 V2000
   -1.7520    0.2834    0.1247 C   0  0  0  0  0  0  0  0  0  0  0  0
   -1.4278   -0.1620    1.3872 N   0  0  0  0  0  0  0  0  0  0  0  0
   -1.1539   -0.6678    2.3418 N   0  0  0  0  0  0  0  0  0  0  0  0
   -2.5353   -0.5912   -0.6636 C   0  0  0  0  0  0  0  0  0  0  0  0
   -2.8272   -0.1882   -1.9523 C   0  0  0  0  0  0  0  0  0  0  0  0
   -2.3481    1.0463   -2.4283 C   0  0  0  0  0  0  0  0  0  0  0  0
   -1.5830    1.8857   -1.6221 C   0  0  0  0  0  0  0  0  0  0  0  0
   -1.2726    1.5281   -0.3114 C   0  0  0  0  0  0  0  0  0  0  0  0
   -2.8883   -1.5334   -0.2608 H   0  0  0  0  0  0  0  0  0  0  0  0
   -3.4281   -0.8262   -2.5911 H   0  0  0  0  0  0  0  0  0  0  0  0
   -2.5903    1.3515   -3.4413 H   0  0  0  0  0  0  0  0  0  0  0  0
   -1.2454    2.8475   -1.9900 H   0  0  0  0  0  0  0  0  0  0  0  0
   -0.7088    2.1812    0.3530 H   0  0  0  0  0  0  0  0  0  0  0  0
   -2.0357    3.3440    1.9883 B   0  0  0  0  0  0  0  0  0  0  0  0
   -2.4837    4.2831    2.8871 F   0  0  0  0  0  0  0  0  0  0  0  0
   -0.6753    3.5721    1.6310 F   0  0  0  0  0  0  0  0  0  0  0  0
   -2.0946    2.0114    2.5197 F   0  0  0  0  0  0  0  0  0  0  0  0
   -2.8038    3.3477    0.8032 F   0  0  0  0  0  0  0  0  0  0  0  0
  1  2  1  0  0  0  0
  2  3  1  0  0  0  0
  4  9  1  0  0  0  0
  4  1  2  0  0  0  0
  5  4  1  0  0  0  0
  6  5  2  0  0  0  0
  6  7  1  0  0  0  0
  7  8  2  0  0  0  0
  8  1  1  0  0  0  0
  8 13  1  0  0  0  0
 10  5  1  0  0  0  0
 11  6  1  0  0  0  0
 12  7  1  0  0  0  0
 14 17  1  0  0  0  0
 14 15  1  0  0  0  0
 16 14  1  0  0  0  0
 18 14  1  0  0  0  0
M  RAD  2   2   2   3   3
M  END
