Coordinates from ORCA-job PhN2+~BF4-_B3LYPG-6-31G_dp-NX-Scan-d89-09-n800
 OpenBabel11261920563D

 18 17  0  0  0  0  0  0  0  0999 V2000
   -1.9252    0.4911   -0.0261 C   0  0  0  0  0  0  0  0  0  0  0  0
   -1.6646    0.3139    1.3232 N   0  0  0  0  0  0  0  0  0  0  0  0
   -1.4273    0.2227    2.4085 N   0  0  0  0  0  0  0  0  0  0  0  0
   -2.3323   -0.6440   -0.7495 C   0  0  0  0  0  0  0  0  0  0  0  0
   -2.5816   -0.4871   -2.1048 C   0  0  0  0  0  0  0  0  0  0  0  0
   -2.4179    0.7700   -2.7025 C   0  0  0  0  0  0  0  0  0  0  0  0
   -2.0055    1.8766   -1.9546 C   0  0  0  0  0  0  0  0  0  0  0  0
   -1.7510    1.7660   -0.5904 C   0  0  0  0  0  0  0  0  0  0  0  0
   -2.4497   -1.6007   -0.2528 H   0  0  0  0  0  0  0  0  0  0  0  0
   -2.9035   -1.3383   -2.6943 H   0  0  0  0  0  0  0  0  0  0  0  0
   -2.6173    0.8855   -3.7635 H   0  0  0  0  0  0  0  0  0  0  0  0
   -1.8865    2.8436   -2.4317 H   0  0  0  0  0  0  0  0  0  0  0  0
   -1.4452    2.6153    0.0211 H   0  0  0  0  0  0  0  0  0  0  0  0
   -1.6997    3.2328    2.4817 B   0  0  0  0  0  0  0  0  0  0  0  0
   -2.0940    4.0750    3.4805 F   0  0  0  0  0  0  0  0  0  0  0  0
   -0.7244    2.3024    2.9637 F   0  0  0  0  0  0  0  0  0  0  0  0
   -2.7995    2.4749    1.9873 F   0  0  0  0  0  0  0  0  0  0  0  0
   -1.1286    3.9135    1.3792 F   0  0  0  0  0  0  0  0  0  0  0  0
  1  2  1  0  0  0  0
  2  3  1  0  0  0  0
  4  9  1  0  0  0  0
  4  1  2  0  0  0  0
  5  4  1  0  0  0  0
  6  5  2  0  0  0  0
  6  7  1  0  0  0  0
  7  8  2  0  0  0  0
  8  1  1  0  0  0  0
  8 13  1  0  0  0  0
 10  5  1  0  0  0  0
 11  6  1  0  0  0  0
 12  7  1  0  0  0  0
 14 16  1  0  0  0  0
 14 15  1  0  0  0  0
 17 14  1  0  0  0  0
 18 14  1  0  0  0  0
M  RAD  2   2   2   3   3
M  END
