Coordinates from ORCA-job PhN2+~BF4-_B3LYPG-6-31G_dp-NX-Scan-d89-09-n800
 OpenBabel11261920563D

 18 17  0  0  0  0  0  0  0  0999 V2000
   -1.3114   -0.0298    0.2550 C   0  0  0  0  0  0  0  0  0  0  0  0
   -0.8307   -0.7697    1.2807 N   0  0  0  0  0  0  0  0  0  0  0  0
   -0.4260   -1.4004    2.1159 N   0  0  0  0  0  0  0  0  0  0  0  0
   -2.5794   -0.3706   -0.2757 C   0  0  0  0  0  0  0  0  0  0  0  0
   -3.0691    0.4174   -1.2924 C   0  0  0  0  0  0  0  0  0  0  0  0
   -2.3328    1.5274   -1.7417 C   0  0  0  0  0  0  0  0  0  0  0  0
   -1.0632    1.8215   -1.2287 C   0  0  0  0  0  0  0  0  0  0  0  0
   -0.5436    1.0672   -0.1986 C   0  0  0  0  0  0  0  0  0  0  0  0
   -3.1336   -1.2101    0.1270 H   0  0  0  0  0  0  0  0  0  0  0  0
   -4.0468    0.2092   -1.7105 H   0  0  0  0  0  0  0  0  0  0  0  0
   -2.7533    2.1660   -2.5087 H   0  0  0  0  0  0  0  0  0  0  0  0
   -0.5325    2.7030   -1.5632 H   0  0  0  0  0  0  0  0  0  0  0  0
    0.3940    1.3193    0.2798 H   0  0  0  0  0  0  0  0  0  0  0  0
   -2.7335    3.2712    1.0678 B   0  0  0  0  0  0  0  0  0  0  0  0
   -3.3470    4.1849    1.8996 F   0  0  0  0  0  0  0  0  0  0  0  0
   -1.3539    3.5544    0.9190 F   0  0  0  0  0  0  0  0  0  0  0  0
   -2.8539    1.9477    1.5742 F   0  0  0  0  0  0  0  0  0  0  0  0
   -3.3372    3.3047   -0.2246 F   0  0  0  0  0  0  0  0  0  0  0  0
  1  2  1  0  0  0  0
  2  3  1  0  0  0  0
  4  9  1  0  0  0  0
  4  1  2  0  0  0  0
  5  4  1  0  0  0  0
  6  5  2  0  0  0  0
  6  7  1  0  0  0  0
  7  8  2  0  0  0  0
  8  1  1  0  0  0  0
  8 13  1  0  0  0  0
 10  5  1  0  0  0  0
 11  6  1  0  0  0  0
 12  7  1  0  0  0  0
 14 17  1  0  0  0  0
 14 15  1  0  0  0  0
 16 14  1  0  0  0  0
 18 14  1  0  0  0  0
M  RAD  2   2   2   3   3
M  END
