Coordinates from ORCA-job PhN2+~BF4-_B3LYPG-6-31G_dp-NX-Scan-d89-09-n800
 OpenBabel11261920563D

 18 17  0  0  0  0  0  0  0  0999 V2000
   -1.2527   -0.5382    0.1612 C   0  0  0  0  0  0  0  0  0  0  0  0
   -0.8538   -1.5630    0.9415 N   0  0  0  0  0  0  0  0  0  0  0  0
   -0.5234   -2.3962    1.6194 N   0  0  0  0  0  0  0  0  0  0  0  0
   -2.4849   -0.6572   -0.5350 C   0  0  0  0  0  0  0  0  0  0  0  0
   -2.9368    0.4525   -1.2103 C   0  0  0  0  0  0  0  0  0  0  0  0
   -2.2113    1.6604   -1.1574 C   0  0  0  0  0  0  0  0  0  0  0  0
   -0.9432    1.7255   -0.5385 C   0  0  0  0  0  0  0  0  0  0  0  0
   -0.4537    0.6381    0.1413 C   0  0  0  0  0  0  0  0  0  0  0  0
   -3.0441   -1.5855   -0.4999 H   0  0  0  0  0  0  0  0  0  0  0  0
   -3.8888    0.4188   -1.7271 H   0  0  0  0  0  0  0  0  0  0  0  0
   -2.6141    2.5613   -1.6080 H   0  0  0  0  0  0  0  0  0  0  0  0
   -0.4305    2.6773   -0.4990 H   0  0  0  0  0  0  0  0  0  0  0  0
    0.4820    0.6699    0.6875 H   0  0  0  0  0  0  0  0  0  0  0  0
   -2.9469    3.9669    0.6145 B   0  0  0  0  0  0  0  0  0  0  0  0
   -3.6498    4.6823    1.5518 F   0  0  0  0  0  0  0  0  0  0  0  0
   -3.2593    4.3487   -0.7082 F   0  0  0  0  0  0  0  0  0  0  0  0
   -1.5531    4.0826    0.8059 F   0  0  0  0  0  0  0  0  0  0  0  0
   -3.2894    2.5689    0.7353 F   0  0  0  0  0  0  0  0  0  0  0  0
  1  2  1  0  0  0  0
  2  3  1  0  0  0  0
  4  9  1  0  0  0  0
  4  1  2  0  0  0  0
  5  6  2  0  0  0  0
  5  4  1  0  0  0  0
  6  7  1  0  0  0  0
  7 12  1  0  0  0  0
  7  8  2  0  0  0  0
  8  1  1  0  0  0  0
  8 13  1  0  0  0  0
 10  5  1  0  0  0  0
 11  6  1  0  0  0  0
 14 18  1  0  0  0  0
 14 17  1  0  0  0  0
 14 15  1  0  0  0  0
 16 14  1  0  0  0  0
M  RAD  2   2   2   3   3
M  END
