Coordinates from ORCA-job PhN2+~BF4-_B3LYPG-6-31G_dp-NX-Scan-d89-09-n800
 OpenBabel11261920573D

 18 17  0  0  0  0  0  0  0  0999 V2000
   -2.0554    0.4378    0.0881 C   0  0  0  0  0  0  0  0  0  0  0  0
   -2.0140    0.3171    1.4732 N   0  0  0  0  0  0  0  0  0  0  0  0
   -1.7909    0.6078    2.5457 N   0  0  0  0  0  0  0  0  0  0  0  0
   -2.6095   -0.6348   -0.6274 C   0  0  0  0  0  0  0  0  0  0  0  0
   -2.6554   -0.5456   -2.0122 C   0  0  0  0  0  0  0  0  0  0  0  0
   -2.1540    0.5949   -2.6510 C   0  0  0  0  0  0  0  0  0  0  0  0
   -1.6054    1.6492   -1.9139 C   0  0  0  0  0  0  0  0  0  0  0  0
   -1.5449    1.5945   -0.5247 C   0  0  0  0  0  0  0  0  0  0  0  0
   -2.9897   -1.5013   -0.0978 H   0  0  0  0  0  0  0  0  0  0  0  0
   -3.0798   -1.3582   -2.5920 H   0  0  0  0  0  0  0  0  0  0  0  0
   -2.1947    0.6624   -3.7342 H   0  0  0  0  0  0  0  0  0  0  0  0
   -1.2266    2.5303   -2.4210 H   0  0  0  0  0  0  0  0  0  0  0  0
   -1.1398    2.4146    0.0590 H   0  0  0  0  0  0  0  0  0  0  0  0
   -1.8036    3.4619    2.2418 B   0  0  0  0  0  0  0  0  0  0  0  0
   -0.9491    2.2560    2.5893 F   0  0  0  0  0  0  0  0  0  0  0  0
   -1.1158    4.0787    1.1993 F   0  0  0  0  0  0  0  0  0  0  0  0
   -3.0060    2.9210    1.7938 F   0  0  0  0  0  0  0  0  0  0  0  0
   -1.9192    4.2270    3.3592 F   0  0  0  0  0  0  0  0  0  0  0  0
  1  2  1  0  0  0  0
  2  3  1  0  0  0  0
  4  9  1  0  0  0  0
  4  1  2  0  0  0  0
  5  4  1  0  0  0  0
  6  5  2  0  0  0  0
  6  7  1  0  0  0  0
  7  8  2  0  0  0  0
  8 13  1  0  0  0  0
  8  1  1  0  0  0  0
 10  5  1  0  0  0  0
 11  6  1  0  0  0  0
 12  7  1  0  0  0  0
 14 15  1  0  0  0  0
 14 18  1  0  0  0  0
 16 14  1  0  0  0  0
 17 14  1  0  0  0  0
M  RAD  2   2   2   3   3
M  END
