Coordinates from ORCA-job PhN2+~BF4-_B3LYPG-6-31G_dp-NX-Scan-d89-09-n800
 OpenBabel11261920573D

 18 17  0  0  0  0  0  0  0  0999 V2000
   -1.9598    0.4565    0.0110 C   0  0  0  0  0  0  0  0  0  0  0  0
   -1.7603    0.2710    1.3683 N   0  0  0  0  0  0  0  0  0  0  0  0
   -1.5494    0.2727    2.4615 N   0  0  0  0  0  0  0  0  0  0  0  0
   -2.3661   -0.6607   -0.7385 C   0  0  0  0  0  0  0  0  0  0  0  0
   -2.5589   -0.4864   -2.1009 C   0  0  0  0  0  0  0  0  0  0  0  0
   -2.3461    0.7727   -2.6782 C   0  0  0  0  0  0  0  0  0  0  0  0
   -1.9410    1.8631   -1.9029 C   0  0  0  0  0  0  0  0  0  0  0  0
   -1.7372    1.7345   -0.5321 C   0  0  0  0  0  0  0  0  0  0  0  0
   -2.5246   -1.6188   -0.2561 H   0  0  0  0  0  0  0  0  0  0  0  0
   -2.8756   -1.3248   -2.7113 H   0  0  0  0  0  0  0  0  0  0  0  0
   -2.5030    0.9030   -3.7447 H   0  0  0  0  0  0  0  0  0  0  0  0
   -1.7865    2.8330   -2.3635 H   0  0  0  0  0  0  0  0  0  0  0  0
   -1.4437    2.5786    0.0874 H   0  0  0  0  0  0  0  0  0  0  0  0
   -1.7125    3.2600    2.4044 B   0  0  0  0  0  0  0  0  0  0  0  0
   -1.8346    3.8616    3.6250 F   0  0  0  0  0  0  0  0  0  0  0  0
   -0.5826    2.3662    2.4012 F   0  0  0  0  0  0  0  0  0  0  0  0
   -2.8590    2.4723    2.1040 F   0  0  0  0  0  0  0  0  0  0  0  0
   -1.5127    4.1587    1.3403 F   0  0  0  0  0  0  0  0  0  0  0  0
  1  2  1  0  0  0  0
  2  3  1  0  0  0  0
  4  9  1  0  0  0  0
  4  1  2  0  0  0  0
  5  4  1  0  0  0  0
  6  5  2  0  0  0  0
  6  7  1  0  0  0  0
  7  8  2  0  0  0  0
  8  1  1  0  0  0  0
  8 13  1  0  0  0  0
 10  5  1  0  0  0  0
 11  6  1  0  0  0  0
 12  7  1  0  0  0  0
 14 15  1  0  0  0  0
 16 14  1  0  0  0  0
 17 14  1  0  0  0  0
 18 14  1  0  0  0  0
M  RAD  2   2   2   3   3
M  END
