Coordinates from ORCA-job PhN2+~BF4-_B3LYPG-6-31G_dp-NX-Scan-d89-09-n800
 OpenBabel11261920563D

 18 17  0  0  0  0  0  0  0  0999 V2000
   -1.7552    0.2900    0.1207 C   0  0  0  0  0  0  0  0  0  0  0  0
   -1.4372   -0.1416    1.3897 N   0  0  0  0  0  0  0  0  0  0  0  0
   -1.1682   -0.6252    2.3565 N   0  0  0  0  0  0  0  0  0  0  0  0
   -2.5356   -0.5889   -0.6647 C   0  0  0  0  0  0  0  0  0  0  0  0
   -2.8250   -0.1919   -1.9561 C   0  0  0  0  0  0  0  0  0  0  0  0
   -2.3461    1.0408   -2.4366 C   0  0  0  0  0  0  0  0  0  0  0  0
   -1.5825    1.8845   -1.6327 C   0  0  0  0  0  0  0  0  0  0  0  0
   -1.2746    1.5321   -0.3202 C   0  0  0  0  0  0  0  0  0  0  0  0
   -2.8896   -1.5291   -0.2580 H   0  0  0  0  0  0  0  0  0  0  0  0
   -3.4241   -0.8331   -2.5933 H   0  0  0  0  0  0  0  0  0  0  0  0
   -2.5865    1.3414   -3.4514 H   0  0  0  0  0  0  0  0  0  0  0  0
   -1.2438    2.8442   -2.0048 H   0  0  0  0  0  0  0  0  0  0  0  0
   -0.7116    2.1847    0.3452 H   0  0  0  0  0  0  0  0  0  0  0  0
   -2.0317    3.3343    1.9977 B   0  0  0  0  0  0  0  0  0  0  0  0
   -2.4737    4.2580    2.9130 F   0  0  0  0  0  0  0  0  0  0  0  0
   -0.6740    3.5673    1.6339 F   0  0  0  0  0  0  0  0  0  0  0  0
   -2.0868    1.9966    2.5174 F   0  0  0  0  0  0  0  0  0  0  0  0
   -2.8078    3.3491    0.8188 F   0  0  0  0  0  0  0  0  0  0  0  0
  1  2  1  0  0  0  0
  2  3  1  0  0  0  0
  4  9  1  0  0  0  0
  4  1  2  0  0  0  0
  5  4  1  0  0  0  0
  6  5  2  0  0  0  0
  6  7  1  0  0  0  0
  7  8  2  0  0  0  0
  8  1  1  0  0  0  0
  8 13  1  0  0  0  0
 10  5  1  0  0  0  0
 11  6  1  0  0  0  0
 12  7  1  0  0  0  0
 14 17  1  0  0  0  0
 14 15  1  0  0  0  0
 16 14  1  0  0  0  0
 18 14  1  0  0  0  0
M  RAD  2   2   2   3   3
M  END
