Coordinates from ORCA-job PhN2+~BF4-_B3LYPG-6-31G_dp-NX-Scan-d89-09-n800
 OpenBabel11261920563D

 18 17  0  0  0  0  0  0  0  0999 V2000
   -1.7305    0.4917    0.0702 C   0  0  0  0  0  0  0  0  0  0  0  0
   -1.3867    0.2203    1.3829 N   0  0  0  0  0  0  0  0  0  0  0  0
   -1.0906   -0.1182    2.3983 N   0  0  0  0  0  0  0  0  0  0  0  0
   -2.4768   -0.4976   -0.5982 C   0  0  0  0  0  0  0  0  0  0  0  0
   -2.7926   -0.2660   -1.9271 C   0  0  0  0  0  0  0  0  0  0  0  0
   -2.3672    0.9152   -2.5533 C   0  0  0  0  0  0  0  0  0  0  0  0
   -1.6281    1.8753   -1.8589 C   0  0  0  0  0  0  0  0  0  0  0  0
   -1.2955    1.6864   -0.5215 C   0  0  0  0  0  0  0  0  0  0  0  0
   -2.7937   -1.3960   -0.0812 H   0  0  0  0  0  0  0  0  0  0  0  0
   -3.3712   -1.0008   -2.4762 H   0  0  0  0  0  0  0  0  0  0  0  0
   -2.6252    1.0873   -3.5935 H   0  0  0  0  0  0  0  0  0  0  0  0
   -1.3214    2.7919   -2.3502 H   0  0  0  0  0  0  0  0  0  0  0  0
   -0.7683    2.4163    0.0791 H   0  0  0  0  0  0  0  0  0  0  0  0
   -2.0616    3.1378    2.1843 B   0  0  0  0  0  0  0  0  0  0  0  0
   -2.2123    3.9418    3.2844 F   0  0  0  0  0  0  0  0  0  0  0  0
   -0.7210    2.5996    2.1215 F   0  0  0  0  0  0  0  0  0  0  0  0
   -2.9249    2.0055    2.2343 F   0  0  0  0  0  0  0  0  0  0  0  0
   -2.2864    3.8226    0.9801 F   0  0  0  0  0  0  0  0  0  0  0  0
  1  2  1  0  0  0  0
  2  3  1  0  0  0  0
  4  9  1  0  0  0  0
  4  1  2  0  0  0  0
  5  4  1  0  0  0  0
  6  5  2  0  0  0  0
  6  7  1  0  0  0  0
  7  8  2  0  0  0  0
  8  1  1  0  0  0  0
  8 13  1  0  0  0  0
 10  5  1  0  0  0  0
 11  6  1  0  0  0  0
 12  7  1  0  0  0  0
 14 17  1  0  0  0  0
 14 15  1  0  0  0  0
 16 14  1  0  0  0  0
 18 14  1  0  0  0  0
M  RAD  2   2   2   3   3
M  END
