Coordinates from ORCA-job PhN2+~BF4-_B3LYPG-6-31G_dp-NX-Scan-d89-09-n800
 OpenBabel11261920563D

 18 17  0  0  0  0  0  0  0  0999 V2000
   -1.7530    0.2853    0.1236 C   0  0  0  0  0  0  0  0  0  0  0  0
   -1.4310   -0.1565    1.3881 N   0  0  0  0  0  0  0  0  0  0  0  0
   -1.1589   -0.6562    2.3462 N   0  0  0  0  0  0  0  0  0  0  0  0
   -2.5354   -0.5905   -0.6640 C   0  0  0  0  0  0  0  0  0  0  0  0
   -2.8264   -0.1893   -1.9535 C   0  0  0  0  0  0  0  0  0  0  0  0
   -2.3474    1.0446   -2.4307 C   0  0  0  0  0  0  0  0  0  0  0  0
   -1.5828    1.8853   -1.6252 C   0  0  0  0  0  0  0  0  0  0  0  0
   -1.2732    1.5294   -0.3139 C   0  0  0  0  0  0  0  0  0  0  0  0
   -2.8886   -1.5322   -0.2601 H   0  0  0  0  0  0  0  0  0  0  0  0
   -3.4267   -0.8283   -2.5919 H   0  0  0  0  0  0  0  0  0  0  0  0
   -2.5890    1.3485   -3.4443 H   0  0  0  0  0  0  0  0  0  0  0  0
   -1.2449    2.8464   -1.9944 H   0  0  0  0  0  0  0  0  0  0  0  0
   -0.7097    2.1827    0.3505 H   0  0  0  0  0  0  0  0  0  0  0  0
   -2.0344    3.3414    1.9910 B   0  0  0  0  0  0  0  0  0  0  0  0
   -2.4806    4.2757    2.8952 F   0  0  0  0  0  0  0  0  0  0  0  0
   -0.6752    3.5716    1.6310 F   0  0  0  0  0  0  0  0  0  0  0  0
   -2.0912    2.0072    2.5190 F   0  0  0  0  0  0  0  0  0  0  0  0
   -2.8055    3.3480    0.8082 F   0  0  0  0  0  0  0  0  0  0  0  0
  1  2  1  0  0  0  0
  2  3  1  0  0  0  0
  4  9  1  0  0  0  0
  4  1  2  0  0  0  0
  5  4  1  0  0  0  0
  6  5  2  0  0  0  0
  6  7  1  0  0  0  0
  7  8  2  0  0  0  0
  8  1  1  0  0  0  0
  8 13  1  0  0  0  0
 10  5  1  0  0  0  0
 11  6  1  0  0  0  0
 12  7  1  0  0  0  0
 14 17  1  0  0  0  0
 14 15  1  0  0  0  0
 16 14  1  0  0  0  0
 18 14  1  0  0  0  0
M  RAD  2   2   2   3   3
M  END
