Coordinates from ORCA-job PhN2+~BF4-_B3LYPG-6-31G_dp-NX-Scan-d89-09-n800
 OpenBabel11261920563D

 18 17  0  0  0  0  0  0  0  0999 V2000
   -1.2563   -0.2094    0.2595 C   0  0  0  0  0  0  0  0  0  0  0  0
   -0.7311   -1.1135    1.1178 N   0  0  0  0  0  0  0  0  0  0  0  0
   -0.2851   -1.8847    1.8032 N   0  0  0  0  0  0  0  0  0  0  0  0
   -2.5565   -0.4499   -0.2559 C   0  0  0  0  0  0  0  0  0  0  0  0
   -3.0583    0.4637   -1.1529 C   0  0  0  0  0  0  0  0  0  0  0  0
   -2.3047    1.5976   -1.5133 C   0  0  0  0  0  0  0  0  0  0  0  0
   -1.0136    1.8087   -0.9989 C   0  0  0  0  0  0  0  0  0  0  0  0
   -0.4786    0.9217   -0.0913 C   0  0  0  0  0  0  0  0  0  0  0  0
   -3.1167   -1.3233    0.0575 H   0  0  0  0  0  0  0  0  0  0  0  0
   -4.0555    0.3317   -1.5552 H   0  0  0  0  0  0  0  0  0  0  0  0
   -2.7133    2.3045   -2.2216 H   0  0  0  0  0  0  0  0  0  0  0  0
   -0.4777    2.7135   -1.2482 H   0  0  0  0  0  0  0  0  0  0  0  0
    0.4965    1.0750    0.3554 H   0  0  0  0  0  0  0  0  0  0  0  0
   -2.8621    3.5157    0.8739 B   0  0  0  0  0  0  0  0  0  0  0  0
   -3.5463    4.4288    1.6482 F   0  0  0  0  0  0  0  0  0  0  0  0
   -1.6558    4.0559    0.3783 F   0  0  0  0  0  0  0  0  0  0  0  0
   -2.5704    2.3265    1.5811 F   0  0  0  0  0  0  0  0  0  0  0  0
   -3.6684    3.1507   -0.2627 F   0  0  0  0  0  0  0  0  0  0  0  0
  1  2  1  0  0  0  0
  2  3  1  0  0  0  0
  4  9  1  0  0  0  0
  4  1  2  0  0  0  0
  5  4  1  0  0  0  0
  6  5  2  0  0  0  0
  6  7  1  0  0  0  0
  7  8  2  0  0  0  0
  8  1  1  0  0  0  0
  8 13  1  0  0  0  0
 10  5  1  0  0  0  0
 11  6  1  0  0  0  0
 12  7  1  0  0  0  0
 14 17  1  0  0  0  0
 14 15  1  0  0  0  0
 16 14  1  0  0  0  0
 18 14  1  0  0  0  0
M  RAD  2   2   2   3   3
M  END
