Coordinates from ORCA-job PhN2+~BF4-_B3LYPG-6-31G_dp-NX-Scan-d89-09-n800
 OpenBabel11261920573D

 18 17  0  0  0  0  0  0  0  0999 V2000
   -1.9042    0.5734    0.0144 C   0  0  0  0  0  0  0  0  0  0  0  0
   -1.7025    0.4940    1.3858 N   0  0  0  0  0  0  0  0  0  0  0  0
   -1.5360    0.3000    2.4687 N   0  0  0  0  0  0  0  0  0  0  0  0
   -2.4749   -0.5566   -0.5975 C   0  0  0  0  0  0  0  0  0  0  0  0
   -2.6740   -0.5066   -1.9697 C   0  0  0  0  0  0  0  0  0  0  0  0
   -2.3013    0.6364   -2.6895 C   0  0  0  0  0  0  0  0  0  0  0  0
   -1.7261    1.7380   -2.0485 C   0  0  0  0  0  0  0  0  0  0  0  0
   -1.5195    1.7335   -0.6730 C   0  0  0  0  0  0  0  0  0  0  0  0
   -2.7550   -1.4233   -0.0095 H   0  0  0  0  0  0  0  0  0  0  0  0
   -3.1195   -1.3552   -2.4775 H   0  0  0  0  0  0  0  0  0  0  0  0
   -2.4648    0.6657   -3.7625 H   0  0  0  0  0  0  0  0  0  0  0  0
   -1.4442    2.6153   -2.6205 H   0  0  0  0  0  0  0  0  0  0  0  0
   -1.0857    2.5554   -0.1108 H   0  0  0  0  0  0  0  0  0  0  0  0
   -1.8381    3.2883    2.3966 B   0  0  0  0  0  0  0  0  0  0  0  0
   -1.7997    2.5355    3.5836 F   0  0  0  0  0  0  0  0  0  0  0  0
   -0.6090    3.0502    1.6949 F   0  0  0  0  0  0  0  0  0  0  0  0
   -2.8687    2.7437    1.5706 F   0  0  0  0  0  0  0  0  0  0  0  0
   -2.0306    4.6257    2.6193 F   0  0  0  0  0  0  0  0  0  0  0  0
  1  2  1  0  0  0  0
  2  3  1  0  0  0  0
  4  9  1  0  0  0  0
  4  1  1  0  0  0  0
  5  4  2  0  0  0  0
  6  7  2  0  0  0  0
  6  5  1  0  0  0  0
  7  8  1  0  0  0  0
  8 13  1  0  0  0  0
  8  1  2  0  0  0  0
 10  5  1  0  0  0  0
 11  6  1  0  0  0  0
 12  7  1  0  0  0  0
 14 18  1  0  0  0  0
 14 15  1  0  0  0  0
 16 14  1  0  0  0  0
 17 14  1  0  0  0  0
M  RAD  2   2   2   3   3
M  END
