Coordinates from ORCA-job PhN2+~BF4-_B3LYPG-6-31G_dp-NX-Scan-d89-09-n800
 OpenBabel11261920573D

 18 17  0  0  0  0  0  0  0  0999 V2000
   -1.9758    0.5476    0.0204 C   0  0  0  0  0  0  0  0  0  0  0  0
   -1.8301    0.4780    1.3980 N   0  0  0  0  0  0  0  0  0  0  0  0
   -1.7060    0.3764    2.5026 N   0  0  0  0  0  0  0  0  0  0  0  0
   -2.4998   -0.5916   -0.6162 C   0  0  0  0  0  0  0  0  0  0  0  0
   -2.6437   -0.5464   -1.9952 C   0  0  0  0  0  0  0  0  0  0  0  0
   -2.2609    0.6029   -2.7001 C   0  0  0  0  0  0  0  0  0  0  0  0
   -1.7305    1.7132   -2.0367 C   0  0  0  0  0  0  0  0  0  0  0  0
   -1.5794    1.7129   -0.6532 C   0  0  0  0  0  0  0  0  0  0  0  0
   -2.7860   -1.4637   -0.0391 H   0  0  0  0  0  0  0  0  0  0  0  0
   -3.0521   -1.4029   -2.5205 H   0  0  0  0  0  0  0  0  0  0  0  0
   -2.3795    0.6292   -3.7791 H   0  0  0  0  0  0  0  0  0  0  0  0
   -1.4377    2.5943   -2.5975 H   0  0  0  0  0  0  0  0  0  0  0  0
   -1.1778    2.5485   -0.0849 H   0  0  0  0  0  0  0  0  0  0  0  0
   -1.7659    3.3444    2.3883 B   0  0  0  0  0  0  0  0  0  0  0  0
   -1.5420    2.3818    3.4206 F   0  0  0  0  0  0  0  0  0  0  0  0
   -0.6095    3.3569    1.5626 F   0  0  0  0  0  0  0  0  0  0  0  0
   -2.8388    2.8525    1.5971 F   0  0  0  0  0  0  0  0  0  0  0  0
   -2.0383    4.5793    2.9079 F   0  0  0  0  0  0  0  0  0  0  0  0
  1  2  1  0  0  0  0
  2  3  1  0  0  0  0
  4  9  1  0  0  0  0
  4  1  1  0  0  0  0
  5  4  2  0  0  0  0
  6  7  2  0  0  0  0
  6  5  1  0  0  0  0
  7  8  1  0  0  0  0
  8 13  1  0  0  0  0
  8  1  2  0  0  0  0
 10  5  1  0  0  0  0
 11  6  1  0  0  0  0
 12  7  1  0  0  0  0
 14 18  1  0  0  0  0
 14 15  1  0  0  0  0
 16 14  1  0  0  0  0
 17 14  1  0  0  0  0
M  RAD  2   2   2   3   3
M  END
