Coordinates from ORCA-job PhN2+~BF4-_B3LYPG-6-31G_dp-NX-Scan-d89-09-n800
 OpenBabel11261920563D

 18 17  0  0  0  0  0  0  0  0999 V2000
   -1.2514   -0.5420    0.1606 C   0  0  0  0  0  0  0  0  0  0  0  0
   -0.8508   -1.5699    0.9357 N   0  0  0  0  0  0  0  0  0  0  0  0
   -0.5186   -2.4061    1.6091 N   0  0  0  0  0  0  0  0  0  0  0  0
   -2.4842   -0.6590   -0.5349 C   0  0  0  0  0  0  0  0  0  0  0  0
   -2.9370    0.4525   -1.2066 C   0  0  0  0  0  0  0  0  0  0  0  0
   -2.2115    1.6604   -1.1513 C   0  0  0  0  0  0  0  0  0  0  0  0
   -0.9436    1.7242   -0.5318 C   0  0  0  0  0  0  0  0  0  0  0  0
   -0.4533    0.6350    0.1444 C   0  0  0  0  0  0  0  0  0  0  0  0
   -3.0430   -1.5878   -0.5025 H   0  0  0  0  0  0  0  0  0  0  0  0
   -3.8891    0.4199   -1.7232 H   0  0  0  0  0  0  0  0  0  0  0  0
   -2.6140    2.5618   -1.6012 H   0  0  0  0  0  0  0  0  0  0  0  0
   -0.4317    2.6764   -0.4896 H   0  0  0  0  0  0  0  0  0  0  0  0
    0.4827    0.6655    0.6901 H   0  0  0  0  0  0  0  0  0  0  0  0
   -2.9489    3.9736    0.6097 B   0  0  0  0  0  0  0  0  0  0  0  0
   -3.6513    4.6916    1.5454 F   0  0  0  0  0  0  0  0  0  0  0  0
   -3.2654    4.3486   -0.7139 F   0  0  0  0  0  0  0  0  0  0  0  0
   -1.5550    4.0933    0.7971 F   0  0  0  0  0  0  0  0  0  0  0  0
   -3.2878    2.5752    0.7378 F   0  0  0  0  0  0  0  0  0  0  0  0
  1  2  1  0  0  0  0
  2  3  1  0  0  0  0
  4  9  1  0  0  0  0
  4  1  2  0  0  0  0
  5  6  2  0  0  0  0
  5  4  1  0  0  0  0
  6  7  1  0  0  0  0
  7 12  1  0  0  0  0
  7  8  2  0  0  0  0
  8  1  1  0  0  0  0
  8 13  1  0  0  0  0
 10  5  1  0  0  0  0
 11  6  1  0  0  0  0
 14 18  1  0  0  0  0
 14 17  1  0  0  0  0
 14 15  1  0  0  0  0
 16 14  1  0  0  0  0
M  RAD  2   2   2   3   3
M  END
