Coordinates from ORCA-job PhN2+~BF4-_B3LYPG-6-31G_dp-NX-Scan-d89-09-n800
 OpenBabel11261920573D

 18 17  0  0  0  0  0  0  0  0999 V2000
   -1.8431    0.5346    0.0276 C   0  0  0  0  0  0  0  0  0  0  0  0
   -1.5813    0.3756    1.3814 N   0  0  0  0  0  0  0  0  0  0  0  0
   -1.3523    0.0923    2.4303 N   0  0  0  0  0  0  0  0  0  0  0  0
   -2.4612   -0.5524   -0.6148 C   0  0  0  0  0  0  0  0  0  0  0  0
   -2.7085   -0.4319   -1.9750 C   0  0  0  0  0  0  0  0  0  0  0  0
   -2.3397    0.7373   -2.6529 C   0  0  0  0  0  0  0  0  0  0  0  0
   -1.7223    1.7973   -1.9809 C   0  0  0  0  0  0  0  0  0  0  0  0
   -1.4660    1.7213   -0.6170 C   0  0  0  0  0  0  0  0  0  0  0  0
   -2.7386   -1.4411   -0.0594 H   0  0  0  0  0  0  0  0  0  0  0  0
   -3.1896   -1.2465   -2.5055 H   0  0  0  0  0  0  0  0  0  0  0  0
   -2.5411    0.8217   -3.7163 H   0  0  0  0  0  0  0  0  0  0  0  0
   -1.4481    2.6987   -2.5182 H   0  0  0  0  0  0  0  0  0  0  0  0
   -1.0032    2.5086   -0.0308 H   0  0  0  0  0  0  0  0  0  0  0  0
   -1.9068    3.2610    2.3510 B   0  0  0  0  0  0  0  0  0  0  0  0
   -1.9454    3.1713    3.7269 F   0  0  0  0  0  0  0  0  0  0  0  0
   -0.6442    2.7194    1.8804 F   0  0  0  0  0  0  0  0  0  0  0  0
   -2.9080    2.4037    1.7819 F   0  0  0  0  0  0  0  0  0  0  0  0
   -2.0544    4.5424    1.8661 F   0  0  0  0  0  0  0  0  0  0  0  0
  1  2  1  0  0  0  0
  2  3  1  0  0  0  0
  4  9  1  0  0  0  0
  4  1  1  0  0  0  0
  5  4  2  0  0  0  0
  6  7  2  0  0  0  0
  6  5  1  0  0  0  0
  7  8  1  0  0  0  0
  8 13  1  0  0  0  0
  8  1  2  0  0  0  0
 10  5  1  0  0  0  0
 11  6  1  0  0  0  0
 12  7  1  0  0  0  0
 14 15  1  0  0  0  0
 16 14  1  0  0  0  0
 17 14  1  0  0  0  0
 18 14  1  0  0  0  0
M  RAD  2   2   2   3   3
M  END
