Coordinates from ORCA-job PhN2+~BF4-_B3LYPG-6-31G_dp-NX-Scan-d89-09-n800
 OpenBabel11261920563D

 18 17  0  0  0  0  0  0  0  0999 V2000
   -1.2587   -0.4095    0.1788 C   0  0  0  0  0  0  0  0  0  0  0  0
   -0.7781   -1.3635    1.0071 N   0  0  0  0  0  0  0  0  0  0  0  0
   -0.3765   -2.1428    1.7091 N   0  0  0  0  0  0  0  0  0  0  0  0
   -2.4925   -0.6492   -0.4833 C   0  0  0  0  0  0  0  0  0  0  0  0
   -3.0070    0.3766   -1.2426 C   0  0  0  0  0  0  0  0  0  0  0  0
   -2.3323    1.6114   -1.3190 C   0  0  0  0  0  0  0  0  0  0  0  0
   -1.0784    1.8000   -0.7097 C   0  0  0  0  0  0  0  0  0  0  0  0
   -0.5310    0.8029    0.0634 C   0  0  0  0  0  0  0  0  0  0  0  0
   -3.0033   -1.5979   -0.3635 H   0  0  0  0  0  0  0  0  0  0  0  0
   -3.9631    0.2525   -1.7374 H   0  0  0  0  0  0  0  0  0  0  0  0
   -2.7647    2.4429   -1.8582 H   0  0  0  0  0  0  0  0  0  0  0  0
   -0.6199    2.7778   -0.7617 H   0  0  0  0  0  0  0  0  0  0  0  0
    0.3958    0.9392    0.6076 H   0  0  0  0  0  0  0  0  0  0  0  0
   -2.8131    3.8018    0.7603 B   0  0  0  0  0  0  0  0  0  0  0  0
   -3.5000    4.7578    1.4705 F   0  0  0  0  0  0  0  0  0  0  0  0
   -2.2552    4.3379   -0.4326 F   0  0  0  0  0  0  0  0  0  0  0  0
   -1.7738    3.2290    1.5216 F   0  0  0  0  0  0  0  0  0  0  0  0
   -3.7020    2.7463    0.3645 F   0  0  0  0  0  0  0  0  0  0  0  0
  1  2  1  0  0  0  0
  2  3  1  0  0  0  0
  4  9  1  0  0  0  0
  4  1  2  0  0  0  0
  5  4  1  0  0  0  0
  6  5  2  0  0  0  0
  6  7  1  0  0  0  0
  7  8  2  0  0  0  0
  8  1  1  0  0  0  0
  8 13  1  0  0  0  0
 10  5  1  0  0  0  0
 11  6  1  0  0  0  0
 12  7  1  0  0  0  0
 14 15  1  0  0  0  0
 14 17  1  0  0  0  0
 16 14  1  0  0  0  0
 18 14  1  0  0  0  0
M  RAD  2   2   2   3   3
M  END
