Coordinates from ORCA-job PhN2+~BF4-_B3LYPG-6-31G_dp-NX-Scan-d89-09-n800
 OpenBabel11261920573D

 18 17  0  0  0  0  0  0  0  0999 V2000
   -1.8602    0.5603    0.0192 C   0  0  0  0  0  0  0  0  0  0  0  0
   -1.6199    0.4418    1.3815 N   0  0  0  0  0  0  0  0  0  0  0  0
   -1.4162    0.1825    2.4424 N   0  0  0  0  0  0  0  0  0  0  0  0
   -2.4642   -0.5479   -0.6004 C   0  0  0  0  0  0  0  0  0  0  0  0
   -2.6971   -0.4657   -1.9658 C   0  0  0  0  0  0  0  0  0  0  0  0
   -2.3285    0.6876   -2.6707 C   0  0  0  0  0  0  0  0  0  0  0  0
   -1.7228    1.7683   -2.0216 C   0  0  0  0  0  0  0  0  0  0  0  0
   -1.4802    1.7304   -0.6532 C   0  0  0  0  0  0  0  0  0  0  0  0
   -2.7420   -1.4231   -0.0240 H   0  0  0  0  0  0  0  0  0  0  0  0
   -3.1669   -1.2975   -2.4794 H   0  0  0  0  0  0  0  0  0  0  0  0
   -2.5198    0.7424   -3.7380 H   0  0  0  0  0  0  0  0  0  0  0  0
   -1.4466    2.6554   -2.5810 H   0  0  0  0  0  0  0  0  0  0  0  0
   -1.0230    2.5324   -0.0827 H   0  0  0  0  0  0  0  0  0  0  0  0
   -1.8859    3.2691    2.3794 B   0  0  0  0  0  0  0  0  0  0  0  0
   -1.9201    2.8400    3.6992 F   0  0  0  0  0  0  0  0  0  0  0  0
   -0.6324    2.8385    1.7970 F   0  0  0  0  0  0  0  0  0  0  0  0
   -2.8970    2.5716    1.6392 F   0  0  0  0  0  0  0  0  0  0  0  0
   -2.0309    4.6270    2.2340 F   0  0  0  0  0  0  0  0  0  0  0  0
  1  2  1  0  0  0  0
  2  3  1  0  0  0  0
  4  9  1  0  0  0  0
  4  1  1  0  0  0  0
  5  4  2  0  0  0  0
  6  7  2  0  0  0  0
  6  5  1  0  0  0  0
  7  8  1  0  0  0  0
  8 13  1  0  0  0  0
  8  1  2  0  0  0  0
 10  5  1  0  0  0  0
 11  6  1  0  0  0  0
 12  7  1  0  0  0  0
 14 15  1  0  0  0  0
 16 14  1  0  0  0  0
 17 14  1  0  0  0  0
 18 14  1  0  0  0  0
M  RAD  2   2   2   3   3
M  END
