Coordinates from ORCA-job PhN2+~BF4-_B3LYPG-6-31G_dp-NX-Scan-d89-09-n800
 OpenBabel11261920573D

 18 17  0  0  0  0  0  0  0  0999 V2000
   -1.8498    0.5499    0.0220 C   0  0  0  0  0  0  0  0  0  0  0  0
   -1.6000    0.4155    1.3809 N   0  0  0  0  0  0  0  0  0  0  0  0
   -1.3844    0.1444    2.4363 N   0  0  0  0  0  0  0  0  0  0  0  0
   -2.4604   -0.5501   -0.6055 C   0  0  0  0  0  0  0  0  0  0  0  0
   -2.7021   -0.4525   -1.9684 C   0  0  0  0  0  0  0  0  0  0  0  0
   -2.3361    0.7078   -2.6630 C   0  0  0  0  0  0  0  0  0  0  0  0
   -1.7242    1.7804   -2.0061 C   0  0  0  0  0  0  0  0  0  0  0  0
   -1.4724    1.7268   -0.6401 C   0  0  0  0  0  0  0  0  0  0  0  0
   -2.7364   -1.4309   -0.0368 H   0  0  0  0  0  0  0  0  0  0  0  0
   -3.1770   -1.2777   -2.4879 H   0  0  0  0  0  0  0  0  0  0  0  0
   -2.5346    0.7748   -3.7282 H   0  0  0  0  0  0  0  0  0  0  0  0
   -1.4506    2.6735   -2.5573 H   0  0  0  0  0  0  0  0  0  0  0  0
   -1.0103    2.5215   -0.0635 H   0  0  0  0  0  0  0  0  0  0  0  0
   -1.8968    3.2662    2.3687 B   0  0  0  0  0  0  0  0  0  0  0  0
   -1.9466    2.9689    3.7193 F   0  0  0  0  0  0  0  0  0  0  0  0
   -0.6384    2.7793    1.8374 F   0  0  0  0  0  0  0  0  0  0  0  0
   -2.9037    2.5100    1.6808 F   0  0  0  0  0  0  0  0  0  0  0  0
   -2.0300    4.6053    2.0864 F   0  0  0  0  0  0  0  0  0  0  0  0
  1  2  1  0  0  0  0
  2  3  1  0  0  0  0
  4  9  1  0  0  0  0
  4  1  1  0  0  0  0
  5  4  2  0  0  0  0
  6  7  2  0  0  0  0
  6  5  1  0  0  0  0
  7  8  1  0  0  0  0
  8 13  1  0  0  0  0
  8  1  2  0  0  0  0
 10  5  1  0  0  0  0
 11  6  1  0  0  0  0
 12  7  1  0  0  0  0
 14 15  1  0  0  0  0
 16 14  1  0  0  0  0
 17 14  1  0  0  0  0
 18 14  1  0  0  0  0
M  RAD  2   2   2   3   3
M  END
