Coordinates from ORCA-job PhN2+~BF4-_B3LYPG-6-31G_dp-NX-Scan-d89-09-n800
 OpenBabel11261920563D

 18 17  0  0  0  0  0  0  0  0999 V2000
   -1.2241   -0.6394    0.1332 C   0  0  0  0  0  0  0  0  0  0  0  0
   -0.7434   -1.7268    0.7730 N   0  0  0  0  0  0  0  0  0  0  0  0
   -0.3377   -2.6162    1.3265 N   0  0  0  0  0  0  0  0  0  0  0  0
   -2.4476   -0.7590   -0.5746 C   0  0  0  0  0  0  0  0  0  0  0  0
   -2.9541    0.3829   -1.1570 C   0  0  0  0  0  0  0  0  0  0  0  0
   -2.2842    1.6135   -1.0157 C   0  0  0  0  0  0  0  0  0  0  0  0
   -1.0473    1.6975   -0.3370 C   0  0  0  0  0  0  0  0  0  0  0  0
   -0.5020    0.5814    0.2478 C   0  0  0  0  0  0  0  0  0  0  0  0
   -2.9534   -1.7164   -0.6341 H   0  0  0  0  0  0  0  0  0  0  0  0
   -3.8952    0.3398   -1.6934 H   0  0  0  0  0  0  0  0  0  0  0  0
   -2.7058    2.5238   -1.4321 H   0  0  0  0  0  0  0  0  0  0  0  0
   -0.6057    2.6787   -0.2005 H   0  0  0  0  0  0  0  0  0  0  0  0
    0.4232    0.6157    0.8117 H   0  0  0  0  0  0  0  0  0  0  0  0
   -2.9247    4.1816    0.5184 B   0  0  0  0  0  0  0  0  0  0  0  0
   -3.6069    5.0447    1.3387 F   0  0  0  0  0  0  0  0  0  0  0  0
   -3.2787    4.3453   -0.8428 F   0  0  0  0  0  0  0  0  0  0  0  0
   -1.5240    4.3422    0.6403 F   0  0  0  0  0  0  0  0  0  0  0  0
   -3.2424    2.8240    0.8728 F   0  0  0  0  0  0  0  0  0  0  0  0
  1  8  1  0  0  0  0
  1  2  1  0  0  0  0
  2  3  1  0  0  0  0
  4  1  2  0  0  0  0
  5  6  2  0  0  0  0
  5  4  1  0  0  0  0
  6  7  1  0  0  0  0
  7 12  1  0  0  0  0
  7  8  2  0  0  0  0
  8 13  1  0  0  0  0
  9  4  1  0  0  0  0
 10  5  1  0  0  0  0
 11  6  1  0  0  0  0
 14 17  1  0  0  0  0
 14 18  1  0  0  0  0
 14 15  1  0  0  0  0
 16 14  1  0  0  0  0
M  RAD  2   2   2   3   3
M  END
