Coordinates from ORCA-job PhN2+~BF4-_B3LYPG-6-31G_dp-NX-Scan-d89-09-n800
 OpenBabel11261920573D

 18 17  0  0  0  0  0  0  0  0999 V2000
   -1.8471    0.5455    0.0233 C   0  0  0  0  0  0  0  0  0  0  0  0
   -1.5932    0.4042    1.3807 N   0  0  0  0  0  0  0  0  0  0  0  0
   -1.3726    0.1284    2.4337 N   0  0  0  0  0  0  0  0  0  0  0  0
   -2.4609   -0.5505   -0.6079 C   0  0  0  0  0  0  0  0  0  0  0  0
   -2.7047   -0.4465   -1.9700 C   0  0  0  0  0  0  0  0  0  0  0  0
   -2.3375    0.7160   -2.6602 C   0  0  0  0  0  0  0  0  0  0  0  0
   -1.7230    1.7848   -1.9995 C   0  0  0  0  0  0  0  0  0  0  0  0
   -1.4694    1.7249   -0.6342 C   0  0  0  0  0  0  0  0  0  0  0  0
   -2.7376   -1.4333   -0.0426 H   0  0  0  0  0  0  0  0  0  0  0  0
   -3.1821   -1.2685   -2.4923 H   0  0  0  0  0  0  0  0  0  0  0  0
   -2.5374    0.7879   -3.7249 H   0  0  0  0  0  0  0  0  0  0  0  0
   -1.4490    2.6799   -2.5471 H   0  0  0  0  0  0  0  0  0  0  0  0
   -1.0061    2.5169   -0.0548 H   0  0  0  0  0  0  0  0  0  0  0  0
   -1.9007    3.2653    2.3644 B   0  0  0  0  0  0  0  0  0  0  0  0
   -1.9484    3.0247    3.7248 F   0  0  0  0  0  0  0  0  0  0  0  0
   -0.6408    2.7625    1.8498 F   0  0  0  0  0  0  0  0  0  0  0  0
   -2.9055    2.4797    1.7063 F   0  0  0  0  0  0  0  0  0  0  0  0
   -2.0379    4.5916    2.0254 F   0  0  0  0  0  0  0  0  0  0  0  0
  1  2  1  0  0  0  0
  2  3  1  0  0  0  0
  4  9  1  0  0  0  0
  4  1  1  0  0  0  0
  5  4  2  0  0  0  0
  6  7  2  0  0  0  0
  6  5  1  0  0  0  0
  7  8  1  0  0  0  0
  8 13  1  0  0  0  0
  8  1  2  0  0  0  0
 10  5  1  0  0  0  0
 11  6  1  0  0  0  0
 12  7  1  0  0  0  0
 14 15  1  0  0  0  0
 16 14  1  0  0  0  0
 17 14  1  0  0  0  0
 18 14  1  0  0  0  0
M  RAD  2   2   2   3   3
M  END
