Coordinates from ORCA-job PhN2+~BF4-_B3LYPG-6-31G_dp-NX-Scan-d89-09-n800
 OpenBabel11261920563D

 18 17  0  0  0  0  0  0  0  0999 V2000
   -1.2772   -0.1448    0.2613 C   0  0  0  0  0  0  0  0  0  0  0  0
   -0.7763   -0.9940    1.1866 N   0  0  0  0  0  0  0  0  0  0  0  0
   -0.3522   -1.7179    1.9339 N   0  0  0  0  0  0  0  0  0  0  0  0
   -2.5714   -0.4054   -0.2565 C   0  0  0  0  0  0  0  0  0  0  0  0
   -3.0622    0.4713   -1.1953 C   0  0  0  0  0  0  0  0  0  0  0  0
   -2.3042    1.5904   -1.5881 C   0  0  0  0  0  0  0  0  0  0  0  0
   -1.0136    1.8137   -1.0813 C   0  0  0  0  0  0  0  0  0  0  0  0
   -0.4896    0.9635   -0.1325 C   0  0  0  0  0  0  0  0  0  0  0  0
   -3.1382   -1.2613    0.0911 H   0  0  0  0  0  0  0  0  0  0  0  0
   -4.0565    0.3261   -1.6001 H   0  0  0  0  0  0  0  0  0  0  0  0
   -2.7123    2.2780   -2.3165 H   0  0  0  0  0  0  0  0  0  0  0  0
   -0.4663    2.7008   -1.3680 H   0  0  0  0  0  0  0  0  0  0  0  0
    0.4796    1.1351    0.3199 H   0  0  0  0  0  0  0  0  0  0  0  0
   -2.8251    3.4123    0.9311 B   0  0  0  0  0  0  0  0  0  0  0  0
   -3.4998    4.2927    1.7502 F   0  0  0  0  0  0  0  0  0  0  0  0
   -1.5862    3.9367    0.5091 F   0  0  0  0  0  0  0  0  0  0  0  0
   -2.5930    2.1683    1.5733 F   0  0  0  0  0  0  0  0  0  0  0  0
   -3.6095    3.1476   -0.2432 F   0  0  0  0  0  0  0  0  0  0  0  0
  1  2  1  0  0  0  0
  2  3  1  0  0  0  0
  4  9  1  0  0  0  0
  4  1  2  0  0  0  0
  5  4  1  0  0  0  0
  6  5  2  0  0  0  0
  6  7  1  0  0  0  0
  7  8  2  0  0  0  0
  8  1  1  0  0  0  0
  8 13  1  0  0  0  0
 10  5  1  0  0  0  0
 11  6  1  0  0  0  0
 12  7  1  0  0  0  0
 14 17  1  0  0  0  0
 14 15  1  0  0  0  0
 16 14  1  0  0  0  0
 18 14  1  0  0  0  0
M  RAD  2   2   2   3   3
M  END
