Coordinates from ORCA-job PhN2+~BF4-_B3LYPG-6-31G_dp-NX-Scan-d89-09-n800
 OpenBabel11261920563D

 18 17  0  0  0  0  0  0  0  0999 V2000
   -1.7260    0.3502    0.1001 C   0  0  0  0  0  0  0  0  0  0  0  0
   -1.3740   -0.0290    1.3776 N   0  0  0  0  0  0  0  0  0  0  0  0
   -1.0639   -0.4486    2.3608 N   0  0  0  0  0  0  0  0  0  0  0  0
   -2.5162   -0.5574   -0.6383 C   0  0  0  0  0  0  0  0  0  0  0  0
   -2.8317   -0.2049   -1.9374 C   0  0  0  0  0  0  0  0  0  0  0  0
   -2.3683    1.0123   -2.4680 C   0  0  0  0  0  0  0  0  0  0  0  0
   -1.5937    1.8867   -1.7075 C   0  0  0  0  0  0  0  0  0  0  0  0
   -1.2579    1.5781   -0.3914 C   0  0  0  0  0  0  0  0  0  0  0  0
   -2.8588   -1.4842   -0.1932 H   0  0  0  0  0  0  0  0  0  0  0  0
   -3.4397   -0.8697   -2.5412 H   0  0  0  0  0  0  0  0  0  0  0  0
   -2.6293    1.2776   -3.4876 H   0  0  0  0  0  0  0  0  0  0  0  0
   -1.2669    2.8340   -2.1201 H   0  0  0  0  0  0  0  0  0  0  0  0
   -0.6932    2.2435    0.2579 H   0  0  0  0  0  0  0  0  0  0  0  0
   -2.0628    3.2581    2.0541 B   0  0  0  0  0  0  0  0  0  0  0  0
   -2.4373    4.2102    2.9692 F   0  0  0  0  0  0  0  0  0  0  0  0
   -0.6432    3.2160    1.8923 F   0  0  0  0  0  0  0  0  0  0  0  0
   -2.4580    1.9442    2.4620 F   0  0  0  0  0  0  0  0  0  0  0  0
   -2.6329    3.4964    0.7857 F   0  0  0  0  0  0  0  0  0  0  0  0
  1  2  1  0  0  0  0
  2  3  1  0  0  0  0
  4  9  1  0  0  0  0
  4  1  2  0  0  0  0
  5  4  1  0  0  0  0
  6  5  2  0  0  0  0
  6  7  1  0  0  0  0
  7  8  2  0  0  0  0
  8  1  1  0  0  0  0
  8 13  1  0  0  0  0
 10  5  1  0  0  0  0
 11  6  1  0  0  0  0
 12  7  1  0  0  0  0
 14 17  1  0  0  0  0
 14 15  1  0  0  0  0
 16 14  1  0  0  0  0
 18 14  1  0  0  0  0
M  RAD  2   2   2   3   3
M  END
