Coordinates from ORCA-job PhN2+~BF4-_B3LYPG-6-31G_dp-NX-Scan-d89-09-n800
 OpenBabel11261920563D

 18 17  0  0  0  0  0  0  0  0999 V2000
   -1.2486   -0.2715    0.2434 C   0  0  0  0  0  0  0  0  0  0  0  0
   -0.7257   -1.2018    1.0754 N   0  0  0  0  0  0  0  0  0  0  0  0
   -0.2833   -1.9911    1.7417 N   0  0  0  0  0  0  0  0  0  0  0  0
   -2.5390   -0.5070   -0.3006 C   0  0  0  0  0  0  0  0  0  0  0  0
   -3.0447    0.4428   -1.1573 C   0  0  0  0  0  0  0  0  0  0  0  0
   -2.3031    1.6030   -1.4547 C   0  0  0  0  0  0  0  0  0  0  0  0
   -1.0176    1.8031   -0.9225 C   0  0  0  0  0  0  0  0  0  0  0  0
   -0.4808    0.8830   -0.0493 C   0  0  0  0  0  0  0  0  0  0  0  0
   -3.0908   -1.4012   -0.0343 H   0  0  0  0  0  0  0  0  0  0  0  0
   -4.0367    0.3176   -1.5744 H   0  0  0  0  0  0  0  0  0  0  0  0
   -2.7195    2.3458   -2.1203 H   0  0  0  0  0  0  0  0  0  0  0  0
   -0.4996    2.7311   -1.1175 H   0  0  0  0  0  0  0  0  0  0  0  0
    0.4873    1.0280    0.4150 H   0  0  0  0  0  0  0  0  0  0  0  0
   -2.8709    3.6071    0.8347 B   0  0  0  0  0  0  0  0  0  0  0  0
   -3.5396    4.5495    1.5873 F   0  0  0  0  0  0  0  0  0  0  0  0
   -1.7776    4.1831    0.1472 F   0  0  0  0  0  0  0  0  0  0  0  0
   -2.4040    2.5308    1.6191 F   0  0  0  0  0  0  0  0  0  0  0  0
   -3.7597    3.0609   -0.1578 F   0  0  0  0  0  0  0  0  0  0  0  0
  1  2  1  0  0  0  0
  2  3  1  0  0  0  0
  4  9  1  0  0  0  0
  4  1  2  0  0  0  0
  5  4  1  0  0  0  0
  6  5  2  0  0  0  0
  6  7  1  0  0  0  0
  7  8  2  0  0  0  0
  8  1  1  0  0  0  0
  8 13  1  0  0  0  0
 10  5  1  0  0  0  0
 11  6  1  0  0  0  0
 12  7  1  0  0  0  0
 14 15  1  0  0  0  0
 14 17  1  0  0  0  0
 16 14  1  0  0  0  0
 18 14  1  0  0  0  0
M  RAD  2   2   2   3   3
M  END
