Coordinates from ORCA-job PhN2+~BF4-_B3LYPG-6-31G_dp-NX-Scan-d89-09-n800
 OpenBabel11261920563D

 18 17  0  0  0  0  0  0  0  0999 V2000
   -1.2569   -0.2078    0.2595 C   0  0  0  0  0  0  0  0  0  0  0  0
   -0.7326   -1.1103    1.1200 N   0  0  0  0  0  0  0  0  0  0  0  0
   -0.2873   -1.8800    1.8076 N   0  0  0  0  0  0  0  0  0  0  0  0
   -2.5570   -0.4485   -0.2560 C   0  0  0  0  0  0  0  0  0  0  0  0
   -3.0583    0.4643   -1.1541 C   0  0  0  0  0  0  0  0  0  0  0  0
   -2.3044    1.5978   -1.5151 C   0  0  0  0  0  0  0  0  0  0  0  0
   -1.0132    1.8088   -1.0011 C   0  0  0  0  0  0  0  0  0  0  0  0
   -0.4786    0.9226   -0.0925 C   0  0  0  0  0  0  0  0  0  0  0  0
   -3.1175   -1.3213    0.0584 H   0  0  0  0  0  0  0  0  0  0  0  0
   -4.0555    0.3323   -1.5563 H   0  0  0  0  0  0  0  0  0  0  0  0
   -2.7131    2.3045   -2.2236 H   0  0  0  0  0  0  0  0  0  0  0  0
   -0.4770    2.7132   -1.2512 H   0  0  0  0  0  0  0  0  0  0  0  0
    0.4963    1.0761    0.3543 H   0  0  0  0  0  0  0  0  0  0  0  0
   -2.8613    3.5125    0.8751 B   0  0  0  0  0  0  0  0  0  0  0  0
   -3.5450    4.4241    1.6515 F   0  0  0  0  0  0  0  0  0  0  0  0
   -1.6551    4.0534    0.3801 F   0  0  0  0  0  0  0  0  0  0  0  0
   -2.5694    2.3219    1.5802 F   0  0  0  0  0  0  0  0  0  0  0  0
   -3.6681    3.1497   -0.2618 F   0  0  0  0  0  0  0  0  0  0  0  0
  1  2  1  0  0  0  0
  2  3  1  0  0  0  0
  4  9  1  0  0  0  0
  4  1  2  0  0  0  0
  5  4  1  0  0  0  0
  6  5  2  0  0  0  0
  6  7  1  0  0  0  0
  7  8  2  0  0  0  0
  8  1  1  0  0  0  0
  8 13  1  0  0  0  0
 10  5  1  0  0  0  0
 11  6  1  0  0  0  0
 12  7  1  0  0  0  0
 14 17  1  0  0  0  0
 14 15  1  0  0  0  0
 16 14  1  0  0  0  0
 18 14  1  0  0  0  0
M  RAD  2   2   2   3   3
M  END
