Coordinates from ORCA-job PhN2+~BF4-_B3LYPG-6-31G_dp-NX-Scan-d89-09-n800
 OpenBabel11261920563D

 18 17  0  0  0  0  0  0  0  0999 V2000
   -1.3723    0.1010    0.2532 C   0  0  0  0  0  0  0  0  0  0  0  0
   -0.9094   -0.5554    1.3465 N   0  0  0  0  0  0  0  0  0  0  0  0
   -0.5172   -1.1308    2.2242 N   0  0  0  0  0  0  0  0  0  0  0  0
   -2.6011   -0.3269   -0.3024 C   0  0  0  0  0  0  0  0  0  0  0  0
   -3.0585    0.3496   -1.4117 C   0  0  0  0  0  0  0  0  0  0  0  0
   -2.3226    1.4287   -1.9300 C   0  0  0  0  0  0  0  0  0  0  0  0
   -1.1077    1.8254   -1.3697 C   0  0  0  0  0  0  0  0  0  0  0  0
   -0.6166    1.1828   -0.2470 C   0  0  0  0  0  0  0  0  0  0  0  0
   -3.1527   -1.1421    0.1498 H   0  0  0  0  0  0  0  0  0  0  0  0
   -4.0053    0.0704   -1.8587 H   0  0  0  0  0  0  0  0  0  0  0  0
   -2.7182    1.9786   -2.7767 H   0  0  0  0  0  0  0  0  0  0  0  0
   -0.5824    2.6890   -1.7573 H   0  0  0  0  0  0  0  0  0  0  0  0
    0.2840    1.5068    0.2546 H   0  0  0  0  0  0  0  0  0  0  0  0
   -2.6525    3.1678    1.2536 B   0  0  0  0  0  0  0  0  0  0  0  0
   -3.1699    4.1334    2.0941 F   0  0  0  0  0  0  0  0  0  0  0  0
   -1.2256    3.2374    1.2234 F   0  0  0  0  0  0  0  0  0  0  0  0
   -2.9914    1.8568    1.6925 F   0  0  0  0  0  0  0  0  0  0  0  0
   -3.1344    3.3407   -0.0634 F   0  0  0  0  0  0  0  0  0  0  0  0
  1  2  1  0  0  0  0
  2  3  1  0  0  0  0
  4  9  1  0  0  0  0
  4  1  2  0  0  0  0
  5  4  1  0  0  0  0
  6  5  2  0  0  0  0
  6  7  1  0  0  0  0
  7  8  2  0  0  0  0
  8  1  1  0  0  0  0
  8 13  1  0  0  0  0
 10  5  1  0  0  0  0
 11  6  1  0  0  0  0
 12  7  1  0  0  0  0
 14 17  1  0  0  0  0
 14 15  1  0  0  0  0
 16 14  1  0  0  0  0
 18 14  1  0  0  0  0
M  RAD  2   2   2   3   3
M  END
