Coordinates from ORCA-job PhN2+~BF4-_B3LYPG-6-31G_dp-NX-Scan-d89-09-n800
 OpenBabel11261920573D

 18 18  0  0  0  0  0  0  0  0999 V2000
   -2.2518    1.1168   -0.2510 C   0  0  0  0  0  0  0  0  0  0  0  0
   -2.5764    1.6580    1.0314 N   0  0  0  0  0  0  0  0  0  0  0  0
   -1.7125    2.4076    1.6000 N   0  0  0  0  0  0  0  0  0  0  0  0
   -2.8094   -0.1475   -0.4989 C   0  0  0  0  0  0  0  0  0  0  0  0
   -2.6028   -0.7813   -1.7201 C   0  0  0  0  0  0  0  0  0  0  0  0
   -1.8646   -0.1463   -2.7222 C   0  0  0  0  0  0  0  0  0  0  0  0
   -1.3369    1.1256   -2.4951 C   0  0  0  0  0  0  0  0  0  0  0  0
   -1.5181    1.7597   -1.2664 C   0  0  0  0  0  0  0  0  0  0  0  0
   -3.3977   -0.6111    0.2862 H   0  0  0  0  0  0  0  0  0  0  0  0
   -3.0279   -1.7645   -1.8951 H   0  0  0  0  0  0  0  0  0  0  0  0
   -1.7107   -0.6348   -3.6794 H   0  0  0  0  0  0  0  0  0  0  0  0
   -0.7799    1.6316   -3.2779 H   0  0  0  0  0  0  0  0  0  0  0  0
   -1.1165    2.7587   -1.1332 H   0  0  0  0  0  0  0  0  0  0  0  0
   -2.0607    3.0847    3.2090 B   0  0  0  0  0  0  0  0  0  0  0  0
   -0.8772    2.6272    1.2287 F   0  0  0  0  0  0  0  0  0  0  0  0
   -1.8817    4.4106    2.9136 F   0  0  0  0  0  0  0  0  0  0  0  0
   -1.0250    2.5246    3.9068 F   0  0  0  0  0  0  0  0  0  0  0  0
   -3.3041    2.6936    3.5388 F   0  0  0  0  0  0  0  0  0  0  0  0
  1  2  1  0  0  0  0
  2  3  1  0  0  0  0
  3 14  1  0  0  0  0
  4  1  1  0  0  0  0
  4  9  1  0  0  0  0
  5  4  2  0  0  0  0
  6  7  2  0  0  0  0
  6  5  1  0  0  0  0
  7  8  1  0  0  0  0
  8 13  1  0  0  0  0
  8  1  2  0  0  0  0
 10  5  1  0  0  0  0
 11  6  1  0  0  0  0
 12  7  1  0  0  0  0
 14 18  1  0  0  0  0
 14 17  1  0  0  0  0
 15  3  1  0  0  0  0
 16 14  1  0  0  0  0
M  RAD  1   2   2
M  END
