Coordinates from ORCA-job PhN2+~BF4-_B3LYPG-6-31G_dp-NX-Scan-d89-09-n800
 OpenBabel11261920573D

 18 17  0  0  0  0  0  0  0  0999 V2000
   -1.8830    0.5699    0.0155 C   0  0  0  0  0  0  0  0  0  0  0  0
   -1.6555    0.4682    1.3818 N   0  0  0  0  0  0  0  0  0  0  0  0
   -1.4627    0.2257    2.4493 N   0  0  0  0  0  0  0  0  0  0  0  0
   -2.4785   -0.5463   -0.5981 C   0  0  0  0  0  0  0  0  0  0  0  0
   -2.6920   -0.4818   -1.9677 C   0  0  0  0  0  0  0  0  0  0  0  0
   -2.3107    0.6614   -2.6826 C   0  0  0  0  0  0  0  0  0  0  0  0
   -1.7147    1.7503   -2.0387 C   0  0  0  0  0  0  0  0  0  0  0  0
   -1.4933    1.7312   -0.6661 C   0  0  0  0  0  0  0  0  0  0  0  0
   -2.7648   -1.4139   -0.0145 H   0  0  0  0  0  0  0  0  0  0  0  0
   -3.1555   -1.3196   -2.4771 H   0  0  0  0  0  0  0  0  0  0  0  0
   -2.4844    0.7014   -3.7536 H   0  0  0  0  0  0  0  0  0  0  0  0
   -1.4281    2.6291   -2.6060 H   0  0  0  0  0  0  0  0  0  0  0  0
   -1.0461    2.5428   -0.0998 H   0  0  0  0  0  0  0  0  0  0  0  0
   -1.8680    3.2776    2.3949 B   0  0  0  0  0  0  0  0  0  0  0  0
   -1.8360    2.7009    3.6640 F   0  0  0  0  0  0  0  0  0  0  0  0
   -0.6294    2.9542    1.7294 F   0  0  0  0  0  0  0  0  0  0  0  0
   -2.8884    2.6273    1.6272 F   0  0  0  0  0  0  0  0  0  0  0  0
   -2.0630    4.6350    2.4170 F   0  0  0  0  0  0  0  0  0  0  0  0
  1  2  1  0  0  0  0
  2  3  1  0  0  0  0
  4  9  1  0  0  0  0
  4  1  1  0  0  0  0
  5  4  2  0  0  0  0
  6  7  2  0  0  0  0
  6  5  1  0  0  0  0
  7  8  1  0  0  0  0
  8 13  1  0  0  0  0
  8  1  2  0  0  0  0
 10  5  1  0  0  0  0
 11  6  1  0  0  0  0
 12  7  1  0  0  0  0
 14 18  1  0  0  0  0
 14 15  1  0  0  0  0
 16 14  1  0  0  0  0
 17 14  1  0  0  0  0
M  RAD  2   2   2   3   3
M  END
