Coordinates from ORCA-job PhN2+~BF4-_B3LYPG-6-31G_dp-NX-Scan-d89-09-n800
 OpenBabel11261920573D

 18 17  0  0  0  0  0  0  0  0999 V2000
   -2.3803    0.3543   -0.0352 C   0  0  0  0  0  0  0  0  0  0  0  0
   -2.7632    0.1831    1.3323 N   0  0  0  0  0  0  0  0  0  0  0  0
   -2.2735    0.8407    2.2708 N   0  0  0  0  0  0  0  0  0  0  0  0
   -2.5280   -0.8100   -0.8060 C   0  0  0  0  0  0  0  0  0  0  0  0
   -2.2383   -0.7995   -2.1672 C   0  0  0  0  0  0  0  0  0  0  0  0
   -1.8393    0.3882   -2.7846 C   0  0  0  0  0  0  0  0  0  0  0  0
   -1.7296    1.5587   -2.0306 C   0  0  0  0  0  0  0  0  0  0  0  0
   -1.9854    1.5524   -0.6601 C   0  0  0  0  0  0  0  0  0  0  0  0
   -2.8691   -1.7126   -0.3101 H   0  0  0  0  0  0  0  0  0  0  0  0
   -2.3406   -1.7112   -2.7483 H   0  0  0  0  0  0  0  0  0  0  0  0
   -1.6239    0.4049   -3.8488 H   0  0  0  0  0  0  0  0  0  0  0  0
   -1.4346    2.4876   -2.5096 H   0  0  0  0  0  0  0  0  0  0  0  0
   -1.8975    2.4747   -0.1011 H   0  0  0  0  0  0  0  0  0  0  0  0
   -1.6270    4.2118    2.7990 B   0  0  0  0  0  0  0  0  0  0  0  0
   -1.4403    1.6288    1.9915 F   0  0  0  0  0  0  0  0  0  0  0  0
   -1.6454    4.4316    1.4936 F   0  0  0  0  0  0  0  0  0  0  0  0
   -2.7474    3.9322    3.4303 F   0  0  0  0  0  0  0  0  0  0  0  0
   -0.4905    4.2973    3.4591 F   0  0  0  0  0  0  0  0  0  0  0  0
  1  2  1  0  0  0  0
  2  3  2  0  0  0  0
  4  9  1  0  0  0  0
  4  1  2  0  0  0  0
  5  4  1  0  0  0  0
  6  5  2  0  0  0  0
  6  7  1  0  0  0  0
  7  8  2  0  0  0  0
  8 13  1  0  0  0  0
  8  1  1  0  0  0  0
 10  5  1  0  0  0  0
 11  6  1  0  0  0  0
 12  7  1  0  0  0  0
 14 17  1  0  0  0  0
 14 18  1  0  0  0  0
 15  3  1  0  0  0  0
 16 14  1  0  0  0  0
M  END
