Coordinates from ORCA-job PhN2+~BF4-_B3LYPG-6-31G_dp-NX-Scan-d89-09-n800
 OpenBabel11261920573D

 18 17  0  0  0  0  0  0  0  0999 V2000
   -2.0243    0.4065    0.1065 C   0  0  0  0  0  0  0  0  0  0  0  0
   -2.0333    0.2044    1.4973 N   0  0  0  0  0  0  0  0  0  0  0  0
   -1.6793    0.7450    2.4818 N   0  0  0  0  0  0  0  0  0  0  0  0
   -2.6188   -0.6310   -0.6296 C   0  0  0  0  0  0  0  0  0  0  0  0
   -2.6697   -0.5477   -2.0163 C   0  0  0  0  0  0  0  0  0  0  0  0
   -2.1283    0.5675   -2.6614 C   0  0  0  0  0  0  0  0  0  0  0  0
   -1.5379    1.5968   -1.9213 C   0  0  0  0  0  0  0  0  0  0  0  0
   -1.4757    1.5345   -0.5323 C   0  0  0  0  0  0  0  0  0  0  0  0
   -3.0303   -1.4817   -0.0975 H   0  0  0  0  0  0  0  0  0  0  0  0
   -3.1285   -1.3460   -2.5906 H   0  0  0  0  0  0  0  0  0  0  0  0
   -2.1683    0.6374   -3.7446 H   0  0  0  0  0  0  0  0  0  0  0  0
   -1.1232    2.4619   -2.4287 H   0  0  0  0  0  0  0  0  0  0  0  0
   -1.0275    2.3327    0.0392 H   0  0  0  0  0  0  0  0  0  0  0  0
   -1.9856    3.6623    2.2761 B   0  0  0  0  0  0  0  0  0  0  0  0
   -0.9502    2.1069    2.1968 F   0  0  0  0  0  0  0  0  0  0  0  0
   -1.3090    4.3315    1.3247 F   0  0  0  0  0  0  0  0  0  0  0  0
   -3.1649    3.1211    1.9258 F   0  0  0  0  0  0  0  0  0  0  0  0
   -1.7993    4.0112    3.5489 F   0  0  0  0  0  0  0  0  0  0  0  0
  1  2  1  0  0  0  0
  2  3  1  0  0  0  0
  4  9  1  0  0  0  0
  4  1  2  0  0  0  0
  5  4  1  0  0  0  0
  6  5  2  0  0  0  0
  6  7  1  0  0  0  0
  7  8  2  0  0  0  0
  8 13  1  0  0  0  0
  8  1  1  0  0  0  0
 10  5  1  0  0  0  0
 11  6  1  0  0  0  0
 12  7  1  0  0  0  0
 14 18  1  0  0  0  0
 15  3  1  0  0  0  0
 16 14  1  0  0  0  0
 17 14  1  0  0  0  0
M  RAD  2   2   2   3   2
M  END
