Coordinates from ORCA-job PhN2+~BF4-_B3LYPG-6-31G_dp-NX-Scan-d89-09-n800
 OpenBabel11261920573D

 18 17  0  0  0  0  0  0  0  0999 V2000
   -1.8427    0.5342    0.0280 C   0  0  0  0  0  0  0  0  0  0  0  0
   -1.5805    0.3744    1.3816 N   0  0  0  0  0  0  0  0  0  0  0  0
   -1.3512    0.0926    2.4308 N   0  0  0  0  0  0  0  0  0  0  0  0
   -2.4607   -0.5523   -0.6154 C   0  0  0  0  0  0  0  0  0  0  0  0
   -2.7083   -0.4307   -1.9754 C   0  0  0  0  0  0  0  0  0  0  0  0
   -2.3400    0.7392   -2.6523 C   0  0  0  0  0  0  0  0  0  0  0  0
   -1.7228    1.7989   -1.9796 C   0  0  0  0  0  0  0  0  0  0  0  0
   -1.4662    1.7217   -0.6158 C   0  0  0  0  0  0  0  0  0  0  0  0
   -2.7378   -1.4415   -0.0606 H   0  0  0  0  0  0  0  0  0  0  0  0
   -3.1894   -1.2449   -2.5064 H   0  0  0  0  0  0  0  0  0  0  0  0
   -2.5417    0.8244   -3.7156 H   0  0  0  0  0  0  0  0  0  0  0  0
   -1.4491    2.7008   -2.5161 H   0  0  0  0  0  0  0  0  0  0  0  0
   -1.0035    2.5085   -0.0289 H   0  0  0  0  0  0  0  0  0  0  0  0
   -1.9071    3.2591    2.3497 B   0  0  0  0  0  0  0  0  0  0  0  0
   -1.9458    3.1830    3.7259 F   0  0  0  0  0  0  0  0  0  0  0  0
   -0.6446    2.7125    1.8849 F   0  0  0  0  0  0  0  0  0  0  0  0
   -2.9094    2.3977    1.7895 F   0  0  0  0  0  0  0  0  0  0  0  0
   -2.0530    4.5357    1.8508 F   0  0  0  0  0  0  0  0  0  0  0  0
  1  2  1  0  0  0  0
  2  3  1  0  0  0  0
  4  9  1  0  0  0  0
  4  1  1  0  0  0  0
  5  4  2  0  0  0  0
  6  7  2  0  0  0  0
  6  5  1  0  0  0  0
  7  8  1  0  0  0  0
  8 13  1  0  0  0  0
  8  1  2  0  0  0  0
 10  5  1  0  0  0  0
 11  6  1  0  0  0  0
 12  7  1  0  0  0  0
 14 15  1  0  0  0  0
 16 14  1  0  0  0  0
 17 14  1  0  0  0  0
 18 14  1  0  0  0  0
M  RAD  2   2   2   3   3
M  END
