Coordinates from ORCA-job PhN2+~BF4-_B3LYPG-6-31G_dp-NX-Scan-d89-09-n800
 OpenBabel11261920573D

 18 17  0  0  0  0  0  0  0  0999 V2000
   -1.9789    0.5527    0.0194 C   0  0  0  0  0  0  0  0  0  0  0  0
   -1.8378    0.4885    1.3978 N   0  0  0  0  0  0  0  0  0  0  0  0
   -1.7178    0.4003    2.5051 N   0  0  0  0  0  0  0  0  0  0  0  0
   -2.4960   -0.5908   -0.6148 C   0  0  0  0  0  0  0  0  0  0  0  0
   -2.6375   -0.5517   -1.9943 C   0  0  0  0  0  0  0  0  0  0  0  0
   -2.2587    0.5964   -2.7029 C   0  0  0  0  0  0  0  0  0  0  0  0
   -1.7346    1.7115   -2.0425 C   0  0  0  0  0  0  0  0  0  0  0  0
   -1.5864    1.7169   -0.6586 C   0  0  0  0  0  0  0  0  0  0  0  0
   -2.7792   -1.4622   -0.0351 H   0  0  0  0  0  0  0  0  0  0  0  0
   -3.0407   -1.4122   -2.5173 H   0  0  0  0  0  0  0  0  0  0  0  0
   -2.3750    0.6181   -3.7823 H   0  0  0  0  0  0  0  0  0  0  0  0
   -1.4441    2.5915   -2.6062 H   0  0  0  0  0  0  0  0  0  0  0  0
   -1.1869    2.5560   -0.0945 H   0  0  0  0  0  0  0  0  0  0  0  0
   -1.7634    3.3431    2.3903 B   0  0  0  0  0  0  0  0  0  0  0  0
   -1.5476    2.3487    3.4018 F   0  0  0  0  0  0  0  0  0  0  0  0
   -0.6096    3.3567    1.5642 F   0  0  0  0  0  0  0  0  0  0  0  0
   -2.8458    2.8842    1.5971 F   0  0  0  0  0  0  0  0  0  0  0  0
   -2.0137    4.5654    2.9476 F   0  0  0  0  0  0  0  0  0  0  0  0
  1  2  1  0  0  0  0
  2  3  1  0  0  0  0
  4  9  1  0  0  0  0
  4  1  1  0  0  0  0
  5  4  2  0  0  0  0
  6  7  2  0  0  0  0
  6  5  1  0  0  0  0
  7  8  1  0  0  0  0
  8 13  1  0  0  0  0
  8  1  2  0  0  0  0
 10  5  1  0  0  0  0
 11  6  1  0  0  0  0
 12  7  1  0  0  0  0
 14 18  1  0  0  0  0
 14 15  1  0  0  0  0
 16 14  1  0  0  0  0
 17 14  1  0  0  0  0
M  RAD  2   2   2   3   3
M  END
