Coordinates from ORCA-job PhN2+~BF4-_B3LYPG-6-31G_dp-NX-Scan-d89-09-n800
 OpenBabel11261920573D

 18 17  0  0  0  0  0  0  0  0999 V2000
   -1.9869    0.5483    0.0215 C   0  0  0  0  0  0  0  0  0  0  0  0
   -1.8534    0.4836    1.4006 N   0  0  0  0  0  0  0  0  0  0  0  0
   -1.7395    0.4170    2.5111 N   0  0  0  0  0  0  0  0  0  0  0  0
   -2.4952   -0.5967   -0.6173 C   0  0  0  0  0  0  0  0  0  0  0  0
   -2.6310   -0.5570   -1.9974 C   0  0  0  0  0  0  0  0  0  0  0  0
   -2.2550    0.5940   -2.7029 C   0  0  0  0  0  0  0  0  0  0  0  0
   -1.7391    1.7106   -2.0386 C   0  0  0  0  0  0  0  0  0  0  0  0
   -1.5963    1.7146   -0.6542 C   0  0  0  0  0  0  0  0  0  0  0  0
   -2.7762   -1.4703   -0.0398 H   0  0  0  0  0  0  0  0  0  0  0  0
   -3.0274   -1.4189   -2.5231 H   0  0  0  0  0  0  0  0  0  0  0  0
   -2.3670    0.6167   -3.7827 H   0  0  0  0  0  0  0  0  0  0  0  0
   -1.4504    2.5929   -2.5997 H   0  0  0  0  0  0  0  0  0  0  0  0
   -1.2034    2.5555   -0.0890 H   0  0  0  0  0  0  0  0  0  0  0  0
   -1.7541    3.3494    2.3850 B   0  0  0  0  0  0  0  0  0  0  0  0
   -1.5305    2.3313    3.3774 F   0  0  0  0  0  0  0  0  0  0  0  0
   -0.6064    3.3797    1.5544 F   0  0  0  0  0  0  0  0  0  0  0  0
   -2.8424    2.9054    1.5948 F   0  0  0  0  0  0  0  0  0  0  0  0
   -1.9997    4.5570    2.9750 F   0  0  0  0  0  0  0  0  0  0  0  0
  1  2  1  0  0  0  0
  2  3  1  0  0  0  0
  4  9  1  0  0  0  0
  4  1  1  0  0  0  0
  5  4  2  0  0  0  0
  6  7  2  0  0  0  0
  6  5  1  0  0  0  0
  7  8  1  0  0  0  0
  8 13  1  0  0  0  0
  8  1  2  0  0  0  0
 10  5  1  0  0  0  0
 11  6  1  0  0  0  0
 12  7  1  0  0  0  0
 14 18  1  0  0  0  0
 14 15  1  0  0  0  0
 16 14  1  0  0  0  0
 17 14  1  0  0  0  0
M  RAD  2   2   2   3   3
M  END
