Coordinates from ORCA-job PhN2+~BF4-_B3LYPG-6-31G_dp-NX-Scan-d89-09-n800
 OpenBabel11261920563D

 18 17  0  0  0  0  0  0  0  0999 V2000
   -1.2617   -0.3185    0.2158 C   0  0  0  0  0  0  0  0  0  0  0  0
   -0.7602   -1.2423    1.0669 N   0  0  0  0  0  0  0  0  0  0  0  0
   -0.3410   -2.0115    1.7701 N   0  0  0  0  0  0  0  0  0  0  0  0
   -2.5218   -0.5733   -0.3886 C   0  0  0  0  0  0  0  0  0  0  0  0
   -3.0302    0.4003   -1.2164 C   0  0  0  0  0  0  0  0  0  0  0  0
   -2.3207    1.6002   -1.4249 C   0  0  0  0  0  0  0  0  0  0  0  0
   -1.0502    1.8049   -0.8607 C   0  0  0  0  0  0  0  0  0  0  0  0
   -0.5146    0.8645   -0.0097 C   0  0  0  0  0  0  0  0  0  0  0  0
   -3.0534   -1.4946   -0.1798 H   0  0  0  0  0  0  0  0  0  0  0  0
   -4.0043    0.2648   -1.6711 H   0  0  0  0  0  0  0  0  0  0  0  0
   -2.7474    2.3751   -2.0464 H   0  0  0  0  0  0  0  0  0  0  0  0
   -0.5642    2.7614   -0.9924 H   0  0  0  0  0  0  0  0  0  0  0  0
    0.4296    1.0204    0.4980 H   0  0  0  0  0  0  0  0  0  0  0  0
   -2.8246    3.6755    0.8296 B   0  0  0  0  0  0  0  0  0  0  0  0
   -3.4948    4.6224    1.5715 F   0  0  0  0  0  0  0  0  0  0  0  0
   -1.9286    4.2801   -0.0875 F   0  0  0  0  0  0  0  0  0  0  0  0
   -2.1048    2.7781    1.6454 F   0  0  0  0  0  0  0  0  0  0  0  0
   -3.7610    2.9058    0.0553 F   0  0  0  0  0  0  0  0  0  0  0  0
  1  2  1  0  0  0  0
  2  3  1  0  0  0  0
  4  9  1  0  0  0  0
  4  1  2  0  0  0  0
  5  4  1  0  0  0  0
  6  5  2  0  0  0  0
  6  7  1  0  0  0  0
  7  8  2  0  0  0  0
  8  1  1  0  0  0  0
  8 13  1  0  0  0  0
 10  5  1  0  0  0  0
 11  6  1  0  0  0  0
 12  7  1  0  0  0  0
 14 15  1  0  0  0  0
 14 17  1  0  0  0  0
 16 14  1  0  0  0  0
 18 14  1  0  0  0  0
M  RAD  2   2   2   3   3
M  END
