Coordinates from ORCA-job PhN2+~BF4-_B3LYPG-6-31G_dp-NX-Scan-d89-09-n800
 OpenBabel11261920573D

 18 17  0  0  0  0  0  0  0  0999 V2000
   -1.9582    0.4518    0.0156 C   0  0  0  0  0  0  0  0  0  0  0  0
   -1.7705    0.2770    1.3767 N   0  0  0  0  0  0  0  0  0  0  0  0
   -1.5551    0.3357    2.4683 N   0  0  0  0  0  0  0  0  0  0  0  0
   -2.3727   -0.6633   -0.7309 C   0  0  0  0  0  0  0  0  0  0  0  0
   -2.5621   -0.4921   -2.0946 C   0  0  0  0  0  0  0  0  0  0  0  0
   -2.3408    0.7634   -2.6755 C   0  0  0  0  0  0  0  0  0  0  0  0
   -1.9264    1.8531   -1.9035 C   0  0  0  0  0  0  0  0  0  0  0  0
   -1.7230    1.7259   -0.5330 C   0  0  0  0  0  0  0  0  0  0  0  0
   -2.5399   -1.6184   -0.2456 H   0  0  0  0  0  0  0  0  0  0  0  0
   -2.8839   -1.3302   -2.7028 H   0  0  0  0  0  0  0  0  0  0  0  0
   -2.4976    0.8923   -3.7422 H   0  0  0  0  0  0  0  0  0  0  0  0
   -1.7641    2.8203   -2.3669 H   0  0  0  0  0  0  0  0  0  0  0  0
   -1.4154    2.5627    0.0850 H   0  0  0  0  0  0  0  0  0  0  0  0
   -1.7239    3.2686    2.3937 B   0  0  0  0  0  0  0  0  0  0  0  0
   -1.8064    3.7197    3.6805 F   0  0  0  0  0  0  0  0  0  0  0  0
   -0.5808    2.3885    2.2671 F   0  0  0  0  0  0  0  0  0  0  0  0
   -2.8704    2.4944    2.0580 F   0  0  0  0  0  0  0  0  0  0  0  0
   -1.5629    4.2640    1.4248 F   0  0  0  0  0  0  0  0  0  0  0  0
  1  2  1  0  0  0  0
  2  3  1  0  0  0  0
  4  9  1  0  0  0  0
  4  1  2  0  0  0  0
  5  4  1  0  0  0  0
  6  5  2  0  0  0  0
  6  7  1  0  0  0  0
  7  8  2  0  0  0  0
  8  1  1  0  0  0  0
  8 13  1  0  0  0  0
 10  5  1  0  0  0  0
 11  6  1  0  0  0  0
 12  7  1  0  0  0  0
 14 15  1  0  0  0  0
 16 14  1  0  0  0  0
 17 14  1  0  0  0  0
 18 14  1  0  0  0  0
M  RAD  2   2   2   3   3
M  END
