Coordinates from ORCA-job PhN2+~BF4-_B3LYPG-6-31G_dp-NX-Scan-d89-09-n800
 OpenBabel11261920563D

 18 17  0  0  0  0  0  0  0  0999 V2000
   -1.2412   -0.5736    0.1552 C   0  0  0  0  0  0  0  0  0  0  0  0
   -0.8214   -1.6275    0.8841 N   0  0  0  0  0  0  0  0  0  0  0  0
   -0.4718   -2.4883    1.5165 N   0  0  0  0  0  0  0  0  0  0  0  0
   -2.4778   -0.6782   -0.5354 C   0  0  0  0  0  0  0  0  0  0  0  0
   -2.9398    0.4477   -1.1769 C   0  0  0  0  0  0  0  0  0  0  0  0
   -2.2185    1.6570   -1.1010 C   0  0  0  0  0  0  0  0  0  0  0  0
   -0.9538    1.7146   -0.4728 C   0  0  0  0  0  0  0  0  0  0  0  0
   -0.4540    0.6114    0.1728 C   0  0  0  0  0  0  0  0  0  0  0  0
   -3.0299   -1.6114   -0.5273 H   0  0  0  0  0  0  0  0  0  0  0  0
   -3.8924    0.4213   -1.6931 H   0  0  0  0  0  0  0  0  0  0  0  0
   -2.6191    2.5622   -1.5454 H   0  0  0  0  0  0  0  0  0  0  0  0
   -0.4522    2.6715   -0.4070 H   0  0  0  0  0  0  0  0  0  0  0  0
    0.4836    0.6336    0.7162 H   0  0  0  0  0  0  0  0  0  0  0  0
   -2.9608    4.0319    0.5716 B   0  0  0  0  0  0  0  0  0  0  0  0
   -3.6612    4.7815    1.4832 F   0  0  0  0  0  0  0  0  0  0  0  0
   -3.2997    4.3465   -0.7631 F   0  0  0  0  0  0  0  0  0  0  0  0
   -1.5660    4.1774    0.7334 F   0  0  0  0  0  0  0  0  0  0  0  0
   -3.2780    2.6355    0.7641 F   0  0  0  0  0  0  0  0  0  0  0  0
  1  8  1  0  0  0  0
  1  2  1  0  0  0  0
  2  3  1  0  0  0  0
  4  9  1  0  0  0  0
  4  1  2  0  0  0  0
  5  6  2  0  0  0  0
  5  4  1  0  0  0  0
  6  7  1  0  0  0  0
  7 12  1  0  0  0  0
  7  8  2  0  0  0  0
  8 13  1  0  0  0  0
 10  5  1  0  0  0  0
 11  6  1  0  0  0  0
 14 17  1  0  0  0  0
 14 18  1  0  0  0  0
 14 15  1  0  0  0  0
 16 14  1  0  0  0  0
M  RAD  2   2   2   3   3
M  END
