Coordinates from ORCA-job PhN2+~BF4-_B3LYPG-6-31G_dp-NX-Scan-d89-09-n800
 OpenBabel11261920563D

 18 17  0  0  0  0  0  0  0  0999 V2000
   -1.2819   -0.1279    0.2587 C   0  0  0  0  0  0  0  0  0  0  0  0
   -0.7876   -0.9567    1.2050 N   0  0  0  0  0  0  0  0  0  0  0  0
   -0.3713   -1.6591    1.9766 N   0  0  0  0  0  0  0  0  0  0  0  0
   -2.5738   -0.3971   -0.2596 C   0  0  0  0  0  0  0  0  0  0  0  0
   -3.0643    0.4685   -1.2089 C   0  0  0  0  0  0  0  0  0  0  0  0
   -2.3080    1.5855   -1.6101 C   0  0  0  0  0  0  0  0  0  0  0  0
   -1.0181    1.8150   -1.1055 C   0  0  0  0  0  0  0  0  0  0  0  0
   -0.4946    0.9760   -0.1465 C   0  0  0  0  0  0  0  0  0  0  0  0
   -3.1403   -1.2494    0.0971 H   0  0  0  0  0  0  0  0  0  0  0  0
   -4.0576    0.3170   -1.6140 H   0  0  0  0  0  0  0  0  0  0  0  0
   -2.7180    2.2673   -2.3431 H   0  0  0  0  0  0  0  0  0  0  0  0
   -0.4712    2.6999   -1.4001 H   0  0  0  0  0  0  0  0  0  0  0  0
    0.4720    1.1562    0.3080 H   0  0  0  0  0  0  0  0  0  0  0  0
   -2.8108    3.3842    0.9498 B   0  0  0  0  0  0  0  0  0  0  0  0
   -3.4822    4.2571    1.7785 F   0  0  0  0  0  0  0  0  0  0  0  0
   -1.5531    3.8917    0.5642 F   0  0  0  0  0  0  0  0  0  0  0  0
   -2.6156    2.1215    1.5689 F   0  0  0  0  0  0  0  0  0  0  0  0
   -3.5776    3.1635   -0.2441 F   0  0  0  0  0  0  0  0  0  0  0  0
  1  2  1  0  0  0  0
  2  3  1  0  0  0  0
  4  9  1  0  0  0  0
  4  1  2  0  0  0  0
  5  4  1  0  0  0  0
  6  5  2  0  0  0  0
  6  7  1  0  0  0  0
  7  8  2  0  0  0  0
  8  1  1  0  0  0  0
  8 13  1  0  0  0  0
 10  5  1  0  0  0  0
 11  6  1  0  0  0  0
 12  7  1  0  0  0  0
 14 17  1  0  0  0  0
 14 15  1  0  0  0  0
 16 14  1  0  0  0  0
 18 14  1  0  0  0  0
M  RAD  2   2   2   3   3
M  END
