Coordinates from ORCA-job PhN2+~BF4-_B3LYPG-6-31G_dp-NX-Scan-d89-09-n800
 OpenBabel11261920563D

 18 17  0  0  0  0  0  0  0  0999 V2000
   -1.2473   -0.5548    0.1585 C   0  0  0  0  0  0  0  0  0  0  0  0
   -0.8396   -1.5932    0.9157 N   0  0  0  0  0  0  0  0  0  0  0  0
   -0.5010   -2.4393    1.5734 N   0  0  0  0  0  0  0  0  0  0  0  0
   -2.4819   -0.6661   -0.5348 C   0  0  0  0  0  0  0  0  0  0  0  0
   -2.9378    0.4514   -1.1944 C   0  0  0  0  0  0  0  0  0  0  0  0
   -2.2133    1.6596   -1.1309 C   0  0  0  0  0  0  0  0  0  0  0  0
   -0.9462    1.7201   -0.5087 C   0  0  0  0  0  0  0  0  0  0  0  0
   -0.4526    0.6250    0.1551 C   0  0  0  0  0  0  0  0  0  0  0  0
   -3.0386   -1.5964   -0.5118 H   0  0  0  0  0  0  0  0  0  0  0  0
   -3.8904    0.4220   -1.7105 H   0  0  0  0  0  0  0  0  0  0  0  0
   -2.6146    2.5628   -1.5785 H   0  0  0  0  0  0  0  0  0  0  0  0
   -0.4378    2.6739   -0.4574 H   0  0  0  0  0  0  0  0  0  0  0  0
    0.4843    0.6515    0.6996 H   0  0  0  0  0  0  0  0  0  0  0  0
   -2.9548    3.9966    0.5941 B   0  0  0  0  0  0  0  0  0  0  0  0
   -3.6562    4.7252    1.5221 F   0  0  0  0  0  0  0  0  0  0  0  0
   -3.2823    4.3484   -0.7336 F   0  0  0  0  0  0  0  0  0  0  0  0
   -1.5604    4.1284    0.7699 F   0  0  0  0  0  0  0  0  0  0  0  0
   -3.2833    2.5981    0.7471 F   0  0  0  0  0  0  0  0  0  0  0  0
  1  2  1  0  0  0  0
  2  3  1  0  0  0  0
  4  9  1  0  0  0  0
  4  1  2  0  0  0  0
  5  6  2  0  0  0  0
  5  4  1  0  0  0  0
  6  7  1  0  0  0  0
  7 12  1  0  0  0  0
  7  8  2  0  0  0  0
  8  1  1  0  0  0  0
  8 13  1  0  0  0  0
 10  5  1  0  0  0  0
 11  6  1  0  0  0  0
 14 18  1  0  0  0  0
 14 17  1  0  0  0  0
 14 15  1  0  0  0  0
 16 14  1  0  0  0  0
M  RAD  2   2   2   3   3
M  END
