Coordinates from ORCA-job PhN2+~BF4-_B3LYPG-6-31G_dp-NX-Scan-d89-09-n800
 OpenBabel11261920563D

 18 17  0  0  0  0  0  0  0  0999 V2000
   -1.6638    0.4763    0.0919 C   0  0  0  0  0  0  0  0  0  0  0  0
   -1.2676    0.1546    1.3750 N   0  0  0  0  0  0  0  0  0  0  0  0
   -0.9216   -0.2508    2.3512 N   0  0  0  0  0  0  0  0  0  0  0  0
   -2.5061   -0.4489   -0.5578 C   0  0  0  0  0  0  0  0  0  0  0  0
   -2.8600   -0.1722   -1.8665 C   0  0  0  0  0  0  0  0  0  0  0  0
   -2.3794    0.9892   -2.4937 C   0  0  0  0  0  0  0  0  0  0  0  0
   -1.5503    1.8856   -1.8197 C   0  0  0  0  0  0  0  0  0  0  0  0
   -1.1809    1.6535   -0.4980 C   0  0  0  0  0  0  0  0  0  0  0  0
   -2.8602   -1.3328   -0.0404 H   0  0  0  0  0  0  0  0  0  0  0  0
   -3.5107   -0.8550   -2.4017 H   0  0  0  0  0  0  0  0  0  0  0  0
   -2.6680    1.1955   -3.5195 H   0  0  0  0  0  0  0  0  0  0  0  0
   -1.2063    2.7897   -2.3088 H   0  0  0  0  0  0  0  0  0  0  0  0
   -0.5848    2.3356    0.0936 H   0  0  0  0  0  0  0  0  0  0  0  0
   -2.1602    3.0920    2.0962 B   0  0  0  0  0  0  0  0  0  0  0  0
   -2.4025    4.0659    3.0354 F   0  0  0  0  0  0  0  0  0  0  0  0
   -0.7723    2.6966    2.0946 F   0  0  0  0  0  0  0  0  0  0  0  0
   -2.8906    1.8981    2.3469 F   0  0  0  0  0  0  0  0  0  0  0  0
   -2.4685    3.5402    0.7961 F   0  0  0  0  0  0  0  0  0  0  0  0
  1  2  1  0  0  0  0
  2  3  1  0  0  0  0
  4  9  1  0  0  0  0
  4  1  2  0  0  0  0
  5  4  1  0  0  0  0
  6  5  2  0  0  0  0
  6  7  1  0  0  0  0
  7  8  2  0  0  0  0
  8  1  1  0  0  0  0
  8 13  1  0  0  0  0
 10  5  1  0  0  0  0
 11  6  1  0  0  0  0
 12  7  1  0  0  0  0
 14 17  1  0  0  0  0
 14 15  1  0  0  0  0
 16 14  1  0  0  0  0
 18 14  1  0  0  0  0
M  RAD  2   2   2   3   3
M  END
