Coordinates from ORCA-job PhN2+~BF4-_B3LYPG-6-31G_dp-NX-Scan-d89-09-n800
 OpenBabel11261920563D

 18 17  0  0  0  0  0  0  0  0999 V2000
   -1.2328   -0.6025    0.1480 C   0  0  0  0  0  0  0  0  0  0  0  0
   -0.7908   -1.6760    0.8344 N   0  0  0  0  0  0  0  0  0  0  0  0
   -0.4205   -2.5549    1.4290 N   0  0  0  0  0  0  0  0  0  0  0  0
   -2.4689   -0.7039   -0.5429 C   0  0  0  0  0  0  0  0  0  0  0  0
   -2.9444    0.4324   -1.1572 C   0  0  0  0  0  0  0  0  0  0  0  0
   -2.2347    1.6464   -1.0585 C   0  0  0  0  0  0  0  0  0  0  0  0
   -0.9774    1.7065   -0.4153 C   0  0  0  0  0  0  0  0  0  0  0  0
   -0.4639    0.5938    0.2025 C   0  0  0  0  0  0  0  0  0  0  0  0
   -3.0087   -1.6442   -0.5604 H   0  0  0  0  0  0  0  0  0  0  0  0
   -3.8952    0.4059   -1.6768 H   0  0  0  0  0  0  0  0  0  0  0  0
   -2.6381    2.5545   -1.4954 H   0  0  0  0  0  0  0  0  0  0  0  0
   -0.4936    2.6711   -0.3226 H   0  0  0  0  0  0  0  0  0  0  0  0
    0.4720    0.6144    0.7491 H   0  0  0  0  0  0  0  0  0  0  0  0
   -2.9595    4.0906    0.5413 B   0  0  0  0  0  0  0  0  0  0  0  0
   -3.6561    4.8806    1.4209 F   0  0  0  0  0  0  0  0  0  0  0  0
   -3.3091    4.3442   -0.8047 F   0  0  0  0  0  0  0  0  0  0  0  0
   -1.5634    4.2500    0.6845 F   0  0  0  0  0  0  0  0  0  0  0  0
   -3.2687    2.7044    0.7992 F   0  0  0  0  0  0  0  0  0  0  0  0
  1  8  1  0  0  0  0
  1  2  1  0  0  0  0
  2  3  1  0  0  0  0
  4  1  2  0  0  0  0
  5  6  2  0  0  0  0
  5  4  1  0  0  0  0
  6  7  1  0  0  0  0
  7 12  1  0  0  0  0
  7  8  2  0  0  0  0
  8 13  1  0  0  0  0
  9  4  1  0  0  0  0
 10  5  1  0  0  0  0
 11  6  1  0  0  0  0
 14 17  1  0  0  0  0
 14 18  1  0  0  0  0
 14 15  1  0  0  0  0
 16 14  1  0  0  0  0
M  RAD  2   2   2   3   3
M  END
