Coordinates from ORCA-job PhN2+~BF4-_B3LYPG-6-31G_dp-NX-Scan-d89-09-n800
 OpenBabel11261920573D

 18 17  0  0  0  0  0  0  0  0999 V2000
   -2.0204    0.4898    0.0544 C   0  0  0  0  0  0  0  0  0  0  0  0
   -1.9231    0.3914    1.4349 N   0  0  0  0  0  0  0  0  0  0  0  0
   -1.7564    0.5178    2.5433 N   0  0  0  0  0  0  0  0  0  0  0  0
   -2.5622   -0.6160   -0.6221 C   0  0  0  0  0  0  0  0  0  0  0  0
   -2.6579   -0.5522   -2.0053 C   0  0  0  0  0  0  0  0  0  0  0  0
   -2.2103    0.5897   -2.6814 C   0  0  0  0  0  0  0  0  0  0  0  0
   -1.6666    1.6722   -1.9833 C   0  0  0  0  0  0  0  0  0  0  0  0
   -1.5639    1.6484   -0.5954 C   0  0  0  0  0  0  0  0  0  0  0  0
   -2.8968   -1.4846   -0.0660 H   0  0  0  0  0  0  0  0  0  0  0  0
   -3.0769   -1.3877   -2.5557 H   0  0  0  0  0  0  0  0  0  0  0  0
   -2.2880    0.6342   -3.7637 H   0  0  0  0  0  0  0  0  0  0  0  0
   -1.3250    2.5508   -2.5202 H   0  0  0  0  0  0  0  0  0  0  0  0
   -1.1583    2.4814   -0.0272 H   0  0  0  0  0  0  0  0  0  0  0  0
   -1.7746    3.4161    2.3072 B   0  0  0  0  0  0  0  0  0  0  0  0
   -1.1910    2.2482    3.0178 F   0  0  0  0  0  0  0  0  0  0  0  0
   -0.8197    3.8092    1.3597 F   0  0  0  0  0  0  0  0  0  0  0  0
   -2.9101    2.9191    1.6558 F   0  0  0  0  0  0  0  0  0  0  0  0
   -2.0528    4.3853    3.2221 F   0  0  0  0  0  0  0  0  0  0  0  0
  1  2  1  0  0  0  0
  2  3  1  0  0  0  0
  4  9  1  0  0  0  0
  4  1  2  0  0  0  0
  5  4  1  0  0  0  0
  6  5  2  0  0  0  0
  6  7  1  0  0  0  0
  7  8  2  0  0  0  0
  8 13  1  0  0  0  0
  8  1  1  0  0  0  0
 10  5  1  0  0  0  0
 11  6  1  0  0  0  0
 12  7  1  0  0  0  0
 14 15  1  0  0  0  0
 14 18  1  0  0  0  0
 16 14  1  0  0  0  0
 17 14  1  0  0  0  0
M  RAD  2   2   2   3   3
M  END
