Coordinates from ORCA-job PhN2+~BF4-_B3LYPG-6-31G_dp-NX-Scan-d89-09-n800
 OpenBabel11261920563D

 18 17  0  0  0  0  0  0  0  0999 V2000
   -1.7462    0.4928    0.0665 C   0  0  0  0  0  0  0  0  0  0  0  0
   -1.4134    0.2279    1.3837 N   0  0  0  0  0  0  0  0  0  0  0  0
   -1.1270   -0.1022    2.4044 N   0  0  0  0  0  0  0  0  0  0  0  0
   -2.4720   -0.5077   -0.6077 C   0  0  0  0  0  0  0  0  0  0  0  0
   -2.7774   -0.2831   -1.9404 C   0  0  0  0  0  0  0  0  0  0  0  0
   -2.3620    0.9024   -2.5647 C   0  0  0  0  0  0  0  0  0  0  0  0
   -1.6435    1.8740   -1.8644 C   0  0  0  0  0  0  0  0  0  0  0  0
   -1.3214    1.6922   -0.5234 C   0  0  0  0  0  0  0  0  0  0  0  0
   -2.7817   -1.4096   -0.0924 H   0  0  0  0  0  0  0  0  0  0  0  0
   -3.3400   -1.0270   -2.4939 H   0  0  0  0  0  0  0  0  0  0  0  0
   -2.6111    1.0689   -3.6080 H   0  0  0  0  0  0  0  0  0  0  0  0
   -1.3435    2.7935   -2.3545 H   0  0  0  0  0  0  0  0  0  0  0  0
   -0.8085    2.4303    0.0800 H   0  0  0  0  0  0  0  0  0  0  0  0
   -2.0413    3.1491    2.2016 B   0  0  0  0  0  0  0  0  0  0  0  0
   -2.1677    3.9302    3.3209 F   0  0  0  0  0  0  0  0  0  0  0  0
   -0.7096    2.5907    2.1159 F   0  0  0  0  0  0  0  0  0  0  0  0
   -2.9224    2.0298    2.2375 F   0  0  0  0  0  0  0  0  0  0  0  0
   -2.2651    3.8610    1.0140 F   0  0  0  0  0  0  0  0  0  0  0  0
  1  2  1  0  0  0  0
  2  3  1  0  0  0  0
  4  9  1  0  0  0  0
  4  1  2  0  0  0  0
  5  4  1  0  0  0  0
  6  5  2  0  0  0  0
  6  7  1  0  0  0  0
  7  8  2  0  0  0  0
  8  1  1  0  0  0  0
  8 13  1  0  0  0  0
 10  5  1  0  0  0  0
 11  6  1  0  0  0  0
 12  7  1  0  0  0  0
 14 17  1  0  0  0  0
 14 15  1  0  0  0  0
 16 14  1  0  0  0  0
 18 14  1  0  0  0  0
M  RAD  2   2   2   3   3
M  END
