Coordinates from ORCA-job PhN2+~BF4-_B3LYPG-6-31G_dp-NX-Scan-d89-09-n800
 OpenBabel11261920573D

 18 17  0  0  0  0  0  0  0  0999 V2000
   -1.8453    0.5418    0.0246 C   0  0  0  0  0  0  0  0  0  0  0  0
   -1.5881    0.3945    1.3807 N   0  0  0  0  0  0  0  0  0  0  0  0
   -1.3639    0.1160    2.4321 N   0  0  0  0  0  0  0  0  0  0  0  0
   -2.4615   -0.5507   -0.6102 C   0  0  0  0  0  0  0  0  0  0  0  0
   -2.7067   -0.4411   -1.9716 C   0  0  0  0  0  0  0  0  0  0  0  0
   -2.3382    0.7234   -2.6579 C   0  0  0  0  0  0  0  0  0  0  0  0
   -1.7218    1.7888   -1.9936 C   0  0  0  0  0  0  0  0  0  0  0  0
   -1.4672    1.7234   -0.6288 C   0  0  0  0  0  0  0  0  0  0  0  0
   -2.7390   -1.4352   -0.0481 H   0  0  0  0  0  0  0  0  0  0  0  0
   -3.1861   -1.2602   -2.4965 H   0  0  0  0  0  0  0  0  0  0  0  0
   -2.5387    0.7995   -3.7221 H   0  0  0  0  0  0  0  0  0  0  0  0
   -1.4472    2.6858   -2.5379 H   0  0  0  0  0  0  0  0  0  0  0  0
   -1.0035    2.5135   -0.0469 H   0  0  0  0  0  0  0  0  0  0  0  0
   -1.9038    3.2637    2.3604 B   0  0  0  0  0  0  0  0  0  0  0  0
   -1.9467    3.0756    3.7279 F   0  0  0  0  0  0  0  0  0  0  0  0
   -0.6428    2.7478    1.8599 F   0  0  0  0  0  0  0  0  0  0  0  0
   -2.9073    2.4509    1.7336 F   0  0  0  0  0  0  0  0  0  0  0  0
   -2.0459    4.5757    1.9693 F   0  0  0  0  0  0  0  0  0  0  0  0
  1  2  1  0  0  0  0
  2  3  1  0  0  0  0
  4  9  1  0  0  0  0
  4  1  1  0  0  0  0
  5  4  2  0  0  0  0
  6  7  2  0  0  0  0
  6  5  1  0  0  0  0
  7  8  1  0  0  0  0
  8 13  1  0  0  0  0
  8  1  2  0  0  0  0
 10  5  1  0  0  0  0
 11  6  1  0  0  0  0
 12  7  1  0  0  0  0
 14 15  1  0  0  0  0
 16 14  1  0  0  0  0
 17 14  1  0  0  0  0
 18 14  1  0  0  0  0
M  RAD  2   2   2   3   3
M  END
