Coordinates from ORCA-job PhN2+~BF4-_B3LYPG-6-31G_dp-NX-Scan-d89-09-n800
 OpenBabel11261920563D

 18 17  0  0  0  0  0  0  0  0999 V2000
   -1.3166   -0.0145    0.2527 C   0  0  0  0  0  0  0  0  0  0  0  0
   -0.8396   -0.7340    1.2948 N   0  0  0  0  0  0  0  0  0  0  0  0
   -0.4403   -1.3437    2.1477 N   0  0  0  0  0  0  0  0  0  0  0  0
   -2.5786   -0.3719   -0.2807 C   0  0  0  0  0  0  0  0  0  0  0  0
   -3.0701    0.4035   -1.3066 C   0  0  0  0  0  0  0  0  0  0  0  0
   -2.3396    1.5137   -1.7638 C   0  0  0  0  0  0  0  0  0  0  0  0
   -1.0757    1.8229   -1.2482 C   0  0  0  0  0  0  0  0  0  0  0  0
   -0.5539    1.0826   -0.2082 C   0  0  0  0  0  0  0  0  0  0  0  0
   -3.1283   -1.2113    0.1281 H   0  0  0  0  0  0  0  0  0  0  0  0
   -4.0450    0.1847   -1.7259 H   0  0  0  0  0  0  0  0  0  0  0  0
   -2.7627    2.1434   -2.5369 H   0  0  0  0  0  0  0  0  0  0  0  0
   -0.5503    2.7054   -1.5885 H   0  0  0  0  0  0  0  0  0  0  0  0
    0.3789    1.3471    0.2722 H   0  0  0  0  0  0  0  0  0  0  0  0
   -2.7161    3.2556    1.0870 B   0  0  0  0  0  0  0  0  0  0  0  0
   -3.3199    4.1617    1.9340 F   0  0  0  0  0  0  0  0  0  0  0  0
   -1.3220    3.4931    0.9890 F   0  0  0  0  0  0  0  0  0  0  0  0
   -2.8955    1.9217    1.5468 F   0  0  0  0  0  0  0  0  0  0  0  0
   -3.2788    3.3532   -0.2185 F   0  0  0  0  0  0  0  0  0  0  0  0
  1  2  1  0  0  0  0
  2  3  1  0  0  0  0
  4  9  1  0  0  0  0
  4  1  2  0  0  0  0
  5  4  1  0  0  0  0
  6  5  2  0  0  0  0
  6  7  1  0  0  0  0
  7  8  2  0  0  0  0
  8  1  1  0  0  0  0
  8 13  1  0  0  0  0
 10  5  1  0  0  0  0
 11  6  1  0  0  0  0
 12  7  1  0  0  0  0
 14 17  1  0  0  0  0
 14 15  1  0  0  0  0
 16 14  1  0  0  0  0
 18 14  1  0  0  0  0
M  RAD  2   2   2   3   3
M  END
