Coordinates from ORCA-job PhN2+~BF4-_B3LYPG-6-31G_dp-NX-Scan-d89-09-n800
 OpenBabel11261920563D

 18 17  0  0  0  0  0  0  0  0999 V2000
   -1.2169   -0.6752    0.1159 C   0  0  0  0  0  0  0  0  0  0  0  0
   -0.6890   -1.7678    0.7124 N   0  0  0  0  0  0  0  0  0  0  0  0
   -0.2388   -2.6593    1.2254 N   0  0  0  0  0  0  0  0  0  0  0  0
   -2.4173   -0.8246   -0.6225 C   0  0  0  0  0  0  0  0  0  0  0  0
   -2.9649    0.3174   -1.1713 C   0  0  0  0  0  0  0  0  0  0  0  0
   -2.3548    1.5692   -0.9713 C   0  0  0  0  0  0  0  0  0  0  0  0
   -1.1457    1.6863   -0.2503 C   0  0  0  0  0  0  0  0  0  0  0  0
   -0.5592    0.5723    0.3014 C   0  0  0  0  0  0  0  0  0  0  0  0
   -2.8747   -1.8014   -0.7334 H   0  0  0  0  0  0  0  0  0  0  0  0
   -3.8897    0.2504   -1.7334 H   0  0  0  0  0  0  0  0  0  0  0  0
   -2.8043    2.4805   -1.3577 H   0  0  0  0  0  0  0  0  0  0  0  0
   -0.7509    2.6831   -0.0721 H   0  0  0  0  0  0  0  0  0  0  0  0
    0.3510    0.6265    0.8880 H   0  0  0  0  0  0  0  0  0  0  0  0
   -2.8710    4.2823    0.5020 B   0  0  0  0  0  0  0  0  0  0  0  0
   -3.5233    5.2342    1.2452 F   0  0  0  0  0  0  0  0  0  0  0  0
   -3.2280    4.3451   -0.8699 F   0  0  0  0  0  0  0  0  0  0  0  0
   -1.4626    4.4223    0.6009 F   0  0  0  0  0  0  0  0  0  0  0  0
   -3.2137    2.9720    0.9657 F   0  0  0  0  0  0  0  0  0  0  0  0
  1  8  1  0  0  0  0
  1  2  1  0  0  0  0
  2  3  1  0  0  0  0
  4  1  2  0  0  0  0
  5  6  2  0  0  0  0
  5  4  1  0  0  0  0
  6  7  1  0  0  0  0
  7 12  1  0  0  0  0
  7  8  2  0  0  0  0
  8 13  1  0  0  0  0
  9  4  1  0  0  0  0
 10  5  1  0  0  0  0
 11  6  1  0  0  0  0
 14 17  1  0  0  0  0
 14 18  1  0  0  0  0
 14 15  1  0  0  0  0
 16 14  1  0  0  0  0
M  RAD  2   2   2   3   3
M  END
