Coordinates from ORCA-job PhN2+~BF4-_B3LYPG-6-31G_dp-NX-Scan-d89-09-n800
 OpenBabel11261920573D

 18 17  0  0  0  0  0  0  0  0999 V2000
   -2.1771    0.3615    0.0186 C   0  0  0  0  0  0  0  0  0  0  0  0
   -2.3578    0.1733    1.4077 N   0  0  0  0  0  0  0  0  0  0  0  0
   -1.9970    0.7781    2.3790 N   0  0  0  0  0  0  0  0  0  0  0  0
   -2.5781   -0.7452   -0.7485 C   0  0  0  0  0  0  0  0  0  0  0  0
   -2.4720   -0.7094   -2.1347 C   0  0  0  0  0  0  0  0  0  0  0  0
   -1.9885    0.4418   -2.7610 C   0  0  0  0  0  0  0  0  0  0  0  0
   -1.6116    1.5510   -1.9983 C   0  0  0  0  0  0  0  0  0  0  0  0
   -1.6928    1.5266   -0.6083 C   0  0  0  0  0  0  0  0  0  0  0  0
   -2.9635   -1.6188   -0.2340 H   0  0  0  0  0  0  0  0  0  0  0  0
   -2.7734   -1.5699   -2.7234 H   0  0  0  0  0  0  0  0  0  0  0  0
   -1.9102    0.4785   -3.8438 H   0  0  0  0  0  0  0  0  0  0  0  0
   -1.2461    2.4478   -2.4889 H   0  0  0  0  0  0  0  0  0  0  0  0
   -1.4062    2.3895   -0.0281 H   0  0  0  0  0  0  0  0  0  0  0  0
   -1.8598    4.0090    2.6124 B   0  0  0  0  0  0  0  0  0  0  0  0
   -1.1704    1.9535    2.0657 F   0  0  0  0  0  0  0  0  0  0  0  0
   -1.5193    4.4516    1.4050 F   0  0  0  0  0  0  0  0  0  0  0  0
   -3.1100    3.6367    2.8350 F   0  0  0  0  0  0  0  0  0  0  0  0
   -1.0201    4.1576    3.6206 F   0  0  0  0  0  0  0  0  0  0  0  0
  1  2  1  0  0  0  0
  2  3  1  0  0  0  0
  4  9  1  0  0  0  0
  4  1  2  0  0  0  0
  5  4  1  0  0  0  0
  6  5  2  0  0  0  0
  6  7  1  0  0  0  0
  7  8  2  0  0  0  0
  8 13  1  0  0  0  0
  8  1  1  0  0  0  0
 10  5  1  0  0  0  0
 11  6  1  0  0  0  0
 12  7  1  0  0  0  0
 14 17  1  0  0  0  0
 14 18  1  0  0  0  0
 15  3  1  0  0  0  0
 16 14  1  0  0  0  0
M  RAD  2   2   2   3   2
M  END
