Coordinates from ORCA-job PhN2+~BF4-_B3LYPG-6-31G_dp-NX-Scan-d89-09-n800
 OpenBabel11261920573D

 18 17  0  0  0  0  0  0  0  0999 V2000
   -1.9017    0.5687    0.0151 C   0  0  0  0  0  0  0  0  0  0  0  0
   -1.6946    0.4832    1.3852 N   0  0  0  0  0  0  0  0  0  0  0  0
   -1.5228    0.2774    2.4648 N   0  0  0  0  0  0  0  0  0  0  0  0
   -2.4772   -0.5574   -0.5996 C   0  0  0  0  0  0  0  0  0  0  0  0
   -2.6781   -0.5016   -1.9712 C   0  0  0  0  0  0  0  0  0  0  0  0
   -2.3028    0.6430   -2.6875 C   0  0  0  0  0  0  0  0  0  0  0  0
   -1.7238    1.7407   -2.0434 C   0  0  0  0  0  0  0  0  0  0  0  0
   -1.5152    1.7304   -0.6683 C   0  0  0  0  0  0  0  0  0  0  0  0
   -2.7591   -1.4254   -0.0143 H   0  0  0  0  0  0  0  0  0  0  0  0
   -3.1270   -1.3469   -2.4815 H   0  0  0  0  0  0  0  0  0  0  0  0
   -2.4676    0.6765   -3.7602 H   0  0  0  0  0  0  0  0  0  0  0  0
   -1.4404    2.6195   -2.6125 H   0  0  0  0  0  0  0  0  0  0  0  0
   -1.0798    2.5489   -0.1026 H   0  0  0  0  0  0  0  0  0  0  0  0
   -1.8416    3.2903    2.3949 B   0  0  0  0  0  0  0  0  0  0  0  0
   -1.7994    2.5784    3.6033 F   0  0  0  0  0  0  0  0  0  0  0  0
   -0.6103    3.0405    1.6990 F   0  0  0  0  0  0  0  0  0  0  0  0
   -2.8675    2.7135    1.5822 F   0  0  0  0  0  0  0  0  0  0  0  0
   -2.0449    4.6336    2.5715 F   0  0  0  0  0  0  0  0  0  0  0  0
  1  2  1  0  0  0  0
  2  3  1  0  0  0  0
  4  9  1  0  0  0  0
  4  1  1  0  0  0  0
  5  4  2  0  0  0  0
  6  7  2  0  0  0  0
  6  5  1  0  0  0  0
  7  8  1  0  0  0  0
  8 13  1  0  0  0  0
  8  1  2  0  0  0  0
 10  5  1  0  0  0  0
 11  6  1  0  0  0  0
 12  7  1  0  0  0  0
 14 18  1  0  0  0  0
 14 15  1  0  0  0  0
 16 14  1  0  0  0  0
 17 14  1  0  0  0  0
M  RAD  2   2   2   3   3
M  END
