Coordinates from ORCA-job PhN2+~BF4-_B3LYPG-6-31G_dp-NX-Scan-d89-09-n800
 OpenBabel11261920573D

 18 17  0  0  0  0  0  0  0  0999 V2000
   -2.3118    0.3578   -0.0153 C   0  0  0  0  0  0  0  0  0  0  0  0
   -2.6288    0.1717    1.3608 N   0  0  0  0  0  0  0  0  0  0  0  0
   -2.1897    0.8232    2.3096 N   0  0  0  0  0  0  0  0  0  0  0  0
   -2.5379   -0.7930   -0.7887 C   0  0  0  0  0  0  0  0  0  0  0  0
   -2.3077   -0.7796   -2.1608 C   0  0  0  0  0  0  0  0  0  0  0  0
   -1.8897    0.3993   -2.7820 C   0  0  0  0  0  0  0  0  0  0  0  0
   -1.7013    1.5571   -2.0230 C   0  0  0  0  0  0  0  0  0  0  0  0
   -1.8971    1.5488   -0.6434 C   0  0  0  0  0  0  0  0  0  0  0  0
   -2.8899   -1.6870   -0.2851 H   0  0  0  0  0  0  0  0  0  0  0  0
   -2.4700   -1.6800   -2.7454 H   0  0  0  0  0  0  0  0  0  0  0  0
   -1.7196    0.4199   -3.8545 H   0  0  0  0  0  0  0  0  0  0  0  0
   -1.3909    2.4783   -2.5068 H   0  0  0  0  0  0  0  0  0  0  0  0
   -1.7497    2.4587   -0.0795 H   0  0  0  0  0  0  0  0  0  0  0  0
   -1.7020    4.1573    2.7476 B   0  0  0  0  0  0  0  0  0  0  0  0
   -1.3523    1.7425    2.0041 F   0  0  0  0  0  0  0  0  0  0  0  0
   -1.5726    4.4674    1.4658 F   0  0  0  0  0  0  0  0  0  0  0  0
   -2.8929    3.8710    3.2325 F   0  0  0  0  0  0  0  0  0  0  0  0
   -0.6500    4.1999    3.5391 F   0  0  0  0  0  0  0  0  0  0  0  0
  1  2  1  0  0  0  0
  2  3  2  0  0  0  0
  4  9  1  0  0  0  0
  4  1  2  0  0  0  0
  5  4  1  0  0  0  0
  6  5  2  0  0  0  0
  6  7  1  0  0  0  0
  7  8  2  0  0  0  0
  8 13  1  0  0  0  0
  8  1  1  0  0  0  0
 10  5  1  0  0  0  0
 11  6  1  0  0  0  0
 12  7  1  0  0  0  0
 14 17  1  0  0  0  0
 14 18  1  0  0  0  0
 15  3  1  0  0  0  0
 16 14  1  0  0  0  0
M  END
