Coordinates from ORCA-job PhN2+~BF4-_B3LYPG-6-31G_dp-NX-Scan-d89-09-n800
 OpenBabel11261920573D

 18 17  0  0  0  0  0  0  0  0999 V2000
   -1.9167    0.5739    0.0143 C   0  0  0  0  0  0  0  0  0  0  0  0
   -1.7282    0.5017    1.3878 N   0  0  0  0  0  0  0  0  0  0  0  0
   -1.5771    0.3279    2.4770 N   0  0  0  0  0  0  0  0  0  0  0  0
   -2.4714   -0.5630   -0.5997 C   0  0  0  0  0  0  0  0  0  0  0  0
   -2.6618   -0.5181   -1.9733 C   0  0  0  0  0  0  0  0  0  0  0  0
   -2.2960    0.6271   -2.6930 C   0  0  0  0  0  0  0  0  0  0  0  0
   -1.7353    1.7352   -2.0506 C   0  0  0  0  0  0  0  0  0  0  0  0
   -1.5372    1.7355   -0.6737 C   0  0  0  0  0  0  0  0  0  0  0  0
   -2.7463   -1.4315   -0.0118 H   0  0  0  0  0  0  0  0  0  0  0  0
   -3.0951   -1.3723   -2.4823 H   0  0  0  0  0  0  0  0  0  0  0  0
   -2.4529    0.6528   -3.7671 H   0  0  0  0  0  0  0  0  0  0  0  0
   -1.4574    2.6138   -2.6227 H   0  0  0  0  0  0  0  0  0  0  0  0
   -1.1126    2.5626   -0.1126 H   0  0  0  0  0  0  0  0  0  0  0  0
   -1.8212    3.2939    2.3973 B   0  0  0  0  0  0  0  0  0  0  0  0
   -1.7794    2.4872    3.5552 F   0  0  0  0  0  0  0  0  0  0  0  0
   -0.5999    3.0772    1.6817 F   0  0  0  0  0  0  0  0  0  0  0  0
   -2.8621    2.7900    1.5626 F   0  0  0  0  0  0  0  0  0  0  0  0
   -2.0034    4.6193    2.6859 F   0  0  0  0  0  0  0  0  0  0  0  0
  1  2  1  0  0  0  0
  2  3  1  0  0  0  0
  4  9  1  0  0  0  0
  4  1  1  0  0  0  0
  5  4  2  0  0  0  0
  6  7  2  0  0  0  0
  6  5  1  0  0  0  0
  7  8  1  0  0  0  0
  8 13  1  0  0  0  0
  8  1  2  0  0  0  0
 10  5  1  0  0  0  0
 11  6  1  0  0  0  0
 12  7  1  0  0  0  0
 14 18  1  0  0  0  0
 14 15  1  0  0  0  0
 16 14  1  0  0  0  0
 17 14  1  0  0  0  0
M  RAD  2   2   2   3   3
M  END
