Coordinates from ORCA-job PhN2+~BF4-_B3LYPG-6-31G_dp-NX-Scan-d89-09-n800
 OpenBabel11261920573D

 18 17  0  0  0  0  0  0  0  0999 V2000
   -1.9692    0.5518    0.0191 C   0  0  0  0  0  0  0  0  0  0  0  0
   -1.8175    0.4828    1.3963 N   0  0  0  0  0  0  0  0  0  0  0  0
   -1.6857    0.3675    2.4982 N   0  0  0  0  0  0  0  0  0  0  0  0
   -2.5012   -0.5858   -0.6133 C   0  0  0  0  0  0  0  0  0  0  0  0
   -2.6496   -0.5420   -1.9920 C   0  0  0  0  0  0  0  0  0  0  0  0
   -2.2634    0.6040   -2.7000 C   0  0  0  0  0  0  0  0  0  0  0  0
   -1.7256    1.7131   -2.0403 C   0  0  0  0  0  0  0  0  0  0  0  0
   -1.5706    1.7147   -0.6573 C   0  0  0  0  0  0  0  0  0  0  0  0
   -2.7900   -1.4556   -0.0339 H   0  0  0  0  0  0  0  0  0  0  0  0
   -3.0642   -1.3972   -2.5145 H   0  0  0  0  0  0  0  0  0  0  0  0
   -2.3852    0.6290   -3.7788 H   0  0  0  0  0  0  0  0  0  0  0  0
   -1.4305    2.5917   -2.6038 H   0  0  0  0  0  0  0  0  0  0  0  0
   -1.1632    2.5491   -0.0911 H   0  0  0  0  0  0  0  0  0  0  0  0
   -1.7747    3.3392    2.3914 B   0  0  0  0  0  0  0  0  0  0  0  0
   -1.5553    2.3894    3.4338 F   0  0  0  0  0  0  0  0  0  0  0  0
   -0.6144    3.3423    1.5694 F   0  0  0  0  0  0  0  0  0  0  0  0
   -2.8437    2.8385    1.5988 F   0  0  0  0  0  0  0  0  0  0  0  0
   -2.0500    4.5808    2.8930 F   0  0  0  0  0  0  0  0  0  0  0  0
  1  2  1  0  0  0  0
  2  3  1  0  0  0  0
  4  9  1  0  0  0  0
  4  1  1  0  0  0  0
  5  4  2  0  0  0  0
  6  7  2  0  0  0  0
  6  5  1  0  0  0  0
  7  8  1  0  0  0  0
  8 13  1  0  0  0  0
  8  1  2  0  0  0  0
 10  5  1  0  0  0  0
 11  6  1  0  0  0  0
 12  7  1  0  0  0  0
 14 18  1  0  0  0  0
 14 15  1  0  0  0  0
 16 14  1  0  0  0  0
 17 14  1  0  0  0  0
M  RAD  2   2   2   3   3
M  END
