Coordinates from ORCA-job PhN2+~BF4-_B3LYPG-6-31G_dp-NX-Scan-d89-09-n800
 OpenBabel11261920563D

 18 17  0  0  0  0  0  0  0  0999 V2000
   -1.2531   -0.2604    0.2433 C   0  0  0  0  0  0  0  0  0  0  0  0
   -0.7358   -1.1797    1.0905 N   0  0  0  0  0  0  0  0  0  0  0  0
   -0.2977   -1.9580    1.7726 N   0  0  0  0  0  0  0  0  0  0  0  0
   -2.5426   -0.4986   -0.3010 C   0  0  0  0  0  0  0  0  0  0  0  0
   -3.0457    0.4454   -1.1655 C   0  0  0  0  0  0  0  0  0  0  0  0
   -2.3027    1.6033   -1.4686 C   0  0  0  0  0  0  0  0  0  0  0  0
   -1.0169    1.8047   -0.9380 C   0  0  0  0  0  0  0  0  0  0  0  0
   -0.4825    0.8898   -0.0580 C   0  0  0  0  0  0  0  0  0  0  0  0
   -3.0963   -1.3896   -0.0280 H   0  0  0  0  0  0  0  0  0  0  0  0
   -4.0376    0.3195   -1.5825 H   0  0  0  0  0  0  0  0  0  0  0  0
   -2.7185    2.3432   -2.1379 H   0  0  0  0  0  0  0  0  0  0  0  0
   -0.4980    2.7315   -1.1369 H   0  0  0  0  0  0  0  0  0  0  0  0
    0.4844    1.0376    0.4079 H   0  0  0  0  0  0  0  0  0  0  0  0
   -2.8627    3.5857    0.8438 B   0  0  0  0  0  0  0  0  0  0  0  0
   -3.5317    4.5152    1.6116 F   0  0  0  0  0  0  0  0  0  0  0  0
   -1.7693    4.1717    0.1660 F   0  0  0  0  0  0  0  0  0  0  0  0
   -2.3960    2.4971    1.6127 F   0  0  0  0  0  0  0  0  0  0  0  0
   -3.7513    3.0547   -0.1569 F   0  0  0  0  0  0  0  0  0  0  0  0
  1  2  1  0  0  0  0
  2  3  1  0  0  0  0
  4  9  1  0  0  0  0
  4  1  2  0  0  0  0
  5  4  1  0  0  0  0
  6  5  2  0  0  0  0
  6  7  1  0  0  0  0
  7  8  2  0  0  0  0
  8  1  1  0  0  0  0
  8 13  1  0  0  0  0
 10  5  1  0  0  0  0
 11  6  1  0  0  0  0
 12  7  1  0  0  0  0
 14 15  1  0  0  0  0
 14 17  1  0  0  0  0
 16 14  1  0  0  0  0
 18 14  1  0  0  0  0
M  RAD  2   2   2   3   3
M  END
