Coordinates from ORCA-job PhN2+~BF4-_B3LYPG-6-31G_dp-NX-Scan-d89-09-n800
 OpenBabel11261920563D

 18 17  0  0  0  0  0  0  0  0999 V2000
   -1.9268    0.4889   -0.0247 C   0  0  0  0  0  0  0  0  0  0  0  0
   -1.6714    0.3108    1.3254 N   0  0  0  0  0  0  0  0  0  0  0  0
   -1.4312    0.2255    2.4106 N   0  0  0  0  0  0  0  0  0  0  0  0
   -2.3315   -0.6457   -0.7499 C   0  0  0  0  0  0  0  0  0  0  0  0
   -2.5792   -0.4880   -2.1055 C   0  0  0  0  0  0  0  0  0  0  0  0
   -2.4177    0.7701   -2.7014 C   0  0  0  0  0  0  0  0  0  0  0  0
   -2.0071    1.8763   -1.9519 C   0  0  0  0  0  0  0  0  0  0  0  0
   -1.7534    1.7646   -0.5878 C   0  0  0  0  0  0  0  0  0  0  0  0
   -2.4483   -1.6033   -0.2547 H   0  0  0  0  0  0  0  0  0  0  0  0
   -2.8986   -1.3393   -2.6965 H   0  0  0  0  0  0  0  0  0  0  0  0
   -2.6175    0.8863   -3.7622 H   0  0  0  0  0  0  0  0  0  0  0  0
   -1.8894    2.8439   -2.4281 H   0  0  0  0  0  0  0  0  0  0  0  0
   -1.4490    2.6132    0.0246 H   0  0  0  0  0  0  0  0  0  0  0  0
   -1.6973    3.2356    2.4772 B   0  0  0  0  0  0  0  0  0  0  0  0
   -2.0915    4.0679    3.4847 F   0  0  0  0  0  0  0  0  0  0  0  0
   -0.7225    2.3008    2.9548 F   0  0  0  0  0  0  0  0  0  0  0  0
   -2.7971    2.4817    1.9776 F   0  0  0  0  0  0  0  0  0  0  0  0
   -1.1244    3.9241    1.3829 F   0  0  0  0  0  0  0  0  0  0  0  0
  1  2  1  0  0  0  0
  2  3  1  0  0  0  0
  4  9  1  0  0  0  0
  4  1  2  0  0  0  0
  5  4  1  0  0  0  0
  6  5  2  0  0  0  0
  6  7  1  0  0  0  0
  7  8  2  0  0  0  0
  8  1  1  0  0  0  0
  8 13  1  0  0  0  0
 10  5  1  0  0  0  0
 11  6  1  0  0  0  0
 12  7  1  0  0  0  0
 14 16  1  0  0  0  0
 14 15  1  0  0  0  0
 17 14  1  0  0  0  0
 18 14  1  0  0  0  0
M  RAD  2   2   2   3   3
M  END
