Coordinates from ORCA-job PhN2+~BF4-_B3LYPG-6-31G_dp-NX-Scan-d89-09-n800
 OpenBabel11261920563D

 18 17  0  0  0  0  0  0  0  0999 V2000
   -1.2211   -0.6470    0.1314 C   0  0  0  0  0  0  0  0  0  0  0  0
   -0.7324   -1.7390    0.7574 N   0  0  0  0  0  0  0  0  0  0  0  0
   -0.3212   -2.6335    1.2983 N   0  0  0  0  0  0  0  0  0  0  0  0
   -2.4445   -0.7666   -0.5767 C   0  0  0  0  0  0  0  0  0  0  0  0
   -2.9561    0.3775   -1.1506 C   0  0  0  0  0  0  0  0  0  0  0  0
   -2.2904    1.6097   -1.0025 C   0  0  0  0  0  0  0  0  0  0  0  0
   -1.0560    1.6948   -0.3198 C   0  0  0  0  0  0  0  0  0  0  0  0
   -0.5057    0.5767    0.2570 C   0  0  0  0  0  0  0  0  0  0  0  0
   -2.9457   -1.7259   -0.6440 H   0  0  0  0  0  0  0  0  0  0  0  0
   -3.8967    0.3340   -1.6878 H   0  0  0  0  0  0  0  0  0  0  0  0
   -2.7135    2.5205   -1.4166 H   0  0  0  0  0  0  0  0  0  0  0  0
   -0.6191    2.6774   -0.1769 H   0  0  0  0  0  0  0  0  0  0  0  0
    0.4192    0.6109    0.8214 H   0  0  0  0  0  0  0  0  0  0  0  0
   -2.9236    4.1986    0.5098 B   0  0  0  0  0  0  0  0  0  0  0  0
   -3.6043    5.0758    1.3162 F   0  0  0  0  0  0  0  0  0  0  0  0
   -3.2733    4.3463   -0.8547 F   0  0  0  0  0  0  0  0  0  0  0  0
   -1.5224    4.3556    0.6329 F   0  0  0  0  0  0  0  0  0  0  0  0
   -3.2471    2.8474    0.8803 F   0  0  0  0  0  0  0  0  0  0  0  0
  1  8  1  0  0  0  0
  1  2  1  0  0  0  0
  2  3  1  0  0  0  0
  4  1  2  0  0  0  0
  5  6  2  0  0  0  0
  5  4  1  0  0  0  0
  6  7  1  0  0  0  0
  7 12  1  0  0  0  0
  7  8  2  0  0  0  0
  8 13  1  0  0  0  0
  9  4  1  0  0  0  0
 10  5  1  0  0  0  0
 11  6  1  0  0  0  0
 14 17  1  0  0  0  0
 14 18  1  0  0  0  0
 14 15  1  0  0  0  0
 16 14  1  0  0  0  0
M  RAD  2   2   2   3   3
M  END
