Coordinates from ORCA-job PhN2+~BF4-_B3LYPG-6-31G_dp-NX-Scan-d89-09-n800
 OpenBabel11261920563D

 18 17  0  0  1  0  0  0  0  0999 V2000
   -1.1831   -0.7670    0.1677 C   0  0  0  0  0  0  0  0  0  0  0  0
   -0.6610   -1.9494    0.4253 N   0  0  0  0  0  0  0  0  0  0  0  0
   -0.2099   -2.9746    0.6478 N   0  0  0  0  0  0  0  0  0  0  0  0
   -2.5101   -0.6716   -0.3987 C   0  0  0  0  0  0  0  0  0  0  0  0
   -3.0185    0.5336   -0.7291 C   0  0  0  0  0  0  0  0  0  0  0  0
   -2.2769    1.7991   -0.5143 C   0  0  2  0  0  0  0  0  0  0  0  0
   -0.9230    1.6394    0.0698 C   0  0  0  0  0  0  0  0  0  0  0  0
   -0.4130    0.4356    0.4015 C   0  0  0  0  0  0  0  0  0  0  0  0
   -3.0710   -1.5842   -0.5733 H   0  0  0  0  0  0  0  0  0  0  0  0
   -4.0050    0.6058   -1.1741 H   0  0  0  0  0  0  0  0  0  0  0  0
   -2.2987    2.4589   -1.3842 H   0  0  0  0  0  0  0  0  0  0  0  0
   -0.3504    2.5457    0.2311 H   0  0  0  0  0  0  0  0  0  0  0  0
    0.5816    0.3451    0.8258 H   0  0  0  0  0  0  0  0  0  0  0  0
   -3.1100    4.5462    0.1096 B   0  0  0  0  0  0  0  0  0  0  0  0
   -3.9729    4.9029    1.0570 F   0  0  0  0  0  0  0  0  0  0  0  0
   -3.5383    4.4692   -1.1578 F   0  0  0  0  0  0  0  0  0  0  0  0
   -1.8014    4.7533    0.3093 F   0  0  0  0  0  0  0  0  0  0  0  0
   -3.0923    2.6252    0.4615 F   0  0  0  0  0  0  0  0  0  0  0  0
  1  8  1  0  0  0  0
  1  2  1  0  0  0  0
  2  3  1  0  0  0  0
  4  1  2  0  0  0  0
  5  6  1  0  0  0  0
  5  4  1  0  0  0  0
  6 11  1  6  0  0  0
  6  7  1  0  0  0  0
  6 18  1  0  0  0  0
  7 12  1  0  0  0  0
  7  8  2  0  0  0  0
  8 13  1  0  0  0  0
  9  4  1  0  0  0  0
 10  5  1  0  0  0  0
 14 17  1  0  0  0  0
 14 15  1  0  0  0  0
 16 14  1  0  0  0  0
M  RAD  3   2   2   3   3   5   2
M  END
