Coordinates from ORCA-job PhN2+~BF4-_B3LYPG-6-31G_dp-NX-Scan-d89-09-n800
 OpenBabel11261920563D

 18 17  0  0  0  0  0  0  0  0999 V2000
   -1.7308    0.1410    0.1350 C   0  0  0  0  0  0  0  0  0  0  0  0
   -1.3975   -0.3808    1.3604 N   0  0  0  0  0  0  0  0  0  0  0  0
   -1.1273   -0.9188    2.3003 N   0  0  0  0  0  0  0  0  0  0  0  0
   -2.4811   -0.7008   -0.7242 C   0  0  0  0  0  0  0  0  0  0  0  0
   -2.7971   -0.2007   -1.9705 C   0  0  0  0  0  0  0  0  0  0  0  0
   -2.3851    1.0966   -2.3361 C   0  0  0  0  0  0  0  0  0  0  0  0
   -1.6573    1.8998   -1.4627 C   0  0  0  0  0  0  0  0  0  0  0  0
   -1.3072    1.4381   -0.1951 C   0  0  0  0  0  0  0  0  0  0  0  0
   -2.7897   -1.6884   -0.4022 H   0  0  0  0  0  0  0  0  0  0  0  0
   -3.3705   -0.8077   -2.6626 H   0  0  0  0  0  0  0  0  0  0  0  0
   -2.6558    1.4787   -3.3152 H   0  0  0  0  0  0  0  0  0  0  0  0
   -1.3829    2.9128   -1.7296 H   0  0  0  0  0  0  0  0  0  0  0  0
   -0.7627    2.0665    0.5102 H   0  0  0  0  0  0  0  0  0  0  0  0
   -2.0209    3.5043    1.8790 B   0  0  0  0  0  0  0  0  0  0  0  0
   -2.4056    4.5230    2.7228 F   0  0  0  0  0  0  0  0  0  0  0  0
   -0.6447    3.6318    1.5099 F   0  0  0  0  0  0  0  0  0  0  0  0
   -2.1547    2.2091    2.4682 F   0  0  0  0  0  0  0  0  0  0  0  0
   -2.7830    3.5084    0.6876 F   0  0  0  0  0  0  0  0  0  0  0  0
  1  2  1  0  0  0  0
  2  3  1  0  0  0  0
  4  9  1  0  0  0  0
  4  1  2  0  0  0  0
  5  4  1  0  0  0  0
  6  5  2  0  0  0  0
  6  7  1  0  0  0  0
  7  8  2  0  0  0  0
  8  1  1  0  0  0  0
  8 13  1  0  0  0  0
 10  5  1  0  0  0  0
 11  6  1  0  0  0  0
 12  7  1  0  0  0  0
 14 17  1  0  0  0  0
 14 15  1  0  0  0  0
 16 14  1  0  0  0  0
 18 14  1  0  0  0  0
M  RAD  2   2   2   3   3
M  END
