Coordinates from ORCA-job PhN2+~BF4-_B3LYPG-6-31G_dp-NX-Scan-d89-09-n800
 OpenBabel11261920563D

 18 17  0  0  0  0  0  0  0  0999 V2000
   -1.9816    0.4745   -0.0076 C   0  0  0  0  0  0  0  0  0  0  0  0
   -1.7698    0.2923    1.3488 N   0  0  0  0  0  0  0  0  0  0  0  0
   -1.5439    0.2335    2.4378 N   0  0  0  0  0  0  0  0  0  0  0  0
   -2.3451   -0.6605   -0.7541 C   0  0  0  0  0  0  0  0  0  0  0  0
   -2.5372   -0.4989   -2.1179 C   0  0  0  0  0  0  0  0  0  0  0  0
   -2.3651    0.7642   -2.7005 C   0  0  0  0  0  0  0  0  0  0  0  0
   -2.0018    1.8714   -1.9288 C   0  0  0  0  0  0  0  0  0  0  0  0
   -1.8022    1.7564   -0.5556 C   0  0  0  0  0  0  0  0  0  0  0  0
   -2.4701   -1.6220   -0.2686 H   0  0  0  0  0  0  0  0  0  0  0  0
   -2.8207   -1.3508   -2.7259 H   0  0  0  0  0  0  0  0  0  0  0  0
   -2.5197    0.8834   -3.7687 H   0  0  0  0  0  0  0  0  0  0  0  0
   -1.8762    2.8432   -2.3943 H   0  0  0  0  0  0  0  0  0  0  0  0
   -1.5356    2.6114    0.0656 H   0  0  0  0  0  0  0  0  0  0  0  0
   -1.6653    3.2569    2.4569 B   0  0  0  0  0  0  0  0  0  0  0  0
   -1.8980    4.0031    3.5771 F   0  0  0  0  0  0  0  0  0  0  0  0
   -0.6096    2.3144    2.6846 F   0  0  0  0  0  0  0  0  0  0  0  0
   -2.8182    2.5051    2.0895 F   0  0  0  0  0  0  0  0  0  0  0  0
   -1.2941    4.0359    1.3367 F   0  0  0  0  0  0  0  0  0  0  0  0
  1  2  1  0  0  0  0
  2  3  1  0  0  0  0
  4  9  1  0  0  0  0
  4  1  2  0  0  0  0
  5  4  1  0  0  0  0
  6  5  2  0  0  0  0
  6  7  1  0  0  0  0
  7  8  2  0  0  0  0
  8  1  1  0  0  0  0
  8 13  1  0  0  0  0
 10  5  1  0  0  0  0
 11  6  1  0  0  0  0
 12  7  1  0  0  0  0
 14 16  1  0  0  0  0
 14 15  1  0  0  0  0
 17 14  1  0  0  0  0
 18 14  1  0  0  0  0
M  RAD  2   2   2   3   3
M  END
