Coordinates from ORCA-job PhN2+~BF4-_B3LYPG-6-31G_dp-NX-Scan-d89-09-n800
 OpenBabel11261920563D

 18 17  0  0  0  0  0  0  0  0999 V2000
   -1.3163   -0.0153    0.2540 C   0  0  0  0  0  0  0  0  0  0  0  0
   -0.8377   -0.7385    1.2931 N   0  0  0  0  0  0  0  0  0  0  0  0
   -0.4337   -1.3554    2.1384 N   0  0  0  0  0  0  0  0  0  0  0  0
   -2.5787   -0.3719   -0.2787 C   0  0  0  0  0  0  0  0  0  0  0  0
   -3.0701    0.4037   -1.3046 C   0  0  0  0  0  0  0  0  0  0  0  0
   -2.3392    1.5136   -1.7620 C   0  0  0  0  0  0  0  0  0  0  0  0
   -1.0752    1.8225   -1.2461 C   0  0  0  0  0  0  0  0  0  0  0  0
   -0.5538    1.0822   -0.2061 C   0  0  0  0  0  0  0  0  0  0  0  0
   -3.1285   -1.2114    0.1299 H   0  0  0  0  0  0  0  0  0  0  0  0
   -4.0449    0.1850   -1.7241 H   0  0  0  0  0  0  0  0  0  0  0  0
   -2.7618    2.1430   -2.5355 H   0  0  0  0  0  0  0  0  0  0  0  0
   -0.5495    2.7047   -1.5867 H   0  0  0  0  0  0  0  0  0  0  0  0
    0.3792    1.3462    0.2744 H   0  0  0  0  0  0  0  0  0  0  0  0
   -2.7183    3.2594    1.0851 B   0  0  0  0  0  0  0  0  0  0  0  0
   -3.3235    4.1674    1.9295 F   0  0  0  0  0  0  0  0  0  0  0  0
   -1.3243    3.4970    0.9885 F   0  0  0  0  0  0  0  0  0  0  0  0
   -2.8978    1.9262    1.5470 F   0  0  0  0  0  0  0  0  0  0  0  0
   -3.2797    3.3547   -0.2210 F   0  0  0  0  0  0  0  0  0  0  0  0
  1  2  1  0  0  0  0
  2  3  1  0  0  0  0
  4  9  1  0  0  0  0
  4  1  2  0  0  0  0
  5  4  1  0  0  0  0
  6  5  2  0  0  0  0
  6  7  1  0  0  0  0
  7  8  2  0  0  0  0
  8  1  1  0  0  0  0
  8 13  1  0  0  0  0
 10  5  1  0  0  0  0
 11  6  1  0  0  0  0
 12  7  1  0  0  0  0
 14 17  1  0  0  0  0
 14 15  1  0  0  0  0
 16 14  1  0  0  0  0
 18 14  1  0  0  0  0
M  RAD  2   2   2   3   3
M  END
