Coordinates from ORCA-job PhN2+~BF4-_B3LYPG-6-31G_dp-NX-Scan-d89-09-n800
 OpenBabel11261920573D

 18 18  0  0  0  0  0  0  0  0999 V2000
   -2.2037    1.1022   -0.2442 C   0  0  0  0  0  0  0  0  0  0  0  0
   -2.4989    1.6033    1.0559 N   0  0  0  0  0  0  0  0  0  0  0  0
   -1.7432    2.4659    1.5908 N   0  0  0  0  0  0  0  0  0  0  0  0
   -2.8071   -0.1416   -0.4991 C   0  0  0  0  0  0  0  0  0  0  0  0
   -2.6384   -0.7722   -1.7270 C   0  0  0  0  0  0  0  0  0  0  0  0
   -1.8909   -0.1524   -2.7314 C   0  0  0  0  0  0  0  0  0  0  0  0
   -1.3156    1.0982   -2.4986 C   0  0  0  0  0  0  0  0  0  0  0  0
   -1.4570    1.7287   -1.2637 C   0  0  0  0  0  0  0  0  0  0  0  0
   -3.3995   -0.5906    0.2910 H   0  0  0  0  0  0  0  0  0  0  0  0
   -3.0980   -1.7390   -1.9047 H   0  0  0  0  0  0  0  0  0  0  0  0
   -1.7642   -0.6367   -3.6948 H   0  0  0  0  0  0  0  0  0  0  0  0
   -0.7490    1.5900   -3.2834 H   0  0  0  0  0  0  0  0  0  0  0  0
   -1.0106    2.7060   -1.1301 H   0  0  0  0  0  0  0  0  0  0  0  0
   -2.0743    3.0683    3.2297 B   0  0  0  0  0  0  0  0  0  0  0  0
   -0.9265    2.8339    1.1461 F   0  0  0  0  0  0  0  0  0  0  0  0
   -1.9834    4.4112    2.9809 F   0  0  0  0  0  0  0  0  0  0  0  0
   -1.0036    2.5459    3.8983 F   0  0  0  0  0  0  0  0  0  0  0  0
   -3.2901    2.5920    3.5594 F   0  0  0  0  0  0  0  0  0  0  0  0
  1  2  1  0  0  0  0
  2  3  1  0  0  0  0
  3 14  1  0  0  0  0
  4  1  1  0  0  0  0
  4  9  1  0  0  0  0
  5  4  2  0  0  0  0
  6  7  2  0  0  0  0
  6  5  1  0  0  0  0
  7  8  1  0  0  0  0
  8 13  1  0  0  0  0
  8  1  2  0  0  0  0
 10  5  1  0  0  0  0
 11  6  1  0  0  0  0
 12  7  1  0  0  0  0
 14 18  1  0  0  0  0
 14 17  1  0  0  0  0
 15  3  1  0  0  0  0
 16 14  1  0  0  0  0
M  RAD  1   2   2
M  END
