Coordinates from ORCA-job PhN2+~BF4-_B3LYPG-6-31G_dp-NX-Scan-d89-09-n800
 OpenBabel11261920563D

 18 17  0  0  0  0  0  0  0  0999 V2000
   -1.2597   -0.1947    0.2626 C   0  0  0  0  0  0  0  0  0  0  0  0
   -0.7370   -1.0931    1.1282 N   0  0  0  0  0  0  0  0  0  0  0  0
   -0.2954   -1.8605    1.8205 N   0  0  0  0  0  0  0  0  0  0  0  0
   -2.5603   -0.4364   -0.2509 C   0  0  0  0  0  0  0  0  0  0  0  0
   -3.0590    0.4699   -1.1568 C   0  0  0  0  0  0  0  0  0  0  0  0
   -2.3017    1.5977   -1.5276 C   0  0  0  0  0  0  0  0  0  0  0  0
   -1.0101    1.8097   -1.0157 C   0  0  0  0  0  0  0  0  0  0  0  0
   -0.4783    0.9301   -0.0988 C   0  0  0  0  0  0  0  0  0  0  0  0
   -3.1234   -1.3048    0.0711 H   0  0  0  0  0  0  0  0  0  0  0  0
   -4.0566    0.3372   -1.5577 H   0  0  0  0  0  0  0  0  0  0  0  0
   -2.7083    2.2991   -2.2428 H   0  0  0  0  0  0  0  0  0  0  0  0
   -0.4683    2.7076   -1.2773 H   0  0  0  0  0  0  0  0  0  0  0  0
    0.4971    1.0848    0.3467 H   0  0  0  0  0  0  0  0  0  0  0  0
   -2.8602    3.4937    0.8843 B   0  0  0  0  0  0  0  0  0  0  0  0
   -3.5438    4.4032    1.6633 F   0  0  0  0  0  0  0  0  0  0  0  0
   -1.6460    4.0293    0.4046 F   0  0  0  0  0  0  0  0  0  0  0  0
   -2.5822    2.2946    1.5821 F   0  0  0  0  0  0  0  0  0  0  0  0
   -3.6605    3.1459   -0.2611 F   0  0  0  0  0  0  0  0  0  0  0  0
  1  2  1  0  0  0  0
  2  3  1  0  0  0  0
  4  9  1  0  0  0  0
  4  1  2  0  0  0  0
  5  4  1  0  0  0  0
  6  5  2  0  0  0  0
  6  7  1  0  0  0  0
  7  8  2  0  0  0  0
  8  1  1  0  0  0  0
  8 13  1  0  0  0  0
 10  5  1  0  0  0  0
 11  6  1  0  0  0  0
 12  7  1  0  0  0  0
 14 17  1  0  0  0  0
 14 15  1  0  0  0  0
 16 14  1  0  0  0  0
 18 14  1  0  0  0  0
M  RAD  2   2   2   3   3
M  END
