Coordinates from ORCA-job PhN2+~BF4-_B3LYPG-6-31G_dp-NX-Scan-d89-09-n800
 OpenBabel11261920563D

 18 17  0  0  0  0  0  0  0  0999 V2000
   -1.2611   -0.1914    0.2615 C   0  0  0  0  0  0  0  0  0  0  0  0
   -0.7418   -1.0840    1.1350 N   0  0  0  0  0  0  0  0  0  0  0  0
   -0.3015   -1.8453    1.8348 N   0  0  0  0  0  0  0  0  0  0  0  0
   -2.5613   -0.4340   -0.2524 C   0  0  0  0  0  0  0  0  0  0  0  0
   -3.0591    0.4707   -1.1604 C   0  0  0  0  0  0  0  0  0  0  0  0
   -2.3018    1.5984   -1.5316 C   0  0  0  0  0  0  0  0  0  0  0  0
   -1.0097    1.8101   -1.0209 C   0  0  0  0  0  0  0  0  0  0  0  0
   -0.4784    0.9315   -0.1027 C   0  0  0  0  0  0  0  0  0  0  0  0
   -3.1250   -1.3012    0.0716 H   0  0  0  0  0  0  0  0  0  0  0  0
   -4.0567    0.3381   -1.5615 H   0  0  0  0  0  0  0  0  0  0  0  0
   -2.7092    2.3002   -2.2459 H   0  0  0  0  0  0  0  0  0  0  0  0
   -0.4680    2.7078   -1.2831 H   0  0  0  0  0  0  0  0  0  0  0  0
    0.4967    1.0867    0.3431 H   0  0  0  0  0  0  0  0  0  0  0  0
   -2.8571    3.4855    0.8871 B   0  0  0  0  0  0  0  0  0  0  0  0
   -3.5392    4.3900    1.6728 F   0  0  0  0  0  0  0  0  0  0  0  0
   -1.6435    4.0236    0.4087 F   0  0  0  0  0  0  0  0  0  0  0  0
   -2.5783    2.2823    1.5782 F   0  0  0  0  0  0  0  0  0  0  0  0
   -3.6589    3.1442   -0.2592 F   0  0  0  0  0  0  0  0  0  0  0  0
  1  2  1  0  0  0  0
  2  3  1  0  0  0  0
  4  9  1  0  0  0  0
  4  1  2  0  0  0  0
  5  4  1  0  0  0  0
  6  5  2  0  0  0  0
  6  7  1  0  0  0  0
  7  8  2  0  0  0  0
  8  1  1  0  0  0  0
  8 13  1  0  0  0  0
 10  5  1  0  0  0  0
 11  6  1  0  0  0  0
 12  7  1  0  0  0  0
 14 17  1  0  0  0  0
 14 15  1  0  0  0  0
 16 14  1  0  0  0  0
 18 14  1  0  0  0  0
M  RAD  2   2   2   3   3
M  END
