Coordinates from ORCA-job PhN2+~BF4-_B3LYPG-6-31G_dp-NX-Scan-d89-09-n800
 OpenBabel11261920573D

 18 17  0  0  0  0  0  0  0  0999 V2000
   -1.9021    0.5709    0.0148 C   0  0  0  0  0  0  0  0  0  0  0  0
   -1.6951    0.4869    1.3852 N   0  0  0  0  0  0  0  0  0  0  0  0
   -1.5235    0.2838    2.4654 N   0  0  0  0  0  0  0  0  0  0  0  0
   -2.4767   -0.5563   -0.5984 C   0  0  0  0  0  0  0  0  0  0  0  0
   -2.6774   -0.5026   -1.9702 C   0  0  0  0  0  0  0  0  0  0  0  0
   -2.3025    0.6410   -2.6881 C   0  0  0  0  0  0  0  0  0  0  0  0
   -1.7240    1.7399   -2.0454 C   0  0  0  0  0  0  0  0  0  0  0  0
   -1.5160    1.7319   -0.6702 C   0  0  0  0  0  0  0  0  0  0  0  0
   -2.7581   -1.4238   -0.0121 H   0  0  0  0  0  0  0  0  0  0  0  0
   -3.1256   -1.3489   -2.4794 H   0  0  0  0  0  0  0  0  0  0  0  0
   -2.4670    0.6729   -3.7608 H   0  0  0  0  0  0  0  0  0  0  0  0
   -1.4408    2.6179   -2.6158 H   0  0  0  0  0  0  0  0  0  0  0  0
   -1.0808    2.5513   -0.1054 H   0  0  0  0  0  0  0  0  0  0  0  0
   -1.8418    3.2888    2.3958 B   0  0  0  0  0  0  0  0  0  0  0  0
   -1.8019    2.5652    3.5977 F   0  0  0  0  0  0  0  0  0  0  0  0
   -0.6111    3.0403    1.6983 F   0  0  0  0  0  0  0  0  0  0  0  0
   -2.8700    2.7228    1.5789 F   0  0  0  0  0  0  0  0  0  0  0  0
   -2.0398    4.6311    2.5846 F   0  0  0  0  0  0  0  0  0  0  0  0
  1  2  1  0  0  0  0
  2  3  1  0  0  0  0
  4  9  1  0  0  0  0
  4  1  1  0  0  0  0
  5  4  2  0  0  0  0
  6  7  2  0  0  0  0
  6  5  1  0  0  0  0
  7  8  1  0  0  0  0
  8 13  1  0  0  0  0
  8  1  2  0  0  0  0
 10  5  1  0  0  0  0
 11  6  1  0  0  0  0
 12  7  1  0  0  0  0
 14 18  1  0  0  0  0
 14 15  1  0  0  0  0
 16 14  1  0  0  0  0
 17 14  1  0  0  0  0
M  RAD  2   2   2   3   3
M  END
