Coordinates from ORCA-job PhN2+~BF4-_B3LYPG-6-31G_dp-NX-Scan-d89-09-n800
 OpenBabel11261920563D

 18 17  0  0  0  0  0  0  0  0999 V2000
   -1.7368    0.1896    0.1349 C   0  0  0  0  0  0  0  0  0  0  0  0
   -1.4000   -0.3154    1.3678 N   0  0  0  0  0  0  0  0  0  0  0  0
   -1.1229   -0.8585    2.3025 N   0  0  0  0  0  0  0  0  0  0  0  0
   -2.5039   -0.6611   -0.6995 C   0  0  0  0  0  0  0  0  0  0  0  0
   -2.8122   -0.1923   -1.9600 C   0  0  0  0  0  0  0  0  0  0  0  0
   -2.3722    1.0835   -2.3649 C   0  0  0  0  0  0  0  0  0  0  0  0
   -1.6277    1.8968   -1.5156 C   0  0  0  0  0  0  0  0  0  0  0  0
   -1.2917    1.4694   -0.2319 C   0  0  0  0  0  0  0  0  0  0  0  0
   -2.8298   -1.6334   -0.3493 H   0  0  0  0  0  0  0  0  0  0  0  0
   -3.3985   -0.8082   -2.6332 H   0  0  0  0  0  0  0  0  0  0  0  0
   -2.6329    1.4407   -3.3561 H   0  0  0  0  0  0  0  0  0  0  0  0
   -1.3286    2.8927   -1.8186 H   0  0  0  0  0  0  0  0  0  0  0  0
   -0.7369    2.1054    0.4578 H   0  0  0  0  0  0  0  0  0  0  0  0
   -2.0304    3.4499    1.9139 B   0  0  0  0  0  0  0  0  0  0  0  0
   -2.4492    4.4553    2.7578 F   0  0  0  0  0  0  0  0  0  0  0  0
   -0.6575    3.6156    1.5549 F   0  0  0  0  0  0  0  0  0  0  0  0
   -2.1359    2.1474    2.4961 F   0  0  0  0  0  0  0  0  0  0  0  0
   -2.7868    3.4361    0.7182 F   0  0  0  0  0  0  0  0  0  0  0  0
  1  2  1  0  0  0  0
  2  3  1  0  0  0  0
  4  9  1  0  0  0  0
  4  1  2  0  0  0  0
  5  4  1  0  0  0  0
  6  5  2  0  0  0  0
  6  7  1  0  0  0  0
  7  8  2  0  0  0  0
  8  1  1  0  0  0  0
  8 13  1  0  0  0  0
 10  5  1  0  0  0  0
 11  6  1  0  0  0  0
 12  7  1  0  0  0  0
 14 17  1  0  0  0  0
 14 15  1  0  0  0  0
 16 14  1  0  0  0  0
 18 14  1  0  0  0  0
M  RAD  2   2   2   3   3
M  END
