Coordinates from ORCA-job PhN2+~BF4-_B3LYPG-6-31G_dp-NX-Scan-d89-09-n800
 OpenBabel11261920573D

 18 17  0  0  0  0  0  0  0  0999 V2000
   -1.9887    0.5510    0.0216 C   0  0  0  0  0  0  0  0  0  0  0  0
   -1.8580    0.4887    1.4011 N   0  0  0  0  0  0  0  0  0  0  0  0
   -1.7459    0.4324    2.5133 N   0  0  0  0  0  0  0  0  0  0  0  0
   -2.4934   -0.5961   -0.6162 C   0  0  0  0  0  0  0  0  0  0  0  0
   -2.6277   -0.5598   -1.9967 C   0  0  0  0  0  0  0  0  0  0  0  0
   -2.2533    0.5901   -2.7043 C   0  0  0  0  0  0  0  0  0  0  0  0
   -1.7407    1.7091   -2.0417 C   0  0  0  0  0  0  0  0  0  0  0  0
   -1.6003    1.7165   -0.6570 C   0  0  0  0  0  0  0  0  0  0  0  0
   -2.7731   -1.4692   -0.0374 H   0  0  0  0  0  0  0  0  0  0  0  0
   -3.0216   -1.4238   -2.5210 H   0  0  0  0  0  0  0  0  0  0  0  0
   -2.3635    0.6102   -3.7845 H   0  0  0  0  0  0  0  0  0  0  0  0
   -1.4529    2.5908   -2.6044 H   0  0  0  0  0  0  0  0  0  0  0  0
   -1.2091    2.5602   -0.0951 H   0  0  0  0  0  0  0  0  0  0  0  0
   -1.7530    3.3496    2.3848 B   0  0  0  0  0  0  0  0  0  0  0  0
   -1.5319    2.3097    3.3623 F   0  0  0  0  0  0  0  0  0  0  0  0
   -0.6075    3.3834    1.5541 F   0  0  0  0  0  0  0  0  0  0  0  0
   -2.8467    2.9248    1.5953 F   0  0  0  0  0  0  0  0  0  0  0  0
   -1.9864    4.5457    3.0009 F   0  0  0  0  0  0  0  0  0  0  0  0
  1  2  1  0  0  0  0
  2  3  1  0  0  0  0
  4  9  1  0  0  0  0
  4  1  1  0  0  0  0
  5  4  2  0  0  0  0
  6  7  2  0  0  0  0
  6  5  1  0  0  0  0
  7  8  1  0  0  0  0
  8 13  1  0  0  0  0
  8  1  2  0  0  0  0
 10  5  1  0  0  0  0
 11  6  1  0  0  0  0
 12  7  1  0  0  0  0
 14 18  1  0  0  0  0
 14 15  1  0  0  0  0
 16 14  1  0  0  0  0
 17 14  1  0  0  0  0
M  RAD  2   2   2   3   3
M  END
