Coordinates from ORCA-job PhN2+~BF4-_B3LYPG-6-31G_dp-NX-Scan-d89-09-n800
 OpenBabel11261920573D

 18 17  0  0  0  0  0  0  0  0999 V2000
   -1.9661    0.5503    0.0196 C   0  0  0  0  0  0  0  0  0  0  0  0
   -1.8087    0.4781    1.3962 N   0  0  0  0  0  0  0  0  0  0  0  0
   -1.6692    0.3482    2.4949 N   0  0  0  0  0  0  0  0  0  0  0  0
   -2.5057   -0.5836   -0.6131 C   0  0  0  0  0  0  0  0  0  0  0  0
   -2.6562   -0.5362   -1.9914 C   0  0  0  0  0  0  0  0  0  0  0  0
   -2.2646    0.6089   -2.6981 C   0  0  0  0  0  0  0  0  0  0  0  0
   -1.7201    1.7142   -2.0376 C   0  0  0  0  0  0  0  0  0  0  0  0
   -1.5634    1.7127   -0.6549 C   0  0  0  0  0  0  0  0  0  0  0  0
   -2.7986   -1.4527   -0.0347 H   0  0  0  0  0  0  0  0  0  0  0  0
   -3.0768   -1.3880   -2.5147 H   0  0  0  0  0  0  0  0  0  0  0  0
   -2.3880    0.6362   -3.7766 H   0  0  0  0  0  0  0  0  0  0  0  0
   -1.4216    2.5924   -2.5999 H   0  0  0  0  0  0  0  0  0  0  0  0
   -1.1540    2.5442   -0.0853 H   0  0  0  0  0  0  0  0  0  0  0  0
   -1.7788    3.3373    2.3907 B   0  0  0  0  0  0  0  0  0  0  0  0
   -1.5511    2.4167    3.4508 F   0  0  0  0  0  0  0  0  0  0  0  0
   -0.6166    3.3396    1.5687 F   0  0  0  0  0  0  0  0  0  0  0  0
   -2.8401    2.8066    1.6025 F   0  0  0  0  0  0  0  0  0  0  0  0
   -2.0743    4.5883    2.8579 F   0  0  0  0  0  0  0  0  0  0  0  0
  1  2  1  0  0  0  0
  2  3  1  0  0  0  0
  4  9  1  0  0  0  0
  4  1  1  0  0  0  0
  5  4  2  0  0  0  0
  6  7  2  0  0  0  0
  6  5  1  0  0  0  0
  7  8  1  0  0  0  0
  8 13  1  0  0  0  0
  8  1  2  0  0  0  0
 10  5  1  0  0  0  0
 11  6  1  0  0  0  0
 12  7  1  0  0  0  0
 14 18  1  0  0  0  0
 14 15  1  0  0  0  0
 16 14  1  0  0  0  0
 17 14  1  0  0  0  0
M  RAD  2   2   2   3   3
M  END
