Coordinates from ORCA-job PhN2+~BF4-_B3LYPG-6-31G_dp-NX-Scan-d89-09-n800
 OpenBabel11261920563D

 18 17  0  0  0  0  0  0  0  0999 V2000
   -1.3723    0.1002    0.2538 C   0  0  0  0  0  0  0  0  0  0  0  0
   -0.9078   -0.5586    1.3450 N   0  0  0  0  0  0  0  0  0  0  0  0
   -0.5141   -1.1365    2.2204 N   0  0  0  0  0  0  0  0  0  0  0  0
   -2.6011   -0.3274   -0.3018 C   0  0  0  0  0  0  0  0  0  0  0  0
   -3.0587    0.3496   -1.4107 C   0  0  0  0  0  0  0  0  0  0  0  0
   -2.3228    1.4287   -1.9288 C   0  0  0  0  0  0  0  0  0  0  0  0
   -1.1080    1.8256   -1.3682 C   0  0  0  0  0  0  0  0  0  0  0  0
   -0.6169    1.1827   -0.2456 C   0  0  0  0  0  0  0  0  0  0  0  0
   -3.1525   -1.1432    0.1497 H   0  0  0  0  0  0  0  0  0  0  0  0
   -4.0055    0.0704   -1.8579 H   0  0  0  0  0  0  0  0  0  0  0  0
   -2.7181    1.9784   -2.7758 H   0  0  0  0  0  0  0  0  0  0  0  0
   -0.5828    2.6893   -1.7555 H   0  0  0  0  0  0  0  0  0  0  0  0
    0.2834    1.5068    0.2562 H   0  0  0  0  0  0  0  0  0  0  0  0
   -2.6531    3.1699    1.2525 B   0  0  0  0  0  0  0  0  0  0  0  0
   -3.1713    4.1367    2.0912 F   0  0  0  0  0  0  0  0  0  0  0  0
   -1.2262    3.2394    1.2234 F   0  0  0  0  0  0  0  0  0  0  0  0
   -2.9924    1.8595    1.6923 F   0  0  0  0  0  0  0  0  0  0  0  0
   -3.1339    3.3415   -0.0652 F   0  0  0  0  0  0  0  0  0  0  0  0
  1  2  1  0  0  0  0
  2  3  1  0  0  0  0
  4  9  1  0  0  0  0
  4  1  2  0  0  0  0
  5  4  1  0  0  0  0
  6  5  2  0  0  0  0
  6  7  1  0  0  0  0
  7  8  2  0  0  0  0
  8  1  1  0  0  0  0
  8 13  1  0  0  0  0
 10  5  1  0  0  0  0
 11  6  1  0  0  0  0
 12  7  1  0  0  0  0
 14 17  1  0  0  0  0
 14 15  1  0  0  0  0
 16 14  1  0  0  0  0
 18 14  1  0  0  0  0
M  RAD  2   2   2   3   3
M  END
