Coordinates from ORCA-job PhN2+~BF4-_B3LYPG-6-31G_dp-NX-Scan-d89-09-n800
 OpenBabel11261920563D

 18 17  0  0  0  0  0  0  0  0999 V2000
   -1.7494    0.4936    0.0652 C   0  0  0  0  0  0  0  0  0  0  0  0
   -1.4192    0.2315    1.3837 N   0  0  0  0  0  0  0  0  0  0  0  0
   -1.1355   -0.0922    2.4072 N   0  0  0  0  0  0  0  0  0  0  0  0
   -2.4711   -0.5095   -0.6095 C   0  0  0  0  0  0  0  0  0  0  0  0
   -2.7743   -0.2870   -1.9432 C   0  0  0  0  0  0  0  0  0  0  0  0
   -2.3608    0.8990   -2.5677 C   0  0  0  0  0  0  0  0  0  0  0  0
   -1.6464    1.8732   -1.8667 C   0  0  0  0  0  0  0  0  0  0  0  0
   -1.3266    1.6936   -0.5250 C   0  0  0  0  0  0  0  0  0  0  0  0
   -2.7795   -1.4118   -0.0940 H   0  0  0  0  0  0  0  0  0  0  0  0
   -3.3338   -1.0330   -2.4971 H   0  0  0  0  0  0  0  0  0  0  0  0
   -2.6080    1.0637   -3.6117 H   0  0  0  0  0  0  0  0  0  0  0  0
   -1.3477    2.7929   -2.3572 H   0  0  0  0  0  0  0  0  0  0  0  0
   -0.8169    2.4336    0.0788 H   0  0  0  0  0  0  0  0  0  0  0  0
   -2.0369    3.1502    2.2060 B   0  0  0  0  0  0  0  0  0  0  0  0
   -2.1578    3.9218    3.3324 F   0  0  0  0  0  0  0  0  0  0  0  0
   -0.7073    2.5876    2.1142 F   0  0  0  0  0  0  0  0  0  0  0  0
   -2.9230    2.0344    2.2353 F   0  0  0  0  0  0  0  0  0  0  0  0
   -2.2596    3.8715    1.0243 F   0  0  0  0  0  0  0  0  0  0  0  0
  1  2  1  0  0  0  0
  2  3  1  0  0  0  0
  4  9  1  0  0  0  0
  4  1  2  0  0  0  0
  5  4  1  0  0  0  0
  6  5  2  0  0  0  0
  6  7  1  0  0  0  0
  7  8  2  0  0  0  0
  8  1  1  0  0  0  0
  8 13  1  0  0  0  0
 10  5  1  0  0  0  0
 11  6  1  0  0  0  0
 12  7  1  0  0  0  0
 14 17  1  0  0  0  0
 14 15  1  0  0  0  0
 16 14  1  0  0  0  0
 18 14  1  0  0  0  0
M  RAD  2   2   2   3   3
M  END
