Coordinates from ORCA-job PhN2+~BF4-_B3LYPG-6-31G_dp-NX-Scan-d89-09-n800
 OpenBabel11261920563D

 18 17  0  0  0  0  0  0  0  0999 V2000
   -1.3152   -0.0175    0.2559 C   0  0  0  0  0  0  0  0  0  0  0  0
   -0.8320   -0.7481    1.2876 N   0  0  0  0  0  0  0  0  0  0  0  0
   -0.4244   -1.3724    2.1259 N   0  0  0  0  0  0  0  0  0  0  0  0
   -2.5790   -0.3717   -0.2755 C   0  0  0  0  0  0  0  0  0  0  0  0
   -3.0707    0.4053   -1.3001 C   0  0  0  0  0  0  0  0  0  0  0  0
   -2.3389    1.5144   -1.7579 C   0  0  0  0  0  0  0  0  0  0  0  0
   -1.0748    1.8227   -1.2417 C   0  0  0  0  0  0  0  0  0  0  0  0
   -0.5532    1.0813   -0.2026 C   0  0  0  0  0  0  0  0  0  0  0  0
   -3.1288   -1.2116    0.1321 H   0  0  0  0  0  0  0  0  0  0  0  0
   -4.0460    0.1877   -1.7190 H   0  0  0  0  0  0  0  0  0  0  0  0
   -2.7604    2.1431   -2.5327 H   0  0  0  0  0  0  0  0  0  0  0  0
   -0.5486    2.7047   -1.5822 H   0  0  0  0  0  0  0  0  0  0  0  0
    0.3803    1.3443    0.2773 H   0  0  0  0  0  0  0  0  0  0  0  0
   -2.7219    3.2646    1.0812 B   0  0  0  0  0  0  0  0  0  0  0  0
   -3.3303    4.1760    1.9194 F   0  0  0  0  0  0  0  0  0  0  0  0
   -1.3280    3.5026    0.9869 F   0  0  0  0  0  0  0  0  0  0  0  0
   -2.9020    1.9332    1.5474 F   0  0  0  0  0  0  0  0  0  0  0  0
   -3.2801    3.3546   -0.2271 F   0  0  0  0  0  0  0  0  0  0  0  0
  1  2  1  0  0  0  0
  2  3  1  0  0  0  0
  4  9  1  0  0  0  0
  4  1  2  0  0  0  0
  5  4  1  0  0  0  0
  6  5  2  0  0  0  0
  6  7  1  0  0  0  0
  7  8  2  0  0  0  0
  8  1  1  0  0  0  0
  8 13  1  0  0  0  0
 10  5  1  0  0  0  0
 11  6  1  0  0  0  0
 12  7  1  0  0  0  0
 14 17  1  0  0  0  0
 14 15  1  0  0  0  0
 16 14  1  0  0  0  0
 18 14  1  0  0  0  0
M  RAD  2   2   2   3   3
M  END
