Coordinates from ORCA-job PhN2+~BF4-_B3LYPG-6-31G_dp-NX-Scan-d89-09-n800
 OpenBabel11261920573D

 18 17  0  0  0  0  0  0  0  0999 V2000
   -1.8448    0.5407    0.0251 C   0  0  0  0  0  0  0  0  0  0  0  0
   -1.5866    0.3913    1.3808 N   0  0  0  0  0  0  0  0  0  0  0  0
   -1.3614    0.1121    2.4317 N   0  0  0  0  0  0  0  0  0  0  0  0
   -2.4617   -0.5508   -0.6110 C   0  0  0  0  0  0  0  0  0  0  0  0
   -2.7072   -0.4392   -1.9722 C   0  0  0  0  0  0  0  0  0  0  0  0
   -2.3384    0.7259   -2.6571 C   0  0  0  0  0  0  0  0  0  0  0  0
   -1.7215    1.7903   -1.9915 C   0  0  0  0  0  0  0  0  0  0  0  0
   -1.4666    1.7230   -0.6269 C   0  0  0  0  0  0  0  0  0  0  0  0
   -2.7394   -1.4359   -0.0500 H   0  0  0  0  0  0  0  0  0  0  0  0
   -3.1872   -1.2575   -2.4980 H   0  0  0  0  0  0  0  0  0  0  0  0
   -2.5391    0.8034   -3.7212 H   0  0  0  0  0  0  0  0  0  0  0  0
   -1.4468    2.6880   -2.5346 H   0  0  0  0  0  0  0  0  0  0  0  0
   -1.0029    2.5125   -0.0442 H   0  0  0  0  0  0  0  0  0  0  0  0
   -1.9047    3.2630    2.3589 B   0  0  0  0  0  0  0  0  0  0  0  0
   -1.9459    3.0931    3.7285 F   0  0  0  0  0  0  0  0  0  0  0  0
   -0.6434    2.7425    1.8634 F   0  0  0  0  0  0  0  0  0  0  0  0
   -2.9079    2.4412    1.7434 F   0  0  0  0  0  0  0  0  0  0  0  0
   -2.0484    4.5696    1.9499 F   0  0  0  0  0  0  0  0  0  0  0  0
  1  2  1  0  0  0  0
  2  3  1  0  0  0  0
  4  9  1  0  0  0  0
  4  1  1  0  0  0  0
  5  4  2  0  0  0  0
  6  7  2  0  0  0  0
  6  5  1  0  0  0  0
  7  8  1  0  0  0  0
  8 13  1  0  0  0  0
  8  1  2  0  0  0  0
 10  5  1  0  0  0  0
 11  6  1  0  0  0  0
 12  7  1  0  0  0  0
 14 15  1  0  0  0  0
 16 14  1  0  0  0  0
 17 14  1  0  0  0  0
 18 14  1  0  0  0  0
M  RAD  2   2   2   3   3
M  END
