Coordinates from ORCA-job PhN2+~BF4-_B3LYPG-6-31G_dp-NX-Scan-d89-09-n800
 OpenBabel11261920563D

 18 17  0  0  0  0  0  0  0  0999 V2000
   -1.7213    0.4914    0.0721 C   0  0  0  0  0  0  0  0  0  0  0  0
   -1.3718    0.2167    1.3824 N   0  0  0  0  0  0  0  0  0  0  0  0
   -1.0709   -0.1256    2.3952 N   0  0  0  0  0  0  0  0  0  0  0  0
   -2.4793   -0.4916   -0.5926 C   0  0  0  0  0  0  0  0  0  0  0  0
   -2.8010   -0.2562   -1.9193 C   0  0  0  0  0  0  0  0  0  0  0  0
   -2.3700    0.9223   -2.5470 C   0  0  0  0  0  0  0  0  0  0  0  0
   -1.6194    1.8760   -1.8564 C   0  0  0  0  0  0  0  0  0  0  0  0
   -1.2808    1.6833   -0.5209 C   0  0  0  0  0  0  0  0  0  0  0  0
   -2.8002   -1.3878   -0.0743 H   0  0  0  0  0  0  0  0  0  0  0  0
   -3.3888   -0.9858   -2.4657 H   0  0  0  0  0  0  0  0  0  0  0  0
   -2.6331    1.0974   -3.5854 H   0  0  0  0  0  0  0  0  0  0  0  0
   -1.3090    2.7908   -2.3485 H   0  0  0  0  0  0  0  0  0  0  0  0
   -0.7457    2.4087    0.0778 H   0  0  0  0  0  0  0  0  0  0  0  0
   -2.0730    3.1307    2.1748 B   0  0  0  0  0  0  0  0  0  0  0  0
   -2.2371    3.9468    3.2643 F   0  0  0  0  0  0  0  0  0  0  0  0
   -0.7278    2.6036    2.1244 F   0  0  0  0  0  0  0  0  0  0  0  0
   -2.9270    1.9918    2.2324 F   0  0  0  0  0  0  0  0  0  0  0  0
   -2.2977    3.8008    0.9617 F   0  0  0  0  0  0  0  0  0  0  0  0
  1  2  1  0  0  0  0
  2  3  1  0  0  0  0
  4  9  1  0  0  0  0
  4  1  2  0  0  0  0
  5  4  1  0  0  0  0
  6  5  2  0  0  0  0
  6  7  1  0  0  0  0
  7  8  2  0  0  0  0
  8  1  1  0  0  0  0
  8 13  1  0  0  0  0
 10  5  1  0  0  0  0
 11  6  1  0  0  0  0
 12  7  1  0  0  0  0
 14 17  1  0  0  0  0
 14 15  1  0  0  0  0
 16 14  1  0  0  0  0
 18 14  1  0  0  0  0
M  RAD  2   2   2   3   3
M  END
