Coordinates from ORCA-job PhN2+~BF4-_B3LYPG-6-31G_dp-NX-Scan-d89-09-n800
 OpenBabel11261920573D

 18 17  0  0  0  0  0  0  0  0999 V2000
   -2.0363    0.5278    0.0313 C   0  0  0  0  0  0  0  0  0  0  0  0
   -1.9347    0.4557    1.4121 N   0  0  0  0  0  0  0  0  0  0  0  0
   -1.8133    0.4669    2.5274 N   0  0  0  0  0  0  0  0  0  0  0  0
   -2.5261   -0.6139   -0.6269 C   0  0  0  0  0  0  0  0  0  0  0  0
   -2.6183   -0.5740   -2.0107 C   0  0  0  0  0  0  0  0  0  0  0  0
   -2.2184    0.5767   -2.7028 C   0  0  0  0  0  0  0  0  0  0  0  0
   -1.7263    1.6933   -2.0209 C   0  0  0  0  0  0  0  0  0  0  0  0
   -1.6277    1.6964   -0.6323 C   0  0  0  0  0  0  0  0  0  0  0  0
   -2.8240   -1.4884   -0.0592 H   0  0  0  0  0  0  0  0  0  0  0  0
   -2.9979   -1.4353   -2.5497 H   0  0  0  0  0  0  0  0  0  0  0  0
   -2.2931    0.5998   -3.7860 H   0  0  0  0  0  0  0  0  0  0  0  0
   -1.4209    2.5767   -2.5714 H   0  0  0  0  0  0  0  0  0  0  0  0
   -1.2596    2.5466   -0.0632 H   0  0  0  0  0  0  0  0  0  0  0  0
   -1.7230    3.3873    2.3683 B   0  0  0  0  0  0  0  0  0  0  0  0
   -1.3262    2.2703    3.2174 F   0  0  0  0  0  0  0  0  0  0  0  0
   -0.6707    3.6009    1.4551 F   0  0  0  0  0  0  0  0  0  0  0  0
   -2.8521    2.9430    1.6492 F   0  0  0  0  0  0  0  0  0  0  0  0
   -1.9854    4.4834    3.1374 F   0  0  0  0  0  0  0  0  0  0  0  0
  1  2  1  0  0  0  0
  2  3  1  0  0  0  0
  4  9  1  0  0  0  0
  4  1  1  0  0  0  0
  5  4  2  0  0  0  0
  6  7  2  0  0  0  0
  6  5  1  0  0  0  0
  7  8  1  0  0  0  0
  8 13  1  0  0  0  0
  8  1  2  0  0  0  0
 10  5  1  0  0  0  0
 11  6  1  0  0  0  0
 12  7  1  0  0  0  0
 14 18  1  0  0  0  0
 14 15  1  0  0  0  0
 16 14  1  0  0  0  0
 17 14  1  0  0  0  0
M  RAD  2   2   2   3   3
M  END
