Coordinates from ORCA-job PhN2+~BF4-_B3LYPG-6-31G_dp-NX-Scan-d89-09-n800
 OpenBabel11261920563D

 18 17  0  0  0  0  0  0  0  0999 V2000
   -1.2218   -0.6531    0.1254 C   0  0  0  0  0  0  0  0  0  0  0  0
   -0.7236   -1.7412    0.7522 N   0  0  0  0  0  0  0  0  0  0  0  0
   -0.3014   -2.6294    1.2946 N   0  0  0  0  0  0  0  0  0  0  0  0
   -2.4353   -0.7868   -0.5958 C   0  0  0  0  0  0  0  0  0  0  0  0
   -2.9583    0.3545   -1.1670 C   0  0  0  0  0  0  0  0  0  0  0  0
   -2.3131    1.5947   -1.0027 C   0  0  0  0  0  0  0  0  0  0  0  0
   -1.0879    1.6942   -0.3059 C   0  0  0  0  0  0  0  0  0  0  0  0
   -0.5258    0.5797    0.2673 C   0  0  0  0  0  0  0  0  0  0  0  0
   -2.9214   -1.7529   -0.6748 H   0  0  0  0  0  0  0  0  0  0  0  0
   -3.8925    0.3002   -1.7145 H   0  0  0  0  0  0  0  0  0  0  0  0
   -2.7471    2.5055   -1.4062 H   0  0  0  0  0  0  0  0  0  0  0  0
   -0.6672    2.6829   -0.1515 H   0  0  0  0  0  0  0  0  0  0  0  0
    0.3924    0.6236    0.8419 H   0  0  0  0  0  0  0  0  0  0  0  0
   -2.9004    4.2209    0.5155 B   0  0  0  0  0  0  0  0  0  0  0  0
   -3.5711    5.1183    1.3080 F   0  0  0  0  0  0  0  0  0  0  0  0
   -3.2583    4.3446   -0.8502 F   0  0  0  0  0  0  0  0  0  0  0  0
   -1.4966    4.3772    0.6252 F   0  0  0  0  0  0  0  0  0  0  0  0
   -3.2246    2.8804    0.9136 F   0  0  0  0  0  0  0  0  0  0  0  0
  1  8  1  0  0  0  0
  1  2  1  0  0  0  0
  2  3  1  0  0  0  0
  4  1  2  0  0  0  0
  5  6  2  0  0  0  0
  5  4  1  0  0  0  0
  6  7  1  0  0  0  0
  7 12  1  0  0  0  0
  7  8  2  0  0  0  0
  8 13  1  0  0  0  0
  9  4  1  0  0  0  0
 10  5  1  0  0  0  0
 11  6  1  0  0  0  0
 14 17  1  0  0  0  0
 14 18  1  0  0  0  0
 14 15  1  0  0  0  0
 16 14  1  0  0  0  0
M  RAD  2   2   2   3   3
M  END
