Coordinates from ORCA-job PhN2+~BF4-_B3LYPG-6-31G_dp-NX-Scan-d89-09-n800
 OpenBabel11261920563D

 18 17  0  0  0  0  0  0  0  0999 V2000
   -1.2467   -0.5565    0.1582 C   0  0  0  0  0  0  0  0  0  0  0  0
   -0.8380   -1.5964    0.9128 N   0  0  0  0  0  0  0  0  0  0  0  0
   -0.4983   -2.4439    1.5681 N   0  0  0  0  0  0  0  0  0  0  0  0
   -2.4815   -0.6671   -0.5348 C   0  0  0  0  0  0  0  0  0  0  0  0
   -2.9380    0.4513   -1.1927 C   0  0  0  0  0  0  0  0  0  0  0  0
   -2.2137    1.6595   -1.1281 C   0  0  0  0  0  0  0  0  0  0  0  0
   -0.9467    1.7196   -0.5054 C   0  0  0  0  0  0  0  0  0  0  0  0
   -0.4526    0.6237    0.1567 C   0  0  0  0  0  0  0  0  0  0  0  0
   -3.0379   -1.5976   -0.5131 H   0  0  0  0  0  0  0  0  0  0  0  0
   -3.8906    0.4222   -1.7086 H   0  0  0  0  0  0  0  0  0  0  0  0
   -2.6149    2.5628   -1.5755 H   0  0  0  0  0  0  0  0  0  0  0  0
   -0.4389    2.6737   -0.4528 H   0  0  0  0  0  0  0  0  0  0  0  0
    0.4844    0.6497    0.7010 H   0  0  0  0  0  0  0  0  0  0  0  0
   -2.9555    3.9998    0.5919 B   0  0  0  0  0  0  0  0  0  0  0  0
   -3.6569    4.7301    1.5185 F   0  0  0  0  0  0  0  0  0  0  0  0
   -3.2840    4.3482   -0.7364 F   0  0  0  0  0  0  0  0  0  0  0  0
   -1.5611    4.1328    0.7665 F   0  0  0  0  0  0  0  0  0  0  0  0
   -3.2830    2.6013    0.7484 F   0  0  0  0  0  0  0  0  0  0  0  0
  1  2  1  0  0  0  0
  2  3  1  0  0  0  0
  4  9  1  0  0  0  0
  4  1  2  0  0  0  0
  5  6  2  0  0  0  0
  5  4  1  0  0  0  0
  6  7  1  0  0  0  0
  7 12  1  0  0  0  0
  7  8  2  0  0  0  0
  8  1  1  0  0  0  0
  8 13  1  0  0  0  0
 10  5  1  0  0  0  0
 11  6  1  0  0  0  0
 14 18  1  0  0  0  0
 14 17  1  0  0  0  0
 14 15  1  0  0  0  0
 16 14  1  0  0  0  0
M  RAD  2   2   2   3   3
M  END
