Coordinates from ORCA-job PhN2+~BF4-_B3LYPG-6-31G_dp-NX-Scan-d89-09-n800
 OpenBabel11261920563D

 18 17  0  0  1  0  0  0  0  0999 V2000
   -1.1872   -0.7608    0.1713 C   0  0  0  0  0  0  0  0  0  0  0  0
   -0.6707   -1.9456    0.4334 N   0  0  0  0  0  0  0  0  0  0  0  0
   -0.2247   -2.9722    0.6589 N   0  0  0  0  0  0  0  0  0  0  0  0
   -2.5116   -0.6618   -0.3990 C   0  0  0  0  0  0  0  0  0  0  0  0
   -3.0132    0.5453   -0.7355 C   0  0  0  0  0  0  0  0  0  0  0  0
   -2.2655    1.8047   -0.5216 C   0  0  2  0  0  0  0  0  0  0  0  0
   -0.9148    1.6434    0.0636 C   0  0  0  0  0  0  0  0  0  0  0  0
   -0.4112    0.4380    0.4016 C   0  0  0  0  0  0  0  0  0  0  0  0
   -3.0760   -1.5723   -0.5729 H   0  0  0  0  0  0  0  0  0  0  0  0
   -3.9973    0.6212   -1.1850 H   0  0  0  0  0  0  0  0  0  0  0  0
   -2.2937    2.4742   -1.3829 H   0  0  0  0  0  0  0  0  0  0  0  0
   -0.3384    2.5479    0.2211 H   0  0  0  0  0  0  0  0  0  0  0  0
    0.5826    0.3442    0.8272 H   0  0  0  0  0  0  0  0  0  0  0  0
   -3.1153    4.5084    0.1151 B   0  0  0  0  0  0  0  0  0  0  0  0
   -3.9690    4.8810    1.0679 F   0  0  0  0  0  0  0  0  0  0  0  0
   -3.5578    4.4415   -1.1513 F   0  0  0  0  0  0  0  0  0  0  0  0
   -1.8047    4.7397    0.2945 F   0  0  0  0  0  0  0  0  0  0  0  0
   -3.0855    2.6365    0.4684 F   0  0  0  0  0  0  0  0  0  0  0  0
  1  8  1  0  0  0  0
  1  2  1  0  0  0  0
  2  3  1  0  0  0  0
  4  1  2  0  0  0  0
  5  6  1  0  0  0  0
  5  4  1  0  0  0  0
  6 11  1  6  0  0  0
  6  7  1  0  0  0  0
  6 18  1  0  0  0  0
  7 12  1  0  0  0  0
  7  8  2  0  0  0  0
  8 13  1  0  0  0  0
  9  4  1  0  0  0  0
 10  5  1  0  0  0  0
 14 17  1  0  0  0  0
 14 15  1  0  0  0  0
 16 14  1  0  0  0  0
M  RAD  3   2   2   3   3   5   2
M  END
