Coordinates from ORCA-job PhN2+~BF4-_B3LYPG-6-31G_dp-NX-Scan-d89-09-n800
 OpenBabel11261920563D

 18 17  0  0  0  0  0  0  0  0999 V2000
   -1.3641    0.0790    0.2538 C   0  0  0  0  0  0  0  0  0  0  0  0
   -0.8976   -0.5864    1.3393 N   0  0  0  0  0  0  0  0  0  0  0  0
   -0.5031   -1.1660    2.2136 N   0  0  0  0  0  0  0  0  0  0  0  0
   -2.5948   -0.3437   -0.3019 C   0  0  0  0  0  0  0  0  0  0  0  0
   -3.0603    0.3494   -1.3974 C   0  0  0  0  0  0  0  0  0  0  0  0
   -2.3309    1.4393   -1.9022 C   0  0  0  0  0  0  0  0  0  0  0  0
   -1.1114    1.8277   -1.3453 C   0  0  0  0  0  0  0  0  0  0  0  0
   -0.6132    1.1697   -0.2355 C   0  0  0  0  0  0  0  0  0  0  0  0
   -3.1416   -1.1677    0.1401 H   0  0  0  0  0  0  0  0  0  0  0  0
   -4.0095    0.0754   -1.8429 H   0  0  0  0  0  0  0  0  0  0  0  0
   -2.7339    2.0031   -2.7360 H   0  0  0  0  0  0  0  0  0  0  0  0
   -0.5915    2.6995   -1.7211 H   0  0  0  0  0  0  0  0  0  0  0  0
    0.2885    1.4900    0.2667 H   0  0  0  0  0  0  0  0  0  0  0  0
   -2.6550    3.1890    1.2230 B   0  0  0  0  0  0  0  0  0  0  0  0
   -3.1818    4.1409    2.0728 F   0  0  0  0  0  0  0  0  0  0  0  0
   -1.2300    3.2717    1.1936 F   0  0  0  0  0  0  0  0  0  0  0  0
   -2.9847    1.8713    1.6477 F   0  0  0  0  0  0  0  0  0  0  0  0
   -3.1392    3.3711   -0.0933 F   0  0  0  0  0  0  0  0  0  0  0  0
  1  2  1  0  0  0  0
  2  3  1  0  0  0  0
  4  9  1  0  0  0  0
  4  1  2  0  0  0  0
  5  4  1  0  0  0  0
  6  5  2  0  0  0  0
  6  7  1  0  0  0  0
  7  8  2  0  0  0  0
  8  1  1  0  0  0  0
  8 13  1  0  0  0  0
 10  5  1  0  0  0  0
 11  6  1  0  0  0  0
 12  7  1  0  0  0  0
 14 17  1  0  0  0  0
 14 15  1  0  0  0  0
 16 14  1  0  0  0  0
 18 14  1  0  0  0  0
M  RAD  2   2   2   3   3
M  END
