Coordinates from ORCA-job PhN2+~BF4-_B3LYPG-6-31G_dp-NX-Scan-d89-09-n800
 OpenBabel11261920563D

 18 17  0  0  1  0  0  0  0  0999 V2000
   -1.1689   -0.7853    0.1514 C   0  0  0  0  0  0  0  0  0  0  0  0
   -0.6241   -1.9601    0.3882 N   0  0  0  0  0  0  0  0  0  0  0  0
   -0.1517   -2.9810    0.5922 N   0  0  0  0  0  0  0  0  0  0  0  0
   -2.5115   -0.7038   -0.3836 C   0  0  0  0  0  0  0  0  0  0  0  0
   -3.0451    0.4949   -0.6929 C   0  0  0  0  0  0  0  0  0  0  0  0
   -2.3158    1.7760   -0.4961 C   0  0  2  0  0  0  0  0  0  0  0  0
   -0.9504    1.6273    0.0765 C   0  0  0  0  0  0  0  0  0  0  0  0
   -0.4156    0.4295    0.3860 C   0  0  0  0  0  0  0  0  0  0  0  0
   -3.0645   -1.6234   -0.5470 H   0  0  0  0  0  0  0  0  0  0  0  0
   -4.0451    0.5553   -1.1092 H   0  0  0  0  0  0  0  0  0  0  0  0
   -2.3315    2.4070   -1.3891 H   0  0  0  0  0  0  0  0  0  0  0  0
   -0.3903    2.5408    0.2438 H   0  0  0  0  0  0  0  0  0  0  0  0
    0.5854    0.3511    0.7975 H   0  0  0  0  0  0  0  0  0  0  0  0
   -3.0840    4.6532    0.0998 B   0  0  0  0  0  0  0  0  0  0  0  0
   -4.0490    4.9789    0.9479 F   0  0  0  0  0  0  0  0  0  0  0  0
   -3.3663    4.5467   -1.1999 F   0  0  0  0  0  0  0  0  0  0  0  0
   -1.8097    4.8048    0.4597 F   0  0  0  0  0  0  0  0  0  0  0  0
   -3.1158    2.6015    0.4496 F   0  0  0  0  0  0  0  0  0  0  0  0
  1  8  1  0  0  0  0
  1  2  1  0  0  0  0
  2  3  1  0  0  0  0
  4  1  2  0  0  0  0
  5  6  1  0  0  0  0
  5  4  1  0  0  0  0
  6 11  1  6  0  0  0
  6  7  1  0  0  0  0
  6 18  1  0  0  0  0
  7 12  1  0  0  0  0
  7  8  2  0  0  0  0
  8 13  1  0  0  0  0
  9  4  1  0  0  0  0
 10  5  1  0  0  0  0
 14 17  1  0  0  0  0
 14 15  1  0  0  0  0
 16 14  1  0  0  0  0
M  RAD  3   2   2   3   3   5   2
M  END
