Coordinates from ORCA-job PhN2+~BF4-_B3LYPG-6-31G_dp-NX-Scan-d89-09-n800
 OpenBabel11261920573D

 18 17  0  0  0  0  0  0  0  0999 V2000
   -1.8660    0.5653    0.0177 C   0  0  0  0  0  0  0  0  0  0  0  0
   -1.6289    0.4531    1.3814 N   0  0  0  0  0  0  0  0  0  0  0  0
   -1.4288    0.1994    2.4445 N   0  0  0  0  0  0  0  0  0  0  0  0
   -2.4682   -0.5458   -0.5985 C   0  0  0  0  0  0  0  0  0  0  0  0
   -2.6959   -0.4705   -1.9652 C   0  0  0  0  0  0  0  0  0  0  0  0
   -2.3233    0.6787   -2.6748 C   0  0  0  0  0  0  0  0  0  0  0  0
   -1.7200    1.7625   -2.0288 C   0  0  0  0  0  0  0  0  0  0  0  0
   -1.4832    1.7318   -0.6592 C   0  0  0  0  0  0  0  0  0  0  0  0
   -2.7487   -1.4179   -0.0187 H   0  0  0  0  0  0  0  0  0  0  0  0
   -3.1645   -1.3045   -2.4764 H   0  0  0  0  0  0  0  0  0  0  0  0
   -2.5099    0.7278   -3.7433 H   0  0  0  0  0  0  0  0  0  0  0  0
   -1.4405    2.6464   -2.5919 H   0  0  0  0  0  0  0  0  0  0  0  0
   -1.0285    2.5369   -0.0907 H   0  0  0  0  0  0  0  0  0  0  0  0
   -1.8817    3.2696    2.3851 B   0  0  0  0  0  0  0  0  0  0  0  0
   -1.8989    2.7900    3.6896 F   0  0  0  0  0  0  0  0  0  0  0  0
   -0.6318    2.8696    1.7770 F   0  0  0  0  0  0  0  0  0  0  0  0
   -2.8960    2.5909    1.6329 F   0  0  0  0  0  0  0  0  0  0  0  0
   -2.0392    4.6302    2.2944 F   0  0  0  0  0  0  0  0  0  0  0  0
  1  2  1  0  0  0  0
  2  3  1  0  0  0  0
  4  9  1  0  0  0  0
  4  1  1  0  0  0  0
  5  4  2  0  0  0  0
  6  7  2  0  0  0  0
  6  5  1  0  0  0  0
  7  8  1  0  0  0  0
  8 13  1  0  0  0  0
  8  1  2  0  0  0  0
 10  5  1  0  0  0  0
 11  6  1  0  0  0  0
 12  7  1  0  0  0  0
 14 15  1  0  0  0  0
 16 14  1  0  0  0  0
 17 14  1  0  0  0  0
 18 14  1  0  0  0  0
M  RAD  2   2   2   3   3
M  END
