Coordinates from ORCA-job PhN2+~BF4-_B3LYPG-6-31G_dp-NX-Scan-d89-09-n800
 OpenBabel11261920573D

 18 17  0  0  0  0  0  0  0  0999 V2000
   -1.9667    0.5507    0.0194 C   0  0  0  0  0  0  0  0  0  0  0  0
   -1.8104    0.4791    1.3960 N   0  0  0  0  0  0  0  0  0  0  0  0
   -1.6724    0.3515    2.4952 N   0  0  0  0  0  0  0  0  0  0  0  0
   -2.5046   -0.5841   -0.6131 C   0  0  0  0  0  0  0  0  0  0  0  0
   -2.6547   -0.5376   -1.9915 C   0  0  0  0  0  0  0  0  0  0  0  0
   -2.2643    0.6076   -2.6986 C   0  0  0  0  0  0  0  0  0  0  0  0
   -1.7214    1.7139   -2.0384 C   0  0  0  0  0  0  0  0  0  0  0  0
   -1.5649    1.7133   -0.6556 C   0  0  0  0  0  0  0  0  0  0  0  0
   -2.7965   -1.4533   -0.0345 H   0  0  0  0  0  0  0  0  0  0  0  0
   -3.0739   -1.3902   -2.5146 H   0  0  0  0  0  0  0  0  0  0  0  0
   -2.3875    0.6343   -3.7772 H   0  0  0  0  0  0  0  0  0  0  0  0
   -1.4238    2.5921   -2.6011 H   0  0  0  0  0  0  0  0  0  0  0  0
   -1.1558    2.5455   -0.0872 H   0  0  0  0  0  0  0  0  0  0  0  0
   -1.7782    3.3382    2.3913 B   0  0  0  0  0  0  0  0  0  0  0  0
   -1.5530    2.4106    3.4474 F   0  0  0  0  0  0  0  0  0  0  0  0
   -0.6166    3.3396    1.5690 F   0  0  0  0  0  0  0  0  0  0  0  0
   -2.8415    2.8150    1.6020 F   0  0  0  0  0  0  0  0  0  0  0  0
   -2.0680    4.5873    2.8665 F   0  0  0  0  0  0  0  0  0  0  0  0
  1  2  1  0  0  0  0
  2  3  1  0  0  0  0
  4  9  1  0  0  0  0
  4  1  1  0  0  0  0
  5  4  2  0  0  0  0
  6  7  2  0  0  0  0
  6  5  1  0  0  0  0
  7  8  1  0  0  0  0
  8 13  1  0  0  0  0
  8  1  2  0  0  0  0
 10  5  1  0  0  0  0
 11  6  1  0  0  0  0
 12  7  1  0  0  0  0
 14 18  1  0  0  0  0
 14 15  1  0  0  0  0
 16 14  1  0  0  0  0
 17 14  1  0  0  0  0
M  RAD  2   2   2   3   3
M  END
