Coordinates from ORCA-job PhN2+~BF4-_B3LYPG-6-31G_dp-NX-Scan-d89-09-n800
 OpenBabel11261920563D

 18 17  0  0  0  0  0  0  0  0999 V2000
   -1.2281   -0.6208    0.1415 C   0  0  0  0  0  0  0  0  0  0  0  0
   -0.7681   -1.7030    0.8033 N   0  0  0  0  0  0  0  0  0  0  0  0
   -0.3813   -2.5891    1.3760 N   0  0  0  0  0  0  0  0  0  0  0  0
   -2.4599   -0.7284   -0.5551 C   0  0  0  0  0  0  0  0  0  0  0  0
   -2.9490    0.4117   -1.1534 C   0  0  0  0  0  0  0  0  0  0  0  0
   -2.2555    1.6326   -1.0360 C   0  0  0  0  0  0  0  0  0  0  0  0
   -1.0068    1.7021   -0.3772 C   0  0  0  0  0  0  0  0  0  0  0  0
   -0.4793    0.5865    0.2240 C   0  0  0  0  0  0  0  0  0  0  0  0
   -2.9854   -1.6763   -0.5922 H   0  0  0  0  0  0  0  0  0  0  0  0
   -3.8960    0.3788   -1.6797 H   0  0  0  0  0  0  0  0  0  0  0  0
   -2.6658    2.5419   -1.4648 H   0  0  0  0  0  0  0  0  0  0  0  0
   -0.5418    2.6743   -0.2636 H   0  0  0  0  0  0  0  0  0  0  0  0
    0.4524    0.6121    0.7775 H   0  0  0  0  0  0  0  0  0  0  0  0
   -2.9465    4.1337    0.5278 B   0  0  0  0  0  0  0  0  0  0  0  0
   -3.6381    4.9573    1.3802 F   0  0  0  0  0  0  0  0  0  0  0  0
   -3.2980    4.3449   -0.8260 F   0  0  0  0  0  0  0  0  0  0  0  0
   -1.5487    4.2957    0.6615 F   0  0  0  0  0  0  0  0  0  0  0  0
   -3.2580    2.7593    0.8311 F   0  0  0  0  0  0  0  0  0  0  0  0
  1  8  1  0  0  0  0
  1  2  1  0  0  0  0
  2  3  1  0  0  0  0
  4  1  2  0  0  0  0
  5  6  2  0  0  0  0
  5  4  1  0  0  0  0
  6  7  1  0  0  0  0
  7 12  1  0  0  0  0
  7  8  2  0  0  0  0
  8 13  1  0  0  0  0
  9  4  1  0  0  0  0
 10  5  1  0  0  0  0
 11  6  1  0  0  0  0
 14 17  1  0  0  0  0
 14 18  1  0  0  0  0
 14 15  1  0  0  0  0
 16 14  1  0  0  0  0
M  RAD  2   2   2   3   3
M  END
