Coordinates from ORCA-job PhN2+~BF4-_B3LYPG-6-31G_dp-NX-Scan-d89-09-n800
 OpenBabel11261920563D

 18 17  0  0  0  0  0  0  0  0999 V2000
   -1.3036   -0.0550    0.2535 C   0  0  0  0  0  0  0  0  0  0  0  0
   -0.8255   -0.8108    1.2678 N   0  0  0  0  0  0  0  0  0  0  0  0
   -0.4253   -1.4495    2.0996 N   0  0  0  0  0  0  0  0  0  0  0  0
   -2.5785   -0.3754   -0.2742 C   0  0  0  0  0  0  0  0  0  0  0  0
   -3.0685    0.4358   -1.2719 C   0  0  0  0  0  0  0  0  0  0  0  0
   -2.3261    1.5476   -1.7076 C   0  0  0  0  0  0  0  0  0  0  0  0
   -1.0487    1.8206   -1.1994 C   0  0  0  0  0  0  0  0  0  0  0  0
   -0.5279    1.0409   -0.1894 C   0  0  0  0  0  0  0  0  0  0  0  0
   -3.1371   -1.2176    0.1168 H   0  0  0  0  0  0  0  0  0  0  0  0
   -4.0516    0.2453   -1.6856 H   0  0  0  0  0  0  0  0  0  0  0  0
   -2.7442    2.1995   -2.4641 H   0  0  0  0  0  0  0  0  0  0  0  0
   -0.5117    2.7018   -1.5237 H   0  0  0  0  0  0  0  0  0  0  0  0
    0.4187    1.2719    0.2826 H   0  0  0  0  0  0  0  0  0  0  0  0
   -2.7511    3.2910    1.0361 B   0  0  0  0  0  0  0  0  0  0  0  0
   -3.3816    4.1849    1.8754 F   0  0  0  0  0  0  0  0  0  0  0  0
   -1.4023    3.6514    0.8137 F   0  0  0  0  0  0  0  0  0  0  0  0
   -2.7722    1.9749    1.5737 F   0  0  0  0  0  0  0  0  0  0  0  0
   -3.4167    3.2559   -0.2285 F   0  0  0  0  0  0  0  0  0  0  0  0
  1  2  1  0  0  0  0
  2  3  1  0  0  0  0
  4  9  1  0  0  0  0
  4  1  2  0  0  0  0
  5  4  1  0  0  0  0
  6  5  2  0  0  0  0
  6  7  1  0  0  0  0
  7  8  2  0  0  0  0
  8  1  1  0  0  0  0
  8 13  1  0  0  0  0
 10  5  1  0  0  0  0
 11  6  1  0  0  0  0
 12  7  1  0  0  0  0
 14 17  1  0  0  0  0
 14 15  1  0  0  0  0
 16 14  1  0  0  0  0
 18 14  1  0  0  0  0
M  RAD  2   2   2   3   3
M  END
