Coordinates from ORCA-job PhN2+~BF4-_B3LYPG-6-31G_dp-NX-Scan-d89-09-n800
 OpenBabel11261920563D

 18 17  0  0  0  0  0  0  0  0999 V2000
   -1.2604   -0.3868    0.1884 C   0  0  0  0  0  0  0  0  0  0  0  0
   -0.7748   -1.3298    1.0269 N   0  0  0  0  0  0  0  0  0  0  0  0
   -0.3664   -2.1046    1.7299 N   0  0  0  0  0  0  0  0  0  0  0  0
   -2.4992   -0.6345   -0.4615 C   0  0  0  0  0  0  0  0  0  0  0  0
   -3.0126    0.3768   -1.2404 C   0  0  0  0  0  0  0  0  0  0  0  0
   -2.3316    1.6059   -1.3498 C   0  0  0  0  0  0  0  0  0  0  0  0
   -1.0758    1.8026   -0.7487 C   0  0  0  0  0  0  0  0  0  0  0  0
   -0.5307    0.8209    0.0463 C   0  0  0  0  0  0  0  0  0  0  0  0
   -3.0137   -1.5780   -0.3190 H   0  0  0  0  0  0  0  0  0  0  0  0
   -3.9720    0.2463   -1.7271 H   0  0  0  0  0  0  0  0  0  0  0  0
   -2.7645    2.4222   -1.9111 H   0  0  0  0  0  0  0  0  0  0  0  0
   -0.6151    2.7784   -0.8182 H   0  0  0  0  0  0  0  0  0  0  0  0
    0.3977    0.9666    0.5852 H   0  0  0  0  0  0  0  0  0  0  0  0
   -2.8101    3.7711    0.7790 B   0  0  0  0  0  0  0  0  0  0  0  0
   -3.4819    4.7232    1.5098 F   0  0  0  0  0  0  0  0  0  0  0  0
   -2.1629    4.3428   -0.3488 F   0  0  0  0  0  0  0  0  0  0  0  0
   -1.8464    3.0975    1.5575 F   0  0  0  0  0  0  0  0  0  0  0  0
   -3.7335    2.7924    0.2765 F   0  0  0  0  0  0  0  0  0  0  0  0
  1  2  1  0  0  0  0
  2  3  1  0  0  0  0
  4  9  1  0  0  0  0
  4  1  2  0  0  0  0
  5  4  1  0  0  0  0
  6  5  2  0  0  0  0
  6  7  1  0  0  0  0
  7  8  2  0  0  0  0
  8  1  1  0  0  0  0
  8 13  1  0  0  0  0
 10  5  1  0  0  0  0
 11  6  1  0  0  0  0
 12  7  1  0  0  0  0
 14 15  1  0  0  0  0
 14 17  1  0  0  0  0
 16 14  1  0  0  0  0
 18 14  1  0  0  0  0
M  RAD  2   2   2   3   3
M  END
