Coordinates from ORCA-job PhN2+~BF4-_B3LYPG-6-31G_dp-NX-Scan-d89-09-n800
 OpenBabel11261920573D

 18 17  0  0  0  0  0  0  0  0999 V2000
   -1.8985    0.5722    0.0147 C   0  0  0  0  0  0  0  0  0  0  0  0
   -1.6876    0.4860    1.3845 N   0  0  0  0  0  0  0  0  0  0  0  0
   -1.5108    0.2757    2.4624 N   0  0  0  0  0  0  0  0  0  0  0  0
   -2.4780   -0.5531   -0.5974 C   0  0  0  0  0  0  0  0  0  0  0  0
   -2.6808   -0.4988   -1.9689 C   0  0  0  0  0  0  0  0  0  0  0  0
   -2.3035    0.6435   -2.6875 C   0  0  0  0  0  0  0  0  0  0  0  0
   -1.7209    1.7408   -2.0457 C   0  0  0  0  0  0  0  0  0  0  0  0
   -1.5108    1.7323   -0.6709 C   0  0  0  0  0  0  0  0  0  0  0  0
   -2.7611   -1.4197   -0.0107 H   0  0  0  0  0  0  0  0  0  0  0  0
   -3.1326   -1.3437   -2.4773 H   0  0  0  0  0  0  0  0  0  0  0  0
   -2.4694    0.6758   -3.7600 H   0  0  0  0  0  0  0  0  0  0  0  0
   -1.4362    2.6180   -2.6166 H   0  0  0  0  0  0  0  0  0  0  0  0
   -1.0729    2.5507   -0.1068 H   0  0  0  0  0  0  0  0  0  0  0  0
   -1.8475    3.2858    2.3966 B   0  0  0  0  0  0  0  0  0  0  0  0
   -1.8066    2.5819    3.6083 F   0  0  0  0  0  0  0  0  0  0  0  0
   -0.6157    3.0280    1.7019 F   0  0  0  0  0  0  0  0  0  0  0  0
   -2.8744    2.7065    1.5865 F   0  0  0  0  0  0  0  0  0  0  0  0
   -2.0466    4.6311    2.5621 F   0  0  0  0  0  0  0  0  0  0  0  0
  1  2  1  0  0  0  0
  2  3  1  0  0  0  0
  4  9  1  0  0  0  0
  4  1  1  0  0  0  0
  5  4  2  0  0  0  0
  6  7  2  0  0  0  0
  6  5  1  0  0  0  0
  7  8  1  0  0  0  0
  8 13  1  0  0  0  0
  8  1  2  0  0  0  0
 10  5  1  0  0  0  0
 11  6  1  0  0  0  0
 12  7  1  0  0  0  0
 14 18  1  0  0  0  0
 14 15  1  0  0  0  0
 16 14  1  0  0  0  0
 17 14  1  0  0  0  0
M  RAD  2   2   2   3   3
M  END
