Coordinates from ORCA-job PhN2+~BF4-_B3LYPG-6-31G_dp-NX-Scan-d89-09-n800
 OpenBabel11261920563D

 18 17  0  0  0  0  0  0  0  0999 V2000
   -1.2428   -0.5689    0.1558 C   0  0  0  0  0  0  0  0  0  0  0  0
   -0.8265   -1.6184    0.8927 N   0  0  0  0  0  0  0  0  0  0  0  0
   -0.4797   -2.4751    1.5323 N   0  0  0  0  0  0  0  0  0  0  0  0
   -2.4789   -0.6751   -0.5355 C   0  0  0  0  0  0  0  0  0  0  0  0
   -2.9392    0.4487   -1.1817 C   0  0  0  0  0  0  0  0  0  0  0  0
   -2.2169    1.6577   -1.1088 C   0  0  0  0  0  0  0  0  0  0  0  0
   -0.9514    1.7158   -0.4824 C   0  0  0  0  0  0  0  0  0  0  0  0
   -0.4534    0.6146    0.1678 C   0  0  0  0  0  0  0  0  0  0  0  0
   -3.0323   -1.6075   -0.5234 H   0  0  0  0  0  0  0  0  0  0  0  0
   -3.8919    0.4218   -1.6977 H   0  0  0  0  0  0  0  0  0  0  0  0
   -2.6176    2.5625   -1.5538 H   0  0  0  0  0  0  0  0  0  0  0  0
   -0.4482    2.6720   -0.4201 H   0  0  0  0  0  0  0  0  0  0  0  0
    0.4840    0.6378    0.7116 H   0  0  0  0  0  0  0  0  0  0  0  0
   -2.9594    4.0228    0.5775 B   0  0  0  0  0  0  0  0  0  0  0  0
   -3.6600    4.7660    1.4941 F   0  0  0  0  0  0  0  0  0  0  0  0
   -3.2961    4.3472   -0.7553 F   0  0  0  0  0  0  0  0  0  0  0  0
   -1.5647    4.1656    0.7423 F   0  0  0  0  0  0  0  0  0  0  0  0
   -3.2789    2.6256    0.7596 F   0  0  0  0  0  0  0  0  0  0  0  0
  1  8  1  0  0  0  0
  1  2  1  0  0  0  0
  2  3  1  0  0  0  0
  4  9  1  0  0  0  0
  4  1  2  0  0  0  0
  5  6  2  0  0  0  0
  5  4  1  0  0  0  0
  6  7  1  0  0  0  0
  7 12  1  0  0  0  0
  7  8  2  0  0  0  0
  8 13  1  0  0  0  0
 10  5  1  0  0  0  0
 11  6  1  0  0  0  0
 14 17  1  0  0  0  0
 14 18  1  0  0  0  0
 14 15  1  0  0  0  0
 16 14  1  0  0  0  0
M  RAD  2   2   2   3   3
M  END
