Coordinates from ORCA-job PhN2+~BF4-_B3LYPG-6-31G_dp-NX-Scan-d89-09-n800
 OpenBabel11261920563D

 18 17  0  0  0  0  0  0  0  0999 V2000
   -1.2611   -0.3198    0.2160 C   0  0  0  0  0  0  0  0  0  0  0  0
   -0.7586   -1.2453    1.0647 N   0  0  0  0  0  0  0  0  0  0  0  0
   -0.3390   -2.0162    1.7657 N   0  0  0  0  0  0  0  0  0  0  0  0
   -2.5214   -0.5743   -0.3884 C   0  0  0  0  0  0  0  0  0  0  0  0
   -3.0303    0.3999   -1.2151 C   0  0  0  0  0  0  0  0  0  0  0  0
   -2.3211    1.6001   -1.4232 C   0  0  0  0  0  0  0  0  0  0  0  0
   -1.0505    1.8046   -0.8590 C   0  0  0  0  0  0  0  0  0  0  0  0
   -0.5147    0.8639   -0.0084 C   0  0  0  0  0  0  0  0  0  0  0  0
   -3.0526   -1.4961   -0.1806 H   0  0  0  0  0  0  0  0  0  0  0  0
   -4.0044    0.2644   -1.6699 H   0  0  0  0  0  0  0  0  0  0  0  0
   -2.7477    2.3750   -2.0447 H   0  0  0  0  0  0  0  0  0  0  0  0
   -0.5645    2.7611   -0.9905 H   0  0  0  0  0  0  0  0  0  0  0  0
    0.4296    1.0196    0.4990 H   0  0  0  0  0  0  0  0  0  0  0  0
   -2.8253    3.6784    0.8287 B   0  0  0  0  0  0  0  0  0  0  0  0
   -3.4965    4.6270    1.5678 F   0  0  0  0  0  0  0  0  0  0  0  0
   -1.9284    4.2811   -0.0887 F   0  0  0  0  0  0  0  0  0  0  0  0
   -2.1064    2.7825    1.6467 F   0  0  0  0  0  0  0  0  0  0  0  0
   -3.7611    2.9072    0.0549 F   0  0  0  0  0  0  0  0  0  0  0  0
  1  2  1  0  0  0  0
  2  3  1  0  0  0  0
  4  9  1  0  0  0  0
  4  1  2  0  0  0  0
  5  4  1  0  0  0  0
  6  5  2  0  0  0  0
  6  7  1  0  0  0  0
  7  8  2  0  0  0  0
  8  1  1  0  0  0  0
  8 13  1  0  0  0  0
 10  5  1  0  0  0  0
 11  6  1  0  0  0  0
 12  7  1  0  0  0  0
 14 15  1  0  0  0  0
 14 17  1  0  0  0  0
 16 14  1  0  0  0  0
 18 14  1  0  0  0  0
M  RAD  2   2   2   3   3
M  END
