Coordinates from ORCA-job PhN2+~BF4-_B3LYPG-6-31G_dp-NX-Scan-d89-09-n800
 OpenBabel11261920563D

 18 17  0  0  0  0  0  0  0  0999 V2000
   -1.7617    0.0651    0.1466 C   0  0  0  0  0  0  0  0  0  0  0  0
   -1.4848   -0.4811    1.3724 N   0  0  0  0  0  0  0  0  0  0  0  0
   -1.2623   -0.9931    2.3393 N   0  0  0  0  0  0  0  0  0  0  0  0
   -2.4990   -0.7257   -0.7706 C   0  0  0  0  0  0  0  0  0  0  0  0
   -2.7699   -0.1607   -1.9996 C   0  0  0  0  0  0  0  0  0  0  0  0
   -2.3340    1.1492   -2.2920 C   0  0  0  0  0  0  0  0  0  0  0  0
   -1.6219    1.9015   -1.3630 C   0  0  0  0  0  0  0  0  0  0  0  0
   -1.3120    1.3680   -0.1148 C   0  0  0  0  0  0  0  0  0  0  0  0
   -2.8310   -1.7223   -0.5048 H   0  0  0  0  0  0  0  0  0  0  0  0
   -3.3300   -0.7256   -2.7368 H   0  0  0  0  0  0  0  0  0  0  0  0
   -2.5760    1.5794   -3.2588 H   0  0  0  0  0  0  0  0  0  0  0  0
   -1.3253    2.9253   -1.5560 H   0  0  0  0  0  0  0  0  0  0  0  0
   -0.7824    1.9531    0.6288 H   0  0  0  0  0  0  0  0  0  0  0  0
   -2.0105    3.5474    1.8001 B   0  0  0  0  0  0  0  0  0  0  0  0
   -2.3747    4.5967    2.6133 F   0  0  0  0  0  0  0  0  0  0  0  0
   -0.8802    3.8898    0.9982 F   0  0  0  0  0  0  0  0  0  0  0  0
   -1.6427    2.3814    2.5452 F   0  0  0  0  0  0  0  0  0  0  0  0
   -3.0554    3.1648    0.9276 F   0  0  0  0  0  0  0  0  0  0  0  0
  1  2  1  0  0  0  0
  2  3  1  0  0  0  0
  4  9  1  0  0  0  0
  4  1  2  0  0  0  0
  5  4  1  0  0  0  0
  6  5  2  0  0  0  0
  6  7  1  0  0  0  0
  7  8  2  0  0  0  0
  8  1  1  0  0  0  0
  8 13  1  0  0  0  0
 10  5  1  0  0  0  0
 11  6  1  0  0  0  0
 12  7  1  0  0  0  0
 14 17  1  0  0  0  0
 14 15  1  0  0  0  0
 16 14  1  0  0  0  0
 18 14  1  0  0  0  0
M  RAD  2   2   2   3   3
M  END
