Coordinates from ORCA-job PhN2+~BF4-_B3LYPG-6-31G_dp-NX-Scan-d89-09-n800
 OpenBabel11261920563D

 18 17  0  0  0  0  0  0  0  0999 V2000
   -1.2520   -0.5401    0.1609 C   0  0  0  0  0  0  0  0  0  0  0  0
   -0.8523   -1.5665    0.9386 N   0  0  0  0  0  0  0  0  0  0  0  0
   -0.5210   -2.4012    1.6142 N   0  0  0  0  0  0  0  0  0  0  0  0
   -2.4846   -0.6581   -0.5350 C   0  0  0  0  0  0  0  0  0  0  0  0
   -2.9369    0.4525   -1.2084 C   0  0  0  0  0  0  0  0  0  0  0  0
   -2.2114    1.6604   -1.1543 C   0  0  0  0  0  0  0  0  0  0  0  0
   -0.9434    1.7248   -0.5351 C   0  0  0  0  0  0  0  0  0  0  0  0
   -0.4534    0.6365    0.1428 C   0  0  0  0  0  0  0  0  0  0  0  0
   -3.0435   -1.5866   -0.5012 H   0  0  0  0  0  0  0  0  0  0  0  0
   -3.8890    0.4194   -1.7252 H   0  0  0  0  0  0  0  0  0  0  0  0
   -2.6140    2.5616   -1.6045 H   0  0  0  0  0  0  0  0  0  0  0  0
   -0.4310    2.6768   -0.4943 H   0  0  0  0  0  0  0  0  0  0  0  0
    0.4823    0.6677    0.6888 H   0  0  0  0  0  0  0  0  0  0  0  0
   -2.9480    3.9703    0.6121 B   0  0  0  0  0  0  0  0  0  0  0  0
   -3.6506    4.6869    1.5487 F   0  0  0  0  0  0  0  0  0  0  0  0
   -3.2625    4.3486   -0.7110 F   0  0  0  0  0  0  0  0  0  0  0  0
   -1.5541    4.0881    0.8014 F   0  0  0  0  0  0  0  0  0  0  0  0
   -3.2885    2.5720    0.7365 F   0  0  0  0  0  0  0  0  0  0  0  0
  1  2  1  0  0  0  0
  2  3  1  0  0  0  0
  4  9  1  0  0  0  0
  4  1  2  0  0  0  0
  5  6  2  0  0  0  0
  5  4  1  0  0  0  0
  6  7  1  0  0  0  0
  7 12  1  0  0  0  0
  7  8  2  0  0  0  0
  8  1  1  0  0  0  0
  8 13  1  0  0  0  0
 10  5  1  0  0  0  0
 11  6  1  0  0  0  0
 14 18  1  0  0  0  0
 14 17  1  0  0  0  0
 14 15  1  0  0  0  0
 16 14  1  0  0  0  0
M  RAD  2   2   2   3   3
M  END
