Coordinates from ORCA-job PhN2+~BF4-_B3LYPG-6-31G_dp-NX-Scan-d89-09-n800
 OpenBabel11261920563D

 18 17  0  0  0  0  0  0  0  0999 V2000
   -1.9793    0.4743   -0.0083 C   0  0  0  0  0  0  0  0  0  0  0  0
   -1.7644    0.2915    1.3476 N   0  0  0  0  0  0  0  0  0  0  0  0
   -1.5378    0.2301    2.4363 N   0  0  0  0  0  0  0  0  0  0  0  0
   -2.3454   -0.6602   -0.7542 C   0  0  0  0  0  0  0  0  0  0  0  0
   -2.5396   -0.4981   -2.1177 C   0  0  0  0  0  0  0  0  0  0  0  0
   -2.3669    0.7648   -2.7004 C   0  0  0  0  0  0  0  0  0  0  0  0
   -2.0010    1.8715   -1.9291 C   0  0  0  0  0  0  0  0  0  0  0  0
   -1.7994    1.7561   -0.5563 C   0  0  0  0  0  0  0  0  0  0  0  0
   -2.4706   -1.6216   -0.2687 H   0  0  0  0  0  0  0  0  0  0  0  0
   -2.8253   -1.3496   -2.7253 H   0  0  0  0  0  0  0  0  0  0  0  0
   -2.5230    0.8844   -3.7683 H   0  0  0  0  0  0  0  0  0  0  0  0
   -1.8751    2.8432   -2.3947 H   0  0  0  0  0  0  0  0  0  0  0  0
   -1.5311    2.6106    0.0650 H   0  0  0  0  0  0  0  0  0  0  0  0
   -1.6673    3.2569    2.4578 B   0  0  0  0  0  0  0  0  0  0  0  0
   -1.9064    4.0097    3.5724 F   0  0  0  0  0  0  0  0  0  0  0  0
   -0.6127    2.3159    2.6956 F   0  0  0  0  0  0  0  0  0  0  0  0
   -2.8179    2.5027    2.0878 F   0  0  0  0  0  0  0  0  0  0  0  0
   -1.2906    4.0309    1.3356 F   0  0  0  0  0  0  0  0  0  0  0  0
  1  2  1  0  0  0  0
  2  3  1  0  0  0  0
  4  9  1  0  0  0  0
  4  1  2  0  0  0  0
  5  4  1  0  0  0  0
  6  5  2  0  0  0  0
  6  7  1  0  0  0  0
  7  8  2  0  0  0  0
  8  1  1  0  0  0  0
  8 13  1  0  0  0  0
 10  5  1  0  0  0  0
 11  6  1  0  0  0  0
 12  7  1  0  0  0  0
 14 16  1  0  0  0  0
 14 15  1  0  0  0  0
 17 14  1  0  0  0  0
 18 14  1  0  0  0  0
M  RAD  2   2   2   3   3
M  END
