Coordinates from ORCA-job PhN2+~BF4-_B3LYPG-6-31G_dp-NX-Scan-d89-09-n800
 OpenBabel11261920573D

 18 17  0  0  0  0  0  0  0  0999 V2000
   -2.0459    0.4273    0.1008 C   0  0  0  0  0  0  0  0  0  0  0  0
   -2.0195    0.2845    1.4880 N   0  0  0  0  0  0  0  0  0  0  0  0
   -1.7580    0.6639    2.5344 N   0  0  0  0  0  0  0  0  0  0  0  0
   -2.6170   -0.6296   -0.6240 C   0  0  0  0  0  0  0  0  0  0  0  0
   -2.6622   -0.5355   -2.0091 C   0  0  0  0  0  0  0  0  0  0  0  0
   -2.1421    0.5981   -2.6437 C   0  0  0  0  0  0  0  0  0  0  0  0
   -1.5756    1.6390   -1.9009 C   0  0  0  0  0  0  0  0  0  0  0  0
   -1.5162    1.5754   -0.5121 C   0  0  0  0  0  0  0  0  0  0  0  0
   -3.0119   -1.4916   -0.0978 H   0  0  0  0  0  0  0  0  0  0  0  0
   -3.1006   -1.3387   -2.5917 H   0  0  0  0  0  0  0  0  0  0  0  0
   -2.1818    0.6717   -3.7266 H   0  0  0  0  0  0  0  0  0  0  0  0
   -1.1814    2.5159   -2.4037 H   0  0  0  0  0  0  0  0  0  0  0  0
   -1.0952    2.3844    0.0717 H   0  0  0  0  0  0  0  0  0  0  0  0
   -1.8529    3.4840    2.2225 B   0  0  0  0  0  0  0  0  0  0  0  0
   -0.9467    2.2245    2.4462 F   0  0  0  0  0  0  0  0  0  0  0  0
   -1.2016    4.1459    1.1987 F   0  0  0  0  0  0  0  0  0  0  0  0
   -3.0593    2.9455    1.8198 F   0  0  0  0  0  0  0  0  0  0  0  0
   -1.8862    4.1486    3.4025 F   0  0  0  0  0  0  0  0  0  0  0  0
  1  2  1  0  0  0  0
  2  3  2  0  0  0  0
  4  9  1  0  0  0  0
  4  1  2  0  0  0  0
  5  4  1  0  0  0  0
  6  5  2  0  0  0  0
  6  7  1  0  0  0  0
  7  8  2  0  0  0  0
  8 13  1  0  0  0  0
  8  1  1  0  0  0  0
 10  5  1  0  0  0  0
 11  6  1  0  0  0  0
 12  7  1  0  0  0  0
 14 15  1  0  0  0  0
 14 18  1  0  0  0  0
 16 14  1  0  0  0  0
 17 14  1  0  0  0  0
M  RAD  1   3   2
M  END
