Coordinates from ORCA-job PhN2+~BF4-_B3LYPG-6-31G_dp-NX-Scan-d89-09-n800
 OpenBabel11261920573D

 18 17  0  0  0  0  0  0  0  0999 V2000
   -2.4304    0.3508   -0.0601 C   0  0  0  0  0  0  0  0  0  0  0  0
   -2.8525    0.2032    1.3029 N   0  0  0  0  0  0  0  0  0  0  0  0
   -2.3001    0.8496    2.2303 N   0  0  0  0  0  0  0  0  0  0  0  0
   -2.5318   -0.8227   -0.8231 C   0  0  0  0  0  0  0  0  0  0  0  0
   -2.2088   -0.8171   -2.1772 C   0  0  0  0  0  0  0  0  0  0  0  0
   -1.8180    0.3722   -2.7971 C   0  0  0  0  0  0  0  0  0  0  0  0
   -1.7510    1.5509   -2.0516 C   0  0  0  0  0  0  0  0  0  0  0  0
   -2.0439    1.5494   -0.6880 C   0  0  0  0  0  0  0  0  0  0  0  0
   -2.8660   -1.7290   -0.3287 H   0  0  0  0  0  0  0  0  0  0  0  0
   -2.2777   -1.7361   -2.7520 H   0  0  0  0  0  0  0  0  0  0  0  0
   -1.5764    0.3831   -3.8556 H   0  0  0  0  0  0  0  0  0  0  0  0
   -1.4619    2.4815   -2.5311 H   0  0  0  0  0  0  0  0  0  0  0  0
   -1.9900    2.4786   -0.1336 H   0  0  0  0  0  0  0  0  0  0  0  0
   -1.5689    4.2680    2.8720 B   0  0  0  0  0  0  0  0  0  0  0  0
   -1.4713    1.5252    1.9707 F   0  0  0  0  0  0  0  0  0  0  0  0
   -1.5910    4.3399    1.5506 F   0  0  0  0  0  0  0  0  0  0  0  0
   -2.6532    3.9082    3.5244 F   0  0  0  0  0  0  0  0  0  0  0  0
   -0.4610    4.5576    3.5221 F   0  0  0  0  0  0  0  0  0  0  0  0
  1  2  1  0  0  0  0
  2  3  2  0  0  0  0
  4  9  1  0  0  0  0
  4  1  2  0  0  0  0
  5  4  1  0  0  0  0
  6  5  2  0  0  0  0
  6  7  1  0  0  0  0
  7  8  2  0  0  0  0
  8 13  1  0  0  0  0
  8  1  1  0  0  0  0
 10  5  1  0  0  0  0
 11  6  1  0  0  0  0
 12  7  1  0  0  0  0
 14 18  1  0  0  0  0
 14 17  1  0  0  0  0
 15  3  1  0  0  0  0
 16 14  1  0  0  0  0
M  END
