Coordinates from ORCA-job PhN2+~BF4-_B3LYPG-6-31G_dp-NX-Scan-d89-09-n800
 OpenBabel11261920563D

 18 17  0  0  0  0  0  0  0  0999 V2000
   -1.2678   -0.3565    0.1973 C   0  0  0  0  0  0  0  0  0  0  0  0
   -0.7850   -1.2841    1.0547 N   0  0  0  0  0  0  0  0  0  0  0  0
   -0.3812   -2.0482    1.7718 N   0  0  0  0  0  0  0  0  0  0  0  0
   -2.5075   -0.6139   -0.4471 C   0  0  0  0  0  0  0  0  0  0  0  0
   -3.0159    0.3810   -1.2496 C   0  0  0  0  0  0  0  0  0  0  0  0
   -2.3279    1.6031   -1.3894 C   0  0  0  0  0  0  0  0  0  0  0  0
   -1.0699    1.8063   -0.7975 C   0  0  0  0  0  0  0  0  0  0  0  0
   -0.5326    0.8433    0.0260 C   0  0  0  0  0  0  0  0  0  0  0  0
   -3.0269   -1.5511   -0.2823 H   0  0  0  0  0  0  0  0  0  0  0  0
   -3.9767    0.2445   -1.7318 H   0  0  0  0  0  0  0  0  0  0  0  0
   -2.7603    2.4060   -1.9706 H   0  0  0  0  0  0  0  0  0  0  0  0
   -0.6030    2.7775   -0.8869 H   0  0  0  0  0  0  0  0  0  0  0  0
    0.3954    0.9986    0.5628 H   0  0  0  0  0  0  0  0  0  0  0  0
   -2.8016    3.7261    0.8076 B   0  0  0  0  0  0  0  0  0  0  0  0
   -3.4703    4.6706    1.5520 F   0  0  0  0  0  0  0  0  0  0  0  0
   -2.1003    4.3219   -0.2732 F   0  0  0  0  0  0  0  0  0  0  0  0
   -1.8871    2.9930    1.5929 F   0  0  0  0  0  0  0  0  0  0  0  0
   -3.7352    2.7951    0.2382 F   0  0  0  0  0  0  0  0  0  0  0  0
  1  2  1  0  0  0  0
  2  3  1  0  0  0  0
  4  9  1  0  0  0  0
  4  1  2  0  0  0  0
  5  4  1  0  0  0  0
  6  5  2  0  0  0  0
  6  7  1  0  0  0  0
  7  8  2  0  0  0  0
  8  1  1  0  0  0  0
  8 13  1  0  0  0  0
 10  5  1  0  0  0  0
 11  6  1  0  0  0  0
 12  7  1  0  0  0  0
 14 15  1  0  0  0  0
 14 17  1  0  0  0  0
 16 14  1  0  0  0  0
 18 14  1  0  0  0  0
M  RAD  2   2   2   3   3
M  END
