Coordinates from ORCA-job PhN2+~BF4-_B3LYPG-6-31G_dp-NX-Scan-d89-09-n800
 OpenBabel11261920573D

 18 17  0  0  0  0  0  0  0  0999 V2000
   -1.8435    0.5370    0.0267 C   0  0  0  0  0  0  0  0  0  0  0  0
   -1.5827    0.3815    1.3812 N   0  0  0  0  0  0  0  0  0  0  0  0
   -1.3548    0.1003    2.4309 N   0  0  0  0  0  0  0  0  0  0  0  0
   -2.4616   -0.5514   -0.6135 C   0  0  0  0  0  0  0  0  0  0  0  0
   -2.7083   -0.4340   -1.9740 C   0  0  0  0  0  0  0  0  0  0  0  0
   -2.3391    0.7337   -2.6544 C   0  0  0  0  0  0  0  0  0  0  0  0
   -1.7216    1.7951   -1.9848 C   0  0  0  0  0  0  0  0  0  0  0  0
   -1.4658    1.7221   -0.6206 C   0  0  0  0  0  0  0  0  0  0  0  0
   -2.7394   -1.4387   -0.0560 H   0  0  0  0  0  0  0  0  0  0  0  0
   -3.1893   -1.2496   -2.5028 H   0  0  0  0  0  0  0  0  0  0  0  0
   -2.5402    0.8157   -3.7181 H   0  0  0  0  0  0  0  0  0  0  0  0
   -1.4470    2.6951   -2.5242 H   0  0  0  0  0  0  0  0  0  0  0  0
   -1.0026    2.5099   -0.0354 H   0  0  0  0  0  0  0  0  0  0  0  0
   -1.9066    3.2607    2.3538 B   0  0  0  0  0  0  0  0  0  0  0  0
   -1.9447    3.1466    3.7281 F   0  0  0  0  0  0  0  0  0  0  0  0
   -0.6445    2.7255    1.8751 F   0  0  0  0  0  0  0  0  0  0  0  0
   -2.9091    2.4138    1.7721 F   0  0  0  0  0  0  0  0  0  0  0  0
   -2.0532    4.5499    1.8911 F   0  0  0  0  0  0  0  0  0  0  0  0
  1  2  1  0  0  0  0
  2  3  1  0  0  0  0
  4  9  1  0  0  0  0
  4  1  1  0  0  0  0
  5  4  2  0  0  0  0
  6  7  2  0  0  0  0
  6  5  1  0  0  0  0
  7  8  1  0  0  0  0
  8 13  1  0  0  0  0
  8  1  2  0  0  0  0
 10  5  1  0  0  0  0
 11  6  1  0  0  0  0
 12  7  1  0  0  0  0
 14 15  1  0  0  0  0
 16 14  1  0  0  0  0
 17 14  1  0  0  0  0
 18 14  1  0  0  0  0
M  RAD  2   2   2   3   3
M  END
