Coordinates from ORCA-job PhN2+~BF4-_B3LYPG-6-31G_dp-NX-Scan-d89-09-n800
 OpenBabel11261920563D

 18 17  0  0  0  0  0  0  0  0999 V2000
   -1.7653    0.0433    0.1433 C   0  0  0  0  0  0  0  0  0  0  0  0
   -1.4976   -0.5024    1.3710 N   0  0  0  0  0  0  0  0  0  0  0  0
   -1.2806   -0.9974    2.3478 N   0  0  0  0  0  0  0  0  0  0  0  0
   -2.4885   -0.7443   -0.7874 C   0  0  0  0  0  0  0  0  0  0  0  0
   -2.7581   -0.1653   -2.0101 C   0  0  0  0  0  0  0  0  0  0  0  0
   -2.3370    1.1541   -2.2820 C   0  0  0  0  0  0  0  0  0  0  0  0
   -1.6381    1.9029   -1.3399 C   0  0  0  0  0  0  0  0  0  0  0  0
   -1.3273    1.3541   -0.0988 C   0  0  0  0  0  0  0  0  0  0  0  0
   -2.8116   -1.7476   -0.5362 H   0  0  0  0  0  0  0  0  0  0  0  0
   -3.3073   -0.7263   -2.7585 H   0  0  0  0  0  0  0  0  0  0  0  0
   -2.5805    1.5945   -3.2439 H   0  0  0  0  0  0  0  0  0  0  0  0
   -1.3523    2.9330   -1.5146 H   0  0  0  0  0  0  0  0  0  0  0  0
   -0.8072    1.9289    0.6589 H   0  0  0  0  0  0  0  0  0  0  0  0
   -1.9977    3.5693    1.7874 B   0  0  0  0  0  0  0  0  0  0  0  0
   -2.3447    4.6232    2.6013 F   0  0  0  0  0  0  0  0  0  0  0  0
   -0.8897    3.9060    0.9541 F   0  0  0  0  0  0  0  0  0  0  0  0
   -1.6076    2.4127    2.5372 F   0  0  0  0  0  0  0  0  0  0  0  0
   -3.0630    3.1745    0.9456 F   0  0  0  0  0  0  0  0  0  0  0  0
  1  2  1  0  0  0  0
  2  3  1  0  0  0  0
  4  9  1  0  0  0  0
  4  1  2  0  0  0  0
  5  4  1  0  0  0  0
  6  5  2  0  0  0  0
  6  7  1  0  0  0  0
  7  8  2  0  0  0  0
  8  1  1  0  0  0  0
  8 13  1  0  0  0  0
 10  5  1  0  0  0  0
 11  6  1  0  0  0  0
 12  7  1  0  0  0  0
 14 17  1  0  0  0  0
 14 15  1  0  0  0  0
 16 14  1  0  0  0  0
 18 14  1  0  0  0  0
M  RAD  2   2   2   3   3
M  END
