Coordinates from ORCA-job PhN2+~BF4-_B3LYPG-6-31G_dp-NX-Scan-d89-09-n800
 OpenBabel11261920563D

 18 17  0  0  0  0  0  0  0  0999 V2000
   -1.6646    0.4305    0.1014 C   0  0  0  0  0  0  0  0  0  0  0  0
   -1.2587    0.0712    1.3695 N   0  0  0  0  0  0  0  0  0  0  0  0
   -0.9006   -0.3747    2.3248 N   0  0  0  0  0  0  0  0  0  0  0  0
   -2.5103   -0.4781   -0.5703 C   0  0  0  0  0  0  0  0  0  0  0  0
   -2.8659   -0.1663   -1.8694 C   0  0  0  0  0  0  0  0  0  0  0  0
   -2.3859    1.0126   -2.4663 C   0  0  0  0  0  0  0  0  0  0  0  0
   -1.5571    1.8914   -1.7708 C   0  0  0  0  0  0  0  0  0  0  0  0
   -1.1843    1.6246   -0.4560 C   0  0  0  0  0  0  0  0  0  0  0  0
   -2.8619   -1.3760   -0.0758 H   0  0  0  0  0  0  0  0  0  0  0  0
   -3.5175   -0.8345   -2.4218 H   0  0  0  0  0  0  0  0  0  0  0  0
   -2.6769    1.2457   -3.4856 H   0  0  0  0  0  0  0  0  0  0  0  0
   -1.2181    2.8106   -2.2342 H   0  0  0  0  0  0  0  0  0  0  0  0
   -0.5888    2.2932    0.1540 H   0  0  0  0  0  0  0  0  0  0  0  0
   -2.1513    3.1445    2.0591 B   0  0  0  0  0  0  0  0  0  0  0  0
   -2.4682    4.1457    2.9479 F   0  0  0  0  0  0  0  0  0  0  0  0
   -0.7462    2.8451    2.0714 F   0  0  0  0  0  0  0  0  0  0  0  0
   -2.8040    1.9145    2.3585 F   0  0  0  0  0  0  0  0  0  0  0  0
   -2.4936    3.5129    0.7386 F   0  0  0  0  0  0  0  0  0  0  0  0
  1  2  1  0  0  0  0
  2  3  1  0  0  0  0
  4  9  1  0  0  0  0
  4  1  2  0  0  0  0
  5  4  1  0  0  0  0
  6  5  2  0  0  0  0
  6  7  1  0  0  0  0
  7  8  2  0  0  0  0
  8  1  1  0  0  0  0
  8 13  1  0  0  0  0
 10  5  1  0  0  0  0
 11  6  1  0  0  0  0
 12  7  1  0  0  0  0
 14 16  1  0  0  0  0
 14 17  1  0  0  0  0
 14 15  1  0  0  0  0
 18 14  1  0  0  0  0
M  RAD  2   2   2   3   3
M  END
