Coordinates from ORCA-job PhN2+~BF4-_B3LYPG-6-31G_dp-NX-Scan-d89-09-n800
 OpenBabel11261920563D

 18 17  0  0  0  0  0  0  0  0999 V2000
   -1.7398    0.2182    0.1346 C   0  0  0  0  0  0  0  0  0  0  0  0
   -1.4020   -0.2759    1.3725 N   0  0  0  0  0  0  0  0  0  0  0  0
   -1.1216   -0.8217    2.3044 N   0  0  0  0  0  0  0  0  0  0  0  0
   -2.5162   -0.6374   -0.6852 C   0  0  0  0  0  0  0  0  0  0  0  0
   -2.8204   -0.1875   -1.9539 C   0  0  0  0  0  0  0  0  0  0  0  0
   -2.3646    1.0747   -2.3815 C   0  0  0  0  0  0  0  0  0  0  0  0
   -1.6104    1.8937   -1.5461 C   0  0  0  0  0  0  0  0  0  0  0  0
   -1.2825    1.4871   -0.2537 C   0  0  0  0  0  0  0  0  0  0  0  0
   -2.8519   -1.6004   -0.3185 H   0  0  0  0  0  0  0  0  0  0  0  0
   -3.4143   -0.8085   -2.6157 H   0  0  0  0  0  0  0  0  0  0  0  0
   -2.6198    1.4171   -3.3793 H   0  0  0  0  0  0  0  0  0  0  0  0
   -1.2971    2.8789   -1.8698 H   0  0  0  0  0  0  0  0  0  0  0  0
   -0.7228    2.1282    0.4268 H   0  0  0  0  0  0  0  0  0  0  0  0
   -2.0361    3.4187    1.9334 B   0  0  0  0  0  0  0  0  0  0  0  0
   -2.4718    4.4114    2.7837 F   0  0  0  0  0  0  0  0  0  0  0  0
   -0.6661    3.6062    1.5795 F   0  0  0  0  0  0  0  0  0  0  0  0
   -2.1257    2.1097    2.5069 F   0  0  0  0  0  0  0  0  0  0  0  0
   -2.7910    3.4006    0.7370 F   0  0  0  0  0  0  0  0  0  0  0  0
  1  2  1  0  0  0  0
  2  3  1  0  0  0  0
  4  9  1  0  0  0  0
  4  1  2  0  0  0  0
  5  4  1  0  0  0  0
  6  5  2  0  0  0  0
  6  7  1  0  0  0  0
  7  8  2  0  0  0  0
  8  1  1  0  0  0  0
  8 13  1  0  0  0  0
 10  5  1  0  0  0  0
 11  6  1  0  0  0  0
 12  7  1  0  0  0  0
 14 17  1  0  0  0  0
 14 15  1  0  0  0  0
 16 14  1  0  0  0  0
 18 14  1  0  0  0  0
M  RAD  2   2   2   3   3
M  END
