Coordinates from ORCA-job PhN2+~BF4-_B3LYPG-6-31G_dp-NX-Scan-d89-09-n800
 OpenBabel11261920563D

 18 17  0  0  0  0  0  0  0  0999 V2000
   -1.7445    0.2485    0.1312 C   0  0  0  0  0  0  0  0  0  0  0  0
   -1.4121   -0.2239    1.3802 N   0  0  0  0  0  0  0  0  0  0  0  0
   -1.1339   -0.7546    2.3208 N   0  0  0  0  0  0  0  0  0  0  0  0
   -2.5269   -0.6144   -0.6734 C   0  0  0  0  0  0  0  0  0  0  0  0
   -2.8256   -0.1850   -1.9511 C   0  0  0  0  0  0  0  0  0  0  0  0
   -2.3566    1.0638   -2.4015 C   0  0  0  0  0  0  0  0  0  0  0  0
   -1.5949    1.8907   -1.5802 C   0  0  0  0  0  0  0  0  0  0  0  0
   -1.2751    1.5054   -0.2794 C   0  0  0  0  0  0  0  0  0  0  0  0
   -2.8724   -1.5672   -0.2897 H   0  0  0  0  0  0  0  0  0  0  0  0
   -3.4248   -0.8125   -2.6018 H   0  0  0  0  0  0  0  0  0  0  0  0
   -2.6059    1.3898   -3.4063 H   0  0  0  0  0  0  0  0  0  0  0  0
   -1.2687    2.8648   -1.9245 H   0  0  0  0  0  0  0  0  0  0  0  0
   -0.7120    2.1501    0.3943 H   0  0  0  0  0  0  0  0  0  0  0  0
   -2.0378    3.3820    1.9557 B   0  0  0  0  0  0  0  0  0  0  0  0
   -2.4854    4.3511    2.8250 F   0  0  0  0  0  0  0  0  0  0  0  0
   -0.6734    3.5958    1.5994 F   0  0  0  0  0  0  0  0  0  0  0  0
   -2.1048    2.0619    2.5120 F   0  0  0  0  0  0  0  0  0  0  0  0
   -2.7991    3.3669    0.7643 F   0  0  0  0  0  0  0  0  0  0  0  0
  1  2  1  0  0  0  0
  2  3  1  0  0  0  0
  4  9  1  0  0  0  0
  4  1  2  0  0  0  0
  5  4  1  0  0  0  0
  6  5  2  0  0  0  0
  6  7  1  0  0  0  0
  7  8  2  0  0  0  0
  8  1  1  0  0  0  0
  8 13  1  0  0  0  0
 10  5  1  0  0  0  0
 11  6  1  0  0  0  0
 12  7  1  0  0  0  0
 14 17  1  0  0  0  0
 14 15  1  0  0  0  0
 16 14  1  0  0  0  0
 18 14  1  0  0  0  0
M  RAD  2   2   2   3   3
M  END
