Coordinates from ORCA-job PhN2+~BF4-_B3LYPG-6-31G_dp-NX-Scan-d89-09-n800
 OpenBabel11261920563D

 18 17  0  0  0  0  0  0  0  0999 V2000
   -1.7688    0.0197    0.1424 C   0  0  0  0  0  0  0  0  0  0  0  0
   -1.5055   -0.5355    1.3665 N   0  0  0  0  0  0  0  0  0  0  0  0
   -1.2907   -1.0277    2.3455 N   0  0  0  0  0  0  0  0  0  0  0  0
   -2.4795   -0.7619   -0.8029 C   0  0  0  0  0  0  0  0  0  0  0  0
   -2.7480   -0.1677   -2.0184 C   0  0  0  0  0  0  0  0  0  0  0  0
   -2.3389    1.1600   -2.2688 C   0  0  0  0  0  0  0  0  0  0  0  0
   -1.6520    1.9025   -1.3129 C   0  0  0  0  0  0  0  0  0  0  0  0
   -1.3412    1.3381   -0.0786 C   0  0  0  0  0  0  0  0  0  0  0  0
   -2.7942   -1.7718   -0.5678 H   0  0  0  0  0  0  0  0  0  0  0  0
   -3.2877   -0.7229   -2.7779 H   0  0  0  0  0  0  0  0  0  0  0  0
   -2.5828    1.6117   -3.2253 H   0  0  0  0  0  0  0  0  0  0  0  0
   -1.3755    2.9382   -1.4683 H   0  0  0  0  0  0  0  0  0  0  0  0
   -0.8305    1.9053    0.6914 H   0  0  0  0  0  0  0  0  0  0  0  0
   -1.9885    3.5978    1.7714 B   0  0  0  0  0  0  0  0  0  0  0  0
   -2.3182    4.6617    2.5793 F   0  0  0  0  0  0  0  0  0  0  0  0
   -0.9034    3.9240    0.9054 F   0  0  0  0  0  0  0  0  0  0  0  0
   -1.5756    2.4550    2.5310 F   0  0  0  0  0  0  0  0  0  0  0  0
   -3.0730    3.1869    0.9629 F   0  0  0  0  0  0  0  0  0  0  0  0
  1  2  1  0  0  0  0
  2  3  1  0  0  0  0
  4  9  1  0  0  0  0
  4  1  2  0  0  0  0
  5  4  1  0  0  0  0
  6  5  2  0  0  0  0
  6  7  1  0  0  0  0
  7  8  2  0  0  0  0
  8  1  1  0  0  0  0
  8 13  1  0  0  0  0
 10  5  1  0  0  0  0
 11  6  1  0  0  0  0
 12  7  1  0  0  0  0
 14 17  1  0  0  0  0
 14 15  1  0  0  0  0
 16 14  1  0  0  0  0
 18 14  1  0  0  0  0
M  RAD  2   2   2   3   3
M  END
