Coordinates from ORCA-job PhN2+~BF4-_B3LYPG-6-31G_dp-NX-Scan-d89-09-n800
 OpenBabel11261920563D

 18 17  0  0  0  0  0  0  0  0999 V2000
   -1.6627    0.4364    0.1001 C   0  0  0  0  0  0  0  0  0  0  0  0
   -1.2586    0.0822    1.3702 N   0  0  0  0  0  0  0  0  0  0  0  0
   -0.9025   -0.3552    2.3301 N   0  0  0  0  0  0  0  0  0  0  0  0
   -2.5086   -0.4742   -0.5684 C   0  0  0  0  0  0  0  0  0  0  0  0
   -2.8653   -0.1667   -1.8684 C   0  0  0  0  0  0  0  0  0  0  0  0
   -2.3861    1.0103   -2.4693 C   0  0  0  0  0  0  0  0  0  0  0  0
   -1.5566    1.8912   -1.7771 C   0  0  0  0  0  0  0  0  0  0  0  0
   -1.1824    1.6285   -0.4619 C   0  0  0  0  0  0  0  0  0  0  0  0
   -2.8601   -1.3704   -0.0708 H   0  0  0  0  0  0  0  0  0  0  0  0
   -3.5172   -0.8368   -2.4182 H   0  0  0  0  0  0  0  0  0  0  0  0
   -2.6781    1.2403   -3.4890 H   0  0  0  0  0  0  0  0  0  0  0  0
   -1.2176    2.8087   -2.2439 H   0  0  0  0  0  0  0  0  0  0  0  0
   -0.5854    2.2988    0.1443 H   0  0  0  0  0  0  0  0  0  0  0  0
   -2.1536    3.1362    2.0634 B   0  0  0  0  0  0  0  0  0  0  0  0
   -2.4591    4.1364    2.9576 F   0  0  0  0  0  0  0  0  0  0  0  0
   -0.7515    2.8182    2.0769 F   0  0  0  0  0  0  0  0  0  0  0  0
   -2.8212    1.9129    2.3550 F   0  0  0  0  0  0  0  0  0  0  0  0
   -2.4871    3.5163    0.7444 F   0  0  0  0  0  0  0  0  0  0  0  0
  1  2  1  0  0  0  0
  2  3  1  0  0  0  0
  4  9  1  0  0  0  0
  4  1  2  0  0  0  0
  5  4  1  0  0  0  0
  6  5  2  0  0  0  0
  6  7  1  0  0  0  0
  7  8  2  0  0  0  0
  8  1  1  0  0  0  0
  8 13  1  0  0  0  0
 10  5  1  0  0  0  0
 11  6  1  0  0  0  0
 12  7  1  0  0  0  0
 14 16  1  0  0  0  0
 14 17  1  0  0  0  0
 14 15  1  0  0  0  0
 18 14  1  0  0  0  0
M  RAD  2   2   2   3   3
M  END
