Coordinates from ORCA-job PhN2+~BF4-_B3LYPG-6-31G_dp-NX-Scan-d89-09-n800
 OpenBabel11261920563D

 18 17  0  0  0  0  0  0  0  0999 V2000
   -1.8665    0.4805    0.0456 C   0  0  0  0  0  0  0  0  0  0  0  0
   -1.6141    0.2429    1.3863 N   0  0  0  0  0  0  0  0  0  0  0  0
   -1.4025   -0.0612    2.4328 N   0  0  0  0  0  0  0  0  0  0  0  0
   -2.3966   -0.6034   -0.6814 C   0  0  0  0  0  0  0  0  0  0  0  0
   -2.6395   -0.4096   -2.0320 C   0  0  0  0  0  0  0  0  0  0  0  0
   -2.3557    0.8305   -2.6221 C   0  0  0  0  0  0  0  0  0  0  0  0
   -1.8287    1.8830   -1.8695 C   0  0  0  0  0  0  0  0  0  0  0  0
   -1.5706    1.7337   -0.5101 C   0  0  0  0  0  0  0  0  0  0  0  0
   -2.6091   -1.5470   -0.1916 H   0  0  0  0  0  0  0  0  0  0  0  0
   -3.0510   -1.2194   -2.6244 H   0  0  0  0  0  0  0  0  0  0  0  0
   -2.5548    0.9745   -3.6796 H   0  0  0  0  0  0  0  0  0  0  0  0
   -1.6247    2.8409   -2.3353 H   0  0  0  0  0  0  0  0  0  0  0  0
   -1.1954    2.5457    0.1044 H   0  0  0  0  0  0  0  0  0  0  0  0
   -1.8407    3.2386    2.3014 B   0  0  0  0  0  0  0  0  0  0  0  0
   -1.9547    3.9314    3.4783 F   0  0  0  0  0  0  0  0  0  0  0  0
   -0.6339    2.4603    2.2626 F   0  0  0  0  0  0  0  0  0  0  0  0
   -2.9024    2.3018    2.1321 F   0  0  0  0  0  0  0  0  0  0  0  0
   -1.8131    4.0899    1.1774 F   0  0  0  0  0  0  0  0  0  0  0  0
  1  2  1  0  0  0  0
  2  3  1  0  0  0  0
  4  9  1  0  0  0  0
  4  1  2  0  0  0  0
  5  4  1  0  0  0  0
  6  5  2  0  0  0  0
  6  7  1  0  0  0  0
  7  8  2  0  0  0  0
  8  1  1  0  0  0  0
  8 13  1  0  0  0  0
 10  5  1  0  0  0  0
 11  6  1  0  0  0  0
 12  7  1  0  0  0  0
 14 15  1  0  0  0  0
 16 14  1  0  0  0  0
 17 14  1  0  0  0  0
 18 14  1  0  0  0  0
M  RAD  2   2   2   3   3
M  END
