Coordinates from ORCA-job PhN2+~BF4-_B3LYPG-6-31G_dp-NX-Scan-d89-09-n800
 OpenBabel11261920563D

 18 17  0  0  0  0  0  0  0  0999 V2000
   -1.2246   -0.6380    0.1335 C   0  0  0  0  0  0  0  0  0  0  0  0
   -0.7456   -1.7245    0.7761 N   0  0  0  0  0  0  0  0  0  0  0  0
   -0.3412   -2.6129    1.3322 N   0  0  0  0  0  0  0  0  0  0  0  0
   -2.4483   -0.7574   -0.5741 C   0  0  0  0  0  0  0  0  0  0  0  0
   -2.9537    0.3842   -1.1581 C   0  0  0  0  0  0  0  0  0  0  0  0
   -2.2827    1.6144   -1.0181 C   0  0  0  0  0  0  0  0  0  0  0  0
   -1.0452    1.6980   -0.3405 C   0  0  0  0  0  0  0  0  0  0  0  0
   -0.5009    0.5822    0.2458 C   0  0  0  0  0  0  0  0  0  0  0  0
   -2.9551   -1.7143   -0.6319 H   0  0  0  0  0  0  0  0  0  0  0  0
   -3.8950    0.3413   -1.6942 H   0  0  0  0  0  0  0  0  0  0  0  0
   -2.7039    2.5247   -1.4350 H   0  0  0  0  0  0  0  0  0  0  0  0
   -0.6025    2.6789   -0.2053 H   0  0  0  0  0  0  0  0  0  0  0  0
    0.4244    0.6163    0.8095 H   0  0  0  0  0  0  0  0  0  0  0  0
   -2.9253    4.1781    0.5200 B   0  0  0  0  0  0  0  0  0  0  0  0
   -3.6078    5.0382    1.3431 F   0  0  0  0  0  0  0  0  0  0  0  0
   -3.2800    4.3452   -0.8405 F   0  0  0  0  0  0  0  0  0  0  0  0
   -1.5247    4.3394    0.6417 F   0  0  0  0  0  0  0  0  0  0  0  0
   -3.2419    2.8193    0.8709 F   0  0  0  0  0  0  0  0  0  0  0  0
  1  8  1  0  0  0  0
  1  2  1  0  0  0  0
  2  3  1  0  0  0  0
  4  1  2  0  0  0  0
  5  6  2  0  0  0  0
  5  4  1  0  0  0  0
  6  7  1  0  0  0  0
  7 12  1  0  0  0  0
  7  8  2  0  0  0  0
  8 13  1  0  0  0  0
  9  4  1  0  0  0  0
 10  5  1  0  0  0  0
 11  6  1  0  0  0  0
 14 17  1  0  0  0  0
 14 18  1  0  0  0  0
 14 15  1  0  0  0  0
 16 14  1  0  0  0  0
M  RAD  2   2   2   3   3
M  END
