Coordinates from ORCA-job PhN2+~BF4-_B3LYPG-6-31G_dp-NX-Scan-d89-09-n800
 OpenBabel11261920563D

 18 17  0  0  0  0  0  0  0  0999 V2000
   -1.7312    0.3319    0.1052 C   0  0  0  0  0  0  0  0  0  0  0  0
   -1.3854   -0.0629    1.3795 N   0  0  0  0  0  0  0  0  0  0  0  0
   -1.0851   -0.5010    2.3580 N   0  0  0  0  0  0  0  0  0  0  0  0
   -2.5175   -0.5696   -0.6454 C   0  0  0  0  0  0  0  0  0  0  0  0
   -2.8298   -0.2046   -1.9415 C   0  0  0  0  0  0  0  0  0  0  0  0
   -2.3673    1.0191   -2.4579 C   0  0  0  0  0  0  0  0  0  0  0  0
   -1.5964    1.8868   -1.6862 C   0  0  0  0  0  0  0  0  0  0  0  0
   -1.2637    1.5660   -0.3721 C   0  0  0  0  0  0  0  0  0  0  0  0
   -2.8594   -1.5018   -0.2108 H   0  0  0  0  0  0  0  0  0  0  0  0
   -3.4348   -0.8643   -2.5539 H   0  0  0  0  0  0  0  0  0  0  0  0
   -2.6261    1.2946   -3.4753 H   0  0  0  0  0  0  0  0  0  0  0  0
   -1.2708    2.8393   -2.0877 H   0  0  0  0  0  0  0  0  0  0  0  0
   -0.6986    2.2287    0.2804 H   0  0  0  0  0  0  0  0  0  0  0  0
   -2.0535    3.2834    2.0382 B   0  0  0  0  0  0  0  0  0  0  0  0
   -2.4526    4.2241    2.9554 F   0  0  0  0  0  0  0  0  0  0  0  0
   -0.6384    3.3006    1.8495 F   0  0  0  0  0  0  0  0  0  0  0  0
   -2.3859    1.9550    2.4602 F   0  0  0  0  0  0  0  0  0  0  0  0
   -2.6575    3.4880    0.7795 F   0  0  0  0  0  0  0  0  0  0  0  0
  1  2  1  0  0  0  0
  2  3  1  0  0  0  0
  4  9  1  0  0  0  0
  4  1  2  0  0  0  0
  5  4  1  0  0  0  0
  6  5  2  0  0  0  0
  6  7  1  0  0  0  0
  7  8  2  0  0  0  0
  8  1  1  0  0  0  0
  8 13  1  0  0  0  0
 10  5  1  0  0  0  0
 11  6  1  0  0  0  0
 12  7  1  0  0  0  0
 14 17  1  0  0  0  0
 14 15  1  0  0  0  0
 16 14  1  0  0  0  0
 18 14  1  0  0  0  0
M  RAD  2   2   2   3   3
M  END
