Coordinates from ORCA-job PhN2+~BF4-_B3LYPG-6-31G_dp-NX-Scan-d89-09-n800
 OpenBabel11261920573D

 18 17  0  0  0  0  0  0  0  0999 V2000
   -1.9565    0.4507    0.0158 C   0  0  0  0  0  0  0  0  0  0  0  0
   -1.7688    0.2773    1.3771 N   0  0  0  0  0  0  0  0  0  0  0  0
   -1.5529    0.3420    2.4683 N   0  0  0  0  0  0  0  0  0  0  0  0
   -2.3741   -0.6637   -0.7299 C   0  0  0  0  0  0  0  0  0  0  0  0
   -2.5642   -0.4925   -2.0936 C   0  0  0  0  0  0  0  0  0  0  0  0
   -2.3408    0.7623   -2.6751 C   0  0  0  0  0  0  0  0  0  0  0  0
   -1.9232    1.8514   -1.9039 C   0  0  0  0  0  0  0  0  0  0  0  0
   -1.7187    1.7240   -0.5337 C   0  0  0  0  0  0  0  0  0  0  0  0
   -2.5431   -1.6182   -0.2441 H   0  0  0  0  0  0  0  0  0  0  0  0
   -2.8883   -1.3301   -2.7012 H   0  0  0  0  0  0  0  0  0  0  0  0
   -2.4984    0.8913   -3.7416 H   0  0  0  0  0  0  0  0  0  0  0  0
   -1.7590    2.8181   -2.3678 H   0  0  0  0  0  0  0  0  0  0  0  0
   -1.4074    2.5591    0.0845 H   0  0  0  0  0  0  0  0  0  0  0  0
   -1.7271    3.2705    2.3930 B   0  0  0  0  0  0  0  0  0  0  0  0
   -1.8058    3.7024    3.6867 F   0  0  0  0  0  0  0  0  0  0  0  0
   -0.5818    2.3941    2.2513 F   0  0  0  0  0  0  0  0  0  0  0  0
   -2.8723    2.4966    2.0518 F   0  0  0  0  0  0  0  0  0  0  0  0
   -1.5715    4.2780    1.4374 F   0  0  0  0  0  0  0  0  0  0  0  0
  1  2  1  0  0  0  0
  2  3  1  0  0  0  0
  4  9  1  0  0  0  0
  4  1  2  0  0  0  0
  5  4  1  0  0  0  0
  6  5  2  0  0  0  0
  6  7  1  0  0  0  0
  7  8  2  0  0  0  0
  8  1  1  0  0  0  0
  8 13  1  0  0  0  0
 10  5  1  0  0  0  0
 11  6  1  0  0  0  0
 12  7  1  0  0  0  0
 14 15  1  0  0  0  0
 16 14  1  0  0  0  0
 17 14  1  0  0  0  0
 18 14  1  0  0  0  0
M  RAD  2   2   2   3   3
M  END
