Coordinates from ORCA-job PhN2+~BF4-_B3LYPG-6-31G_dp-NX-Scan-d89-09-n800
 OpenBabel11261920573D

 18 17  0  0  0  0  0  0  0  0999 V2000
   -1.8797    0.5693    0.0159 C   0  0  0  0  0  0  0  0  0  0  0  0
   -1.6496    0.4651    1.3815 N   0  0  0  0  0  0  0  0  0  0  0  0
   -1.4548    0.2185    2.4476 N   0  0  0  0  0  0  0  0  0  0  0  0
   -2.4771   -0.5456   -0.5981 C   0  0  0  0  0  0  0  0  0  0  0  0
   -2.6933   -0.4791   -1.9671 C   0  0  0  0  0  0  0  0  0  0  0  0
   -2.3129    0.6647   -2.6813 C   0  0  0  0  0  0  0  0  0  0  0  0
   -1.7150    1.7524   -2.0371 C   0  0  0  0  0  0  0  0  0  0  0  0
   -1.4908    1.7314   -0.6650 C   0  0  0  0  0  0  0  0  0  0  0  0
   -2.7628   -1.4139   -0.0151 H   0  0  0  0  0  0  0  0  0  0  0  0
   -3.1583   -1.3161   -2.4768 H   0  0  0  0  0  0  0  0  0  0  0  0
   -2.4888    0.7063   -3.7519 H   0  0  0  0  0  0  0  0  0  0  0  0
   -1.4291    2.6320   -2.6038 H   0  0  0  0  0  0  0  0  0  0  0  0
   -1.0420    2.5417   -0.0984 H   0  0  0  0  0  0  0  0  0  0  0  0
   -1.8712    3.2760    2.3936 B   0  0  0  0  0  0  0  0  0  0  0  0
   -1.8470    2.7202    3.6710 F   0  0  0  0  0  0  0  0  0  0  0  0
   -0.6304    2.9380    1.7377 F   0  0  0  0  0  0  0  0  0  0  0  0
   -2.8902    2.6178    1.6303 F   0  0  0  0  0  0  0  0  0  0  0  0
   -2.0609    4.6345    2.3919 F   0  0  0  0  0  0  0  0  0  0  0  0
  1  2  1  0  0  0  0
  2  3  1  0  0  0  0
  4  9  1  0  0  0  0
  4  1  1  0  0  0  0
  5  4  2  0  0  0  0
  6  7  2  0  0  0  0
  6  5  1  0  0  0  0
  7  8  1  0  0  0  0
  8 13  1  0  0  0  0
  8  1  2  0  0  0  0
 10  5  1  0  0  0  0
 11  6  1  0  0  0  0
 12  7  1  0  0  0  0
 14 15  1  0  0  0  0
 16 14  1  0  0  0  0
 17 14  1  0  0  0  0
 18 14  1  0  0  0  0
M  RAD  2   2   2   3   3
M  END
