Coordinates from ORCA-job PhN2+~BF4-_B3LYPG-6-31G_dp-NX-Scan-d89-09-n800
 OpenBabel11261920573D

 18 17  0  0  0  0  0  0  0  0999 V2000
   -2.0400    0.4214    0.1057 C   0  0  0  0  0  0  0  0  0  0  0  0
   -2.0445    0.2420    1.4961 N   0  0  0  0  0  0  0  0  0  0  0  0
   -1.7218    0.7413    2.4990 N   0  0  0  0  0  0  0  0  0  0  0  0
   -2.6174   -0.6281   -0.6262 C   0  0  0  0  0  0  0  0  0  0  0  0
   -2.6584   -0.5472   -2.0130 C   0  0  0  0  0  0  0  0  0  0  0  0
   -2.1257    0.5744   -2.6554 C   0  0  0  0  0  0  0  0  0  0  0  0
   -1.5533    1.6136   -1.9149 C   0  0  0  0  0  0  0  0  0  0  0  0
   -1.4998    1.5567   -0.5256 C   0  0  0  0  0  0  0  0  0  0  0  0
   -3.0224   -1.4825   -0.0949 H   0  0  0  0  0  0  0  0  0  0  0  0
   -3.1028   -1.3517   -2.5896 H   0  0  0  0  0  0  0  0  0  0  0  0
   -2.1593    0.6411   -3.7390 H   0  0  0  0  0  0  0  0  0  0  0  0
   -1.1473    2.4830   -2.4218 H   0  0  0  0  0  0  0  0  0  0  0  0
   -1.0687    2.3640    0.0481 H   0  0  0  0  0  0  0  0  0  0  0  0
   -1.9245    3.5743    2.2546 B   0  0  0  0  0  0  0  0  0  0  0  0
   -0.9631    2.1536    2.2601 F   0  0  0  0  0  0  0  0  0  0  0  0
   -1.2765    4.2637    1.2778 F   0  0  0  0  0  0  0  0  0  0  0  0
   -3.1321    3.0614    1.9037 F   0  0  0  0  0  0  0  0  0  0  0  0
   -1.7964    4.0323    3.5102 F   0  0  0  0  0  0  0  0  0  0  0  0
  1  2  1  0  0  0  0
  2  3  1  0  0  0  0
  4  9  1  0  0  0  0
  4  1  2  0  0  0  0
  5  4  1  0  0  0  0
  6  5  2  0  0  0  0
  6  7  1  0  0  0  0
  7  8  2  0  0  0  0
  8 13  1  0  0  0  0
  8  1  1  0  0  0  0
 10  5  1  0  0  0  0
 11  6  1  0  0  0  0
 12  7  1  0  0  0  0
 14 18  1  0  0  0  0
 15  3  1  0  0  0  0
 16 14  1  0  0  0  0
 17 14  1  0  0  0  0
M  RAD  2   2   2   3   2
M  END
