Coordinates from ORCA-job PhN2+~BF4-_B3LYPG-6-31G_dp-NX-Scan-d89-09-n800
 OpenBabel11261920563D

 18 17  0  0  0  0  0  0  0  0999 V2000
   -1.3645    0.0809    0.2525 C   0  0  0  0  0  0  0  0  0  0  0  0
   -0.9010   -0.5796    1.3423 N   0  0  0  0  0  0  0  0  0  0  0  0
   -0.5094   -1.1541    2.2211 N   0  0  0  0  0  0  0  0  0  0  0  0
   -2.5948   -0.3428   -0.3033 C   0  0  0  0  0  0  0  0  0  0  0  0
   -3.0600    0.3489   -1.3999 C   0  0  0  0  0  0  0  0  0  0  0  0
   -2.3308    1.4387   -1.9052 C   0  0  0  0  0  0  0  0  0  0  0  0
   -1.1112    1.8274   -1.3487 C   0  0  0  0  0  0  0  0  0  0  0  0
   -0.6130    1.1703   -0.2383 C   0  0  0  0  0  0  0  0  0  0  0  0
   -3.1421   -1.1659    0.1398 H   0  0  0  0  0  0  0  0  0  0  0  0
   -4.0088    0.0742   -1.8455 H   0  0  0  0  0  0  0  0  0  0  0  0
   -2.7341    2.0025   -2.7388 H   0  0  0  0  0  0  0  0  0  0  0  0
   -0.5913    2.6990   -1.7251 H   0  0  0  0  0  0  0  0  0  0  0  0
    0.2888    1.4908    0.2635 H   0  0  0  0  0  0  0  0  0  0  0  0
   -2.6532    3.1849    1.2262 B   0  0  0  0  0  0  0  0  0  0  0  0
   -3.1786    4.1351    2.0788 F   0  0  0  0  0  0  0  0  0  0  0  0
   -1.2282    3.2667    1.1958 F   0  0  0  0  0  0  0  0  0  0  0  0
   -2.9833    1.8664    1.6490 F   0  0  0  0  0  0  0  0  0  0  0  0
   -3.1385    3.3698   -0.0892 F   0  0  0  0  0  0  0  0  0  0  0  0
  1  2  1  0  0  0  0
  2  3  1  0  0  0  0
  4  9  1  0  0  0  0
  4  1  2  0  0  0  0
  5  4  1  0  0  0  0
  6  5  2  0  0  0  0
  6  7  1  0  0  0  0
  7  8  2  0  0  0  0
  8  1  1  0  0  0  0
  8 13  1  0  0  0  0
 10  5  1  0  0  0  0
 11  6  1  0  0  0  0
 12  7  1  0  0  0  0
 14 17  1  0  0  0  0
 14 15  1  0  0  0  0
 16 14  1  0  0  0  0
 18 14  1  0  0  0  0
M  RAD  2   2   2   3   3
M  END
