Coordinates from ORCA-job PhN2+~BF4-_B3LYPG-6-31G_dp-NX-Scan-d89-09-n800
 OpenBabel11261920573D

 18 17  0  0  0  0  0  0  0  0999 V2000
   -2.0278    0.5096    0.0427 C   0  0  0  0  0  0  0  0  0  0  0  0
   -1.9347    0.4249    1.4241 N   0  0  0  0  0  0  0  0  0  0  0  0
   -1.7974    0.5034    2.5392 N   0  0  0  0  0  0  0  0  0  0  0  0
   -2.5348   -0.6185   -0.6250 C   0  0  0  0  0  0  0  0  0  0  0  0
   -2.6310   -0.5686   -2.0085 C   0  0  0  0  0  0  0  0  0  0  0  0
   -2.2187    0.5815   -2.6934 C   0  0  0  0  0  0  0  0  0  0  0  0
   -1.7075    1.6851   -2.0041 C   0  0  0  0  0  0  0  0  0  0  0  0
   -1.6037    1.6755   -0.6160 C   0  0  0  0  0  0  0  0  0  0  0  0
   -2.8435   -1.4925   -0.0623 H   0  0  0  0  0  0  0  0  0  0  0  0
   -3.0240   -1.4209   -2.5522 H   0  0  0  0  0  0  0  0  0  0  0  0
   -2.2981    0.6151   -3.7760 H   0  0  0  0  0  0  0  0  0  0  0  0
   -1.3919    2.5689   -2.5484 H   0  0  0  0  0  0  0  0  0  0  0  0
   -1.2196    2.5197   -0.0497 H   0  0  0  0  0  0  0  0  0  0  0  0
   -1.7417    3.4042    2.3365 B   0  0  0  0  0  0  0  0  0  0  0  0
   -1.2866    2.2393    3.1228 F   0  0  0  0  0  0  0  0  0  0  0  0
   -0.7122    3.6933    1.4273 F   0  0  0  0  0  0  0  0  0  0  0  0
   -2.8705    2.9591    1.6307 F   0  0  0  0  0  0  0  0  0  0  0  0
   -2.0103    4.4338    3.1871 F   0  0  0  0  0  0  0  0  0  0  0  0
  1  2  1  0  0  0  0
  2  3  1  0  0  0  0
  4  9  1  0  0  0  0
  4  1  2  0  0  0  0
  5  4  1  0  0  0  0
  6  5  2  0  0  0  0
  6  7  1  0  0  0  0
  7  8  2  0  0  0  0
  8 13  1  0  0  0  0
  8  1  1  0  0  0  0
 10  5  1  0  0  0  0
 11  6  1  0  0  0  0
 12  7  1  0  0  0  0
 14 15  1  0  0  0  0
 14 18  1  0  0  0  0
 16 14  1  0  0  0  0
 17 14  1  0  0  0  0
M  RAD  2   2   2   3   3
M  END
