Coordinates from ORCA-job PhN2+~BF4-_B3LYPG-6-31G_dp-NX-Scan-d89-09-n800
 OpenBabel11261920573D

 18 17  0  0  0  0  0  0  0  0999 V2000
   -1.8693    0.5661    0.0172 C   0  0  0  0  0  0  0  0  0  0  0  0
   -1.6334    0.4554    1.3812 N   0  0  0  0  0  0  0  0  0  0  0  0
   -1.4343    0.2016    2.4445 N   0  0  0  0  0  0  0  0  0  0  0  0
   -2.4707   -0.5457   -0.5984 C   0  0  0  0  0  0  0  0  0  0  0  0
   -2.6957   -0.4724   -1.9657 C   0  0  0  0  0  0  0  0  0  0  0  0
   -2.3207    0.6754   -2.6764 C   0  0  0  0  0  0  0  0  0  0  0  0
   -1.7184    1.7599   -2.0308 C   0  0  0  0  0  0  0  0  0  0  0  0
   -1.4847    1.7314   -0.6605 C   0  0  0  0  0  0  0  0  0  0  0  0
   -2.7528   -1.4168   -0.0179 H   0  0  0  0  0  0  0  0  0  0  0  0
   -3.1637   -1.3069   -2.4765 H   0  0  0  0  0  0  0  0  0  0  0  0
   -2.5046    0.7227   -3.7454 H   0  0  0  0  0  0  0  0  0  0  0  0
   -1.4371    2.6426   -2.5947 H   0  0  0  0  0  0  0  0  0  0  0  0
   -1.0314    2.5379   -0.0925 H   0  0  0  0  0  0  0  0  0  0  0  0
   -1.8793    3.2716    2.3874 B   0  0  0  0  0  0  0  0  0  0  0  0
   -1.8861    2.7746    3.6863 F   0  0  0  0  0  0  0  0  0  0  0  0
   -0.6312    2.8875    1.7671 F   0  0  0  0  0  0  0  0  0  0  0  0
   -2.8939    2.5963    1.6324 F   0  0  0  0  0  0  0  0  0  0  0  0
   -2.0464    4.6321    2.3177 F   0  0  0  0  0  0  0  0  0  0  0  0
  1  2  1  0  0  0  0
  2  3  1  0  0  0  0
  4  9  1  0  0  0  0
  4  1  1  0  0  0  0
  5  4  2  0  0  0  0
  6  7  2  0  0  0  0
  6  5  1  0  0  0  0
  7  8  1  0  0  0  0
  8 13  1  0  0  0  0
  8  1  2  0  0  0  0
 10  5  1  0  0  0  0
 11  6  1  0  0  0  0
 12  7  1  0  0  0  0
 14 15  1  0  0  0  0
 16 14  1  0  0  0  0
 17 14  1  0  0  0  0
 18 14  1  0  0  0  0
M  RAD  2   2   2   3   3
M  END
