Coordinates from ORCA-job PhN2+~BF4-_B3LYPG-6-31G_dp-NX-Scan-d89-09-n800
 OpenBabel11261920563D

 18 17  0  0  0  0  0  0  0  0999 V2000
   -1.2606   -0.1927    0.2618 C   0  0  0  0  0  0  0  0  0  0  0  0
   -0.7402   -1.0871    1.1328 N   0  0  0  0  0  0  0  0  0  0  0  0
   -0.2994   -1.8502    1.8303 N   0  0  0  0  0  0  0  0  0  0  0  0
   -2.5610   -0.4349   -0.2521 C   0  0  0  0  0  0  0  0  0  0  0  0
   -3.0591    0.4704   -1.1592 C   0  0  0  0  0  0  0  0  0  0  0  0
   -2.3018    1.5983   -1.5301 C   0  0  0  0  0  0  0  0  0  0  0  0
   -1.0098    1.8100   -1.0190 C   0  0  0  0  0  0  0  0  0  0  0  0
   -0.4783    0.9309   -0.1015 C   0  0  0  0  0  0  0  0  0  0  0  0
   -3.1244   -1.3026    0.0712 H   0  0  0  0  0  0  0  0  0  0  0  0
   -4.0567    0.3379   -1.5602 H   0  0  0  0  0  0  0  0  0  0  0  0
   -2.7090    2.3000   -2.2445 H   0  0  0  0  0  0  0  0  0  0  0  0
   -0.4682    2.7078   -1.2808 H   0  0  0  0  0  0  0  0  0  0  0  0
    0.4969    1.0858    0.3442 H   0  0  0  0  0  0  0  0  0  0  0  0
   -2.8581    3.4883    0.8861 B   0  0  0  0  0  0  0  0  0  0  0  0
   -3.5407    4.3945    1.6695 F   0  0  0  0  0  0  0  0  0  0  0  0
   -1.6444    4.0256    0.4070 F   0  0  0  0  0  0  0  0  0  0  0  0
   -2.5795    2.2866    1.5795 F   0  0  0  0  0  0  0  0  0  0  0  0
   -3.6595    3.1447   -0.2599 F   0  0  0  0  0  0  0  0  0  0  0  0
  1  2  1  0  0  0  0
  2  3  1  0  0  0  0
  4  9  1  0  0  0  0
  4  1  2  0  0  0  0
  5  4  1  0  0  0  0
  6  5  2  0  0  0  0
  6  7  1  0  0  0  0
  7  8  2  0  0  0  0
  8  1  1  0  0  0  0
  8 13  1  0  0  0  0
 10  5  1  0  0  0  0
 11  6  1  0  0  0  0
 12  7  1  0  0  0  0
 14 17  1  0  0  0  0
 14 15  1  0  0  0  0
 16 14  1  0  0  0  0
 18 14  1  0  0  0  0
M  RAD  2   2   2   3   3
M  END
