Coordinates from ORCA-job PhN2+~BF4-_B3LYPG-6-31G_dp-NX-Scan-d89-09-n800
 OpenBabel11261920563D

 18 17  0  0  0  0  0  0  0  0999 V2000
   -1.7505    0.2612    0.1309 C   0  0  0  0  0  0  0  0  0  0  0  0
   -1.4205   -0.2056    1.3835 N   0  0  0  0  0  0  0  0  0  0  0  0
   -1.1438   -0.7374    2.3236 N   0  0  0  0  0  0  0  0  0  0  0  0
   -2.5324   -0.6053   -0.6694 C   0  0  0  0  0  0  0  0  0  0  0  0
   -2.8259   -0.1856   -1.9518 C   0  0  0  0  0  0  0  0  0  0  0  0
   -2.3504    1.0572   -2.4112 C   0  0  0  0  0  0  0  0  0  0  0  0
   -1.5881    1.8878   -1.5938 C   0  0  0  0  0  0  0  0  0  0  0  0
   -1.2758    1.5130   -0.2881 C   0  0  0  0  0  0  0  0  0  0  0  0
   -2.8819   -1.5541   -0.2794 H   0  0  0  0  0  0  0  0  0  0  0  0
   -3.4255   -0.8165   -2.5989 H   0  0  0  0  0  0  0  0  0  0  0  0
   -2.5941    1.3757   -3.4198 H   0  0  0  0  0  0  0  0  0  0  0  0
   -1.2555    2.8569   -1.9462 H   0  0  0  0  0  0  0  0  0  0  0  0
   -0.7147    2.1623    0.3824 H   0  0  0  0  0  0  0  0  0  0  0  0
   -2.0366    3.3720    1.9664 B   0  0  0  0  0  0  0  0  0  0  0  0
   -2.4854    4.3270    2.8499 F   0  0  0  0  0  0  0  0  0  0  0  0
   -0.6797    3.6046    1.5961 F   0  0  0  0  0  0  0  0  0  0  0  0
   -2.0805    2.0460    2.5151 F   0  0  0  0  0  0  0  0  0  0  0  0
   -2.8125    3.3542    0.7856 F   0  0  0  0  0  0  0  0  0  0  0  0
  1  2  1  0  0  0  0
  2  3  1  0  0  0  0
  4  9  1  0  0  0  0
  4  1  2  0  0  0  0
  5  4  1  0  0  0  0
  6  5  2  0  0  0  0
  6  7  1  0  0  0  0
  7  8  2  0  0  0  0
  8  1  1  0  0  0  0
  8 13  1  0  0  0  0
 10  5  1  0  0  0  0
 11  6  1  0  0  0  0
 12  7  1  0  0  0  0
 14 17  1  0  0  0  0
 14 15  1  0  0  0  0
 16 14  1  0  0  0  0
 18 14  1  0  0  0  0
M  RAD  2   2   2   3   3
M  END
