Coordinates from ORCA-job PhN2+~BF4-_B3LYPG-6-31G_dp-NX-Scan-d89-09-n800
 OpenBabel11261920573D

 18 18  0  0  0  0  0  0  0  0999 V2000
   -2.1969    1.1011   -0.2448 C   0  0  0  0  0  0  0  0  0  0  0  0
   -2.4880    1.5993    1.0559 N   0  0  0  0  0  0  0  0  0  0  0  0
   -1.7520    2.4738    1.5903 N   0  0  0  0  0  0  0  0  0  0  0  0
   -2.8077   -0.1393   -0.4992 C   0  0  0  0  0  0  0  0  0  0  0  0
   -2.6439   -0.7706   -1.7274 C   0  0  0  0  0  0  0  0  0  0  0  0
   -1.8945   -0.1541   -2.7321 C   0  0  0  0  0  0  0  0  0  0  0  0
   -1.3116    1.0934   -2.4998 C   0  0  0  0  0  0  0  0  0  0  0  0
   -1.4476    1.7244   -1.2648 C   0  0  0  0  0  0  0  0  0  0  0  0
   -3.4014   -0.5851    0.2918 H   0  0  0  0  0  0  0  0  0  0  0  0
   -3.1088   -1.7348   -1.9049 H   0  0  0  0  0  0  0  0  0  0  0  0
   -1.7716   -0.6387   -3.6960 H   0  0  0  0  0  0  0  0  0  0  0  0
   -0.7430    1.5820   -3.2851 H   0  0  0  0  0  0  0  0  0  0  0  0
   -0.9943    2.6980   -1.1301 H   0  0  0  0  0  0  0  0  0  0  0  0
   -2.0762    3.0660    3.2345 B   0  0  0  0  0  0  0  0  0  0  0  0
   -0.9287    2.8646    1.1317 F   0  0  0  0  0  0  0  0  0  0  0  0
   -2.0042    4.4109    2.9953 F   0  0  0  0  0  0  0  0  0  0  0  0
   -0.9982    2.5511    3.8958 F   0  0  0  0  0  0  0  0  0  0  0  0
   -3.2852    2.5712    3.5640 F   0  0  0  0  0  0  0  0  0  0  0  0
  1  2  1  0  0  0  0
  2  3  1  0  0  0  0
  3 14  1  0  0  0  0
  4  1  1  0  0  0  0
  4  9  1  0  0  0  0
  5  4  2  0  0  0  0
  6  7  2  0  0  0  0
  6  5  1  0  0  0  0
  7  8  1  0  0  0  0
  8 13  1  0  0  0  0
  8  1  2  0  0  0  0
 10  5  1  0  0  0  0
 11  6  1  0  0  0  0
 12  7  1  0  0  0  0
 14 18  1  0  0  0  0
 14 17  1  0  0  0  0
 15  3  1  0  0  0  0
 16 14  1  0  0  0  0
M  RAD  1   2   2
M  END
