Coordinates from ORCA-job PhN2+~BF4-_B3LYPG-6-31G_dp-NX-Scan-d89-09-n800
 OpenBabel11261920573D

 18 17  0  0  0  0  0  0  0  0999 V2000
   -1.8435    0.5359    0.0270 C   0  0  0  0  0  0  0  0  0  0  0  0
   -1.5824    0.3791    1.3812 N   0  0  0  0  0  0  0  0  0  0  0  0
   -1.3541    0.0962    2.4304 N   0  0  0  0  0  0  0  0  0  0  0  0
   -2.4616   -0.5520   -0.6139 C   0  0  0  0  0  0  0  0  0  0  0  0
   -2.7084   -0.4336   -1.9744 C   0  0  0  0  0  0  0  0  0  0  0  0
   -2.3393    0.7346   -2.6539 C   0  0  0  0  0  0  0  0  0  0  0  0
   -1.7218    1.7955   -1.9834 C   0  0  0  0  0  0  0  0  0  0  0  0
   -1.4659    1.7216   -0.6193 C   0  0  0  0  0  0  0  0  0  0  0  0
   -2.7392   -1.4398   -0.0571 H   0  0  0  0  0  0  0  0  0  0  0  0
   -3.1894   -1.2489   -2.5038 H   0  0  0  0  0  0  0  0  0  0  0  0
   -2.5405    0.8174   -3.7175 H   0  0  0  0  0  0  0  0  0  0  0  0
   -1.4473    2.6959   -2.5221 H   0  0  0  0  0  0  0  0  0  0  0  0
   -1.0028    2.5093   -0.0339 H   0  0  0  0  0  0  0  0  0  0  0  0
   -1.9065    3.2617    2.3530 B   0  0  0  0  0  0  0  0  0  0  0  0
   -1.9450    3.1532    3.7279 F   0  0  0  0  0  0  0  0  0  0  0  0
   -0.6441    2.7257    1.8757 F   0  0  0  0  0  0  0  0  0  0  0  0
   -2.9079    2.4118    1.7731 F   0  0  0  0  0  0  0  0  0  0  0  0
   -2.0542    4.5494    1.8860 F   0  0  0  0  0  0  0  0  0  0  0  0
  1  2  1  0  0  0  0
  2  3  1  0  0  0  0
  4  9  1  0  0  0  0
  4  1  1  0  0  0  0
  5  4  2  0  0  0  0
  6  7  2  0  0  0  0
  6  5  1  0  0  0  0
  7  8  1  0  0  0  0
  8 13  1  0  0  0  0
  8  1  2  0  0  0  0
 10  5  1  0  0  0  0
 11  6  1  0  0  0  0
 12  7  1  0  0  0  0
 14 15  1  0  0  0  0
 16 14  1  0  0  0  0
 17 14  1  0  0  0  0
 18 14  1  0  0  0  0
M  RAD  2   2   2   3   3
M  END
