Coordinates from ORCA-job PhN2+~BF4-_B3LYPG-6-31G_dp-NX-Scan-d89-09-n800
 OpenBabel11261920563D

 18 17  0  0  0  0  0  0  0  0999 V2000
   -1.2580   -0.2042    0.2596 C   0  0  0  0  0  0  0  0  0  0  0  0
   -0.7356   -1.1037    1.1243 N   0  0  0  0  0  0  0  0  0  0  0  0
   -0.2919   -1.8705    1.8160 N   0  0  0  0  0  0  0  0  0  0  0  0
   -2.5580   -0.4455   -0.2560 C   0  0  0  0  0  0  0  0  0  0  0  0
   -3.0584    0.4655   -1.1563 C   0  0  0  0  0  0  0  0  0  0  0  0
   -2.3038    1.5980   -1.5191 C   0  0  0  0  0  0  0  0  0  0  0  0
   -1.0125    1.8091   -1.0058 C   0  0  0  0  0  0  0  0  0  0  0  0
   -0.4787    0.9245   -0.0949 C   0  0  0  0  0  0  0  0  0  0  0  0
   -3.1192   -1.3172    0.0604 H   0  0  0  0  0  0  0  0  0  0  0  0
   -4.0556    0.3334   -1.5585 H   0  0  0  0  0  0  0  0  0  0  0  0
   -2.7125    2.3042   -2.2280 H   0  0  0  0  0  0  0  0  0  0  0  0
   -0.4754    2.7124   -1.2578 H   0  0  0  0  0  0  0  0  0  0  0  0
    0.4960    1.0786    0.3522 H   0  0  0  0  0  0  0  0  0  0  0  0
   -2.8596    3.5060    0.8777 B   0  0  0  0  0  0  0  0  0  0  0  0
   -3.5425    4.4146    1.6583 F   0  0  0  0  0  0  0  0  0  0  0  0
   -1.6533    4.0481    0.3844 F   0  0  0  0  0  0  0  0  0  0  0  0
   -2.5679    2.3125    1.5786 F   0  0  0  0  0  0  0  0  0  0  0  0
   -3.6669    3.1477   -0.2600 F   0  0  0  0  0  0  0  0  0  0  0  0
  1  2  1  0  0  0  0
  2  3  1  0  0  0  0
  4  9  1  0  0  0  0
  4  1  2  0  0  0  0
  5  4  1  0  0  0  0
  6  5  2  0  0  0  0
  6  7  1  0  0  0  0
  7  8  2  0  0  0  0
  8  1  1  0  0  0  0
  8 13  1  0  0  0  0
 10  5  1  0  0  0  0
 11  6  1  0  0  0  0
 12  7  1  0  0  0  0
 14 17  1  0  0  0  0
 14 15  1  0  0  0  0
 16 14  1  0  0  0  0
 18 14  1  0  0  0  0
M  RAD  2   2   2   3   3
M  END
