Coordinates from ORCA-job PhN2+~BF4-_B3LYPG-6-31G_dp-NX-Scan-d89-09-n800
 OpenBabel11261920573D

 18 17  0  0  0  0  0  0  0  0999 V2000
   -2.3354    0.3565   -0.0233 C   0  0  0  0  0  0  0  0  0  0  0  0
   -2.6746    0.1753    1.3505 N   0  0  0  0  0  0  0  0  0  0  0  0
   -2.2144    0.8321    2.2935 N   0  0  0  0  0  0  0  0  0  0  0  0
   -2.5350   -0.7996   -0.7957 C   0  0  0  0  0  0  0  0  0  0  0  0
   -2.2847   -0.7886   -2.1645 C   0  0  0  0  0  0  0  0  0  0  0  0
   -1.8737    0.3930   -2.7854 C   0  0  0  0  0  0  0  0  0  0  0  0
   -1.7125    1.5561   -2.0287 C   0  0  0  0  0  0  0  0  0  0  0  0
   -1.9281    1.5497   -0.6518 C   0  0  0  0  0  0  0  0  0  0  0  0
   -2.8832   -1.6962   -0.2940 H   0  0  0  0  0  0  0  0  0  0  0  0
   -2.4266   -1.6936   -2.7474 H   0  0  0  0  0  0  0  0  0  0  0  0
   -1.6884    0.4111   -3.8553 H   0  0  0  0  0  0  0  0  0  0  0  0
   -1.4078    2.4798   -2.5117 H   0  0  0  0  0  0  0  0  0  0  0  0
   -1.8012    2.4648   -0.0903 H   0  0  0  0  0  0  0  0  0  0  0  0
   -1.6754    4.1812    2.7737 B   0  0  0  0  0  0  0  0  0  0  0  0
   -1.3806    1.7002    1.9939 F   0  0  0  0  0  0  0  0  0  0  0  0
   -1.5854    4.4518    1.4803 F   0  0  0  0  0  0  0  0  0  0  0  0
   -2.8469    3.8907    3.3003 F   0  0  0  0  0  0  0  0  0  0  0  0
   -0.6000    4.2490    3.5312 F   0  0  0  0  0  0  0  0  0  0  0  0
  1  2  1  0  0  0  0
  2  3  2  0  0  0  0
  4  9  1  0  0  0  0
  4  1  2  0  0  0  0
  5  4  1  0  0  0  0
  6  5  2  0  0  0  0
  6  7  1  0  0  0  0
  7  8  2  0  0  0  0
  8 13  1  0  0  0  0
  8  1  1  0  0  0  0
 10  5  1  0  0  0  0
 11  6  1  0  0  0  0
 12  7  1  0  0  0  0
 14 17  1  0  0  0  0
 14 18  1  0  0  0  0
 15  3  1  0  0  0  0
 16 14  1  0  0  0  0
M  END
