Coordinates from ORCA-job PhN2+~BF4-_B3LYPG-6-31G_dp-NX-Scan-d89-09-n800
 OpenBabel11261920563D

 18 17  0  0  0  0  0  0  0  0999 V2000
   -1.7316    0.3301    0.1070 C   0  0  0  0  0  0  0  0  0  0  0  0
   -1.3843   -0.0715    1.3786 N   0  0  0  0  0  0  0  0  0  0  0  0
   -1.0828   -0.5202    2.3520 N   0  0  0  0  0  0  0  0  0  0  0  0
   -2.5185   -0.5700   -0.6455 C   0  0  0  0  0  0  0  0  0  0  0  0
   -2.8307   -0.2032   -1.9410 C   0  0  0  0  0  0  0  0  0  0  0  0
   -2.3669    1.0210   -2.4556 C   0  0  0  0  0  0  0  0  0  0  0  0
   -1.5961    1.8869   -1.6822 C   0  0  0  0  0  0  0  0  0  0  0  0
   -1.2638    1.5645   -0.3682 C   0  0  0  0  0  0  0  0  0  0  0  0
   -2.8605   -1.5027   -0.2123 H   0  0  0  0  0  0  0  0  0  0  0  0
   -3.4360   -0.8618   -2.5542 H   0  0  0  0  0  0  0  0  0  0  0  0
   -2.6252    1.2981   -3.4727 H   0  0  0  0  0  0  0  0  0  0  0  0
   -1.2704    2.8401   -2.0817 H   0  0  0  0  0  0  0  0  0  0  0  0
   -0.7002    2.2291    0.2837 H   0  0  0  0  0  0  0  0  0  0  0  0
   -2.0535    3.2872    2.0357 B   0  0  0  0  0  0  0  0  0  0  0  0
   -2.4594    4.2344    2.9438 F   0  0  0  0  0  0  0  0  0  0  0  0
   -0.6387    3.3125    1.8466 F   0  0  0  0  0  0  0  0  0  0  0  0
   -2.3761    1.9593    2.4659 F   0  0  0  0  0  0  0  0  0  0  0  0
   -2.6592    3.4793    0.7750 F   0  0  0  0  0  0  0  0  0  0  0  0
  1  2  1  0  0  0  0
  2  3  1  0  0  0  0
  4  9  1  0  0  0  0
  4  1  2  0  0  0  0
  5  4  1  0  0  0  0
  6  5  2  0  0  0  0
  6  7  1  0  0  0  0
  7  8  2  0  0  0  0
  8  1  1  0  0  0  0
  8 13  1  0  0  0  0
 10  5  1  0  0  0  0
 11  6  1  0  0  0  0
 12  7  1  0  0  0  0
 14 17  1  0  0  0  0
 14 15  1  0  0  0  0
 16 14  1  0  0  0  0
 18 14  1  0  0  0  0
M  RAD  2   2   2   3   3
M  END
