Coordinates from ORCA-job PhN2+~BF4-_B3LYPG-6-31G_dp-NX-Scan-d89-09-n800
 OpenBabel11261920573D

 18 17  0  0  0  0  0  0  0  0999 V2000
   -1.9158    0.5734    0.0143 C   0  0  0  0  0  0  0  0  0  0  0  0
   -1.7262    0.5007    1.3878 N   0  0  0  0  0  0  0  0  0  0  0  0
   -1.5740    0.3254    2.4766 N   0  0  0  0  0  0  0  0  0  0  0  0
   -2.4718   -0.5628   -0.5998 C   0  0  0  0  0  0  0  0  0  0  0  0
   -2.6630   -0.5169   -1.9732 C   0  0  0  0  0  0  0  0  0  0  0  0
   -2.2966    0.6285   -2.6926 C   0  0  0  0  0  0  0  0  0  0  0  0
   -1.7345    1.7358   -2.0499 C   0  0  0  0  0  0  0  0  0  0  0  0
   -1.5358    1.7350   -0.6731 C   0  0  0  0  0  0  0  0  0  0  0  0
   -2.7473   -1.4313   -0.0121 H   0  0  0  0  0  0  0  0  0  0  0  0
   -3.0973   -1.3704   -2.4825 H   0  0  0  0  0  0  0  0  0  0  0  0
   -2.4541    0.6548   -3.7665 H   0  0  0  0  0  0  0  0  0  0  0  0
   -1.4563    2.6145   -2.6216 H   0  0  0  0  0  0  0  0  0  0  0  0
   -1.1106    2.5610   -0.1107 H   0  0  0  0  0  0  0  0  0  0  0  0
   -1.8221    3.2932    2.3968 B   0  0  0  0  0  0  0  0  0  0  0  0
   -1.7801    2.4936    3.5585 F   0  0  0  0  0  0  0  0  0  0  0  0
   -0.5995    3.0753    1.6832 F   0  0  0  0  0  0  0  0  0  0  0  0
   -2.8615    2.7832    1.5631 F   0  0  0  0  0  0  0  0  0  0  0  0
   -2.0075    4.6202    2.6767 F   0  0  0  0  0  0  0  0  0  0  0  0
  1  2  1  0  0  0  0
  2  3  1  0  0  0  0
  4  9  1  0  0  0  0
  4  1  1  0  0  0  0
  5  4  2  0  0  0  0
  6  7  2  0  0  0  0
  6  5  1  0  0  0  0
  7  8  1  0  0  0  0
  8 13  1  0  0  0  0
  8  1  2  0  0  0  0
 10  5  1  0  0  0  0
 11  6  1  0  0  0  0
 12  7  1  0  0  0  0
 14 18  1  0  0  0  0
 14 15  1  0  0  0  0
 16 14  1  0  0  0  0
 17 14  1  0  0  0  0
M  RAD  2   2   2   3   3
M  END
