Coordinates from ORCA-job PhN2+~BF4-_B3LYPG-6-31G_dp-NX-Scan-d89-09-n800
 OpenBabel11261920563D

 18 17  0  0  0  0  0  0  0  0999 V2000
   -1.2586   -0.2434    0.2459 C   0  0  0  0  0  0  0  0  0  0  0  0
   -0.7460   -1.1516    1.1079 N   0  0  0  0  0  0  0  0  0  0  0  0
   -0.3130   -1.9199    1.8045 N   0  0  0  0  0  0  0  0  0  0  0  0
   -2.5474   -0.4859   -0.2980 C   0  0  0  0  0  0  0  0  0  0  0  0
   -3.0472    0.4490   -1.1741 C   0  0  0  0  0  0  0  0  0  0  0  0
   -2.3019    1.6024   -1.4882 C   0  0  0  0  0  0  0  0  0  0  0  0
   -1.0162    1.8069   -0.9596 C   0  0  0  0  0  0  0  0  0  0  0  0
   -0.4851    0.9012   -0.0679 C   0  0  0  0  0  0  0  0  0  0  0  0
   -3.1032   -1.3724   -0.0153 H   0  0  0  0  0  0  0  0  0  0  0  0
   -4.0388    0.3203   -1.5910 H   0  0  0  0  0  0  0  0  0  0  0  0
   -2.7167    2.3361   -2.1652 H   0  0  0  0  0  0  0  0  0  0  0  0
   -0.4940    2.7295   -1.1684 H   0  0  0  0  0  0  0  0  0  0  0  0
    0.4806    1.0534    0.3990 H   0  0  0  0  0  0  0  0  0  0  0  0
   -2.8540    3.5584    0.8570 B   0  0  0  0  0  0  0  0  0  0  0  0
   -3.5229    4.4757    1.6395 F   0  0  0  0  0  0  0  0  0  0  0  0
   -1.7512    4.1497    0.2007 F   0  0  0  0  0  0  0  0  0  0  0  0
   -2.4001    2.4504    1.6083 F   0  0  0  0  0  0  0  0  0  0  0  0
   -3.7381    3.0534   -0.1602 F   0  0  0  0  0  0  0  0  0  0  0  0
  1  2  1  0  0  0  0
  2  3  1  0  0  0  0
  4  9  1  0  0  0  0
  4  1  2  0  0  0  0
  5  4  1  0  0  0  0
  6  5  2  0  0  0  0
  6  7  1  0  0  0  0
  7  8  2  0  0  0  0
  8  1  1  0  0  0  0
  8 13  1  0  0  0  0
 10  5  1  0  0  0  0
 11  6  1  0  0  0  0
 12  7  1  0  0  0  0
 14 17  1  0  0  0  0
 14 15  1  0  0  0  0
 16 14  1  0  0  0  0
 18 14  1  0  0  0  0
M  RAD  2   2   2   3   3
M  END
