Coordinates from ORCA-job PhN2+~BF4-_B3LYPG-6-31G_dp-NX-Scan-d89-09-n800
 OpenBabel11261920563D

 18 17  0  0  1  0  0  0  0  0999 V2000
   -1.1781   -0.7702    0.1620 C   0  0  0  0  0  0  0  0  0  0  0  0
   -0.6453   -1.9436    0.4327 N   0  0  0  0  0  0  0  0  0  0  0  0
   -0.1835   -2.9620    0.6674 N   0  0  0  0  0  0  0  0  0  0  0  0
   -2.5128   -0.6923   -0.3905 C   0  0  0  0  0  0  0  0  0  0  0  0
   -3.0368    0.5043   -0.7248 C   0  0  0  0  0  0  0  0  0  0  0  0
   -2.3070    1.7827   -0.5263 C   0  0  2  0  0  0  0  0  0  0  0  0
   -0.9412    1.6376    0.0415 C   0  0  0  0  0  0  0  0  0  0  0  0
   -0.4160    0.4420    0.3760 C   0  0  0  0  0  0  0  0  0  0  0  0
   -3.0667   -1.6122   -0.5490 H   0  0  0  0  0  0  0  0  0  0  0  0
   -4.0301    0.5633   -1.1566 H   0  0  0  0  0  0  0  0  0  0  0  0
   -2.3353    2.4261   -1.4091 H   0  0  0  0  0  0  0  0  0  0  0  0
   -0.3757    2.5504    0.1918 H   0  0  0  0  0  0  0  0  0  0  0  0
    0.5839    0.3636    0.7903 H   0  0  0  0  0  0  0  0  0  0  0  0
   -3.0814    4.6011    0.1307 B   0  0  0  0  0  0  0  0  0  0  0  0
   -4.0264    4.9136    1.0081 F   0  0  0  0  0  0  0  0  0  0  0  0
   -3.3936    4.5388   -1.1675 F   0  0  0  0  0  0  0  0  0  0  0  0
   -1.7979    4.7688    0.4590 F   0  0  0  0  0  0  0  0  0  0  0  0
   -3.1101    2.6012    0.4393 F   0  0  0  0  0  0  0  0  0  0  0  0
  1  8  1  0  0  0  0
  1  2  1  0  0  0  0
  2  3  1  0  0  0  0
  4  1  2  0  0  0  0
  5  6  1  0  0  0  0
  5  4  1  0  0  0  0
  6 11  1  6  0  0  0
  6  7  1  0  0  0  0
  6 18  1  0  0  0  0
  7 12  1  0  0  0  0
  7  8  2  0  0  0  0
  8 13  1  0  0  0  0
  9  4  1  0  0  0  0
 10  5  1  0  0  0  0
 14 17  1  0  0  0  0
 14 15  1  0  0  0  0
 16 14  1  0  0  0  0
M  RAD  3   2   2   3   3   5   2
M  END
