Coordinates from ORCA-job PhN2+~BF4-_B3LYPG-6-31G_dp-NX-Scan-d89-09-n800
 OpenBabel11261920563D

 18 17  0  0  0  0  0  0  0  0999 V2000
   -1.7450    0.2323    0.1322 C   0  0  0  0  0  0  0  0  0  0  0  0
   -1.4145   -0.2471    1.3785 N   0  0  0  0  0  0  0  0  0  0  0  0
   -1.1397   -0.7782    2.3199 N   0  0  0  0  0  0  0  0  0  0  0  0
   -2.5215   -0.6277   -0.6817 C   0  0  0  0  0  0  0  0  0  0  0  0
   -2.8204   -0.1875   -1.9554 C   0  0  0  0  0  0  0  0  0  0  0  0
   -2.3588    1.0691   -2.3928 C   0  0  0  0  0  0  0  0  0  0  0  0
   -1.6032    1.8925   -1.5626 C   0  0  0  0  0  0  0  0  0  0  0  0
   -1.2813    1.4953   -0.2659 C   0  0  0  0  0  0  0  0  0  0  0  0
   -2.8623   -1.5860   -0.3076 H   0  0  0  0  0  0  0  0  0  0  0  0
   -3.4149   -0.8120   -2.6134 H   0  0  0  0  0  0  0  0  0  0  0  0
   -2.6096    1.4037   -3.3943 H   0  0  0  0  0  0  0  0  0  0  0  0
   -1.2835    2.8727   -1.8952 H   0  0  0  0  0  0  0  0  0  0  0  0
   -0.7221    2.1366    0.4144 H   0  0  0  0  0  0  0  0  0  0  0  0
   -2.0335    3.4000    1.9446 B   0  0  0  0  0  0  0  0  0  0  0  0
   -2.4726    4.3751    2.8118 F   0  0  0  0  0  0  0  0  0  0  0  0
   -0.6721    3.6128    1.5733 F   0  0  0  0  0  0  0  0  0  0  0  0
   -2.0935    2.0836    2.5089 F   0  0  0  0  0  0  0  0  0  0  0  0
   -2.8055    3.3781    0.7602 F   0  0  0  0  0  0  0  0  0  0  0  0
  1  2  1  0  0  0  0
  2  3  1  0  0  0  0
  4  9  1  0  0  0  0
  4  1  2  0  0  0  0
  5  4  1  0  0  0  0
  6  5  2  0  0  0  0
  6  7  1  0  0  0  0
  7  8  2  0  0  0  0
  8  1  1  0  0  0  0
  8 13  1  0  0  0  0
 10  5  1  0  0  0  0
 11  6  1  0  0  0  0
 12  7  1  0  0  0  0
 14 17  1  0  0  0  0
 14 15  1  0  0  0  0
 16 14  1  0  0  0  0
 18 14  1  0  0  0  0
M  RAD  2   2   2   3   3
M  END
