Coordinates from ORCA-job PhN2+~BF4-_B3LYPG-6-31G_dp-NX-Scan-d89-09-n800
 OpenBabel11261920573D

 18 17  0  0  0  0  0  0  0  0999 V2000
   -1.8923    0.5711    0.0153 C   0  0  0  0  0  0  0  0  0  0  0  0
   -1.6740    0.4777    1.3837 N   0  0  0  0  0  0  0  0  0  0  0  0
   -1.4891    0.2507    2.4564 N   0  0  0  0  0  0  0  0  0  0  0  0
   -2.4796   -0.5496   -0.5978 C   0  0  0  0  0  0  0  0  0  0  0  0
   -2.6864   -0.4905   -1.9685 C   0  0  0  0  0  0  0  0  0  0  0  0
   -2.3059    0.6519   -2.6853 C   0  0  0  0  0  0  0  0  0  0  0  0
   -1.7170    1.7450   -2.0421 C   0  0  0  0  0  0  0  0  0  0  0  0
   -1.5027    1.7315   -0.6682 C   0  0  0  0  0  0  0  0  0  0  0  0
   -2.7654   -1.4164   -0.0126 H   0  0  0  0  0  0  0  0  0  0  0  0
   -3.1439   -1.3318   -2.4777 H   0  0  0  0  0  0  0  0  0  0  0  0
   -2.4746    0.6877   -3.7572 H   0  0  0  0  0  0  0  0  0  0  0  0
   -1.4305    2.6228   -2.6111 H   0  0  0  0  0  0  0  0  0  0  0  0
   -1.0607    2.5467   -0.1026 H   0  0  0  0  0  0  0  0  0  0  0  0
   -1.8565    3.2821    2.3957 B   0  0  0  0  0  0  0  0  0  0  0  0
   -1.8135    2.6378    3.6357 F   0  0  0  0  0  0  0  0  0  0  0  0
   -0.6221    2.9983    1.7108 F   0  0  0  0  0  0  0  0  0  0  0  0
   -2.8796    2.6641    1.6073 F   0  0  0  0  0  0  0  0  0  0  0  0
   -2.0600    4.6340    2.4934 F   0  0  0  0  0  0  0  0  0  0  0  0
  1  2  1  0  0  0  0
  2  3  1  0  0  0  0
  4  9  1  0  0  0  0
  4  1  1  0  0  0  0
  5  4  2  0  0  0  0
  6  7  2  0  0  0  0
  6  5  1  0  0  0  0
  7  8  1  0  0  0  0
  8 13  1  0  0  0  0
  8  1  2  0  0  0  0
 10  5  1  0  0  0  0
 11  6  1  0  0  0  0
 12  7  1  0  0  0  0
 14 18  1  0  0  0  0
 14 15  1  0  0  0  0
 16 14  1  0  0  0  0
 17 14  1  0  0  0  0
M  RAD  2   2   2   3   3
M  END
