Coordinates from ORCA-job PhN2+~BF4-_B3LYPG-6-31G_dp-NX-Scan-d89-09-n800
 OpenBabel11261920563D

 18 17  0  0  0  0  0  0  0  0999 V2000
   -1.3250    0.0005    0.2519 C   0  0  0  0  0  0  0  0  0  0  0  0
   -0.8530   -0.7054    1.3062 N   0  0  0  0  0  0  0  0  0  0  0  0
   -0.4561   -1.3066    2.1657 N   0  0  0  0  0  0  0  0  0  0  0  0
   -2.5804   -0.3700   -0.2874 C   0  0  0  0  0  0  0  0  0  0  0  0
   -3.0682    0.3922   -1.3251 C   0  0  0  0  0  0  0  0  0  0  0  0
   -2.3396    1.5012   -1.7882 C   0  0  0  0  0  0  0  0  0  0  0  0
   -1.0834    1.8243   -1.2647 C   0  0  0  0  0  0  0  0  0  0  0  0
   -0.5655    1.0978   -0.2122 C   0  0  0  0  0  0  0  0  0  0  0  0
   -3.1286   -1.2081    0.1260 H   0  0  0  0  0  0  0  0  0  0  0  0
   -4.0383    0.1632   -1.7502 H   0  0  0  0  0  0  0  0  0  0  0  0
   -2.7613    2.1220   -2.5695 H   0  0  0  0  0  0  0  0  0  0  0  0
   -0.5606    2.7070   -1.6085 H   0  0  0  0  0  0  0  0  0  0  0  0
    0.3601    1.3744    0.2748 H   0  0  0  0  0  0  0  0  0  0  0  0
   -2.7018    3.2429    1.1094 B   0  0  0  0  0  0  0  0  0  0  0  0
   -3.2890    4.1556    1.9613 F   0  0  0  0  0  0  0  0  0  0  0  0
   -1.3012    3.4550    1.0184 F   0  0  0  0  0  0  0  0  0  0  0  0
   -2.9047    1.9097    1.5627 F   0  0  0  0  0  0  0  0  0  0  0  0
   -3.2571    3.3575   -0.1955 F   0  0  0  0  0  0  0  0  0  0  0  0
  1  2  1  0  0  0  0
  2  3  1  0  0  0  0
  4  9  1  0  0  0  0
  4  1  2  0  0  0  0
  5  4  1  0  0  0  0
  6  5  2  0  0  0  0
  6  7  1  0  0  0  0
  7  8  2  0  0  0  0
  8  1  1  0  0  0  0
  8 13  1  0  0  0  0
 10  5  1  0  0  0  0
 11  6  1  0  0  0  0
 12  7  1  0  0  0  0
 14 17  1  0  0  0  0
 14 15  1  0  0  0  0
 16 14  1  0  0  0  0
 18 14  1  0  0  0  0
M  RAD  2   2   2   3   3
M  END
