Coordinates from ORCA-job PhN2+~BF4-_B3LYPG-6-31G_dp-NX-Scan-d89-09-n800
 OpenBabel11261920563D

 18 17  0  0  0  0  0  0  0  0999 V2000
   -1.2843   -0.1211    0.2570 C   0  0  0  0  0  0  0  0  0  0  0  0
   -0.7946   -0.9399    1.2143 N   0  0  0  0  0  0  0  0  0  0  0  0
   -0.3830   -1.6317    1.9977 N   0  0  0  0  0  0  0  0  0  0  0  0
   -2.5749   -0.3937   -0.2623 C   0  0  0  0  0  0  0  0  0  0  0  0
   -3.0645    0.4676   -1.2161 C   0  0  0  0  0  0  0  0  0  0  0  0
   -2.3085    1.5836   -1.6200 C   0  0  0  0  0  0  0  0  0  0  0  0
   -1.0191    1.8153   -1.1156 C   0  0  0  0  0  0  0  0  0  0  0  0
   -0.4964    0.9806   -0.1524 C   0  0  0  0  0  0  0  0  0  0  0  0
   -3.1418   -1.2442    0.0981 H   0  0  0  0  0  0  0  0  0  0  0  0
   -4.0572    0.3140   -1.6218 H   0  0  0  0  0  0  0  0  0  0  0  0
   -2.7192    2.2642   -2.3538 H   0  0  0  0  0  0  0  0  0  0  0  0
   -0.4721    2.6993   -1.4129 H   0  0  0  0  0  0  0  0  0  0  0  0
    0.4688    1.1639    0.3037 H   0  0  0  0  0  0  0  0  0  0  0  0
   -2.8047    3.3717    0.9576 B   0  0  0  0  0  0  0  0  0  0  0  0
   -3.4726    4.2390    1.7948 F   0  0  0  0  0  0  0  0  0  0  0  0
   -1.5438    3.8767    0.5788 F   0  0  0  0  0  0  0  0  0  0  0  0
   -2.6156    2.1025    1.5666 F   0  0  0  0  0  0  0  0  0  0  0  0
   -3.5704    3.1654   -0.2387 F   0  0  0  0  0  0  0  0  0  0  0  0
  1  2  1  0  0  0  0
  2  3  1  0  0  0  0
  4  9  1  0  0  0  0
  4  1  2  0  0  0  0
  5  4  1  0  0  0  0
  6  5  2  0  0  0  0
  6  7  1  0  0  0  0
  7  8  2  0  0  0  0
  8  1  1  0  0  0  0
  8 13  1  0  0  0  0
 10  5  1  0  0  0  0
 11  6  1  0  0  0  0
 12  7  1  0  0  0  0
 14 17  1  0  0  0  0
 14 15  1  0  0  0  0
 16 14  1  0  0  0  0
 18 14  1  0  0  0  0
M  RAD  2   2   2   3   3
M  END
