Coordinates from ORCA-job PhN2+~BF4-_B3LYPG-6-31G_dp-NX-Scan-d89-09-n800
 OpenBabel11261920563D

 18 17  0  0  0  0  0  0  0  0999 V2000
   -1.9901    0.4742   -0.0035 C   0  0  0  0  0  0  0  0  0  0  0  0
   -1.7930    0.2956    1.3558 N   0  0  0  0  0  0  0  0  0  0  0  0
   -1.5690    0.2538    2.4461 N   0  0  0  0  0  0  0  0  0  0  0  0
   -2.3454   -0.6618   -0.7519 C   0  0  0  0  0  0  0  0  0  0  0  0
   -2.5278   -0.5017   -2.1174 C   0  0  0  0  0  0  0  0  0  0  0  0
   -2.3565    0.7616   -2.6994 C   0  0  0  0  0  0  0  0  0  0  0  0
   -2.0014    1.8701   -1.9257 C   0  0  0  0  0  0  0  0  0  0  0  0
   -1.8101    1.7563   -0.5514 C   0  0  0  0  0  0  0  0  0  0  0  0
   -2.4712   -1.6233   -0.2667 H   0  0  0  0  0  0  0  0  0  0  0  0
   -2.8042   -1.3550   -2.7269 H   0  0  0  0  0  0  0  0  0  0  0  0
   -2.5054    0.8802   -3.7685 H   0  0  0  0  0  0  0  0  0  0  0  0
   -1.8762    2.8422   -2.3907 H   0  0  0  0  0  0  0  0  0  0  0  0
   -1.5498    2.6130    0.0693 H   0  0  0  0  0  0  0  0  0  0  0  0
   -1.6593    3.2569    2.4489 B   0  0  0  0  0  0  0  0  0  0  0  0
   -1.8613    3.9608    3.6011 F   0  0  0  0  0  0  0  0  0  0  0  0
   -0.5939    2.3101    2.6196 F   0  0  0  0  0  0  0  0  0  0  0  0
   -2.8210    2.5134    2.0924 F   0  0  0  0  0  0  0  0  0  0  0  0
   -1.3186    4.0666    1.3439 F   0  0  0  0  0  0  0  0  0  0  0  0
  1  2  1  0  0  0  0
  2  3  1  0  0  0  0
  4  9  1  0  0  0  0
  4  1  2  0  0  0  0
  5  4  1  0  0  0  0
  6  5  2  0  0  0  0
  6  7  1  0  0  0  0
  7  8  2  0  0  0  0
  8  1  1  0  0  0  0
  8 13  1  0  0  0  0
 10  5  1  0  0  0  0
 11  6  1  0  0  0  0
 12  7  1  0  0  0  0
 14 16  1  0  0  0  0
 14 15  1  0  0  0  0
 17 14  1  0  0  0  0
 18 14  1  0  0  0  0
M  RAD  2   2   2   3   3
M  END
