Coordinates from ORCA-job PhN2+~BF4-_B3LYPG-6-31G_dp-NX-Scan-d89-09-n800
 OpenBabel11261920573D

 18 17  0  0  0  0  0  0  0  0999 V2000
   -2.1964    0.3569    0.0141 C   0  0  0  0  0  0  0  0  0  0  0  0
   -2.3997    0.1598    1.4014 N   0  0  0  0  0  0  0  0  0  0  0  0
   -2.0168    0.7791    2.3663 N   0  0  0  0  0  0  0  0  0  0  0  0
   -2.5683   -0.7572   -0.7576 C   0  0  0  0  0  0  0  0  0  0  0  0
   -2.4451   -0.7251   -2.1426 C   0  0  0  0  0  0  0  0  0  0  0  0
   -1.9768    0.4327   -2.7680 C   0  0  0  0  0  0  0  0  0  0  0  0
   -1.6324    1.5512   -2.0038 C   0  0  0  0  0  0  0  0  0  0  0  0
   -1.7285    1.5282   -0.6145 C   0  0  0  0  0  0  0  0  0  0  0  0
   -2.9457   -1.6353   -0.2450 H   0  0  0  0  0  0  0  0  0  0  0  0
   -2.7233   -1.5935   -2.7314 H   0  0  0  0  0  0  0  0  0  0  0  0
   -1.8861    0.4675   -3.8498 H   0  0  0  0  0  0  0  0  0  0  0  0
   -1.2796    2.4541   -2.4927 H   0  0  0  0  0  0  0  0  0  0  0  0
   -1.4651    2.4017   -0.0389 H   0  0  0  0  0  0  0  0  0  0  0  0
   -1.8372    4.0596    2.6441 B   0  0  0  0  0  0  0  0  0  0  0  0
   -1.1969    1.8949    2.0486 F   0  0  0  0  0  0  0  0  0  0  0  0
   -1.4944    4.4693    1.4284 F   0  0  0  0  0  0  0  0  0  0  0  0
   -3.0869    3.7031    2.8805 F   0  0  0  0  0  0  0  0  0  0  0  0
   -0.9746    4.1660    3.6360 F   0  0  0  0  0  0  0  0  0  0  0  0
  1  2  1  0  0  0  0
  2  3  1  0  0  0  0
  4  9  1  0  0  0  0
  4  1  2  0  0  0  0
  5  4  1  0  0  0  0
  6  5  2  0  0  0  0
  6  7  1  0  0  0  0
  7  8  2  0  0  0  0
  8 13  1  0  0  0  0
  8  1  1  0  0  0  0
 10  5  1  0  0  0  0
 11  6  1  0  0  0  0
 12  7  1  0  0  0  0
 14 17  1  0  0  0  0
 14 18  1  0  0  0  0
 15  3  1  0  0  0  0
 16 14  1  0  0  0  0
M  RAD  2   2   2   3   2
M  END
