Coordinates from ORCA-job PhN2+~BF4-_B3LYPG-6-31G_dp-NX-Scan-d89-09-n800
 OpenBabel11261920573D

 18 17  0  0  0  0  0  0  0  0999 V2000
   -2.0274    0.5106    0.0427 C   0  0  0  0  0  0  0  0  0  0  0  0
   -1.9345    0.4258    1.4241 N   0  0  0  0  0  0  0  0  0  0  0  0
   -1.7967    0.5065    2.5395 N   0  0  0  0  0  0  0  0  0  0  0  0
   -2.5343   -0.6178   -0.6244 C   0  0  0  0  0  0  0  0  0  0  0  0
   -2.6307   -0.5690   -2.0080 C   0  0  0  0  0  0  0  0  0  0  0  0
   -2.2186    0.5805   -2.6938 C   0  0  0  0  0  0  0  0  0  0  0  0
   -1.7074    1.6847   -2.0053 C   0  0  0  0  0  0  0  0  0  0  0  0
   -1.6037    1.6761   -0.6172 C   0  0  0  0  0  0  0  0  0  0  0  0
   -2.8427   -1.4915   -0.0611 H   0  0  0  0  0  0  0  0  0  0  0  0
   -3.0237   -1.4217   -2.5511 H   0  0  0  0  0  0  0  0  0  0  0  0
   -2.2980    0.6132   -3.7764 H   0  0  0  0  0  0  0  0  0  0  0  0
   -1.3919    2.5680   -2.5504 H   0  0  0  0  0  0  0  0  0  0  0  0
   -1.2192    2.5207   -0.0520 H   0  0  0  0  0  0  0  0  0  0  0  0
   -1.7429    3.4048    2.3364 B   0  0  0  0  0  0  0  0  0  0  0  0
   -1.2894    2.2338    3.1190 F   0  0  0  0  0  0  0  0  0  0  0  0
   -0.7127    3.6939    1.4292 F   0  0  0  0  0  0  0  0  0  0  0  0
   -2.8726    2.9644    1.6307 F   0  0  0  0  0  0  0  0  0  0  0  0
   -2.0076    4.4300    3.1931 F   0  0  0  0  0  0  0  0  0  0  0  0
  1  2  1  0  0  0  0
  2  3  1  0  0  0  0
  4  9  1  0  0  0  0
  4  1  2  0  0  0  0
  5  4  1  0  0  0  0
  6  5  2  0  0  0  0
  6  7  1  0  0  0  0
  7  8  2  0  0  0  0
  8 13  1  0  0  0  0
  8  1  1  0  0  0  0
 10  5  1  0  0  0  0
 11  6  1  0  0  0  0
 12  7  1  0  0  0  0
 14 15  1  0  0  0  0
 14 18  1  0  0  0  0
 16 14  1  0  0  0  0
 17 14  1  0  0  0  0
M  RAD  2   2   2   3   3
M  END
