Coordinates from ORCA-job PhN2+~BF4-_B3LYPG-6-31G_dp-NX-Scan-d89-09-n800
 OpenBabel11261920563D

 18 17  0  0  0  0  0  0  0  0999 V2000
   -1.6617    0.4487    0.0979 C   0  0  0  0  0  0  0  0  0  0  0  0
   -1.2586    0.1039    1.3713 N   0  0  0  0  0  0  0  0  0  0  0  0
   -0.9041   -0.3243    2.3356 N   0  0  0  0  0  0  0  0  0  0  0  0
   -2.5076   -0.4658   -0.5644 C   0  0  0  0  0  0  0  0  0  0  0  0
   -2.8644   -0.1673   -1.8667 C   0  0  0  0  0  0  0  0  0  0  0  0
   -2.3847    1.0049   -2.4759 C   0  0  0  0  0  0  0  0  0  0  0  0
   -1.5543    1.8901   -1.7898 C   0  0  0  0  0  0  0  0  0  0  0  0
   -1.1806    1.6362   -0.4729 C   0  0  0  0  0  0  0  0  0  0  0  0
   -2.8599   -1.3583   -0.0606 H   0  0  0  0  0  0  0  0  0  0  0  0
   -3.5166   -0.8409   -2.4118 H   0  0  0  0  0  0  0  0  0  0  0  0
   -2.6763    1.2280   -3.4972 H   0  0  0  0  0  0  0  0  0  0  0  0
   -1.2138    2.8035   -2.2636 H   0  0  0  0  0  0  0  0  0  0  0  0
   -0.5830    2.3096    0.1286 H   0  0  0  0  0  0  0  0  0  0  0  0
   -2.1575    3.1215    2.0725 B   0  0  0  0  0  0  0  0  0  0  0  0
   -2.4425    4.1181    2.9770 F   0  0  0  0  0  0  0  0  0  0  0  0
   -0.7602    2.7755    2.0849 F   0  0  0  0  0  0  0  0  0  0  0  0
   -2.8479    1.9093    2.3530 F   0  0  0  0  0  0  0  0  0  0  0  0
   -2.4803    3.5206    0.7573 F   0  0  0  0  0  0  0  0  0  0  0  0
  1  2  1  0  0  0  0
  2  3  1  0  0  0  0
  4  9  1  0  0  0  0
  4  1  2  0  0  0  0
  5  4  1  0  0  0  0
  6  5  2  0  0  0  0
  6  7  1  0  0  0  0
  7  8  2  0  0  0  0
  8  1  1  0  0  0  0
  8 13  1  0  0  0  0
 10  5  1  0  0  0  0
 11  6  1  0  0  0  0
 12  7  1  0  0  0  0
 14 16  1  0  0  0  0
 14 17  1  0  0  0  0
 14 15  1  0  0  0  0
 18 14  1  0  0  0  0
M  RAD  2   2   2   3   3
M  END
