Coordinates from ORCA-job PhN2+~BF4-_B3LYPG-6-31G_dp-NX-Scan-d89-09-n800
 OpenBabel11261920573D

 18 17  0  0  0  0  0  0  0  0999 V2000
   -1.9588    0.4538    0.0152 C   0  0  0  0  0  0  0  0  0  0  0  0
   -1.7694    0.2773    1.3756 N   0  0  0  0  0  0  0  0  0  0  0  0
   -1.5546    0.3255    2.4677 N   0  0  0  0  0  0  0  0  0  0  0  0
   -2.3714   -0.6620   -0.7316 C   0  0  0  0  0  0  0  0  0  0  0  0
   -2.5610   -0.4908   -2.0953 C   0  0  0  0  0  0  0  0  0  0  0  0
   -2.3413    0.7651   -2.6759 C   0  0  0  0  0  0  0  0  0  0  0  0
   -1.9292    1.8553   -1.9036 C   0  0  0  0  0  0  0  0  0  0  0  0
   -1.7261    1.7286   -0.5329 C   0  0  0  0  0  0  0  0  0  0  0  0
   -2.5371   -1.6174   -0.2465 H   0  0  0  0  0  0  0  0  0  0  0  0
   -2.8817   -1.3293   -2.7036 H   0  0  0  0  0  0  0  0  0  0  0  0
   -2.4978    0.8939   -3.7426 H   0  0  0  0  0  0  0  0  0  0  0  0
   -1.7685    2.8229   -2.3668 H   0  0  0  0  0  0  0  0  0  0  0  0
   -1.4225    2.5677    0.0848 H   0  0  0  0  0  0  0  0  0  0  0  0
   -1.7214    3.2649    2.3951 B   0  0  0  0  0  0  0  0  0  0  0  0
   -1.8112    3.7442    3.6711 F   0  0  0  0  0  0  0  0  0  0  0  0
   -0.5799    2.3822    2.2916 F   0  0  0  0  0  0  0  0  0  0  0  0
   -2.8685    2.4887    2.0662 F   0  0  0  0  0  0  0  0  0  0  0  0
   -1.5536    4.2426    1.4065 F   0  0  0  0  0  0  0  0  0  0  0  0
  1  2  1  0  0  0  0
  2  3  1  0  0  0  0
  4  9  1  0  0  0  0
  4  1  2  0  0  0  0
  5  4  1  0  0  0  0
  6  5  2  0  0  0  0
  6  7  1  0  0  0  0
  7  8  2  0  0  0  0
  8  1  1  0  0  0  0
  8 13  1  0  0  0  0
 10  5  1  0  0  0  0
 11  6  1  0  0  0  0
 12  7  1  0  0  0  0
 14 15  1  0  0  0  0
 16 14  1  0  0  0  0
 17 14  1  0  0  0  0
 18 14  1  0  0  0  0
M  RAD  2   2   2   3   3
M  END
