Coordinates from ORCA-job PhN2+~BF4-_B3LYPG-6-31G_dp-NX-Scan-d89-09-n800
 OpenBabel11261920573D

 18 17  0  0  0  0  0  0  0  0999 V2000
   -1.8527    0.5536    0.0210 C   0  0  0  0  0  0  0  0  0  0  0  0
   -1.6064    0.4251    1.3812 N   0  0  0  0  0  0  0  0  0  0  0  0
   -1.3953    0.1585    2.4387 N   0  0  0  0  0  0  0  0  0  0  0  0
   -2.4607   -0.5495   -0.6036 C   0  0  0  0  0  0  0  0  0  0  0  0
   -2.7000   -0.4573   -1.9673 C   0  0  0  0  0  0  0  0  0  0  0  0
   -2.3342    0.7010   -2.6655 C   0  0  0  0  0  0  0  0  0  0  0  0
   -1.7246    1.7766   -2.0115 C   0  0  0  0  0  0  0  0  0  0  0  0
   -1.4752    1.7284   -0.6449 C   0  0  0  0  0  0  0  0  0  0  0  0
   -2.7366   -1.4285   -0.0322 H   0  0  0  0  0  0  0  0  0  0  0  0
   -3.1728   -1.2850   -2.4846 H   0  0  0  0  0  0  0  0  0  0  0  0
   -2.5310    0.7638   -3.7313 H   0  0  0  0  0  0  0  0  0  0  0  0
   -1.4509    2.6678   -2.5656 H   0  0  0  0  0  0  0  0  0  0  0  0
   -1.0144    2.5254   -0.0705 H   0  0  0  0  0  0  0  0  0  0  0  0
   -1.8932    3.2668    2.3722 B   0  0  0  0  0  0  0  0  0  0  0  0
   -1.9414    2.9230    3.7133 F   0  0  0  0  0  0  0  0  0  0  0  0
   -0.6363    2.7957    1.8253 F   0  0  0  0  0  0  0  0  0  0  0  0
   -2.9019    2.5334    1.6633 F   0  0  0  0  0  0  0  0  0  0  0  0
   -2.0264    4.6144    2.1369 F   0  0  0  0  0  0  0  0  0  0  0  0
  1  2  1  0  0  0  0
  2  3  1  0  0  0  0
  4  9  1  0  0  0  0
  4  1  1  0  0  0  0
  5  4  2  0  0  0  0
  6  7  2  0  0  0  0
  6  5  1  0  0  0  0
  7  8  1  0  0  0  0
  8 13  1  0  0  0  0
  8  1  2  0  0  0  0
 10  5  1  0  0  0  0
 11  6  1  0  0  0  0
 12  7  1  0  0  0  0
 14 15  1  0  0  0  0
 16 14  1  0  0  0  0
 17 14  1  0  0  0  0
 18 14  1  0  0  0  0
M  RAD  2   2   2   3   3
M  END
