Coordinates from ORCA-job PhN2+~BF4-_B3LYPG-6-31G_dp-NX-Scan-d89-09-n800
 OpenBabel11261920573D

 18 17  0  0  0  0  0  0  0  0999 V2000
   -1.8443    0.5395    0.0256 C   0  0  0  0  0  0  0  0  0  0  0  0
   -1.5852    0.3881    1.3809 N   0  0  0  0  0  0  0  0  0  0  0  0
   -1.3590    0.1081    2.4314 N   0  0  0  0  0  0  0  0  0  0  0  0
   -2.4618   -0.5509   -0.6118 C   0  0  0  0  0  0  0  0  0  0  0  0
   -2.7077   -0.4374   -1.9728 C   0  0  0  0  0  0  0  0  0  0  0  0
   -2.3385    0.7285   -2.6562 C   0  0  0  0  0  0  0  0  0  0  0  0
   -1.7214    1.7918   -1.9894 C   0  0  0  0  0  0  0  0  0  0  0  0
   -1.4662    1.7227   -0.6249 C   0  0  0  0  0  0  0  0  0  0  0  0
   -2.7396   -1.4367   -0.0519 H   0  0  0  0  0  0  0  0  0  0  0  0
   -3.1881   -1.2548   -2.4995 H   0  0  0  0  0  0  0  0  0  0  0  0
   -2.5394    0.8074   -3.7202 H   0  0  0  0  0  0  0  0  0  0  0  0
   -1.4465    2.6902   -2.5313 H   0  0  0  0  0  0  0  0  0  0  0  0
   -1.0026    2.5116   -0.0414 H   0  0  0  0  0  0  0  0  0  0  0  0
   -1.9054    3.2623    2.3573 B   0  0  0  0  0  0  0  0  0  0  0  0
   -1.9453    3.1108    3.7287 F   0  0  0  0  0  0  0  0  0  0  0  0
   -0.6439    2.7371    1.8670 F   0  0  0  0  0  0  0  0  0  0  0  0
   -2.9084    2.4317    1.7532 F   0  0  0  0  0  0  0  0  0  0  0  0
   -2.0506    4.5633    1.9304 F   0  0  0  0  0  0  0  0  0  0  0  0
  1  2  1  0  0  0  0
  2  3  1  0  0  0  0
  4  9  1  0  0  0  0
  4  1  1  0  0  0  0
  5  4  2  0  0  0  0
  6  7  2  0  0  0  0
  6  5  1  0  0  0  0
  7  8  1  0  0  0  0
  8 13  1  0  0  0  0
  8  1  2  0  0  0  0
 10  5  1  0  0  0  0
 11  6  1  0  0  0  0
 12  7  1  0  0  0  0
 14 15  1  0  0  0  0
 16 14  1  0  0  0  0
 17 14  1  0  0  0  0
 18 14  1  0  0  0  0
M  RAD  2   2   2   3   3
M  END
