Coordinates from ORCA-job PhN2+~BF4-_B3LYPG-6-31G_dp-NX-Scan-d89-09-n800
 OpenBabel11261920563D

 18 17  0  0  0  0  0  0  0  0999 V2000
   -1.6618    0.4462    0.0983 C   0  0  0  0  0  0  0  0  0  0  0  0
   -1.2585    0.0995    1.3711 N   0  0  0  0  0  0  0  0  0  0  0  0
   -0.9036   -0.3303    2.3345 N   0  0  0  0  0  0  0  0  0  0  0  0
   -2.5077   -0.4675   -0.5652 C   0  0  0  0  0  0  0  0  0  0  0  0
   -2.8646   -0.1672   -1.8670 C   0  0  0  0  0  0  0  0  0  0  0  0
   -2.3850    1.0061   -2.4745 C   0  0  0  0  0  0  0  0  0  0  0  0
   -1.5548    1.8903   -1.7873 C   0  0  0  0  0  0  0  0  0  0  0  0
   -1.1809    1.6347   -0.4708 C   0  0  0  0  0  0  0  0  0  0  0  0
   -2.8598   -1.3608   -0.0626 H   0  0  0  0  0  0  0  0  0  0  0  0
   -3.5168   -0.8401   -2.4130 H   0  0  0  0  0  0  0  0  0  0  0  0
   -2.6768    1.2305   -3.4955 H   0  0  0  0  0  0  0  0  0  0  0  0
   -1.2147    2.8046   -2.2596 H   0  0  0  0  0  0  0  0  0  0  0  0
   -0.5834    2.3074    0.1317 H   0  0  0  0  0  0  0  0  0  0  0  0
   -2.1568    3.1243    2.0707 B   0  0  0  0  0  0  0  0  0  0  0  0
   -2.4457    4.1220    2.9729 F   0  0  0  0  0  0  0  0  0  0  0  0
   -0.7586    2.7835    2.0835 F   0  0  0  0  0  0  0  0  0  0  0  0
   -2.8431    1.9101    2.3533 F   0  0  0  0  0  0  0  0  0  0  0  0
   -2.4813    3.5198    0.7546 F   0  0  0  0  0  0  0  0  0  0  0  0
  1  2  1  0  0  0  0
  2  3  1  0  0  0  0
  4  9  1  0  0  0  0
  4  1  2  0  0  0  0
  5  4  1  0  0  0  0
  6  5  2  0  0  0  0
  6  7  1  0  0  0  0
  7  8  2  0  0  0  0
  8  1  1  0  0  0  0
  8 13  1  0  0  0  0
 10  5  1  0  0  0  0
 11  6  1  0  0  0  0
 12  7  1  0  0  0  0
 14 16  1  0  0  0  0
 14 17  1  0  0  0  0
 14 15  1  0  0  0  0
 18 14  1  0  0  0  0
M  RAD  2   2   2   3   3
M  END
