Coordinates from ORCA-job PhN2+~BF4-_B3LYPG-6-31G_dp-NX-Scan-d89-09-n800
 OpenBabel11261920573D

 18 18  0  0  0  0  0  0  0  0999 V2000
   -2.2415    1.1129   -0.2498 C   0  0  0  0  0  0  0  0  0  0  0  0
   -2.5606    1.6483    1.0351 N   0  0  0  0  0  0  0  0  0  0  0  0
   -1.7172    2.4154    1.6003 N   0  0  0  0  0  0  0  0  0  0  0  0
   -2.8088   -0.1471   -0.4984 C   0  0  0  0  0  0  0  0  0  0  0  0
   -2.6095   -0.7799   -1.7213 C   0  0  0  0  0  0  0  0  0  0  0  0
   -1.8710   -0.1466   -2.7241 C   0  0  0  0  0  0  0  0  0  0  0  0
   -1.3345    1.1217   -2.4963 C   0  0  0  0  0  0  0  0  0  0  0  0
   -1.5064    1.7540   -1.2656 C   0  0  0  0  0  0  0  0  0  0  0  0
   -3.3980   -0.6083    0.2874 H   0  0  0  0  0  0  0  0  0  0  0  0
   -3.0407   -1.7601   -1.8969 H   0  0  0  0  0  0  0  0  0  0  0  0
   -1.7231   -0.6340   -3.6830 H   0  0  0  0  0  0  0  0  0  0  0  0
   -0.7771    1.6257   -3.2800 H   0  0  0  0  0  0  0  0  0  0  0  0
   -1.0964    2.7487   -1.1301 H   0  0  0  0  0  0  0  0  0  0  0  0
   -2.0642    3.0832    3.2120 B   0  0  0  0  0  0  0  0  0  0  0  0
   -0.8729    2.6605    1.2144 F   0  0  0  0  0  0  0  0  0  0  0  0
   -1.9047    4.4126    2.9243 F   0  0  0  0  0  0  0  0  0  0  0  0
   -1.0240    2.5331    3.9094 F   0  0  0  0  0  0  0  0  0  0  0  0
   -3.3034    2.6731    3.5376 F   0  0  0  0  0  0  0  0  0  0  0  0
  1  2  1  0  0  0  0
  2  3  1  0  0  0  0
  3 14  1  0  0  0  0
  4  1  1  0  0  0  0
  4  9  1  0  0  0  0
  5  4  2  0  0  0  0
  6  7  2  0  0  0  0
  6  5  1  0  0  0  0
  7  8  1  0  0  0  0
  8 13  1  0  0  0  0
  8  1  2  0  0  0  0
 10  5  1  0  0  0  0
 11  6  1  0  0  0  0
 12  7  1  0  0  0  0
 14 18  1  0  0  0  0
 14 17  1  0  0  0  0
 15  3  1  0  0  0  0
 16 14  1  0  0  0  0
M  RAD  1   2   2
M  END
