Coordinates from ORCA-job PhN2+~BF4-_B3LYPG-6-31G_dp-NX-Scan-d89-09-n800
 OpenBabel11261920563D

 18 17  0  0  0  0  0  0  0  0999 V2000
   -1.2147   -0.6814    0.1143 C   0  0  0  0  0  0  0  0  0  0  0  0
   -0.6795   -1.7767    0.6996 N   0  0  0  0  0  0  0  0  0  0  0  0
   -0.2228   -2.6709    1.2017 N   0  0  0  0  0  0  0  0  0  0  0  0
   -2.4139   -0.8315   -0.6260 C   0  0  0  0  0  0  0  0  0  0  0  0
   -2.9666    0.3118   -1.1672 C   0  0  0  0  0  0  0  0  0  0  0  0
   -2.3621    1.5650   -0.9594 C   0  0  0  0  0  0  0  0  0  0  0  0
   -1.1555    1.6833   -0.2345 C   0  0  0  0  0  0  0  0  0  0  0  0
   -0.5642    0.5683    0.3102 C   0  0  0  0  0  0  0  0  0  0  0  0
   -2.8661   -1.8098   -0.7447 H   0  0  0  0  0  0  0  0  0  0  0  0
   -3.8903    0.2440   -1.7311 H   0  0  0  0  0  0  0  0  0  0  0  0
   -2.8138    2.4768   -1.3426 H   0  0  0  0  0  0  0  0  0  0  0  0
   -0.7649    2.6810   -0.0511 H   0  0  0  0  0  0  0  0  0  0  0  0
    0.3454    0.6228    0.8977 H   0  0  0  0  0  0  0  0  0  0  0  0
   -2.8683    4.2971    0.4949 B   0  0  0  0  0  0  0  0  0  0  0  0
   -3.5168    5.2619    1.2248 F   0  0  0  0  0  0  0  0  0  0  0  0
   -3.2218    4.3464   -0.8789 F   0  0  0  0  0  0  0  0  0  0  0  0
   -1.4592    4.4306    0.5952 F   0  0  0  0  0  0  0  0  0  0  0  0
   -3.2189    2.9944    0.9721 F   0  0  0  0  0  0  0  0  0  0  0  0
  1  8  1  0  0  0  0
  1  2  1  0  0  0  0
  2  3  1  0  0  0  0
  4  1  2  0  0  0  0
  5  6  2  0  0  0  0
  5  4  1  0  0  0  0
  6  7  1  0  0  0  0
  7 12  1  0  0  0  0
  7  8  2  0  0  0  0
  8 13  1  0  0  0  0
  9  4  1  0  0  0  0
 10  5  1  0  0  0  0
 11  6  1  0  0  0  0
 14 17  1  0  0  0  0
 14 18  1  0  0  0  0
 14 15  1  0  0  0  0
 16 14  1  0  0  0  0
M  RAD  2   2   2   3   3
M  END
