Coordinates from ORCA-job PhN2+~BF4-_B3LYPG-6-31G_dp-NX-Scan-d89-09-n800
 OpenBabel11261920563D

 18 17  0  0  0  0  0  0  0  0999 V2000
   -1.7512    0.2818    0.1258 C   0  0  0  0  0  0  0  0  0  0  0  0
   -1.4247   -0.1674    1.3863 N   0  0  0  0  0  0  0  0  0  0  0  0
   -1.1489   -0.6796    2.3370 N   0  0  0  0  0  0  0  0  0  0  0  0
   -2.5354   -0.5917   -0.6633 C   0  0  0  0  0  0  0  0  0  0  0  0
   -2.8279   -0.1872   -1.9512 C   0  0  0  0  0  0  0  0  0  0  0  0
   -2.3486    1.0476   -2.4262 C   0  0  0  0  0  0  0  0  0  0  0  0
   -1.5830    1.8860   -1.6193 C   0  0  0  0  0  0  0  0  0  0  0  0
   -1.2723    1.5270   -0.3090 C   0  0  0  0  0  0  0  0  0  0  0  0
   -2.8881   -1.5344   -0.2614 H   0  0  0  0  0  0  0  0  0  0  0  0
   -3.4294   -0.8244   -2.5904 H   0  0  0  0  0  0  0  0  0  0  0  0
   -2.5910    1.3541   -3.4388 H   0  0  0  0  0  0  0  0  0  0  0  0
   -1.2457    2.8482   -1.9860 H   0  0  0  0  0  0  0  0  0  0  0  0
   -0.7084    2.1801    0.3553 H   0  0  0  0  0  0  0  0  0  0  0  0
   -2.0370    3.3467    1.9860 B   0  0  0  0  0  0  0  0  0  0  0  0
   -2.4864    4.2904    2.8798 F   0  0  0  0  0  0  0  0  0  0  0  0
   -0.6755    3.5727    1.6310 F   0  0  0  0  0  0  0  0  0  0  0  0
   -2.0978    2.0156    2.5205 F   0  0  0  0  0  0  0  0  0  0  0  0
   -2.8026    3.3479    0.7990 F   0  0  0  0  0  0  0  0  0  0  0  0
  1  2  1  0  0  0  0
  2  3  1  0  0  0  0
  4  9  1  0  0  0  0
  4  1  2  0  0  0  0
  5  4  1  0  0  0  0
  6  5  2  0  0  0  0
  6  7  1  0  0  0  0
  7  8  2  0  0  0  0
  8  1  1  0  0  0  0
  8 13  1  0  0  0  0
 10  5  1  0  0  0  0
 11  6  1  0  0  0  0
 12  7  1  0  0  0  0
 14 17  1  0  0  0  0
 14 15  1  0  0  0  0
 16 14  1  0  0  0  0
 18 14  1  0  0  0  0
M  RAD  2   2   2   3   3
M  END
