Coordinates from ORCA-job PhN2+~BF4-_B3LYPG-6-31G_dp-NX-Scan-d89-09-n800
 OpenBabel11261920563D

 18 17  0  0  0  0  0  0  0  0999 V2000
   -1.7104    0.3790    0.0977 C   0  0  0  0  0  0  0  0  0  0  0  0
   -1.3427    0.0108    1.3742 N   0  0  0  0  0  0  0  0  0  0  0  0
   -1.0175   -0.4063    2.3536 N   0  0  0  0  0  0  0  0  0  0  0  0
   -2.5183   -0.5298   -0.6194 C   0  0  0  0  0  0  0  0  0  0  0  0
   -2.8429   -0.1928   -1.9204 C   0  0  0  0  0  0  0  0  0  0  0  0
   -2.3703    1.0105   -2.4741 C   0  0  0  0  0  0  0  0  0  0  0  0
   -1.5788    1.8873   -1.7342 C   0  0  0  0  0  0  0  0  0  0  0  0
   -1.2353    1.5948   -0.4165 C   0  0  0  0  0  0  0  0  0  0  0  0
   -2.8663   -1.4463   -0.1574 H   0  0  0  0  0  0  0  0  0  0  0  0
   -3.4645   -0.8593   -2.5081 H   0  0  0  0  0  0  0  0  0  0  0  0
   -2.6372    1.2631   -3.4953 H   0  0  0  0  0  0  0  0  0  0  0  0
   -1.2446    2.8240   -2.1649 H   0  0  0  0  0  0  0  0  0  0  0  0
   -0.6618    2.2612    0.2222 H   0  0  0  0  0  0  0  0  0  0  0  0
   -2.0892    3.2160    2.0653 B   0  0  0  0  0  0  0  0  0  0  0  0
   -2.4426    4.1948    2.9612 F   0  0  0  0  0  0  0  0  0  0  0  0
   -0.6671    3.1027    1.9460 F   0  0  0  0  0  0  0  0  0  0  0  0
   -2.5565    1.9266    2.4665 F   0  0  0  0  0  0  0  0  0  0  0  0
   -2.6076    3.4769    0.7786 F   0  0  0  0  0  0  0  0  0  0  0  0
  1  2  1  0  0  0  0
  2  3  1  0  0  0  0
  4  9  1  0  0  0  0
  4  1  2  0  0  0  0
  5  4  1  0  0  0  0
  6  5  2  0  0  0  0
  6  7  1  0  0  0  0
  7  8  2  0  0  0  0
  8  1  1  0  0  0  0
  8 13  1  0  0  0  0
 10  5  1  0  0  0  0
 11  6  1  0  0  0  0
 12  7  1  0  0  0  0
 14 17  1  0  0  0  0
 14 15  1  0  0  0  0
 16 14  1  0  0  0  0
 18 14  1  0  0  0  0
M  RAD  2   2   2   3   3
M  END
