Coordinates from ORCA-job PhN2+~BF4-_B3LYPG-6-31G_dp-NX-Scan-d89-09-n800
 OpenBabel11261920573D

 18 17  0  0  0  0  0  0  0  0999 V2000
   -2.0495    0.4260    0.1013 C   0  0  0  0  0  0  0  0  0  0  0  0
   -2.0351    0.2748    1.4899 N   0  0  0  0  0  0  0  0  0  0  0  0
   -1.7556    0.6921    2.5232 N   0  0  0  0  0  0  0  0  0  0  0  0
   -2.6186   -0.6301   -0.6265 C   0  0  0  0  0  0  0  0  0  0  0  0
   -2.6571   -0.5407   -2.0123 C   0  0  0  0  0  0  0  0  0  0  0  0
   -2.1323    0.5898   -2.6478 C   0  0  0  0  0  0  0  0  0  0  0  0
   -1.5687    1.6317   -1.9042 C   0  0  0  0  0  0  0  0  0  0  0  0
   -1.5160    1.5709   -0.5151 C   0  0  0  0  0  0  0  0  0  0  0  0
   -3.0172   -1.4901   -0.0997 H   0  0  0  0  0  0  0  0  0  0  0  0
   -3.0937   -1.3453   -2.5944 H   0  0  0  0  0  0  0  0  0  0  0  0
   -2.1660    0.6605   -3.7311 H   0  0  0  0  0  0  0  0  0  0  0  0
   -1.1707    2.5068   -2.4073 H   0  0  0  0  0  0  0  0  0  0  0  0
   -1.0957    2.3804    0.0672 H   0  0  0  0  0  0  0  0  0  0  0  0
   -1.8685    3.5049    2.2332 B   0  0  0  0  0  0  0  0  0  0  0  0
   -0.9503    2.2064    2.3810 F   0  0  0  0  0  0  0  0  0  0  0  0
   -1.2358    4.1806    1.2142 F   0  0  0  0  0  0  0  0  0  0  0  0
   -3.0847    2.9803    1.8636 F   0  0  0  0  0  0  0  0  0  0  0  0
   -1.8385    4.1144    3.4397 F   0  0  0  0  0  0  0  0  0  0  0  0
  1  2  1  0  0  0  0
  2  3  2  0  0  0  0
  4  9  1  0  0  0  0
  4  1  2  0  0  0  0
  5  4  1  0  0  0  0
  6  5  2  0  0  0  0
  6  7  1  0  0  0  0
  7  8  2  0  0  0  0
  8 13  1  0  0  0  0
  8  1  1  0  0  0  0
 10  5  1  0  0  0  0
 11  6  1  0  0  0  0
 12  7  1  0  0  0  0
 14 15  1  0  0  0  0
 14 18  1  0  0  0  0
 16 14  1  0  0  0  0
 17 14  1  0  0  0  0
M  RAD  1   3   2
M  END
