Coordinates from ORCA-job PhN2+~BF4-_B3LYPG-6-31G_dp-NX-Scan-d89-09-n800
 OpenBabel11261920563D

 18 17  0  0  0  0  0  0  0  0999 V2000
   -1.2190   -0.6605    0.1236 C   0  0  0  0  0  0  0  0  0  0  0  0
   -0.7123   -1.7529    0.7363 N   0  0  0  0  0  0  0  0  0  0  0  0
   -0.2840   -2.6460    1.2656 N   0  0  0  0  0  0  0  0  0  0  0  0
   -2.4320   -0.7943   -0.5982 C   0  0  0  0  0  0  0  0  0  0  0  0
   -2.9603    0.3491   -1.1606 C   0  0  0  0  0  0  0  0  0  0  0  0
   -2.3199    1.5907   -0.9889 C   0  0  0  0  0  0  0  0  0  0  0  0
   -1.0972    1.6911   -0.2881 C   0  0  0  0  0  0  0  0  0  0  0  0
   -0.5300    0.5748    0.2769 C   0  0  0  0  0  0  0  0  0  0  0  0
   -2.9131   -1.7622   -0.6854 H   0  0  0  0  0  0  0  0  0  0  0  0
   -3.8939    0.2943   -1.7091 H   0  0  0  0  0  0  0  0  0  0  0  0
   -2.7555    2.5020   -1.3897 H   0  0  0  0  0  0  0  0  0  0  0  0
   -0.6810    2.6810   -0.1276 H   0  0  0  0  0  0  0  0  0  0  0  0
    0.3880    0.6187    0.8520 H   0  0  0  0  0  0  0  0  0  0  0  0
   -2.8990    4.2379    0.5068 B   0  0  0  0  0  0  0  0  0  0  0  0
   -3.5676    5.1502    1.2839 F   0  0  0  0  0  0  0  0  0  0  0  0
   -3.2514    4.3458   -0.8622 F   0  0  0  0  0  0  0  0  0  0  0  0
   -1.4945    4.3887    0.6190 F   0  0  0  0  0  0  0  0  0  0  0  0
   -3.2311    2.9049    0.9208 F   0  0  0  0  0  0  0  0  0  0  0  0
  1  8  1  0  0  0  0
  1  2  1  0  0  0  0
  2  3  1  0  0  0  0
  4  1  2  0  0  0  0
  5  6  2  0  0  0  0
  5  4  1  0  0  0  0
  6  7  1  0  0  0  0
  7 12  1  0  0  0  0
  7  8  2  0  0  0  0
  8 13  1  0  0  0  0
  9  4  1  0  0  0  0
 10  5  1  0  0  0  0
 11  6  1  0  0  0  0
 14 17  1  0  0  0  0
 14 18  1  0  0  0  0
 14 15  1  0  0  0  0
 16 14  1  0  0  0  0
M  RAD  2   2   2   3   3
M  END
