Coordinates from ORCA-job PhN2+~BF4-_B3LYPG-6-31G_dp-NX-Scan-d89-09-n800
 OpenBabel11261920573D

 18 17  0  0  0  0  0  0  0  0999 V2000
   -2.0494    0.4312    0.0948 C   0  0  0  0  0  0  0  0  0  0  0  0
   -2.0138    0.3003    1.4808 N   0  0  0  0  0  0  0  0  0  0  0  0
   -1.7735    0.6325    2.5419 N   0  0  0  0  0  0  0  0  0  0  0  0
   -2.6135   -0.6325   -0.6255 C   0  0  0  0  0  0  0  0  0  0  0  0
   -2.6603   -0.5391   -2.0103 C   0  0  0  0  0  0  0  0  0  0  0  0
   -2.1491    0.5984   -2.6460 C   0  0  0  0  0  0  0  0  0  0  0  0
   -1.5898    1.6447   -1.9055 C   0  0  0  0  0  0  0  0  0  0  0  0
   -1.5286    1.5840   -0.5166 C   0  0  0  0  0  0  0  0  0  0  0  0
   -3.0013   -1.4971   -0.0982 H   0  0  0  0  0  0  0  0  0  0  0  0
   -3.0930   -1.3459   -2.5920 H   0  0  0  0  0  0  0  0  0  0  0  0
   -2.1905    0.6702   -3.7289 H   0  0  0  0  0  0  0  0  0  0  0  0
   -1.2031    2.5240   -2.4097 H   0  0  0  0  0  0  0  0  0  0  0  0
   -1.1148    2.3978    0.0678 H   0  0  0  0  0  0  0  0  0  0  0  0
   -1.8276    3.4707    2.2287 B   0  0  0  0  0  0  0  0  0  0  0  0
   -0.9467    2.2438    2.5226 F   0  0  0  0  0  0  0  0  0  0  0  0
   -1.1573    4.1113    1.1956 F   0  0  0  0  0  0  0  0  0  0  0  0
   -3.0303    2.9282    1.7991 F   0  0  0  0  0  0  0  0  0  0  0  0
   -1.9113    4.1907    3.3764 F   0  0  0  0  0  0  0  0  0  0  0  0
  1  2  1  0  0  0  0
  2  3  2  0  0  0  0
  4  9  1  0  0  0  0
  4  1  2  0  0  0  0
  5  4  1  0  0  0  0
  6  5  2  0  0  0  0
  6  7  1  0  0  0  0
  7  8  2  0  0  0  0
  8 13  1  0  0  0  0
  8  1  1  0  0  0  0
 10  5  1  0  0  0  0
 11  6  1  0  0  0  0
 12  7  1  0  0  0  0
 14 15  1  0  0  0  0
 14 18  1  0  0  0  0
 16 14  1  0  0  0  0
 17 14  1  0  0  0  0
M  RAD  1   3   2
M  END
