Coordinates from ORCA-job PhN2+~BF4-_B3LYPG-6-31G_dp-NX-Scan-d89-09-n800
 OpenBabel11261920563D

 18 17  0  0  0  0  0  0  0  0999 V2000
   -1.2296   -0.6120    0.1459 C   0  0  0  0  0  0  0  0  0  0  0  0
   -0.7791   -1.6922    0.8167 N   0  0  0  0  0  0  0  0  0  0  0  0
   -0.4017   -2.5774    1.3972 N   0  0  0  0  0  0  0  0  0  0  0  0
   -2.4658   -0.7128   -0.5449 C   0  0  0  0  0  0  0  0  0  0  0  0
   -2.9463    0.4267   -1.1498 C   0  0  0  0  0  0  0  0  0  0  0  0
   -2.2410    1.6425   -1.0438 C   0  0  0  0  0  0  0  0  0  0  0  0
   -0.9863    1.7037   -0.3955 C   0  0  0  0  0  0  0  0  0  0  0  0
   -0.4677    0.5881    0.2130 C   0  0  0  0  0  0  0  0  0  0  0  0
   -3.0008   -1.6556   -0.5713 H   0  0  0  0  0  0  0  0  0  0  0  0
   -3.8966    0.3997   -1.6705 H   0  0  0  0  0  0  0  0  0  0  0  0
   -2.6456    2.5512   -1.4785 H   0  0  0  0  0  0  0  0  0  0  0  0
   -0.5085    2.6706   -0.2943 H   0  0  0  0  0  0  0  0  0  0  0  0
    0.4677    0.6086    0.7603 H   0  0  0  0  0  0  0  0  0  0  0  0
   -2.9587    4.1109    0.5311 B   0  0  0  0  0  0  0  0  0  0  0  0
   -3.6542    4.9163    1.3975 F   0  0  0  0  0  0  0  0  0  0  0  0
   -3.3081    4.3447   -0.8189 F   0  0  0  0  0  0  0  0  0  0  0  0
   -1.5622    4.2709    0.6713 F   0  0  0  0  0  0  0  0  0  0  0  0
   -3.2693    2.7293    0.8095 F   0  0  0  0  0  0  0  0  0  0  0  0
  1  8  1  0  0  0  0
  1  2  1  0  0  0  0
  2  3  1  0  0  0  0
  4  1  2  0  0  0  0
  5  6  2  0  0  0  0
  5  4  1  0  0  0  0
  6  7  1  0  0  0  0
  7 12  1  0  0  0  0
  7  8  2  0  0  0  0
  8 13  1  0  0  0  0
  9  4  1  0  0  0  0
 10  5  1  0  0  0  0
 11  6  1  0  0  0  0
 14 17  1  0  0  0  0
 14 18  1  0  0  0  0
 14 15  1  0  0  0  0
 16 14  1  0  0  0  0
M  RAD  2   2   2   3   3
M  END
