Coordinates from ORCA-job PhN2+~BF4-_B3LYPG-6-31G_dp-NX-Scan-d89-09-n800
 OpenBabel11261920573D

 18 17  0  0  0  0  0  0  0  0999 V2000
   -2.3703    0.3545   -0.0329 C   0  0  0  0  0  0  0  0  0  0  0  0
   -2.7440    0.1806    1.3353 N   0  0  0  0  0  0  0  0  0  0  0  0
   -2.2645    0.8365    2.2769 N   0  0  0  0  0  0  0  0  0  0  0  0
   -2.5323   -0.8072   -0.8051 C   0  0  0  0  0  0  0  0  0  0  0  0
   -2.2502   -0.7965   -2.1678 C   0  0  0  0  0  0  0  0  0  0  0  0
   -1.8448    0.3891   -2.7848 C   0  0  0  0  0  0  0  0  0  0  0  0
   -1.7212    1.5575   -2.0293 C   0  0  0  0  0  0  0  0  0  0  0  0
   -1.9689    1.5511   -0.6575 C   0  0  0  0  0  0  0  0  0  0  0  0
   -2.8779   -1.7079   -0.3088 H   0  0  0  0  0  0  0  0  0  0  0  0
   -2.3633   -1.7061   -2.7502 H   0  0  0  0  0  0  0  0  0  0  0  0
   -1.6352    0.4062   -3.8501 H   0  0  0  0  0  0  0  0  0  0  0  0
   -1.4213    2.4846   -2.5085 H   0  0  0  0  0  0  0  0  0  0  0  0
   -1.8712    2.4709   -0.0967 H   0  0  0  0  0  0  0  0  0  0  0  0
   -1.6397    4.2049    2.7936 B   0  0  0  0  0  0  0  0  0  0  0  0
   -1.4262    1.6474    1.9930 F   0  0  0  0  0  0  0  0  0  0  0  0
   -1.6522    4.4284    1.4886 F   0  0  0  0  0  0  0  0  0  0  0  0
   -2.7622    3.9178    3.4182 F   0  0  0  0  0  0  0  0  0  0  0  0
   -0.5084    4.3012    3.4612 F   0  0  0  0  0  0  0  0  0  0  0  0
  1  2  1  0  0  0  0
  2  3  2  0  0  0  0
  4  9  1  0  0  0  0
  4  1  2  0  0  0  0
  5  4  1  0  0  0  0
  6  5  2  0  0  0  0
  6  7  1  0  0  0  0
  7  8  2  0  0  0  0
  8 13  1  0  0  0  0
  8  1  1  0  0  0  0
 10  5  1  0  0  0  0
 11  6  1  0  0  0  0
 12  7  1  0  0  0  0
 14 17  1  0  0  0  0
 14 18  1  0  0  0  0
 15  3  1  0  0  0  0
 16 14  1  0  0  0  0
M  END
