Coordinates from ORCA-job PhN2+~BF4-_B3LYPG-6-31G_dp-NX-Scan-d89-09-n800
 OpenBabel11261920573D

 18 17  0  0  0  0  0  0  0  0999 V2000
   -1.9520    0.4495    0.0157 C   0  0  0  0  0  0  0  0  0  0  0  0
   -1.7611    0.2784    1.3768 N   0  0  0  0  0  0  0  0  0  0  0  0
   -1.5436    0.3496    2.4673 N   0  0  0  0  0  0  0  0  0  0  0  0
   -2.3778   -0.6632   -0.7274 C   0  0  0  0  0  0  0  0  0  0  0  0
   -2.5707   -0.4923   -2.0909 C   0  0  0  0  0  0  0  0  0  0  0  0
   -2.3416    0.7605   -2.6744 C   0  0  0  0  0  0  0  0  0  0  0  0
   -1.9155    1.8481   -1.9056 C   0  0  0  0  0  0  0  0  0  0  0  0
   -1.7081    1.7207   -0.5361 C   0  0  0  0  0  0  0  0  0  0  0  0
   -2.5512   -1.6162   -0.2402 H   0  0  0  0  0  0  0  0  0  0  0  0
   -2.9012   -1.3287   -2.6968 H   0  0  0  0  0  0  0  0  0  0  0  0
   -2.5011    0.8890   -3.7407 H   0  0  0  0  0  0  0  0  0  0  0  0
   -1.7467    2.8132   -2.3712 H   0  0  0  0  0  0  0  0  0  0  0  0
   -1.3884    2.5522    0.0818 H   0  0  0  0  0  0  0  0  0  0  0  0
   -1.7351    3.2734    2.3921 B   0  0  0  0  0  0  0  0  0  0  0  0
   -1.8114    3.6725    3.6973 F   0  0  0  0  0  0  0  0  0  0  0  0
   -0.5831    2.4071    2.2268 F   0  0  0  0  0  0  0  0  0  0  0  0
   -2.8755    2.4970    2.0389 F   0  0  0  0  0  0  0  0  0  0  0  0
   -1.5899    4.3026    1.4615 F   0  0  0  0  0  0  0  0  0  0  0  0
  1  2  1  0  0  0  0
  2  3  1  0  0  0  0
  4  9  1  0  0  0  0
  4  1  2  0  0  0  0
  5  4  1  0  0  0  0
  6  5  2  0  0  0  0
  6  7  1  0  0  0  0
  7  8  2  0  0  0  0
  8  1  1  0  0  0  0
  8 13  1  0  0  0  0
 10  5  1  0  0  0  0
 11  6  1  0  0  0  0
 12  7  1  0  0  0  0
 14 15  1  0  0  0  0
 16 14  1  0  0  0  0
 17 14  1  0  0  0  0
 18 14  1  0  0  0  0
M  RAD  2   2   2   3   3
M  END
