Coordinates from ORCA-job PhN2+~BF4-_B3LYPG-6-31G_dp-NX-Scan-d89-09-n800
 OpenBabel11261920563D

 18 17  0  0  0  0  0  0  0  0999 V2000
   -1.7378    0.1923    0.1341 C   0  0  0  0  0  0  0  0  0  0  0  0
   -1.4023   -0.3084    1.3690 N   0  0  0  0  0  0  0  0  0  0  0  0
   -1.1262   -0.8463    2.3068 N   0  0  0  0  0  0  0  0  0  0  0  0
   -2.5048   -0.6594   -0.6991 C   0  0  0  0  0  0  0  0  0  0  0  0
   -2.8122   -0.1924   -1.9606 C   0  0  0  0  0  0  0  0  0  0  0  0
   -2.3713    1.0825   -2.3673 C   0  0  0  0  0  0  0  0  0  0  0  0
   -1.6266    1.8968   -1.5190 C   0  0  0  0  0  0  0  0  0  0  0  0
   -1.2916    1.4709   -0.2346 C   0  0  0  0  0  0  0  0  0  0  0  0
   -2.8317   -1.6309   -0.3473 H   0  0  0  0  0  0  0  0  0  0  0  0
   -3.3987   -0.8090   -2.6330 H   0  0  0  0  0  0  0  0  0  0  0  0
   -2.6313    1.4383   -3.3592 H   0  0  0  0  0  0  0  0  0  0  0  0
   -1.3265    2.8920   -1.8236 H   0  0  0  0  0  0  0  0  0  0  0  0
   -0.7369    2.1060    0.4558 H   0  0  0  0  0  0  0  0  0  0  0  0
   -2.0297    3.4453    1.9163 B   0  0  0  0  0  0  0  0  0  0  0  0
   -2.4491    4.4476    2.7629 F   0  0  0  0  0  0  0  0  0  0  0  0
   -0.6580    3.6151    1.5545 F   0  0  0  0  0  0  0  0  0  0  0  0
   -2.1306    2.1415    2.4967 F   0  0  0  0  0  0  0  0  0  0  0  0
   -2.7889    3.4314    0.7224 F   0  0  0  0  0  0  0  0  0  0  0  0
  1  2  1  0  0  0  0
  2  3  1  0  0  0  0
  4  9  1  0  0  0  0
  4  1  2  0  0  0  0
  5  4  1  0  0  0  0
  6  5  2  0  0  0  0
  6  7  1  0  0  0  0
  7  8  2  0  0  0  0
  8  1  1  0  0  0  0
  8 13  1  0  0  0  0
 10  5  1  0  0  0  0
 11  6  1  0  0  0  0
 12  7  1  0  0  0  0
 14 17  1  0  0  0  0
 14 15  1  0  0  0  0
 16 14  1  0  0  0  0
 18 14  1  0  0  0  0
M  RAD  2   2   2   3   3
M  END
