Coordinates from ORCA-job PhN2+~BF4-_B3LYPG-6-31G_dp-NX-Scan-d89-09-n800
 OpenBabel11261920563D

 18 17  0  0  0  0  0  0  0  0999 V2000
   -1.6912    0.4879    0.0809 C   0  0  0  0  0  0  0  0  0  0  0  0
   -1.3204    0.1958    1.3805 N   0  0  0  0  0  0  0  0  0  0  0  0
   -1.0013   -0.1749    2.3783 N   0  0  0  0  0  0  0  0  0  0  0  0
   -2.4874   -0.4720   -0.5739 C   0  0  0  0  0  0  0  0  0  0  0  0
   -2.8282   -0.2207   -1.8922 C   0  0  0  0  0  0  0  0  0  0  0  0
   -2.3790    0.9504   -2.5220 C   0  0  0  0  0  0  0  0  0  0  0  0
   -1.5911    1.8807   -1.8421 C   0  0  0  0  0  0  0  0  0  0  0  0
   -1.2332    1.6723   -0.5138 C   0  0  0  0  0  0  0  0  0  0  0  0
   -2.8211   -1.3622   -0.0535 H   0  0  0  0  0  0  0  0  0  0  0  0
   -3.4454   -0.9315   -2.4309 H   0  0  0  0  0  0  0  0  0  0  0  0
   -2.6582    1.1382   -3.5540 H   0  0  0  0  0  0  0  0  0  0  0  0
   -1.2686    2.7908   -2.3350 H   0  0  0  0  0  0  0  0  0  0  0  0
   -0.6702    2.3803    0.0795 H   0  0  0  0  0  0  0  0  0  0  0  0
   -2.1128    3.1102    2.1377 B   0  0  0  0  0  0  0  0  0  0  0  0
   -2.3193    3.9833    3.1761 F   0  0  0  0  0  0  0  0  0  0  0  0
   -0.7527    2.6234    2.1293 F   0  0  0  0  0  0  0  0  0  0  0  0
   -2.9304    1.9496    2.2425 F   0  0  0  0  0  0  0  0  0  0  0  0
   -2.3433    3.7116    0.8874 F   0  0  0  0  0  0  0  0  0  0  0  0
  1  2  1  0  0  0  0
  2  3  1  0  0  0  0
  4  9  1  0  0  0  0
  4  1  2  0  0  0  0
  5  4  1  0  0  0  0
  6  5  2  0  0  0  0
  6  7  1  0  0  0  0
  7  8  2  0  0  0  0
  8 13  1  0  0  0  0
  8  1  1  0  0  0  0
 10  5  1  0  0  0  0
 11  6  1  0  0  0  0
 12  7  1  0  0  0  0
 14 17  1  0  0  0  0
 14 15  1  0  0  0  0
 16 14  1  0  0  0  0
 18 14  1  0  0  0  0
M  RAD  2   2   2   3   3
M  END
