Coordinates from ORCA-job PhN2+~BF4-_B3LYPG-6-31G_dp-NX-Scan-d89-09-n800
 OpenBabel11261920573D

 18 17  0  0  0  0  0  0  0  0999 V2000
   -1.8497    0.5489    0.0224 C   0  0  0  0  0  0  0  0  0  0  0  0
   -1.5994    0.4134    1.3810 N   0  0  0  0  0  0  0  0  0  0  0  0
   -1.3833    0.1405    2.4357 N   0  0  0  0  0  0  0  0  0  0  0  0
   -2.4605   -0.5505   -0.6058 C   0  0  0  0  0  0  0  0  0  0  0  0
   -2.7024   -0.4519   -1.9686 C   0  0  0  0  0  0  0  0  0  0  0  0
   -2.3363    0.7089   -2.6624 C   0  0  0  0  0  0  0  0  0  0  0  0
   -1.7242    1.7808   -2.0048 C   0  0  0  0  0  0  0  0  0  0  0  0
   -1.4723    1.7263   -0.6389 C   0  0  0  0  0  0  0  0  0  0  0  0
   -2.7365   -1.4317   -0.0377 H   0  0  0  0  0  0  0  0  0  0  0  0
   -3.1775   -1.2767   -2.4887 H   0  0  0  0  0  0  0  0  0  0  0  0
   -2.5350    0.7766   -3.7276 H   0  0  0  0  0  0  0  0  0  0  0  0
   -1.4506    2.6743   -2.5554 H   0  0  0  0  0  0  0  0  0  0  0  0
   -1.0100    2.5208   -0.0620 H   0  0  0  0  0  0  0  0  0  0  0  0
   -1.8969    3.2669    2.3678 B   0  0  0  0  0  0  0  0  0  0  0  0
   -1.9469    2.9755    3.7197 F   0  0  0  0  0  0  0  0  0  0  0  0
   -0.6382    2.7790    1.8380 F   0  0  0  0  0  0  0  0  0  0  0  0
   -2.9028    2.5071    1.6820 F   0  0  0  0  0  0  0  0  0  0  0  0
   -2.0315    4.6049    2.0805 F   0  0  0  0  0  0  0  0  0  0  0  0
  1  2  1  0  0  0  0
  2  3  1  0  0  0  0
  4  9  1  0  0  0  0
  4  1  1  0  0  0  0
  5  4  2  0  0  0  0
  6  7  2  0  0  0  0
  6  5  1  0  0  0  0
  7  8  1  0  0  0  0
  8 13  1  0  0  0  0
  8  1  2  0  0  0  0
 10  5  1  0  0  0  0
 11  6  1  0  0  0  0
 12  7  1  0  0  0  0
 14 15  1  0  0  0  0
 16 14  1  0  0  0  0
 17 14  1  0  0  0  0
 18 14  1  0  0  0  0
M  RAD  2   2   2   3   3
M  END
