Coordinates from ORCA-job PhN2+~BF4-_B3LYPG-6-31G_dp-NX-Scan-d89-09-n800
 OpenBabel11261920563D

 18 17  0  0  1  0  0  0  0  0999 V2000
   -1.1672   -0.7880    0.1494 C   0  0  0  0  0  0  0  0  0  0  0  0
   -0.6198   -1.9634    0.3776 N   0  0  0  0  0  0  0  0  0  0  0  0
   -0.1456   -2.9851    0.5737 N   0  0  0  0  0  0  0  0  0  0  0  0
   -2.5113   -0.7052   -0.3815 C   0  0  0  0  0  0  0  0  0  0  0  0
   -3.0466    0.4942   -0.6854 C   0  0  0  0  0  0  0  0  0  0  0  0
   -2.3165    1.7752   -0.4896 C   0  0  2  0  0  0  0  0  0  0  0  0
   -0.9518    1.6255    0.0849 C   0  0  0  0  0  0  0  0  0  0  0  0
   -0.4155    0.4269    0.3889 C   0  0  0  0  0  0  0  0  0  0  0  0
   -3.0648   -1.6243   -0.5461 H   0  0  0  0  0  0  0  0  0  0  0  0
   -4.0478    0.5553   -1.0984 H   0  0  0  0  0  0  0  0  0  0  0  0
   -2.3298    2.4042   -1.3842 H   0  0  0  0  0  0  0  0  0  0  0  0
   -0.3927    2.5389    0.2560 H   0  0  0  0  0  0  0  0  0  0  0  0
    0.5857    0.3482    0.8000 H   0  0  0  0  0  0  0  0  0  0  0  0
   -3.0852    4.6596    0.0927 B   0  0  0  0  0  0  0  0  0  0  0  0
   -4.0536    4.9917    0.9344 F   0  0  0  0  0  0  0  0  0  0  0  0
   -3.3620    4.5448   -1.2073 F   0  0  0  0  0  0  0  0  0  0  0  0
   -1.8124    4.8105    0.4577 F   0  0  0  0  0  0  0  0  0  0  0  0
   -3.1169    2.6040    0.4522 F   0  0  0  0  0  0  0  0  0  0  0  0
  1  2  1  0  0  0  0
  1  8  1  0  0  0  0
  2  3  1  0  0  0  0
  4  1  2  0  0  0  0
  5  6  1  0  0  0  0
  5  4  1  0  0  0  0
  6 11  1  6  0  0  0
  6  7  1  0  0  0  0
  6 18  1  0  0  0  0
  7 12  1  0  0  0  0
  7  8  2  0  0  0  0
  8 13  1  0  0  0  0
  9  4  1  0  0  0  0
 10  5  1  0  0  0  0
 14 17  1  0  0  0  0
 14 15  1  0  0  0  0
 16 14  1  0  0  0  0
M  RAD  3   2   2   3   3   5   2
M  END
