Coordinates from ORCA-job PhN2+~BF4-_B3LYPG-6-31G_dp-NX-Scan-d89-09-n800
 OpenBabel11261920573D

 18 17  0  0  0  0  0  0  0  0999 V2000
   -1.8982    0.5712    0.0147 C   0  0  0  0  0  0  0  0  0  0  0  0
   -1.6881    0.4842    1.3845 N   0  0  0  0  0  0  0  0  0  0  0  0
   -1.5119    0.2725    2.4621 N   0  0  0  0  0  0  0  0  0  0  0  0
   -2.4779   -0.5537   -0.5981 C   0  0  0  0  0  0  0  0  0  0  0  0
   -2.6808   -0.4985   -1.9696 C   0  0  0  0  0  0  0  0  0  0  0  0
   -2.3036    0.6444   -2.6873 C   0  0  0  0  0  0  0  0  0  0  0  0
   -1.7210    1.7412   -2.0448 C   0  0  0  0  0  0  0  0  0  0  0  0
   -1.5105    1.7316   -0.6701 C   0  0  0  0  0  0  0  0  0  0  0  0
   -2.7613   -1.4205   -0.0119 H   0  0  0  0  0  0  0  0  0  0  0  0
   -3.1329   -1.3429   -2.4784 H   0  0  0  0  0  0  0  0  0  0  0  0
   -2.4697    0.6774   -3.7598 H   0  0  0  0  0  0  0  0  0  0  0  0
   -1.4364    2.6189   -2.6150 H   0  0  0  0  0  0  0  0  0  0  0  0
   -1.0725    2.5498   -0.1057 H   0  0  0  0  0  0  0  0  0  0  0  0
   -1.8472    3.2865    2.3964 B   0  0  0  0  0  0  0  0  0  0  0  0
   -1.8046    2.5887    3.6113 F   0  0  0  0  0  0  0  0  0  0  0  0
   -0.6153    3.0280    1.7020 F   0  0  0  0  0  0  0  0  0  0  0  0
   -2.8732    2.7019    1.5889 F   0  0  0  0  0  0  0  0  0  0  0  0
   -2.0487    4.6324    2.5557 F   0  0  0  0  0  0  0  0  0  0  0  0
  1  2  1  0  0  0  0
  2  3  1  0  0  0  0
  4  9  1  0  0  0  0
  4  1  1  0  0  0  0
  5  4  2  0  0  0  0
  6  7  2  0  0  0  0
  6  5  1  0  0  0  0
  7  8  1  0  0  0  0
  8 13  1  0  0  0  0
  8  1  2  0  0  0  0
 10  5  1  0  0  0  0
 11  6  1  0  0  0  0
 12  7  1  0  0  0  0
 14 18  1  0  0  0  0
 14 15  1  0  0  0  0
 16 14  1  0  0  0  0
 17 14  1  0  0  0  0
M  RAD  2   2   2   3   3
M  END
