Coordinates from ORCA-job PhN2+~BF4-_B3LYPG-6-31G_dp-NX-Scan-d89-09-n800
 OpenBabel11261920563D

 18 17  0  0  0  0  0  0  0  0999 V2000
   -1.6625    0.4710    0.0934 C   0  0  0  0  0  0  0  0  0  0  0  0
   -1.2642    0.1441    1.3741 N   0  0  0  0  0  0  0  0  0  0  0  0
   -0.9156   -0.2671    2.3472 N   0  0  0  0  0  0  0  0  0  0  0  0
   -2.5065   -0.4515   -0.5585 C   0  0  0  0  0  0  0  0  0  0  0  0
   -2.8614   -0.1702   -1.8657 C   0  0  0  0  0  0  0  0  0  0  0  0
   -2.3806    0.9931   -2.4896 C   0  0  0  0  0  0  0  0  0  0  0  0
   -1.5504    1.8867   -1.8135 C   0  0  0  0  0  0  0  0  0  0  0  0
   -1.1798    1.6501   -0.4929 C   0  0  0  0  0  0  0  0  0  0  0  0
   -2.8605   -1.3370   -0.0436 H   0  0  0  0  0  0  0  0  0  0  0  0
   -3.5131   -0.8508   -2.4026 H   0  0  0  0  0  0  0  0  0  0  0  0
   -2.6702    1.2028   -3.5144 H   0  0  0  0  0  0  0  0  0  0  0  0
   -1.2069    2.7926   -2.2997 H   0  0  0  0  0  0  0  0  0  0  0  0
   -0.5827    2.3300    0.1004 H   0  0  0  0  0  0  0  0  0  0  0  0
   -2.1609    3.0971    2.0907 B   0  0  0  0  0  0  0  0  0  0  0  0
   -2.4118    4.0780    3.0208 F   0  0  0  0  0  0  0  0  0  0  0  0
   -0.7713    2.7107    2.0933 F   0  0  0  0  0  0  0  0  0  0  0  0
   -2.8839    1.9002    2.3491 F   0  0  0  0  0  0  0  0  0  0  0  0
   -2.4715    3.5334    0.7865 F   0  0  0  0  0  0  0  0  0  0  0  0
  1  2  1  0  0  0  0
  2  3  1  0  0  0  0
  4  9  1  0  0  0  0
  4  1  2  0  0  0  0
  5  4  1  0  0  0  0
  6  5  2  0  0  0  0
  6  7  1  0  0  0  0
  7  8  2  0  0  0  0
  8  1  1  0  0  0  0
  8 13  1  0  0  0  0
 10  5  1  0  0  0  0
 11  6  1  0  0  0  0
 12  7  1  0  0  0  0
 14 16  1  0  0  0  0
 14 17  1  0  0  0  0
 14 15  1  0  0  0  0
 18 14  1  0  0  0  0
M  RAD  2   2   2   3   3
M  END
