Coordinates from ORCA-job PhN2+~BF4-_B3LYPG-6-31G_dp-NX-Scan-d89-09-n800
 OpenBabel11261920573D

 18 17  0  0  0  0  0  0  0  0999 V2000
   -2.0513    0.4337    0.0928 C   0  0  0  0  0  0  0  0  0  0  0  0
   -2.0139    0.3062    1.4785 N   0  0  0  0  0  0  0  0  0  0  0  0
   -1.7793    0.6257    2.5434 N   0  0  0  0  0  0  0  0  0  0  0  0
   -2.6119   -0.6331   -0.6259 C   0  0  0  0  0  0  0  0  0  0  0  0
   -2.6584   -0.5411   -2.0107 C   0  0  0  0  0  0  0  0  0  0  0  0
   -2.1507    0.5975   -2.6475 C   0  0  0  0  0  0  0  0  0  0  0  0
   -1.5952    1.6465   -1.9082 C   0  0  0  0  0  0  0  0  0  0  0  0
   -1.5341    1.5878   -0.5192 C   0  0  0  0  0  0  0  0  0  0  0  0
   -2.9971   -1.4983   -0.0979 H   0  0  0  0  0  0  0  0  0  0  0  0
   -3.0883   -1.3499   -2.5918 H   0  0  0  0  0  0  0  0  0  0  0  0
   -2.1919    0.6678   -3.7306 H   0  0  0  0  0  0  0  0  0  0  0  0
   -1.2111    2.5265   -2.4134 H   0  0  0  0  0  0  0  0  0  0  0  0
   -1.1230    2.4036    0.0650 H   0  0  0  0  0  0  0  0  0  0  0  0
   -1.8201    3.4670    2.2324 B   0  0  0  0  0  0  0  0  0  0  0  0
   -0.9482    2.2462    2.5448 F   0  0  0  0  0  0  0  0  0  0  0  0
   -1.1425    4.0999    1.1971 F   0  0  0  0  0  0  0  0  0  0  0  0
   -3.0221    2.9255    1.7957 F   0  0  0  0  0  0  0  0  0  0  0  0
   -1.9148    4.2017    3.3706 F   0  0  0  0  0  0  0  0  0  0  0  0
  1  2  1  0  0  0  0
  2  3  1  0  0  0  0
  4  9  1  0  0  0  0
  4  1  2  0  0  0  0
  5  4  1  0  0  0  0
  6  5  2  0  0  0  0
  6  7  1  0  0  0  0
  7  8  2  0  0  0  0
  8 13  1  0  0  0  0
  8  1  1  0  0  0  0
 10  5  1  0  0  0  0
 11  6  1  0  0  0  0
 12  7  1  0  0  0  0
 14 15  1  0  0  0  0
 14 18  1  0  0  0  0
 16 14  1  0  0  0  0
 17 14  1  0  0  0  0
M  RAD  2   2   2   3   3
M  END
