Coordinates from ORCA-job PhN2+~BF4-_B3LYPG-6-31G_dp-NX-Scan-d89-09-n800
 OpenBabel11261920563D

 18 17  0  0  0  0  0  0  0  0999 V2000
   -1.2817   -0.1286    0.2594 C   0  0  0  0  0  0  0  0  0  0  0  0
   -0.7864   -0.9593    1.2036 N   0  0  0  0  0  0  0  0  0  0  0  0
   -0.3685   -1.6648    1.9714 N   0  0  0  0  0  0  0  0  0  0  0  0
   -2.5738   -0.3973   -0.2585 C   0  0  0  0  0  0  0  0  0  0  0  0
   -3.0642    0.4685   -1.2078 C   0  0  0  0  0  0  0  0  0  0  0  0
   -2.3078    1.5853   -1.6090 C   0  0  0  0  0  0  0  0  0  0  0  0
   -1.0179    1.8149   -1.1040 C   0  0  0  0  0  0  0  0  0  0  0  0
   -0.4945    0.9757   -0.1452 C   0  0  0  0  0  0  0  0  0  0  0  0
   -3.1403   -1.2497    0.0980 H   0  0  0  0  0  0  0  0  0  0  0  0
   -4.0574    0.3170   -1.6131 H   0  0  0  0  0  0  0  0  0  0  0  0
   -2.7174    2.2670   -2.3424 H   0  0  0  0  0  0  0  0  0  0  0  0
   -0.4710    2.6997   -1.3987 H   0  0  0  0  0  0  0  0  0  0  0  0
    0.4722    1.1556    0.3092 H   0  0  0  0  0  0  0  0  0  0  0  0
   -2.8120    3.3865    0.9488 B   0  0  0  0  0  0  0  0  0  0  0  0
   -3.4839    4.2605    1.7760 F   0  0  0  0  0  0  0  0  0  0  0  0
   -1.5542    3.8938    0.5630 F   0  0  0  0  0  0  0  0  0  0  0  0
   -2.6166    2.1246    1.5694 F   0  0  0  0  0  0  0  0  0  0  0  0
   -3.5784    3.1640   -0.2450 F   0  0  0  0  0  0  0  0  0  0  0  0
  1  2  1  0  0  0  0
  2  3  1  0  0  0  0
  4  9  1  0  0  0  0
  4  1  2  0  0  0  0
  5  4  1  0  0  0  0
  6  5  2  0  0  0  0
  6  7  1  0  0  0  0
  7  8  2  0  0  0  0
  8  1  1  0  0  0  0
  8 13  1  0  0  0  0
 10  5  1  0  0  0  0
 11  6  1  0  0  0  0
 12  7  1  0  0  0  0
 14 17  1  0  0  0  0
 14 15  1  0  0  0  0
 16 14  1  0  0  0  0
 18 14  1  0  0  0  0
M  RAD  2   2   2   3   3
M  END
