Coordinates from ORCA-job PhN2+~BF4-_B3LYPG-6-31G_dp-NX-Scan-d89-09-n800
 OpenBabel11261920573D

 18 17  0  0  0  0  0  0  0  0999 V2000
   -1.9089    0.5693    0.0149 C   0  0  0  0  0  0  0  0  0  0  0  0
   -1.7108    0.4900    1.3866 N   0  0  0  0  0  0  0  0  0  0  0  0
   -1.5497    0.3018    2.4715 N   0  0  0  0  0  0  0  0  0  0  0  0
   -2.4744   -0.5617   -0.6002 C   0  0  0  0  0  0  0  0  0  0  0  0
   -2.6706   -0.5099   -1.9727 C   0  0  0  0  0  0  0  0  0  0  0  0
   -2.3001    0.6358   -2.6897 C   0  0  0  0  0  0  0  0  0  0  0  0
   -1.7296    1.7379   -2.0456 C   0  0  0  0  0  0  0  0  0  0  0  0
   -1.5257    1.7314   -0.6696 C   0  0  0  0  0  0  0  0  0  0  0  0
   -2.7528   -1.4304   -0.0143 H   0  0  0  0  0  0  0  0  0  0  0  0
   -3.1120   -1.3591   -2.4830 H   0  0  0  0  0  0  0  0  0  0  0  0
   -2.4615    0.6665   -3.7629 H   0  0  0  0  0  0  0  0  0  0  0  0
   -1.4491    2.6171   -2.6154 H   0  0  0  0  0  0  0  0  0  0  0  0
   -1.0956    2.5536   -0.1052 H   0  0  0  0  0  0  0  0  0  0  0  0
   -1.8309    3.2937    2.3948 B   0  0  0  0  0  0  0  0  0  0  0  0
   -1.7901    2.5329    3.5782 F   0  0  0  0  0  0  0  0  0  0  0  0
   -0.6032    3.0634    1.6907 F   0  0  0  0  0  0  0  0  0  0  0  0
   -2.8620    2.7522    1.5678 F   0  0  0  0  0  0  0  0  0  0  0  0
   -2.0268    4.6287    2.6289 F   0  0  0  0  0  0  0  0  0  0  0  0
  1  2  1  0  0  0  0
  2  3  1  0  0  0  0
  4  9  1  0  0  0  0
  4  1  1  0  0  0  0
  5  4  2  0  0  0  0
  6  7  2  0  0  0  0
  6  5  1  0  0  0  0
  7  8  1  0  0  0  0
  8 13  1  0  0  0  0
  8  1  2  0  0  0  0
 10  5  1  0  0  0  0
 11  6  1  0  0  0  0
 12  7  1  0  0  0  0
 14 18  1  0  0  0  0
 14 15  1  0  0  0  0
 16 14  1  0  0  0  0
 17 14  1  0  0  0  0
M  RAD  2   2   2   3   3
M  END
