Coordinates from ORCA-job PhN2+~BF4-_B3LYPG-6-31G_dp-NX-Scan-d89-09-n800
 OpenBabel11261920563D

 18 17  0  0  0  0  0  0  0  0999 V2000
   -1.2456   -0.5598    0.1579 C   0  0  0  0  0  0  0  0  0  0  0  0
   -0.8348   -1.6027    0.9073 N   0  0  0  0  0  0  0  0  0  0  0  0
   -0.4934   -2.4532    1.5579 N   0  0  0  0  0  0  0  0  0  0  0  0
   -2.4809   -0.6689   -0.5345 C   0  0  0  0  0  0  0  0  0  0  0  0
   -2.9382    0.4509   -1.1893 C   0  0  0  0  0  0  0  0  0  0  0  0
   -2.2144    1.6593   -1.1227 C   0  0  0  0  0  0  0  0  0  0  0  0
   -0.9477    1.7187   -0.4992 C   0  0  0  0  0  0  0  0  0  0  0  0
   -0.4527    0.6213    0.1598 C   0  0  0  0  0  0  0  0  0  0  0  0
   -3.0366   -1.5999   -0.5154 H   0  0  0  0  0  0  0  0  0  0  0  0
   -3.8909    0.4224   -1.7053 H   0  0  0  0  0  0  0  0  0  0  0  0
   -2.6154    2.5630   -1.5697 H   0  0  0  0  0  0  0  0  0  0  0  0
   -0.4407    2.6731   -0.4444 H   0  0  0  0  0  0  0  0  0  0  0  0
    0.4846    0.6464    0.7037 H   0  0  0  0  0  0  0  0  0  0  0  0
   -2.9569    4.0059    0.5879 B   0  0  0  0  0  0  0  0  0  0  0  0
   -3.6582    4.7400    1.5116 F   0  0  0  0  0  0  0  0  0  0  0  0
   -3.2877    4.3478   -0.7417 F   0  0  0  0  0  0  0  0  0  0  0  0
   -1.5624    4.1413    0.7600 F   0  0  0  0  0  0  0  0  0  0  0  0
   -3.2821    2.6075    0.7511 F   0  0  0  0  0  0  0  0  0  0  0  0
  1  8  1  0  0  0  0
  1  2  1  0  0  0  0
  2  3  1  0  0  0  0
  4  9  1  0  0  0  0
  4  1  2  0  0  0  0
  5  6  2  0  0  0  0
  5  4  1  0  0  0  0
  6  7  1  0  0  0  0
  7 12  1  0  0  0  0
  7  8  2  0  0  0  0
  8 13  1  0  0  0  0
 10  5  1  0  0  0  0
 11  6  1  0  0  0  0
 14 18  1  0  0  0  0
 14 17  1  0  0  0  0
 14 15  1  0  0  0  0
 16 14  1  0  0  0  0
M  RAD  2   2   2   3   3
M  END
