Coordinates from ORCA-job PhN2+~BF4-_B3LYPG-6-31G_dp-NX-Scan-d89-09-n800
 OpenBabel11261920563D

 18 17  0  0  0  0  0  0  0  0999 V2000
   -1.7546    0.2881    0.1220 C   0  0  0  0  0  0  0  0  0  0  0  0
   -1.4357   -0.1481    1.3893 N   0  0  0  0  0  0  0  0  0  0  0  0
   -1.1661   -0.6385    2.3527 N   0  0  0  0  0  0  0  0  0  0  0  0
   -2.5354   -0.5896   -0.6645 C   0  0  0  0  0  0  0  0  0  0  0  0
   -2.8252   -0.1911   -1.9553 C   0  0  0  0  0  0  0  0  0  0  0  0
   -2.3465    1.0420   -2.4344 C   0  0  0  0  0  0  0  0  0  0  0  0
   -1.5828    1.8847   -1.6298 C   0  0  0  0  0  0  0  0  0  0  0  0
   -1.2744    1.5313   -0.3177 C   0  0  0  0  0  0  0  0  0  0  0  0
   -2.8888   -1.5305   -0.2591 H   0  0  0  0  0  0  0  0  0  0  0  0
   -3.4244   -0.8317   -2.5931 H   0  0  0  0  0  0  0  0  0  0  0  0
   -2.5872    1.3438   -3.4488 H   0  0  0  0  0  0  0  0  0  0  0  0
   -1.2445    2.8450   -2.0010 H   0  0  0  0  0  0  0  0  0  0  0  0
   -0.7113    2.1850    0.3468 H   0  0  0  0  0  0  0  0  0  0  0  0
   -2.0323    3.3377    1.9952 B   0  0  0  0  0  0  0  0  0  0  0  0
   -2.4754    4.2648    2.9075 F   0  0  0  0  0  0  0  0  0  0  0  0
   -0.6747    3.5701    1.6317 F   0  0  0  0  0  0  0  0  0  0  0  0
   -2.0872    2.0012    2.5181 F   0  0  0  0  0  0  0  0  0  0  0  0
   -2.8074    3.3490    0.8156 F   0  0  0  0  0  0  0  0  0  0  0  0
  1  2  1  0  0  0  0
  2  3  1  0  0  0  0
  4  9  1  0  0  0  0
  4  1  2  0  0  0  0
  5  4  1  0  0  0  0
  6  5  2  0  0  0  0
  6  7  1  0  0  0  0
  7  8  2  0  0  0  0
  8  1  1  0  0  0  0
  8 13  1  0  0  0  0
 10  5  1  0  0  0  0
 11  6  1  0  0  0  0
 12  7  1  0  0  0  0
 14 17  1  0  0  0  0
 14 15  1  0  0  0  0
 16 14  1  0  0  0  0
 18 14  1  0  0  0  0
M  RAD  2   2   2   3   3
M  END
