Coordinates from ORCA-job PhN2+~BF4-_B3LYPG-6-31G_dp-NX-Scan-d89-09-n800
 OpenBabel11261920563D

 18 17  0  0  0  0  0  0  0  0999 V2000
   -1.2565   -0.5256    0.1631 C   0  0  0  0  0  0  0  0  0  0  0  0
   -0.8621   -1.5404    0.9588 N   0  0  0  0  0  0  0  0  0  0  0  0
   -0.5361   -2.3642    1.6501 N   0  0  0  0  0  0  0  0  0  0  0  0
   -2.4870   -0.6518   -0.5350 C   0  0  0  0  0  0  0  0  0  0  0  0
   -2.9373    0.4513   -1.2218 C   0  0  0  0  0  0  0  0  0  0  0  0
   -2.2122    1.6598   -1.1774 C   0  0  0  0  0  0  0  0  0  0  0  0
   -0.9442    1.7300   -0.5599 C   0  0  0  0  0  0  0  0  0  0  0  0
   -0.4562    0.6492    0.1316 C   0  0  0  0  0  0  0  0  0  0  0  0
   -3.0467   -1.5794   -0.4912 H   0  0  0  0  0  0  0  0  0  0  0  0
   -3.8888    0.4132   -1.7393 H   0  0  0  0  0  0  0  0  0  0  0  0
   -2.6167    2.5584   -1.6307 H   0  0  0  0  0  0  0  0  0  0  0  0
   -0.4295    2.6810   -0.5288 H   0  0  0  0  0  0  0  0  0  0  0  0
    0.4783    0.6863    0.6794 H   0  0  0  0  0  0  0  0  0  0  0  0
   -2.9389    3.9457    0.6301 B   0  0  0  0  0  0  0  0  0  0  0  0
   -3.6454    4.6560    1.5690 F   0  0  0  0  0  0  0  0  0  0  0  0
   -3.2300    4.3498   -0.6906 F   0  0  0  0  0  0  0  0  0  0  0  0
   -1.5465    4.0435    0.8410 F   0  0  0  0  0  0  0  0  0  0  0  0
   -3.2981    2.5504    0.7265 F   0  0  0  0  0  0  0  0  0  0  0  0
  1  2  1  0  0  0  0
  2  3  1  0  0  0  0
  4  9  1  0  0  0  0
  4  1  2  0  0  0  0
  5  6  2  0  0  0  0
  5  4  1  0  0  0  0
  6  7  1  0  0  0  0
  7 12  1  0  0  0  0
  7  8  2  0  0  0  0
  8  1  1  0  0  0  0
  8 13  1  0  0  0  0
 10  5  1  0  0  0  0
 11  6  1  0  0  0  0
 14 18  1  0  0  0  0
 14 17  1  0  0  0  0
 14 15  1  0  0  0  0
 16 14  1  0  0  0  0
M  RAD  2   2   2   3   3
M  END
