Coordinates from ORCA-job PhN2+~BF4-_B3LYPG-6-31G_dp-NX-Scan-d89-09-n800
 OpenBabel11261920563D

 18 17  0  0  0  0  0  0  0  0999 V2000
   -1.9798    0.4608    0.0031 C   0  0  0  0  0  0  0  0  0  0  0  0
   -1.7890    0.2794    1.3629 N   0  0  0  0  0  0  0  0  0  0  0  0
   -1.5820    0.2857    2.4576 N   0  0  0  0  0  0  0  0  0  0  0  0
   -2.3519   -0.6664   -0.7496 C   0  0  0  0  0  0  0  0  0  0  0  0
   -2.5359   -0.4979   -2.1139 C   0  0  0  0  0  0  0  0  0  0  0  0
   -2.3491    0.7656   -2.6905 C   0  0  0  0  0  0  0  0  0  0  0  0
   -1.9770    1.8657   -1.9125 C   0  0  0  0  0  0  0  0  0  0  0  0
   -1.7825    1.7430   -0.5395 C   0  0  0  0  0  0  0  0  0  0  0  0
   -2.4905   -1.6280   -0.2680 H   0  0  0  0  0  0  0  0  0  0  0  0
   -2.8259   -1.3444   -2.7265 H   0  0  0  0  0  0  0  0  0  0  0  0
   -2.4997    0.8915   -3.7584 H   0  0  0  0  0  0  0  0  0  0  0  0
   -1.8408    2.8385   -2.3729 H   0  0  0  0  0  0  0  0  0  0  0  0
   -1.5114    2.5949    0.0813 H   0  0  0  0  0  0  0  0  0  0  0  0
   -1.6784    3.2616    2.4289 B   0  0  0  0  0  0  0  0  0  0  0  0
   -1.8271    3.9090    3.6217 F   0  0  0  0  0  0  0  0  0  0  0  0
   -0.5817    2.3323    2.5001 F   0  0  0  0  0  0  0  0  0  0  0  0
   -2.8398    2.5039    2.1086 F   0  0  0  0  0  0  0  0  0  0  0  0
   -1.4111    4.1178    1.3427 F   0  0  0  0  0  0  0  0  0  0  0  0
  1  2  1  0  0  0  0
  2  3  1  0  0  0  0
  4  9  1  0  0  0  0
  4  1  2  0  0  0  0
  5  4  1  0  0  0  0
  6  5  2  0  0  0  0
  6  7  1  0  0  0  0
  7  8  2  0  0  0  0
  8  1  1  0  0  0  0
  8 13  1  0  0  0  0
 10  5  1  0  0  0  0
 11  6  1  0  0  0  0
 12  7  1  0  0  0  0
 14 16  1  0  0  0  0
 14 15  1  0  0  0  0
 17 14  1  0  0  0  0
 18 14  1  0  0  0  0
M  RAD  2   2   2   3   3
M  END
