Coordinates from ORCA-job PhN2+~BF4-_B3LYPG-6-31G_dp-NX-Scan-d89-09-n800
 OpenBabel11261920563D

 18 17  0  0  0  0  0  0  0  0999 V2000
   -1.2158   -0.6783    0.1151 C   0  0  0  0  0  0  0  0  0  0  0  0
   -0.6843   -1.7722    0.7060 N   0  0  0  0  0  0  0  0  0  0  0  0
   -0.2308   -2.6650    1.2136 N   0  0  0  0  0  0  0  0  0  0  0  0
   -2.4156   -0.8281   -0.6244 C   0  0  0  0  0  0  0  0  0  0  0  0
   -2.9658    0.3145   -1.1694 C   0  0  0  0  0  0  0  0  0  0  0  0
   -2.3585    1.5670   -0.9655 C   0  0  0  0  0  0  0  0  0  0  0  0
   -1.1508    1.6848   -0.2424 C   0  0  0  0  0  0  0  0  0  0  0  0
   -0.5618    0.5704    0.3059 C   0  0  0  0  0  0  0  0  0  0  0  0
   -2.8703   -1.8058   -0.7392 H   0  0  0  0  0  0  0  0  0  0  0  0
   -3.8899    0.2470   -1.7325 H   0  0  0  0  0  0  0  0  0  0  0  0
   -2.8091    2.4786   -1.3503 H   0  0  0  0  0  0  0  0  0  0  0  0
   -0.7582    2.6821   -0.0616 H   0  0  0  0  0  0  0  0  0  0  0  0
    0.3480    0.6248    0.8930 H   0  0  0  0  0  0  0  0  0  0  0  0
   -2.8695    4.2897    0.4986 B   0  0  0  0  0  0  0  0  0  0  0  0
   -3.5199    5.2482    1.2351 F   0  0  0  0  0  0  0  0  0  0  0  0
   -3.2250    4.3456   -0.8743 F   0  0  0  0  0  0  0  0  0  0  0  0
   -1.4607    4.4266    0.5979 F   0  0  0  0  0  0  0  0  0  0  0  0
   -3.2160    2.9833    0.9693 F   0  0  0  0  0  0  0  0  0  0  0  0
  1  8  1  0  0  0  0
  1  2  1  0  0  0  0
  2  3  1  0  0  0  0
  4  1  2  0  0  0  0
  5  6  2  0  0  0  0
  5  4  1  0  0  0  0
  6  7  1  0  0  0  0
  7 12  1  0  0  0  0
  7  8  2  0  0  0  0
  8 13  1  0  0  0  0
  9  4  1  0  0  0  0
 10  5  1  0  0  0  0
 11  6  1  0  0  0  0
 14 17  1  0  0  0  0
 14 18  1  0  0  0  0
 14 15  1  0  0  0  0
 16 14  1  0  0  0  0
M  RAD  2   2   2   3   3
M  END
