Coordinates from ORCA-job PhN2+~BF4-_B3LYPG-6-31G_dp-NX-Scan-d89-09-n800
 OpenBabel11261920563D

 18 17  0  0  0  0  0  0  0  0999 V2000
   -1.2418   -0.5721    0.1553 C   0  0  0  0  0  0  0  0  0  0  0  0
   -0.8230   -1.6244    0.8868 N   0  0  0  0  0  0  0  0  0  0  0  0
   -0.4742   -2.4839    1.5215 N   0  0  0  0  0  0  0  0  0  0  0  0
   -2.4782   -0.6772   -0.5355 C   0  0  0  0  0  0  0  0  0  0  0  0
   -2.9397    0.4480   -1.1784 C   0  0  0  0  0  0  0  0  0  0  0  0
   -2.2180    1.6572   -1.1034 C   0  0  0  0  0  0  0  0  0  0  0  0
   -0.9531    1.7150   -0.4758 C   0  0  0  0  0  0  0  0  0  0  0  0
   -0.4538    0.6124    0.1712 C   0  0  0  0  0  0  0  0  0  0  0  0
   -3.0307   -1.6102   -0.5261 H   0  0  0  0  0  0  0  0  0  0  0  0
   -3.8924    0.4215   -1.6944 H   0  0  0  0  0  0  0  0  0  0  0  0
   -2.6186    2.5623   -1.5480 H   0  0  0  0  0  0  0  0  0  0  0  0
   -0.4511    2.6717   -0.4110 H   0  0  0  0  0  0  0  0  0  0  0  0
    0.4837    0.6349    0.7147 H   0  0  0  0  0  0  0  0  0  0  0  0
   -2.9602    4.0290    0.5734 B   0  0  0  0  0  0  0  0  0  0  0  0
   -3.6608    4.7763    1.4867 F   0  0  0  0  0  0  0  0  0  0  0  0
   -3.2982    4.3468   -0.7608 F   0  0  0  0  0  0  0  0  0  0  0  0
   -1.5655    4.1736    0.7363 F   0  0  0  0  0  0  0  0  0  0  0  0
   -3.2784    2.6325    0.7626 F   0  0  0  0  0  0  0  0  0  0  0  0
  1  8  1  0  0  0  0
  1  2  1  0  0  0  0
  2  3  1  0  0  0  0
  4  9  1  0  0  0  0
  4  1  2  0  0  0  0
  5  6  2  0  0  0  0
  5  4  1  0  0  0  0
  6  7  1  0  0  0  0
  7 12  1  0  0  0  0
  7  8  2  0  0  0  0
  8 13  1  0  0  0  0
 10  5  1  0  0  0  0
 11  6  1  0  0  0  0
 14 17  1  0  0  0  0
 14 18  1  0  0  0  0
 14 15  1  0  0  0  0
 16 14  1  0  0  0  0
M  RAD  2   2   2   3   3
M  END
