Coordinates from ORCA-job PhN2+~BF4-_B3LYPG-6-31G_dp-NX-Scan-d89-09-n800
 OpenBabel11261920563D

 18 17  0  0  0  0  0  0  0  0999 V2000
   -1.2302   -0.6106    0.1460 C   0  0  0  0  0  0  0  0  0  0  0  0
   -0.7810   -1.6895    0.8196 N   0  0  0  0  0  0  0  0  0  0  0  0
   -0.4045   -2.5734    1.4027 N   0  0  0  0  0  0  0  0  0  0  0  0
   -2.4662   -0.7117   -0.5450 C   0  0  0  0  0  0  0  0  0  0  0  0
   -2.9461    0.4273   -1.1513 C   0  0  0  0  0  0  0  0  0  0  0  0
   -2.2402    1.6428   -1.0462 C   0  0  0  0  0  0  0  0  0  0  0  0
   -0.9853    1.7041   -0.3985 C   0  0  0  0  0  0  0  0  0  0  0  0
   -0.4672    0.5890    0.2113 C   0  0  0  0  0  0  0  0  0  0  0  0
   -3.0019   -1.6543   -0.5701 H   0  0  0  0  0  0  0  0  0  0  0  0
   -3.8964    0.4003   -1.6719 H   0  0  0  0  0  0  0  0  0  0  0  0
   -2.6448    2.5516   -1.4810 H   0  0  0  0  0  0  0  0  0  0  0  0
   -0.5068    2.6708   -0.2983 H   0  0  0  0  0  0  0  0  0  0  0  0
    0.4681    0.6096    0.7588 H   0  0  0  0  0  0  0  0  0  0  0  0
   -2.9585    4.1079    0.5328 B   0  0  0  0  0  0  0  0  0  0  0  0
   -3.6540    4.9107    1.4015 F   0  0  0  0  0  0  0  0  0  0  0  0
   -3.3082    4.3447   -0.8166 F   0  0  0  0  0  0  0  0  0  0  0  0
   -1.5620    4.2683    0.6731 F   0  0  0  0  0  0  0  0  0  0  0  0
   -3.2687    2.7257    0.8083 F   0  0  0  0  0  0  0  0  0  0  0  0
  1  8  1  0  0  0  0
  1  2  1  0  0  0  0
  2  3  1  0  0  0  0
  4  1  2  0  0  0  0
  5  6  2  0  0  0  0
  5  4  1  0  0  0  0
  6  7  1  0  0  0  0
  7 12  1  0  0  0  0
  7  8  2  0  0  0  0
  8 13  1  0  0  0  0
  9  4  1  0  0  0  0
 10  5  1  0  0  0  0
 11  6  1  0  0  0  0
 14 17  1  0  0  0  0
 14 18  1  0  0  0  0
 14 15  1  0  0  0  0
 16 14  1  0  0  0  0
M  RAD  2   2   2   3   3
M  END
