Coordinates from ORCA-job PhN2+~BF4-_B3LYPG-6-31G_dp-NX-Scan-d89-09-n800
 OpenBabel11261920563D

 18 17  0  0  0  0  0  0  0  0999 V2000
   -1.2518   -0.2640    0.2432 C   0  0  0  0  0  0  0  0  0  0  0  0
   -0.7330   -1.1863    1.0862 N   0  0  0  0  0  0  0  0  0  0  0  0
   -0.2936   -1.9675    1.7641 N   0  0  0  0  0  0  0  0  0  0  0  0
   -2.5415   -0.5013   -0.3012 C   0  0  0  0  0  0  0  0  0  0  0  0
   -3.0454    0.4446   -1.1633 C   0  0  0  0  0  0  0  0  0  0  0  0
   -2.3028    1.6034   -1.4643 C   0  0  0  0  0  0  0  0  0  0  0  0
   -1.0171    1.8042   -0.9333 C   0  0  0  0  0  0  0  0  0  0  0  0
   -0.4819    0.8875   -0.0555 C   0  0  0  0  0  0  0  0  0  0  0  0
   -3.0947   -1.3933   -0.0303 H   0  0  0  0  0  0  0  0  0  0  0  0
   -4.0373    0.3192   -1.5802 H   0  0  0  0  0  0  0  0  0  0  0  0
   -2.7189    2.3444   -2.1321 H   0  0  0  0  0  0  0  0  0  0  0  0
   -0.4988    2.7317   -1.1303 H   0  0  0  0  0  0  0  0  0  0  0  0
    0.4853    1.0343    0.4101 H   0  0  0  0  0  0  0  0  0  0  0  0
   -2.8649    3.5921    0.8409 B   0  0  0  0  0  0  0  0  0  0  0  0
   -3.5341    4.5249    1.6046 F   0  0  0  0  0  0  0  0  0  0  0  0
   -1.7725    4.1760    0.1593 F   0  0  0  0  0  0  0  0  0  0  0  0
   -2.3969    2.5074    1.6140 F   0  0  0  0  0  0  0  0  0  0  0  0
   -3.7540    3.0559   -0.1569 F   0  0  0  0  0  0  0  0  0  0  0  0
  1  2  1  0  0  0  0
  2  3  1  0  0  0  0
  4  9  1  0  0  0  0
  4  1  2  0  0  0  0
  5  4  1  0  0  0  0
  6  5  2  0  0  0  0
  6  7  1  0  0  0  0
  7  8  2  0  0  0  0
  8  1  1  0  0  0  0
  8 13  1  0  0  0  0
 10  5  1  0  0  0  0
 11  6  1  0  0  0  0
 12  7  1  0  0  0  0
 14 15  1  0  0  0  0
 14 17  1  0  0  0  0
 16 14  1  0  0  0  0
 18 14  1  0  0  0  0
M  RAD  2   2   2   3   3
M  END
