Coordinates from ORCA-job PhN2+~BF4-_B3LYPG-6-31G_dp-NX-Scan-d89-09-n800
 OpenBabel11261920563D

 18 17  0  0  0  0  0  0  0  0999 V2000
   -1.3037   -0.0545    0.2528 C   0  0  0  0  0  0  0  0  0  0  0  0
   -0.8269   -0.8080    1.2694 N   0  0  0  0  0  0  0  0  0  0  0  0
   -0.4282   -1.4439    2.1040 N   0  0  0  0  0  0  0  0  0  0  0  0
   -2.5784   -0.3754   -0.2750 C   0  0  0  0  0  0  0  0  0  0  0  0
   -3.0685    0.4357   -1.2728 C   0  0  0  0  0  0  0  0  0  0  0  0
   -2.3263    1.5476   -1.7085 C   0  0  0  0  0  0  0  0  0  0  0  0
   -1.0488    1.8206   -1.2006 C   0  0  0  0  0  0  0  0  0  0  0  0
   -0.5278    1.0411   -0.1907 C   0  0  0  0  0  0  0  0  0  0  0  0
   -3.1370   -1.2175    0.1162 H   0  0  0  0  0  0  0  0  0  0  0  0
   -4.0516    0.2452   -1.6864 H   0  0  0  0  0  0  0  0  0  0  0  0
   -2.7446    2.1995   -2.4649 H   0  0  0  0  0  0  0  0  0  0  0  0
   -0.5118    2.7018   -1.5251 H   0  0  0  0  0  0  0  0  0  0  0  0
    0.4187    1.2721    0.2813 H   0  0  0  0  0  0  0  0  0  0  0  0
   -2.7501    3.2892    1.0370 B   0  0  0  0  0  0  0  0  0  0  0  0
   -3.3802    4.1814    1.8784 F   0  0  0  0  0  0  0  0  0  0  0  0
   -1.4013    3.6498    0.8148 F   0  0  0  0  0  0  0  0  0  0  0  0
   -2.7712    1.9721    1.5724 F   0  0  0  0  0  0  0  0  0  0  0  0
   -3.4161    3.2563   -0.2273 F   0  0  0  0  0  0  0  0  0  0  0  0
  1  2  1  0  0  0  0
  2  3  1  0  0  0  0
  4  9  1  0  0  0  0
  4  1  2  0  0  0  0
  5  4  1  0  0  0  0
  6  5  2  0  0  0  0
  6  7  1  0  0  0  0
  7  8  2  0  0  0  0
  8  1  1  0  0  0  0
  8 13  1  0  0  0  0
 10  5  1  0  0  0  0
 11  6  1  0  0  0  0
 12  7  1  0  0  0  0
 14 17  1  0  0  0  0
 14 15  1  0  0  0  0
 16 14  1  0  0  0  0
 18 14  1  0  0  0  0
M  RAD  2   2   2   3   3
M  END
