Coordinates from ORCA-job PhN2+~BF4-_B3LYPG-6-31G_dp-NX-Scan-d89-09-n800
 OpenBabel11261920573D

 18 17  0  0  0  0  0  0  0  0999 V2000
   -1.9101    0.5729    0.0143 C   0  0  0  0  0  0  0  0  0  0  0  0
   -1.7149    0.4967    1.3867 N   0  0  0  0  0  0  0  0  0  0  0  0
   -1.5565    0.3118    2.4727 N   0  0  0  0  0  0  0  0  0  0  0  0
   -2.4730   -0.5603   -0.5989 C   0  0  0  0  0  0  0  0  0  0  0  0
   -2.6681   -0.5123   -1.9717 C   0  0  0  0  0  0  0  0  0  0  0  0
   -2.2990    0.6323   -2.6910 C   0  0  0  0  0  0  0  0  0  0  0  0
   -1.7308    1.7368   -2.0489 C   0  0  0  0  0  0  0  0  0  0  0  0
   -1.5281    1.7341   -0.6728 C   0  0  0  0  0  0  0  0  0  0  0  0
   -2.7504   -1.4282   -0.0113 H   0  0  0  0  0  0  0  0  0  0  0  0
   -3.1075   -1.3634   -2.4805 H   0  0  0  0  0  0  0  0  0  0  0  0
   -2.4596    0.6602   -3.7645 H   0  0  0  0  0  0  0  0  0  0  0  0
   -1.4512    2.6150   -2.6208 H   0  0  0  0  0  0  0  0  0  0  0  0
   -1.0988    2.5582   -0.1107 H   0  0  0  0  0  0  0  0  0  0  0  0
   -1.8295    3.2918    2.3968 B   0  0  0  0  0  0  0  0  0  0  0  0
   -1.7902    2.5140    3.5708 F   0  0  0  0  0  0  0  0  0  0  0  0
   -0.6039    3.0637    1.6889 F   0  0  0  0  0  0  0  0  0  0  0  0
   -2.8645    2.7659    1.5660 F   0  0  0  0  0  0  0  0  0  0  0  0
   -2.0177    4.6240    2.6500 F   0  0  0  0  0  0  0  0  0  0  0  0
  1  2  1  0  0  0  0
  2  3  1  0  0  0  0
  4  9  1  0  0  0  0
  4  1  1  0  0  0  0
  5  4  2  0  0  0  0
  6  7  2  0  0  0  0
  6  5  1  0  0  0  0
  7  8  1  0  0  0  0
  8 13  1  0  0  0  0
  8  1  2  0  0  0  0
 10  5  1  0  0  0  0
 11  6  1  0  0  0  0
 12  7  1  0  0  0  0
 14 18  1  0  0  0  0
 14 15  1  0  0  0  0
 16 14  1  0  0  0  0
 17 14  1  0  0  0  0
M  RAD  2   2   2   3   3
M  END
