Coordinates from ORCA-job PhN2+~BF4-_B3LYPG-6-31G_dp-NX-Scan-d89-09-n800
 OpenBabel11261920563D

 18 17  0  0  0  0  0  0  0  0999 V2000
   -1.2800   -0.1332    0.2618 C   0  0  0  0  0  0  0  0  0  0  0  0
   -0.7794   -0.9740    1.1945 N   0  0  0  0  0  0  0  0  0  0  0  0
   -0.3559   -1.6912    1.9484 N   0  0  0  0  0  0  0  0  0  0  0  0
   -2.5732   -0.3995   -0.2550 C   0  0  0  0  0  0  0  0  0  0  0  0
   -3.0641    0.4689   -1.2015 C   0  0  0  0  0  0  0  0  0  0  0  0
   -2.3073    1.5860   -1.6016 C   0  0  0  0  0  0  0  0  0  0  0  0
   -1.0176    1.8150   -1.0954 C   0  0  0  0  0  0  0  0  0  0  0  0
   -0.4937    0.9733   -0.1391 C   0  0  0  0  0  0  0  0  0  0  0  0
   -3.1392   -1.2533    0.0989 H   0  0  0  0  0  0  0  0  0  0  0  0
   -4.0574    0.3184   -1.6069 H   0  0  0  0  0  0  0  0  0  0  0  0
   -2.7154    2.2671   -2.3362 H   0  0  0  0  0  0  0  0  0  0  0  0
   -0.4702    2.6998   -1.3893 H   0  0  0  0  0  0  0  0  0  0  0  0
    0.4739    1.1510    0.3143 H   0  0  0  0  0  0  0  0  0  0  0  0
   -2.8177    3.3975    0.9432 B   0  0  0  0  0  0  0  0  0  0  0  0
   -3.4918    4.2801    1.7598 F   0  0  0  0  0  0  0  0  0  0  0  0
   -1.5602    3.9026    0.5536 F   0  0  0  0  0  0  0  0  0  0  0  0
   -2.6220    2.1417    1.5749 F   0  0  0  0  0  0  0  0  0  0  0  0
   -3.5829    3.1629   -0.2495 F   0  0  0  0  0  0  0  0  0  0  0  0
  1  2  1  0  0  0  0
  2  3  1  0  0  0  0
  4  9  1  0  0  0  0
  4  1  2  0  0  0  0
  5  4  1  0  0  0  0
  6  5  2  0  0  0  0
  6  7  1  0  0  0  0
  7  8  2  0  0  0  0
  8  1  1  0  0  0  0
  8 13  1  0  0  0  0
 10  5  1  0  0  0  0
 11  6  1  0  0  0  0
 12  7  1  0  0  0  0
 14 17  1  0  0  0  0
 14 15  1  0  0  0  0
 16 14  1  0  0  0  0
 18 14  1  0  0  0  0
M  RAD  2   2   2   3   3
M  END
