Coordinates from ORCA-job PhN2+~BF4-_B3LYPG-6-31G_dp-NX-Scan-d89-09-n800
 OpenBabel11261920573D

 18 17  0  0  0  0  0  0  0  0999 V2000
   -1.9677    0.5514    0.0192 C   0  0  0  0  0  0  0  0  0  0  0  0
   -1.8137    0.4811    1.3961 N   0  0  0  0  0  0  0  0  0  0  0  0
   -1.6788    0.3594    2.4967 N   0  0  0  0  0  0  0  0  0  0  0  0
   -2.5028   -0.5849   -0.6132 C   0  0  0  0  0  0  0  0  0  0  0  0
   -2.6522   -0.5398   -1.9917 C   0  0  0  0  0  0  0  0  0  0  0  0
   -2.2640    0.6058   -2.6994 C   0  0  0  0  0  0  0  0  0  0  0  0
   -1.7235    1.7135   -2.0394 C   0  0  0  0  0  0  0  0  0  0  0  0
   -1.5676    1.7140   -0.6566 C   0  0  0  0  0  0  0  0  0  0  0  0
   -2.7931   -1.4543   -0.0341 H   0  0  0  0  0  0  0  0  0  0  0  0
   -3.0692   -1.3938   -2.5144 H   0  0  0  0  0  0  0  0  0  0  0  0
   -2.3866    0.6316   -3.7780 H   0  0  0  0  0  0  0  0  0  0  0  0
   -1.4271    2.5918   -2.6027 H   0  0  0  0  0  0  0  0  0  0  0  0
   -1.1591    2.5474   -0.0895 H   0  0  0  0  0  0  0  0  0  0  0  0
   -1.7766    3.3386    2.3914 B   0  0  0  0  0  0  0  0  0  0  0  0
   -1.5548    2.3998    3.4408 F   0  0  0  0  0  0  0  0  0  0  0  0
   -0.6155    3.3406    1.5696 F   0  0  0  0  0  0  0  0  0  0  0  0
   -2.8426    2.8268    1.6001 F   0  0  0  0  0  0  0  0  0  0  0  0
   -2.0589    4.5841    2.8799 F   0  0  0  0  0  0  0  0  0  0  0  0
  1  2  1  0  0  0  0
  2  3  1  0  0  0  0
  4  9  1  0  0  0  0
  4  1  1  0  0  0  0
  5  4  2  0  0  0  0
  6  7  2  0  0  0  0
  6  5  1  0  0  0  0
  7  8  1  0  0  0  0
  8 13  1  0  0  0  0
  8  1  2  0  0  0  0
 10  5  1  0  0  0  0
 11  6  1  0  0  0  0
 12  7  1  0  0  0  0
 14 18  1  0  0  0  0
 14 15  1  0  0  0  0
 16 14  1  0  0  0  0
 17 14  1  0  0  0  0
M  RAD  2   2   2   3   3
M  END
