Coordinates from ORCA-job PhN2+~BF4-_B3LYPG-6-31G_dp-NX-Scan-d89-09-n800
 OpenBabel11261920563D

 18 17  0  0  0  0  0  0  0  0999 V2000
   -1.6624    0.4387    0.0996 C   0  0  0  0  0  0  0  0  0  0  0  0
   -1.2585    0.0865    1.3704 N   0  0  0  0  0  0  0  0  0  0  0  0
   -0.9027   -0.3488    2.3313 N   0  0  0  0  0  0  0  0  0  0  0  0
   -2.5083   -0.4726   -0.5677 C   0  0  0  0  0  0  0  0  0  0  0  0
   -2.8651   -0.1669   -1.8680 C   0  0  0  0  0  0  0  0  0  0  0  0
   -2.3859    1.0093   -2.4705 C   0  0  0  0  0  0  0  0  0  0  0  0
   -1.5562    1.8910   -1.7796 C   0  0  0  0  0  0  0  0  0  0  0  0
   -1.1820    1.6300   -0.4641 C   0  0  0  0  0  0  0  0  0  0  0  0
   -2.8599   -1.3682   -0.0688 H   0  0  0  0  0  0  0  0  0  0  0  0
   -3.5171   -0.8376   -2.4170 H   0  0  0  0  0  0  0  0  0  0  0  0
   -2.6779    1.2380   -3.4905 H   0  0  0  0  0  0  0  0  0  0  0  0
   -1.2170    2.8078   -2.2477 H   0  0  0  0  0  0  0  0  0  0  0  0
   -0.5849    2.3009    0.1412 H   0  0  0  0  0  0  0  0  0  0  0  0
   -2.1544    3.1332    2.0652 B   0  0  0  0  0  0  0  0  0  0  0  0
   -2.4557    4.1330    2.9612 F   0  0  0  0  0  0  0  0  0  0  0  0
   -0.7533    2.8093    2.0788 F   0  0  0  0  0  0  0  0  0  0  0  0
   -2.8270    1.9123    2.3544 F   0  0  0  0  0  0  0  0  0  0  0  0
   -2.4854    3.5173    0.7468 F   0  0  0  0  0  0  0  0  0  0  0  0
  1  2  1  0  0  0  0
  2  3  1  0  0  0  0
  4  9  1  0  0  0  0
  4  1  2  0  0  0  0
  5  4  1  0  0  0  0
  6  5  2  0  0  0  0
  6  7  1  0  0  0  0
  7  8  2  0  0  0  0
  8  1  1  0  0  0  0
  8 13  1  0  0  0  0
 10  5  1  0  0  0  0
 11  6  1  0  0  0  0
 12  7  1  0  0  0  0
 14 16  1  0  0  0  0
 14 17  1  0  0  0  0
 14 15  1  0  0  0  0
 18 14  1  0  0  0  0
M  RAD  2   2   2   3   3
M  END
