Coordinates from ORCA-job PhN2+~BF4-_B3LYPG-6-31G_dp-NX-Scan-d89-09-n800
 OpenBabel11261920563D

 18 17  0  0  0  0  0  0  0  0999 V2000
   -1.7656    0.0410    0.1440 C   0  0  0  0  0  0  0  0  0  0  0  0
   -1.4958   -0.5090    1.3693 N   0  0  0  0  0  0  0  0  0  0  0  0
   -1.2778   -1.0091    2.3434 N   0  0  0  0  0  0  0  0  0  0  0  0
   -2.4884   -0.7455   -0.7881 C   0  0  0  0  0  0  0  0  0  0  0  0
   -2.7581   -0.1650   -2.0101 C   0  0  0  0  0  0  0  0  0  0  0  0
   -2.3370    1.1548   -2.2801 C   0  0  0  0  0  0  0  0  0  0  0  0
   -1.6387    1.9024   -1.3367 C   0  0  0  0  0  0  0  0  0  0  0  0
   -1.3283    1.3524   -0.0959 C   0  0  0  0  0  0  0  0  0  0  0  0
   -2.8110   -1.7494   -0.5385 H   0  0  0  0  0  0  0  0  0  0  0  0
   -3.3071   -0.7251   -2.7592 H   0  0  0  0  0  0  0  0  0  0  0  0
   -2.5799    1.5964   -3.2416 H   0  0  0  0  0  0  0  0  0  0  0  0
   -1.3532    2.9329   -1.5098 H   0  0  0  0  0  0  0  0  0  0  0  0
   -0.8085    1.9280    0.6614 H   0  0  0  0  0  0  0  0  0  0  0  0
   -1.9981    3.5737    1.7858 B   0  0  0  0  0  0  0  0  0  0  0  0
   -2.3442    4.6315    2.5952 F   0  0  0  0  0  0  0  0  0  0  0  0
   -0.8901    3.9067    0.9505 F   0  0  0  0  0  0  0  0  0  0  0  0
   -1.6082    2.4201    2.5397 F   0  0  0  0  0  0  0  0  0  0  0  0
   -3.0638    3.1763    0.9457 F   0  0  0  0  0  0  0  0  0  0  0  0
  1  2  1  0  0  0  0
  2  3  1  0  0  0  0
  4  9  1  0  0  0  0
  4  1  2  0  0  0  0
  5  4  1  0  0  0  0
  6  5  2  0  0  0  0
  6  7  1  0  0  0  0
  7  8  2  0  0  0  0
  8  1  1  0  0  0  0
  8 13  1  0  0  0  0
 10  5  1  0  0  0  0
 11  6  1  0  0  0  0
 12  7  1  0  0  0  0
 14 17  1  0  0  0  0
 14 15  1  0  0  0  0
 16 14  1  0  0  0  0
 18 14  1  0  0  0  0
M  RAD  2   2   2   3   3
M  END
