Coordinates from ORCA-job PhN2+~BF4-_B3LYPG-6-31G_dp-NX-Scan-d89-09-n800
 OpenBabel11261920563D

 18 17  0  0  0  0  0  0  0  0999 V2000
   -1.7455    0.2511    0.1305 C   0  0  0  0  0  0  0  0  0  0  0  0
   -1.4155   -0.2177    1.3815 N   0  0  0  0  0  0  0  0  0  0  0  0
   -1.1392   -0.7435    2.3252 N   0  0  0  0  0  0  0  0  0  0  0  0
   -2.5274   -0.6129   -0.6731 C   0  0  0  0  0  0  0  0  0  0  0  0
   -2.8251   -0.1856   -1.9518 C   0  0  0  0  0  0  0  0  0  0  0  0
   -2.3557    1.0624   -2.4040 C   0  0  0  0  0  0  0  0  0  0  0  0
   -1.5942    1.8904   -1.5835 C   0  0  0  0  0  0  0  0  0  0  0  0
   -1.2752    1.5070   -0.2820 C   0  0  0  0  0  0  0  0  0  0  0  0
   -2.8735   -1.5650   -0.2881 H   0  0  0  0  0  0  0  0  0  0  0  0
   -3.4239   -0.8140   -2.6020 H   0  0  0  0  0  0  0  0  0  0  0  0
   -2.6044    1.3869   -3.4094 H   0  0  0  0  0  0  0  0  0  0  0  0
   -1.2672    2.8637   -1.9295 H   0  0  0  0  0  0  0  0  0  0  0  0
   -0.7123    2.1518    0.3917 H   0  0  0  0  0  0  0  0  0  0  0  0
   -2.0367    3.3784    1.9581 B   0  0  0  0  0  0  0  0  0  0  0  0
   -2.4839    4.3428    2.8324 F   0  0  0  0  0  0  0  0  0  0  0  0
   -0.6740    3.5965    1.5984 F   0  0  0  0  0  0  0  0  0  0  0  0
   -2.0988    2.0564    2.5114 F   0  0  0  0  0  0  0  0  0  0  0  0
   -2.8015    3.3644    0.7693 F   0  0  0  0  0  0  0  0  0  0  0  0
  1  2  1  0  0  0  0
  2  3  1  0  0  0  0
  4  9  1  0  0  0  0
  4  1  2  0  0  0  0
  5  4  1  0  0  0  0
  6  5  2  0  0  0  0
  6  7  1  0  0  0  0
  7  8  2  0  0  0  0
  8  1  1  0  0  0  0
  8 13  1  0  0  0  0
 10  5  1  0  0  0  0
 11  6  1  0  0  0  0
 12  7  1  0  0  0  0
 14 17  1  0  0  0  0
 14 15  1  0  0  0  0
 16 14  1  0  0  0  0
 18 14  1  0  0  0  0
M  RAD  2   2   2   3   3
M  END
