Coordinates from ORCA-job PhN2+~BF4-_B3LYPG-6-31G_dp-NX-Scan-d89-09-n800
 OpenBabel11261920563D

 18 17  0  0  0  0  0  0  0  0999 V2000
   -1.2268   -0.6256    0.1403 C   0  0  0  0  0  0  0  0  0  0  0  0
   -0.7620   -1.7104    0.7949 N   0  0  0  0  0  0  0  0  0  0  0  0
   -0.3712   -2.5988    1.3611 N   0  0  0  0  0  0  0  0  0  0  0  0
   -2.4577   -0.7341   -0.5575 C   0  0  0  0  0  0  0  0  0  0  0  0
   -2.9500    0.4070   -1.1515 C   0  0  0  0  0  0  0  0  0  0  0  0
   -2.2604    1.6296   -1.0295 C   0  0  0  0  0  0  0  0  0  0  0  0
   -1.0136    1.7008   -0.3672 C   0  0  0  0  0  0  0  0  0  0  0  0
   -0.4828    0.5844    0.2297 C   0  0  0  0  0  0  0  0  0  0  0  0
   -2.9797   -1.6837   -0.5996 H   0  0  0  0  0  0  0  0  0  0  0  0
   -3.8962    0.3728   -1.6793 H   0  0  0  0  0  0  0  0  0  0  0  0
   -2.6722    2.5390   -1.4565 H   0  0  0  0  0  0  0  0  0  0  0  0
   -0.5526    2.6746   -0.2491 H   0  0  0  0  0  0  0  0  0  0  0  0
    0.4482    0.6108    0.7843 H   0  0  0  0  0  0  0  0  0  0  0  0
   -2.9441    4.1447    0.5239 B   0  0  0  0  0  0  0  0  0  0  0  0
   -3.6344    4.9775    1.3686 F   0  0  0  0  0  0  0  0  0  0  0  0
   -3.2953    4.3453   -0.8319 F   0  0  0  0  0  0  0  0  0  0  0  0
   -1.5458    4.3059    0.6562 F   0  0  0  0  0  0  0  0  0  0  0  0
   -3.2572    2.7734    0.8382 F   0  0  0  0  0  0  0  0  0  0  0  0
  1  8  1  0  0  0  0
  1  2  1  0  0  0  0
  2  3  1  0  0  0  0
  4  1  2  0  0  0  0
  5  6  2  0  0  0  0
  5  4  1  0  0  0  0
  6  7  1  0  0  0  0
  7 12  1  0  0  0  0
  7  8  2  0  0  0  0
  8 13  1  0  0  0  0
  9  4  1  0  0  0  0
 10  5  1  0  0  0  0
 11  6  1  0  0  0  0
 14 17  1  0  0  0  0
 14 18  1  0  0  0  0
 14 15  1  0  0  0  0
 16 14  1  0  0  0  0
M  RAD  2   2   2   3   3
M  END
