Coordinates from ORCA-job PhN2+~BF4-_B3LYPG-6-31G_dp-NX-Scan-d89-09-n800
 OpenBabel11261920563D

 18 17  0  0  0  0  0  0  0  0999 V2000
   -1.8637    0.4794    0.0465 C   0  0  0  0  0  0  0  0  0  0  0  0
   -1.6091    0.2390    1.3863 N   0  0  0  0  0  0  0  0  0  0  0  0
   -1.3959   -0.0728    2.4303 N   0  0  0  0  0  0  0  0  0  0  0  0
   -2.3975   -0.6026   -0.6806 C   0  0  0  0  0  0  0  0  0  0  0  0
   -2.6421   -0.4071   -2.0306 C   0  0  0  0  0  0  0  0  0  0  0  0
   -2.3564    0.8328   -2.6200 C   0  0  0  0  0  0  0  0  0  0  0  0
   -1.8257    1.8834   -1.8673 C   0  0  0  0  0  0  0  0  0  0  0  0
   -1.5657    1.7323   -0.5086 C   0  0  0  0  0  0  0  0  0  0  0  0
   -2.6114   -1.5462   -0.1913 H   0  0  0  0  0  0  0  0  0  0  0  0
   -3.0565   -1.2155   -2.6230 H   0  0  0  0  0  0  0  0  0  0  0  0
   -2.5570    0.9783   -3.6770 H   0  0  0  0  0  0  0  0  0  0  0  0
   -1.6205    2.8414   -2.3326 H   0  0  0  0  0  0  0  0  0  0  0  0
   -1.1879    2.5427    0.1062 H   0  0  0  0  0  0  0  0  0  0  0  0
   -1.8446    3.2398    2.2983 B   0  0  0  0  0  0  0  0  0  0  0  0
   -1.9601    3.9404    3.4708 F   0  0  0  0  0  0  0  0  0  0  0  0
   -0.6365    2.4635    2.2629 F   0  0  0  0  0  0  0  0  0  0  0  0
   -2.9032    2.2986    2.1347 F   0  0  0  0  0  0  0  0  0  0  0  0
   -1.8199    4.0856    1.1700 F   0  0  0  0  0  0  0  0  0  0  0  0
  1  2  1  0  0  0  0
  2  3  1  0  0  0  0
  4  9  1  0  0  0  0
  4  1  2  0  0  0  0
  5  4  1  0  0  0  0
  6  5  2  0  0  0  0
  6  7  1  0  0  0  0
  7  8  2  0  0  0  0
  8  1  1  0  0  0  0
  8 13  1  0  0  0  0
 10  5  1  0  0  0  0
 11  6  1  0  0  0  0
 12  7  1  0  0  0  0
 14 15  1  0  0  0  0
 16 14  1  0  0  0  0
 17 14  1  0  0  0  0
 18 14  1  0  0  0  0
M  RAD  2   2   2   3   3
M  END
