Coordinates from ORCA-job PhN2+~BF4-_B3LYPG-6-31G_dp-NX-Scan-d89-09-n800
 OpenBabel11261920563D

 18 17  0  0  1  0  0  0  0  0999 V2000
   -1.1867   -0.7623    0.1711 C   0  0  0  0  0  0  0  0  0  0  0  0
   -0.6692   -1.9478    0.4276 N   0  0  0  0  0  0  0  0  0  0  0  0
   -0.2226   -2.9751    0.6480 N   0  0  0  0  0  0  0  0  0  0  0  0
   -2.5114   -0.6616   -0.3981 C   0  0  0  0  0  0  0  0  0  0  0  0
   -3.0129    0.5463   -0.7320 C   0  0  0  0  0  0  0  0  0  0  0  0
   -2.2644    1.8049   -0.5173 C   0  0  2  0  0  0  0  0  0  0  0  0
   -0.9146    1.6424    0.0694 C   0  0  0  0  0  0  0  0  0  0  0  0
   -0.4111    0.4362    0.4049 C   0  0  0  0  0  0  0  0  0  0  0  0
   -3.0762   -1.5715   -0.5739 H   0  0  0  0  0  0  0  0  0  0  0  0
   -3.9970    0.6229   -1.1812 H   0  0  0  0  0  0  0  0  0  0  0  0
   -2.2910    2.4743   -1.3787 H   0  0  0  0  0  0  0  0  0  0  0  0
   -0.3379    2.5463    0.2290 H   0  0  0  0  0  0  0  0  0  0  0  0
    0.5825    0.3417    0.8305 H   0  0  0  0  0  0  0  0  0  0  0  0
   -3.1175    4.5102    0.1103 B   0  0  0  0  0  0  0  0  0  0  0  0
   -3.9680    4.8883    1.0638 F   0  0  0  0  0  0  0  0  0  0  0  0
   -3.5645    4.4373   -1.1542 F   0  0  0  0  0  0  0  0  0  0  0  0
   -1.8063    4.7419    0.2843 F   0  0  0  0  0  0  0  0  0  0  0  0
   -3.0851    2.6388    0.4712 F   0  0  0  0  0  0  0  0  0  0  0  0
  1  8  1  0  0  0  0
  1  2  1  0  0  0  0
  2  3  1  0  0  0  0
  4  1  2  0  0  0  0
  5  6  1  0  0  0  0
  5  4  1  0  0  0  0
  6 11  1  6  0  0  0
  6  7  1  0  0  0  0
  6 18  1  0  0  0  0
  7 12  1  0  0  0  0
  7  8  2  0  0  0  0
  8 13  1  0  0  0  0
  9  4  1  0  0  0  0
 10  5  1  0  0  0  0
 14 17  1  0  0  0  0
 14 15  1  0  0  0  0
 16 14  1  0  0  0  0
M  RAD  3   2   2   3   3   5   2
M  END
