Coordinates from ORCA-job PhN2+~BF4-_B3LYPG-6-31G_dp-NX-Scan-d89-09-n800
 OpenBabel11261920573D

 18 17  0  0  0  0  0  0  0  0999 V2000
   -1.8628    0.5623    0.0186 C   0  0  0  0  0  0  0  0  0  0  0  0
   -1.6239    0.4464    1.3814 N   0  0  0  0  0  0  0  0  0  0  0  0
   -1.4219    0.1891    2.4432 N   0  0  0  0  0  0  0  0  0  0  0  0
   -2.4659   -0.5472   -0.5996 C   0  0  0  0  0  0  0  0  0  0  0  0
   -2.6966   -0.4679   -1.9656 C   0  0  0  0  0  0  0  0  0  0  0  0
   -2.3263    0.6837   -2.6725 C   0  0  0  0  0  0  0  0  0  0  0  0
   -1.7217    1.7657   -2.0246 C   0  0  0  0  0  0  0  0  0  0  0  0
   -1.4816    1.7309   -0.6557 C   0  0  0  0  0  0  0  0  0  0  0  0
   -2.7449   -1.4210   -0.0218 H   0  0  0  0  0  0  0  0  0  0  0  0
   -3.1658   -1.3006   -2.4782 H   0  0  0  0  0  0  0  0  0  0  0  0
   -2.5155    0.7361   -3.7402 H   0  0  0  0  0  0  0  0  0  0  0  0
   -1.4440    2.6515   -2.5856 H   0  0  0  0  0  0  0  0  0  0  0  0
   -1.0255    2.5343   -0.0861 H   0  0  0  0  0  0  0  0  0  0  0  0
   -1.8839    3.2697    2.3818 B   0  0  0  0  0  0  0  0  0  0  0  0
   -1.9111    2.8179    3.6951 F   0  0  0  0  0  0  0  0  0  0  0  0
   -0.6318    2.8528    1.7880 F   0  0  0  0  0  0  0  0  0  0  0  0
   -2.8960    2.5805    1.6355 F   0  0  0  0  0  0  0  0  0  0  0  0
   -2.0347    4.6291    2.2612 F   0  0  0  0  0  0  0  0  0  0  0  0
  1  2  1  0  0  0  0
  2  3  1  0  0  0  0
  4  9  1  0  0  0  0
  4  1  1  0  0  0  0
  5  4  2  0  0  0  0
  6  7  2  0  0  0  0
  6  5  1  0  0  0  0
  7  8  1  0  0  0  0
  8 13  1  0  0  0  0
  8  1  2  0  0  0  0
 10  5  1  0  0  0  0
 11  6  1  0  0  0  0
 12  7  1  0  0  0  0
 14 15  1  0  0  0  0
 16 14  1  0  0  0  0
 17 14  1  0  0  0  0
 18 14  1  0  0  0  0
M  RAD  2   2   2   3   3
M  END
