Coordinates from ORCA-job PhN2+~BF4-_B3LYPG-6-31G_dp-NX-Scan-d89-09-n800
 OpenBabel11261920563D

 18 17  0  0  0  0  0  0  0  0999 V2000
   -1.6643    0.4779    0.0914 C   0  0  0  0  0  0  0  0  0  0  0  0
   -1.2690    0.1579    1.3753 N   0  0  0  0  0  0  0  0  0  0  0  0
   -0.9239   -0.2454    2.3526 N   0  0  0  0  0  0  0  0  0  0  0  0
   -2.5059   -0.4482   -0.5577 C   0  0  0  0  0  0  0  0  0  0  0  0
   -2.8594   -0.1729   -1.8669 C   0  0  0  0  0  0  0  0  0  0  0  0
   -2.3790    0.9880   -2.4951 C   0  0  0  0  0  0  0  0  0  0  0  0
   -1.5503    1.8852   -1.8216 C   0  0  0  0  0  0  0  0  0  0  0  0
   -1.1815    1.6546   -0.4996 C   0  0  0  0  0  0  0  0  0  0  0  0
   -2.8600   -1.3317   -0.0395 H   0  0  0  0  0  0  0  0  0  0  0  0
   -3.5098   -0.8565   -2.4016 H   0  0  0  0  0  0  0  0  0  0  0  0
   -2.6673    1.1931   -3.5212 H   0  0  0  0  0  0  0  0  0  0  0  0
   -1.2063    2.7889   -2.3116 H   0  0  0  0  0  0  0  0  0  0  0  0
   -0.5857    2.3374    0.0916 H   0  0  0  0  0  0  0  0  0  0  0  0
   -2.1597    3.0905    2.0980 B   0  0  0  0  0  0  0  0  0  0  0  0
   -2.3994    4.0618    3.0404 F   0  0  0  0  0  0  0  0  0  0  0  0
   -0.7725    2.6923    2.0950 F   0  0  0  0  0  0  0  0  0  0  0  0
   -2.8926    1.8975    2.3459 F   0  0  0  0  0  0  0  0  0  0  0  0
   -2.4673    3.5427    0.7994 F   0  0  0  0  0  0  0  0  0  0  0  0
  1  2  1  0  0  0  0
  2  3  1  0  0  0  0
  4  9  1  0  0  0  0
  4  1  2  0  0  0  0
  5  4  1  0  0  0  0
  6  5  2  0  0  0  0
  6  7  1  0  0  0  0
  7  8  2  0  0  0  0
  8  1  1  0  0  0  0
  8 13  1  0  0  0  0
 10  5  1  0  0  0  0
 11  6  1  0  0  0  0
 12  7  1  0  0  0  0
 14 17  1  0  0  0  0
 14 15  1  0  0  0  0
 16 14  1  0  0  0  0
 18 14  1  0  0  0  0
M  RAD  2   2   2   3   3
M  END
