Coordinates from ORCA-job PhN2+~BF4-_B3LYPG-6-31G_dp-NX-Scan-d89-09-n800
 OpenBabel11261920563D

 18 17  0  0  0  0  0  0  0  0999 V2000
   -1.2862   -0.1075    0.2583 C   0  0  0  0  0  0  0  0  0  0  0  0
   -0.7940   -0.9185    1.2211 N   0  0  0  0  0  0  0  0  0  0  0  0
   -0.3803   -1.6058    2.0073 N   0  0  0  0  0  0  0  0  0  0  0  0
   -2.5760   -0.3875   -0.2583 C   0  0  0  0  0  0  0  0  0  0  0  0
   -3.0672    0.4632   -1.2210 C   0  0  0  0  0  0  0  0  0  0  0  0
   -2.3137    1.5770   -1.6349 C   0  0  0  0  0  0  0  0  0  0  0  0
   -1.0251    1.8164   -1.1321 C   0  0  0  0  0  0  0  0  0  0  0  0
   -0.5011    0.9929   -0.1603 C   0  0  0  0  0  0  0  0  0  0  0  0
   -3.1413   -1.2354    0.1104 H   0  0  0  0  0  0  0  0  0  0  0  0
   -4.0591    0.3025   -1.6260 H   0  0  0  0  0  0  0  0  0  0  0  0
   -2.7250    2.2488   -2.3765 H   0  0  0  0  0  0  0  0  0  0  0  0
   -0.4794    2.6984   -1.4380 H   0  0  0  0  0  0  0  0  0  0  0  0
    0.4625    1.1843    0.2957 H   0  0  0  0  0  0  0  0  0  0  0  0
   -2.7974    3.3568    0.9716 B   0  0  0  0  0  0  0  0  0  0  0  0
   -3.4670    4.2323    1.7992 F   0  0  0  0  0  0  0  0  0  0  0  0
   -1.5077    3.8262    0.6467 F   0  0  0  0  0  0  0  0  0  0  0  0
   -2.6692    2.0731    1.5654 F   0  0  0  0  0  0  0  0  0  0  0  0
   -3.5268    3.1958   -0.2536 F   0  0  0  0  0  0  0  0  0  0  0  0
  1  2  1  0  0  0  0
  2  3  1  0  0  0  0
  4  9  1  0  0  0  0
  4  1  2  0  0  0  0
  5  4  1  0  0  0  0
  6  5  2  0  0  0  0
  6  7  1  0  0  0  0
  7  8  2  0  0  0  0
  8  1  1  0  0  0  0
  8 13  1  0  0  0  0
 10  5  1  0  0  0  0
 11  6  1  0  0  0  0
 12  7  1  0  0  0  0
 14 17  1  0  0  0  0
 14 15  1  0  0  0  0
 16 14  1  0  0  0  0
 18 14  1  0  0  0  0
M  RAD  2   2   2   3   3
M  END
