Coordinates from ORCA-job PhN2+~BF4-_B3LYPG-6-31G_dp-NX-Scan-d89-09-n800
 OpenBabel11261920563D

 18 17  0  0  0  0  0  0  0  0999 V2000
   -1.7011    0.4879    0.0783 C   0  0  0  0  0  0  0  0  0  0  0  0
   -1.3372    0.2009    1.3814 N   0  0  0  0  0  0  0  0  0  0  0  0
   -1.0236   -0.1626    2.3832 N   0  0  0  0  0  0  0  0  0  0  0  0
   -2.4839   -0.4799   -0.5806 C   0  0  0  0  0  0  0  0  0  0  0  0
   -2.8190   -0.2332   -1.9015 C   0  0  0  0  0  0  0  0  0  0  0  0
   -2.3770    0.9414   -2.5296 C   0  0  0  0  0  0  0  0  0  0  0  0
   -1.6019    1.8796   -1.8454 C   0  0  0  0  0  0  0  0  0  0  0  0
   -1.2497    1.6755   -0.5150 C   0  0  0  0  0  0  0  0  0  0  0  0
   -2.8127   -1.3728   -0.0615 H   0  0  0  0  0  0  0  0  0  0  0  0
   -3.4260   -0.9504   -2.4432 H   0  0  0  0  0  0  0  0  0  0  0  0
   -2.6514    1.1257   -3.5634 H   0  0  0  0  0  0  0  0  0  0  0  0
   -1.2842    2.7920   -2.3373 H   0  0  0  0  0  0  0  0  0  0  0  0
   -0.6962    2.3894    0.0805 H   0  0  0  0  0  0  0  0  0  0  0  0
   -2.0988    3.1190    2.1489 B   0  0  0  0  0  0  0  0  0  0  0  0
   -2.2941    3.9740    3.2040 F   0  0  0  0  0  0  0  0  0  0  0  0
   -0.7443    2.6166    2.1309 F   0  0  0  0  0  0  0  0  0  0  0  0
   -2.9295    1.9655    2.2347 F   0  0  0  0  0  0  0  0  0  0  0  0
   -2.3234    3.7445    0.9105 F   0  0  0  0  0  0  0  0  0  0  0  0
  1  2  1  0  0  0  0
  2  3  1  0  0  0  0
  4  9  1  0  0  0  0
  4  1  2  0  0  0  0
  5  4  1  0  0  0  0
  6  5  2  0  0  0  0
  6  7  1  0  0  0  0
  7  8  2  0  0  0  0
  8  1  1  0  0  0  0
  8 13  1  0  0  0  0
 10  5  1  0  0  0  0
 11  6  1  0  0  0  0
 12  7  1  0  0  0  0
 14 17  1  0  0  0  0
 14 15  1  0  0  0  0
 16 14  1  0  0  0  0
 18 14  1  0  0  0  0
M  RAD  2   2   2   3   3
M  END
