Coordinates from ORCA-job PhN2+~BF4-_B3LYPG-6-31G_dp-NX-Scan-d89-09-n800
 OpenBabel11261920563D

 18 17  0  0  0  0  0  0  0  0999 V2000
   -1.9639    0.4556    0.0081 C   0  0  0  0  0  0  0  0  0  0  0  0
   -1.7663    0.2704    1.3658 N   0  0  0  0  0  0  0  0  0  0  0  0
   -1.5558    0.2751    2.4594 N   0  0  0  0  0  0  0  0  0  0  0  0
   -2.3631   -0.6632   -0.7431 C   0  0  0  0  0  0  0  0  0  0  0  0
   -2.5538   -0.4888   -2.1057 C   0  0  0  0  0  0  0  0  0  0  0  0
   -2.3465    0.7719   -2.6816 C   0  0  0  0  0  0  0  0  0  0  0  0
   -1.9488    1.8637   -1.9046 C   0  0  0  0  0  0  0  0  0  0  0  0
   -1.7471    1.7352   -0.5333 C   0  0  0  0  0  0  0  0  0  0  0  0
   -2.5173   -1.6224   -0.2616 H   0  0  0  0  0  0  0  0  0  0  0  0
   -2.8648   -1.3284   -2.7174 H   0  0  0  0  0  0  0  0  0  0  0  0
   -2.5019    0.9022   -3.7483 H   0  0  0  0  0  0  0  0  0  0  0  0
   -1.7984    2.8348   -2.3640 H   0  0  0  0  0  0  0  0  0  0  0  0
   -1.4594    2.5810    0.0875 H   0  0  0  0  0  0  0  0  0  0  0  0
   -1.7056    3.2611    2.4124 B   0  0  0  0  0  0  0  0  0  0  0  0
   -1.8301    3.8870    3.6199 F   0  0  0  0  0  0  0  0  0  0  0  0
   -0.5828    2.3591    2.4305 F   0  0  0  0  0  0  0  0  0  0  0  0
   -2.8560    2.4780    2.1176 F   0  0  0  0  0  0  0  0  0  0  0  0
   -1.4923    4.1410    1.3334 F   0  0  0  0  0  0  0  0  0  0  0  0
  1  2  1  0  0  0  0
  2  3  1  0  0  0  0
  4  9  1  0  0  0  0
  4  1  2  0  0  0  0
  5  4  1  0  0  0  0
  6  5  2  0  0  0  0
  6  7  1  0  0  0  0
  7  8  2  0  0  0  0
  8  1  1  0  0  0  0
  8 13  1  0  0  0  0
 10  5  1  0  0  0  0
 11  6  1  0  0  0  0
 12  7  1  0  0  0  0
 14 16  1  0  0  0  0
 14 15  1  0  0  0  0
 17 14  1  0  0  0  0
 18 14  1  0  0  0  0
M  RAD  2   2   2   3   3
M  END
