Coordinates from ORCA-job PhN2+~BF4-_B3LYPG-6-31G_dp-NX-Scan-d89-09-n800
 OpenBabel11261920563D

 18 17  0  0  0  0  0  0  0  0999 V2000
   -1.2490   -0.5492    0.1596 C   0  0  0  0  0  0  0  0  0  0  0  0
   -0.8444   -1.5833    0.9243 N   0  0  0  0  0  0  0  0  0  0  0  0
   -0.5086   -2.4254    1.5885 N   0  0  0  0  0  0  0  0  0  0  0  0
   -2.4830   -0.6628   -0.5346 C   0  0  0  0  0  0  0  0  0  0  0  0
   -2.9375    0.4522   -1.1993 C   0  0  0  0  0  0  0  0  0  0  0  0
   -2.2124    1.6602   -1.1395 C   0  0  0  0  0  0  0  0  0  0  0  0
   -0.9449    1.7219   -0.5186 C   0  0  0  0  0  0  0  0  0  0  0  0
   -0.4527    0.6293    0.1506 C   0  0  0  0  0  0  0  0  0  0  0  0
   -3.0407   -1.5923   -0.5075 H   0  0  0  0  0  0  0  0  0  0  0  0
   -3.8899    0.4215   -1.7156 H   0  0  0  0  0  0  0  0  0  0  0  0
   -2.6141    2.5625   -1.5883 H   0  0  0  0  0  0  0  0  0  0  0  0
   -0.4346    2.6749   -0.4714 H   0  0  0  0  0  0  0  0  0  0  0  0
    0.4838    0.6574    0.6954 H   0  0  0  0  0  0  0  0  0  0  0  0
   -2.9525    3.9865    0.6006 B   0  0  0  0  0  0  0  0  0  0  0  0
   -3.6544    4.7104    1.5320 F   0  0  0  0  0  0  0  0  0  0  0  0
   -3.2753    4.3485   -0.7253 F   0  0  0  0  0  0  0  0  0  0  0  0
   -1.5583    4.1130    0.7816 F   0  0  0  0  0  0  0  0  0  0  0  0
   -3.2855    2.5879    0.7427 F   0  0  0  0  0  0  0  0  0  0  0  0
  1  2  1  0  0  0  0
  2  3  1  0  0  0  0
  4  9  1  0  0  0  0
  4  1  2  0  0  0  0
  5  6  2  0  0  0  0
  5  4  1  0  0  0  0
  6  7  1  0  0  0  0
  7 12  1  0  0  0  0
  7  8  2  0  0  0  0
  8  1  1  0  0  0  0
  8 13  1  0  0  0  0
 10  5  1  0  0  0  0
 11  6  1  0  0  0  0
 14 18  1  0  0  0  0
 14 17  1  0  0  0  0
 14 15  1  0  0  0  0
 16 14  1  0  0  0  0
M  RAD  2   2   2   3   3
M  END
