Coordinates from ORCA-job PhN2+~BF4-_B3LYPG-6-31G_dp-NX-Scan-d89-09-n800
 OpenBabel11261920563D

 18 17  0  0  0  0  0  0  0  0999 V2000
   -1.2839   -0.1227    0.2593 C   0  0  0  0  0  0  0  0  0  0  0  0
   -0.7915   -0.9470    1.2107 N   0  0  0  0  0  0  0  0  0  0  0  0
   -0.3743   -1.6493    1.9815 N   0  0  0  0  0  0  0  0  0  0  0  0
   -2.5751   -0.3941   -0.2590 C   0  0  0  0  0  0  0  0  0  0  0  0
   -3.0641    0.4673   -1.2131 C   0  0  0  0  0  0  0  0  0  0  0  0
   -2.3076    1.5828   -1.6170 C   0  0  0  0  0  0  0  0  0  0  0  0
   -1.0184    1.8145   -1.1119 C   0  0  0  0  0  0  0  0  0  0  0  0
   -0.4963    0.9798   -0.1483 C   0  0  0  0  0  0  0  0  0  0  0  0
   -3.1422   -1.2446    0.1010 H   0  0  0  0  0  0  0  0  0  0  0  0
   -4.0565    0.3135   -1.6195 H   0  0  0  0  0  0  0  0  0  0  0  0
   -2.7174    2.2630   -2.3518 H   0  0  0  0  0  0  0  0  0  0  0  0
   -0.4710    2.6981   -1.4096 H   0  0  0  0  0  0  0  0  0  0  0  0
    0.4689    1.1627    0.3079 H   0  0  0  0  0  0  0  0  0  0  0  0
   -2.8082    3.3786    0.9545 B   0  0  0  0  0  0  0  0  0  0  0  0
   -3.4775    4.2485    1.7882 F   0  0  0  0  0  0  0  0  0  0  0  0
   -1.5475    3.8833    0.5754 F   0  0  0  0  0  0  0  0  0  0  0  0
   -2.6181    2.1114    1.5678 F   0  0  0  0  0  0  0  0  0  0  0  0
   -3.5731    3.1675   -0.2409 F   0  0  0  0  0  0  0  0  0  0  0  0
  1  2  1  0  0  0  0
  2  3  1  0  0  0  0
  4  9  1  0  0  0  0
  4  1  2  0  0  0  0
  5  4  1  0  0  0  0
  6  5  2  0  0  0  0
  6  7  1  0  0  0  0
  7  8  2  0  0  0  0
  8  1  1  0  0  0  0
  8 13  1  0  0  0  0
 10  5  1  0  0  0  0
 11  6  1  0  0  0  0
 12  7  1  0  0  0  0
 14 17  1  0  0  0  0
 14 15  1  0  0  0  0
 16 14  1  0  0  0  0
 18 14  1  0  0  0  0
M  RAD  2   2   2   3   3
M  END
