Coordinates from ORCA-job PhN2+~BF4-_B3LYPG-6-31G_dp-NX-Scan-d89-09-n800
 OpenBabel11261920573D

 18 17  0  0  0  0  0  0  0  0999 V2000
   -2.0812    0.3846    0.0678 C   0  0  0  0  0  0  0  0  0  0  0  0
   -2.1586    0.1905    1.4608 N   0  0  0  0  0  0  0  0  0  0  0  0
   -1.8021    0.7587    2.4383 N   0  0  0  0  0  0  0  0  0  0  0  0
   -2.6051   -0.6804   -0.6832 C   0  0  0  0  0  0  0  0  0  0  0  0
   -2.5952   -0.6179   -2.0722 C   0  0  0  0  0  0  0  0  0  0  0  0
   -2.0723    0.5105   -2.7091 C   0  0  0  0  0  0  0  0  0  0  0  0
   -1.5607    1.5724   -1.9569 C   0  0  0  0  0  0  0  0  0  0  0  0
   -1.5536    1.5265   -0.5656 C   0  0  0  0  0  0  0  0  0  0  0  0
   -3.0092   -1.5393   -0.1585 H   0  0  0  0  0  0  0  0  0  0  0  0
   -2.9957   -1.4414   -2.6545 H   0  0  0  0  0  0  0  0  0  0  0  0
   -2.0665    0.5656   -3.7939 H   0  0  0  0  0  0  0  0  0  0  0  0
   -1.1618    2.4493   -2.4571 H   0  0  0  0  0  0  0  0  0  0  0  0
   -1.1648    2.3493    0.0138 H   0  0  0  0  0  0  0  0  0  0  0  0
   -1.9543    3.8171    2.4243 B   0  0  0  0  0  0  0  0  0  0  0  0
   -1.0186    2.0492    2.1308 F   0  0  0  0  0  0  0  0  0  0  0  0
   -1.4011    4.3828    1.3456 F   0  0  0  0  0  0  0  0  0  0  0  0
   -3.1959    3.3426    2.3222 F   0  0  0  0  0  0  0  0  0  0  0  0
   -1.4572    4.0931    3.6225 F   0  0  0  0  0  0  0  0  0  0  0  0
  1  2  1  0  0  0  0
  2  3  1  0  0  0  0
  4  9  1  0  0  0  0
  4  1  2  0  0  0  0
  5  4  1  0  0  0  0
  6  5  2  0  0  0  0
  6  7  1  0  0  0  0
  7  8  2  0  0  0  0
  8 13  1  0  0  0  0
  8  1  1  0  0  0  0
 10  5  1  0  0  0  0
 11  6  1  0  0  0  0
 12  7  1  0  0  0  0
 14 18  1  0  0  0  0
 15  3  1  0  0  0  0
 16 14  1  0  0  0  0
 17 14  1  0  0  0  0
M  RAD  2   2   2   3   2
M  END
