Coordinates from ORCA-job PhN2+~BF4-_B3LYPG-6-31G_dp-NX-Scan-d89-09-n800
 OpenBabel11261920573D

 18 17  0  0  0  0  0  0  0  0999 V2000
   -2.2196    0.3549    0.0098 C   0  0  0  0  0  0  0  0  0  0  0  0
   -2.4473    0.1527    1.3954 N   0  0  0  0  0  0  0  0  0  0  0  0
   -2.0417    0.7849    2.3535 N   0  0  0  0  0  0  0  0  0  0  0  0
   -2.5588   -0.7675   -0.7653 C   0  0  0  0  0  0  0  0  0  0  0  0
   -2.4151   -0.7394   -2.1485 C   0  0  0  0  0  0  0  0  0  0  0  0
   -1.9623    0.4249   -2.7729 C   0  0  0  0  0  0  0  0  0  0  0  0
   -1.6537    1.5532   -2.0081 C   0  0  0  0  0  0  0  0  0  0  0  0
   -1.7681    1.5324   -0.6199 C   0  0  0  0  0  0  0  0  0  0  0  0
   -2.9282   -1.6502   -0.2546 H   0  0  0  0  0  0  0  0  0  0  0  0
   -2.6675   -1.6158   -2.7371 H   0  0  0  0  0  0  0  0  0  0  0  0
   -1.8566    0.4573   -3.8534 H   0  0  0  0  0  0  0  0  0  0  0  0
   -1.3138    2.4620   -2.4954 H   0  0  0  0  0  0  0  0  0  0  0  0
   -1.5307    2.4165   -0.0486 H   0  0  0  0  0  0  0  0  0  0  0  0
   -1.8089    4.0974    2.6704 B   0  0  0  0  0  0  0  0  0  0  0  0
   -1.2272    1.8398    2.0336 F   0  0  0  0  0  0  0  0  0  0  0  0
   -1.4758    4.4766    1.4438 F   0  0  0  0  0  0  0  0  0  0  0  0
   -3.0570    3.7582    2.9303 F   0  0  0  0  0  0  0  0  0  0  0  0
   -0.9216    4.1754    3.6418 F   0  0  0  0  0  0  0  0  0  0  0  0
  1  2  1  0  0  0  0
  2  3  1  0  0  0  0
  4  9  1  0  0  0  0
  4  1  2  0  0  0  0
  5  4  1  0  0  0  0
  6  5  2  0  0  0  0
  6  7  1  0  0  0  0
  7  8  2  0  0  0  0
  8 13  1  0  0  0  0
  8  1  1  0  0  0  0
 10  5  1  0  0  0  0
 11  6  1  0  0  0  0
 12  7  1  0  0  0  0
 14 17  1  0  0  0  0
 14 18  1  0  0  0  0
 15  3  1  0  0  0  0
 16 14  1  0  0  0  0
M  RAD  2   2   2   3   2
M  END
