Coordinates from ORCA-job PhN2+~BF4-_B3LYPG-6-31G_dp-NX-Scan-d89-09-n800
 OpenBabel11261920563D

 18 17  0  0  0  0  0  0  0  0999 V2000
   -1.2548   -0.4186    0.1800 C   0  0  0  0  0  0  0  0  0  0  0  0
   -0.7657   -1.3843    0.9893 N   0  0  0  0  0  0  0  0  0  0  0  0
   -0.3597   -2.1767    1.6737 N   0  0  0  0  0  0  0  0  0  0  0  0
   -2.4911   -0.6539   -0.4793 C   0  0  0  0  0  0  0  0  0  0  0  0
   -3.0083    0.3762   -1.2309 C   0  0  0  0  0  0  0  0  0  0  0  0
   -2.3333    1.6110   -1.3046 C   0  0  0  0  0  0  0  0  0  0  0  0
   -1.0795    1.7975   -0.6933 C   0  0  0  0  0  0  0  0  0  0  0  0
   -0.5295    0.7962    0.0722 C   0  0  0  0  0  0  0  0  0  0  0  0
   -3.0005   -1.6040   -0.3650 H   0  0  0  0  0  0  0  0  0  0  0  0
   -3.9650    0.2538   -1.7250 H   0  0  0  0  0  0  0  0  0  0  0  0
   -2.7634    2.4432   -1.8443 H   0  0  0  0  0  0  0  0  0  0  0  0
   -0.6210    2.7755   -0.7433 H   0  0  0  0  0  0  0  0  0  0  0  0
    0.3997    0.9288    0.6132 H   0  0  0  0  0  0  0  0  0  0  0  0
   -2.8203    3.8211    0.7501 B   0  0  0  0  0  0  0  0  0  0  0  0
   -3.5130    4.7876    1.4407 F   0  0  0  0  0  0  0  0  0  0  0  0
   -2.2535    4.3414   -0.4459 F   0  0  0  0  0  0  0  0  0  0  0  0
   -1.7879    3.2578    1.5260 F   0  0  0  0  0  0  0  0  0  0  0  0
   -3.7070    2.7604    0.3613 F   0  0  0  0  0  0  0  0  0  0  0  0
  1  2  1  0  0  0  0
  2  3  1  0  0  0  0
  4  9  1  0  0  0  0
  4  1  2  0  0  0  0
  5  4  1  0  0  0  0
  6  5  2  0  0  0  0
  6  7  1  0  0  0  0
  7  8  2  0  0  0  0
  8  1  1  0  0  0  0
  8 13  1  0  0  0  0
 10  5  1  0  0  0  0
 11  6  1  0  0  0  0
 12  7  1  0  0  0  0
 14 15  1  0  0  0  0
 14 17  1  0  0  0  0
 16 14  1  0  0  0  0
 18 14  1  0  0  0  0
M  RAD  2   2   2   3   3
M  END
