Coordinates from ORCA-job PhN2+~BF4-_B3LYPG-6-31G_dp-NX-Scan-d89-09-n800
 OpenBabel11261920563D

 18 17  0  0  0  0  0  0  0  0999 V2000
   -1.2580   -0.5206    0.1639 C   0  0  0  0  0  0  0  0  0  0  0  0
   -0.8641   -1.5315    0.9648 N   0  0  0  0  0  0  0  0  0  0  0  0
   -0.5388   -2.3519    1.6605 N   0  0  0  0  0  0  0  0  0  0  0  0
   -2.4877   -0.6503   -0.5348 C   0  0  0  0  0  0  0  0  0  0  0  0
   -2.9382    0.4500   -1.2260 C   0  0  0  0  0  0  0  0  0  0  0  0
   -2.2139    1.6590   -1.1852 C   0  0  0  0  0  0  0  0  0  0  0  0
   -0.9461    1.7322   -0.5680 C   0  0  0  0  0  0  0  0  0  0  0  0
   -0.4580    0.6542    0.1280 C   0  0  0  0  0  0  0  0  0  0  0  0
   -3.0471   -1.5780   -0.4876 H   0  0  0  0  0  0  0  0  0  0  0  0
   -3.8894    0.4095   -1.7438 H   0  0  0  0  0  0  0  0  0  0  0  0
   -2.6192    2.5564   -1.6400 H   0  0  0  0  0  0  0  0  0  0  0  0
   -0.4312    2.6831   -0.5402 H   0  0  0  0  0  0  0  0  0  0  0  0
    0.4761    0.6940    0.6764 H   0  0  0  0  0  0  0  0  0  0  0  0
   -2.9348    3.9378    0.6365 B   0  0  0  0  0  0  0  0  0  0  0  0
   -3.6441    4.6482    1.5733 F   0  0  0  0  0  0  0  0  0  0  0  0
   -3.2118    4.3514   -0.6843 F   0  0  0  0  0  0  0  0  0  0  0  0
   -1.5435    4.0250    0.8597 F   0  0  0  0  0  0  0  0  0  0  0  0
   -3.3042    2.5448    0.7220 F   0  0  0  0  0  0  0  0  0  0  0  0
  1  2  1  0  0  0  0
  2  3  1  0  0  0  0
  4  9  1  0  0  0  0
  4  1  2  0  0  0  0
  5  6  2  0  0  0  0
  5  4  1  0  0  0  0
  6  7  1  0  0  0  0
  7 12  1  0  0  0  0
  7  8  2  0  0  0  0
  8  1  1  0  0  0  0
  8 13  1  0  0  0  0
 10  5  1  0  0  0  0
 11  6  1  0  0  0  0
 14 18  1  0  0  0  0
 14 17  1  0  0  0  0
 14 15  1  0  0  0  0
 16 14  1  0  0  0  0
M  RAD  2   2   2   3   3
M  END
