Coordinates from ORCA-job PhN2+~BF4-_B3LYPG-6-31G_dp-NX-Scan-d89-09-n800
 OpenBabel11261920573D

 18 17  0  0  0  0  0  0  0  0999 V2000
   -1.8478    0.5457    0.0233 C   0  0  0  0  0  0  0  0  0  0  0  0
   -1.5946    0.4052    1.3808 N   0  0  0  0  0  0  0  0  0  0  0  0
   -1.3749    0.1288    2.4338 N   0  0  0  0  0  0  0  0  0  0  0  0
   -2.4608   -0.5510   -0.6076 C   0  0  0  0  0  0  0  0  0  0  0  0
   -2.7042   -0.4479   -1.9698 C   0  0  0  0  0  0  0  0  0  0  0  0
   -2.3374    0.7146   -2.6604 C   0  0  0  0  0  0  0  0  0  0  0  0
   -1.7234    1.7839   -2.0001 C   0  0  0  0  0  0  0  0  0  0  0  0
   -1.4702    1.7248   -0.6346 C   0  0  0  0  0  0  0  0  0  0  0  0
   -2.7371   -1.4337   -0.0420 H   0  0  0  0  0  0  0  0  0  0  0  0
   -3.1810   -1.2703   -2.4919 H   0  0  0  0  0  0  0  0  0  0  0  0
   -2.5371    0.7859   -3.7252 H   0  0  0  0  0  0  0  0  0  0  0  0
   -1.4496    2.6788   -2.5481 H   0  0  0  0  0  0  0  0  0  0  0  0
   -1.0072    2.5174   -0.0559 H   0  0  0  0  0  0  0  0  0  0  0  0
   -1.8997    3.2666    2.3648 B   0  0  0  0  0  0  0  0  0  0  0  0
   -1.9486    3.0149    3.7237 F   0  0  0  0  0  0  0  0  0  0  0  0
   -0.6399    2.7673    1.8469 F   0  0  0  0  0  0  0  0  0  0  0  0
   -2.9039    2.4864    1.6993 F   0  0  0  0  0  0  0  0  0  0  0  0
   -2.0366    4.5958    2.0380 F   0  0  0  0  0  0  0  0  0  0  0  0
  1  2  1  0  0  0  0
  2  3  1  0  0  0  0
  4  9  1  0  0  0  0
  4  1  1  0  0  0  0
  5  4  2  0  0  0  0
  6  7  2  0  0  0  0
  6  5  1  0  0  0  0
  7  8  1  0  0  0  0
  8 13  1  0  0  0  0
  8  1  2  0  0  0  0
 10  5  1  0  0  0  0
 11  6  1  0  0  0  0
 12  7  1  0  0  0  0
 14 15  1  0  0  0  0
 16 14  1  0  0  0  0
 17 14  1  0  0  0  0
 18 14  1  0  0  0  0
M  RAD  2   2   2   3   3
M  END
