Coordinates from ORCA-job PhN2+~BF4-_B3LYPG-6-31G_dp-NX-Scan-d89-09-n800
 OpenBabel11261920563D

 18 17  0  0  0  0  0  0  0  0999 V2000
   -1.3034   -0.0559    0.2549 C   0  0  0  0  0  0  0  0  0  0  0  0
   -0.8233   -0.8157    1.2654 N   0  0  0  0  0  0  0  0  0  0  0  0
   -0.4195   -1.4610    2.0903 N   0  0  0  0  0  0  0  0  0  0  0  0
   -2.5789   -0.3750   -0.2722 C   0  0  0  0  0  0  0  0  0  0  0  0
   -3.0683    0.4355   -1.2707 C   0  0  0  0  0  0  0  0  0  0  0  0
   -2.3257    1.5474   -1.7062 C   0  0  0  0  0  0  0  0  0  0  0  0
   -1.0484    1.8203   -1.1974 C   0  0  0  0  0  0  0  0  0  0  0  0
   -0.5282    1.0410   -0.1869 C   0  0  0  0  0  0  0  0  0  0  0  0
   -3.1377   -1.2169    0.1189 H   0  0  0  0  0  0  0  0  0  0  0  0
   -4.0509    0.2444   -1.6852 H   0  0  0  0  0  0  0  0  0  0  0  0
   -2.7435    2.1994   -2.4627 H   0  0  0  0  0  0  0  0  0  0  0  0
   -0.5112    2.7014   -1.5216 H   0  0  0  0  0  0  0  0  0  0  0  0
    0.4182    1.2722    0.2855 H   0  0  0  0  0  0  0  0  0  0  0  0
   -2.7530    3.2946    1.0348 B   0  0  0  0  0  0  0  0  0  0  0  0
   -3.3842    4.1918    1.8705 F   0  0  0  0  0  0  0  0  0  0  0  0
   -1.4041    3.6543    0.8116 F   0  0  0  0  0  0  0  0  0  0  0  0
   -2.7740    1.9800    1.5763 F   0  0  0  0  0  0  0  0  0  0  0  0
   -3.4177    3.2553   -0.2302 F   0  0  0  0  0  0  0  0  0  0  0  0
  1  2  1  0  0  0  0
  2  3  1  0  0  0  0
  4  9  1  0  0  0  0
  4  1  2  0  0  0  0
  5  4  1  0  0  0  0
  6  5  2  0  0  0  0
  6  7  1  0  0  0  0
  7  8  2  0  0  0  0
  8  1  1  0  0  0  0
  8 13  1  0  0  0  0
 10  5  1  0  0  0  0
 11  6  1  0  0  0  0
 12  7  1  0  0  0  0
 14 17  1  0  0  0  0
 14 15  1  0  0  0  0
 16 14  1  0  0  0  0
 18 14  1  0  0  0  0
M  RAD  2   2   2   3   3
M  END
