Coordinates from ORCA-job PhN2+~BF4-_B3LYPG-6-31G_dp-NX-Scan-d89-09-n800
 OpenBabel11261920563D

 18 17  0  0  0  0  0  0  0  0999 V2000
   -1.7020    0.4889    0.0778 C   0  0  0  0  0  0  0  0  0  0  0  0
   -1.3389    0.2033    1.3814 N   0  0  0  0  0  0  0  0  0  0  0  0
   -1.0263   -0.1573    2.3847 N   0  0  0  0  0  0  0  0  0  0  0  0
   -2.4841   -0.4797   -0.5808 C   0  0  0  0  0  0  0  0  0  0  0  0
   -2.8184   -0.2340   -1.9021 C   0  0  0  0  0  0  0  0  0  0  0  0
   -2.3764    0.9402   -2.5308 C   0  0  0  0  0  0  0  0  0  0  0  0
   -1.6020    1.8791   -1.8469 C   0  0  0  0  0  0  0  0  0  0  0  0
   -1.2505    1.6762   -0.5161 C   0  0  0  0  0  0  0  0  0  0  0  0
   -2.8129   -1.3723   -0.0613 H   0  0  0  0  0  0  0  0  0  0  0  0
   -3.4249   -0.9518   -2.4436 H   0  0  0  0  0  0  0  0  0  0  0  0
   -2.6502    1.1236   -3.5650 H   0  0  0  0  0  0  0  0  0  0  0  0
   -1.2843    2.7912   -2.3393 H   0  0  0  0  0  0  0  0  0  0  0  0
   -0.6977    2.3907    0.0792 H   0  0  0  0  0  0  0  0  0  0  0  0
   -2.0979    3.1181    2.1508 B   0  0  0  0  0  0  0  0  0  0  0  0
   -2.2912    3.9697    3.2087 F   0  0  0  0  0  0  0  0  0  0  0  0
   -0.7433    2.6156    2.1299 F   0  0  0  0  0  0  0  0  0  0  0  0
   -2.9296    1.9652    2.2346 F   0  0  0  0  0  0  0  0  0  0  0  0
   -2.3234    3.7465    0.9139 F   0  0  0  0  0  0  0  0  0  0  0  0
  1  2  1  0  0  0  0
  2  3  1  0  0  0  0
  4  9  1  0  0  0  0
  4  1  2  0  0  0  0
  5  4  1  0  0  0  0
  6  5  2  0  0  0  0
  6  7  1  0  0  0  0
  7  8  2  0  0  0  0
  8  1  1  0  0  0  0
  8 13  1  0  0  0  0
 10  5  1  0  0  0  0
 11  6  1  0  0  0  0
 12  7  1  0  0  0  0
 14 17  1  0  0  0  0
 14 15  1  0  0  0  0
 16 14  1  0  0  0  0
 18 14  1  0  0  0  0
M  RAD  2   2   2   3   3
M  END
