Coordinates from ORCA-job PhN2+~BF4-_B3LYPG-6-31G_dp-NX-Scan-d89-09-n800
 OpenBabel11261920563D

 18 17  0  0  0  0  0  0  0  0999 V2000
   -1.7514    0.2826    0.1251 C   0  0  0  0  0  0  0  0  0  0  0  0
   -1.4255   -0.1642    1.3866 N   0  0  0  0  0  0  0  0  0  0  0  0
   -1.1502   -0.6730    2.3391 N   0  0  0  0  0  0  0  0  0  0  0  0
   -2.5354   -0.5914   -0.6634 C   0  0  0  0  0  0  0  0  0  0  0  0
   -2.8278   -0.1875   -1.9516 C   0  0  0  0  0  0  0  0  0  0  0  0
   -2.3485    1.0472   -2.4271 C   0  0  0  0  0  0  0  0  0  0  0  0
   -1.5829    1.8859   -1.6207 C   0  0  0  0  0  0  0  0  0  0  0  0
   -1.2723    1.5272   -0.3102 C   0  0  0  0  0  0  0  0  0  0  0  0
   -2.8884   -1.5338   -0.2610 H   0  0  0  0  0  0  0  0  0  0  0  0
   -3.4293   -0.8249   -2.5905 H   0  0  0  0  0  0  0  0  0  0  0  0
   -2.5908    1.3531   -3.4399 H   0  0  0  0  0  0  0  0  0  0  0  0
   -1.2454    2.8479   -1.9878 H   0  0  0  0  0  0  0  0  0  0  0  0
   -0.7082    2.1798    0.3546 H   0  0  0  0  0  0  0  0  0  0  0  0
   -2.0367    3.3451    1.9870 B   0  0  0  0  0  0  0  0  0  0  0  0
   -2.4857    4.2870    2.8823 F   0  0  0  0  0  0  0  0  0  0  0  0
   -0.6753    3.5715    1.6319 F   0  0  0  0  0  0  0  0  0  0  0  0
   -2.0973    2.0133    2.5202 F   0  0  0  0  0  0  0  0  0  0  0  0
   -2.8027    3.3476    0.8003 F   0  0  0  0  0  0  0  0  0  0  0  0
  1  2  1  0  0  0  0
  2  3  1  0  0  0  0
  4  9  1  0  0  0  0
  4  1  2  0  0  0  0
  5  4  1  0  0  0  0
  6  5  2  0  0  0  0
  6  7  1  0  0  0  0
  7  8  2  0  0  0  0
  8  1  1  0  0  0  0
  8 13  1  0  0  0  0
 10  5  1  0  0  0  0
 11  6  1  0  0  0  0
 12  7  1  0  0  0  0
 14 17  1  0  0  0  0
 14 15  1  0  0  0  0
 16 14  1  0  0  0  0
 18 14  1  0  0  0  0
M  RAD  2   2   2   3   3
M  END
