Coordinates from ORCA-job PhN2+~BF4-_B3LYPG-6-31G_dp-NX-Scan-d89-09-n800
 OpenBabel11261920563D

 18 17  0  0  0  0  0  0  0  0999 V2000
   -1.9280    0.4898   -0.0249 C   0  0  0  0  0  0  0  0  0  0  0  0
   -1.6748    0.3135    1.3259 N   0  0  0  0  0  0  0  0  0  0  0  0
   -1.4357    0.2304    2.4116 N   0  0  0  0  0  0  0  0  0  0  0  0
   -2.3316   -0.6455   -0.7497 C   0  0  0  0  0  0  0  0  0  0  0  0
   -2.5780   -0.4887   -2.1056 C   0  0  0  0  0  0  0  0  0  0  0  0
   -2.4166    0.7692   -2.7021 C   0  0  0  0  0  0  0  0  0  0  0  0
   -2.0073    1.8761   -1.9530 C   0  0  0  0  0  0  0  0  0  0  0  0
   -1.7545    1.7652   -0.5887 C   0  0  0  0  0  0  0  0  0  0  0  0
   -2.4485   -1.6028   -0.2540 H   0  0  0  0  0  0  0  0  0  0  0  0
   -2.8964   -1.3404   -2.6964 H   0  0  0  0  0  0  0  0  0  0  0  0
   -2.6157    0.8847   -3.7632 H   0  0  0  0  0  0  0  0  0  0  0  0
   -1.8896    2.8435   -2.4297 H   0  0  0  0  0  0  0  0  0  0  0  0
   -1.4509    2.6141    0.0239 H   0  0  0  0  0  0  0  0  0  0  0  0
   -1.6958    3.2344    2.4782 B   0  0  0  0  0  0  0  0  0  0  0  0
   -2.0878    4.0625    3.4896 F   0  0  0  0  0  0  0  0  0  0  0  0
   -0.7183    2.2997    2.9503 F   0  0  0  0  0  0  0  0  0  0  0  0
   -2.7971    2.4815    1.9795 F   0  0  0  0  0  0  0  0  0  0  0  0
   -1.1272    3.9260    1.3833 F   0  0  0  0  0  0  0  0  0  0  0  0
  1  2  1  0  0  0  0
  2  3  1  0  0  0  0
  4  9  1  0  0  0  0
  4  1  2  0  0  0  0
  5  4  1  0  0  0  0
  6  5  2  0  0  0  0
  6  7  1  0  0  0  0
  7  8  2  0  0  0  0
  8  1  1  0  0  0  0
  8 13  1  0  0  0  0
 10  5  1  0  0  0  0
 11  6  1  0  0  0  0
 12  7  1  0  0  0  0
 14 16  1  0  0  0  0
 14 15  1  0  0  0  0
 17 14  1  0  0  0  0
 18 14  1  0  0  0  0
M  RAD  2   2   2   3   3
M  END
