Coordinates from ORCA-job PhN2+~BF4-_B3LYPG-6-31G_dp-NX-Scan-d89-09-n800
 OpenBabel11261920563D

 18 17  0  0  0  0  0  0  0  0999 V2000
   -1.2559   -0.5279    0.1628 C   0  0  0  0  0  0  0  0  0  0  0  0
   -0.8609   -1.5444    0.9559 N   0  0  0  0  0  0  0  0  0  0  0  0
   -0.5343   -2.3699    1.6449 N   0  0  0  0  0  0  0  0  0  0  0  0
   -2.4866   -0.6527   -0.5351 C   0  0  0  0  0  0  0  0  0  0  0  0
   -2.9371    0.4517   -1.2198 C   0  0  0  0  0  0  0  0  0  0  0  0
   -2.2118    1.6600   -1.1738 C   0  0  0  0  0  0  0  0  0  0  0  0
   -0.9437    1.7291   -0.5561 C   0  0  0  0  0  0  0  0  0  0  0  0
   -0.4556    0.6471    0.1333 C   0  0  0  0  0  0  0  0  0  0  0  0
   -3.0464   -1.5803   -0.4928 H   0  0  0  0  0  0  0  0  0  0  0  0
   -3.8886    0.4145   -1.7372 H   0  0  0  0  0  0  0  0  0  0  0  0
   -2.6159    2.5591   -1.6265 H   0  0  0  0  0  0  0  0  0  0  0  0
   -0.4292    2.6802   -0.5235 H   0  0  0  0  0  0  0  0  0  0  0  0
    0.4791    0.6831    0.6808 H   0  0  0  0  0  0  0  0  0  0  0  0
   -2.9406    3.9494    0.6273 B   0  0  0  0  0  0  0  0  0  0  0  0
   -3.6461    4.6602    1.5665 F   0  0  0  0  0  0  0  0  0  0  0  0
   -3.2367    4.3494   -0.6936 F   0  0  0  0  0  0  0  0  0  0  0  0
   -1.5478    4.0512    0.8337 F   0  0  0  0  0  0  0  0  0  0  0  0
   -3.2959    2.5534    0.7283 F   0  0  0  0  0  0  0  0  0  0  0  0
  1  2  1  0  0  0  0
  2  3  1  0  0  0  0
  4  9  1  0  0  0  0
  4  1  2  0  0  0  0
  5  6  2  0  0  0  0
  5  4  1  0  0  0  0
  6  7  1  0  0  0  0
  7 12  1  0  0  0  0
  7  8  2  0  0  0  0
  8  1  1  0  0  0  0
  8 13  1  0  0  0  0
 10  5  1  0  0  0  0
 11  6  1  0  0  0  0
 14 18  1  0  0  0  0
 14 17  1  0  0  0  0
 14 15  1  0  0  0  0
 16 14  1  0  0  0  0
M  RAD  2   2   2   3   3
M  END
