Coordinates from ORCA-job PhN2+~BF4-_B3LYPG-6-31G_dp-NX-Scan-d89-09-n800
 OpenBabel11261920563D

 18 17  0  0  0  0  0  0  0  0999 V2000
   -1.2512   -0.2658    0.2429 C   0  0  0  0  0  0  0  0  0  0  0  0
   -0.7316   -1.1896    1.0840 N   0  0  0  0  0  0  0  0  0  0  0  0
   -0.2915   -1.9721    1.7599 N   0  0  0  0  0  0  0  0  0  0  0  0
   -2.5410   -0.5027   -0.3014 C   0  0  0  0  0  0  0  0  0  0  0  0
   -3.0452    0.4442   -1.1621 C   0  0  0  0  0  0  0  0  0  0  0  0
   -2.3029    1.6034   -1.4620 C   0  0  0  0  0  0  0  0  0  0  0  0
   -1.0172    1.8039   -0.9308 C   0  0  0  0  0  0  0  0  0  0  0  0
   -0.4816    0.8862   -0.0544 C   0  0  0  0  0  0  0  0  0  0  0  0
   -3.0939   -1.3952   -0.0315 H   0  0  0  0  0  0  0  0  0  0  0  0
   -4.0373    0.3191   -1.5790 H   0  0  0  0  0  0  0  0  0  0  0  0
   -2.7191    2.3450   -2.1292 H   0  0  0  0  0  0  0  0  0  0  0  0
   -0.4991    2.7317   -1.1270 H   0  0  0  0  0  0  0  0  0  0  0  0
    0.4858    1.0326    0.4110 H   0  0  0  0  0  0  0  0  0  0  0  0
   -2.8661    3.5954    0.8394 B   0  0  0  0  0  0  0  0  0  0  0  0
   -3.5353    4.5298    1.6010 F   0  0  0  0  0  0  0  0  0  0  0  0
   -1.7740    4.1779    0.1562 F   0  0  0  0  0  0  0  0  0  0  0  0
   -2.3976    2.5127    1.6148 F   0  0  0  0  0  0  0  0  0  0  0  0
   -3.7552    3.0565   -0.1569 F   0  0  0  0  0  0  0  0  0  0  0  0
  1  2  1  0  0  0  0
  2  3  1  0  0  0  0
  4  9  1  0  0  0  0
  4  1  2  0  0  0  0
  5  4  1  0  0  0  0
  6  5  2  0  0  0  0
  6  7  1  0  0  0  0
  7  8  2  0  0  0  0
  8  1  1  0  0  0  0
  8 13  1  0  0  0  0
 10  5  1  0  0  0  0
 11  6  1  0  0  0  0
 12  7  1  0  0  0  0
 14 15  1  0  0  0  0
 14 17  1  0  0  0  0
 16 14  1  0  0  0  0
 18 14  1  0  0  0  0
M  RAD  2   2   2   3   3
M  END
