Coordinates from ORCA-job PhN2+~BF4-_B3LYPG-6-31G_dp-NX-Scan-d89-09-n800
 OpenBabel11261920573D

 18 17  0  0  0  0  0  0  0  0999 V2000
   -1.9769    0.5512    0.0195 C   0  0  0  0  0  0  0  0  0  0  0  0
   -1.8331    0.4851    1.3975 N   0  0  0  0  0  0  0  0  0  0  0  0
   -1.7106    0.3879    2.5032 N   0  0  0  0  0  0  0  0  0  0  0  0
   -2.4977   -0.5905   -0.6150 C   0  0  0  0  0  0  0  0  0  0  0  0
   -2.6407   -0.5490   -1.9943 C   0  0  0  0  0  0  0  0  0  0  0  0
   -2.2599    0.5993   -2.7017 C   0  0  0  0  0  0  0  0  0  0  0  0
   -1.7325    1.7124   -2.0405 C   0  0  0  0  0  0  0  0  0  0  0  0
   -1.5827    1.7157   -0.6569 C   0  0  0  0  0  0  0  0  0  0  0  0
   -2.7824   -1.4620   -0.0362 H   0  0  0  0  0  0  0  0  0  0  0  0
   -3.0466   -1.4077   -2.5180 H   0  0  0  0  0  0  0  0  0  0  0  0
   -2.3776    0.6227   -3.7809 H   0  0  0  0  0  0  0  0  0  0  0  0
   -1.4409    2.5926   -2.6034 H   0  0  0  0  0  0  0  0  0  0  0  0
   -1.1816    2.5528   -0.0907 H   0  0  0  0  0  0  0  0  0  0  0  0
   -1.7653    3.3430    2.3902 B   0  0  0  0  0  0  0  0  0  0  0  0
   -1.5471    2.3644    3.4122 F   0  0  0  0  0  0  0  0  0  0  0  0
   -0.6099    3.3541    1.5644 F   0  0  0  0  0  0  0  0  0  0  0  0
   -2.8433    2.8689    1.5974 F   0  0  0  0  0  0  0  0  0  0  0  0
   -2.0251    4.5723    2.9281 F   0  0  0  0  0  0  0  0  0  0  0  0
  1  2  1  0  0  0  0
  2  3  1  0  0  0  0
  4  9  1  0  0  0  0
  4  1  1  0  0  0  0
  5  4  2  0  0  0  0
  6  7  2  0  0  0  0
  6  5  1  0  0  0  0
  7  8  1  0  0  0  0
  8 13  1  0  0  0  0
  8  1  2  0  0  0  0
 10  5  1  0  0  0  0
 11  6  1  0  0  0  0
 12  7  1  0  0  0  0
 14 18  1  0  0  0  0
 14 15  1  0  0  0  0
 16 14  1  0  0  0  0
 17 14  1  0  0  0  0
M  RAD  2   2   2   3   3
M  END
