Coordinates from ORCA-job PhN2+~BF4-_B3LYPG-6-31G_dp-NX-Scan-d89-09-n800
 OpenBabel11261920573D

 18 18  0  0  0  0  0  0  0  0999 V2000
   -2.2764    1.1269   -0.2575 C   0  0  0  0  0  0  0  0  0  0  0  0
   -2.6138    1.6968    1.0113 N   0  0  0  0  0  0  0  0  0  0  0  0
   -1.6992    2.3569    1.6147 N   0  0  0  0  0  0  0  0  0  0  0  0
   -2.8210   -0.1423   -0.5024 C   0  0  0  0  0  0  0  0  0  0  0  0
   -2.5957   -0.7780   -1.7200 C   0  0  0  0  0  0  0  0  0  0  0  0
   -1.8528   -0.1407   -2.7173 C   0  0  0  0  0  0  0  0  0  0  0  0
   -1.3379    1.1366   -2.4907 C   0  0  0  0  0  0  0  0  0  0  0  0
   -1.5386    1.7726   -1.2660 C   0  0  0  0  0  0  0  0  0  0  0  0
   -3.4136   -0.6095    0.2774 H   0  0  0  0  0  0  0  0  0  0  0  0
   -3.0103   -1.7655   -1.8958 H   0  0  0  0  0  0  0  0  0  0  0  0
   -1.6859   -0.6320   -3.6710 H   0  0  0  0  0  0  0  0  0  0  0  0
   -0.7779    1.6445   -3.2701 H   0  0  0  0  0  0  0  0  0  0  0  0
   -1.1516    2.7773   -1.1256 H   0  0  0  0  0  0  0  0  0  0  0  0
   -2.0539    3.0985    3.1964 B   0  0  0  0  0  0  0  0  0  0  0  0
   -0.8395    2.4839    1.2835 F   0  0  0  0  0  0  0  0  0  0  0  0
   -1.9105    4.4166    2.8580 F   0  0  0  0  0  0  0  0  0  0  0  0
   -0.9930    2.5826    3.8931 F   0  0  0  0  0  0  0  0  0  0  0  0
   -3.2820    2.6881    3.5570 F   0  0  0  0  0  0  0  0  0  0  0  0
  1  2  1  0  0  0  0
  2  3  1  0  0  0  0
  3 14  1  0  0  0  0
  4  1  1  0  0  0  0
  4  9  1  0  0  0  0
  5  4  2  0  0  0  0
  6  7  2  0  0  0  0
  6  5  1  0  0  0  0
  7  8  1  0  0  0  0
  8 13  1  0  0  0  0
  8  1  2  0  0  0  0
 10  5  1  0  0  0  0
 11  6  1  0  0  0  0
 12  7  1  0  0  0  0
 14 18  1  0  0  0  0
 14 17  1  0  0  0  0
 15  3  1  0  0  0  0
 16 14  1  0  0  0  0
M  RAD  1   2   2
M  END
