Coordinates from ORCA-job PhN2+~BF4-_B3LYPG-6-31G_dp-NX-Scan-d89-09-n800
 OpenBabel11261920563D

 18 17  0  0  0  0  0  0  0  0999 V2000
   -1.2699   -0.1667    0.2620 C   0  0  0  0  0  0  0  0  0  0  0  0
   -0.7605   -1.0373    1.1623 N   0  0  0  0  0  0  0  0  0  0  0  0
   -0.3299   -1.7785    1.8890 N   0  0  0  0  0  0  0  0  0  0  0  0
   -2.5670   -0.4179   -0.2544 C   0  0  0  0  0  0  0  0  0  0  0  0
   -3.0607    0.4728   -1.1783 C   0  0  0  0  0  0  0  0  0  0  0  0
   -2.3022    1.5955   -1.5607 C   0  0  0  0  0  0  0  0  0  0  0  0
   -1.0106    1.8122   -1.0524 C   0  0  0  0  0  0  0  0  0  0  0  0
   -0.4837    0.9479   -0.1182 C   0  0  0  0  0  0  0  0  0  0  0  0
   -3.1329   -1.2790    0.0818 H   0  0  0  0  0  0  0  0  0  0  0  0
   -4.0568    0.3346   -1.5810 H   0  0  0  0  0  0  0  0  0  0  0  0
   -2.7098    2.2906   -2.2820 H   0  0  0  0  0  0  0  0  0  0  0  0
   -0.4652    2.7039   -1.3277 H   0  0  0  0  0  0  0  0  0  0  0  0
    0.4888    1.1106    0.3307 H   0  0  0  0  0  0  0  0  0  0  0  0
   -2.8407    3.4455    0.9091 B   0  0  0  0  0  0  0  0  0  0  0  0
   -3.5191    4.3349    1.7148 F   0  0  0  0  0  0  0  0  0  0  0  0
   -1.6172    3.9812    0.4557 F   0  0  0  0  0  0  0  0  0  0  0  0
   -2.5798    2.2216    1.5741 F   0  0  0  0  0  0  0  0  0  0  0  0
   -3.6367    3.1412   -0.2498 F   0  0  0  0  0  0  0  0  0  0  0  0
  1  2  1  0  0  0  0
  2  3  1  0  0  0  0
  4  9  1  0  0  0  0
  4  1  2  0  0  0  0
  5  4  1  0  0  0  0
  6  5  2  0  0  0  0
  6  7  1  0  0  0  0
  7  8  2  0  0  0  0
  8  1  1  0  0  0  0
  8 13  1  0  0  0  0
 10  5  1  0  0  0  0
 11  6  1  0  0  0  0
 12  7  1  0  0  0  0
 14 17  1  0  0  0  0
 14 15  1  0  0  0  0
 16 14  1  0  0  0  0
 18 14  1  0  0  0  0
M  RAD  2   2   2   3   3
M  END
