Coordinates from ORCA-job PhN2+~BF4-_B3LYPG-6-31G_dp-NX-Scan-d89-09-n800
 OpenBabel11261920563D

 18 17  0  0  0  0  0  0  0  0999 V2000
   -1.7567    0.3043    0.1155 C   0  0  0  0  0  0  0  0  0  0  0  0
   -1.4376   -0.1150    1.3889 N   0  0  0  0  0  0  0  0  0  0  0  0
   -1.1663   -0.5812    2.3632 N   0  0  0  0  0  0  0  0  0  0  0  0
   -2.5344   -0.5827   -0.6625 C   0  0  0  0  0  0  0  0  0  0  0  0
   -2.8236   -0.1979   -1.9580 C   0  0  0  0  0  0  0  0  0  0  0  0
   -2.3462    1.0306   -2.4493 C   0  0  0  0  0  0  0  0  0  0  0  0
   -1.5844    1.8827   -1.6524 C   0  0  0  0  0  0  0  0  0  0  0  0
   -1.2774    1.5434   -0.3363 C   0  0  0  0  0  0  0  0  0  0  0  0
   -2.8869   -1.5199   -0.2479 H   0  0  0  0  0  0  0  0  0  0  0  0
   -3.4212   -0.8460   -2.5897 H   0  0  0  0  0  0  0  0  0  0  0  0
   -2.5857    1.3215   -3.4672 H   0  0  0  0  0  0  0  0  0  0  0  0
   -1.2458    2.8387   -2.0343 H   0  0  0  0  0  0  0  0  0  0  0  0
   -0.7162    2.2026    0.3242 H   0  0  0  0  0  0  0  0  0  0  0  0
   -2.0308    3.3204    2.0167 B   0  0  0  0  0  0  0  0  0  0  0  0
   -2.4609    4.2399    2.9407 F   0  0  0  0  0  0  0  0  0  0  0  0
   -0.6628    3.5233    1.6734 F   0  0  0  0  0  0  0  0  0  0  0  0
   -2.1273    1.9800    2.5211 F   0  0  0  0  0  0  0  0  0  0  0  0
   -2.7899    3.3685    0.8288 F   0  0  0  0  0  0  0  0  0  0  0  0
  1  2  1  0  0  0  0
  2  3  1  0  0  0  0
  4  9  1  0  0  0  0
  4  1  2  0  0  0  0
  5  4  1  0  0  0  0
  6  5  2  0  0  0  0
  6  7  1  0  0  0  0
  7  8  2  0  0  0  0
  8  1  1  0  0  0  0
  8 13  1  0  0  0  0
 10  5  1  0  0  0  0
 11  6  1  0  0  0  0
 12  7  1  0  0  0  0
 14 17  1  0  0  0  0
 14 15  1  0  0  0  0
 16 14  1  0  0  0  0
 18 14  1  0  0  0  0
M  RAD  2   2   2   3   3
M  END
