Coordinates from ORCA-job PhN2+~BF4-_B3LYPG-6-31G_dp-NX-Scan-d89-09-n800
 OpenBabel11261920573D

 18 17  0  0  0  0  0  0  0  0999 V2000
   -1.8630    0.5633    0.0183 C   0  0  0  0  0  0  0  0  0  0  0  0
   -1.6245    0.4486    1.3814 N   0  0  0  0  0  0  0  0  0  0  0  0
   -1.4228    0.1929    2.4438 N   0  0  0  0  0  0  0  0  0  0  0  0
   -2.4660   -0.5466   -0.5992 C   0  0  0  0  0  0  0  0  0  0  0  0
   -2.6964   -0.4683   -1.9653 C   0  0  0  0  0  0  0  0  0  0  0  0
   -2.3259    0.6828   -2.6730 C   0  0  0  0  0  0  0  0  0  0  0  0
   -1.7215    1.7652   -2.0258 C   0  0  0  0  0  0  0  0  0  0  0  0
   -1.4817    1.7314   -0.6568 C   0  0  0  0  0  0  0  0  0  0  0  0
   -2.7451   -1.4201   -0.0208 H   0  0  0  0  0  0  0  0  0  0  0  0
   -3.1655   -1.3014   -2.4774 H   0  0  0  0  0  0  0  0  0  0  0  0
   -2.5150    0.7343   -3.7408 H   0  0  0  0  0  0  0  0  0  0  0  0
   -1.4437    2.6506   -2.5873 H   0  0  0  0  0  0  0  0  0  0  0  0
   -1.0257    2.5351   -0.0875 H   0  0  0  0  0  0  0  0  0  0  0  0
   -1.8839    3.2688    2.3825 B   0  0  0  0  0  0  0  0  0  0  0  0
   -1.9103    2.8117    3.6940 F   0  0  0  0  0  0  0  0  0  0  0  0
   -0.6322    2.8534    1.7871 F   0  0  0  0  0  0  0  0  0  0  0  0
   -2.8969    2.5829    1.6350 F   0  0  0  0  0  0  0  0  0  0  0  0
   -2.0339    4.6287    2.2668 F   0  0  0  0  0  0  0  0  0  0  0  0
  1  2  1  0  0  0  0
  2  3  1  0  0  0  0
  4  9  1  0  0  0  0
  4  1  1  0  0  0  0
  5  4  2  0  0  0  0
  6  7  2  0  0  0  0
  6  5  1  0  0  0  0
  7  8  1  0  0  0  0
  8 13  1  0  0  0  0
  8  1  2  0  0  0  0
 10  5  1  0  0  0  0
 11  6  1  0  0  0  0
 12  7  1  0  0  0  0
 14 15  1  0  0  0  0
 16 14  1  0  0  0  0
 17 14  1  0  0  0  0
 18 14  1  0  0  0  0
M  RAD  2   2   2   3   3
M  END
