Coordinates from ORCA-job PhN2+~BF4-_B3LYPG-6-31G_dp-NX-Scan-d89-09-n800
 OpenBabel11261920563D

 18 17  0  0  0  0  0  0  0  0999 V2000
   -1.2492   -0.2705    0.2429 C   0  0  0  0  0  0  0  0  0  0  0  0
   -0.7272   -1.1988    1.0775 N   0  0  0  0  0  0  0  0  0  0  0  0
   -0.2852   -1.9861    1.7466 N   0  0  0  0  0  0  0  0  0  0  0  0
   -2.5395   -0.5062   -0.3011 C   0  0  0  0  0  0  0  0  0  0  0  0
   -3.0449    0.4432   -1.1585 C   0  0  0  0  0  0  0  0  0  0  0  0
   -2.3031    1.6032   -1.4562 C   0  0  0  0  0  0  0  0  0  0  0  0
   -1.0175    1.8033   -0.9242 C   0  0  0  0  0  0  0  0  0  0  0  0
   -0.4809    0.8834   -0.0508 C   0  0  0  0  0  0  0  0  0  0  0  0
   -3.0915   -1.4000   -0.0340 H   0  0  0  0  0  0  0  0  0  0  0  0
   -4.0370    0.3184   -1.5753 H   0  0  0  0  0  0  0  0  0  0  0  0
   -2.7194    2.3459   -2.1220 H   0  0  0  0  0  0  0  0  0  0  0  0
   -0.4996    2.7314   -1.1192 H   0  0  0  0  0  0  0  0  0  0  0  0
    0.4870    1.0287    0.4138 H   0  0  0  0  0  0  0  0  0  0  0  0
   -2.8697    3.6043    0.8357 B   0  0  0  0  0  0  0  0  0  0  0  0
   -3.5388    4.5447    1.5903 F   0  0  0  0  0  0  0  0  0  0  0  0
   -1.7769    4.1820    0.1490 F   0  0  0  0  0  0  0  0  0  0  0  0
   -2.4020    2.5268    1.6180 F   0  0  0  0  0  0  0  0  0  0  0  0
   -3.7586    3.0595   -0.1576 F   0  0  0  0  0  0  0  0  0  0  0  0
  1  2  1  0  0  0  0
  2  3  1  0  0  0  0
  4  9  1  0  0  0  0
  4  1  2  0  0  0  0
  5  4  1  0  0  0  0
  6  5  2  0  0  0  0
  6  7  1  0  0  0  0
  7  8  2  0  0  0  0
  8  1  1  0  0  0  0
  8 13  1  0  0  0  0
 10  5  1  0  0  0  0
 11  6  1  0  0  0  0
 12  7  1  0  0  0  0
 14 15  1  0  0  0  0
 14 17  1  0  0  0  0
 16 14  1  0  0  0  0
 18 14  1  0  0  0  0
M  RAD  2   2   2   3   3
M  END
