Coordinates from ORCA-job PhN2+~BF4-_B3LYPG-6-31G_dp-NX-Scan-d89-09-n800
 OpenBabel11261920573D

 18 17  0  0  0  0  0  0  0  0999 V2000
   -2.0474    0.4255    0.1033 C   0  0  0  0  0  0  0  0  0  0  0  0
   -2.0435    0.2623    1.4930 N   0  0  0  0  0  0  0  0  0  0  0  0
   -1.7432    0.7207    2.5115 N   0  0  0  0  0  0  0  0  0  0  0  0
   -2.6183   -0.6287   -0.6262 C   0  0  0  0  0  0  0  0  0  0  0  0
   -2.6557   -0.5447   -2.0126 C   0  0  0  0  0  0  0  0  0  0  0  0
   -2.1273    0.5815   -2.6515 C   0  0  0  0  0  0  0  0  0  0  0  0
   -1.5619    1.6237   -1.9094 C   0  0  0  0  0  0  0  0  0  0  0  0
   -1.5110    1.5660   -0.5201 C   0  0  0  0  0  0  0  0  0  0  0  0
   -3.0199   -1.4860   -0.0971 H   0  0  0  0  0  0  0  0  0  0  0  0
   -3.0942   -1.3503   -2.5921 H   0  0  0  0  0  0  0  0  0  0  0  0
   -2.1591    0.6493   -3.7350 H   0  0  0  0  0  0  0  0  0  0  0  0
   -1.1603    2.4960   -2.4145 H   0  0  0  0  0  0  0  0  0  0  0  0
   -1.0876    2.3755    0.0581 H   0  0  0  0  0  0  0  0  0  0  0  0
   -1.8910    3.5314    2.2431 B   0  0  0  0  0  0  0  0  0  0  0  0
   -0.9578    2.1829    2.3186 F   0  0  0  0  0  0  0  0  0  0  0  0
   -1.2573    4.2194    1.2428 F   0  0  0  0  0  0  0  0  0  0  0  0
   -3.1074    3.0175    1.8869 F   0  0  0  0  0  0  0  0  0  0  0  0
   -1.8110    4.0712    3.4762 F   0  0  0  0  0  0  0  0  0  0  0  0
  1  2  1  0  0  0  0
  2  3  2  0  0  0  0
  4  9  1  0  0  0  0
  4  1  2  0  0  0  0
  5  4  1  0  0  0  0
  6  5  2  0  0  0  0
  6  7  1  0  0  0  0
  7  8  2  0  0  0  0
  8 13  1  0  0  0  0
  8  1  1  0  0  0  0
 10  5  1  0  0  0  0
 11  6  1  0  0  0  0
 12  7  1  0  0  0  0
 14 15  1  0  0  0  0
 14 18  1  0  0  0  0
 16 14  1  0  0  0  0
 17 14  1  0  0  0  0
M  RAD  1   3   2
M  END
