Coordinates from ORCA-job PhN2+~BF4-_B3LYPG-6-31G_dp-NX-Scan-d89-09-n800
 OpenBabel11261920563D

 18 17  0  0  0  0  0  0  0  0999 V2000
   -1.3531    0.0568    0.2532 C   0  0  0  0  0  0  0  0  0  0  0  0
   -0.8865   -0.6158    1.3334 N   0  0  0  0  0  0  0  0  0  0  0  0
   -0.4929   -1.1966    2.2075 N   0  0  0  0  0  0  0  0  0  0  0  0
   -2.5894   -0.3545   -0.2993 C   0  0  0  0  0  0  0  0  0  0  0  0
   -3.0628    0.3579   -1.3788 C   0  0  0  0  0  0  0  0  0  0  0  0
   -2.3361    1.4553   -1.8710 C   0  0  0  0  0  0  0  0  0  0  0  0
   -1.1069    1.8274   -1.3229 C   0  0  0  0  0  0  0  0  0  0  0  0
   -0.6022    1.1512   -0.2282 C   0  0  0  0  0  0  0  0  0  0  0  0
   -3.1349   -1.1838    0.1343 H   0  0  0  0  0  0  0  0  0  0  0  0
   -4.0173    0.0949   -1.8193 H   0  0  0  0  0  0  0  0  0  0  0  0
   -2.7467    2.0365   -2.6889 H   0  0  0  0  0  0  0  0  0  0  0  0
   -0.5884    2.7041   -1.6887 H   0  0  0  0  0  0  0  0  0  0  0  0
    0.3045    1.4624    0.2715 H   0  0  0  0  0  0  0  0  0  0  0  0
   -2.6636    3.2035    1.1894 B   0  0  0  0  0  0  0  0  0  0  0  0
   -3.2042    4.1382    2.0493 F   0  0  0  0  0  0  0  0  0  0  0  0
   -1.2429    3.3151    1.1486 F   0  0  0  0  0  0  0  0  0  0  0  0
   -2.9666    1.8772    1.6079 F   0  0  0  0  0  0  0  0  0  0  0  0
   -3.1640    3.3835   -0.1230 F   0  0  0  0  0  0  0  0  0  0  0  0
  1  2  1  0  0  0  0
  2  3  1  0  0  0  0
  4  9  1  0  0  0  0
  4  1  2  0  0  0  0
  5  4  1  0  0  0  0
  6  5  2  0  0  0  0
  6  7  1  0  0  0  0
  7  8  2  0  0  0  0
  8  1  1  0  0  0  0
  8 13  1  0  0  0  0
 10  5  1  0  0  0  0
 11  6  1  0  0  0  0
 12  7  1  0  0  0  0
 14 17  1  0  0  0  0
 14 15  1  0  0  0  0
 16 14  1  0  0  0  0
 18 14  1  0  0  0  0
M  RAD  2   2   2   3   3
M  END
