Coordinates from ORCA-job PhN2+~BF4-_B3LYPG-6-31G_dp-NX-Scan-d89-09-n800
 OpenBabel11261920573D

 18 17  0  0  0  0  0  0  0  0999 V2000
   -1.8337    0.5255    0.0333 C   0  0  0  0  0  0  0  0  0  0  0  0
   -1.5680    0.3527    1.3844 N   0  0  0  0  0  0  0  0  0  0  0  0
   -1.3351    0.0678    2.4318 N   0  0  0  0  0  0  0  0  0  0  0  0
   -2.4544   -0.5544   -0.6185 C   0  0  0  0  0  0  0  0  0  0  0  0
   -2.7101   -0.4184   -1.9756 C   0  0  0  0  0  0  0  0  0  0  0  0
   -2.3478    0.7596   -2.6416 C   0  0  0  0  0  0  0  0  0  0  0  0
   -1.7278    1.8125   -1.9609 C   0  0  0  0  0  0  0  0  0  0  0  0
   -1.4619    1.7203   -0.5999 C   0  0  0  0  0  0  0  0  0  0  0  0
   -2.7276   -1.4497   -0.0717 H   0  0  0  0  0  0  0  0  0  0  0  0
   -3.1932   -1.2274   -2.5127 H   0  0  0  0  0  0  0  0  0  0  0  0
   -2.5567    0.8567   -3.7025 H   0  0  0  0  0  0  0  0  0  0  0  0
   -1.4591    2.7210   -2.4887 H   0  0  0  0  0  0  0  0  0  0  0  0
   -0.9967    2.5027   -0.0097 H   0  0  0  0  0  0  0  0  0  0  0  0
   -1.9121    3.2510    2.3303 B   0  0  0  0  0  0  0  0  0  0  0  0
   -1.9704    3.2908    3.7054 F   0  0  0  0  0  0  0  0  0  0  0  0
   -0.6462    2.6645    1.9260 F   0  0  0  0  0  0  0  0  0  0  0  0
   -2.9126    2.3549    1.8244 F   0  0  0  0  0  0  0  0  0  0  0  0
   -2.0407    4.4831    1.7212 F   0  0  0  0  0  0  0  0  0  0  0  0
  1  2  1  0  0  0  0
  2  3  1  0  0  0  0
  4  9  1  0  0  0  0
  4  1  2  0  0  0  0
  5  4  1  0  0  0  0
  6  5  2  0  0  0  0
  6  7  1  0  0  0  0
  7  8  2  0  0  0  0
  8 13  1  0  0  0  0
  8  1  1  0  0  0  0
 10  5  1  0  0  0  0
 11  6  1  0  0  0  0
 12  7  1  0  0  0  0
 14 15  1  0  0  0  0
 16 14  1  0  0  0  0
 17 14  1  0  0  0  0
 18 14  1  0  0  0  0
M  RAD  2   2   2   3   3
M  END
