Coordinates from ORCA-job PhN2+~BF4-_B3LYPG-6-31G_dp-NX-Scan-d89-09-n800
 OpenBabel11261920573D

 18 17  0  0  0  0  0  0  0  0999 V2000
   -2.0496    0.4258    0.1022 C   0  0  0  0  0  0  0  0  0  0  0  0
   -2.0400    0.2699    1.4913 N   0  0  0  0  0  0  0  0  0  0  0  0
   -1.7519    0.7041    2.5185 N   0  0  0  0  0  0  0  0  0  0  0  0
   -2.6185   -0.6298   -0.6265 C   0  0  0  0  0  0  0  0  0  0  0  0
   -2.6557   -0.5427   -2.0126 C   0  0  0  0  0  0  0  0  0  0  0  0
   -2.1298    0.5864   -2.6492 C   0  0  0  0  0  0  0  0  0  0  0  0
   -1.5665    1.6288   -1.9059 C   0  0  0  0  0  0  0  0  0  0  0  0
   -1.5153    1.5693   -0.5167 C   0  0  0  0  0  0  0  0  0  0  0  0
   -3.0181   -1.4889   -0.0990 H   0  0  0  0  0  0  0  0  0  0  0  0
   -3.0922   -1.3480   -2.5939 H   0  0  0  0  0  0  0  0  0  0  0  0
   -2.1621    0.6558   -3.7326 H   0  0  0  0  0  0  0  0  0  0  0  0
   -1.1674    2.5030   -2.4096 H   0  0  0  0  0  0  0  0  0  0  0  0
   -1.0947    2.3791    0.0642 H   0  0  0  0  0  0  0  0  0  0  0  0
   -1.8763    3.5148    2.2368 B   0  0  0  0  0  0  0  0  0  0  0  0
   -0.9529    2.1968    2.3549 F   0  0  0  0  0  0  0  0  0  0  0  0
   -1.2442    4.1961    1.2248 F   0  0  0  0  0  0  0  0  0  0  0  0
   -3.0934    2.9956    1.8737 F   0  0  0  0  0  0  0  0  0  0  0  0
   -1.8252    4.0969    3.4546 F   0  0  0  0  0  0  0  0  0  0  0  0
  1  2  1  0  0  0  0
  2  3  2  0  0  0  0
  4  9  1  0  0  0  0
  4  1  2  0  0  0  0
  5  4  1  0  0  0  0
  6  5  2  0  0  0  0
  6  7  1  0  0  0  0
  7  8  2  0  0  0  0
  8 13  1  0  0  0  0
  8  1  1  0  0  0  0
 10  5  1  0  0  0  0
 11  6  1  0  0  0  0
 12  7  1  0  0  0  0
 14 15  1  0  0  0  0
 14 18  1  0  0  0  0
 16 14  1  0  0  0  0
 17 14  1  0  0  0  0
M  RAD  1   3   2
M  END
