Coordinates from ORCA-job PhN2+~BF4-_B3LYPG-6-31G_dp-NX-Scan-d89-09-n800
 OpenBabel11261920573D

 18 17  0  0  0  0  0  0  0  0999 V2000
   -1.8775    0.5698    0.0159 C   0  0  0  0  0  0  0  0  0  0  0  0
   -1.6460    0.4652    1.3814 N   0  0  0  0  0  0  0  0  0  0  0  0
   -1.4503    0.2183    2.4472 N   0  0  0  0  0  0  0  0  0  0  0  0
   -2.4759   -0.5448   -0.5977 C   0  0  0  0  0  0  0  0  0  0  0  0
   -2.6938   -0.4777   -1.9664 C   0  0  0  0  0  0  0  0  0  0  0  0
   -2.3142    0.6664   -2.6807 C   0  0  0  0  0  0  0  0  0  0  0  0
   -1.7153    1.7538   -2.0370 C   0  0  0  0  0  0  0  0  0  0  0  0
   -1.4894    1.7320   -0.6652 C   0  0  0  0  0  0  0  0  0  0  0  0
   -2.7612   -1.4132   -0.0146 H   0  0  0  0  0  0  0  0  0  0  0  0
   -3.1596   -1.3144   -2.4758 H   0  0  0  0  0  0  0  0  0  0  0  0
   -2.4917    0.7084   -3.7510 H   0  0  0  0  0  0  0  0  0  0  0  0
   -1.4302    2.6336   -2.6036 H   0  0  0  0  0  0  0  0  0  0  0  0
   -1.0394    2.5414   -0.0983 H   0  0  0  0  0  0  0  0  0  0  0  0
   -1.8733    3.2737    2.3930 B   0  0  0  0  0  0  0  0  0  0  0  0
   -1.8549    2.7277    3.6740 F   0  0  0  0  0  0  0  0  0  0  0  0
   -0.6313    2.9262    1.7436 F   0  0  0  0  0  0  0  0  0  0  0  0
   -2.8925    2.6136    1.6318 F   0  0  0  0  0  0  0  0  0  0  0  0
   -2.0575    4.6331    2.3783 F   0  0  0  0  0  0  0  0  0  0  0  0
  1  2  1  0  0  0  0
  2  3  1  0  0  0  0
  4  9  1  0  0  0  0
  4  1  1  0  0  0  0
  5  4  2  0  0  0  0
  6  7  2  0  0  0  0
  6  5  1  0  0  0  0
  7  8  1  0  0  0  0
  8 13  1  0  0  0  0
  8  1  2  0  0  0  0
 10  5  1  0  0  0  0
 11  6  1  0  0  0  0
 12  7  1  0  0  0  0
 14 15  1  0  0  0  0
 16 14  1  0  0  0  0
 17 14  1  0  0  0  0
 18 14  1  0  0  0  0
M  RAD  2   2   2   3   3
M  END
