Coordinates from ORCA-job PhN2+~BF4-_B3LYPG-6-31G_dp-NX-Scan-d89-09-n800
 OpenBabel11261920563D

 18 17  0  0  0  0  0  0  0  0999 V2000
   -1.6697    0.4870    0.0876 C   0  0  0  0  0  0  0  0  0  0  0  0
   -1.2816    0.1788    1.3771 N   0  0  0  0  0  0  0  0  0  0  0  0
   -0.9441   -0.2090    2.3628 N   0  0  0  0  0  0  0  0  0  0  0  0
   -2.5038   -0.4468   -0.5591 C   0  0  0  0  0  0  0  0  0  0  0  0
   -2.8538   -0.1815   -1.8717 C   0  0  0  0  0  0  0  0  0  0  0  0
   -2.3767    0.9773   -2.5052 C   0  0  0  0  0  0  0  0  0  0  0  0
   -1.5539    1.8823   -1.8340 C   0  0  0  0  0  0  0  0  0  0  0  0
   -1.1888    1.6614   -0.5095 C   0  0  0  0  0  0  0  0  0  0  0  0
   -2.8563   -1.3284   -0.0367 H   0  0  0  0  0  0  0  0  0  0  0  0
   -3.4991   -0.8715   -2.4043 H   0  0  0  0  0  0  0  0  0  0  0  0
   -2.6621    1.1750   -3.5336 H   0  0  0  0  0  0  0  0  0  0  0  0
   -1.2110    2.7838   -2.3289 H   0  0  0  0  0  0  0  0  0  0  0  0
   -0.5980    2.3502    0.0794 H   0  0  0  0  0  0  0  0  0  0  0  0
   -2.1527    3.0850    2.1119 B   0  0  0  0  0  0  0  0  0  0  0  0
   -2.3758    4.0332    3.0809 F   0  0  0  0  0  0  0  0  0  0  0  0
   -0.7703    2.6670    2.0990 F   0  0  0  0  0  0  0  0  0  0  0  0
   -2.9034    1.8975    2.3334 F   0  0  0  0  0  0  0  0  0  0  0  0
   -2.4528    3.5719    0.8258 F   0  0  0  0  0  0  0  0  0  0  0  0
  1  2  1  0  0  0  0
  2  3  1  0  0  0  0
  4  9  1  0  0  0  0
  4  1  2  0  0  0  0
  5  4  1  0  0  0  0
  6  5  2  0  0  0  0
  6  7  1  0  0  0  0
  7  8  2  0  0  0  0
  8 13  1  0  0  0  0
  8  1  1  0  0  0  0
 10  5  1  0  0  0  0
 11  6  1  0  0  0  0
 12  7  1  0  0  0  0
 14 17  1  0  0  0  0
 14 15  1  0  0  0  0
 16 14  1  0  0  0  0
 18 14  1  0  0  0  0
M  RAD  2   2   2   3   3
M  END
