Coordinates from ORCA-job PhN2+~BF4-_B3LYPG-6-31G_dp-NX-Scan-d89-09-n800
 OpenBabel11261920563D

 18 17  0  0  0  0  0  0  0  0999 V2000
   -1.7308    0.1399    0.1357 C   0  0  0  0  0  0  0  0  0  0  0  0
   -1.3966   -0.3847    1.3595 N   0  0  0  0  0  0  0  0  0  0  0  0
   -1.1259   -0.9256    2.2976 N   0  0  0  0  0  0  0  0  0  0  0  0
   -2.4808   -0.7014   -0.7243 C   0  0  0  0  0  0  0  0  0  0  0  0
   -2.7971   -0.2009   -1.9704 C   0  0  0  0  0  0  0  0  0  0  0  0
   -2.3852    1.0968   -2.3350 C   0  0  0  0  0  0  0  0  0  0  0  0
   -1.6575    1.8992   -1.4608 C   0  0  0  0  0  0  0  0  0  0  0  0
   -1.3076    1.4372   -0.1933 C   0  0  0  0  0  0  0  0  0  0  0  0
   -2.7888   -1.6895   -0.4031 H   0  0  0  0  0  0  0  0  0  0  0  0
   -3.3702   -0.8076   -2.6629 H   0  0  0  0  0  0  0  0  0  0  0  0
   -2.6558    1.4796   -3.3139 H   0  0  0  0  0  0  0  0  0  0  0  0
   -1.3833    2.9126   -1.7269 H   0  0  0  0  0  0  0  0  0  0  0  0
   -0.7637    2.0666    0.5114 H   0  0  0  0  0  0  0  0  0  0  0  0
   -2.0211    3.5072    1.8776 B   0  0  0  0  0  0  0  0  0  0  0  0
   -2.4047    4.5262    2.7218 F   0  0  0  0  0  0  0  0  0  0  0  0
   -0.6451    3.6335    1.5083 F   0  0  0  0  0  0  0  0  0  0  0  0
   -2.1560    2.2120    2.4670 F   0  0  0  0  0  0  0  0  0  0  0  0
   -2.7837    3.5121    0.6867 F   0  0  0  0  0  0  0  0  0  0  0  0
  1  2  1  0  0  0  0
  2  3  1  0  0  0  0
  4  9  1  0  0  0  0
  4  1  2  0  0  0  0
  5  4  1  0  0  0  0
  6  5  2  0  0  0  0
  6  7  1  0  0  0  0
  7  8  2  0  0  0  0
  8  1  1  0  0  0  0
  8 13  1  0  0  0  0
 10  5  1  0  0  0  0
 11  6  1  0  0  0  0
 12  7  1  0  0  0  0
 14 17  1  0  0  0  0
 14 15  1  0  0  0  0
 16 14  1  0  0  0  0
 18 14  1  0  0  0  0
M  RAD  2   2   2   3   3
M  END
