Coordinates from ORCA-job PhN2+~BF4-_B3LYPG-6-31G_dp-NX-Scan-d89-09-n800
 OpenBabel11261920563D

 18 17  0  0  0  0  0  0  0  0999 V2000
   -1.9040    0.4716    0.0332 C   0  0  0  0  0  0  0  0  0  0  0  0
   -1.6638    0.2472    1.3771 N   0  0  0  0  0  0  0  0  0  0  0  0
   -1.4450    0.0221    2.4420 N   0  0  0  0  0  0  0  0  0  0  0  0
   -2.3867   -0.6257   -0.7056 C   0  0  0  0  0  0  0  0  0  0  0  0
   -2.6100   -0.4371   -2.0604 C   0  0  0  0  0  0  0  0  0  0  0  0
   -2.3517    0.8120   -2.6427 C   0  0  0  0  0  0  0  0  0  0  0  0
   -1.8721    1.8786   -1.8781 C   0  0  0  0  0  0  0  0  0  0  0  0
   -1.6363    1.7362   -0.5137 C   0  0  0  0  0  0  0  0  0  0  0  0
   -2.5785   -1.5766   -0.2211 H   0  0  0  0  0  0  0  0  0  0  0  0
   -2.9853   -1.2575   -2.6620 H   0  0  0  0  0  0  0  0  0  0  0  0
   -2.5327    0.9521   -3.7040 H   0  0  0  0  0  0  0  0  0  0  0  0
   -1.6863    2.8425   -2.3395 H   0  0  0  0  0  0  0  0  0  0  0  0
   -1.2945    2.5634    0.1029 H   0  0  0  0  0  0  0  0  0  0  0  0
   -1.7910    3.2498    2.3413 B   0  0  0  0  0  0  0  0  0  0  0  0
   -1.9141    3.9449    3.5155 F   0  0  0  0  0  0  0  0  0  0  0  0
   -0.6131    2.4328    2.3336 F   0  0  0  0  0  0  0  0  0  0  0  0
   -2.8835    2.3562    2.1395 F   0  0  0  0  0  0  0  0  0  0  0  0
   -1.7054    4.1005    1.2171 F   0  0  0  0  0  0  0  0  0  0  0  0
  1  2  1  0  0  0  0
  2  3  1  0  0  0  0
  4  9  1  0  0  0  0
  4  1  2  0  0  0  0
  5  4  1  0  0  0  0
  6  5  2  0  0  0  0
  6  7  1  0  0  0  0
  7  8  2  0  0  0  0
  8  1  1  0  0  0  0
  8 13  1  0  0  0  0
 10  5  1  0  0  0  0
 11  6  1  0  0  0  0
 12  7  1  0  0  0  0
 14 15  1  0  0  0  0
 16 14  1  0  0  0  0
 17 14  1  0  0  0  0
 18 14  1  0  0  0  0
M  RAD  2   2   2   3   3
M  END
