Coordinates from ORCA-job PhN2+~BF4-_B3LYPG-6-31G_dp-NX-Scan-d89-09-n800
 OpenBabel11261920563D

 18 17  0  0  0  0  0  0  0  0999 V2000
   -1.2423   -0.5705    0.1556 C   0  0  0  0  0  0  0  0  0  0  0  0
   -0.8248   -1.6214    0.8897 N   0  0  0  0  0  0  0  0  0  0  0  0
   -0.4769   -2.4795    1.5269 N   0  0  0  0  0  0  0  0  0  0  0  0
   -2.4785   -0.6762   -0.5355 C   0  0  0  0  0  0  0  0  0  0  0  0
   -2.9394    0.4484   -1.1801 C   0  0  0  0  0  0  0  0  0  0  0  0
   -2.2174    1.6574   -1.1061 C   0  0  0  0  0  0  0  0  0  0  0  0
   -0.9523    1.7154   -0.4791 C   0  0  0  0  0  0  0  0  0  0  0  0
   -0.4536    0.6135    0.1695 C   0  0  0  0  0  0  0  0  0  0  0  0
   -3.0315   -1.6089   -0.5248 H   0  0  0  0  0  0  0  0  0  0  0  0
   -3.8921    0.4217   -1.6960 H   0  0  0  0  0  0  0  0  0  0  0  0
   -2.6182    2.5624   -1.5509 H   0  0  0  0  0  0  0  0  0  0  0  0
   -0.4497    2.6719   -0.4155 H   0  0  0  0  0  0  0  0  0  0  0  0
    0.4838    0.6363    0.7132 H   0  0  0  0  0  0  0  0  0  0  0  0
   -2.9598    4.0259    0.5754 B   0  0  0  0  0  0  0  0  0  0  0  0
   -3.6604    4.7711    1.4904 F   0  0  0  0  0  0  0  0  0  0  0  0
   -3.2971    4.3470   -0.7580 F   0  0  0  0  0  0  0  0  0  0  0  0
   -1.5651    4.1696    0.7393 F   0  0  0  0  0  0  0  0  0  0  0  0
   -3.2787    2.6291    0.7611 F   0  0  0  0  0  0  0  0  0  0  0  0
  1  8  1  0  0  0  0
  1  2  1  0  0  0  0
  2  3  1  0  0  0  0
  4  9  1  0  0  0  0
  4  1  2  0  0  0  0
  5  6  2  0  0  0  0
  5  4  1  0  0  0  0
  6  7  1  0  0  0  0
  7 12  1  0  0  0  0
  7  8  2  0  0  0  0
  8 13  1  0  0  0  0
 10  5  1  0  0  0  0
 11  6  1  0  0  0  0
 14 17  1  0  0  0  0
 14 18  1  0  0  0  0
 14 15  1  0  0  0  0
 16 14  1  0  0  0  0
M  RAD  2   2   2   3   3
M  END
