Coordinates from ORCA-job PhN2+~BF4-_B3LYPG-6-31G_dp-NX-Scan-d89-09-n800
 OpenBabel11261920573D

 18 17  0  0  0  0  0  0  0  0999 V2000
   -2.2898    0.3594   -0.0096 C   0  0  0  0  0  0  0  0  0  0  0  0
   -2.5862    0.1721    1.3685 N   0  0  0  0  0  0  0  0  0  0  0  0
   -2.1647    0.8152    2.3229 N   0  0  0  0  0  0  0  0  0  0  0  0
   -2.5456   -0.7852   -0.7832 C   0  0  0  0  0  0  0  0  0  0  0  0
   -2.3337   -0.7702   -2.1581 C   0  0  0  0  0  0  0  0  0  0  0  0
   -1.9031    0.4041   -2.7796 C   0  0  0  0  0  0  0  0  0  0  0  0
   -1.6841    1.5556   -2.0189 C   0  0  0  0  0  0  0  0  0  0  0  0
   -1.8624    1.5463   -0.6371 C   0  0  0  0  0  0  0  0  0  0  0  0
   -2.9050   -1.6753   -0.2781 H   0  0  0  0  0  0  0  0  0  0  0  0
   -2.5191   -1.6651   -2.7441 H   0  0  0  0  0  0  0  0  0  0  0  0
   -1.7466    0.4261   -3.8541 H   0  0  0  0  0  0  0  0  0  0  0  0
   -1.3636    2.4729   -2.5034 H   0  0  0  0  0  0  0  0  0  0  0  0
   -1.6926    2.4498   -0.0703 H   0  0  0  0  0  0  0  0  0  0  0  0
   -1.7306    4.1347    2.7270 B   0  0  0  0  0  0  0  0  0  0  0  0
   -1.3204    1.7822    2.0129 F   0  0  0  0  0  0  0  0  0  0  0  0
   -1.5825    4.4732    1.4538 F   0  0  0  0  0  0  0  0  0  0  0  0
   -2.9288    3.8340    3.1862 F   0  0  0  0  0  0  0  0  0  0  0  0
   -0.6952    4.1835    3.5402 F   0  0  0  0  0  0  0  0  0  0  0  0
  1  2  1  0  0  0  0
  2  3  1  0  0  0  0
  4  9  1  0  0  0  0
  4  1  2  0  0  0  0
  5  4  1  0  0  0  0
  6  5  2  0  0  0  0
  6  7  1  0  0  0  0
  7  8  2  0  0  0  0
  8 13  1  0  0  0  0
  8  1  1  0  0  0  0
 10  5  1  0  0  0  0
 11  6  1  0  0  0  0
 12  7  1  0  0  0  0
 14 17  1  0  0  0  0
 14 18  1  0  0  0  0
 15  3  1  0  0  0  0
 16 14  1  0  0  0  0
M  RAD  2   2   2   3   2
M  END
