Coordinates from ORCA-job PhN2+~BF4-_B3LYPG-6-31G_dp-NX-Scan-d89-09-n800
 OpenBabel11261920573D

 18 17  0  0  0  0  0  0  0  0999 V2000
   -2.3444    0.3553   -0.0241 C   0  0  0  0  0  0  0  0  0  0  0  0
   -2.6914    0.1736    1.3491 N   0  0  0  0  0  0  0  0  0  0  0  0
   -2.2217    0.8327    2.2894 N   0  0  0  0  0  0  0  0  0  0  0  0
   -2.5317   -0.8023   -0.7972 C   0  0  0  0  0  0  0  0  0  0  0  0
   -2.2743   -0.7904   -2.1646 C   0  0  0  0  0  0  0  0  0  0  0  0
   -1.8681    0.3933   -2.7846 C   0  0  0  0  0  0  0  0  0  0  0  0
   -1.7191    1.5578   -2.0277 C   0  0  0  0  0  0  0  0  0  0  0  0
   -1.9422    1.5504   -0.6518 C   0  0  0  0  0  0  0  0  0  0  0  0
   -2.8767   -1.7010   -0.2969 H   0  0  0  0  0  0  0  0  0  0  0  0
   -2.4070   -1.6969   -2.7476 H   0  0  0  0  0  0  0  0  0  0  0  0
   -1.6773    0.4120   -3.8535 H   0  0  0  0  0  0  0  0  0  0  0  0
   -1.4181    2.4834   -2.5093 H   0  0  0  0  0  0  0  0  0  0  0  0
   -1.8238    2.4675   -0.0913 H   0  0  0  0  0  0  0  0  0  0  0  0
   -1.6646    4.1894    2.7758 B   0  0  0  0  0  0  0  0  0  0  0  0
   -1.3953    1.6805    1.9933 F   0  0  0  0  0  0  0  0  0  0  0  0
   -1.5835    4.4538    1.4807 F   0  0  0  0  0  0  0  0  0  0  0  0
   -2.8332    3.9072    3.3127 F   0  0  0  0  0  0  0  0  0  0  0  0
   -0.5815    4.2469    3.5228 F   0  0  0  0  0  0  0  0  0  0  0  0
  1  2  1  0  0  0  0
  2  3  2  0  0  0  0
  4  9  1  0  0  0  0
  4  1  2  0  0  0  0
  5  4  1  0  0  0  0
  6  5  2  0  0  0  0
  6  7  1  0  0  0  0
  7  8  2  0  0  0  0
  8 13  1  0  0  0  0
  8  1  1  0  0  0  0
 10  5  1  0  0  0  0
 11  6  1  0  0  0  0
 12  7  1  0  0  0  0
 14 17  1  0  0  0  0
 14 18  1  0  0  0  0
 15  3  1  0  0  0  0
 16 14  1  0  0  0  0
M  END
