Coordinates from ORCA-job PhN2+~BF4-_B3LYPG-6-31G_dp-NX-Scan-d89-09-n800
 OpenBabel11261920563D

 18 17  0  0  0  0  0  0  0  0999 V2000
   -1.2816   -0.1290    0.2602 C   0  0  0  0  0  0  0  0  0  0  0  0
   -0.7855   -0.9614    1.2027 N   0  0  0  0  0  0  0  0  0  0  0  0
   -0.3657   -1.6705    1.9660 N   0  0  0  0  0  0  0  0  0  0  0  0
   -2.5739   -0.3974   -0.2574 C   0  0  0  0  0  0  0  0  0  0  0  0
   -3.0641    0.4683   -1.2068 C   0  0  0  0  0  0  0  0  0  0  0  0
   -2.3075    1.5851   -1.6081 C   0  0  0  0  0  0  0  0  0  0  0  0
   -1.0177    1.8146   -1.1029 C   0  0  0  0  0  0  0  0  0  0  0  0
   -0.4944    0.9755   -0.1440 C   0  0  0  0  0  0  0  0  0  0  0  0
   -3.1403   -1.2499    0.0989 H   0  0  0  0  0  0  0  0  0  0  0  0
   -4.0572    0.3167   -1.6124 H   0  0  0  0  0  0  0  0  0  0  0  0
   -2.7168    2.2664   -2.3419 H   0  0  0  0  0  0  0  0  0  0  0  0
   -0.4706    2.6993   -1.3977 H   0  0  0  0  0  0  0  0  0  0  0  0
    0.4723    1.1551    0.3104 H   0  0  0  0  0  0  0  0  0  0  0  0
   -2.8131    3.3887    0.9478 B   0  0  0  0  0  0  0  0  0  0  0  0
   -3.4856    4.2638    1.7739 F   0  0  0  0  0  0  0  0  0  0  0  0
   -1.5555    3.8958    0.5621 F   0  0  0  0  0  0  0  0  0  0  0  0
   -2.6176    2.1272    1.5698 F   0  0  0  0  0  0  0  0  0  0  0  0
   -3.5791    3.1648   -0.2456 F   0  0  0  0  0  0  0  0  0  0  0  0
  1  2  1  0  0  0  0
  2  3  1  0  0  0  0
  4  9  1  0  0  0  0
  4  1  2  0  0  0  0
  5  4  1  0  0  0  0
  6  5  2  0  0  0  0
  6  7  1  0  0  0  0
  7  8  2  0  0  0  0
  8  1  1  0  0  0  0
  8 13  1  0  0  0  0
 10  5  1  0  0  0  0
 11  6  1  0  0  0  0
 12  7  1  0  0  0  0
 14 17  1  0  0  0  0
 14 15  1  0  0  0  0
 16 14  1  0  0  0  0
 18 14  1  0  0  0  0
M  RAD  2   2   2   3   3
M  END
