Coordinates from ORCA-job PhN2+~BF4-_B3LYPG-6-31G_dp-NX-Scan-d89-09-n800
 OpenBabel11261920563D

 18 17  0  0  0  0  0  0  0  0999 V2000
   -1.2233   -0.6347    0.1383 C   0  0  0  0  0  0  0  0  0  0  0  0
   -0.7491   -1.7256    0.7758 N   0  0  0  0  0  0  0  0  0  0  0  0
   -0.3517   -2.6208    1.3264 N   0  0  0  0  0  0  0  0  0  0  0  0
   -2.4545   -0.7428   -0.5590 C   0  0  0  0  0  0  0  0  0  0  0  0
   -2.9525    0.4014   -1.1428 C   0  0  0  0  0  0  0  0  0  0  0  0
   -2.2668    1.6254   -1.0138 C   0  0  0  0  0  0  0  0  0  0  0  0
   -1.0228    1.6977   -0.3466 C   0  0  0  0  0  0  0  0  0  0  0  0
   -0.4865    0.5786    0.2405 C   0  0  0  0  0  0  0  0  0  0  0  0
   -2.9718   -1.6946   -0.6098 H   0  0  0  0  0  0  0  0  0  0  0  0
   -3.8985    0.3672   -1.6708 H   0  0  0  0  0  0  0  0  0  0  0  0
   -2.6796    2.5354   -1.4390 H   0  0  0  0  0  0  0  0  0  0  0  0
   -0.5673    2.6733   -0.2204 H   0  0  0  0  0  0  0  0  0  0  0  0
    0.4443    0.6048    0.7955 H   0  0  0  0  0  0  0  0  0  0  0  0
   -2.9435    4.1648    0.5130 B   0  0  0  0  0  0  0  0  0  0  0  0
   -3.6332    5.0131    1.3423 F   0  0  0  0  0  0  0  0  0  0  0  0
   -3.2902    4.3465   -0.8471 F   0  0  0  0  0  0  0  0  0  0  0  0
   -1.5449    4.3237    0.6462 F   0  0  0  0  0  0  0  0  0  0  0  0
   -3.2621    2.7999    0.8464 F   0  0  0  0  0  0  0  0  0  0  0  0
  1  8  1  0  0  0  0
  1  2  1  0  0  0  0
  2  3  1  0  0  0  0
  4  1  2  0  0  0  0
  5  6  2  0  0  0  0
  5  4  1  0  0  0  0
  6  7  1  0  0  0  0
  7 12  1  0  0  0  0
  7  8  2  0  0  0  0
  8 13  1  0  0  0  0
  9  4  1  0  0  0  0
 10  5  1  0  0  0  0
 11  6  1  0  0  0  0
 14 17  1  0  0  0  0
 14 18  1  0  0  0  0
 14 15  1  0  0  0  0
 16 14  1  0  0  0  0
M  RAD  2   2   2   3   3
M  END
