Coordinates from ORCA-job PhN2+~BF4-_B3LYPG-6-31G_dp-NX-Scan-d89-09-n800
 OpenBabel11261920573D

 18 17  0  0  0  0  0  0  0  0999 V2000
   -1.9590    0.4560    0.0122 C   0  0  0  0  0  0  0  0  0  0  0  0
   -1.7611    0.2719    1.3700 N   0  0  0  0  0  0  0  0  0  0  0  0
   -1.5487    0.2831    2.4630 N   0  0  0  0  0  0  0  0  0  0  0  0
   -2.3679   -0.6606   -0.7367 C   0  0  0  0  0  0  0  0  0  0  0  0
   -2.5602   -0.4866   -2.0993 C   0  0  0  0  0  0  0  0  0  0  0  0
   -2.3449    0.7716   -2.6773 C   0  0  0  0  0  0  0  0  0  0  0  0
   -1.9372    1.8616   -1.9026 C   0  0  0  0  0  0  0  0  0  0  0  0
   -1.7334    1.7332   -0.5318 C   0  0  0  0  0  0  0  0  0  0  0  0
   -2.5287   -1.6179   -0.2537 H   0  0  0  0  0  0  0  0  0  0  0  0
   -2.8788   -1.3247   -2.7092 H   0  0  0  0  0  0  0  0  0  0  0  0
   -2.5018    0.9019   -3.7438 H   0  0  0  0  0  0  0  0  0  0  0  0
   -1.7807    2.8309   -2.3637 H   0  0  0  0  0  0  0  0  0  0  0  0
   -1.4374    2.5762    0.0872 H   0  0  0  0  0  0  0  0  0  0  0  0
   -1.7155    3.2603    2.4014 B   0  0  0  0  0  0  0  0  0  0  0  0
   -1.8303    3.8382    3.6340 F   0  0  0  0  0  0  0  0  0  0  0  0
   -0.5816    2.3701    2.3769 F   0  0  0  0  0  0  0  0  0  0  0  0
   -2.8614    2.4729    2.0975 F   0  0  0  0  0  0  0  0  0  0  0  0
   -1.5254    4.1750    1.3510 F   0  0  0  0  0  0  0  0  0  0  0  0
  1  2  1  0  0  0  0
  2  3  1  0  0  0  0
  4  9  1  0  0  0  0
  4  1  2  0  0  0  0
  5  4  1  0  0  0  0
  6  5  2  0  0  0  0
  6  7  1  0  0  0  0
  7  8  2  0  0  0  0
  8  1  1  0  0  0  0
  8 13  1  0  0  0  0
 10  5  1  0  0  0  0
 11  6  1  0  0  0  0
 12  7  1  0  0  0  0
 14 15  1  0  0  0  0
 16 14  1  0  0  0  0
 17 14  1  0  0  0  0
 18 14  1  0  0  0  0
M  RAD  2   2   2   3   3
M  END
