Coordinates from ORCA-job PhN2+~BF4-_B3LYPG-6-31G_dp-NX-Scan-d89-09-n800
 OpenBabel11261920563D

 18 17  0  0  0  0  0  0  0  0999 V2000
   -1.6928    0.4884    0.0802 C   0  0  0  0  0  0  0  0  0  0  0  0
   -1.3236    0.1978    1.3807 N   0  0  0  0  0  0  0  0  0  0  0  0
   -1.0058   -0.1699    2.3799 N   0  0  0  0  0  0  0  0  0  0  0  0
   -2.4869   -0.4730   -0.5749 C   0  0  0  0  0  0  0  0  0  0  0  0
   -2.8267   -0.2230   -1.8938 C   0  0  0  0  0  0  0  0  0  0  0  0
   -2.3785    0.9485   -2.5237 C   0  0  0  0  0  0  0  0  0  0  0  0
   -1.5927    1.8803   -1.8434 C   0  0  0  0  0  0  0  0  0  0  0  0
   -1.2359    1.6731   -0.5146 C   0  0  0  0  0  0  0  0  0  0  0  0
   -2.8199   -1.3634   -0.0544 H   0  0  0  0  0  0  0  0  0  0  0  0
   -3.4422   -0.9349   -2.4328 H   0  0  0  0  0  0  0  0  0  0  0  0
   -2.6568    1.1353   -3.5561 H   0  0  0  0  0  0  0  0  0  0  0  0
   -1.2709    2.7905   -2.3364 H   0  0  0  0  0  0  0  0  0  0  0  0
   -0.6746    2.3823    0.0788 H   0  0  0  0  0  0  0  0  0  0  0  0
   -2.1104    3.1109    2.1402 B   0  0  0  0  0  0  0  0  0  0  0  0
   -2.3145    3.9795    3.1827 F   0  0  0  0  0  0  0  0  0  0  0  0
   -0.7512    2.6214    2.1295 F   0  0  0  0  0  0  0  0  0  0  0  0
   -2.9306    1.9517    2.2405 F   0  0  0  0  0  0  0  0  0  0  0  0
   -2.3399    3.7178    0.8926 F   0  0  0  0  0  0  0  0  0  0  0  0
  1  2  1  0  0  0  0
  2  3  1  0  0  0  0
  4  9  1  0  0  0  0
  4  1  2  0  0  0  0
  5  4  1  0  0  0  0
  6  5  2  0  0  0  0
  6  7  1  0  0  0  0
  7  8  2  0  0  0  0
  8 13  1  0  0  0  0
  8  1  1  0  0  0  0
 10  5  1  0  0  0  0
 11  6  1  0  0  0  0
 12  7  1  0  0  0  0
 14 17  1  0  0  0  0
 14 15  1  0  0  0  0
 16 14  1  0  0  0  0
 18 14  1  0  0  0  0
M  RAD  2   2   2   3   3
M  END
