Coordinates from ORCA-job PhN2+~BF4-_B3LYPG-6-31G_dp-NX-Scan-d89-09-n800
 OpenBabel11261920563D

 18 17  0  0  0  0  0  0  0  0999 V2000
   -1.2969   -0.0762    0.2563 C   0  0  0  0  0  0  0  0  0  0  0  0
   -0.8137   -0.8555    1.2498 N   0  0  0  0  0  0  0  0  0  0  0  0
   -0.4069   -1.5175    2.0600 N   0  0  0  0  0  0  0  0  0  0  0  0
   -2.5787   -0.3784   -0.2663 C   0  0  0  0  0  0  0  0  0  0  0  0
   -3.0681    0.4495   -1.2500 C   0  0  0  0  0  0  0  0  0  0  0  0
   -2.3196    1.5608   -1.6776 C   0  0  0  0  0  0  0  0  0  0  0  0
   -1.0373    1.8188   -1.1715 C   0  0  0  0  0  0  0  0  0  0  0  0
   -0.5162    1.0207   -0.1766 C   0  0  0  0  0  0  0  0  0  0  0  0
   -3.1408   -1.2226    0.1155 H   0  0  0  0  0  0  0  0  0  0  0  0
   -4.0550    0.2725   -1.6607 H   0  0  0  0  0  0  0  0  0  0  0  0
   -2.7336    2.2199   -2.4297 H   0  0  0  0  0  0  0  0  0  0  0  0
   -0.4947    2.6985   -1.4900 H   0  0  0  0  0  0  0  0  0  0  0  0
    0.4377    1.2344    0.2893 H   0  0  0  0  0  0  0  0  0  0  0  0
   -2.7713    3.3173    1.0085 B   0  0  0  0  0  0  0  0  0  0  0  0
   -3.4197    4.2007    1.8450 F   0  0  0  0  0  0  0  0  0  0  0  0
   -1.4487    3.7313    0.7385 F   0  0  0  0  0  0  0  0  0  0  0  0
   -2.7200    2.0133    1.5718 F   0  0  0  0  0  0  0  0  0  0  0  0
   -3.4704    3.2257   -0.2372 F   0  0  0  0  0  0  0  0  0  0  0  0
  1  2  1  0  0  0  0
  2  3  1  0  0  0  0
  4  9  1  0  0  0  0
  4  1  2  0  0  0  0
  5  4  1  0  0  0  0
  6  5  2  0  0  0  0
  6  7  1  0  0  0  0
  7  8  2  0  0  0  0
  8  1  1  0  0  0  0
  8 13  1  0  0  0  0
 10  5  1  0  0  0  0
 11  6  1  0  0  0  0
 12  7  1  0  0  0  0
 14 17  1  0  0  0  0
 14 15  1  0  0  0  0
 16 14  1  0  0  0  0
 18 14  1  0  0  0  0
M  RAD  2   2   2   3   3
M  END
