Coordinates from ORCA-job PhN2+~BF4-_B3LYPG-6-31G_dp-NX-Scan-d89-09-n800
 OpenBabel11261920573D

 18 17  0  0  0  0  0  0  0  0999 V2000
   -1.8864    0.5706    0.0154 C   0  0  0  0  0  0  0  0  0  0  0  0
   -1.6620    0.4717    1.3825 N   0  0  0  0  0  0  0  0  0  0  0  0
   -1.4715    0.2333    2.4514 N   0  0  0  0  0  0  0  0  0  0  0  0
   -2.4794   -0.5470   -0.5981 C   0  0  0  0  0  0  0  0  0  0  0  0
   -2.6903   -0.4843   -1.9681 C   0  0  0  0  0  0  0  0  0  0  0  0
   -2.3087    0.6584   -2.6837 C   0  0  0  0  0  0  0  0  0  0  0  0
   -1.7150    1.7486   -2.0400 C   0  0  0  0  0  0  0  0  0  0  0  0
   -1.4964    1.7315   -0.6669 C   0  0  0  0  0  0  0  0  0  0  0  0
   -2.7660   -1.4142   -0.0139 H   0  0  0  0  0  0  0  0  0  0  0  0
   -3.1520   -1.3232   -2.4775 H   0  0  0  0  0  0  0  0  0  0  0  0
   -2.4805    0.6969   -3.7551 H   0  0  0  0  0  0  0  0  0  0  0  0
   -1.4279    2.6270   -2.6079 H   0  0  0  0  0  0  0  0  0  0  0  0
   -1.0507    2.5439   -0.1006 H   0  0  0  0  0  0  0  0  0  0  0  0
   -1.8641    3.2787    2.3956 B   0  0  0  0  0  0  0  0  0  0  0  0
   -1.8259    2.6823    3.6564 F   0  0  0  0  0  0  0  0  0  0  0  0
   -0.6271    2.9689    1.7226 F   0  0  0  0  0  0  0  0  0  0  0  0
   -2.8855    2.6356    1.6237 F   0  0  0  0  0  0  0  0  0  0  0  0
   -2.0644    4.6346    2.4392 F   0  0  0  0  0  0  0  0  0  0  0  0
  1  2  1  0  0  0  0
  2  3  1  0  0  0  0
  4  9  1  0  0  0  0
  4  1  1  0  0  0  0
  5  4  2  0  0  0  0
  6  7  2  0  0  0  0
  6  5  1  0  0  0  0
  7  8  1  0  0  0  0
  8 13  1  0  0  0  0
  8  1  2  0  0  0  0
 10  5  1  0  0  0  0
 11  6  1  0  0  0  0
 12  7  1  0  0  0  0
 14 18  1  0  0  0  0
 14 15  1  0  0  0  0
 16 14  1  0  0  0  0
 17 14  1  0  0  0  0
M  RAD  2   2   2   3   3
M  END
