Coordinates from ORCA-job PhN2+~BF4-_B3LYPG-6-31G_dp-NX-Scan-d89-09-n800
 OpenBabel11261920563D

 18 17  0  0  0  0  0  0  0  0999 V2000
   -1.2641   -0.3702    0.1934 C   0  0  0  0  0  0  0  0  0  0  0  0
   -0.7795   -1.3051    1.0416 N   0  0  0  0  0  0  0  0  0  0  0  0
   -0.3743   -2.0736    1.7533 N   0  0  0  0  0  0  0  0  0  0  0  0
   -2.5038   -0.6231   -0.4530 C   0  0  0  0  0  0  0  0  0  0  0  0
   -3.0146    0.3793   -1.2448 C   0  0  0  0  0  0  0  0  0  0  0  0
   -2.3295    1.6045   -1.3716 C   0  0  0  0  0  0  0  0  0  0  0  0
   -1.0723    1.8047   -0.7757 C   0  0  0  0  0  0  0  0  0  0  0  0
   -0.5313    0.8330    0.0347 C   0  0  0  0  0  0  0  0  0  0  0  0
   -3.0211   -1.5631   -0.2979 H   0  0  0  0  0  0  0  0  0  0  0  0
   -3.9749    0.2455   -1.7287 H   0  0  0  0  0  0  0  0  0  0  0  0
   -2.7621    2.4131   -1.9443 H   0  0  0  0  0  0  0  0  0  0  0  0
   -0.6081    2.7780   -0.8564 H   0  0  0  0  0  0  0  0  0  0  0  0
    0.3972    0.9838    0.5719 H   0  0  0  0  0  0  0  0  0  0  0  0
   -2.8059    3.7464    0.7947 B   0  0  0  0  0  0  0  0  0  0  0  0
   -3.4759    4.6945    1.5331 F   0  0  0  0  0  0  0  0  0  0  0  0
   -2.1268    4.3322   -0.3060 F   0  0  0  0  0  0  0  0  0  0  0  0
   -1.8710    3.0381    1.5778 F   0  0  0  0  0  0  0  0  0  0  0  0
   -3.7359    2.7952    0.2530 F   0  0  0  0  0  0  0  0  0  0  0  0
  1  2  1  0  0  0  0
  2  3  1  0  0  0  0
  4  9  1  0  0  0  0
  4  1  2  0  0  0  0
  5  4  1  0  0  0  0
  6  5  2  0  0  0  0
  6  7  1  0  0  0  0
  7  8  2  0  0  0  0
  8  1  1  0  0  0  0
  8 13  1  0  0  0  0
 10  5  1  0  0  0  0
 11  6  1  0  0  0  0
 12  7  1  0  0  0  0
 14 15  1  0  0  0  0
 14 17  1  0  0  0  0
 16 14  1  0  0  0  0
 18 14  1  0  0  0  0
M  RAD  2   2   2   3   3
M  END
