Coordinates from ORCA-job PhN2+~BF4-_B3LYPG-6-31G_dp-NX-Scan-d89-09-n800
 OpenBabel11261920563D

 18 17  0  0  0  0  0  0  0  0999 V2000
   -1.2573   -0.3947    0.1893 C   0  0  0  0  0  0  0  0  0  0  0  0
   -0.7645   -1.3472    1.0126 N   0  0  0  0  0  0  0  0  0  0  0  0
   -0.3510   -2.1333    1.6998 N   0  0  0  0  0  0  0  0  0  0  0  0
   -2.4979   -0.6390   -0.4586 C   0  0  0  0  0  0  0  0  0  0  0  0
   -3.0140    0.3763   -1.2306 C   0  0  0  0  0  0  0  0  0  0  0  0
   -2.3329    1.6055   -1.3374 C   0  0  0  0  0  0  0  0  0  0  0  0
   -1.0773    1.8008   -0.7349 C   0  0  0  0  0  0  0  0  0  0  0  0
   -0.5302    0.8155    0.0542 C   0  0  0  0  0  0  0  0  0  0  0  0
   -3.0108   -1.5842   -0.3214 H   0  0  0  0  0  0  0  0  0  0  0  0
   -3.9736    0.2468   -1.7171 H   0  0  0  0  0  0  0  0  0  0  0  0
   -2.7641    2.4222   -1.8996 H   0  0  0  0  0  0  0  0  0  0  0  0
   -0.6158    2.7763   -0.8028 H   0  0  0  0  0  0  0  0  0  0  0  0
    0.4001    0.9585    0.5907 H   0  0  0  0  0  0  0  0  0  0  0  0
   -2.8159    3.7879    0.7705 B   0  0  0  0  0  0  0  0  0  0  0  0
   -3.4926    4.7489    1.4853 F   0  0  0  0  0  0  0  0  0  0  0  0
   -2.1612    4.3470   -0.3594 F   0  0  0  0  0  0  0  0  0  0  0  0
   -1.8582    3.1220    1.5619 F   0  0  0  0  0  0  0  0  0  0  0  0
   -3.7366    2.8039    0.2724 F   0  0  0  0  0  0  0  0  0  0  0  0
  1  2  1  0  0  0  0
  2  3  1  0  0  0  0
  4  9  1  0  0  0  0
  4  1  2  0  0  0  0
  5  4  1  0  0  0  0
  6  5  2  0  0  0  0
  6  7  1  0  0  0  0
  7  8  2  0  0  0  0
  8  1  1  0  0  0  0
  8 13  1  0  0  0  0
 10  5  1  0  0  0  0
 11  6  1  0  0  0  0
 12  7  1  0  0  0  0
 14 15  1  0  0  0  0
 14 17  1  0  0  0  0
 16 14  1  0  0  0  0
 18 14  1  0  0  0  0
M  RAD  2   2   2   3   3
M  END
