Coordinates from ORCA-job PhN2+~BF4-_B3LYPG-6-31G_dp-NX-Scan-d89-09-n800
 OpenBabel11261920563D

 18 17  0  0  0  0  0  0  0  0999 V2000
   -1.7286    0.1303    0.1344 C   0  0  0  0  0  0  0  0  0  0  0  0
   -1.3915   -0.3978    1.3557 N   0  0  0  0  0  0  0  0  0  0  0  0
   -1.1183   -0.9366    2.2943 N   0  0  0  0  0  0  0  0  0  0  0  0
   -2.4757   -0.7097   -0.7297 C   0  0  0  0  0  0  0  0  0  0  0  0
   -2.7950   -0.2032   -1.9724 C   0  0  0  0  0  0  0  0  0  0  0  0
   -2.3897    1.0987   -2.3297 C   0  0  0  0  0  0  0  0  0  0  0  0
   -1.6658    1.9000   -1.4516 C   0  0  0  0  0  0  0  0  0  0  0  0
   -1.3117    1.4317   -0.1874 C   0  0  0  0  0  0  0  0  0  0  0  0
   -2.7792   -1.7009   -0.4138 H   0  0  0  0  0  0  0  0  0  0  0  0
   -3.3658   -0.8085   -2.6682 H   0  0  0  0  0  0  0  0  0  0  0  0
   -2.6631    1.4858   -3.3062 H   0  0  0  0  0  0  0  0  0  0  0  0
   -1.3979    2.9167   -1.7106 H   0  0  0  0  0  0  0  0  0  0  0  0
   -0.7683    2.0598    0.5194 H   0  0  0  0  0  0  0  0  0  0  0  0
   -2.0199    3.5180    1.8739 B   0  0  0  0  0  0  0  0  0  0  0  0
   -2.3968    4.5470    2.7090 F   0  0  0  0  0  0  0  0  0  0  0  0
   -0.6380    3.6230    1.5166 F   0  0  0  0  0  0  0  0  0  0  0  0
   -2.1784    2.2290    2.4668 F   0  0  0  0  0  0  0  0  0  0  0  0
   -2.7702    3.5299    0.6745 F   0  0  0  0  0  0  0  0  0  0  0  0
  1  2  1  0  0  0  0
  2  3  1  0  0  0  0
  4  9  1  0  0  0  0
  4  1  2  0  0  0  0
  5  4  1  0  0  0  0
  6  5  2  0  0  0  0
  6  7  1  0  0  0  0
  7  8  2  0  0  0  0
  8  1  1  0  0  0  0
  8 13  1  0  0  0  0
 10  5  1  0  0  0  0
 11  6  1  0  0  0  0
 12  7  1  0  0  0  0
 14 17  1  0  0  0  0
 14 15  1  0  0  0  0
 16 14  1  0  0  0  0
 18 14  1  0  0  0  0
M  RAD  2   2   2   3   3
M  END
