Coordinates from ORCA-job PhN2+~BF4-_B3LYPG-6-31G_dp-NX-Scan-d89-09-n800
 OpenBabel11261920563D

 18 17  0  0  0  0  0  0  0  0999 V2000
   -1.2672   -0.3580    0.1973 C   0  0  0  0  0  0  0  0  0  0  0  0
   -0.7833   -1.2872    1.0523 N   0  0  0  0  0  0  0  0  0  0  0  0
   -0.3787   -2.0529    1.7672 N   0  0  0  0  0  0  0  0  0  0  0  0
   -2.5072   -0.6148   -0.4468 C   0  0  0  0  0  0  0  0  0  0  0  0
   -3.0161    0.3809   -1.2480 C   0  0  0  0  0  0  0  0  0  0  0  0
   -2.3281    1.6032   -1.3872 C   0  0  0  0  0  0  0  0  0  0  0  0
   -1.0701    1.8061   -0.7951 C   0  0  0  0  0  0  0  0  0  0  0  0
   -0.5324    0.8423    0.0273 C   0  0  0  0  0  0  0  0  0  0  0  0
   -3.0263   -1.5522   -0.2829 H   0  0  0  0  0  0  0  0  0  0  0  0
   -3.9770    0.2447   -1.7300 H   0  0  0  0  0  0  0  0  0  0  0  0
   -2.7603    2.4062   -1.9683 H   0  0  0  0  0  0  0  0  0  0  0  0
   -0.6032    2.7773   -0.8841 H   0  0  0  0  0  0  0  0  0  0  0  0
    0.3959    0.9970    0.5636 H   0  0  0  0  0  0  0  0  0  0  0  0
   -2.8026    3.7289    0.8061 B   0  0  0  0  0  0  0  0  0  0  0  0
   -3.4721    4.6749    1.5479 F   0  0  0  0  0  0  0  0  0  0  0  0
   -2.1004    4.3227   -0.2753 F   0  0  0  0  0  0  0  0  0  0  0  0
   -1.8890    2.9973    1.5934 F   0  0  0  0  0  0  0  0  0  0  0  0
   -3.7358    2.7968    0.2376 F   0  0  0  0  0  0  0  0  0  0  0  0
  1  2  1  0  0  0  0
  2  3  1  0  0  0  0
  4  9  1  0  0  0  0
  4  1  2  0  0  0  0
  5  4  1  0  0  0  0
  6  5  2  0  0  0  0
  6  7  1  0  0  0  0
  7  8  2  0  0  0  0
  8  1  1  0  0  0  0
  8 13  1  0  0  0  0
 10  5  1  0  0  0  0
 11  6  1  0  0  0  0
 12  7  1  0  0  0  0
 14 15  1  0  0  0  0
 14 17  1  0  0  0  0
 16 14  1  0  0  0  0
 18 14  1  0  0  0  0
M  RAD  2   2   2   3   3
M  END
