Coordinates from ORCA-job PhN2+~BF4-_B3LYPG-6-31G_dp-NX-Scan-d89-09-n800
 OpenBabel11261920563D

 18 17  0  0  0  0  0  0  0  0999 V2000
   -1.2188   -0.6691    0.1178 C   0  0  0  0  0  0  0  0  0  0  0  0
   -0.6986   -1.7592    0.7249 N   0  0  0  0  0  0  0  0  0  0  0  0
   -0.2552   -2.6482    1.2480 N   0  0  0  0  0  0  0  0  0  0  0  0
   -2.4211   -0.8168   -0.6181 C   0  0  0  0  0  0  0  0  0  0  0  0
   -2.9633    0.3241   -1.1740 C   0  0  0  0  0  0  0  0  0  0  0  0
   -2.3465    1.5740   -0.9824 C   0  0  0  0  0  0  0  0  0  0  0  0
   -1.1344    1.6891   -0.2661 C   0  0  0  0  0  0  0  0  0  0  0  0
   -0.5531    0.5759    0.2923 C   0  0  0  0  0  0  0  0  0  0  0  0
   -2.8844   -1.7918   -0.7209 H   0  0  0  0  0  0  0  0  0  0  0  0
   -3.8895    0.2585   -1.7338 H   0  0  0  0  0  0  0  0  0  0  0  0
   -2.7936    2.4849   -1.3723 H   0  0  0  0  0  0  0  0  0  0  0  0
   -0.7348    2.6846   -0.0934 H   0  0  0  0  0  0  0  0  0  0  0  0
    0.3580    0.6293    0.8773 H   0  0  0  0  0  0  0  0  0  0  0  0
   -2.8748    4.2669    0.5083 B   0  0  0  0  0  0  0  0  0  0  0  0
   -3.5312    5.2054    1.2648 F   0  0  0  0  0  0  0  0  0  0  0  0
   -3.2342    4.3443   -0.8618 F   0  0  0  0  0  0  0  0  0  0  0  0
   -1.4674    4.4126    0.6074 F   0  0  0  0  0  0  0  0  0  0  0  0
   -3.2110    2.9488    0.9568 F   0  0  0  0  0  0  0  0  0  0  0  0
  1  8  1  0  0  0  0
  1  2  1  0  0  0  0
  2  3  1  0  0  0  0
  4  1  2  0  0  0  0
  5  6  2  0  0  0  0
  5  4  1  0  0  0  0
  6  7  1  0  0  0  0
  7 12  1  0  0  0  0
  7  8  2  0  0  0  0
  8 13  1  0  0  0  0
  9  4  1  0  0  0  0
 10  5  1  0  0  0  0
 11  6  1  0  0  0  0
 14 17  1  0  0  0  0
 14 18  1  0  0  0  0
 14 15  1  0  0  0  0
 16 14  1  0  0  0  0
M  RAD  2   2   2   3   3
M  END
