Coordinates from ORCA-job PhN2+~BF4-_B3LYPG-6-31G_dp-NX-Scan-d89-09-n800
 OpenBabel11261920573D

 18 17  0  0  0  0  0  0  0  0999 V2000
   -1.8384    0.5265    0.0315 C   0  0  0  0  0  0  0  0  0  0  0  0
   -1.5738    0.3570    1.3832 N   0  0  0  0  0  0  0  0  0  0  0  0
   -1.3422    0.0756    2.4318 N   0  0  0  0  0  0  0  0  0  0  0  0
   -2.4559   -0.5558   -0.6193 C   0  0  0  0  0  0  0  0  0  0  0  0
   -2.7081   -0.4233   -1.9775 C   0  0  0  0  0  0  0  0  0  0  0  0
   -2.3451    0.7535   -2.6453 C   0  0  0  0  0  0  0  0  0  0  0  0
   -1.7283    1.8088   -1.9654 C   0  0  0  0  0  0  0  0  0  0  0  0
   -1.4665    1.7203   -0.6033 C   0  0  0  0  0  0  0  0  0  0  0  0
   -2.7293   -1.4503   -0.0712 H   0  0  0  0  0  0  0  0  0  0  0  0
   -3.1889   -1.2340   -2.5140 H   0  0  0  0  0  0  0  0  0  0  0  0
   -2.5507    0.8477   -3.7071 H   0  0  0  0  0  0  0  0  0  0  0  0
   -1.4588    2.7162   -2.4947 H   0  0  0  0  0  0  0  0  0  0  0  0
   -1.0038    2.5043   -0.0131 H   0  0  0  0  0  0  0  0  0  0  0  0
   -1.9083    3.2553    2.3370 B   0  0  0  0  0  0  0  0  0  0  0  0
   -1.9606    3.2658    3.7135 F   0  0  0  0  0  0  0  0  0  0  0  0
   -0.6443    2.6771    1.9150 F   0  0  0  0  0  0  0  0  0  0  0  0
   -2.9101    2.3683    1.8173 F   0  0  0  0  0  0  0  0  0  0  0  0
   -2.0409    4.5003    1.7567 F   0  0  0  0  0  0  0  0  0  0  0  0
  1  2  1  0  0  0  0
  2  3  1  0  0  0  0
  4  9  1  0  0  0  0
  4  1  2  0  0  0  0
  5  4  1  0  0  0  0
  6  5  2  0  0  0  0
  6  7  1  0  0  0  0
  7  8  2  0  0  0  0
  8 13  1  0  0  0  0
  8  1  1  0  0  0  0
 10  5  1  0  0  0  0
 11  6  1  0  0  0  0
 12  7  1  0  0  0  0
 14 15  1  0  0  0  0
 16 14  1  0  0  0  0
 17 14  1  0  0  0  0
 18 14  1  0  0  0  0
M  RAD  2   2   2   3   3
M  END
