Coordinates from ORCA-job PhN2+~BF4-_B3LYPG-6-31G_dp-NX-Scan-d89-09-n800
 OpenBabel11261920563D

 18 17  0  0  0  0  0  0  0  0999 V2000
   -1.7608    0.4933    0.0626 C   0  0  0  0  0  0  0  0  0  0  0  0
   -1.4388    0.2360    1.3842 N   0  0  0  0  0  0  0  0  0  0  0  0
   -1.1628   -0.0801    2.4121 N   0  0  0  0  0  0  0  0  0  0  0  0
   -2.4665   -0.5180   -0.6166 C   0  0  0  0  0  0  0  0  0  0  0  0
   -2.7627   -0.2998   -1.9527 C   0  0  0  0  0  0  0  0  0  0  0  0
   -2.3579    0.8901   -2.5751 C   0  0  0  0  0  0  0  0  0  0  0  0
   -1.6594    1.8726   -1.8696 C   0  0  0  0  0  0  0  0  0  0  0  0
   -1.3468    1.6974   -0.5256 C   0  0  0  0  0  0  0  0  0  0  0  0
   -2.7685   -1.4234   -0.1028 H   0  0  0  0  0  0  0  0  0  0  0  0
   -3.3098   -1.0525   -2.5100 H   0  0  0  0  0  0  0  0  0  0  0  0
   -2.5993    1.0514   -3.6211 H   0  0  0  0  0  0  0  0  0  0  0  0
   -1.3668    2.7951   -2.3586 H   0  0  0  0  0  0  0  0  0  0  0  0
   -0.8479    2.4435    0.0802 H   0  0  0  0  0  0  0  0  0  0  0  0
   -2.0209    3.1589    2.2174 B   0  0  0  0  0  0  0  0  0  0  0  0
   -2.1278    3.9116    3.3577 F   0  0  0  0  0  0  0  0  0  0  0  0
   -0.6989    2.5803    2.1129 F   0  0  0  0  0  0  0  0  0  0  0  0
   -2.9220    2.0549    2.2315 F   0  0  0  0  0  0  0  0  0  0  0  0
   -2.2363    3.9020    1.0484 F   0  0  0  0  0  0  0  0  0  0  0  0
  1  2  1  0  0  0  0
  2  3  1  0  0  0  0
  4  9  1  0  0  0  0
  4  1  2  0  0  0  0
  5  4  1  0  0  0  0
  6  5  2  0  0  0  0
  6  7  1  0  0  0  0
  7  8  2  0  0  0  0
  8  1  1  0  0  0  0
  8 13  1  0  0  0  0
 10  5  1  0  0  0  0
 11  6  1  0  0  0  0
 12  7  1  0  0  0  0
 14 17  1  0  0  0  0
 14 15  1  0  0  0  0
 16 14  1  0  0  0  0
 18 14  1  0  0  0  0
M  RAD  2   2   2   3   3
M  END
