Coordinates from ORCA-job PhN2+~BF4-_B3LYPG-6-31G_dp-NX-Scan-d89-09-n800
 OpenBabel11261920563D

 18 17  0  0  0  0  0  0  0  0999 V2000
   -1.2367   -0.5889    0.1518 C   0  0  0  0  0  0  0  0  0  0  0  0
   -0.8058   -1.6540    0.8580 N   0  0  0  0  0  0  0  0  0  0  0  0
   -0.4459   -2.5251    1.4702 N   0  0  0  0  0  0  0  0  0  0  0  0
   -2.4735   -0.6906   -0.5383 C   0  0  0  0  0  0  0  0  0  0  0  0
   -2.9418    0.4412   -1.1654 C   0  0  0  0  0  0  0  0  0  0  0  0
   -2.2256    1.6526   -1.0780 C   0  0  0  0  0  0  0  0  0  0  0  0
   -0.9642    1.7103   -0.4428 C   0  0  0  0  0  0  0  0  0  0  0  0
   -0.4580    0.6015    0.1881 C   0  0  0  0  0  0  0  0  0  0  0  0
   -3.0200   -1.6272   -0.5434 H   0  0  0  0  0  0  0  0  0  0  0  0
   -3.8938    0.4155   -1.6830 H   0  0  0  0  0  0  0  0  0  0  0  0
   -2.6271    2.5593   -1.5189 H   0  0  0  0  0  0  0  0  0  0  0  0
   -0.4709    2.6708   -0.3634 H   0  0  0  0  0  0  0  0  0  0  0  0
    0.4792    0.6220    0.7325 H   0  0  0  0  0  0  0  0  0  0  0  0
   -2.9619    4.0622    0.5549 B   0  0  0  0  0  0  0  0  0  0  0  0
   -3.6605    4.8321    1.4507 F   0  0  0  0  0  0  0  0  0  0  0  0
   -3.3080    4.3446   -0.7856 F   0  0  0  0  0  0  0  0  0  0  0  0
   -1.5665    4.2166    0.7058 F   0  0  0  0  0  0  0  0  0  0  0  0
   -3.2728    2.6700    0.7818 F   0  0  0  0  0  0  0  0  0  0  0  0
  1  8  1  0  0  0  0
  1  2  1  0  0  0  0
  2  3  1  0  0  0  0
  4  1  2  0  0  0  0
  5  6  2  0  0  0  0
  5  4  1  0  0  0  0
  6  7  1  0  0  0  0
  7 12  1  0  0  0  0
  7  8  2  0  0  0  0
  8 13  1  0  0  0  0
  9  4  1  0  0  0  0
 10  5  1  0  0  0  0
 11  6  1  0  0  0  0
 14 17  1  0  0  0  0
 14 18  1  0  0  0  0
 14 15  1  0  0  0  0
 16 14  1  0  0  0  0
M  RAD  2   2   2   3   3
M  END
