18
Coordinates from ORCA-job PhN2+~BF4-_B3LYPG-6-31G_dp-NX-Scan-d89-09-n800
  C   -2.30462246992490      1.14399987821878     -0.26690609320542
  N   -2.65345450252257      1.74508084260440      0.98707617421507
  N   -1.68757167079540      2.30571716574449      1.62736089223814
  C   -2.83314667635286     -0.13218998690739     -0.50703383393880
  C   -2.58798319289581     -0.77306813857961     -1.71860515035760
  C   -1.83709919430962     -0.13743831973236     -2.71117417641177
  C   -1.33484893238013      1.14512567133863     -2.48715903237299
  C   -1.55995688967512      1.78789242353531     -1.26976787503920
  H   -3.42990331573472     -0.60126201663428      0.26862560802701
  H   -2.99234631885897     -1.76514445110911     -1.89292183705824
  H   -1.65478894151305     -0.63424060771594     -3.65911218031838
  H   -0.76857523211142      1.65225982933038     -3.26259787004666
  H   -1.18884805873479      2.79931997789298     -1.12754954878678
  B   -2.04453687478105      3.10937996342187      3.18633157286102
  F   -0.83363701308131      2.33207712940542      1.34434012945478
  F   -1.94165379533863      4.41815802571728      2.80563243784722
  F   -0.95000403556011      2.63820659261717      3.86701211133742
  F   -3.25092288542957      2.67932602085189      3.59144867155517
