18
Coordinates from ORCA-job PhN2+~BF4-_B3LYPG-6-31G_dp-NX-Scan-d89-09-n800
  C   -1.95201709126006      0.44946677575027      0.01569475549862
  N   -1.76109785906318      0.27840916991691      1.37680788755725
  N   -1.54363455669633      0.34959044318027      2.46730887415721
  C   -2.37782147175205     -0.66324813815201     -0.72744225348086
  C   -2.57067521040427     -0.49234069023760     -2.09088102214118
  C   -2.34159734771098      0.76047049059740     -2.67443415633427
  C   -1.91547083870980      1.84806732433698     -1.90563181359370
  C   -1.70811146948324      1.72066481197322     -0.53607608789566
  H   -2.55116663449775     -1.61622097554176     -0.24019402792020
  H   -2.90120221126327     -1.32871007826157     -2.69675976692071
  H   -2.50112790984933      0.88904048851771     -3.74068152707178
  H   -1.74667387738155      2.81318806524462     -2.37115529654323
  H   -1.38840824366677      2.55220888783497      0.08179687992140
  B   -1.73507420369613      3.27343377735395      2.39210462615324
  F   -1.81136787729061      3.67247663934356      3.69727028190131
  F   -0.58309737681484      2.40707055468763      2.22679652630006
  F   -2.87547380525790      2.49702117419550      2.03893960190977
  F   -1.58988201520196      4.30261127925986      1.46153651850278
