18
Coordinates from ORCA-job PhN2+~BF4-_B3LYPG-6-31G_dp-NX-Scan-d89-09-n800
  C   -1.26103233521545     -0.38505524684356      0.18863386420648
  N   -0.77637115410241     -1.32659555317291      1.02931900977015
  N   -0.36904947227379     -2.10000177560894      1.73451379776139
  C   -2.49951838491429     -0.63347325448030     -0.46160913916183
  C   -3.01248542435621      0.37696220704367     -1.24197116159478
  C   -2.33131419460403      1.60585930926472     -1.35229517164424
  C   -1.07558925220931      1.80297370277473     -0.75144706215365
  C   -0.53097818145649      0.82217060222414      0.04506145826872
  H   -3.01428018511897     -1.57669972846438     -0.31810275310550
  H   -3.97171299110091      0.24603244199068     -1.72882859136404
  H   -2.76437988636733      2.42187788129111     -1.91405899885571
  H   -0.61470440908840      2.77865015784789     -0.82166035502476
  H   0.39706554302564      0.96855184252866      0.58433898091882
  B   -2.80910407956496      3.76800328369477      0.78080674763217
  F   -3.48027054247567      4.71875156807699      1.51400075028246
  F   -2.16252300444876      4.34188874545615     -0.34625992344396
  F   -1.84486829700006      3.09289461884409      1.55749783302846
  F   -3.73278374872863      2.79040919753239      0.27706071447980
