18
Coordinates from ORCA-job PhN2+~BF4-_B3LYPG-6-31G_dp-NX-Scan-d89-09-n800
  C   -1.25874403187304     -0.40951998706353      0.17883269620767
  N   -0.77805844474170     -1.36345929913845      1.00707731672748
  N   -0.37646044594178     -2.14276442947025      1.70909721726213
  C   -2.49251636848350     -0.64921169407909     -0.48332795454369
  C   -3.00700690573228      0.37660589314497     -1.24257484226832
  C   -2.33231708204059      1.61138298821783     -1.31904878178564
  C   -1.07837316722206      1.79995574923252     -0.70967629947195
  C   -0.53098214496599      0.80288582694310      0.06344675516736
  H   -3.00333510866799     -1.59790761841634     -0.36349137558439
  H   -3.96312225806757      0.25251598244025     -1.73737404984558
  H   -2.76473563886486      2.44288202318770     -1.85816796413083
  H   -0.61993154309636      2.77780593252349     -0.76171767512368
  H   0.39580503690768      0.93921831223776      0.60763337831676
  B   -2.81311244604033      3.80183487571230      0.76034065006131
  F   -3.49999213341927      4.75781418388586      1.47051466622344
  F   -2.25517942739540      4.33785692032165     -0.43263910686755
  F   -1.77380647363155      3.22904032068381      1.52160283488741
  F   -3.70203141672343      2.74626401963633      0.36447253476806
