18
Coordinates from ORCA-job PhN2+~BF4-_B3LYPG-6-31G_dp-NX-Scan-d89-09-n800
  C   -1.25795543680397     -0.52057394593609      0.16386234689392
  N   -0.86409513641049     -1.53154216887988      0.96481664629860
  N   -0.53878775839368     -2.35189861822812      1.66052326150204
  C   -2.48769713573530     -0.65033532864445     -0.53477979515598
  C   -2.93821176794728      0.44997665354071     -1.22599803263932
  C   -2.21394684297567      1.65900610634364     -1.18522335624773
  C   -0.94607296945972      1.73222174569153     -0.56803086691019
  C   -0.45796449565206      0.65423994684068      0.12801564988571
  H   -3.04709898295375     -1.57796684647723     -0.48764183997500
  H   -3.88939614851182      0.40947611436777     -1.74377664974474
  H   -2.61919773448334      2.55640272976171     -1.64004354280570
  H   -0.43121592230941      2.68309807845430     -0.54024433996571
  H   0.47606992994042      0.69400656956665      0.67635433362757
  B   -2.93475964598251      3.93781948421466      0.63647506792547
  F   -3.64411093392250      4.64818621091079      1.57330543990979
  F   -3.21177047757822      4.35137507702300     -0.68432207001239
  F   -1.54347579483764      4.02495331382014      0.85969801170230
  F   -3.30421274598307      2.54475487763013      0.72200973571136
