18
Coordinates from ORCA-job PhN2+~BF4-_B3LYPG-6-31G_dp-NX-Scan-d89-09-n800
  C   -1.26185237730949     -0.37565935726758      0.19364865125213
  N   -0.77293269908469     -1.31729002309206      1.03199662778091
  N   -0.36489066930398     -2.09244154824119      1.73473589296207
  C   -2.50274232969626     -0.62599387807474     -0.45138187866290
  C   -3.01512040467412      0.37917496862116     -1.23859590157895
  C   -2.33014328589511      1.60465361139930     -1.36318931213446
  C   -1.07283745273459      1.80365144716868     -0.76665785361376
  C   -0.53044716781563      0.82919112728804      0.03940453975326
  H   -3.01922099547413     -1.56700749522106     -0.29978171797855
  H   -3.97582463044198      0.24660408194914     -1.72204885746714
  H   -2.76174528996498      2.41367305156095     -1.93613467527325
  H   -0.60875224049542      2.77709756340749     -0.84587582904716
  H   0.39954459685684      0.97765202541825      0.57473738042573
  B   -2.80997685229532      3.75718609425787      0.78917256148292
  F   -3.48317405555431      4.71213438865605      1.51627987041874
  F   -2.12698143825121      4.33409386092323     -0.31394044895565
  F   -1.87850175297546      3.05497829001298      1.58085711960434
  F   -3.73830095489018      2.80150179123339      0.25177383103172
