18
Coordinates from ORCA-job PhN2+~BF4-_B3LYPG-6-31G_dp-NX-Scan-d89-09-n800
  C   -1.21135083208415     -0.68863884981742      0.11384947319619
  N   -0.66816829874447     -1.78883696706964      0.68229113399831
  N   -0.20610797006404     -2.68967462554422      1.16724593052607
  C   -2.41143834905972     -0.83626138106143     -0.62570951817015
  C   -2.96828853240960      0.30947818802126     -1.15728200654280
  C   -2.36631310171373      1.56294671267989     -0.94296827525408
  C   -1.16122140506465      1.67950333904272     -0.21544946927750
  C   -0.56619665106131      0.56202975181058      0.32064021119357
  H   -2.86030940505054     -1.81511497123057     -0.75268184950088
  H   -3.89204456161888      0.24252154369583     -1.72116395734593
  H   -2.81860288693378      2.47519481011948     -1.32464553669391
  H   -0.77258627827265      2.67700688803982     -0.02664703903822
  H   0.34411150527858      0.61510697612916      0.90711838315526
  B   -2.87037317658448      4.31267295211552      0.48316602176206
  F   -3.51670585725670      5.29048638131684      1.19804983737192
  F   -3.21660530633652      4.34828405123281     -0.89306273831920
  F   -1.46084911286987      4.43878365436334      0.58908564379664
  F   -3.23084978015350      3.01771154615597      0.97316375514266
