18
Coordinates from ORCA-job PhN2+~BF4-_B3LYPG-6-31G_dp-NX-Scan-d89-09-n800
  C   -1.92532129417213      0.57101746114537      0.01498208106433
  N   -1.74404531855430      0.50070902190233      1.38942874116104
  N   -1.60096041919025      0.33986953145002      2.48226833395301
  C   -2.47161323156160     -0.56822782906729     -0.60244493623304
  C   -2.65611675819095     -0.52388695485067     -1.97673514826412
  C   -2.29213199969830      0.62342472499871     -2.69451478984082
  C   -1.73903888322180      1.73342841352438     -2.04907173613146
  C   -1.54701321121113      1.73398700221357     -0.67116163445592
  H   -2.74505410443615     -1.43819456819913     -0.01598277279648
  H   -3.08306323311124     -1.37984874511737     -2.48802427742842
  H   -2.44430280917036      0.64887550440130     -3.76929881582911
  H   -1.46205307718221      2.61344087515193     -2.61948807803654
  H   -1.12801107221312      2.56313355710289     -0.10901996417363
  B   -1.81058287771415      3.29970772412441      2.39586623338301
  F   -1.75725628937409      2.46858501803919      3.53932199011831
  F   -0.59429060562804      3.10290593856778      1.66990847864057
  F   -2.85620075458255      2.80746770988164      1.56214364503579
  F   -1.99684406078763      4.61680561473080      2.71682264983354
