18
Coordinates from ORCA-job PhN2+~BF4-_B3LYPG-6-31G_dp-NX-Scan-d89-09-n800
  C   -1.83046899671924      0.52723854949192      0.03435679884134
  N   -1.55908446031846      0.35129432158776      1.38414657057670
  N   -1.32148336114732      0.06033570609976      2.42882479960964
  C   -2.45669235726429     -0.55034166223184     -0.61587798526351
  C   -2.71473625464184     -0.41356718070669     -1.97247173023672
  C   -2.34841087425029      0.76257206378152     -2.63955213984934
  C   -1.72286295834962      1.81308044716779     -1.96028030884285
  C   -1.45530694226087      1.72043893593757     -0.59964395135634
  H   -2.73209080378299     -1.44449238850131     -0.06815230507760
  H   -3.20260587892452     -1.22038542251905     -2.50854196647234
  H   -2.55867131609231      0.86024910319968     -3.70009394192272
  H   -1.45176495710322      2.72047964494467     -2.48880325772406
  H   -0.98908523082513      2.50230565590594     -0.00955884346605
  B   -1.91792054013080      3.24704339821578      2.32679487867689
  F   -1.97842426462000      3.30154817206986      3.70082120938315
  F   -0.64936610645892      2.66158129346097      1.93024104675174
  F   -2.91448883710970      2.34178487832017      1.82871152982165
  F   -2.05043586000048      4.47203448377541      1.70407959655044
