24
Coordinates from ORCA-job 4-MeOPhN2+~CF3COO-_B3LYPG-6-31G_dp-NX-Scan-d89-09-n800
  C   -2.37899801389391      0.34643532467130     -1.14510764709087
  N   -3.18389738265974      0.60228694619590     -2.23034020758919
  N   -3.96533391270948      0.76136979403035     -3.02037496779584
  C   -0.99278879848324      0.58355656153453     -1.28318654710854
  C   -0.17091590122219      0.33374774815541     -0.20814739618627
  C   -0.71693750019166     -0.15122340236232      1.00441907356853
  O   0.17330116333092     -0.35932511998534      1.98589554692311
  C   -0.28216688528485     -0.84369726491319      3.25423038525782
  C   -2.10080415208749     -0.38141598118203      1.11998088469351
  C   -2.94836802000795     -0.13612197749188      0.05050671517197
  H   -0.59242040170155      0.95577803492695     -2.21986584662060
  H   0.89844466874610      0.50179544759297     -0.26394922453099
  H   0.61065915184610     -0.92297578205481      3.87351060489229
  H   -0.74941075316132     -1.82880564256289      3.15432114049948
  H   -0.98758492930909     -0.14219640634044      3.71224953500704
  H   -2.53186031929284     -0.75342339332668      2.04085525763175
  H   -4.02582752540801     -0.30417678444653      0.11184422333460
  O   -5.43207864002868      0.07247242146274     -1.50056630220622
  C   -6.36311015789318     -0.33089147643570     -0.73653736530773
  O   -6.24658560426520     -0.72308246261577      0.43142677616752
  C   -7.77594649057620     -0.31334509391368     -1.37770375150643
  F   -8.73500144283752     -0.74415043758919     -0.54048884785373
  F   -8.11225700834696      0.93841173578689     -1.77155803367929
  F   -7.81381114456206     -1.10112278913657     -2.47951400567198
