24
Coordinates from ORCA-job 4-MeOPhN2+~CF3COO-_B3LYPG-6-31G_dp-NX-Scan-d89-09-n800
  C   -2.67682792052482      0.16638028258051     -1.02950938236149
  N   -3.53958347528267      0.33277725639466     -2.12818989905900
  N   -3.71555005609247      0.70818018242961     -3.17547785199052
  C   -1.43228343354302      0.81953876406206     -1.10080994037340
  C   -0.54601340106348      0.67390973718371     -0.05295580754972
  C   -0.88837076891454     -0.12143711442811      1.06128166818886
  O   0.04806213565887     -0.19299665637930      2.02708231393355
  C   -0.21969201381296     -0.96577874879373      3.19690423637606
  C   -2.13337724138673     -0.77196787547214      1.10738423839441
  C   -3.03459559534338     -0.62387950755160      0.06028188734770
  H   -1.18570644670911      1.42781253184953     -1.96390261357823
  H   0.42067331916709      1.16389135424503     -0.06321994603152
  H   0.66638725803026     -0.86676390688655      3.82438033131821
  H   -0.37513057800117     -2.02170295832956      2.94820481462200
  H   -1.09355870464294     -0.58107615030403      3.73469222864931
  H   -2.41236322939674     -1.38494390641798      1.95476000790541
  H   -3.99941708759065     -1.10900256063978      0.06351759672261
  O   -5.21598671750466     -0.54422370104761     -1.79664080057411
  C   -6.00373853442675      0.13825183669150     -1.03523956266860
  O   -5.71286090541649      0.96881020739291     -0.18257887026781
  C   -7.49689237678263     -0.20224280023269     -1.30643068163802
  F   -8.31942700893924      0.54649846444215     -0.55789819402320
  F   -7.81257698203507      0.00044019270845     -2.60216155355715
  F   -7.74487023544669     -1.50057492349702     -1.02157421978540
