24
Coordinates from ORCA-job 4-MeOPhN2+~CF3COO-_B3LYPG-6-31G_dp-NX-Scan-d89-09-n800
  C   -2.95945238681117      1.46433621367440     -0.84327255815515
  N   -3.93943914839246      2.03968295087477     -1.56546853624353
  N   -4.79011093407416      2.47494725557972     -2.14949933494780
  C   -2.00897245672790      0.64993804106067     -1.51260247136465
  C   -1.22480545155788     -0.18111955816600     -0.75750689798146
  C   -1.43828742750761     -0.26771791408219      0.64462536597411
  O   -0.77463527076300     -1.24287650574780      1.26359340837014
  C   -1.24853235718783     -1.67138195924401      2.55585444070315
  C   -2.30538497921792      0.62414456951811      1.30166928539511
  C   -3.09847355217753      1.48072667942049      0.56828596310279
  H   -1.95286918647168      0.65623104176280     -2.59517246942396
  H   -0.51245804881426     -0.85700306998922     -1.21546365811325
  H   -0.74042762054395     -2.61495027443822      2.74966279669943
  H   -2.33163966834378     -1.81757779300266      2.51529919778650
  H   -0.97763500061569     -0.94602957107688      3.33031052309098
  H   -2.43803239304486      0.57848601330417      2.37374937699817
  H   -3.82310999253383      2.12629532890775      1.03899405193171
  O   -4.37189667761105     -1.41480356802853      0.67444370270641
  C   -5.10461016560479     -0.63412512180891      0.04886398116533
  O   -5.43360587512899      0.56044088482601      0.28762104702279
  C   -5.62977930005405     -1.13921355035315     -1.33388246151630
  F   -6.92498875596561     -0.83763567370396     -1.55084799964324
  F   -4.91543035708648     -0.51216222767616     -2.33681325434034
  F   -5.47912299376346     -2.45873219161121     -1.53054349921702
