24
Coordinates from ORCA-job 4-MeOPhN2+~CF3COO-_B3LYPG-6-31G_dp-NX-Scan-d89-09-n800
  C   -2.08592156899944      1.96170623263540     -1.40033021958536
  N   -2.47990186426715      2.88748489447808     -2.29009339952625
  N   -2.83674854905775      3.66363829563747     -3.02621889977890
  C   -0.71866274717399      1.55789585187817     -1.37694646174557
  C   -0.34932867325014      0.58454008686690     -0.48977580252517
  C   -1.31774674501227     -0.01334574963150      0.37445688825756
  O   -0.86583901903205     -0.97367873117516      1.14984386188399
  C   -1.79915759344980     -1.69959637889739      2.00713993890053
  C   -2.66680160648572      0.42628862106727      0.36594631849173
  C   -3.05364674301084      1.39530279051648     -0.52267585960582
  H   -0.00312697192954      2.01204266060652     -2.05325884055575
  H   0.67440479996731      0.23150820780471     -0.43875796630791
  H   -1.21691303974318     -2.53016070539196      2.40211376265685
  H   -2.66714122573385     -2.03643116695988      1.41922620075314
  H   -2.12156245354122     -1.04217328001260      2.81933813577831
  H   -3.47386748763549     -0.00035145589893      0.98590295597500
  H   -4.09420828017786      1.70180186337752     -0.55555575151125
  O   -4.41429380275916     -2.33052814133104      0.47292399397927
  C   -5.31973764094340     -1.49508078817159      0.68073485097074
  O   -5.25958479568580     -0.34638010783934      1.19056184787887
  C   -6.74411730508242     -1.89268641423349      0.18993174117822
  F   -7.69461310776948     -1.60540526316573      1.10573871672877
  F   -7.05579942991983     -1.19620793753547     -0.93792644245671
  F   -6.85938414930692     -3.20028338462441     -0.11041956983439
