24
Coordinates from ORCA-job 4-MeOPhN2+~CF3COO-_B3LYPG-6-31G_dp-NX-Scan-d89-09-n800
  C   -2.59045094080582      0.35215752399337     -1.05171142976042
  N   -3.39813616046992      0.55591548404272     -2.18252272684781
  N   -3.51707271304723      0.82739972853565     -3.26966617892505
  C   -1.37751451396199      1.06858311205434     -1.01044724813551
  C   -0.53790251641878      0.87134391897603      0.06606593940071
  C   -0.88900758054912     -0.04367292135732      1.08331472299623
  O   0.00365900858641     -0.15669982007426      2.08412578532130
  C   -0.26947339064289     -1.05396233960449      3.16133679044436
  C   -2.09627295874409     -0.76090657449487      1.00400007406584
  C   -2.96330825187290     -0.55709244083717     -0.06200514737800
  H   -1.12202124394003      1.76519575502846     -1.80157458474323
  H   0.39931531226517      1.40885307150229      0.15195368048608
  H   0.57920209194136     -0.96533614671024      3.83986199672420
  H   -0.34784148701977     -2.08737819581435      2.80610245609343
  H   -1.18928166947205     -0.77371168979913      3.68668726262437
  H   -2.37202846467451     -1.47529967258504      1.76962200740911
  H   -3.90322586940110     -1.10433211328830     -0.17931669611287
  O   -5.63484780440786     -1.56751554106042     -0.92630193254961
  C   -6.04205974114300     -0.41697729991662     -1.13051831583790
  O   -5.38585856283417      0.65564828152340     -1.32060206111427
  C   -7.58211691389589     -0.18309454238345     -1.17495242355834
  F   -7.95378759372882      0.75896550634084     -0.28170852161276
  F   -7.96134747412239      0.24304981521004     -2.40003666856004
  F   -8.27232056164059     -1.30123289928144     -0.89980678042988
