24
Coordinates from ORCA-job 4-MeOPhN2+~CF3COO-_B3LYPG-6-31G_dp-NX-Scan-d89-09-n800
  C   -2.60965031996168      1.59865609141527     -1.27135285184394
  N   -3.26047338607607      2.33956306268472     -2.18484875318339
  N   -3.83095681718373      2.95341359166928     -2.93724086467129
  C   -1.29000415632302      1.14285360676453     -1.55651061289219
  C   -0.69557458855037      0.29366762001118     -0.66301926025992
  C   -1.40250834125344     -0.13739017122145      0.50003257344660
  O   -0.79482424009107     -1.04932509129149      1.23253635582049
  C   -1.53163376266198     -1.69334010795820      2.31091711411486
  C   -2.67722881878863      0.39283024472566      0.80458196646101
  C   -3.29566252781855      1.23855709882325     -0.08091400036528
  H   -0.79060231214541      1.44890121556767     -2.46882293518897
  H   0.29479485434265     -0.10771973499209     -0.84321769906935
  H   -0.88450736253348     -2.50539250104636      2.63866280216805
  H   -2.49159212226259     -2.05773416377812      1.92135188078433
  H   -1.68170448510310     -0.98186584936633      3.12837975570727
  H   -3.27321564522632      0.06226151622172      1.65079255498267
  H   -4.31994569228481      1.54183229420753      0.09971398646501
  O   -4.18582387342359     -2.09442968568949      0.62189794260697
  C   -5.10928641938027     -1.25574906503207      0.71268389732149
  O   -5.30845874338083     -0.34539974596484      1.55072051407439
  C   -6.09725588851715     -1.22159959539378     -0.49422419865379
  F   -7.37150120670177     -0.97713092074128     -0.13531057677495
  F   -5.72316125876172     -0.18899602417948     -1.32904044258063
  F   -6.09292288591308     -2.33656368543580     -1.24586914846949
