24
Coordinates from ORCA-job 4-MeOPhN2+~CF3COO-_B3LYPG-6-31G_dp-NX-Scan-d89-09-n800
  C   -2.75022297704068      1.55213863061890     -1.16786038908081
  N   -3.49100437784704      2.24435515882923     -2.04935391125169
  N   -4.13797315541322      2.81281876125494     -2.77370512428454
  C   -1.51867431637608      0.97754352321601     -1.59382920169102
  C   -0.87032951077993      0.13646002646813     -0.73141455212357
  C   -1.45026343661956     -0.18273862502621      0.53275122670797
  O   -0.82284999401087     -1.11351828650435      1.22761858072225
  C   -1.48624205011592     -1.69036531276479      2.38440068155989
  C   -2.62401230370092      0.47075043511973      0.96891994302032
  C   -3.28930958241841      1.32443411863513      0.12479338561395
  H   -1.13200489585351      1.18522157141091     -2.58494665297879
  H   0.05370939315515     -0.35478866193521     -1.01240496293695
  H   -0.87526025733924     -2.55043197315896      2.65359633399968
  H   -2.50250775848421     -1.98386139888313      2.09422511408516
  H   -1.49212051226519     -0.96832506592885      3.20721115258639
  H   -3.12084267466523      0.20692338407665      1.89215587697918
  H   -4.26077624147038      1.70893649767502      0.40840009103980
  O   -4.11329217519192     -1.96721739838969      0.66117206096093
  C   -5.04235826781170     -1.13110224379417      0.60478078545360
  O   -5.36351712282784     -0.20694917149370      1.38567744188120
  C   -5.85384519093761     -1.13469876149009     -0.72932239463687
  F   -7.16295768056705     -0.87358697784665     -0.55975494433099
  F   -5.36341800215029     -0.12958559364061     -1.54384638008938
  F   -5.75362690926833     -2.27251263644821     -1.43736416120576
