24
Coordinates from ORCA-job 4-MeOPhN2+~CF3COO-_B3LYPG-6-31G_dp-NX-Scan-d89-09-n800
  C   -2.01276012827090      2.01700631092927     -1.41949425475049
  N   -2.36578895497134      2.97022765690400     -2.29712357002033
  N   -2.68730230189087      3.77012717512831     -3.02431464964125
  C   -0.64674989867148      1.61527909281485     -1.34250353196894
  C   -0.31604118526240      0.62244957116380     -0.46208491740348
  C   -1.32036167834837      0.00499984746390      0.34598064658607
  O   -0.89712985364546     -0.96311189835674      1.12681738372294
  C   -1.85587640841522     -1.69102446798723      1.95434058481403
  C   -2.67179303687148      0.43569719449126      0.28035795222378
  C   -3.01866293411212      1.42435216214947     -0.60328631152074
  H   0.09810476182431      2.08781494398384     -1.97287580680654
  H   0.70573900108524      0.27208903342353     -0.37001210130578
  H   -1.28922070888919     -2.53012614530255      2.35373622594107
  H   -2.71738663790339     -2.01790321861861      1.35000089362075
  H   -2.18987127081483     -1.03772164695457      2.76518245626818
  H   -3.50553577198733     -0.00789214531139      0.85812048913449
  H   -4.05634582235610      1.73318719336796     -0.67885413499035
  O   -4.46324546341936     -2.43149628194743      0.49419059014985
  C   -5.34715355561460     -1.56999571604686      0.68307344872420
  O   -5.24973729432496     -0.38857523834658      1.10690293405270
  C   -6.80168971135287     -1.97946923569529      0.30298319499240
  F   -7.68336186096864     -1.66315807184124      1.27737767144165
  F   -7.19432699651149     -1.31742638691738     -0.81867732513458
  F   -6.93720228830716     -3.29542972849427      0.05206213187031
