24
Coordinates from ORCA-job 4-MeOPhN2+~CF3COO-_B3LYPG-6-31G_dp-NX-Scan-d89-09-n800
  C   -2.93747590097047      1.64578597327373     -0.90825839437882
  N   -3.72670867373757      2.46005213926347     -1.61979449364740
  N   -4.40244970423059      3.14365115821700     -2.20693285852992
  C   -2.01784908568109      0.80010739681211     -1.59226952408562
  C   -1.33987470872570     -0.13734833450889     -0.86589648305754
  C   -1.59554658469992     -0.28403260579640      0.53048059209245
  O   -0.97717697697346     -1.30879185325043      1.11016804879926
  C   -1.43126367676664     -1.73878898439210      2.41174366988044
  C   -2.43874677345145      0.61148007729628      1.20665272526598
  C   -3.16813767307471      1.54419442510577      0.49307002023845
  H   -1.89295676789683      0.88870968740565     -2.66536267707640
  H   -0.65367618903754     -0.83045511447427     -1.33811398204419
  H   -0.94568143982611     -2.69909493105795      2.57909986779742
  H   -2.51917605678989     -1.84589489417463      2.39563873469317
  H   -1.11168960258328     -1.02914559585588      3.18228048023218
  H   -2.62975341024682      0.50178449006315      2.26375850503214
  H   -3.84031939616971      2.22966156614804      0.98533894790090
  O   -4.44525427517281     -1.41108951891762      1.11211789307976
  C   -5.03643849133857     -0.71891296683359      0.26574564032602
  O   -5.31546743553332      0.51328975640854      0.26941574102625
  C   -5.42122236826460     -1.41825959722727     -1.07352449287976
  F   -6.69699862780640     -1.17254381142532     -1.43722202718642
  F   -4.62707293534803     -0.93285469047248     -2.08089291201145
  F   -5.25276324567448     -2.75160377160687     -1.05534302146699
