24
Coordinates from ORCA-job 4-MeOPhN2+~CF3COO-_B3LYPG-6-31G_dp-NX-Scan-d89-09-n800
  C   -2.88725698537710      1.81148050603937     -0.92131283762708
  N   -3.60030913446641      2.72244742236062     -1.59517895127870
  N   -4.20775372458391      3.49379349857691     -2.14892979657006
  C   -1.94429515201282      1.00777032610019     -1.62653731998118
  C   -1.32592826587470     -0.00297147795335     -0.94795031346800
  C   -1.64794887594393     -0.25257077554121      0.42112830030903
  O   -1.07053578140388     -1.33048602486499      0.94374441526345
  C   -1.55998966728456     -1.83725744829573      2.20581158105813
  C   -2.51194313122044      0.59930807995021      1.12630837096077
  C   -3.19966271192390      1.59151076189120      0.44984296555088
  H   -1.75200795869463      1.19008893147030     -2.67754985056935
  H   -0.62595407370135     -0.66829413950492     -1.43965489501716
  H   -1.07357767053152     -2.80356358885278      2.32981582612009
  H   -2.64818374795014     -1.94217043523473      2.15870501020964
  H   -1.26534529673016     -1.17148535627789      3.02377006323789
  H   -2.77922709468947      0.39543700954397      2.15128178926733
  H   -3.90029645775375      2.23520339275428      0.95885797074175
  O   -4.67076430711564     -1.12470263686242      1.43820112619661
  C   -5.11219758926234     -0.66257185672117      0.36903854863982
  O   -5.32001249565608      0.53451238807031      0.02992216103060
  C   -5.31008891115799     -1.68995409236329     -0.78379306007364
  F   -6.30309141620226     -1.35684167320258     -1.63207066599115
  F   -4.15830587093736     -1.73838474571007     -1.52278869641536
  F   -5.54902367952564     -2.94039806537218     -0.34876174159439
