24
Coordinates from ORCA-job 4-MeOPhN2+~CF3COO-_B3LYPG-6-31G_dp-NX-Scan-d89-09-n800
  C   -2.71832443062148      1.59453531465749     -1.19711055761323
  N   -3.39398348409211      2.36737894066253     -2.06369998963287
  N   -3.97150561666989      3.01430225806548     -2.78183576190837
  C   -1.47687481997060      1.02393623033000     -1.60253463235661
  C   -0.85897786573181      0.15343414046650     -0.74759147611133
  C   -1.46847683605505     -0.18880263806053      0.49730480936532
  O   -0.84773709079599     -1.11885275471410      1.19667728611035
  C   -1.50545223893440     -1.68305190467005      2.36392319287876
  C   -2.66066334615848      0.44738239244578      0.91041569913747
  C   -3.30298552019071      1.31905010117406      0.06683309361119
  H   -1.05639990638075      1.26322357400673     -2.57257502632635
  H   0.07226837219023     -0.33181775659364     -1.01506835133494
  H   -0.88826696239627     -2.53564436714918      2.64247466602954
  H   -2.52345634522972     -1.98551245599754      2.08595110057403
  H   -1.51019448376857     -0.94759875612199      3.17472925009827
  H   -3.18377677342032      0.16814489012004      1.81563681430160
  H   -4.28052216950629      1.69931046893555      0.33631070803755
  O   -4.16571222802484     -2.04242875166466      0.75964559140846
  C   -5.07169794403433     -1.18371914345941      0.67187674345724
  O   -5.36547234633211     -0.22237955217221      1.41852321286679
  C   -5.88274566722151     -1.21225786335733     -0.66129565870329
  F   -7.18341381070158     -0.90365027767467     -0.50211317945634
  F   -5.35960525572628     -0.25566536252195     -1.50977294523570
  F   -5.81972323022710     -2.37941672670687     -1.32480458919757
