24
Coordinates from ORCA-job 4-MeOPhN2+~CF3COO-_B3LYPG-6-31G_dp-NX-Scan-d89-09-n800
  C   -2.57452195448884      0.65408015589984     -0.94114656728477
  N   -3.39908606091803      1.09047978308921     -1.97943184137386
  N   -3.61390685545048      1.65142562807621     -2.92989030175992
  C   -1.23586942254219      1.11047150717849     -1.00368969505563
  C   -0.35996398002647      0.72376521222307     -0.01569286786264
  C   -0.80139922611928     -0.11395817218672      1.03596866937179
  O   0.13540724265133     -0.42841234032038      1.94607863515149
  C   -0.21919026881516     -1.26530672346368      3.05033144074975
  C   -2.13510100058189     -0.55392677217298      1.07362002522546
  C   -3.03534726542912     -0.17387580639713      0.08521408208128
  H   -0.91447139152837      1.75232171666035     -1.81708069812387
  H   0.67352524523470      1.05057810034832     -0.02168032709878
  H   0.69141060848458     -1.37499661954760      3.63891989135133
  H   -0.55584360106636     -2.24926517020913      2.70775140585353
  H   -0.99924250859948     -0.79994604433305      3.66255918723856
  H   -2.49029475273476     -1.19556247392315      1.87032849472849
  H   -4.07845648932413     -0.51739847847459      0.11505612998242
  O   -5.87465286540157     -1.06058260902253      0.11863718923630
  C   -6.17723122075446     -0.43146811763501     -0.90477130594714
  O   -5.45873681434691      0.29729392926549     -1.65470165417548
  C   -7.65428902592034     -0.51253055567710     -1.39570769820213
  F   -8.21271797238354      0.71729103932404     -1.44297260206726
  F   -7.71696968435587     -1.03549281434152     -2.64059307059222
  F   -8.41675073558330     -1.27508437436045     -0.59520652142677
