24
Coordinates from ORCA-job 4-MeOPhN2+~CF3COO-_B3LYPG-6-31G_dp-NX-Scan-d89-09-n800
  C   -2.50447237540199      0.31604599587127     -1.08250321756171
  N   -3.32017977324850      0.57778193597919     -2.17198572819872
  N   -3.68981189297008      0.87424070620061     -3.18651943176421
  C   -1.12370016719152      0.56351811047848     -1.26528873085940
  C   -0.26694023494899      0.32220040432178     -0.21571595483192
  C   -0.77081597675754     -0.16280122267134      1.01415161131348
  O   0.15264222039657     -0.36206964876571      1.96908120623744
  C   -0.26198944762357     -0.84611898179905      3.25012024675325
  C   -2.14740981489725     -0.40095516314503      1.17030250188716
  C   -3.02977649766627     -0.16425584600339      0.12418318386572
  H   -0.75548572322283      0.93606041936535     -2.21499036026248
  H   0.79886868892297      0.49798246916393     -0.30741916040223
  H   0.64867610040051     -0.91839259964220      3.84393730458343
  H   -0.72583718281805     -1.83465345292248      3.16693479361302
  H   -0.95861610966271     -0.14863501156906      3.72775091081225
  H   -2.54714469411567     -0.77319193281822      2.10504459759242
  H   -4.10670426440725     -0.34700995320995      0.23554930466229
  O   -5.39984515274032      0.12940895799243     -1.70522530742065
  C   -6.23256230267243     -0.28017565434427     -0.83822723196451
  O   -6.02292420844103     -0.64352379955767      0.32819492221759
  C   -7.69662438849892     -0.31382314694310     -1.36279312853064
  F   -8.56670631177155     -0.73029879813639     -0.42854151742677
  F   -8.09031823981245      0.91431026617727     -1.77031936688756
  F   -7.80602225085112     -1.14574405402242     -2.42382144742729
