24
Coordinates from ORCA-job 4-MeOPhN2+~CF3COO-_B3LYPG-6-31G_dp-NX-Scan-d89-09-n800
  C   -2.27328938318026      1.84867043986953     -1.35132376624225
  N   -2.74248717021668      2.74800453822741     -2.23203259904421
  N   -3.15249242872372      3.50603349872219     -2.95856581318997
  C   -0.92536584800398      1.39997001921630     -1.47370888252014
  C   -0.47893575984496      0.45127211996443     -0.59521803508875
  C   -1.35234000311045     -0.07694685435697      0.40473003353152
  O   -0.83998467181977     -1.02339717089742      1.16021651129411
  C   -1.68097063657435     -1.68566498976175      2.15149840538369
  C   -2.67525071905008      0.41314700958147      0.53986307000785
  C   -3.14413529248373      1.35260625306180     -0.34107135008194
  H   -0.28476790296087      1.80059303174251     -2.25153444357004
  H   0.53157149158735      0.06345967549995     -0.65406630116083
  H   -1.07518615150001     -2.51638057356982      2.50948330028689
  H   -2.61685231106259     -2.02260385466869      1.68123057760971
  H   -1.88580888744287     -0.98871355697044      2.96925299463747
  H   -3.40993487618920      0.02405786578938      1.25404185358354
  H   -4.17842105474033      1.67302682387253     -0.27155118253020
  O   -4.31092025792342     -2.21464959241774      0.56403667600412
  C   -5.24249803533301     -1.39306055466422      0.71107485370723
  O   -5.27587798447484     -0.31320204362974      1.35243111421597
  C   -6.54248603963128     -1.69283120270789     -0.09394630793037
  F   -7.66095473570583     -1.40803698189636      0.60555404514829
  F   -6.56711073472900     -0.91374365420151     -1.21466973421097
  F   -6.63920060688608     -2.97171024580489     -0.50382501984081
