24
Coordinates from ORCA-job 4-MeOPhN2+~CF3COO-_B3LYPG-6-31G_dp-NX-Scan-d89-09-n800
  C   -2.10681608829655      1.96060083631205     -1.38930055554235
  N   -2.49772105207562      2.90632412233821     -2.25929287558521
  N   -2.84370264799653      3.70423475177916     -2.97707387963534
  C   -0.74944590019216      1.52403259762923     -1.40552494451872
  C   -0.37889907701687      0.53897699209593     -0.53216680990443
  C   -1.33549228913527     -0.03639076664811      0.36022677699486
  O   -0.87848962788885     -0.99929179481613      1.12908482908423
  C   -1.78593493419305     -1.68652318061723      2.04257621250530
  C   -2.67540392175958      0.42946661325402      0.38513845161885
  C   -3.06427614478917      1.40909155087742     -0.49104834075583
  H   -0.04184740054897      1.96493061853570     -2.09881497152495
  H   0.63758587749370      0.16289763827669     -0.50971323354113
  H   -1.19470214576426     -2.50779962078839      2.44386905199729
  H   -2.67764051581386     -2.03820571496185      1.50062181612507
  H   -2.07169046896586     -0.99924353722820      2.84385827024069
  H   -3.47418935212702      0.00946420637446      1.01802279741918
  H   -4.09939077985573      1.73479839691722     -0.49944266793246
  O   -4.38995657937343     -2.30764699860171      0.48509662462012
  C   -5.30858533899028     -1.48326097511614      0.68211165069223
  O   -5.27134433648642     -0.34136745215489      1.20782976469894
  C   -6.71462639047540     -1.88830994347170      0.14640716648859
  F   -7.69895116142904     -1.58485732407100      1.01972188946512
  F   -6.98242536972326     -1.21109893798644     -1.00457128453719
  F   -6.81975435459654     -3.20092207792825     -0.13571573847292
