24
Coordinates from ORCA-job 4-MeOPhN2+~CF3COO-_B3LYPG-6-31G_dp-NX-Scan-d89-09-n800
  C   -2.60770392382627      0.34061620452213     -1.04361174718975
  N   -3.42293073471433      0.54009755345206     -2.17319828779861
  N   -3.52050514544740      0.79824564775771     -3.26635731073865
  C   -1.39319028260662      1.05310395105453     -1.01318869545398
  C   -0.54753879066015      0.86172876748091      0.06037718605080
  C   -0.89505221369064     -0.04435088358610      1.08593301434117
  O   0.00280981700950     -0.15331108199206      2.08318768683433
  C   -0.26763723918530     -1.04210089947942      3.16762459765958
  C   -2.10479110687648     -0.75848156301568      1.01808747332576
  C   -2.97673064951883     -0.55929545610006     -0.04501735154552
  H   -1.14021486232170      1.74346262135643     -1.81054503863929
  H   0.39149312922263      1.39753944816353      0.13657323300632
  H   0.58483440879558     -0.95194624705389      3.84121868772442
  H   -0.35140736382776     -2.07781059814583      2.82014742886341
  H   -1.18368864740638     -0.75529358696237      3.69615930442923
  H   -2.37803732689267     -1.46724395334051      1.78976209732245
  H   -3.91275231092840     -1.10887543941539     -0.15379690821372
  O   -5.60442345354365     -1.56667201844045     -1.10192132795545
  C   -6.02321052916552     -0.40634532911994     -1.18227467967398
  O   -5.37417271621411      0.68381982626224     -1.28569648664375
  C   -7.56443297351198     -0.17739373992928     -1.16482719170699
  F   -7.91202813110368      0.72421469331100     -0.22248425131369
  F   -7.98277626520637      0.29648154823390     -2.35938408630886
  F   -8.23961268837941     -1.31028946501341     -0.91486734637529
