16
Coordinates from ORCA-job 4-NO2PhN2+~Cl-_B3LYPG-6-31G_dp-NX-Scan-d89-09-n800
  C   -1.40969977745195     -0.27796148629490      0.01899965715741
  N   -2.66905615766083     -0.41049600039027      0.41435076131635
  N   -3.66023703655409      0.00810674026705      0.79034619579065
  C   -1.15512276643965      1.12697255680612     -0.39566406440830
  C   0.28101545307543      1.40444821881075     -0.54765867595067
  C   1.20470274973768      0.44811100115275     -0.28831015764530
  N   2.63309797725762      0.80328043673784     -0.48557717385489
  O   2.89898149656976      1.94120368510623     -0.86153367326124
  O   3.46092170087496     -0.07555601638996     -0.25490951322978
  C   0.91216305806519     -0.89376619734867      0.13432056067978
  C   -0.39396361847247     -1.24053346873118      0.29101516239919
  H   -1.75471537467034      1.47674211735112     -1.23528024580137
  H   0.59474063388814      2.38006138328936     -0.89485943724479
  H   1.72499335901899     -1.57647537651223      0.33306838899822
  H   -0.68235911086781     -2.22285001378834      0.64892013698349
  Cl  -2.03856258637065      2.28711241993431      0.96247207807125
