16
Coordinates from ORCA-job 4-NO2PhN2+~Cl-_B3LYPG-6-31G_dp-NX-Scan-d89-09-n800
  C   -1.45019029081634     -0.15294789056969      0.08121539981100
  N   -2.72269253787607     -0.50425156593025      0.11471306750624
  N   -3.82247795041261     -0.79676871300426      0.12775409181403
  C   -1.13167447601861      1.25843683424221     -0.22930466552733
  C   0.28616298359068      1.43487725771144     -0.59547823101449
  C   1.19369072185019      0.47884911155207     -0.29436746066707
  N   2.61390652681891      0.74084977806577     -0.61868695091302
  O   2.89292812023253      1.79728227375692     -1.17913280607506
  O   3.42404035428611     -0.13333964988391     -0.31571799620794
  C   0.86792752769156     -0.79225927481070      0.29507966841392
  C   -0.44197769571094     -1.10654102291446      0.46153479068701
  H   -1.82561496785077      1.72649009602976     -0.92344204692471
  H   0.60046734144249      2.36421188268505     -1.05211448067759
  H   1.66439543728101     -1.47392878850980      0.55673335471072
  H   -0.74871860879000     -2.06773458995762      0.85908039340719
  Cl  -1.45327248571815      2.40517426153743      1.34183387165711
