16
Coordinates from ORCA-job 4-NO2PhN2+~Cl-_B3LYPG-6-31G_dp-NX-Scan-d89-09-n800
  C   -1.44973787839975     -0.15341625023288      0.08134798175690
  N   -2.72230504116523     -0.50235723842791      0.11748798401915
  N   -3.82251616362330     -0.79072172560997      0.13313228829053
  C   -1.13177691574734      1.25727884837170     -0.23058101276332
  C   0.28604401389428      1.43401302107928     -0.59657535175338
  C   1.19369898693176      0.47786296000037     -0.29604892534785
  N   2.61383566779531      0.74008691056821     -0.62070732658379
  O   2.89365761459456      1.80023975753911     -1.17367941084020
  O   3.42508661422391     -0.13094862609231     -0.31170719164633
  C   0.86820947833667     -0.79349783282215      0.29310039231032
  C   -0.44165619895657     -1.10740426039361      0.46063723922460
  H   -1.82570224449355      1.72435587735470     -0.92539461499915
  H   0.60020244753790      2.36355084568668     -1.05290514458321
  H   1.66473289978405     -1.47547425817603      0.55378645967147
  H   -0.74842007688584     -2.06858135167374      0.85822300115419
  Cl  -1.45645320382685      2.40341332282853      1.33958363209007
