16
Coordinates from ORCA-job 4-NO2PhN2+~Cl-_B3LYPG-6-31G_dp-NX-Scan-d89-09-n800
  C   -1.22836586631654     -0.00213346684061      0.45070654025748
  N   -2.52659197337186     -0.26734921644751      0.94533594811213
  N   -3.62479254507319      0.13831691849789      0.78297043736153
  C   -0.80062166963545      1.29399931409265      0.12991978517165
  C   0.51299627995660      1.47534039324413     -0.29068001777000
  C   1.35276714952595      0.36769187145462     -0.38925442004075
  N   2.74348815851682      0.56945212454192     -0.84577369602017
  O   3.08718721298435      1.71663835123104     -1.11856067083264
  O   3.46206477399320     -0.42428115863492     -0.92080620802015
  C   0.93753318000947     -0.92216499047048     -0.06326322420894
  C   -0.36521102189455     -1.10384715573320      0.38367026083449
  H   -1.48238018209643      2.12997634421991      0.20650061371951
  H   0.89187495128931      2.45616007613167     -0.54839087899087
  H   1.63305538333214     -1.74709231903832     -0.14889706769648
  H   -0.72805268036550     -2.08365319834696      0.67264848150414
  Cl  -3.91805115085432      1.58134611209811     -0.61642588338095
