16
Coordinates from ORCA-job 4-NO2PhN2+~Cl-_B3LYPG-6-31G_dp-NX-Scan-d89-09-n800
  C   -1.25175302231672     -0.07141320215045      0.27159545424846
  N   -2.57654184027988     -0.40013231073121      0.62997108261564
  N   -3.65182375294258      0.05727695593998      0.73933483788848
  C   -0.85644311170925      1.21719357950185     -0.12105538316482
  C   0.47958080212828      1.42613662671540     -0.44996124620098
  C   1.37313283536756      0.35928508084280     -0.38020995826708
  N   2.79100644641222      0.59586535319578     -0.73190056536980
  O   3.10538423371886      1.73351192821942     -1.06947399655711
  O   3.55534590269283     -0.36305736213419     -0.66171890749341
  C   0.98883711997259     -0.92288887635814      0.00785516400888
  C   -0.34259692864694     -1.13801025679110      0.33824928966345
  H   -1.58367159842766      2.01801888849112     -0.16254390518443
  H   0.83601969045180      2.40063136553151     -0.75900849567452
  H   1.72409175247783     -1.71621506524766      0.04508160498073
  H   -0.69390438355332     -2.11553031862714      0.64833700580181
  Cl  -3.94976414534561      2.09772761360194      0.28514801870469
