22
Coordinates from ORCA-job 4-NO2PhN2+~CF3COO-_B3LYPG-6-31G_dp-NX-Scan-d89-09-n800
  C   -1.00502007186986      1.34199596057999     -0.26858428565667
  N   -2.06447627357134      1.60195718872759      0.66235939128624
  N   -2.62939918530827      2.74094260966701      0.51170244536246
  C   -0.56569919636645      2.18538253455834     -1.30408487439505
  C   0.48372528363691      1.78471697743108     -2.12651598632860
  C   1.08454598854961      0.54823326254578     -1.91005689315625
  N   2.19237076817381      0.13139873485395     -2.77984856281599
  O   2.54075299898502      0.90621906412081     -3.67041514798016
  O   2.70278420583872     -0.96669080072782     -2.56271649111887
  C   0.66289399655960     -0.30431379157561     -0.88906849074543
  C   -0.38257110847562      0.09746907961554     -0.07142695235297
  H   -1.01987056633952      3.15218586035826     -1.49020723214939
  H   0.84056528542436      2.41601174261243     -2.93069711352636
  H   1.15604720507866     -1.25856167281271     -0.75371886269590
  H   -0.73924146584121     -0.53554193393393      0.73345827857323
  O   -2.70753236849761      3.52788595481702      0.08203351854271
  C   -4.45265391958225      3.98415789610180      1.61258051025268
  O   -4.05030174324049      2.87469107401283      1.91090359044294
  C   -5.60650053582626      4.53402801677335      2.47138829200686
  F   -6.64301288169397      4.81020218636797      1.66034945775884
  F   -6.04493816851131      3.71163041433100      3.44048490806648
  F   -5.19196824712258      5.67519964157539      3.05038050062919
