22
Coordinates from ORCA-job 4-NO2PhN2+~CF3COO-_B3LYPG-6-31G_dp-NX-Scan-d89-09-n800
  C   -1.82989664019652      0.31256324265672      0.03032257178588
  N   -2.90968944020618     -0.33071112857161      0.42611846962047
  N   -3.85339539366665     -0.87426410677253      0.75983368287943
  C   -2.03129349501706      1.61488309481892     -0.67934910992343
  C   -0.79236253817648      2.03028452961508     -1.40185080940694
  C   0.39593386171158      1.46874304600082     -1.10012944111495
  N   1.60255700548866      1.98273947184578     -1.79419875865960
  O   1.45362140628384      2.86879137603200     -2.63080844415603
  O   2.67927463532711      1.47617886449823     -1.48625946988887
  C   0.57730461047090      0.37635756047976     -0.17712654559179
  C   -0.52669171773553     -0.20040764279940      0.35935701804156
  H   -2.90369583019404      1.61523806268862     -1.33504200344935
  H   -0.85764119996033      2.82481415688074     -2.13469796722628
  H   1.57618390055407      0.02330892253151      0.03425230036555
  H   -0.45182375660294     -1.05716939283523      1.02062047646260
  O   -3.91926292695024      3.62083290266298     -0.96439508044755
  C   -3.27789459043396      3.55374690075669      0.05551317157182
  O   -2.32769126229953      2.66547897475675      0.36127533569957
  C   -3.46996670135629      4.53076929750995      1.23934409481796
  F   -2.32163266027081      5.17687472767682      1.50144440857839
  F   -4.41417506191178      5.42733333849234      0.95181479255456
  F   -3.83726220485797      3.85281380107501      2.34226130748705
