22
Coordinates from ORCA-job 4-NO2PhN2+~CF3COO-_B3LYPG-6-31G_dp-NX-Scan-d89-09-n800
  C   -1.85941729630701      0.41907317770159     -0.05048173948926
  N   -2.98124733272572     -0.18473830995306      0.28768381130493
  N   -3.95382161404287     -0.70096370666214      0.57698439990972
  C   -1.96556277307178      1.72618358993376     -0.77453683507614
  C   -0.68110535971003      2.06499445038485     -1.45499314502121
  C   0.46470100386520      1.44885846651604     -1.09957618734307
  N   1.72048413339246      1.88703658550207     -1.75695450979993
  O   1.64866166505356      2.76626378161806     -2.61082653236104
  O   2.76117339419116      1.35307415082158     -1.37928278965811
  C   0.55530357972231      0.36661615957070     -0.15202459014294
  C   -0.59719615001314     -0.14908867237831      0.34314705070274
  H   -2.82117792100821      1.75845185408175     -1.45059666015111
  H   -0.67437083141051      2.84926952765110     -2.20136017057302
  H   1.52636915959242     -0.02907834644066      0.10759656183197
  H   -0.59206080414445     -0.99855122985210      1.01810231091428
  O   -4.36659232499900      3.09455498719942     -0.48866321072946
  C   -3.42765736074125      3.38861988134779      0.21016194401251
  O   -2.21305759769355      2.83252860092469      0.21951043474442
  C   -3.48626621949416      4.51529262489590      1.26859462042940
  F   -2.56184482108691      5.45314426421689      1.00342200647923
  F   -4.69182038092562      5.08595907481958      1.27062770363855
  F   -3.24299414844305      4.01169908810042      2.49176552637758
