22
Coordinates from ORCA-job 4-NO2PhN2+~CF3COO-_B3LYPG-6-31G_dp-NX-Scan-d89-09-n800
  C   -1.85158365402137      0.40274122103528     -0.03638686988835
  N   -2.96813220267938     -0.20464064055414      0.31180797248520
  N   -3.93919281950961     -0.72019992728940      0.60779991048719
  C   -1.97294827668874      1.70970077105970     -0.75795469838072
  C   -0.69493017128900      2.06167734750061     -1.44389588056679
  C   0.45775341465206      1.45336952665009     -1.09729978142999
  N   1.70638879907080      1.90453565745935     -1.75956306700775
  O   1.62030949910542      2.77175631897174     -2.62433119822451
  O   2.75052473765388      1.36014546944656     -1.40716379053318
  C   0.56236130982982      0.36796612806923     -0.15470877774959
  C   -0.58290001611734     -0.15767904182725      0.34678144812301
  H   -2.83135884100766      1.73781450483726     -1.43074051728747
  H   -0.69879847163116      2.84871728598632     -2.18742914504509
  H   1.53801353718700     -0.02154656615824      0.09698899843751
  H   -0.56701299494577     -1.00889831504594      1.01930665524711
  O   -4.32199569834786      3.18847708261029     -0.58323456132541
  C   -3.41523040123566      3.41814822265596      0.17915186042511
  O   -2.22959006164444      2.80568831551979      0.24510401572707
  C   -3.48767674872089      4.51569322782034      1.26690782912592
  F   -2.50982957000268      5.41850959753136      1.08338615756245
  F   -4.66559805915889      5.13942231015071      1.21766087872725
  F   -3.33807331049869      3.96780150357031      2.48611256109108
