22
Coordinates from ORCA-job 4-NO2PhN2+~CF3COO-_B3LYPG-6-31G_dp-NX-Scan-d89-09-n800
  C   -1.87240595053602      0.44642930888586     -0.07505070823976
  N   -3.00259539311876     -0.15657077731896      0.23774729751838
  N   -3.97572379631983     -0.68078935114264      0.50888597781555
  C   -1.95309919032027      1.75614306842909     -0.79758855551512
  C   -0.65706592920004      2.07783243922967     -1.46426485434640
  C   0.47717173580100      1.45007011245732     -1.09252092712872
  N   1.74592905832982      1.87190287523743     -1.73542550860716
  O   1.69188624880116      2.73172741214185     -2.61010178660856
  O   2.77329687385721      1.31298435537211     -1.35731911869656
  C   0.54342801038099      0.36954469514339     -0.14116988893432
  C   -0.62144648556089     -0.13395232683167      0.33738807757931
  H   -2.80158450747043      1.79663915645120     -1.48208390509569
  H   -0.63220758722010      2.85998841124330     -2.21237080804829
  H   1.50656149278869     -0.03544532106849      0.13318478697636
  H   -0.63477956285631     -0.98336459802717      1.01236088246342
  O   -4.41171279072712      2.94207456110227     -0.32715862857083
  C   -3.43952744511937      3.34081944896567      0.26678742314876
  O   -2.19083699297215      2.87539197583399      0.18498067127240
  C   -3.48908134851105      4.51615683906263      1.27125493968122
  F   -2.68298520691831      5.51054846087836      0.86280901583152
  F   -4.73394848503679      4.98459375671133      1.37368955595142
  F   -3.07877274807160      4.10647549724340      2.48426606155311
