22
Coordinates from ORCA-job 4-NO2PhN2+~CF3COO-_B3LYPG-6-31G_dp-NX-Scan-d89-09-n800
  C   -1.84076010329626      0.35986332525541     -0.00473893315073
  N   -2.94015358325444     -0.26414727107686      0.36727931805515
  N   -3.89830873520275     -0.79299973606603      0.68247306150616
  C   -1.99923182837441      1.66458637977360     -0.72250321193701
  C   -0.73877988815111      2.04411897034973     -1.42670290635862
  C   0.43080590581856      1.45729785555264     -1.10055092494794
  N   1.66027705523083      1.93635581487098     -1.77904427334011
  O   1.54658648711252      2.82078775715825     -2.62293595451301
  O   2.72156092152073      1.41941287051731     -1.43672206466591
  C   0.57097983440362      0.36960531713476     -0.16518004125601
  C   -0.55560087785390     -0.17872714125401      0.35382755072834
  H   -2.86530881625936      1.68138613592026     -1.38597138200494
  H   -0.77033174353930      2.83383016208507     -2.16691011532333
  H   1.55768900655605     -0.00320118267489      0.06813452678582
  H   -0.51246342779269     -1.03184147108765      1.02267659586989
  O   -4.17072414893061      3.40532904475372     -0.78104607698274
  C   -3.36427371379148      3.48720872678287      0.11269902998011
  O   -2.27127624797544      2.74080126912064      0.29786470768819
  C   -3.47781622897019      4.52224519758567      1.25679799965610
  F   -2.39568801684608      5.31835194066295      1.27327291389413
  F   -4.56567759072149      5.27615317248277      1.09302424548890
  F   -3.56100425968296      3.89278286215276      2.44255593482762
