22
Coordinates from ORCA-job 4-NO2PhN2+~CF3COO-_B3LYPG-6-31G_dp-NX-Scan-d89-09-n800
  C   -1.89911760891281      0.51022386511955     -0.11861717100872
  N   -3.04851114973128     -0.07790471314480      0.15589515567508
  N   -4.03636155278889     -0.58806212110730      0.39208058475530
  C   -1.93041806304674      1.81377599114133     -0.85523309762318
  C   -0.61428360857145      2.09188179429516     -1.50126341233903
  C   0.49623331103879      1.44472318560693     -1.09240609954076
  N   1.78805803917820      1.82305984298507     -1.71639266890858
  O   1.77417818405485      2.67261465881742     -2.60258724121458
  O   2.79529099347418      1.25782239741422     -1.29584226808060
  C   0.51587154563367      0.38053522700376     -0.12150967899378
  C   -0.67213064942208     -0.09121273691184      0.33282777484771
  H   -2.76395641435601      1.86364072518241     -1.55765235347634
  H   -0.55470309424023      2.85810790416154     -2.26357543537759
  H   1.46267297505633     -0.04047307973254      0.18360908342518
  H   -0.72096613041848     -0.93182675346994      1.01728686321577
  O   -4.40197270905385      2.64136638784763      0.00552160762011
  C   -3.42466428836214      3.24725484142273      0.37571784893554
  O   -2.15282565811926      2.96951918557150      0.09213834355815
  C   -3.50016791136646      4.49767445324518      1.28256816193633
  F   -2.95112024767986      5.55632851326490      0.66335046766318
  F   -4.77071920222649      4.78091358216877      1.57518014666045
  F   -2.82988676014015      4.27923684911825      2.42720338827041
