18
Coordinates from ORCA-job 4-MeOPhN2+~Cl-_B3LYPG-6-31G_dp-NX-Scan-d89-09-n800
  C   -1.57283432360747      0.93784744872182     -0.27143738386409
  N   -2.70474391009465      1.78466300896928     -0.38383855530891
  N   -3.83763702902194      1.17704494817742     -0.63264696600454
  C   -0.38157909621962      1.64544904329772      0.01642027669030
  C   0.83022702678780      0.99979350397749      0.16074695107379
  C   0.90651522527590     -0.39785176991992      0.02097181310970
  O   2.14728596021020     -0.94166463729098      0.18251979882756
  C   2.28454967113111     -2.34779433262442      0.06201272029914
  C   -0.25416933369360     -1.12142140980372     -0.26472282289846
  C   -1.48171975357395     -0.46470454235681     -0.40906797386948
  H   -0.45315371685056      2.72345929897807      0.12264300393051
  H   1.73966097481180      1.54856562622132      0.38332099013914
  H   3.33985892152994     -2.56454514230337      0.23434547000574
  H   2.00344014578473     -2.69861909352117     -0.93972549859400
  H   1.68076654983192     -2.87962843364988      0.80862086510891
  H   -0.22462106832526     -2.19871892043039     -0.38039829293683
  H   -2.35999614254121     -1.05919402065832     -0.62957935247263
  Cl  -4.41645010143510      0.50631942421594     -0.79108504323588
