18
Coordinates from ORCA-job 4-MeOPhN2+~Cl-_B3LYPG-6-31G_dp-NX-Scan-d89-09-n800
  C   -1.48901109676074      0.97704511358774     -0.26041147475906
  N   -2.65948116530636      1.72893530890070     -0.38384763648971
  N   -3.81112861025243      1.68088652441304     -0.57219753173553
  C   -0.30857900093436      1.69804099664918      0.00010309702218
  C   0.88796558083140      1.02332323746893      0.13605224775246
  C   0.92092540230490     -0.38059381030233      0.01331451632220
  O   2.13650032523740     -0.94618967285891      0.16503952206475
  C   2.25808252793519     -2.36392248144261      0.06868903896260
  C   -0.26207048512050     -1.09405654733257     -0.24912468299997
  C   -1.46995568091435     -0.42105383557654     -0.38659356425799
  H   -0.35607264946493      2.77788388080713      0.09264059714058
  H   1.81475348428330      1.54799461059596      0.33860247183296
  H   3.31292887932545     -2.58193777899726      0.23501040165570
  H   1.96397790067970     -2.72276656549030     -0.92441145049527
  H   1.65672704169197     -2.86801543470997      0.83365704611400
  H   -0.25053878815441     -2.17245813908525     -0.34855919187022
  H   -2.39472190073484     -0.94890296991811     -0.58842615347780
  Cl  -4.70490176464635     -0.28521243670876     -0.88043725278188
