18
Coordinates from ORCA-job 4-MeOPhN2+~Cl-_B3LYPG-6-31G_dp-NX-Scan-d89-09-n800
  C   -1.55872512615709      1.05913116801090     -0.48809387358235
  N   -2.61051385047902      1.77461499710481     -0.83976125503476
  N   -3.52225874566678      2.37538914383783     -1.15819943260556
  C   -0.43510097916074      1.70958465836418      0.12785447055488
  C   0.67057665157809      0.97784879480408      0.41064325326825
  C   0.71784657272901     -0.42487562397853      0.06265176158702
  O   1.92671570164048     -0.98634407015262      0.30099569400051
  C   2.08435797435286     -2.37844361934000      0.04757541690998
  C   -0.35931290686559     -1.07002573817043     -0.48015746442374
  C   -1.63847955440088     -0.39994239003597     -0.61799520347508
  H   -0.49026116794737      2.77011298635341      0.34822243498326
  H   1.54596283664523      1.41862377733329      0.87272218107945
  H   3.10306076190834     -2.62431583132986      0.34834824287448
  H   1.95334021430959     -2.60557273554450     -1.01745245726708
  H   1.37319410966645     -2.97010360174872      0.63483937590708
  H   -0.32222191728374     -2.11829290451869     -0.74319711876505
  H   -2.27624101658245     -0.75812812570468     -1.41884353925867
  Cl  -2.91653955828633     -1.10026088528443      0.89894751324739
