23
Coordinates from ORCA-job 4-MeOPhN2+~HSO4-_B3LYPG-6-31G_dp-NX-Scan-d89-09-n800
  C   -1.51601760435331      0.67781542606929     -0.60487050920198
  N   -2.71173423105659      0.67336399155940     -1.36534344604753
  N   -3.74099226319064      1.38280041865431     -0.87006768056015
  C   -1.29327920511779      1.15789009958562      0.70722287277506
  C   -0.03914384532715      1.04861727353156      1.29958238175907
  C   1.03386156243892      0.46425485225583      0.61735800983066
  O   2.22035728568611      0.41531100408497      1.29481807010373
  C   3.33717751051058     -0.16688674110719      0.64376227653254
  C   0.83140384347271     -0.02193284750631     -0.68080466024244
  C   -0.42516536899880      0.08821657215752     -1.26846609830120
  H   -2.08377550916815      1.61228746886339      1.28984183219867
  H   0.12845841400406      1.41611648002428      2.30669353081854
  H   4.16871876877107     -0.09508096632471      1.34721599769501
  H   3.59788019010505      0.37152014005703     -0.27688539942106
  H   3.16142980605981     -1.22298079866445      0.40061813359970
  H   1.63771065490440     -0.48336940371692     -1.23875624366387
  H   -0.59078104895811     -0.28780874724026     -2.27269205147991
  S   -6.25452042357866      3.14350914334634      0.31015238560876
  O   -5.73933845050092      4.50094955522121      0.29968276121311
  O   -3.86004540323682      1.88415390606135     -0.13218485417495
  O   -6.56437875014097      2.48178293385171      1.56496530290019
  O   -6.51175754972759      2.45879964650370     -0.95042555914857
  H   -4.50766838259737      1.21587059273239     -1.63661705279344
