23
Coordinates from ORCA-job 4-MeOPhN2+~HSO4-_B3LYPG-6-31G_dp-NX-Scan-d89-09-n800
  C   -1.67496638622479      0.14168878757931     -0.44466101778746
  N   -2.95627323694926     -0.17117862878397     -0.85278766639459
  N   -4.04089994952961     -0.05009731659753     -1.15370373676254
  C   -1.45006849234769      1.36901311585484      0.21466107630871
  C   -0.15931663924697      1.65159201287591      0.61206628966565
  C   0.89298027918625      0.74605318568244      0.35766051097864
  O   2.10575951461993      1.13743709097554      0.78259243252036
  C   3.23255577894897      0.28234850690007      0.58001229035273
  C   0.63959757933889     -0.47883351033922     -0.29423448472183
  C   -0.65265406767995     -0.78734395378195     -0.68657653700725
  H   -2.29659229850092      2.02005389744085      0.43144453382448
  H   0.07101945142164      2.57469953618947      1.13212957939081
  H   4.08406321143830      0.81461144820168      1.00241956787124
  H   3.40612685547112      0.10310729851431     -0.48676526966629
  H   3.10352640534590     -0.67223069307523      1.10136287748125
  H   1.43721681466402     -1.18354615444684     -0.49038588331588
  H   -0.87413559807234     -1.72440351370478     -1.18548443780135
  S   -5.14319672367719      2.39198762416838     -0.02350580885805
  O   -6.41472657538325      1.69558083959116      0.14109770759014
  O   -4.18765609185237      2.33248498255116      1.11467794062229
  O   -4.43056560865323      2.07416039897570     -1.32379853582537
  O   -5.50751229129715      3.99894762436901     -0.17802817525866
  H   -4.90588193102045      4.44906742085977      0.43460674679291
