23
Coordinates from ORCA-job 4-MeOPhN2+~HSO4-_B3LYPG-6-31G_dp-NX-Scan-d89-09-n800
  C   -1.73400607911878      0.65205003190192     -0.48749150628593
  N   -3.05350135926170      0.56666167038482     -0.87105938326626
  N   -4.09664846082013      0.42309949646313     -1.24500716892806
  C   -1.17838687589777      1.89666216666118     -0.12742338224130
  C   0.15414385813301      1.92264469472326      0.22324288185769
  C   0.92440763840850      0.73974602417164      0.23636653008779
  O   2.20644366992203      0.89085667642261      0.60357706407588
  C   3.06368591065226     -0.25061241897239      0.66088791942157
  C   0.34417775368215     -0.49426520258766     -0.12489193268497
  C   -0.98963837606293     -0.53918030449910     -0.49438470905883
  H   -1.81506568780635      2.77489280556786     -0.15523335748558
  H   0.63435723540190      2.85213625402116      0.50657897002072
  H   4.03404341533386      0.12758649804743      0.98048818297622
  H   3.16123396223741     -0.72178027925101     -0.32325535516630
  H   2.69898598314876     -0.98267606035234      1.38990971462149
  H   0.92273428245854     -1.40906618713366     -0.11976478005247
  H   -1.45690774672018     -1.47679846520984     -0.77408468612390
  S   -4.56583715470434      2.80697322228059      0.40581955835962
  O   -3.80528187255571      1.91557865471617      1.30653994681053
  O   -5.37191281025648      3.85901419048498      0.99300805907278
  O   -3.78513525857363      3.19843970605432     -0.80333346654476
  O   -5.73145299949954      1.72410278423314     -0.19193141115028
  H   -6.28203902810094      2.23913404187189     -0.80375768831570
