23
Coordinates from ORCA-job 4-MeOPhN2+~HSO4-_B3LYPG-6-31G_dp-NX-Scan-d89-09-n800
  C   -1.70696471524742      0.38550995362697     -0.60652065695794
  N   -2.96356795464044      0.12082287800537     -1.09681480657846
  N   -3.97535798523450     -0.10849020246270     -1.52106273950545
  C   -1.42964089008067      1.63293788570897     -0.00707499330720
  C   -0.14434193849241      1.85706986916603      0.43926471184637
  C   0.85269366171698      0.86632754210103      0.30971747001078
  O   2.06171995067913      1.19963117375088      0.78747384815263
  C   3.13426547646272      0.25811384599586      0.71241054921395
  C   0.55198695750268     -0.37420748246739     -0.28987037439109
  C   -0.73059311005387     -0.61352431624106     -0.75365873694454
  H   -2.21602376933239      2.37211976197095      0.10342990004125
  H   0.12186809417050      2.79632618449968      0.91038648918707
  H   3.99365684033024      0.75712890101743      1.15877930838471
  H   3.36156721946300     -0.00039648307777     -0.32743122847945
  H   2.90349111621953     -0.64987675081567      1.27993414416509
  H   1.30555891745054     -1.14403656642291     -0.39485318700497
  H   -0.98474566769796     -1.55936305408146     -1.21916349467621
  S   -5.12273601503093      2.05620196339293      0.30125655240913
  O   -6.29285941500699      2.44396334969141      1.08788267560089
  O   -4.16704079705244      1.10357540592140      0.90894785761892
  O   -5.40309631264731      1.72015470062677     -1.12841352963346
  O   -4.15072270837835      3.43681386103777      0.21876388273536
  H   -4.72071695509985      4.15839757905559     -0.08858364188744
