23
Coordinates from ORCA-job 4-MeOPhN2+~HSO4-_B3LYPG-6-31G_dp-NX-Scan-d89-09-n800
  C   -1.69801246766380      0.19246750965823     -0.67038918812195
  N   -2.97208582109235     -0.14320709801347     -1.07387894380045
  N   -4.07273219555239     -0.09696017959680     -1.29547860766944
  C   -1.44978963719778      1.53597381524807     -0.31415618862571
  C   -0.17470121190559      1.86011122714576      0.09969350111427
  C   0.83812475319210      0.87905806290715      0.16239503844754
  O   2.03734258793946      1.31574506551710      0.58167606998299
  C   3.12570745394090      0.39603417949642      0.68271106219766
  C   0.56338406414848     -0.45501145960400     -0.20186474487712
  C   -0.71138089609920     -0.80061470886952     -0.62111543723558
  H   -2.25141126806710      2.26567951670367     -0.38123945950445
  H   0.07096982985224      2.87524221009358      0.39033107955648
  H   3.97140563979954      0.98108952318275      1.04257280629234
  H   3.37100447843098     -0.03606962800227     -0.29394331783078
  H   2.90311184624968     -0.40316211573765      1.39802996619142
  H   1.33098523214479     -1.21662220409997     -0.15662743270828
  H   -0.94752467630491     -1.82087083303104     -0.90260294785463
  S   -5.08040195918729      2.21773644588189      0.14925717785791
  O   -6.42295855185878      2.80463552539062      0.20736404122859
  O   -4.88791606024190      0.88448234501571      0.77489713324004
  O   -4.40495329678758      2.26767424896893     -1.19103861175396
  O   -4.13473637086431      3.23902195137904      1.08447219287914
  H   -4.72503147287539      3.97276660036587      1.31373481099393
