23
Coordinates from ORCA-job 4-MeOPhN2+~HSO4-_B3LYPG-6-31G_dp-NX-Scan-d89-09-n800
  C   -1.72591012121115      0.25237366338864     -0.21735300397143
  N   -3.03627960474855     -0.12544045701811     -0.41159035653412
  N   -4.13511621914048     -0.39591717162054     -0.51196135253857
  C   -1.38139520811051      1.57438976638527      0.13577657868514
  C   -0.04888056847570      1.86681115138379      0.34455970749391
  C   0.94200794474147      0.87351724190515      0.20441065986365
  O   2.20389834588888      1.27872444883529      0.43003279877943
  C   3.27493573053136      0.34331543176841      0.30156736901012
  C   0.58343390658617     -0.44198722822478     -0.15220531517104
  C   -0.75053034230534     -0.75062068126760     -0.36046401749941
  H   -2.15707412988787      2.32856349447278      0.19639821504134
  H   0.26244816671854      2.86976701544903      0.61412786020207
  H   4.18269311387056      0.90398844881488      0.52276808921124
  H   3.33227135087126     -0.05625482526545     -0.71693043191445
  H   3.17059000577956     -0.47978033312086      1.01730637839224
  H   1.33154297779188     -1.21570124334393     -0.26635243924201
  H   -1.04927581044311     -1.75692477916654     -0.63333802467963
  S   -5.08604510093183      2.47502421001328     -0.37505350919706
  O   -6.20853490879030      3.33100437214057     -0.75479909264706
  O   -5.46880608174064      1.01356550715112     -0.22659812335863
  O   -3.81065146917027      2.60855279458221     -1.10120356709526
  O   -4.66574656318305      2.94315116581404      1.16918392739704
  H   -5.48117541464104      3.27507800692342      1.57651764977243
