23
Coordinates from ORCA-job 4-MeOPhN2+~HSO4-_B3LYPG-6-31G_dp-NX-Scan-d89-09-n800
  C   -1.65263353887829      0.33178244196298     -0.79020294341505
  N   -2.90647059784183      0.09390273144503     -1.31780242767350
  N   -3.97838890930962      0.30190686315278     -1.62251057370101
  C   -1.33805891103584      1.60874481120719     -0.27414384325565
  C   -0.07622598926515      1.79753870783538      0.24941967108551
  C   0.86674505824823      0.74760368886946      0.26653136264936
  O   2.05971046903712      1.05374814576391      0.80236300432940
  C   3.07279586919139      0.05016750530292      0.88451706685581
  C   0.53232212705317     -0.51896028638013     -0.25421479601795
  C   -0.73155660430810     -0.72518000287503     -0.78269737436392
  H   -2.07368613917144      2.40604651095106     -0.27661893476002
  H   0.20929574645938      2.75611445987078      0.66741294804720
  H   3.92727856261419      0.53404794480806      1.35655355899246
  H   3.35958934755392     -0.30607211486846     -0.11095038738330
  H   2.74420687784637     -0.79398105001860      1.50083538346990
  H   1.24433533118668     -1.33424348034473     -0.24571053821518
  H   -1.01440952681417     -1.69148902676382     -1.18525608519052
  S   -4.68049721000620      2.44295418266463      0.31497759122838
  O   -4.74605261155298      1.11707627040559      0.93993517951602
  O   -3.83259006603295      3.46464984117739      0.95715832718136
  O   -4.36459415448251      2.35300271391723     -1.16992370662775
  O   -6.21953942204901      3.03236132910780      0.39288435277091
  H   -6.12317570844246      3.99347781280870      0.48224316447750
