23
Coordinates from ORCA-job 4-MeOPhN2+~HSO4-_B3LYPG-6-31G_dp-NX-Scan-d89-09-n800
  C   -1.53680151628818      0.81782950442471     -0.58241377157227
  N   -2.71723470073537      0.86581861127419     -1.33070180106742
  N   -3.75600729681581      1.44973154640357     -0.89830632875704
  C   -1.28046795920395      1.35405368235546      0.70426835084046
  C   -0.03074705774212      1.19680136297969      1.27762563715769
  C   0.99605171250997      0.51213656601192      0.60301436453392
  O   2.17464767507096      0.42461102627278      1.26300522620205
  C   3.26132095890133     -0.25199168980162      0.63933454982625
  C   0.75324344948432     -0.02424935610015     -0.67192944173272
  C   -0.50035377151906      0.13289516056098     -1.24567271123834
  H   -2.05055346739283      1.88393704507139      1.24418378311008
  H   0.18196024754464      1.59944833172609      2.26180037110162
  H   4.09362159077485     -0.18851550597031      1.34115614105952
  H   3.54446495298141      0.22973047887046     -0.30400071176414
  H   3.02263457978374     -1.30583934894161      0.45270833705995
  H   1.52600260412594     -0.55587529872198     -1.21332162846766
  H   -0.70848885449266     -0.27266958808732     -2.22979866555295
  S   -5.94649521667193      2.81797393715616      0.23066265242055
  O   -5.58096103658521      4.22049063064784      0.33165137802557
  O   -3.93952478110749      2.02905550557765      0.13687787920618
  O   -6.36886836596705      2.08658405509627      1.41283752304949
  O   -6.29451557696279      2.27744552086223     -1.09096952333249
  H   -4.56452816969287      1.41579782233166     -1.54721161010839
