23
Coordinates from ORCA-job 4-MeOPhN2+~HSO4-_B3LYPG-6-31G_dp-NX-Scan-d89-09-n800
  C   -1.46198851108931      0.59929811882251     -0.59289014407201
  N   -2.69697383371553      0.54775492643954     -1.23482763846548
  N   -3.78599096111381      0.96166322412940     -1.21904596526309
  C   -1.21540513514494      1.40728743644489      0.54045741016373
  C   0.04501343060576      1.38621398910185      1.10397199662205
  C   1.06723343873717      0.57879887350438      0.56293438954982
  O   2.25328477285839      0.64493345274285      1.19867647962263
  C   3.34309512818603     -0.14342111027550      0.72328204240246
  C   0.81291240604411     -0.22158418704471     -0.56549598227699
  C   -0.45154560558393     -0.20646151102935     -1.13676104244345
  H   -2.00930468092429      2.02114870990322      0.94431235791705
  H   0.27384637410521      1.99026059122795      1.97498689802165
  H   4.17660854420176      0.07193106997228      1.39158005758581
  H   3.61718741553815      0.13362174867464     -0.30113510758696
  H   3.10778738940529     -1.21326242430367      0.76578744445525
  H   1.58571385239705     -0.84565438781082     -0.99525884561384
  H   -0.67153803955179     -0.81412605146343     -2.00782296192377
  S   -5.47994872458956      2.56178073136239      0.33070832753238
  O   -5.53670145783481      3.57866784772287      1.36828452378302
  O   -3.98137204769283      2.15367421316628      0.14386584422558
  O   -6.36537547044280      1.39981343085697      0.37553104162442
  O   -5.79160977424446      3.29764162489746     -1.11062865040654
  H   -6.55652851015097      2.82521968295804     -1.47571247545379
