23
Coordinates from ORCA-job 4-MeOPhN2+~HSO4-_B3LYPG-6-31G_dp-NX-Scan-d89-09-n800
  C   -1.82617889327525     -0.03536913147476     -0.14682690800021
  N   -3.10372859341495     -0.48685821952721     -0.43738935527286
  N   -4.24314858146739     -0.36038088074658     -0.41592559032297
  C   -1.62451969216426      1.14728820819817      0.59699476161713
  C   -0.32767129880527      1.54056227755148      0.85446155906104
  C   0.76548100272148      0.78360789164691      0.38150104295546
  O   1.98080405043060      1.26985064443860      0.69270809782197
  C   3.14646909739467      0.57716255184171      0.24610856880283
  C   0.54761248551909     -0.39427540126591     -0.35857418800116
  C   -0.75205605700510     -0.80187052178703     -0.61831107261019
  H   -2.47293628724774      1.71829575499822      0.95111130599850
  H   -0.12317789141085      2.44476003339591      1.41657369385072
  H   3.99218421968326      1.15827468525433      0.61234735772516
  H   3.18295791537052      0.52792265288619     -0.84813966718779
  H   3.19094559655857     -0.43439049442868      0.66444715884390
  H   1.37537048486801     -0.98499109296502     -0.72792718259695
  H   -0.94722556395547     -1.70493470563907     -1.18623141933830
  S   -4.83241830352590      2.46422177318785     -0.44248936800284
  O   -6.19557301305405      2.97359600563197     -0.58422224106276
  O   -4.73699651848241      1.27267275991470      0.53111025971630
  O   -4.01377317182516      2.22339807040823     -1.63126296419254
  O   -4.00922185647736      3.63688528419589      0.40723321953872
  H   -4.69479913043516      4.17977185428415      0.82750293065680
