22
Coordinates from ORCA-job 4-MeOPhN2+~BF4-_B3LYPG-6-31G_dp-NX-Scan-d89-09-n800
  C   -1.26400188111310     -1.47373184051425      0.45769876231072
  N   -1.44563600511936     -2.43240335881763      1.38649946720191
  N   -1.59239641780350     -3.22178888572912      2.17362139016193
  C   -1.70768436936515     -1.70836928084690     -0.87683159169500
  C   -1.59116489515495     -0.68627147115123     -1.77895163741987
  C   -1.05626245015530      0.57314998991986     -1.37155236723461
  O   -1.08962690298152      1.53036367928126     -2.28481478051228
  C   -0.73206759317895      2.88283432154779     -1.89480562390661
  C   -0.55362508123100      0.75407795999045     -0.06854745062388
  C   -0.68485467561758     -0.24615085632979      0.86472995652188
  H   -2.13939471825231     -2.66391877293544     -1.15190090683408
  H   -1.93702366129387     -0.79490941630325     -2.80023605703995
  H   -1.24747409233397      3.15921515957976     -0.97130277306265
  H   -1.04752720355718      3.50630120512936     -2.73004783009018
  H   0.35173144607239      2.95452559789555     -1.76434379100039
  H   -0.16677307148760      1.69804900228625      0.28724948283746
  H   -0.40024175175931     -0.04785755243976      1.88980691830199
  B   -1.55559752549865      2.46735246580448      2.38005716906947
  F   -0.15192063566395      2.19335910093588      2.33829863280416
  F   -1.92518257442331      2.98739664610071      1.10712933603360
  F   -2.21634964739336      1.22917799692553      2.57136810857495
  F   -1.85072629268840      3.35929830967046      3.38337558560147
