22
Coordinates from ORCA-job 4-MeOPhN2+~BF4-_B3LYPG-6-31G_dp-NX-Scan-d89-09-n800
  C   -1.37119547598690     -1.67806475218280      0.36681680028478
  N   -1.58673067511918     -2.71724217257955      1.19416902304207
  N   -1.75802927802356     -3.57398998973808      1.90384639681046
  C   -1.63666967030403     -1.83327687975265     -1.02553196299135
  C   -1.47049166478728     -0.74294602236949     -1.83567138445070
  C   -1.05142119348860      0.50556567308400     -1.28403926564729
  O   -1.01455846703279      1.52116443294325     -2.12394254508787
  C   -0.78158513691974      2.86288268175811     -1.59781011039314
  C   -0.72394845377486      0.61684491481420      0.08718621004215
  C   -0.91428474985259     -0.45343361362446      0.92405418846270
  H   -1.97641084452612     -2.78588387347711     -1.41603404504317
  H   -1.68392157508923     -0.79373933613172     -2.89720436104246
  H   -1.46222433068545      3.05934982168014     -0.76637460901002
  H   -0.96515594056820      3.52133202821853     -2.44497673281897
  H   0.25052858048832      2.95545709174110     -1.25455600407191
  H   -0.36633320043222      1.54792044374889      0.51924082909851
  H   -0.76290068954254     -0.31611722588178      1.98954107891742
  B   -1.36134200298803      2.88744300782126      2.18922796743031
  F   -0.14362468960932      3.13896776497270      1.47722573026409
  F   -2.38297824719722      2.76428914438498      1.21238646241015
  F   -1.21261670905932      1.63703145564262      2.84764256075210
  F   -1.62790558550107      3.89614540492780      3.08130377304218
