22
Coordinates from ORCA-job 4-MeOPhN2+~BF4-_B3LYPG-6-31G_dp-NX-Scan-d89-09-n800
  C   -1.50409872471736     -1.98152399765016      0.25678195654724
  N   -1.71795687054031     -3.11936069061911      0.93656557975230
  N   -1.89546448989130     -4.06488554554113      1.52366388047287
  C   -1.56231455695818     -1.99959063215160     -1.16718826804921
  C   -1.35785607199330     -0.82286976934195     -1.83135301731712
  C   -1.10477872888215      0.38782806423926     -1.11306237376665
  O   -0.95526034538217      1.45434467466116     -1.85811642324370
  C   -0.80601418537844      2.77340253632812     -1.23284604555344
  C   -1.02960484652322      0.38567291031029      0.31024181983143
  C   -1.22949867801953     -0.78910840370288      0.98631778836407
  H   -1.76883164452806     -2.92384871899519     -1.69506375715691
  H   -1.39633744415566     -0.77472397490505     -2.91385900242771
  H   -1.68220944859084      2.98420163934510     -0.62146974799364
  H   -0.71369784732927      3.46159842353002     -2.06919940751730
  H   0.07915806857935      2.79207873814825     -0.59810424596522
  H   -0.80866812469963      1.28904538781734      0.87966767743865
  H   -1.18288786427062     -0.81216302226185      2.07008374867421
  B   -1.08074256594781      3.58919302525228      1.88202989355768
  F   -0.90186430643838      4.61961376011191      0.95203414261519
  F   -2.22876422126828      2.83044632593590      1.50392659910561
  F   0.04152954185563      2.69219499002147      1.77106819209752
  F   -1.19763664492044      4.04815427946778      3.17438101053416
