22
Coordinates from ORCA-job 4-MeOPhN2+~BF4-_B3LYPG-6-31G_dp-NX-Scan-d89-09-n800
  C   -1.39108133221577     -0.60874902084826      0.56103589662383
  N   -1.54583218317843     -1.30249108488786      1.73070569110220
  N   -1.65008383622976     -1.86396617495466      2.68682221318212
  C   -1.66394022063825     -1.29560865280200     -0.64512324071952
  C   -1.50155320110591     -0.62049972352338     -1.83145962001631
  C   -1.07180459550752      0.72928200442120     -1.82647972620386
  O   -0.94836132481969      1.28976317344119     -3.03575344713468
  C   -0.52971022544747      2.65658027299580     -3.13988081831100
  C   -0.80687020119771      1.38856162374396     -0.61072897217648
  C   -0.96242354059595      0.73182466795017      0.59868335012443
  H   -1.99620219595273     -2.32733443192099     -0.62684908363733
  H   -1.69946636047569     -1.09825456770582     -2.78369877403266
  H   -1.23839509624540      3.32253732519584     -2.63750847172413
  H   -0.51359783385030      2.87485188840571     -4.20692311831260
  H   0.47252752281470      2.79227459095868     -2.72108301125373
  H   -0.48480500547227      2.42129373903266     -0.59419149027408
  H   -0.77475774424321      1.24322491326766      1.54096210768683
  B   -1.55289444332865      1.15387228047397      3.77724737081209
  F   -0.51740646796707      0.17473128090561      3.64670633971869
  F   -1.11509232435640      2.30595326198399      3.07679916458660
  F   -2.68366039530540      0.63054126115974      3.09412910298116
  F   -1.82838899468109      1.42131137270663      5.09308853697841
