22
Coordinates from ORCA-job 4-MeOPhN2+~BF4-_B3LYPG-6-31G_dp-NX-Scan-d89-09-n800
  C   -1.49681727019739     -1.92624918400730      0.26826168513316
  N   -1.76066237583626     -3.02612431090140      0.98961391213862
  N   -1.97865357171382     -3.92281173329432      1.63515834890559
  C   -1.61016813151938     -1.96412989988150     -1.15126922326743
  C   -1.38000188617514     -0.80629402683840     -1.84174555455493
  C   -1.05720609821056      0.40219124480574     -1.14950532060650
  O   -0.92003129096548      1.46455483819907     -1.90612236215924
  C   -0.76623696194108      2.78034053869561     -1.27918205663129
  C   -0.90873117577402      0.41117127183704      0.26537068566517
  C   -1.13273649340206     -0.74169790741398      0.96791427056116
  H   -1.88130229426530     -2.88486362833524     -1.65540777308322
  H   -1.46382717568811     -0.77040214425395     -2.92211442059169
  H   -1.62571378564059      2.98042212855958     -0.64155171347748
  H   -0.70581235960891      3.47514370324444     -2.11334503121232
  H   0.13894946470340      2.81033441756419     -0.67303393222909
  H   -0.63496078248915      1.30610050402015      0.82430228449009
  H   -1.04459256389830     -0.74929364414389      2.04917297996877
  B   -1.16631588306016      3.46700030159602      1.92140969489057
  F   -1.01876003052519      4.49733596488252      0.98615397783529
  F   -2.25336292753399      2.64255665000717      1.51151429080168
  F   0.01578964100497      2.64466587028044      1.85690572808983
  F   -1.35264604726344      3.92974904537790      3.20399952933330
