22
Coordinates from ORCA-job 4-MeOPhN2+~BF4-_B3LYPG-6-31G_dp-NX-Scan-d89-09-n800
  C   -1.47915382822357     -1.88885231707703      0.29336209794821
  N   -1.74278594685178     -2.97873478322297      1.03116058528845
  N   -1.95929157661748     -3.87183000340593      1.68256453556217
  C   -1.68313036485533     -1.92666363981727     -1.11620568591623
  C   -1.45601802606206     -0.78038450474610     -1.82705503166599
  C   -1.04955779053294      0.41779951839109     -1.16269835197566
  O   -0.92419538202459      1.47404027801250     -1.93191549652737
  C   -0.69867329317268      2.78749951386559     -1.32539236475997
  C   -0.80866966362478      0.42504127245138      0.23821269167341
  C   -1.02879161734603     -0.71574386285880      0.96207290330949
  H   -2.01885980123408     -2.83862754674171     -1.59685406113296
  H   -1.60845773281758     -0.74539054718672     -2.89978601249257
  H   -1.51555634197849      3.01718467921937     -0.64283745094144
  H   -0.66103951881597      3.47379938994218     -2.16830382892968
  H   0.24302234220579      2.79507054475120     -0.77545135060809
  H   -0.48361237534766      1.31617216571857      0.77544063782347
  H   -0.87673229675991     -0.71782653241864      2.03607551190773
  B   -1.26268511004779      3.38562632605737      1.93994128054243
  F   -1.01666591144931      4.45188940668471      1.06885513342117
  F   -2.28447513616223      2.57062071119501      1.36776906994684
  F   -0.07463065791897      2.57310275259747      1.99192837302475
  F   -1.61383997036251      3.79590717858866      3.20561681450185
