22
Coordinates from ORCA-job 4-MeOPhN2+~BF4-_B3LYPG-6-31G_dp-NX-Scan-d89-09-n800
  C   -1.32364821917618     -1.57421179859897      0.39854613122684
  N   -1.53120353636320     -2.56402728062598      1.28725734468577
  N   -1.69314440771188     -3.36915244853268      2.05562622192427
  C   -1.66585695153038     -1.77779883635598     -0.97000972987799
  C   -1.51924742951113     -0.72236898412833     -1.82929036453433
  C   -1.04756212925931      0.53552410756832     -1.34665389576358
  O   -1.04812515521961      1.52455884182147     -2.22312788658596
  C   -0.75530457426776      2.87205277205530     -1.75776477328639
  C   -0.63654338578082      0.68750439320671     -0.00584443300488
  C   -0.80648264608341     -0.34505704232947      0.88288247925862
  H   -2.04751663238066     -2.73568160769266     -1.30468536327235
  H   -1.79221923309304     -0.80636108976119     -2.87484051680977
  H   -1.33915391381111      3.09645374317930     -0.86081995163825
  H   -1.03154615083994      3.51801306836802     -2.58969207469734
  H   0.31382739016034      2.96518919633064     -1.54878104782463
  H   -0.26481952678123      1.62439591346493      0.39629144378631
  H   -0.62479727011657     -0.17010717505030      1.93777935736400
  B   -1.45211853379773      2.67486225334634      2.32391313443702
  F   -0.07637304367382      2.69465460794354      1.93935255618781
  F   -2.21896624748892      2.81183361805498      1.13407390920761
  F   -1.71404960723153      1.39732176039896      2.88617098624500
  F   -1.72894879604207      3.68210198733698      3.21611647297224
