22
Coordinates from ORCA-job 4-MeOPhN2+~BF4-_B3LYPG-6-31G_dp-NX-Scan-d89-09-n800
  C   -1.26990236923545     -0.54391489768595      0.55545487377758
  N   -1.35822754946398     -1.21860065719731      1.74655131959350
  N   -1.40946206063741     -1.81368483199031      2.69058396467403
  C   -1.59231935900926     -1.25430484780602     -0.62300405791768
  C   -1.50304875011975     -0.59373257860678     -1.82613519179965
  C   -1.09092999011403      0.76025245883992     -1.86407426649848
  O   -1.04297198116845      1.30437954371812     -3.08725373468937
  C   -0.65295313060979      2.67494148348326     -3.23384145226666
  C   -0.76257854761218      1.44061421031203     -0.67527287384498
  C   -0.85427304250948      0.80013944491205      0.54921676459892
  H   -1.91037175090399     -2.28943881102048     -0.57233930972497
  H   -1.74688671313164     -1.08739522806641     -2.75941266999541
  H   -1.34213078799189      3.33777904017894     -2.70108000929299
  H   -0.70136602083922      2.87836872810193     -4.30295400933978
  H   0.36938324520998      2.83242634319172     -2.87518767100486
  H   -0.44271994950240      2.47403725878207     -0.69583806052308
  H   -0.61469538534779      1.29100700281307      1.49163459072224
  B   -1.62768775292029      1.02628453988060      3.89632255012777
  F   -1.38785713927303     -0.24186584087677      4.48003604261004
  F   -0.39954911123579      1.49784456892954      3.34674921576705
  F   -2.52090357787549      0.82747291573161      2.80316908773056
  F   -2.14234827570866      1.91709015437504      4.80317489729619
