22
Coordinates from ORCA-job 4-MeOPhN2+~BF4-_B3LYPG-6-31G_dp-NX-Scan-d89-09-n800
  C   -1.26766811741446     -1.48132972092077      0.45481293455740
  N   -1.44816612548897     -2.44666188753581      1.37676461852002
  N   -1.59524115685195     -3.24420854362883      2.15540944906241
  C   -1.70216550596841     -1.71493409074079     -0.88315766400080
  C   -1.58530792382434     -0.69066593086915     -1.78275830692050
  C   -1.05782278323862      0.56991533479138     -1.36951324118319
  O   -1.08839106375009      1.52881385665373     -2.28085251759994
  C   -0.73420808023269      2.88131883129578     -1.88735028524281
  C   -0.56439295804305      0.75030974469075     -0.06271822110084
  C   -0.69673359109508     -0.25202498065871      0.86803292552180
  H   -2.12732105750977     -2.67212300613631     -1.16278310500887
  H   -1.92448177084615     -0.79895478822059     -2.80632297074399
  H   -1.25278072473685      3.15605824579516     -0.96508094548399
  H   -1.04771868055294      3.50552209082799     -2.72277329628121
  H   0.34904884118490      2.95413534486387     -1.75317694934528
  H   -0.18175390319617      1.69483441305244      0.29677424914555
  H   -0.42019308420766     -0.05378460663099      1.89533887304539
  B   -1.54709434830727      2.48677803360767      2.37932071438370
  F   -0.14281449362782      2.21967913753963      2.31696791638551
  F   -1.94053076410198      2.99053993032460      1.10698484522719
  F   -2.19874757952446      1.24783518905531      2.59502693312451
  F   -1.82931512866612      3.38864740284359      3.37755404393797
