22
Coordinates from ORCA-job 4-MeOPhN2+~BF4-_B3LYPG-6-31G_dp-NX-Scan-d89-09-n800
  C   -1.25842339432154     -1.46843049879699      0.46373283718041
  N   -1.43795023132704     -2.42648058736403      1.39331608118349
  N   -1.58509561926377     -3.21906781370502      2.17704888543201
  C   -1.71870202450087     -1.69957941621260     -0.86591214019900
  C   -1.60429931383038     -0.67855227319354     -1.76930279650416
  C   -1.05607669538156      0.57710193266366     -1.36781638240952
  O   -1.09255608628114      1.53392162862598     -2.28135648588127
  C   -0.72545768653146      2.88493728299043     -1.89556452350816
  C   -0.53798716510976      0.75429290409714     -0.07041450809620
  C   -0.66618284150734     -0.24514653396126      0.86422716259006
  H   -2.16075006781309     -2.65185925580767     -1.13585941225192
  H   -1.96220438377100     -0.78455733992512     -2.78668992998768
  H   -1.23411633290410      3.16440117147680     -0.96928250334992
  H   -1.04327248935670      3.50892574251906     -2.72953102704217
  H   0.35957821124442      2.95145300080169     -1.77252073662016
  H   -0.14384570137022      1.69672259643258      0.28111386031626
  H   -0.36794431504185     -0.04962532587671      1.88577574317849
  B   -1.56945068139713      2.45397104971633      2.36894214388052
  F   -0.16352805281584      2.19061777659755      2.34499702822026
  F   -1.92497374991429      2.98151702613833      1.09514910229449
  F   -2.22482542391108      1.20983460299116      2.54126236628179
  F   -1.88573595489421      3.33530232979217      3.37518523529241
