22
Coordinates from ORCA-job 4-MeOPhN2+~BF4-_B3LYPG-6-31G_dp-NX-Scan-d89-09-n800
  C   -1.25687557253786     -1.39268149154967      0.43299515791609
  N   -1.34688680110347     -2.31990051236059      1.41147722601319
  N   -1.41394813744802     -3.06089423475204      2.25231523350879
  C   -1.57806763712826     -1.74924278634310     -0.90782361665689
  C   -1.51523225537146     -0.76355561051544     -1.85547028998023
  C   -1.15234910269148      0.56689226355591     -1.48743099661760
  O   -1.16689081456314      1.45116786106012     -2.48024714876077
  C   -0.86261482072359      2.83141256836458     -2.18801394565217
  C   -0.82123182290703      0.88720476919812     -0.15939051753726
  C   -0.87766878479064     -0.08567486847627      0.81629435937078
  H   -1.86903874725944     -2.76318374899538     -1.15767366367676
  H   -1.75699624405201     -0.96465881351537     -2.89277428542222
  H   -1.52285232872673      3.21801621041319     -1.40761025103462
  H   -1.02489304892698      3.36324564434320     -3.12421176654363
  H   0.17958341470066      2.93300449258002     -1.87305581547443
  H   -0.58204503893255      1.89210851582550      0.17690477934598
  H   -0.65951826510638      0.18018874164247      1.85360327871985
  B   -1.37326488944626      2.38295685936183      2.76913810667075
  F   -0.51056460693629      1.34252365243835      3.25053055448545
  F   -0.67303109003716      3.07746479119297      1.73813952207136
  F   -2.49717259335284      1.75839628636060      2.19048595542654
  F   -1.72224081265899      3.23490941017093      3.78831812382785
