22
Coordinates from ORCA-job 4-MeOPhN2+~BF4-_B3LYPG-6-31G_dp-NX-Scan-d89-09-n800
  C   -1.21973867744435     -1.45624037137437      0.43493132259560
  N   -1.33840913679582     -2.38376347576661      1.40716522054647
  N   -1.42046336779302     -3.10945703342410      2.26055067058595
  C   -1.62360487750406     -1.75501208012912     -0.89789745080587
  C   -1.56393979735071     -0.74364780663445     -1.81927725881752
  C   -1.12363420076549      0.55804271304830     -1.43108497222172
  O   -1.19500091451347      1.49231828505177     -2.37081862236120
  C   -0.85939893316635      2.85693006078299     -2.02173175375844
  C   -0.67402236823623      0.80773740152016     -0.12260993289154
  C   -0.74454484162334     -0.18408192254826      0.82785293621379
  H   -1.97962228965874     -2.74472562108446     -1.16008089939245
  H   -1.87931226241208     -0.89877802600509     -2.84454275951228
  H   -1.36109843426827      3.16266470948315     -1.10058947695797
  H   -1.19603106245074      3.45587704880334     -2.86649293943560
  H   0.22324457588110      2.95315337606625     -1.89953515586562
  H   -0.37962495019521      1.79365021549198      0.22309791104496
  H   -0.49776431572451      0.06262239401901      1.86023378164837
  B   -1.45553491942698      2.44897695979340      2.55585220574206
  F   -0.52448149255553      1.48928595063052      3.07115451654307
  F   -0.79510202026347      3.17156689044241      1.50795292802887
  F   -2.52731836019895      1.73765680533014      1.98501456033662
  F   -1.86839735353372      3.30492352650299      3.54735516873451
