22
Coordinates from ORCA-job 4-MeOPhN2+~BF4-_B3LYPG-6-31G_dp-NX-Scan-d89-09-n800
  C   -1.46280522152578     -1.89386074647722      0.29607427484430
  N   -1.67649654730077     -3.00353800365095      1.02226850742565
  N   -1.85023819452241     -3.92658397036538      1.64423418599830
  C   -1.66597158536572     -1.93856101879431     -1.11429314351637
  C   -1.47055201797009     -0.78908300387501     -1.82877245354479
  C   -1.08891659879454      0.42038737434379     -1.16964478909862
  O   -0.96991907917927      1.47125807595287     -1.94640017253390
  C   -0.72100402767241      2.78806641270168     -1.35632932143087
  C   -0.86196937985346      0.43923883145546      0.23326588423742
  C   -1.05263891870127     -0.70451481032237      0.96221244118621
  H   -1.97369379189302     -2.86131798461933     -1.59316961213085
  H   -1.62051208117041     -0.76257423778527     -2.90210177257871
  H   -1.50101525528125      3.02030985569895     -0.63150403262084
  H   -0.72749209109450      3.46938528335977     -2.20437851888916
  H   0.25019757851548      2.80029936810974     -0.85997494524390
  H   -0.55783235199224      1.33342619765456      0.77476547591568
  H   -0.90195222170514     -0.69040213014593      2.03644237947093
  B   -1.23802285965725      3.40129299784498      1.98013662085744
  F   -0.68726701397031      4.36547910093303      1.12406345259650
  F   -2.30461211214106      2.74826437781180      1.28846269147534
  F   -0.24053271470438      2.39637254687334      2.22325753296780
  F   -1.68055351402015      3.93635548329568      3.16788531461247
