22
Coordinates from ORCA-job 4-MeOPhN2+~BF4-_B3LYPG-6-31G_dp-NX-Scan-d89-09-n800
  C   -1.47957754038460     -1.90711906160182      0.29180544819297
  N   -1.72382655232990     -3.01204532926888      1.01369545123567
  N   -1.92552336328512     -3.92423738737014      1.64306618065115
  C   -1.68672777291899     -1.93325768313316     -1.11785441656502
  C   -1.46829758444498     -0.77961041689826     -1.81873971901500
  C   -1.06392982759947      0.41478041453185     -1.14573749784290
  O   -0.93344945842476      1.47218282113400     -1.91130064002951
  C   -0.69273658729694      2.78552259477899     -1.31045119938754
  C   -0.82787352457300      0.41366717693740      0.25684395994467
  C   -1.03916984148281     -0.73561453860217      0.97021708057488
  H   -2.01650454930260     -2.84333141255905     -1.60617260344246
  H   -1.62146861345432     -0.73628564412518     -2.89104974495095
  H   -1.51186578706818      3.03418853655788     -0.63739203694430
  H   -0.63566401003757      3.46445812955403     -2.15818259038220
  H   0.24298089788664      2.78157196213169     -0.75033643715652
  H   -0.50585470443299      1.30503811496998      0.79608623001278
  H   -0.88520444225979     -0.74790549694318      2.04390717212175
  B   -1.25785639104567      3.42398101192878      1.92068213316132
  F   -1.01275460349630      4.49559779527671      1.05602627548312
  F   -2.28483219452375      2.61441257669858      1.34911092975393
  F   -0.07227629929298      2.60676562148438      1.96141908716366
  F   -1.60138725023187      3.82694021451748      3.19085693742054
