22
Coordinates from ORCA-job 4-MeOPhN2+~BF4-_B3LYPG-6-31G_dp-NX-Scan-d89-09-n800
  C   -1.36732644588661     -1.67457108505930      0.37076584748565
  N   -1.57856418052837     -2.71736051348698      1.19463371828500
  N   -1.74851647033792     -3.58092521632803      1.89592193320084
  C   -1.64190432439702     -1.82999568703482     -1.02015275652266
  C   -1.47943064353829     -0.74103238465687     -1.83273130650757
  C   -1.05457456821763      0.50663885097989     -1.28408121675541
  O   -1.02000717976036      1.52179738379344     -2.12473849343000
  C   -0.77579037360055      2.86289804134103     -1.60286572313677
  C   -0.71876175369239      0.61833730024015      0.08519381125388
  C   -0.90530097790329     -0.45059630035808      0.92455137167083
  H   -1.98540797444771     -2.78253476583741     -1.40757808874527
  H   -1.69973175071171     -0.79227890385809     -2.89280645634446
  H   -1.44699775262937      3.06451141476156     -0.76485964274228
  H   -0.96514236728023      3.52120547572577     -2.44892911274580
  H   0.26092150457172      2.95127338596032     -1.27209250625415
  H   -0.36111707918739      1.55278068346721      0.50976470487319
  H   -0.74687909550297     -0.31162441285373      1.98864599948944
  B   -1.36933444858601      2.88265866783749      2.19307979073056
  F   -0.13739149852200      3.12455091419535      1.50279060474272
  F   -2.37492557734996      2.76563565732917      1.19820362403670
  F   -1.24360856941307      1.63267307212866      2.85592681411884
  F   -1.64400847307883      3.89565842171323      3.07785708329675
