22
Coordinates from ORCA-job 4-MeOPhN2+~BF4-_B3LYPG-6-31G_dp-NX-Scan-d89-09-n800
  C   -1.26974262555605     -1.48668791890105      0.45257238670085
  N   -1.44930204672446     -2.45528651853389      1.37129777644260
  N   -1.59572373954775     -3.25639738461939      2.14646858439121
  C   -1.69935280358560     -1.71906837982630     -0.88723703296503
  C   -1.58250979380979     -0.69297019673703     -1.78472045064373
  C   -1.05914699972444      0.56815002787664     -1.36786988012422
  O   -1.08835368169508      1.52809957861113     -2.27793814175361
  C   -0.73533735322037      2.88052179005192     -1.88259999621139
  C   -0.57060329423152      0.74777955192081     -0.05901151894784
  C   -0.70354675197761     -0.25632322231073      0.86969196702456
  H   -2.12079353050660     -2.67701877734118     -1.16987681243142
  H   -1.91806827712372     -0.80053212255181     -2.80955743053150
  H   -1.25484807951572      3.15435980566275     -0.96056769438900
  H   -1.04821177507416      3.50524523139722     -2.71787002735340
  H   0.34775095686868      2.95348559631326     -1.74725006226457
  H   -0.18982480511946      1.69218071686507      0.30318932310911
  H   -0.43148239359208     -0.05925119116508      1.89846303416365
  B   -1.54210647243763      2.49877643233163      2.37815810384599
  F   -0.13749984577108      2.23712250027805      2.30527351011594
  F   -1.94811793418043      2.99421220323936      1.10636385266205
  F   -2.18727419088611      1.25850798119130      2.60555782374512
  F   -1.81970456258894      3.40479429624727      3.37396268541465
