20
Coordinates from ORCA-job 4-NO2PhN2+~BF4-_B3LYPG-6-31G_dp-NX-Scan-d89-09-n800
  C   -2.06319203129410      1.14146287071497      0.00093941678485
  N   -3.38135947173590      1.18571912684371     -0.55386774847607
  N   -3.64846091199139      0.29872177209369     -1.44957101086408
  C   -1.96837477381335      1.12951883486182      1.40124838900173
  C   -0.72368280869578      1.14682025684827      2.01832025172129
  C   0.41961444304016      1.19648295212958      1.22177173195224
  N   1.74182337583978      1.21903834085327      1.87025263885099
  O   1.77081086624539      1.19141162683044      3.09895126915548
  O   2.73047491015611      1.26139133115480      1.14003160033111
  C   0.35244244410318      1.23713037089034     -0.16853515331980
  C   -0.89655756005028      1.20689313676373     -0.78124395448949
  H   -2.88044921858466      1.10842867292256      1.98772194015533
  H   -0.62161159787331      1.13039566265723      3.09648415987783
  H   1.26741828325470      1.29416998115971     -0.74463914269900
  H   -0.95774283037905      1.27374452127983     -1.86407495499448
  B   -5.33444921210774      0.33952727552501     -2.21180422140898
  F   -3.07294731047080     -0.33556807118726     -1.72608590860274
  F   -5.30900993835292      1.47554937348433     -2.94087647136535
  F   -5.15830997679101     -0.82532864941345     -2.90925405962097
  F   -6.17293668049923      0.29059061358747     -1.15986877198985
