20
Coordinates from ORCA-job 4-NO2PhN2+~BF4-_B3LYPG-6-31G_dp-NX-Scan-d89-09-n800
  C   -2.14046171604456      0.16597328780489      0.37732397555855
  N   -3.30722501317813     -0.56872628010135      0.15654933807699
  N   -4.18154925243925     -1.25158332473006      0.14768790177520
  C   -1.75207126543939      0.29864303220762      1.72051407234226
  C   -0.58036818208206      0.99313671181190      1.98478202049598
  C   0.14304627769007      1.51151648876699      0.91076280755999
  N   1.39803164097672      2.24874049860152      1.20484582897021
  O   1.71788095329184      2.35347603222130      2.38497334913280
  O   2.02057024929476      2.69377612983584      0.24808998803230
  C   -0.25203867146464      1.37136037001628     -0.41789355566263
  C   -1.42638043386473      0.68656172822204     -0.70910437600771
  H   -2.35219750425837     -0.12010584335540      2.51974527707482
  H   -0.22154256710327      1.13844136428053      2.99555140277165
  H   0.35095331007050      1.80432486480479     -1.20583086282898
  H   -1.81219150168900      0.53713171121703     -1.71216672182245
  B   -4.33866340059462      0.84510900010061     -2.29476911631240
  F   -5.63897268555395      0.43207248892683     -2.46532796507199
  F   -3.46413268761331     -0.31619806196183     -2.32761259302116
  F   -3.89809899156655      1.75918625888145     -3.22424197247103
  F   -4.17108855843220      1.38326354244914     -0.96797879859240
