20
Coordinates from ORCA-job 4-NO2PhN2+~BF4-_B3LYPG-6-31G_dp-NX-Scan-d89-09-n800
  C   -2.02875136379431     -0.24413634555487      0.10807160818102
  N   -3.05397159991442     -1.14622842123281     -0.14844163504945
  N   -3.79672288236875     -1.96217121200055     -0.26897104727850
  C   -2.08756893842470      0.48198684865152      1.30332053577422
  C   -1.05228431083401      1.36854339635875      1.55878309672775
  C   -0.03954376556454      1.50603978506102      0.61114858494025
  N   1.06294524008574      2.45780021720199      0.89436172272014
  O   1.01897574909478      3.06103205686371      1.96138037427908
  O   1.94140409484792      2.56269027870740      0.04499913667388
  C   -0.01473742411043      0.80837270422252     -0.59488244045014
  C   -1.04018507587625     -0.08378111385277     -0.86972764086151
  H   -2.93447444705473      0.37765642650909      1.96801954938013
  H   -1.02923801603736      1.96614791877047      2.46075119417862
  H   0.78327174128084      0.98962748971382     -1.30303234086625
  H   -1.11285893103723     -0.60521588836701     -1.81454892847794
  B   -4.12560404332114      1.32619786817573     -1.33782622261932
  F   -5.14447232205113      1.94617497522752     -2.00648878358264
  F   -3.61403555857909      0.21298657496402     -2.09463833093491
  F   -3.05109508311382      2.17754235520226     -1.04968551604036
  F   -4.58755306322747      0.76483408537827     -0.09669291669408
