Coordinates from ORCA-job 4-NO2PhN2+~CF3COO-_B3LYPG-6-31G_dp-NX-Scan-d89-09-n800
 OpenBabel11261920383D

 22 21  0  0  0  0  0  0  0  0999 V2000
   -1.8746   -0.0353    0.2857 C   0  0  0  0  0  0  0  0  0  0  0  0
   -2.7197   -0.9798    0.7801 N   0  0  0  0  0  0  0  0  0  0  0  0
   -3.3437   -1.8198    1.1962 N   0  0  0  0  0  0  0  0  0  0  0  0
   -2.2779    0.7615   -0.8114 C   0  0  0  0  0  0  0  0  0  0  0  0
   -1.3091    1.5878   -1.3849 C   0  0  0  0  0  0  0  0  0  0  0  0
   -0.0469    1.6442   -0.8187 C   0  0  0  0  0  0  0  0  0  0  0  0
    0.9632    2.5257   -1.4331 N   0  0  0  0  0  0  0  0  0  0  0  0
    0.6496    3.1098   -2.4638 O   0  0  0  0  0  0  0  0  0  0  0  0
    2.0556    2.5953   -0.8717 O   0  0  0  0  0  0  0  0  0  0  0  0
    0.3245    0.9105    0.3262 C   0  0  0  0  0  0  0  0  0  0  0  0
   -0.5841    0.0528    0.8914 C   0  0  0  0  0  0  0  0  0  0  0  0
   -3.2745    0.7098   -1.2257 H   0  0  0  0  0  0  0  0  0  0  0  0
   -1.5659    2.2100   -2.2298 H   0  0  0  0  0  0  0  0  0  0  0  0
    1.3192    1.0352    0.7339 H   0  0  0  0  0  0  0  0  0  0  0  0
   -0.3452   -0.5454    1.7626 H   0  0  0  0  0  0  0  0  0  0  0  0
   -3.8396    5.2408   -1.0243 O   0  0  0  0  0  0  0  0  0  0  0  0
   -3.3915    4.1620   -0.6332 C   0  0  0  0  0  0  0  0  0  0  0  0
   -3.5923    2.9972   -1.1119 O   0  0  0  0  0  0  0  0  0  0  0  0
   -2.4030    4.2003    0.5726 C   0  0  0  0  0  0  0  0  0  0  0  0
   -2.4658    3.0762    1.3404 F   0  0  0  0  0  0  0  0  0  0  0  0
   -1.1174    4.2728    0.1171 F   0  0  0  0  0  0  0  0  0  0  0  0
   -2.6005    5.2476    1.3805 F   0  0  0  0  0  0  0  0  0  0  0  0
  1  2  1  0  0  0  0
  1 11  1  0  0  0  0
  2  3  1  0  0  0  0
  4  1  2  0  0  0  0
  5  6  2  0  0  0  0
  5  4  1  0  0  0  0
  6 10  1  0  0  0  0
  7  9  2  0  0  0  0
  7  6  1  0  0  0  0
  8  7  2  0  0  0  0
 10 14  1  0  0  0  0
 10 11  2  0  0  0  0
 11 15  1  0  0  0  0
 12  4  1  0  0  0  0
 13  5  1  0  0  0  0
 16 17  1  0  0  0  0
 17 19  1  0  0  0  0
 18 17  2  0  0  0  0
 19 20  1  0  0  0  0
 19 22  1  0  0  0  0
 21 19  1  0  0  0  0
M  RAD  3   2   2   3   3  16   2
M  END
