Coordinates from ORCA-job 4-NO2PhN2+~CF3COO-_B3LYPG-6-31G_dp-NX-Scan-d89-09-n800
 OpenBabel11261920383D

 22 22  0  0  0  0  0  0  0  0999 V2000
   -1.0178    1.0137    0.4835 C   0  0  0  0  0  0  0  0  0  0  0  0
   -1.7059    0.7845    1.7144 N   0  0  0  0  0  0  0  0  0  0  0  0
   -2.6693    1.4880    2.1129 N   0  0  0  0  0  0  0  0  0  0  0  0
   -0.7441    2.2543   -0.1280 C   0  0  0  0  0  0  0  0  0  0  0  0
    0.0408    2.3031   -1.2753 C   0  0  0  0  0  0  0  0  0  0  0  0
    0.5313    1.1173   -1.8176 C   0  0  0  0  0  0  0  0  0  0  0  0
    1.3457    1.1770   -3.0423 N   0  0  0  0  0  0  0  0  0  0  0  0
    1.5497    2.2847   -3.5371 O   0  0  0  0  0  0  0  0  0  0  0  0
    1.7702    0.1149   -3.4945 O   0  0  0  0  0  0  0  0  0  0  0  0
    0.2815   -0.1220   -1.2309 C   0  0  0  0  0  0  0  0  0  0  0  0
   -0.4766   -0.1615   -0.0686 C   0  0  0  0  0  0  0  0  0  0  0  0
   -1.1302    3.1778    0.2800 H   0  0  0  0  0  0  0  0  0  0  0  0
    0.2707    3.2432   -1.7607 H   0  0  0  0  0  0  0  0  0  0  0  0
    0.6921   -1.0184   -1.6773 H   0  0  0  0  0  0  0  0  0  0  0  0
   -0.6683   -1.1003    0.4393 H   0  0  0  0  0  0  0  0  0  0  0  0
   -3.0307    2.3709    1.4009 O   0  0  0  0  0  0  0  0  0  0  0  0
   -4.1125    3.1489    1.8613 C   0  0  0  0  0  0  0  0  0  0  0  0
   -4.7023    2.9909    2.8777 O   0  0  0  0  0  0  0  0  0  0  0  0
   -4.3665    4.2339    0.7974 C   0  0  0  0  0  0  0  0  0  0  0  0
   -4.7371    3.6653   -0.3583 F   0  0  0  0  0  0  0  0  0  0  0  0
   -5.3230    5.0570    1.2139 F   0  0  0  0  0  0  0  0  0  0  0  0
   -3.2372    4.9359    0.5876 F   0  0  0  0  0  0  0  0  0  0  0  0
  1  2  1  0  0  0  0
  2  3  2  0  0  0  0
  4 12  1  0  0  0  0
  4  1  2  0  0  0  0
  5  4  1  0  0  0  0
  6  5  2  0  0  0  0
  6 10  1  0  0  0  0
  7  6  1  0  0  0  0
  8  7  2  0  0  0  0
  9  7  2  0  0  0  0
 10 11  2  0  0  0  0
 11 15  1  0  0  0  0
 11  1  1  0  0  0  0
 13  5  1  0  0  0  0
 14 10  1  0  0  0  0
 16 17  1  0  0  0  0
 16  3  1  0  0  0  0
 17 18  2  0  0  0  0
 19 21  1  0  0  0  0
 19 17  1  0  0  0  0
 20 19  1  0  0  0  0
 22 19  1  0  0  0  0
M  END
