Coordinates from ORCA-job 4-NO2PhN2+~CF3COO-_B3LYPG-6-31G_dp-NX-Scan-d89-09-n800
 OpenBabel11261920383D

 22 22  0  0  1  0  0  0  0  0999 V2000
   -1.8757    0.4564   -0.0807 C   0  0  0  0  0  0  0  0  0  0  0  0
   -3.0089   -0.1433    0.2285 N   0  0  0  0  0  0  0  0  0  0  0  0
   -3.9850   -0.6635    0.4958 N   0  0  0  0  0  0  0  0  0  0  0  0
   -1.9492    1.7648   -0.8067 C   0  0  2  0  0  0  0  0  0  0  0  0
   -0.6506    2.0791   -1.4717 C   0  0  0  0  0  0  0  0  0  0  0  0
    0.4802    1.4481   -1.0951 C   0  0  0  0  0  0  0  0  0  0  0  0
    1.7520    1.8623   -1.7371 N   0  0  0  0  0  0  0  0  0  0  0  0
    1.7045    2.7269   -2.6074 O   0  0  0  0  0  0  0  0  0  0  0  0
    2.7778    1.3092   -1.3465 O   0  0  0  0  0  0  0  0  0  0  0  0
    0.5401    0.3708   -0.1399 C   0  0  0  0  0  0  0  0  0  0  0  0
   -0.6280   -0.1271    0.3368 C   0  0  0  0  0  0  0  0  0  0  0  0
   -2.7962    1.8061   -1.4931 H   0  0  0  0  0  0  0  0  0  0  0  0
   -0.6210    2.8583   -2.2226 H   0  0  0  0  0  0  0  0  0  0  0  0
    1.5010   -0.0368    0.1383 H   0  0  0  0  0  0  0  0  0  0  0  0
   -0.6461   -0.9747    1.0140 H   0  0  0  0  0  0  0  0  0  0  0  0
   -4.4189    2.8917   -0.2744 O   0  0  0  0  0  0  0  0  0  0  0  0
   -3.4402    3.3249    0.2837 C   0  0  0  0  0  0  0  0  0  0  0  0
   -2.1833    2.8906    0.1696 O   0  0  0  0  0  0  0  0  0  0  0  0
   -3.4906    4.5130    1.2729 C   0  0  0  0  0  0  0  0  0  0  0  0
   -2.7051    5.5135    0.8403 F   0  0  0  0  0  0  0  0  0  0  0  0
   -4.7403    4.9652    1.3892 F   0  0  0  0  0  0  0  0  0  0  0  0
   -3.0560    4.1237    2.4843 F   0  0  0  0  0  0  0  0  0  0  0  0
  1  2  1  0  0  0  0
  1 11  2  0  0  0  0
  2  3  1  0  0  0  0
  4 12  1  6  0  0  0
  4  1  1  0  0  0  0
  4 18  1  0  0  0  0
  5  6  2  0  0  0  0
  5  4  1  0  0  0  0
  6 10  1  0  0  0  0
  7  9  2  0  0  0  0
  7  6  1  0  0  0  0
  8  7  2  0  0  0  0
 10 14  1  0  0  0  0
 10 11  1  0  0  0  0
 11 15  1  0  0  0  0
 13  5  1  0  0  0  0
 16 17  2  0  0  0  0
 17 19  1  0  0  0  0
 18 17  1  0  0  0  0
 19 21  1  0  0  0  0
 19 22  1  0  0  0  0
 20 19  1  0  0  0  0
M  RAD  3   2   2   3   3  10   2
M  END
