Coordinates from ORCA-job 4-NO2PhN2+~CF3COO-_B3LYPG-6-31G_dp-NX-Scan-d89-09-n800
 OpenBabel11261920383D

 22 22  0  0  1  0  0  0  0  0999 V2000
   -1.8232    0.4809   -0.1257 C   0  0  0  0  0  0  0  0  0  0  0  0
   -3.0308    0.0798    0.2820 N   0  0  0  0  0  0  0  0  0  0  0  0
   -4.1340    0.2529    0.5323 N   0  0  0  0  0  0  0  0  0  0  0  0
   -1.8275    1.8000   -0.7972 C   0  0  2  0  0  0  0  0  0  0  0  0
   -0.5168    2.1317   -1.3817 C   0  0  0  0  0  0  0  0  0  0  0  0
    0.5737    1.3804   -1.0901 C   0  0  0  0  0  0  0  0  0  0  0  0
    1.8734    1.8004   -1.6747 N   0  0  0  0  0  0  0  0  0  0  0  0
    1.8851    2.7885   -2.4033 O   0  0  0  0  0  0  0  0  0  0  0  0
    2.8593    1.1272   -1.3836 O   0  0  0  0  0  0  0  0  0  0  0  0
    0.5627    0.1859   -0.2998 C   0  0  0  0  0  0  0  0  0  0  0  0
   -0.6417   -0.2627    0.1538 C   0  0  0  0  0  0  0  0  0  0  0  0
   -2.6645    1.9321   -1.4858 H   0  0  0  0  0  0  0  0  0  0  0  0
   -0.4278    2.9961   -2.0267 H   0  0  0  0  0  0  0  0  0  0  0  0
    1.4895   -0.3341   -0.1075 H   0  0  0  0  0  0  0  0  0  0  0  0
   -0.7223   -1.1759    0.7339 H   0  0  0  0  0  0  0  0  0  0  0  0
   -4.3266    2.3129    0.4309 O   0  0  0  0  0  0  0  0  0  0  0  0
   -3.4191    3.1217    0.5710 C   0  0  0  0  0  0  0  0  0  0  0  0
   -2.1560    2.9840    0.2443 O   0  0  0  0  0  0  0  0  0  0  0  0
   -3.6908    4.5213    1.1726 C   0  0  0  0  0  0  0  0  0  0  0  0
   -3.5585    5.4533    0.2110 F   0  0  0  0  0  0  0  0  0  0  0  0
   -4.9277    4.5891    1.6692 F   0  0  0  0  0  0  0  0  0  0  0  0
   -2.8160    4.7937    2.1533 F   0  0  0  0  0  0  0  0  0  0  0  0
  1 11  2  0  0  0  0
  1  2  1  0  0  0  0
  2  3  2  0  0  0  0
  4 12  1  6  0  0  0
  4  1  1  0  0  0  0
  4 18  1  0  0  0  0
  5  6  2  0  0  0  0
  5  4  1  0  0  0  0
  6 10  1  0  0  0  0
  7  9  2  0  0  0  0
  7  6  1  0  0  0  0
  8  7  2  0  0  0  0
 10 14  1  0  0  0  0
 10 11  1  0  0  0  0
 11 15  1  0  0  0  0
 13  5  1  0  0  0  0
 16 17  2  0  0  0  0
 17 19  1  0  0  0  0
 18 17  1  0  0  0  0
 19 21  1  0  0  0  0
 19 22  1  0  0  0  0
 20 19  1  0  0  0  0
M  RAD  2   3   2  10   2
M  END
