Coordinates from ORCA-job 4-NO2PhN2+~CF3COO-_B3LYPG-6-31G_dp-NX-Scan-d89-09-n800
 OpenBabel11261920383D

 22 22  0  0  1  0  0  0  0  0999 V2000
   -1.8324    0.3259    0.0199 C   0  0  0  0  0  0  0  0  0  0  0  0
   -2.9198   -0.3083    0.4085 N   0  0  0  0  0  0  0  0  0  0  0  0
   -3.8714   -0.8416    0.7350 N   0  0  0  0  0  0  0  0  0  0  0  0
   -2.0210    1.6289   -0.6914 C   0  0  2  0  0  0  0  0  0  0  0  0
   -0.7761    2.0339   -1.4090 C   0  0  0  0  0  0  0  0  0  0  0  0
    0.4068    1.4642   -1.1009 C   0  0  0  0  0  0  0  0  0  0  0  0
    1.6201    1.9678   -1.7908 N   0  0  0  0  0  0  0  0  0  0  0  0
    1.4824    2.8595   -2.6234 O   0  0  0  0  0  0  0  0  0  0  0  0
    2.6933    1.4635   -1.4673 O   0  0  0  0  0  0  0  0  0  0  0  0
    0.5759    0.3725   -0.1747 C   0  0  0  0  0  0  0  0  0  0  0  0
   -0.5349   -0.1958    0.3570 C   0  0  0  0  0  0  0  0  0  0  0  0
   -2.8922    1.6351   -1.3485 H   0  0  0  0  0  0  0  0  0  0  0  0
   -0.8314    2.8274   -2.1439 H   0  0  0  0  0  0  0  0  0  0  0  0
    1.5713    0.0130    0.0424 H   0  0  0  0  0  0  0  0  0  0  0  0
   -0.4695   -1.0519    1.0201 H   0  0  0  0  0  0  0  0  0  0  0  0
   -4.0035    3.5526   -0.9126 O   0  0  0  0  0  0  0  0  0  0  0  0
   -3.3069    3.5314    0.0722 C   0  0  0  0  0  0  0  0  0  0  0  0
   -2.3094    2.6855    0.3448 O   0  0  0  0  0  0  0  0  0  0  0  0
   -3.4711    4.5278    1.2440 C   0  0  0  0  0  0  0  0  0  0  0  0
   -2.3367    5.2245    1.4242 F   0  0  0  0  0  0  0  0  0  0  0  0
   -4.4657    5.3797    0.9919 F   0  0  0  0  0  0  0  0  0  0  0  0
   -3.7471    3.8634    2.3810 F   0  0  0  0  0  0  0  0  0  0  0  0
  1 11  2  0  0  0  0
  1  2  1  0  0  0  0
  2  3  1  0  0  0  0
  4 12  1  6  0  0  0
  4  1  1  0  0  0  0
  4 18  1  0  0  0  0
  5  6  2  0  0  0  0
  5  4  1  0  0  0  0
  6 10  1  0  0  0  0
  7  9  2  0  0  0  0
  7  6  1  0  0  0  0
  8  7  2  0  0  0  0
 10 14  1  0  0  0  0
 10 11  1  0  0  0  0
 11 15  1  0  0  0  0
 13  5  1  0  0  0  0
 16 17  2  0  0  0  0
 17 18  1  0  0  0  0
 17 19  1  0  0  0  0
 19 20  1  0  0  0  0
 19 22  1  0  0  0  0
 21 19  1  0  0  0  0
M  RAD  3   2   2   3   3  10   2
M  END
