Coordinates from ORCA-job 4-NO2PhN2+~CF3COO-_B3LYPG-6-31G_dp-NX-Scan-d89-09-n800
 OpenBabel11261920383D

 22 21  0  0  0  0  0  0  0  0999 V2000
   -1.7057   -0.6507    0.2758 C   0  0  0  0  0  0  0  0  0  0  0  0
   -2.4466   -1.7409    0.6242 N   0  0  0  0  0  0  0  0  0  0  0  0
   -3.0299   -2.6551    0.9290 N   0  0  0  0  0  0  0  0  0  0  0  0
   -2.3246    0.4211   -0.4119 C   0  0  0  0  0  0  0  0  0  0  0  0
   -1.5304    1.4884   -0.8066 C   0  0  0  0  0  0  0  0  0  0  0  0
   -0.1772    1.4708   -0.4676 C   0  0  0  0  0  0  0  0  0  0  0  0
    0.6834    2.5818   -0.9228 N   0  0  0  0  0  0  0  0  0  0  0  0
    0.2024    3.3677   -1.7270 O   0  0  0  0  0  0  0  0  0  0  0  0
    1.8260    2.6194   -0.4648 O   0  0  0  0  0  0  0  0  0  0  0  0
    0.4239    0.4408    0.2693 C   0  0  0  0  0  0  0  0  0  0  0  0
   -0.3321   -0.6528    0.6380 C   0  0  0  0  0  0  0  0  0  0  0  0
   -3.3897    0.4302   -0.6157 H   0  0  0  0  0  0  0  0  0  0  0  0
   -2.0165    2.3432   -1.2908 H   0  0  0  0  0  0  0  0  0  0  0  0
    1.4743    0.5134    0.5217 H   0  0  0  0  0  0  0  0  0  0  0  0
    0.0946   -1.4875    1.1817 H   0  0  0  0  0  0  0  0  0  0  0  0
   -4.1345    5.5889   -1.3704 O   0  0  0  0  0  0  0  0  0  0  0  0
   -3.4376    4.6667   -0.9281 C   0  0  0  0  0  0  0  0  0  0  0  0
   -3.5277    3.4304   -1.1898 O   0  0  0  0  0  0  0  0  0  0  0  0
   -2.3006    5.0953    0.0485 C   0  0  0  0  0  0  0  0  0  0  0  0
   -1.7262    4.0317    0.6849 F   0  0  0  0  0  0  0  0  0  0  0  0
   -1.3106    5.7339   -0.6082 F   0  0  0  0  0  0  0  0  0  0  0  0
   -2.7544    5.9224    1.0088 F   0  0  0  0  0  0  0  0  0  0  0  0
  1  2  1  0  0  0  0
  1 11  1  0  0  0  0
  2  3  1  0  0  0  0
  4  1  2  0  0  0  0
  5  6  2  0  0  0  0
  5  4  1  0  0  0  0
  6 10  1  0  0  0  0
  7  6  1  0  0  0  0
  7  9  2  0  0  0  0
  8  7  2  0  0  0  0
 10 14  1  0  0  0  0
 10 11  2  0  0  0  0
 11 15  1  0  0  0  0
 12  4  1  0  0  0  0
 13  5  1  0  0  0  0
 16 17  2  0  0  0  0
 17 19  1  0  0  0  0
 18 17  1  0  0  0  0
 19 20  1  0  0  0  0
 19 22  1  0  0  0  0
 21 19  1  0  0  0  0
M  RAD  3   2   2   3   3  18   2
M  END
