Coordinates from ORCA-job 4-NO2PhN2+~CF3COO-_B3LYPG-6-31G_dp-NX-Scan-d89-09-n800
 OpenBabel11261920383D

 22 22  0  0  1  0  0  0  0  0999 V2000
   -1.8321    0.3198    0.0234 C   0  0  0  0  0  0  0  0  0  0  0  0
   -2.9162   -0.3188    0.4138 N   0  0  0  0  0  0  0  0  0  0  0  0
   -3.8642   -0.8572    0.7425 N   0  0  0  0  0  0  0  0  0  0  0  0
   -2.0259    1.6227   -0.6862 C   0  0  2  0  0  0  0  0  0  0  0  0
   -0.7832    2.0327   -1.4052 C   0  0  0  0  0  0  0  0  0  0  0  0
    0.4019    1.4665   -1.0996 C   0  0  0  0  0  0  0  0  0  0  0  0
    1.6127    1.9752   -1.7903 N   0  0  0  0  0  0  0  0  0  0  0  0
    1.4704    2.8642   -2.6249 O   0  0  0  0  0  0  0  0  0  0  0  0
    2.6873    1.4696   -1.4736 O   0  0  0  0  0  0  0  0  0  0  0  0
    0.5760    0.3740   -0.1753 C   0  0  0  0  0  0  0  0  0  0  0  0
   -0.5322   -0.1983    0.3575 C   0  0  0  0  0  0  0  0  0  0  0  0
   -2.8975    1.6270   -1.3429 H   0  0  0  0  0  0  0  0  0  0  0  0
   -0.8425    2.8271   -2.1388 H   0  0  0  0  0  0  0  0  0  0  0  0
    1.5728    0.0173    0.0398 H   0  0  0  0  0  0  0  0  0  0  0  0
   -0.4631   -1.0551    1.0194 H   0  0  0  0  0  0  0  0  0  0  0  0
   -3.9692    3.5801   -0.9344 O   0  0  0  0  0  0  0  0  0  0  0  0
   -3.2959    3.5392    0.0658 C   0  0  0  0  0  0  0  0  0  0  0  0
   -2.3176    2.6759    0.3524 O   0  0  0  0  0  0  0  0  0  0  0  0
   -3.4691    4.5297    1.2414 C   0  0  0  0  0  0  0  0  0  0  0  0
   -2.3294    5.2104    1.4473 F   0  0  0  0  0  0  0  0  0  0  0  0
   -4.4479    5.3960    0.9771 F   0  0  0  0  0  0  0  0  0  0  0  0
   -3.7744    3.8613    2.3686 F   0  0  0  0  0  0  0  0  0  0  0  0
  1 11  2  0  0  0  0
  1  2  1  0  0  0  0
  2  3  1  0  0  0  0
  4 12  1  6  0  0  0
  4  1  1  0  0  0  0
  4 18  1  0  0  0  0
  5  6  2  0  0  0  0
  5  4  1  0  0  0  0
  6 10  1  0  0  0  0
  7  9  2  0  0  0  0
  7  6  1  0  0  0  0
  8  7  2  0  0  0  0
 10 14  1  0  0  0  0
 10 11  1  0  0  0  0
 11 15  1  0  0  0  0
 13  5  1  0  0  0  0
 16 17  2  0  0  0  0
 17 18  1  0  0  0  0
 17 19  1  0  0  0  0
 19 20  1  0  0  0  0
 19 22  1  0  0  0  0
 21 19  1  0  0  0  0
M  RAD  3   2   2   3   3  10   2
M  END
