Coordinates from ORCA-job 4-NO2PhN2+~CF3COO-_B3LYPG-6-31G_dp-NX-Scan-d89-09-n800
 OpenBabel11261920383D

 22 21  0  0  0  0  0  0  0  0999 V2000
   -1.7175   -0.6124    0.2734 C   0  0  0  0  0  0  0  0  0  0  0  0
   -2.4778   -1.6873    0.6282 N   0  0  0  0  0  0  0  0  0  0  0  0
   -3.0703   -2.5940    0.9373 N   0  0  0  0  0  0  0  0  0  0  0  0
   -2.3113    0.4610   -0.4332 C   0  0  0  0  0  0  0  0  0  0  0  0
   -1.4922    1.5074   -0.8343 C   0  0  0  0  0  0  0  0  0  0  0  0
   -0.1431    1.4715   -0.4834 C   0  0  0  0  0  0  0  0  0  0  0  0
    0.7381    2.5656   -0.9389 N   0  0  0  0  0  0  0  0  0  0  0  0
    0.2644    3.3749   -1.7245 O   0  0  0  0  0  0  0  0  0  0  0  0
    1.8885    2.5691   -0.4991 O   0  0  0  0  0  0  0  0  0  0  0  0
    0.4332    0.4387    0.2699 C   0  0  0  0  0  0  0  0  0  0  0  0
   -0.3463   -0.6350    0.6468 C   0  0  0  0  0  0  0  0  0  0  0  0
   -3.3737    0.4917   -0.6477 H   0  0  0  0  0  0  0  0  0  0  0  0
   -1.9591    2.3593   -1.3344 H   0  0  0  0  0  0  0  0  0  0  0  0
    1.4829    0.4944    0.5297 H   0  0  0  0  0  0  0  0  0  0  0  0
    0.0599   -1.4699    1.2055 H   0  0  0  0  0  0  0  0  0  0  0  0
   -4.1924    5.5303   -1.3315 O   0  0  0  0  0  0  0  0  0  0  0  0
   -3.4770    4.6201   -0.8942 C   0  0  0  0  0  0  0  0  0  0  0  0
   -3.5536    3.3804   -1.1479 O   0  0  0  0  0  0  0  0  0  0  0  0
   -2.3287    5.0681    0.0603 C   0  0  0  0  0  0  0  0  0  0  0  0
   -1.7392    4.0167    0.7023 F   0  0  0  0  0  0  0  0  0  0  0  0
   -1.3520    5.7019   -0.6212 F   0  0  0  0  0  0  0  0  0  0  0  0
   -2.7722    5.9068    1.0150 F   0  0  0  0  0  0  0  0  0  0  0  0
  1  2  1  0  0  0  0
  1 11  1  0  0  0  0
  2  3  1  0  0  0  0
  4  1  2  0  0  0  0
  5  6  2  0  0  0  0
  5  4  1  0  0  0  0
  6 10  1  0  0  0  0
  7  9  2  0  0  0  0
  7  6  1  0  0  0  0
  8  7  2  0  0  0  0
 10 14  1  0  0  0  0
 10 11  2  0  0  0  0
 11 15  1  0  0  0  0
 12  4  1  0  0  0  0
 13  5  1  0  0  0  0
 16 17  2  0  0  0  0
 17 19  1  0  0  0  0
 18 17  1  0  0  0  0
 19 20  1  0  0  0  0
 19 22  1  0  0  0  0
 21 19  1  0  0  0  0
M  RAD  3   2   2   3   3  18   2
M  END
