Coordinates from ORCA-job 4-NO2PhN2+~CF3COO-_B3LYPG-6-31G_dp-NX-Scan-d89-09-n800
 OpenBabel11261920383D

 22 22  0  0  0  0  0  0  0  0999 V2000
   -1.1029    0.8496    0.2771 C   0  0  0  0  0  0  0  0  0  0  0  0
   -1.9394    0.6000    1.3907 N   0  0  0  0  0  0  0  0  0  0  0  0
   -2.8310    1.1622    1.9477 N   0  0  0  0  0  0  0  0  0  0  0  0
   -1.0023    2.0665   -0.4261 C   0  0  0  0  0  0  0  0  0  0  0  0
   -0.1024    2.1542   -1.4834 C   0  0  0  0  0  0  0  0  0  0  0  0
    0.6640    1.0418   -1.8255 C   0  0  0  0  0  0  0  0  0  0  0  0
    1.6091    1.1500   -2.9581 N   0  0  0  0  0  0  0  0  0  0  0  0
    1.6701    2.2289   -3.5413 O   0  0  0  0  0  0  0  0  0  0  0  0
    2.2685    0.1521   -3.2378 O   0  0  0  0  0  0  0  0  0  0  0  0
    0.5774   -0.1677   -1.1410 C   0  0  0  0  0  0  0  0  0  0  0  0
   -0.3087   -0.2548   -0.0750 C   0  0  0  0  0  0  0  0  0  0  0  0
   -1.6113    2.9138   -0.1513 H   0  0  0  0  0  0  0  0  0  0  0  0
    0.0092    3.0711   -2.0485 H   0  0  0  0  0  0  0  0  0  0  0  0
    1.1966   -1.0026   -1.4423 H   0  0  0  0  0  0  0  0  0  0  0  0
   -0.4049   -1.1697    0.4986 H   0  0  0  0  0  0  0  0  0  0  0  0
   -3.2201    2.5616    1.2060 O   0  0  0  0  0  0  0  0  0  0  0  0
   -4.0774    3.2946    1.9172 C   0  0  0  0  0  0  0  0  0  0  0  0
   -4.5119    3.1017    3.0212 O   0  0  0  0  0  0  0  0  0  0  0  0
   -4.4889    4.5255    1.0633 C   0  0  0  0  0  0  0  0  0  0  0  0
   -5.3150    4.1421    0.0722 F   0  0  0  0  0  0  0  0  0  0  0  0
   -5.1126    5.4334    1.8140 F   0  0  0  0  0  0  0  0  0  0  0  0
   -3.4056    5.1048    0.5006 F   0  0  0  0  0  0  0  0  0  0  0  0
  1  2  1  0  0  0  0
  2  3  1  0  0  0  0
  4 12  1  0  0  0  0
  4  1  2  0  0  0  0
  5  4  1  0  0  0  0
  6  5  2  0  0  0  0
  6 10  1  0  0  0  0
  7  6  1  0  0  0  0
  8  7  2  0  0  0  0
  9  7  2  0  0  0  0
 10 11  2  0  0  0  0
 11  1  1  0  0  0  0
 11 15  1  0  0  0  0
 13  5  1  0  0  0  0
 14 10  1  0  0  0  0
 16 17  1  0  0  0  0
 16  3  1  0  0  0  0
 17 18  2  0  0  0  0
 19 21  1  0  0  0  0
 19 17  1  0  0  0  0
 20 19  1  0  0  0  0
 22 19  1  0  0  0  0
M  RAD  2   2   2   3   2
M  END
