Coordinates from ORCA-job 4-NO2PhN2+~CF3COO-_B3LYPG-6-31G_dp-NX-Scan-d89-09-n800
 OpenBabel11261920383D

 22 21  0  0  0  0  0  0  0  0999 V2000
   -1.7533   -0.2931    0.2938 C   0  0  0  0  0  0  0  0  0  0  0  0
   -2.5628   -1.2950    0.7448 N   0  0  0  0  0  0  0  0  0  0  0  0
   -3.1551   -2.1731    1.1273 N   0  0  0  0  0  0  0  0  0  0  0  0
   -2.2576    0.6936   -0.5877 C   0  0  0  0  0  0  0  0  0  0  0  0
   -1.3478    1.6087   -1.1082 C   0  0  0  0  0  0  0  0  0  0  0  0
   -0.0198    1.5527   -0.6985 C   0  0  0  0  0  0  0  0  0  0  0  0
    0.9395    2.5192   -1.2670 N   0  0  0  0  0  0  0  0  0  0  0  0
    0.5387    3.2438   -2.1686 O   0  0  0  0  0  0  0  0  0  0  0  0
    2.0780    2.5105   -0.7988 O   0  0  0  0  0  0  0  0  0  0  0  0
    0.4626    0.6169    0.2311 C   0  0  0  0  0  0  0  0  0  0  0  0
   -0.3980   -0.3329    0.7319 C   0  0  0  0  0  0  0  0  0  0  0  0
   -3.3038    0.7645   -0.8601 H   0  0  0  0  0  0  0  0  0  0  0  0
   -1.7129    2.3809   -1.7726 H   0  0  0  0  0  0  0  0  0  0  0  0
    1.5026    0.6538    0.5295 H   0  0  0  0  0  0  0  0  0  0  0  0
   -0.0695   -1.0900    1.4342 H   0  0  0  0  0  0  0  0  0  0  0  0
   -3.9613    5.4360   -1.3374 O   0  0  0  0  0  0  0  0  0  0  0  0
   -3.4797    4.4227   -0.8223 C   0  0  0  0  0  0  0  0  0  0  0  0
   -3.6026    3.2104   -1.1886 O   0  0  0  0  0  0  0  0  0  0  0  0
   -2.5685    4.6061    0.4284 C   0  0  0  0  0  0  0  0  0  0  0  0
   -2.8993    3.7441    1.4235 F   0  0  0  0  0  0  0  0  0  0  0  0
   -1.2651    4.3349    0.1102 F   0  0  0  0  0  0  0  0  0  0  0  0
   -2.6037    5.8444    0.9334 F   0  0  0  0  0  0  0  0  0  0  0  0
  1 11  1  0  0  0  0
  1  2  1  0  0  0  0
  2  3  1  0  0  0  0
  4  1  2  0  0  0  0
  5  6  2  0  0  0  0
  5  4  1  0  0  0  0
  6 10  1  0  0  0  0
  7  9  2  0  0  0  0
  7  6  1  0  0  0  0
  8  7  2  0  0  0  0
 10 14  1  0  0  0  0
 10 11  2  0  0  0  0
 11 15  1  0  0  0  0
 12  4  1  0  0  0  0
 13  5  1  0  0  0  0
 16 17  2  0  0  0  0
 17 19  1  0  0  0  0
 18 17  1  0  0  0  0
 19 22  1  0  0  0  0
 19 20  1  0  0  0  0
 21 19  1  0  0  0  0
M  RAD  3   2   2   3   3  18   2
M  END
