Coordinates from ORCA-job 4-NO2PhN2+~CF3COO-_B3LYPG-6-31G_dp-NX-Scan-d89-09-n800
 OpenBabel11261920383D

 22 22  0  0  1  0  0  0  0  0999 V2000
   -1.8556    0.4102   -0.0424 C   0  0  0  0  0  0  0  0  0  0  0  0
   -2.9734   -0.1972    0.3020 N   0  0  0  0  0  0  0  0  0  0  0  0
   -3.9424   -0.7171    0.5970 N   0  0  0  0  0  0  0  0  0  0  0  0
   -1.9703    1.7168   -0.7656 C   0  0  2  0  0  0  0  0  0  0  0  0
   -0.6895    2.0624   -1.4496 C   0  0  0  0  0  0  0  0  0  0  0  0
    0.4603    1.4511   -1.0989 C   0  0  0  0  0  0  0  0  0  0  0  0
    1.7119    1.8964   -1.7596 N   0  0  0  0  0  0  0  0  0  0  0  0
    1.6321    2.7694   -2.6190 O   0  0  0  0  0  0  0  0  0  0  0  0
    2.7550    1.3585   -1.3942 O   0  0  0  0  0  0  0  0  0  0  0  0
    0.5590    0.3679   -0.1532 C   0  0  0  0  0  0  0  0  0  0  0  0
   -0.5894   -0.1531    0.3458 C   0  0  0  0  0  0  0  0  0  0  0  0
   -2.8277    1.7466   -1.4396 H   0  0  0  0  0  0  0  0  0  0  0  0
   -0.6889    2.8478   -2.1948 H   0  0  0  0  0  0  0  0  0  0  0  0
    1.5327   -0.0240    0.1023 H   0  0  0  0  0  0  0  0  0  0  0  0
   -0.5781   -1.0030    1.0202 H   0  0  0  0  0  0  0  0  0  0  0  0
   -4.3416    3.1519   -0.5459 O   0  0  0  0  0  0  0  0  0  0  0  0
   -3.4204    3.4074    0.1906 C   0  0  0  0  0  0  0  0  0  0  0  0
   -2.2222    2.8180    0.2329 O   0  0  0  0  0  0  0  0  0  0  0  0
   -3.4865    4.5154    1.2681 C   0  0  0  0  0  0  0  0  0  0  0  0
   -2.5280    5.4320    1.0541 F   0  0  0  0  0  0  0  0  0  0  0  0
   -4.6754    5.1192    1.2389 F   0  0  0  0  0  0  0  0  0  0  0  0
   -3.3010    3.9825    2.4892 F   0  0  0  0  0  0  0  0  0  0  0  0
  1  2  1  0  0  0  0
  1 11  2  0  0  0  0
  2  3  1  0  0  0  0
  4 12  1  6  0  0  0
  4  1  1  0  0  0  0
  4 18  1  0  0  0  0
  5  6  2  0  0  0  0
  5  4  1  0  0  0  0
  6 10  1  0  0  0  0
  7  9  2  0  0  0  0
  7  6  1  0  0  0  0
  8  7  2  0  0  0  0
 10 14  1  0  0  0  0
 10 11  1  0  0  0  0
 11 15  1  0  0  0  0
 13  5  1  0  0  0  0
 16 17  2  0  0  0  0
 17 18  1  0  0  0  0
 17 19  1  0  0  0  0
 19 22  1  0  0  0  0
 20 19  1  0  0  0  0
 21 19  1  0  0  0  0
M  RAD  3   2   2   3   3  10   2
M  END
