Coordinates from ORCA-job 4-NO2PhN2+~CF3COO-_B3LYPG-6-31G_dp-NX-Scan-d89-09-n800
 OpenBabel11261920383D

 22 22  0  0  1  0  0  0  0  0999 V2000
   -1.8697    0.4356   -0.0697 C   0  0  0  0  0  0  0  0  0  0  0  0
   -2.9983   -0.1673    0.2484 N   0  0  0  0  0  0  0  0  0  0  0  0
   -3.9731   -0.6871    0.5221 N   0  0  0  0  0  0  0  0  0  0  0  0
   -1.9570    1.7464   -0.7898 C   0  0  2  0  0  0  0  0  0  0  0  0
   -0.6637    2.0744   -1.4588 C   0  0  0  0  0  0  0  0  0  0  0  0
    0.4735    1.4487   -1.0926 C   0  0  0  0  0  0  0  0  0  0  0  0
    1.7391    1.8766   -1.7376 N   0  0  0  0  0  0  0  0  0  0  0  0
    1.6814    2.7481   -2.6005 O   0  0  0  0  0  0  0  0  0  0  0  0
    2.7706    1.3271   -1.3570 O   0  0  0  0  0  0  0  0  0  0  0  0
    0.5458    0.3651   -0.1451 C   0  0  0  0  0  0  0  0  0  0  0  0
   -0.6159   -0.1428    0.3363 C   0  0  0  0  0  0  0  0  0  0  0  0
   -2.8072    1.7863   -1.4721 H   0  0  0  0  0  0  0  0  0  0  0  0
   -0.6433    2.8592   -2.2043 H   0  0  0  0  0  0  0  0  0  0  0  0
    1.5110   -0.0383    0.1243 H   0  0  0  0  0  0  0  0  0  0  0  0
   -0.6246   -0.9941    1.0090 H   0  0  0  0  0  0  0  0  0  0  0  0
   -4.4025    2.9850   -0.3718 O   0  0  0  0  0  0  0  0  0  0  0  0
   -3.4373    3.3535    0.2522 C   0  0  0  0  0  0  0  0  0  0  0  0
   -2.1977    2.8599    0.1984 O   0  0  0  0  0  0  0  0  0  0  0  0
   -3.4859    4.5191    1.2681 C   0  0  0  0  0  0  0  0  0  0  0  0
   -2.6698    5.5109    0.8729 F   0  0  0  0  0  0  0  0  0  0  0  0
   -4.7280    4.9958    1.3656 F   0  0  0  0  0  0  0  0  0  0  0  0
   -3.0869    4.0972    2.4804 F   0  0  0  0  0  0  0  0  0  0  0  0
  1  2  1  0  0  0  0
  1 11  2  0  0  0  0
  2  3  1  0  0  0  0
  4 12  1  6  0  0  0
  4  1  1  0  0  0  0
  4 18  1  0  0  0  0
  5  6  2  0  0  0  0
  5  4  1  0  0  0  0
  6 10  1  0  0  0  0
  7  9  2  0  0  0  0
  7  6  1  0  0  0  0
  8  7  2  0  0  0  0
 10 14  1  0  0  0  0
 10 11  1  0  0  0  0
 11 15  1  0  0  0  0
 13  5  1  0  0  0  0
 16 17  2  0  0  0  0
 17 19  1  0  0  0  0
 18 17  1  0  0  0  0
 19 21  1  0  0  0  0
 19 22  1  0  0  0  0
 20 19  1  0  0  0  0
M  RAD  3   2   2   3   3  10   2
M  END
