Coordinates from ORCA-job 4-NO2PhN2+~CF3COO-_B3LYPG-6-31G_dp-NX-Scan-d89-09-n800
 OpenBabel11261920383D

 22 22  0  0  1  0  0  0  0  0999 V2000
   -1.8419    0.3659   -0.0092 C   0  0  0  0  0  0  0  0  0  0  0  0
   -2.9440   -0.2553    0.3594 N   0  0  0  0  0  0  0  0  0  0  0  0
   -3.9046   -0.7813    0.6716 N   0  0  0  0  0  0  0  0  0  0  0  0
   -1.9950    1.6712   -0.7268 C   0  0  2  0  0  0  0  0  0  0  0  0
   -0.7320    2.0473   -1.4280 C   0  0  0  0  0  0  0  0  0  0  0  0
    0.4352    1.4569   -1.0995 C   0  0  0  0  0  0  0  0  0  0  0  0
    1.6675    1.9324   -1.7754 N   0  0  0  0  0  0  0  0  0  0  0  0
    1.5575    2.8133   -2.6234 O   0  0  0  0  0  0  0  0  0  0  0  0
    2.7260    1.4092   -1.4340 O   0  0  0  0  0  0  0  0  0  0  0  0
    0.5702    0.3688   -0.1639 C   0  0  0  0  0  0  0  0  0  0  0  0
   -0.5592   -0.1764    0.3524 C   0  0  0  0  0  0  0  0  0  0  0  0
   -2.8601    1.6900   -1.3917 H   0  0  0  0  0  0  0  0  0  0  0  0
   -0.7594    2.8373   -2.1680 H   0  0  0  0  0  0  0  0  0  0  0  0
    1.5553   -0.0068    0.0717 H   0  0  0  0  0  0  0  0  0  0  0  0
   -0.5201   -1.0297    1.0213 H   0  0  0  0  0  0  0  0  0  0  0  0
   -4.1950    3.3753   -0.7556 O   0  0  0  0  0  0  0  0  0  0  0  0
   -3.3735    3.4766    0.1222 C   0  0  0  0  0  0  0  0  0  0  0  0
   -2.2653    2.7494    0.2917 O   0  0  0  0  0  0  0  0  0  0  0  0
   -3.4798    4.5213    1.2582 C   0  0  0  0  0  0  0  0  0  0  0  0
   -2.4113    5.3357    1.2427 F   0  0  0  0  0  0  0  0  0  0  0  0
   -4.5837    5.2550    1.1107 F   0  0  0  0  0  0  0  0  0  0  0  0
   -3.5263    3.9032    2.4518 F   0  0  0  0  0  0  0  0  0  0  0  0
  1 11  2  0  0  0  0
  1  2  1  0  0  0  0
  2  3  1  0  0  0  0
  4 12  1  6  0  0  0
  4  1  1  0  0  0  0
  4 18  1  0  0  0  0
  5  6  2  0  0  0  0
  5  4  1  0  0  0  0
  6 10  1  0  0  0  0
  7  9  2  0  0  0  0
  7  6  1  0  0  0  0
  8  7  2  0  0  0  0
 10 14  1  0  0  0  0
 10 11  1  0  0  0  0
 11 15  1  0  0  0  0
 13  5  1  0  0  0  0
 16 17  2  0  0  0  0
 17 18  1  0  0  0  0
 17 19  1  0  0  0  0
 19 22  1  0  0  0  0
 20 19  1  0  0  0  0
 21 19  1  0  0  0  0
M  RAD  3   2   2   3   3  10   2
M  END
