Coordinates from ORCA-job 4-NO2PhN2+~CF3COO-_B3LYPG-6-31G_dp-NX-Scan-d89-09-n800
 OpenBabel11261920383D

 22 21  0  0  0  0  0  0  0  0999 V2000
   -1.8675    0.3694    0.2835 C   0  0  0  0  0  0  0  0  0  0  0  0
   -2.7947   -0.3885    0.9124 N   0  0  0  0  0  0  0  0  0  0  0  0
   -3.5139   -1.0731    1.4439 N   0  0  0  0  0  0  0  0  0  0  0  0
   -2.1924    0.9582   -0.9642 C   0  0  0  0  0  0  0  0  0  0  0  0
   -1.1300    1.5590   -1.6705 C   0  0  0  0  0  0  0  0  0  0  0  0
    0.1120    1.6311   -1.0854 C   0  0  0  0  0  0  0  0  0  0  0  0
    1.2094    2.2745   -1.8390 N   0  0  0  0  0  0  0  0  0  0  0  0
    0.9620    2.6711   -2.9727 O   0  0  0  0  0  0  0  0  0  0  0  0
    2.2985    2.3552   -1.2744 O   0  0  0  0  0  0  0  0  0  0  0  0
    0.4046    1.1251    0.2056 C   0  0  0  0  0  0  0  0  0  0  0  0
   -0.5832    0.4891    0.9034 C   0  0  0  0  0  0  0  0  0  0  0  0
   -3.1423    0.7663   -1.4372 H   0  0  0  0  0  0  0  0  0  0  0  0
   -1.3062    1.9915   -2.6452 H   0  0  0  0  0  0  0  0  0  0  0  0
    1.4002    1.2511    0.6099 H   0  0  0  0  0  0  0  0  0  0  0  0
   -0.4150    0.0774    1.8910 H   0  0  0  0  0  0  0  0  0  0  0  0
   -3.5359    5.1640   -0.7962 O   0  0  0  0  0  0  0  0  0  0  0  0
   -3.2802    4.0136   -0.4538 C   0  0  0  0  0  0  0  0  0  0  0  0
   -3.3385    2.9466   -1.1635 O   0  0  0  0  0  0  0  0  0  0  0  0
   -2.8084    3.7724    1.0094 C   0  0  0  0  0  0  0  0  0  0  0  0
   -3.3977    2.6688    1.5577 F   0  0  0  0  0  0  0  0  0  0  0  0
   -1.4661    3.5341    1.0418 F   0  0  0  0  0  0  0  0  0  0  0  0
   -3.0544    4.8024    1.8218 F   0  0  0  0  0  0  0  0  0  0  0  0
  1 11  1  0  0  0  0
  1  2  1  0  0  0  0
  2  3  1  0  0  0  0
  4  1  2  0  0  0  0
  5  6  2  0  0  0  0
  5  4  1  0  0  0  0
  6 10  1  0  0  0  0
  7  9  2  0  0  0  0
  7  6  1  0  0  0  0
  8  7  2  0  0  0  0
 10 14  1  0  0  0  0
 10 11  2  0  0  0  0
 11 15  1  0  0  0  0
 12  4  1  0  0  0  0
 13  5  1  0  0  0  0
 16 17  1  0  0  0  0
 17 19  1  0  0  0  0
 18 17  2  0  0  0  0
 19 21  1  0  0  0  0
 19 20  1  0  0  0  0
 19 22  1  0  0  0  0
M  RAD  3   2   2   3   3  16   2
M  END
