Coordinates from ORCA-job 4-NO2PhN2+~CF3COO-_B3LYPG-6-31G_dp-NX-Scan-d89-09-n800
 OpenBabel11261920383D

 22 21  0  0  0  0  0  0  0  0999 V2000
   -1.3627    0.6339    0.0649 C   0  0  0  0  0  0  0  0  0  0  0  0
   -2.3890    0.3405    0.9843 N   0  0  0  0  0  0  0  0  0  0  0  0
   -3.3642    0.7224    1.4637 N   0  0  0  0  0  0  0  0  0  0  0  0
   -1.4799    1.7212   -0.8153 C   0  0  0  0  0  0  0  0  0  0  0  0
   -0.4347    1.9514   -1.7042 C   0  0  0  0  0  0  0  0  0  0  0  0
    0.6718    1.1038   -1.6868 C   0  0  0  0  0  0  0  0  0  0  0  0
    1.7758    1.3594   -2.6412 N   0  0  0  0  0  0  0  0  0  0  0  0
    1.6490    2.3115   -3.4046 O   0  0  0  0  0  0  0  0  0  0  0  0
    2.7391    0.5992   -2.5999 O   0  0  0  0  0  0  0  0  0  0  0  0
    0.7866    0.0233   -0.8142 C   0  0  0  0  0  0  0  0  0  0  0  0
   -0.2531   -0.2201    0.0749 C   0  0  0  0  0  0  0  0  0  0  0  0
   -2.3623    2.3494   -0.7783 H   0  0  0  0  0  0  0  0  0  0  0  0
   -0.4660    2.7757   -2.4059 H   0  0  0  0  0  0  0  0  0  0  0  0
    1.6704   -0.6005   -0.8462 H   0  0  0  0  0  0  0  0  0  0  0  0
   -0.2157   -1.0495    0.7719 H   0  0  0  0  0  0  0  0  0  0  0  0
   -3.9483    2.4620    0.6400 O   0  0  0  0  0  0  0  0  0  0  0  0
   -3.7208    3.2855    1.6106 C   0  0  0  0  0  0  0  0  0  0  0  0
   -3.1328    3.0784    2.6612 O   0  0  0  0  0  0  0  0  0  0  0  0
   -4.2760    4.7022    1.2870 C   0  0  0  0  0  0  0  0  0  0  0  0
   -5.6042    4.6652    1.0733 F   0  0  0  0  0  0  0  0  0  0  0  0
   -4.0334    5.5657    2.2790 F   0  0  0  0  0  0  0  0  0  0  0  0
   -3.6889    5.1789    0.1640 F   0  0  0  0  0  0  0  0  0  0  0  0
  1 11  1  0  0  0  0
  1  2  1  0  0  0  0
  2  3  2  0  0  0  0
  4 12  1  0  0  0  0
  4  1  2  0  0  0  0
  5  6  2  0  0  0  0
  5  4  1  0  0  0  0
  6 10  1  0  0  0  0
  7  9  2  0  0  0  0
  7  6  1  0  0  0  0
  8  7  2  0  0  0  0
 10 11  2  0  0  0  0
 11 15  1  0  0  0  0
 13  5  1  0  0  0  0
 14 10  1  0  0  0  0
 16 17  2  0  0  0  0
 17 18  1  0  0  0  0
 19 17  1  0  0  0  0
 19 21  1  0  0  0  0
 20 19  1  0  0  0  0
 22 19  1  0  0  0  0
M  RAD  2   3   2  18   2
M  END
