Coordinates from ORCA-job 4-NO2PhN2+~CF3COO-_B3LYPG-6-31G_dp-NX-Scan-d89-09-n800
 OpenBabel11261920383D

 22 22  0  0  1  0  0  0  0  0999 V2000
   -1.9031    0.5459   -0.1417 C   0  0  0  0  0  0  0  0  0  0  0  0
   -3.0759    0.0069    0.1398 N   0  0  0  0  0  0  0  0  0  0  0  0
   -4.1090   -0.4029    0.3672 N   0  0  0  0  0  0  0  0  0  0  0  0
   -1.9054    1.8470   -0.8824 C   0  0  2  0  0  0  0  0  0  0  0  0
   -0.5758    2.1083   -1.5047 C   0  0  0  0  0  0  0  0  0  0  0  0
    0.5172    1.4337   -1.0912 C   0  0  0  0  0  0  0  0  0  0  0  0
    1.8228    1.7951   -1.6977 N   0  0  0  0  0  0  0  0  0  0  0  0
    1.8348    2.6578   -2.5711 O   0  0  0  0  0  0  0  0  0  0  0  0
    2.8144    1.2033   -1.2765 O   0  0  0  0  0  0  0  0  0  0  0  0
    0.5072    0.3575   -0.1347 C   0  0  0  0  0  0  0  0  0  0  0  0
   -0.6953   -0.0901    0.3074 C   0  0  0  0  0  0  0  0  0  0  0  0
   -2.7243    1.9031   -1.6026 H   0  0  0  0  0  0  0  0  0  0  0  0
   -0.4913    2.8819   -2.2570 H   0  0  0  0  0  0  0  0  0  0  0  0
    1.4419   -0.0891    0.1707 H   0  0  0  0  0  0  0  0  0  0  0  0
   -0.7686   -0.9358    0.9834 H   0  0  0  0  0  0  0  0  0  0  0  0
   -4.3309    2.4377    0.2325 O   0  0  0  0  0  0  0  0  0  0  0  0
   -3.4008    3.1791    0.4516 C   0  0  0  0  0  0  0  0  0  0  0  0
   -2.1442    3.0245    0.0442 O   0  0  0  0  0  0  0  0  0  0  0  0
   -3.5365    4.4801    1.2764 C   0  0  0  0  0  0  0  0  0  0  0  0
   -3.2243    5.5436    0.5155 F   0  0  0  0  0  0  0  0  0  0  0  0
   -4.7878    4.6195    1.7181 F   0  0  0  0  0  0  0  0  0  0  0  0
   -2.7046    4.4522    2.3315 F   0  0  0  0  0  0  0  0  0  0  0  0
  1  2  1  0  0  0  0
  1 11  2  0  0  0  0
  2  3  1  0  0  0  0
  4 12  1  6  0  0  0
  4  1  1  0  0  0  0
  4 18  1  0  0  0  0
  5  6  2  0  0  0  0
  5  4  1  0  0  0  0
  6 10  1  0  0  0  0
  7  9  2  0  0  0  0
  7  6  1  0  0  0  0
  8  7  2  0  0  0  0
 10 14  1  0  0  0  0
 10 11  1  0  0  0  0
 11 15  1  0  0  0  0
 13  5  1  0  0  0  0
 16 17  2  0  0  0  0
 17 19  1  0  0  0  0
 18 17  1  0  0  0  0
 19 21  1  0  0  0  0
 19 22  1  0  0  0  0
 20 19  1  0  0  0  0
M  RAD  3   2   2   3   3  10   2
M  END
