Coordinates from ORCA-job 4-NO2PhN2+~CF3COO-_B3LYPG-6-31G_dp-NX-Scan-d89-09-n800
 OpenBabel11261920383D

 22 21  0  0  0  0  0  0  0  0999 V2000
   -1.6973   -0.6771    0.2783 C   0  0  0  0  0  0  0  0  0  0  0  0
   -2.4232   -1.7784    0.6232 N   0  0  0  0  0  0  0  0  0  0  0  0
   -2.9980   -2.6988    0.9258 N   0  0  0  0  0  0  0  0  0  0  0  0
   -2.3350    0.3929   -0.3957 C   0  0  0  0  0  0  0  0  0  0  0  0
   -1.5591    1.4747   -0.7869 C   0  0  0  0  0  0  0  0  0  0  0  0
   -0.2028    1.4705   -0.4578 C   0  0  0  0  0  0  0  0  0  0  0  0
    0.6425    2.5930   -0.9139 N   0  0  0  0  0  0  0  0  0  0  0  0
    0.1560    3.3620   -1.7308 O   0  0  0  0  0  0  0  0  0  0  0  0
    1.7793    2.6549   -0.4445 O   0  0  0  0  0  0  0  0  0  0  0  0
    0.4167    0.4432    0.2671 C   0  0  0  0  0  0  0  0  0  0  0  0
   -0.3219   -0.6640    0.6312 C   0  0  0  0  0  0  0  0  0  0  0  0
   -3.4017    0.3862   -0.5913 H   0  0  0  0  0  0  0  0  0  0  0  0
   -2.0577    2.3312   -1.2609 H   0  0  0  0  0  0  0  0  0  0  0  0
    1.4677    0.5281    0.5132 H   0  0  0  0  0  0  0  0  0  0  0  0
    0.1200   -1.4978    1.1641 H   0  0  0  0  0  0  0  0  0  0  0  0
   -4.0810    5.6326   -1.4087 O   0  0  0  0  0  0  0  0  0  0  0  0
   -3.4046    4.7001   -0.9554 C   0  0  0  0  0  0  0  0  0  0  0  0
   -3.5089    3.4656   -1.2184 O   0  0  0  0  0  0  0  0  0  0  0  0
   -2.2816    5.1133    0.0438 C   0  0  0  0  0  0  0  0  0  0  0  0
   -1.7219    4.0405    0.6784 F   0  0  0  0  0  0  0  0  0  0  0  0
   -1.2784    5.7554   -0.5885 F   0  0  0  0  0  0  0  0  0  0  0  0
   -2.7485    5.9312    1.0060 F   0  0  0  0  0  0  0  0  0  0  0  0
  1  2  1  0  0  0  0
  1 11  1  0  0  0  0
  2  3  1  0  0  0  0
  4  1  2  0  0  0  0
  5  6  2  0  0  0  0
  5  4  1  0  0  0  0
  6 10  1  0  0  0  0
  7  6  1  0  0  0  0
  7  9  2  0  0  0  0
  8  7  2  0  0  0  0
 10 14  1  0  0  0  0
 10 11  2  0  0  0  0
 11 15  1  0  0  0  0
 12  4  1  0  0  0  0
 13  5  1  0  0  0  0
 16 17  2  0  0  0  0
 17 19  1  0  0  0  0
 18 17  1  0  0  0  0
 19 20  1  0  0  0  0
 19 22  1  0  0  0  0
 21 19  1  0  0  0  0
M  RAD  3   2   2   3   3  18   2
M  END
