Coordinates from ORCA-job 4-NO2PhN2+~CF3COO-_B3LYPG-6-31G_dp-NX-Scan-d89-09-n800
 OpenBabel11261920383D

 22 21  0  0  0  0  0  0  0  0999 V2000
   -1.8872    0.0177    0.2820 C   0  0  0  0  0  0  0  0  0  0  0  0
   -2.7450   -0.9047    0.7924 N   0  0  0  0  0  0  0  0  0  0  0  0
   -3.3847   -1.7270    1.2205 N   0  0  0  0  0  0  0  0  0  0  0  0
   -2.2719    0.7785   -0.8469 C   0  0  0  0  0  0  0  0  0  0  0  0
   -1.2897    1.5808   -1.4352 C   0  0  0  0  0  0  0  0  0  0  0  0
   -0.0374    1.6519   -0.8530 C   0  0  0  0  0  0  0  0  0  0  0  0
    0.9851    2.5090   -1.4817 N   0  0  0  0  0  0  0  0  0  0  0  0
    0.6882    3.0614   -2.5350 O   0  0  0  0  0  0  0  0  0  0  0  0
    2.0712    2.5896   -0.9102 O   0  0  0  0  0  0  0  0  0  0  0  0
    0.3143    0.9572    0.3236 C   0  0  0  0  0  0  0  0  0  0  0  0
   -0.6059    0.1247    0.9052 C   0  0  0  0  0  0  0  0  0  0  0  0
   -3.2580    0.7011   -1.2806 H   0  0  0  0  0  0  0  0  0  0  0  0
   -1.5292    2.1734   -2.3062 H   0  0  0  0  0  0  0  0  0  0  0  0
    1.3032    1.0931    0.7415 H   0  0  0  0  0  0  0  0  0  0  0  0
   -0.3834   -0.4417    1.8014 H   0  0  0  0  0  0  0  0  0  0  0  0
   -3.8049    5.2061   -0.9863 O   0  0  0  0  0  0  0  0  0  0  0  0
   -3.3735    4.1186   -0.6021 C   0  0  0  0  0  0  0  0  0  0  0  0
   -3.5747    2.9627   -1.1039 O   0  0  0  0  0  0  0  0  0  0  0  0
   -2.4131    4.1330    0.6268 C   0  0  0  0  0  0  0  0  0  0  0  0
   -2.4865    2.9900    1.3664 F   0  0  0  0  0  0  0  0  0  0  0  0
   -1.1182    4.2255    0.2048 F   0  0  0  0  0  0  0  0  0  0  0  0
   -2.6382    5.1586    1.4550 F   0  0  0  0  0  0  0  0  0  0  0  0
  1  2  1  0  0  0  0
  1 11  1  0  0  0  0
  2  3  1  0  0  0  0
  4  1  2  0  0  0  0
  5  6  2  0  0  0  0
  5  4  1  0  0  0  0
  6 10  1  0  0  0  0
  7  9  2  0  0  0  0
  7  6  1  0  0  0  0
  8  7  2  0  0  0  0
 10 14  1  0  0  0  0
 10 11  2  0  0  0  0
 11 15  1  0  0  0  0
 12  4  1  0  0  0  0
 13  5  1  0  0  0  0
 16 17  1  0  0  0  0
 17 19  1  0  0  0  0
 18 17  2  0  0  0  0
 19 20  1  0  0  0  0
 19 22  1  0  0  0  0
 21 19  1  0  0  0  0
M  RAD  3   2   2   3   3  16   2
M  END
