Coordinates from ORCA-job 4-NO2PhN2+~CF3COO-_B3LYPG-6-31G_dp-NX-Scan-d89-09-n800
 OpenBabel11261920383D

 22 22  0  0  1  0  0  0  0  0999 V2000
   -1.8560    0.2043    0.0783 C   0  0  0  0  0  0  0  0  0  0  0  0
   -2.8369   -0.5909    0.4619 N   0  0  0  0  0  0  0  0  0  0  0  0
   -3.6403   -1.3229    0.8047 N   0  0  0  0  0  0  0  0  0  0  0  0
   -2.1728    1.4787   -0.6439 C   0  0  2  0  0  0  0  0  0  0  0  0
   -0.9828    1.9557   -1.4156 C   0  0  0  0  0  0  0  0  0  0  0  0
    0.2534    1.5207   -1.0989 C   0  0  0  0  0  0  0  0  0  0  0  0
    1.4040    2.0987   -1.8369 N   0  0  0  0  0  0  0  0  0  0  0  0
    1.1708    2.9156   -2.7226 O   0  0  0  0  0  0  0  0  0  0  0  0
    2.5247    1.7182   -1.5039 O   0  0  0  0  0  0  0  0  0  0  0  0
    0.5391    0.4991   -0.1233 C   0  0  0  0  0  0  0  0  0  0  0  0
   -0.5061   -0.1619    0.4305 C   0  0  0  0  0  0  0  0  0  0  0  0
   -3.0584    1.4015   -1.2790 H   0  0  0  0  0  0  0  0  0  0  0  0
   -1.1303    2.7042   -2.1822 H   0  0  0  0  0  0  0  0  0  0  0  0
    1.5666    0.2556    0.1059 H   0  0  0  0  0  0  0  0  0  0  0  0
   -0.3520   -0.9844    1.1213 H   0  0  0  0  0  0  0  0  0  0  0  0
   -3.0814    4.0822   -1.1537 O   0  0  0  0  0  0  0  0  0  0  0  0
   -2.9731    3.6909   -0.0167 C   0  0  0  0  0  0  0  0  0  0  0  0
   -2.5397    2.5007    0.4074 O   0  0  0  0  0  0  0  0  0  0  0  0
   -3.3543    4.5577    1.2078 C   0  0  0  0  0  0  0  0  0  0  0  0
   -2.3100    4.6778    2.0448 F   0  0  0  0  0  0  0  0  0  0  0  0
   -3.7334    5.7741    0.8140 F   0  0  0  0  0  0  0  0  0  0  0  0
   -4.3708    3.9838    1.8783 F   0  0  0  0  0  0  0  0  0  0  0  0
  1 11  2  0  0  0  0
  1  2  1  0  0  0  0
  2  3  1  0  0  0  0
  4 12  1  6  0  0  0
  4  1  1  0  0  0  0
  4 18  1  0  0  0  0
  5  6  2  0  0  0  0
  5  4  1  0  0  0  0
  6 10  1  0  0  0  0
  7  9  2  0  0  0  0
  7  6  1  0  0  0  0
  8  7  2  0  0  0  0
 10 14  1  0  0  0  0
 10 11  1  0  0  0  0
 11 15  1  0  0  0  0
 13  5  1  0  0  0  0
 16 17  2  0  0  0  0
 17 18  1  0  0  0  0
 17 19  1  0  0  0  0
 19 22  1  0  0  0  0
 19 20  1  0  0  0  0
 21 19  1  0  0  0  0
M  RAD  3   2   2   3   3  10   2
M  END
