Coordinates from ORCA-job 4-NO2PhN2+~CF3COO-_B3LYPG-6-31G_dp-NX-Scan-d89-09-n800
 OpenBabel11261920383D

 22 22  0  0  1  0  0  0  0  0999 V2000
   -1.8325    0.2367    0.0739 C   0  0  0  0  0  0  0  0  0  0  0  0
   -2.8620   -0.4754    0.4865 N   0  0  0  0  0  0  0  0  0  0  0  0
   -3.7447   -1.1019    0.8405 N   0  0  0  0  0  0  0  0  0  0  0  0
   -2.1090    1.5283   -0.6290 C   0  0  2  0  0  0  0  0  0  0  0  0
   -0.9055    1.9981   -1.3805 C   0  0  0  0  0  0  0  0  0  0  0  0
    0.3140    1.4965   -1.0996 C   0  0  0  0  0  0  0  0  0  0  0  0
    1.4811    2.0639   -1.8201 N   0  0  0  0  0  0  0  0  0  0  0  0
    1.2747    2.9428   -2.6517 O   0  0  0  0  0  0  0  0  0  0  0  0
    2.5868    1.6127   -1.5290 O   0  0  0  0  0  0  0  0  0  0  0  0
    0.5666    0.4192   -0.1756 C   0  0  0  0  0  0  0  0  0  0  0  0
   -0.4981   -0.2089    0.3811 C   0  0  0  0  0  0  0  0  0  0  0  0
   -2.9911    1.4873   -1.2717 H   0  0  0  0  0  0  0  0  0  0  0  0
   -1.0294    2.7870   -2.1110 H   0  0  0  0  0  0  0  0  0  0  0  0
    1.5852    0.1164    0.0195 H   0  0  0  0  0  0  0  0  0  0  0  0
   -0.3700   -1.0597    1.0419 H   0  0  0  0  0  0  0  0  0  0  0  0
   -3.3763    3.9151   -1.1380 O   0  0  0  0  0  0  0  0  0  0  0  0
   -3.0838    3.6410    0.0004 C   0  0  0  0  0  0  0  0  0  0  0  0
   -2.4525    2.5466    0.4310 O   0  0  0  0  0  0  0  0  0  0  0  0
   -3.4222    4.5526    1.2035 C   0  0  0  0  0  0  0  0  0  0  0  0
   -2.3025    4.8887    1.8658 F   0  0  0  0  0  0  0  0  0  0  0  0
   -4.0273    5.6650    0.7857 F   0  0  0  0  0  0  0  0  0  0  0  0
   -4.2410    3.9072    2.0547 F   0  0  0  0  0  0  0  0  0  0  0  0
  1 11  2  0  0  0  0
  1  2  1  0  0  0  0
  2  3  1  0  0  0  0
  4 12  1  6  0  0  0
  4  1  1  0  0  0  0
  4 18  1  0  0  0  0
  5  6  2  0  0  0  0
  5  4  1  0  0  0  0
  6 10  1  0  0  0  0
  7  9  2  0  0  0  0
  7  6  1  0  0  0  0
  8  7  2  0  0  0  0
 10 14  1  0  0  0  0
 10 11  1  0  0  0  0
 11 15  1  0  0  0  0
 13  5  1  0  0  0  0
 16 17  2  0  0  0  0
 17 18  1  0  0  0  0
 17 19  1  0  0  0  0
 19 20  1  0  0  0  0
 19 22  1  0  0  0  0
 21 19  1  0  0  0  0
M  RAD  3   2   2   3   3  10   2
M  END
