Coordinates from ORCA-job 4-NO2PhN2+~CF3COO-_B3LYPG-6-31G_dp-NX-Scan-d89-09-n800
 OpenBabel11261920383D

 22 21  0  0  0  0  0  0  0  0999 V2000
   -1.7644   -0.2658    0.2938 C   0  0  0  0  0  0  0  0  0  0  0  0
   -2.5801   -1.2606    0.7481 N   0  0  0  0  0  0  0  0  0  0  0  0
   -3.1777   -2.1339    1.1330 N   0  0  0  0  0  0  0  0  0  0  0  0
   -2.2579    0.7081   -0.6076 C   0  0  0  0  0  0  0  0  0  0  0  0
   -1.3400    1.6125   -1.1333 C   0  0  0  0  0  0  0  0  0  0  0  0
   -0.0170    1.5605   -0.7093 C   0  0  0  0  0  0  0  0  0  0  0  0
    0.9496    2.5170   -1.2820 N   0  0  0  0  0  0  0  0  0  0  0  0
    0.5583    3.2314   -2.1959 O   0  0  0  0  0  0  0  0  0  0  0  0
    2.0845    2.5108   -0.8051 O   0  0  0  0  0  0  0  0  0  0  0  0
    0.4540    0.6383    0.2404 C   0  0  0  0  0  0  0  0  0  0  0  0
   -0.4137   -0.3011    0.7473 C   0  0  0  0  0  0  0  0  0  0  0  0
   -3.3008    0.7759   -0.8922 H   0  0  0  0  0  0  0  0  0  0  0  0
   -1.6931    2.3741   -1.8154 H   0  0  0  0  0  0  0  0  0  0  0  0
    1.4908    0.6782    0.5490 H   0  0  0  0  0  0  0  0  0  0  0  0
   -0.0946   -1.0473    1.4655 H   0  0  0  0  0  0  0  0  0  0  0  0
   -3.9675    5.4113   -1.3058 O   0  0  0  0  0  0  0  0  0  0  0  0
   -3.4834    4.3940   -0.8020 C   0  0  0  0  0  0  0  0  0  0  0  0
   -3.6093    3.1844   -1.1772 O   0  0  0  0  0  0  0  0  0  0  0  0
   -2.5577    4.5682    0.4394 C   0  0  0  0  0  0  0  0  0  0  0  0
   -2.8544    3.6778    1.4205 F   0  0  0  0  0  0  0  0  0  0  0  0
   -1.2544    4.3314    0.0950 F   0  0  0  0  0  0  0  0  0  0  0  0
   -2.6106    5.7940    0.9722 F   0  0  0  0  0  0  0  0  0  0  0  0
  1 11  1  0  0  0  0
  1  2  1  0  0  0  0
  2  3  1  0  0  0  0
  4  1  2  0  0  0  0
  5  6  2  0  0  0  0
  5  4  1  0  0  0  0
  6 10  1  0  0  0  0
  7  9  2  0  0  0  0
  7  6  1  0  0  0  0
  8  7  2  0  0  0  0
 10 14  1  0  0  0  0
 10 11  2  0  0  0  0
 11 15  1  0  0  0  0
 12  4  1  0  0  0  0
 13  5  1  0  0  0  0
 16 17  2  0  0  0  0
 17 19  1  0  0  0  0
 18 17  1  0  0  0  0
 19 22  1  0  0  0  0
 19 20  1  0  0  0  0
 21 19  1  0  0  0  0
M  RAD  3   2   2   3   3  18   2
M  END
