Coordinates from ORCA-job 4-NO2PhN2+~CF3COO-_B3LYPG-6-31G_dp-NX-Scan-d89-09-n800
 OpenBabel11261920383D

 22 21  0  0  0  0  0  0  0  0999 V2000
   -1.8747   -0.0332    0.2855 C   0  0  0  0  0  0  0  0  0  0  0  0
   -2.7218   -0.9751    0.7814 N   0  0  0  0  0  0  0  0  0  0  0  0
   -3.3490   -1.8127    1.1981 N   0  0  0  0  0  0  0  0  0  0  0  0
   -2.2772    0.7620   -0.8131 C   0  0  0  0  0  0  0  0  0  0  0  0
   -1.3080    1.5875   -1.3870 C   0  0  0  0  0  0  0  0  0  0  0  0
   -0.0462    1.6444   -0.8202 C   0  0  0  0  0  0  0  0  0  0  0  0
    0.9642    2.5255   -1.4346 N   0  0  0  0  0  0  0  0  0  0  0  0
    0.6505    3.1104   -2.4649 O   0  0  0  0  0  0  0  0  0  0  0  0
    2.0558    2.5967   -0.8720 O   0  0  0  0  0  0  0  0  0  0  0  0
    0.3246    0.9117    0.3256 C   0  0  0  0  0  0  0  0  0  0  0  0
   -0.5845    0.0552    0.8917 C   0  0  0  0  0  0  0  0  0  0  0  0
   -3.2735    0.7095   -1.2279 H   0  0  0  0  0  0  0  0  0  0  0  0
   -1.5644    2.2091   -2.2326 H   0  0  0  0  0  0  0  0  0  0  0  0
    1.3191    1.0367    0.7336 H   0  0  0  0  0  0  0  0  0  0  0  0
   -0.3463   -0.5417    1.7640 H   0  0  0  0  0  0  0  0  0  0  0  0
   -3.8399    5.2379   -1.0219 O   0  0  0  0  0  0  0  0  0  0  0  0
   -3.3911    4.1589   -0.6320 C   0  0  0  0  0  0  0  0  0  0  0  0
   -3.5914    2.9944   -1.1119 O   0  0  0  0  0  0  0  0  0  0  0  0
   -2.4027    4.1967    0.5741 C   0  0  0  0  0  0  0  0  0  0  0  0
   -2.4644    3.0715    1.3406 F   0  0  0  0  0  0  0  0  0  0  0  0
   -1.1172    4.2711    0.1187 F   0  0  0  0  0  0  0  0  0  0  0  0
   -2.6013    5.2428    1.3832 F   0  0  0  0  0  0  0  0  0  0  0  0
  1  2  1  0  0  0  0
  1 11  1  0  0  0  0
  2  3  1  0  0  0  0
  4  1  2  0  0  0  0
  5  6  2  0  0  0  0
  5  4  1  0  0  0  0
  6 10  1  0  0  0  0
  7  9  2  0  0  0  0
  7  6  1  0  0  0  0
  8  7  2  0  0  0  0
 10 14  1  0  0  0  0
 10 11  2  0  0  0  0
 11 15  1  0  0  0  0
 12  4  1  0  0  0  0
 13  5  1  0  0  0  0
 16 17  1  0  0  0  0
 17 19  1  0  0  0  0
 18 17  2  0  0  0  0
 19 20  1  0  0  0  0
 19 22  1  0  0  0  0
 21 19  1  0  0  0  0
M  RAD  3   2   2   3   3  16   2
M  END
