Coordinates from ORCA-job 4-NO2PhN2+~CF3COO-_B3LYPG-6-31G_dp-NX-Scan-d89-09-n800
 OpenBabel11261920383D

 22 21  0  0  0  0  0  0  0  0999 V2000
   -1.7233   -0.3680    0.2986 C   0  0  0  0  0  0  0  0  0  0  0  0
   -2.5133   -1.3891    0.7420 N   0  0  0  0  0  0  0  0  0  0  0  0
   -3.0950   -2.2764    1.1200 N   0  0  0  0  0  0  0  0  0  0  0  0
   -2.2605    0.6435   -0.5344 C   0  0  0  0  0  0  0  0  0  0  0  0
   -1.3797    1.5911   -1.0429 C   0  0  0  0  0  0  0  0  0  0  0  0
   -0.0396    1.5373   -0.6687 C   0  0  0  0  0  0  0  0  0  0  0  0
    0.8957    2.5314   -1.2306 N   0  0  0  0  0  0  0  0  0  0  0  0
    0.4711    3.2638   -2.1142 O   0  0  0  0  0  0  0  0  0  0  0  0
    2.0396    2.5345   -0.7751 O   0  0  0  0  0  0  0  0  0  0  0  0
    0.4776    0.5755    0.2127 C   0  0  0  0  0  0  0  0  0  0  0  0
   -0.3577   -0.4056    0.6991 C   0  0  0  0  0  0  0  0  0  0  0  0
   -3.3153    0.7075   -0.7759 H   0  0  0  0  0  0  0  0  0  0  0  0
   -1.7822    2.3867   -1.6609 H   0  0  0  0  0  0  0  0  0  0  0  0
    1.5245    0.6149    0.4857 H   0  0  0  0  0  0  0  0  0  0  0  0
   -0.0003   -1.1846    1.3624 H   0  0  0  0  0  0  0  0  0  0  0  0
   -3.9133    5.5323   -1.4105 O   0  0  0  0  0  0  0  0  0  0  0  0
   -3.4520    4.5146   -0.8838 C   0  0  0  0  0  0  0  0  0  0  0  0
   -3.5715    3.3051   -1.2567 O   0  0  0  0  0  0  0  0  0  0  0  0
   -2.5835    4.6887    0.3980 C   0  0  0  0  0  0  0  0  0  0  0  0
   -2.9988    3.8695    1.3976 F   0  0  0  0  0  0  0  0  0  0  0  0
   -1.2827    4.3469    0.1443 F   0  0  0  0  0  0  0  0  0  0  0  0
   -2.5792    5.9399    0.8717 F   0  0  0  0  0  0  0  0  0  0  0  0
  1 11  1  0  0  0  0
  1  2  1  0  0  0  0
  2  3  1  0  0  0  0
  4  1  2  0  0  0  0
  5  6  2  0  0  0  0
  5  4  1  0  0  0  0
  6 10  1  0  0  0  0
  7  9  2  0  0  0  0
  7  6  1  0  0  0  0
  8  7  2  0  0  0  0
 10 14  1  0  0  0  0
 10 11  2  0  0  0  0
 11 15  1  0  0  0  0
 12  4  1  0  0  0  0
 13  5  1  0  0  0  0
 16 17  2  0  0  0  0
 17 19  1  0  0  0  0
 18 17  1  0  0  0  0
 19 22  1  0  0  0  0
 19 20  1  0  0  0  0
 21 19  1  0  0  0  0
M  RAD  3   2   2   3   3  18   2
M  END
