Coordinates from ORCA-job 4-NO2PhN2+~CF3COO-_B3LYPG-6-31G_dp-NX-Scan-d89-09-n800
 OpenBabel11261920383D

 22 22  0  0  1  0  0  0  0  0999 V2000
   -1.8467    0.5074   -0.1206 C   0  0  0  0  0  0  0  0  0  0  0  0
   -3.0496    0.0824    0.2449 N   0  0  0  0  0  0  0  0  0  0  0  0
   -4.1622    0.0883    0.4834 N   0  0  0  0  0  0  0  0  0  0  0  0
   -1.8543    1.8287   -0.8179 C   0  0  2  0  0  0  0  0  0  0  0  0
   -0.5290    2.1332   -1.4137 C   0  0  0  0  0  0  0  0  0  0  0  0
    0.5583    1.3985   -1.0884 C   0  0  0  0  0  0  0  0  0  0  0  0
    1.8600    1.7978   -1.6823 N   0  0  0  0  0  0  0  0  0  0  0  0
    1.8738    2.7517   -2.4550 O   0  0  0  0  0  0  0  0  0  0  0  0
    2.8463    1.1426   -1.3533 O   0  0  0  0  0  0  0  0  0  0  0  0
    0.5473    0.2347   -0.2456 C   0  0  0  0  0  0  0  0  0  0  0  0
   -0.6553   -0.2090    0.2082 C   0  0  0  0  0  0  0  0  0  0  0  0
   -2.6718    1.9107   -1.5392 H   0  0  0  0  0  0  0  0  0  0  0  0
   -0.4391    2.9739   -2.0895 H   0  0  0  0  0  0  0  0  0  0  0  0
    1.4767   -0.2673   -0.0213 H   0  0  0  0  0  0  0  0  0  0  0  0
   -0.7335   -1.1025    0.8186 H   0  0  0  0  0  0  0  0  0  0  0  0
   -4.3257    2.3309    0.3645 O   0  0  0  0  0  0  0  0  0  0  0  0
   -3.4221    3.1271    0.5220 C   0  0  0  0  0  0  0  0  0  0  0  0
   -2.1567    2.9962    0.1500 O   0  0  0  0  0  0  0  0  0  0  0  0
   -3.6420    4.4975    1.2049 C   0  0  0  0  0  0  0  0  0  0  0  0
   -3.4944    5.4817    0.2997 F   0  0  0  0  0  0  0  0  0  0  0  0
   -4.8710    4.5683    1.7199 F   0  0  0  0  0  0  0  0  0  0  0  0
   -2.7484    4.6864    2.1891 F   0  0  0  0  0  0  0  0  0  0  0  0
  1 11  2  0  0  0  0
  1  2  1  0  0  0  0
  2  3  1  0  0  0  0
  4 12  1  6  0  0  0
  4  1  1  0  0  0  0
  4 18  1  0  0  0  0
  5  6  2  0  0  0  0
  5  4  1  0  0  0  0
  6 10  1  0  0  0  0
  7  9  2  0  0  0  0
  7  6  1  0  0  0  0
  8  7  2  0  0  0  0
 10 14  1  0  0  0  0
 10 11  1  0  0  0  0
 11 15  1  0  0  0  0
 13  5  1  0  0  0  0
 16 17  2  0  0  0  0
 17 19  1  0  0  0  0
 18 17  1  0  0  0  0
 19 21  1  0  0  0  0
 19 22  1  0  0  0  0
 20 19  1  0  0  0  0
M  RAD  3   2   2   3   3  10   2
M  END
