Coordinates from ORCA-job 4-NO2PhN2+~CF3COO-_B3LYPG-6-31G_dp-NX-Scan-d89-09-n800
 OpenBabel11261920383D

 22 21  0  0  0  0  0  0  0  0999 V2000
   -1.8623    0.3241    0.2932 C   0  0  0  0  0  0  0  0  0  0  0  0
   -2.7752   -0.4620    0.9124 N   0  0  0  0  0  0  0  0  0  0  0  0
   -3.4751   -1.1729    1.4349 N   0  0  0  0  0  0  0  0  0  0  0  0
   -2.1985    0.9308   -0.9414 C   0  0  0  0  0  0  0  0  0  0  0  0
   -1.1520    1.5619   -1.6393 C   0  0  0  0  0  0  0  0  0  0  0  0
    0.0960    1.6321   -1.0626 C   0  0  0  0  0  0  0  0  0  0  0  0
    1.1809    2.3027   -1.8089 N   0  0  0  0  0  0  0  0  0  0  0  0
    0.9222    2.7173   -2.9336 O   0  0  0  0  0  0  0  0  0  0  0  0
    2.2735    2.3815   -1.2505 O   0  0  0  0  0  0  0  0  0  0  0  0
    0.4012    1.1035    0.2150 C   0  0  0  0  0  0  0  0  0  0  0  0
   -0.5756    0.4431    0.9072 C   0  0  0  0  0  0  0  0  0  0  0  0
   -3.1616    0.7700   -1.3995 H   0  0  0  0  0  0  0  0  0  0  0  0
   -1.3428    2.0185   -2.6001 H   0  0  0  0  0  0  0  0  0  0  0  0
    1.3982    1.2314    0.6155 H   0  0  0  0  0  0  0  0  0  0  0  0
   -0.3960    0.0128    1.8849 H   0  0  0  0  0  0  0  0  0  0  0  0
   -3.5233    5.2020   -0.8355 O   0  0  0  0  0  0  0  0  0  0  0  0
   -3.2760    4.0497   -0.4897 C   0  0  0  0  0  0  0  0  0  0  0  0
   -3.3502    2.9793   -1.1896 O   0  0  0  0  0  0  0  0  0  0  0  0
   -2.7871    3.8107    0.9693 C   0  0  0  0  0  0  0  0  0  0  0  0
   -3.3738    2.7120    1.5289 F   0  0  0  0  0  0  0  0  0  0  0  0
   -1.4450    3.5656    0.9857 F   0  0  0  0  0  0  0  0  0  0  0  0
   -3.0168    4.8449    1.7818 F   0  0  0  0  0  0  0  0  0  0  0  0
  1 11  1  0  0  0  0
  1  2  1  0  0  0  0
  2  3  1  0  0  0  0
  4  1  2  0  0  0  0
  5  6  2  0  0  0  0
  5  4  1  0  0  0  0
  6 10  1  0  0  0  0
  7  9  2  0  0  0  0
  7  6  1  0  0  0  0
  8  7  2  0  0  0  0
 10 14  1  0  0  0  0
 10 11  2  0  0  0  0
 11 15  1  0  0  0  0
 12  4  1  0  0  0  0
 13  5  1  0  0  0  0
 16 17  1  0  0  0  0
 17 19  1  0  0  0  0
 18 17  2  0  0  0  0
 19 21  1  0  0  0  0
 19 20  1  0  0  0  0
 19 22  1  0  0  0  0
M  RAD  3   2   2   3   3  16   2
M  END
