Coordinates from ORCA-job 4-NO2PhN2+~CF3COO-_B3LYPG-6-31G_dp-NX-Scan-d89-09-n800
 OpenBabel11261920383D

 22 22  0  0  1  0  0  0  0  0999 V2000
   -1.8684    0.1949    0.0754 C   0  0  0  0  0  0  0  0  0  0  0  0
   -2.8324   -0.6302    0.4405 N   0  0  0  0  0  0  0  0  0  0  0  0
   -3.6090   -1.3965    0.7719 N   0  0  0  0  0  0  0  0  0  0  0  0
   -2.1957    1.4623   -0.6563 C   0  0  2  0  0  0  0  0  0  0  0  0
   -1.0079    1.9390   -1.4322 C   0  0  0  0  0  0  0  0  0  0  0  0
    0.2320    1.5292   -1.0966 C   0  0  0  0  0  0  0  0  0  0  0  0
    1.3801    2.1073   -1.8380 N   0  0  0  0  0  0  0  0  0  0  0  0
    1.1426    2.8982   -2.7457 O   0  0  0  0  0  0  0  0  0  0  0  0
    2.5037    1.7582   -1.4809 O   0  0  0  0  0  0  0  0  0  0  0  0
    0.5239    0.5316   -0.0984 C   0  0  0  0  0  0  0  0  0  0  0  0
   -0.5161   -0.1410    0.4511 C   0  0  0  0  0  0  0  0  0  0  0  0
   -3.0808    1.3717   -1.2904 H   0  0  0  0  0  0  0  0  0  0  0  0
   -1.1592    2.6695   -2.2151 H   0  0  0  0  0  0  0  0  0  0  0  0
    1.5525    0.3114    0.1485 H   0  0  0  0  0  0  0  0  0  0  0  0
   -0.3561   -0.9512    1.1550 H   0  0  0  0  0  0  0  0  0  0  0  0
   -2.9924    4.1328   -1.1502 O   0  0  0  0  0  0  0  0  0  0  0  0
   -2.9407    3.7047   -0.0223 C   0  0  0  0  0  0  0  0  0  0  0  0
   -2.5725    2.4879    0.3891 O   0  0  0  0  0  0  0  0  0  0  0  0
   -3.3235    4.5570    1.2125 C   0  0  0  0  0  0  0  0  0  0  0  0
   -2.2864    4.6440    2.0631 F   0  0  0  0  0  0  0  0  0  0  0  0
   -3.6754    5.7866    0.8349 F   0  0  0  0  0  0  0  0  0  0  0  0
   -4.3579    3.9917    1.8622 F   0  0  0  0  0  0  0  0  0  0  0  0
  1  2  1  0  0  0  0
  1 11  2  0  0  0  0
  2  3  1  0  0  0  0
  4 12  1  6  0  0  0
  4  1  1  0  0  0  0
  4 18  1  0  0  0  0
  5  6  2  0  0  0  0
  5  4  1  0  0  0  0
  6 10  1  0  0  0  0
  7  9  2  0  0  0  0
  7  6  1  0  0  0  0
  8  7  2  0  0  0  0
 10 14  1  0  0  0  0
 10 11  1  0  0  0  0
 11 15  1  0  0  0  0
 13  5  1  0  0  0  0
 16 17  2  0  0  0  0
 17 18  1  0  0  0  0
 17 19  1  0  0  0  0
 19 22  1  0  0  0  0
 19 20  1  0  0  0  0
 21 19  1  0  0  0  0
M  RAD  3   2   2   3   3  10   2
M  END
