Coordinates from ORCA-job 4-NO2PhN2+~CF3COO-_B3LYPG-6-31G_dp-NX-Scan-d89-09-n800
 OpenBabel11261920383D

 22 22  0  0  1  0  0  0  0  0999 V2000
   -1.9020    0.5262   -0.1251 C   0  0  0  0  0  0  0  0  0  0  0  0
   -3.0568   -0.0528    0.1480 N   0  0  0  0  0  0  0  0  0  0  0  0
   -4.0527   -0.5477    0.3800 N   0  0  0  0  0  0  0  0  0  0  0  0
   -1.9245    1.8259   -0.8682 C   0  0  2  0  0  0  0  0  0  0  0  0
   -0.6047    2.0951   -1.5100 C   0  0  0  0  0  0  0  0  0  0  0  0
    0.5011    1.4439   -1.0944 C   0  0  0  0  0  0  0  0  0  0  0  0
    1.7970    1.8133   -1.7156 N   0  0  0  0  0  0  0  0  0  0  0  0
    1.7900    2.6571   -2.6073 O   0  0  0  0  0  0  0  0  0  0  0  0
    2.7996    1.2424   -1.2915 O   0  0  0  0  0  0  0  0  0  0  0  0
    0.5121    0.3832   -0.1198 C   0  0  0  0  0  0  0  0  0  0  0  0
   -0.6802   -0.0805    0.3320 C   0  0  0  0  0  0  0  0  0  0  0  0
   -2.7545    1.8749   -1.5751 H   0  0  0  0  0  0  0  0  0  0  0  0
   -0.5383    2.8578   -2.2753 H   0  0  0  0  0  0  0  0  0  0  0  0
    1.4556   -0.0417    0.1900 H   0  0  0  0  0  0  0  0  0  0  0  0
   -0.7359   -0.9185    1.0192 H   0  0  0  0  0  0  0  0  0  0  0  0
   -4.3828    2.5733    0.0791 O   0  0  0  0  0  0  0  0  0  0  0  0
   -3.4172    3.2267    0.3971 C   0  0  0  0  0  0  0  0  0  0  0  0
   -2.1484    2.9919    0.0684 O   0  0  0  0  0  0  0  0  0  0  0  0
   -3.5080    4.4891    1.2856 C   0  0  0  0  0  0  0  0  0  0  0  0
   -2.9889    5.5505    0.6461 F   0  0  0  0  0  0  0  0  0  0  0  0
   -4.7806    4.7495    1.5905 F   0  0  0  0  0  0  0  0  0  0  0  0
   -2.8193    4.2996    2.4246 F   0  0  0  0  0  0  0  0  0  0  0  0
  1  2  1  0  0  0  0
  1 11  2  0  0  0  0
  2  3  1  0  0  0  0
  4 12  1  6  0  0  0
  4  1  1  0  0  0  0
  4 18  1  0  0  0  0
  5  6  2  0  0  0  0
  5  4  1  0  0  0  0
  6 10  1  0  0  0  0
  7  9  2  0  0  0  0
  7  6  1  0  0  0  0
  8  7  2  0  0  0  0
 10 14  1  0  0  0  0
 10 11  1  0  0  0  0
 11 15  1  0  0  0  0
 13  5  1  0  0  0  0
 16 17  2  0  0  0  0
 17 19  1  0  0  0  0
 18 17  1  0  0  0  0
 19 21  1  0  0  0  0
 19 22  1  0  0  0  0
 20 19  1  0  0  0  0
M  RAD  3   2   2   3   3  10   2
M  END
