Coordinates from ORCA-job 4-NO2PhN2+~CF3COO-_B3LYPG-6-31G_dp-NX-Scan-d89-09-n800
 OpenBabel11261920383D

 22 21  0  0  0  0  0  0  0  0999 V2000
   -1.7511   -0.2978    0.2952 C   0  0  0  0  0  0  0  0  0  0  0  0
   -2.5586   -1.3015    0.7457 N   0  0  0  0  0  0  0  0  0  0  0  0
   -3.1484   -2.1813    1.1282 N   0  0  0  0  0  0  0  0  0  0  0  0
   -2.2577    0.6916   -0.5819 C   0  0  0  0  0  0  0  0  0  0  0  0
   -1.3493    1.6079   -1.1024 C   0  0  0  0  0  0  0  0  0  0  0  0
   -0.0201    1.5508   -0.6964 C   0  0  0  0  0  0  0  0  0  0  0  0
    0.9380    2.5181   -1.2657 N   0  0  0  0  0  0  0  0  0  0  0  0
    0.5356    3.2430   -2.1663 O   0  0  0  0  0  0  0  0  0  0  0  0
    2.0772    2.5095   -0.7990 O   0  0  0  0  0  0  0  0  0  0  0  0
    0.4647    0.6127    0.2295 C   0  0  0  0  0  0  0  0  0  0  0  0
   -0.3947   -0.3387    0.7296 C   0  0  0  0  0  0  0  0  0  0  0  0
   -3.3047    0.7639   -0.8507 H   0  0  0  0  0  0  0  0  0  0  0  0
   -1.7168    2.3826   -1.7629 H   0  0  0  0  0  0  0  0  0  0  0  0
    1.5054    0.6488    0.5254 H   0  0  0  0  0  0  0  0  0  0  0  0
   -0.0643   -1.0980    1.4287 H   0  0  0  0  0  0  0  0  0  0  0  0
   -3.9586    5.4467   -1.3425 O   0  0  0  0  0  0  0  0  0  0  0  0
   -3.4790    4.4320   -0.8283 C   0  0  0  0  0  0  0  0  0  0  0  0
   -3.6003    3.2209   -1.1986 O   0  0  0  0  0  0  0  0  0  0  0  0
   -2.5723    4.6117    0.4261 C   0  0  0  0  0  0  0  0  0  0  0  0
   -2.9098    3.7496    1.4190 F   0  0  0  0  0  0  0  0  0  0  0  0
   -1.2685    4.3371    0.1133 F   0  0  0  0  0  0  0  0  0  0  0  0
   -2.6062    5.8495    0.9324 F   0  0  0  0  0  0  0  0  0  0  0  0
  1 11  1  0  0  0  0
  1  2  1  0  0  0  0
  2  3  1  0  0  0  0
  4  1  2  0  0  0  0
  5  6  2  0  0  0  0
  5  4  1  0  0  0  0
  6 10  1  0  0  0  0
  7  9  2  0  0  0  0
  7  6  1  0  0  0  0
  8  7  2  0  0  0  0
 10 14  1  0  0  0  0
 10 11  2  0  0  0  0
 11 15  1  0  0  0  0
 12  4  1  0  0  0  0
 13  5  1  0  0  0  0
 16 17  2  0  0  0  0
 17 19  1  0  0  0  0
 18 17  1  0  0  0  0
 19 22  1  0  0  0  0
 19 20  1  0  0  0  0
 21 19  1  0  0  0  0
M  RAD  3   2   2   3   3  18   2
M  END
