Coordinates from ORCA-job 4-NO2PhN2+~CF3COO-_B3LYPG-6-31G_dp-NX-Scan-d89-09-n800
 OpenBabel11261920383D

 22 22  0  0  1  0  0  0  0  0999 V2000
   -1.8271    0.4869   -0.1183 C   0  0  0  0  0  0  0  0  0  0  0  0
   -3.0333    0.0820    0.2808 N   0  0  0  0  0  0  0  0  0  0  0  0
   -4.1408    0.2258    0.5253 N   0  0  0  0  0  0  0  0  0  0  0  0
   -1.8341    1.8089   -0.7952 C   0  0  2  0  0  0  0  0  0  0  0  0
   -0.5187    2.1349   -1.3829 C   0  0  0  0  0  0  0  0  0  0  0  0
    0.5702    1.3847   -1.0892 C   0  0  0  0  0  0  0  0  0  0  0  0
    1.8695    1.8010   -1.6774 N   0  0  0  0  0  0  0  0  0  0  0  0
    1.8814    2.7850   -2.4115 O   0  0  0  0  0  0  0  0  0  0  0  0
    2.8555    1.1293   -1.3826 O   0  0  0  0  0  0  0  0  0  0  0  0
    0.5601    0.1937   -0.2908 C   0  0  0  0  0  0  0  0  0  0  0  0
   -0.6429   -0.2531    0.1654 C   0  0  0  0  0  0  0  0  0  0  0  0
   -2.6638    1.9227   -1.4970 H   0  0  0  0  0  0  0  0  0  0  0  0
   -0.4298    2.9968   -2.0314 H   0  0  0  0  0  0  0  0  0  0  0  0
    1.4875   -0.3243   -0.0959 H   0  0  0  0  0  0  0  0  0  0  0  0
   -0.7223   -1.1635    0.7501 H   0  0  0  0  0  0  0  0  0  0  0  0
   -4.3298    2.3158    0.4134 O   0  0  0  0  0  0  0  0  0  0  0  0
   -3.4236    3.1215    0.5562 C   0  0  0  0  0  0  0  0  0  0  0  0
   -2.1584    2.9834    0.2204 O   0  0  0  0  0  0  0  0  0  0  0  0
   -3.6805    4.5155    1.1763 C   0  0  0  0  0  0  0  0  0  0  0  0
   -3.5402    5.4597    0.2280 F   0  0  0  0  0  0  0  0  0  0  0  0
   -4.9162    4.5871    1.6746 F   0  0  0  0  0  0  0  0  0  0  0  0
   -2.8022    4.7655    2.1600 F   0  0  0  0  0  0  0  0  0  0  0  0
  1 11  1  0  0  0  0
  1  2  2  0  0  0  0
  2  3  1  0  0  0  0
  4 12  1  6  0  0  0
  4  1  1  0  0  0  0
  4 18  1  0  0  0  0
  5  6  2  0  0  0  0
  5  4  1  0  0  0  0
  6 10  1  0  0  0  0
  7  9  2  0  0  0  0
  7  6  1  0  0  0  0
  8  7  2  0  0  0  0
 10 14  1  0  0  0  0
 10 11  2  0  0  0  0
 11 15  1  0  0  0  0
 13  5  1  0  0  0  0
 16 17  2  0  0  0  0
 17 19  1  0  0  0  0
 18 17  1  0  0  0  0
 19 21  1  0  0  0  0
 19 22  1  0  0  0  0
 20 19  1  0  0  0  0
M  RAD  1   3   3
M  END
