Coordinates from ORCA-job 4-NO2PhN2+~CF3COO-_B3LYPG-6-31G_dp-NX-Scan-d89-09-n800
 OpenBabel11261920383D

 22 21  0  0  0  0  0  0  0  0999 V2000
   -1.8512   -0.0914    0.2889 C   0  0  0  0  0  0  0  0  0  0  0  0
   -2.6892   -1.0496    0.7722 N   0  0  0  0  0  0  0  0  0  0  0  0
   -3.3074   -1.8990    1.1782 N   0  0  0  0  0  0  0  0  0  0  0  0
   -2.2771    0.7493   -0.7666 C   0  0  0  0  0  0  0  0  0  0  0  0
   -1.3216    1.5971   -1.3273 C   0  0  0  0  0  0  0  0  0  0  0  0
   -0.0448    1.6288   -0.7885 C   0  0  0  0  0  0  0  0  0  0  0  0
    0.9533    2.5322   -1.3904 N   0  0  0  0  0  0  0  0  0  0  0  0
    0.6200    3.1512   -2.3938 O   0  0  0  0  0  0  0  0  0  0  0  0
    2.0547    2.5859   -0.8448 O   0  0  0  0  0  0  0  0  0  0  0  0
    0.3513    0.8475    0.3143 C   0  0  0  0  0  0  0  0  0  0  0  0
   -0.5461   -0.0330    0.8646 C   0  0  0  0  0  0  0  0  0  0  0  0
   -3.2868    0.7303   -1.1524 H   0  0  0  0  0  0  0  0  0  0  0  0
   -1.6006    2.2545   -2.1378 H   0  0  0  0  0  0  0  0  0  0  0  0
    1.3558    0.9530    0.7032 H   0  0  0  0  0  0  0  0  0  0  0  0
   -0.2874   -0.6684    1.7032 H   0  0  0  0  0  0  0  0  0  0  0  0
   -3.8745    5.2799   -1.0844 O   0  0  0  0  0  0  0  0  0  0  0  0
   -3.4147    4.2131   -0.6723 C   0  0  0  0  0  0  0  0  0  0  0  0
   -3.6042    3.0369   -1.1254 O   0  0  0  0  0  0  0  0  0  0  0  0
   -2.4241    4.2807    0.5304 C   0  0  0  0  0  0  0  0  0  0  0  0
   -2.5188    3.1955    1.3469 F   0  0  0  0  0  0  0  0  0  0  0  0
   -1.1365    4.2949    0.0719 F   0  0  0  0  0  0  0  0  0  0  0  0
   -2.5896    5.3699    1.2884 F   0  0  0  0  0  0  0  0  0  0  0  0
  1  2  1  0  0  0  0
  1 11  1  0  0  0  0
  2  3  1  0  0  0  0
  4  1  2  0  0  0  0
  5  6  2  0  0  0  0
  5  4  1  0  0  0  0
  6 10  1  0  0  0  0
  7  9  2  0  0  0  0
  7  6  1  0  0  0  0
  8  7  2  0  0  0  0
 10 14  1  0  0  0  0
 10 11  2  0  0  0  0
 11 15  1  0  0  0  0
 12  4  1  0  0  0  0
 13  5  1  0  0  0  0
 16 17  1  0  0  0  0
 17 19  1  0  0  0  0
 18 17  2  0  0  0  0
 19 22  1  0  0  0  0
 19 20  1  0  0  0  0
 21 19  1  0  0  0  0
M  RAD  3   2   2   3   3  16   2
M  END
