Coordinates from ORCA-job 4-NO2PhN2+~CF3COO-_B3LYPG-6-31G_dp-NX-Scan-d89-09-n800
 OpenBabel11261920383D

 22 21  0  0  0  0  0  0  0  0999 V2000
   -1.8643    0.2674    0.2963 C   0  0  0  0  0  0  0  0  0  0  0  0
   -2.7609   -0.5528    0.8981 N   0  0  0  0  0  0  0  0  0  0  0  0
   -3.4419   -1.2938    1.4039 N   0  0  0  0  0  0  0  0  0  0  0  0
   -2.2116    0.8967   -0.9231 C   0  0  0  0  0  0  0  0  0  0  0  0
   -1.1808    1.5628   -1.6069 C   0  0  0  0  0  0  0  0  0  0  0  0
    0.0697    1.6379   -1.0326 C   0  0  0  0  0  0  0  0  0  0  0  0
    1.1413    2.3425   -1.7651 N   0  0  0  0  0  0  0  0  0  0  0  0
    0.8730    2.7778   -2.8797 O   0  0  0  0  0  0  0  0  0  0  0  0
    2.2338    2.4267   -1.2072 O   0  0  0  0  0  0  0  0  0  0  0  0
    0.3854    1.0857    0.2312 C   0  0  0  0  0  0  0  0  0  0  0  0
   -0.5785    0.3922    0.9103 C   0  0  0  0  0  0  0  0  0  0  0  0
   -3.1821    0.7547   -1.3727 H   0  0  0  0  0  0  0  0  0  0  0  0
   -1.3835    2.0420   -2.5540 H   0  0  0  0  0  0  0  0  0  0  0  0
    1.3810    1.2209    0.6329 H   0  0  0  0  0  0  0  0  0  0  0  0
   -0.3886   -0.0588    1.8766 H   0  0  0  0  0  0  0  0  0  0  0  0
   -3.5094    5.2216   -0.8893 O   0  0  0  0  0  0  0  0  0  0  0  0
   -3.2699    4.0727   -0.5236 C   0  0  0  0  0  0  0  0  0  0  0  0
   -3.3810    2.9877   -1.1934 O   0  0  0  0  0  0  0  0  0  0  0  0
   -2.7359    3.8630    0.9248 C   0  0  0  0  0  0  0  0  0  0  0  0
   -3.2882    2.7658    1.5189 F   0  0  0  0  0  0  0  0  0  0  0  0
   -1.3897    3.6393    0.9054 F   0  0  0  0  0  0  0  0  0  0  0  0
   -2.9574    4.9074    1.7274 F   0  0  0  0  0  0  0  0  0  0  0  0
  1  2  1  0  0  0  0
  1 11  1  0  0  0  0
  2  3  1  0  0  0  0
  4  1  2  0  0  0  0
  5  6  2  0  0  0  0
  5  4  1  0  0  0  0
  6 10  1  0  0  0  0
  7  9  2  0  0  0  0
  7  6  1  0  0  0  0
  8  7  2  0  0  0  0
 10 14  1  0  0  0  0
 10 11  2  0  0  0  0
 11 15  1  0  0  0  0
 12  4  1  0  0  0  0
 13  5  1  0  0  0  0
 16 17  1  0  0  0  0
 17 19  1  0  0  0  0
 18 17  2  0  0  0  0
 19 20  1  0  0  0  0
 19 22  1  0  0  0  0
 21 19  1  0  0  0  0
M  RAD  3   2   2   3   3  16   2
M  END
