Coordinates from ORCA-job 4-NO2PhN2+~CF3COO-_B3LYPG-6-31G_dp-NX-Scan-d89-09-n800
 OpenBabel11261920383D

 22 21  0  0  0  0  0  0  0  0999 V2000
   -1.6921   -0.6937    0.2803 C   0  0  0  0  0  0  0  0  0  0  0  0
   -2.4075   -1.8025    0.6226 N   0  0  0  0  0  0  0  0  0  0  0  0
   -2.9756   -2.7277    0.9238 N   0  0  0  0  0  0  0  0  0  0  0  0
   -2.3422    0.3750   -0.3841 C   0  0  0  0  0  0  0  0  0  0  0  0
   -1.5784    1.4661   -0.7732 C   0  0  0  0  0  0  0  0  0  0  0  0
   -0.2200    1.4704   -0.4515 C   0  0  0  0  0  0  0  0  0  0  0  0
    0.6151    2.6002   -0.9085 N   0  0  0  0  0  0  0  0  0  0  0  0
    0.1247    3.3586   -1.7328 O   0  0  0  0  0  0  0  0  0  0  0  0
    1.7483    2.6774   -0.4329 O   0  0  0  0  0  0  0  0  0  0  0  0
    0.4118    0.4450    0.2651 C   0  0  0  0  0  0  0  0  0  0  0  0
   -0.3153   -0.6709    0.6264 C   0  0  0  0  0  0  0  0  0  0  0  0
   -3.4099    0.3582   -0.5739 H   0  0  0  0  0  0  0  0  0  0  0  0
   -2.0845    2.3234   -1.2409 H   0  0  0  0  0  0  0  0  0  0  0  0
    1.4632    0.5376    0.5065 H   0  0  0  0  0  0  0  0  0  0  0  0
    0.1365   -1.5042    1.1517 H   0  0  0  0  0  0  0  0  0  0  0  0
   -4.0410    5.6610   -1.4382 O   0  0  0  0  0  0  0  0  0  0  0  0
   -3.3815    4.7216   -0.9742 C   0  0  0  0  0  0  0  0  0  0  0  0
   -3.4970    3.4881   -1.2359 O   0  0  0  0  0  0  0  0  0  0  0  0
   -2.2696    5.1246    0.0415 C   0  0  0  0  0  0  0  0  0  0  0  0
   -1.7205    4.0458    0.6756 F   0  0  0  0  0  0  0  0  0  0  0  0
   -1.2570    5.7688   -0.5729 F   0  0  0  0  0  0  0  0  0  0  0  0
   -2.7468    5.9365    1.0039 F   0  0  0  0  0  0  0  0  0  0  0  0
  1  2  1  0  0  0  0
  1 11  1  0  0  0  0
  2  3  1  0  0  0  0
  4  1  2  0  0  0  0
  5  6  2  0  0  0  0
  5  4  1  0  0  0  0
  6 10  1  0  0  0  0
  7  6  1  0  0  0  0
  7  9  2  0  0  0  0
  8  7  2  0  0  0  0
 10 14  1  0  0  0  0
 10 11  2  0  0  0  0
 11 15  1  0  0  0  0
 12  4  1  0  0  0  0
 13  5  1  0  0  0  0
 16 17  2  0  0  0  0
 17 19  1  0  0  0  0
 18 17  1  0  0  0  0
 19 20  1  0  0  0  0
 19 22  1  0  0  0  0
 21 19  1  0  0  0  0
M  RAD  3   2   2   3   3  18   2
M  END
