Coordinates from ORCA-job 4-NO2PhN2+~CF3COO-_B3LYPG-6-31G_dp-NX-Scan-d89-09-n800
 OpenBabel11261920383D

 22 22  0  0  0  0  0  0  0  0999 V2000
   -1.1486    0.7773    0.1978 C   0  0  0  0  0  0  0  0  0  0  0  0
   -2.0426    0.5285    1.2621 N   0  0  0  0  0  0  0  0  0  0  0  0
   -2.9297    1.0479    1.8336 N   0  0  0  0  0  0  0  0  0  0  0  0
   -1.1035    1.9777   -0.5363 C   0  0  0  0  0  0  0  0  0  0  0  0
   -0.1593    2.0953   -1.5512 C   0  0  0  0  0  0  0  0  0  0  0  0
    0.7009    1.0304   -1.8128 C   0  0  0  0  0  0  0  0  0  0  0  0
    1.6966    1.1712   -2.8991 N   0  0  0  0  0  0  0  0  0  0  0  0
    1.7106    2.2321   -3.5164 O   0  0  0  0  0  0  0  0  0  0  0  0
    2.4393    0.2154   -3.1072 O   0  0  0  0  0  0  0  0  0  0  0  0
    0.6636   -0.1622   -1.0943 C   0  0  0  0  0  0  0  0  0  0  0  0
   -0.2721   -0.2847   -0.0751 C   0  0  0  0  0  0  0  0  0  0  0  0
   -1.7885    2.7817   -0.3094 H   0  0  0  0  0  0  0  0  0  0  0  0
   -0.0829    2.9993   -2.1425 H   0  0  0  0  0  0  0  0  0  0  0  0
    1.3548   -0.9587   -1.3376 H   0  0  0  0  0  0  0  0  0  0  0  0
   -0.3399   -1.1902    0.5172 H   0  0  0  0  0  0  0  0  0  0  0  0
   -3.3281    2.5886    1.1032 O   0  0  0  0  0  0  0  0  0  0  0  0
   -4.0251    3.3530    1.9226 C   0  0  0  0  0  0  0  0  0  0  0  0
   -4.2980    3.1844    3.0860 O   0  0  0  0  0  0  0  0  0  0  0  0
   -4.5113    4.6094    1.1446 C   0  0  0  0  0  0  0  0  0  0  0  0
   -5.5100    4.2754    0.3049 F   0  0  0  0  0  0  0  0  0  0  0  0
   -4.9559    5.5486    1.9821 F   0  0  0  0  0  0  0  0  0  0  0  0
   -3.5099    5.1388    0.4061 F   0  0  0  0  0  0  0  0  0  0  0  0
  1  2  1  0  0  0  0
  2  3  1  0  0  0  0
  4 12  1  0  0  0  0
  4  1  2  0  0  0  0
  5  4  1  0  0  0  0
  6  5  2  0  0  0  0
  6 10  1  0  0  0  0
  7  6  1  0  0  0  0
  8  7  2  0  0  0  0
  9  7  2  0  0  0  0
 10 11  2  0  0  0  0
 11  1  1  0  0  0  0
 11 15  1  0  0  0  0
 13  5  1  0  0  0  0
 14 10  1  0  0  0  0
 16  3  1  0  0  0  0
 16 17  1  0  0  0  0
 17 18  2  0  0  0  0
 19 17  1  0  0  0  0
 19 21  1  0  0  0  0
 20 19  1  0  0  0  0
 22 19  1  0  0  0  0
M  RAD  2   2   2   3   2
M  END
