Coordinates from ORCA-job 4-NO2PhN2+~CF3COO-_B3LYPG-6-31G_dp-NX-Scan-d89-09-n800
 OpenBabel11261920383D

 22 22  0  0  1  0  0  0  0  0999 V2000
   -1.8408    0.3599   -0.0047 C   0  0  0  0  0  0  0  0  0  0  0  0
   -2.9402   -0.2641    0.3673 N   0  0  0  0  0  0  0  0  0  0  0  0
   -3.8983   -0.7930    0.6825 N   0  0  0  0  0  0  0  0  0  0  0  0
   -1.9992    1.6646   -0.7225 C   0  0  2  0  0  0  0  0  0  0  0  0
   -0.7388    2.0441   -1.4267 C   0  0  0  0  0  0  0  0  0  0  0  0
    0.4308    1.4573   -1.1006 C   0  0  0  0  0  0  0  0  0  0  0  0
    1.6603    1.9364   -1.7790 N   0  0  0  0  0  0  0  0  0  0  0  0
    1.5466    2.8208   -2.6229 O   0  0  0  0  0  0  0  0  0  0  0  0
    2.7216    1.4194   -1.4367 O   0  0  0  0  0  0  0  0  0  0  0  0
    0.5710    0.3696   -0.1652 C   0  0  0  0  0  0  0  0  0  0  0  0
   -0.5556   -0.1787    0.3538 C   0  0  0  0  0  0  0  0  0  0  0  0
   -2.8653    1.6814   -1.3860 H   0  0  0  0  0  0  0  0  0  0  0  0
   -0.7703    2.8338   -2.1669 H   0  0  0  0  0  0  0  0  0  0  0  0
    1.5577   -0.0032    0.0681 H   0  0  0  0  0  0  0  0  0  0  0  0
   -0.5125   -1.0318    1.0227 H   0  0  0  0  0  0  0  0  0  0  0  0
   -4.1707    3.4053   -0.7810 O   0  0  0  0  0  0  0  0  0  0  0  0
   -3.3643    3.4872    0.1127 C   0  0  0  0  0  0  0  0  0  0  0  0
   -2.2713    2.7408    0.2979 O   0  0  0  0  0  0  0  0  0  0  0  0
   -3.4778    4.5222    1.2568 C   0  0  0  0  0  0  0  0  0  0  0  0
   -2.3957    5.3184    1.2733 F   0  0  0  0  0  0  0  0  0  0  0  0
   -4.5657    5.2762    1.0930 F   0  0  0  0  0  0  0  0  0  0  0  0
   -3.5610    3.8928    2.4426 F   0  0  0  0  0  0  0  0  0  0  0  0
  1 11  2  0  0  0  0
  1  2  1  0  0  0  0
  2  3  1  0  0  0  0
  4 12  1  6  0  0  0
  4  1  1  0  0  0  0
  4 18  1  0  0  0  0
  5  6  2  0  0  0  0
  5  4  1  0  0  0  0
  6 10  1  0  0  0  0
  7  9  2  0  0  0  0
  7  6  1  0  0  0  0
  8  7  2  0  0  0  0
 10 14  1  0  0  0  0
 10 11  1  0  0  0  0
 11 15  1  0  0  0  0
 13  5  1  0  0  0  0
 16 17  2  0  0  0  0
 17 18  1  0  0  0  0
 17 19  1  0  0  0  0
 19 20  1  0  0  0  0
 19 22  1  0  0  0  0
 21 19  1  0  0  0  0
M  RAD  3   2   2   3   3  10   2
M  END
