Coordinates from ORCA-job 4-NO2PhN2+~CF3COO-_B3LYPG-6-31G_dp-NX-Scan-d89-09-n800
 OpenBabel11261920383D

 22 22  0  0  1  0  0  0  0  0999 V2000
   -1.8659    0.4247   -0.0607 C   0  0  0  0  0  0  0  0  0  0  0  0
   -2.9887   -0.1845    0.2647 N   0  0  0  0  0  0  0  0  0  0  0  0
   -3.9571   -0.7125    0.5465 N   0  0  0  0  0  0  0  0  0  0  0  0
   -1.9637    1.7345   -0.7807 C   0  0  2  0  0  0  0  0  0  0  0  0
   -0.6748    2.0695   -1.4550 C   0  0  0  0  0  0  0  0  0  0  0  0
    0.4674    1.4502   -1.0938 C   0  0  0  0  0  0  0  0  0  0  0  0
    1.7280    1.8858   -1.7437 N   0  0  0  0  0  0  0  0  0  0  0  0
    1.6618    2.7571   -2.6061 O   0  0  0  0  0  0  0  0  0  0  0  0
    2.7639    1.3411   -1.3683 O   0  0  0  0  0  0  0  0  0  0  0  0
    0.5498    0.3668   -0.1469 C   0  0  0  0  0  0  0  0  0  0  0  0
   -0.6070   -0.1470    0.3399 C   0  0  0  0  0  0  0  0  0  0  0  0
   -2.8167    1.7711   -1.4598 H   0  0  0  0  0  0  0  0  0  0  0  0
   -0.6619    2.8547   -2.2003 H   0  0  0  0  0  0  0  0  0  0  0  0
    1.5183   -0.0314    0.1185 H   0  0  0  0  0  0  0  0  0  0  0  0
   -0.6082   -0.9979    1.0131 H   0  0  0  0  0  0  0  0  0  0  0  0
   -4.3846    3.0511   -0.4382 O   0  0  0  0  0  0  0  0  0  0  0  0
   -3.4326    3.3749    0.2291 C   0  0  0  0  0  0  0  0  0  0  0  0
   -2.2074    2.8433    0.2116 O   0  0  0  0  0  0  0  0  0  0  0  0
   -3.4828    4.5204    1.2676 C   0  0  0  0  0  0  0  0  0  0  0  0
   -2.6112    5.4871    0.9345 F   0  0  0  0  0  0  0  0  0  0  0  0
   -4.7086    5.0441    1.3193 F   0  0  0  0  0  0  0  0  0  0  0  0
   -3.1577    4.0560    2.4868 F   0  0  0  0  0  0  0  0  0  0  0  0
  1  2  1  0  0  0  0
  1 11  2  0  0  0  0
  2  3  1  0  0  0  0
  4 12  1  6  0  0  0
  4  1  1  0  0  0  0
  4 18  1  0  0  0  0
  5  6  2  0  0  0  0
  5  4  1  0  0  0  0
  6 10  1  0  0  0  0
  7  9  2  0  0  0  0
  7  6  1  0  0  0  0
  8  7  2  0  0  0  0
 10 14  1  0  0  0  0
 10 11  1  0  0  0  0
 11 15  1  0  0  0  0
 13  5  1  0  0  0  0
 16 17  2  0  0  0  0
 17 19  1  0  0  0  0
 18 17  1  0  0  0  0
 19 21  1  0  0  0  0
 19 22  1  0  0  0  0
 20 19  1  0  0  0  0
M  RAD  3   2   2   3   3  10   2
M  END
