Coordinates from ORCA-job 4-NO2PhN2+~CF3COO-_B3LYPG-6-31G_dp-NX-Scan-d89-09-n800
 OpenBabel11261920383D

 22 21  0  0  0  0  0  0  0  0999 V2000
   -1.6878   -0.7087    0.2811 C   0  0  0  0  0  0  0  0  0  0  0  0
   -2.3940   -1.8244    0.6197 N   0  0  0  0  0  0  0  0  0  0  0  0
   -2.9554   -2.7546    0.9179 N   0  0  0  0  0  0  0  0  0  0  0  0
   -2.3487    0.3598   -0.3732 C   0  0  0  0  0  0  0  0  0  0  0  0
   -1.5953    1.4591   -0.7591 C   0  0  0  0  0  0  0  0  0  0  0  0
   -0.2351    1.4705   -0.4440 C   0  0  0  0  0  0  0  0  0  0  0  0
    0.5909    2.6073   -0.9000 N   0  0  0  0  0  0  0  0  0  0  0  0
    0.0974    3.3576   -1.7297 O   0  0  0  0  0  0  0  0  0  0  0  0
    1.7221    2.6950   -0.4214 O   0  0  0  0  0  0  0  0  0  0  0  0
    0.4074    0.4456    0.2637 C   0  0  0  0  0  0  0  0  0  0  0  0
   -0.3097   -0.6781    0.6210 C   0  0  0  0  0  0  0  0  0  0  0  0
   -3.4171    0.3347   -0.5579 H   0  0  0  0  0  0  0  0  0  0  0  0
   -2.1078    2.3175   -1.2203 H   0  0  0  0  0  0  0  0  0  0  0  0
    1.4593    0.5445    0.5008 H   0  0  0  0  0  0  0  0  0  0  0  0
    0.1507   -1.5115    1.1385 H   0  0  0  0  0  0  0  0  0  0  0  0
   -4.0074    5.6823   -1.4654 O   0  0  0  0  0  0  0  0  0  0  0  0
   -3.3630    4.7386   -0.9888 C   0  0  0  0  0  0  0  0  0  0  0  0
   -3.4895    3.5052   -1.2440 O   0  0  0  0  0  0  0  0  0  0  0  0
   -2.2583    5.1366    0.0366 C   0  0  0  0  0  0  0  0  0  0  0  0
   -1.7146    4.0549    0.6705 F   0  0  0  0  0  0  0  0  0  0  0  0
   -1.2407    5.7832   -0.5666 F   0  0  0  0  0  0  0  0  0  0  0  0
   -2.7430    5.9443    0.9990 F   0  0  0  0  0  0  0  0  0  0  0  0
  1  2  1  0  0  0  0
  1 11  1  0  0  0  0
  2  3  1  0  0  0  0
  4  1  2  0  0  0  0
  5  6  2  0  0  0  0
  5  4  1  0  0  0  0
  6 10  1  0  0  0  0
  7  6  1  0  0  0  0
  7  9  2  0  0  0  0
  8  7  2  0  0  0  0
 10 14  1  0  0  0  0
 10 11  2  0  0  0  0
 11 15  1  0  0  0  0
 12  4  1  0  0  0  0
 13  5  1  0  0  0  0
 16 17  2  0  0  0  0
 17 19  1  0  0  0  0
 18 17  1  0  0  0  0
 19 20  1  0  0  0  0
 19 22  1  0  0  0  0
 21 19  1  0  0  0  0
M  RAD  3   2   2   3   3  18   2
M  END
