Coordinates from ORCA-job 4-NO2PhN2+~CF3COO-_B3LYPG-6-31G_dp-NX-Scan-d89-09-n800
 OpenBabel11261920383D

 22 22  0  0  1  0  0  0  0  0999 V2000
   -1.8320    0.3181    0.0253 C   0  0  0  0  0  0  0  0  0  0  0  0
   -2.9148   -0.3220    0.4170 N   0  0  0  0  0  0  0  0  0  0  0  0
   -3.8612   -0.8622    0.7471 N   0  0  0  0  0  0  0  0  0  0  0  0
   -2.0275    1.6207   -0.6844 C   0  0  2  0  0  0  0  0  0  0  0  0
   -0.7858    2.0318   -1.4044 C   0  0  0  0  0  0  0  0  0  0  0  0
    0.4001    1.4667   -1.0998 C   0  0  0  0  0  0  0  0  0  0  0  0
    1.6099    1.9767   -1.7915 N   0  0  0  0  0  0  0  0  0  0  0  0
    1.4660    2.8659   -2.6256 O   0  0  0  0  0  0  0  0  0  0  0  0
    2.6852    1.4718   -1.4759 O   0  0  0  0  0  0  0  0  0  0  0  0
    0.5760    0.3743   -0.1757 C   0  0  0  0  0  0  0  0  0  0  0  0
   -0.5312   -0.1989    0.3580 C   0  0  0  0  0  0  0  0  0  0  0  0
   -2.8995    1.6242   -1.3407 H   0  0  0  0  0  0  0  0  0  0  0  0
   -0.8465    2.8263   -2.1377 H   0  0  0  0  0  0  0  0  0  0  0  0
    1.5732    0.0184    0.0384 H   0  0  0  0  0  0  0  0  0  0  0  0
   -0.4608   -1.0556    1.0198 H   0  0  0  0  0  0  0  0  0  0  0  0
   -3.9548    3.5917   -0.9432 O   0  0  0  0  0  0  0  0  0  0  0  0
   -3.2895    3.5443    0.0621 C   0  0  0  0  0  0  0  0  0  0  0  0
   -2.3199    2.6733    0.3546 O   0  0  0  0  0  0  0  0  0  0  0  0
   -3.4691    4.5299    1.2408 C   0  0  0  0  0  0  0  0  0  0  0  0
   -2.3286    5.2053    1.4597 F   0  0  0  0  0  0  0  0  0  0  0  0
   -4.4423    5.4011    0.9723 F   0  0  0  0  0  0  0  0  0  0  0  0
   -3.7865    3.8574    2.3623 F   0  0  0  0  0  0  0  0  0  0  0  0
  1 11  2  0  0  0  0
  1  2  1  0  0  0  0
  2  3  1  0  0  0  0
  4 12  1  6  0  0  0
  4  1  1  0  0  0  0
  4 18  1  0  0  0  0
  5  6  2  0  0  0  0
  5  4  1  0  0  0  0
  6 10  1  0  0  0  0
  7  9  2  0  0  0  0
  7  6  1  0  0  0  0
  8  7  2  0  0  0  0
 10 14  1  0  0  0  0
 10 11  1  0  0  0  0
 11 15  1  0  0  0  0
 13  5  1  0  0  0  0
 16 17  2  0  0  0  0
 17 18  1  0  0  0  0
 17 19  1  0  0  0  0
 19 20  1  0  0  0  0
 19 22  1  0  0  0  0
 21 19  1  0  0  0  0
M  RAD  3   2   2   3   3  10   2
M  END
