Coordinates from ORCA-job 4-NO2PhN2+~CF3COO-_B3LYPG-6-31G_dp-NX-Scan-d89-09-n800
 OpenBabel11261920383D

 22 22  0  0  1  0  0  0  0  0999 V2000
   -1.8330    0.3302    0.0170 C   0  0  0  0  0  0  0  0  0  0  0  0
   -2.9218   -0.3028    0.4039 N   0  0  0  0  0  0  0  0  0  0  0  0
   -3.8744   -0.8352    0.7291 N   0  0  0  0  0  0  0  0  0  0  0  0
   -2.0181    1.6334   -0.6950 C   0  0  2  0  0  0  0  0  0  0  0  0
   -0.7713    2.0355   -1.4109 C   0  0  0  0  0  0  0  0  0  0  0  0
    0.4101    1.4638   -1.1007 C   0  0  0  0  0  0  0  0  0  0  0  0
    1.6253    1.9647   -1.7891 N   0  0  0  0  0  0  0  0  0  0  0  0
    1.4901    2.8538   -2.6249 O   0  0  0  0  0  0  0  0  0  0  0  0
    2.6969    1.4571   -1.4653 O   0  0  0  0  0  0  0  0  0  0  0  0
    0.5758    0.3724   -0.1736 C   0  0  0  0  0  0  0  0  0  0  0  0
   -0.5369   -0.1935    0.3566 C   0  0  0  0  0  0  0  0  0  0  0  0
   -2.8887    1.6409   -1.3529 H   0  0  0  0  0  0  0  0  0  0  0  0
   -0.8237    2.8286   -2.1463 H   0  0  0  0  0  0  0  0  0  0  0  0
    1.5702    0.0114    0.0455 H   0  0  0  0  0  0  0  0  0  0  0  0
   -0.4741   -1.0493    1.0204 H   0  0  0  0  0  0  0  0  0  0  0  0
   -4.0268    3.5342   -0.8971 O   0  0  0  0  0  0  0  0  0  0  0  0
   -3.3155    3.5253    0.0773 C   0  0  0  0  0  0  0  0  0  0  0  0
   -2.3045    2.6922    0.3393 O   0  0  0  0  0  0  0  0  0  0  0  0
   -3.4723    4.5270    1.2457 C   0  0  0  0  0  0  0  0  0  0  0  0
   -2.3405    5.2318    1.4093 F   0  0  0  0  0  0  0  0  0  0  0  0
   -4.4753    5.3712    1.0010 F   0  0  0  0  0  0  0  0  0  0  0  0
   -3.7309    3.8665    2.3891 F   0  0  0  0  0  0  0  0  0  0  0  0
  1 11  2  0  0  0  0
  1  2  1  0  0  0  0
  2  3  1  0  0  0  0
  4 12  1  6  0  0  0
  4  1  1  0  0  0  0
  4 18  1  0  0  0  0
  5  6  2  0  0  0  0
  5  4  1  0  0  0  0
  6 10  1  0  0  0  0
  7  9  2  0  0  0  0
  7  6  1  0  0  0  0
  8  7  2  0  0  0  0
 10 14  1  0  0  0  0
 10 11  1  0  0  0  0
 11 15  1  0  0  0  0
 13  5  1  0  0  0  0
 16 17  2  0  0  0  0
 17 18  1  0  0  0  0
 17 19  1  0  0  0  0
 19 20  1  0  0  0  0
 19 22  1  0  0  0  0
 21 19  1  0  0  0  0
M  RAD  3   2   2   3   3  10   2
M  END
