Coordinates from ORCA-job 4-NO2PhN2+~CF3COO-_B3LYPG-6-31G_dp-NX-Scan-d89-09-n800
 OpenBabel11261920383D

 22 22  0  0  1  0  0  0  0  0999 V2000
   -1.8335    0.3335    0.0150 C   0  0  0  0  0  0  0  0  0  0  0  0
   -2.9232   -0.2988    0.4007 N   0  0  0  0  0  0  0  0  0  0  0  0
   -3.8762   -0.8310    0.7253 N   0  0  0  0  0  0  0  0  0  0  0  0
   -2.0159    1.6368   -0.6980 C   0  0  2  0  0  0  0  0  0  0  0  0
   -0.7676    2.0365   -1.4127 C   0  0  0  0  0  0  0  0  0  0  0  0
    0.4126    1.4634   -1.1006 C   0  0  0  0  0  0  0  0  0  0  0  0
    1.6293    1.9621   -1.7880 N   0  0  0  0  0  0  0  0  0  0  0  0
    1.4960    2.8485   -2.6269 O   0  0  0  0  0  0  0  0  0  0  0  0
    2.6996    1.4517   -1.4642 O   0  0  0  0  0  0  0  0  0  0  0  0
    0.5757    0.3726   -0.1724 C   0  0  0  0  0  0  0  0  0  0  0  0
   -0.5384   -0.1915    0.3566 C   0  0  0  0  0  0  0  0  0  0  0  0
   -2.8860    1.6452   -1.3566 H   0  0  0  0  0  0  0  0  0  0  0  0
   -0.8178    2.8292   -2.1488 H   0  0  0  0  0  0  0  0  0  0  0  0
    1.5693    0.0105    0.0482 H   0  0  0  0  0  0  0  0  0  0  0  0
   -0.4776   -1.0469    1.0211 H   0  0  0  0  0  0  0  0  0  0  0  0
   -4.0438    3.5221   -0.8858 O   0  0  0  0  0  0  0  0  0  0  0  0
   -3.3212    3.5223    0.0804 C   0  0  0  0  0  0  0  0  0  0  0  0
   -2.3010    2.6978    0.3346 O   0  0  0  0  0  0  0  0  0  0  0  0
   -3.4735    4.5262    1.2474 C   0  0  0  0  0  0  0  0  0  0  0  0
   -2.3443    5.2375    1.3998 F   0  0  0  0  0  0  0  0  0  0  0  0
   -4.4830    5.3644    1.0088 F   0  0  0  0  0  0  0  0  0  0  0  0
   -3.7191    3.8672    2.3944 F   0  0  0  0  0  0  0  0  0  0  0  0
  1 11  2  0  0  0  0
  1  2  1  0  0  0  0
  2  3  1  0  0  0  0
  4 12  1  6  0  0  0
  4  1  1  0  0  0  0
  4 18  1  0  0  0  0
  5  6  2  0  0  0  0
  5  4  1  0  0  0  0
  6 10  1  0  0  0  0
  7  9  2  0  0  0  0
  7  6  1  0  0  0  0
  8  7  2  0  0  0  0
 10 14  1  0  0  0  0
 10 11  1  0  0  0  0
 11 15  1  0  0  0  0
 13  5  1  0  0  0  0
 16 17  2  0  0  0  0
 17 18  1  0  0  0  0
 17 19  1  0  0  0  0
 19 20  1  0  0  0  0
 19 22  1  0  0  0  0
 21 19  1  0  0  0  0
M  RAD  3   2   2   3   3  10   2
M  END
