Coordinates from ORCA-job 4-NO2PhN2+~CF3COO-_B3LYPG-6-31G_dp-NX-Scan-d89-09-n800
 OpenBabel11261920383D

 22 22  0  0  1  0  0  0  0  0999 V2000
   -1.8761    0.4584   -0.0820 C   0  0  0  0  0  0  0  0  0  0  0  0
   -3.0103   -0.1399    0.2261 N   0  0  0  0  0  0  0  0  0  0  0  0
   -3.9877   -0.6584    0.4920 N   0  0  0  0  0  0  0  0  0  0  0  0
   -1.9481    1.7668   -0.8081 C   0  0  2  0  0  0  0  0  0  0  0  0
   -0.6490    2.0799   -1.4727 C   0  0  0  0  0  0  0  0  0  0  0  0
    0.4811    1.4480   -1.0954 C   0  0  0  0  0  0  0  0  0  0  0  0
    1.7536    1.8608   -1.7370 N   0  0  0  0  0  0  0  0  0  0  0  0
    1.7072    2.7252   -2.6076 O   0  0  0  0  0  0  0  0  0  0  0  0
    2.7788    1.3071   -1.3457 O   0  0  0  0  0  0  0  0  0  0  0  0
    0.5396    0.3709   -0.1399 C   0  0  0  0  0  0  0  0  0  0  0  0
   -0.6291   -0.1261    0.3363 C   0  0  0  0  0  0  0  0  0  0  0  0
   -2.7948    1.8085   -1.4947 H   0  0  0  0  0  0  0  0  0  0  0  0
   -0.6184    2.8589   -2.2238 H   0  0  0  0  0  0  0  0  0  0  0  0
    1.5000   -0.0374    0.1390 H   0  0  0  0  0  0  0  0  0  0  0  0
   -0.6483   -0.9735    1.0137 H   0  0  0  0  0  0  0  0  0  0  0  0
   -4.4198    2.8798   -0.2623 O   0  0  0  0  0  0  0  0  0  0  0  0
   -3.4405    3.3198    0.2895 C   0  0  0  0  0  0  0  0  0  0  0  0
   -2.1817    2.8932    0.1679 O   0  0  0  0  0  0  0  0  0  0  0  0
   -3.4915    4.5125    1.2731 C   0  0  0  0  0  0  0  0  0  0  0  0
   -2.7100    5.5133    0.8339 F   0  0  0  0  0  0  0  0  0  0  0  0
   -4.7422    4.9616    1.3909 F   0  0  0  0  0  0  0  0  0  0  0  0
   -3.0525    4.1298    2.4850 F   0  0  0  0  0  0  0  0  0  0  0  0
  1  2  1  0  0  0  0
  1 11  2  0  0  0  0
  2  3  1  0  0  0  0
  4 12  1  6  0  0  0
  4  1  1  0  0  0  0
  4 18  1  0  0  0  0
  5  6  2  0  0  0  0
  5  4  1  0  0  0  0
  6 10  1  0  0  0  0
  7  9  2  0  0  0  0
  7  6  1  0  0  0  0
  8  7  2  0  0  0  0
 10 14  1  0  0  0  0
 10 11  1  0  0  0  0
 11 15  1  0  0  0  0
 13  5  1  0  0  0  0
 16 17  2  0  0  0  0
 17 19  1  0  0  0  0
 18 17  1  0  0  0  0
 19 21  1  0  0  0  0
 19 22  1  0  0  0  0
 20 19  1  0  0  0  0
M  RAD  3   2   2   3   3  10   2
M  END
