Coordinates from ORCA-job 4-NO2PhN2+~CF3COO-_B3LYPG-6-31G_dp-NX-Scan-d89-09-n800
 OpenBabel11261920383D

 22 21  0  0  0  0  0  0  0  0999 V2000
   -1.6904   -0.6988    0.2813 C   0  0  0  0  0  0  0  0  0  0  0  0
   -2.4024   -1.8100    0.6231 N   0  0  0  0  0  0  0  0  0  0  0  0
   -2.9682   -2.7367    0.9238 N   0  0  0  0  0  0  0  0  0  0  0  0
   -2.3446    0.3694   -0.3800 C   0  0  0  0  0  0  0  0  0  0  0  0
   -1.5848    1.4633   -0.7688 C   0  0  0  0  0  0  0  0  0  0  0  0
   -0.2257    1.4704   -0.4498 C   0  0  0  0  0  0  0  0  0  0  0  0
    0.6061    2.6023   -0.9077 N   0  0  0  0  0  0  0  0  0  0  0  0
    0.1144    3.3571   -1.7345 O   0  0  0  0  0  0  0  0  0  0  0  0
    1.7382    2.6845   -0.4302 O   0  0  0  0  0  0  0  0  0  0  0  0
    0.4102    0.4457    0.2641 C   0  0  0  0  0  0  0  0  0  0  0  0
   -0.3131   -0.6729    0.6249 C   0  0  0  0  0  0  0  0  0  0  0  0
   -3.4126    0.3494   -0.5676 H   0  0  0  0  0  0  0  0  0  0  0  0
   -2.0933    2.3208   -1.2347 H   0  0  0  0  0  0  0  0  0  0  0  0
    1.4619    0.5408    0.5036 H   0  0  0  0  0  0  0  0  0  0  0  0
    0.1421   -1.5058    1.1478 H   0  0  0  0  0  0  0  0  0  0  0  0
   -4.0258    5.6708   -1.4495 O   0  0  0  0  0  0  0  0  0  0  0  0
   -3.3732    4.7288   -0.9810 C   0  0  0  0  0  0  0  0  0  0  0  0
   -3.4927    3.4958   -1.2426 O   0  0  0  0  0  0  0  0  0  0  0  0
   -2.2662    5.1277    0.0416 C   0  0  0  0  0  0  0  0  0  0  0  0
   -1.7213    4.0466    0.6753 F   0  0  0  0  0  0  0  0  0  0  0  0
   -1.2500    5.7734   -0.5651 F   0  0  0  0  0  0  0  0  0  0  0  0
   -2.7482    5.9368    1.0042 F   0  0  0  0  0  0  0  0  0  0  0  0
  1  2  1  0  0  0  0
  1 11  1  0  0  0  0
  2  3  1  0  0  0  0
  4  1  2  0  0  0  0
  5  6  2  0  0  0  0
  5  4  1  0  0  0  0
  6 10  1  0  0  0  0
  7  6  1  0  0  0  0
  7  9  2  0  0  0  0
  8  7  2  0  0  0  0
 10 14  1  0  0  0  0
 10 11  2  0  0  0  0
 11 15  1  0  0  0  0
 12  4  1  0  0  0  0
 13  5  1  0  0  0  0
 16 17  2  0  0  0  0
 17 19  1  0  0  0  0
 18 17  1  0  0  0  0
 19 20  1  0  0  0  0
 19 22  1  0  0  0  0
 21 19  1  0  0  0  0
M  RAD  3   2   2   3   3  18   2
M  END
