Coordinates from ORCA-job 4-NO2PhN2+~CF3COO-_B3LYPG-6-31G_dp-NX-Scan-d89-09-n800
 OpenBabel11261920383D

 22 22  0  0  0  0  0  0  0  0999 V2000
   -1.0339    0.9446    0.4059 C   0  0  0  0  0  0  0  0  0  0  0  0
   -1.7783    0.7055    1.5923 N   0  0  0  0  0  0  0  0  0  0  0  0
   -2.7028    1.3197    2.0917 N   0  0  0  0  0  0  0  0  0  0  0  0
   -0.8360    2.1827   -0.2371 C   0  0  0  0  0  0  0  0  0  0  0  0
   -0.0087    2.2425   -1.3536 C   0  0  0  0  0  0  0  0  0  0  0  0
    0.5907    1.0763   -1.8249 C   0  0  0  0  0  0  0  0  0  0  0  0
    1.4529    1.1520   -3.0212 N   0  0  0  0  0  0  0  0  0  0  0  0
    1.6015    2.2543   -3.5433 O   0  0  0  0  0  0  0  0  0  0  0  0
    1.9643    0.1064   -3.4155 O   0  0  0  0  0  0  0  0  0  0  0  0
    0.4122   -0.1569   -1.2030 C   0  0  0  0  0  0  0  0  0  0  0  0
   -0.3885   -0.2103   -0.0695 C   0  0  0  0  0  0  0  0  0  0  0  0
   -1.3152    3.0803    0.1224 H   0  0  0  0  0  0  0  0  0  0  0  0
    0.1704    3.1775   -1.8692 H   0  0  0  0  0  0  0  0  0  0  0  0
    0.9062   -1.0350   -1.5981 H   0  0  0  0  0  0  0  0  0  0  0  0
   -0.5344   -1.1410    0.4672 H   0  0  0  0  0  0  0  0  0  0  0  0
   -3.1157    2.4830    1.2921 O   0  0  0  0  0  0  0  0  0  0  0  0
   -4.1078    3.2065    1.8676 C   0  0  0  0  0  0  0  0  0  0  0  0
   -4.6580    3.0198    2.9127 O   0  0  0  0  0  0  0  0  0  0  0  0
   -4.4444    4.3768    0.9103 C   0  0  0  0  0  0  0  0  0  0  0  0
   -5.0084    3.9054   -0.2146 F   0  0  0  0  0  0  0  0  0  0  0  0
   -5.2854    5.2265    1.4956 F   0  0  0  0  0  0  0  0  0  0  0  0
   -3.3203    5.0425    0.5704 F   0  0  0  0  0  0  0  0  0  0  0  0
  1  2  1  0  0  0  0
  2  3  1  0  0  0  0
  4 12  1  0  0  0  0
  4  1  2  0  0  0  0
  5  4  1  0  0  0  0
  6  5  2  0  0  0  0
  6 10  1  0  0  0  0
  7  6  1  0  0  0  0
  8  7  2  0  0  0  0
  9  7  2  0  0  0  0
 10 11  2  0  0  0  0
 11  1  1  0  0  0  0
 11 15  1  0  0  0  0
 13  5  1  0  0  0  0
 14 10  1  0  0  0  0
 16 17  1  0  0  0  0
 16  3  1  0  0  0  0
 17 18  2  0  0  0  0
 19 21  1  0  0  0  0
 19 17  1  0  0  0  0
 20 19  1  0  0  0  0
 22 19  1  0  0  0  0
M  RAD  2   2   2   3   2
M  END
