Coordinates from ORCA-job 4-NO2PhN2+~CF3COO-_B3LYPG-6-31G_dp-NX-Scan-d89-09-n800
 OpenBabel11261920383D

 22 21  0  0  0  0  0  0  0  0999 V2000
   -0.9953    1.3258   -0.2639 C   0  0  0  0  0  0  0  0  0  0  0  0
   -2.0528    1.5824    0.6705 N   0  0  0  0  0  0  0  0  0  0  0  0
   -2.6345    2.7020    0.5409 N   0  0  0  0  0  0  0  0  0  0  0  0
   -0.5640    2.1780   -1.2950 C   0  0  0  0  0  0  0  0  0  0  0  0
    0.4838    1.7855   -2.1234 C   0  0  0  0  0  0  0  0  0  0  0  0
    1.0891    0.5492   -1.9158 C   0  0  0  0  0  0  0  0  0  0  0  0
    2.1957    0.1409   -2.7923 N   0  0  0  0  0  0  0  0  0  0  0  0
    2.5384    0.9220   -3.6794 O   0  0  0  0  0  0  0  0  0  0  0  0
    2.7101   -0.9569   -2.5836 O   0  0  0  0  0  0  0  0  0  0  0  0
    0.6749   -0.3114   -0.8989 C   0  0  0  0  0  0  0  0  0  0  0  0
   -0.3692    0.0825   -0.0750 C   0  0  0  0  0  0  0  0  0  0  0  0
   -1.0249    3.1433   -1.4690 H   0  0  0  0  0  0  0  0  0  0  0  0
    0.8361    2.4225   -2.9251 H   0  0  0  0  0  0  0  0  0  0  0  0
    1.1721   -1.2646   -0.7715 H   0  0  0  0  0  0  0  0  0  0  0  0
   -0.7213   -0.5559    0.7276 H   0  0  0  0  0  0  0  0  0  0  0  0
   -2.7193    3.5297    0.0822 O   0  0  0  0  0  0  0  0  0  0  0  0
   -4.4658    3.9677    1.6305 C   0  0  0  0  0  0  0  0  0  0  0  0
   -4.0714    2.8666    1.9437 O   0  0  0  0  0  0  0  0  0  0  0  0
   -5.6179    4.5570    2.4658 C   0  0  0  0  0  0  0  0  0  0  0  0
   -6.6407    4.8325    1.6397 F   0  0  0  0  0  0  0  0  0  0  0  0
   -6.0759    3.7598    3.4458 F   0  0  0  0  0  0  0  0  0  0  0  0
   -5.1867    5.7006    3.0244 F   0  0  0  0  0  0  0  0  0  0  0  0
  1 11  1  0  0  0  0
  1  2  1  0  0  0  0
  3  2  1  0  0  0  0
  4  1  2  0  0  0  0
  5  6  2  0  0  0  0
  5  4  1  0  0  0  0
  6 10  1  0  0  0  0
  7  9  2  0  0  0  0
  7  6  1  0  0  0  0
  8  7  2  0  0  0  0
 10 14  1  0  0  0  0
 10 11  2  0  0  0  0
 11 15  1  0  0  0  0
 12  4  1  0  0  0  0
 13  5  1  0  0  0  0
 16  3  2  0  0  0  0
 17 18  2  0  0  0  0
 17 19  1  0  0  0  0
 19 22  1  0  0  0  0
 19 21  1  0  0  0  0
 20 19  1  0  0  0  0
M  RAD  2   2   2  17   2
M  END
