Coordinates from ORCA-job 4-NO2PhN2+~CF3COO-_B3LYPG-6-31G_dp-NX-Scan-d89-09-n800
 OpenBabel11261920383D

 22 22  0  0  1  0  0  0  0  0999 V2000
   -1.8734    0.4490   -0.0769 C   0  0  0  0  0  0  0  0  0  0  0  0
   -3.0050   -0.1518    0.2352 N   0  0  0  0  0  0  0  0  0  0  0  0
   -3.9803   -0.6726    0.5050 N   0  0  0  0  0  0  0  0  0  0  0  0
   -1.9518    1.7584   -0.8003 C   0  0  2  0  0  0  0  0  0  0  0  0
   -0.6552    2.0778   -1.4668 C   0  0  0  0  0  0  0  0  0  0  0  0
    0.4780    1.4486   -1.0941 C   0  0  0  0  0  0  0  0  0  0  0  0
    1.7476    1.8678   -1.7371 N   0  0  0  0  0  0  0  0  0  0  0  0
    1.6963    2.7339   -2.6057 O   0  0  0  0  0  0  0  0  0  0  0  0
    2.7752    1.3147   -1.3513 O   0  0  0  0  0  0  0  0  0  0  0  0
    0.5423    0.3688   -0.1418 C   0  0  0  0  0  0  0  0  0  0  0  0
   -0.6235   -0.1328    0.3365 C   0  0  0  0  0  0  0  0  0  0  0  0
   -2.8001    1.7993   -1.4851 H   0  0  0  0  0  0  0  0  0  0  0  0
   -0.6289    2.8592   -2.2157 H   0  0  0  0  0  0  0  0  0  0  0  0
    1.5048   -0.0373    0.1332 H   0  0  0  0  0  0  0  0  0  0  0  0
   -0.6383   -0.9818    1.0120 H   0  0  0  0  0  0  0  0  0  0  0  0
   -4.4143    2.9245   -0.3091 O   0  0  0  0  0  0  0  0  0  0  0  0
   -3.4399    3.3343    0.2736 C   0  0  0  0  0  0  0  0  0  0  0  0
   -2.1882    2.8794    0.1808 O   0  0  0  0  0  0  0  0  0  0  0  0
   -3.4892    4.5154    1.2712 C   0  0  0  0  0  0  0  0  0  0  0  0
   -2.6908    5.5116    0.8520 F   0  0  0  0  0  0  0  0  0  0  0  0
   -4.7358    4.9780    1.3788 F   0  0  0  0  0  0  0  0  0  0  0  0
   -3.0691    4.1148    2.4839 F   0  0  0  0  0  0  0  0  0  0  0  0
  1  2  1  0  0  0  0
  1 11  2  0  0  0  0
  2  3  1  0  0  0  0
  4 12  1  6  0  0  0
  4  1  1  0  0  0  0
  4 18  1  0  0  0  0
  5  6  2  0  0  0  0
  5  4  1  0  0  0  0
  6 10  1  0  0  0  0
  7  9  2  0  0  0  0
  7  6  1  0  0  0  0
  8  7  2  0  0  0  0
 10 14  1  0  0  0  0
 10 11  1  0  0  0  0
 11 15  1  0  0  0  0
 13  5  1  0  0  0  0
 16 17  2  0  0  0  0
 17 19  1  0  0  0  0
 18 17  1  0  0  0  0
 19 21  1  0  0  0  0
 19 22  1  0  0  0  0
 20 19  1  0  0  0  0
M  RAD  3   2   2   3   3  10   2
M  END
