Coordinates from ORCA-job 4-NO2PhN2+~CF3COO-_B3LYPG-6-31G_dp-NX-Scan-d89-09-n800
 OpenBabel11261920383D

 22 22  0  0  1  0  0  0  0  0999 V2000
   -1.8218    0.2899    0.0521 C   0  0  0  0  0  0  0  0  0  0  0  0
   -2.8915   -0.3597    0.4632 N   0  0  0  0  0  0  0  0  0  0  0  0
   -3.8300   -0.9049    0.8073 N   0  0  0  0  0  0  0  0  0  0  0  0
   -2.0474    1.5894   -0.6531 C   0  0  2  0  0  0  0  0  0  0  0  0
   -0.8220    2.0248   -1.3870 C   0  0  0  0  0  0  0  0  0  0  0  0
    0.3761    1.4748   -1.1032 C   0  0  0  0  0  0  0  0  0  0  0  0
    1.5683    2.0065   -1.8090 N   0  0  0  0  0  0  0  0  0  0  0  0
    1.3997    2.8988   -2.6350 O   0  0  0  0  0  0  0  0  0  0  0  0
    2.6538    1.5070   -1.5208 O   0  0  0  0  0  0  0  0  0  0  0  0
    0.5812    0.3790   -0.1889 C   0  0  0  0  0  0  0  0  0  0  0  0
   -0.5092   -0.2113    0.3606 C   0  0  0  0  0  0  0  0  0  0  0  0
   -2.9239    1.5780   -1.3036 H   0  0  0  0  0  0  0  0  0  0  0  0
   -0.9074    2.8232   -2.1134 H   0  0  0  0  0  0  0  0  0  0  0  0
    1.5865    0.0350    0.0067 H   0  0  0  0  0  0  0  0  0  0  0  0
   -0.4165   -1.0701    1.0169 H   0  0  0  0  0  0  0  0  0  0  0  0
   -3.7517    3.7139   -1.0397 O   0  0  0  0  0  0  0  0  0  0  0  0
   -3.2189    3.5813    0.0347 C   0  0  0  0  0  0  0  0  0  0  0  0
   -2.3591    2.6260    0.3970 O   0  0  0  0  0  0  0  0  0  0  0  0
   -3.4707    4.5341    1.2269 C   0  0  0  0  0  0  0  0  0  0  0  0
   -2.3145    5.0712    1.6498 F   0  0  0  0  0  0  0  0  0  0  0  0
   -4.2977    5.5165    0.8672 F   0  0  0  0  0  0  0  0  0  0  0  0
   -4.0230    3.8559    2.2497 F   0  0  0  0  0  0  0  0  0  0  0  0
  1 11  2  0  0  0  0
  1  2  1  0  0  0  0
  2  3  1  0  0  0  0
  4 12  1  6  0  0  0
  4  1  1  0  0  0  0
  4 18  1  0  0  0  0
  5  6  2  0  0  0  0
  5  4  1  0  0  0  0
  6 10  1  0  0  0  0
  7  9  2  0  0  0  0
  7  6  1  0  0  0  0
  8  7  2  0  0  0  0
 10 14  1  0  0  0  0
 10 11  1  0  0  0  0
 11 15  1  0  0  0  0
 13  5  1  0  0  0  0
 16 17  2  0  0  0  0
 17 18  1  0  0  0  0
 17 19  1  0  0  0  0
 19 20  1  0  0  0  0
 19 22  1  0  0  0  0
 21 19  1  0  0  0  0
M  RAD  3   2   2   3   3  10   2
M  END
