Coordinates from ORCA-job 4-NO2PhN2+~CF3COO-_B3LYPG-6-31G_dp-NX-Scan-d89-09-n800
 OpenBabel11261920383D

 22 22  0  0  1  0  0  0  0  0999 V2000
   -1.8425    0.2178    0.0801 C   0  0  0  0  0  0  0  0  0  0  0  0
   -2.8438   -0.5410    0.4819 N   0  0  0  0  0  0  0  0  0  0  0  0
   -3.6806   -1.2289    0.8351 N   0  0  0  0  0  0  0  0  0  0  0  0
   -2.1441    1.5000   -0.6326 C   0  0  2  0  0  0  0  0  0  0  0  0
   -0.9501    1.9751   -1.3980 C   0  0  0  0  0  0  0  0  0  0  0  0
    0.2801    1.5099   -1.1016 C   0  0  0  0  0  0  0  0  0  0  0  0
    1.4356    2.0847   -1.8346 N   0  0  0  0  0  0  0  0  0  0  0  0
    1.2111    2.9318   -2.6939 O   0  0  0  0  0  0  0  0  0  0  0  0
    2.5511    1.6710   -1.5248 O   0  0  0  0  0  0  0  0  0  0  0  0
    0.5548    0.4620   -0.1509 C   0  0  0  0  0  0  0  0  0  0  0  0
   -0.4976   -0.1844    0.4073 C   0  0  0  0  0  0  0  0  0  0  0  0
   -3.0295    1.4388   -1.2697 H   0  0  0  0  0  0  0  0  0  0  0  0
   -1.0900    2.7431   -2.1470 H   0  0  0  0  0  0  0  0  0  0  0  0
    1.5794    0.1912    0.0595 H   0  0  0  0  0  0  0  0  0  0  0  0
   -0.3527   -1.0202    1.0838 H   0  0  0  0  0  0  0  0  0  0  0  0
   -3.2051    4.0128   -1.1523 O   0  0  0  0  0  0  0  0  0  0  0  0
   -3.0183    3.6714   -0.0095 C   0  0  0  0  0  0  0  0  0  0  0  0
   -2.4991    2.5199    0.4235 O   0  0  0  0  0  0  0  0  0  0  0  0
   -3.3887    4.5567    1.2044 C   0  0  0  0  0  0  0  0  0  0  0  0
   -2.3242    4.7336    2.0042 F   0  0  0  0  0  0  0  0  0  0  0  0
   -3.8222    5.7489    0.7929 F   0  0  0  0  0  0  0  0  0  0  0  0
   -4.3633    3.9652    1.9206 F   0  0  0  0  0  0  0  0  0  0  0  0
  1 11  2  0  0  0  0
  1  2  1  0  0  0  0
  2  3  1  0  0  0  0
  4 12  1  6  0  0  0
  4  1  1  0  0  0  0
  4 18  1  0  0  0  0
  5  6  2  0  0  0  0
  5  4  1  0  0  0  0
  6 10  1  0  0  0  0
  7  9  2  0  0  0  0
  7  6  1  0  0  0  0
  8  7  2  0  0  0  0
 10 14  1  0  0  0  0
 10 11  1  0  0  0  0
 11 15  1  0  0  0  0
 13  5  1  0  0  0  0
 16 17  2  0  0  0  0
 17 18  1  0  0  0  0
 17 19  1  0  0  0  0
 19 22  1  0  0  0  0
 19 20  1  0  0  0  0
 21 19  1  0  0  0  0
M  RAD  3   2   2   3   3  10   2
M  END
