Coordinates from ORCA-job 4-NO2PhN2+~CF3COO-_B3LYPG-6-31G_dp-NX-Scan-d89-09-n800
 OpenBabel11261920383D

 22 22  0  0  1  0  0  0  0  0999 V2000
   -1.8636    0.5236   -0.1299 C   0  0  0  0  0  0  0  0  0  0  0  0
   -3.0627    0.0761    0.2105 N   0  0  0  0  0  0  0  0  0  0  0  0
   -4.1686   -0.0246    0.4472 N   0  0  0  0  0  0  0  0  0  0  0  0
   -1.8663    1.8401   -0.8413 C   0  0  2  0  0  0  0  0  0  0  0  0
   -0.5366    2.1286   -1.4416 C   0  0  0  0  0  0  0  0  0  0  0  0
    0.5498    1.4074   -1.0885 C   0  0  0  0  0  0  0  0  0  0  0  0
    1.8547    1.7930   -1.6837 N   0  0  0  0  0  0  0  0  0  0  0  0
    1.8714    2.7216   -2.4865 O   0  0  0  0  0  0  0  0  0  0  0  0
    2.8405    1.1523   -1.3256 O   0  0  0  0  0  0  0  0  0  0  0  0
    0.5353    0.2672   -0.2121 C   0  0  0  0  0  0  0  0  0  0  0  0
   -0.6692   -0.1740    0.2363 C   0  0  0  0  0  0  0  0  0  0  0  0
   -2.6803    1.9121   -1.5673 H   0  0  0  0  0  0  0  0  0  0  0  0
   -0.4448    2.9509   -2.1394 H   0  0  0  0  0  0  0  0  0  0  0  0
    1.4650   -0.2222    0.0373 H   0  0  0  0  0  0  0  0  0  0  0  0
   -0.7490   -1.0541    0.8658 H   0  0  0  0  0  0  0  0  0  0  0  0
   -4.3143    2.3404    0.3424 O   0  0  0  0  0  0  0  0  0  0  0  0
   -3.4125    3.1339    0.5062 C   0  0  0  0  0  0  0  0  0  0  0  0
   -2.1515    3.0112    0.1079 O   0  0  0  0  0  0  0  0  0  0  0  0
   -3.6157    4.4867    1.2277 C   0  0  0  0  0  0  0  0  0  0  0  0
   -3.4731    5.4946    0.3480 F   0  0  0  0  0  0  0  0  0  0  0  0
   -4.8382    4.5498    1.7586 F   0  0  0  0  0  0  0  0  0  0  0  0
   -2.7096    4.6445    2.2063 F   0  0  0  0  0  0  0  0  0  0  0  0
  1  2  1  0  0  0  0
  1 11  2  0  0  0  0
  2  3  1  0  0  0  0
  4 12  1  6  0  0  0
  4  1  1  0  0  0  0
  4 18  1  0  0  0  0
  5  6  2  0  0  0  0
  5  4  1  0  0  0  0
  6 10  1  0  0  0  0
  7  9  2  0  0  0  0
  7  6  1  0  0  0  0
  8  7  2  0  0  0  0
 10 14  1  0  0  0  0
 10 11  1  0  0  0  0
 11 15  1  0  0  0  0
 13  5  1  0  0  0  0
 16 17  2  0  0  0  0
 17 19  1  0  0  0  0
 18 17  1  0  0  0  0
 19 21  1  0  0  0  0
 19 22  1  0  0  0  0
 20 19  1  0  0  0  0
M  RAD  3   2   2   3   3  10   2
M  END
