Coordinates from ORCA-job 4-NO2PhN2+~CF3COO-_B3LYPG-6-31G_dp-NX-Scan-d89-09-n800
 OpenBabel11261920383D

 22 21  0  0  0  0  0  0  0  0999 V2000
   -1.8625    0.2764    0.2969 C   0  0  0  0  0  0  0  0  0  0  0  0
   -2.7619   -0.5376    0.9025 N   0  0  0  0  0  0  0  0  0  0  0  0
   -3.4461   -1.2733    1.4116 N   0  0  0  0  0  0  0  0  0  0  0  0
   -2.2086    0.9028   -0.9244 C   0  0  0  0  0  0  0  0  0  0  0  0
   -1.1756    1.5635   -1.6107 C   0  0  0  0  0  0  0  0  0  0  0  0
    0.0754    1.6360   -1.0375 C   0  0  0  0  0  0  0  0  0  0  0  0
    1.1488    2.3350   -1.7728 N   0  0  0  0  0  0  0  0  0  0  0  0
    0.8809    2.7693   -2.8879 O   0  0  0  0  0  0  0  0  0  0  0  0
    2.2418    2.4178   -1.2156 O   0  0  0  0  0  0  0  0  0  0  0  0
    0.3902    1.0862    0.2276 C   0  0  0  0  0  0  0  0  0  0  0  0
   -0.5757    0.3985    0.9095 C   0  0  0  0  0  0  0  0  0  0  0  0
   -3.1789    0.7605   -1.3739 H   0  0  0  0  0  0  0  0  0  0  0  0
   -1.3774    2.0405   -2.5592 H   0  0  0  0  0  0  0  0  0  0  0  0
    1.3867    1.2188    0.6280 H   0  0  0  0  0  0  0  0  0  0  0  0
   -0.3869   -0.0500    1.8772 H   0  0  0  0  0  0  0  0  0  0  0  0
   -3.5125    5.2212   -0.8808 O   0  0  0  0  0  0  0  0  0  0  0  0
   -3.2721    4.0712   -0.5198 C   0  0  0  0  0  0  0  0  0  0  0  0
   -3.3760    2.9895   -1.1962 O   0  0  0  0  0  0  0  0  0  0  0  0
   -2.7478    3.8544    0.9309 C   0  0  0  0  0  0  0  0  0  0  0  0
   -3.3096    2.7580    1.5181 F   0  0  0  0  0  0  0  0  0  0  0  0
   -1.4028    3.6232    0.9191 F   0  0  0  0  0  0  0  0  0  0  0  0
   -2.9685    4.8972    1.7356 F   0  0  0  0  0  0  0  0  0  0  0  0
  1  2  1  0  0  0  0
  1 11  1  0  0  0  0
  2  3  1  0  0  0  0
  4  1  2  0  0  0  0
  5  6  2  0  0  0  0
  5  4  1  0  0  0  0
  6 10  1  0  0  0  0
  7  9  2  0  0  0  0
  7  6  1  0  0  0  0
  8  7  2  0  0  0  0
 10 14  1  0  0  0  0
 10 11  2  0  0  0  0
 11 15  1  0  0  0  0
 12  4  1  0  0  0  0
 13  5  1  0  0  0  0
 16 17  1  0  0  0  0
 17 19  1  0  0  0  0
 18 17  2  0  0  0  0
 19 20  1  0  0  0  0
 19 22  1  0  0  0  0
 21 19  1  0  0  0  0
M  RAD  3   2   2   3   3  16   2
M  END
