Coordinates from ORCA-job 4-NO2PhN2+~CF3COO-_B3LYPG-6-31G_dp-NX-Scan-d89-09-n800
 OpenBabel11261920383D

 22 21  0  0  0  0  0  0  0  0999 V2000
   -1.7261   -0.5839    0.2734 C   0  0  0  0  0  0  0  0  0  0  0  0
   -2.4966   -1.6501    0.6329 N   0  0  0  0  0  0  0  0  0  0  0  0
   -3.0900   -2.5550    0.9456 N   0  0  0  0  0  0  0  0  0  0  0  0
   -2.3041    0.4896   -0.4457 C   0  0  0  0  0  0  0  0  0  0  0  0
   -1.4688    1.5210   -0.8525 C   0  0  0  0  0  0  0  0  0  0  0  0
   -0.1221    1.4732   -0.4958 C   0  0  0  0  0  0  0  0  0  0  0  0
    0.7723    2.5549   -0.9547 N   0  0  0  0  0  0  0  0  0  0  0  0
    0.3029    3.3789   -1.7276 O   0  0  0  0  0  0  0  0  0  0  0  0
    1.9281    2.5352   -0.5296 O   0  0  0  0  0  0  0  0  0  0  0  0
    0.4385    0.4398    0.2690 C   0  0  0  0  0  0  0  0  0  0  0  0
   -0.3564   -0.6195    0.6530 C   0  0  0  0  0  0  0  0  0  0  0  0
   -3.3646    0.5345   -0.6669 H   0  0  0  0  0  0  0  0  0  0  0  0
   -1.9203    2.3701   -1.3661 H   0  0  0  0  0  0  0  0  0  0  0  0
    1.4878    0.4846    0.5323 H   0  0  0  0  0  0  0  0  0  0  0  0
    0.0366   -1.4537    1.2221 H   0  0  0  0  0  0  0  0  0  0  0  0
   -4.2124    5.4962   -1.3221 O   0  0  0  0  0  0  0  0  0  0  0  0
   -3.4982    4.5895   -0.8758 C   0  0  0  0  0  0  0  0  0  0  0  0
   -3.5745    3.3473   -1.1185 O   0  0  0  0  0  0  0  0  0  0  0  0
   -2.3491    5.0446    0.0743 C   0  0  0  0  0  0  0  0  0  0  0  0
   -1.7601    3.9985    0.7247 F   0  0  0  0  0  0  0  0  0  0  0  0
   -1.3721    5.6706   -0.6146 F   0  0  0  0  0  0  0  0  0  0  0  0
   -2.7903    5.8930    1.0212 F   0  0  0  0  0  0  0  0  0  0  0  0
  1  2  1  0  0  0  0
  1 11  1  0  0  0  0
  2  3  1  0  0  0  0
  4  1  2  0  0  0  0
  5  6  2  0  0  0  0
  5  4  1  0  0  0  0
  6 10  1  0  0  0  0
  7  9  2  0  0  0  0
  7  6  1  0  0  0  0
  8  7  2  0  0  0  0
 10 14  1  0  0  0  0
 10 11  2  0  0  0  0
 11 15  1  0  0  0  0
 12  4  1  0  0  0  0
 13  5  1  0  0  0  0
 16 17  2  0  0  0  0
 17 19  1  0  0  0  0
 18 17  1  0  0  0  0
 19 20  1  0  0  0  0
 19 22  1  0  0  0  0
 21 19  1  0  0  0  0
M  RAD  3   2   2   3   3  18   2
M  END
