Coordinates from ORCA-job 4-NO2PhN2+~CF3COO-_B3LYPG-6-31G_dp-NX-Scan-d89-09-n800
 OpenBabel11261920383D

 22 22  0  0  1  0  0  0  0  0999 V2000
   -1.8821    0.1868    0.0738 C   0  0  1  0  0  0  0  0  0  0  0  0
   -2.8247   -0.6726    0.4174 N   0  0  0  0  0  0  0  0  0  0  0  0
   -3.5690   -1.4763    0.7354 N   0  0  0  0  0  0  0  0  0  0  0  0
   -2.2212    1.4447   -0.6710 C   0  0  2  0  0  0  0  0  0  0  0  0
   -1.0356    1.9201   -1.4520 C   0  0  0  0  0  0  0  0  0  0  0  0
    0.2077    1.5397   -1.0948 C   0  0  0  0  0  0  0  0  0  0  0  0
    1.3534    2.1167   -1.8404 N   0  0  0  0  0  0  0  0  0  0  0  0
    1.1117    2.8696   -2.7789 O   0  0  0  0  0  0  0  0  0  0  0  0
    2.4789    1.8005   -1.4597 O   0  0  0  0  0  0  0  0  0  0  0  0
    0.5056    0.5711   -0.0701 C   0  0  0  0  0  0  0  0  0  0  0  0
   -0.5280   -0.1138    0.4759 C   0  0  0  0  0  0  0  0  0  0  0  0
   -3.1050    1.3377   -1.3041 H   0  0  0  0  0  0  0  0  0  0  0  0
   -1.1904    2.6287   -2.2538 H   0  0  0  0  0  0  0  0  0  0  0  0
    1.5348    0.3782    0.1965 H   0  0  0  0  0  0  0  0  0  0  0  0
   -0.3616   -0.9086    1.1956 H   0  0  0  0  0  0  0  0  0  0  0  0
   -2.8879    4.1889   -1.1404 O   0  0  0  0  0  0  0  0  0  0  0  0
   -2.9024    3.7206   -0.0275 C   0  0  0  0  0  0  0  0  0  0  0  0
   -2.6094    2.4766    0.3653 O   0  0  0  0  0  0  0  0  0  0  0  0
   -3.2908    4.5536    1.2195 C   0  0  0  0  0  0  0  0  0  0  0  0
   -2.2696    4.5917    2.0931 F   0  0  0  0  0  0  0  0  0  0  0  0
   -3.5998    5.8015    0.8641 F   0  0  0  0  0  0  0  0  0  0  0  0
   -4.3541    4.0038    1.8344 F   0  0  0  0  0  0  0  0  0  0  0  0
  1  2  1  1  0  0  0
  1 11  1  0  0  0  0
  2  3  1  0  0  0  0
  4 12  1  6  0  0  0
  4  1  1  0  0  0  0
  4 18  1  0  0  0  0
  5  6  2  0  0  0  0
  5  4  1  0  0  0  0
  6 10  1  0  0  0  0
  7  9  2  0  0  0  0
  7  6  1  0  0  0  0
  8  7  2  0  0  0  0
 10 14  1  0  0  0  0
 10 11  2  0  0  0  0
 11 15  1  0  0  0  0
 13  5  1  0  0  0  0
 16 17  2  0  0  0  0
 17 18  1  0  0  0  0
 17 19  1  0  0  0  0
 19 22  1  0  0  0  0
 19 20  1  0  0  0  0
 21 19  1  0  0  0  0
M  RAD  3   1   2   2   2   3   3
M  END
