Coordinates from ORCA-job 4-NO2PhN2+~CF3COO-_B3LYPG-6-31G_dp-NX-Scan-d89-09-n800
 OpenBabel11261920383D

 22 21  0  0  0  0  0  0  0  0999 V2000
   -1.8505   -0.0983    0.2891 C   0  0  0  0  0  0  0  0  0  0  0  0
   -2.6830   -1.0637    0.7682 N   0  0  0  0  0  0  0  0  0  0  0  0
   -3.2926   -1.9204    1.1717 N   0  0  0  0  0  0  0  0  0  0  0  0
   -2.2791    0.7467   -0.7620 C   0  0  0  0  0  0  0  0  0  0  0  0
   -1.3252    1.5970   -1.3213 C   0  0  0  0  0  0  0  0  0  0  0  0
   -0.0474    1.6280   -0.7844 C   0  0  0  0  0  0  0  0  0  0  0  0
    0.9498    2.5323   -1.3865 N   0  0  0  0  0  0  0  0  0  0  0  0
    0.6161    3.1497   -2.3909 O   0  0  0  0  0  0  0  0  0  0  0  0
    2.0520    2.5853   -0.8425 O   0  0  0  0  0  0  0  0  0  0  0  0
    0.3508    0.8443    0.3157 C   0  0  0  0  0  0  0  0  0  0  0  0
   -0.5448   -0.0398    0.8634 C   0  0  0  0  0  0  0  0  0  0  0  0
   -3.2896    0.7292   -1.1460 H   0  0  0  0  0  0  0  0  0  0  0  0
   -1.6055    2.2561   -2.1300 H   0  0  0  0  0  0  0  0  0  0  0  0
    1.3556    0.9497    0.7038 H   0  0  0  0  0  0  0  0  0  0  0  0
   -0.2838   -0.6784    1.6990 H   0  0  0  0  0  0  0  0  0  0  0  0
   -3.8709    5.2886   -1.0929 O   0  0  0  0  0  0  0  0  0  0  0  0
   -3.4143    4.2221   -0.6761 C   0  0  0  0  0  0  0  0  0  0  0  0
   -3.6068    3.0446   -1.1239 O   0  0  0  0  0  0  0  0  0  0  0  0
   -2.4243    4.2916    0.5269 C   0  0  0  0  0  0  0  0  0  0  0  0
   -2.5239    3.2109    1.3483 F   0  0  0  0  0  0  0  0  0  0  0  0
   -1.1363    4.2986    0.0693 F   0  0  0  0  0  0  0  0  0  0  0  0
   -2.5860    5.3852    1.2795 F   0  0  0  0  0  0  0  0  0  0  0  0
  1  2  1  0  0  0  0
  1 11  1  0  0  0  0
  2  3  1  0  0  0  0
  4  1  2  0  0  0  0
  5  6  2  0  0  0  0
  5  4  1  0  0  0  0
  6 10  1  0  0  0  0
  7  9  2  0  0  0  0
  7  6  1  0  0  0  0
  8  7  2  0  0  0  0
 10 14  1  0  0  0  0
 10 11  2  0  0  0  0
 11 15  1  0  0  0  0
 12  4  1  0  0  0  0
 13  5  1  0  0  0  0
 16 17  1  0  0  0  0
 17 19  1  0  0  0  0
 18 17  2  0  0  0  0
 19 22  1  0  0  0  0
 19 20  1  0  0  0  0
 21 19  1  0  0  0  0
M  RAD  3   2   2   3   3  16   2
M  END
