Coordinates from ORCA-job 4-NO2PhN2+~CF3COO-_B3LYPG-6-31G_dp-NX-Scan-d89-09-n800
 OpenBabel11261920383D

 22 22  0  0  0  0  0  0  0  0999 V2000
   -1.1524    0.7674    0.1905 C   0  0  0  0  0  0  0  0  0  0  0  0
   -2.0525    0.5196    1.2494 N   0  0  0  0  0  0  0  0  0  0  0  0
   -2.9408    1.0311    1.8213 N   0  0  0  0  0  0  0  0  0  0  0  0
   -1.1145    1.9662   -0.5463 C   0  0  0  0  0  0  0  0  0  0  0  0
   -0.1662    2.0884   -1.5570 C   0  0  0  0  0  0  0  0  0  0  0  0
    0.7039    1.0295   -1.8105 C   0  0  0  0  0  0  0  0  0  0  0  0
    1.7040    1.1750   -2.8924 N   0  0  0  0  0  0  0  0  0  0  0  0
    1.7118    2.2337   -3.5134 O   0  0  0  0  0  0  0  0  0  0  0  0
    2.4559    0.2250   -3.0930 O   0  0  0  0  0  0  0  0  0  0  0  0
    0.6729   -0.1612   -1.0887 C   0  0  0  0  0  0  0  0  0  0  0  0
   -0.2671   -0.2890   -0.0740 C   0  0  0  0  0  0  0  0  0  0  0  0
   -1.8080    2.7644   -0.3234 H   0  0  0  0  0  0  0  0  0  0  0  0
   -0.0942    2.9910   -2.1508 H   0  0  0  0  0  0  0  0  0  0  0  0
    1.3719   -0.9527   -1.3264 H   0  0  0  0  0  0  0  0  0  0  0  0
   -0.3308   -1.1934    0.5202 H   0  0  0  0  0  0  0  0  0  0  0  0
   -3.3477    2.5900    1.0858 O   0  0  0  0  0  0  0  0  0  0  0  0
   -4.0185    3.3594    1.9190 C   0  0  0  0  0  0  0  0  0  0  0  0
   -4.2653    3.1950    3.0895 O   0  0  0  0  0  0  0  0  0  0  0  0
   -4.5131    4.6200    1.1526 C   0  0  0  0  0  0  0  0  0  0  0  0
   -5.5267    4.2929    0.3277 F   0  0  0  0  0  0  0  0  0  0  0  0
   -4.9406    5.5594    1.9991 F   0  0  0  0  0  0  0  0  0  0  0  0
   -3.5216    5.1475    0.3993 F   0  0  0  0  0  0  0  0  0  0  0  0
  1  2  1  0  0  0  0
  2  3  1  0  0  0  0
  4 12  1  0  0  0  0
  4  1  2  0  0  0  0
  5  4  1  0  0  0  0
  6  5  2  0  0  0  0
  6 10  1  0  0  0  0
  7  6  1  0  0  0  0
  8  7  2  0  0  0  0
  9  7  2  0  0  0  0
 10 11  2  0  0  0  0
 11  1  1  0  0  0  0
 11 15  1  0  0  0  0
 13  5  1  0  0  0  0
 14 10  1  0  0  0  0
 16  3  1  0  0  0  0
 16 17  1  0  0  0  0
 17 18  2  0  0  0  0
 19 17  1  0  0  0  0
 19 21  1  0  0  0  0
 20 19  1  0  0  0  0
 22 19  1  0  0  0  0
M  RAD  2   2   2   3   2
M  END
