Coordinates from ORCA-job 4-NO2PhN2+~CF3COO-_B3LYPG-6-31G_dp-NX-Scan-d89-09-n800
 OpenBabel11261920383D

 22 22  0  0  1  0  0  0  0  0999 V2000
   -1.8224    0.2869    0.0532 C   0  0  0  0  0  0  0  0  0  0  0  0
   -2.8903   -0.3651    0.4652 N   0  0  0  0  0  0  0  0  0  0  0  0
   -3.8266   -0.9133    0.8105 N   0  0  0  0  0  0  0  0  0  0  0  0
   -2.0502    1.5863   -0.6517 C   0  0  2  0  0  0  0  0  0  0  0  0
   -0.8258    2.0234   -1.3862 C   0  0  0  0  0  0  0  0  0  0  0  0
    0.3732    1.4750   -1.1035 C   0  0  0  0  0  0  0  0  0  0  0  0
    1.5643    2.0084   -1.8100 N   0  0  0  0  0  0  0  0  0  0  0  0
    1.3946    2.9048   -2.6314 O   0  0  0  0  0  0  0  0  0  0  0  0
    2.6513    1.5140   -1.5188 O   0  0  0  0  0  0  0  0  0  0  0  0
    0.5805    0.3793   -0.1896 C   0  0  0  0  0  0  0  0  0  0  0  0
   -0.5088   -0.2125    0.3605 C   0  0  0  0  0  0  0  0  0  0  0  0
   -2.9270    1.5739   -1.3018 H   0  0  0  0  0  0  0  0  0  0  0  0
   -0.9129    2.8220   -2.1124 H   0  0  0  0  0  0  0  0  0  0  0  0
    1.5864    0.0366    0.0052 H   0  0  0  0  0  0  0  0  0  0  0  0
   -0.4144   -1.0714    1.0165 H   0  0  0  0  0  0  0  0  0  0  0  0
   -3.7365    3.7232   -1.0458 O   0  0  0  0  0  0  0  0  0  0  0  0
   -3.2143    3.5833    0.0328 C   0  0  0  0  0  0  0  0  0  0  0  0
   -2.3630    2.6219    0.3991 O   0  0  0  0  0  0  0  0  0  0  0  0
   -3.4682    4.5354    1.2251 C   0  0  0  0  0  0  0  0  0  0  0  0
   -2.3116    5.0657    1.6556 F   0  0  0  0  0  0  0  0  0  0  0  0
   -4.2878    5.5228    0.8622 F   0  0  0  0  0  0  0  0  0  0  0  0
   -4.0300    3.8586    2.2436 F   0  0  0  0  0  0  0  0  0  0  0  0
  1 11  2  0  0  0  0
  1  2  1  0  0  0  0
  2  3  1  0  0  0  0
  4 12  1  6  0  0  0
  4  1  1  0  0  0  0
  4 18  1  0  0  0  0
  5  6  2  0  0  0  0
  5  4  1  0  0  0  0
  6 10  1  0  0  0  0
  7  9  2  0  0  0  0
  7  6  1  0  0  0  0
  8  7  2  0  0  0  0
 10 14  1  0  0  0  0
 10 11  1  0  0  0  0
 11 15  1  0  0  0  0
 13  5  1  0  0  0  0
 16 17  2  0  0  0  0
 17 18  1  0  0  0  0
 17 19  1  0  0  0  0
 19 20  1  0  0  0  0
 19 22  1  0  0  0  0
 21 19  1  0  0  0  0
M  RAD  3   2   2   3   3  10   2
M  END
