Coordinates from ORCA-job 4-NO2PhN2+~CF3COO-_B3LYPG-6-31G_dp-NX-Scan-d89-09-n800
 OpenBabel11261920383D

 22 22  0  0  1  0  0  0  0  0999 V2000
   -1.8627    0.5229   -0.1294 C   0  0  0  0  0  0  0  0  0  0  0  0
   -3.0623    0.0771    0.2123 N   0  0  0  0  0  0  0  0  0  0  0  0
   -4.1690   -0.0163    0.4488 N   0  0  0  0  0  0  0  0  0  0  0  0
   -1.8657    1.8394   -0.8405 C   0  0  2  0  0  0  0  0  0  0  0  0
   -0.5361    2.1287   -1.4403 C   0  0  0  0  0  0  0  0  0  0  0  0
    0.5503    1.4068   -1.0885 C   0  0  0  0  0  0  0  0  0  0  0  0
    1.8550    1.7929   -1.6837 N   0  0  0  0  0  0  0  0  0  0  0  0
    1.8719    2.7236   -2.4842 O   0  0  0  0  0  0  0  0  0  0  0  0
    2.8410    1.1522   -1.3262 O   0  0  0  0  0  0  0  0  0  0  0  0
    0.5359    0.2654   -0.2138 C   0  0  0  0  0  0  0  0  0  0  0  0
   -0.6686   -0.1758    0.2350 C   0  0  0  0  0  0  0  0  0  0  0  0
   -2.6797    1.9117   -1.5664 H   0  0  0  0  0  0  0  0  0  0  0  0
   -0.4443    2.9520   -2.1370 H   0  0  0  0  0  0  0  0  0  0  0  0
    1.4656   -0.2248    0.0343 H   0  0  0  0  0  0  0  0  0  0  0  0
   -0.7484   -1.0567    0.8634 H   0  0  0  0  0  0  0  0  0  0  0  0
   -4.3144    2.3387    0.3451 O   0  0  0  0  0  0  0  0  0  0  0  0
   -3.4133    3.1337    0.5059 C   0  0  0  0  0  0  0  0  0  0  0  0
   -2.1520    3.0105    0.1092 O   0  0  0  0  0  0  0  0  0  0  0  0
   -3.6171    4.4870    1.2264 C   0  0  0  0  0  0  0  0  0  0  0  0
   -3.4763    5.4942    0.3456 F   0  0  0  0  0  0  0  0  0  0  0  0
   -4.8392    4.5495    1.7584 F   0  0  0  0  0  0  0  0  0  0  0  0
   -2.7102    4.6466    2.2040 F   0  0  0  0  0  0  0  0  0  0  0  0
  1  2  1  0  0  0  0
  1 11  2  0  0  0  0
  2  3  1  0  0  0  0
  4 12  1  6  0  0  0
  4  1  1  0  0  0  0
  4 18  1  0  0  0  0
  5  6  2  0  0  0  0
  5  4  1  0  0  0  0
  6 10  1  0  0  0  0
  7  9  2  0  0  0  0
  7  6  1  0  0  0  0
  8  7  2  0  0  0  0
 10 14  1  0  0  0  0
 10 11  1  0  0  0  0
 11 15  1  0  0  0  0
 13  5  1  0  0  0  0
 16 17  2  0  0  0  0
 17 19  1  0  0  0  0
 18 17  1  0  0  0  0
 19 21  1  0  0  0  0
 19 22  1  0  0  0  0
 20 19  1  0  0  0  0
M  RAD  3   2   2   3   3  10   2
M  END
