Coordinates from ORCA-job 4-NO2PhN2+~CF3COO-_B3LYPG-6-31G_dp-NX-Scan-d89-09-n800
 OpenBabel11261920383D

 22 22  0  0  1  0  0  0  0  0999 V2000
   -1.9025    0.5293   -0.1266 C   0  0  0  0  0  0  0  0  0  0  0  0
   -3.0589   -0.0464    0.1469 N   0  0  0  0  0  0  0  0  0  0  0  0
   -4.0575   -0.5358    0.3781 N   0  0  0  0  0  0  0  0  0  0  0  0
   -1.9230    1.8284   -0.8708 C   0  0  2  0  0  0  0  0  0  0  0  0
   -0.6024    2.0958   -1.5117 C   0  0  0  0  0  0  0  0  0  0  0  0
    0.5022    1.4431   -1.0952 C   0  0  0  0  0  0  0  0  0  0  0  0
    1.7990    1.8106   -1.7158 N   0  0  0  0  0  0  0  0  0  0  0  0
    1.7939    2.6556   -2.6063 O   0  0  0  0  0  0  0  0  0  0  0  0
    2.8008    1.2399   -1.2897 O   0  0  0  0  0  0  0  0  0  0  0  0
    0.5113    0.3828   -0.1202 C   0  0  0  0  0  0  0  0  0  0  0  0
   -0.6819   -0.0791    0.3312 C   0  0  0  0  0  0  0  0  0  0  0  0
   -2.7522    1.8774   -1.5787 H   0  0  0  0  0  0  0  0  0  0  0  0
   -0.5345    2.8580   -2.2773 H   0  0  0  0  0  0  0  0  0  0  0  0
    1.4541   -0.0434    0.1901 H   0  0  0  0  0  0  0  0  0  0  0  0
   -0.7392   -0.9167    1.0187 H   0  0  0  0  0  0  0  0  0  0  0  0
   -4.3775    2.5577    0.0961 O   0  0  0  0  0  0  0  0  0  0  0  0
   -3.4152    3.2216    0.4024 C   0  0  0  0  0  0  0  0  0  0  0  0
   -2.1474    2.9964    0.0637 O   0  0  0  0  0  0  0  0  0  0  0  0
   -3.5101    4.4873    1.2858 C   0  0  0  0  0  0  0  0  0  0  0  0
   -3.0001    5.5492    0.6400 F   0  0  0  0  0  0  0  0  0  0  0  0
   -4.7830    4.7411    1.5949 F   0  0  0  0  0  0  0  0  0  0  0  0
   -2.8156    4.3065    2.4227 F   0  0  0  0  0  0  0  0  0  0  0  0
  1  2  1  0  0  0  0
  1 11  2  0  0  0  0
  2  3  1  0  0  0  0
  4 12  1  6  0  0  0
  4  1  1  0  0  0  0
  4 18  1  0  0  0  0
  5  6  2  0  0  0  0
  5  4  1  0  0  0  0
  6 10  1  0  0  0  0
  7  9  2  0  0  0  0
  7  6  1  0  0  0  0
  8  7  2  0  0  0  0
 10 14  1  0  0  0  0
 10 11  1  0  0  0  0
 11 15  1  0  0  0  0
 13  5  1  0  0  0  0
 16 17  2  0  0  0  0
 17 19  1  0  0  0  0
 18 17  1  0  0  0  0
 19 21  1  0  0  0  0
 19 22  1  0  0  0  0
 20 19  1  0  0  0  0
M  RAD  3   2   2   3   3  10   2
M  END
