Coordinates from ORCA-job 4-NO2PhN2+~CF3COO-_B3LYPG-6-31G_dp-NX-Scan-d89-09-n800
 OpenBabel11261920383D

 22 21  0  0  0  0  0  0  0  0999 V2000
   -1.8678    0.4411    0.2704 C   0  0  0  0  0  0  0  0  0  0  0  0
   -2.8188   -0.2641    0.9181 N   0  0  0  0  0  0  0  0  0  0  0  0
   -3.5743   -0.8967    1.4632 N   0  0  0  0  0  0  0  0  0  0  0  0
   -2.1811    1.0062   -0.9943 C   0  0  0  0  0  0  0  0  0  0  0  0
   -1.0954    1.5577   -1.7158 C   0  0  0  0  0  0  0  0  0  0  0  0
    0.1400    1.6292   -1.1231 C   0  0  0  0  0  0  0  0  0  0  0  0
    1.2549    2.2273   -1.8909 N   0  0  0  0  0  0  0  0  0  0  0  0
    1.0218    2.5935   -3.0378 O   0  0  0  0  0  0  0  0  0  0  0  0
    2.3421    2.3043   -1.3229 O   0  0  0  0  0  0  0  0  0  0  0  0
    0.4180    1.1561    0.1856 C   0  0  0  0  0  0  0  0  0  0  0  0
   -0.5849    0.5587    0.8939 C   0  0  0  0  0  0  0  0  0  0  0  0
   -3.1100    0.7647   -1.4855 H   0  0  0  0  0  0  0  0  0  0  0  0
   -1.2532    1.9537   -2.7091 H   0  0  0  0  0  0  0  0  0  0  0  0
    1.4135    1.2764    0.5916 H   0  0  0  0  0  0  0  0  0  0  0  0
   -0.4304    0.1744    1.8947 H   0  0  0  0  0  0  0  0  0  0  0  0
   -3.5331    5.1092   -0.7385 O   0  0  0  0  0  0  0  0  0  0  0  0
   -3.2795    3.9591   -0.4006 C   0  0  0  0  0  0  0  0  0  0  0  0
   -3.3139    2.9000   -1.1289 O   0  0  0  0  0  0  0  0  0  0  0  0
   -2.8600    3.7076    1.0754 C   0  0  0  0  0  0  0  0  0  0  0  0
   -3.4688    2.5990    1.5932 F   0  0  0  0  0  0  0  0  0  0  0  0
   -1.5203    3.4711    1.1550 F   0  0  0  0  0  0  0  0  0  0  0  0
   -3.1386    4.7307    1.8846 F   0  0  0  0  0  0  0  0  0  0  0  0
  1 11  1  0  0  0  0
  1  2  1  0  0  0  0
  2  3  1  0  0  0  0
  4  1  2  0  0  0  0
  5  6  2  0  0  0  0
  5  4  1  0  0  0  0
  6 10  1  0  0  0  0
  7  9  2  0  0  0  0
  7  6  1  0  0  0  0
  8  7  2  0  0  0  0
 10 14  1  0  0  0  0
 10 11  2  0  0  0  0
 11 15  1  0  0  0  0
 12  4  1  0  0  0  0
 13  5  1  0  0  0  0
 16 17  1  0  0  0  0
 17 19  1  0  0  0  0
 18 17  2  0  0  0  0
 19 21  1  0  0  0  0
 19 20  1  0  0  0  0
 19 22  1  0  0  0  0
M  RAD  3   2   2   3   3  16   2
M  END
