Coordinates from ORCA-job 4-NO2PhN2+~CF3COO-_B3LYPG-6-31G_dp-NX-Scan-d89-09-n800
 OpenBabel11261920383D

 22 22  0  0  1  0  0  0  0  0999 V2000
   -1.9075    0.5372   -0.1387 C   0  0  0  0  0  0  0  0  0  0  0  0
   -3.0716   -0.0263    0.1291 N   0  0  0  0  0  0  0  0  0  0  0  0
   -4.0834   -0.4894    0.3539 N   0  0  0  0  0  0  0  0  0  0  0  0
   -1.9151    1.8394   -0.8772 C   0  0  2  0  0  0  0  0  0  0  0  0
   -0.5882    2.1024   -1.5061 C   0  0  0  0  0  0  0  0  0  0  0  0
    0.5089    1.4369   -1.0897 C   0  0  0  0  0  0  0  0  0  0  0  0
    1.8120    1.8007   -1.6995 N   0  0  0  0  0  0  0  0  0  0  0  0
    1.8197    2.6625   -2.5739 O   0  0  0  0  0  0  0  0  0  0  0  0
    2.8077    1.2224   -1.2695 O   0  0  0  0  0  0  0  0  0  0  0  0
    0.5048    0.3668   -0.1256 C   0  0  0  0  0  0  0  0  0  0  0  0
   -0.6948   -0.0874    0.3167 C   0  0  0  0  0  0  0  0  0  0  0  0
   -2.7380    1.8957   -1.5923 H   0  0  0  0  0  0  0  0  0  0  0  0
   -0.5093    2.8721   -2.2632 H   0  0  0  0  0  0  0  0  0  0  0  0
    1.4422   -0.0713    0.1841 H   0  0  0  0  0  0  0  0  0  0  0  0
   -0.7631   -0.9308    0.9961 H   0  0  0  0  0  0  0  0  0  0  0  0
   -4.3534    2.4957    0.1745 O   0  0  0  0  0  0  0  0  0  0  0  0
   -3.4057    3.2011    0.4312 C   0  0  0  0  0  0  0  0  0  0  0  0
   -2.1436    3.0111    0.0551 O   0  0  0  0  0  0  0  0  0  0  0  0
   -3.5186    4.4890    1.2796 C   0  0  0  0  0  0  0  0  0  0  0  0
   -3.1769    5.5585    0.5397 F   0  0  0  0  0  0  0  0  0  0  0  0
   -4.7700    4.6486    1.7140 F   0  0  0  0  0  0  0  0  0  0  0  0
   -2.6959    4.4243    2.3400 F   0  0  0  0  0  0  0  0  0  0  0  0
  1  2  1  0  0  0  0
  1 11  2  0  0  0  0
  2  3  1  0  0  0  0
  4 12  1  6  0  0  0
  4  1  1  0  0  0  0
  4 18  1  0  0  0  0
  5  6  2  0  0  0  0
  5  4  1  0  0  0  0
  6 10  1  0  0  0  0
  7  9  2  0  0  0  0
  7  6  1  0  0  0  0
  8  7  2  0  0  0  0
 10 14  1  0  0  0  0
 10 11  1  0  0  0  0
 11 15  1  0  0  0  0
 13  5  1  0  0  0  0
 16 17  2  0  0  0  0
 17 19  1  0  0  0  0
 18 17  1  0  0  0  0
 19 21  1  0  0  0  0
 19 22  1  0  0  0  0
 20 19  1  0  0  0  0
M  RAD  3   2   2   3   3  10   2
M  END
