Coordinates from ORCA-job 4-NO2PhN2+~CF3COO-_B3LYPG-6-31G_dp-NX-Scan-d89-09-n800
 OpenBabel11261920383D

 22 22  0  0  1  0  0  0  0  0999 V2000
   -1.8399    0.3587   -0.0030 C   0  0  0  0  0  0  0  0  0  0  0  0
   -2.9389   -0.2653    0.3695 N   0  0  0  0  0  0  0  0  0  0  0  0
   -3.8971   -0.7936    0.6848 N   0  0  0  0  0  0  0  0  0  0  0  0
   -2.0000    1.6632   -0.7201 C   0  0  2  0  0  0  0  0  0  0  0  0
   -0.7405    2.0442   -1.4252 C   0  0  0  0  0  0  0  0  0  0  0  0
    0.4299    1.4583   -1.1002 C   0  0  0  0  0  0  0  0  0  0  0  0
    1.6584    1.9388   -1.7793 N   0  0  0  0  0  0  0  0  0  0  0  0
    1.5428    2.8205   -2.6258 O   0  0  0  0  0  0  0  0  0  0  0  0
    2.7199    1.4194   -1.4414 O   0  0  0  0  0  0  0  0  0  0  0  0
    0.5717    0.3702   -0.1655 C   0  0  0  0  0  0  0  0  0  0  0  0
   -0.5541   -0.1792    0.3543 C   0  0  0  0  0  0  0  0  0  0  0  0
   -2.8666    1.6796   -1.3829 H   0  0  0  0  0  0  0  0  0  0  0  0
   -0.7735    2.8343   -2.1650 H   0  0  0  0  0  0  0  0  0  0  0  0
    1.5589   -0.0020    0.0668 H   0  0  0  0  0  0  0  0  0  0  0  0
   -0.5098   -1.0326    1.0227 H   0  0  0  0  0  0  0  0  0  0  0  0
   -4.1610    3.4122   -0.7891 O   0  0  0  0  0  0  0  0  0  0  0  0
   -3.3609    3.4890    0.1106 C   0  0  0  0  0  0  0  0  0  0  0  0
   -2.2725    2.7378    0.3014 O   0  0  0  0  0  0  0  0  0  0  0  0
   -3.4783    4.5219    1.2563 C   0  0  0  0  0  0  0  0  0  0  0  0
   -2.3917    5.3114    1.2847 F   0  0  0  0  0  0  0  0  0  0  0  0
   -4.5601    5.2828    1.0849 F   0  0  0  0  0  0  0  0  0  0  0  0
   -3.5760    3.8897    2.4396 F   0  0  0  0  0  0  0  0  0  0  0  0
  1 11  2  0  0  0  0
  1  2  1  0  0  0  0
  2  3  1  0  0  0  0
  4 12  1  6  0  0  0
  4  1  1  0  0  0  0
  4 18  1  0  0  0  0
  5  6  2  0  0  0  0
  5  4  1  0  0  0  0
  6 10  1  0  0  0  0
  7  9  2  0  0  0  0
  7  6  1  0  0  0  0
  8  7  2  0  0  0  0
 10 14  1  0  0  0  0
 10 11  1  0  0  0  0
 11 15  1  0  0  0  0
 13  5  1  0  0  0  0
 16 17  2  0  0  0  0
 17 18  1  0  0  0  0
 17 19  1  0  0  0  0
 19 20  1  0  0  0  0
 19 22  1  0  0  0  0
 21 19  1  0  0  0  0
M  RAD  3   2   2   3   3  10   2
M  END
