Coordinates from ORCA-job 4-NO2PhN2+~CF3COO-_B3LYPG-6-31G_dp-NX-Scan-d89-09-n800
 OpenBabel11261920383D

 22 21  0  0  0  0  0  0  0  0999 V2000
   -1.2851    0.6785    0.1056 C   0  0  0  0  0  0  0  0  0  0  0  0
   -2.2622    0.3924    1.0826 N   0  0  0  0  0  0  0  0  0  0  0  0
   -3.2064    0.8284    1.6014 N   0  0  0  0  0  0  0  0  0  0  0  0
   -1.3367    1.8297   -0.6995 C   0  0  0  0  0  0  0  0  0  0  0  0
   -0.3226    2.0201   -1.6327 C   0  0  0  0  0  0  0  0  0  0  0  0
    0.6947    1.0729   -1.7381 C   0  0  0  0  0  0  0  0  0  0  0  0
    1.7653    1.2890   -2.7386 N   0  0  0  0  0  0  0  0  0  0  0  0
    1.6962    2.3033   -3.4256 O   0  0  0  0  0  0  0  0  0  0  0  0
    2.6465    0.4368   -2.8093 O   0  0  0  0  0  0  0  0  0  0  0  0
    0.7486   -0.0707   -0.9444 C   0  0  0  0  0  0  0  0  0  0  0  0
   -0.2598   -0.2706   -0.0097 C   0  0  0  0  0  0  0  0  0  0  0  0
   -2.1458    2.5383   -0.5794 H   0  0  0  0  0  0  0  0  0  0  0  0
   -0.3106    2.8903   -2.2772 H   0  0  0  0  0  0  0  0  0  0  0  0
    1.5623   -0.7733   -1.0692 H   0  0  0  0  0  0  0  0  0  0  0  0
   -0.2660   -1.1448    0.6313 H   0  0  0  0  0  0  0  0  0  0  0  0
   -3.7148    2.4638    0.8230 O   0  0  0  0  0  0  0  0  0  0  0  0
   -3.8280    3.3385    1.7854 C   0  0  0  0  0  0  0  0  0  0  0  0
   -3.5390    3.2280    2.9591 O   0  0  0  0  0  0  0  0  0  0  0  0
   -4.3940    4.6722    1.2187 C   0  0  0  0  0  0  0  0  0  0  0  0
   -5.6444    4.5053    0.7500 F   0  0  0  0  0  0  0  0  0  0  0  0
   -4.4164    5.6278    2.1520 F   0  0  0  0  0  0  0  0  0  0  0  0
   -3.6212    5.1032    0.1930 F   0  0  0  0  0  0  0  0  0  0  0  0
  1  2  1  0  0  0  0
  2  3  2  0  0  0  0
  4 12  1  0  0  0  0
  4  1  2  0  0  0  0
  5  4  1  0  0  0  0
  6  5  2  0  0  0  0
  6 10  1  0  0  0  0
  7  6  1  0  0  0  0
  8  7  2  0  0  0  0
  9  7  2  0  0  0  0
 10 11  2  0  0  0  0
 11  1  1  0  0  0  0
 11 15  1  0  0  0  0
 13  5  1  0  0  0  0
 14 10  1  0  0  0  0
 16 17  2  0  0  0  0
 17 18  1  0  0  0  0
 19 17  1  0  0  0  0
 19 21  1  0  0  0  0
 20 19  1  0  0  0  0
 22 19  1  0  0  0  0
M  RAD  2   3   2  18   2
M  END
