Coordinates from ORCA-job 4-NO2PhN2+~CF3COO-_B3LYPG-6-31G_dp-NX-Scan-d89-09-n800
 OpenBabel11261920383D

 22 21  0  0  0  0  0  0  0  0999 V2000
   -1.0031    1.3397   -0.2681 C   0  0  0  0  0  0  0  0  0  0  0  0
   -2.0623    1.5998    0.6632 N   0  0  0  0  0  0  0  0  0  0  0  0
   -2.6303    2.7346    0.5163 N   0  0  0  0  0  0  0  0  0  0  0  0
   -0.5650    2.1844   -1.3029 C   0  0  0  0  0  0  0  0  0  0  0  0
    0.4842    1.7847   -2.1262 C   0  0  0  0  0  0  0  0  0  0  0  0
    1.0854    0.5482   -1.9110 C   0  0  0  0  0  0  0  0  0  0  0  0
    2.1931    0.1324   -2.7818 N   0  0  0  0  0  0  0  0  0  0  0  0
    2.5407    0.9081   -3.6719 O   0  0  0  0  0  0  0  0  0  0  0  0
    2.7039   -0.9657   -2.5659 O   0  0  0  0  0  0  0  0  0  0  0  0
    0.6648   -0.3055   -0.8907 C   0  0  0  0  0  0  0  0  0  0  0  0
   -0.3804    0.0953   -0.0721 C   0  0  0  0  0  0  0  0  0  0  0  0
   -1.0201    3.1510   -1.4870 H   0  0  0  0  0  0  0  0  0  0  0  0
    0.8405    2.4168   -2.9301 H   0  0  0  0  0  0  0  0  0  0  0  0
    1.1585   -1.2597   -0.7565 H   0  0  0  0  0  0  0  0  0  0  0  0
   -0.7365   -0.5384    0.7325 H   0  0  0  0  0  0  0  0  0  0  0  0
   -2.7100    3.5297    0.0809 O   0  0  0  0  0  0  0  0  0  0  0  0
   -4.4552    3.9813    1.6159 C   0  0  0  0  0  0  0  0  0  0  0  0
   -4.0536    2.8736    1.9164 O   0  0  0  0  0  0  0  0  0  0  0  0
   -5.6088    4.5375    2.4710 C   0  0  0  0  0  0  0  0  0  0  0  0
   -6.6432    4.8135    1.6577 F   0  0  0  0  0  0  0  0  0  0  0  0
   -6.0502    3.7190    3.4419 F   0  0  0  0  0  0  0  0  0  0  0  0
   -5.1916    5.6791    3.0467 F   0  0  0  0  0  0  0  0  0  0  0  0
  1 11  1  0  0  0  0
  1  2  1  0  0  0  0
  3  2  1  0  0  0  0
  4  1  2  0  0  0  0
  5  6  2  0  0  0  0
  5  4  1  0  0  0  0
  6 10  1  0  0  0  0
  7  9  2  0  0  0  0
  7  6  1  0  0  0  0
  8  7  2  0  0  0  0
 10 14  1  0  0  0  0
 10 11  2  0  0  0  0
 11 15  1  0  0  0  0
 12  4  1  0  0  0  0
 13  5  1  0  0  0  0
 16  3  2  0  0  0  0
 17 18  2  0  0  0  0
 17 19  1  0  0  0  0
 19 22  1  0  0  0  0
 19 21  1  0  0  0  0
 20 19  1  0  0  0  0
M  RAD  2   2   2  17   2
M  END
