Coordinates from ORCA-job 4-NO2PhN2+~CF3COO-_B3LYPG-6-31G_dp-NX-Scan-d89-09-n800
 OpenBabel11261920383D

 22 22  0  0  0  0  0  0  0  0999 V2000
   -1.1060    0.8399    0.2685 C   0  0  0  0  0  0  0  0  0  0  0  0
   -1.9493    0.5917    1.3764 N   0  0  0  0  0  0  0  0  0  0  0  0
   -2.8386    1.1472    1.9377 N   0  0  0  0  0  0  0  0  0  0  0  0
   -1.0144    2.0549   -0.4389 C   0  0  0  0  0  0  0  0  0  0  0  0
   -0.1104    2.1460   -1.4924 C   0  0  0  0  0  0  0  0  0  0  0  0
    0.6683    1.0391   -1.8252 C   0  0  0  0  0  0  0  0  0  0  0  0
    1.6180    1.1510   -2.9538 N   0  0  0  0  0  0  0  0  0  0  0  0
    1.6713    2.2276   -3.5419 O   0  0  0  0  0  0  0  0  0  0  0  0
    2.2882    0.1580   -3.2253 O   0  0  0  0  0  0  0  0  0  0  0  0
    0.5898   -0.1682   -1.1358 C   0  0  0  0  0  0  0  0  0  0  0  0
   -0.3012   -0.2595   -0.0742 C   0  0  0  0  0  0  0  0  0  0  0  0
   -1.6336    2.8966   -0.1691 H   0  0  0  0  0  0  0  0  0  0  0  0
   -0.0048    3.0611   -2.0615 H   0  0  0  0  0  0  0  0  0  0  0  0
    1.2184   -0.9984   -1.4306 H   0  0  0  0  0  0  0  0  0  0  0  0
   -0.3926   -1.1731    0.5021 H   0  0  0  0  0  0  0  0  0  0  0  0
   -3.2289    2.5702    1.1971 O   0  0  0  0  0  0  0  0  0  0  0  0
   -4.0747    3.3025    1.9183 C   0  0  0  0  0  0  0  0  0  0  0  0
   -4.5012    3.1072    3.0259 O   0  0  0  0  0  0  0  0  0  0  0  0
   -4.4916    4.5388    1.0741 C   0  0  0  0  0  0  0  0  0  0  0  0
   -5.3279    4.1625    0.0887 F   0  0  0  0  0  0  0  0  0  0  0  0
   -5.1062    5.4454    1.8343 F   0  0  0  0  0  0  0  0  0  0  0  0
   -3.4123    5.1186    0.5038 F   0  0  0  0  0  0  0  0  0  0  0  0
  1  2  1  0  0  0  0
  2  3  1  0  0  0  0
  4 12  1  0  0  0  0
  4  1  2  0  0  0  0
  5  4  1  0  0  0  0
  6  5  2  0  0  0  0
  6 10  1  0  0  0  0
  7  6  1  0  0  0  0
  8  7  2  0  0  0  0
  9  7  2  0  0  0  0
 10 11  2  0  0  0  0
 11  1  1  0  0  0  0
 11 15  1  0  0  0  0
 13  5  1  0  0  0  0
 14 10  1  0  0  0  0
 16 17  1  0  0  0  0
 16  3  1  0  0  0  0
 17 18  2  0  0  0  0
 19 21  1  0  0  0  0
 19 17  1  0  0  0  0
 20 19  1  0  0  0  0
 22 19  1  0  0  0  0
M  RAD  2   2   2   3   2
M  END
