Coordinates from ORCA-job 4-NO2PhN2+~CF3COO-_B3LYPG-6-31G_dp-NX-Scan-d89-09-n800
 OpenBabel11261920383D

 22 22  0  0  1  0  0  0  0  0999 V2000
   -1.8398    0.5005   -0.1178 C   0  0  0  0  0  0  0  0  0  0  0  0
   -3.0439    0.0834    0.2586 N   0  0  0  0  0  0  0  0  0  0  0  0
   -4.1567    0.1351    0.4978 N   0  0  0  0  0  0  0  0  0  0  0  0
   -1.8485    1.8230   -0.8088 C   0  0  2  0  0  0  0  0  0  0  0  0
   -0.5257    2.1345   -1.4023 C   0  0  0  0  0  0  0  0  0  0  0  0
    0.5620    1.3944   -1.0884 C   0  0  0  0  0  0  0  0  0  0  0  0
    1.8626    1.7995   -1.6811 N   0  0  0  0  0  0  0  0  0  0  0  0
    1.8754    2.7639   -2.4407 O   0  0  0  0  0  0  0  0  0  0  0  0
    2.8489    1.1384   -1.3642 O   0  0  0  0  0  0  0  0  0  0  0  0
    0.5519    0.2209   -0.2603 C   0  0  0  0  0  0  0  0  0  0  0  0
   -0.6503   -0.2238    0.1951 C   0  0  0  0  0  0  0  0  0  0  0  0
   -2.6686    1.9118   -1.5262 H   0  0  0  0  0  0  0  0  0  0  0  0
   -0.4364    2.9828   -2.0686 H   0  0  0  0  0  0  0  0  0  0  0  0
    1.4809   -0.2864   -0.0466 H   0  0  0  0  0  0  0  0  0  0  0  0
   -0.7283   -1.1231    0.7971 H   0  0  0  0  0  0  0  0  0  0  0  0
   -4.3293    2.3267    0.3771 O   0  0  0  0  0  0  0  0  0  0  0  0
   -3.4249    3.1251    0.5299 C   0  0  0  0  0  0  0  0  0  0  0  0
   -2.1584    2.9906    0.1703 O   0  0  0  0  0  0  0  0  0  0  0  0
   -3.6539    4.5028    1.1951 C   0  0  0  0  0  0  0  0  0  0  0  0
   -3.5068    5.4758    0.2776 F   0  0  0  0  0  0  0  0  0  0  0  0
   -4.8849    4.5754    1.7047 F   0  0  0  0  0  0  0  0  0  0  0  0
   -2.7647    4.7080    2.1799 F   0  0  0  0  0  0  0  0  0  0  0  0
  1 11  2  0  0  0  0
  1  2  1  0  0  0  0
  2  3  1  0  0  0  0
  4 12  1  6  0  0  0
  4  1  1  0  0  0  0
  4 18  1  0  0  0  0
  5  6  2  0  0  0  0
  5  4  1  0  0  0  0
  6 10  1  0  0  0  0
  7  9  2  0  0  0  0
  7  6  1  0  0  0  0
  8  7  2  0  0  0  0
 10 14  1  0  0  0  0
 10 11  1  0  0  0  0
 11 15  1  0  0  0  0
 13  5  1  0  0  0  0
 16 17  2  0  0  0  0
 17 19  1  0  0  0  0
 18 17  1  0  0  0  0
 19 21  1  0  0  0  0
 19 22  1  0  0  0  0
 20 19  1  0  0  0  0
M  RAD  3   2   2   3   3  10   2
M  END
