Coordinates from ORCA-job 4-NO2PhN2+~CF3COO-_B3LYPG-6-31G_dp-NX-Scan-d89-09-n800
 OpenBabel11261920383D

 22 22  0  0  1  0  0  0  0  0999 V2000
   -1.8223    0.2886    0.0525 C   0  0  0  0  0  0  0  0  0  0  0  0
   -2.8911   -0.3623    0.4645 N   0  0  0  0  0  0  0  0  0  0  0  0
   -3.8282   -0.9093    0.8098 N   0  0  0  0  0  0  0  0  0  0  0  0
   -2.0486    1.5881   -0.6530 C   0  0  2  0  0  0  0  0  0  0  0  0
   -0.8236    2.0237   -1.3873 C   0  0  0  0  0  0  0  0  0  0  0  0
    0.3748    1.4742   -1.1039 C   0  0  0  0  0  0  0  0  0  0  0  0
    1.5666    2.0061   -1.8104 N   0  0  0  0  0  0  0  0  0  0  0  0
    1.3980    2.9028   -2.6318 O   0  0  0  0  0  0  0  0  0  0  0  0
    2.6531    1.5114   -1.5180 O   0  0  0  0  0  0  0  0  0  0  0  0
    0.5807    0.3787   -0.1895 C   0  0  0  0  0  0  0  0  0  0  0  0
   -0.5093   -0.2119    0.3605 C   0  0  0  0  0  0  0  0  0  0  0  0
   -2.9253    1.5763   -1.3033 H   0  0  0  0  0  0  0  0  0  0  0  0
   -0.9096    2.8219   -2.1139 H   0  0  0  0  0  0  0  0  0  0  0  0
    1.5862    0.0352    0.0057 H   0  0  0  0  0  0  0  0  0  0  0  0
   -0.4159   -1.0705    1.0169 H   0  0  0  0  0  0  0  0  0  0  0  0
   -3.7468    3.7184   -1.0421 O   0  0  0  0  0  0  0  0  0  0  0  0
   -3.2169    3.5829    0.0334 C   0  0  0  0  0  0  0  0  0  0  0  0
   -2.3604    2.6249    0.3970 O   0  0  0  0  0  0  0  0  0  0  0  0
   -3.4694    4.5348    1.2262 C   0  0  0  0  0  0  0  0  0  0  0  0
   -2.3130    5.0694    1.6518 F   0  0  0  0  0  0  0  0  0  0  0  0
   -4.2939    5.5191    0.8660 F   0  0  0  0  0  0  0  0  0  0  0  0
   -4.0248    3.8566    2.2472 F   0  0  0  0  0  0  0  0  0  0  0  0
  1 11  2  0  0  0  0
  1  2  1  0  0  0  0
  2  3  1  0  0  0  0
  4 12  1  6  0  0  0
  4  1  1  0  0  0  0
  4 18  1  0  0  0  0
  5  6  2  0  0  0  0
  5  4  1  0  0  0  0
  6 10  1  0  0  0  0
  7  9  2  0  0  0  0
  7  6  1  0  0  0  0
  8  7  2  0  0  0  0
 10 14  1  0  0  0  0
 10 11  1  0  0  0  0
 11 15  1  0  0  0  0
 13  5  1  0  0  0  0
 16 17  2  0  0  0  0
 17 18  1  0  0  0  0
 17 19  1  0  0  0  0
 19 20  1  0  0  0  0
 19 22  1  0  0  0  0
 21 19  1  0  0  0  0
M  RAD  3   2   2   3   3  10   2
M  END
