Coordinates from ORCA-job 4-NO2PhN2+~CF3COO-_B3LYPG-6-31G_dp-NX-Scan-d89-09-n800
 OpenBabel11261920383D

 22 22  0  0  1  0  0  0  0  0999 V2000
   -1.8581    0.5181   -0.1269 C   0  0  0  0  0  0  0  0  0  0  0  0
   -3.0586    0.0783    0.2215 N   0  0  0  0  0  0  0  0  0  0  0  0
   -4.1677    0.0126    0.4587 N   0  0  0  0  0  0  0  0  0  0  0  0
   -1.8627    1.8364   -0.8341 C   0  0  2  0  0  0  0  0  0  0  0  0
   -0.5342    2.1300   -1.4327 C   0  0  0  0  0  0  0  0  0  0  0  0
    0.5526    1.4046   -1.0884 C   0  0  0  0  0  0  0  0  0  0  0  0
    1.8564    1.7947   -1.6831 N   0  0  0  0  0  0  0  0  0  0  0  0
    1.8721    2.7317   -2.4763 O   0  0  0  0  0  0  0  0  0  0  0  0
    2.8425    1.1496   -1.3340 O   0  0  0  0  0  0  0  0  0  0  0  0
    0.5393    0.2568   -0.2226 C   0  0  0  0  0  0  0  0  0  0  0  0
   -0.6645   -0.1854    0.2275 C   0  0  0  0  0  0  0  0  0  0  0  0
   -2.6774    1.9107   -1.5592 H   0  0  0  0  0  0  0  0  0  0  0  0
   -0.4430    2.9584   -2.1235 H   0  0  0  0  0  0  0  0  0  0  0  0
    1.4691   -0.2367    0.0188 H   0  0  0  0  0  0  0  0  0  0  0  0
   -0.7437   -1.0699    0.8509 H   0  0  0  0  0  0  0  0  0  0  0  0
   -4.3184    2.3370    0.3503 O   0  0  0  0  0  0  0  0  0  0  0  0
   -3.4164    3.1319    0.5102 C   0  0  0  0  0  0  0  0  0  0  0  0
   -2.1538    3.0063    0.1200 O   0  0  0  0  0  0  0  0  0  0  0  0
   -3.6239    4.4901    1.2204 C   0  0  0  0  0  0  0  0  0  0  0  0
   -3.4802    5.4910    0.3330 F   0  0  0  0  0  0  0  0  0  0  0  0
   -4.8481    4.5558    1.7473 F   0  0  0  0  0  0  0  0  0  0  0  0
   -2.7209    4.6571    2.2003 F   0  0  0  0  0  0  0  0  0  0  0  0
  1  2  1  0  0  0  0
  1 11  2  0  0  0  0
  2  3  1  0  0  0  0
  4 12  1  6  0  0  0
  4  1  1  0  0  0  0
  4 18  1  0  0  0  0
  5  6  2  0  0  0  0
  5  4  1  0  0  0  0
  6 10  1  0  0  0  0
  7  9  2  0  0  0  0
  7  6  1  0  0  0  0
  8  7  2  0  0  0  0
 10 14  1  0  0  0  0
 10 11  1  0  0  0  0
 11 15  1  0  0  0  0
 13  5  1  0  0  0  0
 16 17  2  0  0  0  0
 17 19  1  0  0  0  0
 18 17  1  0  0  0  0
 19 21  1  0  0  0  0
 19 22  1  0  0  0  0
 20 19  1  0  0  0  0
M  RAD  3   2   2   3   3  10   2
M  END
