Coordinates from ORCA-job 4-NO2PhN2+~CF3COO-_B3LYPG-6-31G_dp-NX-Scan-d89-09-n800
 OpenBabel11261920383D

 22 22  0  0  1  0  0  0  0  0999 V2000
   -1.8778    0.5358   -0.1378 C   0  0  0  0  0  0  0  0  0  0  0  0
   -3.0721    0.0655    0.1827 N   0  0  0  0  0  0  0  0  0  0  0  0
   -4.1650   -0.1258    0.4180 N   0  0  0  0  0  0  0  0  0  0  0  0
   -1.8763    1.8475   -0.8596 C   0  0  2  0  0  0  0  0  0  0  0  0
   -0.5440    2.1243   -1.4633 C   0  0  0  0  0  0  0  0  0  0  0  0
    0.5420    1.4148   -1.0885 C   0  0  0  0  0  0  0  0  0  0  0  0
    1.8494    1.7900   -1.6843 N   0  0  0  0  0  0  0  0  0  0  0  0
    1.8684    2.6986   -2.5098 O   0  0  0  0  0  0  0  0  0  0  0  0
    2.8348    1.1617   -1.3039 O   0  0  0  0  0  0  0  0  0  0  0  0
    0.5247    0.2938   -0.1867 C   0  0  0  0  0  0  0  0  0  0  0  0
   -0.6813   -0.1462    0.2571 C   0  0  0  0  0  0  0  0  0  0  0  0
   -2.6889    1.9144   -1.5872 H   0  0  0  0  0  0  0  0  0  0  0  0
   -0.4508    2.9319   -2.1781 H   0  0  0  0  0  0  0  0  0  0  0  0
    1.4545   -0.1851    0.0824 H   0  0  0  0  0  0  0  0  0  0  0  0
   -0.7624   -1.0157    0.9011 H   0  0  0  0  0  0  0  0  0  0  0  0
   -4.3065    2.3505    0.3285 O   0  0  0  0  0  0  0  0  0  0  0  0
   -3.4042    3.1410    0.4956 C   0  0  0  0  0  0  0  0  0  0  0  0
   -2.1479    3.0224    0.0784 O   0  0  0  0  0  0  0  0  0  0  0  0
   -3.5937    4.4808    1.2444 C   0  0  0  0  0  0  0  0  0  0  0  0
   -3.4449    5.5054    0.3857 F   0  0  0  0  0  0  0  0  0  0  0  0
   -4.8143    4.5430    1.7800 F   0  0  0  0  0  0  0  0  0  0  0  0
   -2.6835    4.6105    2.2236 F   0  0  0  0  0  0  0  0  0  0  0  0
  1  2  1  0  0  0  0
  1 11  2  0  0  0  0
  2  3  1  0  0  0  0
  4 12  1  6  0  0  0
  4  1  1  0  0  0  0
  4 18  1  0  0  0  0
  5  6  2  0  0  0  0
  5  4  1  0  0  0  0
  6 10  1  0  0  0  0
  7  9  2  0  0  0  0
  7  6  1  0  0  0  0
  8  7  2  0  0  0  0
 10 14  1  0  0  0  0
 10 11  1  0  0  0  0
 11 15  1  0  0  0  0
 13  5  1  0  0  0  0
 16 17  2  0  0  0  0
 17 19  1  0  0  0  0
 18 17  1  0  0  0  0
 19 21  1  0  0  0  0
 19 22  1  0  0  0  0
 20 19  1  0  0  0  0
M  RAD  3   2   2   3   3  10   2
M  END
