Coordinates from ORCA-job 4-NO2PhN2+~CF3COO-_B3LYPG-6-31G_dp-NX-Scan-d89-09-n800
 OpenBabel11261920383D

 22 22  0  0  0  0  0  0  0  0999 V2000
   -1.1094    0.8266    0.2556 C   0  0  0  0  0  0  0  0  0  0  0  0
   -1.9625    0.5812    1.3557 N   0  0  0  0  0  0  0  0  0  0  0  0
   -2.8498    1.1256    1.9221 N   0  0  0  0  0  0  0  0  0  0  0  0
   -1.0299    2.0384   -0.4579 C   0  0  0  0  0  0  0  0  0  0  0  0
   -0.1199    2.1339   -1.5059 C   0  0  0  0  0  0  0  0  0  0  0  0
    0.6755    1.0349   -1.8250 C   0  0  0  0  0  0  0  0  0  0  0  0
    1.6321    1.1514   -2.9479 N   0  0  0  0  0  0  0  0  0  0  0  0
    1.6752    2.2244   -3.5430 O   0  0  0  0  0  0  0  0  0  0  0  0
    2.3170    0.1654   -3.2073 O   0  0  0  0  0  0  0  0  0  0  0  0
    0.6079   -0.1691   -1.1284 C   0  0  0  0  0  0  0  0  0  0  0  0
   -0.2901   -0.2659   -0.0733 C   0  0  0  0  0  0  0  0  0  0  0  0
   -1.6631    2.8723   -0.1952 H   0  0  0  0  0  0  0  0  0  0  0  0
   -0.0221    3.0463   -2.0806 H   0  0  0  0  0  0  0  0  0  0  0  0
    1.2493   -0.9928   -1.4137 H   0  0  0  0  0  0  0  0  0  0  0  0
   -0.3750   -1.1776    0.5071 H   0  0  0  0  0  0  0  0  0  0  0  0
   -3.2466    2.5816    1.1817 O   0  0  0  0  0  0  0  0  0  0  0  0
   -4.0735    3.3129    1.9191 C   0  0  0  0  0  0  0  0  0  0  0  0
   -4.4829    3.1162    3.0341 O   0  0  0  0  0  0  0  0  0  0  0  0
   -4.4981    4.5583    1.0910 C   0  0  0  0  0  0  0  0  0  0  0  0
   -5.3531    4.1945    0.1166 F   0  0  0  0  0  0  0  0  0  0  0  0
   -5.0952    5.4638    1.8669 F   0  0  0  0  0  0  0  0  0  0  0  0
   -3.4255    5.1369    0.5065 F   0  0  0  0  0  0  0  0  0  0  0  0
  1  2  1  0  0  0  0
  2  3  1  0  0  0  0
  4 12  1  0  0  0  0
  4  1  2  0  0  0  0
  5  4  1  0  0  0  0
  6  5  2  0  0  0  0
  6 10  1  0  0  0  0
  7  6  1  0  0  0  0
  8  7  2  0  0  0  0
  9  7  2  0  0  0  0
 10 11  2  0  0  0  0
 11  1  1  0  0  0  0
 11 15  1  0  0  0  0
 13  5  1  0  0  0  0
 14 10  1  0  0  0  0
 16 17  1  0  0  0  0
 16  3  1  0  0  0  0
 17 18  2  0  0  0  0
 19 21  1  0  0  0  0
 19 17  1  0  0  0  0
 20 19  1  0  0  0  0
 22 19  1  0  0  0  0
M  RAD  2   2   2   3   2
M  END
