Coordinates from ORCA-job 4-NO2PhN2+~CF3COO-_B3LYPG-6-31G_dp-NX-Scan-d89-09-n800
 OpenBabel11261920383D

 22 22  0  0  0  0  0  0  0  0999 V2000
   -1.1013    0.8543    0.2817 C   0  0  0  0  0  0  0  0  0  0  0  0
   -1.9340    0.6038    1.3983 N   0  0  0  0  0  0  0  0  0  0  0  0
   -2.8267    1.1698    1.9533 N   0  0  0  0  0  0  0  0  0  0  0  0
   -0.9967    2.0720   -0.4197 C   0  0  0  0  0  0  0  0  0  0  0  0
   -0.0990    2.1582   -1.4790 C   0  0  0  0  0  0  0  0  0  0  0  0
    0.6615    1.0431   -1.8258 C   0  0  0  0  0  0  0  0  0  0  0  0
    1.6041    1.1497   -2.9605 N   0  0  0  0  0  0  0  0  0  0  0  0
    1.6685    2.2297   -3.5414 O   0  0  0  0  0  0  0  0  0  0  0  0
    2.2585    0.1496   -3.2441 O   0  0  0  0  0  0  0  0  0  0  0  0
    0.5712   -0.1673   -1.1434 C   0  0  0  0  0  0  0  0  0  0  0  0
   -0.3121   -0.2524   -0.0750 C   0  0  0  0  0  0  0  0  0  0  0  0
   -1.6007    2.9219   -0.1424 H   0  0  0  0  0  0  0  0  0  0  0  0
    0.0152    3.0758   -2.0423 H   0  0  0  0  0  0  0  0  0  0  0  0
    1.1861   -1.0043   -1.4479 H   0  0  0  0  0  0  0  0  0  0  0  0
   -0.4103   -1.1678    0.4974 H   0  0  0  0  0  0  0  0  0  0  0  0
   -3.2151    2.5573    1.2109 O   0  0  0  0  0  0  0  0  0  0  0  0
   -4.0800    3.2900    1.9159 C   0  0  0  0  0  0  0  0  0  0  0  0
   -4.5191    3.0982    3.0179 O   0  0  0  0  0  0  0  0  0  0  0  0
   -4.4869    4.5190    1.0576 C   0  0  0  0  0  0  0  0  0  0  0  0
   -5.3065    4.1332    0.0624 F   0  0  0  0  0  0  0  0  0  0  0  0
   -5.1157    5.4272    1.8035 F   0  0  0  0  0  0  0  0  0  0  0  0
   -3.4004    5.0981    0.5009 F   0  0  0  0  0  0  0  0  0  0  0  0
  1  2  1  0  0  0  0
  2  3  1  0  0  0  0
  4 12  1  0  0  0  0
  4  1  2  0  0  0  0
  5  4  1  0  0  0  0
  6  5  2  0  0  0  0
  6 10  1  0  0  0  0
  7  6  1  0  0  0  0
  8  7  2  0  0  0  0
  9  7  2  0  0  0  0
 10 11  2  0  0  0  0
 11  1  1  0  0  0  0
 11 15  1  0  0  0  0
 13  5  1  0  0  0  0
 14 10  1  0  0  0  0
 16 17  1  0  0  0  0
 16  3  1  0  0  0  0
 17 18  2  0  0  0  0
 19 21  1  0  0  0  0
 19 17  1  0  0  0  0
 20 19  1  0  0  0  0
 22 19  1  0  0  0  0
M  RAD  2   2   2   3   2
M  END
