Coordinates from ORCA-job 4-NO2PhN2+~CF3COO-_B3LYPG-6-31G_dp-NX-Scan-d89-09-n800
 OpenBabel11261920383D

 22 21  0  0  0  0  0  0  0  0999 V2000
   -1.2258    0.7071    0.1312 C   0  0  0  0  0  0  0  0  0  0  0  0
   -2.1762    0.4417    1.1399 N   0  0  0  0  0  0  0  0  0  0  0  0
   -3.0958    0.9067    1.6835 N   0  0  0  0  0  0  0  0  0  0  0  0
   -1.2399    1.8823   -0.6413 C   0  0  0  0  0  0  0  0  0  0  0  0
   -0.2488    2.0441   -1.6042 C   0  0  0  0  0  0  0  0  0  0  0  0
    0.7100    1.0464   -1.7720 C   0  0  0  0  0  0  0  0  0  0  0  0
    1.7562    1.2331   -2.8037 N   0  0  0  0  0  0  0  0  0  0  0  0
    1.7192    2.2686   -3.4612 O   0  0  0  0  0  0  0  0  0  0  0  0
    2.5870    0.3375   -2.9279 O   0  0  0  0  0  0  0  0  0  0  0  0
    0.7275   -0.1208   -1.0119 C   0  0  0  0  0  0  0  0  0  0  0  0
   -0.2568   -0.2909   -0.0464 C   0  0  0  0  0  0  0  0  0  0  0  0
   -2.0043    2.6298   -0.4762 H   0  0  0  0  0  0  0  0  0  0  0  0
   -0.2107    2.9306   -2.2250 H   0  0  0  0  0  0  0  0  0  0  0  0
    1.4959   -0.8632   -1.1848 H   0  0  0  0  0  0  0  0  0  0  0  0
   -0.2883   -1.1806    0.5722 H   0  0  0  0  0  0  0  0  0  0  0  0
   -3.5667    2.5234    0.9146 O   0  0  0  0  0  0  0  0  0  0  0  0
   -3.9066    3.3690    1.8545 C   0  0  0  0  0  0  0  0  0  0  0  0
   -3.8215    3.2566    3.0578 O   0  0  0  0  0  0  0  0  0  0  0  0
   -4.4723    4.6642    1.2032 C   0  0  0  0  0  0  0  0  0  0  0  0
   -5.6436    4.4149    0.5875 F   0  0  0  0  0  0  0  0  0  0  0  0
   -4.6686    5.6201    2.1151 F   0  0  0  0  0  0  0  0  0  0  0  0
   -3.6095    5.1384    0.2735 F   0  0  0  0  0  0  0  0  0  0  0  0
  1  2  1  0  0  0  0
  2  3  2  0  0  0  0
  4 12  1  0  0  0  0
  4  1  2  0  0  0  0
  5  4  1  0  0  0  0
  6  5  2  0  0  0  0
  6 10  1  0  0  0  0
  7  6  1  0  0  0  0
  8  7  2  0  0  0  0
  9  7  2  0  0  0  0
 10 11  2  0  0  0  0
 11  1  1  0  0  0  0
 11 15  1  0  0  0  0
 13  5  1  0  0  0  0
 14 10  1  0  0  0  0
 16 17  2  0  0  0  0
 17 18  1  0  0  0  0
 19 17  1  0  0  0  0
 19 21  1  0  0  0  0
 20 19  1  0  0  0  0
 22 19  1  0  0  0  0
M  RAD  2   3   2  18   2
M  END
