Coordinates from ORCA-job 4-NO2PhN2+~CF3COO-_B3LYPG-6-31G_dp-NX-Scan-d89-09-n800
 OpenBabel11261920383D

 22 21  0  0  0  0  0  0  0  0999 V2000
   -1.8619    0.3274    0.2930 C   0  0  0  0  0  0  0  0  0  0  0  0
   -2.7762   -0.4556    0.9140 N   0  0  0  0  0  0  0  0  0  0  0  0
   -3.4783   -1.1637    1.4374 N   0  0  0  0  0  0  0  0  0  0  0  0
   -2.1975    0.9325   -0.9426 C   0  0  0  0  0  0  0  0  0  0  0  0
   -1.1502    1.5614   -1.6414 C   0  0  0  0  0  0  0  0  0  0  0  0
    0.0978    1.6314   -1.0647 C   0  0  0  0  0  0  0  0  0  0  0  0
    1.1833    2.3000   -1.8119 N   0  0  0  0  0  0  0  0  0  0  0  0
    0.9246    2.7148   -2.9365 O   0  0  0  0  0  0  0  0  0  0  0  0
    2.2755    2.3799   -1.2530 O   0  0  0  0  0  0  0  0  0  0  0  0
    0.4024    1.1042    0.2136 C   0  0  0  0  0  0  0  0  0  0  0  0
   -0.5751    0.4459    0.9068 C   0  0  0  0  0  0  0  0  0  0  0  0
   -3.1603    0.7707   -1.4010 H   0  0  0  0  0  0  0  0  0  0  0  0
   -1.3404    2.0165   -2.6030 H   0  0  0  0  0  0  0  0  0  0  0  0
    1.3996    1.2315    0.6139 H   0  0  0  0  0  0  0  0  0  0  0  0
   -0.3960    0.0170    1.8851 H   0  0  0  0  0  0  0  0  0  0  0  0
   -3.5222    5.2009   -0.8324 O   0  0  0  0  0  0  0  0  0  0  0  0
   -3.2758    4.0480   -0.4877 C   0  0  0  0  0  0  0  0  0  0  0  0
   -3.3487    2.9787   -1.1894 O   0  0  0  0  0  0  0  0  0  0  0  0
   -2.7905    3.8073    0.9721 C   0  0  0  0  0  0  0  0  0  0  0  0
   -3.3786    2.7078    1.5290 F   0  0  0  0  0  0  0  0  0  0  0  0
   -1.4485    3.5622    0.9917 F   0  0  0  0  0  0  0  0  0  0  0  0
   -3.0224    4.8404    1.7853 F   0  0  0  0  0  0  0  0  0  0  0  0
  1 11  1  0  0  0  0
  1  2  1  0  0  0  0
  2  3  1  0  0  0  0
  4  1  2  0  0  0  0
  5  6  2  0  0  0  0
  5  4  1  0  0  0  0
  6 10  1  0  0  0  0
  7  9  2  0  0  0  0
  7  6  1  0  0  0  0
  8  7  2  0  0  0  0
 10 14  1  0  0  0  0
 10 11  2  0  0  0  0
 11 15  1  0  0  0  0
 12  4  1  0  0  0  0
 13  5  1  0  0  0  0
 16 17  1  0  0  0  0
 17 19  1  0  0  0  0
 18 17  2  0  0  0  0
 19 21  1  0  0  0  0
 19 20  1  0  0  0  0
 19 22  1  0  0  0  0
M  RAD  3   2   2   3   3  16   2
M  END
