Coordinates from ORCA-job 4-NO2PhN2+~CF3COO-_B3LYPG-6-31G_dp-NX-Scan-d89-09-n800
 OpenBabel11261920383D

 22 22  0  0  1  0  0  0  0  0999 V2000
   -1.8747    0.4515   -0.0781 C   0  0  0  0  0  0  0  0  0  0  0  0
   -3.0060   -0.1504    0.2333 N   0  0  0  0  0  0  0  0  0  0  0  0
   -3.9801   -0.6734    0.5030 N   0  0  0  0  0  0  0  0  0  0  0  0
   -1.9515    1.7604   -0.8029 C   0  0  2  0  0  0  0  0  0  0  0  0
   -0.6541    2.0777   -1.4689 C   0  0  0  0  0  0  0  0  0  0  0  0
    0.4784    1.4483   -1.0946 C   0  0  0  0  0  0  0  0  0  0  0  0
    1.7487    1.8659   -1.7373 N   0  0  0  0  0  0  0  0  0  0  0  0
    1.6987    2.7318   -2.6061 O   0  0  0  0  0  0  0  0  0  0  0  0
    2.7759    1.3139   -1.3488 O   0  0  0  0  0  0  0  0  0  0  0  0
    0.5413    0.3698   -0.1409 C   0  0  0  0  0  0  0  0  0  0  0  0
   -0.6253   -0.1304    0.3370 C   0  0  0  0  0  0  0  0  0  0  0  0
   -2.7993    1.8012   -1.4883 H   0  0  0  0  0  0  0  0  0  0  0  0
   -0.6267    2.8582   -2.2187 H   0  0  0  0  0  0  0  0  0  0  0  0
    1.5032   -0.0366    0.1356 H   0  0  0  0  0  0  0  0  0  0  0  0
   -0.6411   -0.9787    1.0134 H   0  0  0  0  0  0  0  0  0  0  0  0
   -4.4163    2.9158   -0.2990 O   0  0  0  0  0  0  0  0  0  0  0  0
   -3.4398    3.3331    0.2749 C   0  0  0  0  0  0  0  0  0  0  0  0
   -2.1867    2.8838    0.1756 O   0  0  0  0  0  0  0  0  0  0  0  0
   -3.4889    4.5148    1.2719 C   0  0  0  0  0  0  0  0  0  0  0  0
   -2.6936    5.5124    0.8508 F   0  0  0  0  0  0  0  0  0  0  0  0
   -4.7362    4.9749    1.3825 F   0  0  0  0  0  0  0  0  0  0  0  0
   -3.0653    4.1152    2.4838 F   0  0  0  0  0  0  0  0  0  0  0  0
  1  2  1  0  0  0  0
  1 11  2  0  0  0  0
  2  3  1  0  0  0  0
  4 12  1  6  0  0  0
  4  1  1  0  0  0  0
  4 18  1  0  0  0  0
  5  6  2  0  0  0  0
  5  4  1  0  0  0  0
  6 10  1  0  0  0  0
  7  9  2  0  0  0  0
  7  6  1  0  0  0  0
  8  7  2  0  0  0  0
 10 14  1  0  0  0  0
 10 11  1  0  0  0  0
 11 15  1  0  0  0  0
 13  5  1  0  0  0  0
 16 17  2  0  0  0  0
 17 19  1  0  0  0  0
 18 17  1  0  0  0  0
 19 21  1  0  0  0  0
 19 22  1  0  0  0  0
 20 19  1  0  0  0  0
M  RAD  3   2   2   3   3  10   2
M  END
