Coordinates from ORCA-job 4-NO2PhN2+~CF3COO-_B3LYPG-6-31G_dp-NX-Scan-d89-09-n800
 OpenBabel11261920383D

 22 21  0  0  0  0  0  0  0  0999 V2000
   -1.8723    0.3903    0.2771 C   0  0  0  0  0  0  0  0  0  0  0  0
   -2.8053   -0.3573    0.9072 N   0  0  0  0  0  0  0  0  0  0  0  0
   -3.5336   -1.0310    1.4405 N   0  0  0  0  0  0  0  0  0  0  0  0
   -2.1919    0.9727   -0.9763 C   0  0  0  0  0  0  0  0  0  0  0  0
   -1.1205    1.5586   -1.6856 C   0  0  0  0  0  0  0  0  0  0  0  0
    0.1175    1.6327   -1.0949 C   0  0  0  0  0  0  0  0  0  0  0  0
    1.2215    2.2631   -1.8506 N   0  0  0  0  0  0  0  0  0  0  0  0
    0.9811    2.6494   -2.9893 O   0  0  0  0  0  0  0  0  0  0  0  0
    2.3087    2.3436   -1.2826 O   0  0  0  0  0  0  0  0  0  0  0  0
    0.4030    1.1376    0.2028 C   0  0  0  0  0  0  0  0  0  0  0  0
   -0.5900    0.5117    0.9013 C   0  0  0  0  0  0  0  0  0  0  0  0
   -3.1323    0.7596   -1.4591 H   0  0  0  0  0  0  0  0  0  0  0  0
   -1.2883    1.9782   -2.6675 H   0  0  0  0  0  0  0  0  0  0  0  0
    1.3973    1.2638    0.6101 H   0  0  0  0  0  0  0  0  0  0  0  0
   -0.4279    0.1084    1.8934 H   0  0  0  0  0  0  0  0  0  0  0  0
   -3.5450    5.1385   -0.7803 O   0  0  0  0  0  0  0  0  0  0  0  0
   -3.2824    3.9914   -0.4348 C   0  0  0  0  0  0  0  0  0  0  0  0
   -3.3364    2.9225   -1.1443 O   0  0  0  0  0  0  0  0  0  0  0  0
   -2.8117    3.7573    1.0293 C   0  0  0  0  0  0  0  0  0  0  0  0
   -3.3973    2.6529    1.5800 F   0  0  0  0  0  0  0  0  0  0  0  0
   -1.4687    3.5262    1.0646 F   0  0  0  0  0  0  0  0  0  0  0  0
   -3.0649    4.7889    1.8372 F   0  0  0  0  0  0  0  0  0  0  0  0
  1 11  1  0  0  0  0
  1  2  1  0  0  0  0
  2  3  1  0  0  0  0
  4  1  2  0  0  0  0
  5  6  2  0  0  0  0
  5  4  1  0  0  0  0
  6 10  1  0  0  0  0
  7  9  2  0  0  0  0
  7  6  1  0  0  0  0
  8  7  2  0  0  0  0
 10 14  1  0  0  0  0
 10 11  2  0  0  0  0
 11 15  1  0  0  0  0
 12  4  1  0  0  0  0
 13  5  1  0  0  0  0
 16 17  1  0  0  0  0
 17 19  1  0  0  0  0
 18 17  2  0  0  0  0
 19 21  1  0  0  0  0
 19 20  1  0  0  0  0
 19 22  1  0  0  0  0
M  RAD  3   2   2   3   3  16   2
M  END
