Coordinates from ORCA-job 4-NO2PhN2+~CF3COO-_B3LYPG-6-31G_dp-NX-Scan-d89-09-n800
 OpenBabel11261920383D

 22 21  0  0  0  0  0  0  0  0999 V2000
   -1.8872    0.0144    0.2821 C   0  0  0  0  0  0  0  0  0  0  0  0
   -2.7433   -0.9104    0.7910 N   0  0  0  0  0  0  0  0  0  0  0  0
   -3.3803   -1.7351    1.2184 N   0  0  0  0  0  0  0  0  0  0  0  0
   -2.2729    0.7774   -0.8451 C   0  0  0  0  0  0  0  0  0  0  0  0
   -1.2912    1.5809   -1.4325 C   0  0  0  0  0  0  0  0  0  0  0  0
   -0.0385    1.6514   -0.8509 C   0  0  0  0  0  0  0  0  0  0  0  0
    0.9834    2.5097   -1.4788 N   0  0  0  0  0  0  0  0  0  0  0  0
    0.6853    3.0647   -2.5304 O   0  0  0  0  0  0  0  0  0  0  0  0
    2.0692    2.5913   -0.9068 O   0  0  0  0  0  0  0  0  0  0  0  0
    0.3140    0.9548    0.3243 C   0  0  0  0  0  0  0  0  0  0  0  0
   -0.6055    0.1207    0.9046 C   0  0  0  0  0  0  0  0  0  0  0  0
   -3.2594    0.7012   -1.2781 H   0  0  0  0  0  0  0  0  0  0  0  0
   -1.5313    2.1750   -2.3023 H   0  0  0  0  0  0  0  0  0  0  0  0
    1.3032    1.0903    0.7419 H   0  0  0  0  0  0  0  0  0  0  0  0
   -0.3822   -0.4475    1.7996 H   0  0  0  0  0  0  0  0  0  0  0  0
   -3.8062    5.2081   -0.9888 O   0  0  0  0  0  0  0  0  0  0  0  0
   -3.3742    4.1211   -0.6036 C   0  0  0  0  0  0  0  0  0  0  0  0
   -3.5764    2.9644   -1.1029 O   0  0  0  0  0  0  0  0  0  0  0  0
   -2.4113    4.1376    0.6232 C   0  0  0  0  0  0  0  0  0  0  0  0
   -2.4831    2.9957    1.3648 F   0  0  0  0  0  0  0  0  0  0  0  0
   -1.1173    4.2291    0.1983 F   0  0  0  0  0  0  0  0  0  0  0  0
   -2.6344    5.1645    1.4502 F   0  0  0  0  0  0  0  0  0  0  0  0
  1  2  1  0  0  0  0
  1 11  1  0  0  0  0
  2  3  1  0  0  0  0
  4  1  2  0  0  0  0
  5  6  2  0  0  0  0
  5  4  1  0  0  0  0
  6 10  1  0  0  0  0
  7  9  2  0  0  0  0
  7  6  1  0  0  0  0
  8  7  2  0  0  0  0
 10 14  1  0  0  0  0
 10 11  2  0  0  0  0
 11 15  1  0  0  0  0
 12  4  1  0  0  0  0
 13  5  1  0  0  0  0
 16 17  1  0  0  0  0
 17 19  1  0  0  0  0
 18 17  2  0  0  0  0
 19 20  1  0  0  0  0
 19 22  1  0  0  0  0
 21 19  1  0  0  0  0
M  RAD  3   2   2   3   3  16   2
M  END
