Coordinates from ORCA-job 4-NO2PhN2+~CF3COO-_B3LYPG-6-31G_dp-NX-Scan-d89-09-n800
 OpenBabel11261920383D

 22 22  0  0  0  0  0  0  0  0999 V2000
   -1.0190    1.0153    0.4843 C   0  0  0  0  0  0  0  0  0  0  0  0
   -1.7067    0.7865    1.7156 N   0  0  0  0  0  0  0  0  0  0  0  0
   -2.6714    1.4974    2.1077 N   0  0  0  0  0  0  0  0  0  0  0  0
   -0.7435    2.2556   -0.1274 C   0  0  0  0  0  0  0  0  0  0  0  0
    0.0411    2.3043   -1.2750 C   0  0  0  0  0  0  0  0  0  0  0  0
    0.5305    1.1183   -1.8179 C   0  0  0  0  0  0  0  0  0  0  0  0
    1.3447    1.1776   -3.0423 N   0  0  0  0  0  0  0  0  0  0  0  0
    1.5497    2.2853   -3.5371 O   0  0  0  0  0  0  0  0  0  0  0  0
    1.7685    0.1153   -3.4949 O   0  0  0  0  0  0  0  0  0  0  0  0
    0.2792   -0.1210   -1.2312 C   0  0  0  0  0  0  0  0  0  0  0  0
   -0.4792   -0.1601   -0.0694 C   0  0  0  0  0  0  0  0  0  0  0  0
   -1.1277    3.1799    0.2808 H   0  0  0  0  0  0  0  0  0  0  0  0
    0.2720    3.2443   -1.7599 H   0  0  0  0  0  0  0  0  0  0  0  0
    0.6888   -1.0177   -1.6780 H   0  0  0  0  0  0  0  0  0  0  0  0
   -0.6724   -1.0990    0.4378 H   0  0  0  0  0  0  0  0  0  0  0  0
   -3.0276    2.3649    1.4075 O   0  0  0  0  0  0  0  0  0  0  0  0
   -4.1142    3.1493    1.8643 C   0  0  0  0  0  0  0  0  0  0  0  0
   -4.7025    2.9914    2.8808 O   0  0  0  0  0  0  0  0  0  0  0  0
   -4.3639    4.2300    0.7960 C   0  0  0  0  0  0  0  0  0  0  0  0
   -4.7281    3.6567   -0.3592 F   0  0  0  0  0  0  0  0  0  0  0  0
   -5.3231    5.0532    1.2056 F   0  0  0  0  0  0  0  0  0  0  0  0
   -3.2342    4.9318    0.5900 F   0  0  0  0  0  0  0  0  0  0  0  0
  1  2  1  0  0  0  0
  2  3  2  0  0  0  0
  4 12  1  0  0  0  0
  4  1  2  0  0  0  0
  5  4  1  0  0  0  0
  6  5  2  0  0  0  0
  6 10  1  0  0  0  0
  7  6  1  0  0  0  0
  8  7  2  0  0  0  0
  9  7  2  0  0  0  0
 10 11  2  0  0  0  0
 11 15  1  0  0  0  0
 11  1  1  0  0  0  0
 13  5  1  0  0  0  0
 14 10  1  0  0  0  0
 16 17  1  0  0  0  0
 16  3  1  0  0  0  0
 17 18  2  0  0  0  0
 19 21  1  0  0  0  0
 19 17  1  0  0  0  0
 20 19  1  0  0  0  0
 22 19  1  0  0  0  0
M  END
