Coordinates from ORCA-job 4-NO2PhN2+~CF3COO-_B3LYPG-6-31G_dp-NX-Scan-d89-09-n800
 OpenBabel11261920383D

 22 22  0  0  1  0  0  0  0  0999 V2000
   -1.8981    0.5052   -0.1164 C   0  0  0  0  0  0  0  0  0  0  0  0
   -3.0456   -0.0860    0.1593 N   0  0  0  0  0  0  0  0  0  0  0  0
   -4.0308   -0.6008    0.3974 N   0  0  0  0  0  0  0  0  0  0  0  0
   -1.9324    1.8097   -0.8512 C   0  0  2  0  0  0  0  0  0  0  0  0
   -0.6174    2.0908   -1.4983 C   0  0  0  0  0  0  0  0  0  0  0  0
    0.4947    1.4450   -1.0917 C   0  0  0  0  0  0  0  0  0  0  0  0
    1.7852    1.8266   -1.7164 N   0  0  0  0  0  0  0  0  0  0  0  0
    1.7690    2.6774   -2.6013 O   0  0  0  0  0  0  0  0  0  0  0  0
    2.7939    1.2624   -1.2977 O   0  0  0  0  0  0  0  0  0  0  0  0
    0.5172    0.3796   -0.1221 C   0  0  0  0  0  0  0  0  0  0  0  0
   -0.6695   -0.0946    0.3331 C   0  0  0  0  0  0  0  0  0  0  0  0
   -2.7670    1.8595   -1.5524 H   0  0  0  0  0  0  0  0  0  0  0  0
   -0.5600    2.8583   -2.2595 H   0  0  0  0  0  0  0  0  0  0  0  0
    1.4650   -0.0402    0.1814 H   0  0  0  0  0  0  0  0  0  0  0  0
   -0.7161   -0.9361    1.0166 H   0  0  0  0  0  0  0  0  0  0  0  0
   -4.4073    2.6643   -0.0190 O   0  0  0  0  0  0  0  0  0  0  0  0
   -3.4270    3.2548    0.3675 C   0  0  0  0  0  0  0  0  0  0  0  0
   -2.1549    2.9626    0.0990 O   0  0  0  0  0  0  0  0  0  0  0  0
   -3.4978    4.5003    1.2816 C   0  0  0  0  0  0  0  0  0  0  0  0
   -2.9387    5.5584    0.6704 F   0  0  0  0  0  0  0  0  0  0  0  0
   -4.7677    4.7908    1.5701 F   0  0  0  0  0  0  0  0  0  0  0  0
   -2.8342    4.2712    2.4280 F   0  0  0  0  0  0  0  0  0  0  0  0
  1  2  1  0  0  0  0
  1 11  2  0  0  0  0
  2  3  1  0  0  0  0
  4 12  1  6  0  0  0
  4  1  1  0  0  0  0
  4 18  1  0  0  0  0
  5  6  2  0  0  0  0
  5  4  1  0  0  0  0
  6 10  1  0  0  0  0
  7  9  2  0  0  0  0
  7  6  1  0  0  0  0
  8  7  2  0  0  0  0
 10 14  1  0  0  0  0
 10 11  1  0  0  0  0
 11 15  1  0  0  0  0
 13  5  1  0  0  0  0
 16 17  2  0  0  0  0
 17 19  1  0  0  0  0
 18 17  1  0  0  0  0
 19 21  1  0  0  0  0
 19 22  1  0  0  0  0
 20 19  1  0  0  0  0
M  RAD  3   2   2   3   3  10   2
M  END
