Coordinates from ORCA-job 4-NO2PhN2+~CF3COO-_B3LYPG-6-31G_dp-NX-Scan-d89-09-n800
 OpenBabel11261920383D

 22 22  0  0  1  0  0  0  0  0999 V2000
   -1.8292    0.3116    0.0327 C   0  0  0  0  0  0  0  0  0  0  0  0
   -2.9080   -0.3317    0.4303 N   0  0  0  0  0  0  0  0  0  0  0  0
   -3.8508   -0.8752    0.7655 N   0  0  0  0  0  0  0  0  0  0  0  0
   -2.0325    1.6130   -0.6768 C   0  0  2  0  0  0  0  0  0  0  0  0
   -0.7951    2.0293   -1.4013 C   0  0  0  0  0  0  0  0  0  0  0  0
    0.3941    1.4685   -1.1017 C   0  0  0  0  0  0  0  0  0  0  0  0
    1.5992    1.9833   -1.7978 N   0  0  0  0  0  0  0  0  0  0  0  0
    1.4490    2.8736   -2.6297 O   0  0  0  0  0  0  0  0  0  0  0  0
    2.6774    1.4811   -1.4880 O   0  0  0  0  0  0  0  0  0  0  0  0
    0.5776    0.3761   -0.1790 C   0  0  0  0  0  0  0  0  0  0  0  0
   -0.5252   -0.2009    0.3595 C   0  0  0  0  0  0  0  0  0  0  0  0
   -2.9060    1.6127   -1.3312 H   0  0  0  0  0  0  0  0  0  0  0  0
   -0.8623    2.8241   -2.1337 H   0  0  0  0  0  0  0  0  0  0  0  0
    1.5770    0.0234    0.0306 H   0  0  0  0  0  0  0  0  0  0  0  0
   -0.4490   -1.0576    1.0207 H   0  0  0  0  0  0  0  0  0  0  0  0
   -3.9056    3.6261   -0.9708 O   0  0  0  0  0  0  0  0  0  0  0  0
   -3.2725    3.5551    0.0537 C   0  0  0  0  0  0  0  0  0  0  0  0
   -2.3284    2.6627    0.3643 O   0  0  0  0  0  0  0  0  0  0  0  0
   -3.4700    4.5304    1.2381 C   0  0  0  0  0  0  0  0  0  0  0  0
   -2.3189    5.1636    1.5186 F   0  0  0  0  0  0  0  0  0  0  0  0
   -4.4008    5.4378    0.9410 F   0  0  0  0  0  0  0  0  0  0  0  0
   -3.8596    3.8523    2.3333 F   0  0  0  0  0  0  0  0  0  0  0  0
  1 11  2  0  0  0  0
  1  2  1  0  0  0  0
  2  3  1  0  0  0  0
  4 12  1  6  0  0  0
  4  1  1  0  0  0  0
  4 18  1  0  0  0  0
  5  6  2  0  0  0  0
  5  4  1  0  0  0  0
  6 10  1  0  0  0  0
  7  9  2  0  0  0  0
  7  6  1  0  0  0  0
  8  7  2  0  0  0  0
 10 14  1  0  0  0  0
 10 11  1  0  0  0  0
 11 15  1  0  0  0  0
 13  5  1  0  0  0  0
 16 17  2  0  0  0  0
 17 18  1  0  0  0  0
 17 19  1  0  0  0  0
 19 20  1  0  0  0  0
 19 22  1  0  0  0  0
 21 19  1  0  0  0  0
M  RAD  3   2   2   3   3  10   2
M  END
