Coordinates from ORCA-job 4-NO2PhN2+~CF3COO-_B3LYPG-6-31G_dp-NX-Scan-d89-09-n800
 OpenBabel11261920383D

 22 22  0  0  1  0  0  0  0  0999 V2000
   -1.8259    0.4851   -0.1200 C   0  0  0  0  0  0  0  0  0  0  0  0
   -3.0324    0.0815    0.2818 N   0  0  0  0  0  0  0  0  0  0  0  0
   -4.1387    0.2348    0.5277 N   0  0  0  0  0  0  0  0  0  0  0  0
   -1.8323    1.8066   -0.7951 C   0  0  2  0  0  0  0  0  0  0  0  0
   -0.5180    2.1343   -1.3819 C   0  0  0  0  0  0  0  0  0  0  0  0
    0.5712    1.3835   -1.0894 C   0  0  0  0  0  0  0  0  0  0  0  0
    1.8706    1.8009   -1.6767 N   0  0  0  0  0  0  0  0  0  0  0  0
    1.8825    2.7866   -2.4085 O   0  0  0  0  0  0  0  0  0  0  0  0
    2.8565    1.1287   -1.3832 O   0  0  0  0  0  0  0  0  0  0  0  0
    0.5609    0.1911   -0.2938 C   0  0  0  0  0  0  0  0  0  0  0  0
   -0.6425   -0.2562    0.1618 C   0  0  0  0  0  0  0  0  0  0  0  0
   -2.6637    1.9249   -1.4939 H   0  0  0  0  0  0  0  0  0  0  0  0
   -0.4291    2.9971   -2.0292 H   0  0  0  0  0  0  0  0  0  0  0  0
    1.4881   -0.3276   -0.1001 H   0  0  0  0  0  0  0  0  0  0  0  0
   -0.7221   -1.1676    0.7449 H   0  0  0  0  0  0  0  0  0  0  0  0
   -4.3294    2.3148    0.4190 O   0  0  0  0  0  0  0  0  0  0  0  0
   -3.4228    3.1213    0.5604 C   0  0  0  0  0  0  0  0  0  0  0  0
   -2.1581    2.9832    0.2269 O   0  0  0  0  0  0  0  0  0  0  0  0
   -3.6835    4.5171    1.1748 C   0  0  0  0  0  0  0  0  0  0  0  0
   -3.5454    5.4576    0.2225 F   0  0  0  0  0  0  0  0  0  0  0  0
   -4.9195    4.5880    1.6727 F   0  0  0  0  0  0  0  0  0  0  0  0
   -2.8060    4.7736    2.1575 F   0  0  0  0  0  0  0  0  0  0  0  0
  1 11  1  0  0  0  0
  1  2  2  0  0  0  0
  2  3  1  0  0  0  0
  4 12  1  6  0  0  0
  4  1  1  0  0  0  0
  4 18  1  0  0  0  0
  5  6  2  0  0  0  0
  5  4  1  0  0  0  0
  6 10  1  0  0  0  0
  7  9  2  0  0  0  0
  7  6  1  0  0  0  0
  8  7  2  0  0  0  0
 10 14  1  0  0  0  0
 10 11  2  0  0  0  0
 11 15  1  0  0  0  0
 13  5  1  0  0  0  0
 16 17  2  0  0  0  0
 17 19  1  0  0  0  0
 18 17  1  0  0  0  0
 19 21  1  0  0  0  0
 19 22  1  0  0  0  0
 20 19  1  0  0  0  0
M  RAD  1   3   3
M  END
