Coordinates from ORCA-job 4-NO2PhN2+~CF3COO-_B3LYPG-6-31G_dp-NX-Scan-d89-09-n800
 OpenBabel11261920383D

 22 22  0  0  1  0  0  0  0  0999 V2000
   -1.8226    0.2848    0.0544 C   0  0  0  0  0  0  0  0  0  0  0  0
   -2.8892   -0.3693    0.4672 N   0  0  0  0  0  0  0  0  0  0  0  0
   -3.8236   -0.9204    0.8135 N   0  0  0  0  0  0  0  0  0  0  0  0
   -2.0522    1.5842   -0.6503 C   0  0  2  0  0  0  0  0  0  0  0  0
   -0.8286    2.0226   -1.3855 C   0  0  0  0  0  0  0  0  0  0  0  0
    0.3711    1.4755   -1.1033 C   0  0  0  0  0  0  0  0  0  0  0  0
    1.5612    2.0102   -1.8105 N   0  0  0  0  0  0  0  0  0  0  0  0
    1.3901    2.9064   -2.6319 O   0  0  0  0  0  0  0  0  0  0  0  0
    2.6489    1.5166   -1.5202 O   0  0  0  0  0  0  0  0  0  0  0  0
    0.5801    0.3800   -0.1896 C   0  0  0  0  0  0  0  0  0  0  0  0
   -0.5082   -0.2131    0.3610 C   0  0  0  0  0  0  0  0  0  0  0  0
   -2.9291    1.5708   -1.3003 H   0  0  0  0  0  0  0  0  0  0  0  0
   -0.9171    2.8211   -2.1115 H   0  0  0  0  0  0  0  0  0  0  0  0
    1.5865    0.0383    0.0046 H   0  0  0  0  0  0  0  0  0  0  0  0
   -0.4125   -1.0719    1.0168 H   0  0  0  0  0  0  0  0  0  0  0  0
   -3.7207    3.7338   -1.0519 O   0  0  0  0  0  0  0  0  0  0  0  0
   -3.2077    3.5877    0.0304 C   0  0  0  0  0  0  0  0  0  0  0  0
   -2.3663    2.6191    0.4010 O   0  0  0  0  0  0  0  0  0  0  0  0
   -3.4674    4.5362    1.2243 C   0  0  0  0  0  0  0  0  0  0  0  0
   -2.3124    5.0622    1.6643 F   0  0  0  0  0  0  0  0  0  0  0  0
   -4.2822    5.5269    0.8592 F   0  0  0  0  0  0  0  0  0  0  0  0
   -4.0378    3.8575    2.2367 F   0  0  0  0  0  0  0  0  0  0  0  0
  1 11  2  0  0  0  0
  1  2  1  0  0  0  0
  2  3  1  0  0  0  0
  4 12  1  6  0  0  0
  4  1  1  0  0  0  0
  4 18  1  0  0  0  0
  5  6  2  0  0  0  0
  5  4  1  0  0  0  0
  6 10  1  0  0  0  0
  7  9  2  0  0  0  0
  7  6  1  0  0  0  0
  8  7  2  0  0  0  0
 10 14  1  0  0  0  0
 10 11  1  0  0  0  0
 11 15  1  0  0  0  0
 13  5  1  0  0  0  0
 16 17  2  0  0  0  0
 17 18  1  0  0  0  0
 17 19  1  0  0  0  0
 19 20  1  0  0  0  0
 19 22  1  0  0  0  0
 21 19  1  0  0  0  0
M  RAD  3   2   2   3   3  10   2
M  END
