Coordinates from ORCA-job 4-NO2PhN2+~CF3COO-_B3LYPG-6-31G_dp-NX-Scan-d89-09-n800
 OpenBabel11261920383D

 22 21  0  0  0  0  0  0  0  0999 V2000
   -1.8856    0.2062    0.2812 C   0  0  0  0  0  0  0  0  0  0  0  0
   -2.7778   -0.6382    0.8547 N   0  0  0  0  0  0  0  0  0  0  0  0
   -3.4564   -1.3973    1.3369 N   0  0  0  0  0  0  0  0  0  0  0  0
   -2.2304    0.8622   -0.9246 C   0  0  0  0  0  0  0  0  0  0  0  0
   -1.2049    1.5630   -1.5793 C   0  0  0  0  0  0  0  0  0  0  0  0
    0.0377    1.6464   -0.9887 C   0  0  0  0  0  0  0  0  0  0  0  0
    1.1034    2.3899   -1.6893 N   0  0  0  0  0  0  0  0  0  0  0  0
    0.8377    2.8537   -2.7931 O   0  0  0  0  0  0  0  0  0  0  0  0
    2.1883    2.4785   -1.1174 O   0  0  0  0  0  0  0  0  0  0  0  0
    0.3483    1.0683    0.2645 C   0  0  0  0  0  0  0  0  0  0  0  0
   -0.6095    0.3385    0.9136 C   0  0  0  0  0  0  0  0  0  0  0  0
   -3.1955    0.7219   -1.3862 H   0  0  0  0  0  0  0  0  0  0  0  0
   -1.4063    2.0639   -2.5154 H   0  0  0  0  0  0  0  0  0  0  0  0
    1.3362    1.2122    0.6819 H   0  0  0  0  0  0  0  0  0  0  0  0
   -0.4222   -0.1340    1.8701 H   0  0  0  0  0  0  0  0  0  0  0  0
   -3.6323    5.1748   -0.9092 O   0  0  0  0  0  0  0  0  0  0  0  0
   -3.3114    4.0507   -0.5281 C   0  0  0  0  0  0  0  0  0  0  0  0
   -3.4539    2.9371   -1.1419 O   0  0  0  0  0  0  0  0  0  0  0  0
   -2.6105    3.9333    0.8585 C   0  0  0  0  0  0  0  0  0  0  0  0
   -2.9781    2.8034    1.5301 F   0  0  0  0  0  0  0  0  0  0  0  0
   -1.2584    3.8524    0.6986 F   0  0  0  0  0  0  0  0  0  0  0  0
   -2.8579    4.9722    1.6614 F   0  0  0  0  0  0  0  0  0  0  0  0
  1  2  1  0  0  0  0
  1 11  1  0  0  0  0
  2  3  1  0  0  0  0
  4  1  2  0  0  0  0
  5  6  2  0  0  0  0
  5  4  1  0  0  0  0
  6 10  1  0  0  0  0
  7  9  2  0  0  0  0
  7  6  1  0  0  0  0
  8  7  2  0  0  0  0
 10 14  1  0  0  0  0
 10 11  2  0  0  0  0
 11 15  1  0  0  0  0
 12  4  1  0  0  0  0
 13  5  1  0  0  0  0
 16 17  1  0  0  0  0
 17 19  1  0  0  0  0
 18 17  2  0  0  0  0
 19 20  1  0  0  0  0
 19 22  1  0  0  0  0
 21 19  1  0  0  0  0
M  RAD  3   2   2   3   3  16   2
M  END
