Coordinates from ORCA-job 4-NO2PhN2+~CF3COO-_B3LYPG-6-31G_dp-NX-Scan-d89-09-n800
 OpenBabel11261920383D

 22 22  0  0  1  0  0  0  0  0999 V2000
   -1.8583    0.2022    0.0776 C   0  0  0  0  0  0  0  0  0  0  0  0
   -2.8362   -0.5985    0.4573 N   0  0  0  0  0  0  0  0  0  0  0  0
   -3.6351   -1.3368    0.7976 N   0  0  0  0  0  0  0  0  0  0  0  0
   -2.1773    1.4753   -0.6461 C   0  0  2  0  0  0  0  0  0  0  0  0
   -0.9879    1.9526   -1.4186 C   0  0  0  0  0  0  0  0  0  0  0  0
    0.2492    1.5227   -1.0982 C   0  0  0  0  0  0  0  0  0  0  0  0
    1.3992    2.1009   -1.8368 N   0  0  0  0  0  0  0  0  0  0  0  0
    1.1650    2.9125   -2.7271 O   0  0  0  0  0  0  0  0  0  0  0  0
    2.5205    1.7262   -1.4995 O   0  0  0  0  0  0  0  0  0  0  0  0
    0.5363    0.5056   -0.1183 C   0  0  0  0  0  0  0  0  0  0  0  0
   -0.5078   -0.1580    0.4346 C   0  0  0  0  0  0  0  0  0  0  0  0
   -3.0629    1.3955   -1.2809 H   0  0  0  0  0  0  0  0  0  0  0  0
   -1.1363    2.6976   -2.1884 H   0  0  0  0  0  0  0  0  0  0  0  0
    1.5640    0.2669    0.1145 H   0  0  0  0  0  0  0  0  0  0  0  0
   -0.3525   -0.9781    1.1278 H   0  0  0  0  0  0  0  0  0  0  0  0
   -3.0639    4.0912   -1.1533 O   0  0  0  0  0  0  0  0  0  0  0  0
   -2.9670    3.6929   -0.0177 C   0  0  0  0  0  0  0  0  0  0  0  0
   -2.5463    2.4975    0.4044 O   0  0  0  0  0  0  0  0  0  0  0  0
   -3.3479    4.5575    1.2086 C   0  0  0  0  0  0  0  0  0  0  0  0
   -2.3048    4.6713    2.0480 F   0  0  0  0  0  0  0  0  0  0  0  0
   -3.7216    5.7765    0.8174 F   0  0  0  0  0  0  0  0  0  0  0  0
   -4.3680    3.9858    1.8755 F   0  0  0  0  0  0  0  0  0  0  0  0
  1 11  2  0  0  0  0
  1  2  1  0  0  0  0
  2  3  1  0  0  0  0
  4 12  1  6  0  0  0
  4  1  1  0  0  0  0
  4 18  1  0  0  0  0
  5  6  2  0  0  0  0
  5  4  1  0  0  0  0
  6 10  1  0  0  0  0
  7  9  2  0  0  0  0
  7  6  1  0  0  0  0
  8  7  2  0  0  0  0
 10 14  1  0  0  0  0
 10 11  1  0  0  0  0
 11 15  1  0  0  0  0
 13  5  1  0  0  0  0
 16 17  2  0  0  0  0
 17 18  1  0  0  0  0
 17 19  1  0  0  0  0
 19 22  1  0  0  0  0
 19 20  1  0  0  0  0
 21 19  1  0  0  0  0
M  RAD  3   2   2   3   3  10   2
M  END
