Coordinates from ORCA-job 4-NO2PhN2+~CF3COO-_B3LYPG-6-31G_dp-NX-Scan-d89-09-n800
 OpenBabel11261920383D

 22 21  0  0  0  0  0  0  0  0999 V2000
   -1.6873   -0.7096    0.2824 C   0  0  0  0  0  0  0  0  0  0  0  0
   -2.3919   -1.8261    0.6219 N   0  0  0  0  0  0  0  0  0  0  0  0
   -2.9517   -2.7570    0.9212 N   0  0  0  0  0  0  0  0  0  0  0  0
   -2.3496    0.3583   -0.3717 C   0  0  0  0  0  0  0  0  0  0  0  0
   -1.5974    1.4581   -0.7587 C   0  0  0  0  0  0  0  0  0  0  0  0
   -0.2368    1.4702   -0.4451 C   0  0  0  0  0  0  0  0  0  0  0  0
    0.5884    2.6069   -0.9031 N   0  0  0  0  0  0  0  0  0  0  0  0
    0.0936    3.3562   -1.7330 O   0  0  0  0  0  0  0  0  0  0  0  0
    1.7187    2.6975   -0.4231 O   0  0  0  0  0  0  0  0  0  0  0  0
    0.4070    0.4462    0.2625 C   0  0  0  0  0  0  0  0  0  0  0  0
   -0.3090   -0.6778    0.6210 C   0  0  0  0  0  0  0  0  0  0  0  0
   -3.4182    0.3322   -0.5554 H   0  0  0  0  0  0  0  0  0  0  0  0
   -2.1101    2.3164   -1.2203 H   0  0  0  0  0  0  0  0  0  0  0  0
    1.4590    0.5460    0.4985 H   0  0  0  0  0  0  0  0  0  0  0  0
    0.1525   -1.5107    1.1383 H   0  0  0  0  0  0  0  0  0  0  0  0
   -3.9979    5.6884   -1.4716 O   0  0  0  0  0  0  0  0  0  0  0  0
   -3.3585    4.7422   -0.9930 C   0  0  0  0  0  0  0  0  0  0  0  0
   -3.4871    3.5094   -1.2502 O   0  0  0  0  0  0  0  0  0  0  0  0
   -2.2587    5.1359    0.0394 C   0  0  0  0  0  0  0  0  0  0  0  0
   -1.7201    4.0518    0.6736 F   0  0  0  0  0  0  0  0  0  0  0  0
   -1.2369    5.7826   -0.5566 F   0  0  0  0  0  0  0  0  0  0  0  0
   -2.7475    5.9420    1.0012 F   0  0  0  0  0  0  0  0  0  0  0  0
  1 11  1  0  0  0  0
  1  2  1  0  0  0  0
  2  3  1  0  0  0  0
  4  1  2  0  0  0  0
  5  6  2  0  0  0  0
  5  4  1  0  0  0  0
  6 10  1  0  0  0  0
  7  6  1  0  0  0  0
  7  9  2  0  0  0  0
  8  7  2  0  0  0  0
 10 14  1  0  0  0  0
 10 11  2  0  0  0  0
 11 15  1  0  0  0  0
 12  4  1  0  0  0  0
 13  5  1  0  0  0  0
 16 17  2  0  0  0  0
 17 19  1  0  0  0  0
 18 17  1  0  0  0  0
 19 20  1  0  0  0  0
 19 22  1  0  0  0  0
 21 19  1  0  0  0  0
M  RAD  3   2   2   3   3  18   2
M  END
