Coordinates from ORCA-job 4-NO2PhN2+~CF3COO-_B3LYPG-6-31G_dp-NX-Scan-d89-09-n800
 OpenBabel11261920383D

 22 22  0  0  1  0  0  0  0  0999 V2000
   -1.8757    0.5342   -0.1369 C   0  0  0  0  0  0  0  0  0  0  0  0
   -3.0711    0.0681    0.1865 N   0  0  0  0  0  0  0  0  0  0  0  0
   -4.1666   -0.1085    0.4223 N   0  0  0  0  0  0  0  0  0  0  0  0
   -1.8745    1.8467   -0.8569 C   0  0  2  0  0  0  0  0  0  0  0  0
   -0.5425    2.1253   -1.4598 C   0  0  0  0  0  0  0  0  0  0  0  0
    0.5434    1.4136   -1.0883 C   0  0  0  0  0  0  0  0  0  0  0  0
    1.8505    1.7902   -1.6839 N   0  0  0  0  0  0  0  0  0  0  0  0
    1.8694    2.7020   -2.5058 O   0  0  0  0  0  0  0  0  0  0  0  0
    2.8359    1.1599   -1.3067 O   0  0  0  0  0  0  0  0  0  0  0  0
    0.5261    0.2895   -0.1906 C   0  0  0  0  0  0  0  0  0  0  0  0
   -0.6797   -0.1504    0.2539 C   0  0  0  0  0  0  0  0  0  0  0  0
   -2.6872    1.9147   -1.5844 H   0  0  0  0  0  0  0  0  0  0  0  0
   -0.4493    2.9353   -2.1718 H   0  0  0  0  0  0  0  0  0  0  0  0
    1.4558   -0.1914    0.0754 H   0  0  0  0  0  0  0  0  0  0  0  0
   -0.7609   -1.0219    0.8953 H   0  0  0  0  0  0  0  0  0  0  0  0
   -4.3067    2.3477    0.3314 O   0  0  0  0  0  0  0  0  0  0  0  0
   -3.4050    3.1393    0.4976 C   0  0  0  0  0  0  0  0  0  0  0  0
   -2.1481    3.0208    0.0828 O   0  0  0  0  0  0  0  0  0  0  0  0
   -3.5973    4.4813    1.2418 C   0  0  0  0  0  0  0  0  0  0  0  0
   -3.4541    5.5030    0.3784 F   0  0  0  0  0  0  0  0  0  0  0  0
   -4.8167    4.5416    1.7800 F   0  0  0  0  0  0  0  0  0  0  0  0
   -2.6853    4.6184    2.2182 F   0  0  0  0  0  0  0  0  0  0  0  0
  1  2  1  0  0  0  0
  1 11  2  0  0  0  0
  2  3  1  0  0  0  0
  4 12  1  6  0  0  0
  4  1  1  0  0  0  0
  4 18  1  0  0  0  0
  5  6  2  0  0  0  0
  5  4  1  0  0  0  0
  6 10  1  0  0  0  0
  7  9  2  0  0  0  0
  7  6  1  0  0  0  0
  8  7  2  0  0  0  0
 10 14  1  0  0  0  0
 10 11  1  0  0  0  0
 11 15  1  0  0  0  0
 13  5  1  0  0  0  0
 16 17  2  0  0  0  0
 17 19  1  0  0  0  0
 18 17  1  0  0  0  0
 19 21  1  0  0  0  0
 19 22  1  0  0  0  0
 20 19  1  0  0  0  0
M  RAD  3   2   2   3   3  10   2
M  END
