Coordinates from ORCA-job 4-NO2PhN2+~CF3COO-_B3LYPG-6-31G_dp-NX-Scan-d89-09-n800
 OpenBabel11261920383D

 22 21  0  0  0  0  0  0  0  0999 V2000
   -1.8843    0.2145    0.2819 C   0  0  0  0  0  0  0  0  0  0  0  0
   -2.7770   -0.6273    0.8581 N   0  0  0  0  0  0  0  0  0  0  0  0
   -3.4559   -1.3843    1.3429 N   0  0  0  0  0  0  0  0  0  0  0  0
   -2.2282    0.8672   -0.9260 C   0  0  0  0  0  0  0  0  0  0  0  0
   -1.2009    1.5630   -1.5837 C   0  0  0  0  0  0  0  0  0  0  0  0
    0.0420    1.6454   -0.9940 C   0  0  0  0  0  0  0  0  0  0  0  0
    1.1094    2.3835   -1.6981 N   0  0  0  0  0  0  0  0  0  0  0  0
    0.8447    2.8431   -2.8038 O   0  0  0  0  0  0  0  0  0  0  0  0
    2.1952    2.4703   -1.1276 O   0  0  0  0  0  0  0  0  0  0  0  0
    0.3519    1.0711    0.2612 C   0  0  0  0  0  0  0  0  0  0  0  0
   -0.6075    0.3460    0.9131 C   0  0  0  0  0  0  0  0  0  0  0  0
   -3.1930    0.7254   -1.3878 H   0  0  0  0  0  0  0  0  0  0  0  0
   -1.4012    2.0606   -2.5219 H   0  0  0  0  0  0  0  0  0  0  0  0
    1.3404    1.2139    0.6776 H   0  0  0  0  0  0  0  0  0  0  0  0
   -0.4209   -0.1236    1.8712 H   0  0  0  0  0  0  0  0  0  0  0  0
   -3.6256    5.1768   -0.9051 O   0  0  0  0  0  0  0  0  0  0  0  0
   -3.3097    4.0509   -0.5255 C   0  0  0  0  0  0  0  0  0  0  0  0
   -3.4479    2.9398   -1.1451 O   0  0  0  0  0  0  0  0  0  0  0  0
   -2.6234    3.9259    0.8674 C   0  0  0  0  0  0  0  0  0  0  0  0
   -3.0082    2.7987    1.5338 F   0  0  0  0  0  0  0  0  0  0  0  0
   -1.2706    3.8321    0.7207 F   0  0  0  0  0  0  0  0  0  0  0  0
   -2.8687    4.9662    1.6692 F   0  0  0  0  0  0  0  0  0  0  0  0
  1  2  1  0  0  0  0
  1 11  1  0  0  0  0
  2  3  1  0  0  0  0
  4  1  2  0  0  0  0
  5  6  2  0  0  0  0
  5  4  1  0  0  0  0
  6 10  1  0  0  0  0
  7  9  2  0  0  0  0
  7  6  1  0  0  0  0
  8  7  2  0  0  0  0
 10 14  1  0  0  0  0
 10 11  2  0  0  0  0
 11 15  1  0  0  0  0
 12  4  1  0  0  0  0
 13  5  1  0  0  0  0
 16 17  1  0  0  0  0
 17 19  1  0  0  0  0
 18 17  2  0  0  0  0
 19 20  1  0  0  0  0
 19 22  1  0  0  0  0
 21 19  1  0  0  0  0
M  RAD  3   2   2   3   3  16   2
M  END
