Coordinates from ORCA-job 4-NO2PhN2+~CF3COO-_B3LYPG-6-31G_dp-NX-Scan-d89-09-n800
 OpenBabel11261920383D

 22 21  0  0  0  0  0  0  0  0999 V2000
   -1.7915   -0.2082    0.2957 C   0  0  0  0  0  0  0  0  0  0  0  0
   -2.6154   -1.1919    0.7581 N   0  0  0  0  0  0  0  0  0  0  0  0
   -3.2184   -2.0587    1.1492 N   0  0  0  0  0  0  0  0  0  0  0  0
   -2.2645    0.7311   -0.6519 C   0  0  0  0  0  0  0  0  0  0  0  0
   -1.3326    1.6157   -1.1890 C   0  0  0  0  0  0  0  0  0  0  0  0
   -0.0216    1.5818   -0.7307 C   0  0  0  0  0  0  0  0  0  0  0  0
    0.9572    2.5190   -1.3139 N   0  0  0  0  0  0  0  0  0  0  0  0
    0.5851    3.2052   -2.2573 O   0  0  0  0  0  0  0  0  0  0  0  0
    2.0825    2.5270   -0.8154 O   0  0  0  0  0  0  0  0  0  0  0  0
    0.4264    0.6970    0.2658 C   0  0  0  0  0  0  0  0  0  0  0  0
   -0.4526   -0.2231    0.7859 C   0  0  0  0  0  0  0  0  0  0  0  0
   -3.2993    0.7831   -0.9655 H   0  0  0  0  0  0  0  0  0  0  0  0
   -1.6616    2.3494   -1.9114 H   0  0  0  0  0  0  0  0  0  0  0  0
    1.4549    0.7513    0.5989 H   0  0  0  0  0  0  0  0  0  0  0  0
   -0.1521   -0.9402    1.5409 H   0  0  0  0  0  0  0  0  0  0  0  0
   -3.9571    5.3731   -1.2315 O   0  0  0  0  0  0  0  0  0  0  0  0
   -3.4743    4.3384   -0.7643 C   0  0  0  0  0  0  0  0  0  0  0  0
   -3.6182    3.1398   -1.1687 O   0  0  0  0  0  0  0  0  0  0  0  0
   -2.5186    4.4751    0.4596 C   0  0  0  0  0  0  0  0  0  0  0  0
   -2.7307    3.5025    1.3849 F   0  0  0  0  0  0  0  0  0  0  0  0
   -1.2181    4.3366    0.0580 F   0  0  0  0  0  0  0  0  0  0  0  0
   -2.6191    5.6552    1.0811 F   0  0  0  0  0  0  0  0  0  0  0  0
  1  2  1  0  0  0  0
  1 11  1  0  0  0  0
  2  3  1  0  0  0  0
  4  1  2  0  0  0  0
  5  6  2  0  0  0  0
  5  4  1  0  0  0  0
  6 10  1  0  0  0  0
  7  9  2  0  0  0  0
  7  6  1  0  0  0  0
  8  7  2  0  0  0  0
 10 14  1  0  0  0  0
 10 11  2  0  0  0  0
 11 15  1  0  0  0  0
 12  4  1  0  0  0  0
 13  5  1  0  0  0  0
 16 17  2  0  0  0  0
 17 19  1  0  0  0  0
 18 17  1  0  0  0  0
 19 22  1  0  0  0  0
 19 20  1  0  0  0  0
 21 19  1  0  0  0  0
M  RAD  3   2   2   3   3  18   2
M  END
