Coordinates from ORCA-job 4-NO2PhN2+~CF3COO-_B3LYPG-6-31G_dp-NX-Scan-d89-09-n800
 OpenBabel11261920383D

 22 22  0  0  0  0  0  0  0  0999 V2000
   -1.0151    0.9894    0.4569 C   0  0  0  0  0  0  0  0  0  0  0  0
   -1.7222    0.7556    1.6720 N   0  0  0  0  0  0  0  0  0  0  0  0
   -2.6676    1.4063    2.1276 N   0  0  0  0  0  0  0  0  0  0  0  0
   -0.7651    2.2309   -0.1612 C   0  0  0  0  0  0  0  0  0  0  0  0
    0.0328    2.2812   -1.2993 C   0  0  0  0  0  0  0  0  0  0  0  0
    0.5543    1.0993   -1.8212 C   0  0  0  0  0  0  0  0  0  0  0  0
    1.3834    1.1631   -3.0390 N   0  0  0  0  0  0  0  0  0  0  0  0
    1.5780    2.2706   -3.5358 O   0  0  0  0  0  0  0  0  0  0  0  0
    1.8365    0.1052   -3.4713 O   0  0  0  0  0  0  0  0  0  0  0  0
    0.3266   -0.1391   -1.2254 C   0  0  0  0  0  0  0  0  0  0  0  0
   -0.4419   -0.1817   -0.0696 C   0  0  0  0  0  0  0  0  0  0  0  0
   -1.1807    3.1460    0.2336 H   0  0  0  0  0  0  0  0  0  0  0  0
    0.2482    3.2200   -1.7935 H   0  0  0  0  0  0  0  0  0  0  0  0
    0.7620   -1.0308   -1.6572 H   0  0  0  0  0  0  0  0  0  0  0  0
   -0.6181   -1.1179    0.4483 H   0  0  0  0  0  0  0  0  0  0  0  0
   -3.0669    2.4299    1.3421 O   0  0  0  0  0  0  0  0  0  0  0  0
   -4.1058    3.1695    1.8562 C   0  0  0  0  0  0  0  0  0  0  0  0
   -4.6861    2.9977    2.8824 O   0  0  0  0  0  0  0  0  0  0  0  0
   -4.4110    4.2918    0.8386 C   0  0  0  0  0  0  0  0  0  0  0  0
   -4.8697    3.7638   -0.3071 F   0  0  0  0  0  0  0  0  0  0  0  0
   -5.3234    5.1226    1.3348 F   0  0  0  0  0  0  0  0  0  0  0  0
   -3.2876    4.9859    0.5663 F   0  0  0  0  0  0  0  0  0  0  0  0
  1  2  1  0  0  0  0
  2  3  1  0  0  0  0
  4 12  1  0  0  0  0
  4  1  2  0  0  0  0
  5  4  1  0  0  0  0
  6  5  2  0  0  0  0
  6 10  1  0  0  0  0
  7  6  1  0  0  0  0
  8  7  2  0  0  0  0
  9  7  2  0  0  0  0
 10 11  2  0  0  0  0
 11 15  1  0  0  0  0
 11  1  1  0  0  0  0
 13  5  1  0  0  0  0
 14 10  1  0  0  0  0
 16 17  1  0  0  0  0
 16  3  1  0  0  0  0
 17 18  2  0  0  0  0
 19 21  1  0  0  0  0
 19 17  1  0  0  0  0
 20 19  1  0  0  0  0
 22 19  1  0  0  0  0
M  RAD  2   2   2   3   2
M  END
