Coordinates from ORCA-job 4-NO2PhN2+~CF3COO-_B3LYPG-6-31G_dp-NX-Scan-d89-09-n800
 OpenBabel11261920383D

 22 22  0  0  1  0  0  0  0  0999 V2000
   -1.8425    0.3688   -0.0107 C   0  0  0  0  0  0  0  0  0  0  0  0
   -2.9456   -0.2511    0.3567 N   0  0  0  0  0  0  0  0  0  0  0  0
   -3.9067   -0.7764    0.6682 N   0  0  0  0  0  0  0  0  0  0  0  0
   -1.9933    1.6740   -0.7287 C   0  0  2  0  0  0  0  0  0  0  0  0
   -0.7293    2.0482   -1.4291 C   0  0  0  0  0  0  0  0  0  0  0  0
    0.4368    1.4563   -1.0997 C   0  0  0  0  0  0  0  0  0  0  0  0
    1.6702    1.9298   -1.7750 N   0  0  0  0  0  0  0  0  0  0  0  0
    1.5619    2.8106   -2.6234 O   0  0  0  0  0  0  0  0  0  0  0  0
    2.7278    1.4057   -1.4324 O   0  0  0  0  0  0  0  0  0  0  0  0
    0.5697    0.3683   -0.1636 C   0  0  0  0  0  0  0  0  0  0  0  0
   -0.5608   -0.1751    0.3522 C   0  0  0  0  0  0  0  0  0  0  0  0
   -2.8581    1.6936   -1.3938 H   0  0  0  0  0  0  0  0  0  0  0  0
   -0.7551    2.8380   -2.1694 H   0  0  0  0  0  0  0  0  0  0  0  0
    1.5542   -0.0085    0.0729 H   0  0  0  0  0  0  0  0  0  0  0  0
   -0.5233   -1.0282    1.0214 H   0  0  0  0  0  0  0  0  0  0  0  0
   -4.2040    3.3632   -0.7454 O   0  0  0  0  0  0  0  0  0  0  0  0
   -3.3759    3.4734    0.1252 C   0  0  0  0  0  0  0  0  0  0  0  0
   -2.2622    2.7535    0.2887 O   0  0  0  0  0  0  0  0  0  0  0  0
   -3.4807    4.5206    1.2590 C   0  0  0  0  0  0  0  0  0  0  0  0
   -2.4179    5.3422    1.2330 F   0  0  0  0  0  0  0  0  0  0  0  0
   -4.5907    5.2464    1.1177 F   0  0  0  0  0  0  0  0  0  0  0  0
   -3.5140    3.9058    2.4546 F   0  0  0  0  0  0  0  0  0  0  0  0
  1 11  2  0  0  0  0
  1  2  1  0  0  0  0
  2  3  1  0  0  0  0
  4 12  1  6  0  0  0
  4  1  1  0  0  0  0
  4 18  1  0  0  0  0
  5  6  2  0  0  0  0
  5  4  1  0  0  0  0
  6 10  1  0  0  0  0
  7  9  2  0  0  0  0
  7  6  1  0  0  0  0
  8  7  2  0  0  0  0
 10 14  1  0  0  0  0
 10 11  1  0  0  0  0
 11 15  1  0  0  0  0
 13  5  1  0  0  0  0
 16 17  2  0  0  0  0
 17 18  1  0  0  0  0
 17 19  1  0  0  0  0
 19 22  1  0  0  0  0
 20 19  1  0  0  0  0
 21 19  1  0  0  0  0
M  RAD  3   2   2   3   3  10   2
M  END
