Coordinates from ORCA-job 4-NO2PhN2+~CF3COO-_B3LYPG-6-31G_dp-NX-Scan-d89-09-n800
 OpenBabel11261920383D

 22 21  0  0  0  0  0  0  0  0999 V2000
   -1.7700   -0.2597    0.2928 C   0  0  0  0  0  0  0  0  0  0  0  0
   -2.5839   -1.2570    0.7453 N   0  0  0  0  0  0  0  0  0  0  0  0
   -3.1765   -2.1340    1.1299 N   0  0  0  0  0  0  0  0  0  0  0  0
   -2.2609    0.7101   -0.6143 C   0  0  0  0  0  0  0  0  0  0  0  0
   -1.3409    1.6130   -1.1398 C   0  0  0  0  0  0  0  0  0  0  0  0
   -0.0199    1.5641   -0.7097 C   0  0  0  0  0  0  0  0  0  0  0  0
    0.9485    2.5180   -1.2836 N   0  0  0  0  0  0  0  0  0  0  0  0
    0.5612    3.2262   -2.2040 O   0  0  0  0  0  0  0  0  0  0  0  0
    2.0810    2.5159   -0.8011 O   0  0  0  0  0  0  0  0  0  0  0  0
    0.4475    0.6473    0.2471 C   0  0  0  0  0  0  0  0  0  0  0  0
   -0.4214   -0.2908    0.7536 C   0  0  0  0  0  0  0  0  0  0  0  0
   -3.3023    0.7755   -0.9046 H   0  0  0  0  0  0  0  0  0  0  0  0
   -1.6893    2.3705   -1.8285 H   0  0  0  0  0  0  0  0  0  0  0  0
    1.4827    0.6901    0.5608 H   0  0  0  0  0  0  0  0  0  0  0  0
   -0.1051   -1.0334    1.4768 H   0  0  0  0  0  0  0  0  0  0  0  0
   -3.9691    5.4051   -1.2944 O   0  0  0  0  0  0  0  0  0  0  0  0
   -3.4835    4.3864   -0.7947 C   0  0  0  0  0  0  0  0  0  0  0  0
   -3.6159    3.1770   -1.1684 O   0  0  0  0  0  0  0  0  0  0  0  0
   -2.5468    4.5591    0.4388 C   0  0  0  0  0  0  0  0  0  0  0  0
   -2.8214    3.6555    1.4145 F   0  0  0  0  0  0  0  0  0  0  0  0
   -1.2449    4.3415    0.0775 F   0  0  0  0  0  0  0  0  0  0  0  0
   -2.6085    5.7789    0.9844 F   0  0  0  0  0  0  0  0  0  0  0  0
  1  2  1  0  0  0  0
  1 11  1  0  0  0  0
  2  3  1  0  0  0  0
  4  1  2  0  0  0  0
  5  6  2  0  0  0  0
  5  4  1  0  0  0  0
  6 10  1  0  0  0  0
  7  9  2  0  0  0  0
  7  6  1  0  0  0  0
  8  7  2  0  0  0  0
 10 14  1  0  0  0  0
 10 11  2  0  0  0  0
 11 15  1  0  0  0  0
 12  4  1  0  0  0  0
 13  5  1  0  0  0  0
 16 17  2  0  0  0  0
 17 19  1  0  0  0  0
 18 17  1  0  0  0  0
 19 22  1  0  0  0  0
 19 20  1  0  0  0  0
 21 19  1  0  0  0  0
M  RAD  3   2   2   3   3  18   2
M  END
