Coordinates from ORCA-job 4-NO2PhN2+~CF3COO-_B3LYPG-6-31G_dp-NX-Scan-d89-09-n800
 OpenBabel11261920383D

 22 21  0  0  0  0  0  0  0  0999 V2000
   -1.8190   -0.1367    0.2957 C   0  0  0  0  0  0  0  0  0  0  0  0
   -2.6559   -1.0994    0.7751 N   0  0  0  0  0  0  0  0  0  0  0  0
   -3.2733   -1.9500    1.1790 N   0  0  0  0  0  0  0  0  0  0  0  0
   -2.2662    0.7531   -0.7099 C   0  0  0  0  0  0  0  0  0  0  0  0
   -1.3185    1.6119   -1.2642 C   0  0  0  0  0  0  0  0  0  0  0  0
   -0.0227    1.6032   -0.7677 C   0  0  0  0  0  0  0  0  0  0  0  0
    0.9692    2.5175   -1.3643 N   0  0  0  0  0  0  0  0  0  0  0  0
    0.6160    3.1742   -2.3362 O   0  0  0  0  0  0  0  0  0  0  0  0
    2.0860    2.5384   -0.8481 O   0  0  0  0  0  0  0  0  0  0  0  0
    0.3980    0.7692    0.2847 C   0  0  0  0  0  0  0  0  0  0  0  0
   -0.4945   -0.1236    0.8259 C   0  0  0  0  0  0  0  0  0  0  0  0
   -3.2903    0.7780   -1.0576 H   0  0  0  0  0  0  0  0  0  0  0  0
   -1.6209    2.3082   -2.0331 H   0  0  0  0  0  0  0  0  0  0  0  0
    1.4165    0.8429    0.6434 H   0  0  0  0  0  0  0  0  0  0  0  0
   -0.2166   -0.7996    1.6260 H   0  0  0  0  0  0  0  0  0  0  0  0
   -3.9196    5.3257   -1.1558 O   0  0  0  0  0  0  0  0  0  0  0  0
   -3.4498    4.2723   -0.7203 C   0  0  0  0  0  0  0  0  0  0  0  0
   -3.6069    3.0878   -1.1618 O   0  0  0  0  0  0  0  0  0  0  0  0
   -2.4911    4.3637    0.5060 C   0  0  0  0  0  0  0  0  0  0  0  0
   -2.6655    3.3317    1.3746 F   0  0  0  0  0  0  0  0  0  0  0  0
   -1.1904    4.2901    0.0896 F   0  0  0  0  0  0  0  0  0  0  0  0
   -2.6241    5.5007    1.1972 F   0  0  0  0  0  0  0  0  0  0  0  0
  1  2  1  0  0  0  0
  1 11  1  0  0  0  0
  2  3  1  0  0  0  0
  4  1  2  0  0  0  0
  5  6  2  0  0  0  0
  5  4  1  0  0  0  0
  6 10  1  0  0  0  0
  7  9  2  0  0  0  0
  7  6  1  0  0  0  0
  8  7  2  0  0  0  0
 10 14  1  0  0  0  0
 10 11  2  0  0  0  0
 11 15  1  0  0  0  0
 12  4  1  0  0  0  0
 13  5  1  0  0  0  0
 16 17  1  0  0  0  0
 17 19  1  0  0  0  0
 18 17  2  0  0  0  0
 19 22  1  0  0  0  0
 19 20  1  0  0  0  0
 21 19  1  0  0  0  0
M  RAD  3   2   2   3   3  16   2
M  END
