Coordinates from ORCA-job 4-NO2PhN2+~CF3COO-_B3LYPG-6-31G_dp-NX-Scan-d89-09-n800
 OpenBabel11261920383D

 22 22  0  0  1  0  0  0  0  0999 V2000
   -1.8991    0.5102   -0.1186 C   0  0  0  0  0  0  0  0  0  0  0  0
   -3.0485   -0.0779    0.1559 N   0  0  0  0  0  0  0  0  0  0  0  0
   -4.0364   -0.5881    0.3921 N   0  0  0  0  0  0  0  0  0  0  0  0
   -1.9304    1.8138   -0.8552 C   0  0  2  0  0  0  0  0  0  0  0  0
   -0.6143    2.0919   -1.5013 C   0  0  0  0  0  0  0  0  0  0  0  0
    0.4962    1.4447   -1.0924 C   0  0  0  0  0  0  0  0  0  0  0  0
    1.7881    1.8231   -1.7164 N   0  0  0  0  0  0  0  0  0  0  0  0
    1.7742    2.6726   -2.6026 O   0  0  0  0  0  0  0  0  0  0  0  0
    2.7953    1.2578   -1.2958 O   0  0  0  0  0  0  0  0  0  0  0  0
    0.5159    0.3805   -0.1215 C   0  0  0  0  0  0  0  0  0  0  0  0
   -0.6721   -0.0912    0.3328 C   0  0  0  0  0  0  0  0  0  0  0  0
   -2.7640    1.8636   -1.5577 H   0  0  0  0  0  0  0  0  0  0  0  0
   -0.5547    2.8581   -2.2636 H   0  0  0  0  0  0  0  0  0  0  0  0
    1.4627   -0.0405    0.1836 H   0  0  0  0  0  0  0  0  0  0  0  0
   -0.7210   -0.9318    1.0173 H   0  0  0  0  0  0  0  0  0  0  0  0
   -4.4020    2.6414    0.0055 O   0  0  0  0  0  0  0  0  0  0  0  0
   -3.4247    3.2473    0.3757 C   0  0  0  0  0  0  0  0  0  0  0  0
   -2.1528    2.9695    0.0921 O   0  0  0  0  0  0  0  0  0  0  0  0
   -3.5002    4.4977    1.2826 C   0  0  0  0  0  0  0  0  0  0  0  0
   -2.9511    5.5563    0.6634 F   0  0  0  0  0  0  0  0  0  0  0  0
   -4.7707    4.7809    1.5752 F   0  0  0  0  0  0  0  0  0  0  0  0
   -2.8299    4.2792    2.4272 F   0  0  0  0  0  0  0  0  0  0  0  0
  1  2  1  0  0  0  0
  1 11  2  0  0  0  0
  2  3  1  0  0  0  0
  4 12  1  6  0  0  0
  4  1  1  0  0  0  0
  4 18  1  0  0  0  0
  5  6  2  0  0  0  0
  5  4  1  0  0  0  0
  6 10  1  0  0  0  0
  7  9  2  0  0  0  0
  7  6  1  0  0  0  0
  8  7  2  0  0  0  0
 10 14  1  0  0  0  0
 10 11  1  0  0  0  0
 11 15  1  0  0  0  0
 13  5  1  0  0  0  0
 16 17  2  0  0  0  0
 17 19  1  0  0  0  0
 18 17  1  0  0  0  0
 19 21  1  0  0  0  0
 19 22  1  0  0  0  0
 20 19  1  0  0  0  0
M  RAD  3   2   2   3   3  10   2
M  END
