Coordinates from ORCA-job 4-NO2PhN2+~CF3COO-_B3LYPG-6-31G_dp-NX-Scan-d89-09-n800
 OpenBabel11261920383D

 22 22  0  0  0  0  0  0  0  0999 V2000
   -1.0213    1.0166    0.4842 C   0  0  0  0  0  0  0  0  0  0  0  0
   -1.7094    0.7883    1.7154 N   0  0  0  0  0  0  0  0  0  0  0  0
   -2.6758    1.5110    2.0979 N   0  0  0  0  0  0  0  0  0  0  0  0
   -0.7442    2.2563   -0.1287 C   0  0  0  0  0  0  0  0  0  0  0  0
    0.0406    2.3048   -1.2762 C   0  0  0  0  0  0  0  0  0  0  0  0
    0.5305    1.1189   -1.8186 C   0  0  0  0  0  0  0  0  0  0  0  0
    1.3451    1.1777   -3.0421 N   0  0  0  0  0  0  0  0  0  0  0  0
    1.5502    2.2850   -3.5380 O   0  0  0  0  0  0  0  0  0  0  0  0
    1.7696    0.1152   -3.4942 O   0  0  0  0  0  0  0  0  0  0  0  0
    0.2782   -0.1200   -1.2312 C   0  0  0  0  0  0  0  0  0  0  0  0
   -0.4817   -0.1587   -0.0706 C   0  0  0  0  0  0  0  0  0  0  0  0
   -1.1269    3.1818    0.2787 H   0  0  0  0  0  0  0  0  0  0  0  0
    0.2720    3.2448   -1.7610 H   0  0  0  0  0  0  0  0  0  0  0  0
    0.6877   -1.0171   -1.6775 H   0  0  0  0  0  0  0  0  0  0  0  0
   -0.6765   -1.0977    0.4360 H   0  0  0  0  0  0  0  0  0  0  0  0
   -3.0234    2.3567    1.4165 O   0  0  0  0  0  0  0  0  0  0  0  0
   -4.1183    3.1513    1.8699 C   0  0  0  0  0  0  0  0  0  0  0  0
   -4.7034    2.9913    2.8865 O   0  0  0  0  0  0  0  0  0  0  0  0
   -4.3613    4.2269    0.7962 C   0  0  0  0  0  0  0  0  0  0  0  0
   -4.7164    3.6479   -0.3584 F   0  0  0  0  0  0  0  0  0  0  0  0
   -5.3243    5.0500    1.1967 F   0  0  0  0  0  0  0  0  0  0  0  0
   -3.2307    4.9282    0.5968 F   0  0  0  0  0  0  0  0  0  0  0  0
  1  2  1  0  0  0  0
  2  3  2  0  0  0  0
  4 12  1  0  0  0  0
  4  1  2  0  0  0  0
  5  4  1  0  0  0  0
  6  5  2  0  0  0  0
  6 10  1  0  0  0  0
  7  6  1  0  0  0  0
  8  7  2  0  0  0  0
  9  7  2  0  0  0  0
 10 11  2  0  0  0  0
 11 15  1  0  0  0  0
 11  1  1  0  0  0  0
 13  5  1  0  0  0  0
 14 10  1  0  0  0  0
 16 17  1  0  0  0  0
 16  3  1  0  0  0  0
 17 18  2  0  0  0  0
 19 21  1  0  0  0  0
 19 17  1  0  0  0  0
 20 19  1  0  0  0  0
 22 19  1  0  0  0  0
M  END
