Coordinates from ORCA-job 4-NO2PhN2+~CF3COO-_B3LYPG-6-31G_dp-NX-Scan-d89-09-n800
 OpenBabel11261920383D

 22 22  0  0  1  0  0  0  0  0999 V2000
   -1.8384    0.2254    0.0769 C   0  0  0  0  0  0  0  0  0  0  0  0
   -2.8530   -0.5122    0.4829 N   0  0  0  0  0  0  0  0  0  0  0  0
   -3.7110   -1.1729    0.8362 N   0  0  0  0  0  0  0  0  0  0  0  0
   -2.1284    1.5126   -0.6300 C   0  0  2  0  0  0  0  0  0  0  0  0
   -0.9300    1.9863   -1.3884 C   0  0  0  0  0  0  0  0  0  0  0  0
    0.2954    1.5039   -1.0997 C   0  0  0  0  0  0  0  0  0  0  0  0
    1.4563    2.0766   -1.8258 N   0  0  0  0  0  0  0  0  0  0  0  0
    1.2403    2.9403   -2.6706 O   0  0  0  0  0  0  0  0  0  0  0  0
    2.5674    1.6448   -1.5252 O   0  0  0  0  0  0  0  0  0  0  0  0
    0.5599    0.4410   -0.1627 C   0  0  0  0  0  0  0  0  0  0  0  0
   -0.4982   -0.1975    0.3942 C   0  0  0  0  0  0  0  0  0  0  0  0
   -3.0122    1.4615   -1.2699 H   0  0  0  0  0  0  0  0  0  0  0  0
   -1.0627    2.7652   -2.1277 H   0  0  0  0  0  0  0  0  0  0  0  0
    1.5818    0.1549    0.0403 H   0  0  0  0  0  0  0  0  0  0  0  0
   -0.3611   -1.0412    1.0624 H   0  0  0  0  0  0  0  0  0  0  0  0
   -3.2848    3.9667   -1.1481 O   0  0  0  0  0  0  0  0  0  0  0  0
   -3.0494    3.6567   -0.0055 C   0  0  0  0  0  0  0  0  0  0  0  0
   -2.4778    2.5311    0.4285 O   0  0  0  0  0  0  0  0  0  0  0  0
   -3.4028    4.5561    1.2027 C   0  0  0  0  0  0  0  0  0  0  0  0
   -2.3058    4.8148    1.9339 F   0  0  0  0  0  0  0  0  0  0  0  0
   -3.9243    5.7099    0.7840 F   0  0  0  0  0  0  0  0  0  0  0  0
   -4.3007    3.9351    1.9900 F   0  0  0  0  0  0  0  0  0  0  0  0
  1 11  2  0  0  0  0
  1  2  1  0  0  0  0
  2  3  1  0  0  0  0
  4 12  1  6  0  0  0
  4  1  1  0  0  0  0
  4 18  1  0  0  0  0
  5  6  2  0  0  0  0
  5  4  1  0  0  0  0
  6 10  1  0  0  0  0
  7  9  2  0  0  0  0
  7  6  1  0  0  0  0
  8  7  2  0  0  0  0
 10 14  1  0  0  0  0
 10 11  1  0  0  0  0
 11 15  1  0  0  0  0
 13  5  1  0  0  0  0
 16 17  2  0  0  0  0
 17 18  1  0  0  0  0
 17 19  1  0  0  0  0
 19 20  1  0  0  0  0
 19 22  1  0  0  0  0
 21 19  1  0  0  0  0
M  RAD  3   2   2   3   3  10   2
M  END
