Coordinates from ORCA-job 4-NO2PhN2+~CF3COO-_B3LYPG-6-31G_dp-NX-Scan-d89-09-n800
 OpenBabel11261920383D

 22 22  0  0  0  0  0  0  0  0999 V2000
   -1.1081    0.8312    0.2598 C   0  0  0  0  0  0  0  0  0  0  0  0
   -1.9580    0.5850    1.3625 N   0  0  0  0  0  0  0  0  0  0  0  0
   -2.8459    1.1330    1.9273 N   0  0  0  0  0  0  0  0  0  0  0  0
   -1.0244    2.0441   -0.4517 C   0  0  0  0  0  0  0  0  0  0  0  0
   -0.1164    2.1379   -1.5016 C   0  0  0  0  0  0  0  0  0  0  0  0
    0.6733    1.0362   -1.8252 C   0  0  0  0  0  0  0  0  0  0  0  0
    1.6276    1.1510   -2.9500 N   0  0  0  0  0  0  0  0  0  0  0  0
    1.6743    2.2252   -3.5428 O   0  0  0  0  0  0  0  0  0  0  0  0
    2.3075    0.1625   -3.2134 O   0  0  0  0  0  0  0  0  0  0  0  0
    0.6020   -0.1689   -1.1310 C   0  0  0  0  0  0  0  0  0  0  0  0
   -0.2937   -0.2637   -0.0736 C   0  0  0  0  0  0  0  0  0  0  0  0
   -1.6528    2.8807   -0.1867 H   0  0  0  0  0  0  0  0  0  0  0  0
   -0.0159    3.0512   -2.0744 H   0  0  0  0  0  0  0  0  0  0  0  0
    1.2390   -0.9949   -1.4194 H   0  0  0  0  0  0  0  0  0  0  0  0
   -0.3810   -1.1761    0.5053 H   0  0  0  0  0  0  0  0  0  0  0  0
   -3.2408    2.5781    1.1870 O   0  0  0  0  0  0  0  0  0  0  0  0
   -4.0743    3.3094    1.9190 C   0  0  0  0  0  0  0  0  0  0  0  0
   -4.4894    3.1130    3.0315 O   0  0  0  0  0  0  0  0  0  0  0  0
   -4.4964    4.5519    1.0857 C   0  0  0  0  0  0  0  0  0  0  0  0
   -5.3451    4.1840    0.1075 F   0  0  0  0  0  0  0  0  0  0  0  0
   -5.0994    5.4576    1.8564 F   0  0  0  0  0  0  0  0  0  0  0  0
   -3.4215    5.1309    0.5060 F   0  0  0  0  0  0  0  0  0  0  0  0
  1  2  1  0  0  0  0
  2  3  1  0  0  0  0
  4 12  1  0  0  0  0
  4  1  2  0  0  0  0
  5  4  1  0  0  0  0
  6  5  2  0  0  0  0
  6 10  1  0  0  0  0
  7  6  1  0  0  0  0
  8  7  2  0  0  0  0
  9  7  2  0  0  0  0
 10 11  2  0  0  0  0
 11  1  1  0  0  0  0
 11 15  1  0  0  0  0
 13  5  1  0  0  0  0
 14 10  1  0  0  0  0
 16 17  1  0  0  0  0
 16  3  1  0  0  0  0
 17 18  2  0  0  0  0
 19 21  1  0  0  0  0
 19 17  1  0  0  0  0
 20 19  1  0  0  0  0
 22 19  1  0  0  0  0
M  RAD  2   2   2   3   2
M  END
