Coordinates from ORCA-job 4-NO2PhN2+~CF3COO-_B3LYPG-6-31G_dp-NX-Scan-d89-09-n800
 OpenBabel11261920383D

 22 22  0  0  1  0  0  0  0  0999 V2000
   -1.8982    0.5486   -0.1416 C   0  0  0  0  0  0  0  0  0  0  0  0
   -3.0767    0.0276    0.1512 N   0  0  0  0  0  0  0  0  0  0  0  0
   -4.1254   -0.3369    0.3824 N   0  0  0  0  0  0  0  0  0  0  0  0
   -1.8989    1.8495   -0.8828 C   0  0  2  0  0  0  0  0  0  0  0  0
   -0.5682    2.1114   -1.5013 C   0  0  0  0  0  0  0  0  0  0  0  0
    0.5229    1.4302   -1.0930 C   0  0  0  0  0  0  0  0  0  0  0  0
    1.8292    1.7918   -1.6981 N   0  0  0  0  0  0  0  0  0  0  0  0
    1.8433    2.6612   -2.5648 O   0  0  0  0  0  0  0  0  0  0  0  0
    2.8191    1.1932   -1.2827 O   0  0  0  0  0  0  0  0  0  0  0  0
    0.5105    0.3477   -0.1440 C   0  0  0  0  0  0  0  0  0  0  0  0
   -0.6932   -0.0961    0.2995 C   0  0  0  0  0  0  0  0  0  0  0  0
   -2.7158    1.9054   -1.6055 H   0  0  0  0  0  0  0  0  0  0  0  0
   -0.4812    2.8897   -2.2486 H   0  0  0  0  0  0  0  0  0  0  0  0
    1.4439   -0.1053    0.1559 H   0  0  0  0  0  0  0  0  0  0  0  0
   -0.7688   -0.9443    0.9720 H   0  0  0  0  0  0  0  0  0  0  0  0
   -4.3188    2.4060    0.2629 O   0  0  0  0  0  0  0  0  0  0  0  0
   -3.3994    3.1666    0.4623 C   0  0  0  0  0  0  0  0  0  0  0  0
   -2.1454    3.0299    0.0416 O   0  0  0  0  0  0  0  0  0  0  0  0
   -3.5496    4.4753    1.2723 C   0  0  0  0  0  0  0  0  0  0  0  0
   -3.2520    5.5342    0.4994 F   0  0  0  0  0  0  0  0  0  0  0  0
   -4.8016    4.6043    1.7152 F   0  0  0  0  0  0  0  0  0  0  0  0
   -2.7153    4.4690    2.3260 F   0  0  0  0  0  0  0  0  0  0  0  0
  1  2  1  0  0  0  0
  1 11  2  0  0  0  0
  2  3  1  0  0  0  0
  4 12  1  6  0  0  0
  4  1  1  0  0  0  0
  4 18  1  0  0  0  0
  5  6  2  0  0  0  0
  5  4  1  0  0  0  0
  6 10  1  0  0  0  0
  7  9  2  0  0  0  0
  7  6  1  0  0  0  0
  8  7  2  0  0  0  0
 10 14  1  0  0  0  0
 10 11  1  0  0  0  0
 11 15  1  0  0  0  0
 13  5  1  0  0  0  0
 16 17  2  0  0  0  0
 17 19  1  0  0  0  0
 18 17  1  0  0  0  0
 19 21  1  0  0  0  0
 19 22  1  0  0  0  0
 20 19  1  0  0  0  0
M  RAD  3   2   2   3   3  10   2
M  END
