Coordinates from ORCA-job 4-NO2PhN2+~CF3COO-_B3LYPG-6-31G_dp-NX-Scan-d89-09-n800
 OpenBabel11261920383D

 22 22  0  0  1  0  0  0  0  0999 V2000
   -1.8707    0.5297   -0.1344 C   0  0  0  0  0  0  0  0  0  0  0  0
   -3.0679    0.0718    0.1961 N   0  0  0  0  0  0  0  0  0  0  0  0
   -4.1685   -0.0717    0.4322 N   0  0  0  0  0  0  0  0  0  0  0  0
   -1.8711    1.8438   -0.8512 C   0  0  2  0  0  0  0  0  0  0  0  0
   -0.5398    2.1265   -1.4526 C   0  0  0  0  0  0  0  0  0  0  0  0
    0.5462    1.4109   -1.0882 C   0  0  0  0  0  0  0  0  0  0  0  0
    1.8526    1.7913   -1.6833 N   0  0  0  0  0  0  0  0  0  0  0  0
    1.8708    2.7101   -2.4973 O   0  0  0  0  0  0  0  0  0  0  0  0
    2.8381    1.1569   -1.3133 O   0  0  0  0  0  0  0  0  0  0  0  0
    0.5299    0.2802   -0.1991 C   0  0  0  0  0  0  0  0  0  0  0  0
   -0.6755   -0.1603    0.2466 C   0  0  0  0  0  0  0  0  0  0  0  0
   -2.6839    1.9130   -1.5786 H   0  0  0  0  0  0  0  0  0  0  0  0
   -0.4470    2.9415   -2.1589 H   0  0  0  0  0  0  0  0  0  0  0  0
    1.4596   -0.2041    0.0603 H   0  0  0  0  0  0  0  0  0  0  0  0
   -0.7562   -1.0352    0.8832 H   0  0  0  0  0  0  0  0  0  0  0  0
   -4.3100    2.3442    0.3372 O   0  0  0  0  0  0  0  0  0  0  0  0
   -3.4089    3.1377    0.4995 C   0  0  0  0  0  0  0  0  0  0  0  0
   -2.1501    3.0171    0.0916 O   0  0  0  0  0  0  0  0  0  0  0  0
   -3.6048    4.4834    1.2361 C   0  0  0  0  0  0  0  0  0  0  0  0
   -3.4663    5.5001    0.3661 F   0  0  0  0  0  0  0  0  0  0  0  0
   -4.8238    4.5428    1.7756 F   0  0  0  0  0  0  0  0  0  0  0  0
   -2.6921    4.6296    2.2105 F   0  0  0  0  0  0  0  0  0  0  0  0
  1  2  1  0  0  0  0
  1 11  2  0  0  0  0
  2  3  1  0  0  0  0
  4 12  1  6  0  0  0
  4  1  1  0  0  0  0
  4 18  1  0  0  0  0
  5  6  2  0  0  0  0
  5  4  1  0  0  0  0
  6 10  1  0  0  0  0
  7  9  2  0  0  0  0
  7  6  1  0  0  0  0
  8  7  2  0  0  0  0
 10 14  1  0  0  0  0
 10 11  1  0  0  0  0
 11 15  1  0  0  0  0
 13  5  1  0  0  0  0
 16 17  2  0  0  0  0
 17 19  1  0  0  0  0
 18 17  1  0  0  0  0
 19 21  1  0  0  0  0
 19 22  1  0  0  0  0
 20 19  1  0  0  0  0
M  RAD  3   2   2   3   3  10   2
M  END
