Coordinates from ORCA-job 4-NO2PhN2+~CF3COO-_B3LYPG-6-31G_dp-NX-Scan-d89-09-n800
 OpenBabel11261920383D

 22 22  0  0  1  0  0  0  0  0999 V2000
   -1.8692    0.5282   -0.1335 C   0  0  0  0  0  0  0  0  0  0  0  0
   -3.0668    0.0725    0.1992 N   0  0  0  0  0  0  0  0  0  0  0  0
   -4.1686   -0.0622    0.4355 N   0  0  0  0  0  0  0  0  0  0  0  0
   -1.8702    1.8430   -0.8490 C   0  0  2  0  0  0  0  0  0  0  0  0
   -0.5392    2.1270   -1.4501 C   0  0  0  0  0  0  0  0  0  0  0  0
    0.5470    1.4102   -1.0882 C   0  0  0  0  0  0  0  0  0  0  0  0
    1.8530    1.7917   -1.6833 N   0  0  0  0  0  0  0  0  0  0  0  0
    1.8708    2.7128   -2.4949 O   0  0  0  0  0  0  0  0  0  0  0  0
    2.8386    1.1561   -1.3159 O   0  0  0  0  0  0  0  0  0  0  0  0
    0.5311    0.2773   -0.2020 C   0  0  0  0  0  0  0  0  0  0  0  0
   -0.6741   -0.1634    0.2442 C   0  0  0  0  0  0  0  0  0  0  0  0
   -2.6832    1.9128   -1.5761 H   0  0  0  0  0  0  0  0  0  0  0  0
   -0.4466    2.9436   -2.1545 H   0  0  0  0  0  0  0  0  0  0  0  0
    1.4608   -0.2081    0.0552 H   0  0  0  0  0  0  0  0  0  0  0  0
   -0.7546   -1.0395    0.8792 H   0  0  0  0  0  0  0  0  0  0  0  0
   -4.3110    2.3435    0.3384 O   0  0  0  0  0  0  0  0  0  0  0  0
   -3.4095    3.1366    0.5016 C   0  0  0  0  0  0  0  0  0  0  0  0
   -2.1504    3.0157    0.0953 O   0  0  0  0  0  0  0  0  0  0  0  0
   -3.6071    4.4843    1.2343 C   0  0  0  0  0  0  0  0  0  0  0  0
   -3.4672    5.4986    0.3617 F   0  0  0  0  0  0  0  0  0  0  0  0
   -4.8270    4.5450    1.7714 F   0  0  0  0  0  0  0  0  0  0  0  0
   -2.6961    4.6333    2.2098 F   0  0  0  0  0  0  0  0  0  0  0  0
  1  2  1  0  0  0  0
  1 11  2  0  0  0  0
  2  3  1  0  0  0  0
  4 12  1  6  0  0  0
  4  1  1  0  0  0  0
  4 18  1  0  0  0  0
  5  6  2  0  0  0  0
  5  4  1  0  0  0  0
  6 10  1  0  0  0  0
  7  9  2  0  0  0  0
  7  6  1  0  0  0  0
  8  7  2  0  0  0  0
 10 14  1  0  0  0  0
 10 11  1  0  0  0  0
 11 15  1  0  0  0  0
 13  5  1  0  0  0  0
 16 17  2  0  0  0  0
 17 19  1  0  0  0  0
 18 17  1  0  0  0  0
 19 21  1  0  0  0  0
 19 22  1  0  0  0  0
 20 19  1  0  0  0  0
M  RAD  3   2   2   3   3  10   2
M  END
