Coordinates from ORCA-job 4-NO2PhN2+~CF3COO-_B3LYPG-6-31G_dp-NX-Scan-d89-09-n800
 OpenBabel11261920383D

 22 21  0  0  0  0  0  0  0  0999 V2000
   -1.7351   -0.3337    0.2990 C   0  0  0  0  0  0  0  0  0  0  0  0
   -2.5352   -1.3445    0.7473 N   0  0  0  0  0  0  0  0  0  0  0  0
   -3.1238   -2.2257    1.1288 N   0  0  0  0  0  0  0  0  0  0  0  0
   -2.2578    0.6691   -0.5534 C   0  0  0  0  0  0  0  0  0  0  0  0
   -1.3637    1.6008   -1.0690 C   0  0  0  0  0  0  0  0  0  0  0  0
   -0.0279    1.5429   -0.6823 C   0  0  0  0  0  0  0  0  0  0  0  0
    0.9187    2.5236   -1.2485 N   0  0  0  0  0  0  0  0  0  0  0  0
    0.5037    3.2548   -2.1378 O   0  0  0  0  0  0  0  0  0  0  0  0
    2.0616    2.5183   -0.7905 O   0  0  0  0  0  0  0  0  0  0  0  0
    0.4743    0.5904    0.2184 C   0  0  0  0  0  0  0  0  0  0  0  0
   -0.3730   -0.3759    0.7124 C   0  0  0  0  0  0  0  0  0  0  0  0
   -3.3097    0.7395   -0.8047 H   0  0  0  0  0  0  0  0  0  0  0  0
   -1.7512    2.3878   -1.7053 H   0  0  0  0  0  0  0  0  0  0  0  0
    1.5190    0.6261    0.5001 H   0  0  0  0  0  0  0  0  0  0  0  0
   -0.0281   -1.1470    1.3913 H   0  0  0  0  0  0  0  0  0  0  0  0
   -3.9367    5.4960   -1.3782 O   0  0  0  0  0  0  0  0  0  0  0  0
   -3.4657    4.4780   -0.8615 C   0  0  0  0  0  0  0  0  0  0  0  0
   -3.5819    3.2695   -1.2401 O   0  0  0  0  0  0  0  0  0  0  0  0
   -2.5832    4.6498    0.4111 C   0  0  0  0  0  0  0  0  0  0  0  0
   -2.9650    3.8054    1.4033 F   0  0  0  0  0  0  0  0  0  0  0  0
   -1.2792    4.3412    0.1326 F   0  0  0  0  0  0  0  0  0  0  0  0
   -2.5995    5.8929    0.9053 F   0  0  0  0  0  0  0  0  0  0  0  0
  1 11  1  0  0  0  0
  1  2  1  0  0  0  0
  2  3  1  0  0  0  0
  4  1  2  0  0  0  0
  5  6  2  0  0  0  0
  5  4  1  0  0  0  0
  6 10  1  0  0  0  0
  7  9  2  0  0  0  0
  7  6  1  0  0  0  0
  8  7  2  0  0  0  0
 10 14  1  0  0  0  0
 10 11  2  0  0  0  0
 11 15  1  0  0  0  0
 12  4  1  0  0  0  0
 13  5  1  0  0  0  0
 16 17  2  0  0  0  0
 17 19  1  0  0  0  0
 18 17  1  0  0  0  0
 19 22  1  0  0  0  0
 19 20  1  0  0  0  0
 21 19  1  0  0  0  0
M  RAD  3   2   2   3   3  18   2
M  END
