Coordinates from ORCA-job 4-NO2PhN2+~CF3COO-_B3LYPG-6-31G_dp-NX-Scan-d89-09-n800
 OpenBabel11261920383D

 22 21  0  0  0  0  0  0  0  0999 V2000
   -1.8593    0.3161    0.2959 C   0  0  0  0  0  0  0  0  0  0  0  0
   -2.7715   -0.4711    0.9158 N   0  0  0  0  0  0  0  0  0  0  0  0
   -3.4717   -1.1826    1.4370 N   0  0  0  0  0  0  0  0  0  0  0  0
   -2.1982    0.9260   -0.9361 C   0  0  0  0  0  0  0  0  0  0  0  0
   -1.1553    1.5629   -1.6327 C   0  0  0  0  0  0  0  0  0  0  0  0
    0.0947    1.6314   -1.0590 C   0  0  0  0  0  0  0  0  0  0  0  0
    1.1767    2.3071   -1.8044 N   0  0  0  0  0  0  0  0  0  0  0  0
    0.9144    2.7281   -2.9258 O   0  0  0  0  0  0  0  0  0  0  0  0
    2.2702    2.3860   -1.2477 O   0  0  0  0  0  0  0  0  0  0  0  0
    0.4032    1.0973    0.2151 C   0  0  0  0  0  0  0  0  0  0  0  0
   -0.5714    0.4331    0.9073 C   0  0  0  0  0  0  0  0  0  0  0  0
   -3.1647    0.7733   -1.3897 H   0  0  0  0  0  0  0  0  0  0  0  0
   -1.3500    2.0251   -2.5900 H   0  0  0  0  0  0  0  0  0  0  0  0
    1.4011    1.2241    0.6137 H   0  0  0  0  0  0  0  0  0  0  0  0
   -0.3889   -0.0010    1.8827 H   0  0  0  0  0  0  0  0  0  0  0  0
   -3.5186    5.2104   -0.8423 O   0  0  0  0  0  0  0  0  0  0  0  0
   -3.2755    4.0565   -0.4977 C   0  0  0  0  0  0  0  0  0  0  0  0
   -3.3535    2.9870   -1.1976 O   0  0  0  0  0  0  0  0  0  0  0  0
   -2.7868    3.8153    0.9612 C   0  0  0  0  0  0  0  0  0  0  0  0
   -3.3744    2.7166    1.5200 F   0  0  0  0  0  0  0  0  0  0  0  0
   -1.4448    3.5687    0.9775 F   0  0  0  0  0  0  0  0  0  0  0  0
   -3.0152    4.8488    1.7750 F   0  0  0  0  0  0  0  0  0  0  0  0
  1 11  1  0  0  0  0
  1  2  1  0  0  0  0
  2  3  1  0  0  0  0
  4  1  2  0  0  0  0
  5  6  2  0  0  0  0
  5  4  1  0  0  0  0
  6 10  1  0  0  0  0
  7  9  2  0  0  0  0
  7  6  1  0  0  0  0
  8  7  2  0  0  0  0
 10 14  1  0  0  0  0
 10 11  2  0  0  0  0
 11 15  1  0  0  0  0
 12  4  1  0  0  0  0
 13  5  1  0  0  0  0
 16 17  1  0  0  0  0
 17 19  1  0  0  0  0
 18 17  2  0  0  0  0
 19 21  1  0  0  0  0
 19 20  1  0  0  0  0
 19 22  1  0  0  0  0
M  RAD  3   2   2   3   3  16   2
M  END
