Coordinates from ORCA-job 4-NO2PhN2+~CF3COO-_B3LYPG-6-31G_dp-NX-Scan-d89-09-n800
 OpenBabel11261920383D

 22 22  0  0  1  0  0  0  0  0999 V2000
   -1.8433    0.2166    0.0803 C   0  0  0  0  0  0  0  0  0  0  0  0
   -2.8432   -0.5444    0.4810 N   0  0  0  0  0  0  0  0  0  0  0  0
   -3.6779   -1.2350    0.8334 N   0  0  0  0  0  0  0  0  0  0  0  0
   -2.1463    1.4981   -0.6329 C   0  0  2  0  0  0  0  0  0  0  0  0
   -0.9530    1.9736   -1.3991 C   0  0  0  0  0  0  0  0  0  0  0  0
    0.2779    1.5107   -1.1016 C   0  0  0  0  0  0  0  0  0  0  0  0
    1.4327    2.0859   -1.8354 N   0  0  0  0  0  0  0  0  0  0  0  0
    1.2072    2.9316   -2.6958 O   0  0  0  0  0  0  0  0  0  0  0  0
    2.5488    1.6756   -1.5235 O   0  0  0  0  0  0  0  0  0  0  0  0
    0.5538    0.4646   -0.1493 C   0  0  0  0  0  0  0  0  0  0  0  0
   -0.4979   -0.1829    0.4089 C   0  0  0  0  0  0  0  0  0  0  0  0
   -3.0320    1.4359   -1.2694 H   0  0  0  0  0  0  0  0  0  0  0  0
   -1.0938    2.7403   -2.1493 H   0  0  0  0  0  0  0  0  0  0  0  0
    1.5787    0.1959    0.0622 H   0  0  0  0  0  0  0  0  0  0  0  0
   -0.3521   -1.0178    1.0864 H   0  0  0  0  0  0  0  0  0  0  0  0
   -3.1936    4.0172   -1.1526 O   0  0  0  0  0  0  0  0  0  0  0  0
   -3.0135    3.6725   -0.0098 C   0  0  0  0  0  0  0  0  0  0  0  0
   -2.5018    2.5179    0.4232 O   0  0  0  0  0  0  0  0  0  0  0  0
   -3.3861    4.5566    1.2043 C   0  0  0  0  0  0  0  0  0  0  0  0
   -2.3248    4.7273    2.0096 F   0  0  0  0  0  0  0  0  0  0  0  0
   -3.8127    5.7515    0.7934 F   0  0  0  0  0  0  0  0  0  0  0  0
   -4.3666    3.9675    1.9145 F   0  0  0  0  0  0  0  0  0  0  0  0
  1 11  2  0  0  0  0
  1  2  1  0  0  0  0
  2  3  1  0  0  0  0
  4 12  1  6  0  0  0
  4  1  1  0  0  0  0
  4 18  1  0  0  0  0
  5  6  2  0  0  0  0
  5  4  1  0  0  0  0
  6 10  1  0  0  0  0
  7  9  2  0  0  0  0
  7  6  1  0  0  0  0
  8  7  2  0  0  0  0
 10 14  1  0  0  0  0
 10 11  1  0  0  0  0
 11 15  1  0  0  0  0
 13  5  1  0  0  0  0
 16 17  2  0  0  0  0
 17 18  1  0  0  0  0
 17 19  1  0  0  0  0
 19 22  1  0  0  0  0
 19 20  1  0  0  0  0
 21 19  1  0  0  0  0
M  RAD  3   2   2   3   3  10   2
M  END
