Coordinates from ORCA-job 4-NO2PhN2+~CF3COO-_B3LYPG-6-31G_dp-NX-Scan-d89-09-n800
 OpenBabel11261920383D

 22 21  0  0  0  0  0  0  0  0999 V2000
   -1.8603    0.2964    0.2973 C   0  0  0  0  0  0  0  0  0  0  0  0
   -2.7668   -0.5033    0.9107 N   0  0  0  0  0  0  0  0  0  0  0  0
   -3.4599   -1.2262    1.4260 N   0  0  0  0  0  0  0  0  0  0  0  0
   -2.2030    0.9143   -0.9294 C   0  0  0  0  0  0  0  0  0  0  0  0
   -1.1655    1.5632   -1.6212 C   0  0  0  0  0  0  0  0  0  0  0  0
    0.0855    1.6330   -1.0485 C   0  0  0  0  0  0  0  0  0  0  0  0
    1.1631    2.3203   -1.7892 N   0  0  0  0  0  0  0  0  0  0  0  0
    0.8965    2.7515   -2.9058 O   0  0  0  0  0  0  0  0  0  0  0  0
    2.2556    2.4038   -1.2313 O   0  0  0  0  0  0  0  0  0  0  0  0
    0.3976    1.0908    0.2209 C   0  0  0  0  0  0  0  0  0  0  0  0
   -0.5727    0.4153    0.9086 C   0  0  0  0  0  0  0  0  0  0  0  0
   -3.1721    0.7682   -1.3802 H   0  0  0  0  0  0  0  0  0  0  0  0
   -1.3643    2.0334   -2.5737 H   0  0  0  0  0  0  0  0  0  0  0  0
    1.3951    1.2200    0.6199 H   0  0  0  0  0  0  0  0  0  0  0  0
   -0.3867   -0.0260    1.8801 H   0  0  0  0  0  0  0  0  0  0  0  0
   -3.5148    5.2169   -0.8617 O   0  0  0  0  0  0  0  0  0  0  0  0
   -3.2737    4.0644   -0.5100 C   0  0  0  0  0  0  0  0  0  0  0  0
   -3.3644    2.9894   -1.1993 O   0  0  0  0  0  0  0  0  0  0  0  0
   -2.7680    3.8335    0.9452 C   0  0  0  0  0  0  0  0  0  0  0  0
   -3.3451    2.7366    1.5173 F   0  0  0  0  0  0  0  0  0  0  0  0
   -1.4249    3.5921    0.9478 F   0  0  0  0  0  0  0  0  0  0  0  0
   -2.9908    4.8716    1.7551 F   0  0  0  0  0  0  0  0  0  0  0  0
  1 11  1  0  0  0  0
  1  2  1  0  0  0  0
  2  3  1  0  0  0  0
  4  1  2  0  0  0  0
  5  6  2  0  0  0  0
  5  4  1  0  0  0  0
  6 10  1  0  0  0  0
  7  9  2  0  0  0  0
  7  6  1  0  0  0  0
  8  7  2  0  0  0  0
 10 14  1  0  0  0  0
 10 11  2  0  0  0  0
 11 15  1  0  0  0  0
 12  4  1  0  0  0  0
 13  5  1  0  0  0  0
 16 17  1  0  0  0  0
 17 19  1  0  0  0  0
 18 17  2  0  0  0  0
 19 21  1  0  0  0  0
 19 20  1  0  0  0  0
 19 22  1  0  0  0  0
M  RAD  3   2   2   3   3  16   2
M  END
