Coordinates from ORCA-job 4-NO2PhN2+~CF3COO-_B3LYPG-6-31G_dp-NX-Scan-d89-09-n800
 OpenBabel11261920383D

 22 21  0  0  0  0  0  0  0  0999 V2000
   -1.8592    0.3124    0.2963 C   0  0  0  0  0  0  0  0  0  0  0  0
   -2.7703   -0.4770    0.9152 N   0  0  0  0  0  0  0  0  0  0  0  0
   -3.4691   -1.1907    1.4354 N   0  0  0  0  0  0  0  0  0  0  0  0
   -2.1988    0.9240   -0.9346 C   0  0  0  0  0  0  0  0  0  0  0  0
   -1.1571    1.5631   -1.6304 C   0  0  0  0  0  0  0  0  0  0  0  0
    0.0932    1.6316   -1.0571 C   0  0  0  0  0  0  0  0  0  0  0  0
    1.1744    2.3094   -1.8017 N   0  0  0  0  0  0  0  0  0  0  0  0
    0.9113    2.7320   -2.9224 O   0  0  0  0  0  0  0  0  0  0  0  0
    2.2680    2.3885   -1.2451 O   0  0  0  0  0  0  0  0  0  0  0  0
    0.4026    1.0957    0.2160 C   0  0  0  0  0  0  0  0  0  0  0  0
   -0.5712    0.4295    0.9074 C   0  0  0  0  0  0  0  0  0  0  0  0
   -3.1660    0.7729   -1.3875 H   0  0  0  0  0  0  0  0  0  0  0  0
   -1.3527    2.0270   -2.5866 H   0  0  0  0  0  0  0  0  0  0  0  0
    1.4006    1.2227    0.6145 H   0  0  0  0  0  0  0  0  0  0  0  0
   -0.3879   -0.0061    1.8820 H   0  0  0  0  0  0  0  0  0  0  0  0
   -3.5179    5.2123   -0.8459 O   0  0  0  0  0  0  0  0  0  0  0  0
   -3.2754    4.0585   -0.5001 C   0  0  0  0  0  0  0  0  0  0  0  0
   -3.3555    2.9882   -1.1984 O   0  0  0  0  0  0  0  0  0  0  0  0
   -2.7842    3.8188    0.9583 C   0  0  0  0  0  0  0  0  0  0  0  0
   -3.3704    2.7204    1.5190 F   0  0  0  0  0  0  0  0  0  0  0  0
   -1.4421    3.5729    0.9726 F   0  0  0  0  0  0  0  0  0  0  0  0
   -3.0117    4.8531    1.7715 F   0  0  0  0  0  0  0  0  0  0  0  0
  1 11  1  0  0  0  0
  1  2  1  0  0  0  0
  2  3  1  0  0  0  0
  4  1  2  0  0  0  0
  5  6  2  0  0  0  0
  5  4  1  0  0  0  0
  6 10  1  0  0  0  0
  7  9  2  0  0  0  0
  7  6  1  0  0  0  0
  8  7  2  0  0  0  0
 10 14  1  0  0  0  0
 10 11  2  0  0  0  0
 11 15  1  0  0  0  0
 12  4  1  0  0  0  0
 13  5  1  0  0  0  0
 16 17  1  0  0  0  0
 17 19  1  0  0  0  0
 18 17  2  0  0  0  0
 19 21  1  0  0  0  0
 19 20  1  0  0  0  0
 19 22  1  0  0  0  0
M  RAD  3   2   2   3   3  16   2
M  END
