Coordinates from ORCA-job 4-NO2PhN2+~CF3COO-_B3LYPG-6-31G_dp-NX-Scan-d89-09-n800
 OpenBabel11261920383D

 22 22  0  0  1  0  0  0  0  0999 V2000
   -1.9004    0.1777    0.0794 C   0  0  1  0  0  0  0  0  0  0  0  0
   -2.8004   -0.7403    0.3899 N   0  0  0  0  0  0  0  0  0  0  0  0
   -3.4874   -1.6024    0.6869 N   0  0  0  0  0  0  0  0  0  0  0  0
   -2.2637    1.4129   -0.6959 C   0  0  2  0  0  0  0  0  0  0  0  0
   -1.0862    1.8817   -1.4933 C   0  0  0  0  0  0  0  0  0  0  0  0
    0.1630    1.5578   -1.1021 C   0  0  0  0  0  0  0  0  0  0  0  0
    1.3013    2.1269   -1.8634 N   0  0  0  0  0  0  0  0  0  0  0  0
    1.0515    2.8034   -2.8563 O   0  0  0  0  0  0  0  0  0  0  0  0
    2.4295    1.8827   -1.4396 O   0  0  0  0  0  0  0  0  0  0  0  0
    0.4737    0.6509   -0.0256 C   0  0  0  0  0  0  0  0  0  0  0  0
   -0.5444   -0.0538    0.5243 C   0  0  0  0  0  0  0  0  0  0  0  0
   -3.1471    1.2701   -1.3222 H   0  0  0  0  0  0  0  0  0  0  0  0
   -1.2493    2.5425   -2.3328 H   0  0  0  0  0  0  0  0  0  0  0  0
    1.5031    0.5119    0.2724 H   0  0  0  0  0  0  0  0  0  0  0  0
   -0.3636   -0.8143    1.2769 H   0  0  0  0  0  0  0  0  0  0  0  0
   -2.6692    4.2848   -1.1002 O   0  0  0  0  0  0  0  0  0  0  0  0
   -2.8204    3.7480   -0.0289 C   0  0  0  0  0  0  0  0  0  0  0  0
   -2.6748    2.4627    0.3164 O   0  0  0  0  0  0  0  0  0  0  0  0
   -3.2421    4.5393    1.2359 C   0  0  0  0  0  0  0  0  0  0  0  0
   -2.3195    4.4050    2.2049 F   0  0  0  0  0  0  0  0  0  0  0  0
   -3.3766    5.8346    0.9478 F   0  0  0  0  0  0  0  0  0  0  0  0
   -4.4167    4.0772    1.7037 F   0  0  0  0  0  0  0  0  0  0  0  0
  1  2  1  1  0  0  0
  1 11  1  0  0  0  0
  2  3  1  0  0  0  0
  4 12  1  6  0  0  0
  4  1  1  0  0  0  0
  4 18  1  0  0  0  0
  5  6  2  0  0  0  0
  5  4  1  0  0  0  0
  6 10  1  0  0  0  0
  7  9  2  0  0  0  0
  7  6  1  0  0  0  0
  8  7  2  0  0  0  0
 10 14  1  0  0  0  0
 10 11  2  0  0  0  0
 11 15  1  0  0  0  0
 13  5  1  0  0  0  0
 16 17  2  0  0  0  0
 17 18  1  0  0  0  0
 17 19  1  0  0  0  0
 19 22  1  0  0  0  0
 19 20  1  0  0  0  0
 21 19  1  0  0  0  0
M  RAD  3   1   2   2   2   3   3
M  END
