Coordinates from ORCA-job 4-NO2PhN2+~CF3COO-_B3LYPG-6-31G_dp-NX-Scan-d89-09-n800
 OpenBabel11261920383D

 22 21  0  0  0  0  0  0  0  0999 V2000
   -1.3767    0.6256    0.0549 C   0  0  0  0  0  0  0  0  0  0  0  0
   -2.4144    0.3357    0.9610 N   0  0  0  0  0  0  0  0  0  0  0  0
   -3.3921    0.7071    1.4361 N   0  0  0  0  0  0  0  0  0  0  0  0
   -1.5104    1.6898   -0.8498 C   0  0  0  0  0  0  0  0  0  0  0  0
   -0.4589    1.9269   -1.7292 C   0  0  0  0  0  0  0  0  0  0  0  0
    0.6680    1.1079   -1.6777 C   0  0  0  0  0  0  0  0  0  0  0  0
    1.7787    1.3704   -2.6225 N   0  0  0  0  0  0  0  0  0  0  0  0
    1.6383    2.3014   -3.4091 O   0  0  0  0  0  0  0  0  0  0  0  0
    2.7603    0.6364   -2.5506 O   0  0  0  0  0  0  0  0  0  0  0  0
    0.7974    0.0499   -0.7799 C   0  0  0  0  0  0  0  0  0  0  0  0
   -0.2483   -0.2013    0.1002 C   0  0  0  0  0  0  0  0  0  0  0  0
   -2.4095    2.2958   -0.8351 H   0  0  0  0  0  0  0  0  0  0  0  0
   -0.5012    2.7349   -2.4491 H   0  0  0  0  0  0  0  0  0  0  0  0
    1.6972   -0.5515   -0.7861 H   0  0  0  0  0  0  0  0  0  0  0  0
   -0.1993   -1.0141    0.8157 H   0  0  0  0  0  0  0  0  0  0  0  0
   -3.9999    2.4825    0.5828 O   0  0  0  0  0  0  0  0  0  0  0  0
   -3.7114    3.2719    1.5595 C   0  0  0  0  0  0  0  0  0  0  0  0
   -3.0784    3.0196    2.5773 O   0  0  0  0  0  0  0  0  0  0  0  0
   -4.2480    4.7111    1.3134 C   0  0  0  0  0  0  0  0  0  0  0  0
   -5.5858    4.7089    1.1648 F   0  0  0  0  0  0  0  0  0  0  0  0
   -3.9390    5.5348    2.3214 F   0  0  0  0  0  0  0  0  0  0  0  0
   -3.7060    5.2154    0.1805 F   0  0  0  0  0  0  0  0  0  0  0  0
  1 11  1  0  0  0  0
  1  2  1  0  0  0  0
  2  3  2  0  0  0  0
  4 12  1  0  0  0  0
  4  1  2  0  0  0  0
  5  6  2  0  0  0  0
  5  4  1  0  0  0  0
  6 10  1  0  0  0  0
  7  9  2  0  0  0  0
  7  6  1  0  0  0  0
  8  7  2  0  0  0  0
 10 11  2  0  0  0  0
 11 15  1  0  0  0  0
 13  5  1  0  0  0  0
 14 10  1  0  0  0  0
 16 17  2  0  0  0  0
 17 18  1  0  0  0  0
 19 17  1  0  0  0  0
 19 21  1  0  0  0  0
 20 19  1  0  0  0  0
 22 19  1  0  0  0  0
M  RAD  2   3   2  18   2
M  END
