Coordinates from ORCA-job 4-NO2PhN2+~CF3COO-_B3LYPG-6-31G_dp-NX-Scan-d89-09-n800
 OpenBabel11261920383D

 22 22  0  0  1  0  0  0  0  0999 V2000
   -1.8860    0.4853   -0.0973 C   0  0  0  0  0  0  0  0  0  0  0  0
   -3.0265   -0.1097    0.1963 N   0  0  0  0  0  0  0  0  0  0  0  0
   -4.0069   -0.6272    0.4505 N   0  0  0  0  0  0  0  0  0  0  0  0
   -1.9396    1.7897   -0.8317 C   0  0  2  0  0  0  0  0  0  0  0  0
   -0.6331    2.0845   -1.4900 C   0  0  0  0  0  0  0  0  0  0  0  0
    0.4884    1.4466   -1.0973 C   0  0  0  0  0  0  0  0  0  0  0  0
    1.7693    1.8414   -1.7332 N   0  0  0  0  0  0  0  0  0  0  0  0
    1.7376    2.6988   -2.6114 O   0  0  0  0  0  0  0  0  0  0  0  0
    2.7870    1.2856   -1.3255 O   0  0  0  0  0  0  0  0  0  0  0  0
    0.5297    0.3783   -0.1312 C   0  0  0  0  0  0  0  0  0  0  0  0
   -0.6477   -0.1057    0.3372 C   0  0  0  0  0  0  0  0  0  0  0  0
   -2.7811    1.8331   -1.5248 H   0  0  0  0  0  0  0  0  0  0  0  0
   -0.5899    2.8555   -2.2486 H   0  0  0  0  0  0  0  0  0  0  0  0
    1.4841   -0.0351    0.1602 H   0  0  0  0  0  0  0  0  0  0  0  0
   -0.6800   -0.9481    1.0203 H   0  0  0  0  0  0  0  0  0  0  0  0
   -4.4216    2.7614   -0.1320 O   0  0  0  0  0  0  0  0  0  0  0  0
   -3.4362    3.2862    0.3281 C   0  0  0  0  0  0  0  0  0  0  0  0
   -2.1659    2.9331    0.1274 O   0  0  0  0  0  0  0  0  0  0  0  0
   -3.4958    4.5044    1.2793 C   0  0  0  0  0  0  0  0  0  0  0  0
   -2.7841    5.5273    0.7778 F   0  0  0  0  0  0  0  0  0  0  0  0
   -4.7591    4.8990    1.4465 F   0  0  0  0  0  0  0  0  0  0  0  0
   -2.9823    4.1749    2.4778 F   0  0  0  0  0  0  0  0  0  0  0  0
  1  2  1  0  0  0  0
  1 11  2  0  0  0  0
  2  3  1  0  0  0  0
  4 12  1  6  0  0  0
  4  1  1  0  0  0  0
  4 18  1  0  0  0  0
  5  6  2  0  0  0  0
  5  4  1  0  0  0  0
  6 10  1  0  0  0  0
  7  9  2  0  0  0  0
  7  6  1  0  0  0  0
  8  7  2  0  0  0  0
 10 14  1  0  0  0  0
 10 11  1  0  0  0  0
 11 15  1  0  0  0  0
 13  5  1  0  0  0  0
 16 17  2  0  0  0  0
 17 19  1  0  0  0  0
 18 17  1  0  0  0  0
 19 21  1  0  0  0  0
 19 22  1  0  0  0  0
 20 19  1  0  0  0  0
M  RAD  3   2   2   3   3  10   2
M  END
