Coordinates from ORCA-job 4-NO2PhN2+~CF3COO-_B3LYPG-6-31G_dp-NX-Scan-d89-09-n800
 OpenBabel11261920383D

 22 22  0  0  1  0  0  0  0  0999 V2000
   -1.8800    0.4704   -0.0877 C   0  0  0  0  0  0  0  0  0  0  0  0
   -3.0161   -0.1272    0.2158 N   0  0  0  0  0  0  0  0  0  0  0  0
   -3.9933   -0.6472    0.4787 N   0  0  0  0  0  0  0  0  0  0  0  0
   -1.9446    1.7765   -0.8185 C   0  0  2  0  0  0  0  0  0  0  0  0
   -0.6425    2.0815   -1.4809 C   0  0  0  0  0  0  0  0  0  0  0  0
    0.4842    1.4477   -1.0969 C   0  0  0  0  0  0  0  0  0  0  0  0
    1.7599    1.8526   -1.7369 N   0  0  0  0  0  0  0  0  0  0  0  0
    1.7191    2.7121   -2.6126 O   0  0  0  0  0  0  0  0  0  0  0  0
    2.7821    1.2977   -1.3393 O   0  0  0  0  0  0  0  0  0  0  0  0
    0.5359    0.3752   -0.1359 C   0  0  0  0  0  0  0  0  0  0  0  0
   -0.6363   -0.1160    0.3378 C   0  0  0  0  0  0  0  0  0  0  0  0
   -2.7892    1.8183   -1.5077 H   0  0  0  0  0  0  0  0  0  0  0  0
   -0.6070    2.8565   -2.2359 H   0  0  0  0  0  0  0  0  0  0  0  0
    1.4940   -0.0347    0.1485 H   0  0  0  0  0  0  0  0  0  0  0  0
   -0.6606   -0.9606    1.0185 H   0  0  0  0  0  0  0  0  0  0  0  0
   -4.4230    2.8324   -0.2112 O   0  0  0  0  0  0  0  0  0  0  0  0
   -3.4394    3.3080    0.3024 C   0  0  0  0  0  0  0  0  0  0  0  0
   -2.1748    2.9111    0.1491 O   0  0  0  0  0  0  0  0  0  0  0  0
   -3.4936    4.5082    1.2766 C   0  0  0  0  0  0  0  0  0  0  0  0
   -2.7301    5.5157    0.8223 F   0  0  0  0  0  0  0  0  0  0  0  0
   -4.7484    4.9423    1.4061 F   0  0  0  0  0  0  0  0  0  0  0  0
   -3.0359    4.1386    2.4860 F   0  0  0  0  0  0  0  0  0  0  0  0
  1  2  1  0  0  0  0
  1 11  2  0  0  0  0
  2  3  1  0  0  0  0
  4 12  1  6  0  0  0
  4  1  1  0  0  0  0
  4 18  1  0  0  0  0
  5  6  2  0  0  0  0
  5  4  1  0  0  0  0
  6 10  1  0  0  0  0
  7  9  2  0  0  0  0
  7  6  1  0  0  0  0
  8  7  2  0  0  0  0
 10 14  1  0  0  0  0
 10 11  1  0  0  0  0
 11 15  1  0  0  0  0
 13  5  1  0  0  0  0
 16 17  2  0  0  0  0
 17 19  1  0  0  0  0
 18 17  1  0  0  0  0
 19 21  1  0  0  0  0
 19 22  1  0  0  0  0
 20 19  1  0  0  0  0
M  RAD  3   2   2   3   3  10   2
M  END
