Coordinates from ORCA-job 4-NO2PhN2+~CF3COO-_B3LYPG-6-31G_dp-NX-Scan-d89-09-n800
 OpenBabel11261920383D

 22 22  0  0  1  0  0  0  0  0999 V2000
   -1.8594    0.4191   -0.0505 C   0  0  0  0  0  0  0  0  0  0  0  0
   -2.9812   -0.1847    0.2877 N   0  0  0  0  0  0  0  0  0  0  0  0
   -3.9538   -0.7010    0.5770 N   0  0  0  0  0  0  0  0  0  0  0  0
   -1.9656    1.7262   -0.7745 C   0  0  2  0  0  0  0  0  0  0  0  0
   -0.6811    2.0650   -1.4550 C   0  0  0  0  0  0  0  0  0  0  0  0
    0.4647    1.4489   -1.0996 C   0  0  0  0  0  0  0  0  0  0  0  0
    1.7205    1.8870   -1.7570 N   0  0  0  0  0  0  0  0  0  0  0  0
    1.6487    2.7663   -2.6108 O   0  0  0  0  0  0  0  0  0  0  0  0
    2.7612    1.3531   -1.3793 O   0  0  0  0  0  0  0  0  0  0  0  0
    0.5553    0.3666   -0.1520 C   0  0  0  0  0  0  0  0  0  0  0  0
   -0.5972   -0.1491    0.3431 C   0  0  0  0  0  0  0  0  0  0  0  0
   -2.8212    1.7585   -1.4506 H   0  0  0  0  0  0  0  0  0  0  0  0
   -0.6744    2.8493   -2.2014 H   0  0  0  0  0  0  0  0  0  0  0  0
    1.5264   -0.0291    0.1076 H   0  0  0  0  0  0  0  0  0  0  0  0
   -0.5921   -0.9986    1.0181 H   0  0  0  0  0  0  0  0  0  0  0  0
   -4.3666    3.0946   -0.4887 O   0  0  0  0  0  0  0  0  0  0  0  0
   -3.4277    3.3886    0.2102 C   0  0  0  0  0  0  0  0  0  0  0  0
   -2.2131    2.8325    0.2195 O   0  0  0  0  0  0  0  0  0  0  0  0
   -3.4863    4.5153    1.2686 C   0  0  0  0  0  0  0  0  0  0  0  0
   -2.5618    5.4531    1.0034 F   0  0  0  0  0  0  0  0  0  0  0  0
   -4.6918    5.0860    1.2706 F   0  0  0  0  0  0  0  0  0  0  0  0
   -3.2430    4.0117    2.4918 F   0  0  0  0  0  0  0  0  0  0  0  0
  1  2  1  0  0  0  0
  1 11  2  0  0  0  0
  2  3  1  0  0  0  0
  4 12  1  6  0  0  0
  4  1  1  0  0  0  0
  4 18  1  0  0  0  0
  5  6  2  0  0  0  0
  5  4  1  0  0  0  0
  6 10  1  0  0  0  0
  7  9  2  0  0  0  0
  7  6  1  0  0  0  0
  8  7  2  0  0  0  0
 10 14  1  0  0  0  0
 10 11  1  0  0  0  0
 11 15  1  0  0  0  0
 13  5  1  0  0  0  0
 16 17  2  0  0  0  0
 17 18  1  0  0  0  0
 17 19  1  0  0  0  0
 19 21  1  0  0  0  0
 19 22  1  0  0  0  0
 20 19  1  0  0  0  0
M  RAD  3   2   2   3   3  10   2
M  END
