Coordinates from ORCA-job 4-NO2PhN2+~CF3COO-_B3LYPG-6-31G_dp-NX-Scan-d89-09-n800
 OpenBabel11261920383D

 22 22  0  0  1  0  0  0  0  0999 V2000
   -1.8864    0.1839    0.0737 C   0  0  1  0  0  0  0  0  0  0  0  0
   -2.8210   -0.6879    0.4091 N   0  0  0  0  0  0  0  0  0  0  0  0
   -3.5546   -1.5038    0.7213 N   0  0  0  0  0  0  0  0  0  0  0  0
   -2.2306    1.4376   -0.6768 C   0  0  2  0  0  0  0  0  0  0  0  0
   -1.0465    1.9123   -1.4606 C   0  0  0  0  0  0  0  0  0  0  0  0
    0.1980    1.5442   -1.0950 C   0  0  0  0  0  0  0  0  0  0  0  0
    1.3425    2.1203   -1.8429 N   0  0  0  0  0  0  0  0  0  0  0  0
    1.0992    2.8568   -2.7937 O   0  0  0  0  0  0  0  0  0  0  0  0
    2.4687    1.8198   -1.4514 O   0  0  0  0  0  0  0  0  0  0  0  0
    0.4985    0.5882   -0.0591 C   0  0  0  0  0  0  0  0  0  0  0  0
   -0.5320   -0.1018    0.4862 C   0  0  0  0  0  0  0  0  0  0  0  0
   -3.1144    1.3235   -1.3086 H   0  0  0  0  0  0  0  0  0  0  0  0
   -1.2029    2.6109   -2.2708 H   0  0  0  0  0  0  0  0  0  0  0  0
    1.5279    0.4071    0.2153 H   0  0  0  0  0  0  0  0  0  0  0  0
   -0.3627   -0.8899    1.2127 H   0  0  0  0  0  0  0  0  0  0  0  0
   -2.8494    4.2071   -1.1355 O   0  0  0  0  0  0  0  0  0  0  0  0
   -2.8878    3.7252   -0.0290 C   0  0  0  0  0  0  0  0  0  0  0  0
   -2.6231    2.4720    0.3557 O   0  0  0  0  0  0  0  0  0  0  0  0
   -3.2777    4.5511    1.2226 C   0  0  0  0  0  0  0  0  0  0  0  0
   -2.2681    4.5593    2.1104 F   0  0  0  0  0  0  0  0  0  0  0  0
   -3.5577    5.8087    0.8781 F   0  0  0  0  0  0  0  0  0  0  0  0
   -4.3595    4.0147    1.8166 F   0  0  0  0  0  0  0  0  0  0  0  0
  1  2  1  1  0  0  0
  1 11  1  0  0  0  0
  2  3  1  0  0  0  0
  4 12  1  6  0  0  0
  4  1  1  0  0  0  0
  4 18  1  0  0  0  0
  5  6  2  0  0  0  0
  5  4  1  0  0  0  0
  6 10  1  0  0  0  0
  7  9  2  0  0  0  0
  7  6  1  0  0  0  0
  8  7  2  0  0  0  0
 10 14  1  0  0  0  0
 10 11  2  0  0  0  0
 11 15  1  0  0  0  0
 13  5  1  0  0  0  0
 16 17  2  0  0  0  0
 17 18  1  0  0  0  0
 17 19  1  0  0  0  0
 19 22  1  0  0  0  0
 19 20  1  0  0  0  0
 21 19  1  0  0  0  0
M  RAD  3   1   2   2   2   3   3
M  END
