Coordinates from ORCA-job 4-NO2PhN2+~CF3COO-_B3LYPG-6-31G_dp-NX-Scan-d89-09-n800
 OpenBabel11261920383D

 22 22  0  0  1  0  0  0  0  0999 V2000
   -1.8903    0.1811    0.0750 C   0  0  1  0  0  0  0  0  0  0  0  0
   -2.8144   -0.7051    0.4034 N   0  0  0  0  0  0  0  0  0  0  0  0
   -3.5342   -1.5355    0.7114 N   0  0  0  0  0  0  0  0  0  0  0  0
   -2.2412    1.4291   -0.6830 C   0  0  2  0  0  0  0  0  0  0  0  0
   -1.0594    1.9028   -1.4710 C   0  0  0  0  0  0  0  0  0  0  0  0
    0.1869    1.5494   -1.0967 C   0  0  0  0  0  0  0  0  0  0  0  0
    1.3292    2.1242   -1.8485 N   0  0  0  0  0  0  0  0  0  0  0  0
    1.0834    2.8408   -2.8139 O   0  0  0  0  0  0  0  0  0  0  0  0
    2.4564    1.8413   -1.4468 O   0  0  0  0  0  0  0  0  0  0  0  0
    0.4912    0.6088   -0.0479 C   0  0  0  0  0  0  0  0  0  0  0  0
   -0.5351   -0.0868    0.4983 C   0  0  0  0  0  0  0  0  0  0  0  0
   -3.1249    1.3058   -1.3131 H   0  0  0  0  0  0  0  0  0  0  0  0
   -1.2184    2.5895   -2.2906 H   0  0  0  0  0  0  0  0  0  0  0  0
    1.5208    0.4417    0.2345 H   0  0  0  0  0  0  0  0  0  0  0  0
   -0.3617   -0.8662    1.2332 H   0  0  0  0  0  0  0  0  0  0  0  0
   -2.7999    4.2304   -1.1279 O   0  0  0  0  0  0  0  0  0  0  0  0
   -2.8695    3.7313   -0.0302 C   0  0  0  0  0  0  0  0  0  0  0  0
   -2.6393    2.4677    0.3439 O   0  0  0  0  0  0  0  0  0  0  0  0
   -3.2650    4.5473    1.2265 C   0  0  0  0  0  0  0  0  0  0  0  0
   -2.2831    4.5010    2.1438 F   0  0  0  0  0  0  0  0  0  0  0  0
   -3.4884    5.8209    0.9001 F   0  0  0  0  0  0  0  0  0  0  0  0
   -4.3829    4.0397    1.7778 F   0  0  0  0  0  0  0  0  0  0  0  0
  1  2  1  1  0  0  0
  1 11  1  0  0  0  0
  2  3  1  0  0  0  0
  4 12  1  6  0  0  0
  4  1  1  0  0  0  0
  4 18  1  0  0  0  0
  5  6  2  0  0  0  0
  5  4  1  0  0  0  0
  6 10  1  0  0  0  0
  7  9  2  0  0  0  0
  7  6  1  0  0  0  0
  8  7  2  0  0  0  0
 10 14  1  0  0  0  0
 10 11  2  0  0  0  0
 11 15  1  0  0  0  0
 13  5  1  0  0  0  0
 16 17  2  0  0  0  0
 17 18  1  0  0  0  0
 17 19  1  0  0  0  0
 19 22  1  0  0  0  0
 19 20  1  0  0  0  0
 21 19  1  0  0  0  0
M  RAD  3   1   2   2   2   3   3
M  END
