Coordinates from ORCA-job 4-NO2PhN2+~CF3COO-_B3LYPG-6-31G_dp-NX-Scan-d89-09-n800
 OpenBabel11261920383D

 22 21  0  0  0  0  0  0  0  0999 V2000
   -1.7300   -0.3480    0.2996 C   0  0  0  0  0  0  0  0  0  0  0  0
   -2.5256   -1.3632    0.7463 N   0  0  0  0  0  0  0  0  0  0  0  0
   -3.1118   -2.2466    1.1263 N   0  0  0  0  0  0  0  0  0  0  0  0
   -2.2592    0.6584   -0.5446 C   0  0  0  0  0  0  0  0  0  0  0  0
   -1.3709    1.5967   -1.0579 C   0  0  0  0  0  0  0  0  0  0  0  0
   -0.0331    1.5407   -0.6768 C   0  0  0  0  0  0  0  0  0  0  0  0
    0.9085    2.5270   -1.2416 N   0  0  0  0  0  0  0  0  0  0  0  0
    0.4891    3.2587   -2.1284 O   0  0  0  0  0  0  0  0  0  0  0  0
    2.0518    2.5258   -0.7847 O   0  0  0  0  0  0  0  0  0  0  0  0
    0.4757    0.5844    0.2158 C   0  0  0  0  0  0  0  0  0  0  0  0
   -0.3663   -0.3882    0.7071 C   0  0  0  0  0  0  0  0  0  0  0  0
   -3.3124    0.7260   -0.7913 H   0  0  0  0  0  0  0  0  0  0  0  0
   -1.7654    2.3871   -1.6864 H   0  0  0  0  0  0  0  0  0  0  0  0
    1.5215    0.6218    0.4935 H   0  0  0  0  0  0  0  0  0  0  0  0
   -0.0157   -1.1626    1.3794 H   0  0  0  0  0  0  0  0  0  0  0  0
   -3.9241    5.5138   -1.3921 O   0  0  0  0  0  0  0  0  0  0  0  0
   -3.4586    4.4947   -0.8722 C   0  0  0  0  0  0  0  0  0  0  0  0
   -3.5764    3.2865   -1.2507 O   0  0  0  0  0  0  0  0  0  0  0  0
   -2.5836    4.6647    0.4057 C   0  0  0  0  0  0  0  0  0  0  0  0
   -2.9805    3.8284    1.3988 F   0  0  0  0  0  0  0  0  0  0  0  0
   -1.2804    4.3429    0.1384 F   0  0  0  0  0  0  0  0  0  0  0  0
   -2.5921    5.9102    0.8940 F   0  0  0  0  0  0  0  0  0  0  0  0
  1 11  1  0  0  0  0
  1  2  1  0  0  0  0
  2  3  1  0  0  0  0
  4  1  2  0  0  0  0
  5  6  2  0  0  0  0
  5  4  1  0  0  0  0
  6 10  1  0  0  0  0
  7  9  2  0  0  0  0
  7  6  1  0  0  0  0
  8  7  2  0  0  0  0
 10 14  1  0  0  0  0
 10 11  2  0  0  0  0
 11 15  1  0  0  0  0
 12  4  1  0  0  0  0
 13  5  1  0  0  0  0
 16 17  2  0  0  0  0
 17 19  1  0  0  0  0
 18 17  1  0  0  0  0
 19 22  1  0  0  0  0
 19 20  1  0  0  0  0
 21 19  1  0  0  0  0
M  RAD  3   2   2   3   3  18   2
M  END
