Coordinates from ORCA-job 4-NO2PhN2+~CF3COO-_B3LYPG-6-31G_dp-NX-Scan-d89-09-n800
 OpenBabel11261920383D

 22 21  0  0  0  0  0  0  0  0999 V2000
   -1.7028   -0.6600    0.2765 C   0  0  0  0  0  0  0  0  0  0  0  0
   -2.4387   -1.7539    0.6236 N   0  0  0  0  0  0  0  0  0  0  0  0
   -3.0195   -2.6700    0.9277 N   0  0  0  0  0  0  0  0  0  0  0  0
   -2.3280    0.4112   -0.4068 C   0  0  0  0  0  0  0  0  0  0  0  0
   -1.5401    1.4836   -0.8002 C   0  0  0  0  0  0  0  0  0  0  0  0
   -0.1859    1.4707   -0.4641 C   0  0  0  0  0  0  0  0  0  0  0  0
    0.6696    2.5857   -0.9194 N   0  0  0  0  0  0  0  0  0  0  0  0
    0.1870    3.3655   -1.7285 O   0  0  0  0  0  0  0  0  0  0  0  0
    1.8100    2.6320   -0.4568 O   0  0  0  0  0  0  0  0  0  0  0  0
    0.4214    0.4417    0.2689 C   0  0  0  0  0  0  0  0  0  0  0  0
   -0.3286   -0.6568    0.6358 C   0  0  0  0  0  0  0  0  0  0  0  0
   -3.3936    0.4148   -0.6080 H   0  0  0  0  0  0  0  0  0  0  0  0
   -2.0306    2.3390   -1.2808 H   0  0  0  0  0  0  0  0  0  0  0  0
    1.4720    0.5185    0.5195 H   0  0  0  0  0  0  0  0  0  0  0  0
    0.1032   -1.4911    1.1759 H   0  0  0  0  0  0  0  0  0  0  0  0
   -4.1186    5.6036   -1.3811 O   0  0  0  0  0  0  0  0  0  0  0  0
   -3.4270    4.6782   -0.9368 C   0  0  0  0  0  0  0  0  0  0  0  0
   -3.5209    3.4425   -1.2000 O   0  0  0  0  0  0  0  0  0  0  0  0
   -2.2938    5.1017    0.0464 C   0  0  0  0  0  0  0  0  0  0  0  0
   -1.7241    4.0351    0.6822 F   0  0  0  0  0  0  0  0  0  0  0  0
   -1.2996    5.7410   -0.6032 F   0  0  0  0  0  0  0  0  0  0  0  0
   -2.7509    5.9262    1.0074 F   0  0  0  0  0  0  0  0  0  0  0  0
  1  2  1  0  0  0  0
  1 11  1  0  0  0  0
  2  3  1  0  0  0  0
  4  1  2  0  0  0  0
  5  6  2  0  0  0  0
  5  4  1  0  0  0  0
  6 10  1  0  0  0  0
  7  6  1  0  0  0  0
  7  9  2  0  0  0  0
  8  7  2  0  0  0  0
 10 14  1  0  0  0  0
 10 11  2  0  0  0  0
 11 15  1  0  0  0  0
 12  4  1  0  0  0  0
 13  5  1  0  0  0  0
 16 17  2  0  0  0  0
 17 19  1  0  0  0  0
 18 17  1  0  0  0  0
 19 20  1  0  0  0  0
 19 22  1  0  0  0  0
 21 19  1  0  0  0  0
M  RAD  3   2   2   3   3  18   2
M  END
