Coordinates from ORCA-job 4-NO2PhN2+~CF3COO-_B3LYPG-6-31G_dp-NX-Scan-d89-09-n800
 OpenBabel11261920383D

 22 22  0  0  1  0  0  0  0  0999 V2000
   -1.8333    0.4941   -0.1163 C   0  0  0  0  0  0  0  0  0  0  0  0
   -3.0385    0.0840    0.2713 N   0  0  0  0  0  0  0  0  0  0  0  0
   -4.1496    0.1812    0.5126 N   0  0  0  0  0  0  0  0  0  0  0  0
   -1.8420    1.8169   -0.8008 C   0  0  2  0  0  0  0  0  0  0  0  0
   -0.5223    2.1354   -1.3918 C   0  0  0  0  0  0  0  0  0  0  0  0
    0.5659    1.3899   -1.0887 C   0  0  0  0  0  0  0  0  0  0  0  0
    1.8656    1.8005   -1.6797 N   0  0  0  0  0  0  0  0  0  0  0  0
    1.8779    2.7749   -2.4265 O   0  0  0  0  0  0  0  0  0  0  0  0
    2.8518    1.1339   -1.3743 O   0  0  0  0  0  0  0  0  0  0  0  0
    0.5561    0.2074   -0.2753 C   0  0  0  0  0  0  0  0  0  0  0  0
   -0.6462   -0.2382    0.1813 C   0  0  0  0  0  0  0  0  0  0  0  0
   -2.6657    1.9153   -1.5125 H   0  0  0  0  0  0  0  0  0  0  0  0
   -0.4332    2.9907   -2.0491 H   0  0  0  0  0  0  0  0  0  0  0  0
    1.4844   -0.3053   -0.0714 H   0  0  0  0  0  0  0  0  0  0  0  0
   -0.7245   -1.1429    0.7749 H   0  0  0  0  0  0  0  0  0  0  0  0
   -4.3310    2.3217    0.3916 O   0  0  0  0  0  0  0  0  0  0  0  0
   -3.4258    3.1232    0.5400 C   0  0  0  0  0  0  0  0  0  0  0  0
   -2.1591    2.9861    0.1927 O   0  0  0  0  0  0  0  0  0  0  0  0
   -3.6665    4.5083    1.1855 C   0  0  0  0  0  0  0  0  0  0  0  0
   -3.5211    5.4689    0.2548 F   0  0  0  0  0  0  0  0  0  0  0  0
   -4.8999    4.5812    1.6892 F   0  0  0  0  0  0  0  0  0  0  0  0
   -2.7826    4.7323    2.1708 F   0  0  0  0  0  0  0  0  0  0  0  0
  1 11  2  0  0  0  0
  1  2  1  0  0  0  0
  2  3  1  0  0  0  0
  4 12  1  6  0  0  0
  4  1  1  0  0  0  0
  4 18  1  0  0  0  0
  5  6  2  0  0  0  0
  5  4  1  0  0  0  0
  6 10  1  0  0  0  0
  7  9  2  0  0  0  0
  7  6  1  0  0  0  0
  8  7  2  0  0  0  0
 10 14  1  0  0  0  0
 10 11  1  0  0  0  0
 11 15  1  0  0  0  0
 13  5  1  0  0  0  0
 16 17  2  0  0  0  0
 17 19  1  0  0  0  0
 18 17  1  0  0  0  0
 19 21  1  0  0  0  0
 19 22  1  0  0  0  0
 20 19  1  0  0  0  0
M  RAD  3   2   2   3   3  10   2
M  END
