Coordinates from ORCA-job 4-NO2PhN2+~CF3COO-_B3LYPG-6-31G_dp-NX-Scan-d89-09-n800
 OpenBabel11261920383D

 22 21  0  0  0  0  0  0  0  0999 V2000
   -1.7944   -0.2001    0.2959 C   0  0  0  0  0  0  0  0  0  0  0  0
   -2.6199   -1.1812    0.7603 N   0  0  0  0  0  0  0  0  0  0  0  0
   -3.2252   -2.0458    1.1527 N   0  0  0  0  0  0  0  0  0  0  0  0
   -2.2644    0.7344   -0.6578 C   0  0  0  0  0  0  0  0  0  0  0  0
   -1.3305    1.6159   -1.1970 C   0  0  0  0  0  0  0  0  0  0  0  0
   -0.0211    1.5839   -0.7348 C   0  0  0  0  0  0  0  0  0  0  0  0
    0.9593    2.5187   -1.3192 N   0  0  0  0  0  0  0  0  0  0  0  0
    0.5890    3.2027   -2.2650 O   0  0  0  0  0  0  0  0  0  0  0  0
    2.0841    2.5268   -0.8197 O   0  0  0  0  0  0  0  0  0  0  0  0
    0.4239    0.7040    0.2675 C   0  0  0  0  0  0  0  0  0  0  0  0
   -0.4568   -0.2129    0.7900 C   0  0  0  0  0  0  0  0  0  0  0  0
   -3.2982    0.7843   -0.9748 H   0  0  0  0  0  0  0  0  0  0  0  0
   -1.6567    2.3459   -1.9243 H   0  0  0  0  0  0  0  0  0  0  0  0
    1.4515    0.7597    0.6031 H   0  0  0  0  0  0  0  0  0  0  0  0
   -0.1587   -0.9260    1.5497 H   0  0  0  0  0  0  0  0  0  0  0  0
   -3.9546    5.3672   -1.2235 O   0  0  0  0  0  0  0  0  0  0  0  0
   -3.4725    4.3308   -0.7596 C   0  0  0  0  0  0  0  0  0  0  0  0
   -3.6170    3.1336   -1.1681 O   0  0  0  0  0  0  0  0  0  0  0  0
   -2.5165    4.4630    0.4645 C   0  0  0  0  0  0  0  0  0  0  0  0
   -2.7243    3.4839    1.3840 F   0  0  0  0  0  0  0  0  0  0  0  0
   -1.2159    4.3316    0.0608 F   0  0  0  0  0  0  0  0  0  0  0  0
   -2.6206    5.6389    1.0934 F   0  0  0  0  0  0  0  0  0  0  0  0
  1  2  1  0  0  0  0
  1 11  1  0  0  0  0
  2  3  1  0  0  0  0
  4  1  2  0  0  0  0
  5  6  2  0  0  0  0
  5  4  1  0  0  0  0
  6 10  1  0  0  0  0
  7  9  2  0  0  0  0
  7  6  1  0  0  0  0
  8  7  2  0  0  0  0
 10 14  1  0  0  0  0
 10 11  2  0  0  0  0
 11 15  1  0  0  0  0
 12  4  1  0  0  0  0
 13  5  1  0  0  0  0
 16 17  2  0  0  0  0
 17 19  1  0  0  0  0
 18 17  1  0  0  0  0
 19 22  1  0  0  0  0
 19 20  1  0  0  0  0
 21 19  1  0  0  0  0
M  RAD  3   2   2   3   3  18   2
M  END
