Coordinates from ORCA-job 4-NO2PhN2+~CF3COO-_B3LYPG-6-31G_dp-NX-Scan-d89-09-n800
 OpenBabel11261920383D

 22 21  0  0  0  0  0  0  0  0999 V2000
   -1.7777   -0.2392    0.2949 C   0  0  0  0  0  0  0  0  0  0  0  0
   -2.5970   -1.2293    0.7526 N   0  0  0  0  0  0  0  0  0  0  0  0
   -3.1973   -2.0998    1.1400 N   0  0  0  0  0  0  0  0  0  0  0  0
   -2.2618    0.7189   -0.6282 C   0  0  0  0  0  0  0  0  0  0  0  0
   -1.3374    1.6144   -1.1589 C   0  0  0  0  0  0  0  0  0  0  0  0
   -0.0200    1.5709   -0.7183 C   0  0  0  0  0  0  0  0  0  0  0  0
    0.9524    2.5183   -1.2959 N   0  0  0  0  0  0  0  0  0  0  0  0
    0.5709    3.2179   -2.2256 O   0  0  0  0  0  0  0  0  0  0  0  0
    2.0820    2.5206   -0.8069 O   0  0  0  0  0  0  0  0  0  0  0  0
    0.4402    0.6661    0.2536 C   0  0  0  0  0  0  0  0  0  0  0  0
   -0.4326   -0.2648    0.7663 C   0  0  0  0  0  0  0  0  0  0  0  0
   -3.3010    0.7796   -0.9266 H   0  0  0  0  0  0  0  0  0  0  0  0
   -1.6792    2.3632   -1.8601 H   0  0  0  0  0  0  0  0  0  0  0  0
    1.4731    0.7129    0.5743 H   0  0  0  0  0  0  0  0  0  0  0  0
   -0.1221   -0.9976    1.5018 H   0  0  0  0  0  0  0  0  0  0  0  0
   -3.9644    5.3938   -1.2696 O   0  0  0  0  0  0  0  0  0  0  0  0
   -3.4796    4.3680   -0.7844 C   0  0  0  0  0  0  0  0  0  0  0  0
   -3.6145    3.1635   -1.1734 O   0  0  0  0  0  0  0  0  0  0  0  0
   -2.5368    4.5243    0.4469 C   0  0  0  0  0  0  0  0  0  0  0  0
   -2.7846    3.5882    1.3996 F   0  0  0  0  0  0  0  0  0  0  0  0
   -1.2342    4.3429    0.0690 F   0  0  0  0  0  0  0  0  0  0  0  0
   -2.6180    5.7266    1.0274 F   0  0  0  0  0  0  0  0  0  0  0  0
  1  2  1  0  0  0  0
  1 11  1  0  0  0  0
  2  3  1  0  0  0  0
  4  1  2  0  0  0  0
  5  6  2  0  0  0  0
  5  4  1  0  0  0  0
  6 10  1  0  0  0  0
  7  9  2  0  0  0  0
  7  6  1  0  0  0  0
  8  7  2  0  0  0  0
 10 14  1  0  0  0  0
 10 11  2  0  0  0  0
 11 15  1  0  0  0  0
 12  4  1  0  0  0  0
 13  5  1  0  0  0  0
 16 17  2  0  0  0  0
 17 19  1  0  0  0  0
 18 17  1  0  0  0  0
 19 22  1  0  0  0  0
 19 20  1  0  0  0  0
 21 19  1  0  0  0  0
M  RAD  3   2   2   3   3  18   2
M  END
