Coordinates from ORCA-job 4-NO2PhN2+~CF3COO-_B3LYPG-6-31G_dp-NX-Scan-d89-09-n800
 OpenBabel11261920383D

 22 21  0  0  0  0  0  0  0  0999 V2000
   -1.8609    0.2881    0.2974 C   0  0  0  0  0  0  0  0  0  0  0  0
   -2.7649   -0.5169    0.9079 N   0  0  0  0  0  0  0  0  0  0  0  0
   -3.4551   -1.2445    1.4204 N   0  0  0  0  0  0  0  0  0  0  0  0
   -2.2051    0.9093   -0.9271 C   0  0  0  0  0  0  0  0  0  0  0  0
   -1.1697    1.5633   -1.6167 C   0  0  0  0  0  0  0  0  0  0  0  0
    0.0814    1.6342   -1.0440 C   0  0  0  0  0  0  0  0  0  0  0  0
    1.1571    2.3265   -1.7825 N   0  0  0  0  0  0  0  0  0  0  0  0
    0.8897    2.7595   -2.8982 O   0  0  0  0  0  0  0  0  0  0  0  0
    2.2499    2.4100   -1.2249 O   0  0  0  0  0  0  0  0  0  0  0  0
    0.3948    1.0887    0.2235 C   0  0  0  0  0  0  0  0  0  0  0  0
   -0.5736    0.4082    0.9090 C   0  0  0  0  0  0  0  0  0  0  0  0
   -3.1749    0.7654   -1.3770 H   0  0  0  0  0  0  0  0  0  0  0  0
   -1.3700    2.0366   -2.5673 H   0  0  0  0  0  0  0  0  0  0  0  0
    1.3920    1.2193    0.6229 H   0  0  0  0  0  0  0  0  0  0  0  0
   -0.3863   -0.0360    1.8790 H   0  0  0  0  0  0  0  0  0  0  0  0
   -3.5133    5.2190   -0.8695 O   0  0  0  0  0  0  0  0  0  0  0  0
   -3.2729    4.0673   -0.5145 C   0  0  0  0  0  0  0  0  0  0  0  0
   -3.3693    2.9898   -1.1989 O   0  0  0  0  0  0  0  0  0  0  0  0
   -2.7598    3.8415    0.9390 C   0  0  0  0  0  0  0  0  0  0  0  0
   -3.3311    2.7447    1.5169 F   0  0  0  0  0  0  0  0  0  0  0  0
   -1.4160    3.6038    0.9359 F   0  0  0  0  0  0  0  0  0  0  0  0
   -2.9816    4.8813    1.7471 F   0  0  0  0  0  0  0  0  0  0  0  0
  1  2  1  0  0  0  0
  1 11  1  0  0  0  0
  2  3  1  0  0  0  0
  4  1  2  0  0  0  0
  5  6  2  0  0  0  0
  5  4  1  0  0  0  0
  6 10  1  0  0  0  0
  7  9  2  0  0  0  0
  7  6  1  0  0  0  0
  8  7  2  0  0  0  0
 10 14  1  0  0  0  0
 10 11  2  0  0  0  0
 11 15  1  0  0  0  0
 12  4  1  0  0  0  0
 13  5  1  0  0  0  0
 16 17  1  0  0  0  0
 17 19  1  0  0  0  0
 18 17  2  0  0  0  0
 19 20  1  0  0  0  0
 19 22  1  0  0  0  0
 21 19  1  0  0  0  0
M  RAD  3   2   2   3   3  16   2
M  END
