Coordinates from ORCA-job 4-NO2PhN2+~CF3COO-_B3LYPG-6-31G_dp-NX-Scan-d89-09-n800
 OpenBabel11261920383D

 22 22  0  0  1  0  0  0  0  0999 V2000
   -1.8724    0.4464   -0.0751 C   0  0  0  0  0  0  0  0  0  0  0  0
   -3.0026   -0.1566    0.2377 N   0  0  0  0  0  0  0  0  0  0  0  0
   -3.9757   -0.6808    0.5089 N   0  0  0  0  0  0  0  0  0  0  0  0
   -1.9531    1.7561   -0.7976 C   0  0  2  0  0  0  0  0  0  0  0  0
   -0.6571    2.0778   -1.4643 C   0  0  0  0  0  0  0  0  0  0  0  0
    0.4772    1.4501   -1.0925 C   0  0  0  0  0  0  0  0  0  0  0  0
    1.7459    1.8719   -1.7354 N   0  0  0  0  0  0  0  0  0  0  0  0
    1.6919    2.7317   -2.6101 O   0  0  0  0  0  0  0  0  0  0  0  0
    2.7733    1.3130   -1.3573 O   0  0  0  0  0  0  0  0  0  0  0  0
    0.5434    0.3695   -0.1412 C   0  0  0  0  0  0  0  0  0  0  0  0
   -0.6214   -0.1340    0.3374 C   0  0  0  0  0  0  0  0  0  0  0  0
   -2.8016    1.7966   -1.4821 H   0  0  0  0  0  0  0  0  0  0  0  0
   -0.6322    2.8600   -2.2124 H   0  0  0  0  0  0  0  0  0  0  0  0
    1.5066   -0.0354    0.1332 H   0  0  0  0  0  0  0  0  0  0  0  0
   -0.6348   -0.9834    1.0124 H   0  0  0  0  0  0  0  0  0  0  0  0
   -4.4117    2.9421   -0.3272 O   0  0  0  0  0  0  0  0  0  0  0  0
   -3.4395    3.3408    0.2668 C   0  0  0  0  0  0  0  0  0  0  0  0
   -2.1908    2.8754    0.1850 O   0  0  0  0  0  0  0  0  0  0  0  0
   -3.4891    4.5162    1.2713 C   0  0  0  0  0  0  0  0  0  0  0  0
   -2.6830    5.5105    0.8628 F   0  0  0  0  0  0  0  0  0  0  0  0
   -4.7339    4.9846    1.3737 F   0  0  0  0  0  0  0  0  0  0  0  0
   -3.0788    4.1065    2.4843 F   0  0  0  0  0  0  0  0  0  0  0  0
  1  2  1  0  0  0  0
  1 11  2  0  0  0  0
  2  3  1  0  0  0  0
  4 12  1  6  0  0  0
  4  1  1  0  0  0  0
  4 18  1  0  0  0  0
  5  6  2  0  0  0  0
  5  4  1  0  0  0  0
  6 10  1  0  0  0  0
  7  9  2  0  0  0  0
  7  6  1  0  0  0  0
  8  7  2  0  0  0  0
 10 14  1  0  0  0  0
 10 11  1  0  0  0  0
 11 15  1  0  0  0  0
 13  5  1  0  0  0  0
 16 17  2  0  0  0  0
 17 19  1  0  0  0  0
 18 17  1  0  0  0  0
 19 21  1  0  0  0  0
 19 22  1  0  0  0  0
 20 19  1  0  0  0  0
M  RAD  3   2   2   3   3  10   2
M  END
