Coordinates from ORCA-job 4-NO2PhN2+~CF3COO-_B3LYPG-6-31G_dp-NX-Scan-d89-09-n800
 OpenBabel11261920383D

 22 22  0  0  1  0  0  0  0  0999 V2000
   -1.8409    0.3631   -0.0065 C   0  0  0  0  0  0  0  0  0  0  0  0
   -2.9425   -0.2578    0.3638 N   0  0  0  0  0  0  0  0  0  0  0  0
   -3.9030   -0.7831    0.6771 N   0  0  0  0  0  0  0  0  0  0  0  0
   -1.9968    1.6678   -0.7240 C   0  0  2  0  0  0  0  0  0  0  0  0
   -0.7355    2.0455   -1.4275 C   0  0  0  0  0  0  0  0  0  0  0  0
    0.4329    1.4565   -1.1007 C   0  0  0  0  0  0  0  0  0  0  0  0
    1.6636    1.9334   -1.7786 N   0  0  0  0  0  0  0  0  0  0  0  0
    1.5520    2.8185   -2.6221 O   0  0  0  0  0  0  0  0  0  0  0  0
    2.7239    1.4154   -1.4348 O   0  0  0  0  0  0  0  0  0  0  0  0
    0.5707    0.3686   -0.1652 C   0  0  0  0  0  0  0  0  0  0  0  0
   -0.5571   -0.1779    0.3532 C   0  0  0  0  0  0  0  0  0  0  0  0
   -2.8628    1.6857   -1.3876 H   0  0  0  0  0  0  0  0  0  0  0  0
   -0.7653    2.8353   -2.1677 H   0  0  0  0  0  0  0  0  0  0  0  0
    1.5567   -0.0059    0.0688 H   0  0  0  0  0  0  0  0  0  0  0  0
   -0.5160   -1.0310    1.0221 H   0  0  0  0  0  0  0  0  0  0  0  0
   -4.1809    3.3891   -0.7691 O   0  0  0  0  0  0  0  0  0  0  0  0
   -3.3678    3.4813    0.1175 C   0  0  0  0  0  0  0  0  0  0  0  0
   -2.2676    2.7444    0.2959 O   0  0  0  0  0  0  0  0  0  0  0  0
   -3.4791    4.5212    1.2574 C   0  0  0  0  0  0  0  0  0  0  0  0
   -2.4044    5.3275    1.2582 F   0  0  0  0  0  0  0  0  0  0  0  0
   -4.5757    5.2641    1.1010 F   0  0  0  0  0  0  0  0  0  0  0  0
   -3.5440    3.8975    2.4472 F   0  0  0  0  0  0  0  0  0  0  0  0
  1 11  2  0  0  0  0
  1  2  1  0  0  0  0
  2  3  1  0  0  0  0
  4 12  1  6  0  0  0
  4  1  1  0  0  0  0
  4 18  1  0  0  0  0
  5  6  2  0  0  0  0
  5  4  1  0  0  0  0
  6 10  1  0  0  0  0
  7  9  2  0  0  0  0
  7  6  1  0  0  0  0
  8  7  2  0  0  0  0
 10 14  1  0  0  0  0
 10 11  1  0  0  0  0
 11 15  1  0  0  0  0
 13  5  1  0  0  0  0
 16 17  2  0  0  0  0
 17 18  1  0  0  0  0
 17 19  1  0  0  0  0
 19 20  1  0  0  0  0
 19 22  1  0  0  0  0
 21 19  1  0  0  0  0
M  RAD  3   2   2   3   3  10   2
M  END
