Coordinates from ORCA-job 4-NO2PhN2+~CF3COO-_B3LYPG-6-31G_dp-NX-Scan-d89-09-n800
 OpenBabel11261920383D

 22 22  0  0  0  0  0  0  0  0999 V2000
   -1.1541    0.7629    0.1866 C   0  0  0  0  0  0  0  0  0  0  0  0
   -2.0574    0.5157    1.2427 N   0  0  0  0  0  0  0  0  0  0  0  0
   -2.9461    1.0234    1.8148 N   0  0  0  0  0  0  0  0  0  0  0  0
   -1.1196    1.9606   -0.5519 C   0  0  0  0  0  0  0  0  0  0  0  0
   -0.1693    2.0847   -1.5604 C   0  0  0  0  0  0  0  0  0  0  0  0
    0.7057    1.0288   -1.8096 C   0  0  0  0  0  0  0  0  0  0  0  0
    1.7081    1.1762   -2.8893 N   0  0  0  0  0  0  0  0  0  0  0  0
    1.7130    2.2336   -3.5124 O   0  0  0  0  0  0  0  0  0  0  0  0
    2.4645    0.2289   -3.0858 O   0  0  0  0  0  0  0  0  0  0  0  0
    0.6776   -0.1609   -1.0859 C   0  0  0  0  0  0  0  0  0  0  0  0
   -0.2646   -0.2909   -0.0734 C   0  0  0  0  0  0  0  0  0  0  0  0
   -1.8172    2.7561   -0.3313 H   0  0  0  0  0  0  0  0  0  0  0  0
   -0.0993    2.9865   -2.1557 H   0  0  0  0  0  0  0  0  0  0  0  0
    1.3804   -0.9499   -1.3205 H   0  0  0  0  0  0  0  0  0  0  0  0
   -0.3264   -1.1947    0.5219 H   0  0  0  0  0  0  0  0  0  0  0  0
   -3.3571    2.5917    1.0773 O   0  0  0  0  0  0  0  0  0  0  0  0
   -4.0153    3.3628    1.9173 C   0  0  0  0  0  0  0  0  0  0  0  0
   -4.2496    3.1993    3.0910 O   0  0  0  0  0  0  0  0  0  0  0  0
   -4.5148    4.6255    1.1574 C   0  0  0  0  0  0  0  0  0  0  0  0
   -5.5350    4.3015    0.3394 F   0  0  0  0  0  0  0  0  0  0  0  0
   -4.9348    5.5640    2.0086 F   0  0  0  0  0  0  0  0  0  0  0  0
   -3.5283    5.1534    0.3976 F   0  0  0  0  0  0  0  0  0  0  0  0
  1  2  1  0  0  0  0
  2  3  1  0  0  0  0
  4 12  1  0  0  0  0
  4  1  2  0  0  0  0
  5  4  1  0  0  0  0
  6  5  2  0  0  0  0
  6 10  1  0  0  0  0
  7  6  1  0  0  0  0
  8  7  2  0  0  0  0
  9  7  2  0  0  0  0
 10 11  2  0  0  0  0
 11  1  1  0  0  0  0
 11 15  1  0  0  0  0
 13  5  1  0  0  0  0
 14 10  1  0  0  0  0
 16  3  1  0  0  0  0
 16 17  1  0  0  0  0
 17 18  2  0  0  0  0
 19 17  1  0  0  0  0
 19 21  1  0  0  0  0
 20 19  1  0  0  0  0
 22 19  1  0  0  0  0
M  RAD  2   2   2   3   2
M  END
