Coordinates from ORCA-job 4-NO2PhN2+~CF3COO-_B3LYPG-6-31G_dp-NX-Scan-d89-09-n800
 OpenBabel11261920383D

 22 22  0  0  1  0  0  0  0  0999 V2000
   -1.8394    0.2224    0.0787 C   0  0  0  0  0  0  0  0  0  0  0  0
   -2.8486   -0.5235    0.4837 N   0  0  0  0  0  0  0  0  0  0  0  0
   -3.6982   -1.1950    0.8373 N   0  0  0  0  0  0  0  0  0  0  0  0
   -2.1344    1.5075   -0.6306 C   0  0  2  0  0  0  0  0  0  0  0  0
   -0.9382    1.9819   -1.3923 C   0  0  0  0  0  0  0  0  0  0  0  0
    0.2893    1.5065   -1.1008 C   0  0  0  0  0  0  0  0  0  0  0  0
    1.4477    2.0800   -1.8303 N   0  0  0  0  0  0  0  0  0  0  0  0
    1.2278    2.9366   -2.6813 O   0  0  0  0  0  0  0  0  0  0  0  0
    2.5607    1.6552   -1.5268 O   0  0  0  0  0  0  0  0  0  0  0  0
    0.5584    0.4496   -0.1583 C   0  0  0  0  0  0  0  0  0  0  0  0
   -0.4971   -0.1920    0.3996 C   0  0  0  0  0  0  0  0  0  0  0  0
   -3.0192    1.4523   -1.2690 H   0  0  0  0  0  0  0  0  0  0  0  0
   -1.0742    2.7563   -2.1355 H   0  0  0  0  0  0  0  0  0  0  0  0
    1.5815    0.1698    0.0473 H   0  0  0  0  0  0  0  0  0  0  0  0
   -0.3566   -1.0324    1.0712 H   0  0  0  0  0  0  0  0  0  0  0  0
   -3.2530    3.9849   -1.1500 O   0  0  0  0  0  0  0  0  0  0  0  0
   -3.0368    3.6625   -0.0070 C   0  0  0  0  0  0  0  0  0  0  0  0
   -2.4858    2.5266    0.4271 O   0  0  0  0  0  0  0  0  0  0  0  0
   -3.3977    4.5562    1.2034 C   0  0  0  0  0  0  0  0  0  0  0  0
   -2.3159    4.7744    1.9691 F   0  0  0  0  0  0  0  0  0  0  0  0
   -3.8752    5.7295    0.7865 F   0  0  0  0  0  0  0  0  0  0  0  0
   -4.3348    3.9500    1.9562 F   0  0  0  0  0  0  0  0  0  0  0  0
  1 11  2  0  0  0  0
  1  2  1  0  0  0  0
  2  3  1  0  0  0  0
  4 12  1  6  0  0  0
  4  1  1  0  0  0  0
  4 18  1  0  0  0  0
  5  6  2  0  0  0  0
  5  4  1  0  0  0  0
  6 10  1  0  0  0  0
  7  9  2  0  0  0  0
  7  6  1  0  0  0  0
  8  7  2  0  0  0  0
 10 14  1  0  0  0  0
 10 11  1  0  0  0  0
 11 15  1  0  0  0  0
 13  5  1  0  0  0  0
 16 17  2  0  0  0  0
 17 18  1  0  0  0  0
 17 19  1  0  0  0  0
 19 22  1  0  0  0  0
 19 20  1  0  0  0  0
 21 19  1  0  0  0  0
M  RAD  3   2   2   3   3  10   2
M  END
