Coordinates from ORCA-job 4-NO2PhN2+~CF3COO-_B3LYPG-6-31G_dp-NX-Scan-d89-09-n800
 OpenBabel11261920383D

 22 22  0  0  1  0  0  0  0  0999 V2000
   -1.8835    0.4811   -0.0939 C   0  0  0  0  0  0  0  0  0  0  0  0
   -3.0230   -0.1135    0.2036 N   0  0  0  0  0  0  0  0  0  0  0  0
   -4.0031   -0.6303    0.4610 N   0  0  0  0  0  0  0  0  0  0  0  0
   -1.9406    1.7859   -0.8274 C   0  0  2  0  0  0  0  0  0  0  0  0
   -0.6357    2.0838   -1.4873 C   0  0  0  0  0  0  0  0  0  0  0  0
    0.4875    1.4470   -1.0976 C   0  0  0  0  0  0  0  0  0  0  0  0
    1.7667    1.8447   -1.7353 N   0  0  0  0  0  0  0  0  0  0  0  0
    1.7319    2.7020   -2.6135 O   0  0  0  0  0  0  0  0  0  0  0  0
    2.7857    1.2883   -1.3317 O   0  0  0  0  0  0  0  0  0  0  0  0
    0.5322    0.3775   -0.1331 C   0  0  0  0  0  0  0  0  0  0  0  0
   -0.6435   -0.1085    0.3376 C   0  0  0  0  0  0  0  0  0  0  0  0
   -2.7832    1.8286   -1.5191 H   0  0  0  0  0  0  0  0  0  0  0  0
   -0.5950    2.8560   -2.2450 H   0  0  0  0  0  0  0  0  0  0  0  0
    1.4878   -0.0349    0.1559 H   0  0  0  0  0  0  0  0  0  0  0  0
   -0.6732   -0.9515    1.0201 H   0  0  0  0  0  0  0  0  0  0  0  0
   -4.4225    2.7822   -0.1569 O   0  0  0  0  0  0  0  0  0  0  0  0
   -3.4376    3.2922    0.3204 C   0  0  0  0  0  0  0  0  0  0  0  0
   -2.1683    2.9265    0.1344 O   0  0  0  0  0  0  0  0  0  0  0  0
   -3.4961    4.5049    1.2788 C   0  0  0  0  0  0  0  0  0  0  0  0
   -2.7628    5.5214    0.7958 F   0  0  0  0  0  0  0  0  0  0  0  0
   -4.7566    4.9153    1.4286 F   0  0  0  0  0  0  0  0  0  0  0  0
   -3.0065    4.1605    2.4830 F   0  0  0  0  0  0  0  0  0  0  0  0
  1  2  1  0  0  0  0
  1 11  2  0  0  0  0
  2  3  1  0  0  0  0
  4 12  1  6  0  0  0
  4  1  1  0  0  0  0
  4 18  1  0  0  0  0
  5  6  2  0  0  0  0
  5  4  1  0  0  0  0
  6 10  1  0  0  0  0
  7  9  2  0  0  0  0
  7  6  1  0  0  0  0
  8  7  2  0  0  0  0
 10 14  1  0  0  0  0
 10 11  1  0  0  0  0
 11 15  1  0  0  0  0
 13  5  1  0  0  0  0
 16 17  2  0  0  0  0
 17 19  1  0  0  0  0
 18 17  1  0  0  0  0
 19 21  1  0  0  0  0
 19 22  1  0  0  0  0
 20 19  1  0  0  0  0
M  RAD  3   2   2   3   3  10   2
M  END
