Coordinates from ORCA-job 4-NO2PhN2+~CF3COO-_B3LYPG-6-31G_dp-NX-Scan-d89-09-n800
 OpenBabel11261920383D

 22 22  0  0  1  0  0  0  0  0999 V2000
   -1.8267    0.2513    0.0712 C   0  0  0  0  0  0  0  0  0  0  0  0
   -2.8688   -0.4386    0.4888 N   0  0  0  0  0  0  0  0  0  0  0  0
   -3.7708   -1.0359    0.8442 N   0  0  0  0  0  0  0  0  0  0  0  0
   -2.0892    1.5458   -0.6308 C   0  0  2  0  0  0  0  0  0  0  0  0
   -0.8805    2.0077   -1.3777 C   0  0  0  0  0  0  0  0  0  0  0  0
    0.3331    1.4890   -1.1019 C   0  0  0  0  0  0  0  0  0  0  0  0
    1.5063    2.0476   -1.8191 N   0  0  0  0  0  0  0  0  0  0  0  0
    1.3100    2.9369   -2.6421 O   0  0  0  0  0  0  0  0  0  0  0  0
    2.6065    1.5793   -1.5343 O   0  0  0  0  0  0  0  0  0  0  0  0
    0.5732    0.4021   -0.1857 C   0  0  0  0  0  0  0  0  0  0  0  0
   -0.4982   -0.2143    0.3717 C   0  0  0  0  0  0  0  0  0  0  0  0
   -2.9700    1.5141   -1.2757 H   0  0  0  0  0  0  0  0  0  0  0  0
   -0.9944    2.8028   -2.1035 H   0  0  0  0  0  0  0  0  0  0  0  0
    1.5881    0.0843    0.0043 H   0  0  0  0  0  0  0  0  0  0  0  0
   -0.3794   -1.0696    1.0285 H   0  0  0  0  0  0  0  0  0  0  0  0
   -3.4779    3.8622   -1.1204 O   0  0  0  0  0  0  0  0  0  0  0  0
   -3.1208    3.6258    0.0078 C   0  0  0  0  0  0  0  0  0  0  0  0
   -2.4238    2.5677    0.4277 O   0  0  0  0  0  0  0  0  0  0  0  0
   -3.4418    4.5473    1.2080 C   0  0  0  0  0  0  0  0  0  0  0  0
   -2.3093    4.9363    1.8168 F   0  0  0  0  0  0  0  0  0  0  0  0
   -4.1046    5.6290    0.7969 F   0  0  0  0  0  0  0  0  0  0  0  0
   -4.2005    3.8884    2.1034 F   0  0  0  0  0  0  0  0  0  0  0  0
  1 11  2  0  0  0  0
  1  2  1  0  0  0  0
  2  3  1  0  0  0  0
  4 12  1  6  0  0  0
  4  1  1  0  0  0  0
  4 18  1  0  0  0  0
  5  6  2  0  0  0  0
  5  4  1  0  0  0  0
  6 10  1  0  0  0  0
  7  9  2  0  0  0  0
  7  6  1  0  0  0  0
  8  7  2  0  0  0  0
 10 14  1  0  0  0  0
 10 11  1  0  0  0  0
 11 15  1  0  0  0  0
 13  5  1  0  0  0  0
 16 17  2  0  0  0  0
 17 18  1  0  0  0  0
 17 19  1  0  0  0  0
 19 20  1  0  0  0  0
 19 22  1  0  0  0  0
 21 19  1  0  0  0  0
M  RAD  3   2   2   3   3  10   2
M  END
