Coordinates from ORCA-job 4-NO2PhN2+~CF3COO-_B3LYPG-6-31G_dp-NX-Scan-d89-09-n800
 OpenBabel11261920383D

 22 21  0  0  0  0  0  0  0  0999 V2000
   -1.8296   -0.1262    0.2923 C   0  0  0  0  0  0  0  0  0  0  0  0
   -2.6651   -1.0902    0.7708 N   0  0  0  0  0  0  0  0  0  0  0  0
   -3.2804   -1.9435    1.1727 N   0  0  0  0  0  0  0  0  0  0  0  0
   -2.2714    0.7479   -0.7294 C   0  0  0  0  0  0  0  0  0  0  0  0
   -1.3229    1.6060   -1.2840 C   0  0  0  0  0  0  0  0  0  0  0  0
   -0.0336    1.6132   -0.7721 C   0  0  0  0  0  0  0  0  0  0  0  0
    0.9588    2.5264   -1.3690 N   0  0  0  0  0  0  0  0  0  0  0  0
    0.6130    3.1670   -2.3543 O   0  0  0  0  0  0  0  0  0  0  0  0
    2.0710    2.5582   -0.8435 O   0  0  0  0  0  0  0  0  0  0  0  0
    0.3803    0.7962    0.2967 C   0  0  0  0  0  0  0  0  0  0  0  0
   -0.5119   -0.0956    0.8391 C   0  0  0  0  0  0  0  0  0  0  0  0
   -3.2909    0.7561   -1.0904 H   0  0  0  0  0  0  0  0  0  0  0  0
   -1.6179    2.2898   -2.0667 H   0  0  0  0  0  0  0  0  0  0  0  0
    1.3939    0.8823    0.6666 H   0  0  0  0  0  0  0  0  0  0  0  0
   -0.2392   -0.7588    1.6515 H   0  0  0  0  0  0  0  0  0  0  0  0
   -3.9007    5.3113   -1.1359 O   0  0  0  0  0  0  0  0  0  0  0  0
   -3.4360    4.2541   -0.7039 C   0  0  0  0  0  0  0  0  0  0  0  0
   -3.6078    3.0706   -1.1434 O   0  0  0  0  0  0  0  0  0  0  0  0
   -2.4642    4.3410    0.5124 C   0  0  0  0  0  0  0  0  0  0  0  0
   -2.6114    3.2943    1.3686 F   0  0  0  0  0  0  0  0  0  0  0  0
   -1.1682    4.2933    0.0784 F   0  0  0  0  0  0  0  0  0  0  0  0
   -2.6054    5.4659    1.2217 F   0  0  0  0  0  0  0  0  0  0  0  0
  1  2  1  0  0  0  0
  1 11  1  0  0  0  0
  2  3  1  0  0  0  0
  4  1  2  0  0  0  0
  5  6  2  0  0  0  0
  5  4  1  0  0  0  0
  6 10  1  0  0  0  0
  7  9  2  0  0  0  0
  7  6  1  0  0  0  0
  8  7  2  0  0  0  0
 10 14  1  0  0  0  0
 10 11  2  0  0  0  0
 11 15  1  0  0  0  0
 12  4  1  0  0  0  0
 13  5  1  0  0  0  0
 16 17  1  0  0  0  0
 17 19  1  0  0  0  0
 18 17  2  0  0  0  0
 19 22  1  0  0  0  0
 19 20  1  0  0  0  0
 21 19  1  0  0  0  0
M  RAD  3   2   2   3   3  16   2
M  END
