Coordinates from ORCA-job 4-NO2PhN2+~CF3COO-_B3LYPG-6-31G_dp-NX-Scan-d89-09-n800
 OpenBabel11261920383D

 22 22  0  0  1  0  0  0  0  0999 V2000
   -1.8333    0.3346    0.0146 C   0  0  0  0  0  0  0  0  0  0  0  0
   -2.9238   -0.2964    0.3998 N   0  0  0  0  0  0  0  0  0  0  0  0
   -3.8778   -0.8271    0.7236 N   0  0  0  0  0  0  0  0  0  0  0  0
   -2.0150    1.6378   -0.6983 C   0  0  2  0  0  0  0  0  0  0  0  0
   -0.7665    2.0370   -1.4129 C   0  0  0  0  0  0  0  0  0  0  0  0
    0.4134    1.4633   -1.1007 C   0  0  0  0  0  0  0  0  0  0  0  0
    1.6304    1.9613   -1.7880 N   0  0  0  0  0  0  0  0  0  0  0  0
    1.4975    2.8472   -2.6275 O   0  0  0  0  0  0  0  0  0  0  0  0
    2.7003    1.4500   -1.4645 O   0  0  0  0  0  0  0  0  0  0  0  0
    0.5759    0.3724   -0.1724 C   0  0  0  0  0  0  0  0  0  0  0  0
   -0.5386   -0.1911    0.3566 C   0  0  0  0  0  0  0  0  0  0  0  0
   -2.8851    1.6465   -1.3568 H   0  0  0  0  0  0  0  0  0  0  0  0
   -0.8163    2.8297   -2.1490 H   0  0  0  0  0  0  0  0  0  0  0  0
    1.5693    0.0099    0.0484 H   0  0  0  0  0  0  0  0  0  0  0  0
   -0.4783   -1.0465    1.0212 H   0  0  0  0  0  0  0  0  0  0  0  0
   -4.0473    3.5170   -0.8827 O   0  0  0  0  0  0  0  0  0  0  0  0
   -3.3225    3.5204    0.0817 C   0  0  0  0  0  0  0  0  0  0  0  0
   -2.2996    2.6989    0.3343 O   0  0  0  0  0  0  0  0  0  0  0  0
   -3.4742    4.5256    1.2477 C   0  0  0  0  0  0  0  0  0  0  0  0
   -2.3460    5.2392    1.3970 F   0  0  0  0  0  0  0  0  0  0  0  0
   -4.4857    5.3617    1.0100 F   0  0  0  0  0  0  0  0  0  0  0  0
   -3.7164    3.8677    2.3961 F   0  0  0  0  0  0  0  0  0  0  0  0
  1 11  2  0  0  0  0
  1  2  1  0  0  0  0
  2  3  1  0  0  0  0
  4 12  1  6  0  0  0
  4  1  1  0  0  0  0
  4 18  1  0  0  0  0
  5  6  2  0  0  0  0
  5  4  1  0  0  0  0
  6 10  1  0  0  0  0
  7  9  2  0  0  0  0
  7  6  1  0  0  0  0
  8  7  2  0  0  0  0
 10 14  1  0  0  0  0
 10 11  1  0  0  0  0
 11 15  1  0  0  0  0
 13  5  1  0  0  0  0
 16 17  2  0  0  0  0
 17 18  1  0  0  0  0
 17 19  1  0  0  0  0
 19 20  1  0  0  0  0
 19 22  1  0  0  0  0
 21 19  1  0  0  0  0
M  RAD  3   2   2   3   3  10   2
M  END
