Coordinates from ORCA-job 4-NO2PhN2+~CF3COO-_B3LYPG-6-31G_dp-NX-Scan-d89-09-n800
 OpenBabel11261920383D

 22 22  0  0  1  0  0  0  0  0999 V2000
   -1.8790    0.4663   -0.0857 C   0  0  0  0  0  0  0  0  0  0  0  0
   -3.0138   -0.1329    0.2195 N   0  0  0  0  0  0  0  0  0  0  0  0
   -3.9897   -0.6546    0.4842 N   0  0  0  0  0  0  0  0  0  0  0  0
   -1.9463    1.7730   -0.8151 C   0  0  2  0  0  0  0  0  0  0  0  0
   -0.6452    2.0807   -1.4783 C   0  0  0  0  0  0  0  0  0  0  0  0
    0.4829    1.4479   -1.0964 C   0  0  0  0  0  0  0  0  0  0  0  0
    1.7574    1.8556   -1.7370 N   0  0  0  0  0  0  0  0  0  0  0  0
    1.7146    2.7166   -2.6112 O   0  0  0  0  0  0  0  0  0  0  0  0
    2.7807    1.3015   -1.3412 O   0  0  0  0  0  0  0  0  0  0  0  0
    0.5370    0.3741   -0.1370 C   0  0  0  0  0  0  0  0  0  0  0  0
   -0.6340   -0.1191    0.3376 C   0  0  0  0  0  0  0  0  0  0  0  0
   -2.7916    1.8146   -1.5035 H   0  0  0  0  0  0  0  0  0  0  0  0
   -0.6114    2.8569   -2.2322 H   0  0  0  0  0  0  0  0  0  0  0  0
    1.4959   -0.0350    0.1458 H   0  0  0  0  0  0  0  0  0  0  0  0
   -0.6564   -0.9645    1.0173 H   0  0  0  0  0  0  0  0  0  0  0  0
   -4.4225    2.8507   -0.2302 O   0  0  0  0  0  0  0  0  0  0  0  0
   -3.4398    3.3134    0.2965 C   0  0  0  0  0  0  0  0  0  0  0  0
   -2.1773    2.9054    0.1546 O   0  0  0  0  0  0  0  0  0  0  0  0
   -3.4923    4.5099    1.2756 C   0  0  0  0  0  0  0  0  0  0  0  0
   -2.7206    5.5147    0.8288 F   0  0  0  0  0  0  0  0  0  0  0  0
   -4.7453    4.9506    1.4002 F   0  0  0  0  0  0  0  0  0  0  0  0
   -3.0430    4.1334    2.4859 F   0  0  0  0  0  0  0  0  0  0  0  0
  1  2  1  0  0  0  0
  1 11  2  0  0  0  0
  2  3  1  0  0  0  0
  4 12  1  6  0  0  0
  4  1  1  0  0  0  0
  4 18  1  0  0  0  0
  5  6  2  0  0  0  0
  5  4  1  0  0  0  0
  6 10  1  0  0  0  0
  7  9  2  0  0  0  0
  7  6  1  0  0  0  0
  8  7  2  0  0  0  0
 10 14  1  0  0  0  0
 10 11  1  0  0  0  0
 11 15  1  0  0  0  0
 13  5  1  0  0  0  0
 16 17  2  0  0  0  0
 17 19  1  0  0  0  0
 18 17  1  0  0  0  0
 19 21  1  0  0  0  0
 19 22  1  0  0  0  0
 20 19  1  0  0  0  0
M  RAD  3   2   2   3   3  10   2
M  END
