Coordinates from ORCA-job 4-NO2PhN2+~CF3COO-_B3LYPG-6-31G_dp-NX-Scan-d89-09-n800
 OpenBabel11261920383D

 22 22  0  0  1  0  0  0  0  0999 V2000
   -1.8856    0.1833    0.0734 C   0  0  1  0  0  0  0  0  0  0  0  0
   -2.8223   -0.6848    0.4125 N   0  0  0  0  0  0  0  0  0  0  0  0
   -3.5587   -1.4973    0.7276 N   0  0  0  0  0  0  0  0  0  0  0  0
   -2.2288    1.4385   -0.6749 C   0  0  2  0  0  0  0  0  0  0  0  0
   -1.0446    1.9148   -1.4573 C   0  0  0  0  0  0  0  0  0  0  0  0
    0.1998    1.5434   -1.0945 C   0  0  0  0  0  0  0  0  0  0  0  0
    1.3443    2.1212   -1.8411 N   0  0  0  0  0  0  0  0  0  0  0  0
    1.1011    2.8647   -2.7866 O   0  0  0  0  0  0  0  0  0  0  0  0
    2.4705    1.8178   -1.4520 O   0  0  0  0  0  0  0  0  0  0  0  0
    0.5001    0.5829   -0.0629 C   0  0  0  0  0  0  0  0  0  0  0  0
   -0.5310   -0.1064    0.4824 C   0  0  0  0  0  0  0  0  0  0  0  0
   -3.1125    1.3265   -1.3074 H   0  0  0  0  0  0  0  0  0  0  0  0
   -1.2009    2.6171   -2.2644 H   0  0  0  0  0  0  0  0  0  0  0  0
    1.5295    0.3986    0.2091 H   0  0  0  0  0  0  0  0  0  0  0  0
   -0.3620   -0.8967    1.2065 H   0  0  0  0  0  0  0  0  0  0  0  0
   -2.8561    4.2005   -1.1378 O   0  0  0  0  0  0  0  0  0  0  0  0
   -2.8919    3.7224   -0.0294 C   0  0  0  0  0  0  0  0  0  0  0  0
   -2.6201    2.4718    0.3587 O   0  0  0  0  0  0  0  0  0  0  0  0
   -3.2799    4.5519    1.2202 C   0  0  0  0  0  0  0  0  0  0  0  0
   -2.2669    4.5678    2.1040 F   0  0  0  0  0  0  0  0  0  0  0  0
   -3.5662    5.8070    0.8716 F   0  0  0  0  0  0  0  0  0  0  0  0
   -4.3574    4.0140    1.8206 F   0  0  0  0  0  0  0  0  0  0  0  0
  1  2  1  1  0  0  0
  1 11  1  0  0  0  0
  2  3  1  0  0  0  0
  4 12  1  6  0  0  0
  4  1  1  0  0  0  0
  4 18  1  0  0  0  0
  5  6  2  0  0  0  0
  5  4  1  0  0  0  0
  6 10  1  0  0  0  0
  7  9  2  0  0  0  0
  7  6  1  0  0  0  0
  8  7  2  0  0  0  0
 10 14  1  0  0  0  0
 10 11  2  0  0  0  0
 11 15  1  0  0  0  0
 13  5  1  0  0  0  0
 16 17  2  0  0  0  0
 17 18  1  0  0  0  0
 17 19  1  0  0  0  0
 19 22  1  0  0  0  0
 19 20  1  0  0  0  0
 21 19  1  0  0  0  0
M  RAD  3   1   2   2   2   3   3
M  END
