Coordinates from ORCA-job 4-NO2PhN2+~CF3COO-_B3LYPG-6-31G_dp-NX-Scan-d89-09-n800
 OpenBabel11261920383D

 22 22  0  0  0  0  0  0  0  0999 V2000
   -1.0166    1.0052    0.4776 C   0  0  0  0  0  0  0  0  0  0  0  0
   -1.7082    0.7741    1.7049 N   0  0  0  0  0  0  0  0  0  0  0  0
   -2.6667    1.4570    2.1234 N   0  0  0  0  0  0  0  0  0  0  0  0
   -0.7531    2.2466   -0.1358 C   0  0  0  0  0  0  0  0  0  0  0  0
    0.0348    2.2969   -1.2810 C   0  0  0  0  0  0  0  0  0  0  0  0
    0.5358    1.1128   -1.8174 C   0  0  0  0  0  0  0  0  0  0  0  0
    1.3536    1.1749   -3.0410 N   0  0  0  0  0  0  0  0  0  0  0  0
    1.5508    2.2827   -3.5377 O   0  0  0  0  0  0  0  0  0  0  0  0
    1.7861    0.1144   -3.4886 O   0  0  0  0  0  0  0  0  0  0  0  0
    0.2953   -0.1267   -1.2279 C   0  0  0  0  0  0  0  0  0  0  0  0
   -0.4642   -0.1681   -0.0664 C   0  0  0  0  0  0  0  0  0  0  0  0
   -1.1504    3.1666    0.2684 H   0  0  0  0  0  0  0  0  0  0  0  0
    0.2583    3.2369   -1.7693 H   0  0  0  0  0  0  0  0  0  0  0  0
    0.7146   -1.0211   -1.6703 H   0  0  0  0  0  0  0  0  0  0  0  0
   -0.6483   -1.1063    0.4454 H   0  0  0  0  0  0  0  0  0  0  0  0
   -3.0418    2.3893    1.3793 O   0  0  0  0  0  0  0  0  0  0  0  0
   -4.1089    3.1511    1.8539 C   0  0  0  0  0  0  0  0  0  0  0  0
   -4.7005    2.9906    2.8715 O   0  0  0  0  0  0  0  0  0  0  0  0
   -4.3751    4.2521    0.8071 C   0  0  0  0  0  0  0  0  0  0  0  0
   -4.7719    3.7012   -0.3494 F   0  0  0  0  0  0  0  0  0  0  0  0
   -5.3179    5.0782    1.2493 F   0  0  0  0  0  0  0  0  0  0  0  0
   -3.2454    4.9505    0.5823 F   0  0  0  0  0  0  0  0  0  0  0  0
  1  2  1  0  0  0  0
  2  3  2  0  0  0  0
  4 12  1  0  0  0  0
  4  1  2  0  0  0  0
  5  4  1  0  0  0  0
  6  5  2  0  0  0  0
  6 10  1  0  0  0  0
  7  6  1  0  0  0  0
  8  7  2  0  0  0  0
  9  7  2  0  0  0  0
 10 11  2  0  0  0  0
 11 15  1  0  0  0  0
 11  1  1  0  0  0  0
 13  5  1  0  0  0  0
 14 10  1  0  0  0  0
 16 17  1  0  0  0  0
 16  3  1  0  0  0  0
 17 18  2  0  0  0  0
 19 21  1  0  0  0  0
 19 17  1  0  0  0  0
 20 19  1  0  0  0  0
 22 19  1  0  0  0  0
M  END
