Coordinates from ORCA-job 4-NO2PhN2+~CF3COO-_B3LYPG-6-31G_dp-NX-Scan-d89-09-n800
 OpenBabel11261920383D

 22 22  0  0  1  0  0  0  0  0999 V2000
   -1.8969    0.1785    0.0787 C   0  0  1  0  0  0  0  0  0  0  0  0
   -2.8039   -0.7301    0.3954 N   0  0  0  0  0  0  0  0  0  0  0  0
   -3.5003   -1.5829    0.6963 N   0  0  0  0  0  0  0  0  0  0  0  0
   -2.2573    1.4172   -0.6915 C   0  0  2  0  0  0  0  0  0  0  0  0
   -1.0791    1.8876   -1.4869 C   0  0  0  0  0  0  0  0  0  0  0  0
    0.1696    1.5554   -1.1011 C   0  0  0  0  0  0  0  0  0  0  0  0
    1.3085    2.1264   -1.8605 N   0  0  0  0  0  0  0  0  0  0  0  0
    1.0590    2.8144   -2.8455 O   0  0  0  0  0  0  0  0  0  0  0  0
    2.4368    1.8714   -1.4435 O   0  0  0  0  0  0  0  0  0  0  0  0
    0.4793    0.6388   -0.0327 C   0  0  0  0  0  0  0  0  0  0  0  0
   -0.5407   -0.0633    0.5167 C   0  0  0  0  0  0  0  0  0  0  0  0
   -3.1411    1.2799   -1.3184 H   0  0  0  0  0  0  0  0  0  0  0  0
   -1.2417    2.5559   -2.3206 H   0  0  0  0  0  0  0  0  0  0  0  0
    1.5091    0.4918    0.2603 H   0  0  0  0  0  0  0  0  0  0  0  0
   -0.3615   -0.8293    1.2641 H   0  0  0  0  0  0  0  0  0  0  0  0
   -2.7018    4.2701   -1.1077 O   0  0  0  0  0  0  0  0  0  0  0  0
   -2.8312    3.7437   -0.0284 C   0  0  0  0  0  0  0  0  0  0  0  0
   -2.6642    2.4636    0.3254 O   0  0  0  0  0  0  0  0  0  0  0  0
   -3.2497    4.5415    1.2331 C   0  0  0  0  0  0  0  0  0  0  0  0
   -2.3166    4.4260    2.1943 F   0  0  0  0  0  0  0  0  0  0  0  0
   -3.4015    5.8325    0.9349 F   0  0  0  0  0  0  0  0  0  0  0  0
   -4.4144    4.0701    1.7160 F   0  0  0  0  0  0  0  0  0  0  0  0
  1  2  1  1  0  0  0
  1 11  1  0  0  0  0
  2  3  1  0  0  0  0
  4 12  1  6  0  0  0
  4  1  1  0  0  0  0
  4 18  1  0  0  0  0
  5  6  2  0  0  0  0
  5  4  1  0  0  0  0
  6 10  1  0  0  0  0
  7  9  2  0  0  0  0
  7  6  1  0  0  0  0
  8  7  2  0  0  0  0
 10 14  1  0  0  0  0
 10 11  2  0  0  0  0
 11 15  1  0  0  0  0
 13  5  1  0  0  0  0
 16 17  2  0  0  0  0
 17 18  1  0  0  0  0
 17 19  1  0  0  0  0
 19 22  1  0  0  0  0
 19 20  1  0  0  0  0
 21 19  1  0  0  0  0
M  RAD  3   1   2   2   2   3   3
M  END
