Coordinates from ORCA-job 4-NO2PhN2+~CF3COO-_B3LYPG-6-31G_dp-NX-Scan-d89-09-n800
 OpenBabel11261920383D

 22 22  0  0  1  0  0  0  0  0999 V2000
   -1.8686    0.4317   -0.0675 C   0  0  0  0  0  0  0  0  0  0  0  0
   -2.9959   -0.1727    0.2520 N   0  0  0  0  0  0  0  0  0  0  0  0
   -3.9696   -0.6940    0.5272 N   0  0  0  0  0  0  0  0  0  0  0  0
   -1.9588    1.7428   -0.7867 C   0  0  2  0  0  0  0  0  0  0  0  0
   -0.6668    2.0733   -1.4568 C   0  0  0  0  0  0  0  0  0  0  0  0
    0.4718    1.4492   -1.0923 C   0  0  0  0  0  0  0  0  0  0  0  0
    1.7361    1.8798   -1.7382 N   0  0  0  0  0  0  0  0  0  0  0  0
    1.6761    2.7514   -2.6007 O   0  0  0  0  0  0  0  0  0  0  0  0
    2.7687    1.3310   -1.3596 O   0  0  0  0  0  0  0  0  0  0  0  0
    0.5469    0.3650   -0.1457 C   0  0  0  0  0  0  0  0  0  0  0  0
   -0.6135   -0.1450    0.3368 C   0  0  0  0  0  0  0  0  0  0  0  0
   -2.8099    1.7821   -1.4682 H   0  0  0  0  0  0  0  0  0  0  0  0
   -0.6484    2.8587   -2.2018 H   0  0  0  0  0  0  0  0  0  0  0  0
    1.5130   -0.0371    0.1224 H   0  0  0  0  0  0  0  0  0  0  0  0
   -0.6200   -0.9967    1.0089 H   0  0  0  0  0  0  0  0  0  0  0  0
   -4.3980    3.0035   -0.3903 O   0  0  0  0  0  0  0  0  0  0  0  0
   -3.4363    3.3589    0.2466 C   0  0  0  0  0  0  0  0  0  0  0  0
   -2.2007    2.8541    0.2035 O   0  0  0  0  0  0  0  0  0  0  0  0
   -3.4847    4.5202    1.2674 C   0  0  0  0  0  0  0  0  0  0  0  0
   -2.6573    5.5072    0.8840 F   0  0  0  0  0  0  0  0  0  0  0  0
   -4.7238    5.0064    1.3561 F   0  0  0  0  0  0  0  0  0  0  0  0
   -3.0998    4.0897    2.4813 F   0  0  0  0  0  0  0  0  0  0  0  0
  1  2  1  0  0  0  0
  1 11  2  0  0  0  0
  2  3  1  0  0  0  0
  4 12  1  6  0  0  0
  4  1  1  0  0  0  0
  4 18  1  0  0  0  0
  5  6  2  0  0  0  0
  5  4  1  0  0  0  0
  6 10  1  0  0  0  0
  7  9  2  0  0  0  0
  7  6  1  0  0  0  0
  8  7  2  0  0  0  0
 10 14  1  0  0  0  0
 10 11  1  0  0  0  0
 11 15  1  0  0  0  0
 13  5  1  0  0  0  0
 16 17  2  0  0  0  0
 17 19  1  0  0  0  0
 18 17  1  0  0  0  0
 19 21  1  0  0  0  0
 19 22  1  0  0  0  0
 20 19  1  0  0  0  0
M  RAD  3   2   2   3   3  10   2
M  END
