Coordinates from ORCA-job 4-NO2PhN2+~CF3COO-_B3LYPG-6-31G_dp-NX-Scan-d89-09-n800
 OpenBabel11261920383D

 22 21  0  0  0  0  0  0  0  0999 V2000
   -1.8747   -0.0390    0.2859 C   0  0  0  0  0  0  0  0  0  0  0  0
   -2.7158   -0.9888    0.7775 N   0  0  0  0  0  0  0  0  0  0  0  0
   -3.3330   -1.8347    1.1925 N   0  0  0  0  0  0  0  0  0  0  0  0
   -2.2794    0.7611   -0.8084 C   0  0  0  0  0  0  0  0  0  0  0  0
   -1.3111    1.5886   -1.3808 C   0  0  0  0  0  0  0  0  0  0  0  0
   -0.0482    1.6438   -0.8159 C   0  0  0  0  0  0  0  0  0  0  0  0
    0.9620    2.5248   -1.4307 N   0  0  0  0  0  0  0  0  0  0  0  0
    0.6479    3.1095   -2.4610 O   0  0  0  0  0  0  0  0  0  0  0  0
    2.0550    2.5932   -0.8704 O   0  0  0  0  0  0  0  0  0  0  0  0
    0.3240    0.9084    0.3276 C   0  0  0  0  0  0  0  0  0  0  0  0
   -0.5838    0.0488    0.8911 C   0  0  0  0  0  0  0  0  0  0  0  0
   -3.2765    0.7112   -1.2218 H   0  0  0  0  0  0  0  0  0  0  0  0
   -1.5684    2.2121   -2.2247 H   0  0  0  0  0  0  0  0  0  0  0  0
    1.3189    1.0326    0.7350 H   0  0  0  0  0  0  0  0  0  0  0  0
   -0.3440   -0.5514    1.7606 H   0  0  0  0  0  0  0  0  0  0  0  0
   -3.8407    5.2463   -1.0276 O   0  0  0  0  0  0  0  0  0  0  0  0
   -3.3926    4.1676   -0.6354 C   0  0  0  0  0  0  0  0  0  0  0  0
   -3.5944    3.0021   -1.1119 O   0  0  0  0  0  0  0  0  0  0  0  0
   -2.4028    4.2068    0.5694 C   0  0  0  0  0  0  0  0  0  0  0  0
   -2.4673    3.0845    1.3398 F   0  0  0  0  0  0  0  0  0  0  0  0
   -1.1176    4.2753    0.1124 F   0  0  0  0  0  0  0  0  0  0  0  0
   -2.5971    5.2564    1.3751 F   0  0  0  0  0  0  0  0  0  0  0  0
  1  2  1  0  0  0  0
  1 11  1  0  0  0  0
  2  3  1  0  0  0  0
  4  1  2  0  0  0  0
  5  6  2  0  0  0  0
  5  4  1  0  0  0  0
  6 10  1  0  0  0  0
  7  9  2  0  0  0  0
  7  6  1  0  0  0  0
  8  7  2  0  0  0  0
 10 14  1  0  0  0  0
 10 11  2  0  0  0  0
 11 15  1  0  0  0  0
 12  4  1  0  0  0  0
 13  5  1  0  0  0  0
 16 17  1  0  0  0  0
 17 19  1  0  0  0  0
 18 17  2  0  0  0  0
 19 20  1  0  0  0  0
 19 22  1  0  0  0  0
 21 19  1  0  0  0  0
M  RAD  3   2   2   3   3  16   2
M  END
