Coordinates from ORCA-job 4-NO2PhN2+~CF3COO-_B3LYPG-6-31G_dp-NX-Scan-d89-09-n800
 OpenBabel11261920383D

 22 21  0  0  0  0  0  0  0  0999 V2000
   -1.8502   -0.0967    0.2889 C   0  0  0  0  0  0  0  0  0  0  0  0
   -2.6850   -1.0594    0.7694 N   0  0  0  0  0  0  0  0  0  0  0  0
   -3.2982   -1.9128    1.1741 N   0  0  0  0  0  0  0  0  0  0  0  0
   -2.2783    0.7470   -0.7633 C   0  0  0  0  0  0  0  0  0  0  0  0
   -1.3242    1.5971   -1.3227 C   0  0  0  0  0  0  0  0  0  0  0  0
   -0.0466    1.6284   -0.7855 C   0  0  0  0  0  0  0  0  0  0  0  0
    0.9505    2.5330   -1.3871 N   0  0  0  0  0  0  0  0  0  0  0  0
    0.6169    3.1507   -2.3913 O   0  0  0  0  0  0  0  0  0  0  0  0
    2.0528    2.5856   -0.8432 O   0  0  0  0  0  0  0  0  0  0  0  0
    0.3513    0.8449    0.3150 C   0  0  0  0  0  0  0  0  0  0  0  0
   -0.5446   -0.0385    0.8633 C   0  0  0  0  0  0  0  0  0  0  0  0
   -3.2887    0.7291   -1.1475 H   0  0  0  0  0  0  0  0  0  0  0  0
   -1.6044    2.2561   -2.1315 H   0  0  0  0  0  0  0  0  0  0  0  0
    1.3560    0.9504    0.7032 H   0  0  0  0  0  0  0  0  0  0  0  0
   -0.2841   -0.6763    1.6996 H   0  0  0  0  0  0  0  0  0  0  0  0
   -3.8716    5.2858   -1.0911 O   0  0  0  0  0  0  0  0  0  0  0  0
   -3.4142    4.2193   -0.6754 C   0  0  0  0  0  0  0  0  0  0  0  0
   -3.6058    3.0422   -1.1246 O   0  0  0  0  0  0  0  0  0  0  0  0
   -2.4244    4.2885    0.5279 C   0  0  0  0  0  0  0  0  0  0  0  0
   -2.5229    3.2066    1.3481 F   0  0  0  0  0  0  0  0  0  0  0  0
   -1.1363    4.2974    0.0703 F   0  0  0  0  0  0  0  0  0  0  0  0
   -2.5873    5.3810    1.2817 F   0  0  0  0  0  0  0  0  0  0  0  0
  1  2  1  0  0  0  0
  1 11  1  0  0  0  0
  2  3  1  0  0  0  0
  4  1  2  0  0  0  0
  5  6  2  0  0  0  0
  5  4  1  0  0  0  0
  6 10  1  0  0  0  0
  7  9  2  0  0  0  0
  7  6  1  0  0  0  0
  8  7  2  0  0  0  0
 10 14  1  0  0  0  0
 10 11  2  0  0  0  0
 11 15  1  0  0  0  0
 12  4  1  0  0  0  0
 13  5  1  0  0  0  0
 16 17  1  0  0  0  0
 17 19  1  0  0  0  0
 18 17  2  0  0  0  0
 19 22  1  0  0  0  0
 19 20  1  0  0  0  0
 21 19  1  0  0  0  0
M  RAD  3   2   2   3   3  16   2
M  END
