Coordinates from ORCA-job 4-NO2PhN2+~CF3COO-_B3LYPG-6-31G_dp-NX-Scan-d89-09-n800
 OpenBabel11261920383D

 22 22  0  0  1  0  0  0  0  0999 V2000
   -1.8467    0.3853   -0.0232 C   0  0  0  0  0  0  0  0  0  0  0  0
   -2.9567   -0.2277    0.3353 N   0  0  0  0  0  0  0  0  0  0  0  0
   -3.9230   -0.7475    0.6396 N   0  0  0  0  0  0  0  0  0  0  0  0
   -1.9829    1.6914   -0.7430 C   0  0  2  0  0  0  0  0  0  0  0  0
   -0.7120    2.0545   -1.4366 C   0  0  0  0  0  0  0  0  0  0  0  0
    0.4474    1.4539   -1.0994 C   0  0  0  0  0  0  0  0  0  0  0  0
    1.6882    1.9160   -1.7688 N   0  0  0  0  0  0  0  0  0  0  0  0
    1.5916    2.7946   -2.6209 O   0  0  0  0  0  0  0  0  0  0  0  0
    2.7400    1.3855   -1.4178 O   0  0  0  0  0  0  0  0  0  0  0  0
    0.5664    0.3669   -0.1602 C   0  0  0  0  0  0  0  0  0  0  0  0
   -0.5714   -0.1673    0.3491 C   0  0  0  0  0  0  0  0  0  0  0  0
   -2.8448    1.7154   -1.4117 H   0  0  0  0  0  0  0  0  0  0  0  0
   -0.7270    2.8431   -2.1784 H   0  0  0  0  0  0  0  0  0  0  0  0
    1.5465   -0.0166    0.0832 H   0  0  0  0  0  0  0  0  0  0  0  0
   -0.5446   -1.0196    1.0199 H   0  0  0  0  0  0  0  0  0  0  0  0
   -4.2688    3.2761   -0.6660 O   0  0  0  0  0  0  0  0  0  0  0  0
   -3.3978    3.4457    0.1516 C   0  0  0  0  0  0  0  0  0  0  0  0
   -2.2455    2.7791    0.2673 O   0  0  0  0  0  0  0  0  0  0  0  0
   -3.4838    4.5186    1.2628 C   0  0  0  0  0  0  0  0  0  0  0  0
   -2.4591    5.3809    1.1571 F   0  0  0  0  0  0  0  0  0  0  0  0
   -4.6290    5.1953    1.1652 F   0  0  0  0  0  0  0  0  0  0  0  0
   -3.4266    3.9356    2.4733 F   0  0  0  0  0  0  0  0  0  0  0  0
  1  2  1  0  0  0  0
  1 11  2  0  0  0  0
  2  3  1  0  0  0  0
  4 12  1  6  0  0  0
  4  1  1  0  0  0  0
  4 18  1  0  0  0  0
  5  6  2  0  0  0  0
  5  4  1  0  0  0  0
  6 10  1  0  0  0  0
  7  9  2  0  0  0  0
  7  6  1  0  0  0  0
  8  7  2  0  0  0  0
 10 14  1  0  0  0  0
 10 11  1  0  0  0  0
 11 15  1  0  0  0  0
 13  5  1  0  0  0  0
 16 17  2  0  0  0  0
 17 18  1  0  0  0  0
 17 19  1  0  0  0  0
 19 22  1  0  0  0  0
 20 19  1  0  0  0  0
 21 19  1  0  0  0  0
M  RAD  3   2   2   3   3  10   2
M  END
