Coordinates from ORCA-job 4-NO2PhN2+~CF3COO-_B3LYPG-6-31G_dp-NX-Scan-d89-09-n800
 OpenBabel11261920383D

 22 21  0  0  0  0  0  0  0  0999 V2000
   -0.9972    1.3286   -0.2645 C   0  0  0  0  0  0  0  0  0  0  0  0
   -2.0550    1.5856    0.6693 N   0  0  0  0  0  0  0  0  0  0  0  0
   -2.6336    2.7089    0.5356 N   0  0  0  0  0  0  0  0  0  0  0  0
   -0.5646    2.1792   -1.2965 C   0  0  0  0  0  0  0  0  0  0  0  0
    0.4835    1.7854   -2.1239 C   0  0  0  0  0  0  0  0  0  0  0  0
    1.0882    0.5492   -1.9148 C   0  0  0  0  0  0  0  0  0  0  0  0
    2.1950    0.1395   -2.7902 N   0  0  0  0  0  0  0  0  0  0  0  0
    2.5388    0.9196   -3.6777 O   0  0  0  0  0  0  0  0  0  0  0  0
    2.7089   -0.9583   -2.5799 O   0  0  0  0  0  0  0  0  0  0  0  0
    0.6728   -0.3100   -0.8971 C   0  0  0  0  0  0  0  0  0  0  0  0
   -0.3716    0.0852   -0.0743 C   0  0  0  0  0  0  0  0  0  0  0  0
   -1.0243    3.1448   -1.4728 H   0  0  0  0  0  0  0  0  0  0  0  0
    0.8365    2.4214   -2.9260 H   0  0  0  0  0  0  0  0  0  0  0  0
    1.1693   -1.2634   -0.7683 H   0  0  0  0  0  0  0  0  0  0  0  0
   -0.7244   -0.5524    0.7288 H   0  0  0  0  0  0  0  0  0  0  0  0
   -2.7178    3.5286    0.0830 O   0  0  0  0  0  0  0  0  0  0  0  0
   -4.4631    3.9701    1.6272 C   0  0  0  0  0  0  0  0  0  0  0  0
   -4.0674    2.8675    1.9382 O   0  0  0  0  0  0  0  0  0  0  0  0
   -5.6155    4.5530    2.4664 C   0  0  0  0  0  0  0  0  0  0  0  0
   -6.6403    4.8293    1.6427 F   0  0  0  0  0  0  0  0  0  0  0  0
   -6.0708    3.7515    3.4444 F   0  0  0  0  0  0  0  0  0  0  0  0
   -5.1868    5.6959    3.0288 F   0  0  0  0  0  0  0  0  0  0  0  0
  1 11  1  0  0  0  0
  1  2  1  0  0  0  0
  3  2  1  0  0  0  0
  4  1  2  0  0  0  0
  5  6  2  0  0  0  0
  5  4  1  0  0  0  0
  6 10  1  0  0  0  0
  7  9  2  0  0  0  0
  7  6  1  0  0  0  0
  8  7  2  0  0  0  0
 10 14  1  0  0  0  0
 10 11  2  0  0  0  0
 11 15  1  0  0  0  0
 12  4  1  0  0  0  0
 13  5  1  0  0  0  0
 16  3  2  0  0  0  0
 17 18  2  0  0  0  0
 17 19  1  0  0  0  0
 19 22  1  0  0  0  0
 19 21  1  0  0  0  0
 20 19  1  0  0  0  0
M  RAD  2   2   2  17   2
M  END
