Coordinates from ORCA-job 4-NO2PhN2+~CF3COO-_B3LYPG-6-31G_dp-NX-Scan-d89-09-n800
 OpenBabel11261920383D

 22 22  0  0  1  0  0  0  0  0999 V2000
   -1.8863    0.5447   -0.1383 C   0  0  0  0  0  0  0  0  0  0  0  0
   -3.0741    0.0546    0.1731 N   0  0  0  0  0  0  0  0  0  0  0  0
   -4.1512   -0.2095    0.4092 N   0  0  0  0  0  0  0  0  0  0  0  0
   -1.8866    1.8487   -0.8743 C   0  0  2  0  0  0  0  0  0  0  0  0
   -0.5550    2.1176   -1.4852 C   0  0  0  0  0  0  0  0  0  0  0  0
    0.5336    1.4222   -1.0930 C   0  0  0  0  0  0  0  0  0  0  0  0
    1.8402    1.7899   -1.6945 N   0  0  0  0  0  0  0  0  0  0  0  0
    1.8565    2.6784   -2.5416 O   0  0  0  0  0  0  0  0  0  0  0  0
    2.8281    1.1767   -1.2961 O   0  0  0  0  0  0  0  0  0  0  0  0
    0.5192    0.3213   -0.1662 C   0  0  0  0  0  0  0  0  0  0  0  0
   -0.6856   -0.1190    0.2794 C   0  0  0  0  0  0  0  0  0  0  0  0
   -2.7007    1.9068   -1.6006 H   0  0  0  0  0  0  0  0  0  0  0  0
   -0.4650    2.9098   -2.2173 H   0  0  0  0  0  0  0  0  0  0  0  0
    1.4509   -0.1450    0.1180 H   0  0  0  0  0  0  0  0  0  0  0  0
   -0.7637   -0.9769    0.9392 H   0  0  0  0  0  0  0  0  0  0  0  0
   -4.3081    2.3658    0.3058 O   0  0  0  0  0  0  0  0  0  0  0  0
   -3.4027    3.1507    0.4774 C   0  0  0  0  0  0  0  0  0  0  0  0
   -2.1490    3.0299    0.0521 O   0  0  0  0  0  0  0  0  0  0  0  0
   -3.5748    4.4741    1.2588 C   0  0  0  0  0  0  0  0  0  0  0  0
   -3.3270    5.5207    0.4524 F   0  0  0  0  0  0  0  0  0  0  0  0
   -4.8202    4.5769    1.7266 F   0  0  0  0  0  0  0  0  0  0  0  0
   -2.7181    4.5209    2.2932 F   0  0  0  0  0  0  0  0  0  0  0  0
  1  2  1  0  0  0  0
  1 11  2  0  0  0  0
  2  3  1  0  0  0  0
  4 12  1  6  0  0  0
  4  1  1  0  0  0  0
  4 18  1  0  0  0  0
  5  6  2  0  0  0  0
  5  4  1  0  0  0  0
  6 10  1  0  0  0  0
  7  9  2  0  0  0  0
  7  6  1  0  0  0  0
  8  7  2  0  0  0  0
 10 14  1  0  0  0  0
 10 11  1  0  0  0  0
 11 15  1  0  0  0  0
 13  5  1  0  0  0  0
 16 17  2  0  0  0  0
 17 19  1  0  0  0  0
 18 17  1  0  0  0  0
 19 21  1  0  0  0  0
 19 22  1  0  0  0  0
 20 19  1  0  0  0  0
M  RAD  3   2   2   3   3  10   2
M  END
