Coordinates from ORCA-job 4-NO2PhN2+~CF3COO-_B3LYPG-6-31G_dp-NX-Scan-d89-09-n800
 OpenBabel11261920383D

 22 22  0  0  1  0  0  0  0  0999 V2000
   -1.8885    0.5462   -0.1386 C   0  0  0  0  0  0  0  0  0  0  0  0
   -3.0746    0.0503    0.1695 N   0  0  0  0  0  0  0  0  0  0  0  0
   -4.1470   -0.2330    0.4046 N   0  0  0  0  0  0  0  0  0  0  0  0
   -1.8889    1.8492   -0.8761 C   0  0  2  0  0  0  0  0  0  0  0  0
   -0.5575    2.1164   -1.4889 C   0  0  0  0  0  0  0  0  0  0  0  0
    0.5316    1.4238   -1.0935 C   0  0  0  0  0  0  0  0  0  0  0  0
    1.8381    1.7901   -1.6960 N   0  0  0  0  0  0  0  0  0  0  0  0
    1.8538    2.6744   -2.5474 O   0  0  0  0  0  0  0  0  0  0  0  0
    2.8263    1.1796   -1.2944 O   0  0  0  0  0  0  0  0  0  0  0  0
    0.5176    0.3268   -0.1619 C   0  0  0  0  0  0  0  0  0  0  0  0
   -0.6869   -0.1139    0.2837 C   0  0  0  0  0  0  0  0  0  0  0  0
   -2.7037    1.9066   -1.6016 H   0  0  0  0  0  0  0  0  0  0  0  0
   -0.4681    2.9058   -2.2242 H   0  0  0  0  0  0  0  0  0  0  0  0
    1.4497   -0.1370    0.1254 H   0  0  0  0  0  0  0  0  0  0  0  0
   -0.7645   -0.9697    0.9463 H   0  0  0  0  0  0  0  0  0  0  0  0
   -4.3091    2.3719    0.2983 O   0  0  0  0  0  0  0  0  0  0  0  0
   -3.4014    3.1527    0.4758 C   0  0  0  0  0  0  0  0  0  0  0  0
   -2.1480    3.0305    0.0495 O   0  0  0  0  0  0  0  0  0  0  0  0
   -3.5703    4.4738    1.2617 C   0  0  0  0  0  0  0  0  0  0  0  0
   -3.3075    5.5227    0.4631 F   0  0  0  0  0  0  0  0  0  0  0  0
   -4.8188    4.5837    1.7195 F   0  0  0  0  0  0  0  0  0  0  0  0
   -2.7220    4.5083    2.3036 F   0  0  0  0  0  0  0  0  0  0  0  0
  1  2  1  0  0  0  0
  1 11  2  0  0  0  0
  2  3  1  0  0  0  0
  4 12  1  6  0  0  0
  4  1  1  0  0  0  0
  4 18  1  0  0  0  0
  5  6  2  0  0  0  0
  5  4  1  0  0  0  0
  6 10  1  0  0  0  0
  7  9  2  0  0  0  0
  7  6  1  0  0  0  0
  8  7  2  0  0  0  0
 10 14  1  0  0  0  0
 10 11  1  0  0  0  0
 11 15  1  0  0  0  0
 13  5  1  0  0  0  0
 16 17  2  0  0  0  0
 17 19  1  0  0  0  0
 18 17  1  0  0  0  0
 19 21  1  0  0  0  0
 19 22  1  0  0  0  0
 20 19  1  0  0  0  0
M  RAD  3   2   2   3   3  10   2
M  END
