Coordinates from ORCA-job 4-NO2PhN2+~CF3COO-_B3LYPG-6-31G_dp-NX-Scan-d89-09-n800
 OpenBabel11261920383D

 22 21  0  0  0  0  0  0  0  0999 V2000
   -1.6828   -0.7267    0.2834 C   0  0  0  0  0  0  0  0  0  0  0  0
   -2.3759   -1.8517    0.6183 N   0  0  0  0  0  0  0  0  0  0  0  0
   -2.9260   -2.7897    0.9142 N   0  0  0  0  0  0  0  0  0  0  0  0
   -2.3573    0.3413   -0.3585 C   0  0  0  0  0  0  0  0  0  0  0  0
   -1.6166    1.4501   -0.7417 C   0  0  0  0  0  0  0  0  0  0  0  0
   -0.2538    1.4695   -0.4366 C   0  0  0  0  0  0  0  0  0  0  0  0
    0.5612    2.6139   -0.8939 N   0  0  0  0  0  0  0  0  0  0  0  0
    0.0617    3.3557   -1.7275 O   0  0  0  0  0  0  0  0  0  0  0  0
    1.6889    2.7168   -0.4103 O   0  0  0  0  0  0  0  0  0  0  0  0
    0.4020    0.4460    0.2603 C   0  0  0  0  0  0  0  0  0  0  0  0
   -0.3030   -0.6864    0.6143 C   0  0  0  0  0  0  0  0  0  0  0  0
   -3.4267    0.3064   -0.5362 H   0  0  0  0  0  0  0  0  0  0  0  0
   -2.1345    2.3103   -1.1962 H   0  0  0  0  0  0  0  0  0  0  0  0
    1.4546    0.5523    0.4910 H   0  0  0  0  0  0  0  0  0  0  0  0
    0.1681   -1.5197    1.1225 H   0  0  0  0  0  0  0  0  0  0  0  0
   -3.9571    5.7129   -1.5051 O   0  0  0  0  0  0  0  0  0  0  0  0
   -3.3370    4.7618   -1.0104 C   0  0  0  0  0  0  0  0  0  0  0  0
   -3.4809    3.5289   -1.2569 O   0  0  0  0  0  0  0  0  0  0  0  0
   -2.2464    5.1507    0.0335 C   0  0  0  0  0  0  0  0  0  0  0  0
   -1.7137    4.0640    0.6685 F   0  0  0  0  0  0  0  0  0  0  0  0
   -1.2192    5.8003   -0.5491 F   0  0  0  0  0  0  0  0  0  0  0  0
   -2.7451    5.9523    0.9945 F   0  0  0  0  0  0  0  0  0  0  0  0
  1 11  1  0  0  0  0
  1  2  1  0  0  0  0
  2  3  1  0  0  0  0
  4  1  2  0  0  0  0
  5  6  2  0  0  0  0
  5  4  1  0  0  0  0
  6 10  1  0  0  0  0
  7  6  1  0  0  0  0
  7  9  2  0  0  0  0
  8  7  2  0  0  0  0
 10 14  1  0  0  0  0
 10 11  2  0  0  0  0
 11 15  1  0  0  0  0
 12  4  1  0  0  0  0
 13  5  1  0  0  0  0
 16 17  2  0  0  0  0
 17 19  1  0  0  0  0
 18 17  1  0  0  0  0
 19 20  1  0  0  0  0
 19 22  1  0  0  0  0
 21 19  1  0  0  0  0
M  RAD  3   2   2   3   3  18   2
M  END
