Coordinates from ORCA-job 4-NO2PhN2+~CF3COO-_B3LYPG-6-31G_dp-NX-Scan-d89-09-n800
 OpenBabel11261920383D

 22 22  0  0  1  0  0  0  0  0999 V2000
   -1.9039    0.1769    0.0804 C   0  0  2  0  0  0  0  0  0  0  0  0
   -2.7969   -0.7503    0.3850 N   0  0  0  0  0  0  0  0  0  0  0  0
   -3.4742   -1.6216    0.6783 N   0  0  0  0  0  0  0  0  0  0  0  0
   -2.2700    1.4089   -0.6995 C   0  0  2  0  0  0  0  0  0  0  0  0
   -1.0935    1.8762   -1.4991 C   0  0  0  0  0  0  0  0  0  0  0  0
    0.1562    1.5600   -1.1032 C   0  0  0  0  0  0  0  0  0  0  0  0
    1.2938    2.1273   -1.8668 N   0  0  0  0  0  0  0  0  0  0  0  0
    1.0435    2.7927   -2.8670 O   0  0  0  0  0  0  0  0  0  0  0  0
    2.4220    1.8928   -1.4374 O   0  0  0  0  0  0  0  0  0  0  0  0
    0.4680    0.6622   -0.0194 C   0  0  0  0  0  0  0  0  0  0  0  0
   -0.5479   -0.0448    0.5314 C   0  0  0  0  0  0  0  0  0  0  0  0
   -3.1533    1.2613   -1.3247 H   0  0  0  0  0  0  0  0  0  0  0  0
   -1.2573    2.5300   -2.3440 H   0  0  0  0  0  0  0  0  0  0  0  0
    1.4972    0.5309    0.2831 H   0  0  0  0  0  0  0  0  0  0  0  0
   -0.3655   -0.8002    1.2888 H   0  0  0  0  0  0  0  0  0  0  0  0
   -2.6323    4.2992   -1.0913 O   0  0  0  0  0  0  0  0  0  0  0  0
   -2.8048    3.7529   -0.0279 C   0  0  0  0  0  0  0  0  0  0  0  0
   -2.6839    2.4623    0.3084 O   0  0  0  0  0  0  0  0  0  0  0  0
   -3.2356    4.5374    1.2384 C   0  0  0  0  0  0  0  0  0  0  0  0
   -2.3262    4.3870    2.2174 F   0  0  0  0  0  0  0  0  0  0  0  0
   -3.3552    5.8361    0.9595 F   0  0  0  0  0  0  0  0  0  0  0  0
   -4.4199    4.0820    1.6881 F   0  0  0  0  0  0  0  0  0  0  0  0
  1  2  1  6  0  0  0
  1 11  1  0  0  0  0
  2  3  1  0  0  0  0
  4 12  1  6  0  0  0
  4  1  1  0  0  0  0
  4 18  1  0  0  0  0
  5  6  2  0  0  0  0
  5  4  1  0  0  0  0
  6 10  1  0  0  0  0
  7  9  2  0  0  0  0
  7  6  1  0  0  0  0
  8  7  2  0  0  0  0
 10 14  1  0  0  0  0
 10 11  2  0  0  0  0
 11 15  1  0  0  0  0
 13  5  1  0  0  0  0
 16 17  2  0  0  0  0
 17 18  1  0  0  0  0
 17 19  1  0  0  0  0
 19 22  1  0  0  0  0
 19 20  1  0  0  0  0
 21 19  1  0  0  0  0
M  RAD  3   1   2   2   2   3   3
M  END
