Coordinates from ORCA-job 4-NO2PhN2+~CF3COO-_B3LYPG-6-31G_dp-NX-Scan-d89-09-n800
 OpenBabel11261920383D

 22 22  0  0  1  0  0  0  0  0999 V2000
   -1.8439    0.2156    0.0798 C   0  0  0  0  0  0  0  0  0  0  0  0
   -2.8427   -0.5480    0.4790 N   0  0  0  0  0  0  0  0  0  0  0  0
   -3.6755   -1.2417    0.8306 N   0  0  0  0  0  0  0  0  0  0  0  0
   -2.1480    1.4968   -0.6341 C   0  0  2  0  0  0  0  0  0  0  0  0
   -0.9547    1.9724   -1.4005 C   0  0  0  0  0  0  0  0  0  0  0  0
    0.2764    1.5117   -1.1012 C   0  0  0  0  0  0  0  0  0  0  0  0
    1.4311    2.0869   -1.8352 N   0  0  0  0  0  0  0  0  0  0  0  0
    1.2051    2.9293   -2.6987 O   0  0  0  0  0  0  0  0  0  0  0  0
    2.5475    1.6780   -1.5222 O   0  0  0  0  0  0  0  0  0  0  0  0
    0.5530    0.4676   -0.1468 C   0  0  0  0  0  0  0  0  0  0  0  0
   -0.4982   -0.1811    0.4107 C   0  0  0  0  0  0  0  0  0  0  0  0
   -3.0335    1.4333   -1.2707 H   0  0  0  0  0  0  0  0  0  0  0  0
   -1.0959    2.7375   -2.1523 H   0  0  0  0  0  0  0  0  0  0  0  0
    1.5781    0.2010    0.0664 H   0  0  0  0  0  0  0  0  0  0  0  0
   -0.3519   -1.0150    1.0894 H   0  0  0  0  0  0  0  0  0  0  0  0
   -3.1891    4.0220   -1.1527 O   0  0  0  0  0  0  0  0  0  0  0  0
   -3.0134    3.6733   -0.0103 C   0  0  0  0  0  0  0  0  0  0  0  0
   -2.5049    2.5166    0.4217 O   0  0  0  0  0  0  0  0  0  0  0  0
   -3.3838    4.5568    1.2049 C   0  0  0  0  0  0  0  0  0  0  0  0
   -2.3226    4.7218    2.0119 F   0  0  0  0  0  0  0  0  0  0  0  0
   -3.8051    5.7541    0.7958 F   0  0  0  0  0  0  0  0  0  0  0  0
   -4.3674    3.9704    1.9130 F   0  0  0  0  0  0  0  0  0  0  0  0
  1 11  2  0  0  0  0
  1  2  1  0  0  0  0
  2  3  1  0  0  0  0
  4 12  1  6  0  0  0
  4  1  1  0  0  0  0
  4 18  1  0  0  0  0
  5  6  2  0  0  0  0
  5  4  1  0  0  0  0
  6 10  1  0  0  0  0
  7  9  2  0  0  0  0
  7  6  1  0  0  0  0
  8  7  2  0  0  0  0
 10 14  1  0  0  0  0
 10 11  1  0  0  0  0
 11 15  1  0  0  0  0
 13  5  1  0  0  0  0
 16 17  2  0  0  0  0
 17 18  1  0  0  0  0
 17 19  1  0  0  0  0
 19 22  1  0  0  0  0
 19 20  1  0  0  0  0
 21 19  1  0  0  0  0
M  RAD  3   2   2   3   3  10   2
M  END
