Coordinates from ORCA-job 4-NO2PhN2+~CF3COO-_B3LYPG-6-31G_dp-NX-Scan-d89-09-n800
 OpenBabel11261920383D

 22 22  0  0  1  0  0  0  0  0999 V2000
   -1.8310    0.3141    0.0279 C   0  0  0  0  0  0  0  0  0  0  0  0
   -2.9129   -0.3261    0.4219 N   0  0  0  0  0  0  0  0  0  0  0  0
   -3.8593   -0.8656    0.7534 N   0  0  0  0  0  0  0  0  0  0  0  0
   -2.0300    1.6164   -0.6813 C   0  0  2  0  0  0  0  0  0  0  0  0
   -0.7904    2.0299   -1.4035 C   0  0  0  0  0  0  0  0  0  0  0  0
    0.3970    1.4664   -1.1014 C   0  0  0  0  0  0  0  0  0  0  0  0
    1.6046    1.9783   -1.7952 N   0  0  0  0  0  0  0  0  0  0  0  0
    1.4591    2.8752   -2.6208 O   0  0  0  0  0  0  0  0  0  0  0  0
    2.6823    1.4815   -1.4751 O   0  0  0  0  0  0  0  0  0  0  0  0
    0.5762    0.3738   -0.1781 C   0  0  0  0  0  0  0  0  0  0  0  0
   -0.5290   -0.2012    0.3579 C   0  0  0  0  0  0  0  0  0  0  0  0
   -2.9028    1.6182   -1.3365 H   0  0  0  0  0  0  0  0  0  0  0  0
   -0.8540    2.8246   -2.1364 H   0  0  0  0  0  0  0  0  0  0  0  0
    1.5745    0.0193    0.0338 H   0  0  0  0  0  0  0  0  0  0  0  0
   -0.4560   -1.0580    1.0192 H   0  0  0  0  0  0  0  0  0  0  0  0
   -3.9355    3.6036   -0.9540 O   0  0  0  0  0  0  0  0  0  0  0  0
   -3.2843    3.5459    0.0599 C   0  0  0  0  0  0  0  0  0  0  0  0
   -2.3241    2.6670    0.3593 O   0  0  0  0  0  0  0  0  0  0  0  0
   -3.4675    4.5307    1.2387 C   0  0  0  0  0  0  0  0  0  0  0  0
   -2.3220    5.1919    1.4749 F   0  0  0  0  0  0  0  0  0  0  0  0
   -4.4266    5.4142    0.9598 F   0  0  0  0  0  0  0  0  0  0  0  0
   -3.8078    3.8589    2.3538 F   0  0  0  0  0  0  0  0  0  0  0  0
  1 11  2  0  0  0  0
  1  2  1  0  0  0  0
  2  3  1  0  0  0  0
  4 12  1  6  0  0  0
  4  1  1  0  0  0  0
  4 18  1  0  0  0  0
  5  6  2  0  0  0  0
  5  4  1  0  0  0  0
  6 10  1  0  0  0  0
  7  9  2  0  0  0  0
  7  6  1  0  0  0  0
  8  7  2  0  0  0  0
 10 14  1  0  0  0  0
 10 11  1  0  0  0  0
 11 15  1  0  0  0  0
 13  5  1  0  0  0  0
 16 17  2  0  0  0  0
 17 18  1  0  0  0  0
 17 19  1  0  0  0  0
 19 20  1  0  0  0  0
 19 22  1  0  0  0  0
 21 19  1  0  0  0  0
M  RAD  3   2   2   3   3  10   2
M  END
