Coordinates from ORCA-job 4-NO2PhN2+~CF3COO-_B3LYPG-6-31G_dp-NX-Scan-d89-09-n800
 OpenBabel11261920383D

 22 22  0  0  1  0  0  0  0  0999 V2000
   -1.8958    0.4945   -0.1118 C   0  0  0  0  0  0  0  0  0  0  0  0
   -3.0398   -0.1019    0.1660 N   0  0  0  0  0  0  0  0  0  0  0  0
   -4.0198   -0.6252    0.4079 N   0  0  0  0  0  0  0  0  0  0  0  0
   -1.9366    1.8011   -0.8427 C   0  0  2  0  0  0  0  0  0  0  0  0
   -0.6240    2.0885   -1.4924 C   0  0  0  0  0  0  0  0  0  0  0  0
    0.4914    1.4457   -1.0904 C   0  0  0  0  0  0  0  0  0  0  0  0
    1.7791    1.8339   -1.7167 N   0  0  0  0  0  0  0  0  0  0  0  0
    1.7578    2.6874   -2.5990 O   0  0  0  0  0  0  0  0  0  0  0  0
    2.7907    1.2722   -1.3019 O   0  0  0  0  0  0  0  0  0  0  0  0
    0.5200    0.3778   -0.1237 C   0  0  0  0  0  0  0  0  0  0  0  0
   -0.6637   -0.1019    0.3334 C   0  0  0  0  0  0  0  0  0  0  0  0
   -2.7734    1.8510   -1.5410 H   0  0  0  0  0  0  0  0  0  0  0  0
   -0.5713    2.8586   -2.2515 H   0  0  0  0  0  0  0  0  0  0  0  0
    1.4701   -0.0394    0.1765 H   0  0  0  0  0  0  0  0  0  0  0  0
   -0.7056   -0.9450    1.0152 H   0  0  0  0  0  0  0  0  0  0  0  0
   -4.4156    2.7109   -0.0685 O   0  0  0  0  0  0  0  0  0  0  0  0
   -3.4309    3.2692    0.3524 C   0  0  0  0  0  0  0  0  0  0  0  0
   -2.1594    2.9477    0.1140 O   0  0  0  0  0  0  0  0  0  0  0  0
   -3.4933    4.5054    1.2796 C   0  0  0  0  0  0  0  0  0  0  0  0
   -2.9106    5.5608    0.6855 F   0  0  0  0  0  0  0  0  0  0  0  0
   -4.7618    4.8131    1.5558 F   0  0  0  0  0  0  0  0  0  0  0  0
   -2.8470    4.2549    2.4314 F   0  0  0  0  0  0  0  0  0  0  0  0
  1  2  1  0  0  0  0
  1 11  2  0  0  0  0
  2  3  1  0  0  0  0
  4 12  1  6  0  0  0
  4  1  1  0  0  0  0
  4 18  1  0  0  0  0
  5  6  2  0  0  0  0
  5  4  1  0  0  0  0
  6 10  1  0  0  0  0
  7  9  2  0  0  0  0
  7  6  1  0  0  0  0
  8  7  2  0  0  0  0
 10 14  1  0  0  0  0
 10 11  1  0  0  0  0
 11 15  1  0  0  0  0
 13  5  1  0  0  0  0
 16 17  2  0  0  0  0
 17 19  1  0  0  0  0
 18 17  1  0  0  0  0
 19 21  1  0  0  0  0
 19 22  1  0  0  0  0
 20 19  1  0  0  0  0
M  RAD  3   2   2   3   3  10   2
M  END
