Coordinates from ORCA-job 4-NO2PhN2+~CF3COO-_B3LYPG-6-31G_dp-NX-Scan-d89-09-n800
 OpenBabel11261920383D

 22 22  0  0  1  0  0  0  0  0999 V2000
   -1.8568    0.5170   -0.1260 C   0  0  0  0  0  0  0  0  0  0  0  0
   -3.0577    0.0787    0.2239 N   0  0  0  0  0  0  0  0  0  0  0  0
   -4.1676    0.0218    0.4604 N   0  0  0  0  0  0  0  0  0  0  0  0
   -1.8618    1.8354   -0.8324 C   0  0  2  0  0  0  0  0  0  0  0  0
   -0.5336    2.1302   -1.4308 C   0  0  0  0  0  0  0  0  0  0  0  0
    0.5532    1.4038   -1.0884 C   0  0  0  0  0  0  0  0  0  0  0  0
    1.8568    1.7949   -1.6831 N   0  0  0  0  0  0  0  0  0  0  0  0
    1.8724    2.7339   -2.4738 O   0  0  0  0  0  0  0  0  0  0  0  0
    2.8430    1.1489   -1.3359 O   0  0  0  0  0  0  0  0  0  0  0  0
    0.5403    0.2543   -0.2249 C   0  0  0  0  0  0  0  0  0  0  0  0
   -0.6634   -0.1879    0.2256 C   0  0  0  0  0  0  0  0  0  0  0  0
   -2.6768    1.9104   -1.5571 H   0  0  0  0  0  0  0  0  0  0  0  0
   -0.4426    2.9598   -2.1200 H   0  0  0  0  0  0  0  0  0  0  0  0
    1.4700   -0.2400    0.0147 H   0  0  0  0  0  0  0  0  0  0  0  0
   -0.7425   -1.0733    0.8477 H   0  0  0  0  0  0  0  0  0  0  0  0
   -4.3191    2.3361    0.3523 O   0  0  0  0  0  0  0  0  0  0  0  0
   -3.4172    3.1317    0.5108 C   0  0  0  0  0  0  0  0  0  0  0  0
   -2.1541    3.0053    0.1230 O   0  0  0  0  0  0  0  0  0  0  0  0
   -3.6259    4.4909    1.2188 C   0  0  0  0  0  0  0  0  0  0  0  0
   -3.4829    5.4904    0.3296 F   0  0  0  0  0  0  0  0  0  0  0  0
   -4.8501    4.5565    1.7455 F   0  0  0  0  0  0  0  0  0  0  0  0
   -2.7231    4.6602    2.1984 F   0  0  0  0  0  0  0  0  0  0  0  0
  1  2  1  0  0  0  0
  1 11  2  0  0  0  0
  2  3  1  0  0  0  0
  4 12  1  6  0  0  0
  4  1  1  0  0  0  0
  4 18  1  0  0  0  0
  5  6  2  0  0  0  0
  5  4  1  0  0  0  0
  6 10  1  0  0  0  0
  7  9  2  0  0  0  0
  7  6  1  0  0  0  0
  8  7  2  0  0  0  0
 10 14  1  0  0  0  0
 10 11  1  0  0  0  0
 11 15  1  0  0  0  0
 13  5  1  0  0  0  0
 16 17  2  0  0  0  0
 17 19  1  0  0  0  0
 18 17  1  0  0  0  0
 19 21  1  0  0  0  0
 19 22  1  0  0  0  0
 20 19  1  0  0  0  0
M  RAD  3   2   2   3   3  10   2
M  END
