Coordinates from ORCA-job 4-NO2PhN2+~CF3COO-_B3LYPG-6-31G_dp-NX-Scan-d89-09-n800
 OpenBabel11261920383D

 22 21  0  0  0  0  0  0  0  0999 V2000
   -1.8552    0.4871    0.2714 C   0  0  0  0  0  0  0  0  0  0  0  0
   -2.8136   -0.1887    0.9370 N   0  0  0  0  0  0  0  0  0  0  0  0
   -3.5806   -0.7939    1.4967 N   0  0  0  0  0  0  0  0  0  0  0  0
   -2.1700    1.0372   -1.0008 C   0  0  0  0  0  0  0  0  0  0  0  0
   -1.0760    1.5515   -1.7419 C   0  0  0  0  0  0  0  0  0  0  0  0
    0.1615    1.6196   -1.1558 C   0  0  0  0  0  0  0  0  0  0  0  0
    1.2824    2.1813   -1.9432 N   0  0  0  0  0  0  0  0  0  0  0  0
    1.0510    2.5191   -3.0990 O   0  0  0  0  0  0  0  0  0  0  0  0
    2.3721    2.2593   -1.3802 O   0  0  0  0  0  0  0  0  0  0  0  0
    0.4389    1.1732    0.1635 C   0  0  0  0  0  0  0  0  0  0  0  0
   -0.5682    0.6029    0.8872 C   0  0  0  0  0  0  0  0  0  0  0  0
   -3.0969    0.7801   -1.4886 H   0  0  0  0  0  0  0  0  0  0  0  0
   -1.2312    1.9241   -2.7447 H   0  0  0  0  0  0  0  0  0  0  0  0
    1.4375    1.2899    0.5628 H   0  0  0  0  0  0  0  0  0  0  0  0
   -0.4146    0.2380    1.8955 H   0  0  0  0  0  0  0  0  0  0  0  0
   -3.4628    5.1182   -0.6960 O   0  0  0  0  0  0  0  0  0  0  0  0
   -3.2490    3.9571   -0.3718 C   0  0  0  0  0  0  0  0  0  0  0  0
   -3.2515    2.9178   -1.1311 O   0  0  0  0  0  0  0  0  0  0  0  0
   -2.9393    3.6625    1.1229 C   0  0  0  0  0  0  0  0  0  0  0  0
   -3.5932    2.5459    1.5639 F   0  0  0  0  0  0  0  0  0  0  0  0
   -1.6113    3.4110    1.2939 F   0  0  0  0  0  0  0  0  0  0  0  0
   -3.2695    4.6661    1.9364 F   0  0  0  0  0  0  0  0  0  0  0  0
  1 11  1  0  0  0  0
  1  2  1  0  0  0  0
  2  3  1  0  0  0  0
  4  1  2  0  0  0  0
  5  6  2  0  0  0  0
  5  4  1  0  0  0  0
  6 10  1  0  0  0  0
  7  9  2  0  0  0  0
  7  6  1  0  0  0  0
  8  7  2  0  0  0  0
 10 14  1  0  0  0  0
 10 11  2  0  0  0  0
 11 15  1  0  0  0  0
 12  4  1  0  0  0  0
 13  5  1  0  0  0  0
 16 17  1  0  0  0  0
 17 19  1  0  0  0  0
 18 17  2  0  0  0  0
 19 21  1  0  0  0  0
 19 20  1  0  0  0  0
 19 22  1  0  0  0  0
M  RAD  3   2   2   3   3  16   2
M  END
