Coordinates from ORCA-job 4-NO2PhN2+~CF3COO-_B3LYPG-6-31G_dp-NX-Scan-d89-09-n800
 OpenBabel11261920383D

 22 22  0  0  1  0  0  0  0  0999 V2000
   -1.8997    0.5464   -0.1421 C   0  0  0  0  0  0  0  0  0  0  0  0
   -3.0762    0.0198    0.1489 N   0  0  0  0  0  0  0  0  0  0  0  0
   -4.1207   -0.3568    0.3800 N   0  0  0  0  0  0  0  0  0  0  0  0
   -1.9013    1.8477   -0.8831 C   0  0  2  0  0  0  0  0  0  0  0  0
   -0.5707    2.1103   -1.5018 C   0  0  0  0  0  0  0  0  0  0  0  0
    0.5211    1.4310   -1.0925 C   0  0  0  0  0  0  0  0  0  0  0  0
    1.8272    1.7934   -1.6976 N   0  0  0  0  0  0  0  0  0  0  0  0
    1.8408    2.6636   -2.5635 O   0  0  0  0  0  0  0  0  0  0  0  0
    2.8180    1.1984   -1.2792 O   0  0  0  0  0  0  0  0  0  0  0  0
    0.5096    0.3494   -0.1424 C   0  0  0  0  0  0  0  0  0  0  0  0
   -0.6937   -0.0958    0.3004 C   0  0  0  0  0  0  0  0  0  0  0  0
   -2.7184    1.9036   -1.6056 H   0  0  0  0  0  0  0  0  0  0  0  0
   -0.4844    2.8880   -2.2498 H   0  0  0  0  0  0  0  0  0  0  0  0
    1.4435   -0.1019    0.1586 H   0  0  0  0  0  0  0  0  0  0  0  0
   -0.7683   -0.9439    0.9733 H   0  0  0  0  0  0  0  0  0  0  0  0
   -4.3236    2.4154    0.2571 O   0  0  0  0  0  0  0  0  0  0  0  0
   -3.4005    3.1703    0.4599 C   0  0  0  0  0  0  0  0  0  0  0  0
   -2.1464    3.0280    0.0412 O   0  0  0  0  0  0  0  0  0  0  0  0
   -3.5452    4.4779    1.2726 C   0  0  0  0  0  0  0  0  0  0  0  0
   -3.2420    5.5370    0.5021 F   0  0  0  0  0  0  0  0  0  0  0  0
   -4.7968    4.6118    1.7149 F   0  0  0  0  0  0  0  0  0  0  0  0
   -2.7116    4.4656    2.3269 F   0  0  0  0  0  0  0  0  0  0  0  0
  1  2  1  0  0  0  0
  1 11  2  0  0  0  0
  2  3  1  0  0  0  0
  4 12  1  6  0  0  0
  4  1  1  0  0  0  0
  4 18  1  0  0  0  0
  5  6  2  0  0  0  0
  5  4  1  0  0  0  0
  6 10  1  0  0  0  0
  7  9  2  0  0  0  0
  7  6  1  0  0  0  0
  8  7  2  0  0  0  0
 10 14  1  0  0  0  0
 10 11  1  0  0  0  0
 11 15  1  0  0  0  0
 13  5  1  0  0  0  0
 16 17  2  0  0  0  0
 17 19  1  0  0  0  0
 18 17  1  0  0  0  0
 19 21  1  0  0  0  0
 19 22  1  0  0  0  0
 20 19  1  0  0  0  0
M  RAD  3   2   2   3   3  10   2
M  END
