Coordinates from ORCA-job 4-NO2PhN2+~CF3COO-_B3LYPG-6-31G_dp-NX-Scan-d89-09-n800
 OpenBabel11261920383D

 22 22  0  0  1  0  0  0  0  0999 V2000
   -1.8246    0.2621    0.0663 C   0  0  0  0  0  0  0  0  0  0  0  0
   -2.8764   -0.4136    0.4828 N   0  0  0  0  0  0  0  0  0  0  0  0
   -3.7919   -0.9920    0.8349 N   0  0  0  0  0  0  0  0  0  0  0  0
   -2.0757    1.5590   -0.6354 C   0  0  2  0  0  0  0  0  0  0  0  0
   -0.8621    2.0137   -1.3782 C   0  0  0  0  0  0  0  0  0  0  0  0
    0.3466    1.4837   -1.1020 C   0  0  0  0  0  0  0  0  0  0  0  0
    1.5256    2.0344   -1.8158 N   0  0  0  0  0  0  0  0  0  0  0  0
    1.3381    2.9283   -2.6360 O   0  0  0  0  0  0  0  0  0  0  0  0
    2.6213    1.5555   -1.5313 O   0  0  0  0  0  0  0  0  0  0  0  0
    0.5759    0.3919   -0.1888 C   0  0  0  0  0  0  0  0  0  0  0  0
   -0.5012   -0.2164    0.3667 C   0  0  0  0  0  0  0  0  0  0  0  0
   -2.9552    1.5342   -1.2821 H   0  0  0  0  0  0  0  0  0  0  0  0
   -0.9673    2.8113   -2.1028 H   0  0  0  0  0  0  0  0  0  0  0  0
    1.5879    0.0647    0.0010 H   0  0  0  0  0  0  0  0  0  0  0  0
   -0.3904   -1.0740    1.0218 H   0  0  0  0  0  0  0  0  0  0  0  0
   -3.5550    3.8228   -1.1025 O   0  0  0  0  0  0  0  0  0  0  0  0
   -3.1488    3.6143    0.0146 C   0  0  0  0  0  0  0  0  0  0  0  0
   -2.4040    2.5840    0.4219 O   0  0  0  0  0  0  0  0  0  0  0  0
   -3.4526    4.5438    1.2130 C   0  0  0  0  0  0  0  0  0  0  0  0
   -2.3103    4.9927    1.7590 F   0  0  0  0  0  0  0  0  0  0  0  0
   -4.1810    5.5880    0.8157 F   0  0  0  0  0  0  0  0  0  0  0  0
   -4.1383    3.8709    2.1556 F   0  0  0  0  0  0  0  0  0  0  0  0
  1 11  2  0  0  0  0
  1  2  1  0  0  0  0
  2  3  1  0  0  0  0
  4 12  1  6  0  0  0
  4  1  1  0  0  0  0
  4 18  1  0  0  0  0
  5  6  2  0  0  0  0
  5  4  1  0  0  0  0
  6 10  1  0  0  0  0
  7  9  2  0  0  0  0
  7  6  1  0  0  0  0
  8  7  2  0  0  0  0
 10 14  1  0  0  0  0
 10 11  1  0  0  0  0
 11 15  1  0  0  0  0
 13  5  1  0  0  0  0
 16 17  2  0  0  0  0
 17 18  1  0  0  0  0
 17 19  1  0  0  0  0
 19 20  1  0  0  0  0
 19 22  1  0  0  0  0
 21 19  1  0  0  0  0
M  RAD  3   2   2   3   3  10   2
M  END
