Coordinates from ORCA-job 4-NO2PhN2+~CF3COO-_B3LYPG-6-31G_dp-NX-Scan-d89-09-n800
 OpenBabel11261920383D

 22 22  0  0  1  0  0  0  0  0999 V2000
   -1.8740    0.1915    0.0748 C   0  0  0  0  0  0  0  0  0  0  0  0
   -2.8294   -0.6476    0.4312 N   0  0  0  0  0  0  0  0  0  0  0  0
   -3.5926   -1.4295    0.7573 N   0  0  0  0  0  0  0  0  0  0  0  0
   -2.2061    1.4553   -0.6619 C   0  0  2  0  0  0  0  0  0  0  0  0
   -1.0190    1.9318   -1.4396 C   0  0  0  0  0  0  0  0  0  0  0  0
    0.2223    1.5337   -1.0955 C   0  0  0  0  0  0  0  0  0  0  0  0
    1.3694    2.1118   -1.8382 N   0  0  0  0  0  0  0  0  0  0  0  0
    1.1300    2.8866   -2.7592 O   0  0  0  0  0  0  0  0  0  0  0  0
    2.4938    1.7737   -1.4733 O   0  0  0  0  0  0  0  0  0  0  0  0
    0.5168    0.5471   -0.0871 C   0  0  0  0  0  0  0  0  0  0  0  0
   -0.5208   -0.1305    0.4608 C   0  0  0  0  0  0  0  0  0  0  0  0
   -3.0906    1.3583   -1.2958 H   0  0  0  0  0  0  0  0  0  0  0  0
   -1.1718    2.6541   -2.2297 H   0  0  0  0  0  0  0  0  0  0  0  0
    1.5457    0.3375    0.1676 H   0  0  0  0  0  0  0  0  0  0  0  0
   -0.3581   -0.9349    1.1707 H   0  0  0  0  0  0  0  0  0  0  0  0
   -2.9493    4.1562   -1.1467 O   0  0  0  0  0  0  0  0  0  0  0  0
   -2.9249    3.7115   -0.0244 C   0  0  0  0  0  0  0  0  0  0  0  0
   -2.5874    2.4832    0.3801 O   0  0  0  0  0  0  0  0  0  0  0  0
   -3.3107    4.5560    1.2151 C   0  0  0  0  0  0  0  0  0  0  0  0
   -2.2796    4.6252    2.0748 F   0  0  0  0  0  0  0  0  0  0  0  0
   -3.6472    5.7926    0.8458 F   0  0  0  0  0  0  0  0  0  0  0  0
   -4.3559    3.9956    1.8514 F   0  0  0  0  0  0  0  0  0  0  0  0
  1  2  1  0  0  0  0
  1 11  2  0  0  0  0
  2  3  1  0  0  0  0
  4 12  1  6  0  0  0
  4  1  1  0  0  0  0
  4 18  1  0  0  0  0
  5  6  2  0  0  0  0
  5  4  1  0  0  0  0
  6 10  1  0  0  0  0
  7  9  2  0  0  0  0
  7  6  1  0  0  0  0
  8  7  2  0  0  0  0
 10 14  1  0  0  0  0
 10 11  1  0  0  0  0
 11 15  1  0  0  0  0
 13  5  1  0  0  0  0
 16 17  2  0  0  0  0
 17 18  1  0  0  0  0
 17 19  1  0  0  0  0
 19 22  1  0  0  0  0
 19 20  1  0  0  0  0
 21 19  1  0  0  0  0
M  RAD  3   2   2   3   3  10   2
M  END
