Coordinates from ORCA-job 4-NO2PhN2+~CF3COO-_B3LYPG-6-31G_dp-NX-Scan-d89-09-n800
 OpenBabel11261920383D

 22 22  0  0  1  0  0  0  0  0999 V2000
   -1.9063    0.5402   -0.1406 C   0  0  0  0  0  0  0  0  0  0  0  0
   -3.0735   -0.0151    0.1309 N   0  0  0  0  0  0  0  0  0  0  0  0
   -4.0922   -0.4621    0.3557 N   0  0  0  0  0  0  0  0  0  0  0  0
   -1.9116    1.8427   -0.8789 C   0  0  2  0  0  0  0  0  0  0  0  0
   -0.5836    2.1053   -1.5052 C   0  0  0  0  0  0  0  0  0  0  0  0
    0.5119    1.4367   -1.0893 C   0  0  0  0  0  0  0  0  0  0  0  0
    1.8161    1.7997   -1.6973 N   0  0  0  0  0  0  0  0  0  0  0  0
    1.8250    2.6579   -2.5752 O   0  0  0  0  0  0  0  0  0  0  0  0
    2.8098    1.2138   -1.2728 O   0  0  0  0  0  0  0  0  0  0  0  0
    0.5054    0.3645   -0.1279 C   0  0  0  0  0  0  0  0  0  0  0  0
   -0.6954   -0.0880    0.3134 C   0  0  0  0  0  0  0  0  0  0  0  0
   -2.7330    1.8997   -1.5958 H   0  0  0  0  0  0  0  0  0  0  0  0
   -0.5026    2.8761   -2.2609 H   0  0  0  0  0  0  0  0  0  0  0  0
    1.4418   -0.0763    0.1810 H   0  0  0  0  0  0  0  0  0  0  0  0
   -0.7655   -0.9325    0.9913 H   0  0  0  0  0  0  0  0  0  0  0  0
   -4.3455    2.4752    0.1952 O   0  0  0  0  0  0  0  0  0  0  0  0
   -3.4034    3.1922    0.4407 C   0  0  0  0  0  0  0  0  0  0  0  0
   -2.1432    3.0155    0.0525 O   0  0  0  0  0  0  0  0  0  0  0  0
   -3.5247    4.4860    1.2788 C   0  0  0  0  0  0  0  0  0  0  0  0
   -3.1965    5.5527    0.5289 F   0  0  0  0  0  0  0  0  0  0  0  0
   -4.7756    4.6373    1.7178 F   0  0  0  0  0  0  0  0  0  0  0  0
   -2.6966    4.4377    2.3360 F   0  0  0  0  0  0  0  0  0  0  0  0
  1  2  1  0  0  0  0
  1 11  2  0  0  0  0
  2  3  1  0  0  0  0
  4 12  1  6  0  0  0
  4  1  1  0  0  0  0
  4 18  1  0  0  0  0
  5  6  2  0  0  0  0
  5  4  1  0  0  0  0
  6 10  1  0  0  0  0
  7  9  2  0  0  0  0
  7  6  1  0  0  0  0
  8  7  2  0  0  0  0
 10 14  1  0  0  0  0
 10 11  1  0  0  0  0
 11 15  1  0  0  0  0
 13  5  1  0  0  0  0
 16 17  2  0  0  0  0
 17 19  1  0  0  0  0
 18 17  1  0  0  0  0
 19 21  1  0  0  0  0
 19 22  1  0  0  0  0
 20 19  1  0  0  0  0
M  RAD  3   2   2   3   3  10   2
M  END
