Coordinates from ORCA-job 4-NO2PhN2+~CF3COO-_B3LYPG-6-31G_dp-NX-Scan-d89-09-n800
 OpenBabel11261920383D

 22 21  0  0  0  0  0  0  0  0999 V2000
   -1.7438   -0.3170    0.2951 C   0  0  0  0  0  0  0  0  0  0  0  0
   -2.5468   -1.3257    0.7430 N   0  0  0  0  0  0  0  0  0  0  0  0
   -3.1325   -2.2096    1.1225 N   0  0  0  0  0  0  0  0  0  0  0  0
   -2.2585    0.6786   -0.5706 C   0  0  0  0  0  0  0  0  0  0  0  0
   -1.3575    1.6036   -1.0875 C   0  0  0  0  0  0  0  0  0  0  0  0
   -0.0254    1.5474   -0.6894 C   0  0  0  0  0  0  0  0  0  0  0  0
    0.9267    2.5221   -1.2562 N   0  0  0  0  0  0  0  0  0  0  0  0
    0.5185    3.2493   -2.1522 O   0  0  0  0  0  0  0  0  0  0  0  0
    2.0671    2.5166   -0.7923 O   0  0  0  0  0  0  0  0  0  0  0  0
    0.4677    0.6029    0.2251 C   0  0  0  0  0  0  0  0  0  0  0  0
   -0.3852   -0.3566    0.7214 C   0  0  0  0  0  0  0  0  0  0  0  0
   -3.3075    0.7478   -0.8330 H   0  0  0  0  0  0  0  0  0  0  0  0
   -1.7329    2.3833   -1.7383 H   0  0  0  0  0  0  0  0  0  0  0  0
    1.5100    0.6399    0.5153 H   0  0  0  0  0  0  0  0  0  0  0  0
   -0.0477   -1.1213    1.4113 H   0  0  0  0  0  0  0  0  0  0  0  0
   -3.9433    5.4658   -1.3648 O   0  0  0  0  0  0  0  0  0  0  0  0
   -3.4720    4.4518   -0.8409 C   0  0  0  0  0  0  0  0  0  0  0  0
   -3.5971    3.2393   -1.2045 O   0  0  0  0  0  0  0  0  0  0  0  0
   -2.5752    4.6346    0.4200 C   0  0  0  0  0  0  0  0  0  0  0  0
   -2.9365    3.7910    1.4202 F   0  0  0  0  0  0  0  0  0  0  0  0
   -1.2725    4.3359    0.1245 F   0  0  0  0  0  0  0  0  0  0  0  0
   -2.5950    5.8794    0.9097 F   0  0  0  0  0  0  0  0  0  0  0  0
  1 11  1  0  0  0  0
  1  2  1  0  0  0  0
  2  3  1  0  0  0  0
  4  1  2  0  0  0  0
  5  6  2  0  0  0  0
  5  4  1  0  0  0  0
  6 10  1  0  0  0  0
  7  9  2  0  0  0  0
  7  6  1  0  0  0  0
  8  7  2  0  0  0  0
 10 14  1  0  0  0  0
 10 11  2  0  0  0  0
 11 15  1  0  0  0  0
 12  4  1  0  0  0  0
 13  5  1  0  0  0  0
 16 17  2  0  0  0  0
 17 19  1  0  0  0  0
 18 17  1  0  0  0  0
 19 22  1  0  0  0  0
 19 20  1  0  0  0  0
 21 19  1  0  0  0  0
M  RAD  3   2   2   3   3  18   2
M  END
