Coordinates from ORCA-job 4-NO2PhN2+~CF3COO-_B3LYPG-6-31G_dp-NX-Scan-d89-09-n800
 OpenBabel11261920383D

 22 21  0  0  0  0  0  0  0  0999 V2000
   -1.7196   -0.3760    0.2991 C   0  0  0  0  0  0  0  0  0  0  0  0
   -2.5083   -1.3982    0.7421 N   0  0  0  0  0  0  0  0  0  0  0  0
   -3.0907   -2.2853    1.1193 N   0  0  0  0  0  0  0  0  0  0  0  0
   -2.2603    0.6375   -0.5291 C   0  0  0  0  0  0  0  0  0  0  0  0
   -1.3829    1.5886   -1.0365 C   0  0  0  0  0  0  0  0  0  0  0  0
   -0.0415    1.5354   -0.6660 C   0  0  0  0  0  0  0  0  0  0  0  0
    0.8912    2.5322   -1.2275 N   0  0  0  0  0  0  0  0  0  0  0  0
    0.4643    3.2645   -2.1099 O   0  0  0  0  0  0  0  0  0  0  0  0
    2.0355    2.5374   -0.7726 O   0  0  0  0  0  0  0  0  0  0  0  0
    0.4794    0.5713    0.2107 C   0  0  0  0  0  0  0  0  0  0  0  0
   -0.3531   -0.4130    0.6958 C   0  0  0  0  0  0  0  0  0  0  0  0
   -3.3159    0.7003   -0.7673 H   0  0  0  0  0  0  0  0  0  0  0  0
   -1.7901    2.3864   -1.6492 H   0  0  0  0  0  0  0  0  0  0  0  0
    1.5270    0.6114    0.4809 H   0  0  0  0  0  0  0  0  0  0  0  0
    0.0075   -1.1939    1.3552 H   0  0  0  0  0  0  0  0  0  0  0  0
   -3.9095    5.5428   -1.4165 O   0  0  0  0  0  0  0  0  0  0  0  0
   -3.4483    4.5247   -0.8904 C   0  0  0  0  0  0  0  0  0  0  0  0
   -3.5660    3.3159   -1.2657 O   0  0  0  0  0  0  0  0  0  0  0  0
   -2.5854    4.6973    0.3953 C   0  0  0  0  0  0  0  0  0  0  0  0
   -3.0106    3.8825    1.3944 F   0  0  0  0  0  0  0  0  0  0  0  0
   -1.2852    4.3479    0.1497 F   0  0  0  0  0  0  0  0  0  0  0  0
   -2.5770    5.9495    0.8663 F   0  0  0  0  0  0  0  0  0  0  0  0
  1 11  1  0  0  0  0
  1  2  1  0  0  0  0
  2  3  1  0  0  0  0
  4  1  2  0  0  0  0
  5  6  2  0  0  0  0
  5  4  1  0  0  0  0
  6 10  1  0  0  0  0
  7  9  2  0  0  0  0
  7  6  1  0  0  0  0
  8  7  2  0  0  0  0
 10 14  1  0  0  0  0
 10 11  2  0  0  0  0
 11 15  1  0  0  0  0
 12  4  1  0  0  0  0
 13  5  1  0  0  0  0
 16 17  2  0  0  0  0
 17 19  1  0  0  0  0
 18 17  1  0  0  0  0
 19 22  1  0  0  0  0
 19 20  1  0  0  0  0
 21 19  1  0  0  0  0
M  RAD  3   2   2   3   3  18   2
M  END
