Coordinates from ORCA-job 4-NO2PhN2+~CF3COO-_B3LYPG-6-31G_dp-NX-Scan-d89-09-n800
 OpenBabel11261920383D

 22 22  0  0  1  0  0  0  0  0999 V2000
   -1.8589    0.4190   -0.0498 C   0  0  0  0  0  0  0  0  0  0  0  0
   -2.9801   -0.1860    0.2883 N   0  0  0  0  0  0  0  0  0  0  0  0
   -3.9519   -0.7036    0.5777 N   0  0  0  0  0  0  0  0  0  0  0  0
   -1.9657    1.7262   -0.7736 C   0  0  2  0  0  0  0  0  0  0  0  0
   -0.6812    2.0659   -1.4536 C   0  0  0  0  0  0  0  0  0  0  0  0
    0.4650    1.4505   -1.0980 C   0  0  0  0  0  0  0  0  0  0  0  0
    1.7207    1.8899   -1.7547 N   0  0  0  0  0  0  0  0  0  0  0  0
    1.6471    2.7607   -2.6170 O   0  0  0  0  0  0  0  0  0  0  0  0
    2.7602    1.3479   -1.3855 O   0  0  0  0  0  0  0  0  0  0  0  0
    0.5560    0.3680   -0.1508 C   0  0  0  0  0  0  0  0  0  0  0  0
   -0.5963   -0.1485    0.3439 C   0  0  0  0  0  0  0  0  0  0  0  0
   -2.8210    1.7582   -1.4500 H   0  0  0  0  0  0  0  0  0  0  0  0
   -0.6747    2.8505   -2.1997 H   0  0  0  0  0  0  0  0  0  0  0  0
    1.5272   -0.0272    0.1090 H   0  0  0  0  0  0  0  0  0  0  0  0
   -0.5909   -0.9981    1.0187 H   0  0  0  0  0  0  0  0  0  0  0  0
   -4.3645    3.1005   -0.4947 O   0  0  0  0  0  0  0  0  0  0  0  0
   -3.4272    3.3913    0.2077 C   0  0  0  0  0  0  0  0  0  0  0  0
   -2.2141    2.8321    0.2206 O   0  0  0  0  0  0  0  0  0  0  0  0
   -3.4874    4.5149    1.2692 C   0  0  0  0  0  0  0  0  0  0  0  0
   -2.5600    5.4516    1.0104 F   0  0  0  0  0  0  0  0  0  0  0  0
   -4.6918    5.0882    1.2684 F   0  0  0  0  0  0  0  0  0  0  0  0
   -3.2499    4.0072    2.4918 F   0  0  0  0  0  0  0  0  0  0  0  0
  1  2  1  0  0  0  0
  1 11  2  0  0  0  0
  2  3  1  0  0  0  0
  4 12  1  6  0  0  0
  4  1  1  0  0  0  0
  4 18  1  0  0  0  0
  5  6  2  0  0  0  0
  5  4  1  0  0  0  0
  6 10  1  0  0  0  0
  7  9  2  0  0  0  0
  7  6  1  0  0  0  0
  8  7  2  0  0  0  0
 10 14  1  0  0  0  0
 10 11  1  0  0  0  0
 11 15  1  0  0  0  0
 13  5  1  0  0  0  0
 16 17  2  0  0  0  0
 17 18  1  0  0  0  0
 17 19  1  0  0  0  0
 19 22  1  0  0  0  0
 20 19  1  0  0  0  0
 21 19  1  0  0  0  0
M  RAD  3   2   2   3   3  10   2
M  END
