Coordinates from ORCA-job 4-NO2PhN2+~CF3COO-_B3LYPG-6-31G_dp-NX-Scan-d89-09-n800
 OpenBabel11261920383D

 22 22  0  0  1  0  0  0  0  0999 V2000
   -1.8223    0.2855    0.0541 C   0  0  0  0  0  0  0  0  0  0  0  0
   -2.8898   -0.3670    0.4666 N   0  0  0  0  0  0  0  0  0  0  0  0
   -3.8255   -0.9159    0.8123 N   0  0  0  0  0  0  0  0  0  0  0  0
   -2.0514    1.5848   -0.6504 C   0  0  2  0  0  0  0  0  0  0  0  0
   -0.8278    2.0228   -1.3858 C   0  0  0  0  0  0  0  0  0  0  0  0
    0.3717    1.4750   -1.1038 C   0  0  0  0  0  0  0  0  0  0  0  0
    1.5620    2.0091   -1.8111 N   0  0  0  0  0  0  0  0  0  0  0  0
    1.3915    2.9071   -2.6307 O   0  0  0  0  0  0  0  0  0  0  0  0
    2.6498    1.5168   -1.5191 O   0  0  0  0  0  0  0  0  0  0  0  0
    0.5803    0.3794   -0.1900 C   0  0  0  0  0  0  0  0  0  0  0  0
   -0.5083   -0.2131    0.3607 C   0  0  0  0  0  0  0  0  0  0  0  0
   -2.9285    1.5717   -1.3002 H   0  0  0  0  0  0  0  0  0  0  0  0
   -0.9160    2.8213   -2.1118 H   0  0  0  0  0  0  0  0  0  0  0  0
    1.5865    0.0373    0.0041 H   0  0  0  0  0  0  0  0  0  0  0  0
   -0.4130   -1.0720    1.0166 H   0  0  0  0  0  0  0  0  0  0  0  0
   -3.7253    3.7289   -1.0498 O   0  0  0  0  0  0  0  0  0  0  0  0
   -3.2096    3.5855    0.0315 C   0  0  0  0  0  0  0  0  0  0  0  0
   -2.3650    2.6196    0.4010 O   0  0  0  0  0  0  0  0  0  0  0  0
   -3.4676    4.5358    1.2244 C   0  0  0  0  0  0  0  0  0  0  0  0
   -2.3122    5.0636    1.6611 F   0  0  0  0  0  0  0  0  0  0  0  0
   -4.2841    5.5251    0.8594 F   0  0  0  0  0  0  0  0  0  0  0  0
   -4.0351    3.8581    2.2391 F   0  0  0  0  0  0  0  0  0  0  0  0
  1 11  2  0  0  0  0
  1  2  1  0  0  0  0
  2  3  1  0  0  0  0
  4 12  1  6  0  0  0
  4  1  1  0  0  0  0
  4 18  1  0  0  0  0
  5  6  2  0  0  0  0
  5  4  1  0  0  0  0
  6 10  1  0  0  0  0
  7  9  2  0  0  0  0
  7  6  1  0  0  0  0
  8  7  2  0  0  0  0
 10 14  1  0  0  0  0
 10 11  1  0  0  0  0
 11 15  1  0  0  0  0
 13  5  1  0  0  0  0
 16 17  2  0  0  0  0
 17 18  1  0  0  0  0
 17 19  1  0  0  0  0
 19 20  1  0  0  0  0
 19 22  1  0  0  0  0
 21 19  1  0  0  0  0
M  RAD  3   2   2   3   3  10   2
M  END
