Coordinates from ORCA-job 4-NO2PhN2+~CF3COO-_B3LYPG-6-31G_dp-NX-Scan-d89-09-n800
 OpenBabel11261920383D

 22 21  0  0  0  0  0  0  0  0999 V2000
   -1.6947   -0.6855    0.2793 C   0  0  0  0  0  0  0  0  0  0  0  0
   -2.4154   -1.7904    0.6229 N   0  0  0  0  0  0  0  0  0  0  0  0
   -2.9869   -2.7132    0.9249 N   0  0  0  0  0  0  0  0  0  0  0  0
   -2.3386    0.3839   -0.3900 C   0  0  0  0  0  0  0  0  0  0  0  0
   -1.5687    1.4704   -0.7802 C   0  0  0  0  0  0  0  0  0  0  0  0
   -0.2114    1.4704   -0.4547 C   0  0  0  0  0  0  0  0  0  0  0  0
    0.6289    2.5965   -0.9112 N   0  0  0  0  0  0  0  0  0  0  0  0
    0.1405    3.3602   -1.7319 O   0  0  0  0  0  0  0  0  0  0  0  0
    1.7639    2.6661   -0.4386 O   0  0  0  0  0  0  0  0  0  0  0  0
    0.4143    0.4441    0.2662 C   0  0  0  0  0  0  0  0  0  0  0  0
   -0.3186   -0.6675    0.6289 C   0  0  0  0  0  0  0  0  0  0  0  0
   -3.4058    0.3722   -0.5827 H   0  0  0  0  0  0  0  0  0  0  0  0
   -2.0710    2.3273   -1.2510 H   0  0  0  0  0  0  0  0  0  0  0  0
    1.4655    0.5328    0.5100 H   0  0  0  0  0  0  0  0  0  0  0  0
    0.1282   -1.5010    1.1580 H   0  0  0  0  0  0  0  0  0  0  0  0
   -4.0615    5.6469   -1.4231 O   0  0  0  0  0  0  0  0  0  0  0  0
   -3.3933    4.7110   -0.9647 C   0  0  0  0  0  0  0  0  0  0  0  0
   -3.5029    3.4770   -1.2273 O   0  0  0  0  0  0  0  0  0  0  0  0
   -2.2756    5.1190    0.0426 C   0  0  0  0  0  0  0  0  0  0  0  0
   -1.7213    4.0432    0.6770 F   0  0  0  0  0  0  0  0  0  0  0  0
   -1.2677    5.7621   -0.5808 F   0  0  0  0  0  0  0  0  0  0  0  0
   -2.7475    5.9340    1.0049 F   0  0  0  0  0  0  0  0  0  0  0  0
  1  2  1  0  0  0  0
  1 11  1  0  0  0  0
  2  3  1  0  0  0  0
  4  1  2  0  0  0  0
  5  6  2  0  0  0  0
  5  4  1  0  0  0  0
  6 10  1  0  0  0  0
  7  6  1  0  0  0  0
  7  9  2  0  0  0  0
  8  7  2  0  0  0  0
 10 14  1  0  0  0  0
 10 11  2  0  0  0  0
 11 15  1  0  0  0  0
 12  4  1  0  0  0  0
 13  5  1  0  0  0  0
 16 17  2  0  0  0  0
 17 19  1  0  0  0  0
 18 17  1  0  0  0  0
 19 20  1  0  0  0  0
 19 22  1  0  0  0  0
 21 19  1  0  0  0  0
M  RAD  3   2   2   3   3  18   2
M  END
