Coordinates from ORCA-job 4-NO2PhN2+~CF3COO-_B3LYPG-6-31G_dp-NX-Scan-d89-09-n800
 OpenBabel11261920383D

 22 21  0  0  0  0  0  0  0  0999 V2000
   -1.8522    0.4952    0.2704 C   0  0  0  0  0  0  0  0  0  0  0  0
   -2.8146   -0.1705    0.9402 N   0  0  0  0  0  0  0  0  0  0  0  0
   -3.5877   -0.7659    1.5022 N   0  0  0  0  0  0  0  0  0  0  0  0
   -2.1666    1.0425   -1.0034 C   0  0  0  0  0  0  0  0  0  0  0  0
   -1.0709    1.5512   -1.7468 C   0  0  0  0  0  0  0  0  0  0  0  0
    0.1667    1.6181   -1.1612 C   0  0  0  0  0  0  0  0  0  0  0  0
    1.2888    2.1744   -1.9508 N   0  0  0  0  0  0  0  0  0  0  0  0
    1.0587    2.5062   -3.1086 O   0  0  0  0  0  0  0  0  0  0  0  0
    2.3797    2.2483   -1.3895 O   0  0  0  0  0  0  0  0  0  0  0  0
    0.4436    1.1749    0.1593 C   0  0  0  0  0  0  0  0  0  0  0  0
   -0.5647    0.6095    0.8852 C   0  0  0  0  0  0  0  0  0  0  0  0
   -3.0927    0.7829   -1.4912 H   0  0  0  0  0  0  0  0  0  0  0  0
   -1.2253    1.9207   -2.7509 H   0  0  0  0  0  0  0  0  0  0  0  0
    1.4427    1.2900    0.5578 H   0  0  0  0  0  0  0  0  0  0  0  0
   -0.4117    0.2477    1.8947 H   0  0  0  0  0  0  0  0  0  0  0  0
   -3.4632    5.1158   -0.6859 O   0  0  0  0  0  0  0  0  0  0  0  0
   -3.2494    3.9537   -0.3652 C   0  0  0  0  0  0  0  0  0  0  0  0
   -3.2444    2.9178   -1.1296 O   0  0  0  0  0  0  0  0  0  0  0  0
   -2.9519    3.6541    1.1310 C   0  0  0  0  0  0  0  0  0  0  0  0
   -3.6094    2.5356    1.5626 F   0  0  0  0  0  0  0  0  0  0  0  0
   -1.6254    3.4026    1.3127 F   0  0  0  0  0  0  0  0  0  0  0  0
   -3.2897    4.6545    1.9451 F   0  0  0  0  0  0  0  0  0  0  0  0
  1 11  1  0  0  0  0
  1  2  1  0  0  0  0
  2  3  1  0  0  0  0
  4  1  2  0  0  0  0
  5  6  2  0  0  0  0
  5  4  1  0  0  0  0
  6 10  1  0  0  0  0
  7  9  2  0  0  0  0
  7  6  1  0  0  0  0
  8  7  2  0  0  0  0
 10 14  1  0  0  0  0
 10 11  2  0  0  0  0
 11 15  1  0  0  0  0
 12  4  1  0  0  0  0
 13  5  1  0  0  0  0
 16 17  1  0  0  0  0
 17 19  1  0  0  0  0
 18 17  2  0  0  0  0
 19 21  1  0  0  0  0
 19 20  1  0  0  0  0
 19 22  1  0  0  0  0
M  RAD  3   2   2   3   3  16   2
M  END
