Coordinates from ORCA-job 4-NO2PhN2+~CF3COO-_B3LYPG-6-31G_dp-NX-Scan-d89-09-n800
 OpenBabel11261920383D

 22 22  0  0  1  0  0  0  0  0999 V2000
   -1.8320    0.4925   -0.1165 C   0  0  0  0  0  0  0  0  0  0  0  0
   -3.0374    0.0836    0.2733 N   0  0  0  0  0  0  0  0  0  0  0  0
   -4.1480    0.1901    0.5150 N   0  0  0  0  0  0  0  0  0  0  0  0
   -1.8405    1.8155   -0.7993 C   0  0  2  0  0  0  0  0  0  0  0  0
   -0.5215    2.1355   -1.3896 C   0  0  0  0  0  0  0  0  0  0  0  0
    0.5667    1.3890   -1.0887 C   0  0  0  0  0  0  0  0  0  0  0  0
    1.8663    1.8008   -1.6792 N   0  0  0  0  0  0  0  0  0  0  0  0
    1.8784    2.7772   -2.4234 O   0  0  0  0  0  0  0  0  0  0  0  0
    2.8524    1.1329   -1.3762 O   0  0  0  0  0  0  0  0  0  0  0  0
    0.5570    0.2045   -0.2785 C   0  0  0  0  0  0  0  0  0  0  0  0
   -0.6454   -0.2413    0.1781 C   0  0  0  0  0  0  0  0  0  0  0  0
   -2.6652    1.9165   -1.5095 H   0  0  0  0  0  0  0  0  0  0  0  0
   -0.4326    2.9922   -2.0451 H   0  0  0  0  0  0  0  0  0  0  0  0
    1.4851   -0.3092   -0.0766 H   0  0  0  0  0  0  0  0  0  0  0  0
   -0.7238   -1.1473    0.7697 H   0  0  0  0  0  0  0  0  0  0  0  0
   -4.3311    2.3205    0.3962 O   0  0  0  0  0  0  0  0  0  0  0  0
   -3.4256    3.1225    0.5437 C   0  0  0  0  0  0  0  0  0  0  0  0
   -2.1592    2.9853    0.1981 O   0  0  0  0  0  0  0  0  0  0  0  0
   -3.6691    4.5098    1.1835 C   0  0  0  0  0  0  0  0  0  0  0  0
   -3.5244    5.4667    0.2489 F   0  0  0  0  0  0  0  0  0  0  0  0
   -4.9031    4.5829    1.6859 F   0  0  0  0  0  0  0  0  0  0  0  0
   -2.7864    4.7391    2.1685 F   0  0  0  0  0  0  0  0  0  0  0  0
  1 11  2  0  0  0  0
  1  2  1  0  0  0  0
  2  3  1  0  0  0  0
  4 12  1  6  0  0  0
  4  1  1  0  0  0  0
  4 18  1  0  0  0  0
  5  6  2  0  0  0  0
  5  4  1  0  0  0  0
  6 10  1  0  0  0  0
  7  9  2  0  0  0  0
  7  6  1  0  0  0  0
  8  7  2  0  0  0  0
 10 14  1  0  0  0  0
 10 11  1  0  0  0  0
 11 15  1  0  0  0  0
 13  5  1  0  0  0  0
 16 17  2  0  0  0  0
 17 19  1  0  0  0  0
 18 17  1  0  0  0  0
 19 21  1  0  0  0  0
 19 22  1  0  0  0  0
 20 19  1  0  0  0  0
M  RAD  3   2   2   3   3  10   2
M  END
