Coordinates from ORCA-job 4-NO2PhN2+~CF3COO-_B3LYPG-6-31G_dp-NX-Scan-d89-09-n800
 OpenBabel11261920383D

 22 21  0  0  0  0  0  0  0  0999 V2000
   -1.8651    0.3802    0.2828 C   0  0  0  0  0  0  0  0  0  0  0  0
   -2.7985   -0.3649    0.9173 N   0  0  0  0  0  0  0  0  0  0  0  0
   -3.5274   -1.0371    1.4512 N   0  0  0  0  0  0  0  0  0  0  0  0
   -2.1883    0.9637   -0.9680 C   0  0  0  0  0  0  0  0  0  0  0  0
   -1.1238    1.5587   -1.6768 C   0  0  0  0  0  0  0  0  0  0  0  0
    0.1180    1.6302   -1.0916 C   0  0  0  0  0  0  0  0  0  0  0  0
    1.2172    2.2681   -1.8474 N   0  0  0  0  0  0  0  0  0  0  0  0
    0.9712    2.6603   -2.9829 O   0  0  0  0  0  0  0  0  0  0  0  0
    2.3069    2.3464   -1.2838 O   0  0  0  0  0  0  0  0  0  0  0  0
    0.4093    1.1279    0.2013 C   0  0  0  0  0  0  0  0  0  0  0  0
   -0.5806    0.4984    0.9020 C   0  0  0  0  0  0  0  0  0  0  0  0
   -3.1373    0.7688   -1.4415 H   0  0  0  0  0  0  0  0  0  0  0  0
   -1.2987    1.9873   -2.6535 H   0  0  0  0  0  0  0  0  0  0  0  0
    1.4055    1.2522    0.6048 H   0  0  0  0  0  0  0  0  0  0  0  0
   -0.4138    0.0909    1.8916 H   0  0  0  0  0  0  0  0  0  0  0  0
   -3.5358    5.1588   -0.7852 O   0  0  0  0  0  0  0  0  0  0  0  0
   -3.2814    4.0069   -0.4473 C   0  0  0  0  0  0  0  0  0  0  0  0
   -3.3346    2.9436   -1.1630 O   0  0  0  0  0  0  0  0  0  0  0  0
   -2.8197    3.7594    1.0181 C   0  0  0  0  0  0  0  0  0  0  0  0
   -3.4139    2.6539    1.5581 F   0  0  0  0  0  0  0  0  0  0  0  0
   -1.4780    3.5196    1.0589 F   0  0  0  0  0  0  0  0  0  0  0  0
   -3.0706    4.7861    1.8330 F   0  0  0  0  0  0  0  0  0  0  0  0
  1 11  1  0  0  0  0
  1  2  1  0  0  0  0
  2  3  1  0  0  0  0
  4  1  2  0  0  0  0
  5  6  2  0  0  0  0
  5  4  1  0  0  0  0
  6 10  1  0  0  0  0
  7  9  2  0  0  0  0
  7  6  1  0  0  0  0
  8  7  2  0  0  0  0
 10 14  1  0  0  0  0
 10 11  2  0  0  0  0
 11 15  1  0  0  0  0
 12  4  1  0  0  0  0
 13  5  1  0  0  0  0
 16 17  1  0  0  0  0
 17 19  1  0  0  0  0
 18 17  2  0  0  0  0
 19 21  1  0  0  0  0
 19 20  1  0  0  0  0
 19 22  1  0  0  0  0
M  RAD  3   2   2   3   3  16   2
M  END
