Coordinates from ORCA-job 4-NO2PhN2+~CF3COO-_B3LYPG-6-31G_dp-NX-Scan-d89-09-n800
 OpenBabel11261920383D

 22 22  0  0  1  0  0  0  0  0999 V2000
   -1.9026    0.1774    0.0800 C   0  0  1  0  0  0  0  0  0  0  0  0
   -2.7982   -0.7466    0.3865 N   0  0  0  0  0  0  0  0  0  0  0  0
   -3.4789   -1.6147    0.6809 N   0  0  0  0  0  0  0  0  0  0  0  0
   -2.2675    1.4106   -0.6983 C   0  0  2  0  0  0  0  0  0  0  0  0
   -1.0906    1.8779   -1.4973 C   0  0  0  0  0  0  0  0  0  0  0  0
    0.1589    1.5588   -1.1030 C   0  0  0  0  0  0  0  0  0  0  0  0
    1.2968    2.1263   -1.8661 N   0  0  0  0  0  0  0  0  0  0  0  0
    1.0468    2.7954   -2.8638 O   0  0  0  0  0  0  0  0  0  0  0  0
    2.4250    1.8886   -1.4383 O   0  0  0  0  0  0  0  0  0  0  0  0
    0.4701    0.6581   -0.0216 C   0  0  0  0  0  0  0  0  0  0  0  0
   -0.5467   -0.0478    0.5290 C   0  0  0  0  0  0  0  0  0  0  0  0
   -3.1509    1.2649   -1.3238 H   0  0  0  0  0  0  0  0  0  0  0  0
   -1.2540    2.5340   -2.3405 H   0  0  0  0  0  0  0  0  0  0  0  0
    1.4994    0.5239    0.2794 H   0  0  0  0  0  0  0  0  0  0  0  0
   -0.3650   -0.8049    1.2848 H   0  0  0  0  0  0  0  0  0  0  0  0
   -2.6462    4.2952   -1.0942 O   0  0  0  0  0  0  0  0  0  0  0  0
   -2.8099    3.7519   -0.0280 C   0  0  0  0  0  0  0  0  0  0  0  0
   -2.6802    2.4630    0.3112 O   0  0  0  0  0  0  0  0  0  0  0  0
   -3.2384    4.5381    1.2379 C   0  0  0  0  0  0  0  0  0  0  0  0
   -2.3239    4.3946    2.2133 F   0  0  0  0  0  0  0  0  0  0  0  0
   -3.3650    5.8355    0.9559 F   0  0  0  0  0  0  0  0  0  0  0  0
   -4.4185    4.0788    1.6943 F   0  0  0  0  0  0  0  0  0  0  0  0
  1  2  1  1  0  0  0
  1 11  1  0  0  0  0
  2  3  1  0  0  0  0
  4 12  1  6  0  0  0
  4  1  1  0  0  0  0
  4 18  1  0  0  0  0
  5  6  2  0  0  0  0
  5  4  1  0  0  0  0
  6 10  1  0  0  0  0
  7  9  2  0  0  0  0
  7  6  1  0  0  0  0
  8  7  2  0  0  0  0
 10 14  1  0  0  0  0
 10 11  2  0  0  0  0
 11 15  1  0  0  0  0
 13  5  1  0  0  0  0
 16 17  2  0  0  0  0
 17 18  1  0  0  0  0
 17 19  1  0  0  0  0
 19 22  1  0  0  0  0
 19 20  1  0  0  0  0
 21 19  1  0  0  0  0
M  RAD  3   1   2   2   2   3   3
M  END
