Coordinates from ORCA-job 4-NO2PhN2+~CF3COO-_B3LYPG-6-31G_dp-NX-Scan-d89-09-n800
 OpenBabel11261920383D

 22 22  0  0  1  0  0  0  0  0999 V2000
   -1.8259    0.2532    0.0702 C   0  0  0  0  0  0  0  0  0  0  0  0
   -2.8703   -0.4334    0.4876 N   0  0  0  0  0  0  0  0  0  0  0  0
   -3.7756   -1.0261    0.8422 N   0  0  0  0  0  0  0  0  0  0  0  0
   -2.0864    1.5482   -0.6316 C   0  0  2  0  0  0  0  0  0  0  0  0
   -0.8768    2.0091   -1.3776 C   0  0  0  0  0  0  0  0  0  0  0  0
    0.3358    1.4881   -1.1019 C   0  0  0  0  0  0  0  0  0  0  0  0
    1.5101    2.0453   -1.8184 N   0  0  0  0  0  0  0  0  0  0  0  0
    1.3154    2.9356   -2.6407 O   0  0  0  0  0  0  0  0  0  0  0  0
    2.6095    1.5749   -1.5338 O   0  0  0  0  0  0  0  0  0  0  0  0
    0.5739    0.4001   -0.1864 C   0  0  0  0  0  0  0  0  0  0  0  0
   -0.4985   -0.2149    0.3707 C   0  0  0  0  0  0  0  0  0  0  0  0
   -2.9669    1.5178   -1.2768 H   0  0  0  0  0  0  0  0  0  0  0  0
   -0.9892    2.8047   -2.1031 H   0  0  0  0  0  0  0  0  0  0  0  0
    1.5884    0.0806    0.0034 H   0  0  0  0  0  0  0  0  0  0  0  0
   -0.3811   -1.0707    1.0270 H   0  0  0  0  0  0  0  0  0  0  0  0
   -3.4942    3.8532   -1.1169 O   0  0  0  0  0  0  0  0  0  0  0  0
   -3.1277    3.6224    0.0095 C   0  0  0  0  0  0  0  0  0  0  0  0
   -2.4201    2.5704    0.4269 O   0  0  0  0  0  0  0  0  0  0  0  0
   -3.4439    4.5466    1.2088 C   0  0  0  0  0  0  0  0  0  0  0  0
   -2.3085    4.9454    1.8057 F   0  0  0  0  0  0  0  0  0  0  0  0
   -4.1176    5.6222    0.7995 F   0  0  0  0  0  0  0  0  0  0  0  0
   -4.1900    3.8863    2.1137 F   0  0  0  0  0  0  0  0  0  0  0  0
  1 11  2  0  0  0  0
  1  2  1  0  0  0  0
  2  3  1  0  0  0  0
  4 12  1  6  0  0  0
  4  1  1  0  0  0  0
  4 18  1  0  0  0  0
  5  6  2  0  0  0  0
  5  4  1  0  0  0  0
  6 10  1  0  0  0  0
  7  9  2  0  0  0  0
  7  6  1  0  0  0  0
  8  7  2  0  0  0  0
 10 14  1  0  0  0  0
 10 11  1  0  0  0  0
 11 15  1  0  0  0  0
 13  5  1  0  0  0  0
 16 17  2  0  0  0  0
 17 18  1  0  0  0  0
 17 19  1  0  0  0  0
 19 20  1  0  0  0  0
 19 22  1  0  0  0  0
 21 19  1  0  0  0  0
M  RAD  3   2   2   3   3  10   2
M  END
