Coordinates from ORCA-job 4-NO2PhN2+~CF3COO-_B3LYPG-6-31G_dp-NX-Scan-d89-09-n800
 OpenBabel11261920383D

 22 22  0  0  1  0  0  0  0  0999 V2000
   -1.8830    0.4789   -0.0926 C   0  0  0  0  0  0  0  0  0  0  0  0
   -3.0213   -0.1172    0.2063 N   0  0  0  0  0  0  0  0  0  0  0  0
   -4.0000   -0.6359    0.4652 N   0  0  0  0  0  0  0  0  0  0  0  0
   -1.9417    1.7839   -0.8258 C   0  0  2  0  0  0  0  0  0  0  0  0
   -0.6373    2.0833   -1.4860 C   0  0  0  0  0  0  0  0  0  0  0  0
    0.4867    1.4474   -1.0973 C   0  0  0  0  0  0  0  0  0  0  0  0
    1.7652    1.8467   -1.7354 N   0  0  0  0  0  0  0  0  0  0  0  0
    1.7289    2.7036   -2.6139 O   0  0  0  0  0  0  0  0  0  0  0  0
    2.7848    1.2902   -1.3335 O   0  0  0  0  0  0  0  0  0  0  0  0
    0.5329    0.3774   -0.1334 C   0  0  0  0  0  0  0  0  0  0  0  0
   -0.6421   -0.1098    0.3378 C   0  0  0  0  0  0  0  0  0  0  0  0
   -2.7847    1.8263   -1.5171 H   0  0  0  0  0  0  0  0  0  0  0  0
   -0.5976    2.8560   -2.2432 H   0  0  0  0  0  0  0  0  0  0  0  0
    1.4890   -0.0344    0.1548 H   0  0  0  0  0  0  0  0  0  0  0  0
   -0.6706   -0.9530    1.0200 H   0  0  0  0  0  0  0  0  0  0  0  0
   -4.4231    2.7936   -0.1688 O   0  0  0  0  0  0  0  0  0  0  0  0
   -3.4381    3.2963    0.3158 C   0  0  0  0  0  0  0  0  0  0  0  0
   -2.1698    2.9237    0.1368 O   0  0  0  0  0  0  0  0  0  0  0  0
   -3.4953    4.5057    1.2784 C   0  0  0  0  0  0  0  0  0  0  0  0
   -2.7541    5.5200    0.8032 F   0  0  0  0  0  0  0  0  0  0  0  0
   -4.7544    4.9222    1.4231 F   0  0  0  0  0  0  0  0  0  0  0  0
   -3.0139    4.1543    2.4840 F   0  0  0  0  0  0  0  0  0  0  0  0
  1  2  1  0  0  0  0
  1 11  2  0  0  0  0
  2  3  1  0  0  0  0
  4 12  1  6  0  0  0
  4  1  1  0  0  0  0
  4 18  1  0  0  0  0
  5  6  2  0  0  0  0
  5  4  1  0  0  0  0
  6 10  1  0  0  0  0
  7  9  2  0  0  0  0
  7  6  1  0  0  0  0
  8  7  2  0  0  0  0
 10 14  1  0  0  0  0
 10 11  1  0  0  0  0
 11 15  1  0  0  0  0
 13  5  1  0  0  0  0
 16 17  2  0  0  0  0
 17 19  1  0  0  0  0
 18 17  1  0  0  0  0
 19 21  1  0  0  0  0
 19 22  1  0  0  0  0
 20 19  1  0  0  0  0
M  RAD  3   2   2   3   3  10   2
M  END
