Coordinates from ORCA-job 4-NO2PhN2+~CF3COO-_B3LYPG-6-31G_dp-NX-Scan-d89-09-n800
 OpenBabel11261920383D

 22 21  0  0  0  0  0  0  0  0999 V2000
   -1.8872    0.0031    0.2817 C   0  0  0  0  0  0  0  0  0  0  0  0
   -2.7382   -0.9300    0.7846 N   0  0  0  0  0  0  0  0  0  0  0  0
   -3.3673   -1.7626    1.2087 N   0  0  0  0  0  0  0  0  0  0  0  0
   -2.2758    0.7742   -0.8389 C   0  0  0  0  0  0  0  0  0  0  0  0
   -1.2961    1.5831   -1.4218 C   0  0  0  0  0  0  0  0  0  0  0  0
   -0.0422    1.6510   -0.8418 C   0  0  0  0  0  0  0  0  0  0  0  0
    0.9780    2.5138   -1.4662 N   0  0  0  0  0  0  0  0  0  0  0  0
    0.6780    3.0745   -2.5141 O   0  0  0  0  0  0  0  0  0  0  0  0
    2.0646    2.5928   -0.8953 O   0  0  0  0  0  0  0  0  0  0  0  0
    0.3130    0.9467    0.3278 C   0  0  0  0  0  0  0  0  0  0  0  0
   -0.6045    0.1066    0.9030 C   0  0  0  0  0  0  0  0  0  0  0  0
   -3.2633    0.7016   -1.2703 H   0  0  0  0  0  0  0  0  0  0  0  0
   -1.5380    2.1826   -2.2874 H   0  0  0  0  0  0  0  0  0  0  0  0
    1.3026    1.0805    0.7449 H   0  0  0  0  0  0  0  0  0  0  0  0
   -0.3788   -0.4683    1.7931 H   0  0  0  0  0  0  0  0  0  0  0  0
   -3.8188    5.2121   -0.9938 O   0  0  0  0  0  0  0  0  0  0  0  0
   -3.3801    4.1283   -0.6066 C   0  0  0  0  0  0  0  0  0  0  0  0
   -3.5848    2.9680   -1.0964 O   0  0  0  0  0  0  0  0  0  0  0  0
   -2.4033    4.1540    0.6089 C   0  0  0  0  0  0  0  0  0  0  0  0
   -2.4644    3.0166    1.3581 F   0  0  0  0  0  0  0  0  0  0  0  0
   -1.1145    4.2450    0.1680 F   0  0  0  0  0  0  0  0  0  0  0  0
   -2.6183    5.1857    1.4321 F   0  0  0  0  0  0  0  0  0  0  0  0
  1  2  1  0  0  0  0
  1 11  1  0  0  0  0
  2  3  1  0  0  0  0
  4  1  2  0  0  0  0
  5  6  2  0  0  0  0
  5  4  1  0  0  0  0
  6 10  1  0  0  0  0
  7  9  2  0  0  0  0
  7  6  1  0  0  0  0
  8  7  2  0  0  0  0
 10 14  1  0  0  0  0
 10 11  2  0  0  0  0
 11 15  1  0  0  0  0
 12  4  1  0  0  0  0
 13  5  1  0  0  0  0
 16 17  1  0  0  0  0
 17 19  1  0  0  0  0
 18 17  2  0  0  0  0
 19 20  1  0  0  0  0
 19 22  1  0  0  0  0
 21 19  1  0  0  0  0
M  RAD  3   2   2   3   3  16   2
M  END
