Coordinates from ORCA-job 4-NO2PhN2+~CF3COO-_B3LYPG-6-31G_dp-NX-Scan-d89-09-n800
 OpenBabel11261920383D

 22 21  0  0  0  0  0  0  0  0999 V2000
   -1.8642    0.3486    0.2883 C   0  0  0  0  0  0  0  0  0  0  0  0
   -2.7845   -0.4229    0.9139 N   0  0  0  0  0  0  0  0  0  0  0  0
   -3.4942   -1.1206    1.4423 N   0  0  0  0  0  0  0  0  0  0  0  0
   -2.1944    0.9456   -0.9538 C   0  0  0  0  0  0  0  0  0  0  0  0
   -1.1397    1.5612   -1.6563 C   0  0  0  0  0  0  0  0  0  0  0  0
    0.1052    1.6324   -1.0751 C   0  0  0  0  0  0  0  0  0  0  0  0
    1.1965    2.2890   -1.8252 N   0  0  0  0  0  0  0  0  0  0  0  0
    0.9460    2.6864   -2.9579 O   0  0  0  0  0  0  0  0  0  0  0  0
    2.2895    2.3609   -1.2670 O   0  0  0  0  0  0  0  0  0  0  0  0
    0.4038    1.1155    0.2095 C   0  0  0  0  0  0  0  0  0  0  0  0
   -0.5786    0.4680    0.9050 C   0  0  0  0  0  0  0  0  0  0  0  0
   -3.1510    0.7694   -1.4195 H   0  0  0  0  0  0  0  0  0  0  0  0
   -1.3229    2.0053   -2.6245 H   0  0  0  0  0  0  0  0  0  0  0  0
    1.4001    1.2425    0.6118 H   0  0  0  0  0  0  0  0  0  0  0  0
   -0.4047    0.0477    1.8880 H   0  0  0  0  0  0  0  0  0  0  0  0
   -3.5293    5.1854   -0.8131 O   0  0  0  0  0  0  0  0  0  0  0  0
   -3.2783    4.0327   -0.4704 C   0  0  0  0  0  0  0  0  0  0  0  0
   -3.3426    2.9650   -1.1774 O   0  0  0  0  0  0  0  0  0  0  0  0
   -2.8021    3.7901    0.9919 C   0  0  0  0  0  0  0  0  0  0  0  0
   -3.3910    2.6874    1.5421 F   0  0  0  0  0  0  0  0  0  0  0  0
   -1.4599    3.5493    1.0201 F   0  0  0  0  0  0  0  0  0  0  0  0
   -3.0432    4.8204    1.8057 F   0  0  0  0  0  0  0  0  0  0  0  0
  1 11  1  0  0  0  0
  1  2  1  0  0  0  0
  2  3  1  0  0  0  0
  4  1  2  0  0  0  0
  5  6  2  0  0  0  0
  5  4  1  0  0  0  0
  6 10  1  0  0  0  0
  7  9  2  0  0  0  0
  7  6  1  0  0  0  0
  8  7  2  0  0  0  0
 10 14  1  0  0  0  0
 10 11  2  0  0  0  0
 11 15  1  0  0  0  0
 12  4  1  0  0  0  0
 13  5  1  0  0  0  0
 16 17  1  0  0  0  0
 17 19  1  0  0  0  0
 18 17  2  0  0  0  0
 19 21  1  0  0  0  0
 19 20  1  0  0  0  0
 19 22  1  0  0  0  0
M  RAD  3   2   2   3   3  16   2
M  END
