Coordinates from ORCA-job 4-NO2PhN2+~CF3COO-_B3LYPG-6-31G_dp-NX-Scan-d89-09-n800
 OpenBabel11261920383D

 22 21  0  0  0  0  0  0  0  0999 V2000
   -1.7268   -0.5813    0.2735 C   0  0  0  0  0  0  0  0  0  0  0  0
   -2.4992   -1.6459    0.6340 N   0  0  0  0  0  0  0  0  0  0  0  0
   -3.0944   -2.5494    0.9470 N   0  0  0  0  0  0  0  0  0  0  0  0
   -2.3034    0.4921   -0.4470 C   0  0  0  0  0  0  0  0  0  0  0  0
   -1.4666    1.5221   -0.8547 C   0  0  0  0  0  0  0  0  0  0  0  0
   -0.1202    1.4733   -0.4973 C   0  0  0  0  0  0  0  0  0  0  0  0
    0.7752    2.5542   -0.9557 N   0  0  0  0  0  0  0  0  0  0  0  0
    0.3063    3.3797   -1.7275 O   0  0  0  0  0  0  0  0  0  0  0  0
    1.9313    2.5327   -0.5316 O   0  0  0  0  0  0  0  0  0  0  0  0
    0.4389    0.4398    0.2685 C   0  0  0  0  0  0  0  0  0  0  0  0
   -0.3572   -0.6182    0.6534 C   0  0  0  0  0  0  0  0  0  0  0  0
   -3.3638    0.5382   -0.6684 H   0  0  0  0  0  0  0  0  0  0  0  0
   -1.9179    2.3708   -1.3689 H   0  0  0  0  0  0  0  0  0  0  0  0
    1.4882    0.4836    0.5321 H   0  0  0  0  0  0  0  0  0  0  0  0
    0.0348   -1.4523    1.2235 H   0  0  0  0  0  0  0  0  0  0  0  0
   -4.2131    5.4912   -1.3226 O   0  0  0  0  0  0  0  0  0  0  0  0
   -3.4991    4.5854   -0.8742 C   0  0  0  0  0  0  0  0  0  0  0  0
   -3.5748    3.3428   -1.1151 O   0  0  0  0  0  0  0  0  0  0  0  0
   -2.3504    5.0424    0.0753 C   0  0  0  0  0  0  0  0  0  0  0  0
   -1.7570    3.9972    0.7230 F   0  0  0  0  0  0  0  0  0  0  0  0
   -1.3765    5.6734   -0.6133 F   0  0  0  0  0  0  0  0  0  0  0  0
   -2.7938    5.8873    1.0246 F   0  0  0  0  0  0  0  0  0  0  0  0
  1  2  1  0  0  0  0
  1 11  1  0  0  0  0
  2  3  1  0  0  0  0
  4  1  2  0  0  0  0
  5  6  2  0  0  0  0
  5  4  1  0  0  0  0
  6 10  1  0  0  0  0
  7  9  2  0  0  0  0
  7  6  1  0  0  0  0
  8  7  2  0  0  0  0
 10 14  1  0  0  0  0
 10 11  2  0  0  0  0
 11 15  1  0  0  0  0
 12  4  1  0  0  0  0
 13  5  1  0  0  0  0
 16 17  2  0  0  0  0
 17 19  1  0  0  0  0
 18 17  1  0  0  0  0
 19 20  1  0  0  0  0
 19 22  1  0  0  0  0
 21 19  1  0  0  0  0
M  RAD  3   2   2   3   3  18   2
M  END
