Coordinates from ORCA-job 4-NO2PhN2+~CF3COO-_B3LYPG-6-31G_dp-NX-Scan-d89-09-n800
 OpenBabel11261920383D

 22 22  0  0  1  0  0  0  0  0999 V2000
   -1.8788    0.5364   -0.1383 C   0  0  0  0  0  0  0  0  0  0  0  0
   -3.0725    0.0640    0.1811 N   0  0  0  0  0  0  0  0  0  0  0  0
   -4.1640   -0.1346    0.4166 N   0  0  0  0  0  0  0  0  0  0  0  0
   -1.8774    1.8475   -0.8613 C   0  0  2  0  0  0  0  0  0  0  0  0
   -0.5450    2.1237   -1.4653 C   0  0  0  0  0  0  0  0  0  0  0  0
    0.5412    1.4155   -1.0887 C   0  0  0  0  0  0  0  0  0  0  0  0
    1.8486    1.7901   -1.6847 N   0  0  0  0  0  0  0  0  0  0  0  0
    1.8675    2.6972   -2.5118 O   0  0  0  0  0  0  0  0  0  0  0  0
    2.8343    1.1634   -1.3023 O   0  0  0  0  0  0  0  0  0  0  0  0
    0.5240    0.2962   -0.1847 C   0  0  0  0  0  0  0  0  0  0  0  0
   -0.6819   -0.1439    0.2590 C   0  0  0  0  0  0  0  0  0  0  0  0
   -2.6900    1.9136   -1.5889 H   0  0  0  0  0  0  0  0  0  0  0  0
   -0.4520    2.9300   -2.1816 H   0  0  0  0  0  0  0  0  0  0  0  0
    1.4539   -0.1816    0.0858 H   0  0  0  0  0  0  0  0  0  0  0  0
   -0.7629   -1.0125    0.9042 H   0  0  0  0  0  0  0  0  0  0  0  0
   -4.3065    2.3517    0.3279 O   0  0  0  0  0  0  0  0  0  0  0  0
   -3.4041    3.1420    0.4940 C   0  0  0  0  0  0  0  0  0  0  0  0
   -2.1482    3.0232    0.0755 O   0  0  0  0  0  0  0  0  0  0  0  0
   -3.5916    4.4805    1.2456 C   0  0  0  0  0  0  0  0  0  0  0  0
   -3.4368    5.5071    0.3904 F   0  0  0  0  0  0  0  0  0  0  0  0
   -4.8135    4.5453    1.7778 F   0  0  0  0  0  0  0  0  0  0  0  0
   -2.6839    4.6043    2.2280 F   0  0  0  0  0  0  0  0  0  0  0  0
  1  2  1  0  0  0  0
  1 11  2  0  0  0  0
  2  3  1  0  0  0  0
  4 12  1  6  0  0  0
  4  1  1  0  0  0  0
  4 18  1  0  0  0  0
  5  6  2  0  0  0  0
  5  4  1  0  0  0  0
  6 10  1  0  0  0  0
  7  9  2  0  0  0  0
  7  6  1  0  0  0  0
  8  7  2  0  0  0  0
 10 14  1  0  0  0  0
 10 11  1  0  0  0  0
 11 15  1  0  0  0  0
 13  5  1  0  0  0  0
 16 17  2  0  0  0  0
 17 19  1  0  0  0  0
 18 17  1  0  0  0  0
 19 21  1  0  0  0  0
 19 22  1  0  0  0  0
 20 19  1  0  0  0  0
M  RAD  3   2   2   3   3  10   2
M  END
