Coordinates from ORCA-job 4-NO2PhN2+~CF3COO-_B3LYPG-6-31G_dp-NX-Scan-d89-09-n800
 OpenBabel11261920383D

 22 21  0  0  0  0  0  0  0  0999 V2000
   -1.8976    0.0520    0.2766 C   0  0  0  0  0  0  0  0  0  0  0  0
   -2.7624   -0.8579    0.7944 N   0  0  0  0  0  0  0  0  0  0  0  0
   -3.4098   -1.6707    1.2291 N   0  0  0  0  0  0  0  0  0  0  0  0
   -2.2691    0.7897   -0.8721 C   0  0  0  0  0  0  0  0  0  0  0  0
   -1.2765    1.5753   -1.4687 C   0  0  0  0  0  0  0  0  0  0  0  0
   -0.0319    1.6568   -0.8746 C   0  0  0  0  0  0  0  0  0  0  0  0
    0.9998    2.4971   -1.5115 N   0  0  0  0  0  0  0  0  0  0  0  0
    0.7138    3.0316   -2.5772 O   0  0  0  0  0  0  0  0  0  0  0  0
    2.0807    2.5859   -0.9318 O   0  0  0  0  0  0  0  0  0  0  0  0
    0.3054    0.9881    0.3224 C   0  0  0  0  0  0  0  0  0  0  0  0
   -0.6230    0.1722    0.9123 C   0  0  0  0  0  0  0  0  0  0  0  0
   -3.2457    0.6903   -1.3215 H   0  0  0  0  0  0  0  0  0  0  0  0
   -1.5025    2.1470   -2.3574 H   0  0  0  0  0  0  0  0  0  0  0  0
    1.2900    1.1316    0.7478 H   0  0  0  0  0  0  0  0  0  0  0  0
   -0.4123   -0.3734    1.8242 H   0  0  0  0  0  0  0  0  0  0  0  0
   -3.7852    5.1748   -0.9635 O   0  0  0  0  0  0  0  0  0  0  0  0
   -3.3633    4.0852   -0.5760 C   0  0  0  0  0  0  0  0  0  0  0  0
   -3.5686    2.9307   -1.0813 O   0  0  0  0  0  0  0  0  0  0  0  0
   -2.4159    4.0952    0.6625 C   0  0  0  0  0  0  0  0  0  0  0  0
   -2.4919    2.9465    1.3935 F   0  0  0  0  0  0  0  0  0  0  0  0
   -1.1174    4.1976    0.2559 F   0  0  0  0  0  0  0  0  0  0  0  0
   -2.6560    5.1135    1.4954 F   0  0  0  0  0  0  0  0  0  0  0  0
  1  2  1  0  0  0  0
  1 11  1  0  0  0  0
  2  3  1  0  0  0  0
  4  1  2  0  0  0  0
  5  6  2  0  0  0  0
  5  4  1  0  0  0  0
  6 10  1  0  0  0  0
  7  9  2  0  0  0  0
  7  6  1  0  0  0  0
  8  7  2  0  0  0  0
 10 14  1  0  0  0  0
 10 11  2  0  0  0  0
 11 15  1  0  0  0  0
 12  4  1  0  0  0  0
 13  5  1  0  0  0  0
 16 17  1  0  0  0  0
 17 19  1  0  0  0  0
 18 17  2  0  0  0  0
 19 20  1  0  0  0  0
 19 22  1  0  0  0  0
 21 19  1  0  0  0  0
M  RAD  3   2   2   3   3  16   2
M  END
