Coordinates from ORCA-job 4-NO2PhN2+~CF3COO-_B3LYPG-6-31G_dp-NX-Scan-d89-09-n800
 OpenBabel11261920383D

 22 21  0  0  0  0  0  0  0  0999 V2000
   -1.7323   -0.5617    0.2734 C   0  0  0  0  0  0  0  0  0  0  0  0
   -2.5116   -1.6200    0.6377 N   0  0  0  0  0  0  0  0  0  0  0  0
   -3.1092   -2.5211    0.9533 N   0  0  0  0  0  0  0  0  0  0  0  0
   -2.2986    0.5110   -0.4560 C   0  0  0  0  0  0  0  0  0  0  0  0
   -1.4515    1.5311   -0.8681 C   0  0  0  0  0  0  0  0  0  0  0  0
   -0.1069    1.4749   -0.5065 C   0  0  0  0  0  0  0  0  0  0  0  0
    0.7971    2.5474   -0.9674 N   0  0  0  0  0  0  0  0  0  0  0  0
    0.3321    3.3805   -1.7336 O   0  0  0  0  0  0  0  0  0  0  0  0
    1.9555    2.5126   -0.5506 O   0  0  0  0  0  0  0  0  0  0  0  0
    0.4421    0.4419    0.2676 C   0  0  0  0  0  0  0  0  0  0  0  0
   -0.3637   -0.6065    0.6576 C   0  0  0  0  0  0  0  0  0  0  0  0
   -3.3576    0.5661   -0.6818 H   0  0  0  0  0  0  0  0  0  0  0  0
   -1.8935    2.3774   -1.3912 H   0  0  0  0  0  0  0  0  0  0  0  0
    1.4909    0.4790    0.5339 H   0  0  0  0  0  0  0  0  0  0  0  0
    0.0197   -1.4395    1.2351 H   0  0  0  0  0  0  0  0  0  0  0  0
   -4.2255    5.4677   -1.3150 O   0  0  0  0  0  0  0  0  0  0  0  0
   -3.5118    4.5641   -0.8620 C   0  0  0  0  0  0  0  0  0  0  0  0
   -3.5855    3.3202   -1.0983 O   0  0  0  0  0  0  0  0  0  0  0  0
   -2.3635    5.0249    0.0862 C   0  0  0  0  0  0  0  0  0  0  0  0
   -1.7731    3.9830    0.7414 F   0  0  0  0  0  0  0  0  0  0  0  0
   -1.3871    5.6485   -0.6062 F   0  0  0  0  0  0  0  0  0  0  0  0
   -2.8056    5.8777    1.0287 F   0  0  0  0  0  0  0  0  0  0  0  0
  1  2  1  0  0  0  0
  1 11  1  0  0  0  0
  2  3  1  0  0  0  0
  4  1  2  0  0  0  0
  5  6  2  0  0  0  0
  5  4  1  0  0  0  0
  6 10  1  0  0  0  0
  7  9  2  0  0  0  0
  7  6  1  0  0  0  0
  8  7  2  0  0  0  0
 10 14  1  0  0  0  0
 10 11  2  0  0  0  0
 11 15  1  0  0  0  0
 12  4  1  0  0  0  0
 13  5  1  0  0  0  0
 16 17  2  0  0  0  0
 17 19  1  0  0  0  0
 18 17  1  0  0  0  0
 19 20  1  0  0  0  0
 19 22  1  0  0  0  0
 21 19  1  0  0  0  0
M  RAD  3   2   2   3   3  18   2
M  END
