Coordinates from ORCA-job 4-NO2PhN2+~CF3COO-_B3LYPG-6-31G_dp-NX-Scan-d89-09-n800
 OpenBabel11261920383D

 22 21  0  0  0  0  0  0  0  0999 V2000
   -1.8616    0.3302    0.2932 C   0  0  0  0  0  0  0  0  0  0  0  0
   -2.7778   -0.4491    0.9161 N   0  0  0  0  0  0  0  0  0  0  0  0
   -3.4828   -1.1538    1.4406 N   0  0  0  0  0  0  0  0  0  0  0  0
   -2.1966    0.9335   -0.9437 C   0  0  0  0  0  0  0  0  0  0  0  0
   -1.1487    1.5604   -1.6435 C   0  0  0  0  0  0  0  0  0  0  0  0
    0.0993    1.6302   -1.0668 C   0  0  0  0  0  0  0  0  0  0  0  0
    1.1854    2.2968   -1.8149 N   0  0  0  0  0  0  0  0  0  0  0  0
    0.9255    2.7156   -2.9378 O   0  0  0  0  0  0  0  0  0  0  0  0
    2.2761    2.3816   -1.2539 O   0  0  0  0  0  0  0  0  0  0  0  0
    0.4035    1.1044    0.2123 C   0  0  0  0  0  0  0  0  0  0  0  0
   -0.5746    0.4483    0.9066 C   0  0  0  0  0  0  0  0  0  0  0  0
   -3.1593    0.7711   -1.4020 H   0  0  0  0  0  0  0  0  0  0  0  0
   -1.3385    2.0143   -2.6058 H   0  0  0  0  0  0  0  0  0  0  0  0
    1.4008    1.2313    0.6122 H   0  0  0  0  0  0  0  0  0  0  0  0
   -0.3959    0.0209    1.8856 H   0  0  0  0  0  0  0  0  0  0  0  0
   -3.5206    5.2000   -0.8298 O   0  0  0  0  0  0  0  0  0  0  0  0
   -3.2751    4.0463   -0.4865 C   0  0  0  0  0  0  0  0  0  0  0  0
   -3.3470    2.9780   -1.1901 O   0  0  0  0  0  0  0  0  0  0  0  0
   -2.7927    3.8033    0.9740 C   0  0  0  0  0  0  0  0  0  0  0  0
   -3.3823    2.7031    1.5282 F   0  0  0  0  0  0  0  0  0  0  0  0
   -1.4508    3.5577    0.9960 F   0  0  0  0  0  0  0  0  0  0  0  0
   -3.0258    4.8352    1.7883 F   0  0  0  0  0  0  0  0  0  0  0  0
  1 11  1  0  0  0  0
  1  2  1  0  0  0  0
  2  3  1  0  0  0  0
  4  1  2  0  0  0  0
  5  6  2  0  0  0  0
  5  4  1  0  0  0  0
  6 10  1  0  0  0  0
  7  9  2  0  0  0  0
  7  6  1  0  0  0  0
  8  7  2  0  0  0  0
 10 14  1  0  0  0  0
 10 11  2  0  0  0  0
 11 15  1  0  0  0  0
 12  4  1  0  0  0  0
 13  5  1  0  0  0  0
 16 17  1  0  0  0  0
 17 19  1  0  0  0  0
 18 17  2  0  0  0  0
 19 21  1  0  0  0  0
 19 20  1  0  0  0  0
 19 22  1  0  0  0  0
M  RAD  3   2   2   3   3  16   2
M  END
