Coordinates from ORCA-job 4-NO2PhN2+~CF3COO-_B3LYPG-6-31G_dp-NX-Scan-d89-09-n800
 OpenBabel11261920383D

 22 21  0  0  0  0  0  0  0  0999 V2000
   -1.8704    0.4313    0.2706 C   0  0  0  0  0  0  0  0  0  0  0  0
   -2.8173   -0.2837    0.9141 N   0  0  0  0  0  0  0  0  0  0  0  0
   -3.5668   -0.9257    1.4567 N   0  0  0  0  0  0  0  0  0  0  0  0
   -2.1844    1.0006   -0.9919 C   0  0  0  0  0  0  0  0  0  0  0  0
   -1.1004    1.5584   -1.7104 C   0  0  0  0  0  0  0  0  0  0  0  0
    0.1348    1.6308   -1.1171 C   0  0  0  0  0  0  0  0  0  0  0  0
    1.2482    2.2352   -1.8819 N   0  0  0  0  0  0  0  0  0  0  0  0
    1.0145    2.6056   -3.0273 O   0  0  0  0  0  0  0  0  0  0  0  0
    2.3350    2.3129   -1.3131 O   0  0  0  0  0  0  0  0  0  0  0  0
    0.4135    1.1533    0.1897 C   0  0  0  0  0  0  0  0  0  0  0  0
   -0.5880    0.5499    0.8951 C   0  0  0  0  0  0  0  0  0  0  0  0
   -3.1139    0.7619   -1.4834 H   0  0  0  0  0  0  0  0  0  0  0  0
   -1.2591    1.9584   -2.7021 H   0  0  0  0  0  0  0  0  0  0  0  0
    1.4084    1.2749    0.5968 H   0  0  0  0  0  0  0  0  0  0  0  0
   -0.4326    0.1617    1.8943 H   0  0  0  0  0  0  0  0  0  0  0  0
   -3.5372    5.1110   -0.7483 O   0  0  0  0  0  0  0  0  0  0  0  0
   -3.2806    3.9626   -0.4063 C   0  0  0  0  0  0  0  0  0  0  0  0
   -3.3211    2.8995   -1.1283 O   0  0  0  0  0  0  0  0  0  0  0  0
   -2.8472    3.7187    1.0669 C   0  0  0  0  0  0  0  0  0  0  0  0
   -3.4489    2.6116    1.5956 F   0  0  0  0  0  0  0  0  0  0  0  0
   -1.5062    3.4850    1.1347 F   0  0  0  0  0  0  0  0  0  0  0  0
   -3.1198    4.7453    1.8739 F   0  0  0  0  0  0  0  0  0  0  0  0
  1 11  1  0  0  0  0
  1  2  1  0  0  0  0
  2  3  1  0  0  0  0
  4  1  2  0  0  0  0
  5  6  2  0  0  0  0
  5  4  1  0  0  0  0
  6 10  1  0  0  0  0
  7  9  2  0  0  0  0
  7  6  1  0  0  0  0
  8  7  2  0  0  0  0
 10 14  1  0  0  0  0
 10 11  2  0  0  0  0
 11 15  1  0  0  0  0
 12  4  1  0  0  0  0
 13  5  1  0  0  0  0
 16 17  1  0  0  0  0
 17 19  1  0  0  0  0
 18 17  2  0  0  0  0
 19 21  1  0  0  0  0
 19 20  1  0  0  0  0
 19 22  1  0  0  0  0
M  RAD  3   2   2   3   3  16   2
M  END
