Coordinates from ORCA-job 4-NO2PhN2+~CF3COO-_B3LYPG-6-31G_dp-NX-Scan-d89-09-n800
 OpenBabel11261920383D

 22 21  0  0  0  0  0  0  0  0999 V2000
   -0.9925    1.3248   -0.2630 C   0  0  0  0  0  0  0  0  0  0  0  0
   -2.0491    1.5828    0.6719 N   0  0  0  0  0  0  0  0  0  0  0  0
   -2.6354    2.6976    0.5433 N   0  0  0  0  0  0  0  0  0  0  0  0
   -0.5611    2.1785   -1.2927 C   0  0  0  0  0  0  0  0  0  0  0  0
    0.4859    1.7861   -2.1221 C   0  0  0  0  0  0  0  0  0  0  0  0
    1.0898    0.5488   -1.9166 C   0  0  0  0  0  0  0  0  0  0  0  0
    2.1957    0.1404   -2.7943 N   0  0  0  0  0  0  0  0  0  0  0  0
    2.5389    0.9224   -3.6804 O   0  0  0  0  0  0  0  0  0  0  0  0
    2.7092   -0.9581   -2.5872 O   0  0  0  0  0  0  0  0  0  0  0  0
    0.6754   -0.3131   -0.9009 C   0  0  0  0  0  0  0  0  0  0  0  0
   -0.3681    0.0806   -0.0759 C   0  0  0  0  0  0  0  0  0  0  0  0
   -1.0214    3.1445   -1.4640 H   0  0  0  0  0  0  0  0  0  0  0  0
    0.8388    2.4240   -2.9228 H   0  0  0  0  0  0  0  0  0  0  0  0
    1.1717   -1.2670   -0.7753 H   0  0  0  0  0  0  0  0  0  0  0  0
   -0.7206   -0.5585    0.7261 H   0  0  0  0  0  0  0  0  0  0  0  0
   -2.7236    3.5319    0.0764 O   0  0  0  0  0  0  0  0  0  0  0  0
   -4.4695    3.9660    1.6320 C   0  0  0  0  0  0  0  0  0  0  0  0
   -4.0723    2.8681    1.9485 O   0  0  0  0  0  0  0  0  0  0  0  0
   -5.6210    4.5590    2.4662 C   0  0  0  0  0  0  0  0  0  0  0  0
   -6.6456    4.8284    1.6407 F   0  0  0  0  0  0  0  0  0  0  0  0
   -6.0752    3.7662    3.4512 F   0  0  0  0  0  0  0  0  0  0  0  0
   -5.1895    5.7058    3.0173 F   0  0  0  0  0  0  0  0  0  0  0  0
  1 11  1  0  0  0  0
  1  2  1  0  0  0  0
  3  2  1  0  0  0  0
  4  1  2  0  0  0  0
  5  6  2  0  0  0  0
  5  4  1  0  0  0  0
  6 10  1  0  0  0  0
  7  9  2  0  0  0  0
  7  6  1  0  0  0  0
  8  7  2  0  0  0  0
 10 14  1  0  0  0  0
 10 11  2  0  0  0  0
 11 15  1  0  0  0  0
 12  4  1  0  0  0  0
 13  5  1  0  0  0  0
 16  3  2  0  0  0  0
 17 18  2  0  0  0  0
 17 19  1  0  0  0  0
 19 22  1  0  0  0  0
 19 21  1  0  0  0  0
 20 19  1  0  0  0  0
M  RAD  2   2   2  17   2
M  END
