Coordinates from ORCA-job 4-NO2PhN2+~CF3COO-_B3LYPG-6-31G_dp-NX-Scan-d89-09-n800
 OpenBabel11261920383D

 22 22  0  0  1  0  0  0  0  0999 V2000
   -1.8679    0.5271   -0.1325 C   0  0  0  0  0  0  0  0  0  0  0  0
   -3.0658    0.0730    0.2017 N   0  0  0  0  0  0  0  0  0  0  0  0
   -4.1689   -0.0530    0.4376 N   0  0  0  0  0  0  0  0  0  0  0  0
   -1.8693    1.8422   -0.8472 C   0  0  2  0  0  0  0  0  0  0  0  0
   -0.5386    2.1273   -1.4480 C   0  0  0  0  0  0  0  0  0  0  0  0
    0.5476    1.4095   -1.0882 C   0  0  0  0  0  0  0  0  0  0  0  0
    1.8534    1.7921   -1.6833 N   0  0  0  0  0  0  0  0  0  0  0  0
    1.8710    2.7150   -2.4927 O   0  0  0  0  0  0  0  0  0  0  0  0
    2.8391    1.1552   -1.3182 O   0  0  0  0  0  0  0  0  0  0  0  0
    0.5321    0.2749   -0.2043 C   0  0  0  0  0  0  0  0  0  0  0  0
   -0.6729   -0.1660    0.2424 C   0  0  0  0  0  0  0  0  0  0  0  0
   -2.6825    1.9124   -1.5741 H   0  0  0  0  0  0  0  0  0  0  0  0
   -0.4462    2.9453   -2.1509 H   0  0  0  0  0  0  0  0  0  0  0  0
    1.4619   -0.2115    0.0510 H   0  0  0  0  0  0  0  0  0  0  0  0
   -0.7532   -1.0431    0.8761 H   0  0  0  0  0  0  0  0  0  0  0  0
   -4.3118    2.3427    0.3400 O   0  0  0  0  0  0  0  0  0  0  0  0
   -3.4104    3.1363    0.5023 C   0  0  0  0  0  0  0  0  0  0  0  0
   -2.1508    3.0147    0.0982 O   0  0  0  0  0  0  0  0  0  0  0  0
   -3.6091    4.4850    1.2326 C   0  0  0  0  0  0  0  0  0  0  0  0
   -3.4693    5.4979    0.3585 F   0  0  0  0  0  0  0  0  0  0  0  0
   -4.8293    4.5459    1.7691 F   0  0  0  0  0  0  0  0  0  0  0  0
   -2.6987    4.6362    2.2083 F   0  0  0  0  0  0  0  0  0  0  0  0
  1  2  1  0  0  0  0
  1 11  2  0  0  0  0
  2  3  1  0  0  0  0
  4 12  1  6  0  0  0
  4  1  1  0  0  0  0
  4 18  1  0  0  0  0
  5  6  2  0  0  0  0
  5  4  1  0  0  0  0
  6 10  1  0  0  0  0
  7  9  2  0  0  0  0
  7  6  1  0  0  0  0
  8  7  2  0  0  0  0
 10 14  1  0  0  0  0
 10 11  1  0  0  0  0
 11 15  1  0  0  0  0
 13  5  1  0  0  0  0
 16 17  2  0  0  0  0
 17 19  1  0  0  0  0
 18 17  1  0  0  0  0
 19 21  1  0  0  0  0
 19 22  1  0  0  0  0
 20 19  1  0  0  0  0
M  RAD  3   2   2   3   3  10   2
M  END
