Coordinates from ORCA-job 4-NO2PhN2+~CF3COO-_B3LYPG-6-31G_dp-NX-Scan-d89-09-n800
 OpenBabel11261920383D

 22 21  0  0  0  0  0  0  0  0999 V2000
   -1.7210   -0.6010    0.2731 C   0  0  0  0  0  0  0  0  0  0  0  0
   -2.4854   -1.6726    0.6293 N   0  0  0  0  0  0  0  0  0  0  0  0
   -3.0788   -2.5783    0.9393 N   0  0  0  0  0  0  0  0  0  0  0  0
   -2.3083    0.4725   -0.4385 C   0  0  0  0  0  0  0  0  0  0  0  0
   -1.4827    1.5130   -0.8415 C   0  0  0  0  0  0  0  0  0  0  0  0
   -0.1347    1.4724   -0.4878 C   0  0  0  0  0  0  0  0  0  0  0  0
    0.7519    2.5617   -0.9443 N   0  0  0  0  0  0  0  0  0  0  0  0
    0.2800    3.3771   -1.7247 O   0  0  0  0  0  0  0  0  0  0  0  0
    1.9045    2.5557   -0.5103 O   0  0  0  0  0  0  0  0  0  0  0  0
    0.4352    0.4393    0.2702 C   0  0  0  0  0  0  0  0  0  0  0  0
   -0.3506   -0.6287    0.6495 C   0  0  0  0  0  0  0  0  0  0  0  0
   -3.3700    0.5089   -0.6560 H   0  0  0  0  0  0  0  0  0  0  0  0
   -1.9435    2.3638   -1.3469 H   0  0  0  0  0  0  0  0  0  0  0  0
    1.4846    0.4908    0.5318 H   0  0  0  0  0  0  0  0  0  0  0  0
    0.0503   -1.4635    1.2124 H   0  0  0  0  0  0  0  0  0  0  0  0
   -4.2036    5.5157   -1.3239 O   0  0  0  0  0  0  0  0  0  0  0  0
   -3.4867    4.6074   -0.8855 C   0  0  0  0  0  0  0  0  0  0  0  0
   -3.5616    3.3670   -1.1366 O   0  0  0  0  0  0  0  0  0  0  0  0
   -2.3362    5.0585    0.0647 C   0  0  0  0  0  0  0  0  0  0  0  0
   -1.7462    4.0094    0.7097 F   0  0  0  0  0  0  0  0  0  0  0  0
   -1.3603    5.6881   -0.6222 F   0  0  0  0  0  0  0  0  0  0  0  0
   -2.7764    5.9021    1.0164 F   0  0  0  0  0  0  0  0  0  0  0  0
  1  2  1  0  0  0  0
  1 11  1  0  0  0  0
  2  3  1  0  0  0  0
  4  1  2  0  0  0  0
  5  6  2  0  0  0  0
  5  4  1  0  0  0  0
  6 10  1  0  0  0  0
  7  9  2  0  0  0  0
  7  6  1  0  0  0  0
  8  7  2  0  0  0  0
 10 14  1  0  0  0  0
 10 11  2  0  0  0  0
 11 15  1  0  0  0  0
 12  4  1  0  0  0  0
 13  5  1  0  0  0  0
 16 17  2  0  0  0  0
 17 19  1  0  0  0  0
 18 17  1  0  0  0  0
 19 20  1  0  0  0  0
 19 22  1  0  0  0  0
 21 19  1  0  0  0  0
M  RAD  3   2   2   3   3  18   2
M  END
