Coordinates from ORCA-job 4-NO2PhN2+~CF3COO-_B3LYPG-6-31G_dp-NX-Scan-d89-09-n800
 OpenBabel11261920383D

 22 22  0  0  0  0  0  0  0  0999 V2000
   -1.1420    0.7924    0.2110 C   0  0  0  0  0  0  0  0  0  0  0  0
   -2.0260    0.5420    1.2839 N   0  0  0  0  0  0  0  0  0  0  0  0
   -2.9117    1.0732    1.8543 N   0  0  0  0  0  0  0  0  0  0  0  0
   -1.0866    1.9953   -0.5191 C   0  0  0  0  0  0  0  0  0  0  0  0
   -0.1495    2.1063   -1.5414 C   0  0  0  0  0  0  0  0  0  0  0  0
    0.6949    1.0322   -1.8160 C   0  0  0  0  0  0  0  0  0  0  0  0
    1.6824    1.1659   -2.9104 N   0  0  0  0  0  0  0  0  0  0  0  0
    1.7049    2.2298   -3.5223 O   0  0  0  0  0  0  0  0  0  0  0  0
    2.4108    0.2018   -3.1304 O   0  0  0  0  0  0  0  0  0  0  0  0
    0.6488   -0.1630   -1.1025 C   0  0  0  0  0  0  0  0  0  0  0  0
   -0.2793   -0.2778   -0.0755 C   0  0  0  0  0  0  0  0  0  0  0  0
   -1.7580    2.8082   -0.2851 H   0  0  0  0  0  0  0  0  0  0  0  0
   -0.0670    3.0122   -2.1289 H   0  0  0  0  0  0  0  0  0  0  0  0
    1.3277   -0.9671   -1.3551 H   0  0  0  0  0  0  0  0  0  0  0  0
   -0.3526   -1.1846    0.5140 H   0  0  0  0  0  0  0  0  0  0  0  0
   -3.2980    2.5858    1.1300 O   0  0  0  0  0  0  0  0  0  0  0  0
   -4.0362    3.3416    1.9261 C   0  0  0  0  0  0  0  0  0  0  0  0
   -4.3508    3.1653    3.0765 O   0  0  0  0  0  0  0  0  0  0  0  0
   -4.5061    4.5928    1.1309 C   0  0  0  0  0  0  0  0  0  0  0  0
   -5.4764    4.2495    0.2627 F   0  0  0  0  0  0  0  0  0  0  0  0
   -4.9822    5.5294    1.9535 F   0  0  0  0  0  0  0  0  0  0  0  0
   -3.4866    5.1277    0.4223 F   0  0  0  0  0  0  0  0  0  0  0  0
  1  2  1  0  0  0  0
  2  3  1  0  0  0  0
  4 12  1  0  0  0  0
  4  1  2  0  0  0  0
  5  4  1  0  0  0  0
  6  5  2  0  0  0  0
  6 10  1  0  0  0  0
  7  6  1  0  0  0  0
  8  7  2  0  0  0  0
  9  7  2  0  0  0  0
 10 11  2  0  0  0  0
 11  1  1  0  0  0  0
 11 15  1  0  0  0  0
 13  5  1  0  0  0  0
 14 10  1  0  0  0  0
 16  3  1  0  0  0  0
 16 17  1  0  0  0  0
 17 18  2  0  0  0  0
 19 17  1  0  0  0  0
 19 21  1  0  0  0  0
 20 19  1  0  0  0  0
 22 19  1  0  0  0  0
M  RAD  2   2   2   3   2
M  END
