Coordinates from ORCA-job 4-NO2PhN2+~CF3COO-_B3LYPG-6-31G_dp-NX-Scan-d89-09-n800
 OpenBabel11261920383D

 22 22  0  0  1  0  0  0  0  0999 V2000
   -1.9056    0.5417   -0.1417 C   0  0  0  0  0  0  0  0  0  0  0  0
   -3.0745   -0.0090    0.1327 N   0  0  0  0  0  0  0  0  0  0  0  0
   -4.0974   -0.4457    0.3580 N   0  0  0  0  0  0  0  0  0  0  0  0
   -1.9098    1.8441   -0.8804 C   0  0  2  0  0  0  0  0  0  0  0  0
   -0.5811    2.1064   -1.5051 C   0  0  0  0  0  0  0  0  0  0  0  0
    0.5136    1.4360   -1.0896 C   0  0  0  0  0  0  0  0  0  0  0  0
    1.8183    1.7986   -1.6968 N   0  0  0  0  0  0  0  0  0  0  0  0
    1.8282    2.6576   -2.5738 O   0  0  0  0  0  0  0  0  0  0  0  0
    2.8112    1.2104   -1.2736 O   0  0  0  0  0  0  0  0  0  0  0  0
    0.5057    0.3625   -0.1298 C   0  0  0  0  0  0  0  0  0  0  0  0
   -0.6957   -0.0887    0.3112 C   0  0  0  0  0  0  0  0  0  0  0  0
   -2.7302    1.9009   -1.5986 H   0  0  0  0  0  0  0  0  0  0  0  0
   -0.4989    2.8780   -2.2597 H   0  0  0  0  0  0  0  0  0  0  0  0
    1.4416   -0.0800    0.1783 H   0  0  0  0  0  0  0  0  0  0  0  0
   -0.7668   -0.9336    0.9885 H   0  0  0  0  0  0  0  0  0  0  0  0
   -4.3411    2.4628    0.2094 O   0  0  0  0  0  0  0  0  0  0  0  0
   -3.4026    3.1877    0.4456 C   0  0  0  0  0  0  0  0  0  0  0  0
   -2.1438    3.0185    0.0496 O   0  0  0  0  0  0  0  0  0  0  0  0
   -3.5281    4.4847    1.2781 C   0  0  0  0  0  0  0  0  0  0  0  0
   -3.2061    5.5497    0.5231 F   0  0  0  0  0  0  0  0  0  0  0  0
   -4.7787    4.6322    1.7190 F   0  0  0  0  0  0  0  0  0  0  0  0
   -2.6977    4.4443    2.3338 F   0  0  0  0  0  0  0  0  0  0  0  0
  1  2  1  0  0  0  0
  1 11  2  0  0  0  0
  2  3  1  0  0  0  0
  4 12  1  6  0  0  0
  4  1  1  0  0  0  0
  4 18  1  0  0  0  0
  5  6  2  0  0  0  0
  5  4  1  0  0  0  0
  6 10  1  0  0  0  0
  7  9  2  0  0  0  0
  7  6  1  0  0  0  0
  8  7  2  0  0  0  0
 10 14  1  0  0  0  0
 10 11  1  0  0  0  0
 11 15  1  0  0  0  0
 13  5  1  0  0  0  0
 16 17  2  0  0  0  0
 17 19  1  0  0  0  0
 18 17  1  0  0  0  0
 19 21  1  0  0  0  0
 19 22  1  0  0  0  0
 20 19  1  0  0  0  0
M  RAD  3   2   2   3   3  10   2
M  END
