Coordinates from ORCA-job 4-NO2PhN2+~CF3COO-_B3LYPG-6-31G_dp-NX-Scan-d89-09-n800
 OpenBabel11261920383D

 22 21  0  0  0  0  0  0  0  0999 V2000
   -1.8758   -0.0294    0.2853 C   0  0  0  0  0  0  0  0  0  0  0  0
   -2.7235   -0.9700    0.7819 N   0  0  0  0  0  0  0  0  0  0  0  0
   -3.3517   -1.8064    1.1991 N   0  0  0  0  0  0  0  0  0  0  0  0
   -2.2767    0.7638   -0.8153 C   0  0  0  0  0  0  0  0  0  0  0  0
   -1.3063    1.5874   -1.3901 C   0  0  0  0  0  0  0  0  0  0  0  0
   -0.0452    1.6448   -0.8220 C   0  0  0  0  0  0  0  0  0  0  0  0
    0.9662    2.5245   -1.4371 N   0  0  0  0  0  0  0  0  0  0  0  0
    0.6542    3.1065   -2.4696 O   0  0  0  0  0  0  0  0  0  0  0  0
    2.0579    2.5948   -0.8746 O   0  0  0  0  0  0  0  0  0  0  0  0
    0.3240    0.9144    0.3259 C   0  0  0  0  0  0  0  0  0  0  0  0
   -0.5861    0.0598    0.8928 C   0  0  0  0  0  0  0  0  0  0  0  0
   -3.2722    0.7098   -1.2317 H   0  0  0  0  0  0  0  0  0  0  0  0
   -1.5614    2.2072   -2.2374 H   0  0  0  0  0  0  0  0  0  0  0  0
    1.3183    1.0397    0.7345 H   0  0  0  0  0  0  0  0  0  0  0  0
   -0.3492   -0.5354    1.7665 H   0  0  0  0  0  0  0  0  0  0  0  0
   -3.8410    5.2348   -1.0177 O   0  0  0  0  0  0  0  0  0  0  0  0
   -3.3916    4.1557   -0.6292 C   0  0  0  0  0  0  0  0  0  0  0  0
   -3.5911    2.9919   -1.1108 O   0  0  0  0  0  0  0  0  0  0  0  0
   -2.4033    4.1927    0.5768 C   0  0  0  0  0  0  0  0  0  0  0  0
   -2.4635    3.0661    1.3414 F   0  0  0  0  0  0  0  0  0  0  0  0
   -1.1179    4.2697    0.1217 F   0  0  0  0  0  0  0  0  0  0  0  0
   -2.6036    5.2370    1.3878 F   0  0  0  0  0  0  0  0  0  0  0  0
  1  2  1  0  0  0  0
  1 11  1  0  0  0  0
  2  3  1  0  0  0  0
  4  1  2  0  0  0  0
  5  6  2  0  0  0  0
  5  4  1  0  0  0  0
  6 10  1  0  0  0  0
  7  9  2  0  0  0  0
  7  6  1  0  0  0  0
  8  7  2  0  0  0  0
 10 14  1  0  0  0  0
 10 11  2  0  0  0  0
 11 15  1  0  0  0  0
 12  4  1  0  0  0  0
 13  5  1  0  0  0  0
 16 17  1  0  0  0  0
 17 19  1  0  0  0  0
 18 17  2  0  0  0  0
 19 20  1  0  0  0  0
 19 22  1  0  0  0  0
 21 19  1  0  0  0  0
M  RAD  3   2   2   3   3  16   2
M  END
