Coordinates from ORCA-job 4-NO2PhN2+~CF3COO-_B3LYPG-6-31G_dp-NX-Scan-d89-09-n800
 OpenBabel11261920383D

 22 22  0  0  1  0  0  0  0  0999 V2000
   -1.9015    0.1772    0.0798 C   0  0  1  0  0  0  0  0  0  0  0  0
   -2.7993   -0.7436    0.3888 N   0  0  0  0  0  0  0  0  0  0  0  0
   -3.4833   -1.6085    0.6850 N   0  0  0  0  0  0  0  0  0  0  0  0
   -2.2658    1.4115   -0.6968 C   0  0  2  0  0  0  0  0  0  0  0  0
   -1.0887    1.8801   -1.4949 C   0  0  0  0  0  0  0  0  0  0  0  0
    0.1607    1.5585   -1.1025 C   0  0  0  0  0  0  0  0  0  0  0  0
    1.2986    2.1274   -1.8646 N   0  0  0  0  0  0  0  0  0  0  0  0
    1.0485    2.8005   -2.8596 O   0  0  0  0  0  0  0  0  0  0  0  0
    2.4269    1.8861   -1.4393 O   0  0  0  0  0  0  0  0  0  0  0  0
    0.4719    0.6542   -0.0240 C   0  0  0  0  0  0  0  0  0  0  0  0
   -0.5454   -0.0513    0.5262 C   0  0  0  0  0  0  0  0  0  0  0  0
   -3.1492    1.2674   -1.3226 H   0  0  0  0  0  0  0  0  0  0  0  0
   -1.2523    2.5390   -2.3359 H   0  0  0  0  0  0  0  0  0  0  0  0
    1.5014    0.5175    0.2752 H   0  0  0  0  0  0  0  0  0  0  0  0
   -0.3639   -0.8103    1.2802 H   0  0  0  0  0  0  0  0  0  0  0  0
   -2.6550    4.2894   -1.0971 O   0  0  0  0  0  0  0  0  0  0  0  0
   -2.8138    3.7496   -0.0282 C   0  0  0  0  0  0  0  0  0  0  0  0
   -2.6774    2.4624    0.3142 O   0  0  0  0  0  0  0  0  0  0  0  0
   -3.2403    4.5388    1.2364 C   0  0  0  0  0  0  0  0  0  0  0  0
   -2.3231    4.3997    2.2098 F   0  0  0  0  0  0  0  0  0  0  0  0
   -3.3700    5.8351    0.9509 F   0  0  0  0  0  0  0  0  0  0  0  0
   -4.4185    4.0786    1.6970 F   0  0  0  0  0  0  0  0  0  0  0  0
  1  2  1  1  0  0  0
  1 11  1  0  0  0  0
  2  3  1  0  0  0  0
  4 12  1  6  0  0  0
  4  1  1  0  0  0  0
  4 18  1  0  0  0  0
  5  6  2  0  0  0  0
  5  4  1  0  0  0  0
  6 10  1  0  0  0  0
  7  9  2  0  0  0  0
  7  6  1  0  0  0  0
  8  7  2  0  0  0  0
 10 14  1  0  0  0  0
 10 11  2  0  0  0  0
 11 15  1  0  0  0  0
 13  5  1  0  0  0  0
 16 17  2  0  0  0  0
 17 18  1  0  0  0  0
 17 19  1  0  0  0  0
 19 22  1  0  0  0  0
 19 20  1  0  0  0  0
 21 19  1  0  0  0  0
M  RAD  3   1   2   2   2   3   3
M  END
