Coordinates from ORCA-job 4-NO2PhN2+~CF3COO-_B3LYPG-6-31G_dp-NX-Scan-d89-09-n800
 OpenBabel11261920383D

 22 22  0  0  1  0  0  0  0  0999 V2000
   -1.8563    0.4141   -0.0452 C   0  0  0  0  0  0  0  0  0  0  0  0
   -2.9764   -0.1904    0.2972 N   0  0  0  0  0  0  0  0  0  0  0  0
   -3.9484   -0.7061    0.5895 N   0  0  0  0  0  0  0  0  0  0  0  0
   -1.9678    1.7208   -0.7691 C   0  0  2  0  0  0  0  0  0  0  0  0
   -0.6855    2.0639   -1.4516 C   0  0  0  0  0  0  0  0  0  0  0  0
    0.4627    1.4507   -1.0989 C   0  0  0  0  0  0  0  0  0  0  0  0
    1.7160    1.8930   -1.7582 N   0  0  0  0  0  0  0  0  0  0  0  0
    1.6389    2.7655   -2.6186 O   0  0  0  0  0  0  0  0  0  0  0  0
    2.7576    1.3536   -1.3910 O   0  0  0  0  0  0  0  0  0  0  0  0
    0.5581    0.3678   -0.1525 C   0  0  0  0  0  0  0  0  0  0  0  0
   -0.5918   -0.1511    0.3452 C   0  0  0  0  0  0  0  0  0  0  0  0
   -2.8244    1.7514   -1.4440 H   0  0  0  0  0  0  0  0  0  0  0  0
   -0.6825    2.8488   -2.1974 H   0  0  0  0  0  0  0  0  0  0  0  0
    1.5308   -0.0256    0.1046 H   0  0  0  0  0  0  0  0  0  0  0  0
   -0.5830   -1.0008    1.0198 H   0  0  0  0  0  0  0  0  0  0  0  0
   -4.3517    3.1290   -0.5243 O   0  0  0  0  0  0  0  0  0  0  0  0
   -3.4234    3.4003    0.1975 C   0  0  0  0  0  0  0  0  0  0  0  0
   -2.2185    2.8239    0.2277 O   0  0  0  0  0  0  0  0  0  0  0  0
   -3.4877    4.5143    1.2689 C   0  0  0  0  0  0  0  0  0  0  0  0
   -2.5420    5.4397    1.0370 F   0  0  0  0  0  0  0  0  0  0  0  0
   -4.6833    5.1052    1.2510 F   0  0  0  0  0  0  0  0  0  0  0  0
   -3.2810    3.9912    2.4907 F   0  0  0  0  0  0  0  0  0  0  0  0
  1  2  1  0  0  0  0
  1 11  2  0  0  0  0
  2  3  1  0  0  0  0
  4 12  1  6  0  0  0
  4  1  1  0  0  0  0
  4 18  1  0  0  0  0
  5  6  2  0  0  0  0
  5  4  1  0  0  0  0
  6 10  1  0  0  0  0
  7  9  2  0  0  0  0
  7  6  1  0  0  0  0
  8  7  2  0  0  0  0
 10 14  1  0  0  0  0
 10 11  1  0  0  0  0
 11 15  1  0  0  0  0
 13  5  1  0  0  0  0
 16 17  2  0  0  0  0
 17 18  1  0  0  0  0
 17 19  1  0  0  0  0
 19 22  1  0  0  0  0
 20 19  1  0  0  0  0
 21 19  1  0  0  0  0
M  RAD  3   2   2   3   3  10   2
M  END
