Coordinates from ORCA-job 4-NO2PhN2+~CF3COO-_B3LYPG-6-31G_dp-NX-Scan-d89-09-n800
 OpenBabel11261920383D

 22 22  0  0  1  0  0  0  0  0999 V2000
   -1.8602    0.2009    0.0775 C   0  0  0  0  0  0  0  0  0  0  0  0
   -2.8352   -0.6049    0.4548 N   0  0  0  0  0  0  0  0  0  0  0  0
   -3.6291   -1.3492    0.7939 N   0  0  0  0  0  0  0  0  0  0  0  0
   -2.1809    1.4729   -0.6479 C   0  0  2  0  0  0  0  0  0  0  0  0
   -0.9917    1.9500   -1.4211 C   0  0  0  0  0  0  0  0  0  0  0  0
    0.2459    1.5238   -1.0980 C   0  0  0  0  0  0  0  0  0  0  0  0
    1.3956    2.1021   -1.8371 N   0  0  0  0  0  0  0  0  0  0  0  0
    1.1606    2.9097   -2.7308 O   0  0  0  0  0  0  0  0  0  0  0  0
    2.5173    1.7314   -1.4968 O   0  0  0  0  0  0  0  0  0  0  0  0
    0.5341    0.5103   -0.1148 C   0  0  0  0  0  0  0  0  0  0  0  0
   -0.5093   -0.1549    0.4376 C   0  0  0  0  0  0  0  0  0  0  0  0
   -3.0663    1.3911   -1.2826 H   0  0  0  0  0  0  0  0  0  0  0  0
   -1.1407    2.6925   -2.1931 H   0  0  0  0  0  0  0  0  0  0  0  0
    1.5620    0.2747    0.1204 H   0  0  0  0  0  0  0  0  0  0  0  0
   -0.3530   -0.9733    1.1326 H   0  0  0  0  0  0  0  0  0  0  0  0
   -3.0489    4.1007   -1.1528 O   0  0  0  0  0  0  0  0  0  0  0  0
   -2.9612    3.6961   -0.0187 C   0  0  0  0  0  0  0  0  0  0  0  0
   -2.5512    2.4961    0.4015 O   0  0  0  0  0  0  0  0  0  0  0  0
   -3.3439    4.5577    1.2093 C   0  0  0  0  0  0  0  0  0  0  0  0
   -2.3030    4.6656    2.0523 F   0  0  0  0  0  0  0  0  0  0  0  0
   -3.7126    5.7790    0.8210 F   0  0  0  0  0  0  0  0  0  0  0  0
   -4.3677    3.9869    1.8712 F   0  0  0  0  0  0  0  0  0  0  0  0
  1 11  2  0  0  0  0
  1  2  1  0  0  0  0
  2  3  1  0  0  0  0
  4 12  1  6  0  0  0
  4  1  1  0  0  0  0
  4 18  1  0  0  0  0
  5  6  2  0  0  0  0
  5  4  1  0  0  0  0
  6 10  1  0  0  0  0
  7  9  2  0  0  0  0
  7  6  1  0  0  0  0
  8  7  2  0  0  0  0
 10 14  1  0  0  0  0
 10 11  1  0  0  0  0
 11 15  1  0  0  0  0
 13  5  1  0  0  0  0
 16 17  2  0  0  0  0
 17 18  1  0  0  0  0
 17 19  1  0  0  0  0
 19 22  1  0  0  0  0
 19 20  1  0  0  0  0
 21 19  1  0  0  0  0
M  RAD  3   2   2   3   3  10   2
M  END
