Coordinates from ORCA-job 4-NO2PhN2+~CF3COO-_B3LYPG-6-31G_dp-NX-Scan-d89-09-n800
 OpenBabel11261920383D

 22 22  0  0  1  0  0  0  0  0999 V2000
   -1.8244    0.3057    0.0410 C   0  0  0  0  0  0  0  0  0  0  0  0
   -2.9008   -0.3370    0.4458 N   0  0  0  0  0  0  0  0  0  0  0  0
   -3.8440   -0.8769    0.7855 N   0  0  0  0  0  0  0  0  0  0  0  0
   -2.0356    1.6058   -0.6681 C   0  0  2  0  0  0  0  0  0  0  0  0
   -0.8029    2.0280   -1.3971 C   0  0  0  0  0  0  0  0  0  0  0  0
    0.3894    1.4700   -1.1044 C   0  0  0  0  0  0  0  0  0  0  0  0
    1.5896    1.9897   -1.8055 N   0  0  0  0  0  0  0  0  0  0  0  0
    1.4328    2.8823   -2.6336 O   0  0  0  0  0  0  0  0  0  0  0  0
    2.6706    1.4889   -1.5033 O   0  0  0  0  0  0  0  0  0  0  0  0
    0.5808    0.3765   -0.1845 C   0  0  0  0  0  0  0  0  0  0  0  0
   -0.5175   -0.2040    0.3598 C   0  0  0  0  0  0  0  0  0  0  0  0
   -2.9106    1.6013   -1.3204 H   0  0  0  0  0  0  0  0  0  0  0  0
   -0.8767    2.8238   -2.1277 H   0  0  0  0  0  0  0  0  0  0  0  0
    1.5822    0.0260    0.0188 H   0  0  0  0  0  0  0  0  0  0  0  0
   -0.4352   -1.0611    1.0197 H   0  0  0  0  0  0  0  0  0  0  0  0
   -3.8600    3.6512   -0.9931 O   0  0  0  0  0  0  0  0  0  0  0  0
   -3.2570    3.5622    0.0480 C   0  0  0  0  0  0  0  0  0  0  0  0
   -2.3361    2.6519    0.3755 O   0  0  0  0  0  0  0  0  0  0  0  0
   -3.4733    4.5301    1.2351 C   0  0  0  0  0  0  0  0  0  0  0  0
   -2.3144    5.1133    1.5824 F   0  0  0  0  0  0  0  0  0  0  0  0
   -4.3520    5.4775    0.9056 F   0  0  0  0  0  0  0  0  0  0  0  0
   -3.9442    3.8538    2.2989 F   0  0  0  0  0  0  0  0  0  0  0  0
  1 11  2  0  0  0  0
  1  2  1  0  0  0  0
  2  3  1  0  0  0  0
  4 12  1  6  0  0  0
  4  1  1  0  0  0  0
  4 18  1  0  0  0  0
  5  6  2  0  0  0  0
  5  4  1  0  0  0  0
  6 10  1  0  0  0  0
  7  9  2  0  0  0  0
  7  6  1  0  0  0  0
  8  7  2  0  0  0  0
 10 14  1  0  0  0  0
 10 11  1  0  0  0  0
 11 15  1  0  0  0  0
 13  5  1  0  0  0  0
 16 17  2  0  0  0  0
 17 18  1  0  0  0  0
 17 19  1  0  0  0  0
 19 20  1  0  0  0  0
 19 22  1  0  0  0  0
 21 19  1  0  0  0  0
M  RAD  3   2   2   3   3  10   2
M  END
