Coordinates from ORCA-job 4-NO2PhN2+~CF3COO-_B3LYPG-6-31G_dp-NX-Scan-d89-09-n800
 OpenBabel11261920383D

 22 22  0  0  0  0  0  0  0  0999 V2000
   -1.0301    1.0126    0.4749 C   0  0  0  0  0  0  0  0  0  0  0  0
   -1.7249    0.7829    1.7005 N   0  0  0  0  0  0  0  0  0  0  0  0
   -2.6930    1.5389    2.0621 N   0  0  0  0  0  0  0  0  0  0  0  0
   -0.7573    2.2503   -0.1472 C   0  0  0  0  0  0  0  0  0  0  0  0
    0.0334    2.2989   -1.2906 C   0  0  0  0  0  0  0  0  0  0  0  0
    0.5384    1.1147   -1.8229 C   0  0  0  0  0  0  0  0  0  0  0  0
    1.3592    1.1730   -3.0403 N   0  0  0  0  0  0  0  0  0  0  0  0
    1.5574    2.2789   -3.5434 O   0  0  0  0  0  0  0  0  0  0  0  0
    1.7973    0.1117   -3.4834 O   0  0  0  0  0  0  0  0  0  0  0  0
    0.2923   -0.1224   -1.2278 C   0  0  0  0  0  0  0  0  0  0  0  0
   -0.4770   -0.1606   -0.0741 C   0  0  0  0  0  0  0  0  0  0  0  0
   -1.1460    3.1776    0.2510 H   0  0  0  0  0  0  0  0  0  0  0  0
    0.2596    3.2381   -1.7795 H   0  0  0  0  0  0  0  0  0  0  0  0
    0.7119   -1.0190   -1.6656 H   0  0  0  0  0  0  0  0  0  0  0  0
   -0.6702   -1.0987    0.4347 H   0  0  0  0  0  0  0  0  0  0  0  0
   -3.0157    2.3401    1.4303 O   0  0  0  0  0  0  0  0  0  0  0  0
   -4.1363    3.1655    1.8899 C   0  0  0  0  0  0  0  0  0  0  0  0
   -4.7060    2.9883    2.9082 O   0  0  0  0  0  0  0  0  0  0  0  0
   -4.3648    4.2379    0.8131 C   0  0  0  0  0  0  0  0  0  0  0  0
   -4.7081    3.6542   -0.3414 F   0  0  0  0  0  0  0  0  0  0  0  0
   -5.3300    5.0634    1.2026 F   0  0  0  0  0  0  0  0  0  0  0  0
   -3.2297    4.9328    0.6270 F   0  0  0  0  0  0  0  0  0  0  0  0
  1  2  1  0  0  0  0
  2  3  2  0  0  0  0
  4 12  1  0  0  0  0
  4  1  2  0  0  0  0
  5  4  1  0  0  0  0
  6  5  2  0  0  0  0
  6 10  1  0  0  0  0
  7  6  1  0  0  0  0
  8  7  2  0  0  0  0
  9  7  2  0  0  0  0
 10 11  2  0  0  0  0
 11 15  1  0  0  0  0
 11  1  1  0  0  0  0
 13  5  1  0  0  0  0
 14 10  1  0  0  0  0
 16 17  1  0  0  0  0
 16  3  1  0  0  0  0
 17 18  2  0  0  0  0
 19 21  1  0  0  0  0
 19 17  1  0  0  0  0
 20 19  1  0  0  0  0
 22 19  1  0  0  0  0
M  END
