Coordinates from ORCA-job 4-NO2PhN2+~CF3COO-_B3LYPG-6-31G_dp-NX-Scan-d89-09-n800
 OpenBabel11261920383D

 22 22  0  0  1  0  0  0  0  0999 V2000
   -1.8303    0.3134    0.0300 C   0  0  0  0  0  0  0  0  0  0  0  0
   -2.9108   -0.3286    0.4251 N   0  0  0  0  0  0  0  0  0  0  0  0
   -3.8553   -0.8705    0.7580 N   0  0  0  0  0  0  0  0  0  0  0  0
   -2.0310    1.6153   -0.6793 C   0  0  2  0  0  0  0  0  0  0  0  0
   -0.7922    2.0301   -1.4021 C   0  0  0  0  0  0  0  0  0  0  0  0
    0.3960    1.4679   -1.1007 C   0  0  0  0  0  0  0  0  0  0  0  0
    1.6027    1.9812   -1.7951 N   0  0  0  0  0  0  0  0  0  0  0  0
    1.4547    2.8713   -2.6276 O   0  0  0  0  0  0  0  0  0  0  0  0
    2.6799    1.4782   -1.4831 O   0  0  0  0  0  0  0  0  0  0  0  0
    0.5769    0.3754   -0.1777 C   0  0  0  0  0  0  0  0  0  0  0  0
   -0.5275   -0.2006    0.3590 C   0  0  0  0  0  0  0  0  0  0  0  0
   -2.9039    1.6164   -1.3343 H   0  0  0  0  0  0  0  0  0  0  0  0
   -0.8572    2.8248   -2.1348 H   0  0  0  0  0  0  0  0  0  0  0  0
    1.5755    0.0217    0.0335 H   0  0  0  0  0  0  0  0  0  0  0  0
   -0.4532   -1.0575    1.0202 H   0  0  0  0  0  0  0  0  0  0  0  0
   -3.9209    3.6153   -0.9624 O   0  0  0  0  0  0  0  0  0  0  0  0
   -3.2778    3.5516    0.0563 C   0  0  0  0  0  0  0  0  0  0  0  0
   -2.3260    2.6655    0.3616 O   0  0  0  0  0  0  0  0  0  0  0  0
   -3.4693    4.5303    1.2389 C   0  0  0  0  0  0  0  0  0  0  0  0
   -2.3227    5.1822    1.4943 F   0  0  0  0  0  0  0  0  0  0  0  0
   -4.4187    5.4221    0.9534 F   0  0  0  0  0  0  0  0  0  0  0  0
   -3.8287    3.8535    2.3451 F   0  0  0  0  0  0  0  0  0  0  0  0
  1 11  2  0  0  0  0
  1  2  1  0  0  0  0
  2  3  1  0  0  0  0
  4 12  1  6  0  0  0
  4  1  1  0  0  0  0
  4 18  1  0  0  0  0
  5  6  2  0  0  0  0
  5  4  1  0  0  0  0
  6 10  1  0  0  0  0
  7  9  2  0  0  0  0
  7  6  1  0  0  0  0
  8  7  2  0  0  0  0
 10 14  1  0  0  0  0
 10 11  1  0  0  0  0
 11 15  1  0  0  0  0
 13  5  1  0  0  0  0
 16 17  2  0  0  0  0
 17 18  1  0  0  0  0
 17 19  1  0  0  0  0
 19 20  1  0  0  0  0
 19 22  1  0  0  0  0
 21 19  1  0  0  0  0
M  RAD  3   2   2   3   3  10   2
M  END
