Coordinates from ORCA-job 4-NO2PhN2+~CF3COO-_B3LYPG-6-31G_dp-NX-Scan-d89-09-n800
 OpenBabel11261920383D

 22 21  0  0  0  0  0  0  0  0999 V2000
   -1.8909    0.1416    0.2801 C   0  0  0  0  0  0  0  0  0  0  0  0
   -2.7673   -0.7346    0.8324 N   0  0  0  0  0  0  0  0  0  0  0  0
   -3.4263   -1.5215    1.2968 N   0  0  0  0  0  0  0  0  0  0  0  0
   -2.2479    0.8275   -0.9049 C   0  0  0  0  0  0  0  0  0  0  0  0
   -1.2377    1.5640   -1.5395 C   0  0  0  0  0  0  0  0  0  0  0  0
    0.0056    1.6517   -0.9478 C   0  0  0  0  0  0  0  0  0  0  0  0
    1.0563    2.4343   -1.6269 N   0  0  0  0  0  0  0  0  0  0  0  0
    0.7819    2.9213   -2.7184 O   0  0  0  0  0  0  0  0  0  0  0  0
    2.1397    2.5275   -1.0525 O   0  0  0  0  0  0  0  0  0  0  0  0
    0.3274    1.0428    0.2865 C   0  0  0  0  0  0  0  0  0  0  0  0
   -0.6164    0.2760    0.9146 C   0  0  0  0  0  0  0  0  0  0  0  0
   -3.2184    0.7026   -1.3604 H   0  0  0  0  0  0  0  0  0  0  0  0
   -1.4501    2.0903   -2.4591 H   0  0  0  0  0  0  0  0  0  0  0  0
    1.3132    1.1918    0.7073 H   0  0  0  0  0  0  0  0  0  0  0  0
   -0.4186   -0.2227    1.8556 H   0  0  0  0  0  0  0  0  0  0  0  0
   -3.6516    5.1857   -0.9521 O   0  0  0  0  0  0  0  0  0  0  0  0
   -3.3143    4.0710   -0.5555 C   0  0  0  0  0  0  0  0  0  0  0  0
   -3.4908    2.9410   -1.1265 O   0  0  0  0  0  0  0  0  0  0  0  0
   -2.5370    3.9975    0.7935 C   0  0  0  0  0  0  0  0  0  0  0  0
   -2.8108    2.8575    1.4911 F   0  0  0  0  0  0  0  0  0  0  0  0
   -1.1927    3.9833    0.5620 F   0  0  0  0  0  0  0  0  0  0  0  0
   -2.7929    5.0306    1.6023 F   0  0  0  0  0  0  0  0  0  0  0  0
  1  2  1  0  0  0  0
  1 11  1  0  0  0  0
  2  3  1  0  0  0  0
  4  1  2  0  0  0  0
  5  6  2  0  0  0  0
  5  4  1  0  0  0  0
  6 10  1  0  0  0  0
  7  9  2  0  0  0  0
  7  6  1  0  0  0  0
  8  7  2  0  0  0  0
 10 14  1  0  0  0  0
 10 11  2  0  0  0  0
 11 15  1  0  0  0  0
 12  4  1  0  0  0  0
 13  5  1  0  0  0  0
 16 17  1  0  0  0  0
 17 19  1  0  0  0  0
 18 17  2  0  0  0  0
 19 20  1  0  0  0  0
 19 22  1  0  0  0  0
 21 19  1  0  0  0  0
M  RAD  3   2   2   3   3  16   2
M  END
