Coordinates from ORCA-job 4-NO2PhN2+~CF3COO-_B3LYPG-6-31G_dp-NX-Scan-d89-09-n800
 OpenBabel11261920383D

 22 22  0  0  1  0  0  0  0  0999 V2000
   -1.8873    0.4866   -0.0992 C   0  0  0  0  0  0  0  0  0  0  0  0
   -3.0279   -0.1093    0.1919 N   0  0  0  0  0  0  0  0  0  0  0  0
   -4.0080   -0.6283    0.4443 N   0  0  0  0  0  0  0  0  0  0  0  0
   -1.9394    1.7913   -0.8333 C   0  0  2  0  0  0  0  0  0  0  0  0
   -0.6320    2.0853   -1.4903 C   0  0  0  0  0  0  0  0  0  0  0  0
    0.4888    1.4471   -1.0962 C   0  0  0  0  0  0  0  0  0  0  0  0
    1.7706    1.8413   -1.7307 N   0  0  0  0  0  0  0  0  0  0  0  0
    1.7399    2.6961   -2.6114 O   0  0  0  0  0  0  0  0  0  0  0  0
    2.7872    1.2829   -1.3238 O   0  0  0  0  0  0  0  0  0  0  0  0
    0.5285    0.3789   -0.1300 C   0  0  0  0  0  0  0  0  0  0  0  0
   -0.6497   -0.1047    0.3368 C   0  0  0  0  0  0  0  0  0  0  0  0
   -2.7802    1.8354   -1.5272 H   0  0  0  0  0  0  0  0  0  0  0  0
   -0.5875    2.8562   -2.2490 H   0  0  0  0  0  0  0  0  0  0  0  0
    1.4825   -0.0348    0.1628 H   0  0  0  0  0  0  0  0  0  0  0  0
   -0.6831   -0.9473    1.0198 H   0  0  0  0  0  0  0  0  0  0  0  0
   -4.4214    2.7531   -0.1211 O   0  0  0  0  0  0  0  0  0  0  0  0
   -3.4358    3.2833    0.3324 C   0  0  0  0  0  0  0  0  0  0  0  0
   -2.1652    2.9356    0.1250 O   0  0  0  0  0  0  0  0  0  0  0  0
   -3.4954    4.5048    1.2794 C   0  0  0  0  0  0  0  0  0  0  0  0
   -2.7953    5.5305    0.7675 F   0  0  0  0  0  0  0  0  0  0  0  0
   -4.7599    4.8914    1.4561 F   0  0  0  0  0  0  0  0  0  0  0  0
   -2.9691    4.1838    2.4746 F   0  0  0  0  0  0  0  0  0  0  0  0
  1  2  1  0  0  0  0
  1 11  2  0  0  0  0
  2  3  1  0  0  0  0
  4 12  1  6  0  0  0
  4  1  1  0  0  0  0
  4 18  1  0  0  0  0
  5  6  2  0  0  0  0
  5  4  1  0  0  0  0
  6 10  1  0  0  0  0
  7  9  2  0  0  0  0
  7  6  1  0  0  0  0
  8  7  2  0  0  0  0
 10 14  1  0  0  0  0
 10 11  1  0  0  0  0
 11 15  1  0  0  0  0
 13  5  1  0  0  0  0
 16 17  2  0  0  0  0
 17 19  1  0  0  0  0
 18 17  1  0  0  0  0
 19 21  1  0  0  0  0
 19 22  1  0  0  0  0
 20 19  1  0  0  0  0
M  RAD  3   2   2   3   3  10   2
M  END
