Coordinates from ORCA-job 4-NO2PhN2+~CF3COO-_B3LYPG-6-31G_dp-NX-Scan-d89-09-n800
 OpenBabel11261920383D

 22 22  0  0  1  0  0  0  0  0999 V2000
   -1.8518    0.4002   -0.0349 C   0  0  0  0  0  0  0  0  0  0  0  0
   -2.9670   -0.2085    0.3151 N   0  0  0  0  0  0  0  0  0  0  0  0
   -3.9364   -0.7260    0.6132 N   0  0  0  0  0  0  0  0  0  0  0  0
   -1.9749    1.7069   -0.7567 C   0  0  2  0  0  0  0  0  0  0  0  0
   -0.6978    2.0595   -1.4441 C   0  0  0  0  0  0  0  0  0  0  0  0
    0.4557    1.4521   -1.0989 C   0  0  0  0  0  0  0  0  0  0  0  0
    1.7032    1.9041   -1.7627 N   0  0  0  0  0  0  0  0  0  0  0  0
    1.6170    2.7797   -2.6189 O   0  0  0  0  0  0  0  0  0  0  0  0
    2.7496    1.3686   -1.4034 O   0  0  0  0  0  0  0  0  0  0  0  0
    0.5622    0.3669   -0.1563 C   0  0  0  0  0  0  0  0  0  0  0  0
   -0.5821   -0.1593    0.3467 C   0  0  0  0  0  0  0  0  0  0  0  0
   -2.8340    1.7345   -1.4286 H   0  0  0  0  0  0  0  0  0  0  0  0
   -0.7031    2.8466   -2.1876 H   0  0  0  0  0  0  0  0  0  0  0  0
    1.5384   -0.0221    0.0943 H   0  0  0  0  0  0  0  0  0  0  0  0
   -0.5649   -1.0104    1.0194 H   0  0  0  0  0  0  0  0  0  0  0  0
   -4.3165    3.1994   -0.5929 O   0  0  0  0  0  0  0  0  0  0  0  0
   -3.4130    3.4218    0.1754 C   0  0  0  0  0  0  0  0  0  0  0  0
   -2.2312    2.8025    0.2467 O   0  0  0  0  0  0  0  0  0  0  0  0
   -3.4856    4.5166    1.2659 C   0  0  0  0  0  0  0  0  0  0  0  0
   -2.5019    5.4147    1.0904 F   0  0  0  0  0  0  0  0  0  0  0  0
   -4.6599    5.1469    1.2117 F   0  0  0  0  0  0  0  0  0  0  0  0
   -3.3459    3.9646    2.4844 F   0  0  0  0  0  0  0  0  0  0  0  0
  1  2  1  0  0  0  0
  1 11  2  0  0  0  0
  2  3  1  0  0  0  0
  4 12  1  6  0  0  0
  4  1  1  0  0  0  0
  4 18  1  0  0  0  0
  5  6  2  0  0  0  0
  5  4  1  0  0  0  0
  6 10  1  0  0  0  0
  7  9  2  0  0  0  0
  7  6  1  0  0  0  0
  8  7  2  0  0  0  0
 10 14  1  0  0  0  0
 10 11  1  0  0  0  0
 11 15  1  0  0  0  0
 13  5  1  0  0  0  0
 16 17  2  0  0  0  0
 17 18  1  0  0  0  0
 17 19  1  0  0  0  0
 19 22  1  0  0  0  0
 20 19  1  0  0  0  0
 21 19  1  0  0  0  0
M  RAD  3   2   2   3   3  10   2
M  END
