Coordinates from ORCA-job 4-NO2PhN2+~CF3COO-_B3LYPG-6-31G_dp-NX-Scan-d89-09-n800
 OpenBabel11261920383D

 22 22  0  0  1  0  0  0  0  0999 V2000
   -1.8409    0.3624   -0.0062 C   0  0  0  0  0  0  0  0  0  0  0  0
   -2.9416   -0.2601    0.3641 N   0  0  0  0  0  0  0  0  0  0  0  0
   -3.9011   -0.7872    0.6777 N   0  0  0  0  0  0  0  0  0  0  0  0
   -1.9974    1.6673   -0.7236 C   0  0  2  0  0  0  0  0  0  0  0  0
   -0.7360    2.0458   -1.4267 C   0  0  0  0  0  0  0  0  0  0  0  0
    0.4327    1.4576   -1.0997 C   0  0  0  0  0  0  0  0  0  0  0  0
    1.6632    1.9354   -1.7772 N   0  0  0  0  0  0  0  0  0  0  0  0
    1.5505    2.8162   -2.6250 O   0  0  0  0  0  0  0  0  0  0  0  0
    2.7230    1.4137   -1.4377 O   0  0  0  0  0  0  0  0  0  0  0  0
    0.5709    0.3695   -0.1644 C   0  0  0  0  0  0  0  0  0  0  0  0
   -0.5567   -0.1778    0.3535 C   0  0  0  0  0  0  0  0  0  0  0  0
   -2.8631    1.6849   -1.3875 H   0  0  0  0  0  0  0  0  0  0  0  0
   -0.7661    2.8357   -2.1668 H   0  0  0  0  0  0  0  0  0  0  0  0
    1.5571   -0.0043    0.0697 H   0  0  0  0  0  0  0  0  0  0  0  0
   -0.5151   -1.0310    1.0223 H   0  0  0  0  0  0  0  0  0  0  0  0
   -4.1784    3.3942   -0.7725 O   0  0  0  0  0  0  0  0  0  0  0  0
   -3.3673    3.4832    0.1163 C   0  0  0  0  0  0  0  0  0  0  0  0
   -2.2689    2.7437    0.2965 O   0  0  0  0  0  0  0  0  0  0  0  0
   -3.4792    4.5215    1.2575 C   0  0  0  0  0  0  0  0  0  0  0  0
   -2.4025    5.3252    1.2626 F   0  0  0  0  0  0  0  0  0  0  0  0
   -4.5735    5.2673    1.0994 F   0  0  0  0  0  0  0  0  0  0  0  0
   -3.5488    3.8961    2.4462 F   0  0  0  0  0  0  0  0  0  0  0  0
  1 11  2  0  0  0  0
  1  2  1  0  0  0  0
  2  3  1  0  0  0  0
  4 12  1  6  0  0  0
  4  1  1  0  0  0  0
  4 18  1  0  0  0  0
  5  6  2  0  0  0  0
  5  4  1  0  0  0  0
  6 10  1  0  0  0  0
  7  9  2  0  0  0  0
  7  6  1  0  0  0  0
  8  7  2  0  0  0  0
 10 14  1  0  0  0  0
 10 11  1  0  0  0  0
 11 15  1  0  0  0  0
 13  5  1  0  0  0  0
 16 17  2  0  0  0  0
 17 18  1  0  0  0  0
 17 19  1  0  0  0  0
 19 20  1  0  0  0  0
 19 22  1  0  0  0  0
 21 19  1  0  0  0  0
M  RAD  3   2   2   3   3  10   2
M  END
