Coordinates from ORCA-job 4-NO2PhN2+~CF3COO-_B3LYPG-6-31G_dp-NX-Scan-d89-09-n800
 OpenBabel11261920383D

 22 22  0  0  0  0  0  0  0  0999 V2000
   -1.0182    1.0180    0.4848 C   0  0  0  0  0  0  0  0  0  0  0  0
   -1.7056    0.7895    1.7166 N   0  0  0  0  0  0  0  0  0  0  0  0
   -2.6711    1.5041    2.1059 N   0  0  0  0  0  0  0  0  0  0  0  0
   -0.7382    2.2579   -0.1261 C   0  0  0  0  0  0  0  0  0  0  0  0
    0.0455    2.3053   -1.2744 C   0  0  0  0  0  0  0  0  0  0  0  0
    0.5304    1.1183   -1.8191 C   0  0  0  0  0  0  0  0  0  0  0  0
    1.3437    1.1762   -3.0440 N   0  0  0  0  0  0  0  0  0  0  0  0
    1.5560    2.2840   -3.5354 O   0  0  0  0  0  0  0  0  0  0  0  0
    1.7678    0.1133   -3.4954 O   0  0  0  0  0  0  0  0  0  0  0  0
    0.2753   -0.1206   -1.2334 C   0  0  0  0  0  0  0  0  0  0  0  0
   -0.4825   -0.1584   -0.0712 C   0  0  0  0  0  0  0  0  0  0  0  0
   -1.1176    3.1835    0.2835 H   0  0  0  0  0  0  0  0  0  0  0  0
    0.2794    3.2451   -1.7583 H   0  0  0  0  0  0  0  0  0  0  0  0
    0.6815   -1.0183   -1.6814 H   0  0  0  0  0  0  0  0  0  0  0  0
   -0.6790   -1.0973    0.4348 H   0  0  0  0  0  0  0  0  0  0  0  0
   -3.0262    2.3630    1.4113 O   0  0  0  0  0  0  0  0  0  0  0  0
   -4.1160    3.1503    1.8674 C   0  0  0  0  0  0  0  0  0  0  0  0
   -4.7013    2.9923    2.8850 O   0  0  0  0  0  0  0  0  0  0  0  0
   -4.3671    4.2264    0.7954 C   0  0  0  0  0  0  0  0  0  0  0  0
   -4.7289    3.6481   -0.3578 F   0  0  0  0  0  0  0  0  0  0  0  0
   -5.3285    5.0483    1.2018 F   0  0  0  0  0  0  0  0  0  0  0  0
   -3.2388    4.9299    0.5884 F   0  0  0  0  0  0  0  0  0  0  0  0
  1  2  1  0  0  0  0
  2  3  2  0  0  0  0
  4 12  1  0  0  0  0
  4  1  2  0  0  0  0
  5  4  1  0  0  0  0
  6  5  2  0  0  0  0
  6 10  1  0  0  0  0
  7  6  1  0  0  0  0
  8  7  2  0  0  0  0
  9  7  2  0  0  0  0
 10 11  2  0  0  0  0
 11 15  1  0  0  0  0
 11  1  1  0  0  0  0
 13  5  1  0  0  0  0
 14 10  1  0  0  0  0
 16 17  1  0  0  0  0
 16  3  1  0  0  0  0
 17 18  2  0  0  0  0
 19 21  1  0  0  0  0
 19 17  1  0  0  0  0
 20 19  1  0  0  0  0
 22 19  1  0  0  0  0
M  END
