Coordinates from ORCA-job 4-NO2PhN2+~CF3COO-_B3LYPG-6-31G_dp-NX-Scan-d89-09-n800
 OpenBabel11261920383D

 22 21  0  0  0  0  0  0  0  0999 V2000
   -1.7145   -0.6198    0.2758 C   0  0  0  0  0  0  0  0  0  0  0  0
   -2.4703   -1.6977    0.6308 N   0  0  0  0  0  0  0  0  0  0  0  0
   -3.0618   -2.6050    0.9400 N   0  0  0  0  0  0  0  0  0  0  0  0
   -2.3147    0.4518   -0.4281 C   0  0  0  0  0  0  0  0  0  0  0  0
   -1.5021    1.5026   -0.8300 C   0  0  0  0  0  0  0  0  0  0  0  0
   -0.1519    1.4722   -0.4820 C   0  0  0  0  0  0  0  0  0  0  0  0
    0.7241    2.5696   -0.9401 N   0  0  0  0  0  0  0  0  0  0  0  0
    0.2483    3.3715   -1.7317 O   0  0  0  0  0  0  0  0  0  0  0  0
    1.8716    2.5847   -0.4930 O   0  0  0  0  0  0  0  0  0  0  0  0
    0.4307    0.4418    0.2696 C   0  0  0  0  0  0  0  0  0  0  0  0
   -0.3428   -0.6364    0.6465 C   0  0  0  0  0  0  0  0  0  0  0  0
   -3.3779    0.4763   -0.6399 H   0  0  0  0  0  0  0  0  0  0  0  0
   -1.9746    2.3542   -1.3276 H   0  0  0  0  0  0  0  0  0  0  0  0
    1.4806    0.5024    0.5273 H   0  0  0  0  0  0  0  0  0  0  0  0
    0.0687   -1.4702    1.2030 H   0  0  0  0  0  0  0  0  0  0  0  0
   -4.1725    5.5488   -1.3416 O   0  0  0  0  0  0  0  0  0  0  0  0
   -3.4645    4.6324   -0.9053 C   0  0  0  0  0  0  0  0  0  0  0  0
   -3.5440    3.3954   -1.1694 O   0  0  0  0  0  0  0  0  0  0  0  0
   -2.3221    5.0687    0.0615 C   0  0  0  0  0  0  0  0  0  0  0  0
   -1.7402    4.0098    0.6983 F   0  0  0  0  0  0  0  0  0  0  0  0
   -1.3387    5.7064   -0.6064 F   0  0  0  0  0  0  0  0  0  0  0  0
   -2.7709    5.8996    1.0207 F   0  0  0  0  0  0  0  0  0  0  0  0
  1  2  1  0  0  0  0
  1 11  1  0  0  0  0
  2  3  1  0  0  0  0
  4  1  2  0  0  0  0
  5  6  2  0  0  0  0
  5  4  1  0  0  0  0
  6 10  1  0  0  0  0
  7  9  2  0  0  0  0
  7  6  1  0  0  0  0
  8  7  2  0  0  0  0
 10 14  1  0  0  0  0
 10 11  2  0  0  0  0
 11 15  1  0  0  0  0
 12  4  1  0  0  0  0
 13  5  1  0  0  0  0
 16 17  2  0  0  0  0
 17 19  1  0  0  0  0
 18 17  1  0  0  0  0
 19 20  1  0  0  0  0
 19 22  1  0  0  0  0
 21 19  1  0  0  0  0
M  RAD  3   2   2   3   3  18   2
M  END
