Coordinates from ORCA-job 4-NO2PhN2+~CF3COO-_B3LYPG-6-31G_dp-NX-Scan-d89-09-n800
 OpenBabel11261920383D

 22 22  0  0  1  0  0  0  0  0999 V2000
   -1.9014    0.5474   -0.1418 C   0  0  0  0  0  0  0  0  0  0  0  0
   -3.0765    0.0154    0.1441 N   0  0  0  0  0  0  0  0  0  0  0  0
   -4.1157   -0.3773    0.3728 N   0  0  0  0  0  0  0  0  0  0  0  0
   -1.9029    1.8482   -0.8831 C   0  0  2  0  0  0  0  0  0  0  0  0
   -0.5727    2.1094   -1.5038 C   0  0  0  0  0  0  0  0  0  0  0  0
    0.5195    1.4324   -1.0920 C   0  0  0  0  0  0  0  0  0  0  0  0
    1.8254    1.7936   -1.6979 N   0  0  0  0  0  0  0  0  0  0  0  0
    1.8384    2.6586   -2.5689 O   0  0  0  0  0  0  0  0  0  0  0  0
    2.8162    1.1992   -1.2785 O   0  0  0  0  0  0  0  0  0  0  0  0
    0.5083    0.3540   -0.1380 C   0  0  0  0  0  0  0  0  0  0  0  0
   -0.6948   -0.0919    0.3046 C   0  0  0  0  0  0  0  0  0  0  0  0
   -2.7209    1.9040   -1.6045 H   0  0  0  0  0  0  0  0  0  0  0  0
   -0.4871    2.8847   -2.2544 H   0  0  0  0  0  0  0  0  0  0  0  0
    1.4425   -0.0951    0.1655 H   0  0  0  0  0  0  0  0  0  0  0  0
   -0.7691   -0.9384    0.9795 H   0  0  0  0  0  0  0  0  0  0  0  0
   -4.3257    2.4243    0.2454 O   0  0  0  0  0  0  0  0  0  0  0  0
   -3.4002    3.1743    0.4554 C   0  0  0  0  0  0  0  0  0  0  0  0
   -2.1447    3.0272    0.0421 O   0  0  0  0  0  0  0  0  0  0  0  0
   -3.5415    4.4779    1.2750 C   0  0  0  0  0  0  0  0  0  0  0  0
   -3.2355    5.5401    0.5098 F   0  0  0  0  0  0  0  0  0  0  0  0
   -4.7930    4.6128    1.7177 F   0  0  0  0  0  0  0  0  0  0  0  0
   -2.7082    4.4582    2.3293 F   0  0  0  0  0  0  0  0  0  0  0  0
  1  2  1  0  0  0  0
  1 11  2  0  0  0  0
  2  3  1  0  0  0  0
  4 12  1  6  0  0  0
  4  1  1  0  0  0  0
  4 18  1  0  0  0  0
  5  6  2  0  0  0  0
  5  4  1  0  0  0  0
  6 10  1  0  0  0  0
  7  9  2  0  0  0  0
  7  6  1  0  0  0  0
  8  7  2  0  0  0  0
 10 14  1  0  0  0  0
 10 11  1  0  0  0  0
 11 15  1  0  0  0  0
 13  5  1  0  0  0  0
 16 17  2  0  0  0  0
 17 19  1  0  0  0  0
 18 17  1  0  0  0  0
 19 21  1  0  0  0  0
 19 22  1  0  0  0  0
 20 19  1  0  0  0  0
M  RAD  3   2   2   3   3  10   2
M  END
