Coordinates from ORCA-job 4-NO2PhN2+~CF3COO-_B3LYPG-6-31G_dp-NX-Scan-d89-09-n800
 OpenBabel11261920383D

 22 21  0  0  0  0  0  0  0  0999 V2000
   -1.9137    0.4994    0.2543 C   0  0  0  0  0  0  0  0  0  0  0  0
   -2.8494   -0.2370    0.8702 N   0  0  0  0  0  0  0  0  0  0  0  0
   -3.5986   -0.8995    1.3941 N   0  0  0  0  0  0  0  0  0  0  0  0
   -2.2317    1.0970   -1.0121 C   0  0  0  0  0  0  0  0  0  0  0  0
   -1.0979    1.5903   -1.7414 C   0  0  0  0  0  0  0  0  0  0  0  0
    0.1205    1.6624   -1.1331 C   0  0  0  0  0  0  0  0  0  0  0  0
    1.2565    2.2199   -1.9045 N   0  0  0  0  0  0  0  0  0  0  0  0
    1.0449    2.5646   -3.0623 O   0  0  0  0  0  0  0  0  0  0  0  0
    2.3383    2.2912   -1.3260 O   0  0  0  0  0  0  0  0  0  0  0  0
    0.3811    1.2096    0.1938 C   0  0  0  0  0  0  0  0  0  0  0  0
   -0.6321    0.6245    0.8895 C   0  0  0  0  0  0  0  0  0  0  0  0
   -3.0832    0.7164   -1.5579 H   0  0  0  0  0  0  0  0  0  0  0  0
   -1.2287    1.9470   -2.7538 H   0  0  0  0  0  0  0  0  0  0  0  0
    1.3714    1.3312    0.6107 H   0  0  0  0  0  0  0  0  0  0  0  0
   -0.4920    0.2451    1.8946 H   0  0  0  0  0  0  0  0  0  0  0  0
   -3.4598    4.9684   -0.7727 O   0  0  0  0  0  0  0  0  0  0  0  0
   -3.2254    3.8465   -0.3565 C   0  0  0  0  0  0  0  0  0  0  0  0
   -3.3104    2.7417   -1.0398 O   0  0  0  0  0  0  0  0  0  0  0  0
   -2.8153    3.6874    1.1308 C   0  0  0  0  0  0  0  0  0  0  0  0
   -3.4097    2.6043    1.7044 F   0  0  0  0  0  0  0  0  0  0  0  0
   -1.4744    3.4928    1.2328 F   0  0  0  0  0  0  0  0  0  0  0  0
   -3.1298    4.7559    1.8634 F   0  0  0  0  0  0  0  0  0  0  0  0
  1  2  1  0  0  0  0
  1 11  1  0  0  0  0
  2  3  1  0  0  0  0
  4  1  2  0  0  0  0
  5  6  2  0  0  0  0
  5  4  1  0  0  0  0
  6 10  1  0  0  0  0
  7  9  2  0  0  0  0
  7  6  1  0  0  0  0
  8  7  2  0  0  0  0
 10 14  1  0  0  0  0
 10 11  2  0  0  0  0
 11 15  1  0  0  0  0
 12  4  1  0  0  0  0
 13  5  1  0  0  0  0
 16 17  1  0  0  0  0
 17 19  1  0  0  0  0
 18 17  2  0  0  0  0
 19 21  1  0  0  0  0
 19 20  1  0  0  0  0
 19 22  1  0  0  0  0
M  RAD  3   2   2   3   3  16   2
M  END
