Coordinates from ORCA-job 4-NO2PhN2+~CF3COO-_B3LYPG-6-31G_dp-NX-Scan-d89-09-n800
 OpenBabel11261920383D

 22 22  0  0  0  0  0  0  0  0999 V2000
   -1.1569    0.7578    0.1818 C   0  0  0  0  0  0  0  0  0  0  0  0
   -2.0639    0.5108    1.2346 N   0  0  0  0  0  0  0  0  0  0  0  0
   -2.9533    1.0149    1.8067 N   0  0  0  0  0  0  0  0  0  0  0  0
   -1.1263    1.9541   -0.5589 C   0  0  0  0  0  0  0  0  0  0  0  0
   -0.1734    2.0804   -1.5647 C   0  0  0  0  0  0  0  0  0  0  0  0
    0.7075    1.0282   -1.8084 C   0  0  0  0  0  0  0  0  0  0  0  0
    1.7128    1.1781   -2.8851 N   0  0  0  0  0  0  0  0  0  0  0  0
    1.7142    2.2338   -3.5110 O   0  0  0  0  0  0  0  0  0  0  0  0
    2.4750    0.2343   -3.0764 O   0  0  0  0  0  0  0  0  0  0  0  0
    0.6831   -0.1600   -1.0820 C   0  0  0  0  0  0  0  0  0  0  0  0
   -0.2619   -0.2927   -0.0726 C   0  0  0  0  0  0  0  0  0  0  0  0
   -1.8289    2.7462   -0.3414 H   0  0  0  0  0  0  0  0  0  0  0  0
   -0.1060    2.9811   -2.1619 H   0  0  0  0  0  0  0  0  0  0  0  0
    1.3905   -0.9460   -1.3127 H   0  0  0  0  0  0  0  0  0  0  0  0
   -0.3215   -1.1957    0.5243 H   0  0  0  0  0  0  0  0  0  0  0  0
   -3.3677    2.5928    1.0673 O   0  0  0  0  0  0  0  0  0  0  0  0
   -4.0113    3.3660    1.9152 C   0  0  0  0  0  0  0  0  0  0  0  0
   -4.2304    3.2039    3.0924 O   0  0  0  0  0  0  0  0  0  0  0  0
   -4.5157    4.6315    1.1629 C   0  0  0  0  0  0  0  0  0  0  0  0
   -5.5452    4.3118    0.3546 F   0  0  0  0  0  0  0  0  0  0  0  0
   -4.9246    5.5698    2.0198 F   0  0  0  0  0  0  0  0  0  0  0  0
   -3.5357    5.1582    0.3938 F   0  0  0  0  0  0  0  0  0  0  0  0
  1  2  1  0  0  0  0
  2  3  1  0  0  0  0
  4 12  1  0  0  0  0
  4  1  2  0  0  0  0
  5  4  1  0  0  0  0
  6  5  2  0  0  0  0
  6 10  1  0  0  0  0
  7  6  1  0  0  0  0
  8  7  2  0  0  0  0
  9  7  2  0  0  0  0
 10 11  2  0  0  0  0
 11  1  1  0  0  0  0
 11 15  1  0  0  0  0
 13  5  1  0  0  0  0
 14 10  1  0  0  0  0
 16  3  1  0  0  0  0
 16 17  1  0  0  0  0
 17 18  2  0  0  0  0
 19 17  1  0  0  0  0
 19 21  1  0  0  0  0
 20 19  1  0  0  0  0
 22 19  1  0  0  0  0
M  RAD  2   2   2   3   2
M  END
