Coordinates from ORCA-job 4-NO2PhN2+~CF3COO-_B3LYPG-6-31G_dp-NX-Scan-d89-09-n800
 OpenBabel11261920383D

 22 22  0  0  1  0  0  0  0  0999 V2000
   -1.8662    0.4241   -0.0603 C   0  0  0  0  0  0  0  0  0  0  0  0
   -2.9880   -0.1867    0.2656 N   0  0  0  0  0  0  0  0  0  0  0  0
   -3.9547   -0.7173    0.5485 N   0  0  0  0  0  0  0  0  0  0  0  0
   -1.9645    1.7339   -0.7805 C   0  0  2  0  0  0  0  0  0  0  0  0
   -0.6757    2.0690   -1.4549 C   0  0  0  0  0  0  0  0  0  0  0  0
    0.4668    1.4502   -1.0939 C   0  0  0  0  0  0  0  0  0  0  0  0
    1.7271    1.8863   -1.7440 N   0  0  0  0  0  0  0  0  0  0  0  0
    1.6605    2.7583   -2.6058 O   0  0  0  0  0  0  0  0  0  0  0  0
    2.7634    1.3427   -1.3681 O   0  0  0  0  0  0  0  0  0  0  0  0
    0.5498    0.3670   -0.1469 C   0  0  0  0  0  0  0  0  0  0  0  0
   -0.6069   -0.1470    0.3401 C   0  0  0  0  0  0  0  0  0  0  0  0
   -2.8176    1.7703   -1.4595 H   0  0  0  0  0  0  0  0  0  0  0  0
   -0.6632    2.8543   -2.2001 H   0  0  0  0  0  0  0  0  0  0  0  0
    1.5184   -0.0310    0.1183 H   0  0  0  0  0  0  0  0  0  0  0  0
   -0.6077   -0.9979    1.0133 H   0  0  0  0  0  0  0  0  0  0  0  0
   -4.3839    3.0553   -0.4414 O   0  0  0  0  0  0  0  0  0  0  0  0
   -3.4322    3.3767    0.2274 C   0  0  0  0  0  0  0  0  0  0  0  0
   -2.2079    2.8430    0.2113 O   0  0  0  0  0  0  0  0  0  0  0  0
   -3.4820    4.5209    1.2675 C   0  0  0  0  0  0  0  0  0  0  0  0
   -2.6067    5.4855    0.9386 F   0  0  0  0  0  0  0  0  0  0  0  0
   -4.7064    5.0480    1.3164 F   0  0  0  0  0  0  0  0  0  0  0  0
   -3.1619    4.0536    2.4869 F   0  0  0  0  0  0  0  0  0  0  0  0
  1  2  1  0  0  0  0
  1 11  2  0  0  0  0
  2  3  1  0  0  0  0
  4 12  1  6  0  0  0
  4  1  1  0  0  0  0
  4 18  1  0  0  0  0
  5  6  2  0  0  0  0
  5  4  1  0  0  0  0
  6 10  1  0  0  0  0
  7  9  2  0  0  0  0
  7  6  1  0  0  0  0
  8  7  2  0  0  0  0
 10 14  1  0  0  0  0
 10 11  1  0  0  0  0
 11 15  1  0  0  0  0
 13  5  1  0  0  0  0
 16 17  2  0  0  0  0
 17 19  1  0  0  0  0
 18 17  1  0  0  0  0
 19 21  1  0  0  0  0
 19 22  1  0  0  0  0
 20 19  1  0  0  0  0
M  RAD  3   2   2   3   3  10   2
M  END
