Coordinates from ORCA-job 4-NO2PhN2+~CF3COO-_B3LYPG-6-31G_dp-NX-Scan-d89-09-n800
 OpenBabel11261920383D

 22 22  0  0  1  0  0  0  0  0999 V2000
   -1.8447    0.2147    0.0801 C   0  0  0  0  0  0  0  0  0  0  0  0
   -2.8421   -0.5511    0.4785 N   0  0  0  0  0  0  0  0  0  0  0  0
   -3.6725   -1.2475    0.8297 N   0  0  0  0  0  0  0  0  0  0  0  0
   -2.1500    1.4952   -0.6342 C   0  0  2  0  0  0  0  0  0  0  0  0
   -0.9572    1.9712   -1.4013 C   0  0  0  0  0  0  0  0  0  0  0  0
    0.2745    1.5124   -1.1012 C   0  0  0  0  0  0  0  0  0  0  0  0
    1.4285    2.0881   -1.8357 N   0  0  0  0  0  0  0  0  0  0  0  0
    1.2017    2.9292   -2.7002 O   0  0  0  0  0  0  0  0  0  0  0  0
    2.5454    1.6814   -1.5215 O   0  0  0  0  0  0  0  0  0  0  0  0
    0.5520    0.4697   -0.1456 C   0  0  0  0  0  0  0  0  0  0  0  0
   -0.4986   -0.1799    0.4120 C   0  0  0  0  0  0  0  0  0  0  0  0
   -3.0357    1.4307   -1.2706 H   0  0  0  0  0  0  0  0  0  0  0  0
   -1.0992    2.7353   -2.1538 H   0  0  0  0  0  0  0  0  0  0  0  0
    1.5774    0.2047    0.0684 H   0  0  0  0  0  0  0  0  0  0  0  0
   -0.3514   -1.0130    1.0914 H   0  0  0  0  0  0  0  0  0  0  0  0
   -3.1781    4.0264   -1.1531 O   0  0  0  0  0  0  0  0  0  0  0  0
   -3.0089    3.6746   -0.0107 C   0  0  0  0  0  0  0  0  0  0  0  0
   -2.5075    2.5150    0.4213 O   0  0  0  0  0  0  0  0  0  0  0  0
   -3.3818    4.5568    1.2048 C   0  0  0  0  0  0  0  0  0  0  0  0
   -2.3236    4.7168    2.0166 F   0  0  0  0  0  0  0  0  0  0  0  0
   -3.7974    5.7563    0.7962 F   0  0  0  0  0  0  0  0  0  0  0  0
   -4.3704    3.9722    1.9073 F   0  0  0  0  0  0  0  0  0  0  0  0
  1 11  2  0  0  0  0
  1  2  1  0  0  0  0
  2  3  1  0  0  0  0
  4 12  1  6  0  0  0
  4  1  1  0  0  0  0
  4 18  1  0  0  0  0
  5  6  2  0  0  0  0
  5  4  1  0  0  0  0
  6 10  1  0  0  0  0
  7  9  2  0  0  0  0
  7  6  1  0  0  0  0
  8  7  2  0  0  0  0
 10 14  1  0  0  0  0
 10 11  1  0  0  0  0
 11 15  1  0  0  0  0
 13  5  1  0  0  0  0
 16 17  2  0  0  0  0
 17 18  1  0  0  0  0
 17 19  1  0  0  0  0
 19 22  1  0  0  0  0
 19 20  1  0  0  0  0
 21 19  1  0  0  0  0
M  RAD  3   2   2   3   3  10   2
M  END
