Coordinates from ORCA-job 4-NO2PhN2+~CF3COO-_B3LYPG-6-31G_dp-NX-Scan-d89-09-n800
 OpenBabel11261920383D

 22 21  0  0  0  0  0  0  0  0999 V2000
   -1.7113   -0.6324    0.2745 C   0  0  0  0  0  0  0  0  0  0  0  0
   -2.4621   -1.7149    0.6259 N   0  0  0  0  0  0  0  0  0  0  0  0
   -3.0508   -2.6249    0.9324 N   0  0  0  0  0  0  0  0  0  0  0  0
   -2.3179    0.4403   -0.4222 C   0  0  0  0  0  0  0  0  0  0  0  0
   -1.5117    1.4976   -0.8199 C   0  0  0  0  0  0  0  0  0  0  0  0
   -0.1604    1.4711   -0.4750 C   0  0  0  0  0  0  0  0  0  0  0  0
    0.7102    2.5742   -0.9300 N   0  0  0  0  0  0  0  0  0  0  0  0
    0.2327    3.3715   -1.7251 O   0  0  0  0  0  0  0  0  0  0  0  0
    1.8567    2.5952   -0.4807 O   0  0  0  0  0  0  0  0  0  0  0  0
    0.4286    0.4396    0.2698 C   0  0  0  0  0  0  0  0  0  0  0  0
   -0.3389   -0.6445    0.6423 C   0  0  0  0  0  0  0  0  0  0  0  0
   -3.3818    0.4599   -0.6313 H   0  0  0  0  0  0  0  0  0  0  0  0
   -1.9891    2.3510   -1.3114 H   0  0  0  0  0  0  0  0  0  0  0  0
    1.4787    0.5040    0.5259 H   0  0  0  0  0  0  0  0  0  0  0  0
    0.0779   -1.4795    1.1932 H   0  0  0  0  0  0  0  0  0  0  0  0
   -4.1646    5.5597   -1.3499 O   0  0  0  0  0  0  0  0  0  0  0  0
   -3.4573    4.6438   -0.9111 C   0  0  0  0  0  0  0  0  0  0  0  0
   -3.5399    3.4059   -1.1696 O   0  0  0  0  0  0  0  0  0  0  0  0
   -2.3139    5.0824    0.0535 C   0  0  0  0  0  0  0  0  0  0  0  0
   -1.7305    4.0249    0.6914 F   0  0  0  0  0  0  0  0  0  0  0  0
   -1.3318    5.7200   -0.6162 F   0  0  0  0  0  0  0  0  0  0  0  0
   -2.7622    5.9143    1.0121 F   0  0  0  0  0  0  0  0  0  0  0  0
  1  2  1  0  0  0  0
  1 11  1  0  0  0  0
  2  3  1  0  0  0  0
  4  1  2  0  0  0  0
  5  6  2  0  0  0  0
  5  4  1  0  0  0  0
  6 10  1  0  0  0  0
  7  9  2  0  0  0  0
  7  6  1  0  0  0  0
  8  7  2  0  0  0  0
 10 14  1  0  0  0  0
 10 11  2  0  0  0  0
 11 15  1  0  0  0  0
 12  4  1  0  0  0  0
 13  5  1  0  0  0  0
 16 17  2  0  0  0  0
 17 19  1  0  0  0  0
 18 17  1  0  0  0  0
 19 20  1  0  0  0  0
 19 22  1  0  0  0  0
 21 19  1  0  0  0  0
M  RAD  3   2   2   3   3  18   2
M  END
