Coordinates from ORCA-job 4-NO2PhN2+~CF3COO-_B3LYPG-6-31G_dp-NX-Scan-d89-09-n800
 OpenBabel11261920383D

 22 21  0  0  0  0  0  0  0  0999 V2000
   -1.8940    0.0396    0.2786 C   0  0  0  0  0  0  0  0  0  0  0  0
   -2.7569   -0.8740    0.7942 N   0  0  0  0  0  0  0  0  0  0  0  0
   -3.4027   -1.6893    1.2267 N   0  0  0  0  0  0  0  0  0  0  0  0
   -2.2700    0.7849   -0.8635 C   0  0  0  0  0  0  0  0  0  0  0  0
   -1.2813    1.5767   -1.4572 C   0  0  0  0  0  0  0  0  0  0  0  0
   -0.0340    1.6548   -0.8671 C   0  0  0  0  0  0  0  0  0  0  0  0
    0.9943    2.5013   -1.5010 N   0  0  0  0  0  0  0  0  0  0  0  0
    0.7033    3.0447   -2.5607 O   0  0  0  0  0  0  0  0  0  0  0  0
    2.0759    2.5901   -0.9224 O   0  0  0  0  0  0  0  0  0  0  0  0
    0.3084    0.9770    0.3229 C   0  0  0  0  0  0  0  0  0  0  0  0
   -0.6171    0.1552    0.9101 C   0  0  0  0  0  0  0  0  0  0  0  0
   -3.2502    0.6936   -1.3072 H   0  0  0  0  0  0  0  0  0  0  0  0
   -1.5121    2.1558   -2.3397 H   0  0  0  0  0  0  0  0  0  0  0  0
    1.2944    1.1181    0.7458 H   0  0  0  0  0  0  0  0  0  0  0  0
   -0.4023   -0.3975    1.8167 H   0  0  0  0  0  0  0  0  0  0  0  0
   -3.7933    5.1856   -0.9701 O   0  0  0  0  0  0  0  0  0  0  0  0
   -3.3667    4.0967   -0.5853 C   0  0  0  0  0  0  0  0  0  0  0  0
   -3.5699    2.9421   -1.0905 O   0  0  0  0  0  0  0  0  0  0  0  0
   -2.4134    4.1078    0.6489 C   0  0  0  0  0  0  0  0  0  0  0  0
   -2.4874    2.9606    1.3823 F   0  0  0  0  0  0  0  0  0  0  0  0
   -1.1166    4.2074    0.2356 F   0  0  0  0  0  0  0  0  0  0  0  0
   -2.6477    5.1280    1.4811 F   0  0  0  0  0  0  0  0  0  0  0  0
  1  2  1  0  0  0  0
  1 11  1  0  0  0  0
  2  3  1  0  0  0  0
  4  1  2  0  0  0  0
  5  6  2  0  0  0  0
  5  4  1  0  0  0  0
  6 10  1  0  0  0  0
  7  9  2  0  0  0  0
  7  6  1  0  0  0  0
  8  7  2  0  0  0  0
 10 14  1  0  0  0  0
 10 11  2  0  0  0  0
 11 15  1  0  0  0  0
 12  4  1  0  0  0  0
 13  5  1  0  0  0  0
 16 17  1  0  0  0  0
 17 19  1  0  0  0  0
 18 17  2  0  0  0  0
 19 20  1  0  0  0  0
 19 22  1  0  0  0  0
 21 19  1  0  0  0  0
M  RAD  3   2   2   3   3  16   2
M  END
