Coordinates from ORCA-job 4-NO2PhN2+~CF3COO-_B3LYPG-6-31G_dp-NX-Scan-d89-09-n800
 OpenBabel11261920383D

 22 22  0  0  1  0  0  0  0  0999 V2000
   -1.8946    0.5487   -0.1407 C   0  0  0  0  0  0  0  0  0  0  0  0
   -3.0763    0.0385    0.1590 N   0  0  0  0  0  0  0  0  0  0  0  0
   -4.1351   -0.2939    0.3915 N   0  0  0  0  0  0  0  0  0  0  0  0
   -1.8949    1.8498   -0.8816 C   0  0  2  0  0  0  0  0  0  0  0  0
   -0.5637    2.1133   -1.4977 C   0  0  0  0  0  0  0  0  0  0  0  0
    0.5264    1.4278   -1.0935 C   0  0  0  0  0  0  0  0  0  0  0  0
    1.8330    1.7905   -1.6977 N   0  0  0  0  0  0  0  0  0  0  0  0
    1.8480    2.6650   -2.5592 O   0  0  0  0  0  0  0  0  0  0  0  0
    2.8221    1.1876   -1.2868 O   0  0  0  0  0  0  0  0  0  0  0  0
    0.5131    0.3404   -0.1504 C   0  0  0  0  0  0  0  0  0  0  0  0
   -0.6910   -0.1017    0.2940 C   0  0  0  0  0  0  0  0  0  0  0  0
   -2.7106    1.9056   -1.6059 H   0  0  0  0  0  0  0  0  0  0  0  0
   -0.4755    2.8951   -2.2411 H   0  0  0  0  0  0  0  0  0  0  0  0
    1.4460   -0.1166    0.1452 H   0  0  0  0  0  0  0  0  0  0  0  0
   -0.7676   -0.9523    0.9634 H   0  0  0  0  0  0  0  0  0  0  0  0
   -4.3137    2.3900    0.2789 O   0  0  0  0  0  0  0  0  0  0  0  0
   -3.4001    3.1608    0.4669 C   0  0  0  0  0  0  0  0  0  0  0  0
   -2.1468    3.0315    0.0419 O   0  0  0  0  0  0  0  0  0  0  0  0
   -3.5579    4.4735    1.2688 C   0  0  0  0  0  0  0  0  0  0  0  0
   -3.2721    5.5297    0.4879 F   0  0  0  0  0  0  0  0  0  0  0  0
   -4.8090    4.5950    1.7162 F   0  0  0  0  0  0  0  0  0  0  0  0
   -2.7193    4.4809    2.3192 F   0  0  0  0  0  0  0  0  0  0  0  0
  1  2  1  0  0  0  0
  1 11  2  0  0  0  0
  2  3  1  0  0  0  0
  4 12  1  6  0  0  0
  4  1  1  0  0  0  0
  4 18  1  0  0  0  0
  5  6  2  0  0  0  0
  5  4  1  0  0  0  0
  6 10  1  0  0  0  0
  7  9  2  0  0  0  0
  7  6  1  0  0  0  0
  8  7  2  0  0  0  0
 10 14  1  0  0  0  0
 10 11  1  0  0  0  0
 11 15  1  0  0  0  0
 13  5  1  0  0  0  0
 16 17  2  0  0  0  0
 17 19  1  0  0  0  0
 18 17  1  0  0  0  0
 19 21  1  0  0  0  0
 19 22  1  0  0  0  0
 20 19  1  0  0  0  0
M  RAD  3   2   2   3   3  10   2
M  END
