Coordinates from ORCA-job 4-NO2PhN2+~CF3COO-_B3LYPG-6-31G_dp-NX-Scan-d89-09-n800
 OpenBabel11261920383D

 22 22  0  0  1  0  0  0  0  0999 V2000
   -1.8361    0.2306    0.0747 C   0  0  0  0  0  0  0  0  0  0  0  0
   -2.8585   -0.4941    0.4837 N   0  0  0  0  0  0  0  0  0  0  0  0
   -3.7291   -1.1377    0.8372 N   0  0  0  0  0  0  0  0  0  0  0  0
   -2.1188    1.5205   -0.6295 C   0  0  2  0  0  0  0  0  0  0  0  0
   -0.9175    1.9927   -1.3835 C   0  0  0  0  0  0  0  0  0  0  0  0
    0.3048    1.5001   -1.0988 C   0  0  0  0  0  0  0  0  0  0  0  0
    1.4692    2.0708   -1.8210 N   0  0  0  0  0  0  0  0  0  0  0  0
    1.2585    2.9433   -2.6581 O   0  0  0  0  0  0  0  0  0  0  0  0
    2.5774    1.6284   -1.5254 O   0  0  0  0  0  0  0  0  0  0  0  0
    0.5628    0.4289   -0.1693 C   0  0  0  0  0  0  0  0  0  0  0  0
   -0.4990   -0.2044    0.3868 C   0  0  0  0  0  0  0  0  0  0  0  0
   -3.0014    1.4749   -1.2714 H   0  0  0  0  0  0  0  0  0  0  0  0
   -1.0454    2.7775   -2.1176 H   0  0  0  0  0  0  0  0  0  0  0  0
    1.5829    0.1338    0.0296 H   0  0  0  0  0  0  0  0  0  0  0  0
   -0.3668   -1.0523    1.0505 H   0  0  0  0  0  0  0  0  0  0  0  0
   -3.3311    3.9407   -1.1440 O   0  0  0  0  0  0  0  0  0  0  0  0
   -3.0674    3.6486   -0.0030 C   0  0  0  0  0  0  0  0  0  0  0  0
   -2.4657    2.5384    0.4300 O   0  0  0  0  0  0  0  0  0  0  0  0
   -3.4120    4.5550    1.2024 C   0  0  0  0  0  0  0  0  0  0  0  0
   -2.2994    4.8633    1.8900 F   0  0  0  0  0  0  0  0  0  0  0  0
   -3.9874    5.6828    0.7840 F   0  0  0  0  0  0  0  0  0  0  0  0
   -4.2596    3.9174    2.0309 F   0  0  0  0  0  0  0  0  0  0  0  0
  1 11  2  0  0  0  0
  1  2  1  0  0  0  0
  2  3  1  0  0  0  0
  4 12  1  6  0  0  0
  4  1  1  0  0  0  0
  4 18  1  0  0  0  0
  5  6  2  0  0  0  0
  5  4  1  0  0  0  0
  6 10  1  0  0  0  0
  7  9  2  0  0  0  0
  7  6  1  0  0  0  0
  8  7  2  0  0  0  0
 10 14  1  0  0  0  0
 10 11  1  0  0  0  0
 11 15  1  0  0  0  0
 13  5  1  0  0  0  0
 16 17  2  0  0  0  0
 17 18  1  0  0  0  0
 17 19  1  0  0  0  0
 19 20  1  0  0  0  0
 19 22  1  0  0  0  0
 21 19  1  0  0  0  0
M  RAD  3   2   2   3   3  10   2
M  END
