Coordinates from ORCA-job 4-NO2PhN2+~CF3COO-_B3LYPG-6-31G_dp-NX-Scan-d89-09-n800
 OpenBabel11261920383D

 22 21  0  0  0  0  0  0  0  0999 V2000
   -1.8177   -0.1404    0.2957 C   0  0  0  0  0  0  0  0  0  0  0  0
   -2.6536   -1.1046    0.7743 N   0  0  0  0  0  0  0  0  0  0  0  0
   -3.2697   -1.9564    1.1777 N   0  0  0  0  0  0  0  0  0  0  0  0
   -2.2661    0.7521   -0.7071 C   0  0  0  0  0  0  0  0  0  0  0  0
   -1.3190    1.6120   -1.2606 C   0  0  0  0  0  0  0  0  0  0  0  0
   -0.0225    1.6018   -0.7659 C   0  0  0  0  0  0  0  0  0  0  0  0
    0.9689    2.5170   -1.3620 N   0  0  0  0  0  0  0  0  0  0  0  0
    0.6147    3.1756   -2.3322 O   0  0  0  0  0  0  0  0  0  0  0  0
    2.0861    2.5373   -0.8465 O   0  0  0  0  0  0  0  0  0  0  0  0
    0.3995    0.7652    0.2838 C   0  0  0  0  0  0  0  0  0  0  0  0
   -0.4924   -0.1289    0.8240 C   0  0  0  0  0  0  0  0  0  0  0  0
   -3.2907    0.7785   -1.0532 H   0  0  0  0  0  0  0  0  0  0  0  0
   -1.6226    2.3102   -2.0274 H   0  0  0  0  0  0  0  0  0  0  0  0
    1.4185    0.8378    0.6413 H   0  0  0  0  0  0  0  0  0  0  0  0
   -0.2134   -0.8070    1.6218 H   0  0  0  0  0  0  0  0  0  0  0  0
   -3.9217    5.3286   -1.1598 O   0  0  0  0  0  0  0  0  0  0  0  0
   -3.4513    4.2761   -0.7224 C   0  0  0  0  0  0  0  0  0  0  0  0
   -3.6079    3.0907   -1.1618 O   0  0  0  0  0  0  0  0  0  0  0  0
   -2.4929    4.3700    0.5038 C   0  0  0  0  0  0  0  0  0  0  0  0
   -2.6688    3.3408    1.3753 F   0  0  0  0  0  0  0  0  0  0  0  0
   -1.1921    4.2936    0.0880 F   0  0  0  0  0  0  0  0  0  0  0  0
   -2.6245    5.5093    1.1916 F   0  0  0  0  0  0  0  0  0  0  0  0
  1  2  1  0  0  0  0
  1 11  1  0  0  0  0
  2  3  1  0  0  0  0
  4  1  2  0  0  0  0
  5  6  2  0  0  0  0
  5  4  1  0  0  0  0
  6 10  1  0  0  0  0
  7  9  2  0  0  0  0
  7  6  1  0  0  0  0
  8  7  2  0  0  0  0
 10 14  1  0  0  0  0
 10 11  2  0  0  0  0
 11 15  1  0  0  0  0
 12  4  1  0  0  0  0
 13  5  1  0  0  0  0
 16 17  1  0  0  0  0
 17 19  1  0  0  0  0
 18 17  2  0  0  0  0
 19 22  1  0  0  0  0
 19 20  1  0  0  0  0
 21 19  1  0  0  0  0
M  RAD  3   2   2   3   3  16   2
M  END
