Coordinates from ORCA-job 4-NO2PhN2+~CF3COO-_B3LYPG-6-31G_dp-NX-Scan-d89-09-n800
 OpenBabel11261920383D

 22 22  0  0  1  0  0  0  0  0999 V2000
   -1.8384    0.3537    0.0003 C   0  0  0  0  0  0  0  0  0  0  0  0
   -2.9351   -0.2734    0.3753 N   0  0  0  0  0  0  0  0  0  0  0  0
   -3.8911   -0.8046    0.6928 N   0  0  0  0  0  0  0  0  0  0  0  0
   -2.0032    1.6580   -0.7164 C   0  0  2  0  0  0  0  0  0  0  0  0
   -0.7457    2.0428   -1.4231 C   0  0  0  0  0  0  0  0  0  0  0  0
    0.4267    1.4601   -1.0998 C   0  0  0  0  0  0  0  0  0  0  0  0
    1.6531    1.9446   -1.7801 N   0  0  0  0  0  0  0  0  0  0  0  0
    1.5334    2.8233   -2.6292 O   0  0  0  0  0  0  0  0  0  0  0  0
    2.7158    1.4242   -1.4477 O   0  0  0  0  0  0  0  0  0  0  0  0
    0.5728    0.3719   -0.1659 C   0  0  0  0  0  0  0  0  0  0  0  0
   -0.5506   -0.1808    0.3552 C   0  0  0  0  0  0  0  0  0  0  0  0
   -2.8703    1.6726   -1.3786 H   0  0  0  0  0  0  0  0  0  0  0  0
   -0.7820    2.8331   -2.1625 H   0  0  0  0  0  0  0  0  0  0  0  0
    1.5614    0.0023    0.0648 H   0  0  0  0  0  0  0  0  0  0  0  0
   -0.5029   -1.0344    1.0232 H   0  0  0  0  0  0  0  0  0  0  0  0
   -4.1423    3.4352   -0.8077 O   0  0  0  0  0  0  0  0  0  0  0  0
   -3.3551    3.4961    0.1047 C   0  0  0  0  0  0  0  0  0  0  0  0
   -2.2785    2.7306    0.3069 O   0  0  0  0  0  0  0  0  0  0  0  0
   -3.4773    4.5230    1.2552 C   0  0  0  0  0  0  0  0  0  0  0  0
   -2.3773    5.2919    1.3125 F   0  0  0  0  0  0  0  0  0  0  0  0
   -4.5411    5.3050    1.0671 F   0  0  0  0  0  0  0  0  0  0  0  0
   -3.6116    3.8839    2.4313 F   0  0  0  0  0  0  0  0  0  0  0  0
  1 11  2  0  0  0  0
  1  2  1  0  0  0  0
  2  3  1  0  0  0  0
  4 12  1  6  0  0  0
  4  1  1  0  0  0  0
  4 18  1  0  0  0  0
  5  6  2  0  0  0  0
  5  4  1  0  0  0  0
  6 10  1  0  0  0  0
  7  9  2  0  0  0  0
  7  6  1  0  0  0  0
  8  7  2  0  0  0  0
 10 14  1  0  0  0  0
 10 11  1  0  0  0  0
 11 15  1  0  0  0  0
 13  5  1  0  0  0  0
 16 17  2  0  0  0  0
 17 18  1  0  0  0  0
 17 19  1  0  0  0  0
 19 20  1  0  0  0  0
 19 22  1  0  0  0  0
 21 19  1  0  0  0  0
M  RAD  3   2   2   3   3  10   2
M  END
